# Generated by pormake.
# Topology snz, (6)-cn, num edge types: 1
# Building blocks:
#     Node 0, Type 0, BuildingBlock: KUMBUR_clean_sbu_1, # of connection points: 6
#     Node 1, Type 0, BuildingBlock: KUMBUR_clean_sbu_1, # of connection points: 6
#     Node 2, Type 0, BuildingBlock: KUMBUR_clean_sbu_1, # of connection points: 6
#     Node 3, Type 0, BuildingBlock: KUMBUR_clean_sbu_1, # of connection points: 6
#     Node 4, Type 0, BuildingBlock: KUMBUR_clean_sbu_1, # of connection points: 6
#     Node 5, Type 0, BuildingBlock: KUMBUR_clean_sbu_1, # of connection points: 6
#     Node 6, Type 0, BuildingBlock: KUMBUR_clean_sbu_1, # of connection points: 6
#     Node 7, Type 0, BuildingBlock: KUMBUR_clean_sbu_1, # of connection points: 6
#     Node 8, Type 0, BuildingBlock: KUMBUR_clean_sbu_1, # of connection points: 6
#     Edge 9, Type (0, 0), BuildingBlock: FUNLAD_clean_linker_0, # of connection points: 2
#     Edge 10, Type (0, 0), BuildingBlock: FUNLAD_clean_linker_0, # of connection points: 2
#     Edge 11, Type (0, 0), BuildingBlock: FUNLAD_clean_linker_0, # of connection points: 2
#     Edge 12, Type (0, 0), BuildingBlock: FUNLAD_clean_linker_0, # of connection points: 2
#     Edge 13, Type (0, 0), BuildingBlock: FUNLAD_clean_linker_0, # of connection points: 2
#     Edge 14, Type (0, 0), BuildingBlock: FUNLAD_clean_linker_0, # of connection points: 2
#     Edge 15, Type (0, 0), BuildingBlock: FUNLAD_clean_linker_0, # of connection points: 2
#     Edge 16, Type (0, 0), BuildingBlock: FUNLAD_clean_linker_0, # of connection points: 2
#     Edge 17, Type (0, 0), BuildingBlock: FUNLAD_clean_linker_0, # of connection points: 2
#     Edge 18, Type (0, 0), BuildingBlock: FUNLAD_clean_linker_0, # of connection points: 2
#     Edge 19, Type (0, 0), BuildingBlock: FUNLAD_clean_linker_0, # of connection points: 2
#     Edge 20, Type (0, 0), BuildingBlock: FUNLAD_clean_linker_0, # of connection points: 2
#     Edge 21, Type (0, 0), BuildingBlock: FUNLAD_clean_linker_0, # of connection points: 2
#     Edge 22, Type (0, 0), BuildingBlock: FUNLAD_clean_linker_0, # of connection points: 2
#     Edge 23, Type (0, 0), BuildingBlock: FUNLAD_clean_linker_0, # of connection points: 2
#     Edge 24, Type (0, 0), BuildingBlock: FUNLAD_clean_linker_0, # of connection points: 2
#     Edge 25, Type (0, 0), BuildingBlock: FUNLAD_clean_linker_0, # of connection points: 2
#     Edge 26, Type (0, 0), BuildingBlock: FUNLAD_clean_linker_0, # of connection points: 2
#     Edge 27, Type (0, 0), BuildingBlock: FUNLAD_clean_linker_0, # of connection points: 2
#     Edge 28, Type (0, 0), BuildingBlock: FUNLAD_clean_linker_0, # of connection points: 2
#     Edge 29, Type (0, 0), BuildingBlock: FUNLAD_clean_linker_0, # of connection points: 2
#     Edge 30, Type (0, 0), BuildingBlock: FUNLAD_clean_linker_0, # of connection points: 2
#     Edge 31, Type (0, 0), BuildingBlock: FUNLAD_clean_linker_0, # of connection points: 2
#     Edge 32, Type (0, 0), BuildingBlock: FUNLAD_clean_linker_0, # of connection points: 2
#     Edge 33, Type (0, 0), BuildingBlock: FUNLAD_clean_linker_0, # of connection points: 2
#     Edge 34, Type (0, 0), BuildingBlock: FUNLAD_clean_linker_0, # of connection points: 2
#     Edge 35, Type (0, 0), BuildingBlock: FUNLAD_clean_linker_0, # of connection points: 2
# Relax obj value: 0.199
# Max RMSD: 0.160
# Mean RMSD: 0.109
data_MOF--net-snz--node1-KUMBUR_clean_sbu_1--edge1-FUNLAD_clean_linker_0
_symmetry_space_group_name_H-M    P1
_symmetry_Int_Tables_number       1
_symmetry_cell_setting            triclinic
loop_
_symmetry_equiv_pos_as_xyz
'x, y, z'
_cell_length_a     74.318
_cell_length_b     61.710
_cell_length_c     21.344
_cell_angle_alpha  97.051
_cell_angle_beta   97.148
_cell_angle_gamma  120.445
loop_
_atom_site_label
_atom_site_type_symbol
_atom_site_fract_x
_atom_site_fract_y
_atom_site_fract_z
_atom_type_partial_charge
Tb0 Tb 0.98916 0.47740 0.13252 0.0
C1 C 0.09929 0.52629 0.14613 0.0
N2 N 0.08148 0.50637 0.10217 0.0
C3 C 0.09928 0.52126 0.01686 0.0
C4 C 0.11726 0.54413 0.12426 0.0
C5 C 0.08182 0.50397 0.03941 0.0
C6 C 0.11667 0.54153 0.05705 0.0
C7 C 0.11719 0.54974 0.25814 0.0
C8 C 0.09918 0.52894 0.21326 0.0
C9 C 0.13524 0.56747 0.23545 0.0
C10 C 0.13528 0.56489 0.17277 0.0
Tb11 Tb 0.04740 0.47811 0.14606 0.0
N12 N 0.08153 0.51112 0.23156 0.0
C13 C 0.11607 0.55187 0.32418 0.0
C14 C 0.08159 0.51409 0.29485 0.0
C15 C 0.09883 0.53448 0.34230 0.0
H16 H 0.06998 0.49029 0.00976 0.0
H17 H 0.09821 0.53578 0.38572 0.0
H18 H 0.96657 0.46523 0.26882 0.0
H19 H 0.93835 0.41974 0.89285 0.0
H20 H 0.06965 0.50209 0.30810 0.0
H21 H 0.12746 0.56554 0.35520 0.0
H22 H 0.96691 0.45343 0.97048 0.0
H23 H 0.09888 0.51868 0.97271 0.0
H24 H 0.14717 0.58106 0.26496 0.0
H25 H 0.14729 0.57681 0.15956 0.0
H26 H 0.93768 0.43683 0.30586 0.0
H27 H 0.12796 0.55349 0.04135 0.0
H28 H 0.90909 0.38997 0.92338 0.0
N29 N 0.95507 0.44915 0.17640 0.0
C30 C 0.93727 0.42922 0.13244 0.0
C31 C 0.93727 0.43426 0.26171 0.0
C32 C 0.91930 0.41139 0.15432 0.0
C33 C 0.95473 0.45155 0.23917 0.0
C34 C 0.91988 0.41399 0.22152 0.0
N35 N 0.95502 0.44440 0.04702 0.0
C36 C 0.95496 0.44142 0.98373 0.0
C37 C 0.91936 0.40578 0.02043 0.0
C38 C 0.93738 0.42658 0.06531 0.0
C39 C 0.92048 0.40364 0.95440 0.0
C40 C 0.93772 0.42104 0.93628 0.0
H41 H 0.90859 0.40203 0.23722 0.0
H42 H 0.88927 0.37870 0.11901 0.0
H43 H 0.88939 0.37446 0.01361 0.0
O44 O 0.98106 0.50236 0.06505 0.0
O45 O 0.98539 0.43629 0.12306 0.0
O46 O 0.01562 0.43738 0.11604 0.0
O47 O 0.97462 0.50364 0.16273 0.0
O48 O 0.00649 0.47610 0.05095 0.0
O49 O 0.03511 0.47557 0.03475 0.0
O50 O 0.05549 0.45315 0.21352 0.0
O51 O 0.05117 0.51923 0.15552 0.0
O52 O 0.02093 0.51814 0.16253 0.0
O53 O 0.06193 0.45188 0.11584 0.0
O54 O 0.03006 0.47942 0.22763 0.0
O55 O 0.00144 0.47995 0.24382 0.0
C56 C 0.99584 0.42624 0.10777 0.0
C57 C 0.96618 0.52715 0.09708 0.0
C58 C 0.95833 0.55092 0.02850 0.0
C59 C 0.94900 0.55693 0.07527 0.0
C60 C 0.95693 0.53357 0.14346 0.0
C61 C 0.94847 0.54873 0.13268 0.0
C62 C 0.96702 0.53613 0.04058 0.0
C63 C 0.02032 0.47919 0.01796 0.0
C64 C 0.97433 0.50995 0.10902 0.0
C65 C 0.90127 0.39063 0.10580 0.0
C66 C 0.90131 0.38804 0.04313 0.0
C67 C 0.04071 0.52927 0.17081 0.0
C68 C 0.07038 0.42837 0.18150 0.0
C69 C 0.07823 0.40460 0.25008 0.0
C70 C 0.08756 0.39859 0.20331 0.0
C71 C 0.07962 0.42195 0.13512 0.0
C72 C 0.06953 0.41938 0.23799 0.0
C73 C 0.08809 0.40679 0.14590 0.0
C74 C 0.01623 0.47633 0.26062 0.0
C75 C 0.06222 0.44557 0.16955 0.0
H76 H 0.94302 0.56667 0.06751 0.0
H77 H 0.95641 0.52765 0.18159 0.0
H78 H 0.94253 0.55325 0.16374 0.0
H79 H 0.97351 0.53224 0.01025 0.0
H80 H 0.09354 0.38884 0.21106 0.0
H81 H 0.08014 0.42787 0.09698 0.0
H82 H 0.06305 0.42328 0.26832 0.0
H83 H 0.09402 0.40227 0.11484 0.0
Tb84 Tb 0.55991 0.49644 0.05953 0.0
C85 C 0.62135 0.43894 0.09886 0.0
N86 N 0.62343 0.46022 0.13665 0.0
C87 C 0.62969 0.44568 0.23074 0.0
C88 C 0.62325 0.42063 0.12825 0.0
C89 C 0.62777 0.46341 0.20086 0.0
C90 C 0.62701 0.42418 0.19650 0.0
C91 C 0.61419 0.41328 0.99156 0.0
C92 C 0.61688 0.43542 0.03030 0.0
C93 C 0.61628 0.39507 0.02185 0.0
C94 C 0.62051 0.39847 0.08584 0.0
Tb95 Tb 0.61474 0.48965 0.07763 0.0
N96 N 0.61538 0.45374 0.00471 0.0
C97 C 0.60924 0.41036 0.92364 0.0
C98 C 0.61089 0.44995 0.94009 0.0
C99 C 0.60775 0.42824 0.89838 0.0
H100 H 0.62955 0.47798 0.22648 0.0
H101 H 0.60470 0.42641 0.85379 0.0
H102 H 0.54510 0.50811 0.91068 0.0
H103 H 0.56995 0.55968 0.28337 0.0
H104 H 0.60980 0.46229 0.92188 0.0
H105 H 0.60699 0.39583 0.89638 0.0
H106 H 0.56485 0.52381 0.21528 0.0
H107 H 0.63293 0.44883 0.27569 0.0
H108 H 0.61468 0.38059 0.99643 0.0
H109 H 0.62173 0.38621 0.10406 0.0
H110 H 0.54173 0.53726 0.86147 0.0
H111 H 0.62760 0.41199 0.21684 0.0
H112 H 0.56766 0.59026 0.24078 0.0
N113 N 0.55122 0.52587 0.00010 0.0
C114 C 0.55330 0.54715 0.03831 0.0
C115 C 0.54496 0.54041 0.90642 0.0
C116 C 0.55140 0.56546 0.00891 0.0
C117 C 0.54688 0.52268 0.93630 0.0
C118 C 0.54764 0.56192 0.94067 0.0
N119 N 0.55927 0.53235 0.13245 0.0
C120 C 0.56376 0.53614 0.19707 0.0
C121 C 0.56046 0.57281 0.14560 0.0
C122 C 0.55777 0.55067 0.10686 0.0
C123 C 0.56541 0.57573 0.21353 0.0
C124 C 0.56690 0.55785 0.23878 0.0
H125 H 0.54705 0.57410 0.92032 0.0
H126 H 0.55292 0.59988 0.03311 0.0
H127 H 0.55997 0.60550 0.14074 0.0
O128 O 0.53177 0.47475 0.11983 0.0
O129 O 0.59342 0.53575 0.07317 0.0
O130 O 0.62166 0.53176 0.09670 0.0
O131 O 0.52155 0.47270 0.01702 0.0
O132 O 0.58013 0.49717 0.15199 0.0
O133 O 0.60855 0.49502 0.18419 0.0
O134 O 0.64288 0.51134 0.01733 0.0
O135 O 0.58123 0.45034 0.06399 0.0
O136 O 0.55299 0.45433 0.04046 0.0
O137 O 0.65310 0.51339 0.12015 0.0
O138 O 0.59452 0.48892 0.98518 0.0
O139 O 0.56610 0.49107 0.95297 0.0
C140 C 0.61291 0.54440 0.09590 0.0
C141 C 0.49433 0.45239 0.07550 0.0
C142 C 0.46752 0.43182 0.13724 0.0
C143 C 0.45180 0.42638 0.08378 0.0
C144 C 0.47833 0.44656 0.02243 0.0
C145 C 0.45693 0.43328 0.02647 0.0
C146 C 0.48876 0.44470 0.13194 0.0
C147 C 0.59161 0.49336 0.19258 0.0
C148 C 0.51721 0.46760 0.07041 0.0
C149 C 0.55414 0.58762 0.05132 0.0
C150 C 0.55837 0.59102 0.11532 0.0
C151 C 0.56174 0.44169 0.04126 0.0
C152 C 0.68032 0.53370 0.06166 0.0
C153 C 0.70713 0.55427 0.99990 0.0
C154 C 0.72285 0.55972 0.05338 0.0
C155 C 0.69632 0.53953 0.11474 0.0
C156 C 0.68589 0.54139 0.00522 0.0
C157 C 0.71772 0.55281 0.11070 0.0
C158 C 0.58304 0.49274 0.94458 0.0
C159 C 0.65744 0.51849 0.06676 0.0
H160 H 0.43756 0.41791 0.08692 0.0
H161 H 0.48200 0.45161 0.98433 0.0
H162 H 0.44627 0.42914 0.99103 0.0
H163 H 0.49937 0.44818 0.16685 0.0
H164 H 0.73709 0.56818 0.05024 0.0
H165 H 0.69265 0.53449 0.15283 0.0
H166 H 0.67528 0.53791 0.97031 0.0
H167 H 0.72838 0.55695 0.14613 0.0
Tb168 Tb 0.60221 0.10765 0.03471 0.0
C169 C 0.52908 0.97259 0.93820 0.0
N170 N 0.52994 0.99218 0.91114 0.0
C171 C 0.52236 0.96681 0.80653 0.0
C172 C 0.52502 0.94986 0.89804 0.0
C173 C 0.52636 0.98895 0.84686 0.0
C174 C 0.52215 0.94759 0.83018 0.0
C175 C 0.53239 0.95594 0.03448 0.0
C176 C 0.53271 0.97573 0.00668 0.0
C177 C 0.52815 0.93308 0.99341 0.0
C178 C 0.52472 0.93022 0.92952 0.0
Tb179 Tb 0.54240 0.03560 0.98981 0.0
N180 N 0.53638 0.99790 0.04287 0.0
C181 C 0.53663 0.96028 0.10287 0.0
C182 C 0.54004 0.00010 0.10728 0.0
C183 C 0.54023 0.98195 0.13847 0.0
H184 H 0.52655 0.00195 0.82844 0.0
H185 H 0.54281 0.98466 0.18333 0.0
H186 H 0.61806 0.14131 0.19609 0.0
H187 H 0.60181 0.15859 0.84120 0.0
H188 H 0.54259 0.01572 0.13266 0.0
H189 H 0.53692 0.94791 0.12314 0.0
H190 H 0.60202 0.12753 0.89186 0.0
H191 H 0.51975 0.96531 0.76196 0.0
H192 H 0.52777 0.91997 0.01161 0.0
H193 H 0.52204 0.91509 0.90412 0.0
H194 H 0.62486 0.17794 0.26257 0.0
H195 H 0.52020 0.93325 0.80296 0.0
H196 H 0.60770 0.19535 0.90138 0.0
N197 N 0.61467 0.15107 0.11339 0.0
C198 C 0.61554 0.17067 0.08633 0.0
C199 C 0.62226 0.17644 0.21799 0.0
C200 C 0.61959 0.19339 0.12648 0.0
C201 C 0.61826 0.15430 0.17766 0.0
C202 C 0.62246 0.19567 0.19435 0.0
N203 N 0.60823 0.14535 0.98165 0.0
C204 C 0.60457 0.14258 0.91724 0.0
C205 C 0.61223 0.18731 0.99005 0.0
C206 C 0.61190 0.16753 0.01784 0.0
C207 C 0.60798 0.18297 0.92165 0.0
C208 C 0.60438 0.16130 0.88605 0.0
H209 H 0.62442 0.21001 0.22156 0.0
H210 H 0.62257 0.22816 0.12040 0.0
H211 H 0.61684 0.22329 0.01292 0.0
O212 O 0.63046 0.11573 0.97450 0.0
O213 O 0.57120 0.11047 0.02836 0.0
O214 O 0.54048 0.07248 0.99077 0.0
O215 O 0.64012 0.12804 0.08045 0.0
O216 O 0.58149 0.08245 0.93418 0.0
O217 O 0.55091 0.04601 0.88884 0.0
O218 O 0.51415 0.02753 0.05003 0.0
O219 O 0.57342 0.03278 0.99616 0.0
O220 O 0.60413 0.07077 0.03376 0.0
O221 O 0.50450 0.01521 0.94407 0.0
O222 O 0.56312 0.06081 0.09034 0.0
O223 O 0.59370 0.09724 0.13568 0.0
C224 C 0.55152 0.09640 0.00214 0.0
C225 C 0.66753 0.13658 0.02241 0.0
C226 C 0.69450 0.14426 0.96080 0.0
C227 C 0.71020 0.15814 0.01789 0.0
C228 C 0.68348 0.15035 0.07903 0.0
C229 C 0.70492 0.16099 0.07677 0.0
C230 C 0.67317 0.13340 0.96415 0.0
C231 C 0.56906 0.06387 0.88669 0.0
C232 C 0.64473 0.12631 0.02614 0.0
C233 C 0.61989 0.21304 0.09500 0.0
C234 C 0.61646 0.21017 0.03111 0.0
C235 C 0.59310 0.04685 0.02239 0.0
C236 C 0.47708 0.00668 0.00211 0.0
C237 C 0.45011 0.99900 0.06373 0.0
C238 C 0.43441 0.98511 0.00663 0.0
C239 C 0.46113 0.99290 0.94550 0.0
C240 C 0.47144 0.00985 0.06037 0.0
C241 C 0.43970 0.98226 0.94775 0.0
C242 C 0.57555 0.07939 0.13783 0.0
C243 C 0.49988 0.01695 0.99838 0.0
H244 H 0.72452 0.16562 0.01615 0.0
H245 H 0.67975 0.15244 0.11830 0.0
H246 H 0.71551 0.16991 0.11443 0.0
H247 H 0.66254 0.12385 0.92669 0.0
H248 H 0.42009 0.97764 0.00838 0.0
H249 H 0.46487 0.99081 0.90622 0.0
H250 H 0.48207 0.01940 0.09784 0.0
H251 H 0.42910 0.97335 0.91009 0.0
Tb252 Tb 0.71363 0.85522 0.20860 0.0
C253 C 0.82376 0.90411 0.22221 0.0
N254 N 0.80596 0.88418 0.17825 0.0
C255 C 0.82375 0.89907 0.09294 0.0
C256 C 0.84173 0.92194 0.20033 0.0
C257 C 0.80630 0.88178 0.11549 0.0
C258 C 0.84114 0.91934 0.13313 0.0
C259 C 0.84167 0.92755 0.33422 0.0
C260 C 0.82365 0.90675 0.28934 0.0
C261 C 0.85971 0.94529 0.31153 0.0
C262 C 0.85976 0.94270 0.24885 0.0
Tb263 Tb 0.77187 0.85593 0.22214 0.0
N264 N 0.80600 0.88893 0.30764 0.0
C265 C 0.84054 0.92969 0.40026 0.0
C266 C 0.80606 0.89191 0.37093 0.0
C267 C 0.82330 0.91230 0.41838 0.0
H268 H 0.79446 0.86810 0.08584 0.0
H269 H 0.82268 0.91360 0.46180 0.0
H270 H 0.69104 0.84305 0.34490 0.0
H271 H 0.66282 0.79755 0.96893 0.0
H272 H 0.79412 0.87990 0.38418 0.0
H273 H 0.85193 0.94336 0.43127 0.0
H274 H 0.69138 0.83124 0.04655 0.0
H275 H 0.82335 0.89650 0.04879 0.0
H276 H 0.87164 0.95887 0.34104 0.0
H277 H 0.87176 0.95463 0.23564 0.0
H278 H 0.66215 0.81465 0.38194 0.0
H279 H 0.85243 0.93130 0.11743 0.0
H280 H 0.63357 0.76778 0.99990 0.0
N281 N 0.67954 0.82696 0.25248 0.0
C282 C 0.66174 0.80704 0.20852 0.0
C283 C 0.66175 0.81207 0.33779 0.0
C284 C 0.64377 0.78920 0.23040 0.0
C285 C 0.67920 0.82936 0.31525 0.0
C286 C 0.64436 0.79180 0.29760 0.0
N287 N 0.67949 0.82221 0.12310 0.0
C288 C 0.67944 0.81924 0.05981 0.0
C289 C 0.64383 0.78359 0.09651 0.0
C290 C 0.66185 0.80439 0.14139 0.0
C291 C 0.64496 0.78146 0.03048 0.0
C292 C 0.66219 0.79885 0.01236 0.0
H293 H 0.63306 0.77984 0.31330 0.0
H294 H 0.61374 0.75652 0.19510 0.0
H295 H 0.61386 0.75227 0.08969 0.0
O296 O 0.70553 0.88018 0.14113 0.0
O297 O 0.70986 0.81410 0.19914 0.0
O298 O 0.74010 0.81519 0.19212 0.0
O299 O 0.69909 0.88145 0.23881 0.0
O300 O 0.73096 0.85391 0.12703 0.0
O301 O 0.75959 0.85338 0.11083 0.0
O302 O 0.77997 0.83097 0.28960 0.0
O303 O 0.77564 0.89704 0.23160 0.0
O304 O 0.74540 0.89595 0.23861 0.0
O305 O 0.78641 0.82970 0.19193 0.0
O306 O 0.75454 0.85723 0.30371 0.0
O307 O 0.72591 0.85777 0.31990 0.0
C308 C 0.72032 0.80406 0.18385 0.0
C309 C 0.69065 0.90496 0.17315 0.0
C310 C 0.68280 0.92873 0.10457 0.0
C311 C 0.67347 0.93474 0.15134 0.0
C312 C 0.68140 0.91138 0.21953 0.0
C313 C 0.67294 0.92654 0.20875 0.0
C314 C 0.69149 0.91394 0.11665 0.0
C315 C 0.74480 0.85700 0.09403 0.0
C316 C 0.69880 0.88776 0.18510 0.0
C317 C 0.62574 0.76844 0.18188 0.0
C318 C 0.62579 0.76585 0.11921 0.0
C319 C 0.76518 0.90709 0.24688 0.0
C320 C 0.79485 0.80619 0.25758 0.0
C321 C 0.80270 0.78241 0.32617 0.0
C322 C 0.81203 0.77641 0.27940 0.0
C323 C 0.80409 0.79977 0.21120 0.0
C324 C 0.79401 0.79720 0.31408 0.0
C325 C 0.81256 0.78460 0.22198 0.0
C326 C 0.74070 0.85414 0.33670 0.0
C327 C 0.78670 0.82338 0.24564 0.0
H328 H 0.66749 0.94448 0.14358 0.0
H329 H 0.68089 0.90546 0.25767 0.0
H330 H 0.66700 0.93106 0.23981 0.0
H331 H 0.69798 0.91005 0.08632 0.0
H332 H 0.81801 0.76666 0.28715 0.0
H333 H 0.80461 0.80568 0.17307 0.0
H334 H 0.78752 0.80110 0.34441 0.0
H335 H 0.81849 0.78008 0.19092 0.0
Tb336 Tb 0.14629 0.84368 0.27708 0.0
C337 C 0.20773 0.78618 0.31640 0.0
N338 N 0.20982 0.80746 0.35419 0.0
C339 C 0.21608 0.79292 0.44828 0.0
C340 C 0.20964 0.76787 0.34579 0.0
C341 C 0.21415 0.81066 0.41840 0.0
C342 C 0.21340 0.77142 0.41404 0.0
C343 C 0.20058 0.76052 0.20910 0.0
C344 C 0.20327 0.78267 0.24784 0.0
C345 C 0.20267 0.74231 0.23938 0.0
C346 C 0.20689 0.74571 0.30338 0.0
Tb347 Tb 0.20113 0.83690 0.29517 0.0
N348 N 0.20176 0.80098 0.22225 0.0
C349 C 0.19562 0.75761 0.14117 0.0
C350 C 0.19727 0.79719 0.15763 0.0
C351 C 0.19413 0.77548 0.11592 0.0
H352 H 0.21594 0.82522 0.44402 0.0
H353 H 0.19108 0.77365 0.07133 0.0
H354 H 0.13148 0.85536 0.12823 0.0
H355 H 0.15634 0.90693 0.50092 0.0
H356 H 0.19618 0.80953 0.13942 0.0
H357 H 0.19338 0.74308 0.11392 0.0
H358 H 0.15124 0.87105 0.43283 0.0
H359 H 0.21931 0.79607 0.49323 0.0
H360 H 0.20106 0.72784 0.21397 0.0
H361 H 0.20811 0.73345 0.32159 0.0
H362 H 0.12811 0.88451 0.07902 0.0
H363 H 0.21398 0.75923 0.43438 0.0
H364 H 0.15405 0.93750 0.45833 0.0
N365 N 0.13761 0.87312 0.21806 0.0
C366 C 0.13969 0.89440 0.25586 0.0
C367 C 0.13134 0.88766 0.12397 0.0
C368 C 0.13778 0.91271 0.22646 0.0
C369 C 0.13327 0.86992 0.15385 0.0
C370 C 0.13402 0.90916 0.15821 0.0
N371 N 0.14566 0.87960 0.35000 0.0
C372 C 0.15015 0.88338 0.41462 0.0
C373 C 0.14684 0.92005 0.36315 0.0
C374 C 0.14415 0.89791 0.32441 0.0
C375 C 0.15180 0.92297 0.43108 0.0
C376 C 0.15329 0.90510 0.45633 0.0
H377 H 0.13344 0.92135 0.13787 0.0
H378 H 0.13931 0.94713 0.25066 0.0
H379 H 0.14636 0.95274 0.35828 0.0
O380 O 0.11816 0.82200 0.33738 0.0
O381 O 0.17980 0.88299 0.29071 0.0
O382 O 0.20805 0.87901 0.31425 0.0
O383 O 0.10794 0.81995 0.23456 0.0
O384 O 0.16651 0.84441 0.36953 0.0
O385 O 0.19493 0.84226 0.40173 0.0
O386 O 0.22927 0.85858 0.23487 0.0
O387 O 0.16762 0.79759 0.28154 0.0
O388 O 0.13938 0.80157 0.25800 0.0
O389 O 0.23949 0.86063 0.33769 0.0
O390 O 0.18091 0.83617 0.20272 0.0
O391 O 0.15249 0.83832 0.17052 0.0
C392 C 0.19929 0.89165 0.31345 0.0
C393 C 0.08071 0.79964 0.29305 0.0
C394 C 0.05391 0.77906 0.35479 0.0
C395 C 0.03818 0.77362 0.30133 0.0
C396 C 0.06471 0.79380 0.23997 0.0
C397 C 0.04332 0.78052 0.24402 0.0
C398 C 0.07515 0.79194 0.34949 0.0
C399 C 0.17799 0.84060 0.41013 0.0
C400 C 0.10359 0.81485 0.28795 0.0
C401 C 0.14053 0.93486 0.26887 0.0
C402 C 0.14476 0.93827 0.33287 0.0
C403 C 0.14813 0.78893 0.25880 0.0
C404 C 0.26671 0.88094 0.27920 0.0
C405 C 0.29351 0.90152 0.21746 0.0
C406 C 0.30924 0.90696 0.27092 0.0
C407 C 0.28271 0.88678 0.33228 0.0
C408 C 0.27228 0.88864 0.22276 0.0
C409 C 0.30410 0.90006 0.32823 0.0
C410 C 0.16943 0.83998 0.16213 0.0
C411 C 0.24383 0.86573 0.28430 0.0
H412 H 0.02394 0.76516 0.30447 0.0
H413 H 0.06838 0.79885 0.20188 0.0
H414 H 0.03265 0.77639 0.20858 0.0
H415 H 0.08576 0.79543 0.38440 0.0
H416 H 0.32348 0.91542 0.26778 0.0
H417 H 0.27904 0.88173 0.37037 0.0
H418 H 0.26166 0.88515 0.18785 0.0
H419 H 0.31477 0.90419 0.36367 0.0
Tb420 Tb 0.21863 0.29773 0.36484 0.0
C421 C 0.14549 0.16266 0.26833 0.0
N422 N 0.14635 0.18225 0.24127 0.0
C423 C 0.13877 0.15689 0.13666 0.0
C424 C 0.14144 0.13993 0.22817 0.0
C425 C 0.14277 0.17902 0.17699 0.0
C426 C 0.13857 0.13766 0.16031 0.0
C427 C 0.14880 0.14601 0.36461 0.0
C428 C 0.14913 0.16580 0.33681 0.0
C429 C 0.14457 0.12315 0.32354 0.0
C430 C 0.14113 0.12029 0.25965 0.0
Tb431 Tb 0.15881 0.22567 0.31994 0.0
N432 N 0.15279 0.18797 0.37300 0.0
C433 C 0.15304 0.15036 0.43300 0.0
C434 C 0.15646 0.19075 0.43741 0.0
C435 C 0.15664 0.17202 0.46860 0.0
H436 H 0.14297 0.19202 0.15857 0.0
H437 H 0.15922 0.17473 0.51346 0.0
H438 H 0.23447 0.33138 0.52622 0.0
H439 H 0.21822 0.34867 0.17133 0.0
H440 H 0.15900 0.20579 0.46279 0.0
H441 H 0.15333 0.13798 0.45327 0.0
H442 H 0.21844 0.31760 0.22199 0.0
H443 H 0.13617 0.15538 0.09209 0.0
H444 H 0.14419 0.11004 0.34174 0.0
H445 H 0.13846 0.10517 0.23425 0.0
H446 H 0.24127 0.36802 0.59270 0.0
H447 H 0.13661 0.12332 0.13309 0.0
H448 H 0.22411 0.38542 0.23151 0.0
N449 N 0.23109 0.34114 0.44352 0.0
C450 C 0.23195 0.36074 0.41646 0.0
C451 C 0.23867 0.36651 0.54813 0.0
C452 C 0.23601 0.38346 0.45662 0.0
C453 C 0.23467 0.34438 0.50780 0.0
C454 C 0.23888 0.38574 0.52448 0.0
N455 N 0.22465 0.33543 0.31179 0.0
C456 C 0.22098 0.33265 0.24737 0.0
C457 C 0.22864 0.37738 0.32018 0.0
C458 C 0.22832 0.35760 0.34798 0.0
C459 C 0.22440 0.37304 0.25179 0.0
C460 C 0.22080 0.35137 0.21618 0.0
H461 H 0.24083 0.40008 0.55170 0.0
H462 H 0.23898 0.41823 0.45053 0.0
H463 H 0.23325 0.41336 0.34305 0.0
O464 O 0.24688 0.30580 0.30463 0.0
O465 O 0.18761 0.30054 0.35850 0.0
O466 O 0.15690 0.26255 0.32090 0.0
O467 O 0.25653 0.31812 0.41058 0.0
O468 O 0.19791 0.27252 0.26431 0.0
O469 O 0.16733 0.23608 0.21897 0.0
O470 O 0.13057 0.21760 0.38016 0.0
O471 O 0.18983 0.22286 0.32629 0.0
O472 O 0.22054 0.26085 0.36389 0.0
O473 O 0.12091 0.20528 0.27420 0.0
O474 O 0.17954 0.25088 0.42047 0.0
O475 O 0.21011 0.28732 0.46582 0.0
C476 C 0.16793 0.28647 0.33227 0.0
C477 C 0.28395 0.32665 0.35255 0.0
C478 C 0.31092 0.33433 0.29093 0.0
C479 C 0.32661 0.34821 0.34803 0.0
C480 C 0.29990 0.34043 0.40916 0.0
C481 C 0.32133 0.35107 0.40691 0.0
C482 C 0.28959 0.32347 0.29429 0.0
C483 C 0.18548 0.25394 0.21682 0.0
C484 C 0.26115 0.31638 0.35628 0.0
C485 C 0.23631 0.40311 0.42513 0.0
C486 C 0.23287 0.40025 0.36125 0.0
C487 C 0.20951 0.23693 0.35252 0.0
C488 C 0.09349 0.19675 0.33224 0.0
C489 C 0.06652 0.18907 0.39385 0.0
C490 C 0.05083 0.17519 0.33676 0.0
C491 C 0.07755 0.18297 0.27562 0.0
C492 C 0.08785 0.19993 0.39050 0.0
C493 C 0.05611 0.17233 0.27788 0.0
C494 C 0.19196 0.26946 0.46797 0.0
C495 C 0.11630 0.20702 0.32851 0.0
H496 H 0.34093 0.35569 0.34629 0.0
H497 H 0.29616 0.34251 0.44844 0.0
H498 H 0.33193 0.35998 0.44457 0.0
H499 H 0.27896 0.31393 0.25682 0.0
H500 H 0.03651 0.16771 0.33850 0.0
H501 H 0.08128 0.18089 0.23635 0.0
H502 H 0.09848 0.20947 0.42796 0.0
H503 H 0.04552 0.16342 0.24022 0.0
Tb504 Tb 0.36305 0.15724 0.75249 0.0
C505 C 0.44845 0.18802 0.59235 0.0
N506 N 0.43925 0.20189 0.60877 0.0
C507 C 0.47408 0.23987 0.64307 0.0
C508 C 0.47097 0.20053 0.60253 0.0
C509 C 0.45193 0.22720 0.63266 0.0
C510 C 0.48393 0.22724 0.63040 0.0
C511 C 0.44452 0.14672 0.55115 0.0
C512 C 0.43508 0.16104 0.56637 0.0
C513 C 0.46724 0.15960 0.56128 0.0
C514 C 0.47964 0.18479 0.58539 0.0
Tb515 Tb 0.39798 0.17610 0.60219 0.0
N516 N 0.41352 0.15007 0.55719 0.0
C517 C 0.43055 0.11985 0.52697 0.0
C518 C 0.40119 0.12461 0.53349 0.0
C519 C 0.40945 0.10903 0.51792 0.0
H520 H 0.44575 0.23668 0.64271 0.0
H521 H 0.40029 0.09143 0.50147 0.0
H522 H 0.31528 0.09666 0.71198 0.0
H523 H 0.36074 0.24190 0.85321 0.0
H524 H 0.38643 0.11683 0.52698 0.0
H525 H 0.43615 0.10965 0.51735 0.0
H526 H 0.37460 0.21651 0.82770 0.0
H527 H 0.48227 0.25759 0.65927 0.0
H528 H 0.47347 0.15023 0.55083 0.0
H529 H 0.49440 0.19259 0.59152 0.0
H530 H 0.27876 0.07575 0.69541 0.0
H531 H 0.49877 0.23572 0.63960 0.0
H532 H 0.32489 0.22369 0.83733 0.0
N533 N 0.32178 0.13144 0.74591 0.0
C534 C 0.31258 0.14531 0.76233 0.0
C535 C 0.28695 0.09346 0.71161 0.0
C536 C 0.29006 0.13281 0.75215 0.0
C537 C 0.30910 0.10613 0.72202 0.0
C538 C 0.27710 0.10610 0.72429 0.0
N539 N 0.34751 0.18326 0.79749 0.0
C540 C 0.35984 0.20873 0.82119 0.0
C541 C 0.31651 0.18662 0.80353 0.0
C542 C 0.32596 0.17229 0.78831 0.0
C543 C 0.33048 0.21349 0.82771 0.0
C544 C 0.35158 0.22430 0.83676 0.0
H545 H 0.26227 0.09762 0.71508 0.0
H546 H 0.26663 0.14074 0.76316 0.0
H547 H 0.28756 0.18310 0.80385 0.0
O548 O 0.38096 0.17535 0.86776 0.0
O549 O 0.34810 0.16768 0.66431 0.0
O550 O 0.36947 0.18285 0.59494 0.0
O551 O 0.35654 0.13398 0.83924 0.0
O552 O 0.39106 0.19682 0.74585 0.0
O553 O 0.41276 0.21525 0.68096 0.0
O554 O 0.38008 0.15799 0.48692 0.0
O555 O 0.41293 0.16565 0.69037 0.0
O556 O 0.39156 0.15048 0.75974 0.0
O557 O 0.40449 0.19935 0.51544 0.0
O558 O 0.36997 0.13652 0.60883 0.0
O559 O 0.34827 0.11808 0.67372 0.0
C560 C 0.35453 0.18009 0.62069 0.0
C561 C 0.37332 0.15153 0.95089 0.0
C562 C 0.39120 0.17042 0.06315 0.0
C563 C 0.37739 0.14692 0.07851 0.0
C564 C 0.35980 0.12813 0.96726 0.0
C565 C 0.36198 0.12577 0.03137 0.0
C566 C 0.38902 0.17229 0.99876 0.0
C567 C 0.40807 0.21495 0.73513 0.0
C568 C 0.36997 0.15371 0.88193 0.0
C569 C 0.28139 0.14855 0.76929 0.0
C570 C 0.29379 0.17374 0.79340 0.0
C571 C 0.40650 0.15324 0.73399 0.0
C572 C 0.38771 0.18181 0.40379 0.0
C573 C 0.36983 0.16292 0.29153 0.0
C574 C 0.38364 0.18642 0.27617 0.0
C575 C 0.40123 0.20520 0.38743 0.0
C576 C 0.37201 0.16105 0.35592 0.0
C577 C 0.39905 0.20756 0.32331 0.0
C578 C 0.35296 0.11839 0.61956 0.0
C579 C 0.39106 0.17963 0.47275 0.0
H580 H 0.37862 0.14550 0.12146 0.0
H581 H 0.34928 0.11411 0.93519 0.0
H582 H 0.35316 0.11017 0.04224 0.0
H583 H 0.39826 0.18771 0.98771 0.0
H584 H 0.38241 0.18784 0.23322 0.0
H585 H 0.41175 0.21922 0.41949 0.0
H586 H 0.36277 0.14563 0.36698 0.0
H587 H 0.40787 0.22317 0.31244 0.0
Tb588 Tb 0.87250 0.18163 0.60057 0.0
C589 C 0.92263 0.12895 0.77650 0.0
N590 N 0.90124 0.11912 0.75246 0.0
C591 C 0.89641 0.07795 0.71718 0.0
C592 C 0.93093 0.11280 0.76968 0.0
C593 C 0.88861 0.09416 0.72442 0.0
C594 C 0.91717 0.08664 0.73732 0.0
C595 C 0.95826 0.16573 0.83005 0.0
C596 C 0.93624 0.15551 0.80695 0.0
C597 C 0.96637 0.14920 0.82320 0.0
C598 C 0.95360 0.12441 0.79489 0.0
Tb599 Tb 0.88853 0.15170 0.75406 0.0
N600 N 0.92736 0.17009 0.81259 0.0
C601 C 0.97120 0.19239 0.85848 0.0
C602 C 0.94045 0.19512 0.84063 0.0
C603 C 0.96258 0.20673 0.86410 0.0
H604 H 0.87410 0.08738 0.70919 0.0
H605 H 0.97106 0.22417 0.88333 0.0
H606 H 0.88693 0.24595 0.64543 0.0
H607 H 0.78996 0.10916 0.47130 0.0
H608 H 0.93463 0.20533 0.84480 0.0
H609 H 0.98585 0.19997 0.87335 0.0
H610 H 0.82639 0.12800 0.50983 0.0
H611 H 0.88696 0.06062 0.69784 0.0
H612 H 0.98082 0.15585 0.83881 0.0
H613 H 0.95940 0.11417 0.79107 0.0
H614 H 0.87407 0.27271 0.65678 0.0
H615 H 0.92237 0.07587 0.73026 0.0
H616 H 0.77518 0.13336 0.48128 0.0
N617 N 0.85979 0.21421 0.60216 0.0
C618 C 0.83839 0.20438 0.57812 0.0
C619 C 0.86462 0.25538 0.63745 0.0
C620 C 0.83010 0.22053 0.58495 0.0
C621 C 0.87242 0.23918 0.63020 0.0
C622 C 0.84386 0.24669 0.61731 0.0
N623 N 0.83366 0.16324 0.54203 0.0
C624 C 0.82057 0.13822 0.51400 0.0
C625 C 0.80277 0.16760 0.52458 0.0
C626 C 0.82479 0.17782 0.54767 0.0
C627 C 0.78983 0.14094 0.49614 0.0
C628 C 0.79845 0.12660 0.49053 0.0
H629 H 0.83866 0.25746 0.62436 0.0
H630 H 0.80162 0.21917 0.56355 0.0
H631 H 0.78020 0.17748 0.51582 0.0
O632 O 0.86975 0.16490 0.48655 0.0
O633 O 0.85084 0.17284 0.67901 0.0
O634 O 0.85691 0.15198 0.74939 0.0
O635 O 0.88694 0.20689 0.52077 0.0
O636 O 0.86074 0.13928 0.60286 0.0
O637 O 0.86399 0.11555 0.66780 0.0
O638 O 0.89127 0.16843 0.86807 0.0
O639 O 0.91018 0.16049 0.67561 0.0
O640 O 0.90412 0.18135 0.60524 0.0
O641 O 0.87409 0.12644 0.83386 0.0
O642 O 0.90028 0.19405 0.75176 0.0
O643 O 0.89703 0.21778 0.68683 0.0
C644 C 0.84574 0.15876 0.71994 0.0
C645 C 0.88378 0.19081 0.41016 0.0
C646 C 0.88034 0.17328 0.29884 0.0
C647 C 0.88965 0.19814 0.28714 0.0
C648 C 0.89323 0.21554 0.39753 0.0
C649 C 0.89634 0.21924 0.33579 0.0
C650 C 0.87769 0.17002 0.36102 0.0
C651 C 0.85922 0.11866 0.61288 0.0
C652 C 0.87987 0.18739 0.47634 0.0
C653 C 0.80743 0.20892 0.55974 0.0
C654 C 0.79466 0.18413 0.53143 0.0
C655 C 0.91529 0.17457 0.63468 0.0
C656 C 0.87725 0.14252 0.94447 0.0
C657 C 0.88069 0.16005 0.05579 0.0
C658 C 0.87138 0.13519 0.06748 0.0
C659 C 0.86780 0.11779 0.95710 0.0
C660 C 0.88333 0.16331 0.99361 0.0
C661 C 0.86468 0.11410 0.01883 0.0
C662 C 0.90181 0.21467 0.74174 0.0
C663 C 0.88116 0.14594 0.87829 0.0
H664 H 0.89138 0.20052 0.24565 0.0
H665 H 0.89742 0.22957 0.43049 0.0
H666 H 0.90283 0.23569 0.32749 0.0
H667 H 0.87175 0.15363 0.36970 0.0
H668 H 0.86965 0.13281 0.10897 0.0
H669 H 0.86361 0.10376 0.92414 0.0
H670 H 0.88927 0.17970 0.98492 0.0
H671 H 0.85819 0.09765 0.02713 0.0
Tb672 Tb 0.89401 0.69573 0.76455 0.0
C673 C 0.82429 0.57402 0.55072 0.0
N674 N 0.84618 0.58740 0.57279 0.0
C675 C 0.84343 0.54822 0.58746 0.0
C676 C 0.81188 0.54724 0.54799 0.0
C677 C 0.85530 0.57450 0.58973 0.0
C678 C 0.82206 0.53442 0.56884 0.0
C679 C 0.79192 0.57396 0.51107 0.0
C680 C 0.81439 0.58754 0.53205 0.0
C681 C 0.77962 0.54694 0.50818 0.0
C682 C 0.78894 0.53441 0.52550 0.0
Tb683 Tb 0.86703 0.63762 0.59017 0.0
N684 N 0.82713 0.61325 0.53523 0.0
C685 C 0.78281 0.58841 0.49459 0.0
C686 C 0.81752 0.62572 0.51828 0.0
C687 C 0.79522 0.61357 0.49764 0.0
H688 H 0.87009 0.58340 0.60354 0.0
H689 H 0.78922 0.62297 0.48622 0.0
H690 H 0.89095 0.74995 0.75118 0.0
H691 H 0.97181 0.71037 0.86851 0.0
H692 H 0.82600 0.64329 0.52023 0.0
H693 H 0.76803 0.58027 0.48156 0.0
H694 H 0.93503 0.69005 0.83450 0.0
H695 H 0.85050 0.53999 0.59917 0.0
H696 H 0.76485 0.53795 0.49392 0.0
H697 H 0.78046 0.51680 0.52317 0.0
H698 H 0.91054 0.79336 0.75555 0.0
H699 H 0.81420 0.51704 0.56960 0.0
H700 H 0.99300 0.75307 0.87317 0.0
N701 N 0.91486 0.74594 0.78194 0.0
C702 C 0.93675 0.75932 0.80400 0.0
C703 C 0.91761 0.78513 0.76727 0.0
C704 C 0.94916 0.78611 0.80674 0.0
C705 C 0.90574 0.75884 0.76500 0.0
C706 C 0.93897 0.79892 0.78589 0.0
N707 N 0.93391 0.72010 0.81949 0.0
C708 C 0.94352 0.70762 0.83645 0.0
C709 C 0.96912 0.75938 0.84366 0.0
C710 C 0.94665 0.74581 0.82268 0.0
C711 C 0.97823 0.74494 0.86013 0.0
C712 C 0.96582 0.71978 0.85709 0.0
H713 H 0.94684 0.81631 0.78512 0.0
H714 H 0.98058 0.81654 0.83155 0.0
H715 H 0.99619 0.79539 0.86080 0.0
O716 O 0.89568 0.68529 0.87213 0.0
O717 O 0.91440 0.70577 0.68282 0.0
O718 O 0.90193 0.67255 0.59924 0.0
O719 O 0.88506 0.71202 0.85737 0.0
O720 O 0.89787 0.66098 0.74122 0.0
O721 O 0.88799 0.62786 0.66203 0.0
O722 O 0.86536 0.64806 0.48259 0.0
O723 O 0.84664 0.62758 0.67190 0.0
O724 O 0.85911 0.66080 0.75548 0.0
O725 O 0.87598 0.62133 0.49736 0.0
O726 O 0.86317 0.67236 0.61350 0.0
O727 O 0.87305 0.70549 0.69270 0.0
C728 C 0.91622 0.69366 0.63431 0.0
C729 C 0.88727 0.70260 0.96189 0.0
C730 C 0.88949 0.69191 0.06639 0.0
C731 C 0.88477 0.71017 0.09031 0.0
C732 C 0.88239 0.72061 0.98667 0.0
C733 C 0.88095 0.72423 0.05110 0.0
C734 C 0.89050 0.68824 0.00168 0.0
C735 C 0.89498 0.63910 0.72024 0.0
C736 C 0.88955 0.69995 0.89317 0.0
C737 C 0.97210 0.79894 0.82922 0.0
C738 C 0.98142 0.78640 0.84654 0.0
C739 C 0.84481 0.63969 0.72041 0.0
C740 C 0.87377 0.63074 0.39284 0.0
C741 C 0.87155 0.64144 0.28833 0.0
C742 C 0.87627 0.62318 0.26441 0.0
C743 C 0.87865 0.61274 0.36806 0.0
C744 C 0.87054 0.64510 0.35305 0.0
C745 C 0.88009 0.60911 0.30362 0.0
C746 C 0.86606 0.69425 0.63448 0.0
C747 C 0.87149 0.63340 0.46155 0.0
H748 H 0.88419 0.71289 0.13361 0.0
H749 H 0.88012 0.73022 0.96001 0.0
H750 H 0.87748 0.73598 0.06746 0.0
H751 H 0.89337 0.67595 0.98489 0.0
H752 H 0.87685 0.62046 0.22112 0.0
H753 H 0.88092 0.60313 0.39471 0.0
H754 H 0.86767 0.65740 0.36984 0.0
H755 H 0.88356 0.59737 0.28727 0.0
C756 C 0.03069 0.47625 0.82457 0.0
C757 C 0.01744 0.48034 0.85790 0.0
C758 C 0.02731 0.47321 0.75805 0.0
C759 C 0.01027 0.47377 0.72362 0.0
C760 C 0.99744 0.47799 0.75790 0.0
C761 C 0.00010 0.48085 0.82361 0.0
C762 C 0.00627 0.47101 0.65253 0.0
C763 C 0.01629 0.46529 0.61459 0.0
C764 C 0.01435 0.46496 0.54460 0.0
C765 C 0.03019 0.46497 0.51737 0.0
C766 C 0.03104 0.46792 0.45509 0.0
C767 C 0.01580 0.47041 0.41726 0.0
H768 H 0.98671 0.46503 0.52362 0.0
C769 C 0.99990 0.46874 0.44296 0.0
C770 C 0.99820 0.46608 0.50621 0.0
H771 H 0.98805 0.46942 0.41703 0.0
H772 H 0.04214 0.47556 0.84750 0.0
H773 H 0.03659 0.47067 0.73556 0.0
H774 H 0.98607 0.47892 0.73530 0.0
H775 H 0.99127 0.48322 0.84589 0.0
H776 H 0.99551 0.47365 0.63323 0.0
H777 H 0.02587 0.46083 0.63368 0.0
H778 H 0.04060 0.46293 0.54192 0.0
H779 H 0.04228 0.46830 0.43731 0.0
C780 C 0.59241 0.51426 0.75644 0.0
C781 C 0.58778 0.49415 0.78741 0.0
C782 C 0.59386 0.51163 0.69231 0.0
C783 C 0.59105 0.48881 0.65837 0.0
C784 C 0.58636 0.46911 0.69012 0.0
C785 C 0.58504 0.47171 0.75364 0.0
C786 C 0.59213 0.48500 0.58939 0.0
C787 C 0.59778 0.50260 0.55558 0.0
C788 C 0.59695 0.49896 0.48523 0.0
C789 C 0.59833 0.51833 0.45634 0.0
C790 C 0.59502 0.51507 0.39046 0.0
C791 C 0.59066 0.49250 0.35110 0.0
H792 H 0.59358 0.46357 0.46626 0.0
C793 C 0.59063 0.47361 0.38009 0.0
C794 C 0.59369 0.47661 0.44668 0.0
H795 H 0.58849 0.45850 0.35414 0.0
H796 H 0.59457 0.52990 0.77935 0.0
H797 H 0.59682 0.52540 0.67118 0.0
H798 H 0.58400 0.45334 0.66733 0.0
H799 H 0.58221 0.45796 0.77471 0.0
H800 H 0.58836 0.46834 0.56826 0.0
H801 H 0.60301 0.51961 0.57832 0.0
H802 H 0.60159 0.53406 0.48224 0.0
H803 H 0.59570 0.52848 0.37117 0.0
C804 C 0.56614 0.07879 0.69453 0.0
C805 C 0.57433 0.06692 0.72896 0.0
C806 C 0.56890 0.08094 0.63223 0.0
C807 C 0.58031 0.07155 0.60373 0.0
C808 C 0.58817 0.05974 0.63882 0.0
C809 C 0.58559 0.05773 0.70057 0.0
C810 C 0.58336 0.07307 0.53681 0.0
C811 C 0.57798 0.08517 0.50060 0.0
C812 C 0.57870 0.08494 0.43158 0.0
C813 C 0.56726 0.09339 0.39822 0.0
C814 C 0.56490 0.09078 0.33261 0.0
C815 C 0.57432 0.08013 0.29812 0.0
H816 H 0.59790 0.07049 0.42112 0.0
C817 C 0.58700 0.07313 0.33195 0.0
C818 C 0.58924 0.07539 0.39823 0.0
H819 H 0.59420 0.06674 0.30954 0.0
H820 H 0.55858 0.08546 0.71378 0.0
H821 H 0.56305 0.08887 0.60864 0.0
H822 H 0.59559 0.05283 0.61963 0.0
H823 H 0.59157 0.04993 0.72414 0.0
H824 H 0.58976 0.06448 0.51900 0.0
H825 H 0.57307 0.09525 0.52045 0.0
H826 H 0.56094 0.10106 0.42082 0.0
H827 H 0.55667 0.09635 0.31011 0.0
C828 C 0.74621 0.87153 0.54100 0.0
C829 C 0.74029 0.84999 0.49449 0.0
C830 C 0.74381 0.86932 0.60354 0.0
C831 C 0.73503 0.84524 0.62022 0.0
C832 C 0.72940 0.82421 0.57324 0.0
C833 C 0.73162 0.82630 0.51127 0.0
C834 C 0.73248 0.84204 0.68680 0.0
C835 C 0.73586 0.85996 0.73396 0.0
C836 C 0.73565 0.85834 0.80248 0.0
C837 C 0.74496 0.88121 0.84699 0.0
C838 C 0.74782 0.88165 0.91183 0.0
C839 C 0.74105 0.85911 0.93452 0.0
H840 H 0.72048 0.81928 0.79401 0.0
C841 C 0.73044 0.83586 0.88999 0.0
C842 C 0.72771 0.83527 0.82429 0.0
H843 H 0.72498 0.82021 0.90461 0.0
H844 H 0.75195 0.88788 0.52989 0.0
H845 H 0.74810 0.88421 0.63537 0.0
H846 H 0.72381 0.80783 0.58418 0.0
H847 H 0.72719 0.81136 0.47950 0.0
H848 H 0.72803 0.82554 0.69564 0.0
H849 H 0.73875 0.87578 0.72345 0.0
H850 H 0.74943 0.89680 0.83268 0.0
H851 H 0.75458 0.89766 0.94199 0.0
C852 C 0.17569 0.82275 0.60280 0.0
C853 C 0.17524 0.84022 0.56858 0.0
C854 C 0.17753 0.82709 0.66905 0.0
C855 C 0.17933 0.84938 0.70235 0.0
C856 C 0.17873 0.86633 0.66719 0.0
C857 C 0.17705 0.86218 0.60175 0.0
C858 C 0.18099 0.85462 0.77309 0.0
C859 C 0.18313 0.84108 0.81191 0.0
C860 C 0.18261 0.84402 0.88140 0.0
C861 C 0.17962 0.82381 0.90925 0.0
C862 C 0.17629 0.82361 0.97086 0.0
C863 C 0.17629 0.84391 0.00741 0.0
H864 H 0.18672 0.87980 0.90084 0.0
C865 C 0.18066 0.86506 0.98121 0.0
C866 C 0.18379 0.86528 0.91861 0.0
H867 H 0.18153 0.87951 0.00635 0.0
H868 H 0.17471 0.80773 0.58066 0.0
H869 H 0.17760 0.81490 0.69214 0.0
H870 H 0.17951 0.88129 0.68897 0.0
H871 H 0.17710 0.87448 0.57888 0.0
H872 H 0.18042 0.86903 0.79144 0.0
H873 H 0.18525 0.82790 0.79390 0.0
H874 H 0.17986 0.80991 0.88560 0.0
H875 H 0.17391 0.80932 0.98905 0.0
C876 C 0.19751 0.25764 0.66261 0.0
C877 C 0.18876 0.26885 0.62765 0.0
C878 C 0.19824 0.25961 0.72823 0.0
C879 C 0.19048 0.27333 0.76019 0.0
C880 C 0.18178 0.28415 0.72431 0.0
C881 C 0.18116 0.28237 0.65952 0.0
C882 C 0.19062 0.27560 0.83016 0.0
C883 C 0.19961 0.26776 0.86978 0.0
C884 C 0.19824 0.26722 0.93819 0.0
C885 C 0.20415 0.25223 0.96630 0.0
C886 C 0.20084 0.24813 0.02653 0.0
C887 C 0.19191 0.25934 0.06146 0.0
H888 H 0.18693 0.29101 0.95614 0.0
C889 C 0.18720 0.27578 0.03521 0.0
C890 C 0.19025 0.27979 0.97396 0.0
H891 H 0.18185 0.28438 0.05939 0.0
H892 H 0.20302 0.24854 0.64141 0.0
H893 H 0.20406 0.25165 0.75179 0.0
H894 H 0.17608 0.29309 0.74512 0.0
H895 H 0.17545 0.29048 0.63620 0.0
H896 H 0.18356 0.28340 0.84733 0.0
H897 H 0.20795 0.26174 0.85319 0.0
H898 H 0.21056 0.24467 0.94379 0.0
H899 H 0.20471 0.23739 0.04487 0.0
C900 C 0.34316 0.12458 0.28726 0.0
C901 C 0.34446 0.13994 0.34292 0.0
C902 C 0.35311 0.13566 0.23927 0.0
C903 C 0.36428 0.16245 0.24592 0.0
C904 C 0.36542 0.17725 0.30176 0.0
C905 C 0.35548 0.16635 0.34911 0.0
C906 C 0.37546 0.17517 0.19625 0.0
C907 C 0.37440 0.16333 0.14003 0.0
C908 C 0.38698 0.17507 0.09191 0.0
C909 C 0.38752 0.15862 0.04357 0.0
C910 C 0.40088 0.16817 0.00204 0.0
C911 C 0.41386 0.19456 0.00650 0.0
H912 H 0.39819 0.21316 0.12655 0.0
C913 C 0.41237 0.21117 0.05236 0.0
C914 C 0.39909 0.20168 0.09510 0.0
H915 H 0.42050 0.22918 0.05450 0.0
H916 H 0.33542 0.10638 0.28209 0.0
H917 H 0.35234 0.12503 0.20152 0.0
H918 H 0.37329 0.19548 0.30748 0.0
H919 H 0.35618 0.17701 0.38660 0.0
H920 H 0.38410 0.19344 0.20642 0.0
H921 H 0.36451 0.14524 0.12850 0.0
H922 H 0.37858 0.14053 0.03896 0.0
H923 H 0.40132 0.15656 0.96952 0.0
C924 C 0.85905 0.14143 0.33100 0.0
C925 C 0.87277 0.15859 0.38798 0.0
C926 C 0.86245 0.14802 0.27206 0.0
C927 C 0.87953 0.17223 0.26940 0.0
C928 C 0.89296 0.18884 0.32661 0.0
C929 C 0.88957 0.18246 0.38498 0.0
C930 C 0.88396 0.17994 0.20735 0.0
C931 C 0.87175 0.16676 0.15076 0.0
C932 C 0.87662 0.17240 0.08743 0.0
C933 C 0.86421 0.15275 0.03389 0.0
C934 C 0.86934 0.15531 0.97472 0.0
C935 C 0.88684 0.17788 0.96670 0.0
H936 H 0.90180 0.20985 0.11582 0.0
C937 C 0.89858 0.19833 0.01954 0.0
C938 C 0.89366 0.19579 0.07975 0.0
H939 H 0.91007 0.21421 0.01444 0.0
H940 H 0.84729 0.12508 0.33244 0.0
H941 H 0.85311 0.13605 0.23313 0.0
H942 H 0.90486 0.20514 0.32548 0.0
H943 H 0.89886 0.19452 0.42379 0.0
H944 H 0.89678 0.19579 0.20919 0.0
H945 H 0.85826 0.15194 0.14983 0.0
H946 H 0.85200 0.13730 0.03797 0.0
H947 H 0.86079 0.14140 0.93838 0.0
C948 C 0.84691 0.62567 0.29579 0.0
C949 C 0.85942 0.63298 0.35737 0.0
C950 C 0.85502 0.63956 0.24940 0.0
C951 C 0.87580 0.66138 0.26447 0.0
C952 C 0.88791 0.66813 0.32582 0.0
C953 C 0.87990 0.65455 0.37191 0.0
C954 C 0.88526 0.67658 0.21604 0.0
C955 C 0.87506 0.67320 0.15828 0.0
C956 C 0.88436 0.68609 0.10634 0.0
C957 C 0.87199 0.67508 0.04455 0.0
C958 C 0.88038 0.68387 0.99292 0.0
C959 C 0.90135 0.70439 0.00136 0.0
H960 H 0.91355 0.71606 0.15877 0.0
C961 C 0.91344 0.71662 0.06370 0.0
C962 C 0.90516 0.70765 0.11617 0.0
H963 H 0.92750 0.73126 0.07051 0.0
H964 H 0.83272 0.61105 0.28540 0.0
H965 H 0.84643 0.63428 0.20706 0.0
H966 H 0.90219 0.68261 0.33636 0.0
H967 H 0.88848 0.65996 0.41427 0.0
H968 H 0.89996 0.68985 0.22828 0.0
H969 H 0.86004 0.66121 0.14824 0.0
H970 H 0.85753 0.66130 0.03764 0.0
H971 H 0.87173 0.67579 0.95043 0.0
C972 C 0.14735 0.30636 0.26612 0.0
C973 C 0.15425 0.30102 0.32220 0.0
C974 C 0.13537 0.31768 0.26707 0.0
C975 C 0.12978 0.32343 0.32439 0.0
C976 C 0.13693 0.31806 0.37942 0.0
C977 C 0.14866 0.30672 0.37855 0.0
C978 C 0.11727 0.33591 0.32788 0.0
C979 C 0.10847 0.34036 0.27878 0.0
C980 C 0.09779 0.35509 0.28084 0.0
C981 C 0.09455 0.36316 0.22560 0.0
C982 C 0.08725 0.37956 0.22603 0.0
C983 C 0.08248 0.38803 0.28144 0.0
H984 H 0.09335 0.35603 0.37378 0.0
C985 C 0.08439 0.37866 0.33596 0.0
C986 C 0.09202 0.36233 0.33620 0.0
H987 H 0.08043 0.38347 0.37344 0.0
H988 H 0.15088 0.30226 0.22689 0.0
H989 H 0.13087 0.32154 0.22858 0.0
H990 H 0.13361 0.32232 0.41895 0.0
H991 H 0.15302 0.30276 0.41701 0.0
H992 H 0.11557 0.34109 0.36940 0.0
H993 H 0.10892 0.33342 0.23713 0.0
H994 H 0.09740 0.35734 0.18693 0.0
H995 H 0.08541 0.38528 0.18774 0.0
C996 C 0.64885 0.60324 0.15808 0.0
C997 C 0.63064 0.58504 0.11188 0.0
C998 C 0.65907 0.62896 0.15526 0.0
C999 C 0.65135 0.63680 0.10512 0.0
C1000 C 0.63319 0.61837 0.06011 0.0
C1001 C 0.62313 0.59292 0.06252 0.0
C1002 C 0.66158 0.66416 0.10077 0.0
C1003 C 0.67945 0.68299 0.13752 0.0
C1004 C 0.68905 0.71078 0.13926 0.0
C1005 C 0.70490 0.72764 0.19239 0.0
C1006 C 0.71271 0.75347 0.20165 0.0
C1007 C 0.70528 0.76344 0.15729 0.0
H1008 H 0.67186 0.70925 0.05414 0.0
C1009 C 0.69033 0.74679 0.10164 0.0
C1010 C 0.68214 0.72058 0.09228 0.0
H1011 H 0.68568 0.75338 0.06967 0.0
H1012 H 0.65432 0.59804 0.19184 0.0
H1013 H 0.67142 0.64137 0.18748 0.0
H1014 H 0.62754 0.62348 0.02653 0.0
H1015 H 0.61087 0.58054 0.03003 0.0
H1016 H 0.65447 0.66824 0.06852 0.0
H1017 H 0.68720 0.67848 0.16632 0.0
H1018 H 0.71045 0.72133 0.22286 0.0
H1019 H 0.72343 0.76482 0.23913 0.0
C1020 C 0.43109 0.97547 0.12479 0.0
C1021 C 0.44035 0.99786 0.10149 0.0
C1022 C 0.41136 0.96605 0.14067 0.0
C1023 C 0.40071 0.97927 0.13444 0.0
C1024 C 0.41019 0.00136 0.11088 0.0
C1025 C 0.42976 0.01081 0.09553 0.0
C1026 C 0.37941 0.96968 0.14989 0.0
C1027 C 0.36953 0.95016 0.17632 0.0
C1028 C 0.34742 0.93836 0.18638 0.0
C1029 C 0.33820 0.91416 0.19948 0.0
C1030 C 0.31699 0.90062 0.20138 0.0
C1031 C 0.30434 0.91105 0.19162 0.0
H1032 H 0.34164 0.96683 0.17336 0.0
C1033 C 0.31385 0.93603 0.18258 0.0
C1034 C 0.33523 0.94974 0.17977 0.0
H1035 H 0.30566 0.94381 0.17829 0.0
H1036 H 0.43832 0.96654 0.12982 0.0
H1037 H 0.40500 0.95054 0.15600 0.0
H1038 H 0.40296 0.01026 0.10520 0.0
H1039 H 0.43612 0.02640 0.08059 0.0
H1040 H 0.37245 0.97853 0.13957 0.0
H1041 H 0.37728 0.94266 0.19077 0.0
H1042 H 0.34658 0.90678 0.20723 0.0
H1043 H 0.31077 0.88376 0.20950 0.0
C1044 C 0.52468 0.12490 0.98728 0.0
C1045 C 0.53023 0.10851 0.95785 0.0
C1046 C 0.51078 0.12983 0.95180 0.0
C1047 C 0.50249 0.11867 0.88561 0.0
C1048 C 0.50817 0.10237 0.85768 0.0
C1049 C 0.52201 0.09759 0.89252 0.0
C1050 C 0.48731 0.12308 0.84598 0.0
C1051 C 0.48187 0.13925 0.86555 0.0
C1052 C 0.46518 0.14232 0.82998 0.0
C1053 C 0.45816 0.15556 0.86542 0.0
C1054 C 0.44097 0.15648 0.83804 0.0
C1055 C 0.43045 0.14464 0.77369 0.0
H1056 H 0.46078 0.12313 0.73851 0.0
C1057 C 0.43830 0.13271 0.73660 0.0
C1058 C 0.45552 0.13140 0.76413 0.0
H1059 H 0.43183 0.12537 0.69197 0.0
H1060 H 0.53042 0.13276 0.03200 0.0
H1061 H 0.50687 0.14088 0.97244 0.0
H1062 H 0.50234 0.09427 0.81309 0.0
H1063 H 0.52599 0.08665 0.87167 0.0
H1064 H 0.48106 0.11327 0.80281 0.0
H1065 H 0.48938 0.15028 0.90703 0.0
H1066 H 0.46526 0.16411 0.90916 0.0
H1067 H 0.43610 0.16537 0.86347 0.0
C1068 C 0.93004 0.25845 0.79235 0.0
C1069 C 0.90975 0.23807 0.79138 0.0
C1070 C 0.93809 0.28219 0.83240 0.0
C1071 C 0.92568 0.28599 0.87152 0.0
C1072 C 0.90565 0.26542 0.86989 0.0
C1073 C 0.89760 0.24197 0.83004 0.0
C1074 C 0.93378 0.31095 0.91589 0.0
C1075 C 0.95171 0.33211 0.91868 0.0
C1076 C 0.96139 0.35666 0.96656 0.0
C1077 C 0.98270 0.37435 0.97134 0.0
C1078 C 0.99350 0.39609 0.01975 0.0
C1079 C 0.98323 0.40118 0.06437 0.0
H1080 H 0.93559 0.35055 0.00448 0.0
C1081 C 0.96148 0.38429 0.05730 0.0
C1082 C 0.95049 0.36209 0.00895 0.0
H1083 H 0.95404 0.38796 0.08580 0.0
H1084 H 0.93847 0.25611 0.76543 0.0
H1085 H 0.95211 0.29602 0.83332 0.0
H1086 H 0.89722 0.26758 0.89711 0.0
H1087 H 0.88354 0.22824 0.82896 0.0
H1088 H 0.92514 0.31149 0.94460 0.0
H1089 H 0.95944 0.33184 0.88662 0.0
H1090 H 0.98999 0.37148 0.94090 0.0
H1091 H 0.00830 0.40793 0.02301 0.0
C1092 C 0.81496 0.63798 0.75176 0.0
C1093 C 0.82738 0.62797 0.73808 0.0
C1094 C 0.79760 0.62454 0.77901 0.0
C1095 C 0.79217 0.60049 0.79200 0.0
C1096 C 0.80483 0.59105 0.77828 0.0
C1097 C 0.82192 0.60422 0.75096 0.0
C1098 C 0.77393 0.58562 0.82208 0.0
C1099 C 0.76006 0.59161 0.83326 0.0
C1100 C 0.74300 0.57886 0.86909 0.0
C1101 C 0.73376 0.59211 0.88981 0.0
C1102 C 0.71983 0.58317 0.93005 0.0
C1103 C 0.71426 0.56032 0.94991 0.0
H1104 H 0.74234 0.54527 0.86964 0.0
C1105 C 0.72243 0.54604 0.92587 0.0
C1106 C 0.73675 0.55510 0.88579 0.0
H1107 H 0.71817 0.52992 0.93694 0.0
H1108 H 0.81840 0.65415 0.74244 0.0
H1109 H 0.78928 0.63165 0.78888 0.0
H1110 H 0.80158 0.57499 0.78801 0.0
H1111 H 0.83012 0.59699 0.74081 0.0
H1112 H 0.77228 0.57050 0.83417 0.0
H1113 H 0.76092 0.60564 0.81670 0.0
H1114 H 0.73707 0.60756 0.87616 0.0
H1115 H 0.71384 0.59276 0.94476 0.0
C1116 C 0.91479 0.62806 0.74186 0.0
C1117 C 0.89864 0.63197 0.75379 0.0
C1118 C 0.92332 0.61908 0.78549 0.0
C1119 C 0.91598 0.61428 0.84265 0.0
C1120 C 0.89986 0.61819 0.85315 0.0
C1121 C 0.89149 0.62722 0.81032 0.0
C1122 C 0.92440 0.60426 0.89022 0.0
C1123 C 0.94047 0.60143 0.88793 0.0
C1124 C 0.94797 0.58907 0.93042 0.0
C1125 C 0.96148 0.58211 0.90962 0.0
C1126 C 0.96699 0.56776 0.94184 0.0
C1127 C 0.95954 0.56030 0.99696 0.0
H1128 H 0.93258 0.58851 0.00408 0.0
C1129 C 0.94707 0.56866 0.02055 0.0
C1130 C 0.94119 0.58291 0.98779 0.0
H1131 H 0.94251 0.56458 0.05947 0.0
H1132 H 0.92002 0.63154 0.70353 0.0
H1133 H 0.93425 0.61618 0.77668 0.0
H1134 H 0.89443 0.61453 0.89113 0.0
H1135 H 0.88066 0.63024 0.81945 0.0
H1136 H 0.91748 0.59953 0.92515 0.0
H1137 H 0.94824 0.60797 0.85564 0.0
H1138 H 0.96702 0.58728 0.87266 0.0
H1139 H 0.97608 0.56276 0.92627 0.0
C1140 C 0.52147 0.40093 0.98002 0.0
C1141 C 0.54273 0.40856 0.99884 0.0
C1142 C 0.50669 0.37653 0.94311 0.0
C1143 C 0.51311 0.35946 0.92345 0.0
C1144 C 0.53427 0.36745 0.94307 0.0
C1145 C 0.54895 0.39162 0.97920 0.0
C1146 C 0.49778 0.33302 0.88478 0.0
C1147 C 0.47782 0.32386 0.85990 0.0
C1148 C 0.46149 0.29692 0.82686 0.0
C1149 C 0.44045 0.28988 0.81916 0.0
C1150 C 0.42438 0.26463 0.79652 0.0
C1151 C 0.42877 0.24557 0.77939 0.0
H1152 H 0.48066 0.28301 0.80927 0.0
C1153 C 0.44986 0.25276 0.78305 0.0
C1154 C 0.46624 0.27821 0.80668 0.0
H1155 H 0.45312 0.24015 0.76925 0.0
H1156 H 0.51704 0.41250 0.99257 0.0
H1157 H 0.49210 0.37133 0.93093 0.0
H1158 H 0.53877 0.35589 0.93114 0.0
H1159 H 0.56354 0.39680 0.99097 0.0
H1160 H 0.50298 0.32188 0.87771 0.0
H1161 H 0.47319 0.33568 0.86317 0.0
H1162 H 0.43704 0.30260 0.82964 0.0
H1163 H 0.40992 0.26002 0.79243 0.0
C1164 C 0.82185 0.17198 0.77708 0.0
C1165 C 0.82176 0.15176 0.74038 0.0
C1166 C 0.80325 0.16834 0.79358 0.0
C1167 C 0.78407 0.14434 0.77244 0.0
C1168 C 0.78445 0.12457 0.73638 0.0
C1169 C 0.80278 0.12815 0.71965 0.0
C1170 C 0.76386 0.13947 0.78980 0.0
C1171 C 0.76114 0.15685 0.81971 0.0
C1172 C 0.74198 0.15244 0.84381 0.0
C1173 C 0.74442 0.17238 0.88823 0.0
C1174 C 0.72830 0.16878 0.91886 0.0
C1175 C 0.70896 0.14523 0.90512 0.0
H1176 H 0.72004 0.11540 0.79431 0.0
C1177 C 0.70589 0.12559 0.85745 0.0
C1178 C 0.72221 0.12895 0.82679 0.0
H1179 H 0.69250 0.10970 0.84570 0.0
H1180 H 0.83474 0.18838 0.79101 0.0
H1181 H 0.80347 0.18222 0.81933 0.0
H1182 H 0.77165 0.10805 0.72277 0.0
H1183 H 0.80247 0.11428 0.69360 0.0
H1184 H 0.75194 0.12224 0.77812 0.0
H1185 H 0.77264 0.17424 0.82688 0.0
H1186 H 0.75736 0.18875 0.89773 0.0
H1187 H 0.73036 0.18264 0.95018 0.0
C1188 C 0.59922 0.00911 0.05371 0.0
C1189 C 0.60613 0.03152 0.03091 0.0
C1190 C 0.61027 0.99665 0.05052 0.0
C1191 C 0.62832 0.00628 0.02321 0.0
C1192 C 0.63491 0.02862 0.00127 0.0
C1193 C 0.62394 0.04090 0.00397 0.0
C1194 C 0.64083 0.99380 0.01972 0.0
C1195 C 0.63548 0.97189 0.03476 0.0
C1196 C 0.64852 0.96008 0.03839 0.0
C1197 C 0.64237 0.94041 0.07101 0.0
C1198 C 0.65505 0.93065 0.08353 0.0
C1199 C 0.67414 0.93985 0.06260 0.0
H1200 H 0.67108 0.98151 0.98908 0.0
C1201 C 0.67973 0.95848 0.02613 0.0
C1202 C 0.66714 0.96869 0.01394 0.0
H1203 H 0.69229 0.96429 0.00936 0.0
H1204 H 0.58685 0.00230 0.07166 0.0
H1205 H 0.60556 0.98143 0.06686 0.0
H1206 H 0.64737 0.03566 0.98377 0.0
H1207 H 0.62861 0.05601 0.98726 0.0
H1208 H 0.65382 0.00256 0.00537 0.0
H1209 H 0.62175 0.96243 0.04443 0.0
H1210 H 0.62926 0.93355 0.08497 0.0
H1211 H 0.65074 0.91734 0.10702 0.0
C1212 C 0.11790 0.73388 0.27430 0.0
C1213 C 0.12963 0.74778 0.23239 0.0
C1214 C 0.10631 0.70726 0.25855 0.0
C1215 C 0.10601 0.69410 0.19966 0.0
C1216 C 0.11788 0.70835 0.15912 0.0
C1217 C 0.12924 0.73467 0.17435 0.0
C1218 C 0.09411 0.66563 0.18127 0.0
C1219 C 0.08129 0.65015 0.21316 0.0
C1220 C 0.07086 0.62182 0.20030 0.0
C1221 C 0.06251 0.60993 0.24901 0.0
C1222 C 0.05502 0.58432 0.24421 0.0
C1223 C 0.05519 0.56952 0.18979 0.0
H1224 H 0.07506 0.61472 0.10858 0.0
C1225 C 0.06230 0.58097 0.13881 0.0
C1226 C 0.07015 0.60695 0.14360 0.0
H1227 H 0.06177 0.57094 0.10031 0.0
H1228 H 0.11783 0.74267 0.31402 0.0
H1229 H 0.09848 0.69785 0.28782 0.0
H1230 H 0.11816 0.69967 0.11957 0.0
H1231 H 0.13695 0.74401 0.14483 0.0
H1232 H 0.09604 0.65812 0.14311 0.0
H1233 H 0.07825 0.65779 0.24845 0.0
H1234 H 0.06193 0.61954 0.28623 0.0
H1235 H 0.04960 0.57647 0.27874 0.0
C1236 C 0.44680 0.40027 0.18368 0.0
C1237 C 0.45802 0.42538 0.17548 0.0
C1238 C 0.42739 0.39068 0.20183 0.0
C1239 C 0.41906 0.40637 0.21318 0.0
C1240 C 0.43047 0.43116 0.20436 0.0
C1241 C 0.44973 0.44075 0.18683 0.0
C1242 C 0.39819 0.39679 0.23169 0.0
C1243 C 0.38668 0.37450 0.24556 0.0
C1244 C 0.36484 0.36316 0.25766 0.0
C1245 C 0.35349 0.33709 0.25486 0.0
C1246 C 0.33234 0.32459 0.25742 0.0
C1247 C 0.32187 0.33783 0.26431 0.0
H1248 H 0.36279 0.39521 0.27268 0.0
C1249 C 0.33354 0.36431 0.27137 0.0
C1250 C 0.35489 0.37707 0.26801 0.0
H1251 H 0.32686 0.37379 0.27857 0.0
H1252 H 0.45245 0.38960 0.17676 0.0
H1253 H 0.41966 0.37336 0.20673 0.0
H1254 H 0.42481 0.44186 0.21067 0.0
H1255 H 0.45746 0.45811 0.18235 0.0
H1256 H 0.39280 0.40786 0.23348 0.0
H1257 H 0.39292 0.36439 0.24827 0.0
H1258 H 0.36037 0.32769 0.25110 0.0
H1259 H 0.32463 0.30650 0.25440 0.0
C1260 C 0.87242 0.72294 0.58010 0.0
C1261 C 0.86122 0.70058 0.60240 0.0
C1262 C 0.86160 0.73038 0.53933 0.0
C1263 C 0.83927 0.71516 0.51929 0.0
C1264 C 0.82853 0.69314 0.54240 0.0
C1265 C 0.83919 0.68565 0.58238 0.0
C1266 C 0.82700 0.72258 0.47652 0.0
C1267 C 0.83531 0.74186 0.44831 0.0
C1268 C 0.82380 0.75150 0.41084 0.0
C1269 C 0.83597 0.77578 0.39950 0.0
C1270 C 0.82635 0.78737 0.37240 0.0
C1271 C 0.80418 0.77485 0.35434 0.0
H1272 H 0.79295 0.72088 0.39503 0.0
C1273 C 0.79188 0.74978 0.36176 0.0
C1274 C 0.80147 0.73803 0.38989 0.0
H1275 H 0.77677 0.74059 0.34744 0.0
H1276 H 0.88759 0.73322 0.59291 0.0
H1277 H 0.86937 0.74588 0.52475 0.0
H1278 H 0.81335 0.68289 0.53022 0.0
H1279 H 0.83139 0.67007 0.59655 0.0
H1280 H 0.81185 0.71242 0.46922 0.0
H1281 H 0.85036 0.75070 0.45205 0.0
H1282 H 0.85113 0.78457 0.41056 0.0
H1283 H 0.83498 0.80431 0.36581 0.0
C1284 C 0.31387 0.08197 0.52961 0.0
C1285 C 0.33336 0.08814 0.56537 0.0
C1286 C 0.29929 0.05706 0.49530 0.0
C1287 C 0.30422 0.03794 0.49542 0.0
C1288 C 0.32362 0.04454 0.53156 0.0
C1289 C 0.33812 0.06919 0.56520 0.0
C1290 C 0.28896 0.01093 0.46022 0.0
C1291 C 0.27088 0.00273 0.42127 0.0
C1292 C 0.25424 0.97564 0.39053 0.0
C1293 C 0.23425 0.97062 0.36494 0.0
C1294 C 0.21737 0.94578 0.34298 0.0
C1295 C 0.21996 0.92502 0.34455 0.0
H1296 H 0.27131 0.95830 0.40449 0.0
C1297 C 0.24029 0.92996 0.36635 0.0
C1298 C 0.25742 0.95503 0.38942 0.0
H1299 H 0.24250 0.91606 0.36547 0.0
H1300 H 0.31050 0.09489 0.52872 0.0
H1301 H 0.28586 0.05290 0.47141 0.0
H1302 H 0.32701 0.03165 0.53310 0.0
H1303 H 0.35158 0.07331 0.58871 0.0
H1304 H 0.29272 0.99865 0.46674 0.0
H1305 H 0.26801 0.01544 0.41141 0.0
H1306 H 0.23215 0.98448 0.36249 0.0
H1307 H 0.20358 0.94262 0.32637 0.0
C1308 C 0.94446 0.16372 0.60650 0.0
C1309 C 0.93764 0.18084 0.60532 0.0
C1310 C 0.96024 0.16609 0.57452 0.0
C1311 C 0.96920 0.18551 0.53972 0.0
C1312 C 0.96223 0.20232 0.53961 0.0
C1313 C 0.94654 0.19994 0.57083 0.0
C1314 C 0.98636 0.18901 0.50563 0.0
C1315 C 0.99326 0.17351 0.49863 0.0
C1316 C 0.01176 0.17763 0.47096 0.0
C1317 C 0.01967 0.16232 0.48320 0.0
C1318 C 0.03831 0.16704 0.46635 0.0
C1319 C 0.04948 0.18694 0.43534 0.0
H1320 H 0.01640 0.20692 0.42565 0.0
C1321 C 0.04089 0.20136 0.41912 0.0
C1322 C 0.02218 0.19692 0.43671 0.0
H1323 H 0.04787 0.21437 0.39578 0.0
H1324 H 0.93829 0.15033 0.62941 0.0
H1325 H 0.96500 0.15444 0.57609 0.0
H1326 H 0.96846 0.21590 0.51725 0.0
H1327 H 0.94173 0.21151 0.56885 0.0
H1328 H 0.99283 0.20381 0.48750 0.0
H1329 H 0.98564 0.15785 0.51270 0.0
H1330 H 0.01217 0.14839 0.50348 0.0
H1331 H 0.04374 0.15654 0.47606 0.0
C1332 C 0.33574 0.21328 0.56270 0.0
C1333 C 0.33181 0.18997 0.57559 0.0
C1334 C 0.31942 0.21484 0.52923 0.0
C1335 C 0.29884 0.19281 0.50706 0.0
C1336 C 0.29534 0.16996 0.52079 0.0
C1337 C 0.31148 0.16832 0.55350 0.0
C1338 C 0.28081 0.19366 0.47193 0.0
C1339 C 0.28238 0.21354 0.45247 0.0
C1340 C 0.26456 0.21604 0.42335 0.0
C1341 C 0.26926 0.24055 0.42171 0.0
C1342 C 0.25325 0.24484 0.40310 0.0
C1343 C 0.23195 0.22467 0.38407 0.0
H1344 H 0.24001 0.17820 0.39952 0.0
C1345 C 0.22726 0.19978 0.38160 0.0
C1346 C 0.24334 0.19529 0.40113 0.0
H1347 H 0.21291 0.18569 0.36640 0.0
H1348 H 0.34971 0.22824 0.57697 0.0
H1349 H 0.32218 0.23094 0.52114 0.0
H1350 H 0.28136 0.15496 0.50713 0.0
H1351 H 0.30870 0.15217 0.56117 0.0
H1352 H 0.26699 0.17844 0.46301 0.0
H1353 H 0.29643 0.22800 0.45737 0.0
H1354 H 0.28371 0.25459 0.43358 0.0
H1355 H 0.25672 0.26194 0.40320 0.0
C1356 C 0.79781 0.94858 0.31115 0.0
C1357 C 0.77631 0.93438 0.28108 0.0
C1358 C 0.80693 0.97339 0.34657 0.0
C1359 C 0.79464 0.98456 0.35148 0.0
C1360 C 0.77332 0.97000 0.32146 0.0
C1361 C 0.76429 0.94553 0.28606 0.0
C1362 C 0.80365 0.01091 0.38972 0.0
C1363 C 0.82369 0.02706 0.41651 0.0
C1364 C 0.83301 0.05242 0.46048 0.0
C1365 C 0.85344 0.06336 0.49633 0.0
C1366 C 0.86219 0.08514 0.54384 0.0
C1367 C 0.85098 0.09709 0.55628 0.0
H1368 H 0.80812 0.05813 0.44372 0.0
C1369 C 0.83096 0.08713 0.51759 0.0
C1370 C 0.82188 0.06492 0.46996 0.0
H1371 H 0.82342 0.09559 0.52377 0.0
H1372 H 0.80631 0.94124 0.30746 0.0
H1373 H 0.82164 0.98294 0.36763 0.0
H1374 H 0.76469 0.97715 0.32543 0.0
H1375 H 0.74962 0.93610 0.26477 0.0
H1376 H 0.79398 0.01639 0.39508 0.0
H1377 H 0.83342 0.02210 0.40689 0.0
H1378 H 0.86153 0.05577 0.48812 0.0
H1379 H 0.87620 0.09225 0.56888 0.0
C1380 C 0.94517 0.72752 0.60797 0.0
C1381 C 0.93374 0.70243 0.61618 0.0
C1382 C 0.96268 0.73562 0.57989 0.0
C1383 C 0.96927 0.71868 0.56051 0.0
C1384 C 0.95758 0.69386 0.56890 0.0
C1385 C 0.94035 0.68585 0.59702 0.0
C1386 C 0.98771 0.72639 0.52932 0.0
C1387 C 0.00010 0.74955 0.52268 0.0
C1388 C 0.01795 0.75754 0.48611 0.0
C1389 C 0.02613 0.78137 0.47115 0.0
C1390 C 0.04011 0.78886 0.43069 0.0
C1391 C 0.04677 0.77297 0.40480 0.0
H1392 H 0.02046 0.72578 0.47538 0.0
C1393 C 0.03968 0.74967 0.42298 0.0
C1394 C 0.02532 0.74181 0.46325 0.0
H1395 H 0.04469 0.73902 0.40775 0.0
H1396 H 0.94094 0.73920 0.62163 0.0
H1397 H 0.97031 0.75278 0.57379 0.0
H1398 H 0.96162 0.68202 0.55483 0.0
H1399 H 0.93283 0.66873 0.60339 0.0
H1400 H 0.99017 0.71332 0.51284 0.0
H1401 H 0.99990 0.76278 0.54348 0.0
H1402 H 0.02207 0.79271 0.48898 0.0
H1403 H 0.04537 0.80523 0.42002 0.0
loop_
_geom_bond_atom_site_label_1
_geom_bond_atom_site_label_2
_geom_bond_distance
_geom_bond_site_symmetry_2
_ccdc_geom_bond_type
Tb0 N29 2.617 . S
Tb0 N35 2.572 . S
Tb0 O44 2.465 . S
Tb0 O45 2.387 . S
Tb0 O47 2.428 . S
Tb0 O48 2.308 1_655 S
Tb0 O52 2.349 1_655 S
Tb0 O55 2.393 1_655 S
Tb0 C64 2.802 . S
C1 N2 1.379 . S
C1 C4 1.416 . S
C1 C8 1.424 . S
N2 C1 1.379 . S
N2 C5 1.334 . S
N2 Tb11 2.617 . S
C3 C5 1.390 . S
C3 C6 1.339 . S
C3 H23 0.930 1_554 S
C4 C1 1.416 . S
C4 C6 1.416 . S
C4 C10 1.448 . S
C5 N2 1.334 . S
C5 C3 1.390 . S
C5 H16 0.930 . S
C6 C3 1.339 . S
C6 C4 1.416 . S
C6 H27 0.930 . S
C7 C8 1.413 . S
C7 C9 1.427 . S
C7 C13 1.416 . S
C8 C1 1.424 . S
C8 C7 1.413 . S
C8 N12 1.361 . S
C9 C7 1.427 . S
C9 C10 1.328 . S
C9 H24 0.929 . S
C10 C4 1.448 . S
C10 C9 1.328 . S
C10 H25 0.930 . S
Tb11 N2 2.617 . S
Tb11 N12 2.572 . S
Tb11 O46 2.349 . S
Tb11 O49 2.393 . S
Tb11 O50 2.465 . S
Tb11 O51 2.387 . S
Tb11 O53 2.428 . S
Tb11 O54 2.308 . S
Tb11 C75 2.802 . S
N12 C8 1.361 . S
N12 Tb11 2.572 . S
N12 C14 1.340 . S
C13 C7 1.416 . S
C13 C15 1.332 . S
C13 H21 0.931 . S
C14 N12 1.340 . S
C14 C15 1.407 . S
C14 H20 0.930 . S
C15 C13 1.332 . S
C15 C14 1.407 . S
C15 H17 0.929 . S
H16 C5 0.930 . S
H17 C15 0.929 . S
H18 C33 0.930 . S
H19 C40 0.929 . S
H20 C14 0.930 . S
H21 C13 0.931 . S
H22 C36 0.930 . S
H23 C3 0.930 1_556 S
H24 C9 0.929 . S
H25 C10 0.930 . S
H26 C31 0.930 . S
H27 C6 0.930 . S
H28 C39 0.931 . S
N29 Tb0 2.617 . S
N29 C30 1.379 . S
N29 C33 1.334 . S
C30 N29 1.379 . S
C30 C32 1.416 . S
C30 C38 1.424 . S
C31 H26 0.930 . S
C31 C33 1.390 . S
C31 C34 1.339 . S
C32 C30 1.416 . S
C32 C34 1.416 . S
C32 C65 1.448 . S
C33 H18 0.930 . S
C33 N29 1.334 . S
C33 C31 1.390 . S
C34 C31 1.339 . S
C34 C32 1.416 . S
C34 H41 0.930 . S
N35 Tb0 2.572 . S
N35 C36 1.340 1_554 S
N35 C38 1.361 . S
C36 H22 0.930 . S
C36 N35 1.340 1_556 S
C36 C40 1.407 . S
C37 C38 1.413 . S
C37 C39 1.416 1_554 S
C37 C66 1.427 . S
C38 C30 1.424 . S
C38 N35 1.361 . S
C38 C37 1.413 . S
C39 H28 0.931 . S
C39 C37 1.416 1_556 S
C39 C40 1.332 . S
C40 H19 0.929 . S
C40 C36 1.407 . S
C40 C39 1.332 . S
H41 C34 0.930 . S
H42 C65 0.930 . S
H43 C66 0.929 . S
O44 Tb0 2.465 . S
O44 C64 1.264 . S
O45 Tb0 2.387 . S
O45 C56 1.264 . S
O46 Tb11 2.349 . S
O46 C56 1.243 1_455 S
O47 Tb0 2.428 . S
O47 C64 1.256 . S
O48 Tb0 2.308 1_455 S
O48 C63 1.266 . S
O49 Tb11 2.393 . S
O49 C63 1.248 . S
O50 Tb11 2.465 . S
O50 C75 1.264 . S
O51 Tb11 2.387 . S
O51 C67 1.264 . S
O52 Tb0 2.349 1_455 S
O52 C67 1.243 . S
O53 Tb11 2.428 . S
O53 C75 1.256 . S
O54 Tb11 2.308 . S
O54 C74 1.266 . S
O55 Tb0 2.393 1_455 S
O55 C74 1.248 . S
C56 O45 1.264 . S
C56 O46 1.243 1_655 S
C57 C60 1.399 . S
C57 C62 1.383 . S
C57 C64 1.496 . S
C58 C59 1.399 . S
C58 C62 1.389 . S
C59 C58 1.399 . S
C59 C61 1.380 . S
C59 H76 0.929 . S
C60 C57 1.399 . S
C60 C61 1.392 . S
C60 H77 0.929 . S
C61 C59 1.380 . S
C61 C60 1.392 . S
C61 H78 0.929 . S
C62 C57 1.383 . S
C62 C58 1.389 . S
C62 H79 0.931 . S
C63 O48 1.266 . S
C63 O49 1.248 . S
C64 Tb0 2.802 . S
C64 O44 1.264 . S
C64 O47 1.256 . S
C64 C57 1.496 . S
C65 C32 1.448 . S
C65 H42 0.930 . S
C65 C66 1.328 . S
C66 C37 1.427 . S
C66 H43 0.929 . S
C66 C65 1.328 . S
C67 O51 1.264 . S
C67 O52 1.243 . S
C68 C71 1.399 . S
C68 C72 1.383 . S
C68 C75 1.496 . S
C69 C70 1.399 . S
C69 C72 1.389 . S
C70 C69 1.399 . S
C70 C73 1.380 . S
C70 H80 0.929 . S
C71 C68 1.399 . S
C71 C73 1.392 . S
C71 H81 0.929 . S
C72 C68 1.383 . S
C72 C69 1.389 . S
C72 H82 0.931 . S
C73 C70 1.380 . S
C73 C71 1.392 . S
C73 H83 0.929 . S
C74 O54 1.266 . S
C74 O55 1.248 . S
C75 Tb11 2.802 . S
C75 O50 1.264 . S
C75 O53 1.256 . S
C75 C68 1.496 . S
H76 C59 0.929 . S
H77 C60 0.929 . S
H78 C61 0.929 . S
H79 C62 0.931 . S
H80 C70 0.929 . S
H81 C71 0.929 . S
H82 C72 0.931 . S
H83 C73 0.929 . S
Tb84 N113 2.622 . S
Tb84 N119 2.572 . S
Tb84 O128 2.465 . S
Tb84 O129 2.387 . S
Tb84 O131 2.428 . S
Tb84 O132 2.308 . S
Tb84 O136 2.349 . S
Tb84 O139 2.393 1_554 S
Tb84 C148 2.802 . S
C85 N86 1.379 . S
C85 C88 1.416 . S
C85 C92 1.424 . S
N86 C85 1.379 . S
N86 C89 1.334 . S
N86 Tb95 2.617 . S
C87 C89 1.390 . S
C87 C90 1.339 . S
C87 H107 0.930 . S
C88 C85 1.416 . S
C88 C90 1.416 . S
C88 C94 1.448 . S
C89 N86 1.334 . S
C89 C87 1.390 . S
C89 H100 0.930 . S
C90 C87 1.339 . S
C90 C88 1.416 . S
C90 H111 0.930 . S
C91 C92 1.413 1_556 S
C91 C93 1.427 1_556 S
C91 C97 1.416 . S
C92 C85 1.424 . S
C92 C91 1.413 1_554 S
C92 N96 1.361 . S
C93 C91 1.427 1_554 S
C93 C94 1.328 . S
C93 H108 0.929 1_554 S
C94 C88 1.448 . S
C94 C93 1.328 . S
C94 H109 0.930 . S
Tb95 N86 2.617 . S
Tb95 N96 2.572 . S
Tb95 O130 2.349 . S
Tb95 O133 2.393 . S
Tb95 O134 2.465 . S
Tb95 O135 2.387 . S
Tb95 O137 2.428 . S
Tb95 O138 2.308 1_554 S
Tb95 C159 2.802 . S
N96 C92 1.361 . S
N96 Tb95 2.572 . S
N96 C98 1.340 1_554 S
C97 C91 1.416 . S
C97 C99 1.332 . S
C97 H105 0.931 . S
C98 N96 1.340 1_556 S
C98 C99 1.407 . S
C98 H104 0.930 . S
C99 C97 1.332 . S
C99 C98 1.407 . S
C99 H101 0.929 . S
H100 C89 0.930 . S
H101 C99 0.929 . S
H102 C117 0.930 . S
H103 C124 0.929 . S
H104 C98 0.930 . S
H105 C97 0.931 . S
H106 C120 0.930 . S
H107 C87 0.930 . S
H108 C93 0.929 1_556 S
H109 C94 0.930 . S
H110 C115 0.930 . S
H111 C90 0.930 . S
H112 C123 0.931 . S
N113 Tb84 2.622 . S
N113 C114 1.383 . S
N113 C117 1.326 1_554 S
C114 N113 1.383 . S
C114 C116 1.416 . S
C114 C122 1.424 . S
C115 H110 0.930 . S
C115 C117 1.390 . S
C115 C118 1.339 . S
C116 C114 1.416 . S
C116 C118 1.416 1_554 S
C116 C149 1.448 . S
C117 H102 0.930 . S
C117 N113 1.326 1_556 S
C117 C115 1.390 . S
C118 C115 1.339 . S
C118 C116 1.416 1_556 S
C118 H125 0.930 . S
N119 Tb84 2.572 . S
N119 C120 1.340 . S
N119 C122 1.361 . S
C120 H106 0.930 . S
C120 N119 1.340 . S
C120 C124 1.407 . S
C121 C122 1.413 . S
C121 C123 1.416 . S
C121 C150 1.427 . S
C122 C114 1.424 . S
C122 N119 1.361 . S
C122 C121 1.413 . S
C123 H112 0.931 . S
C123 C121 1.416 . S
C123 C124 1.332 . S
C124 H103 0.929 . S
C124 C120 1.407 . S
C124 C123 1.332 . S
H125 C118 0.930 . S
H126 C149 0.930 . S
H127 C150 0.929 . S
O128 Tb84 2.465 . S
O128 C148 1.264 . S
O129 Tb84 2.387 . S
O129 C140 1.264 . S
O130 Tb95 2.349 . S
O130 C140 1.243 . S
O131 Tb84 2.428 . S
O131 C148 1.256 . S
O132 Tb84 2.308 . S
O132 C147 1.266 . S
O133 Tb95 2.393 . S
O133 C147 1.248 . S
O134 Tb95 2.465 . S
O134 C159 1.264 . S
O135 Tb95 2.387 . S
O135 C151 1.264 . S
O136 Tb84 2.349 . S
O136 C151 1.243 . S
O137 Tb95 2.428 . S
O137 C159 1.256 . S
O138 Tb95 2.308 1_556 S
O138 C158 1.266 . S
O139 Tb84 2.393 1_556 S
O139 C158 1.248 . S
C140 O129 1.264 . S
C140 O130 1.243 . S
C141 C144 1.399 . S
C141 C146 1.383 . S
C141 C148 1.496 . S
C142 C143 1.399 . S
C142 C146 1.389 . S
C143 C142 1.399 . S
C143 C145 1.380 . S
C143 H160 0.929 . S
C144 C141 1.399 . S
C144 C145 1.392 . S
C144 H161 0.929 1_554 S
C145 C143 1.380 . S
C145 C144 1.392 . S
C145 H162 0.929 1_554 S
C146 C141 1.383 . S
C146 C142 1.389 . S
C146 H163 0.931 . S
C147 O132 1.266 . S
C147 O133 1.248 . S
C148 Tb84 2.802 . S
C148 O128 1.264 . S
C148 O131 1.256 . S
C148 C141 1.496 . S
C149 C116 1.448 . S
C149 H126 0.930 . S
C149 C150 1.328 . S
C150 C121 1.427 . S
C150 H127 0.929 . S
C150 C149 1.328 . S
C151 O135 1.264 . S
C151 O136 1.243 . S
C152 C155 1.399 . S
C152 C156 1.383 . S
C152 C159 1.496 . S
C153 C154 1.399 1_556 S
C153 C156 1.390 1_556 S
C154 C153 1.399 1_554 S
C154 C157 1.380 . S
C154 H164 0.929 . S
C155 C152 1.399 . S
C155 C157 1.392 . S
C155 H165 0.929 . S
C156 C152 1.383 . S
C156 C153 1.390 1_554 S
C156 H166 0.931 1_554 S
C157 C154 1.380 . S
C157 C155 1.392 . S
C157 H167 0.929 . S
C158 O138 1.266 . S
C158 O139 1.248 . S
C159 Tb95 2.802 . S
C159 O134 1.264 . S
C159 O137 1.256 . S
C159 C152 1.496 . S
H160 C143 0.929 . S
H161 C144 0.929 1_556 S
H162 C145 0.929 1_556 S
H163 C146 0.931 . S
H164 C154 0.929 . S
H165 C155 0.929 . S
H166 C156 0.931 1_556 S
H167 C157 0.929 . S
Tb168 N197 2.617 . S
Tb168 N203 2.572 1_554 S
Tb168 O212 2.465 1_554 S
Tb168 O213 2.387 . S
Tb168 O215 2.428 . S
Tb168 O216 2.308 1_554 S
Tb168 O220 2.349 . S
Tb168 O223 2.393 . S
Tb168 C232 2.802 . S
C169 N170 1.379 . S
C169 C172 1.416 . S
C169 C176 1.424 1_556 S
N170 C169 1.379 . S
N170 C173 1.334 . S
N170 Tb179 2.617 1_565 S
C171 C173 1.390 . S
C171 C174 1.339 . S
C171 H191 0.930 . S
C172 C169 1.416 . S
C172 C174 1.416 . S
C172 C178 1.448 . S
C173 N170 1.334 . S
C173 C171 1.390 . S
C173 H184 0.930 1_565 S
C174 C171 1.339 . S
C174 C172 1.416 . S
C174 H195 0.930 . S
C175 C176 1.413 . S
C175 C177 1.427 1_554 S
C175 C181 1.416 . S
C176 C169 1.424 1_554 S
C176 C175 1.413 . S
C176 N180 1.361 . S
C177 C175 1.427 1_556 S
C177 C178 1.328 . S
C177 H192 0.929 1_556 S
C178 C172 1.448 . S
C178 C177 1.328 . S
C178 H193 0.930 . S
Tb179 N170 2.617 1_545 S
Tb179 N180 2.572 1_546 S
Tb179 O214 2.349 . S
Tb179 O217 2.393 . S
Tb179 O218 2.465 1_556 S
Tb179 O219 2.387 . S
Tb179 O221 2.428 . S
Tb179 O222 2.308 1_556 S
Tb179 C243 2.802 . S
N180 C176 1.361 . S
N180 Tb179 2.572 1_564 S
N180 C182 1.344 1_565 S
C181 C175 1.416 . S
C181 C183 1.332 . S
C181 H189 0.931 . S
C182 N180 1.344 1_545 S
C182 C183 1.376 1_545 S
C182 H188 0.959 . S
C183 C181 1.332 . S
C183 C182 1.376 1_565 S
C183 H185 0.929 . S
H184 C173 0.930 1_545 S
H185 C183 0.929 . S
H186 C201 0.930 . S
H187 C208 0.929 . S
H188 C182 0.959 . S
H189 C181 0.931 . S
H190 C204 0.930 . S
H191 C171 0.930 . S
H192 C177 0.929 1_554 S
H193 C178 0.930 . S
H194 C199 0.930 . S
H195 C174 0.930 . S
H196 C207 0.931 . S
N197 Tb168 2.617 . S
N197 C198 1.379 . S
N197 C201 1.334 . S
C198 N197 1.379 . S
C198 C200 1.416 . S
C198 C206 1.424 . S
C199 H194 0.930 . S
C199 C201 1.390 . S
C199 C202 1.339 . S
C200 C198 1.416 . S
C200 C202 1.416 . S
C200 C233 1.448 . S
C201 H186 0.930 . S
C201 N197 1.334 . S
C201 C199 1.390 . S
C202 C199 1.339 . S
C202 C200 1.416 . S
C202 H209 0.930 . S
N203 Tb168 2.572 1_556 S
N203 C204 1.340 . S
N203 C206 1.361 1_556 S
C204 H190 0.930 . S
C204 N203 1.340 . S
C204 C208 1.407 . S
C205 C206 1.413 1_556 S
C205 C207 1.416 . S
C205 C234 1.427 1_556 S
C206 C198 1.424 . S
C206 N203 1.361 1_554 S
C206 C205 1.413 1_554 S
C207 H196 0.931 . S
C207 C205 1.416 . S
C207 C208 1.332 . S
C208 H187 0.929 . S
C208 C204 1.407 . S
C208 C207 1.332 . S
H209 C202 0.930 . S
H210 C233 0.930 . S
H211 C234 0.929 . S
O212 Tb168 2.465 1_556 S
O212 C232 1.264 1_556 S
O213 Tb168 2.387 . S
O213 C224 1.264 . S
O214 Tb179 2.349 . S
O214 C224 1.243 1_556 S
O215 Tb168 2.428 . S
O215 C232 1.256 . S
O216 Tb168 2.308 1_556 S
O216 C231 1.266 . S
O217 Tb179 2.393 . S
O217 C231 1.248 . S
O218 Tb179 2.465 1_554 S
O218 C243 1.264 1_554 S
O219 Tb179 2.387 . S
O219 C235 1.264 1_556 S
O220 Tb168 2.349 . S
O220 C235 1.243 . S
O221 Tb179 2.428 . S
O221 C243 1.256 . S
O222 Tb179 2.308 1_554 S
O222 C242 1.266 . S
O223 Tb168 2.393 . S
O223 C242 1.248 . S
C224 O213 1.264 . S
C224 O214 1.243 1_554 S
C225 C228 1.399 . S
C225 C230 1.383 1_554 S
C225 C232 1.496 . S
C226 C227 1.399 1_556 S
C226 C230 1.389 . S
C227 C226 1.399 1_554 S
C227 C229 1.380 . S
C227 H244 0.929 . S
C228 C225 1.399 . S
C228 C229 1.392 . S
C228 H245 0.929 . S
C229 C227 1.380 . S
C229 C228 1.392 . S
C229 H246 0.929 . S
C230 C225 1.383 1_556 S
C230 C226 1.389 . S
C230 H247 0.931 . S
C231 O216 1.266 . S
C231 O217 1.248 . S
C232 Tb168 2.802 . S
C232 O212 1.264 1_554 S
C232 O215 1.256 . S
C232 C225 1.496 . S
C233 C200 1.448 . S
C233 H210 0.930 . S
C233 C234 1.328 . S
C234 C205 1.427 1_554 S
C234 H211 0.929 . S
C234 C233 1.328 . S
C235 O219 1.264 1_554 S
C235 O220 1.243 . S
C236 C239 1.399 1_544 S
C236 C240 1.383 . S
C236 C243 1.496 1_554 S
C237 C238 1.399 . S
C237 C240 1.389 1_565 S
C238 C237 1.399 . S
C238 C241 1.380 1_554 S
C238 H248 0.929 . S
C239 C236 1.399 1_566 S
C239 C241 1.392 . S
C239 H249 0.929 . S
C240 C236 1.383 . S
C240 C237 1.389 1_545 S
C240 H250 0.931 . S
C241 C238 1.380 1_556 S
C241 C239 1.392 . S
C241 H251 0.929 . S
C242 O222 1.266 . S
C242 O223 1.248 . S
C243 Tb179 2.802 . S
C243 O218 1.264 1_556 S
C243 O221 1.256 . S
C243 C236 1.496 1_556 S
H244 C227 0.929 . S
H245 C228 0.929 . S
H246 C229 0.929 . S
H247 C230 0.931 . S
H248 C238 0.929 . S
H249 C239 0.929 . S
H250 C240 0.931 . S
H251 C241 0.929 . S
Tb252 N281 2.617 . S
Tb252 N287 2.572 . S
Tb252 O296 2.465 . S
Tb252 O297 2.387 . S
Tb252 O299 2.428 . S
Tb252 O300 2.308 . S
Tb252 O304 2.349 . S
Tb252 O307 2.393 . S
Tb252 C316 2.802 . S
C253 N254 1.379 . S
C253 C256 1.416 . S
C253 C260 1.424 . S
N254 C253 1.379 . S
N254 C257 1.334 . S
N254 Tb263 2.617 . S
C255 C257 1.390 . S
C255 C258 1.339 . S
C255 H275 0.930 . S
C256 C253 1.416 . S
C256 C258 1.416 . S
C256 C262 1.448 . S
C257 N254 1.334 . S
C257 C255 1.390 . S
C257 H268 0.930 . S
C258 C255 1.339 . S
C258 C256 1.416 . S
C258 H279 0.930 . S
C259 C260 1.413 . S
C259 C261 1.427 . S
C259 C265 1.416 . S
C260 C253 1.424 . S
C260 C259 1.413 . S
C260 N264 1.361 . S
C261 C259 1.427 . S
C261 C262 1.328 . S
C261 H276 0.929 . S
C262 C256 1.448 . S
C262 C261 1.328 . S
C262 H277 0.930 . S
Tb263 N254 2.617 . S
Tb263 N264 2.572 . S
Tb263 O298 2.349 . S
Tb263 O301 2.393 . S
Tb263 O302 2.465 . S
Tb263 O303 2.387 . S
Tb263 O305 2.428 . S
Tb263 O306 2.308 . S
Tb263 C327 2.802 . S
N264 C260 1.361 . S
N264 Tb263 2.572 . S
N264 C266 1.340 . S
C265 C259 1.416 . S
C265 C267 1.332 . S
C265 H273 0.931 . S
C266 N264 1.340 . S
C266 C267 1.407 . S
C266 H272 0.930 . S
C267 C265 1.332 . S
C267 C266 1.407 . S
C267 H269 0.929 . S
H268 C257 0.930 . S
H269 C267 0.929 . S
H270 C285 0.930 . S
H271 C292 0.929 1_556 S
H272 C266 0.930 . S
H273 C265 0.931 . S
H274 C288 0.930 . S
H275 C255 0.930 . S
H276 C261 0.929 . S
H277 C262 0.930 . S
H278 C283 0.930 . S
H279 C258 0.930 . S
H280 C291 0.926 1_556 S
N281 Tb252 2.617 . S
N281 C282 1.379 . S
N281 C285 1.334 . S
C282 N281 1.379 . S
C282 C284 1.416 . S
C282 C290 1.424 . S
C283 H278 0.930 . S
C283 C285 1.390 . S
C283 C286 1.339 . S
C284 C282 1.416 . S
C284 C286 1.416 . S
C284 C317 1.448 . S
C285 H270 0.930 . S
C285 N281 1.334 . S
C285 C283 1.390 . S
C286 C283 1.339 . S
C286 C284 1.416 . S
C286 H293 0.930 . S
N287 Tb252 2.572 . S
N287 C288 1.340 . S
N287 C290 1.361 . S
C288 H274 0.930 . S
C288 N287 1.340 . S
C288 C292 1.407 . S
C289 C290 1.413 . S
C289 C291 1.416 . S
C289 C318 1.427 . S
C290 C282 1.424 . S
C290 N287 1.361 . S
C290 C289 1.413 . S
C291 H280 0.926 1_554 S
C291 C289 1.416 . S
C291 C292 1.332 . S
C292 H271 0.929 1_554 S
C292 C288 1.407 . S
C292 C291 1.332 . S
H293 C286 0.930 . S
H294 C317 0.930 . S
H295 C318 0.929 . S
O296 Tb252 2.465 . S
O296 C316 1.264 . S
O297 Tb252 2.387 . S
O297 C308 1.264 . S
O298 Tb263 2.349 . S
O298 C308 1.243 . S
O299 Tb252 2.428 . S
O299 C316 1.256 . S
O300 Tb252 2.308 . S
O300 C315 1.266 . S
O301 Tb263 2.393 . S
O301 C315 1.248 . S
O302 Tb263 2.465 . S
O302 C327 1.264 . S
O303 Tb263 2.387 . S
O303 C319 1.264 . S
O304 Tb252 2.349 . S
O304 C319 1.243 . S
O305 Tb263 2.428 . S
O305 C327 1.256 . S
O306 Tb263 2.308 . S
O306 C326 1.266 . S
O307 Tb252 2.393 . S
O307 C326 1.248 . S
C308 O297 1.264 . S
C308 O298 1.243 . S
C309 C312 1.399 . S
C309 C314 1.383 . S
C309 C316 1.496 . S
C310 C311 1.399 . S
C310 C314 1.389 . S
C311 C310 1.399 . S
C311 C313 1.380 . S
C311 H328 0.929 . S
C312 C309 1.399 . S
C312 C313 1.392 . S
C312 H329 0.929 . S
C313 C311 1.380 . S
C313 C312 1.392 . S
C313 H330 0.929 . S
C314 C309 1.383 . S
C314 C310 1.389 . S
C314 H331 0.931 . S
C315 O300 1.266 . S
C315 O301 1.248 . S
C316 Tb252 2.802 . S
C316 O296 1.264 . S
C316 O299 1.256 . S
C316 C309 1.496 . S
C317 C284 1.448 . S
C317 H294 0.930 . S
C317 C318 1.328 . S
C318 C289 1.427 . S
C318 H295 0.929 . S
C318 C317 1.328 . S
C319 O303 1.264 . S
C319 O304 1.243 . S
C320 C323 1.399 . S
C320 C324 1.383 . S
C320 C327 1.496 . S
C321 C322 1.399 . S
C321 C324 1.389 . S
C322 C321 1.399 . S
C322 C325 1.380 . S
C322 H332 0.929 . S
C323 C320 1.399 . S
C323 C325 1.392 . S
C323 H333 0.929 . S
C324 C320 1.383 . S
C324 C321 1.389 . S
C324 H334 0.931 . S
C325 C322 1.380 . S
C325 C323 1.392 . S
C325 H335 0.929 . S
C326 O306 1.266 . S
C326 O307 1.248 . S
C327 Tb263 2.802 . S
C327 O302 1.264 . S
C327 O305 1.256 . S
C327 C320 1.496 . S
H328 C311 0.929 . S
H329 C312 0.929 . S
H330 C313 0.929 . S
H331 C314 0.931 . S
H332 C322 0.929 . S
H333 C323 0.929 . S
H334 C324 0.931 . S
H335 C325 0.929 . S
Tb336 N365 2.617 . S
Tb336 N371 2.572 . S
Tb336 O380 2.465 . S
Tb336 O381 2.387 . S
Tb336 O383 2.428 . S
Tb336 O384 2.308 . S
Tb336 O388 2.349 . S
Tb336 O391 2.393 . S
Tb336 C400 2.802 . S
C337 N338 1.379 . S
C337 C340 1.416 . S
C337 C344 1.424 . S
N338 C337 1.379 . S
N338 C341 1.334 . S
N338 Tb347 2.617 . S
C339 C341 1.390 . S
C339 C342 1.339 . S
C339 H359 0.930 . S
C340 C337 1.416 . S
C340 C342 1.416 . S
C340 C346 1.448 . S
C341 N338 1.334 . S
C341 C339 1.390 . S
C341 H352 0.930 . S
C342 C339 1.339 . S
C342 C340 1.416 . S
C342 H363 0.930 . S
C343 C344 1.413 . S
C343 C345 1.427 . S
C343 C349 1.416 . S
C344 C337 1.424 . S
C344 C343 1.413 . S
C344 N348 1.361 . S
C345 C343 1.427 . S
C345 C346 1.328 . S
C345 H360 0.929 . S
C346 C340 1.448 . S
C346 C345 1.328 . S
C346 H361 0.930 . S
Tb347 N338 2.617 . S
Tb347 N348 2.572 . S
Tb347 O382 2.349 . S
Tb347 O385 2.393 . S
Tb347 O386 2.465 . S
Tb347 O387 2.387 . S
Tb347 O389 2.428 . S
Tb347 O390 2.308 . S
Tb347 C411 2.802 . S
N348 C344 1.361 . S
N348 Tb347 2.572 . S
N348 C350 1.340 . S
C349 C343 1.416 . S
C349 C351 1.332 . S
C349 H357 0.931 . S
C350 N348 1.340 . S
C350 C351 1.407 . S
C350 H356 0.930 . S
C351 C349 1.332 . S
C351 C350 1.407 . S
C351 H353 0.929 . S
H352 C341 0.930 . S
H353 C351 0.929 . S
H354 C369 0.930 . S
H355 C376 0.929 . S
H356 C350 0.930 . S
H357 C349 0.931 . S
H358 C372 0.930 . S
H359 C339 0.930 . S
H360 C345 0.929 . S
H361 C346 0.930 . S
H362 C367 0.930 . S
H363 C342 0.930 . S
H364 C375 0.931 . S
N365 Tb336 2.617 . S
N365 C366 1.379 . S
N365 C369 1.334 . S
C366 N365 1.379 . S
C366 C368 1.416 . S
C366 C374 1.424 . S
C367 H362 0.930 . S
C367 C369 1.390 . S
C367 C370 1.339 . S
C368 C366 1.416 . S
C368 C370 1.416 . S
C368 C401 1.448 . S
C369 H354 0.930 . S
C369 N365 1.334 . S
C369 C367 1.390 . S
C370 C367 1.339 . S
C370 C368 1.416 . S
C370 H377 0.930 . S
N371 Tb336 2.572 . S
N371 C372 1.340 . S
N371 C374 1.361 . S
C372 H358 0.930 . S
C372 N371 1.340 . S
C372 C376 1.407 . S
C373 C374 1.413 . S
C373 C375 1.416 . S
C373 C402 1.427 . S
C374 C366 1.424 . S
C374 N371 1.361 . S
C374 C373 1.413 . S
C375 H364 0.931 . S
C375 C373 1.416 . S
C375 C376 1.332 . S
C376 H355 0.929 . S
C376 C372 1.407 . S
C376 C375 1.332 . S
H377 C370 0.930 . S
H378 C401 0.930 . S
H379 C402 0.929 . S
O380 Tb336 2.465 . S
O380 C400 1.264 . S
O381 Tb336 2.387 . S
O381 C392 1.264 . S
O382 Tb347 2.349 . S
O382 C392 1.243 . S
O383 Tb336 2.428 . S
O383 C400 1.256 . S
O384 Tb336 2.308 . S
O384 C399 1.266 . S
O385 Tb347 2.393 . S
O385 C399 1.248 . S
O386 Tb347 2.465 . S
O386 C411 1.264 . S
O387 Tb347 2.387 . S
O387 C403 1.264 . S
O388 Tb336 2.349 . S
O388 C403 1.243 . S
O389 Tb347 2.428 . S
O389 C411 1.256 . S
O390 Tb347 2.308 . S
O390 C410 1.266 . S
O391 Tb336 2.393 . S
O391 C410 1.248 . S
C392 O381 1.264 . S
C392 O382 1.243 . S
C393 C396 1.399 . S
C393 C398 1.383 . S
C393 C400 1.496 . S
C394 C395 1.399 . S
C394 C398 1.389 . S
C395 C394 1.399 . S
C395 C397 1.380 . S
C395 H412 0.929 . S
C396 C393 1.399 . S
C396 C397 1.392 . S
C396 H413 0.929 . S
C397 C395 1.380 . S
C397 C396 1.392 . S
C397 H414 0.929 . S
C398 C393 1.383 . S
C398 C394 1.389 . S
C398 H415 0.931 . S
C399 O384 1.266 . S
C399 O385 1.248 . S
C400 Tb336 2.802 . S
C400 O380 1.264 . S
C400 O383 1.256 . S
C400 C393 1.496 . S
C401 C368 1.448 . S
C401 H378 0.930 . S
C401 C402 1.328 . S
C402 C373 1.427 . S
C402 H379 0.929 . S
C402 C401 1.328 . S
C403 O387 1.264 . S
C403 O388 1.243 . S
C404 C407 1.399 . S
C404 C408 1.383 . S
C404 C411 1.496 . S
C405 C406 1.399 . S
C405 C408 1.389 . S
C406 C405 1.399 . S
C406 C409 1.380 . S
C406 H416 0.929 . S
C407 C404 1.399 . S
C407 C409 1.392 . S
C407 H417 0.929 . S
C408 C404 1.383 . S
C408 C405 1.389 . S
C408 H418 0.931 . S
C409 C406 1.380 . S
C409 C407 1.392 . S
C409 H419 0.929 . S
C410 O390 1.266 . S
C410 O391 1.248 . S
C411 Tb347 2.802 . S
C411 O386 1.264 . S
C411 O389 1.256 . S
C411 C404 1.496 . S
H412 C395 0.929 . S
H413 C396 0.929 . S
H414 C397 0.929 . S
H415 C398 0.931 . S
H416 C406 0.929 . S
H417 C407 0.929 . S
H418 C408 0.931 . S
H419 C409 0.929 . S
Tb420 N449 2.617 . S
Tb420 N455 2.572 . S
Tb420 O464 2.465 . S
Tb420 O465 2.387 . S
Tb420 O467 2.428 . S
Tb420 O468 2.308 . S
Tb420 O472 2.349 . S
Tb420 O475 2.393 . S
Tb420 C484 2.802 . S
C421 N422 1.379 . S
C421 C424 1.416 . S
C421 C428 1.424 . S
N422 C421 1.379 . S
N422 C425 1.334 . S
N422 Tb431 2.617 . S
C423 C425 1.390 . S
C423 C426 1.339 . S
C423 H443 0.930 . S
C424 C421 1.416 . S
C424 C426 1.416 . S
C424 C430 1.448 . S
C425 N422 1.334 . S
C425 C423 1.390 . S
C425 H436 0.930 . S
C426 C423 1.339 . S
C426 C424 1.416 . S
C426 H447 0.930 . S
C427 C428 1.413 . S
C427 C429 1.427 . S
C427 C433 1.416 . S
C428 C421 1.424 . S
C428 C427 1.413 . S
C428 N432 1.361 . S
C429 C427 1.427 . S
C429 C430 1.328 . S
C429 H444 0.929 . S
C430 C424 1.448 . S
C430 C429 1.328 . S
C430 H445 0.930 . S
Tb431 N422 2.617 . S
Tb431 N432 2.572 . S
Tb431 O466 2.349 . S
Tb431 O469 2.393 . S
Tb431 O470 2.465 . S
Tb431 O471 2.387 . S
Tb431 O473 2.428 . S
Tb431 O474 2.308 . S
Tb431 C495 2.802 . S
N432 C428 1.361 . S
N432 Tb431 2.572 . S
N432 C434 1.340 . S
C433 C427 1.416 . S
C433 C435 1.332 . S
C433 H441 0.931 . S
C434 N432 1.340 . S
C434 C435 1.407 . S
C434 H440 0.930 . S
C435 C433 1.332 . S
C435 C434 1.407 . S
C435 H437 0.929 . S
H436 C425 0.930 . S
H437 C435 0.929 . S
H438 C453 0.930 . S
H439 C460 0.929 . S
H440 C434 0.930 . S
H441 C433 0.931 . S
H442 C456 0.930 . S
H443 C423 0.930 . S
H444 C429 0.929 . S
H445 C430 0.930 . S
H446 C451 0.930 . S
H447 C426 0.930 . S
H448 C459 0.931 . S
N449 Tb420 2.617 . S
N449 C450 1.379 . S
N449 C453 1.334 . S
C450 N449 1.379 . S
C450 C452 1.416 . S
C450 C458 1.424 . S
C451 H446 0.930 . S
C451 C453 1.390 . S
C451 C454 1.339 . S
C452 C450 1.416 . S
C452 C454 1.416 . S
C452 C485 1.448 . S
C453 H438 0.930 . S
C453 N449 1.334 . S
C453 C451 1.390 . S
C454 C451 1.339 . S
C454 C452 1.416 . S
C454 H461 0.930 . S
N455 Tb420 2.572 . S
N455 C456 1.340 . S
N455 C458 1.361 . S
C456 H442 0.930 . S
C456 N455 1.340 . S
C456 C460 1.407 . S
C457 C458 1.413 . S
C457 C459 1.416 . S
C457 C486 1.427 . S
C458 C450 1.424 . S
C458 N455 1.361 . S
C458 C457 1.413 . S
C459 H448 0.931 . S
C459 C457 1.416 . S
C459 C460 1.332 . S
C460 H439 0.929 . S
C460 C456 1.407 . S
C460 C459 1.332 . S
H461 C454 0.930 . S
H462 C485 0.930 . S
H463 C486 0.929 . S
O464 Tb420 2.465 . S
O464 C484 1.264 . S
O465 Tb420 2.387 . S
O465 C476 1.264 . S
O466 Tb431 2.349 . S
O466 C476 1.243 . S
O467 Tb420 2.428 . S
O467 C484 1.256 . S
O468 Tb420 2.308 . S
O468 C483 1.266 . S
O469 Tb431 2.393 . S
O469 C483 1.248 . S
O470 Tb431 2.465 . S
O470 C495 1.264 . S
O471 Tb431 2.387 . S
O471 C487 1.264 . S
O472 Tb420 2.349 . S
O472 C487 1.243 . S
O473 Tb431 2.428 . S
O473 C495 1.256 . S
O474 Tb431 2.308 . S
O474 C494 1.266 . S
O475 Tb420 2.393 . S
O475 C494 1.248 . S
C476 O465 1.264 . S
C476 O466 1.243 . S
C477 C480 1.399 . S
C477 C482 1.383 . S
C477 C484 1.496 . S
C478 C479 1.399 . S
C478 C482 1.389 . S
C479 C478 1.399 . S
C479 C481 1.380 . S
C479 H496 0.929 . S
C480 C477 1.399 . S
C480 C481 1.392 . S
C480 H497 0.929 . S
C481 C479 1.380 . S
C481 C480 1.392 . S
C481 H498 0.929 . S
C482 C477 1.383 . S
C482 C478 1.389 . S
C482 H499 0.931 . S
C483 O468 1.266 . S
C483 O469 1.248 . S
C484 Tb420 2.802 . S
C484 O464 1.264 . S
C484 O467 1.256 . S
C484 C477 1.496 . S
C485 C452 1.448 . S
C485 H462 0.930 . S
C485 C486 1.328 . S
C486 C457 1.427 . S
C486 H463 0.929 . S
C486 C485 1.328 . S
C487 O471 1.264 . S
C487 O472 1.243 . S
C488 C491 1.399 . S
C488 C492 1.383 . S
C488 C495 1.496 . S
C489 C490 1.399 . S
C489 C492 1.389 . S
C490 C489 1.399 . S
C490 C493 1.380 . S
C490 H500 0.929 . S
C491 C488 1.399 . S
C491 C493 1.392 . S
C491 H501 0.929 . S
C492 C488 1.383 . S
C492 C489 1.389 . S
C492 H502 0.931 . S
C493 C490 1.380 . S
C493 C491 1.392 . S
C493 H503 0.929 . S
C494 O474 1.266 . S
C494 O475 1.248 . S
C495 Tb431 2.802 . S
C495 O470 1.264 . S
C495 O473 1.256 . S
C495 C488 1.496 . S
H496 C479 0.929 . S
H497 C480 0.929 . S
H498 C481 0.929 . S
H499 C482 0.931 . S
H500 C490 0.929 . S
H501 C491 0.929 . S
H502 C492 0.931 . S
H503 C493 0.929 . S
Tb504 N533 2.617 . S
Tb504 N539 2.572 . S
Tb504 O548 2.465 . S
Tb504 O549 2.387 . S
Tb504 O551 2.428 . S
Tb504 O552 2.308 . S
Tb504 O556 2.349 . S
Tb504 O559 2.393 . S
Tb504 C568 2.802 . S
C505 N506 1.379 . S
C505 C508 1.416 . S
C505 C512 1.424 . S
N506 C505 1.379 . S
N506 C509 1.334 . S
N506 Tb515 2.617 . S
C507 C509 1.390 . S
C507 C510 1.339 . S
C507 H527 0.930 . S
C508 C505 1.416 . S
C508 C510 1.416 . S
C508 C514 1.448 . S
C509 N506 1.334 . S
C509 C507 1.390 . S
C509 H520 0.930 . S
C510 C507 1.339 . S
C510 C508 1.416 . S
C510 H531 0.930 . S
C511 C512 1.413 . S
C511 C513 1.427 . S
C511 C517 1.416 . S
C512 C505 1.424 . S
C512 C511 1.413 . S
C512 N516 1.361 . S
C513 C511 1.427 . S
C513 C514 1.328 . S
C513 H528 0.929 . S
C514 C508 1.448 . S
C514 C513 1.328 . S
C514 H529 0.930 . S
Tb515 N506 2.617 . S
Tb515 N516 2.572 . S
Tb515 O550 2.349 . S
Tb515 O553 2.393 . S
Tb515 O554 2.465 . S
Tb515 O555 2.387 . S
Tb515 O557 2.428 . S
Tb515 O558 2.308 . S
Tb515 C579 2.802 . S
N516 C512 1.361 . S
N516 Tb515 2.572 . S
N516 C518 1.340 . S
C517 C511 1.416 . S
C517 C519 1.332 . S
C517 H525 0.931 . S
C518 N516 1.340 . S
C518 C519 1.407 . S
C518 H524 0.930 . S
C519 C517 1.332 . S
C519 C518 1.407 . S
C519 H521 0.929 . S
H520 C509 0.930 . S
H521 C519 0.929 . S
H522 C537 0.930 . S
H523 C544 0.929 . S
H524 C518 0.930 . S
H525 C517 0.931 . S
H526 C540 0.930 . S
H527 C507 0.930 . S
H528 C513 0.929 . S
H529 C514 0.930 . S
H530 C535 0.930 . S
H531 C510 0.930 . S
H532 C543 0.931 . S
N533 Tb504 2.617 . S
N533 C534 1.379 . S
N533 C537 1.334 . S
C534 N533 1.379 . S
C534 C536 1.416 . S
C534 C542 1.424 . S
C535 H530 0.930 . S
C535 C537 1.390 . S
C535 C538 1.339 . S
C536 C534 1.416 . S
C536 C538 1.416 . S
C536 C569 1.448 . S
C537 H522 0.930 . S
C537 N533 1.334 . S
C537 C535 1.390 . S
C538 C535 1.339 . S
C538 C536 1.416 . S
C538 H545 0.930 . S
N539 Tb504 2.572 . S
N539 C540 1.340 . S
N539 C542 1.361 . S
C540 H526 0.930 . S
C540 N539 1.340 . S
C540 C544 1.407 . S
C541 C542 1.413 . S
C541 C543 1.416 . S
C541 C570 1.427 . S
C542 C534 1.424 . S
C542 N539 1.361 . S
C542 C541 1.413 . S
C543 H532 0.931 . S
C543 C541 1.416 . S
C543 C544 1.332 . S
C544 H523 0.929 . S
C544 C540 1.407 . S
C544 C543 1.332 . S
H545 C538 0.930 . S
H546 C569 0.930 . S
H547 C570 0.929 . S
O548 Tb504 2.465 . S
O548 C568 1.264 . S
O549 Tb504 2.387 . S
O549 C560 1.264 . S
O550 Tb515 2.349 . S
O550 C560 1.243 . S
O551 Tb504 2.428 . S
O551 C568 1.256 . S
O552 Tb504 2.308 . S
O552 C567 1.266 . S
O553 Tb515 2.393 . S
O553 C567 1.248 . S
O554 Tb515 2.465 . S
O554 C579 1.264 . S
O555 Tb515 2.387 . S
O555 C571 1.264 . S
O556 Tb504 2.349 . S
O556 C571 1.243 . S
O557 Tb515 2.428 . S
O557 C579 1.256 . S
O558 Tb515 2.308 . S
O558 C578 1.266 . S
O559 Tb504 2.393 . S
O559 C578 1.248 . S
C560 O549 1.264 . S
C560 O550 1.243 . S
C561 C564 1.399 . S
C561 C566 1.383 . S
C561 C568 1.496 . S
C562 C563 1.399 . S
C562 C566 1.389 1_554 S
C563 C562 1.399 . S
C563 C565 1.380 . S
C563 H580 0.929 . S
C564 C561 1.399 . S
C564 C565 1.392 1_556 S
C564 H581 0.929 . S
C565 C563 1.380 . S
C565 C564 1.392 1_554 S
C565 H582 0.929 . S
C566 C561 1.383 . S
C566 C562 1.389 1_556 S
C566 H583 0.931 . S
C567 O552 1.266 . S
C567 O553 1.248 . S
C568 Tb504 2.802 . S
C568 O548 1.264 . S
C568 O551 1.256 . S
C568 C561 1.496 . S
C569 C536 1.448 . S
C569 H546 0.930 . S
C569 C570 1.328 . S
C570 C541 1.427 . S
C570 H547 0.929 . S
C570 C569 1.328 . S
C571 O555 1.264 . S
C571 O556 1.243 . S
C572 C575 1.399 . S
C572 C576 1.383 . S
C572 C579 1.496 . S
C573 C574 1.399 . S
C573 C576 1.389 . S
C574 C573 1.399 . S
C574 C577 1.380 . S
C574 H584 0.929 . S
C575 C572 1.399 . S
C575 C577 1.392 . S
C575 H585 0.929 . S
C576 C572 1.383 . S
C576 C573 1.389 . S
C576 H586 0.931 . S
C577 C574 1.380 . S
C577 C575 1.392 . S
C577 H587 0.929 . S
C578 O558 1.266 . S
C578 O559 1.248 . S
C579 Tb515 2.802 . S
C579 O554 1.264 . S
C579 O557 1.256 . S
C579 C572 1.496 . S
H580 C563 0.929 . S
H581 C564 0.929 . S
H582 C565 0.929 . S
H583 C566 0.931 . S
H584 C574 0.929 . S
H585 C575 0.929 . S
H586 C576 0.931 . S
H587 C577 0.929 . S
Tb588 N617 2.617 . S
Tb588 N623 2.572 . S
Tb588 O632 2.465 . S
Tb588 O633 2.387 . S
Tb588 O635 2.428 . S
Tb588 O636 2.308 . S
Tb588 O640 2.349 . S
Tb588 O643 2.393 . S
Tb588 C652 2.802 . S
C589 N590 1.379 . S
C589 C592 1.416 . S
C589 C596 1.424 . S
N590 C589 1.379 . S
N590 C593 1.334 . S
N590 Tb599 2.617 . S
C591 C593 1.390 . S
C591 C594 1.339 . S
C591 H611 0.930 . S
C592 C589 1.416 . S
C592 C594 1.416 . S
C592 C598 1.448 . S
C593 N590 1.334 . S
C593 C591 1.390 . S
C593 H604 0.930 . S
C594 C591 1.339 . S
C594 C592 1.416 . S
C594 H615 0.930 . S
C595 C596 1.413 . S
C595 C597 1.427 . S
C595 C601 1.416 . S
C596 C589 1.424 . S
C596 C595 1.413 . S
C596 N600 1.361 . S
C597 C595 1.427 . S
C597 C598 1.328 . S
C597 H612 0.929 . S
C598 C592 1.448 . S
C598 C597 1.328 . S
C598 H613 0.930 . S
Tb599 N590 2.617 . S
Tb599 N600 2.572 . S
Tb599 O634 2.349 . S
Tb599 O637 2.393 . S
Tb599 O638 2.465 . S
Tb599 O639 2.387 . S
Tb599 O641 2.428 . S
Tb599 O642 2.308 . S
Tb599 C663 2.802 . S
N600 C596 1.361 . S
N600 Tb599 2.572 . S
N600 C602 1.340 . S
C601 C595 1.416 . S
C601 C603 1.332 . S
C601 H609 0.931 . S
C602 N600 1.340 . S
C602 C603 1.407 . S
C602 H608 0.930 . S
C603 C601 1.332 . S
C603 C602 1.407 . S
C603 H605 0.929 . S
H604 C593 0.930 . S
H605 C603 0.929 . S
H606 C621 0.930 . S
H607 C628 0.929 . S
H608 C602 0.930 . S
H609 C601 0.931 . S
H610 C624 0.930 . S
H611 C591 0.930 . S
H612 C597 0.929 . S
H613 C598 0.930 . S
H614 C619 0.930 . S
H615 C594 0.930 . S
H616 C627 0.931 . S
N617 Tb588 2.617 . S
N617 C618 1.379 . S
N617 C621 1.334 . S
C618 N617 1.379 . S
C618 C620 1.416 . S
C618 C626 1.424 . S
C619 H614 0.930 . S
C619 C621 1.390 . S
C619 C622 1.339 . S
C620 C618 1.416 . S
C620 C622 1.416 . S
C620 C653 1.448 . S
C621 H606 0.930 . S
C621 N617 1.334 . S
C621 C619 1.390 . S
C622 C619 1.339 . S
C622 C620 1.416 . S
C622 H629 0.930 . S
N623 Tb588 2.572 . S
N623 C624 1.340 . S
N623 C626 1.361 . S
C624 H610 0.930 . S
C624 N623 1.340 . S
C624 C628 1.407 . S
C625 C626 1.413 . S
C625 C627 1.416 . S
C625 C654 1.427 . S
C626 C618 1.424 . S
C626 N623 1.361 . S
C626 C625 1.413 . S
C627 H616 0.931 . S
C627 C625 1.416 . S
C627 C628 1.332 . S
C628 H607 0.929 . S
C628 C624 1.407 . S
C628 C627 1.332 . S
H629 C622 0.930 . S
H630 C653 0.930 . S
H631 C654 0.929 . S
O632 Tb588 2.465 . S
O632 C652 1.264 . S
O633 Tb588 2.387 . S
O633 C644 1.264 . S
O634 Tb599 2.349 . S
O634 C644 1.243 . S
O635 Tb588 2.428 . S
O635 C652 1.256 . S
O636 Tb588 2.308 . S
O636 C651 1.266 . S
O637 Tb599 2.393 . S
O637 C651 1.248 . S
O638 Tb599 2.465 . S
O638 C663 1.264 . S
O639 Tb599 2.387 . S
O639 C655 1.264 . S
O640 Tb588 2.349 . S
O640 C655 1.243 . S
O641 Tb599 2.428 . S
O641 C663 1.256 . S
O642 Tb599 2.308 . S
O642 C662 1.266 . S
O643 Tb588 2.393 . S
O643 C662 1.248 . S
C644 O633 1.264 . S
C644 O634 1.243 . S
C645 C648 1.399 . S
C645 C650 1.383 . S
C645 C652 1.496 . S
C646 C647 1.399 . S
C646 C650 1.389 . S
C647 C646 1.399 . S
C647 C649 1.380 . S
C647 H664 0.929 . S
C648 C645 1.399 . S
C648 C649 1.392 . S
C648 H665 0.929 . S
C649 C647 1.380 . S
C649 C648 1.392 . S
C649 H666 0.929 . S
C650 C645 1.383 . S
C650 C646 1.389 . S
C650 H667 0.931 . S
C651 O636 1.266 . S
C651 O637 1.248 . S
C652 Tb588 2.802 . S
C652 O632 1.264 . S
C652 O635 1.256 . S
C652 C645 1.496 . S
C653 C620 1.448 . S
C653 H630 0.930 . S
C653 C654 1.328 . S
C654 C625 1.427 . S
C654 H631 0.929 . S
C654 C653 1.328 . S
C655 O639 1.264 . S
C655 O640 1.243 . S
C656 C659 1.399 . S
C656 C660 1.383 . S
C656 C663 1.496 . S
C657 C658 1.399 . S
C657 C660 1.389 1_554 S
C658 C657 1.399 . S
C658 C661 1.380 . S
C658 H668 0.929 . S
C659 C656 1.399 . S
C659 C661 1.392 1_556 S
C659 H669 0.929 . S
C660 C656 1.383 . S
C660 C657 1.389 1_556 S
C660 H670 0.931 . S
C661 C658 1.380 . S
C661 C659 1.392 1_554 S
C661 H671 0.929 . S
C662 O642 1.266 . S
C662 O643 1.248 . S
C663 Tb599 2.802 . S
C663 O638 1.264 . S
C663 O641 1.256 . S
C663 C656 1.496 . S
H664 C647 0.929 . S
H665 C648 0.929 . S
H666 C649 0.929 . S
H667 C650 0.931 . S
H668 C658 0.929 . S
H669 C659 0.929 . S
H670 C660 0.931 . S
H671 C661 0.929 . S
Tb672 N701 2.617 . S
Tb672 N707 2.572 . S
Tb672 O716 2.465 . S
Tb672 O717 2.387 . S
Tb672 O719 2.428 . S
Tb672 O720 2.308 . S
Tb672 O724 2.349 . S
Tb672 O727 2.393 . S
Tb672 C736 2.802 . S
C673 N674 1.379 . S
C673 C676 1.416 . S
C673 C680 1.424 . S
N674 C673 1.379 . S
N674 C677 1.334 . S
N674 Tb683 2.617 . S
C675 C677 1.390 . S
C675 C678 1.339 . S
C675 H695 0.930 . S
C676 C673 1.416 . S
C676 C678 1.416 . S
C676 C682 1.448 . S
C677 N674 1.334 . S
C677 C675 1.390 . S
C677 H688 0.930 . S
C678 C675 1.339 . S
C678 C676 1.416 . S
C678 H699 0.930 . S
C679 C680 1.413 . S
C679 C681 1.427 . S
C679 C685 1.416 . S
C680 C673 1.424 . S
C680 C679 1.413 . S
C680 N684 1.361 . S
C681 C679 1.427 . S
C681 C682 1.328 . S
C681 H696 0.929 . S
C682 C676 1.448 . S
C682 C681 1.328 . S
C682 H697 0.930 . S
Tb683 N674 2.617 . S
Tb683 N684 2.572 . S
Tb683 O718 2.349 . S
Tb683 O721 2.393 . S
Tb683 O722 2.465 . S
Tb683 O723 2.387 . S
Tb683 O725 2.428 . S
Tb683 O726 2.308 . S
Tb683 C747 2.802 . S
N684 C680 1.361 . S
N684 Tb683 2.572 . S
N684 C686 1.340 . S
C685 C679 1.416 . S
C685 C687 1.332 . S
C685 H693 0.931 . S
C686 N684 1.340 . S
C686 C687 1.407 . S
C686 H692 0.930 . S
C687 C685 1.332 . S
C687 C686 1.407 . S
C687 H689 0.929 . S
H688 C677 0.930 . S
H689 C687 0.929 . S
H690 C705 0.930 . S
H691 C712 0.929 . S
H692 C686 0.930 . S
H693 C685 0.931 . S
H694 C708 0.930 . S
H695 C675 0.930 . S
H696 C681 0.929 . S
H697 C682 0.930 . S
H698 C703 0.930 . S
H699 C678 0.930 . S
H700 C711 0.931 . S
N701 Tb672 2.617 . S
N701 C702 1.379 . S
N701 C705 1.334 . S
C702 N701 1.379 . S
C702 C704 1.416 . S
C702 C710 1.424 . S
C703 H698 0.930 . S
C703 C705 1.390 . S
C703 C706 1.339 . S
C704 C702 1.416 . S
C704 C706 1.416 . S
C704 C737 1.448 . S
C705 H690 0.930 . S
C705 N701 1.334 . S
C705 C703 1.390 . S
C706 C703 1.339 . S
C706 C704 1.416 . S
C706 H713 0.930 . S
N707 Tb672 2.572 . S
N707 C708 1.340 . S
N707 C710 1.361 . S
C708 H694 0.930 . S
C708 N707 1.340 . S
C708 C712 1.407 . S
C709 C710 1.413 . S
C709 C711 1.416 . S
C709 C738 1.427 . S
C710 C702 1.424 . S
C710 N707 1.361 . S
C710 C709 1.413 . S
C711 H700 0.931 . S
C711 C709 1.416 . S
C711 C712 1.332 . S
C712 H691 0.929 . S
C712 C708 1.407 . S
C712 C711 1.332 . S
H713 C706 0.930 . S
H714 C737 0.930 . S
H715 C738 0.929 . S
O716 Tb672 2.465 . S
O716 C736 1.264 . S
O717 Tb672 2.387 . S
O717 C728 1.264 . S
O718 Tb683 2.349 . S
O718 C728 1.243 . S
O719 Tb672 2.428 . S
O719 C736 1.256 . S
O720 Tb672 2.308 . S
O720 C735 1.266 . S
O721 Tb683 2.393 . S
O721 C735 1.248 . S
O722 Tb683 2.465 . S
O722 C747 1.264 . S
O723 Tb683 2.387 . S
O723 C739 1.264 . S
O724 Tb672 2.349 . S
O724 C739 1.243 . S
O725 Tb683 2.428 . S
O725 C747 1.256 . S
O726 Tb683 2.308 . S
O726 C746 1.266 . S
O727 Tb672 2.393 . S
O727 C746 1.248 . S
C728 O717 1.264 . S
C728 O718 1.243 . S
C729 C732 1.399 . S
C729 C734 1.383 1_556 S
C729 C736 1.496 . S
C730 C731 1.399 . S
C730 C734 1.389 . S
C731 C730 1.399 . S
C731 C733 1.380 . S
C731 H748 0.929 . S
C732 C729 1.399 . S
C732 C733 1.392 1_556 S
C732 H749 0.929 . S
C733 C731 1.380 . S
C733 C732 1.392 1_554 S
C733 H750 0.929 . S
C734 C729 1.383 1_554 S
C734 C730 1.389 . S
C734 H751 0.931 1_554 S
C735 O720 1.266 . S
C735 O721 1.248 . S
C736 Tb672 2.802 . S
C736 O716 1.264 . S
C736 O719 1.256 . S
C736 C729 1.496 . S
C737 C704 1.448 . S
C737 H714 0.930 . S
C737 C738 1.328 . S
C738 C709 1.427 . S
C738 H715 0.929 . S
C738 C737 1.328 . S
C739 O723 1.264 . S
C739 O724 1.243 . S
C740 C743 1.399 . S
C740 C744 1.383 . S
C740 C747 1.496 . S
C741 C742 1.399 . S
C741 C744 1.389 . S
C742 C741 1.399 . S
C742 C745 1.380 . S
C742 H752 0.929 . S
C743 C740 1.399 . S
C743 C745 1.392 . S
C743 H753 0.929 . S
C744 C740 1.383 . S
C744 C741 1.389 . S
C744 H754 0.931 . S
C745 C742 1.380 . S
C745 C743 1.392 . S
C745 H755 0.929 . S
C746 O726 1.266 . S
C746 O727 1.248 . S
C747 Tb683 2.802 . S
C747 O722 1.264 . S
C747 O725 1.256 . S
C747 C740 1.496 . S
H748 C731 0.929 . S
H749 C732 0.929 . S
H750 C733 0.929 . S
H751 C734 0.931 1_556 S
H752 C742 0.929 . S
H753 C743 0.929 . S
H754 C744 0.931 . S
H755 C745 0.929 . S
C756 C757 1.386 . S
C756 C758 1.383 . S
C756 H772 0.951 . S
C757 C756 1.386 . S
C757 C761 1.418 . S
C758 C756 1.383 . S
C758 C759 1.402 . S
C758 H773 0.951 . S
C759 C758 1.402 . S
C759 C760 1.375 1_455 S
C759 C762 1.481 . S
C760 C759 1.375 1_655 S
C760 C761 1.368 1_655 S
C760 H774 0.951 . S
C761 C757 1.418 . S
C761 C760 1.368 1_455 S
C761 H775 0.914 1_455 S
C762 C759 1.481 . S
C762 C763 1.297 . S
C762 H776 0.950 1_455 S
C763 C762 1.297 . S
C763 C764 1.479 . S
C763 H777 0.950 . S
C764 C763 1.479 . S
C764 C765 1.375 . S
C764 C770 1.404 1_455 S
C765 C764 1.375 . S
C765 C766 1.369 . S
C765 H778 0.950 . S
C766 C765 1.369 . S
C766 C767 1.392 . S
C766 H779 0.951 . S
C767 C766 1.392 . S
C767 C769 1.326 1_455 S
H768 C770 0.949 . S
C769 C767 1.326 1_655 S
C769 C770 1.393 . S
C769 H771 1.003 . S
C770 C764 1.404 1_655 S
C770 H768 0.949 . S
C770 C769 1.393 . S
H771 C769 1.003 . S
H772 C756 0.951 . S
H773 C758 0.951 . S
H774 C760 0.951 . S
H775 C761 0.914 1_655 S
H776 C762 0.950 1_655 S
H777 C763 0.950 . S
H778 C765 0.950 . S
H779 C766 0.951 . S
C780 C781 1.386 . S
C780 C782 1.383 . S
C780 H796 0.951 . S
C781 C780 1.386 . S
C781 C785 1.383 . S
C782 C780 1.383 . S
C782 C783 1.402 . S
C782 H797 0.951 . S
C783 C782 1.402 . S
C783 C784 1.375 . S
C783 C786 1.481 . S
C784 C783 1.375 . S
C784 C785 1.367 . S
C784 H798 0.951 . S
C785 C781 1.383 . S
C785 C784 1.367 . S
C785 H799 0.950 . S
C786 C783 1.481 . S
C786 C787 1.297 . S
C786 H800 0.950 . S
C787 C786 1.297 . S
C787 C788 1.479 . S
C787 H801 0.950 . S
C788 C787 1.479 . S
C788 C789 1.375 . S
C788 C794 1.404 . S
C789 C788 1.375 . S
C789 C790 1.369 . S
C789 H802 0.950 . S
C790 C789 1.369 . S
C790 C791 1.392 . S
C790 H803 0.951 . S
C791 C790 1.392 . S
C791 C793 1.384 . S
H792 C794 0.949 . S
C793 C791 1.384 . S
C793 C794 1.385 . S
C793 H795 0.950 . S
C794 C788 1.404 . S
C794 H792 0.949 . S
C794 C793 1.385 . S
H795 C793 0.950 . S
H796 C780 0.951 . S
H797 C782 0.951 . S
H798 C784 0.951 . S
H799 C785 0.950 . S
H800 C786 0.950 . S
H801 C787 0.950 . S
H802 C789 0.950 . S
H803 C790 0.951 . S
C804 C805 1.386 . S
C804 C806 1.383 . S
C804 H820 0.951 . S
C805 C804 1.386 . S
C805 C809 1.383 . S
C806 C804 1.383 . S
C806 C807 1.402 . S
C806 H821 0.951 . S
C807 C806 1.402 . S
C807 C808 1.375 . S
C807 C810 1.481 . S
C808 C807 1.375 . S
C808 C809 1.367 . S
C808 H822 0.951 . S
C809 C805 1.383 . S
C809 C808 1.367 . S
C809 H823 0.950 . S
C810 C807 1.481 . S
C810 C811 1.297 . S
C810 H824 0.950 . S
C811 C810 1.297 . S
C811 C812 1.479 . S
C811 H825 0.950 . S
C812 C811 1.479 . S
C812 C813 1.375 . S
C812 C818 1.404 . S
C813 C812 1.375 . S
C813 C814 1.369 . S
C813 H826 0.950 . S
C814 C813 1.369 . S
C814 C815 1.392 . S
C814 H827 0.951 . S
C815 C814 1.392 . S
C815 C817 1.384 . S
H816 C818 0.949 . S
C817 C815 1.384 . S
C817 C818 1.385 . S
C817 H819 0.950 . S
C818 C812 1.404 . S
C818 H816 0.949 . S
C818 C817 1.385 . S
H819 C817 0.950 . S
H820 C804 0.951 . S
H821 C806 0.951 . S
H822 C808 0.951 . S
H823 C809 0.950 . S
H824 C810 0.950 . S
H825 C811 0.950 . S
H826 C813 0.950 . S
H827 C814 0.951 . S
C828 C829 1.386 . S
C828 C830 1.383 . S
C828 H844 0.951 . S
C829 C828 1.386 . S
C829 C833 1.383 . S
C830 C828 1.383 . S
C830 C831 1.402 . S
C830 H845 0.951 . S
C831 C830 1.402 . S
C831 C832 1.375 . S
C831 C834 1.481 . S
C832 C831 1.375 . S
C832 C833 1.367 . S
C832 H846 0.951 . S
C833 C829 1.383 . S
C833 C832 1.367 . S
C833 H847 0.950 . S
C834 C831 1.481 . S
C834 C835 1.297 . S
C834 H848 0.950 . S
C835 C834 1.297 . S
C835 C836 1.479 . S
C835 H849 0.950 . S
C836 C835 1.479 . S
C836 C837 1.375 . S
C836 C842 1.404 . S
C837 C836 1.375 . S
C837 C838 1.369 . S
C837 H850 0.950 . S
C838 C837 1.369 . S
C838 C839 1.392 . S
C838 H851 0.951 . S
C839 C838 1.392 . S
C839 C841 1.384 . S
H840 C842 0.949 . S
C841 C839 1.384 . S
C841 C842 1.385 . S
C841 H843 0.950 . S
C842 C836 1.404 . S
C842 H840 0.949 . S
C842 C841 1.385 . S
H843 C841 0.950 . S
H844 C828 0.951 . S
H845 C830 0.951 . S
H846 C832 0.951 . S
H847 C833 0.950 . S
H848 C834 0.950 . S
H849 C835 0.950 . S
H850 C837 0.950 . S
H851 C838 0.951 . S
C852 C853 1.386 . S
C852 C854 1.383 . S
C852 H868 0.951 . S
C853 C852 1.386 . S
C853 C857 1.383 . S
C854 C852 1.383 . S
C854 C855 1.402 . S
C854 H869 0.951 . S
C855 C854 1.402 . S
C855 C856 1.375 . S
C855 C858 1.481 . S
C856 C855 1.375 . S
C856 C857 1.367 . S
C856 H870 0.951 . S
C857 C853 1.383 . S
C857 C856 1.367 . S
C857 H871 0.950 . S
C858 C855 1.481 . S
C858 C859 1.297 . S
C858 H872 0.950 . S
C859 C858 1.297 . S
C859 C860 1.479 . S
C859 H873 0.950 . S
C860 C859 1.479 . S
C860 C861 1.375 . S
C860 C866 1.404 . S
C861 C860 1.375 . S
C861 C862 1.369 . S
C861 H874 0.950 . S
C862 C861 1.369 . S
C862 C863 1.392 1_556 S
C862 H875 0.951 . S
C863 C862 1.392 1_554 S
C863 C865 1.384 1_554 S
H864 C866 0.949 . S
C865 C863 1.384 1_556 S
C865 C866 1.385 . S
C865 H867 0.950 1_556 S
C866 C860 1.404 . S
C866 H864 0.949 . S
C866 C865 1.385 . S
H867 C865 0.950 1_554 S
H868 C852 0.951 . S
H869 C854 0.951 . S
H870 C856 0.951 . S
H871 C857 0.950 . S
H872 C858 0.950 . S
H873 C859 0.950 . S
H874 C861 0.950 . S
H875 C862 0.951 . S
C876 C877 1.386 . S
C876 C878 1.383 . S
C876 H892 0.951 . S
C877 C876 1.386 . S
C877 C881 1.383 . S
C878 C876 1.383 . S
C878 C879 1.402 . S
C878 H893 0.951 . S
C879 C878 1.402 . S
C879 C880 1.375 . S
C879 C882 1.481 . S
C880 C879 1.375 . S
C880 C881 1.367 . S
C880 H894 0.951 . S
C881 C877 1.383 . S
C881 C880 1.367 . S
C881 H895 0.950 . S
C882 C879 1.481 . S
C882 C883 1.297 . S
C882 H896 0.950 . S
C883 C882 1.297 . S
C883 C884 1.479 . S
C883 H897 0.950 . S
C884 C883 1.479 . S
C884 C885 1.375 . S
C884 C890 1.404 . S
C885 C884 1.375 . S
C885 C886 1.369 1_556 S
C885 H898 0.950 . S
C886 C885 1.369 1_554 S
C886 C887 1.392 . S
C886 H899 0.951 . S
C887 C886 1.392 . S
C887 C889 1.384 . S
H888 C890 0.949 . S
C889 C887 1.384 . S
C889 C890 1.385 1_554 S
C889 H891 0.950 . S
C890 C884 1.404 . S
C890 H888 0.949 . S
C890 C889 1.385 1_556 S
H891 C889 0.950 . S
H892 C876 0.951 . S
H893 C878 0.951 . S
H894 C880 0.951 . S
H895 C881 0.950 . S
H896 C882 0.950 . S
H897 C883 0.950 . S
H898 C885 0.950 . S
H899 C886 0.951 . S
C900 C901 1.386 . S
C900 C902 1.383 . S
C900 H916 0.951 . S
C901 C900 1.386 . S
C901 C905 1.383 . S
C902 C900 1.383 . S
C902 C903 1.402 . S
C902 H917 0.951 . S
C903 C902 1.402 . S
C903 C904 1.375 . S
C903 C906 1.481 . S
C904 C903 1.375 . S
C904 C905 1.367 . S
C904 H918 0.951 . S
C905 C901 1.383 . S
C905 C904 1.367 . S
C905 H919 0.950 . S
C906 C903 1.481 . S
C906 C907 1.297 . S
C906 H920 0.950 . S
C907 C906 1.297 . S
C907 C908 1.479 . S
C907 H921 0.950 . S
C908 C907 1.479 . S
C908 C909 1.375 . S
C908 C914 1.404 . S
C909 C908 1.375 . S
C909 C910 1.369 . S
C909 H922 0.950 . S
C910 C909 1.369 . S
C910 C911 1.392 . S
C910 H923 0.951 1_554 S
C911 C910 1.392 . S
C911 C913 1.384 . S
H912 C914 0.949 . S
C913 C911 1.384 . S
C913 C914 1.385 . S
C913 H915 0.950 . S
C914 C908 1.404 . S
C914 H912 0.949 . S
C914 C913 1.385 . S
H915 C913 0.950 . S
H916 C900 0.951 . S
H917 C902 0.951 . S
H918 C904 0.951 . S
H919 C905 0.950 . S
H920 C906 0.950 . S
H921 C907 0.950 . S
H922 C909 0.950 . S
H923 C910 0.951 1_556 S
C924 C925 1.386 . S
C924 C926 1.383 . S
C924 H940 0.951 . S
C925 C924 1.386 . S
C925 C929 1.383 . S
C926 C924 1.383 . S
C926 C927 1.402 . S
C926 H941 0.951 . S
C927 C926 1.402 . S
C927 C928 1.375 . S
C927 C930 1.481 . S
C928 C927 1.375 . S
C928 C929 1.367 . S
C928 H942 0.951 . S
C929 C925 1.383 . S
C929 C928 1.367 . S
C929 H943 0.950 . S
C930 C927 1.481 . S
C930 C931 1.297 . S
C930 H944 0.950 . S
C931 C930 1.297 . S
C931 C932 1.479 . S
C931 H945 0.950 . S
C932 C931 1.479 . S
C932 C933 1.375 . S
C932 C938 1.404 . S
C933 C932 1.375 . S
C933 C934 1.369 1_554 S
C933 H946 0.950 . S
C934 C933 1.369 1_556 S
C934 C935 1.392 . S
C934 H947 0.951 . S
C935 C934 1.392 . S
C935 C937 1.384 1_556 S
H936 C938 0.949 . S
C937 C935 1.384 1_554 S
C937 C938 1.385 . S
C937 H939 0.950 . S
C938 C932 1.404 . S
C938 H936 0.949 . S
C938 C937 1.385 . S
H939 C937 0.950 . S
H940 C924 0.951 . S
H941 C926 0.951 . S
H942 C928 0.951 . S
H943 C929 0.950 . S
H944 C930 0.950 . S
H945 C931 0.950 . S
H946 C933 0.950 . S
H947 C934 0.951 . S
C948 C949 1.386 . S
C948 C950 1.383 . S
C948 H964 0.951 . S
C949 C948 1.386 . S
C949 C953 1.383 . S
C950 C948 1.383 . S
C950 C951 1.402 . S
C950 H965 0.951 . S
C951 C950 1.402 . S
C951 C952 1.375 . S
C951 C954 1.481 . S
C952 C951 1.375 . S
C952 C953 1.367 . S
C952 H966 0.951 . S
C953 C949 1.383 . S
C953 C952 1.367 . S
C953 H967 0.950 . S
C954 C951 1.481 . S
C954 C955 1.297 . S
C954 H968 0.950 . S
C955 C954 1.297 . S
C955 C956 1.479 . S
C955 H969 0.950 . S
C956 C955 1.479 . S
C956 C957 1.375 . S
C956 C962 1.404 . S
C957 C956 1.375 . S
C957 C958 1.369 1_554 S
C957 H970 0.950 . S
C958 C957 1.369 1_556 S
C958 C959 1.392 1_556 S
C958 H971 0.951 . S
C959 C958 1.392 1_554 S
C959 C961 1.384 . S
H960 C962 0.949 . S
C961 C959 1.384 . S
C961 C962 1.385 . S
C961 H963 0.950 . S
C962 C956 1.404 . S
C962 H960 0.949 . S
C962 C961 1.385 . S
H963 C961 0.950 . S
H964 C948 0.951 . S
H965 C950 0.951 . S
H966 C952 0.951 . S
H967 C953 0.950 . S
H968 C954 0.950 . S
H969 C955 0.950 . S
H970 C957 0.950 . S
H971 C958 0.951 . S
C972 C973 1.386 . S
C972 C974 1.383 . S
C972 H988 0.951 . S
C973 C972 1.386 . S
C973 C977 1.383 . S
C974 C972 1.383 . S
C974 C975 1.402 . S
C974 H989 0.951 . S
C975 C974 1.402 . S
C975 C976 1.375 . S
C975 C978 1.481 . S
C976 C975 1.375 . S
C976 C977 1.367 . S
C976 H990 0.951 . S
C977 C973 1.383 . S
C977 C976 1.367 . S
C977 H991 0.950 . S
C978 C975 1.481 . S
C978 C979 1.297 . S
C978 H992 0.950 . S
C979 C978 1.297 . S
C979 C980 1.479 . S
C979 H993 0.950 . S
C980 C979 1.479 . S
C980 C981 1.375 . S
C980 C986 1.404 . S
C981 C980 1.375 . S
C981 C982 1.369 . S
C981 H994 0.950 . S
C982 C981 1.369 . S
C982 C983 1.392 . S
C982 H995 0.951 . S
C983 C982 1.392 . S
C983 C985 1.384 . S
H984 C986 0.949 . S
C985 C983 1.384 . S
C985 C986 1.385 . S
C985 H987 0.950 . S
C986 C980 1.404 . S
C986 H984 0.949 . S
C986 C985 1.385 . S
H987 C985 0.950 . S
H988 C972 0.951 . S
H989 C974 0.951 . S
H990 C976 0.951 . S
H991 C977 0.950 . S
H992 C978 0.950 . S
H993 C979 0.950 . S
H994 C981 0.950 . S
H995 C982 0.951 . S
C996 C997 1.386 . S
C996 C998 1.383 . S
C996 H1012 0.951 . S
C997 C996 1.386 . S
C997 C1001 1.383 . S
C998 C996 1.383 . S
C998 C999 1.402 . S
C998 H1013 0.951 . S
C999 C998 1.402 . S
C999 C1000 1.375 . S
C999 C1002 1.481 . S
C1000 C999 1.375 . S
C1000 C1001 1.367 . S
C1000 H1014 0.951 . S
C1001 C997 1.383 . S
C1001 C1000 1.367 . S
C1001 H1015 0.950 . S
C1002 C999 1.481 . S
C1002 C1003 1.297 . S
C1002 H1016 0.950 . S
C1003 C1002 1.297 . S
C1003 C1004 1.479 . S
C1003 H1017 0.950 . S
C1004 C1003 1.479 . S
C1004 C1005 1.375 . S
C1004 C1010 1.404 . S
C1005 C1004 1.375 . S
C1005 C1006 1.369 . S
C1005 H1018 0.950 . S
C1006 C1005 1.369 . S
C1006 C1007 1.392 . S
C1006 H1019 0.951 . S
C1007 C1006 1.392 . S
C1007 C1009 1.384 . S
H1008 C1010 0.949 . S
C1009 C1007 1.384 . S
C1009 C1010 1.385 . S
C1009 H1011 0.950 . S
C1010 C1004 1.404 . S
C1010 H1008 0.949 . S
C1010 C1009 1.385 . S
H1011 C1009 0.950 . S
H1012 C996 0.951 . S
H1013 C998 0.951 . S
H1014 C1000 0.951 . S
H1015 C1001 0.950 . S
H1016 C1002 0.950 . S
H1017 C1003 0.950 . S
H1018 C1005 0.950 . S
H1019 C1006 0.951 . S
C1020 C1021 1.386 . S
C1020 C1022 1.383 . S
C1020 H1036 0.951 . S
C1021 C1020 1.386 . S
C1021 C1025 1.383 1_565 S
C1022 C1020 1.383 . S
C1022 C1023 1.402 . S
C1022 H1037 0.951 . S
C1023 C1022 1.402 . S
C1023 C1024 1.375 1_565 S
C1023 C1026 1.481 . S
C1024 C1023 1.375 1_545 S
C1024 C1025 1.367 . S
C1024 H1038 0.951 . S
C1025 C1021 1.383 1_545 S
C1025 C1024 1.367 . S
C1025 H1039 0.950 . S
C1026 C1023 1.481 . S
C1026 C1027 1.297 . S
C1026 H1040 0.950 . S
C1027 C1026 1.297 . S
C1027 C1028 1.479 . S
C1027 H1041 0.950 . S
C1028 C1027 1.479 . S
C1028 C1029 1.375 . S
C1028 C1034 1.404 . S
C1029 C1028 1.375 . S
C1029 C1030 1.369 . S
C1029 H1042 0.950 . S
C1030 C1029 1.369 . S
C1030 C1031 1.392 . S
C1030 H1043 0.951 . S
C1031 C1030 1.392 . S
C1031 C1033 1.384 . S
H1032 C1034 0.949 . S
C1033 C1031 1.384 . S
C1033 C1034 1.385 . S
C1033 H1035 0.950 . S
C1034 C1028 1.404 . S
C1034 H1032 0.949 . S
C1034 C1033 1.385 . S
H1035 C1033 0.950 . S
H1036 C1020 0.951 . S
H1037 C1022 0.951 . S
H1038 C1024 0.951 . S
H1039 C1025 0.950 . S
H1040 C1026 0.950 . S
H1041 C1027 0.950 . S
H1042 C1029 0.950 . S
H1043 C1030 0.951 . S
C1044 C1045 1.386 . S
C1044 C1046 1.383 . S
C1044 H1060 0.951 1_556 S
C1045 C1044 1.386 . S
C1045 C1049 1.383 . S
C1046 C1044 1.383 . S
C1046 C1047 1.402 . S
C1046 H1061 0.951 . S
C1047 C1046 1.402 . S
C1047 C1048 1.375 . S
C1047 C1050 1.481 . S
C1048 C1047 1.375 . S
C1048 C1049 1.367 . S
C1048 H1062 0.951 . S
C1049 C1045 1.383 . S
C1049 C1048 1.367 . S
C1049 H1063 0.950 . S
C1050 C1047 1.481 . S
C1050 C1051 1.297 . S
C1050 H1064 0.950 . S
C1051 C1050 1.297 . S
C1051 C1052 1.479 . S
C1051 H1065 0.950 . S
C1052 C1051 1.479 . S
C1052 C1053 1.375 . S
C1052 C1058 1.404 . S
C1053 C1052 1.375 . S
C1053 C1054 1.369 . S
C1053 H1066 0.950 . S
C1054 C1053 1.369 . S
C1054 C1055 1.392 . S
C1054 H1067 0.951 . S
C1055 C1054 1.392 . S
C1055 C1057 1.384 . S
H1056 C1058 0.949 . S
C1057 C1055 1.384 . S
C1057 C1058 1.385 . S
C1057 H1059 0.950 . S
C1058 C1052 1.404 . S
C1058 H1056 0.949 . S
C1058 C1057 1.385 . S
H1059 C1057 0.950 . S
H1060 C1044 0.951 1_554 S
H1061 C1046 0.951 . S
H1062 C1048 0.951 . S
H1063 C1049 0.950 . S
H1064 C1050 0.950 . S
H1065 C1051 0.950 . S
H1066 C1053 0.950 . S
H1067 C1054 0.951 . S
C1068 C1069 1.386 . S
C1068 C1070 1.383 . S
C1068 H1084 0.951 . S
C1069 C1068 1.386 . S
C1069 C1073 1.383 . S
C1070 C1068 1.383 . S
C1070 C1071 1.402 . S
C1070 H1085 0.951 . S
C1071 C1070 1.402 . S
C1071 C1072 1.375 . S
C1071 C1074 1.481 . S
C1072 C1071 1.375 . S
C1072 C1073 1.367 . S
C1072 H1086 0.951 . S
C1073 C1069 1.383 . S
C1073 C1072 1.367 . S
C1073 H1087 0.950 . S
C1074 C1071 1.481 . S
C1074 C1075 1.297 . S
C1074 H1088 0.950 . S
C1075 C1074 1.297 . S
C1075 C1076 1.479 . S
C1075 H1089 0.950 . S
C1076 C1075 1.479 . S
C1076 C1077 1.375 . S
C1076 C1082 1.404 1_556 S
C1077 C1076 1.375 . S
C1077 C1078 1.369 1_556 S
C1077 H1090 0.950 . S
C1078 C1077 1.369 1_554 S
C1078 C1079 1.392 . S
C1078 H1091 0.951 1_655 S
C1079 C1078 1.392 . S
C1079 C1081 1.384 . S
H1080 C1082 0.949 . S
C1081 C1079 1.384 . S
C1081 C1082 1.385 . S
C1081 H1083 0.950 . S
C1082 C1076 1.404 1_554 S
C1082 H1080 0.949 . S
C1082 C1081 1.385 . S
H1083 C1081 0.950 . S
H1084 C1068 0.951 . S
H1085 C1070 0.951 . S
H1086 C1072 0.951 . S
H1087 C1073 0.950 . S
H1088 C1074 0.950 . S
H1089 C1075 0.950 . S
H1090 C1077 0.950 . S
H1091 C1078 0.951 1_455 S
C1092 C1093 1.386 . S
C1092 C1094 1.383 . S
C1092 H1108 0.951 . S
C1093 C1092 1.386 . S
C1093 C1097 1.383 . S
C1094 C1092 1.383 . S
C1094 C1095 1.402 . S
C1094 H1109 0.951 . S
C1095 C1094 1.402 . S
C1095 C1096 1.375 . S
C1095 C1098 1.481 . S
C1096 C1095 1.375 . S
C1096 C1097 1.367 . S
C1096 H1110 0.951 . S
C1097 C1093 1.383 . S
C1097 C1096 1.367 . S
C1097 H1111 0.950 . S
C1098 C1095 1.481 . S
C1098 C1099 1.297 . S
C1098 H1112 0.950 . S
C1099 C1098 1.297 . S
C1099 C1100 1.479 . S
C1099 H1113 0.950 . S
C1100 C1099 1.479 . S
C1100 C1101 1.375 . S
C1100 C1106 1.404 . S
C1101 C1100 1.375 . S
C1101 C1102 1.369 . S
C1101 H1114 0.950 . S
C1102 C1101 1.369 . S
C1102 C1103 1.392 . S
C1102 H1115 0.951 . S
C1103 C1102 1.392 . S
C1103 C1105 1.384 . S
H1104 C1106 0.949 . S
C1105 C1103 1.384 . S
C1105 C1106 1.385 . S
C1105 H1107 0.950 . S
C1106 C1100 1.404 . S
C1106 H1104 0.949 . S
C1106 C1105 1.385 . S
H1107 C1105 0.950 . S
H1108 C1092 0.951 . S
H1109 C1094 0.951 . S
H1110 C1096 0.951 . S
H1111 C1097 0.950 . S
H1112 C1098 0.950 . S
H1113 C1099 0.950 . S
H1114 C1101 0.950 . S
H1115 C1102 0.951 . S
C1116 C1117 1.386 . S
C1116 C1118 1.383 . S
C1116 H1132 0.951 . S
C1117 C1116 1.386 . S
C1117 C1121 1.383 . S
C1118 C1116 1.383 . S
C1118 C1119 1.402 . S
C1118 H1133 0.951 . S
C1119 C1118 1.402 . S
C1119 C1120 1.375 . S
C1119 C1122 1.481 . S
C1120 C1119 1.375 . S
C1120 C1121 1.367 . S
C1120 H1134 0.951 . S
C1121 C1117 1.383 . S
C1121 C1120 1.367 . S
C1121 H1135 0.950 . S
C1122 C1119 1.481 . S
C1122 C1123 1.297 . S
C1122 H1136 0.950 . S
C1123 C1122 1.297 . S
C1123 C1124 1.479 . S
C1123 H1137 0.950 . S
C1124 C1123 1.479 . S
C1124 C1125 1.375 . S
C1124 C1130 1.404 . S
C1125 C1124 1.375 . S
C1125 C1126 1.369 . S
C1125 H1138 0.950 . S
C1126 C1125 1.369 . S
C1126 C1127 1.392 . S
C1126 H1139 0.951 . S
C1127 C1126 1.392 . S
C1127 C1129 1.384 1_556 S
H1128 C1130 0.949 1_554 S
C1129 C1127 1.384 1_554 S
C1129 C1130 1.385 1_554 S
C1129 H1131 0.950 . S
C1130 C1124 1.404 . S
C1130 H1128 0.949 1_556 S
C1130 C1129 1.385 1_556 S
H1131 C1129 0.950 . S
H1132 C1116 0.951 . S
H1133 C1118 0.951 . S
H1134 C1120 0.951 . S
H1135 C1121 0.950 . S
H1136 C1122 0.950 . S
H1137 C1123 0.950 . S
H1138 C1125 0.950 . S
H1139 C1126 0.951 . S
C1140 C1141 1.386 . S
C1140 C1142 1.383 . S
C1140 H1156 0.951 . S
C1141 C1140 1.386 . S
C1141 C1145 1.383 . S
C1142 C1140 1.383 . S
C1142 C1143 1.402 . S
C1142 H1157 0.951 . S
C1143 C1142 1.402 . S
C1143 C1144 1.375 . S
C1143 C1146 1.481 . S
C1144 C1143 1.375 . S
C1144 C1145 1.367 . S
C1144 H1158 0.951 . S
C1145 C1141 1.383 . S
C1145 C1144 1.367 . S
C1145 H1159 0.950 . S
C1146 C1143 1.481 . S
C1146 C1147 1.297 . S
C1146 H1160 0.950 . S
C1147 C1146 1.297 . S
C1147 C1148 1.479 . S
C1147 H1161 0.950 . S
C1148 C1147 1.479 . S
C1148 C1149 1.375 . S
C1148 C1154 1.404 . S
C1149 C1148 1.375 . S
C1149 C1150 1.369 . S
C1149 H1162 0.950 . S
C1150 C1149 1.369 . S
C1150 C1151 1.392 . S
C1150 H1163 0.951 . S
C1151 C1150 1.392 . S
C1151 C1153 1.384 . S
H1152 C1154 0.949 . S
C1153 C1151 1.384 . S
C1153 C1154 1.385 . S
C1153 H1155 0.950 . S
C1154 C1148 1.404 . S
C1154 H1152 0.949 . S
C1154 C1153 1.385 . S
H1155 C1153 0.950 . S
H1156 C1140 0.951 . S
H1157 C1142 0.951 . S
H1158 C1144 0.951 . S
H1159 C1145 0.950 . S
H1160 C1146 0.950 . S
H1161 C1147 0.950 . S
H1162 C1149 0.950 . S
H1163 C1150 0.951 . S
C1164 C1165 1.386 . S
C1164 C1166 1.383 . S
C1164 H1180 0.951 . S
C1165 C1164 1.386 . S
C1165 C1169 1.383 . S
C1166 C1164 1.383 . S
C1166 C1167 1.402 . S
C1166 H1181 0.951 . S
C1167 C1166 1.402 . S
C1167 C1168 1.375 . S
C1167 C1170 1.481 . S
C1168 C1167 1.375 . S
C1168 C1169 1.367 . S
C1168 H1182 0.951 . S
C1169 C1165 1.383 . S
C1169 C1168 1.367 . S
C1169 H1183 0.950 . S
C1170 C1167 1.481 . S
C1170 C1171 1.297 . S
C1170 H1184 0.950 . S
C1171 C1170 1.297 . S
C1171 C1172 1.479 . S
C1171 H1185 0.950 . S
C1172 C1171 1.479 . S
C1172 C1173 1.375 . S
C1172 C1178 1.404 . S
C1173 C1172 1.375 . S
C1173 C1174 1.369 . S
C1173 H1186 0.950 . S
C1174 C1173 1.369 . S
C1174 C1175 1.392 . S
C1174 H1187 0.951 . S
C1175 C1174 1.392 . S
C1175 C1177 1.384 . S
H1176 C1178 0.949 . S
C1177 C1175 1.384 . S
C1177 C1178 1.385 . S
C1177 H1179 0.950 . S
C1178 C1172 1.404 . S
C1178 H1176 0.949 . S
C1178 C1177 1.385 . S
H1179 C1177 0.950 . S
H1180 C1164 0.951 . S
H1181 C1166 0.951 . S
H1182 C1168 0.951 . S
H1183 C1169 0.950 . S
H1184 C1170 0.950 . S
H1185 C1171 0.950 . S
H1186 C1173 0.950 . S
H1187 C1174 0.951 . S
C1188 C1189 1.386 . S
C1188 C1190 1.383 1_545 S
C1188 H1204 0.951 . S
C1189 C1188 1.386 . S
C1189 C1193 1.383 . S
C1190 C1188 1.383 1_565 S
C1190 C1191 1.402 1_565 S
C1190 H1205 0.951 . S
C1191 C1190 1.402 1_545 S
C1191 C1192 1.375 . S
C1191 C1194 1.481 1_545 S
C1192 C1191 1.375 . S
C1192 C1193 1.367 . S
C1192 H1206 0.951 1_554 S
C1193 C1189 1.383 . S
C1193 C1192 1.367 . S
C1193 H1207 0.950 1_554 S
C1194 C1191 1.481 1_565 S
C1194 C1195 1.297 . S
C1194 H1208 0.950 1_565 S
C1195 C1194 1.297 . S
C1195 C1196 1.479 . S
C1195 H1209 0.950 . S
C1196 C1195 1.479 . S
C1196 C1197 1.375 . S
C1196 C1202 1.404 . S
C1197 C1196 1.375 . S
C1197 C1198 1.369 . S
C1197 H1210 0.950 . S
C1198 C1197 1.369 . S
C1198 C1199 1.392 . S
C1198 H1211 0.951 . S
C1199 C1198 1.392 . S
C1199 C1201 1.384 . S
H1200 C1202 0.949 1_556 S
C1201 C1199 1.384 . S
C1201 C1202 1.385 . S
C1201 H1203 0.950 . S
C1202 C1196 1.404 . S
C1202 H1200 0.949 1_554 S
C1202 C1201 1.385 . S
H1203 C1201 0.950 . S
H1204 C1188 0.951 . S
H1205 C1190 0.951 . S
H1206 C1192 0.951 1_556 S
H1207 C1193 0.950 1_556 S
H1208 C1194 0.950 1_545 S
H1209 C1195 0.950 . S
H1210 C1197 0.950 . S
H1211 C1198 0.951 . S
C1212 C1213 1.386 . S
C1212 C1214 1.383 . S
C1212 H1228 0.951 . S
C1213 C1212 1.386 . S
C1213 C1217 1.383 . S
C1214 C1212 1.383 . S
C1214 C1215 1.402 . S
C1214 H1229 0.951 . S
C1215 C1214 1.402 . S
C1215 C1216 1.375 . S
C1215 C1218 1.481 . S
C1216 C1215 1.375 . S
C1216 C1217 1.367 . S
C1216 H1230 0.951 . S
C1217 C1213 1.383 . S
C1217 C1216 1.367 . S
C1217 H1231 0.950 . S
C1218 C1215 1.481 . S
C1218 C1219 1.297 . S
C1218 H1232 0.950 . S
C1219 C1218 1.297 . S
C1219 C1220 1.479 . S
C1219 H1233 0.950 . S
C1220 C1219 1.479 . S
C1220 C1221 1.375 . S
C1220 C1226 1.404 . S
C1221 C1220 1.375 . S
C1221 C1222 1.369 . S
C1221 H1234 0.950 . S
C1222 C1221 1.369 . S
C1222 C1223 1.392 . S
C1222 H1235 0.951 . S
C1223 C1222 1.392 . S
C1223 C1225 1.384 . S
H1224 C1226 0.949 . S
C1225 C1223 1.384 . S
C1225 C1226 1.385 . S
C1225 H1227 0.950 . S
C1226 C1220 1.404 . S
C1226 H1224 0.949 . S
C1226 C1225 1.385 . S
H1227 C1225 0.950 . S
H1228 C1212 0.951 . S
H1229 C1214 0.951 . S
H1230 C1216 0.951 . S
H1231 C1217 0.950 . S
H1232 C1218 0.950 . S
H1233 C1219 0.950 . S
H1234 C1221 0.950 . S
H1235 C1222 0.951 . S
C1236 C1237 1.386 . S
C1236 C1238 1.383 . S
C1236 H1252 0.951 . S
C1237 C1236 1.386 . S
C1237 C1241 1.383 . S
C1238 C1236 1.383 . S
C1238 C1239 1.402 . S
C1238 H1253 0.951 . S
C1239 C1238 1.402 . S
C1239 C1240 1.375 . S
C1239 C1242 1.481 . S
C1240 C1239 1.375 . S
C1240 C1241 1.367 . S
C1240 H1254 0.951 . S
C1241 C1237 1.383 . S
C1241 C1240 1.367 . S
C1241 H1255 0.950 . S
C1242 C1239 1.481 . S
C1242 C1243 1.297 . S
C1242 H1256 0.950 . S
C1243 C1242 1.297 . S
C1243 C1244 1.479 . S
C1243 H1257 0.950 . S
C1244 C1243 1.479 . S
C1244 C1245 1.375 . S
C1244 C1250 1.404 . S
C1245 C1244 1.375 . S
C1245 C1246 1.369 . S
C1245 H1258 0.950 . S
C1246 C1245 1.369 . S
C1246 C1247 1.392 . S
C1246 H1259 0.951 . S
C1247 C1246 1.392 . S
C1247 C1249 1.384 . S
H1248 C1250 0.949 . S
C1249 C1247 1.384 . S
C1249 C1250 1.385 . S
C1249 H1251 0.950 . S
C1250 C1244 1.404 . S
C1250 H1248 0.949 . S
C1250 C1249 1.385 . S
H1251 C1249 0.950 . S
H1252 C1236 0.951 . S
H1253 C1238 0.951 . S
H1254 C1240 0.951 . S
H1255 C1241 0.950 . S
H1256 C1242 0.950 . S
H1257 C1243 0.950 . S
H1258 C1245 0.950 . S
H1259 C1246 0.951 . S
C1260 C1261 1.386 . S
C1260 C1262 1.383 . S
C1260 H1276 0.951 . S
C1261 C1260 1.386 . S
C1261 C1265 1.383 . S
C1262 C1260 1.383 . S
C1262 C1263 1.402 . S
C1262 H1277 0.951 . S
C1263 C1262 1.402 . S
C1263 C1264 1.375 . S
C1263 C1266 1.481 . S
C1264 C1263 1.375 . S
C1264 C1265 1.367 . S
C1264 H1278 0.951 . S
C1265 C1261 1.383 . S
C1265 C1264 1.367 . S
C1265 H1279 0.950 . S
C1266 C1263 1.481 . S
C1266 C1267 1.297 . S
C1266 H1280 0.950 . S
C1267 C1266 1.297 . S
C1267 C1268 1.479 . S
C1267 H1281 0.950 . S
C1268 C1267 1.479 . S
C1268 C1269 1.375 . S
C1268 C1274 1.404 . S
C1269 C1268 1.375 . S
C1269 C1270 1.369 . S
C1269 H1282 0.950 . S
C1270 C1269 1.369 . S
C1270 C1271 1.392 . S
C1270 H1283 0.951 . S
C1271 C1270 1.392 . S
C1271 C1273 1.384 . S
H1272 C1274 0.949 . S
C1273 C1271 1.384 . S
C1273 C1274 1.385 . S
C1273 H1275 0.950 . S
C1274 C1268 1.404 . S
C1274 H1272 0.949 . S
C1274 C1273 1.385 . S
H1275 C1273 0.950 . S
H1276 C1260 0.951 . S
H1277 C1262 0.951 . S
H1278 C1264 0.951 . S
H1279 C1265 0.950 . S
H1280 C1266 0.950 . S
H1281 C1267 0.950 . S
H1282 C1269 0.950 . S
H1283 C1270 0.951 . S
C1284 C1285 1.386 . S
C1284 C1286 1.383 . S
C1284 H1300 0.951 . S
C1285 C1284 1.386 . S
C1285 C1289 1.383 . S
C1286 C1284 1.383 . S
C1286 C1287 1.402 . S
C1286 H1301 0.951 . S
C1287 C1286 1.402 . S
C1287 C1288 1.375 . S
C1287 C1290 1.481 . S
C1288 C1287 1.375 . S
C1288 C1289 1.367 . S
C1288 H1302 0.951 . S
C1289 C1285 1.383 . S
C1289 C1288 1.367 . S
C1289 H1303 0.950 . S
C1290 C1287 1.481 . S
C1290 C1291 1.297 . S
C1290 H1304 0.950 1_545 S
C1291 C1290 1.297 . S
C1291 C1292 1.479 1_545 S
C1291 H1305 0.950 . S
C1292 C1291 1.479 1_565 S
C1292 C1293 1.375 . S
C1292 C1298 1.404 . S
C1293 C1292 1.375 . S
C1293 C1294 1.369 . S
C1293 H1306 0.950 . S
C1294 C1293 1.369 . S
C1294 C1295 1.392 . S
C1294 H1307 0.951 . S
C1295 C1294 1.392 . S
C1295 C1297 1.384 . S
H1296 C1298 0.949 . S
C1297 C1295 1.384 . S
C1297 C1298 1.385 . S
C1297 H1299 0.950 . S
C1298 C1292 1.404 . S
C1298 H1296 0.949 . S
C1298 C1297 1.385 . S
H1299 C1297 0.950 . S
H1300 C1284 0.951 . S
H1301 C1286 0.951 . S
H1302 C1288 0.951 . S
H1303 C1289 0.950 . S
H1304 C1290 0.950 1_565 S
H1305 C1291 0.950 . S
H1306 C1293 0.950 . S
H1307 C1294 0.951 . S
C1308 C1309 1.386 . S
C1308 C1310 1.383 . S
C1308 H1324 0.951 . S
C1309 C1308 1.386 . S
C1309 C1313 1.383 . S
C1310 C1308 1.383 . S
C1310 C1311 1.402 . S
C1310 H1325 0.951 . S
C1311 C1310 1.402 . S
C1311 C1312 1.375 . S
C1311 C1314 1.481 . S
C1312 C1311 1.375 . S
C1312 C1313 1.367 . S
C1312 H1326 0.951 . S
C1313 C1309 1.383 . S
C1313 C1312 1.367 . S
C1313 H1327 0.950 . S
C1314 C1311 1.481 . S
C1314 C1315 1.297 . S
C1314 H1328 0.950 . S
C1315 C1314 1.297 . S
C1315 C1316 1.479 1_655 S
C1315 H1329 0.950 . S
C1316 C1315 1.479 1_455 S
C1316 C1317 1.375 . S
C1316 C1322 1.404 . S
C1317 C1316 1.375 . S
C1317 C1318 1.369 . S
C1317 H1330 0.950 . S
C1318 C1317 1.369 . S
C1318 C1319 1.392 . S
C1318 H1331 0.951 . S
C1319 C1318 1.392 . S
C1319 C1321 1.384 . S
H1320 C1322 0.949 . S
C1321 C1319 1.384 . S
C1321 C1322 1.385 . S
C1321 H1323 0.950 . S
C1322 C1316 1.404 . S
C1322 H1320 0.949 . S
C1322 C1321 1.385 . S
H1323 C1321 0.950 . S
H1324 C1308 0.951 . S
H1325 C1310 0.951 . S
H1326 C1312 0.951 . S
H1327 C1313 0.950 . S
H1328 C1314 0.950 . S
H1329 C1315 0.950 . S
H1330 C1317 0.950 . S
H1331 C1318 0.951 . S
C1332 C1333 1.386 . S
C1332 C1334 1.383 . S
C1332 H1348 0.951 . S
C1333 C1332 1.386 . S
C1333 C1337 1.383 . S
C1334 C1332 1.383 . S
C1334 C1335 1.402 . S
C1334 H1349 0.951 . S
C1335 C1334 1.402 . S
C1335 C1336 1.375 . S
C1335 C1338 1.481 . S
C1336 C1335 1.375 . S
C1336 C1337 1.367 . S
C1336 H1350 0.951 . S
C1337 C1333 1.383 . S
C1337 C1336 1.367 . S
C1337 H1351 0.950 . S
C1338 C1335 1.481 . S
C1338 C1339 1.297 . S
C1338 H1352 0.950 . S
C1339 C1338 1.297 . S
C1339 C1340 1.479 . S
C1339 H1353 0.950 . S
C1340 C1339 1.479 . S
C1340 C1341 1.375 . S
C1340 C1346 1.404 . S
C1341 C1340 1.375 . S
C1341 C1342 1.369 . S
C1341 H1354 0.950 . S
C1342 C1341 1.369 . S
C1342 C1343 1.392 . S
C1342 H1355 0.951 . S
C1343 C1342 1.392 . S
C1343 C1345 1.384 . S
H1344 C1346 0.949 . S
C1345 C1343 1.384 . S
C1345 C1346 1.385 . S
C1345 H1347 0.950 . S
C1346 C1340 1.404 . S
C1346 H1344 0.949 . S
C1346 C1345 1.385 . S
H1347 C1345 0.950 . S
H1348 C1332 0.951 . S
H1349 C1334 0.951 . S
H1350 C1336 0.951 . S
H1351 C1337 0.950 . S
H1352 C1338 0.950 . S
H1353 C1339 0.950 . S
H1354 C1341 0.950 . S
H1355 C1342 0.951 . S
C1356 C1357 1.386 . S
C1356 C1358 1.383 . S
C1356 H1372 0.951 . S
C1357 C1356 1.386 . S
C1357 C1361 1.383 . S
C1358 C1356 1.383 . S
C1358 C1359 1.402 . S
C1358 H1373 0.951 . S
C1359 C1358 1.402 . S
C1359 C1360 1.375 . S
C1359 C1362 1.481 1_565 S
C1360 C1359 1.375 . S
C1360 C1361 1.367 . S
C1360 H1374 0.951 . S
C1361 C1357 1.383 . S
C1361 C1360 1.367 . S
C1361 H1375 0.950 . S
C1362 C1359 1.481 1_545 S
C1362 C1363 1.297 . S
C1362 H1376 0.950 . S
C1363 C1362 1.297 . S
C1363 C1364 1.479 . S
C1363 H1377 0.950 . S
C1364 C1363 1.479 . S
C1364 C1365 1.375 . S
C1364 C1370 1.404 . S
C1365 C1364 1.375 . S
C1365 C1366 1.369 . S
C1365 H1378 0.950 . S
C1366 C1365 1.369 . S
C1366 C1367 1.392 . S
C1366 H1379 0.951 . S
C1367 C1366 1.392 . S
C1367 C1369 1.384 . S
H1368 C1370 0.949 . S
C1369 C1367 1.384 . S
C1369 C1370 1.385 . S
C1369 H1371 0.950 . S
C1370 C1364 1.404 . S
C1370 H1368 0.949 . S
C1370 C1369 1.385 . S
H1371 C1369 0.950 . S
H1372 C1356 0.951 . S
H1373 C1358 0.951 . S
H1374 C1360 0.951 . S
H1375 C1361 0.950 . S
H1376 C1362 0.950 . S
H1377 C1363 0.950 . S
H1378 C1365 0.950 . S
H1379 C1366 0.951 . S
C1380 C1381 1.386 . S
C1380 C1382 1.383 . S
C1380 H1396 0.951 . S
C1381 C1380 1.386 . S
C1381 C1385 1.383 . S
C1382 C1380 1.383 . S
C1382 C1383 1.402 . S
C1382 H1397 0.951 . S
C1383 C1382 1.402 . S
C1383 C1384 1.375 . S
C1383 C1386 1.481 . S
C1384 C1383 1.375 . S
C1384 C1385 1.367 . S
C1384 H1398 0.951 . S
C1385 C1381 1.383 . S
C1385 C1384 1.367 . S
C1385 H1399 0.950 . S
C1386 C1383 1.481 . S
C1386 C1387 1.288 1_655 S
C1386 H1400 0.950 . S
C1387 C1386 1.288 1_455 S
C1387 C1388 1.517 . S
C1387 H1401 0.888 1_455 S
C1388 C1387 1.517 . S
C1388 C1389 1.375 . S
C1388 C1394 1.404 . S
C1389 C1388 1.375 . S
C1389 C1390 1.369 . S
C1389 H1402 0.950 . S
C1390 C1389 1.369 . S
C1390 C1391 1.392 . S
C1390 H1403 0.951 . S
C1391 C1390 1.392 . S
C1391 C1393 1.384 . S
H1392 C1394 0.949 . S
C1393 C1391 1.384 . S
C1393 C1394 1.385 . S
C1393 H1395 0.950 . S
C1394 C1388 1.404 . S
C1394 H1392 0.949 . S
C1394 C1393 1.385 . S
H1395 C1393 0.950 . S
H1396 C1380 0.951 . S
H1397 C1382 0.951 . S
H1398 C1384 0.951 . S
H1399 C1385 0.950 . S
H1400 C1386 0.950 . S
H1401 C1387 0.888 1_655 S
H1402 C1389 0.950 . S
H1403 C1390 0.951 . S
C757 C63 3.408 1_556 S
C767 C74 3.410 . S
C781 C158 3.423 . S
C791 C147 3.399 . S
C805 C231 3.454 . S
C815 C242 3.429 . S
C829 C326 3.412 . S
C839 C315 3.405 1_556 S
C853 C399 3.416 . S
C863 C410 3.422 . S
C877 C494 3.450 . S
C887 C483 3.441 . S
C901 C573 2.226 . S
C911 C562 2.219 . S
C925 C646 2.220 . S
C935 C657 2.292 1_556 S
C949 C741 1.816 . S
C959 C730 1.782 . S
C973 C476 1.674 . S
C983 C69 1.427 . S
C997 C140 2.115 . S
C1007 C308 2.123 . S
C1021 C237 1.135 . S
C1031 C405 1.004 . S
C1045 C224 2.225 1_556 S
C1055 C571 2.205 . S
C1069 C662 1.470 . S
C1079 C56 1.446 . S
C1093 C739 1.258 . S
C1103 C153 1.264 . S
C1117 C735 0.964 . S
C1127 C58 0.924 1_556 S
C1141 C151 1.816 1_556 S
C1151 C567 1.756 . S
C1165 C644 1.735 . S
C1175 C226 1.685 . S
C1189 C235 1.672 . S
C1199 C310 1.464 . S
C1213 C403 2.139 . S
C1223 C67 2.104 . S
C1237 C142 1.123 . S
C1247 C478 0.999 . S
C1261 C746 0.947 . S
C1271 C321 0.835 . S
C1285 C578 1.800 . S
C1295 C392 1.802 . S
C1309 C655 1.723 . S
C1319 C489 1.595 . S
C1333 C560 2.221 . S
C1343 C487 2.221 . S
C1357 C319 1.480 . S
C1367 C651 1.484 . S
C1381 C728 1.265 . S
C1391 C394 1.265 . S
