# Generated by pormake.
# Topology anh, (6,3)-cn, num edge types: 1
# Building blocks:
#     Node 0, Type 0, BuildingBlock: BETGAK_clean_sbu_0, # of connection points: 6
#     Node 1, Type 0, BuildingBlock: BETGAK_clean_sbu_0, # of connection points: 6
#     Node 2, Type 0, BuildingBlock: BETGAK_clean_sbu_0, # of connection points: 6
#     Node 3, Type 1, BuildingBlock: VETTIZ_charged_linker_0, # of connection points: 3
#     Node 4, Type 1, BuildingBlock: VETTIZ_charged_linker_0, # of connection points: 3
#     Node 5, Type 1, BuildingBlock: VETTIZ_charged_linker_0, # of connection points: 3
#     Node 6, Type 1, BuildingBlock: VETTIZ_charged_linker_0, # of connection points: 3
#     Node 7, Type 1, BuildingBlock: VETTIZ_charged_linker_0, # of connection points: 3
#     Node 8, Type 1, BuildingBlock: VETTIZ_charged_linker_0, # of connection points: 3
#     Edge 9, Type (0, 1), BuildingBlock: TEMPAE_clean_linker_10, # of connection points: 2
#     Edge 10, Type (0, 1), BuildingBlock: TEMPAE_clean_linker_10, # of connection points: 2
#     Edge 11, Type (0, 1), BuildingBlock: TEMPAE_clean_linker_10, # of connection points: 2
#     Edge 12, Type (0, 1), BuildingBlock: TEMPAE_clean_linker_10, # of connection points: 2
#     Edge 13, Type (0, 1), BuildingBlock: TEMPAE_clean_linker_10, # of connection points: 2
#     Edge 14, Type (0, 1), BuildingBlock: TEMPAE_clean_linker_10, # of connection points: 2
#     Edge 15, Type (0, 1), BuildingBlock: TEMPAE_clean_linker_10, # of connection points: 2
#     Edge 16, Type (0, 1), BuildingBlock: TEMPAE_clean_linker_10, # of connection points: 2
#     Edge 17, Type (0, 1), BuildingBlock: TEMPAE_clean_linker_10, # of connection points: 2
#     Edge 18, Type (0, 1), BuildingBlock: TEMPAE_clean_linker_10, # of connection points: 2
#     Edge 19, Type (0, 1), BuildingBlock: TEMPAE_clean_linker_10, # of connection points: 2
#     Edge 20, Type (0, 1), BuildingBlock: TEMPAE_clean_linker_10, # of connection points: 2
#     Edge 21, Type (0, 1), BuildingBlock: TEMPAE_clean_linker_10, # of connection points: 2
#     Edge 22, Type (0, 1), BuildingBlock: TEMPAE_clean_linker_10, # of connection points: 2
#     Edge 23, Type (0, 1), BuildingBlock: TEMPAE_clean_linker_10, # of connection points: 2
#     Edge 24, Type (0, 1), BuildingBlock: TEMPAE_clean_linker_10, # of connection points: 2
#     Edge 25, Type (0, 1), BuildingBlock: TEMPAE_clean_linker_10, # of connection points: 2
#     Edge 26, Type (0, 1), BuildingBlock: TEMPAE_clean_linker_10, # of connection points: 2
# Relax obj value: 0.187
# Max RMSD: 0.208
# Mean RMSD: 0.158
data_MOF--net-anh--node1-BETGAK_clean_sbu_0--node2-VETTIZ_charged_linker_0--edge1-TEMPAE_clean_linker_10
_symmetry_space_group_name_H-M    P1
_symmetry_Int_Tables_number       1
_symmetry_cell_setting            triclinic
loop_
_symmetry_equiv_pos_as_xyz
'x, y, z'
_cell_length_a     36.053974
_cell_length_b     43.449944
_cell_length_c     67.548119
_cell_angle_alpha  92.440677
_cell_angle_beta   88.791465
_cell_angle_gamma 128.79588
loop_
_atom_site_label
_atom_site_type_symbol
_atom_site_fract_x
_atom_site_fract_y
_atom_site_fract_z
_atom_type_partial_charge
La0 La 0.14953 0.53386 0.13989 0.0
La1 La 0.08655 0.55089 0.15903 0.0
C2 C 0.2102 0.5372 0.11883 0.0
C3 C 0.26082 0.55836 0.12275 0.0
C4 C 0.27801 0.56885 0.14232 0.0
C5 C 0.32511 0.58568 0.14641 0.0
C6 C 0.35604 0.59282 0.13094 0.0
C7 C 0.33947 0.58502 0.11122 0.0
C8 C 0.29204 0.56763 0.10717 0.0
C9 C 0.14086 0.52721 0.17858 0.0
C10 C 0.19461 0.62328 0.15235 0.0
C11 C 1.03547 0.55652 0.18195 0.0
C12 C 0.98364 0.52599 0.18355 0.0
C13 C 0.96114 0.49238 0.17085 0.0
C14 C 0.91288 0.46137 0.17244 0.0
C15 C 0.88541 0.46343 0.18654 0.0
C16 C 0.90757 0.49726 0.19927 0.0
C17 C 0.95675 0.52827 0.19794 0.0
C18 C 1.07334 0.53345 0.12043 0.0
C19 C 1.04488 0.46358 0.14821 0.0
O20 O 0.18111 0.50847 0.13067 0.0
O21 O 0.19814 0.55952 0.11635 0.0
O22 O 0.14794 0.50689 0.16699 0.0
O23 O 0.14322 0.55211 0.16866 0.0
O24 O 0.20167 0.59766 0.14659 0.0
O25 O 0.15214 0.61185 0.1578 0.0
O26 O 1.05051 0.57394 0.16488 0.0
O27 O 1.05937 0.5449 0.18758 0.0
O28 O 1.0407 0.52714 0.13222 0.0
O29 O 0.11146 0.55228 0.13 0.0
O30 O 1.04784 0.48779 0.16181 0.0
O31 O 1.07857 0.47704 0.1347 0.0
H32 H 0.25446 0.56256 0.15454 0.0
H33 H 0.33637 0.59092 0.16175 0.0
H34 H 0.36269 0.59101 0.09894 0.0
H35 H 0.27946 0.56046 0.09196 0.0
H36 H 0.98078 0.48996 0.15954 0.0
H37 H 0.89672 0.43631 0.16204 0.0
H38 H 0.88687 0.49971 0.21009 0.0
H39 H 0.97357 0.55388 0.20797 0.0
La40 La 0.63859 0.03936 0.48733 0.0
La41 La 0.57425 0.05866 0.47719 0.0
C42 C 0.67434 1.01216 0.50357 0.0
C43 C 0.66293 0.9733 0.50499 0.0
C44 C 0.64977 0.94796 0.48827 0.0
C45 C 0.64004 0.91156 0.49009 0.0
C46 C 0.64293 0.89972 0.5087 0.0
C47 C 0.65498 0.92489 0.52543 0.0
C48 C 0.66508 0.96133 0.52356 0.0
C49 C 0.63284 0.04749 0.44952 0.0
C50 C 0.52647 0.96957 0.48 0.0
C51 C 0.53956 0.08751 0.46181 0.0
C52 C 0.55011 0.12599 0.46482 0.0
C53 C 0.57342 0.149 0.48218 0.0
C54 C 0.58199 0.18489 0.48546 0.0
C55 C 0.56791 0.19867 0.47135 0.0
C56 C 0.54588 0.17617 0.45369 0.0
C57 C 0.53686 0.13994 0.45049 0.0
C58 C 0.58297 0.05362 0.51531 0.0
C59 C 0.68688 0.12822 0.48366 0.0
O60 O 0.6874 0.0282 0.48623 0.0
O61 O 0.64486 0.01609 0.51248 0.0
O62 O 0.67057 0.05647 0.45799 0.0
O63 O 0.59909 0.03131 0.46167 0.0
O64 O 0.5674 0.98098 0.4873 0.0
O65 O 0.52236 0.99492 0.47244 0.0
O66 O 0.52105 0.06478 0.47705 0.0
O67 O 0.57339 0.08837 0.45363 0.0
O68 O 0.54526 0.04536 0.50731 0.0
O69 O 0.61491 0.06782 0.50249 0.0
O70 O 0.64605 0.11628 0.47592 0.0
O71 O 0.6905 0.10322 0.49208 0.0
H72 H 0.64736 0.95637 0.47377 0.0
H73 H 0.63114 0.89307 0.47688 0.0
H74 H 0.65641 0.91638 0.54006 0.0
H75 H 0.67461 0.98024 0.53668 0.0
H76 H 0.58453 0.13895 0.4933 0.0
H77 H 0.59965 0.20192 0.49907 0.0
H78 H 0.5346 0.18612 0.4426 0.0
H79 H 0.51912 0.12265 0.43695 0.0
La80 La 0.61906 0.54908 0.83086 0.0
La81 La 0.54825 0.46097 0.83328 0.0
C82 C 0.66377 0.61898 0.82021 0.0
C83 C 0.65431 0.64691 0.81695 0.0
C84 C 0.63571 0.65714 0.83194 0.0
C85 C 0.62987 0.68551 0.82874 0.0
C86 C 0.64229 0.70407 0.81048 0.0
C87 C 0.65965 0.69287 0.79538 0.0
C88 C 0.6658 0.66479 0.79862 0.0
C89 C 0.60457 0.52187 0.86631 0.0
C90 C 0.50568 0.50555 0.83375 0.0
C91 C 0.50749 0.39209 0.84448 0.0
C92 C 0.52054 0.36602 0.84372 0.0
C93 C 0.54432 0.36516 0.82726 0.0
C94 C 0.55623 0.34014 0.82659 0.0
C95 C 0.5453 0.31582 0.8425 0.0
C96 C 0.52261 0.31764 0.85921 0.0
C97 C 0.51025 0.34244 0.85977 0.0
C98 C 0.56445 0.48772 0.79748 0.0
C99 C 0.66159 0.50423 0.8301 0.0
O100 O 0.66263 0.60958 0.83851 0.0
O101 O 0.64355 0.58845 0.80775 0.0
O102 O 0.64559 0.55262 0.8603 0.0
O103 O 0.57331 0.50935 0.8532 0.0
O104 O 0.54963 0.53791 0.82984 0.0
O105 O 0.49714 0.472 0.83774 0.0
O106 O 0.49884 0.39987 0.82744 0.0
O107 O 0.53378 0.42364 0.85619 0.0
O108 O 0.52352 0.45639 0.8032 0.0
O109 O 0.59471 0.50057 0.81106 0.0
O110 O 0.61728 0.47151 0.83299 0.0
O111 O 0.67076 0.53841 0.82722 0.0
H112 H 0.62634 0.64372 0.84622 0.0
H113 H 0.61668 0.69354 0.84074 0.0
H114 H 0.66854 0.70582 0.78098 0.0
H115 H 0.67998 0.65725 0.78682 0.0
H116 H 0.55332 0.38355 0.81479 0.0
H117 H 0.57297 0.33923 0.81333 0.0
H118 H 0.51439 0.29992 0.87188 0.0
H119 H 0.49259 0.34319 0.87275 0.0
C120 C 0.7317 0.15299 0.17411 0.0
C121 C 0.77005 0.18934 0.18312 0.0
C122 C 0.77098 0.19437 0.20388 0.0
C123 C 0.69746 0.12771 0.20658 0.0
C124 C 0.69593 0.12239 0.18618 0.0
C125 C 0.6534 0.08092 0.17959 0.0
H126 H 0.45641 0.89881 0.20698 0.0
C127 C 0.65592 0.09073 0.21505 0.0
C128 C 0.62954 0.06288 0.19934 0.0
H129 H 0.50998 0.93302 0.14753 0.0
H130 H 0.57332 1.00013 0.1599 0.0
H131 H 0.5523 0.93683 0.22629 0.0
H132 H 0.47037 0.97655 0.22034 0.0
H133 H 0.49496 0.99211 0.2443 0.0
H134 H 0.45561 0.94002 0.23749 0.0
H135 H 0.50229 0.91995 0.24178 0.0
H136 H 0.5618 0.96318 0.24849 0.0
C137 C 0.67188 0.06033 0.16947 0.0
C138 C 0.62162 0.08361 0.16606 0.0
C139 C 0.63571 0.08132 0.29009 0.0
C140 C 0.60175 0.05001 0.30218 0.0
C141 C 0.56226 0.01439 0.29325 0.0
C142 C 0.55738 1.00936 0.27265 0.0
C143 C 0.59254 0.04017 0.26069 0.0
C144 C 0.63045 0.07565 0.2694 0.0
C145 C 0.66432 0.10479 0.25419 0.0
C146 C 0.64084 0.08055 0.23499 0.0
C147 C 0.59905 0.04283 0.23899 0.0
C148 C 0.71353 0.11524 0.2576 0.0
C149 C 0.66437 0.14051 0.25599 0.0
C150 C 0.48189 0.92048 0.19653 0.0
C151 C 0.47856 0.91026 0.17631 0.0
C152 C 0.51183 0.94001 0.16324 0.0
C153 C 0.54875 0.97884 0.17047 0.0
C154 C 0.55242 0.98797 0.19097 0.0
C155 C 0.51876 0.95878 0.20346 0.0
C156 C 0.52762 0.97232 0.22478 0.0
C157 C 0.57242 0.01457 0.22331 0.0
C158 C 0.58723 0.02416 0.20353 0.0
C159 C 0.53616 0.94679 0.23609 0.0
C160 C 0.48496 0.96998 0.23231 0.0
H161 H 0.73818 0.17001 0.23127 0.0
H162 H 0.73018 0.14831 0.15818 0.0
H163 H 0.61706 0.10499 0.17258 0.0
H164 H 0.58543 0.05523 0.1642 0.0
H165 H 0.63781 0.0938 0.1512 0.0
H166 H 0.70262 0.06716 0.17786 0.0
H167 H 0.68391 0.0705 0.15414 0.0
H168 H 0.64508 0.02785 0.16894 0.0
H169 H 0.66653 0.10901 0.29655 0.0
H170 H 0.53527 0.99012 0.30227 0.0
H171 H 0.52677 0.98128 0.26688 0.0
H172 H 0.70941 0.08932 0.26287 0.0
H173 H 0.7347 0.13962 0.26894 0.0
H174 H 0.73462 0.12329 0.24392 0.0
H175 H 0.62859 0.13089 0.2602 0.0
H176 H 0.67226 0.15535 0.24184 0.0
H177 H 0.69008 0.1625 0.26749 0.0
H178 H 0.79973 0.22219 0.21111 0.0
C179 C 0.73502 0.16401 0.21558 0.0
C180 C 0.59582 0.62807 0.53278 0.0
C181 C 0.59386 0.65505 0.54408 0.0
C182 C 0.59522 0.65496 0.56493 0.0
C183 C 0.6015 0.60269 0.56295 0.0
C184 C 0.59972 0.60227 0.54252 0.0
C185 C 0.60303 0.57205 0.53296 0.0
H186 H 0.63186 0.4335 0.54394 0.0
C187 C 0.60785 0.57381 0.56852 0.0
C188 C 0.60921 0.55588 0.55104 0.0
H189 H 0.60276 0.46468 0.48984 0.0
H190 H 0.60314 0.51424 0.50801 0.0
H191 H 0.70716 0.5209 0.56275 0.0
H192 H 0.55578 0.43263 0.56966 0.0
H193 H 0.58121 0.45237 0.59332 0.0
H194 H 0.59812 0.4275 0.57865 0.0
H195 H 0.68213 0.47931 0.57801 0.0
H196 H 0.69478 0.52449 0.58763 0.0
C197 C 0.64747 0.59375 0.51957 0.0
C198 C 0.5556 0.54023 0.52186 0.0
C199 C 0.61531 0.5529 0.64128 0.0
C200 C 0.62444 0.53038 0.65123 0.0
C201 C 0.63625 0.50959 0.63985 0.0
C202 C 0.63678 0.50974 0.6191 0.0
C203 C 0.62584 0.5312 0.60947 0.0
C204 C 0.61684 0.55327 0.62056 0.0
C205 C 0.60963 0.57673 0.60784 0.0
C206 C 0.61345 0.56351 0.58725 0.0
C207 C 0.62226 0.53645 0.5883 0.0
C208 C 0.65063 0.62133 0.61237 0.0
C209 C 0.55912 0.56353 0.61178 0.0
C210 C 0.62642 0.45152 0.53597 0.0
C211 C 0.61779 0.4456 0.51545 0.0
C212 C 0.60954 0.46884 0.50566 0.0
C213 C 0.60968 0.49747 0.51624 0.0
C214 C 0.61747 0.50249 0.53686 0.0
C215 C 0.62557 0.4796 0.54635 0.0
C216 C 0.63027 0.48703 0.56842 0.0
C217 C 0.62347 0.51807 0.57069 0.0
C218 C 0.61645 0.52737 0.55216 0.0
C219 C 0.68101 0.50354 0.5747 0.0
C220 C 0.58955 0.44797 0.57819 0.0
H221 H 0.59989 0.63063 0.59025 0.0
H222 H 0.59449 0.62712 0.51675 0.0
H223 H 0.52521 0.53651 0.52926 0.0
H224 H 0.54598 0.51057 0.5218 0.0
H225 H 0.55688 0.5484 0.50636 0.0
H226 H 0.67833 0.62113 0.52728 0.0
H227 H 0.6409 0.60237 0.50563 0.0
H228 H 0.65908 0.57603 0.51575 0.0
H229 H 0.60612 0.56933 0.64933 0.0
H230 H 0.64509 0.49304 0.64696 0.0
H231 H 0.64539 0.4929 0.61136 0.0
H232 H 0.68247 0.62648 0.61864 0.0
H233 H 0.6395 0.63399 0.62326 0.0
H234 H 0.66387 0.63888 0.59887 0.0
H235 H 0.53285 0.53085 0.61277 0.0
H236 H 0.54583 0.5709 0.59979 0.0
H237 H 0.55812 0.5769 0.62596 0.0
H238 H 0.59477 0.67584 0.57405 0.0
C239 C 0.59885 0.62896 0.57438 0.0
C240 C 0.19619 0.5112 0.84858 0.0
C241 C 0.23611 0.51989 0.85907 0.0
C242 C 0.24519 0.53686 0.87836 0.0
C243 C 0.17267 0.52913 0.87821 0.0
C244 C 0.16501 0.51664 0.85852 0.0
C245 C 0.12118 0.51088 0.85071 0.0
H246 H 0.93612 0.51492 0.87702 0.0
C247 C 0.13332 0.52855 0.88549 0.0
C248 C 0.10278 0.51901 0.86943 0.0
H249 H 0.96062 0.49137 0.81751 0.0
H250 H 1.0304 0.4991 0.82946 0.0
H251 H 0.94433 0.45633 0.8945 0.0
H252 H 1.03867 0.58209 0.89051 0.0
H253 H 1.04601 0.57309 0.91465 0.0
H254 H 0.98815 0.55549 0.90661 0.0
H255 H 0.94257 0.48733 0.91212 0.0
H256 H 0.97905 0.47279 0.91601 0.0
C257 C 0.08434 0.46824 0.8425 0.0
C258 C 0.13746 0.5415 0.83494 0.0
C259 C 0.11562 0.53662 0.96029 0.0
C260 C 1.07974 0.53204 0.97184 0.0
C261 C 1.04257 0.52829 0.96257 0.0
C262 C 1.04055 0.52839 0.94194 0.0
C263 C 1.0755 0.53133 0.93035 0.0
C264 C 0.11245 0.53572 0.93955 0.0
C265 C 0.14609 0.53823 0.92483 0.0
C266 C 0.1217 0.53251 0.9052 0.0
C267 C 1.08094 0.529 0.90866 0.0
C268 C 0.14696 0.50374 0.92859 0.0
C269 C 0.19517 0.58004 0.9273 0.0
C270 C 0.9555 0.51081 0.86626 0.0
C271 C 0.94142 0.50179 0.84631 0.0
C272 C 0.97002 0.49831 0.83308 0.0
C273 C 1.01054 0.50279 0.83999 0.0
C274 C 1.02289 0.51093 0.86035 0.0
C275 C 0.99455 0.51435 0.87284 0.0
C276 C 1.00822 0.51991 0.89406 0.0
C277 C 1.05169 0.52225 0.89265 0.0
C278 C 1.06142 0.51693 0.87294 0.0
C279 C 0.96656 0.48248 0.90488 0.0
C280 C 1.02067 0.55949 0.90205 0.0
H281 H 0.22338 0.55354 0.90262 0.0
H282 H 0.18894 0.49972 0.83341 0.0
H283 H 0.16631 0.57182 0.84095 0.0
H284 H 0.10817 0.54119 0.83012 0.0
H285 H 0.15134 0.53565 0.8217 0.0
H286 H 1.07552 0.44686 0.85389 0.0
H287 H 0.09843 0.46261 0.82927 0.0
H288 H 1.0509 0.46228 0.83819 0.0
H289 H 0.14471 0.53978 0.96723 0.0
H290 H 1.01497 0.52521 0.97135 0.0
H291 H 1.0115 0.52589 0.93592 0.0
H292 H 0.11009 0.47562 0.92999 0.0
H293 H 0.16646 0.50939 0.94254 0.0
H294 H 0.16335 0.49816 0.91657 0.0
H295 H 0.19281 0.60105 0.93604 0.0
H296 H 0.21011 0.59406 0.91284 0.0
H297 H 0.22123 0.57898 0.93503 0.0
H298 H 0.2765 0.54623 0.88652 0.0
C299 C 0.21414 0.54135 0.88782 0.0
C300 C 1.0071 0.43371 0.45452 0.0
C301 C 0.97308 0.396 0.44532 0.0
C302 C 0.97238 0.39212 0.42449 0.0
C303 C 1.04033 0.46109 0.42227 0.0
C304 C 1.04062 0.46591 0.44265 0.0
C305 C 1.08014 0.50833 0.4494 0.0
H306 H 0.27922 0.69051 0.42327 0.0
C307 C 1.08044 0.49895 0.41406 0.0
C308 C 0.10458 0.52712 0.42981 0.0
H309 H 0.2138 0.65944 0.4811 0.0
H310 H 0.153 0.59194 0.46876 0.0
H311 H 0.2627 0.61035 0.41128 0.0
H312 H 0.18718 0.65507 0.40184 0.0
H313 H 0.17644 0.6264 0.38041 0.0
H314 H 0.23667 0.669 0.38675 0.0
H315 H 0.2828 0.64964 0.39502 0.0
H316 H 0.24337 0.59859 0.38645 0.0
C317 C 0.1133 0.5089 0.46377 0.0
C318 C 1.05716 0.52585 0.45867 0.0
C319 C 0.10814 0.50606 0.33968 0.0
C320 C 0.14333 0.53659 0.32756 0.0
C321 C 0.18083 0.57333 0.33649 0.0
C322 C 0.183 0.57971 0.35706 0.0
C323 C 0.14713 0.54917 0.36894 0.0
C324 C 0.11076 0.51303 0.36023 0.0
C325 C 1.07613 0.48397 0.37522 0.0
C326 C 0.09715 0.50902 0.39433 0.0
C327 C 0.13854 0.54702 0.39052 0.0
C328 C 1.07795 0.44916 0.37459 0.0
C329 C 1.02662 0.47206 0.37051 0.0
C330 C 0.2517 0.66971 0.43342 0.0
C331 C 0.25144 0.68106 0.45317 0.0
C332 C 0.21531 0.65187 0.46579 0.0
C333 C 0.17967 0.61272 0.45856 0.0
C334 C 0.1797 0.60266 0.43845 0.0
C335 C 0.21541 0.63136 0.42635 0.0
C336 C 0.20873 0.61758 0.40511 0.0
C337 C 0.16336 0.57556 0.40625 0.0
C338 C 0.14642 0.56622 0.42582 0.0
C339 C 0.25163 0.61927 0.39895 0.0
C340 C 0.20221 0.6433 0.39274 0.0
H341 H 1.003 0.4187 0.39731 0.0
H342 H 1.00815 0.43778 0.47048 0.0
H343 H 1.02536 0.51602 0.44994 0.0
H344 H 1.08116 0.55841 0.45872 0.0
H345 H 1.04549 0.51613 0.47407 0.0
H346 H 0.12316 0.49089 0.45739 0.0
H347 H 0.09544 0.49641 0.47816 0.0
H348 H 0.14694 0.53887 0.4667 0.0
H349 H 1.07921 0.4773 0.33333 0.0
H350 H 0.20809 0.59754 0.32752 0.0
H351 H 0.21239 0.60837 0.36285 0.0
H352 H 0.11337 0.45884 0.36967 0.0
H353 H 1.05092 0.42499 0.36415 0.0
H354 H 1.07313 0.43699 0.38932 0.0
H355 H 1.0302 0.49758 0.36499 0.0
H356 H 1.00367 0.46293 0.38367 0.0
H357 H 1.00765 0.44797 0.3589 0.0
H358 H 0.94578 0.36395 0.41694 0.0
C359 C 1.00563 0.42417 0.41302 0.0
C360 C 0.61261 0.93551 0.78032 0.0
C361 C 0.61876 0.91103 0.76895 0.0
C362 C 0.62732 0.91701 0.74846 0.0
C363 C 0.6207 0.96909 0.7507 0.0
C364 C 0.61379 0.96434 0.7709 0.0
C365 C 0.60767 0.99288 0.78053 0.0
H366 H 0.5934 0.13991 0.76929 0.0
C367 C 0.61836 1.00035 0.74527 0.0
C368 C 0.61098 0.01472 0.76269 0.0
H369 H 0.58285 0.08681 0.824 0.0
H370 H 0.59499 0.04422 0.80602 0.0
H371 H 0.67939 0.14432 0.74991 0.0
H372 H 0.52702 0.06266 0.74569 0.0
H373 H 0.5467 0.059 0.72242 0.0
H374 H 0.56154 0.10554 0.73096 0.0
H375 H 0.64408 0.15457 0.73822 0.0
H376 H 0.66425 0.13098 0.72467 0.0
C377 C 0.6494 0.0205 0.79527 0.0
C378 C 0.55791 0.96878 0.79016 0.0
C379 C 0.62704 0.03129 0.67266 0.0
C380 C 0.62088 0.05586 0.66288 0.0
C381 C 0.61369 0.07956 0.67442 0.0
C382 C 0.61269 0.07891 0.69511 0.0
C383 C 0.61804 0.05375 0.70458 0.0
C384 C 0.62488 0.03037 0.6934 0.0
C385 C 0.62724 1.00391 0.70603 0.0
C386 C 0.62065 0.01537 0.72662 0.0
C387 C 0.61575 0.04479 0.72561 0.0
C388 C 0.6772 0.01515 0.70357 0.0
C389 C 0.58524 0.96046 0.6999 0.0
C390 C 0.59324 0.11894 0.77749 0.0
C391 C 0.58664 0.11655 0.7981 0.0
C392 C 0.58799 0.0894 0.80813 0.0
C393 C 0.59481 0.06457 0.79764 0.0
C394 C 0.60029 0.06691 0.77692 0.0
C395 C 0.59946 0.0939 0.7673 0.0
C396 C 0.60427 0.09199 0.74529 0.0
C397 C 0.60926 0.05994 0.74315 0.0
C398 C 0.60691 0.04516 0.76165 0.0
C399 C 0.65016 0.13255 0.73901 0.0
C400 C 0.55781 0.07943 0.73545 0.0
H401 H 0.63473 0.94851 0.7237 0.0
H402 H 0.60619 0.93186 0.7961 0.0
H403 H 0.53087 0.94303 0.78036 0.0
H404 H 0.545 0.9859 0.79255 0.0
H405 H 0.55788 0.95731 0.80456 0.0
H406 H 0.68317 0.02852 0.78907 0.0
H407 H 0.64276 1.0059 0.80949 0.0
H408 H 0.65647 0.0489 0.79833 0.0
H409 H 0.63305 1.01286 0.66443 0.0
H410 H 0.60756 0.09805 0.6675 0.0
H411 H 0.60705 0.09766 0.70289 0.0
H412 H 0.70479 0.0474 0.70144 0.0
H413 H 0.67823 0.99933 0.69049 0.0
H414 H 0.68911 1.00938 0.71684 0.0
H415 H 0.55331 0.95739 0.69578 0.0
H416 H 0.57307 0.93983 0.71199 0.0
H417 H 0.59463 0.9501 0.68689 0.0
H418 H 0.6336 0.8995 0.73942 0.0
C419 C 0.62829 0.94575 0.73933 0.0
C420 C 0.59034 0.36568 0.1305 0.0
C421 C 0.59976 0.34243 0.12032 0.0
C422 C 0.59305 0.33669 0.09958 0.0
C423 C 0.57457 0.38166 0.09944 0.0
C424 C 0.57877 0.38543 0.11986 0.0
C425 C 0.57625 0.41648 0.12843 0.0
H426 H 0.56435 0.56243 0.11394 0.0
C427 C 0.56805 0.41005 0.09285 0.0
C428 C 0.56911 0.43047 0.10985 0.0
H429 H 0.5769 0.52457 0.16974 0.0
H430 H 0.5758 0.47395 0.15241 0.0
H431 H 0.63586 0.55134 0.08663 0.0
H432 H 0.4866 0.48439 0.09825 0.0
H433 H 0.48919 0.46583 0.07509 0.0
H434 H 0.51371 0.51701 0.07802 0.0
H435 H 0.60016 0.56563 0.08097 0.0
H436 H 0.60347 0.5346 0.06409 0.0
C437 C 0.62449 0.44939 0.13886 0.0
C438 C 0.53241 0.3962 0.14216 0.0
C439 C 0.56357 0.43089 0.01933 0.0
C440 C 0.5564 0.45483 0.00948 0.0
C441 C 0.54369 0.475 0.02079 0.0
C442 C 0.54235 0.47436 0.04141 0.0
C443 C 0.55317 0.45294 0.05105 0.0
C444 C 0.56102 0.42995 0.04012 0.0
C445 C 0.56687 0.40599 0.05328 0.0
C446 C 0.56336 0.42002 0.07378 0.0
C447 C 0.5569 0.44848 0.07221 0.0
C448 C 0.61665 0.41764 0.04956 0.0
C449 C 0.52508 0.3617 0.049 0.0
C450 C 0.5688 0.54429 0.1224 0.0
C451 C 0.57246 0.54831 0.14316 0.0
C452 C 0.57518 0.52252 0.1537 0.0
C453 C 0.57405 0.49299 0.1436 0.0
C454 C 0.5696 0.48904 0.12279 0.0
C455 C 0.56698 0.51448 0.11261 0.0
C456 C 0.55904 0.50459 0.09077 0.0
C457 C 0.55931 0.46978 0.08931 0.0
C458 C 0.56552 0.46088 0.10805 0.0
C459 C 0.60164 0.54083 0.0799 0.0
C460 C 0.50982 0.49252 0.08511 0.0
H461 H 0.5772 0.35167 0.07327 0.0
H462 H 0.59673 0.37186 0.14631 0.0
H463 H 0.50196 0.36692 0.13567 0.0
H464 H 0.51902 0.41305 0.14419 0.0
H465 H 0.54055 0.39126 0.1569 0.0
H466 H 0.65438 0.45214 0.13157 0.0
H467 H 0.62407 0.44298 0.15464 0.0
H468 H 0.63459 0.47911 0.13804 0.0
H469 H 0.57239 0.41427 0.0112 0.0
H470 H 0.53539 0.49194 0.0137 0.0
H471 H 0.53374 0.4912 0.04907 0.0
H472 H 0.64387 0.4502 0.04837 0.0
H473 H 0.61702 0.40351 0.03554 0.0
H474 H 0.62905 0.40992 0.06173 0.0
H475 H 0.49177 0.35712 0.04574 0.0
H476 H 0.51638 0.34333 0.06182 0.0
H477 H 0.5327 0.34998 0.036 0.0
H478 H 0.60046 0.31912 0.09141 0.0
C479 C 0.58007 0.35595 0.08909 0.0
C480 C 0.41661 0.5833 0.12488 0.0
C481 C 0.40262 0.60278 0.13558 0.0
C482 C 0.45567 0.58638 0.13088 0.0
C483 C 0.48146 0.6094 0.14819 0.0
C484 C 0.46964 0.63131 0.15836 0.0
C485 C 0.43018 0.62768 0.15193 0.0
C486 C 0.46738 0.5629 0.11926 0.0
C487 C 0.49656 0.65683 0.1766 0.0
C488 C 0.52457 0.5573 0.16558 0.0
C489 C 0.56413 0.57434 0.15321 0.0
C490 C 0.50078 0.57325 0.16722 0.0
C491 C 0.51723 0.60657 0.15614 0.0
C492 C 0.56264 0.62839 0.14732 0.0
C493 C 0.58576 0.61184 0.14588 0.0
C494 C 0.45371 0.55039 0.1778 0.0
C495 C 0.58282 0.66546 0.13646 0.0
H496 H 0.3953 0.56357 0.11242 0.0
H497 H 0.42008 0.64338 0.16012 0.0
H498 H 0.50516 0.5826 0.11463 0.0
H499 H 0.46213 0.54015 0.12868 0.0
H500 H 0.44486 0.54775 0.10577 0.0
H501 H 0.4963 0.68227 0.17788 0.0
H502 H 0.47884 0.63907 0.18992 0.0
H503 H 0.53399 0.66818 0.17663 0.0
H504 H 0.50829 0.5287 0.17165 0.0
H505 H 0.61733 0.62566 0.13682 0.0
H506 H 0.42442 0.53175 0.1668 0.0
H507 H 0.44881 0.57073 0.18541 0.0
H508 H 0.4508 0.53077 0.18885 0.0
H509 H 0.56774 0.65728 0.12122 0.0
H510 H 0.62217 0.6842 0.13531 0.0
H511 H 0.57336 0.6829 0.14396 0.0
C512 C 0.73039 0.19406 0.46858 0.0
C513 C 0.72928 0.17048 0.48252 0.0
C514 C 0.77169 0.23293 0.46573 0.0
C515 C 0.81278 0.24908 0.47741 0.0
C516 C 0.81097 0.22623 0.49234 0.0
C517 C 0.76945 0.18701 0.49455 0.0
C518 C 0.77213 0.25586 0.44941 0.0
C519 C 0.85345 0.2427 0.50549 0.0
C520 C 0.92794 0.32416 0.45072 0.0
C521 C 0.93776 0.35998 0.45667 0.0
C522 C 0.88862 0.28811 0.45805 0.0
C523 C 0.8588 0.28773 0.47218 0.0
C524 C 0.87082 0.32406 0.47958 0.0
C525 C 0.91007 0.35985 0.47163 0.0
C526 C 0.87721 0.25025 0.4496 0.0
C527 C 0.84078 0.32499 0.49508 0.0
H528 H 0.69955 0.18158 0.45921 0.0
H529 H 0.76869 0.16915 0.50553 0.0
H530 H 0.78448 0.28516 0.45526 0.0
H531 H 0.79745 0.26109 0.43774 0.0
H532 H 0.73647 0.24006 0.44249 0.0
H533 H 0.84405 0.22385 0.5183 0.0
H534 H 0.88134 0.24475 0.49681 0.0
H535 H 0.86904 0.27298 0.51112 0.0
H536 H 0.94992 0.32413 0.43952 0.0
H537 H 0.91748 0.38738 0.47636 0.0
H538 H 0.84312 0.23304 0.44121 0.0
H539 H 0.87263 0.23166 0.46168 0.0
H540 H 0.90536 0.25575 0.43949 0.0
H541 H 0.80702 0.31504 0.48823 0.0
H542 H 0.8592 0.35516 0.50176 0.0
H543 H 0.83146 0.3045 0.50703 0.0
C544 C 0.67274 0.76852 0.79632 0.0
C545 C 0.63791 0.73538 0.80716 0.0
C546 C 0.66813 0.79728 0.79205 0.0
C547 C 0.62802 0.79325 0.799 0.0
C548 C 0.59362 0.76075 0.8106 0.0
C549 C 0.59881 0.73207 0.81445 0.0
C550 C 0.70555 0.8314 0.77955 0.0
C551 C 0.55064 0.75567 0.81846 0.0
C552 C 0.63905 0.886 0.79625 0.0
C553 C 0.61662 0.87934 0.77804 0.0
C554 C 0.64114 0.85744 0.8038 0.0
C555 C 0.62068 0.82159 0.79279 0.0
C556 C 0.5962 0.81405 0.77486 0.0
C557 C 0.59418 0.84283 0.76781 0.0
C558 C 0.66694 0.8663 0.82313 0.0
C559 C 0.57393 0.77626 0.76264 0.0
H560 H 0.70368 0.77192 0.79105 0.0
H561 H 0.57153 0.7065 0.82272 0.0
H562 H 0.68928 0.83024 0.76549 0.0
H563 H 0.72005 0.85988 0.78739 0.0
H564 H 0.73549 0.83105 0.77593 0.0
H565 H 0.52974 0.73107 0.82884 0.0
H566 H 0.56172 0.78332 0.82623 0.0
H567 H 0.52713 0.74951 0.80596 0.0
H568 H 0.65657 0.91413 0.80424 0.0
H569 H 0.57573 0.83703 0.75397 0.0
H570 H 0.70043 0.87081 0.82025 0.0
H571 H 0.64497 0.84097 0.833 0.0
H572 H 0.67591 0.8932 0.831 0.0
H573 H 0.60211 0.7748 0.75726 0.0
H574 H 0.55391 0.77399 0.74962 0.0
H575 H 0.54934 0.75026 0.77183 0.0
C576 C 0.81336 0.39243 0.18329 0.0
C577 C 0.83315 0.43234 0.18562 0.0
C578 C 0.76709 0.36406 0.17575 0.0
C579 C 0.74054 0.37624 0.17029 0.0
C580 C 0.75831 0.41554 0.17491 0.0
C581 C 0.80447 0.44313 0.18264 0.0
C582 C 0.74891 0.32222 0.1719 0.0
C583 C 0.73089 0.42975 0.16961 0.0
C584 C 0.67176 0.34756 0.12322 0.0
C585 C 0.62744 0.33347 0.13087 0.0
C586 C 0.70811 0.35685 0.13582 0.0
C587 C 0.69943 0.35145 0.15643 0.0
C588 C 0.65249 0.33064 0.16354 0.0
C589 C 0.61681 0.32195 0.15062 0.0
C590 C 0.75743 0.37786 0.12746 0.0
C591 C 0.64117 0.32213 0.18519 0.0
H592 H 0.83536 0.38396 0.18593 0.0
H593 H 0.81969 0.47393 0.18444 0.0
H594 H 0.70956 0.30066 0.17293 0.0
H595 H 0.75918 0.31932 0.15676 0.0
H596 H 0.76482 0.31449 0.18251 0.0
H597 H 0.74783 0.46004 0.17575 0.0
H598 H 0.7288 0.42993 0.15324 0.0
H599 H 0.69398 0.40954 0.17523 0.0
H600 H 0.68014 0.35618 0.10794 0.0
H601 H 0.58209 0.31006 0.15647 0.0
H602 H 0.77443 0.36603 0.13349 0.0
H603 H 0.77992 0.40977 0.13182 0.0
H604 H 0.75691 0.37496 0.11103 0.0
H605 H 0.66359 0.31602 0.19201 0.0
H606 H 0.60307 0.29656 0.18728 0.0
H607 H 0.64837 0.34827 0.19316 0.0
C608 C 0.49195 0.89888 0.47477 0.0
C609 C 0.48524 0.92693 0.47904 0.0
C610 C 0.45291 0.85846 0.47252 0.0
C611 C 0.40611 0.84563 0.47538 0.0
C612 C 0.39947 0.87375 0.48081 0.0
C613 C 0.43904 0.91415 0.48215 0.0
C614 C 0.46167 0.82981 0.46608 0.0
C615 C 0.35047 0.86126 0.4848 0.0
C616 C 0.30572 0.75359 0.44643 0.0
C617 C 0.28825 0.72346 0.45988 0.0
C618 C 0.34401 0.79312 0.45129 0.0
C619 C 0.36415 0.80365 0.47054 0.0
C620 C 0.34486 0.77402 0.4847 0.0
C621 C 0.30766 0.73419 0.47913 0.0
C622 C 0.3638 0.82345 0.43555 0.0
C623 C 0.36404 0.78427 0.50563 0.0
H624 H 0.52769 0.90875 0.47233 0.0
H625 H 0.43388 0.93579 0.48578 0.0
H626 H 0.44418 0.80509 0.47634 0.0
H627 H 0.44581 0.81686 0.45115 0.0
H628 H 0.5002 0.84417 0.46545 0.0
H629 H 0.35195 0.88574 0.49161 0.0
H630 H 0.33001 0.85128 0.47073 0.0
H631 H 0.33063 0.83598 0.4948 0.0
H632 H 0.28993 0.74631 0.43179 0.0
H633 H 0.29466 0.71148 0.48973 0.0
H634 H 0.40227 0.83861 0.43347 0.0
H635 H 0.36038 0.84632 0.44024 0.0
H636 H 0.34537 0.81011 0.42104 0.0
H637 H 0.40052 0.79353 0.50566 0.0
H638 H 0.34152 0.7589 0.51547 0.0
H639 H 0.3664 0.80949 0.51188 0.0
C640 C 0.5229 0.24924 0.84835 0.0
C641 C 0.55547 0.28739 0.84107 0.0
C642 C 0.52904 0.22059 0.84485 0.0
C643 C 0.56804 0.22998 0.83342 0.0
C644 C 0.60249 0.26901 0.82703 0.0
C645 C 0.59608 0.29732 0.83114 0.0
C646 C 0.49216 0.17959 0.85236 0.0
C647 C 0.64448 0.28025 0.81468 0.0
C648 C 0.59998 0.16151 0.82688 0.0
C649 C 0.57797 0.14231 0.80862 0.0
C650 C 0.59561 0.18909 0.83565 0.0
C651 C 0.56931 0.19802 0.82574 0.0
C652 C 0.54558 0.17759 0.80772 0.0
C653 C 0.54963 0.14966 0.79958 0.0
C654 C 0.62033 0.20953 0.85515 0.0
C655 C 0.51729 0.18625 0.79659 0.0
H656 H 0.49126 0.24101 0.85596 0.0
H657 H 0.62226 0.327 0.82598 0.0
H658 H 0.46925 0.15918 0.83985 0.0
H659 H 0.50943 0.16824 0.85875 0.0
H660 H 0.46906 0.17891 0.86379 0.0
H661 H 0.67029 0.31256 0.81245 0.0
H662 H 0.66329 0.27089 0.82175 0.0
H663 H 0.63167 0.26471 0.79994 0.0
H664 H 0.62194 0.15606 0.83398 0.0
H665 H 0.5313 0.1341 0.78578 0.0
H666 H 0.59567 0.20888 0.86557 0.0
H667 H 0.6507 0.241 0.85276 0.0
H668 H 0.63404 0.19572 0.86215 0.0
H669 H 0.48878 0.18142 0.80614 0.0
H670 H 0.5007 0.16749 0.78283 0.0
H671 H 0.54087 0.21771 0.79254 0.0
C672 C 0.59754 0.8273 0.49997 0.0
C673 C 0.63403 0.86158 0.51077 0.0
C674 C 0.58797 0.79098 0.50253 0.0
C675 C 0.61505 0.7888 0.51641 0.0
C676 C 0.65251 0.82342 0.52703 0.0
C677 C 0.66178 0.85935 0.52394 0.0
C678 C 0.54822 0.75481 0.49073 0.0
C679 C 0.68214 0.82238 0.54205 0.0
C680 C 0.566 0.69523 0.54285 0.0
C681 C 0.59299 0.68485 0.53455 0.0
C682 C 0.57093 0.72781 0.53633 0.0
C683 C 0.60302 0.75022 0.52086 0.0
C684 C 0.62753 0.73805 0.51134 0.0
C685 C 0.62246 0.70563 0.51838 0.0
C686 C 0.54417 0.73979 0.54692 0.0
C687 C 0.66133 0.76071 0.49452 0.0
H688 H 0.57565 0.8286 0.48986 0.0
H689 H 0.69082 0.88579 0.53198 0.0
H690 H 0.56105 0.7397 0.48343 0.0
H691 H 0.51898 0.73355 0.5008 0.0
H692 H 0.53356 0.76214 0.47922 0.0
H693 H 0.71045 0.85205 0.54883 0.0
H694 H 0.65896 0.80233 0.55404 0.0
H695 H 0.6991 0.81052 0.53496 0.0
H696 H 0.54222 0.6787 0.55501 0.0
H697 H 0.64354 0.69793 0.51188 0.0
H698 H 0.52575 0.74466 0.53611 0.0
H699 H 0.56971 0.76812 0.55539 0.0
H700 H 0.51745 0.71728 0.55739 0.0
H701 H 0.64505 0.76756 0.48362 0.0
H702 H 0.67171 0.7441 0.48674 0.0
H703 H 0.69404 0.78923 0.5004 0.0
C704 C 0.74794 0.53533 0.83591 0.0
C705 C 0.70192 0.50233 0.82981 0.0
C706 C 0.7858 0.5336 0.83679 0.0
C707 C 0.77849 0.49841 0.83072 0.0
C708 C 0.7324 0.4654 0.82384 0.0
C709 C 0.6947 0.4675 0.82384 0.0
C710 C 0.83331 0.56912 0.84499 0.0
C711 C 0.72264 0.42759 0.8166 0.0
C712 C 0.8931 0.50961 0.82259 0.0
C713 C 0.89687 0.49609 0.84043 0.0
C714 C 0.85388 0.50888 0.81876 0.0
C715 C 0.81784 0.49532 0.83325 0.0
C716 C 0.82063 0.48028 0.85087 0.0
C717 C 0.8589 0.47988 0.85393 0.0
C718 C 0.85164 0.52357 0.79936 0.0
C719 C 0.7842 0.46615 0.86705 0.0
H720 H 0.75403 0.56229 0.84072 0.0
H721 H 0.65952 0.44184 0.81896 0.0
H722 H 0.84226 0.56103 0.85842 0.0
H723 H 0.86171 0.57892 0.834 0.0
H724 H 0.83358 0.59433 0.84897 0.0
H725 H 0.68746 0.4069 0.80907 0.0
H726 H 0.75076 0.43409 0.80616 0.0
H727 H 0.72319 0.41249 0.82928 0.0
H728 H 0.9215 0.52198 0.81188 0.0
H729 H 0.8596 0.46763 0.86742 0.0
H730 H 0.85882 0.55226 0.80195 0.0
H731 H 0.81549 0.50248 0.79272 0.0
H732 H 0.87803 0.52776 0.78857 0.0
H733 H 0.78334 0.49037 0.87205 0.0
H734 H 0.79185 0.45613 0.88009 0.0
H735 H 0.7482 0.44135 0.86134 0.0
C736 C 0.27933 0.67966 0.14425 0.0
C737 C 0.23643 0.66603 0.15347 0.0
C738 C 0.3197 0.71976 0.14561 0.0
C739 C 0.31748 0.74697 0.1567 0.0
C740 C 0.27404 0.73355 0.16573 0.0
C741 C 0.23401 0.69335 0.1639 0.0
C742 C 0.36506 0.73283 0.13557 0.0
C743 C 0.27029 0.76143 0.17792 0.0
C744 C 0.43019 0.83765 0.1811 0.0
C745 C 0.44068 0.86834 0.16955 0.0
C746 C 0.39085 0.79815 0.17683 0.0
C747 C 0.36144 0.78866 0.16032 0.0
C748 C 0.37319 0.81917 0.14792 0.0
C749 C 0.41263 0.85872 0.15272 0.0
C750 C 0.37981 0.76671 0.19047 0.0
C751 C 0.34321 0.81016 0.12998 0.0
H752 H 0.28153 0.65892 0.13598 0.0
H753 H 0.20111 0.68319 0.17108 0.0
H754 H 0.37896 0.75843 0.12626 0.0
H755 H 0.39266 0.74265 0.1469 0.0
H756 H 0.35985 0.70881 0.12612 0.0
H757 H 0.23346 0.74685 0.18314 0.0
H758 H 0.29421 0.77306 0.19103 0.0
H759 H 0.28202 0.7871 0.16913 0.0
H760 H 0.45233 0.84466 0.19387 0.0
H761 H 0.42039 0.88219 0.14373 0.0
H762 H 0.37778 0.74332 0.18193 0.0
H763 H 0.34458 0.75246 0.19743 0.0
H764 H 0.40691 0.77886 0.20241 0.0
H765 H 0.33815 0.78621 0.12057 0.0
H766 H 0.35937 0.83648 0.12089 0.0
H767 H 0.30743 0.79954 0.13476 0.0
C768 C 0.59613 0.26522 0.46139 0.0
C769 C 0.57508 0.23587 0.47546 0.0
C770 C 0.60464 0.30114 0.46561 0.0
C771 C 0.59113 0.30747 0.48423 0.0
C772 C 0.56886 0.27749 0.49828 0.0
C773 C 0.56137 0.24218 0.49377 0.0
C774 C 0.62895 0.3326 0.45037 0.0
C775 C 0.55333 0.28283 0.5182 0.0
C776 C 0.6494 0.40918 0.50767 0.0
C777 C 0.61444 0.4134 0.50479 0.0
C778 C 0.64353 0.37584 0.50001 0.0
C779 C 0.60133 0.34575 0.48946 0.0
C780 C 0.56693 0.35077 0.48571 0.0
C781 C 0.57405 0.38471 0.49334 0.0
C782 C 0.68139 0.37191 0.50408 0.0
C783 C 0.52129 0.31921 0.47469 0.0
H784 H 0.607 0.26044 0.44727 0.0
H785 H 0.5445 0.21929 0.50456 0.0
H786 H 0.6069 0.34144 0.44697 0.0
H787 H 0.66342 0.35933 0.45639 0.0
H788 H 0.63574 0.32256 0.43636 0.0
H789 H 0.53479 0.25602 0.52713 0.0
H790 H 0.58477 0.30795 0.52672 0.0
H791 H 0.52911 0.29004 0.51618 0.0
H792 H 0.68085 0.43155 0.51639 0.0
H793 H 0.54678 0.38778 0.49125 0.0
H794 H 0.69075 0.36356 0.49023 0.0
H795 H 0.66757 0.34805 0.51462 0.0
H796 H 0.71424 0.39969 0.51051 0.0
H797 H 0.52887 0.30994 0.46066 0.0
H798 H 0.50057 0.32934 0.47122 0.0
H799 H 0.49888 0.29276 0.48384 0.0
C800 C 0.47253 0.54235 0.83966 0.0
C801 C 0.46509 0.50719 0.83433 0.0
C802 C 0.43411 0.54346 0.84145 0.0
C803 C 0.38672 0.50893 0.83719 0.0
C804 C 0.37944 0.47388 0.83085 0.0
C805 C 0.41826 0.47325 0.82987 0.0
C806 C 0.44411 0.58131 0.84878 0.0
C807 C 0.33031 0.43665 0.82539 0.0
C808 C 0.28442 0.49715 0.86465 0.0
C809 C 0.26907 0.51152 0.85145 0.0
C810 C 0.32209 0.49624 0.86015 0.0
C811 C 0.34463 0.50829 0.84147 0.0
C812 C 0.32721 0.52015 0.82742 0.0
C813 C 0.29015 0.52207 0.83261 0.0
C814 C 0.3391 0.48388 0.87589 0.0
C815 C 0.34858 0.53185 0.80704 0.0
H816 H 0.50836 0.5688 0.84317 0.0
H817 H 0.4119 0.44601 0.82546 0.0
H818 H 0.42915 0.59003 0.83831 0.0
H819 H 0.42643 0.57663 0.86326 0.0
H820 H 0.48281 0.60604 0.85065 0.0
H821 H 0.33122 0.41367 0.81818 0.0
H822 H 0.3082 0.42437 0.83889 0.0
H823 H 0.31255 0.44328 0.81521 0.0
H824 H 0.26795 0.48788 0.87908 0.0
H825 H 0.279 0.53319 0.8222 0.0
H826 H 0.37726 0.50818 0.87927 0.0
H827 H 0.33598 0.4579 0.87045 0.0
H828 H 0.31865 0.47622 0.88985 0.0
H829 H 0.38495 0.56062 0.80811 0.0
H830 H 0.32707 0.53473 0.79693 0.0
H831 H 0.35175 0.50976 0.80044 0.0
C832 C 0.9696 0.40827 0.1642 0.0
C833 C 1.00316 0.42079 0.14906 0.0
C834 C 0.93068 0.36832 0.16623 0.0
C835 C 0.92459 0.33957 0.15278 0.0
C836 C 0.95734 0.35188 0.13704 0.0
C837 C 0.99639 0.39239 0.13539 0.0
C838 C 0.89693 0.35683 0.18329 0.0
C839 C 0.95173 0.32219 0.12226 0.0
C840 C 0.85682 0.24093 0.17706 0.0
C841 C 0.80973 0.22279 0.17157 0.0
C842 C 0.89505 0.27756 0.1697 0.0
C843 C 0.88609 0.29677 0.15652 0.0
C844 C 0.83888 0.27714 0.14973 0.0
C845 C 0.80117 0.24025 0.15732 0.0
C846 C 0.94456 0.29721 0.17745 0.0
C847 C 0.82775 0.29643 0.13564 0.0
H848 H 0.97404 0.42971 0.17487 0.0
H849 H 1.02182 0.40168 0.12356 0.0
H850 H 0.85983 0.33912 0.17772 0.0
H851 H 0.89837 0.33815 0.19343 0.0
H852 H 0.90558 0.38293 0.19196 0.0
H853 H 0.97696 0.33662 0.10973 0.0
H854 H 0.95806 0.30358 0.12972 0.0
H855 H 0.91486 0.30219 0.11627 0.0
H856 H 0.86352 0.22733 0.188 0.0
H857 H 0.76478 0.2264 0.15313 0.0
H858 H 0.95563 0.32228 0.18775 0.0
H859 H 0.97048 0.30939 0.16514 0.0
H860 H 0.94649 0.27649 0.18551 0.0
H861 H 0.83131 0.32109 0.14354 0.0
H862 H 0.79104 0.27529 0.12951 0.0
H863 H 0.85337 0.30915 0.12321 0.0
C864 C 0.09798 0.52062 0.08867 0.0
C865 C 1.06991 0.52808 0.09875 0.0
C866 C 0.0989 0.51906 0.06792 0.0
C867 C 1.07162 0.52582 0.05706 0.0
C868 C 1.04219 0.53239 0.06722 0.0
C869 C 1.04124 0.53294 0.08803 0.0
C870 C 0.12966 0.51085 0.05765 0.0
C871 C 1.01311 0.54025 0.05615 0.0
C872 C 0.11297 0.56396 0.00518 0.0
C873 C 1.07977 0.53005 0.99353 0.0
C874 C 0.11066 0.56302 0.02594 0.0
C875 C 1.07488 0.52708 0.0351 0.0
C876 C 1.04208 0.4925 0.02329 0.0
C877 C 1.04458 0.49455 0.00259 0.0
C878 C 0.1458 0.60061 0.03805 0.0
C879 C 1.00419 0.45348 0.0325 0.0
H880 H 0.11916 0.51589 0.09705 0.0
H881 H 1.01966 0.53884 0.09591 0.0
H882 H 0.10803 0.4855 0.04686 0.0
H883 H 0.15803 0.53683 0.04919 0.0
H884 H 0.14669 0.50417 0.06826 0.0
H885 H 0.99138 0.54404 0.06623 0.0
H886 H 1.03709 0.56742 0.04761 0.0
H887 H 0.98902 0.51557 0.04534 0.0
H888 H 0.13983 0.5914 -0.00198 0.0
H889 H 1.01897 0.46842 0.99341 0.0
H890 H 0.16635 0.59655 0.04804 0.0
H891 H 0.12647 0.60781 0.04754 0.0
H892 H 0.17118 0.62611 0.02864 0.0
H893 H 1.02078 0.44584 0.04273 0.0
H894 H 0.98289 0.42901 0.02121 0.0
H895 H 0.97976 0.45578 0.0414 0.0
C896 C 0.6698 0.07169 0.41646 0.0
C897 C 0.62922 0.05239 0.42837 0.0
C898 C 0.66682 0.07482 0.39607 0.0
C899 C 0.62213 0.05821 0.38744 0.0
C900 C 0.5813 0.03992 0.39956 0.0
C901 C 0.58533 0.03717 0.41992 0.0
C902 C 0.71118 0.09459 0.38367 0.0
C903 C 0.53307 0.02199 0.39091 0.0
C904 C 0.61888 0.08581 0.33511 0.0
C905 C 0.60818 0.05314 0.32396 0.0
C906 C 0.62327 0.08788 0.35586 0.0
C907 C 0.61741 0.0568 0.36554 0.0
C908 C 0.60735 0.02411 0.35427 0.0
C909 C 0.60272 0.02265 0.33365 0.0
C910 C 0.63371 0.12305 0.36743 0.0
C911 C 0.60148 0.99061 0.36398 0.0
H912 H 0.70386 0.08376 0.42302 0.0
H913 H 0.55394 0.02237 0.42915 0.0
H914 H 0.70772 0.07238 0.37331 0.0
H915 H 0.71575 0.1174 0.37457 0.0
H916 H 0.74371 0.10873 0.39286 0.0
H917 H 0.50582 1.01206 0.40255 0.0
H918 H 0.53522 0.04366 0.38176 0.0
H919 H 0.5211 0.99617 0.38104 0.0
H920 H 0.62285 0.1093 0.32763 0.0
H921 H 0.59516 0.99765 0.32502 0.0
H922 H 0.66705 0.13813 0.37614 0.0
H923 H 0.6047 0.11306 0.37814 0.0
H924 H 0.63738 0.14476 0.35768 0.0
H925 H 0.63427 1.00214 0.37236 0.0
H926 H 0.594 0.96746 0.35306 0.0
H927 H 0.57186 0.97673 0.37475 0.0
C928 C 0.62264 0.51816 0.76986 0.0
C929 C 0.57629 0.49924 0.77673 0.0
C930 C 0.63333 0.52584 0.7497 0.0
C931 C 0.59705 0.51537 0.7363 0.0
C932 C 0.55074 0.49802 0.74342 0.0
C933 C 0.54073 0.4896 0.76354 0.0
C934 C 0.6828 0.54346 0.74262 0.0
C935 C 0.51148 0.4875 0.7297 0.0
C936 C 0.6315 0.55952 0.6854 0.0
C937 C 0.62009 0.52753 0.67323 0.0
C938 C 0.62425 0.55608 0.70595 0.0
C939 C 0.6066 0.52022 0.71468 0.0
C940 C 0.59664 0.48832 0.70266 0.0
C941 C 0.60275 0.49213 0.6821 0.0
C942 C 0.63444 0.5905 0.71826 0.0
C943 C 0.5787 0.44984 0.71148 0.0
H944 H 0.65011 0.52549 0.7801 0.0
H945 H 0.505 0.47527 0.76896 0.0
H946 H 0.6812 0.5218 0.73254 0.0
H947 H 0.69767 0.5701 0.73405 0.0
H948 H 0.70751 0.55171 0.75507 0.0
H949 H 0.47883 0.47765 0.73786 0.0
H950 H 0.52364 0.51332 0.72092 0.0
H951 H 0.50221 0.46341 0.71907 0.0
H952 H 0.6459 0.58734 0.67888 0.0
H953 H 0.59283 0.46687 0.67297 0.0
H954 H 0.66087 0.59962 0.73004 0.0
H955 H 0.60142 0.58145 0.72574 0.0
H956 H 0.64822 0.61644 0.70922 0.0
H957 H 0.60267 0.45549 0.72367 0.0
H958 H 0.57617 0.42905 0.70032 0.0
H959 H 0.54294 0.43531 0.71793 0.0
C960 C 0.63356 0.06502 0.54384 0.0
C961 C 0.59009 0.05336 0.53668 0.0
C962 C 0.6405 0.06431 0.56412 0.0
C963 C 0.6038 0.05337 0.57759 0.0
C964 C 0.56012 0.04228 0.57044 0.0
C965 C 0.55356 0.04188 0.55001 0.0
C966 C 0.68708 0.0753 0.5711 0.0
C967 C 0.52062 0.03148 0.5844 0.0
C968 C 0.60004 0.02089 0.62938 0.0
C969 C 0.61993 0.05583 0.64081 0.0
C970 C 0.5963 0.02004 0.60868 0.0
C971 C 0.61142 0.0546 0.59923 0.0
C972 C 0.63218 0.09008 0.61056 0.0
C973 C 0.63697 0.09043 0.63113 0.0
C974 C 0.5752 0.98192 0.59699 0.0
C975 C 0.64803 0.12741 0.60105 0.0
H976 H 0.66223 0.07473 0.5336 0.0
H977 H 0.52005 0.03315 0.5445 0.0
H978 H 0.70637 0.10273 0.58058 0.0
H979 H 0.68035 0.05166 0.58026 0.0
H980 H 0.71044 0.08008 0.55857 0.0
H981 H 0.48917 0.02419 0.57647 0.0
H982 H 0.50913 1.0057 0.59302 0.0
H983 H 0.53374 0.05642 0.59517 0.0
H984 H 0.58613 0.99379 0.63658 0.0
H985 H 0.65362 0.11788 0.63965 0.0
H986 H 0.59892 0.98718 0.58454 0.0
H987 H 0.54054 0.97052 0.59047 0.0
H988 H 0.56943 0.9588 0.6063 0.0
H989 H 0.67498 0.13595 0.58952 0.0
H990 H 0.66348 0.15255 0.61198 0.0
H991 H 0.61727 0.12216 0.5936 0.0
C992 C 0.5504 0.4845 0.89442 0.0
C993 C 0.59558 0.50523 0.88596 0.0
C994 C 0.54263 0.47189 0.91393 0.0
C995 C 0.58068 0.47924 0.92491 0.0
C996 C 0.62553 0.49778 0.91585 0.0
C997 C 0.63267 0.51119 0.89655 0.0
C998 C 0.49464 0.45311 0.92319 0.0
C999 C 0.66656 0.50504 0.92682 0.0
C1000 C 0.58318 0.49759 0.98027 0.0
C1001 C 0.56377 0.46057 0.98772 0.0
C1002 C 0.58829 0.50371 0.95992 0.0
C1003 C 0.57549 0.47251 0.94652 0.0
C1004 C 0.5577 0.43547 0.95384 0.0
C1005 C 0.55149 0.42976 0.97437 0.0
C1006 C 0.60693 0.54359 0.95276 0.0
C1007 C 0.54503 0.40193 0.93997 0.0
H1008 H 0.52172 0.47983 0.88613 0.0
H1009 H 0.66743 0.52669 0.88981 0.0
H1010 H 0.4814 0.42543 0.93037 0.0
H1011 H 0.49813 0.4735 0.93491 0.0
H1012 H 0.46773 0.4463 0.91218 0.0
H1013 H 0.69637 0.51401 0.91678 0.0
H1014 H 0.68014 0.52886 0.93836 0.0
H1015 H 0.65467 0.4781 0.93444 0.0
H1016 H 0.59452 0.52211 0.99039 0.0
H1017 H 0.53638 0.40102 0.97988 0.0
H1018 H 0.58119 0.54002 0.9422 0.0
H1019 H 0.64085 0.55737 0.94474 0.0
H1020 H 0.61328 0.56416 0.9651 0.0
H1021 H 0.51522 0.39278 0.9301 0.0
H1022 H 0.53447 0.37581 0.94807 0.0
H1023 H 0.57577 0.41178 0.93036 0.0
C1024 C 0.13072 0.49425 0.20979 0.0
C1025 C 0.13785 0.52559 0.2003 0.0
C1026 C 0.12917 0.49301 0.23054 0.0
C1027 C 0.13532 0.52405 0.24194 0.0
C1028 C 0.14196 0.55552 0.23235 0.0
C1029 C 0.14308 0.55586 0.21161 0.0
C1030 C 0.1216 0.45883 0.24027 0.0
C1031 C 0.14884 0.58923 0.244 0.0
C1032 C 0.09696 0.51111 0.29569 0.0
C1033 C 0.14058 0.53078 0.30566 0.0
C1034 C 0.09445 0.50769 0.27492 0.0
C1035 C 0.13659 0.52454 0.26391 0.0
C1036 C 0.1805 0.54354 0.27389 0.0
C1037 C 0.18193 0.5463 0.29465 0.0
C1038 C 1.04695 0.48705 0.26475 0.0
C1039 C 0.2262 0.56184 0.26264 0.0
H1040 H 0.12649 0.47076 0.201 0.0
H1041 H 0.14892 0.58025 0.20424 0.0
H1042 H 0.15321 0.46977 0.24939 0.0
H1043 H 0.09068 0.4445 0.25037 0.0
H1044 H 0.11535 0.43623 0.22927 0.0
H1045 H 0.15217 0.61081 0.23426 0.0
H1046 H 0.11841 0.5777 0.25412 0.0
H1047 H 0.18142 0.605 0.25332 0.0
H1048 H 1.06494 0.4994 0.30409 0.0
H1049 H 0.21559 0.5609 0.30228 0.0
H1050 H 1.04 0.46383 0.25406 0.0
H1051 H 1.0475 0.50857 0.2562 0.0
H1052 H 1.01711 0.47324 0.27544 0.0
H1053 H 0.22255 0.53947 0.25236 0.0
H1054 H 0.25708 0.57432 0.27264 0.0
H1055 H 0.23381 0.58585 0.25352 0.0
loop_
_geom_bond_atom_site_label_1
_geom_bond_atom_site_label_2
_geom_bond_distance
_geom_bond_site_symmetry_2
_ccdc_geom_bond_type
La0 C2 2.928 . S
La0 O20 2.521 . S
La0 O21 2.628 . S
La0 O22 2.554 . S
La0 O23 2.757 . S
La0 O24 2.470 . S
La0 O29 2.482 . S
La0 O31 2.503 1_455 S
La1 C11 2.928 . S
La1 O23 2.482 1_655 S
La1 O25 2.503 1_655 S
La1 O26 2.521 . S
La1 O27 2.628 . S
La1 O28 2.554 . S
La1 O29 2.757 1_655 S
La1 O30 2.470 . S
C2 La0 2.928 . S
C2 C3 1.503 . S
C2 O20 1.261 . S
C2 O21 1.243 . S
C3 C2 1.503 . S
C3 C4 1.394 . S
C3 C8 1.373 . S
C4 C3 1.394 . S
C4 C5 1.380 . S
C4 H32 0.930 . S
C5 C4 1.380 . S
C5 C6 1.376 . S
C5 H33 0.930 . S
C6 C5 1.376 . S
C6 C7 1.370 . S
C7 C6 1.370 . S
C7 C8 1.396 . S
C7 H34 0.929 . S
C8 C3 1.373 . S
C8 C7 1.396 . S
C8 H35 0.929 . S
C9 O22 1.240 . S
C9 O23 1.289 . S
C10 O24 1.258 . S
C10 O25 1.256 . S
C11 La1 2.928 . S
C11 C12 1.503 . S
C11 O26 1.261 . S
C11 O27 1.243 . S
C12 C11 1.503 . S
C12 C13 1.394 . S
C12 C17 1.373 . S
C13 C12 1.394 . S
C13 C14 1.380 . S
C13 H36 0.930 . S
C14 C13 1.380 . S
C14 C15 1.376 . S
C14 H37 0.930 . S
C15 C14 1.376 . S
C15 C16 1.370 . S
C16 C15 1.370 . S
C16 C17 1.396 . S
C16 H38 0.929 . S
C17 C12 1.373 . S
C17 C16 1.396 . S
C17 H39 0.929 . S
C18 O28 1.240 1_455 S
C18 O29 1.289 . S
C19 O30 1.258 . S
C19 O31 1.256 . S
O20 La0 2.521 . S
O20 C2 1.261 . S
O21 La0 2.628 . S
O21 C2 1.243 . S
O22 La0 2.554 . S
O22 C9 1.240 . S
O23 La0 2.757 . S
O23 La1 2.482 1_455 S
O23 C9 1.289 . S
O24 La0 2.470 . S
O24 C10 1.258 . S
O25 La1 2.503 1_455 S
O25 C10 1.256 . S
O26 La1 2.521 . S
O26 C11 1.261 . S
O27 La1 2.628 . S
O27 C11 1.243 . S
O28 La1 2.554 . S
O28 C18 1.240 1_655 S
O29 La0 2.482 . S
O29 La1 2.757 1_455 S
O29 C18 1.289 . S
O30 La1 2.470 . S
O30 C19 1.258 . S
O31 La0 2.503 1_655 S
O31 C19 1.256 . S
H32 C4 0.930 . S
H33 C5 0.930 . S
H34 C7 0.929 . S
H35 C8 0.929 . S
H36 C13 0.930 . S
H37 C14 0.930 . S
H38 C16 0.929 . S
H39 C17 0.929 . S
La40 C42 2.928 . S
La40 O60 2.521 . S
La40 O61 2.628 . S
La40 O62 2.554 . S
La40 O63 2.757 1_565 S
La40 O64 2.470 . S
La40 O69 2.482 . S
La40 O71 2.503 1_565 S
La41 C51 2.928 . S
La41 O63 2.482 . S
La41 O65 2.503 1_545 S
La41 O66 2.521 . S
La41 O67 2.628 . S
La41 O68 2.554 . S
La41 O69 2.757 1_545 S
La41 O70 2.470 . S
C42 La40 2.928 . S
C42 C43 1.503 . S
C42 O60 1.261 . S
C42 O61 1.243 . S
C43 C42 1.503 . S
C43 C44 1.394 . S
C43 C48 1.373 . S
C44 C43 1.394 . S
C44 C45 1.380 . S
C44 H72 0.930 . S
C45 C44 1.380 . S
C45 C46 1.376 . S
C45 H73 0.930 . S
C46 C45 1.376 . S
C46 C47 1.370 . S
C47 C46 1.370 . S
C47 C48 1.396 . S
C47 H74 0.929 . S
C48 C43 1.373 . S
C48 C47 1.396 . S
C48 H75 0.929 . S
C49 O62 1.240 1_545 S
C49 O63 1.289 . S
C50 O64 1.258 . S
C50 O65 1.256 . S
C51 La41 2.928 . S
C51 C52 1.503 . S
C51 O66 1.261 . S
C51 O67 1.243 . S
C52 C51 1.503 . S
C52 C53 1.394 . S
C52 C57 1.373 . S
C53 C52 1.394 . S
C53 C54 1.380 . S
C53 H76 0.930 . S
C54 C53 1.380 . S
C54 C55 1.376 . S
C54 H77 0.930 . S
C55 C54 1.376 . S
C55 C56 1.370 . S
C56 C55 1.370 . S
C56 C57 1.396 . S
C56 H78 0.929 . S
C57 C52 1.373 . S
C57 C56 1.396 . S
C57 H79 0.929 . S
C58 O68 1.240 . S
C58 O69 1.289 1_545 S
C59 O70 1.258 . S
C59 O71 1.256 . S
O60 La40 2.521 . S
O60 C42 1.261 . S
O61 La40 2.628 . S
O61 C42 1.243 . S
O62 La40 2.554 . S
O62 C49 1.240 1_565 S
O63 La40 2.757 1_545 S
O63 La41 2.482 . S
O63 C49 1.289 . S
O64 La40 2.470 . S
O64 C50 1.258 . S
O65 La41 2.503 1_565 S
O65 C50 1.256 . S
O66 La41 2.521 . S
O66 C51 1.261 . S
O67 La41 2.628 . S
O67 C51 1.243 . S
O68 La41 2.554 . S
O68 C58 1.240 . S
O69 La40 2.482 . S
O69 La41 2.757 1_565 S
O69 C58 1.289 1_565 S
O70 La41 2.470 . S
O70 C59 1.258 . S
O71 La40 2.503 1_545 S
O71 C59 1.256 . S
H72 C44 0.930 . S
H73 C45 0.930 . S
H74 C47 0.929 . S
H75 C48 0.929 . S
H76 C53 0.930 . S
H77 C54 0.930 . S
H78 C56 0.929 . S
H79 C57 0.929 . S
La80 C82 2.928 . S
La80 O100 2.521 . S
La80 O101 2.628 . S
La80 O102 2.554 . S
La80 O103 2.757 . S
La80 O104 2.470 . S
La80 O109 2.482 . S
La80 O111 2.503 . S
La81 C91 2.928 . S
La81 O103 2.482 . S
La81 O105 2.503 . S
La81 O106 2.521 . S
La81 O107 2.628 . S
La81 O108 2.554 . S
La81 O109 2.757 . S
La81 O110 2.470 . S
C82 La80 2.928 . S
C82 C83 1.503 . S
C82 O100 1.261 . S
C82 O101 1.243 . S
C83 C82 1.503 . S
C83 C84 1.394 . S
C83 C88 1.373 . S
C84 C83 1.394 . S
C84 C85 1.380 . S
C84 H112 0.930 . S
C85 C84 1.380 . S
C85 C86 1.376 . S
C85 H113 0.930 . S
C86 C85 1.376 . S
C86 C87 1.370 . S
C87 C86 1.370 . S
C87 C88 1.396 . S
C87 H114 0.929 . S
C88 C83 1.373 . S
C88 C87 1.396 . S
C88 H115 0.929 . S
C89 O102 1.240 . S
C89 O103 1.289 . S
C90 O104 1.258 . S
C90 O105 1.256 . S
C91 La81 2.928 . S
C91 C92 1.503 . S
C91 O106 1.261 . S
C91 O107 1.243 . S
C92 C91 1.503 . S
C92 C93 1.394 . S
C92 C97 1.373 . S
C93 C92 1.394 . S
C93 C94 1.380 . S
C93 H116 0.930 . S
C94 C93 1.380 . S
C94 C95 1.376 . S
C94 H117 0.930 . S
C95 C94 1.376 . S
C95 C96 1.370 . S
C96 C95 1.370 . S
C96 C97 1.396 . S
C96 H118 0.929 . S
C97 C92 1.373 . S
C97 C96 1.396 . S
C97 H119 0.929 . S
C98 O108 1.240 . S
C98 O109 1.289 . S
C99 O110 1.258 . S
C99 O111 1.256 . S
O100 La80 2.521 . S
O100 C82 1.261 . S
O101 La80 2.628 . S
O101 C82 1.243 . S
O102 La80 2.554 . S
O102 C89 1.240 . S
O103 La80 2.757 . S
O103 La81 2.482 . S
O103 C89 1.289 . S
O104 La80 2.470 . S
O104 C90 1.258 . S
O105 La81 2.503 . S
O105 C90 1.256 . S
O106 La81 2.521 . S
O106 C91 1.261 . S
O107 La81 2.628 . S
O107 C91 1.243 . S
O108 La81 2.554 . S
O108 C98 1.240 . S
O109 La80 2.482 . S
O109 La81 2.757 . S
O109 C98 1.289 . S
O110 La81 2.470 . S
O110 C99 1.258 . S
O111 La80 2.503 . S
O111 C99 1.256 . S
H112 C84 0.930 . S
H113 C85 0.930 . S
H114 C87 0.929 . S
H115 C88 0.929 . S
H116 C93 0.930 . S
H117 C94 0.930 . S
H118 C96 0.929 . S
H119 C97 0.929 . S
C120 C121 1.391 . S
C120 C124 1.391 . S
C120 H162 0.948 . S
C121 C120 1.391 . S
C121 C122 1.391 . S
C122 C121 1.391 . S
C122 H178 0.947 . S
C122 C179 1.392 . S
C123 C124 1.391 . S
C123 C127 1.397 . S
C123 C179 1.419 . S
C124 C120 1.391 . S
C124 C123 1.391 . S
C124 C125 1.399 . S
C125 C124 1.399 . S
C125 C128 1.396 . S
C125 C137 1.453 . S
C125 C138 1.684 . S
H126 C150 0.948 . S
C127 C123 1.397 . S
C127 C128 1.394 . S
C127 C146 1.723 . S
C128 C125 1.396 . S
C128 C127 1.394 . S
C128 C158 1.723 1_545 S
H129 C152 0.947 . S
H130 C153 0.948 . S
H131 C159 0.982 . S
H132 C160 0.979 . S
H133 C160 0.980 . S
H134 C160 0.983 . S
H135 C159 0.979 . S
H136 C159 0.977 . S
C137 C125 1.453 . S
C137 H166 0.982 . S
C137 H167 0.979 . S
C137 H168 0.977 1_545 S
C138 C125 1.684 . S
C138 H163 0.979 . S
C138 H164 0.980 . S
C138 H165 0.983 . S
C139 C140 1.391 . S
C139 C144 1.391 . S
C139 H169 0.948 . S
C140 C139 1.391 . S
C140 C141 1.391 1_545 S
C141 C140 1.391 1_565 S
C141 C142 1.392 . S
C141 H170 0.947 . S
C142 C141 1.392 . S
C142 C143 1.419 1_565 S
C142 H171 0.948 . S
C143 C142 1.419 1_545 S
C143 C144 1.391 . S
C143 C147 1.397 . S
C144 C139 1.391 . S
C144 C143 1.391 . S
C144 C145 1.399 . S
C145 C144 1.399 . S
C145 C146 1.396 . S
C145 C148 1.453 . S
C145 C149 1.684 . S
C146 C127 1.723 . S
C146 C145 1.396 . S
C146 C147 1.394 . S
C147 C143 1.397 . S
C147 C146 1.394 . S
C147 C157 1.723 1_545 S
C148 C145 1.453 . S
C148 H172 0.982 . S
C148 H173 0.979 . S
C148 H174 0.977 . S
C149 C145 1.684 . S
C149 H175 0.979 . S
C149 H176 0.980 . S
C149 H177 0.983 . S
C150 H126 0.948 . S
C150 C151 1.391 . S
C150 C155 1.391 . S
C151 C150 1.391 . S
C151 C152 1.391 . S
C152 H129 0.947 . S
C152 C151 1.391 . S
C152 C153 1.392 . S
C153 H130 0.948 . S
C153 C152 1.392 . S
C153 C154 1.419 . S
C154 C153 1.419 . S
C154 C155 1.391 . S
C154 C158 1.397 . S
C155 C150 1.391 . S
C155 C154 1.391 . S
C155 C156 1.399 . S
C156 C155 1.399 . S
C156 C157 1.396 . S
C156 C159 1.453 . S
C156 C160 1.684 . S
C157 C147 1.723 1_565 S
C157 C156 1.396 . S
C157 C158 1.394 . S
C158 C128 1.723 1_565 S
C158 C154 1.397 . S
C158 C157 1.394 . S
C159 H131 0.982 . S
C159 H135 0.979 . S
C159 H136 0.977 . S
C159 C156 1.453 . S
C160 H132 0.979 . S
C160 H133 0.980 . S
C160 H134 0.983 . S
C160 C156 1.684 . S
H161 C179 0.948 . S
H162 C120 0.948 . S
H163 C138 0.979 . S
H164 C138 0.980 . S
H165 C138 0.983 . S
H166 C137 0.982 . S
H167 C137 0.979 . S
H168 C137 0.977 1_565 S
H169 C139 0.948 . S
H170 C141 0.947 . S
H171 C142 0.948 . S
H172 C148 0.982 . S
H173 C148 0.979 . S
H174 C148 0.977 . S
H175 C149 0.979 . S
H176 C149 0.980 . S
H177 C149 0.983 . S
H178 C122 0.947 . S
C179 C122 1.392 . S
C179 C123 1.419 . S
C179 H161 0.948 . S
C180 C181 1.391 . S
C180 C184 1.391 . S
C180 H222 0.948 . S
C181 C180 1.391 . S
C181 C182 1.391 . S
C182 C181 1.391 . S
C182 H238 0.947 . S
C182 C239 1.392 . S
C183 C184 1.391 . S
C183 C187 1.397 . S
C183 C239 1.419 . S
C184 C180 1.391 . S
C184 C183 1.391 . S
C184 C185 1.399 . S
C185 C184 1.399 . S
C185 C188 1.396 . S
C185 C197 1.453 . S
C185 C198 1.684 . S
H186 C210 0.948 . S
C187 C183 1.397 . S
C187 C188 1.394 . S
C187 C206 1.723 . S
C188 C185 1.396 . S
C188 C187 1.394 . S
C188 C218 1.723 . S
H189 C212 0.947 . S
H190 C213 0.948 . S
H191 C219 0.982 . S
H192 C220 0.979 . S
H193 C220 0.980 . S
H194 C220 0.983 . S
H195 C219 0.979 . S
H196 C219 0.977 . S
C197 C185 1.453 . S
C197 H226 0.982 . S
C197 H227 0.979 . S
C197 H228 0.977 . S
C198 C185 1.684 . S
C198 H223 0.979 . S
C198 H224 0.980 . S
C198 H225 0.983 . S
C199 C200 1.391 . S
C199 C204 1.391 . S
C199 H229 0.948 . S
C200 C199 1.391 . S
C200 C201 1.391 . S
C201 C200 1.391 . S
C201 C202 1.392 . S
C201 H230 0.947 . S
C202 C201 1.392 . S
C202 C203 1.419 . S
C202 H231 0.948 . S
C203 C202 1.419 . S
C203 C204 1.391 . S
C203 C207 1.397 . S
C204 C199 1.391 . S
C204 C203 1.391 . S
C204 C205 1.399 . S
C205 C204 1.399 . S
C205 C206 1.396 . S
C205 C208 1.453 . S
C205 C209 1.684 . S
C206 C187 1.723 . S
C206 C205 1.396 . S
C206 C207 1.394 . S
C207 C203 1.397 . S
C207 C206 1.394 . S
C207 C217 1.723 . S
C208 C205 1.453 . S
C208 H232 0.982 . S
C208 H233 0.979 . S
C208 H234 0.977 . S
C209 C205 1.684 . S
C209 H235 0.979 . S
C209 H236 0.980 . S
C209 H237 0.983 . S
C210 H186 0.948 . S
C210 C211 1.391 . S
C210 C215 1.391 . S
C211 C210 1.391 . S
C211 C212 1.391 . S
C212 H189 0.947 . S
C212 C211 1.391 . S
C212 C213 1.392 . S
C213 H190 0.948 . S
C213 C212 1.392 . S
C213 C214 1.419 . S
C214 C213 1.419 . S
C214 C215 1.391 . S
C214 C218 1.397 . S
C215 C210 1.391 . S
C215 C214 1.391 . S
C215 C216 1.399 . S
C216 C215 1.399 . S
C216 C217 1.396 . S
C216 C219 1.453 . S
C216 C220 1.684 . S
C217 C207 1.723 . S
C217 C216 1.396 . S
C217 C218 1.394 . S
C218 C188 1.723 . S
C218 C214 1.397 . S
C218 C217 1.394 . S
C219 H191 0.982 . S
C219 H195 0.979 . S
C219 H196 0.977 . S
C219 C216 1.453 . S
C220 H192 0.979 . S
C220 H193 0.980 . S
C220 H194 0.983 . S
C220 C216 1.684 . S
H221 C239 0.948 . S
H222 C180 0.948 . S
H223 C198 0.979 . S
H224 C198 0.980 . S
H225 C198 0.983 . S
H226 C197 0.982 . S
H227 C197 0.979 . S
H228 C197 0.977 . S
H229 C199 0.948 . S
H230 C201 0.947 . S
H231 C202 0.948 . S
H232 C208 0.982 . S
H233 C208 0.979 . S
H234 C208 0.977 . S
H235 C209 0.979 . S
H236 C209 0.980 . S
H237 C209 0.983 . S
H238 C182 0.947 . S
C239 C182 1.392 . S
C239 C183 1.419 . S
C239 H221 0.948 . S
C240 C241 1.391 . S
C240 C244 1.391 . S
C240 H282 0.948 . S
C241 C240 1.391 . S
C241 C242 1.391 . S
C242 C241 1.391 . S
C242 H298 0.947 . S
C242 C299 1.392 . S
C243 C244 1.391 . S
C243 C247 1.397 . S
C243 C299 1.419 . S
C244 C240 1.391 . S
C244 C243 1.391 . S
C244 C245 1.399 . S
C245 C244 1.399 . S
C245 C248 1.396 . S
C245 C257 1.453 . S
C245 C258 1.684 . S
H246 C270 0.948 . S
C247 C243 1.397 . S
C247 C248 1.394 . S
C247 C266 1.723 . S
C248 C245 1.396 . S
C248 C247 1.394 . S
C248 C278 1.723 . S
H249 C272 0.947 . S
H250 C273 0.948 1_455 S
H251 C279 0.982 . S
H252 C280 0.979 . S
H253 C280 0.980 . S
H254 C280 0.983 . S
H255 C279 0.979 . S
H256 C279 0.977 . S
C257 C245 1.453 . S
C257 H286 0.982 . S
C257 H287 0.979 . S
C257 H288 0.977 . S
C258 C245 1.684 . S
C258 H283 0.979 . S
C258 H284 0.980 . S
C258 H285 0.983 . S
C259 C260 1.391 . S
C259 C264 1.391 . S
C259 H289 0.948 . S
C260 C259 1.391 . S
C260 C261 1.391 . S
C261 C260 1.391 . S
C261 C262 1.392 . S
C261 H290 0.947 1_455 S
C262 C261 1.392 . S
C262 C263 1.419 . S
C262 H291 0.948 1_455 S
C263 C262 1.419 . S
C263 C264 1.391 . S
C263 C267 1.397 . S
C264 C259 1.391 . S
C264 C263 1.391 . S
C264 C265 1.399 . S
C265 C264 1.399 . S
C265 C266 1.396 . S
C265 C268 1.453 . S
C265 C269 1.684 . S
C266 C247 1.723 . S
C266 C265 1.396 . S
C266 C267 1.394 . S
C267 C263 1.397 . S
C267 C266 1.394 . S
C267 C277 1.723 . S
C268 C265 1.453 . S
C268 H292 0.982 . S
C268 H293 0.979 . S
C268 H294 0.977 . S
C269 C265 1.684 . S
C269 H295 0.979 . S
C269 H296 0.980 . S
C269 H297 0.983 . S
C270 H246 0.948 . S
C270 C271 1.391 . S
C270 C275 1.391 . S
C271 C270 1.391 . S
C271 C272 1.391 . S
C272 H249 0.947 . S
C272 C271 1.391 . S
C272 C273 1.392 . S
C273 H250 0.948 1_655 S
C273 C272 1.392 . S
C273 C274 1.419 . S
C274 C273 1.419 . S
C274 C275 1.391 . S
C274 C278 1.397 1_655 S
C275 C270 1.391 . S
C275 C274 1.391 . S
C275 C276 1.399 . S
C276 C275 1.399 . S
C276 C277 1.396 1_655 S
C276 C279 1.453 . S
C276 C280 1.684 . S
C277 C267 1.723 . S
C277 C276 1.396 1_455 S
C277 C278 1.394 . S
C278 C248 1.723 . S
C278 C274 1.397 1_455 S
C278 C277 1.394 . S
C279 H251 0.982 . S
C279 H255 0.979 . S
C279 H256 0.977 . S
C279 C276 1.453 . S
C280 H252 0.979 . S
C280 H253 0.980 . S
C280 H254 0.983 . S
C280 C276 1.684 . S
H281 C299 0.948 . S
H282 C240 0.948 . S
H283 C258 0.979 . S
H284 C258 0.980 . S
H285 C258 0.983 . S
H286 C257 0.982 . S
H287 C257 0.979 . S
H288 C257 0.977 . S
H289 C259 0.948 . S
H290 C261 0.947 1_655 S
H291 C262 0.948 1_655 S
H292 C268 0.982 . S
H293 C268 0.979 . S
H294 C268 0.977 . S
H295 C269 0.979 . S
H296 C269 0.980 . S
H297 C269 0.983 . S
H298 C242 0.947 . S
C299 C242 1.392 . S
C299 C243 1.419 . S
C299 H281 0.948 . S
C300 C301 1.391 . S
C300 C304 1.391 . S
C300 H342 0.948 . S
C301 C300 1.391 . S
C301 C302 1.391 . S
C302 C301 1.391 . S
C302 H358 0.947 . S
C302 C359 1.392 . S
C303 C304 1.391 . S
C303 C307 1.397 . S
C303 C359 1.419 . S
C304 C300 1.391 . S
C304 C303 1.391 . S
C304 C305 1.399 . S
C305 C304 1.399 . S
C305 C308 1.396 . S
C305 C317 1.453 . S
C305 C318 1.684 . S
H306 C330 0.948 . S
C307 C303 1.397 . S
C307 C308 1.394 . S
C307 C326 1.723 . S
C308 C305 1.396 . S
C308 C307 1.394 . S
C308 C338 1.723 1_655 S
H309 C332 0.947 . S
H310 C333 0.948 . S
H311 C339 0.982 . S
H312 C340 0.979 . S
H313 C340 0.980 . S
H314 C340 0.983 . S
H315 C339 0.979 . S
H316 C339 0.977 . S
C317 C305 1.453 . S
C317 H346 0.982 1_655 S
C317 H347 0.979 . S
C317 H348 0.977 1_655 S
C318 C305 1.684 . S
C318 H343 0.979 . S
C318 H344 0.980 . S
C318 H345 0.983 . S
C319 C320 1.391 1_655 S
C319 C324 1.391 . S
C319 H349 0.948 . S
C320 C319 1.391 1_455 S
C320 C321 1.391 . S
C321 C320 1.391 . S
C321 C322 1.392 . S
C321 H350 0.947 . S
C322 C321 1.392 . S
C322 C323 1.419 . S
C322 H351 0.948 . S
C323 C322 1.419 . S
C323 C324 1.391 1_455 S
C323 C327 1.397 . S
C324 C319 1.391 . S
C324 C323 1.391 1_655 S
C324 C325 1.399 . S
C325 C324 1.399 . S
C325 C326 1.396 . S
C325 C328 1.453 . S
C325 C329 1.684 . S
C326 C307 1.723 . S
C326 C325 1.396 . S
C326 C327 1.394 1_655 S
C327 C323 1.397 . S
C327 C326 1.394 1_455 S
C327 C337 1.723 . S
C328 C325 1.453 . S
C328 H352 0.982 . S
C328 H353 0.979 . S
C328 H354 0.977 . S
C329 C325 1.684 . S
C329 H355 0.979 . S
C329 H356 0.980 . S
C329 H357 0.983 . S
C330 H306 0.948 . S
C330 C331 1.391 . S
C330 C335 1.391 . S
C331 C330 1.391 . S
C331 C332 1.391 . S
C332 H309 0.947 . S
C332 C331 1.391 . S
C332 C333 1.392 . S
C333 H310 0.948 . S
C333 C332 1.392 . S
C333 C334 1.419 . S
C334 C333 1.419 . S
C334 C335 1.391 . S
C334 C338 1.397 . S
C335 C330 1.391 . S
C335 C334 1.391 . S
C335 C336 1.399 . S
C336 C335 1.399 . S
C336 C337 1.396 . S
C336 C339 1.453 . S
C336 C340 1.684 . S
C337 C327 1.723 . S
C337 C336 1.396 . S
C337 C338 1.394 . S
C338 C308 1.723 1_455 S
C338 C334 1.397 . S
C338 C337 1.394 . S
C339 H311 0.982 . S
C339 H315 0.979 . S
C339 H316 0.977 . S
C339 C336 1.453 . S
C340 H312 0.979 . S
C340 H313 0.980 . S
C340 H314 0.983 . S
C340 C336 1.684 . S
H341 C359 0.948 . S
H342 C300 0.948 . S
H343 C318 0.979 . S
H344 C318 0.980 . S
H345 C318 0.983 . S
H346 C317 0.982 1_455 S
H347 C317 0.979 . S
H348 C317 0.977 1_455 S
H349 C319 0.948 . S
H350 C321 0.947 . S
H351 C322 0.948 . S
H352 C328 0.982 . S
H353 C328 0.979 . S
H354 C328 0.977 . S
H355 C329 0.979 . S
H356 C329 0.980 . S
H357 C329 0.983 . S
H358 C302 0.947 . S
C359 C302 1.392 . S
C359 C303 1.419 . S
C359 H341 0.948 . S
C360 C361 1.391 . S
C360 C364 1.391 . S
C360 H402 0.948 . S
C361 C360 1.391 . S
C361 C362 1.391 . S
C362 C361 1.391 . S
C362 H418 0.947 . S
C362 C419 1.392 . S
C363 C364 1.391 . S
C363 C367 1.397 . S
C363 C419 1.419 . S
C364 C360 1.391 . S
C364 C363 1.391 . S
C364 C365 1.399 . S
C365 C364 1.399 . S
C365 C368 1.396 . S
C365 C377 1.453 1_565 S
C365 C378 1.684 . S
H366 C390 0.948 . S
C367 C363 1.397 . S
C367 C368 1.394 . S
C367 C386 1.723 . S
C368 C365 1.396 . S
C368 C367 1.394 . S
C368 C398 1.723 1_565 S
H369 C392 0.947 . S
H370 C393 0.948 . S
H371 C399 0.982 . S
H372 C400 0.979 . S
H373 C400 0.980 . S
H374 C400 0.983 . S
H375 C399 0.979 . S
H376 C399 0.977 . S
C377 C365 1.453 1_545 S
C377 H406 0.982 . S
C377 H407 0.979 1_545 S
C377 H408 0.977 . S
C378 C365 1.684 . S
C378 H403 0.979 . S
C378 H404 0.980 . S
C378 H405 0.983 . S
C379 C380 1.391 . S
C379 C384 1.391 . S
C379 H409 0.948 . S
C380 C379 1.391 . S
C380 C381 1.391 1_565 S
C381 C380 1.391 1_545 S
C381 C382 1.392 . S
C381 H410 0.947 . S
C382 C381 1.392 . S
C382 C383 1.419 . S
C382 H411 0.948 . S
C383 C382 1.419 . S
C383 C384 1.391 1_545 S
C383 C387 1.397 . S
C384 C379 1.391 . S
C384 C383 1.391 1_565 S
C384 C385 1.399 . S
C385 C384 1.399 . S
C385 C386 1.396 . S
C385 C388 1.453 . S
C385 C389 1.684 . S
C386 C367 1.723 . S
C386 C385 1.396 . S
C386 C387 1.394 1_565 S
C387 C383 1.397 . S
C387 C386 1.394 1_545 S
C387 C397 1.723 . S
C388 C385 1.453 . S
C388 H412 0.982 . S
C388 H413 0.979 . S
C388 H414 0.977 . S
C389 C385 1.684 . S
C389 H415 0.979 . S
C389 H416 0.980 . S
C389 H417 0.983 . S
C390 H366 0.948 . S
C390 C391 1.391 . S
C390 C395 1.391 . S
C391 C390 1.391 . S
C391 C392 1.391 . S
C392 H369 0.947 . S
C392 C391 1.391 . S
C392 C393 1.392 . S
C393 H370 0.948 . S
C393 C392 1.392 . S
C393 C394 1.419 . S
C394 C393 1.419 . S
C394 C395 1.391 . S
C394 C398 1.397 . S
C395 C390 1.391 . S
C395 C394 1.391 . S
C395 C396 1.399 . S
C396 C395 1.399 . S
C396 C397 1.396 . S
C396 C399 1.453 . S
C396 C400 1.684 . S
C397 C387 1.723 . S
C397 C396 1.396 . S
C397 C398 1.394 . S
C398 C368 1.723 1_545 S
C398 C394 1.397 . S
C398 C397 1.394 . S
C399 H371 0.982 . S
C399 H375 0.979 . S
C399 H376 0.977 . S
C399 C396 1.453 . S
C400 H372 0.979 . S
C400 H373 0.980 . S
C400 H374 0.983 . S
C400 C396 1.684 . S
H401 C419 0.948 . S
H402 C360 0.948 . S
H403 C378 0.979 . S
H404 C378 0.980 . S
H405 C378 0.983 . S
H406 C377 0.982 . S
H407 C377 0.979 1_565 S
H408 C377 0.977 . S
H409 C379 0.948 . S
H410 C381 0.947 . S
H411 C382 0.948 . S
H412 C388 0.982 . S
H413 C388 0.979 . S
H414 C388 0.977 . S
H415 C389 0.979 . S
H416 C389 0.980 . S
H417 C389 0.983 . S
H418 C362 0.947 . S
C419 C362 1.392 . S
C419 C363 1.419 . S
C419 H401 0.948 . S
C420 C421 1.391 . S
C420 C424 1.391 . S
C420 H462 0.948 . S
C421 C420 1.391 . S
C421 C422 1.391 . S
C422 C421 1.391 . S
C422 H478 0.947 . S
C422 C479 1.392 . S
C423 C424 1.391 . S
C423 C427 1.397 . S
C423 C479 1.419 . S
C424 C420 1.391 . S
C424 C423 1.391 . S
C424 C425 1.399 . S
C425 C424 1.399 . S
C425 C428 1.396 . S
C425 C437 1.453 . S
C425 C438 1.684 . S
H426 C450 0.948 . S
C427 C423 1.397 . S
C427 C428 1.394 . S
C427 C446 1.723 . S
C428 C425 1.396 . S
C428 C427 1.394 . S
C428 C458 1.723 . S
H429 C452 0.947 . S
H430 C453 0.948 . S
H431 C459 0.982 . S
H432 C460 0.979 . S
H433 C460 0.980 . S
H434 C460 0.983 . S
H435 C459 0.979 . S
H436 C459 0.977 . S
C437 C425 1.453 . S
C437 H466 0.982 . S
C437 H467 0.979 . S
C437 H468 0.977 . S
C438 C425 1.684 . S
C438 H463 0.979 . S
C438 H464 0.980 . S
C438 H465 0.983 . S
C439 C440 1.391 . S
C439 C444 1.391 . S
C439 H469 0.948 . S
C440 C439 1.391 . S
C440 C441 1.391 . S
C441 C440 1.391 . S
C441 C442 1.392 . S
C441 H470 0.947 . S
C442 C441 1.392 . S
C442 C443 1.419 . S
C442 H471 0.948 . S
C443 C442 1.419 . S
C443 C444 1.391 . S
C443 C447 1.397 . S
C444 C439 1.391 . S
C444 C443 1.391 . S
C444 C445 1.399 . S
C445 C444 1.399 . S
C445 C446 1.396 . S
C445 C448 1.453 . S
C445 C449 1.684 . S
C446 C427 1.723 . S
C446 C445 1.396 . S
C446 C447 1.394 . S
C447 C443 1.397 . S
C447 C446 1.394 . S
C447 C457 1.723 . S
C448 C445 1.453 . S
C448 H472 0.982 . S
C448 H473 0.979 . S
C448 H474 0.977 . S
C449 C445 1.684 . S
C449 H475 0.979 . S
C449 H476 0.980 . S
C449 H477 0.983 . S
C450 H426 0.948 . S
C450 C451 1.391 . S
C450 C455 1.391 . S
C451 C450 1.391 . S
C451 C452 1.391 . S
C452 H429 0.947 . S
C452 C451 1.391 . S
C452 C453 1.392 . S
C453 H430 0.948 . S
C453 C452 1.392 . S
C453 C454 1.419 . S
C454 C453 1.419 . S
C454 C455 1.391 . S
C454 C458 1.397 . S
C455 C450 1.391 . S
C455 C454 1.391 . S
C455 C456 1.399 . S
C456 C455 1.399 . S
C456 C457 1.396 . S
C456 C459 1.453 . S
C456 C460 1.684 . S
C457 C447 1.723 . S
C457 C456 1.396 . S
C457 C458 1.394 . S
C458 C428 1.723 . S
C458 C454 1.397 . S
C458 C457 1.394 . S
C459 H431 0.982 . S
C459 H435 0.979 . S
C459 H436 0.977 . S
C459 C456 1.453 . S
C460 H432 0.979 . S
C460 H433 0.980 . S
C460 H434 0.983 . S
C460 C456 1.684 . S
H461 C479 0.948 . S
H462 C420 0.948 . S
H463 C438 0.979 . S
H464 C438 0.980 . S
H465 C438 0.983 . S
H466 C437 0.982 . S
H467 C437 0.979 . S
H468 C437 0.977 . S
H469 C439 0.948 . S
H470 C441 0.947 . S
H471 C442 0.948 . S
H472 C448 0.982 . S
H473 C448 0.979 . S
H474 C448 0.977 . S
H475 C449 0.979 . S
H476 C449 0.980 . S
H477 C449 0.983 . S
H478 C422 0.947 . S
C479 C422 1.392 . S
C479 C423 1.419 . S
C479 H461 0.948 . S
C480 C481 1.391 . S
C480 C482 1.394 . S
C480 H496 0.931 . S
C481 C480 1.391 . S
C481 C485 1.376 . S
C482 C480 1.394 . S
C482 C483 1.369 . S
C482 C486 1.531 . S
C483 C482 1.369 . S
C483 C484 1.410 . S
C483 C491 1.503 . S
C484 C483 1.410 . S
C484 C485 1.392 . S
C484 C487 1.511 . S
C485 C481 1.376 . S
C485 C484 1.392 . S
C485 H497 0.929 . S
C486 C482 1.531 . S
C486 H498 0.960 . S
C486 H499 0.962 . S
C486 H500 0.960 . S
C487 C484 1.511 . S
C487 H501 0.961 . S
C487 H502 0.961 . S
C487 H503 0.961 . S
C488 C489 1.370 . S
C488 C490 1.363 . S
C488 H504 0.931 . S
C489 C488 1.370 . S
C489 C493 1.408 . S
C490 C488 1.363 . S
C490 C491 1.370 . S
C490 C494 1.524 . S
C491 C483 1.503 . S
C491 C490 1.370 . S
C491 C492 1.403 . S
C492 C491 1.403 . S
C492 C493 1.404 . S
C492 C495 1.539 . S
C493 C489 1.408 . S
C493 C492 1.404 . S
C493 H505 0.930 . S
C494 C490 1.524 . S
C494 H506 0.956 . S
C494 H507 0.961 . S
C494 H508 0.961 . S
C495 C492 1.539 . S
C495 H509 0.958 . S
C495 H510 0.961 . S
C495 H511 0.960 . S
H496 C480 0.931 . S
H497 C485 0.929 . S
H498 C486 0.960 . S
H499 C486 0.962 . S
H500 C486 0.960 . S
H501 C487 0.961 . S
H502 C487 0.961 . S
H503 C487 0.961 . S
H504 C488 0.931 . S
H505 C493 0.930 . S
H506 C494 0.956 . S
H507 C494 0.961 . S
H508 C494 0.961 . S
H509 C495 0.958 . S
H510 C495 0.961 . S
H511 C495 0.960 . S
C512 C513 1.391 . S
C512 C514 1.394 . S
C512 H528 0.931 . S
C513 C512 1.391 . S
C513 C517 1.376 . S
C514 C512 1.394 . S
C514 C515 1.369 . S
C514 C518 1.531 . S
C515 C514 1.369 . S
C515 C516 1.410 . S
C515 C523 1.503 . S
C516 C515 1.410 . S
C516 C517 1.392 . S
C516 C519 1.511 . S
C517 C513 1.376 . S
C517 C516 1.392 . S
C517 H529 0.929 . S
C518 C514 1.531 . S
C518 H530 0.960 . S
C518 H531 0.962 . S
C518 H532 0.960 . S
C519 C516 1.511 . S
C519 H533 0.961 . S
C519 H534 0.961 . S
C519 H535 0.961 . S
C520 C521 1.370 . S
C520 C522 1.363 . S
C520 H536 0.931 . S
C521 C520 1.370 . S
C521 C525 1.408 . S
C522 C520 1.363 . S
C522 C523 1.370 . S
C522 C526 1.524 . S
C523 C515 1.503 . S
C523 C522 1.370 . S
C523 C524 1.403 . S
C524 C523 1.403 . S
C524 C525 1.404 . S
C524 C527 1.539 . S
C525 C521 1.408 . S
C525 C524 1.404 . S
C525 H537 0.930 . S
C526 C522 1.524 . S
C526 H538 0.956 . S
C526 H539 0.961 . S
C526 H540 0.961 . S
C527 C524 1.539 . S
C527 H541 0.958 . S
C527 H542 0.961 . S
C527 H543 0.960 . S
H528 C512 0.931 . S
H529 C517 0.929 . S
H530 C518 0.960 . S
H531 C518 0.962 . S
H532 C518 0.960 . S
H533 C519 0.961 . S
H534 C519 0.961 . S
H535 C519 0.961 . S
H536 C520 0.931 . S
H537 C525 0.930 . S
H538 C526 0.956 . S
H539 C526 0.961 . S
H540 C526 0.961 . S
H541 C527 0.958 . S
H542 C527 0.961 . S
H543 C527 0.960 . S
C544 C545 1.391 . S
C544 C546 1.394 . S
C544 H560 0.931 . S
C545 C544 1.391 . S
C545 C549 1.376 . S
C546 C544 1.394 . S
C546 C547 1.369 . S
C546 C550 1.531 . S
C547 C546 1.369 . S
C547 C548 1.410 . S
C547 C555 1.503 . S
C548 C547 1.410 . S
C548 C549 1.392 . S
C548 C551 1.511 . S
C549 C545 1.376 . S
C549 C548 1.392 . S
C549 H561 0.929 . S
C550 C546 1.531 . S
C550 H562 0.960 . S
C550 H563 0.962 . S
C550 H564 0.960 . S
C551 C548 1.511 . S
C551 H565 0.961 . S
C551 H566 0.961 . S
C551 H567 0.961 . S
C552 C553 1.370 . S
C552 C554 1.363 . S
C552 H568 0.931 . S
C553 C552 1.370 . S
C553 C557 1.408 . S
C554 C552 1.363 . S
C554 C555 1.370 . S
C554 C558 1.524 . S
C555 C547 1.503 . S
C555 C554 1.370 . S
C555 C556 1.403 . S
C556 C555 1.403 . S
C556 C557 1.404 . S
C556 C559 1.539 . S
C557 C553 1.408 . S
C557 C556 1.404 . S
C557 H569 0.930 . S
C558 C554 1.524 . S
C558 H570 0.956 . S
C558 H571 0.961 . S
C558 H572 0.961 . S
C559 C556 1.539 . S
C559 H573 0.958 . S
C559 H574 0.961 . S
C559 H575 0.960 . S
H560 C544 0.931 . S
H561 C549 0.929 . S
H562 C550 0.960 . S
H563 C550 0.962 . S
H564 C550 0.960 . S
H565 C551 0.961 . S
H566 C551 0.961 . S
H567 C551 0.961 . S
H568 C552 0.931 . S
H569 C557 0.930 . S
H570 C558 0.956 . S
H571 C558 0.961 . S
H572 C558 0.961 . S
H573 C559 0.958 . S
H574 C559 0.961 . S
H575 C559 0.960 . S
C576 C577 1.391 . S
C576 C578 1.394 . S
C576 H592 0.931 . S
C577 C576 1.391 . S
C577 C581 1.376 . S
C578 C576 1.394 . S
C578 C579 1.369 . S
C578 C582 1.531 . S
C579 C578 1.369 . S
C579 C580 1.410 . S
C579 C587 1.503 . S
C580 C579 1.410 . S
C580 C581 1.392 . S
C580 C583 1.511 . S
C581 C577 1.376 . S
C581 C580 1.392 . S
C581 H593 0.929 . S
C582 C578 1.531 . S
C582 H594 0.960 . S
C582 H595 0.962 . S
C582 H596 0.960 . S
C583 C580 1.511 . S
C583 H597 0.961 . S
C583 H598 0.961 . S
C583 H599 0.961 . S
C584 C585 1.370 . S
C584 C586 1.363 . S
C584 H600 0.931 . S
C585 C584 1.370 . S
C585 C589 1.408 . S
C586 C584 1.363 . S
C586 C587 1.370 . S
C586 C590 1.524 . S
C587 C579 1.503 . S
C587 C586 1.370 . S
C587 C588 1.403 . S
C588 C587 1.403 . S
C588 C589 1.404 . S
C588 C591 1.539 . S
C589 C585 1.408 . S
C589 C588 1.404 . S
C589 H601 0.930 . S
C590 C586 1.524 . S
C590 H602 0.956 . S
C590 H603 0.961 . S
C590 H604 0.961 . S
C591 C588 1.539 . S
C591 H605 0.958 . S
C591 H606 0.961 . S
C591 H607 0.960 . S
H592 C576 0.931 . S
H593 C581 0.929 . S
H594 C582 0.960 . S
H595 C582 0.962 . S
H596 C582 0.960 . S
H597 C583 0.961 . S
H598 C583 0.961 . S
H599 C583 0.961 . S
H600 C584 0.931 . S
H601 C589 0.930 . S
H602 C590 0.956 . S
H603 C590 0.961 . S
H604 C590 0.961 . S
H605 C591 0.958 . S
H606 C591 0.961 . S
H607 C591 0.960 . S
C608 C609 1.391 . S
C608 C610 1.394 . S
C608 H624 0.931 . S
C609 C608 1.391 . S
C609 C613 1.376 . S
C610 C608 1.394 . S
C610 C611 1.369 . S
C610 C614 1.531 . S
C611 C610 1.369 . S
C611 C612 1.410 . S
C611 C619 1.503 . S
C612 C611 1.410 . S
C612 C613 1.392 . S
C612 C615 1.511 . S
C613 C609 1.376 . S
C613 C612 1.392 . S
C613 H625 0.929 . S
C614 C610 1.531 . S
C614 H626 0.960 . S
C614 H627 0.962 . S
C614 H628 0.960 . S
C615 C612 1.511 . S
C615 H629 0.961 . S
C615 H630 0.961 . S
C615 H631 0.961 . S
C616 C617 1.370 . S
C616 C618 1.363 . S
C616 H632 0.931 . S
C617 C616 1.370 . S
C617 C621 1.408 . S
C618 C616 1.363 . S
C618 C619 1.370 . S
C618 C622 1.524 . S
C619 C611 1.503 . S
C619 C618 1.370 . S
C619 C620 1.403 . S
C620 C619 1.403 . S
C620 C621 1.404 . S
C620 C623 1.539 . S
C621 C617 1.408 . S
C621 C620 1.404 . S
C621 H633 0.930 . S
C622 C618 1.524 . S
C622 H634 0.956 . S
C622 H635 0.961 . S
C622 H636 0.961 . S
C623 C620 1.539 . S
C623 H637 0.958 . S
C623 H638 0.961 . S
C623 H639 0.960 . S
H624 C608 0.931 . S
H625 C613 0.929 . S
H626 C614 0.960 . S
H627 C614 0.962 . S
H628 C614 0.960 . S
H629 C615 0.961 . S
H630 C615 0.961 . S
H631 C615 0.961 . S
H632 C616 0.931 . S
H633 C621 0.930 . S
H634 C622 0.956 . S
H635 C622 0.961 . S
H636 C622 0.961 . S
H637 C623 0.958 . S
H638 C623 0.961 . S
H639 C623 0.960 . S
C640 C641 1.391 . S
C640 C642 1.394 . S
C640 H656 0.931 . S
C641 C640 1.391 . S
C641 C645 1.376 . S
C642 C640 1.394 . S
C642 C643 1.369 . S
C642 C646 1.531 . S
C643 C642 1.369 . S
C643 C644 1.410 . S
C643 C651 1.503 . S
C644 C643 1.410 . S
C644 C645 1.392 . S
C644 C647 1.511 . S
C645 C641 1.376 . S
C645 C644 1.392 . S
C645 H657 0.929 . S
C646 C642 1.531 . S
C646 H658 0.960 . S
C646 H659 0.962 . S
C646 H660 0.960 . S
C647 C644 1.511 . S
C647 H661 0.961 . S
C647 H662 0.961 . S
C647 H663 0.961 . S
C648 C649 1.370 . S
C648 C650 1.363 . S
C648 H664 0.931 . S
C649 C648 1.370 . S
C649 C653 1.408 . S
C650 C648 1.363 . S
C650 C651 1.370 . S
C650 C654 1.524 . S
C651 C643 1.503 . S
C651 C650 1.370 . S
C651 C652 1.403 . S
C652 C651 1.403 . S
C652 C653 1.404 . S
C652 C655 1.539 . S
C653 C649 1.408 . S
C653 C652 1.404 . S
C653 H665 0.930 . S
C654 C650 1.524 . S
C654 H666 0.956 . S
C654 H667 0.961 . S
C654 H668 0.961 . S
C655 C652 1.539 . S
C655 H669 0.958 . S
C655 H670 0.961 . S
C655 H671 0.960 . S
H656 C640 0.931 . S
H657 C645 0.929 . S
H658 C646 0.960 . S
H659 C646 0.962 . S
H660 C646 0.960 . S
H661 C647 0.961 . S
H662 C647 0.961 . S
H663 C647 0.961 . S
H664 C648 0.931 . S
H665 C653 0.930 . S
H666 C654 0.956 . S
H667 C654 0.961 . S
H668 C654 0.961 . S
H669 C655 0.958 . S
H670 C655 0.961 . S
H671 C655 0.960 . S
C672 C673 1.391 . S
C672 C674 1.394 . S
C672 H688 0.931 . S
C673 C672 1.391 . S
C673 C677 1.376 . S
C674 C672 1.394 . S
C674 C675 1.369 . S
C674 C678 1.531 . S
C675 C674 1.369 . S
C675 C676 1.410 . S
C675 C683 1.503 . S
C676 C675 1.410 . S
C676 C677 1.392 . S
C676 C679 1.511 . S
C677 C673 1.376 . S
C677 C676 1.392 . S
C677 H689 0.929 . S
C678 C674 1.531 . S
C678 H690 0.960 . S
C678 H691 0.962 . S
C678 H692 0.960 . S
C679 C676 1.511 . S
C679 H693 0.961 . S
C679 H694 0.961 . S
C679 H695 0.961 . S
C680 C681 1.370 . S
C680 C682 1.363 . S
C680 H696 0.931 . S
C681 C680 1.370 . S
C681 C685 1.408 . S
C682 C680 1.363 . S
C682 C683 1.370 . S
C682 C686 1.524 . S
C683 C675 1.503 . S
C683 C682 1.370 . S
C683 C684 1.403 . S
C684 C683 1.403 . S
C684 C685 1.404 . S
C684 C687 1.539 . S
C685 C681 1.408 . S
C685 C684 1.404 . S
C685 H697 0.930 . S
C686 C682 1.524 . S
C686 H698 0.956 . S
C686 H699 0.961 . S
C686 H700 0.961 . S
C687 C684 1.539 . S
C687 H701 0.958 . S
C687 H702 0.961 . S
C687 H703 0.960 . S
H688 C672 0.931 . S
H689 C677 0.929 . S
H690 C678 0.960 . S
H691 C678 0.962 . S
H692 C678 0.960 . S
H693 C679 0.961 . S
H694 C679 0.961 . S
H695 C679 0.961 . S
H696 C680 0.931 . S
H697 C685 0.930 . S
H698 C686 0.956 . S
H699 C686 0.961 . S
H700 C686 0.961 . S
H701 C687 0.958 . S
H702 C687 0.961 . S
H703 C687 0.960 . S
C704 C705 1.391 . S
C704 C706 1.394 . S
C704 H720 0.931 . S
C705 C704 1.391 . S
C705 C709 1.376 . S
C706 C704 1.394 . S
C706 C707 1.369 . S
C706 C710 1.531 . S
C707 C706 1.369 . S
C707 C708 1.410 . S
C707 C715 1.503 . S
C708 C707 1.410 . S
C708 C709 1.392 . S
C708 C711 1.511 . S
C709 C705 1.376 . S
C709 C708 1.392 . S
C709 H721 0.929 . S
C710 C706 1.531 . S
C710 H722 0.960 . S
C710 H723 0.962 . S
C710 H724 0.960 . S
C711 C708 1.511 . S
C711 H725 0.961 . S
C711 H726 0.961 . S
C711 H727 0.961 . S
C712 C713 1.370 . S
C712 C714 1.363 . S
C712 H728 0.931 . S
C713 C712 1.370 . S
C713 C717 1.408 . S
C714 C712 1.363 . S
C714 C715 1.370 . S
C714 C718 1.524 . S
C715 C707 1.503 . S
C715 C714 1.370 . S
C715 C716 1.403 . S
C716 C715 1.403 . S
C716 C717 1.404 . S
C716 C719 1.539 . S
C717 C713 1.408 . S
C717 C716 1.404 . S
C717 H729 0.930 . S
C718 C714 1.524 . S
C718 H730 0.956 . S
C718 H731 0.961 . S
C718 H732 0.961 . S
C719 C716 1.539 . S
C719 H733 0.958 . S
C719 H734 0.961 . S
C719 H735 0.960 . S
H720 C704 0.931 . S
H721 C709 0.929 . S
H722 C710 0.960 . S
H723 C710 0.962 . S
H724 C710 0.960 . S
H725 C711 0.961 . S
H726 C711 0.961 . S
H727 C711 0.961 . S
H728 C712 0.931 . S
H729 C717 0.930 . S
H730 C718 0.956 . S
H731 C718 0.961 . S
H732 C718 0.961 . S
H733 C719 0.958 . S
H734 C719 0.961 . S
H735 C719 0.960 . S
C736 C737 1.391 . S
C736 C738 1.394 . S
C736 H752 0.931 . S
C737 C736 1.391 . S
C737 C741 1.376 . S
C738 C736 1.394 . S
C738 C739 1.369 . S
C738 C742 1.531 . S
C739 C738 1.369 . S
C739 C740 1.410 . S
C739 C747 1.503 . S
C740 C739 1.410 . S
C740 C741 1.392 . S
C740 C743 1.511 . S
C741 C737 1.376 . S
C741 C740 1.392 . S
C741 H753 0.929 . S
C742 C738 1.531 . S
C742 H754 0.960 . S
C742 H755 0.962 . S
C742 H756 0.960 . S
C743 C740 1.511 . S
C743 H757 0.961 . S
C743 H758 0.961 . S
C743 H759 0.961 . S
C744 C745 1.370 . S
C744 C746 1.363 . S
C744 H760 0.931 . S
C745 C744 1.370 . S
C745 C749 1.408 . S
C746 C744 1.363 . S
C746 C747 1.370 . S
C746 C750 1.524 . S
C747 C739 1.503 . S
C747 C746 1.370 . S
C747 C748 1.403 . S
C748 C747 1.403 . S
C748 C749 1.404 . S
C748 C751 1.539 . S
C749 C745 1.408 . S
C749 C748 1.404 . S
C749 H761 0.930 . S
C750 C746 1.524 . S
C750 H762 0.956 . S
C750 H763 0.961 . S
C750 H764 0.961 . S
C751 C748 1.539 . S
C751 H765 0.958 . S
C751 H766 0.961 . S
C751 H767 0.960 . S
H752 C736 0.931 . S
H753 C741 0.929 . S
H754 C742 0.960 . S
H755 C742 0.962 . S
H756 C742 0.960 . S
H757 C743 0.961 . S
H758 C743 0.961 . S
H759 C743 0.961 . S
H760 C744 0.931 . S
H761 C749 0.930 . S
H762 C750 0.956 . S
H763 C750 0.961 . S
H764 C750 0.961 . S
H765 C751 0.958 . S
H766 C751 0.961 . S
H767 C751 0.960 . S
C768 C769 1.391 . S
C768 C770 1.394 . S
C768 H784 0.931 . S
C769 C768 1.391 . S
C769 C773 1.376 . S
C770 C768 1.394 . S
C770 C771 1.369 . S
C770 C774 1.531 . S
C771 C770 1.369 . S
C771 C772 1.410 . S
C771 C779 1.503 . S
C772 C771 1.410 . S
C772 C773 1.392 . S
C772 C775 1.511 . S
C773 C769 1.376 . S
C773 C772 1.392 . S
C773 H785 0.929 . S
C774 C770 1.531 . S
C774 H786 0.960 . S
C774 H787 0.962 . S
C774 H788 0.960 . S
C775 C772 1.511 . S
C775 H789 0.961 . S
C775 H790 0.961 . S
C775 H791 0.961 . S
C776 C777 1.370 . S
C776 C778 1.363 . S
C776 H792 0.931 . S
C777 C776 1.370 . S
C777 C781 1.408 . S
C778 C776 1.363 . S
C778 C779 1.370 . S
C778 C782 1.524 . S
C779 C771 1.503 . S
C779 C778 1.370 . S
C779 C780 1.403 . S
C780 C779 1.403 . S
C780 C781 1.404 . S
C780 C783 1.539 . S
C781 C777 1.408 . S
C781 C780 1.404 . S
C781 H793 0.930 . S
C782 C778 1.524 . S
C782 H794 0.956 . S
C782 H795 0.961 . S
C782 H796 0.961 . S
C783 C780 1.539 . S
C783 H797 0.958 . S
C783 H798 0.961 . S
C783 H799 0.960 . S
H784 C768 0.931 . S
H785 C773 0.929 . S
H786 C774 0.960 . S
H787 C774 0.962 . S
H788 C774 0.960 . S
H789 C775 0.961 . S
H790 C775 0.961 . S
H791 C775 0.961 . S
H792 C776 0.931 . S
H793 C781 0.930 . S
H794 C782 0.956 . S
H795 C782 0.961 . S
H796 C782 0.961 . S
H797 C783 0.958 . S
H798 C783 0.961 . S
H799 C783 0.960 . S
C800 C801 1.391 . S
C800 C802 1.394 . S
C800 H816 0.931 . S
C801 C800 1.391 . S
C801 C805 1.376 . S
C802 C800 1.394 . S
C802 C803 1.369 . S
C802 C806 1.531 . S
C803 C802 1.369 . S
C803 C804 1.410 . S
C803 C811 1.503 . S
C804 C803 1.410 . S
C804 C805 1.392 . S
C804 C807 1.511 . S
C805 C801 1.376 . S
C805 C804 1.392 . S
C805 H817 0.929 . S
C806 C802 1.531 . S
C806 H818 0.960 . S
C806 H819 0.962 . S
C806 H820 0.960 . S
C807 C804 1.511 . S
C807 H821 0.961 . S
C807 H822 0.961 . S
C807 H823 0.961 . S
C808 C809 1.370 . S
C808 C810 1.363 . S
C808 H824 0.931 . S
C809 C808 1.370 . S
C809 C813 1.408 . S
C810 C808 1.363 . S
C810 C811 1.370 . S
C810 C814 1.524 . S
C811 C803 1.503 . S
C811 C810 1.370 . S
C811 C812 1.403 . S
C812 C811 1.403 . S
C812 C813 1.404 . S
C812 C815 1.539 . S
C813 C809 1.408 . S
C813 C812 1.404 . S
C813 H825 0.930 . S
C814 C810 1.524 . S
C814 H826 0.956 . S
C814 H827 0.961 . S
C814 H828 0.961 . S
C815 C812 1.539 . S
C815 H829 0.958 . S
C815 H830 0.961 . S
C815 H831 0.960 . S
H816 C800 0.931 . S
H817 C805 0.929 . S
H818 C806 0.960 . S
H819 C806 0.962 . S
H820 C806 0.960 . S
H821 C807 0.961 . S
H822 C807 0.961 . S
H823 C807 0.961 . S
H824 C808 0.931 . S
H825 C813 0.930 . S
H826 C814 0.956 . S
H827 C814 0.961 . S
H828 C814 0.961 . S
H829 C815 0.958 . S
H830 C815 0.961 . S
H831 C815 0.960 . S
C832 C833 1.391 . S
C832 C834 1.394 . S
C832 H848 0.931 . S
C833 C832 1.391 . S
C833 C837 1.376 . S
C834 C832 1.394 . S
C834 C835 1.369 . S
C834 C838 1.531 . S
C835 C834 1.369 . S
C835 C836 1.410 . S
C835 C843 1.503 . S
C836 C835 1.410 . S
C836 C837 1.392 . S
C836 C839 1.511 . S
C837 C833 1.376 . S
C837 C836 1.392 . S
C837 H849 0.929 . S
C838 C834 1.531 . S
C838 H850 0.960 . S
C838 H851 0.962 . S
C838 H852 0.960 . S
C839 C836 1.511 . S
C839 H853 0.961 . S
C839 H854 0.961 . S
C839 H855 0.961 . S
C840 C841 1.370 . S
C840 C842 1.363 . S
C840 H856 0.931 . S
C841 C840 1.370 . S
C841 C845 1.408 . S
C842 C840 1.363 . S
C842 C843 1.370 . S
C842 C846 1.524 . S
C843 C835 1.503 . S
C843 C842 1.370 . S
C843 C844 1.403 . S
C844 C843 1.403 . S
C844 C845 1.404 . S
C844 C847 1.539 . S
C845 C841 1.408 . S
C845 C844 1.404 . S
C845 H857 0.930 . S
C846 C842 1.524 . S
C846 H858 0.956 . S
C846 H859 0.961 . S
C846 H860 0.961 . S
C847 C844 1.539 . S
C847 H861 0.958 . S
C847 H862 0.961 . S
C847 H863 0.960 . S
H848 C832 0.931 . S
H849 C837 0.929 . S
H850 C838 0.960 . S
H851 C838 0.962 . S
H852 C838 0.960 . S
H853 C839 0.961 . S
H854 C839 0.961 . S
H855 C839 0.961 . S
H856 C840 0.931 . S
H857 C845 0.930 . S
H858 C846 0.956 . S
H859 C846 0.961 . S
H860 C846 0.961 . S
H861 C847 0.958 . S
H862 C847 0.961 . S
H863 C847 0.960 . S
C864 C865 1.391 . S
C864 C866 1.394 . S
C864 H880 0.931 . S
C865 C864 1.391 . S
C865 C869 1.376 . S
C866 C864 1.394 . S
C866 C867 1.369 . S
C866 C870 1.531 . S
C867 C866 1.369 . S
C867 C868 1.410 . S
C867 C875 1.503 . S
C868 C867 1.410 . S
C868 C869 1.392 . S
C868 C871 1.511 1_455 S
C869 C865 1.376 . S
C869 C868 1.392 . S
C869 H881 0.929 1_455 S
C870 C866 1.531 . S
C870 H882 0.960 . S
C870 H883 0.962 . S
C870 H884 0.960 . S
C871 C868 1.511 1_655 S
C871 H885 0.961 . S
C871 H886 0.961 . S
C871 H887 0.961 . S
C872 C873 1.336 1_554 S
C872 C874 1.363 . S
C872 H888 0.931 . S
C873 C872 1.336 1_556 S
C873 C877 1.389 1_556 S
C874 C872 1.363 . S
C874 C875 1.370 . S
C874 C878 1.524 . S
C875 C867 1.503 . S
C875 C874 1.370 . S
C875 C876 1.403 1_455 S
C876 C875 1.403 1_655 S
C876 C877 1.404 1_655 S
C876 C879 1.539 . S
C877 C873 1.389 1_554 S
C877 C876 1.404 1_455 S
C877 H889 0.930 1_454 S
C878 C874 1.524 . S
C878 H890 0.956 . S
C878 H891 0.961 . S
C878 H892 0.961 . S
C879 C876 1.539 . S
C879 H893 0.958 . S
C879 H894 0.961 . S
C879 H895 0.960 . S
H880 C864 0.931 . S
H881 C869 0.929 1_655 S
H882 C870 0.960 . S
H883 C870 0.962 . S
H884 C870 0.960 . S
H885 C871 0.961 . S
H886 C871 0.961 . S
H887 C871 0.961 . S
H888 C872 0.931 . S
H889 C877 0.930 1_656 S
H890 C878 0.956 . S
H891 C878 0.961 . S
H892 C878 0.961 . S
H893 C879 0.958 . S
H894 C879 0.961 . S
H895 C879 0.960 . S
C896 C897 1.391 . S
C896 C898 1.394 . S
C896 H912 0.931 . S
C897 C896 1.391 . S
C897 C901 1.376 . S
C898 C896 1.394 . S
C898 C899 1.369 . S
C898 C902 1.531 . S
C899 C898 1.369 . S
C899 C900 1.410 . S
C899 C907 1.503 . S
C900 C899 1.410 . S
C900 C901 1.392 . S
C900 C903 1.511 1_545 S
C901 C897 1.376 . S
C901 C900 1.392 . S
C901 H913 0.929 1_545 S
C902 C898 1.531 . S
C902 H914 0.960 . S
C902 H915 0.962 . S
C902 H916 0.960 . S
C903 C900 1.511 1_565 S
C903 H917 0.961 . S
C903 H918 0.961 . S
C903 H919 0.961 1_565 S
C904 C905 1.370 1_565 S
C904 C906 1.363 . S
C904 H920 0.931 . S
C905 C904 1.370 1_545 S
C905 C909 1.408 . S
C906 C904 1.363 . S
C906 C907 1.370 1_565 S
C906 C910 1.524 . S
C907 C899 1.503 . S
C907 C906 1.370 1_545 S
C907 C908 1.403 . S
C908 C907 1.403 . S
C908 C909 1.404 . S
C908 C911 1.539 . S
C909 C905 1.408 . S
C909 C908 1.404 . S
C909 H921 0.930 . S
C910 C906 1.524 . S
C910 H922 0.956 . S
C910 H923 0.961 . S
C910 H924 0.961 . S
C911 C908 1.539 . S
C911 H925 0.958 . S
C911 H926 0.961 . S
C911 H927 0.960 . S
H912 C896 0.931 . S
H913 C901 0.929 1_565 S
H914 C902 0.960 . S
H915 C902 0.962 . S
H916 C902 0.960 . S
H917 C903 0.961 . S
H918 C903 0.961 . S
H919 C903 0.961 1_545 S
H920 C904 0.931 . S
H921 C909 0.930 . S
H922 C910 0.956 . S
H923 C910 0.961 . S
H924 C910 0.961 . S
H925 C911 0.958 . S
H926 C911 0.961 . S
H927 C911 0.960 . S
C928 C929 1.391 . S
C928 C930 1.394 . S
C928 H944 0.931 . S
C929 C928 1.391 . S
C929 C933 1.376 . S
C930 C928 1.394 . S
C930 C931 1.369 . S
C930 C934 1.531 . S
C931 C930 1.369 . S
C931 C932 1.410 . S
C931 C939 1.503 . S
C932 C931 1.410 . S
C932 C933 1.392 . S
C932 C935 1.511 . S
C933 C929 1.376 . S
C933 C932 1.392 . S
C933 H945 0.929 . S
C934 C930 1.531 . S
C934 H946 0.960 . S
C934 H947 0.962 . S
C934 H948 0.960 . S
C935 C932 1.511 . S
C935 H949 0.961 . S
C935 H950 0.961 . S
C935 H951 0.961 . S
C936 C937 1.370 . S
C936 C938 1.363 . S
C936 H952 0.931 . S
C937 C936 1.370 . S
C937 C941 1.408 . S
C938 C936 1.363 . S
C938 C939 1.370 . S
C938 C942 1.524 . S
C939 C931 1.503 . S
C939 C938 1.370 . S
C939 C940 1.403 . S
C940 C939 1.403 . S
C940 C941 1.404 . S
C940 C943 1.539 . S
C941 C937 1.408 . S
C941 C940 1.404 . S
C941 H953 0.930 . S
C942 C938 1.524 . S
C942 H954 0.956 . S
C942 H955 0.961 . S
C942 H956 0.961 . S
C943 C940 1.539 . S
C943 H957 0.958 . S
C943 H958 0.961 . S
C943 H959 0.960 . S
H944 C928 0.931 . S
H945 C933 0.929 . S
H946 C934 0.960 . S
H947 C934 0.962 . S
H948 C934 0.960 . S
H949 C935 0.961 . S
H950 C935 0.961 . S
H951 C935 0.961 . S
H952 C936 0.931 . S
H953 C941 0.930 . S
H954 C942 0.956 . S
H955 C942 0.961 . S
H956 C942 0.961 . S
H957 C943 0.958 . S
H958 C943 0.961 . S
H959 C943 0.960 . S
C960 C961 1.391 . S
C960 C962 1.394 . S
C960 H976 0.931 . S
C961 C960 1.391 . S
C961 C965 1.376 1_545 S
C962 C960 1.394 . S
C962 C963 1.369 . S
C962 C966 1.531 . S
C963 C962 1.369 . S
C963 C964 1.410 1_545 S
C963 C971 1.503 . S
C964 C963 1.410 1_565 S
C964 C965 1.392 . S
C964 C967 1.511 . S
C965 C961 1.376 1_565 S
C965 C964 1.392 . S
C965 H977 0.929 . S
C966 C962 1.531 . S
C966 H978 0.960 . S
C966 H979 0.962 . S
C966 H980 0.960 . S
C967 C964 1.511 . S
C967 H981 0.961 . S
C967 H982 0.961 . S
C967 H983 0.957 1_565 S
C968 C969 1.370 . S
C968 C970 1.363 . S
C968 H984 0.931 . S
C969 C968 1.370 . S
C969 C973 1.408 1_565 S
C970 C968 1.363 . S
C970 C971 1.370 1_565 S
C970 C974 1.524 . S
C971 C963 1.503 . S
C971 C970 1.370 1_545 S
C971 C972 1.403 . S
C972 C971 1.403 . S
C972 C973 1.404 . S
C972 C975 1.539 . S
C973 C969 1.408 1_545 S
C973 C972 1.404 . S
C973 H985 0.930 . S
C974 C970 1.524 . S
C974 H986 0.956 . S
C974 H987 0.961 . S
C974 H988 0.961 . S
C975 C972 1.539 . S
C975 H989 0.958 . S
C975 H990 0.961 . S
C975 H991 0.960 . S
H976 C960 0.931 . S
H977 C965 0.929 . S
H978 C966 0.960 . S
H979 C966 0.962 . S
H980 C966 0.960 . S
H981 C967 0.961 . S
H982 C967 0.961 . S
H983 C967 0.957 1_545 S
H984 C968 0.931 . S
H985 C973 0.930 . S
H986 C974 0.956 . S
H987 C974 0.961 . S
H988 C974 0.961 . S
H989 C975 0.958 . S
H990 C975 0.961 . S
H991 C975 0.960 . S
C992 C993 1.391 . S
C992 C994 1.394 . S
C992 H1008 0.931 . S
C993 C992 1.391 . S
C993 C997 1.376 . S
C994 C992 1.394 . S
C994 C995 1.369 . S
C994 C998 1.531 . S
C995 C994 1.369 . S
C995 C996 1.410 . S
C995 C1003 1.503 . S
C996 C995 1.410 . S
C996 C997 1.392 . S
C996 C999 1.511 . S
C997 C993 1.376 . S
C997 C996 1.392 . S
C997 H1009 0.929 . S
C998 C994 1.531 . S
C998 H1010 0.960 . S
C998 H1011 0.962 . S
C998 H1012 0.960 . S
C999 C996 1.511 . S
C999 H1013 0.961 . S
C999 H1014 0.961 . S
C999 H1015 0.961 . S
C1000 C1001 1.370 . S
C1000 C1002 1.363 . S
C1000 H1016 0.931 . S
C1001 C1000 1.370 . S
C1001 C1005 1.408 . S
C1002 C1000 1.363 . S
C1002 C1003 1.370 . S
C1002 C1006 1.524 . S
C1003 C995 1.503 . S
C1003 C1002 1.370 . S
C1003 C1004 1.403 . S
C1004 C1003 1.403 . S
C1004 C1005 1.404 . S
C1004 C1007 1.539 . S
C1005 C1001 1.408 . S
C1005 C1004 1.404 . S
C1005 H1017 0.930 . S
C1006 C1002 1.524 . S
C1006 H1018 0.956 . S
C1006 H1019 0.961 . S
C1006 H1020 0.961 . S
C1007 C1004 1.539 . S
C1007 H1021 0.958 . S
C1007 H1022 0.961 . S
C1007 H1023 0.960 . S
H1008 C992 0.931 . S
H1009 C997 0.929 . S
H1010 C998 0.960 . S
H1011 C998 0.962 . S
H1012 C998 0.960 . S
H1013 C999 0.961 . S
H1014 C999 0.961 . S
H1015 C999 0.961 . S
H1016 C1000 0.931 . S
H1017 C1005 0.930 . S
H1018 C1006 0.956 . S
H1019 C1006 0.961 . S
H1020 C1006 0.961 . S
H1021 C1007 0.958 . S
H1022 C1007 0.961 . S
H1023 C1007 0.960 . S
C1024 C1025 1.391 . S
C1024 C1026 1.394 . S
C1024 H1040 0.931 . S
C1025 C1024 1.391 . S
C1025 C1029 1.376 . S
C1026 C1024 1.394 . S
C1026 C1027 1.369 . S
C1026 C1030 1.531 . S
C1027 C1026 1.369 . S
C1027 C1028 1.410 . S
C1027 C1035 1.503 . S
C1028 C1027 1.410 . S
C1028 C1029 1.392 . S
C1028 C1031 1.511 . S
C1029 C1025 1.376 . S
C1029 C1028 1.392 . S
C1029 H1041 0.929 . S
C1030 C1026 1.531 . S
C1030 H1042 0.960 . S
C1030 H1043 0.969 . S
C1030 H1044 0.960 . S
C1031 C1028 1.511 . S
C1031 H1045 0.961 1_455 S
C1031 H1046 0.961 1_455 S
C1031 H1047 0.961 . S
C1032 C1033 1.370 1_655 S
C1032 C1034 1.363 . S
C1032 H1048 0.931 . S
C1033 C1032 1.370 1_455 S
C1033 C1037 1.408 . S
C1034 C1032 1.363 . S
C1034 C1035 1.370 1_655 S
C1034 C1038 1.524 . S
C1035 C1027 1.503 . S
C1035 C1034 1.370 1_455 S
C1035 C1036 1.403 . S
C1036 C1035 1.403 . S
C1036 C1037 1.404 . S
C1036 C1039 1.539 . S
C1037 C1033 1.408 . S
C1037 C1036 1.404 . S
C1037 H1049 0.930 . S
C1038 C1034 1.524 . S
C1038 H1050 0.956 . S
C1038 H1051 0.961 . S
C1038 H1052 0.961 . S
C1039 C1036 1.539 . S
C1039 H1053 0.958 . S
C1039 H1054 0.961 . S
C1039 H1055 0.960 . S
H1040 C1024 0.931 . S
H1041 C1029 0.929 . S
H1042 C1030 0.960 . S
H1043 C1030 0.969 . S
H1044 C1030 0.960 . S
H1045 C1031 0.961 1_655 S
H1046 C1031 0.961 1_655 S
H1047 C1031 0.961 . S
H1048 C1032 0.931 . S
H1049 C1037 0.930 . S
H1050 C1038 0.956 . S
H1051 C1038 0.961 . S
H1052 C1038 0.961 . S
H1053 C1039 0.958 . S
H1054 C1039 0.961 . S
H1055 C1039 0.960 . S
C481 C6 0.657 . S
C489 C451 0.511 . S
C513 C59 1.911 . S
C521 C301 1.792 . S
C545 C86 1.202 . S
C553 C361 1.200 . S
C577 C15 0.477 . S
C585 C421 0.397 . S
C617 C331 2.035 . S
C609 C50 2.028 . S
C649 C391 1.313 . S
C641 C95 1.280 . S
C673 C46 1.191 . S
C681 C181 1.176 . S
C705 C99 3.116 . S
C713 C271 3.116 . S
C737 C10 2.046 . S
C745 C151 2.076 . S
C777 C211 1.297 . S
C769 C55 1.303 . S
C809 C241 2.889 . S
C801 C90 3.019 . S
C833 C19 1.895 . S
C841 C121 1.801 . S
C873 C260 1.807 . S
C865 C18 1.706 . S
C897 C49 1.318 . S
C905 C140 1.357 . S
C929 C98 1.413 . S
C937 C200 1.470 . S
C969 C380 1.451 . S
C961 C58 1.414 . S
C1001 C440 1.083 1_556 S
C993 C89 1.089 . S
C1025 C9 1.307 . S
C1033 C320 1.328 . S
