# Generated by pormake.
# Topology pyr, (3,6)-cn, num edge types: 1
# Building blocks:
#     Node 0, Type 0, BuildingBlock: KAKCAD_clean_linker_0, # of connection points: 3
#     Node 1, Type 0, BuildingBlock: KAKCAD_clean_linker_0, # of connection points: 3
#     Node 2, Type 0, BuildingBlock: KAKCAD_clean_linker_0, # of connection points: 3
#     Node 3, Type 0, BuildingBlock: KAKCAD_clean_linker_0, # of connection points: 3
#     Node 4, Type 0, BuildingBlock: KAKCAD_clean_linker_0, # of connection points: 3
#     Node 5, Type 0, BuildingBlock: KAKCAD_clean_linker_0, # of connection points: 3
#     Node 6, Type 0, BuildingBlock: KAKCAD_clean_linker_0, # of connection points: 3
#     Node 7, Type 0, BuildingBlock: KAKCAD_clean_linker_0, # of connection points: 3
#     Node 8, Type 1, BuildingBlock: PAMTUU_clean_sbu_0, # of connection points: 6
#     Node 9, Type 1, BuildingBlock: PAMTUU_clean_sbu_0, # of connection points: 6
#     Node 10, Type 1, BuildingBlock: PAMTUU_clean_sbu_0, # of connection points: 6
#     Node 11, Type 1, BuildingBlock: PAMTUU_clean_sbu_0, # of connection points: 6
#     Edge 12, Type (0, 1), None
#     Edge 13, Type (0, 1), None
#     Edge 14, Type (0, 1), None
#     Edge 15, Type (0, 1), None
#     Edge 16, Type (0, 1), None
#     Edge 17, Type (0, 1), None
#     Edge 18, Type (0, 1), None
#     Edge 19, Type (0, 1), None
#     Edge 20, Type (0, 1), None
#     Edge 21, Type (0, 1), None
#     Edge 22, Type (0, 1), None
#     Edge 23, Type (0, 1), None
#     Edge 24, Type (0, 1), None
#     Edge 25, Type (0, 1), None
#     Edge 26, Type (0, 1), None
#     Edge 27, Type (0, 1), None
#     Edge 28, Type (0, 1), None
#     Edge 29, Type (0, 1), None
#     Edge 30, Type (0, 1), None
#     Edge 31, Type (0, 1), None
#     Edge 32, Type (0, 1), None
#     Edge 33, Type (0, 1), None
#     Edge 34, Type (0, 1), None
#     Edge 35, Type (0, 1), None
# Relax obj value: 0.218
# Max RMSD: 0.168
# Mean RMSD: 0.071
data_MOF--net-pyr--node1-PAMTUU_clean_sbu_0--node2-KAKCAD_clean_linker_0--edge1-none
_symmetry_space_group_name_H-M    P1
_symmetry_Int_Tables_number       1
_symmetry_cell_setting            triclinic
loop_
_symmetry_equiv_pos_as_xyz
'x, y, z'
_cell_length_a     26.4555
_cell_length_b     26.314876
_cell_length_c     23.496446
_cell_angle_alpha  90.004786
_cell_angle_beta   89.736814
_cell_angle_gamma 104.47122
loop_
_atom_site_label
_atom_site_type_symbol
_atom_site_fract_x
_atom_site_fract_y
_atom_site_fract_z
_atom_type_partial_charge
C0 C 0.32247 0.31437 0.50535 0.0
C1 C 0.34416 0.27584 0.52908 0.0
C2 C 0.34842 0.34634 0.46173 0.0
C3 C 0.39681 0.34038 0.44078 0.0
C4 C 0.42345 0.31113 0.47457 0.0
C5 C 0.39676 0.27791 0.5174 0.0
C6 C 0.41007 0.35002 0.37858 0.0
C7 C 0.38241 0.37868 0.34544 0.0
C8 C 0.37085 0.36545 0.28834 0.0
C9 C 0.39555 0.33087 0.26103 0.0
C10 C 0.42964 0.30763 0.29111 0.0
C11 C 0.43695 0.31752 0.34956 0.0
C12 C 0.44802 0.2642 0.26506 0.0
C13 C 0.4115 0.22174 0.24106 0.0
C14 C 0.50082 0.26302 0.26696 0.0
C15 C 0.5169 0.22041 0.24385 0.0
C16 C 0.48014 0.17787 0.21983 0.0
C17 C 0.32287 0.37574 0.26388 0.0
C18 C 0.28089 0.33289 0.25062 0.0
C19 C 0.31526 0.42664 0.26255 0.0
C20 C 0.26619 0.43437 0.24922 0.0
C21 C 0.22374 0.39121 0.23857 0.0
C22 C 0.23166 0.34051 0.23861 0.0
C23 C 0.42728 0.17901 0.21904 0.0
H24 H 0.28245 0.31505 0.51442 0.0
H25 H 0.32631 0.36994 0.44042 0.0
H26 H 0.46271 0.30899 0.46406 0.0
H27 H 0.41546 0.25024 0.53722 0.0
H28 H 0.3632 0.40585 0.36537 0.0
H29 H 0.45838 0.29425 0.37268 0.0
H30 H 0.38562 0.31947 0.21733 0.0
H31 H 0.37041 0.22118 0.24013 0.0
H32 H 0.52955 0.2952 0.28587 0.0
H33 H 0.5579 0.2207 0.2449 0.0
H34 H 0.28543 0.29313 0.25259 0.0
H35 H 0.3468 0.46013 0.27351 0.0
H36 H 0.39787 0.14715 0.20058 0.0
H37 H 0.19953 0.30675 0.23031 0.0
H38 H 0.26082 0.47387 0.2496 0.0
C39 C 0.14274 0.86018 1.01964 0.0
C40 C 0.19539 0.86186 1.02994 0.0
C41 C 0.115 0.8263 0.9782 0.0
C42 C 0.14065 0.79597 0.94433 0.0
C43 C 0.18906 0.78967 0.96436 0.0
C44 C 0.21609 0.82237 1.0066 0.0
C45 C 0.12653 0.78559 0.88252 0.0
C46 C 0.09943 0.81791 0.85378 0.0
C47 C 0.10633 0.82743 0.79516 0.0
C48 C 0.14 0.8038 0.76457 0.0
C49 C 0.16496 0.76947 0.79165 0.0
C50 C 0.15379 0.75658 0.84901 0.0
C51 C 0.21312 0.75964 0.7666 0.0
C52 C 0.22144 0.70901 0.76551 0.0
C53 C 0.25462 0.80283 0.75249 0.0
C54 C 0.30406 0.79584 0.73989 0.0
C55 C 0.3127 0.74544 0.74011 0.0
C56 C 0.08858 0.87129 0.76939 0.0
C57 C 0.03604 0.8734 0.77204 0.0
C58 C 0.12561 0.91335 0.74502 0.0
C59 C 0.11062 0.95658 0.7234 0.0
C60 C 0.05804 0.95869 0.72499 0.0
C61 C 0.02073 0.91655 0.74932 0.0
C62 C 0.27074 0.7019 0.75159 0.0
H63 H 0.12476 0.88856 1.03933 0.0
H64 H 0.07573 0.82873 0.96867 0.0
H65 H 0.21036 0.7651 0.94319 0.0
H66 H 0.25608 0.8213 1.01475 0.0
H67 H 0.07829 0.84145 0.87713 0.0
H68 H 0.17317 0.72954 0.8687 0.0
H69 H 0.14968 0.81499 0.72066 0.0
H70 H 0.1903 0.67528 0.77712 0.0
H71 H 0.24954 0.84241 0.75427 0.0
H72 H 0.33581 0.82987 0.73097 0.0
H73 H 1.00694 0.84156 0.79127 0.0
H74 H 0.16653 0.91321 0.74353 0.0
H75 H 0.27669 0.66263 0.75215 0.0
H76 H 0.97993 0.91702 0.75099 0.0
H77 H 0.14043 0.98809 0.70467 0.0
C78 C 0.83979 0.53575 1.03298 0.0
C79 C 0.86888 0.50511 1.06063 0.0
C80 C 0.79248 0.51217 1.00578 0.0
C81 C 0.77358 0.45703 1.00381 0.0
C82 C 0.80374 0.4267 1.03101 0.0
C83 C 0.84996 0.45037 1.05979 0.0
C84 C 0.72322 0.43096 0.97373 0.0
C85 C 0.70377 0.45538 0.92785 0.0
C86 C 0.65765 0.42982 0.89889 0.0
C87 C 0.63118 0.37845 0.91574 0.0
C88 C 0.64953 0.35319 0.9613 0.0
C89 C 0.69453 0.38041 0.99049 0.0
C90 C 0.62275 0.29818 0.9791 0.0
C91 C 0.56811 0.28156 0.98519 0.0
C92 C 0.65248 0.26245 0.99319 0.0
C93 C 0.62872 0.21251 1.01476 0.0
C94 C 0.57432 0.1965 1.02308 0.0
C95 C 0.6376 0.45641 0.85036 0.0
C96 C 0.63185 0.50804 0.85564 0.0
C97 C 0.62347 0.43014 0.79844 0.0
C98 C 0.60417 0.45465 0.7532 0.0
C99 C 0.59732 0.50586 0.75877 0.0
C100 C 0.61142 0.53219 0.81074 0.0
C101 C 0.54423 0.23145 1.00714 0.0
H102 H 0.85337 0.57816 1.03288 0.0
H103 H 0.77078 0.53754 0.98673 0.0
H104 H 0.7926 0.38431 1.02937 0.0
H105 H 0.87194 0.42558 1.0797 0.0
H106 H 0.72511 0.49374 0.91312 0.0
H107 H 0.70659 0.36188 1.02734 0.0
H108 H 0.59631 0.35809 0.89327 0.0
H109 H 0.54396 0.308 0.97504 0.0
H110 H 0.69455 0.27341 0.98826 0.0
H111 H 0.6534 0.18696 1.02633 0.0
H112 H 0.64215 0.5294 0.89504 0.0
H113 H 0.62769 0.39057 0.79263 0.0
H114 H 0.50227 0.2207 1.013 0.0
H115 H 0.60677 0.57158 0.81674 0.0
H116 H 0.59355 0.43288 0.7141 0.0
C117 C 0.92975 0.6102 0.31182 0.0
C118 C 0.94404 0.63627 0.25963 0.0
C119 C 0.90975 0.63481 0.35679 0.0
C120 C 0.90462 0.68662 0.35134 0.0
C121 C 0.91905 0.71271 0.29926 0.0
C122 C 0.93795 0.68774 0.25391 0.0
C123 C 0.88431 0.71328 0.39972 0.0
C124 C 0.8379 0.68769 0.4285 0.0
C125 C 0.81811 0.71191 0.47439 0.0
C126 C 0.84654 0.76233 0.49132 0.0
C127 C 0.89187 0.78957 0.46234 0.0
C128 C 0.91073 0.76453 0.41675 0.0
C129 C 0.91858 0.84423 0.48076 0.0
C130 C 0.88886 0.88019 0.49431 0.0
C131 C 0.97295 0.85998 0.48865 0.0
C132 C 0.99653 0.9094 0.51211 0.0
C133 C 0.96636 0.94447 0.52781 0.0
C134 C 0.76766 0.68565 0.50436 0.0
C135 C 0.74945 0.63048 0.5069 0.0
C136 C 0.73681 0.71579 0.53088 0.0
C137 C 0.69038 0.69186 0.55952 0.0
C138 C 0.67211 0.63707 0.56084 0.0
C139 C 0.70199 0.60663 0.53395 0.0
C140 C 0.91235 0.92951 0.51732 0.0
H141 H 0.93387 0.57064 0.31791 0.0
H142 H 0.89918 0.6136 0.39634 0.0
H143 H 0.91527 0.75241 0.29336 0.0
H144 H 0.94879 0.7093 0.21462 0.0
H145 H 0.8166 0.64943 0.41365 0.0
H146 H 0.94592 0.78491 0.39448 0.0
H147 H 0.83403 0.7807 0.52818 0.0
H148 H 0.847 0.8698 0.48798 0.0
H149 H 0.99701 0.83329 0.47893 0.0
H150 H 0.03822 0.91942 0.51948 0.0
H151 H 0.77182 0.60535 0.48838 0.0
H152 H 0.74761 0.75818 0.52878 0.0
H153 H 0.88774 0.95536 0.52823 0.0
H154 H 0.68887 0.56418 0.53431 0.0
H155 H 0.66775 0.71642 0.57888 0.0
C156 C 0.70113 0.83375 0.71004 0.0
C157 C 0.69185 0.88374 0.70339 0.0
C158 C 0.66957 0.7973 0.74678 0.0
C159 C 0.63154 0.8124 0.78059 0.0
C160 C 0.61383 0.85572 0.76122 0.0
C161 C 0.64373 0.89095 0.7224 0.0
C162 C 0.62541 0.79712 0.84259 0.0
C163 C 0.66512 0.77916 0.86986 0.0
C164 C 0.67351 0.78494 0.92869 0.0
C165 C 0.64143 0.80931 0.96102 0.0
C166 C 0.59982 0.82542 0.93542 0.0
C167 C 0.58972 0.81474 0.87731 0.0
C168 C 0.57301 0.86113 0.96632 0.0
C169 C 0.5656 0.85747 1.02562 0.0
C170 C 0.55974 0.90308 0.93738 0.0
C171 C 0.54205 0.94141 0.96716 0.0
C172 C 0.53845 0.93941 1.02658 0.0
C173 C 0.72105 0.77264 0.95319 0.0
C174 C 0.73583 0.72722 0.93586 0.0
C175 C 0.75507 0.80881 0.98847 0.0
C176 C 0.80363 0.80079 1.00389 0.0
C177 C 0.81935 0.75671 0.98394 0.0
C178 C 0.78442 0.71948 0.9508 0.0
C179 C 0.5491 0.89645 1.05541 0.0
H180 H 0.73608 0.82491 0.69315 0.0
H181 H 0.68039 0.76092 0.75455 0.0
H182 H 0.5817 0.86744 0.78118 0.0
H183 H 0.6329 0.92729 0.71391 0.0
H184 H 0.69379 0.76575 0.84521 0.0
H185 H 0.55647 0.82501 0.85842 0.0
H186 H 0.65061 0.81787 1.00539 0.0
H187 H 0.57415 0.8254 1.04939 0.0
H188 H 0.56578 0.90833 0.89196 0.0
H189 H 0.53447 0.97432 0.94402 0.0
H190 H 0.71028 0.69824 0.9093 0.0
H191 H 0.74534 0.84458 1.00194 0.0
H192 H 0.54593 0.89369 1.10138 0.0
H193 H 0.79492 0.6845 0.93589 0.0
H194 H 0.82975 0.83016 1.02949 0.0
C195 C 0.88751 0.23833 0.2285 0.0
C196 C 0.84964 0.25732 0.19958 0.0
C197 C 0.91813 0.26885 0.27002 0.0
C198 C 0.91114 0.31884 0.28353 0.0
C199 C 0.88279 0.34199 0.24505 0.0
C200 C 0.85153 0.3111 0.20372 0.0
C201 C 0.91741 0.33659 0.34413 0.0
C202 C 0.95284 0.31988 0.37938 0.0
C203 C 0.9425 0.3111 0.43782 0.0
C204 C 0.90096 0.32845 0.46255 0.0
C205 C 0.86887 0.35165 0.42893 0.0
C206 C 0.87739 0.35517 0.3699 0.0
C207 C 0.82133 0.36501 0.45262 0.0
C208 C 0.78771 0.33086 0.49045 0.0
C209 C 0.80627 0.40937 0.43242 0.0
C210 C 0.75788 0.41798 0.44729 0.0
C211 C 0.72341 0.38276 0.48322 0.0
C212 C 0.96876 0.2758 0.46998 0.0
C213 C 0.98231 0.23333 0.44221 0.0
C214 C 0.97561 0.2805 0.52923 0.0
C215 C 0.9921 0.24216 0.56007 0.0
C216 C 1.00331 0.19887 0.5323 0.0
C217 C 1.00004 0.19576 0.47296 0.0
C218 C 0.73936 0.33979 0.50578 0.0
H219 H 0.88842 0.19751 0.22561 0.0
H220 H 0.94076 0.24951 0.2968 0.0
H221 H 0.87915 0.38164 0.2517 0.0
H222 H 0.82458 0.32769 0.17982 0.0
H223 H 0.98531 0.30801 0.36009 0.0
H224 H 0.8487 0.36688 0.34369 0.0
H225 H 0.89172 0.32154 0.50724 0.0
H226 H 0.79759 0.2959 0.50618 0.0
H227 H 0.83148 0.43685 0.40384 0.0
H228 H 0.74723 0.45211 0.43025 0.0
H229 H 0.97655 0.22705 0.39696 0.0
H230 H 0.96677 0.31293 0.55217 0.0
H231 H 0.7136 0.31193 0.53352 0.0
H232 H 1.00796 0.16253 0.45064 0.0
H233 H 0.99492 0.24572 0.60597 0.0
C234 C 0.19582 0.60363 0.21581 0.0
C235 C 0.16326 0.63652 0.20051 0.0
C236 C 0.24306 0.62369 0.24484 0.0
C237 C 0.25896 0.67716 0.25949 0.0
C238 C 0.2255 0.70948 0.24545 0.0
C239 C 0.17872 0.68962 0.21616 0.0
C240 C 0.31114 0.70068 0.28628 0.0
C241 C 0.33258 0.6751 0.32956 0.0
C242 C 0.38062 0.69999 0.35586 0.0
C243 C 0.40683 0.7513 0.33766 0.0
C244 C 0.38604 0.77737 0.29463 0.0
C245 C 0.33925 0.75078 0.26852 0.0
C246 C 0.41155 0.83266 0.27641 0.0
C247 C 0.46615 0.85107 0.27028 0.0
C248 C 0.3803 0.86673 0.26122 0.0
C249 C 0.40221 0.91558 0.2365 0.0
C250 C 0.45627 0.93284 0.22767 0.0
C251 C 0.40283 0.67378 0.4036 0.0
C252 C 0.39964 0.61936 0.40366 0.0
C253 C 0.42834 0.70357 0.44969 0.0
C254 C 0.45092 0.68038 0.49332 0.0
C255 C 0.44876 0.62632 0.49298 0.0
C256 C 0.42225 0.59597 0.44771 0.0
C257 C 0.48832 0.90086 0.24639 0.0
H258 H 0.1851 0.56235 0.20492 0.0
H259 H 0.26767 0.59757 0.25453 0.0
H260 H 0.23547 0.75059 0.2571 0.0
H261 H 0.15448 0.71602 0.20616 0.0
H262 H 0.311 0.63674 0.34414 0.0
H263 H 0.32451 0.76934 0.23331 0.0
H264 H 0.44333 0.77127 0.3573 0.0
H265 H 0.49156 0.82614 0.28135 0.0
H266 H 0.33834 0.85506 0.26694 0.0
H267 H 0.37653 0.93952 0.223 0.0
H268 H 0.38063 0.59491 0.369 0.0
H269 H 0.43067 0.74515 0.45253 0.0
H270 H 0.53013 0.91298 0.23959 0.0
H271 H 0.4196 0.55427 0.44581 0.0
H272 H 0.47017 0.70525 0.52758 0.0
C273 C 0.13986 0.22299 0.7419 0.0
C274 C 0.08578 0.20566 0.73394 0.0
C275 C 0.1618 0.27206 0.76585 0.0
C276 C 0.13051 0.30618 0.78104 0.0
C277 C 0.0759 0.28766 0.77585 0.0
C278 C 0.05372 0.23768 0.75278 0.0
C279 C 0.15593 0.36163 0.79817 0.0
C280 C 0.20249 0.38809 0.77109 0.0
C281 C 0.23035 0.4385 0.78779 0.0
C282 C 0.209 0.46443 0.83099 0.0
C283 C 0.16122 0.43961 0.8582 0.0
C284 C 0.13517 0.38804 0.84108 0.0
C285 C 0.13911 0.4662 0.90577 0.0
C286 C 0.14178 0.52049 0.90485 0.0
C287 C 0.11415 0.43686 0.95264 0.0
C288 C 0.09144 0.46033 0.99607 0.0
C289 C 0.093 0.51424 0.99471 0.0
C290 C 0.28221 0.46209 0.76002 0.0
C291 C 0.31601 0.43003 0.74604 0.0
C292 C 0.29747 0.51541 0.74457 0.0
C293 C 0.34452 0.53561 0.7149 0.0
C294 C 0.3775 0.50302 0.69977 0.0
C295 C 0.36263 0.45005 0.71611 0.0
C296 C 0.11909 0.54419 0.94874 0.0
H297 H 0.1655 0.199 0.7282 0.0
H298 H 0.20378 0.28387 0.77088 0.0
H299 H 0.05049 0.31266 0.78694 0.0
H300 H 1.01188 0.22546 0.74656 0.0
H301 H 0.21719 0.36922 0.73594 0.0
H302 H 0.09883 0.36816 0.86146 0.0
H303 H 0.23044 0.50304 0.84478 0.0
H304 H 0.1604 0.54456 0.86954 0.0
H305 H 0.1123 0.39541 0.95618 0.0
H306 H 0.07255 0.43583 1.03097 0.0
H307 H 0.30646 0.38905 0.75828 0.0
H308 H 0.27253 0.54128 0.75419 0.0
H309 H 0.12124 0.58577 0.94612 0.0
H310 H 0.38725 0.42392 0.70621 0.0
H311 H 0.3548 0.5768 0.70345 0.0
Tb312 Tb 0.085 0.08257 0.60163 0.0
Tb313 Tb 0.96793 0.0687 0.65627 0.0
C314 C 0.98998 0.99437 0.5588 0.0
C315 C 0.22378 0.13889 0.56521 0.0
C316 C 0.30828 0.22746 0.55194 0.0
C317 C 0.31063 0.17853 0.52929 0.0
C318 C 0.26861 0.13464 0.53581 0.0
C319 C 0.22276 0.18644 0.59167 0.0
C320 C 0.26479 0.23039 0.58526 0.0
C321 C 0.17762 0.09434 0.56617 0.0
O322 O 0.04401 0.12675 0.5473 0.0
O323 O 0.9875 0.14409 0.61425 0.0
O324 O 0.01958 0.1254 0.7125 0.0
O325 O 0.09171 0.15199 0.65364 0.0
O326 O 0.89201 0.07511 0.64092 0.0
O327 O 0.91301 1.04839 0.72263 0.0
O328 O 0.99463 1.00098 0.68447 0.0
O329 O 0.08017 1.0447 0.68386 0.0
O330 O 0.03997 1.00647 0.57108 0.0
O331 O 0.95941 1.02354 0.57709 0.0
C332 C 1.01265 0.15484 0.56601 0.0
O333 O 0.16149 0.07693 0.61647 0.0
O334 O 0.13895 0.09853 0.53385 0.0
C335 C 0.06488 0.15795 0.69936 0.0
C336 C 0.82758 1.01275 0.68926 0.0
C337 C 0.73604 0.93028 0.6918 0.0
C338 C 0.73979 0.97653 0.72373 0.0
C339 C 0.78496 1.01726 0.72225 0.0
C340 C 0.82401 0.9678 0.65578 0.0
C341 C 0.77847 0.92689 0.65684 0.0
C342 C 0.87521 1.05546 0.69042 0.0
C343 C 0.04312 1.00376 0.69836 0.0
H344 H 0.34308 0.17499 0.50262 0.0
H345 H 0.27014 0.09803 0.5156 0.0
H346 H 0.18863 0.19022 0.61518 0.0
H347 H 0.26191 0.26742 0.6034 0.0
H348 H 0.70898 0.98051 0.75255 0.0
H349 H 0.7871 1.0518 0.74819 0.0
H350 H 0.85675 0.96398 0.62975 0.0
H351 H 0.7771 0.89219 0.63154 0.0
Tb352 Tb 0.57315 0.07118 0.14844 0.0
Tb353 Tb 0.45615 1.05591 1.09484 0.0
C354 C 0.52938 0.98415 1.05942 0.0
C355 C 0.71186 0.13452 0.17649 0.0
C356 C 0.80157 0.21899 0.17993 0.0
C357 C 0.80421 0.17022 0.15725 0.0
C358 C 0.75979 0.12827 0.156 0.0
C359 C 0.70796 0.18436 0.19406 0.0
C360 C 0.75241 0.22614 0.19596 0.0
C361 C 0.6667 0.08868 0.17934 0.0
O362 O 0.58056 0.11572 1.06896 0.0
O363 O 0.50026 0.13294 1.06491 0.0
O364 O 0.4596 0.09231 0.17772 0.0
O365 O 0.54467 0.13751 0.17796 0.0
O366 O 0.4024 1.03747 1.02761 0.0
O367 O 0.37969 1.06248 1.10884 0.0
O368 O 0.44953 0.98702 0.14798 0.0
O369 O 0.52284 1.0128 0.20475 0.0
O370 O 0.55466 0.99554 1.10725 0.0
O371 O 0.49795 1.01199 1.04058 0.0
C372 C 0.55027 0.14556 1.0523 0.0
O373 O 0.62841 0.09157 0.21367 0.0
O374 O 0.64998 0.0682 0.13033 0.0
C375 C 0.496 0.13355 0.19251 0.0
C376 C 0.31733 0.99878 1.06032 0.0
C377 C 0.23212 0.91045 1.05082 0.0
C378 C 0.22975 0.95908 1.02741 0.0
C379 C 0.27211 1.00284 1.03206 0.0
C380 C 0.31849 0.9516 1.08751 0.0
C381 C 0.27612 0.90777 1.08297 0.0
C382 C 0.36369 1.04314 1.05937 0.0
C383 C 0.47711 0.98061 0.19273 0.0
H384 H 0.84119 0.16357 0.14365 0.0
H385 H 0.76327 0.09038 0.14089 0.0
H386 H 0.67107 0.19057 0.2087 0.0
H387 H 0.74868 0.26284 0.21418 0.0
H388 H 0.19691 0.96242 1.00159 0.0
H389 H 0.27047 1.03917 1.01131 0.0
H390 H 0.35294 0.94799 1.11016 0.0
H391 H 0.27904 0.87099 1.10167 0.0
Tb392 Tb 0.52082 0.51321 0.59003 0.0
Tb393 Tb 0.52503 0.62079 0.66261 0.0
C394 C 0.47482 0.6032 0.53963 0.0
C395 C 0.57388 0.41329 0.52121 0.0
C396 C 0.67078 0.39072 0.49613 0.0
C397 C 0.64012 0.40395 0.45248 0.0
C398 C 0.5921 0.41482 0.46485 0.0
C399 C 0.60363 0.3981 0.56465 0.0
C400 C 0.65141 0.38668 0.55216 0.0
C401 C 0.5273 0.43301 0.53464 0.0
O402 O 0.59131 0.5704 0.56175 0.0
O403 O 0.605 0.63347 0.63223 0.0
O404 O 0.55147 0.56873 0.72231 0.0
O405 O 0.57464 0.51138 0.65956 0.0
O406 O 0.53588 0.70275 0.6664 0.0
O407 O 0.50875 0.65428 0.73955 0.0
O408 O 0.44418 0.57537 0.66213 0.0
O409 O 0.45624 0.4931 0.65128 0.0
O410 O 0.4682 0.55203 0.54457 0.0
O411 O 0.5046 0.63564 0.57543 0.0
C412 C 0.62063 0.61203 0.58696 0.0
O413 O 0.51284 0.43166 0.58786 0.0
O414 O 0.52626 0.4775 0.51087 0.0
C415 C 0.57386 0.53033 0.71125 0.0
C416 C 0.46469 0.71799 0.71774 0.0
C417 C 0.36576 0.73833 0.73053 0.0
C418 C 0.4075 0.7636 0.76564 0.0
C419 C 0.45663 0.75303 0.75965 0.0
C420 C 0.42366 0.69492 0.68088 0.0
C421 C 0.37448 0.7045 0.68764 0.0
C422 C 0.51295 0.69991 0.71593 0.0
C423 C 0.42807 0.5246 0.66942 0.0
H424 H 0.65359 0.40648 0.40871 0.0
H425 H 0.56998 0.42618 0.43052 0.0
H426 H 0.59094 0.39663 0.60863 0.0
H427 H 0.67414 0.37665 0.58669 0.0
H428 H 0.40148 0.78982 0.79912 0.0
H429 H 0.4877 0.77087 0.78868 0.0
H430 H 0.42916 0.66808 0.64791 0.0
H431 H 0.34304 0.685 0.65981 0.0
Tb432 Tb 0.02083 0.62783 1.0909 0.0
Tb433 Tb 1.01458 0.51988 0.16347 0.0
C434 C 0.06657 0.53753 1.041 0.0
C435 C 0.96941 0.72812 1.0215 0.0
C436 C 0.87225 0.74966 0.99652 0.0
C437 C 0.90229 0.73441 0.95322 0.0
C438 C 0.95045 0.7241 0.96551 0.0
C439 C 0.94041 0.74561 1.06441 0.0
C440 C 0.89247 0.75649 1.05195 0.0
C441 C 1.01577 0.70839 1.03548 0.0
O442 O 0.95033 0.57123 1.06199 0.0
O443 O 0.93496 0.50827 0.13272 0.0
O444 O 0.9888 0.57246 0.22318 0.0
O445 O 0.96654 0.63003 0.16032 0.0
O446 O 1.00233 0.43775 0.16695 0.0
O447 O 0.02959 0.48555 0.24024 0.0
O448 O 0.09585 0.56446 0.16378 0.0
O449 O 0.08511 0.64717 0.15202 0.0
O450 O 0.07366 0.58872 1.04592 0.0
O451 O 0.03592 0.50521 1.07647 0.0
C452 C 0.9202 0.52981 1.08713 0.0
O453 O 0.02913 0.70944 1.08891 0.0
O454 O 1.01734 0.66404 1.0117 0.0
C455 C 0.96703 0.61124 0.21208 0.0
C456 C 0.07275 0.42113 0.21777 0.0
C457 C 0.17096 0.3991 0.2295 0.0
C458 C 0.12894 0.37423 0.26489 0.0
C459 C 0.08016 0.38563 0.25943 0.0
C460 C 0.11405 0.44382 0.18067 0.0
C461 C 0.16286 0.43339 0.18688 0.0
C462 C 0.02492 0.43996 0.21637 0.0
C463 C 0.11261 0.61526 0.17053 0.0
H464 H 0.88816 0.72978 0.90985 0.0
H465 H 0.97202 0.71106 0.93153 0.0
H466 H 0.95374 0.74917 1.10807 0.0
H467 H 0.87026 0.76821 1.08618 0.0
H468 H 0.13446 0.34769 0.2982 0.0
H469 H 0.04888 0.36808 0.28865 0.0
H470 H 0.10907 0.47103 0.14791 0.0
H471 H 0.19451 0.45261 0.15884 0.0
loop_
_geom_bond_atom_site_label_1
_geom_bond_atom_site_label_2
_geom_bond_distance
_geom_bond_site_symmetry_2
_ccdc_geom_bond_type
C0 C1 1.386 . S
C0 C2 1.397 . S
C0 H24 0.931 . S
C1 C0 1.386 . S
C1 C5 1.397 . S
C2 C0 1.397 . S
C2 C3 1.384 . S
C2 H25 0.930 . S
C3 C2 1.384 . S
C3 C4 1.377 . S
C3 C6 1.481 . S
C4 C3 1.377 . S
C4 C5 1.389 . S
C4 H26 0.929 . S
C5 C1 1.397 . S
C5 C4 1.389 . S
C5 H27 0.931 . S
C6 C3 1.481 . S
C6 C7 1.387 . S
C6 C11 1.390 . S
C7 C6 1.387 . S
C7 C8 1.401 . S
C7 H28 0.930 . S
C8 C7 1.401 . S
C8 C9 1.376 . S
C8 C17 1.511 . S
C9 C8 1.376 . S
C9 C10 1.392 . S
C9 H30 0.931 . S
C10 C9 1.392 . S
C10 C11 1.361 . S
C10 C12 1.500 . S
C11 C6 1.390 . S
C11 C10 1.361 . S
C11 H29 0.931 . S
C12 C10 1.500 . S
C12 C13 1.371 . S
C12 C14 1.365 . S
C13 C12 1.371 . S
C13 C23 1.386 . S
C13 H31 0.931 . S
C14 C12 1.365 . S
C14 C15 1.409 . S
C14 H32 0.929 . S
C15 C14 1.409 . S
C15 C16 1.380 . S
C15 H33 0.930 . S
C16 C15 1.380 . S
C16 C23 1.357 . S
C17 C8 1.511 . S
C17 C18 1.341 . S
C17 C19 1.371 . S
C18 C17 1.341 . S
C18 C22 1.394 . S
C18 H34 0.930 . S
C19 C17 1.371 . S
C19 C20 1.392 . S
C19 H35 0.931 . S
C20 C19 1.392 . S
C20 C21 1.331 . S
C20 H38 0.932 . S
C21 C20 1.331 . S
C21 C22 1.336 . S
C22 C18 1.394 . S
C22 C21 1.336 . S
C22 H37 0.929 . S
C23 C13 1.386 . S
C23 C16 1.357 . S
C23 H36 0.928 . S
H24 C0 0.931 . S
H25 C2 0.930 . S
H26 C4 0.929 . S
H27 C5 0.931 . S
H28 C7 0.930 . S
H29 C11 0.931 . S
H30 C9 0.931 . S
H31 C13 0.931 . S
H32 C14 0.929 . S
H33 C15 0.930 . S
H34 C18 0.930 . S
H35 C19 0.931 . S
H36 C23 0.928 . S
H37 C22 0.929 . S
H38 C20 0.932 . S
C39 C40 1.386 . S
C39 C41 1.397 . S
C39 H63 0.931 . S
C40 C39 1.386 . S
C40 C44 1.397 . S
C41 C39 1.397 . S
C41 C42 1.384 . S
C41 H64 0.930 . S
C42 C41 1.384 . S
C42 C43 1.377 . S
C42 C45 1.481 . S
C43 C42 1.377 . S
C43 C44 1.389 . S
C43 H65 0.929 . S
C44 C40 1.397 . S
C44 C43 1.389 . S
C44 H66 0.931 . S
C45 C42 1.481 . S
C45 C46 1.387 . S
C45 C50 1.390 . S
C46 C45 1.387 . S
C46 C47 1.401 . S
C46 H67 0.930 . S
C47 C46 1.401 . S
C47 C48 1.376 . S
C47 C56 1.511 . S
C48 C47 1.376 . S
C48 C49 1.392 . S
C48 H69 0.931 . S
C49 C48 1.392 . S
C49 C50 1.361 . S
C49 C51 1.500 . S
C50 C45 1.390 . S
C50 C49 1.361 . S
C50 H68 0.931 . S
C51 C49 1.500 . S
C51 C52 1.371 . S
C51 C53 1.365 . S
C52 C51 1.371 . S
C52 C62 1.386 . S
C52 H70 0.931 . S
C53 C51 1.365 . S
C53 C54 1.409 . S
C53 H71 0.929 . S
C54 C53 1.409 . S
C54 C55 1.380 . S
C54 H72 0.930 . S
C55 C54 1.380 . S
C55 C62 1.357 . S
C56 C47 1.511 . S
C56 C57 1.341 1_455 S
C56 C58 1.371 . S
C57 C56 1.341 1_655 S
C57 C61 1.394 . S
C57 H73 0.930 . S
C58 C56 1.371 . S
C58 C59 1.392 1_455 S
C58 H74 0.931 . S
C59 C58 1.392 1_655 S
C59 C60 1.331 . S
C59 H77 0.932 . S
C60 C59 1.331 . S
C60 C61 1.336 . S
C61 C57 1.394 . S
C61 C60 1.336 . S
C61 H76 0.929 . S
C62 C52 1.386 . S
C62 C55 1.357 . S
C62 H75 0.928 . S
H63 C39 0.931 . S
H64 C41 0.930 . S
H65 C43 0.929 . S
H66 C44 0.931 . S
H67 C46 0.930 . S
H68 C50 0.931 . S
H69 C48 0.931 . S
H70 C52 0.931 . S
H71 C53 0.929 . S
H72 C54 0.930 . S
H73 C57 0.930 . S
H74 C58 0.931 . S
H75 C62 0.928 . S
H76 C61 0.929 . S
H77 C59 0.932 . S
C78 C79 1.386 . S
C78 C80 1.397 . S
C78 H102 0.931 . S
C79 C78 1.386 . S
C79 C83 1.397 . S
C80 C78 1.397 . S
C80 C81 1.384 . S
C80 H103 0.930 . S
C81 C80 1.384 . S
C81 C82 1.377 . S
C81 C84 1.481 . S
C82 C81 1.377 . S
C82 C83 1.389 . S
C82 H104 0.929 . S
C83 C79 1.397 . S
C83 C82 1.389 . S
C83 H105 0.931 . S
C84 C81 1.481 . S
C84 C85 1.387 . S
C84 C89 1.390 . S
C85 C84 1.387 . S
C85 C86 1.401 . S
C85 H106 0.930 . S
C86 C85 1.401 . S
C86 C87 1.376 . S
C86 C95 1.511 . S
C87 C86 1.376 . S
C87 C88 1.392 . S
C87 H108 0.931 . S
C88 C87 1.392 . S
C88 C89 1.361 . S
C88 C90 1.500 . S
C89 C84 1.390 . S
C89 C88 1.361 . S
C89 H107 0.931 . S
C90 C88 1.500 . S
C90 C91 1.371 . S
C90 C92 1.365 . S
C91 C90 1.371 . S
C91 C101 1.386 . S
C91 H109 0.931 . S
C92 C90 1.365 . S
C92 C93 1.409 . S
C92 H110 0.929 . S
C93 C92 1.409 . S
C93 C94 1.380 . S
C93 H111 0.930 . S
C94 C93 1.380 . S
C94 C101 1.357 . S
C95 C86 1.511 . S
C95 C96 1.341 . S
C95 C97 1.371 . S
C96 C95 1.341 . S
C96 C100 1.394 . S
C96 H112 0.930 . S
C97 C95 1.371 . S
C97 C98 1.392 . S
C97 H113 0.931 . S
C98 C97 1.392 . S
C98 C99 1.331 . S
C98 H116 0.932 . S
C99 C98 1.331 . S
C99 C100 1.336 . S
C100 C96 1.394 . S
C100 C99 1.336 . S
C100 H115 0.929 . S
C101 C91 1.386 . S
C101 C94 1.357 . S
C101 H114 0.928 . S
H102 C78 0.931 . S
H103 C80 0.930 . S
H104 C82 0.929 . S
H105 C83 0.931 . S
H106 C85 0.930 . S
H107 C89 0.931 . S
H108 C87 0.931 . S
H109 C91 0.931 . S
H110 C92 0.929 . S
H111 C93 0.930 . S
H112 C96 0.930 . S
H113 C97 0.931 . S
H114 C101 0.928 . S
H115 C100 0.929 . S
H116 C98 0.932 . S
C117 C118 1.386 . S
C117 C119 1.397 . S
C117 H141 0.931 . S
C118 C117 1.386 . S
C118 C122 1.397 . S
C119 C117 1.397 . S
C119 C120 1.384 . S
C119 H142 0.930 . S
C120 C119 1.384 . S
C120 C121 1.377 . S
C120 C123 1.481 . S
C121 C120 1.377 . S
C121 C122 1.389 . S
C121 H143 0.929 . S
C122 C118 1.397 . S
C122 C121 1.389 . S
C122 H144 0.931 1_655 S
C123 C120 1.481 . S
C123 C124 1.387 . S
C123 C128 1.390 . S
C124 C123 1.387 . S
C124 C125 1.401 . S
C124 H145 0.930 . S
C125 C124 1.401 . S
C125 C126 1.376 . S
C125 C134 1.511 . S
C126 C125 1.376 . S
C126 C127 1.392 . S
C126 H147 0.931 . S
C127 C126 1.392 . S
C127 C128 1.361 . S
C127 C129 1.500 . S
C128 C123 1.390 . S
C128 C127 1.361 . S
C128 H146 0.931 . S
C129 C127 1.500 . S
C129 C130 1.371 . S
C129 C131 1.365 . S
C130 C129 1.371 . S
C130 C140 1.386 . S
C130 H148 0.931 . S
C131 C129 1.365 . S
C131 C132 1.409 . S
C131 H149 0.929 . S
C132 C131 1.409 . S
C132 C133 1.380 . S
C132 H150 0.930 1_655 S
C133 C132 1.380 . S
C133 C140 1.357 . S
C134 C125 1.511 . S
C134 C135 1.341 . S
C134 C136 1.371 . S
C135 C134 1.341 . S
C135 C139 1.394 . S
C135 H151 0.930 . S
C136 C134 1.371 . S
C136 C137 1.392 . S
C136 H152 0.931 . S
C137 C136 1.392 . S
C137 C138 1.331 . S
C137 H155 0.932 . S
C138 C137 1.331 . S
C138 C139 1.336 . S
C139 C135 1.394 . S
C139 C138 1.336 . S
C139 H154 0.929 . S
C140 C130 1.386 . S
C140 C133 1.357 . S
C140 H153 0.928 . S
H141 C117 0.931 . S
H142 C119 0.930 . S
H143 C121 0.929 . S
H144 C122 0.931 1_455 S
H145 C124 0.930 . S
H146 C128 0.931 . S
H147 C126 0.931 . S
H148 C130 0.931 . S
H149 C131 0.929 . S
H150 C132 0.930 1_455 S
H151 C135 0.930 . S
H152 C136 0.931 . S
H153 C140 0.928 . S
H154 C139 0.929 . S
H155 C137 0.932 . S
C156 C157 1.386 . S
C156 C158 1.397 . S
C156 H180 0.931 . S
C157 C156 1.386 . S
C157 C161 1.397 . S
C158 C156 1.397 . S
C158 C159 1.384 . S
C158 H181 0.930 . S
C159 C158 1.384 . S
C159 C160 1.377 . S
C159 C162 1.481 . S
C160 C159 1.377 . S
C160 C161 1.389 . S
C160 H182 0.929 . S
C161 C157 1.397 . S
C161 C160 1.389 . S
C161 H183 0.931 . S
C162 C159 1.481 . S
C162 C163 1.387 . S
C162 C167 1.390 . S
C163 C162 1.387 . S
C163 C164 1.401 . S
C163 H184 0.930 . S
C164 C163 1.401 . S
C164 C165 1.376 . S
C164 C173 1.511 . S
C165 C164 1.376 . S
C165 C166 1.392 . S
C165 H186 0.931 . S
C166 C165 1.392 . S
C166 C167 1.361 . S
C166 C168 1.500 . S
C167 C162 1.390 . S
C167 C166 1.361 . S
C167 H185 0.931 . S
C168 C166 1.500 . S
C168 C169 1.371 . S
C168 C170 1.365 . S
C169 C168 1.371 . S
C169 C179 1.386 . S
C169 H187 0.931 . S
C170 C168 1.365 . S
C170 C171 1.409 . S
C170 H188 0.929 . S
C171 C170 1.409 . S
C171 C172 1.380 . S
C171 H189 0.930 . S
C172 C171 1.380 . S
C172 C179 1.357 . S
C173 C164 1.511 . S
C173 C174 1.341 . S
C173 C175 1.371 . S
C174 C173 1.341 . S
C174 C178 1.394 . S
C174 H190 0.930 . S
C175 C173 1.371 . S
C175 C176 1.392 . S
C175 H191 0.931 . S
C176 C175 1.392 . S
C176 C177 1.331 . S
C176 H194 0.932 . S
C177 C176 1.331 . S
C177 C178 1.336 . S
C178 C174 1.394 . S
C178 C177 1.336 . S
C178 H193 0.929 . S
C179 C169 1.386 . S
C179 C172 1.357 . S
C179 H192 0.928 . S
H180 C156 0.931 . S
H181 C158 0.930 . S
H182 C160 0.929 . S
H183 C161 0.931 . S
H184 C163 0.930 . S
H185 C167 0.931 . S
H186 C165 0.931 . S
H187 C169 0.931 . S
H188 C170 0.929 . S
H189 C171 0.930 . S
H190 C174 0.930 . S
H191 C175 0.931 . S
H192 C179 0.928 . S
H193 C178 0.929 . S
H194 C176 0.932 . S
C195 C196 1.386 . S
C195 C197 1.397 . S
C195 H219 0.931 . S
C196 C195 1.386 . S
C196 C200 1.397 . S
C197 C195 1.397 . S
C197 C198 1.384 . S
C197 H220 0.930 . S
C198 C197 1.384 . S
C198 C199 1.377 . S
C198 C201 1.481 . S
C199 C198 1.377 . S
C199 C200 1.389 . S
C199 H221 0.929 . S
C200 C196 1.397 . S
C200 C199 1.389 . S
C200 H222 0.931 . S
C201 C198 1.481 . S
C201 C202 1.387 . S
C201 C206 1.390 . S
C202 C201 1.387 . S
C202 C203 1.401 . S
C202 H223 0.930 . S
C203 C202 1.401 . S
C203 C204 1.376 . S
C203 C212 1.511 . S
C204 C203 1.376 . S
C204 C205 1.392 . S
C204 H225 0.931 . S
C205 C204 1.392 . S
C205 C206 1.361 . S
C205 C207 1.500 . S
C206 C201 1.390 . S
C206 C205 1.361 . S
C206 H224 0.931 . S
C207 C205 1.500 . S
C207 C208 1.371 . S
C207 C209 1.365 . S
C208 C207 1.371 . S
C208 C218 1.386 . S
C208 H226 0.931 . S
C209 C207 1.365 . S
C209 C210 1.409 . S
C209 H227 0.929 . S
C210 C209 1.409 . S
C210 C211 1.380 . S
C210 H228 0.930 . S
C211 C210 1.380 . S
C211 C218 1.357 . S
C212 C203 1.511 . S
C212 C213 1.341 . S
C212 C214 1.371 1_655 S
C213 C212 1.341 . S
C213 C217 1.394 1_655 S
C213 H229 0.930 . S
C214 C212 1.371 1_455 S
C214 C215 1.392 . S
C214 H230 0.931 . S
C215 C214 1.392 . S
C215 C216 1.331 . S
C215 H233 0.932 . S
C216 C215 1.331 . S
C216 C217 1.336 . S
C217 C213 1.394 1_455 S
C217 C216 1.336 . S
C217 H232 0.929 . S
C218 C208 1.386 . S
C218 C211 1.357 . S
C218 H231 0.928 . S
H219 C195 0.931 . S
H220 C197 0.930 . S
H221 C199 0.929 . S
H222 C200 0.931 . S
H223 C202 0.930 . S
H224 C206 0.931 . S
H225 C204 0.931 . S
H226 C208 0.931 . S
H227 C209 0.929 . S
H228 C210 0.930 . S
H229 C213 0.930 . S
H230 C214 0.931 . S
H231 C218 0.928 . S
H232 C217 0.929 . S
H233 C215 0.932 . S
C234 C235 1.386 . S
C234 C236 1.397 . S
C234 H258 0.931 . S
C235 C234 1.386 . S
C235 C239 1.397 . S
C236 C234 1.397 . S
C236 C237 1.384 . S
C236 H259 0.930 . S
C237 C236 1.384 . S
C237 C238 1.377 . S
C237 C240 1.481 . S
C238 C237 1.377 . S
C238 C239 1.389 . S
C238 H260 0.929 . S
C239 C235 1.397 . S
C239 C238 1.389 . S
C239 H261 0.931 . S
C240 C237 1.481 . S
C240 C241 1.387 . S
C240 C245 1.390 . S
C241 C240 1.387 . S
C241 C242 1.401 . S
C241 H262 0.930 . S
C242 C241 1.401 . S
C242 C243 1.376 . S
C242 C251 1.511 . S
C243 C242 1.376 . S
C243 C244 1.392 . S
C243 H264 0.931 . S
C244 C243 1.392 . S
C244 C245 1.361 . S
C244 C246 1.500 . S
C245 C240 1.390 . S
C245 C244 1.361 . S
C245 H263 0.931 . S
C246 C244 1.500 . S
C246 C247 1.371 . S
C246 C248 1.365 . S
C247 C246 1.371 . S
C247 C257 1.386 . S
C247 H265 0.931 . S
C248 C246 1.365 . S
C248 C249 1.409 . S
C248 H266 0.929 . S
C249 C248 1.409 . S
C249 C250 1.380 . S
C249 H267 0.930 . S
C250 C249 1.380 . S
C250 C257 1.357 . S
C251 C242 1.511 . S
C251 C252 1.341 . S
C251 C253 1.371 . S
C252 C251 1.341 . S
C252 C256 1.394 . S
C252 H268 0.930 . S
C253 C251 1.371 . S
C253 C254 1.392 . S
C253 H269 0.931 . S
C254 C253 1.392 . S
C254 C255 1.331 . S
C254 H272 0.932 . S
C255 C254 1.331 . S
C255 C256 1.336 . S
C256 C252 1.394 . S
C256 C255 1.336 . S
C256 H271 0.929 . S
C257 C247 1.386 . S
C257 C250 1.357 . S
C257 H270 0.928 . S
H258 C234 0.931 . S
H259 C236 0.930 . S
H260 C238 0.929 . S
H261 C239 0.931 . S
H262 C241 0.930 . S
H263 C245 0.931 . S
H264 C243 0.931 . S
H265 C247 0.931 . S
H266 C248 0.929 . S
H267 C249 0.930 . S
H268 C252 0.930 . S
H269 C253 0.931 . S
H270 C257 0.928 . S
H271 C256 0.929 . S
H272 C254 0.932 . S
C273 C274 1.386 . S
C273 C275 1.397 . S
C273 H297 0.931 . S
C274 C273 1.386 . S
C274 C278 1.397 . S
C275 C273 1.397 . S
C275 C276 1.384 . S
C275 H298 0.930 . S
C276 C275 1.384 . S
C276 C277 1.377 . S
C276 C279 1.481 . S
C277 C276 1.377 . S
C277 C278 1.389 . S
C277 H299 0.929 . S
C278 C274 1.397 . S
C278 C277 1.389 . S
C278 H300 0.931 1_455 S
C279 C276 1.481 . S
C279 C280 1.387 . S
C279 C284 1.390 . S
C280 C279 1.387 . S
C280 C281 1.401 . S
C280 H301 0.930 . S
C281 C280 1.401 . S
C281 C282 1.376 . S
C281 C290 1.511 . S
C282 C281 1.376 . S
C282 C283 1.392 . S
C282 H303 0.931 . S
C283 C282 1.392 . S
C283 C284 1.361 . S
C283 C285 1.500 . S
C284 C279 1.390 . S
C284 C283 1.361 . S
C284 H302 0.931 . S
C285 C283 1.500 . S
C285 C286 1.371 . S
C285 C287 1.365 . S
C286 C285 1.371 . S
C286 C296 1.386 . S
C286 H304 0.931 . S
C287 C285 1.365 . S
C287 C288 1.409 . S
C287 H305 0.929 . S
C288 C287 1.409 . S
C288 C289 1.380 . S
C288 H306 0.930 1_455 S
C289 C288 1.380 . S
C289 C296 1.357 . S
C290 C281 1.511 . S
C290 C291 1.341 . S
C290 C292 1.371 . S
C291 C290 1.341 . S
C291 C295 1.394 . S
C291 H307 0.930 . S
C292 C290 1.371 . S
C292 C293 1.392 . S
C292 H308 0.931 . S
C293 C292 1.392 . S
C293 C294 1.331 . S
C293 H311 0.932 . S
C294 C293 1.331 . S
C294 C295 1.336 . S
C295 C291 1.394 . S
C295 C294 1.336 . S
C295 H310 0.929 . S
C296 C286 1.386 . S
C296 C289 1.357 . S
C296 H309 0.928 . S
H297 C273 0.931 . S
H298 C275 0.930 . S
H299 C277 0.929 . S
H300 C278 0.931 1_655 S
H301 C280 0.930 . S
H302 C284 0.931 . S
H303 C282 0.931 . S
H304 C286 0.931 . S
H305 C287 0.929 . S
H306 C288 0.930 1_655 S
H307 C291 0.930 . S
H308 C292 0.931 . S
H309 C296 0.928 . S
H310 C295 0.929 . S
H311 C293 0.932 . S
Tb312 C321 2.764 . S
Tb312 O322 2.325 . S
Tb312 O325 2.303 . S
Tb312 O329 2.322 1_545 S
Tb312 O330 2.349 1_545 S
Tb312 O333 2.415 . S
Tb312 O334 2.399 . S
Tb313 O323 2.322 . S
Tb313 O324 2.349 . S
Tb313 O326 2.415 1_545 S
Tb313 O327 2.399 1_545 S
Tb313 O328 2.325 1_545 S
Tb313 O331 2.303 1_545 S
Tb313 C342 2.764 1_545 S
C314 O330 1.261 1_655 S
C314 O331 1.257 . S
C315 C318 1.358 . S
C315 C319 1.332 . S
C315 C321 1.504 . S
C316 C317 1.373 . S
C316 C320 1.308 . S
C317 C316 1.373 . S
C317 C318 1.429 . S
C317 H344 0.932 . S
C318 C315 1.358 . S
C318 C317 1.429 . S
C318 H345 0.930 . S
C319 C315 1.332 . S
C319 C320 1.394 . S
C319 H346 0.932 . S
C320 C316 1.308 . S
C320 C319 1.394 . S
C320 H347 0.929 . S
C321 Tb312 2.764 . S
C321 C315 1.504 . S
C321 O333 1.239 . S
C321 O334 1.263 . S
O322 Tb312 2.325 . S
O322 C332 1.236 1_455 S
O323 Tb313 2.322 . S
O323 C332 1.257 . S
O324 Tb313 2.349 . S
O324 C335 1.261 1_655 S
O325 Tb312 2.303 . S
O325 C335 1.257 . S
O326 Tb313 2.415 1_565 S
O326 C342 1.239 . S
O327 Tb313 2.399 1_565 S
O327 C342 1.263 . S
O328 Tb313 2.325 1_565 S
O328 C343 1.236 1_655 S
O329 Tb312 2.322 1_565 S
O329 C343 1.257 . S
O330 Tb312 2.349 1_565 S
O330 C314 1.261 1_455 S
O331 Tb313 2.303 1_565 S
O331 C314 1.257 . S
C332 O322 1.236 1_655 S
C332 O323 1.257 . S
O333 Tb312 2.415 . S
O333 C321 1.239 . S
O334 Tb312 2.399 . S
O334 C321 1.263 . S
C335 O324 1.261 1_455 S
C335 O325 1.257 . S
C336 C339 1.358 . S
C336 C340 1.332 . S
C336 C342 1.504 . S
C337 C338 1.373 . S
C337 C341 1.308 . S
C338 C337 1.373 . S
C338 C339 1.429 . S
C338 H348 0.932 . S
C339 C336 1.358 . S
C339 C338 1.429 . S
C339 H349 0.930 . S
C340 C336 1.332 . S
C340 C341 1.394 . S
C340 H350 0.932 . S
C341 C337 1.308 . S
C341 C340 1.394 . S
C341 H351 0.929 . S
C342 Tb313 2.764 1_565 S
C342 O326 1.239 . S
C342 O327 1.263 . S
C342 C336 1.504 . S
C343 O328 1.236 1_455 S
C343 O329 1.257 . S
H344 C317 0.932 . S
H345 C318 0.930 . S
H346 C319 0.932 . S
H347 C320 0.929 . S
H348 C338 0.932 . S
H349 C339 0.930 . S
H350 C340 0.932 . S
H351 C341 0.929 . S
Tb352 C361 2.764 . S
Tb352 O362 2.325 1_554 S
Tb352 O365 2.303 . S
Tb352 O369 2.322 1_545 S
Tb352 O370 2.349 1_544 S
Tb352 O373 2.415 . S
Tb352 O374 2.399 . S
Tb353 O363 2.322 . S
Tb353 O364 2.349 1_556 S
Tb353 O366 2.415 1_545 S
Tb353 O367 2.399 1_545 S
Tb353 O368 2.325 1_546 S
Tb353 O371 2.303 1_545 S
Tb353 C382 2.764 1_545 S
C354 O370 1.261 . S
C354 O371 1.257 . S
C355 C358 1.358 . S
C355 C359 1.332 . S
C355 C361 1.504 . S
C356 C357 1.373 . S
C356 C360 1.308 . S
C357 C356 1.373 . S
C357 C358 1.429 . S
C357 H384 0.932 . S
C358 C355 1.358 . S
C358 C357 1.429 . S
C358 H385 0.930 . S
C359 C355 1.332 . S
C359 C360 1.394 . S
C359 H386 0.932 . S
C360 C356 1.308 . S
C360 C359 1.394 . S
C360 H387 0.929 . S
C361 Tb352 2.764 . S
C361 C355 1.504 . S
C361 O373 1.239 . S
C361 O374 1.263 . S
O362 Tb352 2.325 1_556 S
O362 C372 1.236 . S
O363 Tb353 2.322 . S
O363 C372 1.257 . S
O364 Tb353 2.349 1_554 S
O364 C375 1.261 . S
O365 Tb352 2.303 . S
O365 C375 1.257 . S
O366 Tb353 2.415 1_565 S
O366 C382 1.239 . S
O367 Tb353 2.399 1_565 S
O367 C382 1.263 . S
O368 Tb353 2.325 1_564 S
O368 C383 1.236 . S
O369 Tb352 2.322 1_565 S
O369 C383 1.257 . S
O370 Tb352 2.349 1_566 S
O370 C354 1.261 . S
O371 Tb353 2.303 1_565 S
O371 C354 1.257 . S
C372 O362 1.236 . S
C372 O363 1.257 . S
O373 Tb352 2.415 . S
O373 C361 1.239 . S
O374 Tb352 2.399 . S
O374 C361 1.263 . S
C375 O364 1.261 . S
C375 O365 1.257 . S
C376 C379 1.358 . S
C376 C380 1.332 . S
C376 C382 1.504 . S
C377 C378 1.373 . S
C377 C381 1.308 . S
C378 C377 1.373 . S
C378 C379 1.429 . S
C378 H388 0.932 . S
C379 C376 1.358 . S
C379 C378 1.429 . S
C379 H389 0.930 . S
C380 C376 1.332 . S
C380 C381 1.394 . S
C380 H390 0.932 . S
C381 C377 1.308 . S
C381 C380 1.394 . S
C381 H391 0.929 . S
C382 Tb353 2.764 1_565 S
C382 O366 1.239 . S
C382 O367 1.263 . S
C382 C376 1.504 . S
C383 O368 1.236 . S
C383 O369 1.257 . S
H384 C357 0.932 . S
H385 C358 0.930 . S
H386 C359 0.932 . S
H387 C360 0.929 . S
H388 C378 0.932 . S
H389 C379 0.930 . S
H390 C380 0.932 . S
H391 C381 0.929 . S
Tb392 C401 2.764 . S
Tb392 O402 2.325 . S
Tb392 O405 2.303 . S
Tb392 O409 2.322 . S
Tb392 O410 2.349 . S
Tb392 O413 2.415 . S
Tb392 O414 2.399 . S
Tb393 O403 2.322 . S
Tb393 O404 2.349 . S
Tb393 O406 2.415 . S
Tb393 O407 2.399 . S
Tb393 O408 2.325 . S
Tb393 O411 2.303 . S
Tb393 C422 2.764 . S
C394 O410 1.261 . S
C394 O411 1.257 . S
C395 C398 1.358 . S
C395 C399 1.332 . S
C395 C401 1.504 . S
C396 C397 1.373 . S
C396 C400 1.308 . S
C397 C396 1.373 . S
C397 C398 1.429 . S
C397 H424 0.932 . S
C398 C395 1.358 . S
C398 C397 1.429 . S
C398 H425 0.930 . S
C399 C395 1.332 . S
C399 C400 1.394 . S
C399 H426 0.932 . S
C400 C396 1.308 . S
C400 C399 1.394 . S
C400 H427 0.929 . S
C401 Tb392 2.764 . S
C401 C395 1.504 . S
C401 O413 1.239 . S
C401 O414 1.263 . S
O402 Tb392 2.325 . S
O402 C412 1.236 . S
O403 Tb393 2.322 . S
O403 C412 1.257 . S
O404 Tb393 2.349 . S
O404 C415 1.261 . S
O405 Tb392 2.303 . S
O405 C415 1.257 . S
O406 Tb393 2.415 . S
O406 C422 1.239 . S
O407 Tb393 2.399 . S
O407 C422 1.263 . S
O408 Tb393 2.325 . S
O408 C423 1.236 . S
O409 Tb392 2.322 . S
O409 C423 1.257 . S
O410 Tb392 2.349 . S
O410 C394 1.261 . S
O411 Tb393 2.303 . S
O411 C394 1.257 . S
C412 O402 1.236 . S
C412 O403 1.257 . S
O413 Tb392 2.415 . S
O413 C401 1.239 . S
O414 Tb392 2.399 . S
O414 C401 1.263 . S
C415 O404 1.261 . S
C415 O405 1.257 . S
C416 C419 1.358 . S
C416 C420 1.332 . S
C416 C422 1.504 . S
C417 C418 1.373 . S
C417 C421 1.308 . S
C418 C417 1.373 . S
C418 C419 1.429 . S
C418 H428 0.932 . S
C419 C416 1.358 . S
C419 C418 1.429 . S
C419 H429 0.930 . S
C420 C416 1.332 . S
C420 C421 1.394 . S
C420 H430 0.932 . S
C421 C417 1.308 . S
C421 C420 1.394 . S
C421 H431 0.929 . S
C422 Tb393 2.764 . S
C422 O406 1.239 . S
C422 O407 1.263 . S
C422 C416 1.504 . S
C423 O408 1.236 . S
C423 O409 1.257 . S
H424 C397 0.932 . S
H425 C398 0.930 . S
H426 C399 0.932 . S
H427 C400 0.929 . S
H428 C418 0.932 . S
H429 C419 0.930 . S
H430 C420 0.932 . S
H431 C421 0.929 . S
Tb432 C441 2.764 . S
Tb432 O442 2.325 . S
Tb432 O445 2.303 1_556 S
Tb432 O449 2.330 1_655 S
Tb432 O450 2.349 1_655 S
Tb432 O453 2.415 . S
Tb432 O454 2.399 . S
Tb433 O443 2.322 1_455 S
Tb433 O444 2.349 1_455 S
Tb433 O446 2.415 . S
Tb433 O447 2.399 . S
Tb433 O448 2.325 . S
Tb433 O451 2.303 1_554 S
Tb433 C462 2.764 . S
C434 O450 1.261 . S
C434 O451 1.257 . S
C435 C438 1.358 . S
C435 C439 1.332 . S
C435 C441 1.504 . S
C436 C437 1.373 . S
C436 C440 1.308 . S
C437 C436 1.373 . S
C437 C438 1.429 . S
C437 H464 0.932 . S
C438 C435 1.358 . S
C438 C437 1.429 . S
C438 H465 0.930 . S
C439 C435 1.332 . S
C439 C440 1.394 . S
C439 H466 0.932 . S
C440 C436 1.308 . S
C440 C439 1.394 . S
C440 H467 0.929 . S
C441 Tb432 2.764 . S
C441 C435 1.504 . S
C441 O453 1.239 . S
C441 O454 1.263 . S
O442 Tb432 2.325 . S
O442 C452 1.236 . S
O443 Tb433 2.322 1_655 S
O443 C452 1.257 1_554 S
O444 Tb433 2.349 1_655 S
O444 C455 1.261 . S
O445 Tb432 2.303 1_554 S
O445 C455 1.257 . S
O446 Tb433 2.415 . S
O446 C462 1.239 . S
O447 Tb433 2.399 . S
O447 C462 1.263 . S
O448 Tb433 2.325 . S
O448 C463 1.236 . S
O449 Tb432 2.330 1_455 S
O449 C463 1.245 1_556 S
O450 Tb432 2.349 1_455 S
O450 C434 1.261 . S
O451 Tb433 2.303 1_556 S
O451 C434 1.257 . S
C452 O442 1.236 . S
C452 O443 1.257 1_556 S
O453 Tb432 2.415 . S
O453 C441 1.239 . S
O454 Tb432 2.399 . S
O454 C441 1.263 . S
C455 O444 1.261 . S
C455 O445 1.257 . S
C456 C459 1.358 . S
C456 C460 1.332 . S
C456 C462 1.504 . S
C457 C458 1.373 . S
C457 C461 1.308 . S
C458 C457 1.373 . S
C458 C459 1.429 . S
C458 H468 0.932 . S
C459 C456 1.358 . S
C459 C458 1.429 . S
C459 H469 0.930 . S
C460 C456 1.332 . S
C460 C461 1.394 . S
C460 H470 0.932 . S
C461 C457 1.308 . S
C461 C460 1.394 . S
C461 H471 0.929 . S
C462 Tb433 2.764 . S
C462 O446 1.239 . S
C462 O447 1.263 . S
C462 C456 1.504 . S
C463 O448 1.236 . S
C463 O449 1.245 1_554 S
H464 C437 0.932 . S
H465 C438 0.930 . S
H466 C439 0.932 . S
H467 C440 0.929 . S
H468 C458 0.932 . S
H469 C459 0.930 . S
H470 C460 0.932 . S
H471 C461 0.929 . S
C1 C316 1.863 . S
C40 C377 1.643 . S
C415 C99 3.707 . S
C118 C455 3.501 . S
C375 C16 3.102 . S
C343 C60 3.981 1_455 S
C452 C79 2.421 . S
C412 C138 2.484 . S
C21 C457 2.950 . S
C372 C94 3.458 . S
C133 C314 3.125 . S
C55 C417 3.249 . S
C337 C157 1.890 . S
C196 C356 1.627 . S
C255 C394 3.700 . S
C289 C434 3.497 . S
C172 C354 3.082 . S
C332 C216 3.920 1_655 S
C463 C235 2.418 . S
C423 C294 2.489 . S
C177 C436 2.965 . S
C383 C250 3.464 . S
C335 C274 3.125 . S
C211 C396 3.269 . S
