# Generated by pormake.
# Topology bpr, (3,3)-cn, num edge types: 1
# Building blocks:
#     Node 0, Type 0, BuildingBlock: WUSLED_clean_sbu_0, # of connection points: 3
#     Node 1, Type 0, BuildingBlock: WUSLED_clean_sbu_0, # of connection points: 3
#     Node 2, Type 0, BuildingBlock: WUSLED_clean_sbu_0, # of connection points: 3
#     Node 3, Type 0, BuildingBlock: WUSLED_clean_sbu_0, # of connection points: 3
#     Node 4, Type 0, BuildingBlock: WUSLED_clean_sbu_0, # of connection points: 3
#     Node 5, Type 0, BuildingBlock: WUSLED_clean_sbu_0, # of connection points: 3
#     Node 6, Type 0, BuildingBlock: WUSLED_clean_sbu_0, # of connection points: 3
#     Node 7, Type 0, BuildingBlock: WUSLED_clean_sbu_0, # of connection points: 3
#     Node 8, Type 0, BuildingBlock: WUSLED_clean_sbu_0, # of connection points: 3
#     Node 9, Type 0, BuildingBlock: WUSLED_clean_sbu_0, # of connection points: 3
#     Node 10, Type 0, BuildingBlock: WUSLED_clean_sbu_0, # of connection points: 3
#     Node 11, Type 0, BuildingBlock: WUSLED_clean_sbu_0, # of connection points: 3
#     Node 12, Type 0, BuildingBlock: WUSLED_clean_sbu_0, # of connection points: 3
#     Node 13, Type 0, BuildingBlock: WUSLED_clean_sbu_0, # of connection points: 3
#     Node 14, Type 0, BuildingBlock: WUSLED_clean_sbu_0, # of connection points: 3
#     Node 15, Type 0, BuildingBlock: WUSLED_clean_sbu_0, # of connection points: 3
#     Node 16, Type 0, BuildingBlock: WUSLED_clean_sbu_0, # of connection points: 3
#     Node 17, Type 0, BuildingBlock: WUSLED_clean_sbu_0, # of connection points: 3
#     Node 18, Type 0, BuildingBlock: WUSLED_clean_sbu_0, # of connection points: 3
#     Node 19, Type 0, BuildingBlock: WUSLED_clean_sbu_0, # of connection points: 3
#     Node 20, Type 0, BuildingBlock: WUSLED_clean_sbu_0, # of connection points: 3
#     Node 21, Type 0, BuildingBlock: WUSLED_clean_sbu_0, # of connection points: 3
#     Node 22, Type 0, BuildingBlock: WUSLED_clean_sbu_0, # of connection points: 3
#     Node 23, Type 0, BuildingBlock: WUSLED_clean_sbu_0, # of connection points: 3
#     Node 24, Type 0, BuildingBlock: WUSLED_clean_sbu_0, # of connection points: 3
#     Node 25, Type 0, BuildingBlock: WUSLED_clean_sbu_0, # of connection points: 3
#     Node 26, Type 0, BuildingBlock: WUSLED_clean_sbu_0, # of connection points: 3
#     Node 27, Type 0, BuildingBlock: WUSLED_clean_sbu_0, # of connection points: 3
#     Node 28, Type 0, BuildingBlock: WUSLED_clean_sbu_0, # of connection points: 3
#     Node 29, Type 0, BuildingBlock: WUSLED_clean_sbu_0, # of connection points: 3
#     Node 30, Type 0, BuildingBlock: WUSLED_clean_sbu_0, # of connection points: 3
#     Node 31, Type 0, BuildingBlock: WUSLED_clean_sbu_0, # of connection points: 3
#     Node 32, Type 0, BuildingBlock: WUSLED_clean_sbu_0, # of connection points: 3
#     Node 33, Type 0, BuildingBlock: WUSLED_clean_sbu_0, # of connection points: 3
#     Node 34, Type 0, BuildingBlock: WUSLED_clean_sbu_0, # of connection points: 3
#     Node 35, Type 0, BuildingBlock: WUSLED_clean_sbu_0, # of connection points: 3
#     Node 36, Type 0, BuildingBlock: WUSLED_clean_sbu_0, # of connection points: 3
#     Node 37, Type 0, BuildingBlock: WUSLED_clean_sbu_0, # of connection points: 3
#     Node 38, Type 0, BuildingBlock: WUSLED_clean_sbu_0, # of connection points: 3
#     Node 39, Type 0, BuildingBlock: WUSLED_clean_sbu_0, # of connection points: 3
#     Node 40, Type 0, BuildingBlock: WUSLED_clean_sbu_0, # of connection points: 3
#     Node 41, Type 0, BuildingBlock: WUSLED_clean_sbu_0, # of connection points: 3
#     Node 42, Type 0, BuildingBlock: WUSLED_clean_sbu_0, # of connection points: 3
#     Node 43, Type 0, BuildingBlock: WUSLED_clean_sbu_0, # of connection points: 3
#     Node 44, Type 0, BuildingBlock: WUSLED_clean_sbu_0, # of connection points: 3
#     Node 45, Type 0, BuildingBlock: WUSLED_clean_sbu_0, # of connection points: 3
#     Node 46, Type 0, BuildingBlock: WUSLED_clean_sbu_0, # of connection points: 3
#     Node 47, Type 0, BuildingBlock: WUSLED_clean_sbu_0, # of connection points: 3
#     Node 48, Type 1, BuildingBlock: VETTIZ_charged_linker_0, # of connection points: 3
#     Node 49, Type 1, BuildingBlock: VETTIZ_charged_linker_0, # of connection points: 3
#     Node 50, Type 1, BuildingBlock: VETTIZ_charged_linker_0, # of connection points: 3
#     Node 51, Type 1, BuildingBlock: VETTIZ_charged_linker_0, # of connection points: 3
#     Node 52, Type 1, BuildingBlock: VETTIZ_charged_linker_0, # of connection points: 3
#     Node 53, Type 1, BuildingBlock: VETTIZ_charged_linker_0, # of connection points: 3
#     Node 54, Type 1, BuildingBlock: VETTIZ_charged_linker_0, # of connection points: 3
#     Node 55, Type 1, BuildingBlock: VETTIZ_charged_linker_0, # of connection points: 3
#     Node 56, Type 1, BuildingBlock: VETTIZ_charged_linker_0, # of connection points: 3
#     Node 57, Type 1, BuildingBlock: VETTIZ_charged_linker_0, # of connection points: 3
#     Node 58, Type 1, BuildingBlock: VETTIZ_charged_linker_0, # of connection points: 3
#     Node 59, Type 1, BuildingBlock: VETTIZ_charged_linker_0, # of connection points: 3
#     Node 60, Type 1, BuildingBlock: VETTIZ_charged_linker_0, # of connection points: 3
#     Node 61, Type 1, BuildingBlock: VETTIZ_charged_linker_0, # of connection points: 3
#     Node 62, Type 1, BuildingBlock: VETTIZ_charged_linker_0, # of connection points: 3
#     Node 63, Type 1, BuildingBlock: VETTIZ_charged_linker_0, # of connection points: 3
#     Node 64, Type 1, BuildingBlock: VETTIZ_charged_linker_0, # of connection points: 3
#     Node 65, Type 1, BuildingBlock: VETTIZ_charged_linker_0, # of connection points: 3
#     Node 66, Type 1, BuildingBlock: VETTIZ_charged_linker_0, # of connection points: 3
#     Node 67, Type 1, BuildingBlock: VETTIZ_charged_linker_0, # of connection points: 3
#     Node 68, Type 1, BuildingBlock: VETTIZ_charged_linker_0, # of connection points: 3
#     Node 69, Type 1, BuildingBlock: VETTIZ_charged_linker_0, # of connection points: 3
#     Node 70, Type 1, BuildingBlock: VETTIZ_charged_linker_0, # of connection points: 3
#     Node 71, Type 1, BuildingBlock: VETTIZ_charged_linker_0, # of connection points: 3
#     Node 72, Type 1, BuildingBlock: VETTIZ_charged_linker_0, # of connection points: 3
#     Node 73, Type 1, BuildingBlock: VETTIZ_charged_linker_0, # of connection points: 3
#     Node 74, Type 1, BuildingBlock: VETTIZ_charged_linker_0, # of connection points: 3
#     Node 75, Type 1, BuildingBlock: VETTIZ_charged_linker_0, # of connection points: 3
#     Node 76, Type 1, BuildingBlock: VETTIZ_charged_linker_0, # of connection points: 3
#     Node 77, Type 1, BuildingBlock: VETTIZ_charged_linker_0, # of connection points: 3
#     Node 78, Type 1, BuildingBlock: VETTIZ_charged_linker_0, # of connection points: 3
#     Node 79, Type 1, BuildingBlock: VETTIZ_charged_linker_0, # of connection points: 3
#     Node 80, Type 1, BuildingBlock: VETTIZ_charged_linker_0, # of connection points: 3
#     Node 81, Type 1, BuildingBlock: VETTIZ_charged_linker_0, # of connection points: 3
#     Node 82, Type 1, BuildingBlock: VETTIZ_charged_linker_0, # of connection points: 3
#     Node 83, Type 1, BuildingBlock: VETTIZ_charged_linker_0, # of connection points: 3
#     Node 84, Type 1, BuildingBlock: VETTIZ_charged_linker_0, # of connection points: 3
#     Node 85, Type 1, BuildingBlock: VETTIZ_charged_linker_0, # of connection points: 3
#     Node 86, Type 1, BuildingBlock: VETTIZ_charged_linker_0, # of connection points: 3
#     Node 87, Type 1, BuildingBlock: VETTIZ_charged_linker_0, # of connection points: 3
#     Node 88, Type 1, BuildingBlock: VETTIZ_charged_linker_0, # of connection points: 3
#     Node 89, Type 1, BuildingBlock: VETTIZ_charged_linker_0, # of connection points: 3
#     Node 90, Type 1, BuildingBlock: VETTIZ_charged_linker_0, # of connection points: 3
#     Node 91, Type 1, BuildingBlock: VETTIZ_charged_linker_0, # of connection points: 3
#     Node 92, Type 1, BuildingBlock: VETTIZ_charged_linker_0, # of connection points: 3
#     Node 93, Type 1, BuildingBlock: VETTIZ_charged_linker_0, # of connection points: 3
#     Node 94, Type 1, BuildingBlock: VETTIZ_charged_linker_0, # of connection points: 3
#     Node 95, Type 1, BuildingBlock: VETTIZ_charged_linker_0, # of connection points: 3
#     Edge 96, Type (0, 1), BuildingBlock: OJICUG_clean_linker_0, # of connection points: 2
#     Edge 97, Type (0, 1), BuildingBlock: OJICUG_clean_linker_0, # of connection points: 2
#     Edge 98, Type (0, 1), BuildingBlock: OJICUG_clean_linker_0, # of connection points: 2
#     Edge 99, Type (0, 1), BuildingBlock: OJICUG_clean_linker_0, # of connection points: 2
#     Edge 100, Type (0, 1), BuildingBlock: OJICUG_clean_linker_0, # of connection points: 2
#     Edge 101, Type (0, 1), BuildingBlock: OJICUG_clean_linker_0, # of connection points: 2
#     Edge 102, Type (0, 1), BuildingBlock: OJICUG_clean_linker_0, # of connection points: 2
#     Edge 103, Type (0, 1), BuildingBlock: OJICUG_clean_linker_0, # of connection points: 2
#     Edge 104, Type (0, 1), BuildingBlock: OJICUG_clean_linker_0, # of connection points: 2
#     Edge 105, Type (0, 1), BuildingBlock: OJICUG_clean_linker_0, # of connection points: 2
#     Edge 106, Type (0, 1), BuildingBlock: OJICUG_clean_linker_0, # of connection points: 2
#     Edge 107, Type (0, 1), BuildingBlock: OJICUG_clean_linker_0, # of connection points: 2
#     Edge 108, Type (0, 1), BuildingBlock: OJICUG_clean_linker_0, # of connection points: 2
#     Edge 109, Type (0, 1), BuildingBlock: OJICUG_clean_linker_0, # of connection points: 2
#     Edge 110, Type (0, 1), BuildingBlock: OJICUG_clean_linker_0, # of connection points: 2
#     Edge 111, Type (0, 1), BuildingBlock: OJICUG_clean_linker_0, # of connection points: 2
#     Edge 112, Type (0, 1), BuildingBlock: OJICUG_clean_linker_0, # of connection points: 2
#     Edge 113, Type (0, 1), BuildingBlock: OJICUG_clean_linker_0, # of connection points: 2
#     Edge 114, Type (0, 1), BuildingBlock: OJICUG_clean_linker_0, # of connection points: 2
#     Edge 115, Type (0, 1), BuildingBlock: OJICUG_clean_linker_0, # of connection points: 2
#     Edge 116, Type (0, 1), BuildingBlock: OJICUG_clean_linker_0, # of connection points: 2
#     Edge 117, Type (0, 1), BuildingBlock: OJICUG_clean_linker_0, # of connection points: 2
#     Edge 118, Type (0, 1), BuildingBlock: OJICUG_clean_linker_0, # of connection points: 2
#     Edge 119, Type (0, 1), BuildingBlock: OJICUG_clean_linker_0, # of connection points: 2
#     Edge 120, Type (0, 1), BuildingBlock: OJICUG_clean_linker_0, # of connection points: 2
#     Edge 121, Type (0, 1), BuildingBlock: OJICUG_clean_linker_0, # of connection points: 2
#     Edge 122, Type (0, 1), BuildingBlock: OJICUG_clean_linker_0, # of connection points: 2
#     Edge 123, Type (0, 1), BuildingBlock: OJICUG_clean_linker_0, # of connection points: 2
#     Edge 124, Type (0, 1), BuildingBlock: OJICUG_clean_linker_0, # of connection points: 2
#     Edge 125, Type (0, 1), BuildingBlock: OJICUG_clean_linker_0, # of connection points: 2
#     Edge 126, Type (0, 1), BuildingBlock: OJICUG_clean_linker_0, # of connection points: 2
#     Edge 127, Type (0, 1), BuildingBlock: OJICUG_clean_linker_0, # of connection points: 2
#     Edge 128, Type (0, 1), BuildingBlock: OJICUG_clean_linker_0, # of connection points: 2
#     Edge 129, Type (0, 1), BuildingBlock: OJICUG_clean_linker_0, # of connection points: 2
#     Edge 130, Type (0, 1), BuildingBlock: OJICUG_clean_linker_0, # of connection points: 2
#     Edge 131, Type (0, 1), BuildingBlock: OJICUG_clean_linker_0, # of connection points: 2
#     Edge 132, Type (0, 1), BuildingBlock: OJICUG_clean_linker_0, # of connection points: 2
#     Edge 133, Type (0, 1), BuildingBlock: OJICUG_clean_linker_0, # of connection points: 2
#     Edge 134, Type (0, 1), BuildingBlock: OJICUG_clean_linker_0, # of connection points: 2
#     Edge 135, Type (0, 1), BuildingBlock: OJICUG_clean_linker_0, # of connection points: 2
#     Edge 136, Type (0, 1), BuildingBlock: OJICUG_clean_linker_0, # of connection points: 2
#     Edge 137, Type (0, 1), BuildingBlock: OJICUG_clean_linker_0, # of connection points: 2
#     Edge 138, Type (0, 1), BuildingBlock: OJICUG_clean_linker_0, # of connection points: 2
#     Edge 139, Type (0, 1), BuildingBlock: OJICUG_clean_linker_0, # of connection points: 2
#     Edge 140, Type (0, 1), BuildingBlock: OJICUG_clean_linker_0, # of connection points: 2
#     Edge 141, Type (0, 1), BuildingBlock: OJICUG_clean_linker_0, # of connection points: 2
#     Edge 142, Type (0, 1), BuildingBlock: OJICUG_clean_linker_0, # of connection points: 2
#     Edge 143, Type (0, 1), BuildingBlock: OJICUG_clean_linker_0, # of connection points: 2
#     Edge 144, Type (0, 1), BuildingBlock: OJICUG_clean_linker_0, # of connection points: 2
#     Edge 145, Type (0, 1), BuildingBlock: OJICUG_clean_linker_0, # of connection points: 2
#     Edge 146, Type (0, 1), BuildingBlock: OJICUG_clean_linker_0, # of connection points: 2
#     Edge 147, Type (0, 1), BuildingBlock: OJICUG_clean_linker_0, # of connection points: 2
#     Edge 148, Type (0, 1), BuildingBlock: OJICUG_clean_linker_0, # of connection points: 2
#     Edge 149, Type (0, 1), BuildingBlock: OJICUG_clean_linker_0, # of connection points: 2
#     Edge 150, Type (0, 1), BuildingBlock: OJICUG_clean_linker_0, # of connection points: 2
#     Edge 151, Type (0, 1), BuildingBlock: OJICUG_clean_linker_0, # of connection points: 2
#     Edge 152, Type (0, 1), BuildingBlock: OJICUG_clean_linker_0, # of connection points: 2
#     Edge 153, Type (0, 1), BuildingBlock: OJICUG_clean_linker_0, # of connection points: 2
#     Edge 154, Type (0, 1), BuildingBlock: OJICUG_clean_linker_0, # of connection points: 2
#     Edge 155, Type (0, 1), BuildingBlock: OJICUG_clean_linker_0, # of connection points: 2
#     Edge 156, Type (0, 1), BuildingBlock: OJICUG_clean_linker_0, # of connection points: 2
#     Edge 157, Type (0, 1), BuildingBlock: OJICUG_clean_linker_0, # of connection points: 2
#     Edge 158, Type (0, 1), BuildingBlock: OJICUG_clean_linker_0, # of connection points: 2
#     Edge 159, Type (0, 1), BuildingBlock: OJICUG_clean_linker_0, # of connection points: 2
#     Edge 160, Type (0, 1), BuildingBlock: OJICUG_clean_linker_0, # of connection points: 2
#     Edge 161, Type (0, 1), BuildingBlock: OJICUG_clean_linker_0, # of connection points: 2
#     Edge 162, Type (0, 1), BuildingBlock: OJICUG_clean_linker_0, # of connection points: 2
#     Edge 163, Type (0, 1), BuildingBlock: OJICUG_clean_linker_0, # of connection points: 2
#     Edge 164, Type (0, 1), BuildingBlock: OJICUG_clean_linker_0, # of connection points: 2
#     Edge 165, Type (0, 1), BuildingBlock: OJICUG_clean_linker_0, # of connection points: 2
#     Edge 166, Type (0, 1), BuildingBlock: OJICUG_clean_linker_0, # of connection points: 2
#     Edge 167, Type (0, 1), BuildingBlock: OJICUG_clean_linker_0, # of connection points: 2
#     Edge 168, Type (0, 1), BuildingBlock: OJICUG_clean_linker_0, # of connection points: 2
#     Edge 169, Type (0, 1), BuildingBlock: OJICUG_clean_linker_0, # of connection points: 2
#     Edge 170, Type (0, 1), BuildingBlock: OJICUG_clean_linker_0, # of connection points: 2
#     Edge 171, Type (0, 1), BuildingBlock: OJICUG_clean_linker_0, # of connection points: 2
#     Edge 172, Type (0, 1), BuildingBlock: OJICUG_clean_linker_0, # of connection points: 2
#     Edge 173, Type (0, 1), BuildingBlock: OJICUG_clean_linker_0, # of connection points: 2
#     Edge 174, Type (0, 1), BuildingBlock: OJICUG_clean_linker_0, # of connection points: 2
#     Edge 175, Type (0, 1), BuildingBlock: OJICUG_clean_linker_0, # of connection points: 2
#     Edge 176, Type (0, 1), BuildingBlock: OJICUG_clean_linker_0, # of connection points: 2
#     Edge 177, Type (0, 1), BuildingBlock: OJICUG_clean_linker_0, # of connection points: 2
#     Edge 178, Type (0, 1), BuildingBlock: OJICUG_clean_linker_0, # of connection points: 2
#     Edge 179, Type (0, 1), BuildingBlock: OJICUG_clean_linker_0, # of connection points: 2
#     Edge 180, Type (0, 1), BuildingBlock: OJICUG_clean_linker_0, # of connection points: 2
#     Edge 181, Type (0, 1), BuildingBlock: OJICUG_clean_linker_0, # of connection points: 2
#     Edge 182, Type (0, 1), BuildingBlock: OJICUG_clean_linker_0, # of connection points: 2
#     Edge 183, Type (0, 1), BuildingBlock: OJICUG_clean_linker_0, # of connection points: 2
#     Edge 184, Type (0, 1), BuildingBlock: OJICUG_clean_linker_0, # of connection points: 2
#     Edge 185, Type (0, 1), BuildingBlock: OJICUG_clean_linker_0, # of connection points: 2
#     Edge 186, Type (0, 1), BuildingBlock: OJICUG_clean_linker_0, # of connection points: 2
#     Edge 187, Type (0, 1), BuildingBlock: OJICUG_clean_linker_0, # of connection points: 2
#     Edge 188, Type (0, 1), BuildingBlock: OJICUG_clean_linker_0, # of connection points: 2
#     Edge 189, Type (0, 1), BuildingBlock: OJICUG_clean_linker_0, # of connection points: 2
#     Edge 190, Type (0, 1), BuildingBlock: OJICUG_clean_linker_0, # of connection points: 2
#     Edge 191, Type (0, 1), BuildingBlock: OJICUG_clean_linker_0, # of connection points: 2
#     Edge 192, Type (0, 1), BuildingBlock: OJICUG_clean_linker_0, # of connection points: 2
#     Edge 193, Type (0, 1), BuildingBlock: OJICUG_clean_linker_0, # of connection points: 2
#     Edge 194, Type (0, 1), BuildingBlock: OJICUG_clean_linker_0, # of connection points: 2
#     Edge 195, Type (0, 1), BuildingBlock: OJICUG_clean_linker_0, # of connection points: 2
#     Edge 196, Type (0, 1), BuildingBlock: OJICUG_clean_linker_0, # of connection points: 2
#     Edge 197, Type (0, 1), BuildingBlock: OJICUG_clean_linker_0, # of connection points: 2
#     Edge 198, Type (0, 1), BuildingBlock: OJICUG_clean_linker_0, # of connection points: 2
#     Edge 199, Type (0, 1), BuildingBlock: OJICUG_clean_linker_0, # of connection points: 2
#     Edge 200, Type (0, 1), BuildingBlock: OJICUG_clean_linker_0, # of connection points: 2
#     Edge 201, Type (0, 1), BuildingBlock: OJICUG_clean_linker_0, # of connection points: 2
#     Edge 202, Type (0, 1), BuildingBlock: OJICUG_clean_linker_0, # of connection points: 2
#     Edge 203, Type (0, 1), BuildingBlock: OJICUG_clean_linker_0, # of connection points: 2
#     Edge 204, Type (0, 1), BuildingBlock: OJICUG_clean_linker_0, # of connection points: 2
#     Edge 205, Type (0, 1), BuildingBlock: OJICUG_clean_linker_0, # of connection points: 2
#     Edge 206, Type (0, 1), BuildingBlock: OJICUG_clean_linker_0, # of connection points: 2
#     Edge 207, Type (0, 1), BuildingBlock: OJICUG_clean_linker_0, # of connection points: 2
#     Edge 208, Type (0, 1), BuildingBlock: OJICUG_clean_linker_0, # of connection points: 2
#     Edge 209, Type (0, 1), BuildingBlock: OJICUG_clean_linker_0, # of connection points: 2
#     Edge 210, Type (0, 1), BuildingBlock: OJICUG_clean_linker_0, # of connection points: 2
#     Edge 211, Type (0, 1), BuildingBlock: OJICUG_clean_linker_0, # of connection points: 2
#     Edge 212, Type (0, 1), BuildingBlock: OJICUG_clean_linker_0, # of connection points: 2
#     Edge 213, Type (0, 1), BuildingBlock: OJICUG_clean_linker_0, # of connection points: 2
#     Edge 214, Type (0, 1), BuildingBlock: OJICUG_clean_linker_0, # of connection points: 2
#     Edge 215, Type (0, 1), BuildingBlock: OJICUG_clean_linker_0, # of connection points: 2
#     Edge 216, Type (0, 1), BuildingBlock: OJICUG_clean_linker_0, # of connection points: 2
#     Edge 217, Type (0, 1), BuildingBlock: OJICUG_clean_linker_0, # of connection points: 2
#     Edge 218, Type (0, 1), BuildingBlock: OJICUG_clean_linker_0, # of connection points: 2
#     Edge 219, Type (0, 1), BuildingBlock: OJICUG_clean_linker_0, # of connection points: 2
#     Edge 220, Type (0, 1), BuildingBlock: OJICUG_clean_linker_0, # of connection points: 2
#     Edge 221, Type (0, 1), BuildingBlock: OJICUG_clean_linker_0, # of connection points: 2
#     Edge 222, Type (0, 1), BuildingBlock: OJICUG_clean_linker_0, # of connection points: 2
#     Edge 223, Type (0, 1), BuildingBlock: OJICUG_clean_linker_0, # of connection points: 2
#     Edge 224, Type (0, 1), BuildingBlock: OJICUG_clean_linker_0, # of connection points: 2
#     Edge 225, Type (0, 1), BuildingBlock: OJICUG_clean_linker_0, # of connection points: 2
#     Edge 226, Type (0, 1), BuildingBlock: OJICUG_clean_linker_0, # of connection points: 2
#     Edge 227, Type (0, 1), BuildingBlock: OJICUG_clean_linker_0, # of connection points: 2
#     Edge 228, Type (0, 1), BuildingBlock: OJICUG_clean_linker_0, # of connection points: 2
#     Edge 229, Type (0, 1), BuildingBlock: OJICUG_clean_linker_0, # of connection points: 2
#     Edge 230, Type (0, 1), BuildingBlock: OJICUG_clean_linker_0, # of connection points: 2
#     Edge 231, Type (0, 1), BuildingBlock: OJICUG_clean_linker_0, # of connection points: 2
#     Edge 232, Type (0, 1), BuildingBlock: OJICUG_clean_linker_0, # of connection points: 2
#     Edge 233, Type (0, 1), BuildingBlock: OJICUG_clean_linker_0, # of connection points: 2
#     Edge 234, Type (0, 1), BuildingBlock: OJICUG_clean_linker_0, # of connection points: 2
#     Edge 235, Type (0, 1), BuildingBlock: OJICUG_clean_linker_0, # of connection points: 2
#     Edge 236, Type (0, 1), BuildingBlock: OJICUG_clean_linker_0, # of connection points: 2
#     Edge 237, Type (0, 1), BuildingBlock: OJICUG_clean_linker_0, # of connection points: 2
#     Edge 238, Type (0, 1), BuildingBlock: OJICUG_clean_linker_0, # of connection points: 2
#     Edge 239, Type (0, 1), BuildingBlock: OJICUG_clean_linker_0, # of connection points: 2
# Relax obj value: 0.084
# Max RMSD: 0.122
# Mean RMSD: 0.066
data_MOF--net-bpr--node1-WUSLED_clean_sbu_0--node2-VETTIZ_charged_linker_0--edge1-OJICUG_clean_linker_0
_symmetry_space_group_name_H-M    P1
_symmetry_Int_Tables_number       1
_symmetry_cell_setting            triclinic
loop_
_symmetry_equiv_pos_as_xyz
'x, y, z'
_cell_length_a     96.103408
_cell_length_b     98.401107
_cell_length_c     88.125681
_cell_angle_alpha  68.06718
_cell_angle_beta   90.101282
_cell_angle_gamma 89.918557
loop_
_atom_site_label
_atom_site_type_symbol
_atom_site_fract_x
_atom_site_fract_y
_atom_site_fract_z
_atom_type_partial_charge
C0 C 0.96371 0.47135 0.19578 0.0
C1 C 0.96808 0.47893 0.20571 0.0
C2 C 0.9447 0.47697 0.21729 0.0
C3 C 0.9586 0.48179 0.21636 0.0
C4 C 0.94031 0.47028 0.20653 0.0
C5 C 0.94969 0.4675 0.19596 0.0
U6 U 0.99871 0.47036 0.17404 0.0
O7 O 0.01137 0.45124 0.17579 0.0
O8 O 1.00262 0.46533 0.15201 0.0
C9 C 0.01022 0.45376 0.16011 0.0
C10 C 0.97351 0.46584 0.18644 0.0
C11 C 0.00918 0.44089 0.15553 0.0
C12 C 0.99858 0.41795 0.15712 0.0
C13 C 0.99798 0.43104 0.16007 0.0
C14 C 0.02122 0.42493 0.14457 0.0
C15 C 0.01044 0.4146 0.1498 0.0
C16 C 0.02059 0.43789 0.14744 0.0
C17 C 0.02841 0.49646 0.17321 0.0
C18 C 0.05248 0.49271 0.16716 0.0
C19 C 0.04655 0.51152 0.17763 0.0
C20 C 0.03256 0.50794 0.17781 0.0
C21 C 0.05675 0.5038 0.17261 0.0
C22 C 0.03836 0.48901 0.16751 0.0
C23 C 0.01402 0.49137 0.17663 0.0
O24 O 0.97605 0.47439 0.17119 0.0
O25 O 0.98461 0.45894 0.19438 0.0
O26 O 0.01265 0.47848 0.18842 0.0
O27 O 1.00591 0.49328 0.16396 0.0
H28 H 0.97889 0.48205 0.20575 0.0
H29 H 0.96233 0.48695 0.2245 0.0
H30 H 0.92966 0.4666 0.20678 0.0
H31 H 0.94608 0.4617 0.1884 0.0
H32 H 0.99016 0.41014 0.16133 0.0
H33 H 0.98908 0.4332 0.16636 0.0
H34 H 0.03041 0.42273 0.13875 0.0
H35 H 0.02933 0.44537 0.14385 0.0
H36 H 0.06005 0.48667 0.16305 0.0
H37 H 0.04936 0.51986 0.18232 0.0
H38 H 0.02504 0.51367 0.1824 0.0
H39 H 0.03528 0.48003 0.16397 0.0
C40 C 0.81511 0.61895 0.68777 0.0
C41 C 0.81163 0.6203 0.7026 0.0
C42 C 0.81119 0.59349 0.71662 0.0
C43 C 0.80964 0.60772 0.71684 0.0
C44 C 0.8143 0.59233 0.70152 0.0
C45 C 0.81622 0.60486 0.68736 0.0
U46 U 0.8218 0.66026 0.65776 0.0
O47 O 0.82101 0.6692 0.63065 0.0
O48 O 0.84107 0.66591 0.64338 0.0
C49 C 0.83461 0.67064 0.62924 0.0
C50 C 0.81915 0.63163 0.67294 0.0
C51 C 0.84042 0.684 0.61649 0.0
C52 C 0.85444 0.69405 0.59181 0.0
C53 C 0.8474 0.68232 0.60337 0.0
C54 C 0.84728 0.70979 0.60587 0.0
C55 C 0.85458 0.70805 0.59276 0.0
C56 C 0.84035 0.69787 0.61767 0.0
C57 C 0.80918 0.68211 0.68502 0.0
C58 C 0.80902 0.69967 0.69817 0.0
C59 C 0.80129 0.67492 0.7132 0.0
C60 C 0.80376 0.67142 0.69931 0.0
C61 C 0.8043 0.68905 0.71278 0.0
C62 C 0.81133 0.69633 0.68443 0.0
C63 C 0.81446 0.67895 0.67107 0.0
O64 O 0.80938 0.63993 0.66345 0.0
O65 O 0.83006 0.63912 0.67422 0.0
O66 O 0.82692 0.67308 0.67268 0.0
O67 O 0.80578 0.67434 0.66247 0.0
H68 H 0.81083 0.63104 0.70327 0.0
H69 H 0.80713 0.60919 0.72809 0.0
H70 H 0.816 0.58174 0.70073 0.0
H71 H 0.81916 0.60352 0.67613 0.0
H72 H 0.86016 0.69188 0.5824 0.0
H73 H 0.8478 0.6717 0.60232 0.0
H74 H 0.84693 0.72033 0.60708 0.0
H75 H 0.83513 0.69942 0.62779 0.0
H76 H 0.81195 0.7103 0.69779 0.0
H77 H 0.7976 0.66652 0.72437 0.0
H78 H 0.80209 0.66033 0.69997 0.0
H79 H 0.81572 0.70466 0.67363 0.0
C80 C 0.50068 0.71424 0.66478 0.0
C81 C 0.49071 0.703 0.66914 0.0
C82 C 0.48178 0.71195 0.64109 0.0
C83 C 0.4814 0.70184 0.65738 0.0
C84 C 0.49142 0.72349 0.63695 0.0
C85 C 0.5008 0.72456 0.64865 0.0
U86 U 0.51649 0.70855 0.70765 0.0
O87 O 0.53757 0.70047 0.71672 0.0
O88 O 0.53122 0.72273 0.71403 0.0
C89 C 0.54116 0.7128 0.71817 0.0
C90 C 0.51179 0.71483 0.67625 0.0
C91 C 0.55569 0.71797 0.71435 0.0
C92 C 0.57364 0.73316 0.69631 0.0
C93 C 0.56052 0.72621 0.69848 0.0
C94 C 0.57758 0.72238 0.72551 0.0
C95 C 0.58196 0.73199 0.70998 0.0
C96 C 0.56461 0.71562 0.72765 0.0
C97 C 0.49186 0.69222 0.7462 0.0
C98 C 0.49415 0.69045 0.7745 0.0
C99 C 0.47453 0.67915 0.76659 0.0
C100 C 0.47951 0.6841 0.75053 0.0
C101 C 0.48171 0.68233 0.77873 0.0
C102 C 0.49925 0.6953 0.75835 0.0
C103 C 0.49609 0.69771 0.72874 0.0
O104 O 0.51023 0.7244 0.68329 0.0
O105 O 0.51683 0.70222 0.68621 0.0
O106 O 0.50466 0.68955 0.72416 0.0
O107 O 0.49851 0.71181 0.72146 0.0
H108 H 0.49034 0.69492 0.6815 0.0
H109 H 0.47398 0.69291 0.66098 0.0
H110 H 0.49205 0.73137 0.6245 0.0
H111 H 0.50845 0.73326 0.64497 0.0
H112 H 0.57676 0.74026 0.68414 0.0
H113 H 0.55384 0.72809 0.68797 0.0
H114 H 0.58391 0.72064 0.73626 0.0
H115 H 0.56124 0.70907 0.73995 0.0
H116 H 0.49989 0.69299 0.78369 0.0
H117 H 0.46487 0.67306 0.76947 0.0
H118 H 0.47356 0.6817 0.74137 0.0
H119 H 0.50881 0.70154 0.75532 0.0
C120 C 0.60144 0.28775 0.01889 0.0
C121 C 0.60641 0.28227 0.03509 0.0
C122 C 0.60335 0.30645 0.03717 0.0
C123 C 0.60746 0.29151 0.04406 0.0
C124 C 0.59842 0.31167 0.02088 0.0
C125 C 0.59764 0.30254 0.01192 0.0
U126 U 0.60408 0.25222 0.00834 0.0
O127 O 0.58792 0.24306 0.99705 0.0
O128 O 0.60769 0.2507 0.98416 0.0
C129 C 0.59556 0.24453 0.98418 0.0
C130 C 0.5994 0.27851 0.00894 0.0
C131 C 0.58852 0.24657 0.96839 0.0
C132 C 0.57225 0.25865 0.94593 0.0
C133 C 0.57944 0.25826 0.96012 0.0
C134 C 0.58325 0.23589 0.94811 0.0
C135 C 0.57384 0.24725 0.93996 0.0
C136 C 0.59046 0.2356 0.96203 0.0
C137 C 0.62288 0.21767 0.04072 0.0
C138 C 0.62235 0.1916 0.04549 0.0
C139 C 0.63673 0.20028 0.06256 0.0
C140 C 0.63237 0.21463 0.05368 0.0
C141 C 0.6316 0.18858 0.05878 0.0
C142 C 0.61807 0.20608 0.03644 0.0
C143 C 0.61746 0.23283 0.03321 0.0
O144 O 0.61044 0.27527 1.00214 0.0
O145 O 0.5906 0.26755 0.01455 0.0
O146 O 0.60389 0.23457 0.03272 0.0
O147 O 0.62377 0.24189 0.02014 0.0
H148 H 0.60942 0.27086 0.04082 0.0
H149 H 0.61156 0.28685 0.05637 0.0
H150 H 0.59473 0.32278 0.01491 0.0
H151 H 0.59371 0.30705 0.99949 0.0
H152 H 0.56513 0.26761 0.93995 0.0
H153 H 0.57773 0.26688 0.96476 0.0
H154 H 0.58503 0.22711 0.94374 0.0
H155 H 0.59742 0.22649 0.96811 0.0
H156 H 0.61829 0.18274 0.04231 0.0
H157 H 0.6437 0.19827 0.07286 0.0
H158 H 0.63611 0.22336 0.05731 0.0
H159 H 0.61074 0.20816 0.02647 0.0
C160 C 0.9644 0.54121 0.3196 0.0
C161 C 0.96891 0.53449 0.30889 0.0
C162 C 0.94528 0.53576 0.29796 0.0
C163 C 0.95941 0.53175 0.29818 0.0
C164 C 0.94079 0.54155 0.30951 0.0
C165 C 0.95023 0.54427 0.32012 0.0
U166 U 0.99929 0.54173 0.34185 0.0
O167 O 0.01206 0.56067 0.3404 0.0
O168 O 1.00319 0.54658 0.364 0.0
C169 C 0.01067 0.55824 0.35603 0.0
C170 C 0.97415 0.5466 0.32912 0.0
C171 C 0.00866 0.57124 0.36022 0.0
C172 C 0.99712 0.5942 0.35676 0.0
C173 C 0.99766 0.58113 0.35384 0.0
C174 C 0.01833 0.58733 0.37274 0.0
C175 C 1.00761 0.59759 0.366 0.0
C176 C 0.0188 0.5743 0.36991 0.0
C177 C 0.0288 0.51525 0.34285 0.0
C178 C 0.05289 0.51857 0.34925 0.0
C179 C 0.04682 0.49998 0.3385 0.0
C180 C 0.03286 0.50377 0.33818 0.0
C181 C 0.05708 0.50748 0.34373 0.0
C182 C 0.03881 0.52248 0.34874 0.0
C183 C 0.01446 0.52057 0.3393 0.0
O184 O 0.9766 0.53799 0.34439 0.0
O185 O 0.98531 0.55341 0.32138 0.0
O186 O 0.01323 0.53353 0.32757 0.0
O187 O 1.00632 0.51871 0.35189 0.0
H188 H 0.97983 0.53194 0.30832 0.0
H189 H 0.96327 0.52726 0.28948 0.0
H190 H 0.92998 0.54449 0.30998 0.0
H191 H 0.94649 0.54938 0.32831 0.0
H192 H 0.98862 0.60175 0.35154 0.0
H193 H 0.98974 0.57893 0.3463 0.0
H194 H 0.02674 0.58961 0.37962 0.0
H195 H 0.02742 0.56682 0.37483 0.0
H196 H 0.0605 0.52443 0.35353 0.0
H197 H 0.04956 0.49164 0.33377 0.0
H198 H 0.02529 0.4982 0.33345 0.0
H199 H 0.0358 0.53146 0.35234 0.0
C200 C 0.60373 0.72428 0.49686 0.0
C201 C 0.606 0.73016 0.47984 0.0
C202 C 0.60536 0.70551 0.47873 0.0
C203 C 0.60684 0.72088 0.47089 0.0
C204 C 0.60355 0.6998 0.49584 0.0
C205 C 0.60272 0.70902 0.50469 0.0
U206 U 0.60588 0.75975 0.50753 0.0
O207 O 0.58972 0.76872 0.51901 0.0
O208 O 0.60966 0.76124 0.53171 0.0
C209 C 0.59747 0.7673 0.53182 0.0
C210 C 0.60149 0.73346 0.50683 0.0
C211 C 0.59063 0.76526 0.54769 0.0
C212 C 0.57498 0.75294 0.57063 0.0
C213 C 0.58191 0.7534 0.55628 0.0
C214 C 0.58552 0.776 0.56795 0.0
C215 C 0.57647 0.76444 0.57645 0.0
C216 C 0.59246 0.77637 0.55387 0.0
C217 C 0.62441 0.7944 0.47509 0.0
C218 C 0.62305 0.82069 0.46895 0.0
C219 C 0.639 0.81138 0.45391 0.0
C220 C 0.63471 0.7971 0.46308 0.0
C221 C 0.63307 0.8234 0.45648 0.0
C222 C 0.61876 0.80628 0.47822 0.0
C223 C 0.61903 0.77925 0.48266 0.0
O224 O 0.61244 0.73672 0.51377 0.0
O225 O 0.59257 0.74436 0.50123 0.0
O226 O 0.60546 0.77749 0.48321 0.0
O227 O 0.62546 0.77015 0.49566 0.0
H228 H 0.60685 0.7419 0.47344 0.0
H229 H 0.60821 0.72582 0.45777 0.0
H230 H 0.60275 0.68811 0.50253 0.0
H231 H 0.60102 0.70417 0.51778 0.0
H232 H 0.56813 0.74383 0.57686 0.0
H233 H 0.5803 0.74466 0.5518 0.0
H234 H 0.58722 0.78489 0.57218 0.0
H235 H 0.59915 0.78562 0.54755 0.0
H236 H 0.61837 0.82971 0.47134 0.0
H237 H 0.64655 0.81304 0.44428 0.0
H238 H 0.63912 0.78813 0.46034 0.0
H239 H 0.61079 0.80448 0.48743 0.0
C240 C 0.55254 0.29248 0.80036 0.0
C241 C 0.56117 0.29487 0.78686 0.0
C242 C 0.57954 0.28002 0.8044 0.0
C243 C 0.57451 0.28889 0.78883 0.0
C244 C 0.57146 0.27888 0.8182 0.0
C245 C 0.55799 0.28513 0.81619 0.0
U246 U 0.51293 0.29931 0.80805 0.0
O247 O 0.50771 0.28377 0.83289 0.0
O248 O 0.51338 0.30644 0.8289 0.0
C249 C 0.50929 0.29369 0.83944 0.0
C250 C 0.53771 0.29651 0.79686 0.0
C251 C 0.49894 0.29403 0.8517 0.0
C252 C 0.49446 0.29123 0.87987 0.0
C253 C 0.50342 0.29017 0.86789 0.0
C254 C 0.47603 0.29964 0.85975 0.0
C255 C 0.48058 0.29598 0.87608 0.0
C256 C 0.48515 0.29876 0.84765 0.0
C257 C 0.48774 0.31373 0.76999 0.0
C258 C 0.47088 0.3272 0.74913 0.0
C259 C 0.49077 0.31598 0.74162 0.0
C260 C 0.49542 0.31074 0.758 0.0
C261 C 0.47848 0.32441 0.737 0.0
C262 C 0.47543 0.32191 0.76537 0.0
C263 C 0.49188 0.30855 0.78747 0.0
O264 O 0.5333 0.30875 0.79796 0.0
O265 O 0.52849 0.28589 0.80166 0.0
O266 O 0.49981 0.31731 0.79186 0.0
O267 O 0.49514 0.29463 0.79487 0.0
H268 H 0.55731 0.30075 0.77458 0.0
H269 H 0.5806 0.29055 0.77796 0.0
H270 H 0.57502 0.27222 0.83039 0.0
H271 H 0.55153 0.28324 0.82683 0.0
H272 H 0.49864 0.28865 0.89203 0.0
H273 H 0.51405 0.28661 0.87125 0.0
H274 H 0.46542 0.30314 0.85627 0.0
H275 H 0.48147 0.30185 0.83518 0.0
H276 H 0.46128 0.33343 0.74606 0.0
H277 H 0.49687 0.31367 0.73254 0.0
H278 H 0.50497 0.30443 0.76127 0.0
H279 H 0.46927 0.32424 0.7744 0.0
C280 C 0.83839 0.33011 0.89828 0.0
C281 C 0.83835 0.31624 0.89709 0.0
C282 C 0.85303 0.30614 0.92174 0.0
C283 C 0.84552 0.30435 0.90877 0.0
C284 C 0.85286 0.32013 0.9227 0.0
C285 C 0.84558 0.33181 0.91128 0.0
U286 U 0.8193 0.354 0.8572 0.0
O287 O 0.80704 0.3745 0.85154 0.0
O288 O 0.8276 0.37504 0.84065 0.0
C289 C 0.81683 0.38267 0.84206 0.0
C290 C 0.8324 0.34348 0.88561 0.0
C291 C 0.8129 0.39567 0.82741 0.0
C292 C 0.81275 0.42236 0.81413 0.0
C293 C 0.81452 0.4096 0.82812 0.0
C294 C 0.80718 0.40752 0.79843 0.0
C295 C 0.80926 0.42159 0.79893 0.0
C296 C 0.80905 0.39471 0.81248 0.0
C297 C 0.80678 0.3316 0.83033 0.0
C298 C 0.7989 0.33796 0.8022 0.0
C299 C 0.80814 0.31384 0.81751 0.0
C300 C 0.80988 0.31748 0.83114 0.0
C301 C 0.80294 0.324 0.80284 0.0
C302 C 0.80087 0.3418 0.81596 0.0
C303 C 0.81187 0.33528 0.844 0.0
O304 O 0.83871 0.34825 0.87141 0.0
O305 O 0.81879 0.34495 0.88433 0.0
O306 O 0.80315 0.3401 0.85236 0.0
O307 O 0.82434 0.34107 0.8424 0.0
H308 H 0.83299 0.31466 0.88706 0.0
H309 H 0.84519 0.29381 0.90755 0.0
H310 H 0.85873 0.32235 0.93199 0.0
H311 H 0.84597 0.34243 0.91232 0.0
H312 H 0.81485 0.4328 0.81514 0.0
H313 H 0.81775 0.41063 0.83943 0.0
H314 H 0.80434 0.40635 0.7871 0.0
H315 H 0.80784 0.3841 0.81158 0.0
H316 H 0.79485 0.34601 0.79096 0.0
H317 H 0.81202 0.30348 0.81794 0.0
H318 H 0.81469 0.30954 0.84198 0.0
H319 H 0.79849 0.35282 0.81511 0.0
C320 C 0.33088 0.21574 0.19211 0.0
C321 C 0.3264 0.22167 0.20346 0.0
C322 C 0.30375 0.22838 0.18964 0.0
C323 C 0.31322 0.22818 0.20205 0.0
C324 C 0.30872 0.22324 0.17766 0.0
C325 C 0.3222 0.21729 0.17872 0.0
U326 U 0.36578 0.18948 0.20248 0.0
O327 O 0.36137 0.16577 0.21158 0.0
O328 O 0.36939 0.17679 0.18671 0.0
C329 C 0.36539 0.16437 0.198 0.0
C330 C 0.34346 0.2062 0.19552 0.0
C331 C 0.37265 0.15059 0.19917 0.0
C332 C 0.37285 0.12972 0.19064 0.0
C333 C 0.36806 0.14364 0.18887 0.0
C334 C 0.38809 0.12963 0.2124 0.0
C335 C 0.38281 0.12208 0.20265 0.0
C336 C 0.38297 0.1436 0.21081 0.0
C337 C 0.39642 0.2048 0.22247 0.0
C338 C 0.41916 0.20854 0.23222 0.0
C339 C 0.39935 0.22214 0.23608 0.0
C340 C 0.39073 0.21512 0.22829 0.0
C341 C 0.4137 0.21889 0.23808 0.0
C342 C 0.41065 0.20166 0.2245 0.0
C343 C 0.38809 0.19585 0.21566 0.0
O344 O 0.35304 0.20722 0.1845 0.0
O345 O 0.34625 0.19672 0.21023 0.0
O346 O 0.38629 0.20031 0.19973 0.0
O347 O 0.37758 0.1884 0.22429 0.0
H348 H 0.33295 0.22084 0.2138 0.0
H349 H 0.31043 0.23267 0.21111 0.0
H350 H 0.30206 0.22304 0.16785 0.0
H351 H 0.32542 0.2129 0.16969 0.0
H352 H 0.36824 0.12509 0.18257 0.0
H353 H 0.3604 0.14886 0.17949 0.0
H354 H 0.39601 0.12484 0.22154 0.0
H355 H 0.3869 0.14878 0.21884 0.0
H356 H 0.43004 0.20542 0.23398 0.0
H357 H 0.39483 0.23002 0.24055 0.0
H358 H 0.37969 0.21755 0.22704 0.0
H359 H 0.41519 0.1935 0.22045 0.0
C360 C 0.16606 0.99467 0.60628 0.0
C361 C 0.15278 0.99737 0.59896 0.0
C362 C 0.1485 0.97097 0.608 0.0
C363 C 0.14408 0.98558 0.59975 0.0
C364 C 0.16189 0.96848 0.61494 0.0
C365 C 0.17052 0.98015 0.61408 0.0
U366 U 0.17819 0.03493 0.59818 0.0
O367 O 0.19075 0.0424 0.61457 0.0
O368 O 0.19917 0.04411 0.59073 0.0
C369 C 0.20121 0.04647 0.60429 0.0
C370 C 0.17566 0.00641 0.60638 0.0
C371 C 0.2155 0.04509 0.61106 0.0
C372 C 0.23715 0.03203 0.6222 0.0
C373 C 0.22339 0.03207 0.61645 0.0
C374 C 0.23491 0.05776 0.61756 0.0
C375 C 0.24317 0.04501 0.62255 0.0
C376 C 0.2214 0.0578 0.61182 0.0
C377 C 0.15258 0.06779 0.57667 0.0
C378 C 0.15517 0.09392 0.57087 0.0
C379 C 0.13477 0.08509 0.5613 0.0
C380 C 0.13981 0.07076 0.56838 0.0
C381 C 0.14238 0.09689 0.56234 0.0
C382 C 0.16027 0.07947 0.57794 0.0
C383 C 0.15726 0.05234 0.58375 0.0
O384 O 0.18064 0.01519 0.59224 0.0
O385 O 0.17264 0.01319 0.61628 0.0
O386 O 0.15883 0.04642 0.59971 0.0
O387 O 0.16691 0.04832 0.57574 0.0
H388 H 0.14911 0.00851 0.59284 0.0
H389 H 0.13378 0.98786 0.59436 0.0
H390 H 0.1657 0.95742 0.6212 0.0
H391 H 0.18073 0.9778 0.61972 0.0
H392 H 0.24315 0.02198 0.62597 0.0
H393 H 0.21901 0.02207 0.61606 0.0
H394 H 0.23886 0.06788 0.61808 0.0
H395 H 0.2155 0.06794 0.60785 0.0
H396 H 0.16133 0.10278 0.57183 0.0
H397 H 0.12479 0.0869 0.55512 0.0
H398 H 0.13366 0.06192 0.56735 0.0
H399 H 0.17017 0.07743 0.58431 0.0
C400 C 0.16666 0.01681 0.91064 0.0
C401 C 0.15337 0.01416 0.91788 0.0
C402 C 0.14913 0.04056 0.90894 0.0
C403 C 0.14468 0.02598 0.9171 0.0
C404 C 0.16253 0.043 0.90211 0.0
C405 C 0.17114 0.03131 0.90296 0.0
U406 U 0.17853 0.97649 0.91865 0.0
O407 O 0.1908 0.96882 0.90225 0.0
O408 O 0.19949 0.96705 0.92603 0.0
C409 C 0.20134 0.96463 0.91248 0.0
C410 C 0.17621 1.00504 0.91047 0.0
C411 C 0.21554 0.96581 0.90562 0.0
C412 C 0.23718 0.9786 0.89421 0.0
C413 C 0.22354 0.97872 0.90018 0.0
C414 C 0.23458 0.95294 0.89869 0.0
C415 C 0.24296 0.96558 0.89363 0.0
C416 C 0.22121 0.95305 0.9047 0.0
C417 C 0.15283 0.94396 0.94018 0.0
C418 C 0.155 0.91792 0.94528 0.0
C419 C 0.13526 0.92675 0.956 0.0
C420 C 0.14036 0.94102 0.94902 0.0
C421 C 0.1425 0.91497 0.95433 0.0
C422 C 0.16016 0.93232 0.93829 0.0
C423 C 0.15755 0.95937 0.93312 0.0
O424 O 0.18126 0.99621 0.92459 0.0
O425 O 0.17305 0.9983 0.90056 0.0
O426 O 0.15903 0.96528 0.91716 0.0
O427 O 0.16731 0.96327 0.94112 0.0
H428 H 0.14969 1.00303 0.9239 0.0
H429 H 0.13437 0.02375 0.92239 0.0
H430 H 0.16634 0.05406 0.89591 0.0
H431 H 0.18135 0.03362 0.89739 0.0
H432 H 0.24325 0.98857 0.89042 0.0
H433 H 0.21933 0.98876 0.90069 0.0
H434 H 0.23829 0.94281 0.89797 0.0
H435 H 0.21523 0.943 0.9087 0.0
H436 H 0.16087 0.90907 0.94383 0.0
H437 H 0.12551 0.92495 0.96261 0.0
H438 H 0.1345 0.94985 0.95052 0.0
H439 H 0.16982 0.93434 0.9315 0.0
C440 C 0.32927 0.79625 0.32217 0.0
C441 C 0.32344 0.79294 0.30931 0.0
C442 C 0.30206 0.78427 0.32482 0.0
C443 C 0.30998 0.78709 0.31059 0.0
C444 C 0.30824 0.78653 0.33817 0.0
C445 C 0.32174 0.79244 0.33686 0.0
U446 U 0.36456 0.82181 0.31326 0.0
O447 O 0.36043 0.84563 0.30405 0.0
O448 O 0.36785 0.8344 0.3292 0.0
C449 C 0.36404 0.84689 0.31784 0.0
C450 C 0.34204 0.80548 0.31934 0.0
C451 C 0.37099 0.86065 0.31722 0.0
C452 C 0.36999 0.88153 0.3257 0.0
C453 C 0.36525 0.86781 0.32676 0.0
C454 C 0.38732 0.88115 0.30617 0.0
C455 C 0.38097 0.88879 0.31522 0.0
C456 C 0.38231 0.86731 0.30705 0.0
C457 C 0.39542 0.80585 0.29424 0.0
C458 C 0.41867 0.80083 0.28698 0.0
C459 C 0.3987 0.79297 0.27558 0.0
C460 C 0.38981 0.79874 0.2844 0.0
C461 C 0.41323 0.79452 0.27633 0.0
C462 C 0.40988 0.8064 0.29579 0.0
C463 C 0.38709 0.81497 0.30088 0.0
O464 O 0.35137 0.80425 0.33073 0.0
O465 O 0.34524 0.81493 0.30478 0.0
O466 O 0.38499 0.81057 0.31675 0.0
O467 O 0.37684 0.82276 0.29191 0.0
H468 H 0.32904 0.79554 0.29792 0.0
H469 H 0.30555 0.78526 0.30021 0.0
H470 H 0.30237 0.78444 0.34929 0.0
H471 H 0.32589 0.79492 0.34697 0.0
H472 H 0.36457 0.88643 0.33301 0.0
H473 H 0.35678 0.86287 0.33501 0.0
H474 H 0.39606 0.88578 0.29824 0.0
H475 H 0.38715 0.86196 0.29967 0.0
H476 H 0.4298 0.80202 0.28798 0.0
H477 H 0.39424 0.78815 0.26747 0.0
H478 H 0.37865 0.79827 0.28293 0.0
H479 H 0.41444 0.81195 0.30316 0.0
C480 C 0.34211 0.12025 0.16899 0.0
C481 C 0.33808 0.12303 0.18283 0.0
C482 C 0.34583 0.09861 0.20049 0.0
C483 C 0.34005 0.11233 0.19851 0.0
C484 C 0.34855 0.09548 0.18644 0.0
C485 C 0.34687 0.10627 0.17086 0.0
U486 U 0.34111 0.16075 0.13871 0.0
O487 O 0.35812 0.17071 0.12163 0.0
O488 O 0.33719 0.16974 0.11205 0.0
C489 C 0.35018 0.17397 0.10862 0.0
C490 C 0.3437 0.13216 0.15295 0.0
C491 C 0.35281 0.18829 0.09554 0.0
C492 C 0.36394 0.20153 0.06947 0.0
C493 C 0.35972 0.18838 0.08154 0.0
C494 C 0.3539 0.21491 0.08492 0.0
C495 C 0.36121 0.21504 0.07096 0.0
C496 C 0.34982 0.20163 0.09718 0.0
C497 C 0.32593 0.17338 0.17197 0.0
C498 C 0.3131 0.18338 0.18903 0.0
C499 C 0.32873 0.16302 0.20153 0.0
C500 C 0.33168 0.16282 0.18608 0.0
C501 C 0.32021 0.17408 0.20319 0.0
C502 C 0.31603 0.18309 0.17366 0.0
C503 C 0.33112 0.17566 0.15549 0.0
O504 O 0.33235 0.13854 0.14517 0.0
O505 O 0.3537 0.14144 0.15223 0.0
O506 O 0.34449 0.17333 0.15435 0.0
O507 O 0.32328 0.17083 0.14635 0.0
H508 H 0.33416 0.13369 0.18154 0.0
H509 H 0.33758 0.115 0.20906 0.0
H510 H 0.35304 0.08508 0.18744 0.0
H511 H 0.3501 0.10394 0.1603 0.0
H512 H 0.36978 0.20097 0.05923 0.0
H513 H 0.36227 0.17817 0.08016 0.0
H514 H 0.35138 0.22504 0.08647 0.0
H515 H 0.34458 0.20177 0.10799 0.0
H516 H 0.30592 0.19171 0.18925 0.0
H517 H 0.33369 0.15482 0.21195 0.0
H518 H 0.33899 0.15489 0.18514 0.0
H519 H 0.31118 0.19114 0.16294 0.0
C520 C 0.05559 0.78205 0.31938 0.0
C521 C 0.06302 0.78332 0.30526 0.0
C522 C 0.08492 0.77687 0.32054 0.0
C523 C 0.07736 0.78079 0.30579 0.0
C524 C 0.07744 0.77563 0.33484 0.0
C525 C 0.06291 0.77825 0.33426 0.0
U526 U 0.01502 0.7864 0.32836 0.0
O527 O 0.00957 0.77029 0.35296 0.0
O528 O 0.01403 0.79308 0.34956 0.0
C529 C 0.0102 0.78009 0.35981 0.0
C530 C 0.04033 0.78489 0.31747 0.0
C531 C 0.99949 0.77956 0.37227 0.0
C532 C 0.99283 0.76994 0.40112 0.0
C533 C 1.00136 0.76955 0.38838 0.0
C534 C 0.97993 0.79015 0.38185 0.0
C535 C 0.98216 0.78046 0.39821 0.0
C536 C 0.98849 0.78971 0.36906 0.0
C537 C 0.98973 0.80101 0.28974 0.0
C538 C 0.97275 0.81558 0.26959 0.0
C539 C 0.99127 0.80337 0.26114 0.0
C540 C 0.99649 0.79779 0.27733 0.0
C541 C 0.97924 0.81239 0.25695 0.0
C542 C 0.97783 0.80989 0.28563 0.0
C543 C 0.99426 0.7953 0.30719 0.0
O544 O 0.03529 0.79671 0.31903 0.0
O545 O 0.03168 0.77375 0.32222 0.0
O546 O 1.00158 0.80411 0.31217 0.0
O547 O 0.99811 0.78151 0.31409 0.0
H548 H 0.05765 0.78614 0.29366 0.0
H549 H 0.0824 0.7814 0.29458 0.0
H550 H 0.08277 0.77256 0.34648 0.0
H551 H 0.05742 0.77714 0.34538 0.0
H552 H 0.99476 0.76203 0.41332 0.0
H553 H 0.00976 0.76163 0.39124 0.0
H554 H 0.97195 0.7985 0.37894 0.0
H555 H 0.9868 0.79761 0.35677 0.0
H556 H 0.96379 0.82273 0.2672 0.0
H557 H 0.99661 0.80038 0.25204 0.0
H558 H 1.00569 0.79093 0.28013 0.0
H559 H 0.9724 0.81253 0.29495 0.0
C560 C 0.09929 0.77135 0.54265 0.0
C561 C 0.098 0.76585 0.55979 0.0
C562 C 0.09967 0.79066 0.55986 0.0
C563 C 0.09813 0.77543 0.5683 0.0
C564 C 0.10135 0.79599 0.54278 0.0
C565 C 0.10113 0.78646 0.53431 0.0
U566 U 0.10148 0.73441 0.53614 0.0
O567 O 0.08691 0.72539 0.52301 0.0
O568 O 0.10856 0.73001 0.51458 0.0
C569 C 0.09634 0.72503 0.51238 0.0
C570 C 0.09796 0.76191 0.53295 0.0
C571 C 0.0918 0.72772 0.49547 0.0
C572 C 0.07931 0.74125 0.47015 0.0
C573 C 0.08408 0.74007 0.48574 0.0
C574 C 0.09001 0.7179 0.47403 0.0
C575 C 0.08223 0.73011 0.46414 0.0
C576 C 0.09475 0.71678 0.4894 0.0
C577 C 0.11377 0.6998 0.57304 0.0
C578 C 0.11283 0.67405 0.57652 0.0
C579 C 0.122 0.68102 0.59818 0.0
C580 C 0.11975 0.69573 0.58859 0.0
C581 C 0.11822 0.66995 0.5925 0.0
C582 C 0.11056 0.68892 0.56684 0.0
C583 C 0.11034 0.71541 0.56434 0.0
O584 O 0.10957 0.75695 0.52902 0.0
O585 O 0.08797 0.7521 0.53722 0.0
O586 O 0.09714 0.71863 0.56095 0.0
O587 O 0.11875 0.72312 0.55254 0.0
H588 H 0.09664 0.75421 0.56653 0.0
H589 H 0.09696 0.77094 0.58148 0.0
H590 H 0.1024 0.80763 0.53586 0.0
H591 H 0.10209 0.79097 0.52111 0.0
H592 H 0.07342 0.75085 0.46281 0.0
H593 H 0.08164 0.74865 0.49023 0.0
H594 H 0.09222 0.70896 0.47004 0.0
H595 H 0.10055 0.70709 0.49676 0.0
H596 H 0.10984 0.66578 0.57178 0.0
H597 H 0.12647 0.6783 0.61025 0.0
H598 H 0.12238 0.70396 0.59354 0.0
H599 H 0.10598 0.69187 0.55479 0.0
C600 C 0.00971 0.57409 0.85774 0.0
C601 C 0.9969 0.58064 0.85847 0.0
C602 C 0.00844 0.59999 0.86453 0.0
C603 C 0.99625 0.59337 0.86187 0.0
C604 C 0.02138 0.59349 0.86378 0.0
C605 C 0.02203 0.58053 0.86052 0.0
U606 U 0.01919 0.54147 0.8427 0.0
O607 O 0.03191 0.55098 0.82052 0.0
O608 O 0.04189 0.53746 0.84374 0.0
C609 C 0.04349 0.54499 0.828 0.0
C610 C 0.00927 0.56034 0.85464 0.0
C611 C 0.05342 0.53942 0.81879 0.0
C612 C 0.07622 0.54246 0.80606 0.0
C613 C 0.06687 0.54525 0.81663 0.0
C614 C 0.05922 0.52699 0.80016 0.0
C615 C 0.07243 0.5337 0.79726 0.0
C616 C 0.0497 0.52992 0.8108 0.0
C617 C 0.98876 0.51439 0.84958 0.0
C618 C 0.97024 0.49758 0.84983 0.0
C619 C 0.96503 0.51917 0.85581 0.0
C620 C 0.97915 0.52301 0.85406 0.0
C621 C 0.96048 0.50661 0.85329 0.0
C622 C 0.98426 0.50148 0.84792 0.0
C623 C 1.003 0.51947 0.84441 0.0
O624 O 0.01742 0.54934 0.86307 0.0
O625 O 1.00693 0.56128 0.83959 0.0
O626 O 1.0038 0.53167 0.8315 0.0
O627 O 0.01199 0.51879 0.85593 0.0
H628 H 0.98728 0.57583 0.85643 0.0
H629 H 0.98615 0.5982 0.86208 0.0
H630 H 0.03095 0.59837 0.86581 0.0
H631 H 0.03204 0.5756 0.86015 0.0
H632 H 0.08634 0.54766 0.80428 0.0
H633 H 0.06998 0.55259 0.82262 0.0
H634 H 0.05598 0.52019 0.79356 0.0
H635 H 0.03936 0.52525 0.81227 0.0
H636 H 0.96689 0.48801 0.84753 0.0
H637 H 0.95759 0.52631 0.85839 0.0
H638 H 0.98243 0.53306 0.85534 0.0
H639 H 0.99149 0.49481 0.84429 0.0
C640 C 0.20613 0.39611 0.33565 0.0
C641 C 0.21094 0.39443 0.32137 0.0
C642 C 0.2127 0.42111 0.30714 0.0
C643 C 0.21413 0.40678 0.30727 0.0
C644 C 0.20817 0.42262 0.32165 0.0
C645 C 0.20487 0.41031 0.33564 0.0
U646 U 0.19873 0.35489 0.35814 0.0
O647 O 0.1986 0.34008 0.38436 0.0
O648 O 0.17904 0.34519 0.3702 0.0
C649 C 0.18499 0.33851 0.3845 0.0
C650 C 0.20118 0.38345 0.3501 0.0
C651 C 0.17801 0.32563 0.39693 0.0
C652 C 0.1632 0.31684 0.42112 0.0
C653 C 0.17094 0.32798 0.40962 0.0
C654 C 0.16971 0.30027 0.40788 0.0
C655 C 0.16239 0.30271 0.42059 0.0
C656 C 0.17737 0.31164 0.39611 0.0
C657 C 0.21202 0.33812 0.32521 0.0
C658 C 0.21475 0.31613 0.31939 0.0
C659 C 0.21331 0.33977 0.29716 0.0
C660 C 0.21254 0.34653 0.30844 0.0
C661 C 0.21366 0.32444 0.30249 0.0
C662 C 0.21356 0.32291 0.33076 0.0
C663 C 0.20806 0.34565 0.33601 0.0
O664 O 0.1899 0.37708 0.34762 0.0
O665 O 0.21055 0.37397 0.35882 0.0
O666 O 0.21546 0.34445 0.34903 0.0
O667 O 0.19538 0.35061 0.33566 0.0
H668 H 0.21186 0.38358 0.32098 0.0
H669 H 0.21745 0.40514 0.29634 0.0
H670 H 0.20645 0.43339 0.32196 0.0
H671 H 0.20092 0.41194 0.34634 0.0
H672 H 0.15752 0.31959 0.43017 0.0
H673 H 0.17111 0.3387 0.41044 0.0
H674 H 0.16958 0.28961 0.40697 0.0
H675 H 0.18266 0.30952 0.38637 0.0
H676 H 0.21578 0.30439 0.32389 0.0
H677 H 0.21309 0.34653 0.28424 0.0
H678 H 0.21156 0.35836 0.30401 0.0
H679 H 0.21329 0.31627 0.34371 0.0
C680 C 0.46135 0.29075 0.31729 0.0
C681 C 0.45664 0.29335 0.30134 0.0
C682 C 0.43545 0.27917 0.31226 0.0
C683 C 0.44368 0.28783 0.29884 0.0
C684 C 0.44005 0.27734 0.32809 0.0
C685 C 0.45271 0.28322 0.3305 0.0
U686 U 0.49992 0.30402 0.30761 0.0
O687 O 0.51857 0.29367 0.32197 0.0
O688 O 0.51252 0.31596 0.31951 0.0
C689 C 0.52133 0.30505 0.32585 0.0
C690 C 0.47557 0.29441 0.32099 0.0
C691 C 0.52699 0.30222 0.34241 0.0
C692 C 0.52564 0.30233 0.37007 0.0
C693 C 0.51905 0.30311 0.35543 0.0
C694 C 0.54785 0.29903 0.35903 0.0
C695 C 0.54022 0.3008 0.37176 0.0
C696 C 0.54134 0.29977 0.34459 0.0
C697 C 0.51323 0.31707 0.26213 0.0
C698 C 0.5334 0.3313 0.24808 0.0
C699 C 0.51922 0.3188 0.23465 0.0
C700 C 0.51064 0.31354 0.24839 0.0
C701 C 0.53069 0.32778 0.23423 0.0
C702 C 0.52476 0.32595 0.26196 0.0
C703 C 0.50313 0.31186 0.27578 0.0
O704 O 0.48559 0.28578 0.31979 0.0
O705 O 0.47913 0.3083 0.31555 0.0
O706 O 0.49942 0.32101 0.28275 0.0
O707 O 0.50454 0.2983 0.28621 0.0
H708 H 0.46313 0.29921 0.29091 0.0
H709 H 0.44041 0.28982 0.28643 0.0
H710 H 0.43429 0.2707 0.33882 0.0
H711 H 0.4561 0.28121 0.34288 0.0
H712 H 0.51945 0.3037 0.37966 0.0
H713 H 0.50792 0.30493 0.35407 0.0
H714 H 0.55904 0.29757 0.35999 0.0
H715 H 0.54767 0.29899 0.33478 0.0
H716 H 0.54221 0.33812 0.24819 0.0
H717 H 0.51667 0.31606 0.22416 0.0
H718 H 0.50176 0.30684 0.24816 0.0
H719 H 0.52698 0.32884 0.27243 0.0
C720 C 0.40986 0.722 0.99833 0.0
C721 C 0.40535 0.72815 0.98195 0.0
C722 C 0.40831 0.70447 0.9788 0.0
C723 C 0.40454 0.71947 0.97231 0.0
C724 C 0.41267 0.6985 0.99528 0.0
C725 C 0.41336 0.70709 1.00485 0.0
U726 U 0.40776 0.75708 0.00939 0.0
O727 O 0.40449 0.75886 0.03351 0.0
O728 O 0.42421 0.76617 0.02035 0.0
C729 C 0.41672 0.76491 0.03327 0.0
C730 C 0.41198 0.73074 0.0088 0.0
C731 C 0.42394 0.76304 0.04889 0.0
C732 C 0.43985 0.75068 0.07164 0.0
C733 C 0.4324 0.75095 0.05766 0.0
C734 C 0.43029 0.77437 0.06826 0.0
C735 C 0.43913 0.7626 0.07689 0.0
C736 C 0.42285 0.77456 0.05454 0.0
C737 C 0.39022 0.79182 0.97547 0.0
C738 C 0.38268 0.81595 0.97411 0.0
C739 C 0.38449 0.81094 0.94929 0.0
C740 C 0.38873 0.79665 0.95845 0.0
C741 C 0.38151 0.82079 0.95695 0.0
C742 C 0.38711 0.80154 0.98335 0.0
C743 C 0.39497 0.77654 0.98409 0.0
O744 O 0.42108 0.74143 1.00362 0.0
O745 O 0.40092 0.73418 0.01541 0.0
O746 O 0.38842 0.76823 0.99741 0.0
O747 O 0.40844 0.77417 0.98465 0.0
H748 H 0.40261 0.73965 0.97657 0.0
H749 H 0.40095 0.72455 0.9598 0.0
H750 H 0.41599 0.68719 1.00081 0.0
H751 H 0.41697 0.7021 0.01737 0.0
H752 H 0.4465 0.74139 0.078 0.0
H753 H 0.43345 0.74189 0.05358 0.0
H754 H 0.42913 0.78357 0.07208 0.0
H755 H 0.41637 0.78399 0.04806 0.0
H756 H 0.38044 0.82337 0.98029 0.0
H757 H 0.38348 0.8143 0.93615 0.0
H758 H 0.39093 0.78931 0.95214 0.0
H759 H 0.38817 0.79805 0.9965 0.0
C760 C 0.05331 0.47257 0.69303 0.0
C761 C 0.0493 0.48176 0.70127 0.0
C762 C 0.07187 0.47793 0.71523 0.0
C763 C 0.05857 0.4845 0.71225 0.0
C764 C 0.07596 0.46945 0.70621 0.0
C765 C 0.06682 0.46682 0.69529 0.0
U766 U 0.0188 0.47269 0.66948 0.0
O767 O 0.01543 0.46665 0.64799 0.0
O768 O 1.0056 0.45387 0.67153 0.0
C769 C 1.00728 0.45561 0.65612 0.0
C770 C 0.04351 0.46738 0.68337 0.0
C771 C 1.00798 0.44221 0.65243 0.0
C772 C 0.01846 0.41899 0.65461 0.0
C773 C 0.01926 0.43239 0.65689 0.0
C774 C 0.99543 0.42554 0.64291 0.0
C775 C 1.00632 0.41528 0.64802 0.0
C776 C 0.99625 0.4388 0.64513 0.0
C777 C 0.98969 0.50041 0.66617 0.0
C778 C 0.96579 0.49759 0.65872 0.0
C779 C 0.97152 0.51582 0.67008 0.0
C780 C 0.98548 0.51185 0.67085 0.0
C781 C 0.96138 0.50855 0.66435 0.0
C782 C 0.97984 0.49345 0.65974 0.0
C783 C 1.00391 0.49476 0.67029 0.0
O784 O 0.03201 0.46122 0.69081 0.0
O785 O 0.04161 0.47572 0.66788 0.0
O786 O 0.01226 0.49583 0.65809 0.0
O787 O 1.00476 0.48208 0.68253 0.0
H788 H 0.03889 0.48634 0.69971 0.0
H789 H 0.05509 0.49107 0.71901 0.0
H790 H 0.08616 0.4644 0.70802 0.0
H791 H 0.07014 0.45973 0.68908 0.0
H792 H 0.027 0.41128 0.65869 0.0
H793 H 0.02842 0.43485 0.66256 0.0
H794 H 0.98604 0.42313 0.63757 0.0
H795 H 0.98746 0.44624 0.64158 0.0
H796 H 0.95836 0.49193 0.65393 0.0
H797 H 0.96866 0.52407 0.67488 0.0
H798 H 0.99293 0.51723 0.67598 0.0
H799 H 0.98293 0.48451 0.65612 0.0
C800 C 0.40938 0.28864 0.51604 0.0
C801 C 0.40462 0.28275 0.5323 0.0
C802 C 0.40774 0.30654 0.53511 0.0
C803 C 0.40377 0.29161 0.54171 0.0
C804 C 0.41234 0.31225 0.51875 0.0
C805 C 0.41307 0.30347 0.5094 0.0
U806 U 0.40718 0.25325 0.50564 0.0
O807 O 0.40373 0.25128 0.48165 0.0
O808 O 0.42351 0.24395 0.49478 0.0
C809 C 0.41597 0.24521 0.48187 0.0
C810 C 0.41147 0.2797 0.50581 0.0
C811 C 0.42319 0.24744 0.4662 0.0
C812 C 0.43916 0.26015 0.44377 0.0
C813 C 0.43166 0.25959 0.45779 0.0
C814 C 0.42962 0.23667 0.44636 0.0
C815 C 0.43848 0.24848 0.43811 0.0
C816 C 0.42212 0.23618 0.46013 0.0
C817 C 0.38957 0.21877 0.53937 0.0
C818 C 0.38492 0.19391 0.54094 0.0
C819 C 0.38143 0.20017 0.56476 0.0
C820 C 0.38554 0.21453 0.55577 0.0
C821 C 0.38117 0.18972 0.55751 0.0
C822 C 0.38917 0.20839 0.5319 0.0
C823 C 0.3944 0.23401 0.53101 0.0
O824 O 0.42056 0.26896 0.5112 0.0
O825 O 0.40039 0.27622 0.49926 0.0
O826 O 0.38784 0.24242 0.51771 0.0
O827 O 0.4079 0.2362 0.5304 0.0
H828 H 0.4017 0.27132 0.53775 0.0
H829 H 0.39999 0.28675 0.55415 0.0
H830 H 0.41581 0.32349 0.51317 0.0
H831 H 0.41687 0.30826 0.49696 0.0
H832 H 0.44582 0.26946 0.43769 0.0
H833 H 0.43267 0.26844 0.4622 0.0
H834 H 0.42851 0.22766 0.44222 0.0
H835 H 0.41565 0.22673 0.46633 0.0
H836 H 0.38475 0.18596 0.53514 0.0
H837 H 0.37851 0.19719 0.57747 0.0
H838 H 0.38573 0.22236 0.56175 0.0
H839 H 0.39225 0.21142 0.51924 0.0
C840 C 0.46173 0.72151 0.19961 0.0
C841 C 0.4573 0.71859 0.21572 0.0
C842 C 0.43581 0.73267 0.20552 0.0
C843 C 0.44435 0.72391 0.21865 0.0
C844 C 0.44018 0.73489 0.18951 0.0
C845 C 0.45282 0.7292 0.18667 0.0
U846 U 0.50047 0.7082 0.20842 0.0
O847 O 0.51883 0.71796 0.19327 0.0
O848 O 0.51264 0.69545 0.19712 0.0
C849 C 0.52144 0.70617 0.19012 0.0
C850 C 0.47587 0.71786 0.19552 0.0
C851 C 0.52653 0.70818 0.17356 0.0
C852 C 0.52388 0.71515 0.14403 0.0
C853 C 0.51836 0.71401 0.15929 0.0
C854 C 0.54572 0.70503 0.15715 0.0
C855 C 0.53762 0.71062 0.14291 0.0
C856 C 0.54023 0.70381 0.17227 0.0
C857 C 0.51346 0.69473 0.25442 0.0
C858 C 0.53585 0.68573 0.26751 0.0
C859 C 0.51613 0.68713 0.28387 0.0
C860 C 0.50794 0.69263 0.2698 0.0
C861 C 0.5303 0.68378 0.28305 0.0
C862 C 0.52749 0.69112 0.25331 0.0
C863 C 0.50394 0.70053 0.24021 0.0
O864 O 0.486 0.72648 0.19641 0.0
O865 O 0.47948 0.70397 0.20092 0.0
O866 O 0.49973 0.69143 0.2334 0.0
O867 O 0.50608 0.7139 0.22963 0.0
H868 H 0.46398 0.71259 0.22596 0.0
H869 H 0.44131 0.72163 0.23118 0.0
H870 H 0.43422 0.74167 0.17897 0.0
H871 H 0.45598 0.73147 0.17417 0.0
H872 H 0.51742 0.7194 0.13317 0.0
H873 H 0.50776 0.71748 0.15998 0.0
H874 H 0.55626 0.70132 0.15662 0.0
H875 H 0.54671 0.69927 0.18308 0.0
H876 H 0.54669 0.68334 0.26624 0.0
H877 H 0.51118 0.68538 0.29546 0.0
H878 H 0.49712 0.6952 0.27098 0.0
H879 H 0.53196 0.69257 0.24154 0.0
C880 C 0.17449 0.68296 0.11788 0.0
C881 C 0.17378 0.69648 0.11988 0.0
C882 C 0.15991 0.70724 0.09459 0.0
C883 C 0.16665 0.7085 0.10832 0.0
C884 C 0.1609 0.69362 0.09275 0.0
C885 C 0.16813 0.6818 0.10409 0.0
U886 U 0.19479 0.65866 0.15805 0.0
O887 O 0.20754 0.63884 0.16183 0.0
O888 O 0.18802 0.63695 0.17531 0.0
C889 C 0.19878 0.63003 0.17241 0.0
C890 C 0.18063 0.66942 0.13028 0.0
C891 C 0.20433 0.61689 0.18605 0.0
C892 C 0.20871 0.59043 0.19652 0.0
C893 C 0.20486 0.60351 0.18375 0.0
C894 C 0.21207 0.6038 0.21428 0.0
C895 C 0.21221 0.59021 0.21217 0.0
C896 C 0.20815 0.61695 0.20142 0.0
C897 C 0.20966 0.67929 0.18534 0.0
C898 C 0.20999 0.67314 0.21476 0.0
C899 C 0.21632 0.69746 0.19638 0.0
C900 C 0.21428 0.69338 0.18302 0.0
C901 C 0.21309 0.68779 0.21234 0.0
C902 C 0.20859 0.66884 0.20132 0.0
C903 C 0.20341 0.6771 0.17118 0.0
O904 O 0.19425 0.66791 0.13092 0.0
O905 O 0.17484 0.66447 0.1448 0.0
O906 O 0.21136 0.67284 0.16165 0.0
O907 O 0.1909 0.67135 0.17334 0.0
H908 H 0.17855 0.69769 0.13045 0.0
H909 H 0.16641 0.71874 0.11024 0.0
H910 H 0.15569 0.69178 0.08281 0.0
H911 H 0.16838 0.67149 0.10231 0.0
H912 H 0.20815 0.58035 0.19428 0.0
H913 H 0.20179 0.60308 0.17209 0.0
H914 H 0.21466 0.60427 0.22603 0.0
H915 H 0.20777 0.62706 0.20362 0.0
H916 H 0.20809 0.66516 0.22693 0.0
H917 H 0.21936 0.7086 0.19394 0.0
H918 H 0.2154 0.70159 0.1708 0.0
H919 H 0.20583 0.65766 0.20335 0.0
C920 C 0.6881 0.79915 0.83111 0.0
C921 C 0.69103 0.7939 0.81863 0.0
C922 C 0.71372 0.78452 0.83103 0.0
C923 C 0.70366 0.7866 0.81864 0.0
C924 C 0.71017 0.78877 0.84412 0.0
C925 C 0.6975 0.79586 0.8442 0.0
U926 U 0.65222 0.82052 0.81811 0.0
O927 O 0.64167 0.83404 0.83001 0.0
O928 O 0.65077 0.84467 0.80527 0.0
C929 C 0.64422 0.84631 0.81755 0.0
C930 C 0.67724 0.8105 0.82924 0.0
C931 C 0.63968 0.86095 0.81723 0.0
C932 C 0.6437 0.88231 0.82446 0.0
C933 C 0.64724 0.86808 0.82567 0.0
C934 C 0.62439 0.88244 0.80695 0.0
C935 C 0.63231 0.89002 0.8149 0.0
C936 C 0.62813 0.86825 0.80794 0.0
C937 C 0.62607 0.80123 0.7967 0.0
C938 C 0.60256 0.80466 0.78574 0.0
C939 C 0.61778 0.78691 0.78121 0.0
C940 C 0.62823 0.79046 0.7901 0.0
C941 C 0.60481 0.79405 0.77873 0.0
C942 C 0.61313 0.80827 0.79461 0.0
C943 C 0.63781 0.80467 0.80542 0.0
O944 O 0.67448 0.81943 0.81428 0.0
O945 O 0.66614 0.80725 0.83862 0.0
O946 O 0.63615 0.80378 0.82059 0.0
O947 O 0.64661 0.81485 0.79693 0.0
H948 H 0.684 0.79622 0.80835 0.0
H949 H 0.70575 0.78315 0.80855 0.0
H950 H 0.71751 0.78748 0.85389 0.0
H951 H 0.69554 0.79977 0.85397 0.0
H952 H 0.65025 0.88722 0.8309 0.0
H953 H 0.65608 0.86273 0.83309 0.0
H954 H 0.61525 0.88733 0.79985 0.0
H955 H 0.62199 0.86297 0.8014 0.0
H956 H 0.59263 0.81022 0.78436 0.0
H957 H 0.62006 0.77888 0.77586 0.0
H958 H 0.63818 0.78489 0.79161 0.0
H959 H 0.61124 0.81657 0.79968 0.0
C960 C 0.79839 0.9819 0.39725 0.0
C961 C 0.79747 0.96843 0.3952 0.0
C962 C 0.77274 0.97279 0.38788 0.0
C963 C 0.7848 0.96395 0.39054 0.0
C964 C 0.77377 0.98617 0.39018 0.0
C965 C 0.78642 0.99064 0.39476 0.0
U966 U 0.83612 0.97795 0.41491 0.0
O967 O 0.85427 0.99216 0.40488 0.0
O968 O 0.84603 0.98983 0.42894 0.0
C969 C 0.85539 0.996 0.41761 0.0
C970 C 0.81169 0.98746 0.40132 0.0
C971 C 0.85943 0.01133 0.41463 0.0
C972 C 0.85723 0.03785 0.40083 0.0
C973 C 0.85227 0.0236 0.4038 0.0
C974 C 0.87633 0.02767 0.41956 0.0
C975 C 0.86943 0.04008 0.40859 0.0
C976 C 0.87138 0.01355 0.42253 0.0
C977 C 0.85091 0.9374 0.43392 0.0
C978 C 0.87182 0.92659 0.44962 0.0
C979 C 0.856 0.91151 0.44131 0.0
C980 C 0.84745 0.92364 0.43376 0.0
C981 C 0.86831 0.91278 0.4493 0.0
C982 C 0.8632 0.93887 0.44189 0.0
C983 C 0.84103 0.94955 0.42596 0.0
O984 O 0.81433 0.98429 0.41692 0.0
O985 O 0.82275 0.98649 0.39303 0.0
O986 O 0.84371 0.95838 0.41088 0.0
O987 O 0.83555 0.95624 0.43494 0.0
H988 H 0.80655 0.96146 0.39703 0.0
H989 H 0.78455 0.95364 0.38878 0.0
H990 H 0.76476 0.99317 0.38865 0.0
H991 H 0.78686 1.00106 0.39629 0.0
H992 H 0.85151 0.0471 0.39242 0.0
H993 H 0.84301 0.02218 0.39755 0.0
H994 H 0.88588 0.02879 0.42553 0.0
H995 H 0.87713 1.00426 0.43084 0.0
H996 H 0.88127 0.92789 0.45565 0.0
H997 H 0.85286 0.90103 0.44107 0.0
H998 H 0.83798 0.92222 0.42783 0.0
H999 H 0.86607 0.94941 0.44219 0.0
C1000 C 0.84898 0.99552 0.10055 0.0
C1001 C 0.8617 0.99782 0.09205 0.0
C1002 C 0.86645 0.97139 0.10326 0.0
C1003 C 0.87036 0.98581 0.09334 0.0
C1004 C 0.85351 0.96929 0.11124 0.0
C1005 C 0.84496 0.98116 0.10991 0.0
U1006 U 0.83675 0.036 0.09234 0.0
O1007 O 0.81536 0.04473 0.0864 0.0
O1008 O 0.82522 0.04345 0.10946 0.0
C1009 C 0.81416 0.04722 0.1 0.0
C1010 C 0.83956 0.00749 0.10053 0.0
C1011 C 0.80032 0.04592 0.10786 0.0
C1012 C 0.77778 0.03428 0.11733 0.0
C1013 C 0.79126 0.03392 0.11104 0.0
C1014 C 0.78262 0.05825 0.11773 0.0
C1015 C 0.7732 0.04669 0.12034 0.0
C1016 C 0.79589 0.05788 0.11154 0.0
C1017 C 0.86165 0.06919 0.07017 0.0
C1018 C 0.85982 0.09489 0.06685 0.0
C1019 C 0.87885 0.08688 0.05423 0.0
C1020 C 0.87375 0.07256 0.06064 0.0
C1021 C 0.872 0.09824 0.05724 0.0
C1022 C 0.85464 0.08047 0.07322 0.0
C1023 C 0.85714 0.05369 0.07704 0.0
O1024 O 0.84286 0.01436 0.11026 0.0
O1025 O 0.83427 0.01618 0.08648 0.0
O1026 O 0.84708 0.0498 0.06939 0.0
O1027 O 0.85628 0.04746 0.09304 0.0
H1028 H 0.86502 0.00883 0.08468 0.0
H1029 H 0.88027 0.98783 0.08706 0.0
H1030 H 0.85002 0.95838 0.11872 0.0
H1031 H 0.83518 0.97909 0.11648 0.0
H1032 H 0.77079 0.02517 0.1192 0.0
H1033 H 0.79446 0.0245 0.10835 0.0
H1034 H 0.77963 0.06786 0.12016 0.0
H1035 H 0.80266 0.06724 0.10926 0.0
H1036 H 0.85425 0.10344 0.06928 0.0
H1037 H 0.88833 0.08902 0.0471 0.0
H1038 H 0.87939 0.06403 0.05825 0.0
H1039 H 0.84527 0.07812 0.08056 0.0
C1040 C 0.64403 0.14933 0.70053 0.0
C1041 C 0.63428 0.14199 0.71273 0.0
C1042 C 0.63375 0.12088 0.70383 0.0
C1043 C 0.62913 0.12805 0.71427 0.0
C1044 C 0.64311 0.12886 0.6913 0.0
C1045 C 0.64803 0.14269 0.6897 0.0
U1046 U 0.65074 0.18852 0.70309 0.0
O1047 O 0.66369 0.20599 0.68522 0.0
O1048 O 0.67006 0.19593 0.71116 0.0
C1049 C 0.67307 0.20516 0.69642 0.0
C1050 C 0.65132 0.16311 0.69926 0.0
C1051 C 0.68567 0.21466 0.69304 0.0
C1052 C 0.70801 0.22175 0.679 0.0
C1053 C 0.69455 0.2158 0.67997 0.0
C1054 C 0.70316 0.22744 0.70283 0.0
C1055 C 0.71278 0.22725 0.69077 0.0
C1056 C 0.68996 0.22097 0.70414 0.0
C1057 C 0.61977 0.20385 0.72257 0.0
C1058 C 0.61711 0.22121 0.73614 0.0
C1059 C 0.59771 0.20594 0.73492 0.0
C1060 C 0.60586 0.19968 0.72618 0.0
C1061 C 0.60328 0.2166 0.74014 0.0
C1062 C 0.62538 0.2148 0.72742 0.0
C1063 C 0.62817 0.19499 0.7157 0.0
O1064 O 0.6475 0.17546 0.68765 0.0
O1065 O 0.65518 0.16477 0.71277 0.0
O1066 O 0.63859 0.18747 0.72454 0.0
O1067 O 0.63023 0.19958 0.69981 0.0
H1068 H 0.63084 0.14688 0.72124 0.0
H1069 H 0.62171 0.12297 0.72389 0.0
H1070 H 0.64718 0.12451 0.68271 0.0
H1071 H 0.65539 0.14809 0.68005 0.0
H1072 H 0.71482 0.22128 0.66946 0.0
H1073 H 0.69147 0.21115 0.67112 0.0
H1074 H 0.70588 0.23215 0.71172 0.0
H1075 H 0.68329 0.22044 0.71424 0.0
H1076 H 0.62159 0.22936 0.74023 0.0
H1077 H 0.58714 0.20212 0.73805 0.0
H1078 H 0.60142 0.19108 0.7228 0.0
H1079 H 0.63617 0.21802 0.72496 0.0
C1080 C 0.67608 0.8897 0.84894 0.0
C1081 C 0.67985 0.88714 0.83488 0.0
C1082 C 0.6715 0.91148 0.81772 0.0
C1083 C 0.67755 0.89796 0.81936 0.0
C1084 C 0.66911 0.91444 0.83195 0.0
C1085 C 0.67122 0.90357 0.8474 0.0
U1086 U 0.6789 0.84921 0.879 0.0
O1087 O 0.68328 0.84017 0.9056 0.0
O1088 O 0.66233 0.83852 0.89637 0.0
C1089 C 0.67039 0.83561 0.90923 0.0
C1090 C 0.67496 0.87765 0.86494 0.0
C1091 C 0.6679 0.8215 0.92271 0.0
C1092 C 0.65672 0.80918 0.94893 0.0
C1093 C 0.66131 0.82197 0.93662 0.0
C1094 C 0.66589 0.7949 0.934 0.0
C1095 C 0.65883 0.79539 0.94785 0.0
C1096 C 0.6703 0.80789 0.92145 0.0
C1097 C 0.69395 0.8382 0.84469 0.0
C1098 C 0.70792 0.83071 0.82629 0.0
C1099 C 0.68896 0.84774 0.81555 0.0
C1100 C 0.68635 0.84748 0.83124 0.0
C1101 C 0.69909 0.8384 0.8129 0.0
C1102 C 0.70525 0.8305 0.84196 0.0
C1103 C 0.68934 0.83508 0.86161 0.0
O1104 O 0.66543 0.86786 0.86573 0.0
O1105 O 0.68657 0.87184 0.87253 0.0
O1106 O 0.67591 0.83637 0.8636 0.0
O1107 O 0.69709 0.84025 0.87054 0.0
H1108 H 0.68374 0.87653 0.83588 0.0
H1109 H 0.67983 0.89545 0.80866 0.0
H1110 H 0.6645 0.92471 0.83124 0.0
H1111 H 0.66823 0.90572 0.85815 0.0
H1112 H 0.651 0.81028 0.95897 0.0
H1113 H 0.65915 0.8324 0.93769 0.0
H1114 H 0.66789 0.78455 0.93273 0.0
H1115 H 0.67526 0.80732 0.91067 0.0
H1116 H 0.71644 0.82394 0.82538 0.0
H1117 H 0.6823 0.85469 0.80593 0.0
H1118 H 0.67786 0.85393 0.83298 0.0
H1119 H 0.71152 0.82352 0.85214 0.0
C1120 C 0.95759 0.2308 0.68107 0.0
C1121 C 0.95313 0.22747 0.69724 0.0
C1122 C 0.92942 0.2365 0.68768 0.0
C1123 C 0.93922 0.23021 0.70052 0.0
C1124 C 0.93406 0.2392 0.67161 0.0
C1125 C 0.94785 0.2365 0.66841 0.0
U1126 U 0.998 0.22155 0.68693 0.0
O1127 O 0.01042 0.2106 0.67371 0.0
O1128 O 0.01477 0.23353 0.67002 0.0
C1129 C 0.01818 0.22218 0.66635 0.0
C1130 C 0.97219 0.22883 0.67654 0.0
C1131 C 0.02359 0.22466 0.6497 0.0
C1132 C 0.02116 0.22891 0.62058 0.0
C1133 C 0.01519 0.2279 0.63565 0.0
C1134 C 0.04384 0.22394 0.6334 0.0
C1135 C 0.03557 0.22656 0.61938 0.0
C1136 C 0.03794 0.22297 0.64825 0.0
C1137 C 0.01469 0.2086 0.73147 0.0
C1138 C 0.03345 0.19224 0.7466 0.0
C1139 C 0.02234 0.20834 0.758 0.0
C1140 C 0.01374 0.21386 0.74421 0.0
C1141 C 0.0322 0.19733 0.75954 0.0
C1142 C 0.02479 0.19785 0.73267 0.0
C1143 C 1.00387 0.21346 0.71839 0.0
O1144 O 0.98154 0.23831 0.67728 0.0
O1145 O 0.97711 0.21542 0.68111 0.0
O1146 O 1.00002 0.20428 0.71152 0.0
O1147 O 1.0041 0.22717 0.7081 0.0
H1148 H 0.96042 0.22306 0.70728 0.0
H1149 H 0.93646 0.22804 0.71309 0.0
H1150 H 0.9271 0.24342 0.66125 0.0
H1151 H 0.95097 0.23906 0.65583 0.0
H1152 H 0.01444 0.23094 0.61007 0.0
H1153 H 1.00407 0.22931 0.6364 0.0
H1154 H 0.05497 0.22237 0.63299 0.0
H1155 H 0.04467 0.22054 0.65882 0.0
H1156 H 0.04103 0.18386 0.74732 0.0
H1157 H 0.0209 0.21238 0.76777 0.0
H1158 H 1.00593 0.22196 0.74376 0.0
H1159 H 0.02577 0.19354 0.72307 0.0
C1160 C 0.91295 0.2413 0.4728 0.0
C1161 C 0.90627 0.24568 0.45748 0.0
C1162 C 0.91271 0.22247 0.45491 0.0
C1163 C 0.90613 0.23634 0.44863 0.0
C1164 C 0.91944 0.21836 0.47019 0.0
C1165 C 0.91949 0.2276 0.47898 0.0
U1166 U 0.91052 0.27809 0.47977 0.0
O1167 O 0.90335 0.28223 0.50154 0.0
O1168 O 0.92506 0.28666 0.49331 0.0
C1169 C 0.91564 0.28691 0.504 0.0
C1170 C 0.91367 0.25063 0.48266 0.0
C1171 C 0.92031 0.28375 0.52101 0.0
C1172 C 0.9347 0.27083 0.54496 0.0
C1173 C 0.92899 0.27189 0.52981 0.0
C1174 C 0.92272 0.29312 0.54281 0.0
C1175 C 0.93196 0.28173 0.55139 0.0
C1176 C 0.91702 0.29411 0.52786 0.0
C1177 C 0.90008 0.31331 0.44253 0.0
C1178 C 0.90249 0.33897 0.43895 0.0
C1179 C 0.89184 0.33247 0.41764 0.0
C1180 C 0.89376 0.31767 0.4271 0.0
C1181 C 0.8963 0.34327 0.42336 0.0
C1182 C 0.90431 0.32403 0.44855 0.0
C1183 C 0.90281 0.29756 0.45129 0.0
O1184 O 0.92391 0.26013 0.47918 0.0
O1185 O 0.90191 0.2559 0.48581 0.0
O1186 O 0.89392 0.29021 0.46272 0.0
O1187 O 0.91582 0.29377 0.45525 0.0
H1188 H 0.90119 0.25627 0.4524 0.0
H1189 H 0.90075 0.23992 0.43699 0.0
H1190 H 0.92496 0.20805 0.47535 0.0
H1191 H 0.9248 0.22403 0.49068 0.0
H1192 H 0.94172 0.26186 0.55127 0.0
H1193 H 0.9317 0.26375 0.52475 0.0
H1194 H 0.92005 0.3015 0.54751 0.0
H1195 H 0.91036 0.30335 0.52131 0.0
H1196 H 0.90585 0.34714 0.44367 0.0
H1197 H 0.8871 0.33552 0.40566 0.0
H1198 H 0.89051 0.30957 0.42222 0.0
H1199 H 0.90919 0.32087 0.46047 0.0
C1200 C 0.41161 0.93938 0.71614 0.0
C1201 C 0.41684 0.95062 0.72073 0.0
C1202 C 0.39722 0.9478 0.73934 0.0
C1203 C 0.40969 0.95484 0.73217 0.0
C1204 C 0.39179 0.937 0.73407 0.0
C1205 C 0.3989 0.93287 0.72262 0.0
U1206 U 0.44472 0.9385 0.69278 0.0
O1207 O 0.45809 0.92003 0.69406 0.0
O1208 O 0.44879 0.93385 0.67046 0.0
C1209 C 0.45689 0.92264 0.67837 0.0
C1210 C 0.41984 0.93329 0.70598 0.0
C1211 C 0.45695 0.90984 0.67353 0.0
C1212 C 0.45094 0.88453 0.67834 0.0
C1213 C 0.44832 0.89761 0.68084 0.0
C1214 C 0.47026 0.89613 0.66064 0.0
C1215 C 0.46224 0.88361 0.66863 0.0
C1216 C 0.46759 0.90912 0.66301 0.0
C1217 C 0.47279 0.96651 0.69335 0.0
C1218 C 0.49742 0.96619 0.68718 0.0
C1219 C 0.48867 0.98275 0.69953 0.0
C1220 C 0.47525 0.9777 0.6991 0.0
C1221 C 0.50005 0.97698 0.6938 0.0
C1222 C 0.48387 0.96088 0.6871 0.0
C1223 C 0.45892 0.95992 0.69614 0.0
O1224 O 0.42198 0.94197 0.69067 0.0
O1225 O 0.43104 0.92604 0.71315 0.0
O1226 O 0.45829 0.94668 0.70743 0.0
O1227 O 0.45114 0.9617 0.68325 0.0
H1228 H 0.42667 0.9558 0.71588 0.0
H1229 H 0.41413 0.96334 0.73569 0.0
H1230 H 0.3824 0.93112 0.73942 0.0
H1231 H 0.39473 0.92412 0.71932 0.0
H1232 H 0.44479 0.87489 0.68484 0.0
H1233 H 0.44013 0.89791 0.68913 0.0
H1234 H 0.47917 0.89557 0.65337 0.0
H1235 H 0.47448 0.91836 0.65744 0.0
H1236 H 0.50581 0.9616 0.68241 0.0
H1237 H 0.49007 0.99067 0.70522 0.0
H1238 H 0.46683 0.98204 0.70414 0.0
H1239 H 0.48212 0.95212 0.68267 0.0
C1240 C 1.00238 0.22917 0.1411 0.0
C1241 C 0.98998 0.22098 0.1444 0.0
C1242 C 0.98484 0.22909 0.115 0.0
C1243 C 0.98127 0.22101 0.13147 0.0
C1244 C 0.99704 0.23756 0.11192 0.0
C1245 C 1.00563 0.23761 0.12476 0.0
U1246 U 0.01733 0.22232 0.18538 0.0
O1247 O 0.0377 0.21225 0.19509 0.0
O1248 O 0.03375 0.2353 0.19132 0.0
C1249 C 0.0426 0.22429 0.19624 0.0
C1250 C 0.01281 0.22843 0.15391 0.0
C1251 C 0.05781 0.22734 0.19403 0.0
C1252 C 0.0786 0.23868 0.17825 0.0
C1253 C 0.06433 0.23481 0.17887 0.0
C1254 C 0.08 0.22682 0.20766 0.0
C1255 C 0.08651 0.23521 0.19279 0.0
C1256 C 0.06594 0.2231 0.20825 0.0
C1257 C 0.9914 0.20846 0.2234 0.0
C1258 C 0.99444 0.20278 0.25271 0.0
C1259 C 0.97214 0.19867 0.24241 0.0
C1260 C 0.97752 0.20378 0.2265 0.0
C1261 C 0.98052 0.19806 0.25569 0.0
C1262 C 0.99987 0.20795 0.23666 0.0
C1263 C 0.99634 0.21362 0.20616 0.0
O1264 O 0.01206 0.23828 0.16066 0.0
O1265 O 0.01642 0.21539 0.16432 0.0
O1266 O 1.0041 0.20464 0.20189 0.0
O1267 O 1.00004 0.22741 0.19897 0.0
H1268 H 0.98722 0.21433 0.15688 0.0
H1269 H 0.97199 0.21429 0.13436 0.0
H1270 H 1.00006 0.24412 0.0995 0.0
H1271 H 0.01511 0.24402 0.12186 0.0
H1272 H 0.08316 0.24512 0.16655 0.0
H1273 H 0.05833 0.2382 0.16765 0.0
H1274 H 0.0857 0.2234 0.21909 0.0
H1275 H 0.06126 0.21718 0.22007 0.0
H1276 H 1.00109 0.20247 0.26277 0.0
H1277 H 0.96139 0.19516 0.24436 0.0
H1278 H 0.97077 0.20407 0.21652 0.0
H1279 H 0.0106 0.2115 0.23463 0.0
C1280 C 0.41128 0.07174 0.79951 0.0
C1281 C 0.41722 0.06113 0.79437 0.0
C1282 C 0.39755 0.06325 0.77592 0.0
C1283 C 0.4104 0.05688 0.78274 0.0
C1284 C 0.3914 0.07333 0.78181 0.0
C1285 C 0.39818 0.0775 0.79346 0.0
U1286 U 0.44391 0.07281 0.82341 0.0
O1287 O 0.45741 0.09111 0.82214 0.0
O1288 O 0.44782 0.07769 0.84562 0.0
C1289 C 0.45592 0.08886 0.83771 0.0
C1290 C 0.41917 0.07802 0.80976 0.0
C1291 C 0.45518 0.10202 0.84186 0.0
C1292 C 0.44909 0.12763 0.8349 0.0
C1293 C 0.4472 0.11433 0.83275 0.0
C1294 C 0.46642 0.1162 0.85578 0.0
C1295 C 0.45909 0.12886 0.84607 0.0
C1296 C 0.46445 0.10295 0.85371 0.0
C1297 C 0.47201 0.04474 0.82339 0.0
C1298 C 0.49639 0.0448 0.83071 0.0
C1299 C 0.48833 0.02912 0.81686 0.0
C1300 C 0.47483 0.03405 0.81699 0.0
C1301 C 0.49938 0.03446 0.82357 0.0
C1302 C 0.48277 0.05003 0.83047 0.0
C1303 C 0.45812 0.05125 0.82041 0.0
O1304 O 0.42116 0.06944 0.82515 0.0
O1305 O 0.43039 0.08528 0.8028 0.0
O1306 O 0.45749 0.06443 0.809 0.0
O1307 O 0.45032 0.04959 0.83321 0.0
H1308 H 0.42734 0.05651 0.7989 0.0
H1309 H 0.4154 0.04891 0.77877 0.0
H1310 H 0.38166 0.07867 0.77679 0.0
H1311 H 0.39345 0.08574 0.79722 0.0
H1312 H 0.44308 0.13708 0.8274 0.0
H1313 H 0.44001 0.11384 0.82349 0.0
H1314 H 0.47436 0.11668 0.8643 0.0
H1315 H 0.47082 0.09361 0.86073 0.0
H1316 H 0.50455 0.04907 0.83616 0.0
H1317 H 0.49006 0.02161 0.81069 0.0
H1318 H 0.46666 0.03004 0.81127 0.0
H1319 H 0.48071 0.05845 0.83534 0.0
C1320 C 0.09861 0.24108 0.97312 0.0
C1321 C 0.10284 0.24598 0.95667 0.0
C1322 C 0.099 0.22145 0.95618 0.0
C1323 C 0.10307 0.23625 0.9483 0.0
C1324 C 0.09471 0.21682 0.97262 0.0
C1325 C 0.09462 0.22644 0.98094 0.0
U1326 U 0.10146 0.27817 0.97968 0.0
O1327 O 0.08727 0.28675 0.99357 0.0
O1328 O 0.10909 0.28209 1.00138 0.0
C1329 C 0.09691 0.2868 1.00415 0.0
C1330 C 0.09788 0.25075 0.98258 0.0
C1331 C 0.09268 0.28343 0.02131 0.0
C1332 C 0.0786 0.27065 0.0455 0.0
C1333 C 0.08366 0.2719 0.03001 0.0
C1334 C 0.09185 0.29206 0.04379 0.0
C1335 C 0.08233 0.28103 0.05231 0.0
C1336 C 0.09693 0.29323 0.02854 0.0
C1337 C 0.11278 0.31318 0.94246 0.0
C1338 C 0.11208 0.339 0.9388 0.0
C1339 C 0.12017 0.33184 0.91685 0.0
C1340 C 0.11812 0.31716 0.92664 0.0
C1341 C 0.11682 0.34299 0.92257 0.0
C1342 C 0.11001 0.32415 0.94869 0.0
C1343 C 0.10952 0.29756 0.95138 0.0
O1344 O 0.10969 0.25578 0.98591 0.0
O1345 O 0.08783 0.26054 0.97865 0.0
O1346 O 0.09642 0.29427 0.95521 0.0
O1347 O 0.11827 0.28985 0.96285 0.0
H1348 H 0.10594 0.25728 0.95034 0.0
H1349 H 0.10658 0.24032 0.93573 0.0
H1350 H 0.0911 0.20575 0.97914 0.0
H1351 H 0.09123 0.22244 0.99357 0.0
H1352 H 0.07133 0.26198 0.05178 0.0
H1353 H 0.08023 0.26419 0.02467 0.0
H1354 H 0.09521 0.30004 0.04879 0.0
H1355 H 0.10387 0.30219 0.02208 0.0
H1356 H 0.10943 0.34733 0.94359 0.0
H1357 H 0.12416 0.33446 0.9046 0.0
H1358 H 0.1204 0.30887 0.92165 0.0
H1359 H 0.10592 0.32127 0.96093 0.0
C1360 C 0.34932 0.82495 0.42146 0.0
C1361 C 0.34672 0.81129 0.42039 0.0
C1362 C 0.35798 0.79872 0.44705 0.0
C1363 C 0.35092 0.79827 0.43314 0.0
C1364 C 0.36032 0.81255 0.44791 0.0
C1365 C 0.35596 0.8254 0.4354 0.0
U1366 U 0.33776 0.85173 0.37755 0.0
O1367 O 0.32924 0.87425 0.36998 0.0
O1368 O 0.35053 0.87064 0.36338 0.0
C1369 C 0.3407 0.88025 0.36224 0.0
C1370 C 0.3467 0.83907 0.40787 0.0
C1371 C 0.33946 0.89225 0.34609 0.0
C1372 C 0.34673 0.91683 0.32894 0.0
C1373 C 0.34435 0.90613 0.34443 0.0
C1374 C 0.33864 0.90021 0.3164 0.0
C1375 C 0.34471 0.9137 0.31474 0.0
C1376 C 0.33583 0.88965 0.33198 0.0
C1377 C 0.32285 0.83778 0.34527 0.0
C1378 C 0.32525 0.8488 0.31571 0.0
C1379 C 0.31137 0.82696 0.32806 0.0
C1380 C 0.31406 0.82717 0.34353 0.0
C1381 C 0.31751 0.83734 0.31393 0.0
C1382 C 0.32797 0.84891 0.33125 0.0
C1383 C 0.32776 0.83599 0.36172 0.0
O1384 O 0.35468 0.84194 0.39499 0.0
O1385 O 0.33376 0.84347 0.40421 0.0
O1386 O 0.31988 0.84153 0.37017 0.0
O1387 O 0.34113 0.8382 0.36299 0.0
H1388 H 0.3417 0.8107 0.40964 0.0
H1389 H 0.34873 0.78791 0.43199 0.0
H1390 H 0.36602 0.81363 0.45799 0.0
H1391 H 0.35825 0.83583 0.43637 0.0
H1392 H 0.35123 0.92713 0.32822 0.0
H1393 H 0.34719 0.9084 0.35516 0.0
H1394 H 0.33659 0.89758 0.30573 0.0
H1395 H 0.33167 0.87918 0.33304 0.0
H1396 H 0.32972 0.85739 0.30524 0.0
H1397 H 0.30519 0.81801 0.32751 0.0
H1398 H 0.30991 0.81851 0.35421 0.0
H1399 H 0.33466 0.85723 0.33234 0.0
C1400 C 0.8162 0.73693 0.70166 0.0
C1401 C 0.80982 0.74205 0.71282 0.0
C1402 C 0.78855 0.74764 0.69666 0.0
C1403 C 0.79618 0.74731 0.71038 0.0
C1404 C 0.79518 0.74349 0.68483 0.0
C1405 C 0.80899 0.73834 0.6872 0.0
U1406 U 0.84678 0.70769 0.71056 0.0
O1407 O 0.83592 0.68663 0.71852 0.0
O1408 O 0.84537 0.6953 0.69415 0.0
C1409 C 0.83899 0.68419 0.70527 0.0
C1410 C 0.83035 0.73047 0.70578 0.0
C1411 C 0.84328 0.66897 0.70778 0.0
C1412 C 0.8369 0.64314 0.71815 0.0
C1413 C 0.83448 0.65748 0.71698 0.0
C1414 C 0.85755 0.65112 0.70158 0.0
C1415 C 0.8484 0.63974 0.71043 0.0
C1416 C 0.85501 0.66563 0.70025 0.0
C1417 C 0.87972 0.7155 0.73141 0.0
C1418 C 0.90233 0.71781 0.74231 0.0
C1419 C 0.88228 0.72962 0.74877 0.0
C1420 C 0.8739 0.72443 0.73906 0.0
C1421 C 0.89646 0.72597 0.75075 0.0
C1422 C 0.89402 0.71263 0.7327 0.0
C1423 C 0.8711 0.70714 0.72422 0.0
O1424 O 0.83827 0.72916 0.69423 0.0
O1425 O 0.83157 0.71938 0.71982 0.0
O1426 O 0.86927 0.71261 0.70827 0.0
O1427 O 0.85985 0.70123 0.73246 0.0
H1428 H 0.81527 0.74156 0.72379 0.0
H1429 H 0.79146 0.75079 0.71949 0.0
H1430 H 0.78955 0.74377 0.67405 0.0
H1431 H 0.8138 0.73493 0.67809 0.0
H1432 H 0.82951 0.63473 0.72482 0.0
H1433 H 0.82549 0.65961 0.7231 0.0
H1434 H 0.86658 0.64882 0.69559 0.0
H1435 H 0.86206 0.67422 0.69314 0.0
H1436 H 0.91322 0.71471 0.74394 0.0
H1437 H 0.87758 0.73576 0.75541 0.0
H1438 H 0.86283 0.72668 0.73828 0.0
H1439 H 0.89864 0.70563 0.72706 0.0
C1440 C 0.68718 0.4868 0.12591 0.0
C1441 C 0.67275 0.48929 0.12602 0.0
C1442 C 0.66788 0.46736 0.11977 0.0
C1443 C 0.66322 0.47967 0.123 0.0
C1444 C 0.68236 0.46533 0.11921 0.0
C1445 C 0.6918 0.47482 0.12231 0.0
U1446 U 0.70358 0.5228 0.12772 0.0
O1447 O 0.71627 0.52548 0.14744 0.0
O1448 O 0.72558 0.52978 0.12326 0.0
C1449 C 0.72731 0.52976 0.13807 0.0
C1450 C 0.69784 0.49582 0.13015 0.0
C1451 C 0.74148 0.52772 0.14553 0.0
C1452 C 0.76304 0.51415 0.1564 0.0
C1453 C 0.74946 0.5148 0.14984 0.0
C1454 C 0.76047 0.53904 0.15488 0.0
C1455 C 0.7689 0.5264 0.15885 0.0
C1456 C 0.74719 0.53971 0.14819 0.0
C1457 C 0.67905 0.55822 0.10757 0.0
C1458 C 0.67826 0.58372 0.10532 0.0
C1459 C 0.66127 0.57482 0.09098 0.0
C1460 C 0.66741 0.56097 0.09727 0.0
C1461 C 0.66662 0.58647 0.09475 0.0
C1462 C 0.68446 0.56969 0.11167 0.0
C1463 C 0.68464 0.54307 0.11384 0.0
O1464 O 0.70487 0.50518 0.11795 0.0
O1465 O 0.6948 0.50092 0.14158 0.0
O1466 O 0.68536 0.53576 0.12972 0.0
O1467 O 0.69453 0.53967 0.1056 0.0
H1468 H 0.66885 0.49847 0.1287 0.0
H1469 H 0.6522 0.48169 0.12367 0.0
H1470 H 0.68655 0.45636 0.11634 0.0
H1471 H 0.70284 0.47266 0.12208 0.0
H1472 H 0.76901 0.50417 0.15921 0.0
H1473 H 0.74529 0.50531 0.14799 0.0
H1474 H 0.76397 0.54859 0.15705 0.0
H1475 H 0.74128 0.54979 0.14507 0.0
H1476 H 0.68268 0.59246 0.10844 0.0
H1477 H 0.65218 0.57637 0.08323 0.0
H1478 H 0.66295 0.55226 0.09409 0.0
H1479 H 0.69341 0.56783 0.11968 0.0
C1480 C 0.68849 0.52525 0.38988 0.0
C1481 C 0.67628 0.51987 0.39899 0.0
C1482 C 0.66922 0.54487 0.39564 0.0
C1483 C 0.66675 0.52961 0.40189 0.0
C1484 C 0.68151 0.55001 0.38669 0.0
C1485 C 0.69094 0.54037 0.38387 0.0
U1486 U 0.7047 0.48872 0.38883 0.0
O1487 O 0.71801 0.48625 0.36954 0.0
O1488 O 0.72646 0.48088 0.39431 0.0
C1489 C 0.72876 0.48146 0.37938 0.0
C1490 C 0.69918 0.51575 0.38651 0.0
C1491 C 0.74318 0.48424 0.37258 0.0
C1492 C 0.76104 0.49871 0.35349 0.0
C1493 C 0.74765 0.49756 0.36058 0.0
C1494 C 0.76568 0.47348 0.37057 0.0
C1495 C 0.77015 0.48652 0.3581 0.0
C1496 C 0.75247 0.47238 0.37759 0.0
C1497 C 0.67972 0.45371 0.40803 0.0
C1498 C 0.67918 0.42805 0.41085 0.0
C1499 C 0.66177 0.43732 0.42433 0.0
C1500 C 0.66788 0.45116 0.41794 0.0
C1501 C 0.66736 0.42551 0.42105 0.0
C1502 C 0.68536 0.44206 0.40441 0.0
C1503 C 0.6854 0.46878 0.40187 0.0
O1504 O 0.70551 0.506 0.39913 0.0
O1505 O 0.69658 0.51092 0.37475 0.0
O1506 O 0.68653 0.47606 0.38602 0.0
O1507 O 0.69507 0.47203 0.41051 0.0
H1508 H 0.67412 0.50823 0.4038 0.0
H1509 H 0.65734 0.52525 0.40872 0.0
H1510 H 0.68392 0.56159 0.38187 0.0
H1511 H 0.70029 0.5448 0.37694 0.0
H1512 H 0.76404 0.50897 0.34402 0.0
H1513 H 0.74072 0.50693 0.35643 0.0
H1514 H 0.77238 0.46394 0.37491 0.0
H1515 H 0.74936 0.46199 0.38678 0.0
H1516 H 0.68378 0.41917 0.40812 0.0
H1517 H 0.65255 0.43591 0.43181 0.0
H1518 H 0.66327 0.45999 0.42078 0.0
H1519 H 0.6945 0.44376 0.39675 0.0
C1520 C 0.81668 0.2756 0.81524 0.0
C1521 C 0.81083 0.26927 0.80487 0.0
C1522 C 0.78873 0.266 0.81918 0.0
C1523 C 0.79711 0.26442 0.80689 0.0
C1524 C 0.79492 0.2711 0.83055 0.0
C1525 C 0.80892 0.27561 0.82877 0.0
U1526 U 0.8464 0.30556 0.80541 0.0
O1527 O 0.83482 0.32626 0.79778 0.0
O1528 O 0.84499 0.31791 0.82183 0.0
C1529 C 0.83809 0.32878 0.81095 0.0
C1530 C 0.83065 0.28227 0.81085 0.0
C1531 C 0.84197 0.34411 0.80833 0.0
C1532 C 0.83468 0.36967 0.79866 0.0
C1533 C 0.83251 0.35528 0.79993 0.0
C1534 C 0.85636 0.36239 0.81349 0.0
C1535 C 0.84657 0.37343 0.80545 0.0
C1536 C 0.85409 0.34782 0.81492 0.0
C1537 C 0.87882 0.29855 0.78328 0.0
C1538 C 0.9012 0.29648 0.77179 0.0
C1539 C 0.88106 0.2846 0.76566 0.0
C1540 C 0.87287 0.28967 0.77563 0.0
C1541 C 0.89518 0.28841 0.76332 0.0
C1542 C 0.89309 0.30148 0.78171 0.0
C1543 C 0.87032 0.30678 0.79077 0.0
O1544 O 0.83866 0.28393 0.82217 0.0
O1545 O 0.83142 0.29329 0.79671 0.0
O1546 O 0.86904 0.30134 0.80679 0.0
O1547 O 0.85876 0.31241 0.783 0.0
H1548 H 0.81674 0.26863 0.79469 0.0
H1549 H 0.79287 0.25997 0.79832 0.0
H1550 H 0.78882 0.27222 0.84034 0.0
H1551 H 0.81339 0.27981 0.83743 0.0
H1552 H 0.82687 0.37786 0.79257 0.0
H1553 H 0.82325 0.35286 0.79446 0.0
H1554 H 0.86571 0.36502 0.81871 0.0
H1555 H 0.86166 0.33949 0.82135 0.0
H1556 H 0.91206 0.29964 0.76997 0.0
H1557 H 0.87625 0.2785 0.75905 0.0
H1558 H 0.86181 0.28736 0.77662 0.0
H1559 H 0.89781 0.30841 0.78738 0.0
C1560 C 0.55784 0.10437 0.33883 0.0
C1561 C 0.54539 0.1065 0.34587 0.0
C1562 C 0.5533 0.13025 0.34503 0.0
C1563 C 0.54312 0.11925 0.34889 0.0
C1564 C 0.56599 0.12799 0.33824 0.0
C1565 C 0.56825 0.11511 0.33514 0.0
U1566 U 0.57052 0.07392 0.32182 0.0
O1567 O 0.58403 0.08515 0.30081 0.0
O1568 O 0.59327 0.07018 0.32374 0.0
C1569 C 0.59529 0.07819 0.30818 0.0
C1570 C 0.5587 0.09126 0.33457 0.0
C1571 C 0.60368 0.07163 0.29855 0.0
C1572 C 0.62463 0.07259 0.28271 0.0
C1573 C 0.61714 0.0769 0.29377 0.0
C1574 C 0.60554 0.057 0.28155 0.0
C1575 C 0.61884 0.06285 0.2761 0.0
C1576 C 0.59803 0.06136 0.29266 0.0
C1577 C 0.54193 0.04533 0.32374 0.0
C1578 C 0.52564 0.02933 0.31771 0.0
C1579 C 0.51767 0.04476 0.33188 0.0
C1580 C 0.53123 0.05032 0.33121 0.0
C1581 C 0.51465 0.03434 0.32484 0.0
C1582 C 0.53906 0.03462 0.31736 0.0
C1583 C 0.55584 0.05193 0.32053 0.0
O1584 O 0.5669 0.08033 0.34305 0.0
O1585 O 0.55749 0.09308 0.31909 0.0
O1586 O 0.55653 0.06474 0.30849 0.0
O1587 O 0.56371 0.05088 0.33313 0.0
H1588 H 0.53716 0.09842 0.34861 0.0
H1589 H 0.5331 0.12068 0.3537 0.0
H1590 H 0.57408 0.13622 0.33518 0.0
H1591 H 0.57793 0.11369 0.32962 0.0
H1592 H 0.63471 0.07751 0.27871 0.0
H1593 H 0.62167 0.08488 0.29808 0.0
H1594 H 0.6008 0.04932 0.27694 0.0
H1595 H 0.58763 0.05711 0.2962 0.0
H1596 H 0.52388 0.02176 0.31163 0.0
H1597 H 0.50957 0.04881 0.33762 0.0
H1598 H 0.53328 0.05871 0.33612 0.0
H1599 H 0.54715 0.03079 0.31137 0.0
C1600 C 0.95651 0.78224 0.83517 0.0
C1601 C 0.95205 0.78598 0.81888 0.0
C1602 C 0.92833 0.77768 0.82812 0.0
C1603 C 0.93809 0.78366 0.81541 0.0
C1604 C 0.9328 0.77427 0.8443 0.0
C1605 C 0.94669 0.77651 0.84775 0.0
U1606 U 0.99706 0.79077 0.82955 0.0
O1607 O 0.00959 0.80119 0.84322 0.0
O1608 O 0.01385 0.77837 0.84629 0.0
C1609 C 0.01728 0.78947 0.8504 0.0
C1610 C 0.9712 0.78376 0.83983 0.0
C1611 C 0.02247 0.7865 0.86726 0.0
C1612 C 0.01984 0.78471 0.89559 0.0
C1613 C 0.01389 0.78581 0.88048 0.0
C1614 C 0.0428 0.78446 0.88455 0.0
C1615 C 0.03444 0.78448 0.89763 0.0
C1616 C 0.03691 0.78548 0.86965 0.0
C1617 C 0.01233 0.80467 0.7839 0.0
C1618 C 0.03468 0.81367 0.77061 0.0
C1619 C 0.01489 0.81205 0.75443 0.0
C1620 C 1.0068 0.80658 0.76855 0.0
C1621 C 0.02904 0.81556 0.75509 0.0
C1622 C 0.02639 0.80831 0.7849 0.0
C1623 C 1.0026 0.7994 0.79802 0.0
O1624 O 0.98038 0.77424 0.83875 0.0
O1625 O 0.97631 0.79704 0.83561 0.0
O1626 O 0.99904 0.80843 0.8052 0.0
O1627 O 1.00324 0.78564 0.80809 0.0
H1628 H 0.95939 0.79034 0.80892 0.0
H1629 H 0.935 0.78611 0.80283 0.0
H1630 H 0.92566 0.76934 0.85435 0.0
H1631 H 0.94984 0.77344 0.8604 0.0
H1632 H 0.01306 0.78474 0.90539 0.0
H1633 H 1.00269 0.78654 0.87899 0.0
H1634 H 0.05404 0.78402 0.88567 0.0
H1635 H 0.04376 0.78596 0.85971 0.0
H1636 H 0.04551 0.81616 0.77178 0.0
H1637 H 0.00982 0.81374 0.7429 0.0
H1638 H 0.99598 0.80401 0.76739 0.0
H1639 H 0.03093 0.80703 0.79662 0.0
C1640 C 0.60436 0.94004 0.2139 0.0
C1641 C 0.59827 0.94977 0.22029 0.0
C1642 C 0.61896 0.94844 0.237 0.0
C1643 C 0.60549 0.95392 0.23174 0.0
C1644 C 0.62524 0.93936 0.22982 0.0
C1645 C 0.61801 0.9352 0.21844 0.0
U1646 U 0.57157 0.93913 0.19003 0.0
O1647 O 0.56737 0.93346 0.16841 0.0
O1648 O 0.55763 0.9209 0.19211 0.0
C1649 C 0.55895 0.92271 0.17663 0.0
C1650 C 0.59619 0.93362 0.20399 0.0
C1651 C 0.55883 0.90937 0.17279 0.0
C1652 C 0.56511 0.88394 0.17867 0.0
C1653 C 0.56729 0.89717 0.18095 0.0
C1654 C 0.54629 0.89516 0.15984 0.0
C1655 C 0.55432 0.88265 0.16838 0.0
C1656 C 0.54859 0.90833 0.16197 0.0
C1657 C 0.54433 0.96857 0.18827 0.0
C1658 C 0.51981 0.96851 0.18157 0.0
C1659 C 0.52849 0.9851 0.19392 0.0
C1660 C 0.54189 0.9799 0.19379 0.0
C1661 C 0.51717 0.97936 0.18808 0.0
C1662 C 0.53332 0.96301 0.18184 0.0
C1663 C 0.55804 0.96164 0.19168 0.0
O1664 O 0.58478 0.92687 0.21103 0.0
O1665 O 0.59442 0.9418 0.18842 0.0
O1666 O 0.56584 0.96252 0.17911 0.0
O1667 O 0.55831 0.94871 0.20357 0.0
H1668 H 0.58774 0.9537 0.2169 0.0
H1669 H 0.6004 0.96111 0.23679 0.0
H1670 H 0.6355 0.93479 0.23365 0.0
H1671 H 0.62289 0.92767 0.2137 0.0
H1672 H 0.57167 0.87464 0.18527 0.0
H1673 H 0.57524 0.89773 0.18943 0.0
H1674 H 0.5377 0.89467 0.15211 0.0
H1675 H 0.54184 0.91758 0.15571 0.0
H1676 H 0.51145 0.96396 0.1767 0.0
H1677 H 0.52708 0.99307 0.19954 0.0
H1678 H 0.55027 0.98416 0.19897 0.0
H1679 H 0.53508 0.95414 0.1776 0.0
C1680 C 0.91191 0.77201 0.04085 0.0
C1681 C 0.90679 0.767 0.05697 0.0
C1682 C 0.91202 0.79068 0.05868 0.0
C1683 C 0.90683 0.77632 0.06583 0.0
C1684 C 0.91698 0.79562 0.04258 0.0
C1685 C 0.91689 0.78639 0.03377 0.0
U1686 U 0.90988 0.73488 0.03479 0.0
O1687 O 0.90311 0.73034 0.01314 0.0
O1688 O 0.92473 0.72598 0.02188 0.0
C1689 C 0.91547 0.72554 0.01109 0.0
C1690 C 0.9128 0.76252 0.03121 0.0
C1691 C 0.92036 0.72843 0.99426 0.0
C1692 C 0.93215 0.74299 0.96885 0.0
C1693 C 0.92643 0.7417 0.98407 0.0
C1694 C 0.92531 0.71804 0.97381 0.0
C1695 C 0.93198 0.73098 0.96374 0.0
C1696 C 0.91968 0.71679 0.98883 0.0
C1697 C 0.90003 0.6999 0.07256 0.0
C1698 C 0.89577 0.67496 0.07429 0.0
C1699 C 0.89876 0.6799 0.09906 0.0
C1700 C 0.90047 0.69476 0.08969 0.0
C1701 C 0.89643 0.66988 0.09148 0.0
C1702 C 0.89768 0.68991 0.06484 0.0
C1703 C 0.90225 0.7157 0.06345 0.0
O1704 O 0.92309 0.75303 0.03505 0.0
O1705 O 0.9011 0.75711 0.02812 0.0
O1706 O 0.89337 0.72265 0.05174 0.0
O1707 O 0.9152 0.71979 0.05969 0.0
H1708 H 0.90295 0.7559 0.06272 0.0
H1709 H 0.90301 0.77227 0.07829 0.0
H1710 H 0.92107 0.80662 0.03688 0.0
H1711 H 0.92094 0.79046 0.0214 0.0
H1712 H 0.93712 0.75316 0.9614 0.0
H1713 H 0.92704 0.75087 0.98801 0.0
H1714 H 0.92453 0.7087 0.97018 0.0
H1715 H 0.91501 0.70647 0.99645 0.0
H1716 H 0.89394 0.66736 0.06824 0.0
H1717 H 0.89913 0.67623 0.11228 0.0
H1718 H 0.9022 0.70229 0.09586 0.0
H1719 H 0.89734 0.69365 0.05162 0.0
C1720 C 0.6647 0.18918 0.59532 0.0
C1721 C 0.66679 0.20258 0.59722 0.0
C1722 C 0.65664 0.21584 0.57011 0.0
C1723 C 0.66288 0.21582 0.58466 0.0
C1724 C 0.65483 0.20227 0.5684 0.0
C1725 C 0.65891 0.1892 0.58075 0.0
U1726 U 0.67559 0.16134 0.63891 0.0
O1727 O 0.66253 0.14249 0.6525 0.0
O1728 O 0.68373 0.13879 0.64573 0.0
C1729 C 0.67227 0.13283 0.65348 0.0
C1730 C 0.66692 0.17483 0.60863 0.0
C1731 C 0.67366 0.12093 0.66965 0.0
C1732 C 0.66704 0.09621 0.68717 0.0
C1733 C 0.6688 0.10697 0.67156 0.0
C1734 C 0.67572 0.11298 0.69921 0.0
C1735 C 0.66975 0.09933 0.70126 0.0
C1736 C 0.67773 0.12366 0.68352 0.0
C1737 C 0.69128 0.17354 0.67221 0.0
C1738 C 0.68798 0.16394 0.70167 0.0
C1739 C 0.70524 0.18257 0.68931 0.0
C1740 C 0.70206 0.1823 0.67397 0.0
C1741 C 0.69751 0.17421 0.70337 0.0
C1742 C 0.68478 0.16378 0.68625 0.0
C1743 C 0.6861 0.17602 0.65565 0.0
O1744 O 0.67975 0.17004 0.6123 0.0
O1745 O 0.6589 0.17193 0.62149 0.0
O1746 O 0.67266 0.17423 0.65429 0.0
O1747 O 0.69376 0.17086 0.64666 0.0
H1748 H 0.67116 0.20278 0.60847 0.0
H1749 H 0.66463 0.22599 0.58645 0.0
H1750 H 0.64976 0.20157 0.55775 0.0
H1751 H 0.65702 0.17896 0.57914 0.0
H1752 H 0.66249 0.08588 0.68811 0.0
H1753 H 0.66557 0.10465 0.66098 0.0
H1754 H 0.67831 0.11565 0.70973 0.0
H1755 H 0.68169 0.13431 0.68226 0.0
H1756 H 0.68246 0.15635 0.71201 0.0
H1757 H 0.71314 0.19025 0.68948 0.0
H1758 H 0.70747 0.1897 0.66331 0.0
H1759 H 0.67675 0.15652 0.68523 0.0
C1760 C 0.20419 0.2764 0.32918 0.0
C1761 C 0.20648 0.27119 0.31653 0.0
C1762 C 0.22931 0.26208 0.32782 0.0
C1763 C 0.21904 0.2642 0.31578 0.0
C1764 C 0.22648 0.26615 0.34115 0.0
C1765 C 0.21404 0.27331 0.34178 0.0
U1766 U 0.16849 0.29457 0.31458 0.0
O1767 O 0.15476 0.30713 0.32477 0.0
O1768 O 0.164 0.31774 0.30036 0.0
C1769 C 0.15612 0.31926 0.31178 0.0
C1770 C 0.19318 0.28729 0.32788 0.0
C1771 C 0.15717 0.33348 0.31381 0.0
C1772 C 0.16456 0.34957 0.32769 0.0
C1773 C 0.16391 0.33549 0.32701 0.0
C1774 C 0.15173 0.35947 0.30228 0.0
C1775 C 0.15898 0.36183 0.31494 0.0
C1776 C 0.15087 0.34554 0.30174 0.0
C1777 C 0.14533 0.27794 0.29018 0.0
C1778 C 0.12303 0.28742 0.27769 0.0
C1779 C 0.13517 0.26909 0.27041 0.0
C1780 C 0.14586 0.26882 0.28122 0.0
C1781 C 0.1237 0.27839 0.26854 0.0
C1782 C 0.13387 0.28729 0.28839 0.0
C1783 C 0.15728 0.27794 0.30054 0.0
O1784 O 0.19102 0.29691 0.31306 0.0
O1785 O 0.18164 0.28272 0.33624 0.0
O1786 O 0.15465 0.27638 0.31575 0.0
O1787 O 0.1667 0.28795 0.29349 0.0
H1788 H 0.19903 0.27343 0.30665 0.0
H1789 H 0.22099 0.26106 0.30542 0.0
H1790 H 0.23429 0.26467 0.35053 0.0
H1791 H 0.21254 0.27732 0.35156 0.0
H1792 H 0.16969 0.35093 0.33796 0.0
H1793 H 0.1687 0.3263 0.33663 0.0
H1794 H 0.14676 0.36847 0.2926 0.0
H1795 H 0.14537 0.34421 0.29164 0.0
H1796 H 0.11431 0.29479 0.27626 0.0
H1797 H 0.13585 0.26204 0.26349 0.0
H1798 H 0.15469 0.26163 0.28239 0.0
H1799 H 0.13341 0.29456 0.29506 0.0
C1800 C 0.32632 0.52406 0.89366 0.0
C1801 C 0.33837 0.51907 0.9033 0.0
C1802 C 0.34577 0.54445 0.89755 0.0
C1803 C 0.34799 0.52919 0.90526 0.0
C1804 C 0.33356 0.54919 0.88818 0.0
C1805 C 0.32407 0.53919 0.88626 0.0
U1806 U 0.31012 0.48704 0.89377 0.0
O1807 O 0.28812 0.47982 0.89811 0.0
O1808 O 0.29758 0.48426 0.87403 0.0
C1809 C 0.28649 0.47985 0.88328 0.0
C1810 C 0.31566 0.51422 0.89086 0.0
C1811 C 0.27236 0.48217 0.87557 0.0
C1812 C 0.253 0.4971 0.85968 0.0
C1813 C 0.26621 0.49599 0.86726 0.0
C1814 C 0.25197 0.47074 0.86877 0.0
C1815 C 0.24576 0.48444 0.8601 0.0
C1816 C 0.26499 0.46966 0.87629 0.0
C1817 C 0.33509 0.45188 0.91283 0.0
C1818 C 0.33318 0.42523 0.92222 0.0
C1819 C 0.35575 0.43643 0.92108 0.0
C1820 C 0.34952 0.45028 0.91531 0.0
C1821 C 0.34769 0.42378 0.92461 0.0
C1822 C 0.32688 0.43923 0.91635 0.0
C1823 C 0.32937 0.46699 0.90726 0.0
O1824 O 0.31819 0.5091 0.87934 0.0
O1825 O 0.30946 0.50463 0.90368 0.0
O1826 O 0.31924 0.46987 0.9156 0.0
O1827 O 0.32877 0.47476 0.89148 0.0
H1828 H 0.34039 0.50743 0.90919 0.0
H1829 H 0.3573 0.52508 0.91249 0.0
H1830 H 0.33124 0.56076 0.8823 0.0
H1831 H 0.31485 0.54335 0.87886 0.0
H1832 H 0.24861 0.50787 0.85321 0.0
H1833 H 0.27163 0.50587 0.86649 0.0
H1834 H 0.24671 0.46068 0.8699 0.0
H1835 H 0.2694 0.45887 0.88266 0.0
H1836 H 0.32678 0.41559 0.92473 0.0
H1837 H 0.36694 0.4356 0.92278 0.0
H1838 H 0.35605 0.45984 0.91282 0.0
H1839 H 0.31572 0.44016 0.91459 0.0
C1840 C 0.32756 0.48785 0.62073 0.0
C1841 C 0.34159 0.49178 0.61692 0.0
C1842 C 0.34679 0.46749 0.61624 0.0
C1843 C 0.3511 0.48171 0.61467 0.0
C1844 C 0.33263 0.46395 0.61959 0.0
C1845 C 0.32325 0.47392 0.62185 0.0
U1846 U 0.312 0.52466 0.62179 0.0
O1847 O 0.29017 0.53247 0.61721 0.0
O1848 O 0.29952 0.52749 0.64149 0.0
C1849 C 0.28852 0.53228 0.6321 0.0
C1850 C 0.31709 0.49749 0.62427 0.0
C1851 C 0.27437 0.52995 0.6396 0.0
C1852 C 0.25506 0.51498 0.65526 0.0
C1853 C 0.2683 0.51611 0.64783 0.0
C1854 C 0.25385 0.54135 0.64614 0.0
C1855 C 0.24773 0.52763 0.65475 0.0
C1856 C 0.26689 0.54246 0.63875 0.0
C1857 C 0.3367 0.55967 0.60288 0.0
C1858 C 0.33457 0.58587 0.59713 0.0
C1859 C 0.35604 0.57617 0.5909 0.0
C1860 C 0.35036 0.5621 0.59688 0.0
C1861 C 0.34824 0.5882 0.59092 0.0
C1862 C 0.32878 0.57167 0.60301 0.0
C1863 C 0.33138 0.54446 0.60839 0.0
O1864 O 0.32009 0.50247 0.63581 0.0
O1865 O 0.31059 0.50719 0.61175 0.0
O1866 O 0.32129 0.54156 0.59998 0.0
O1867 O 0.33071 0.53675 0.62417 0.0
H1868 H 0.34523 0.50248 0.61595 0.0
H1869 H 0.36188 0.48492 0.61215 0.0
H1870 H 0.32871 0.45337 0.6205 0.0
H1871 H 0.31251 0.47062 0.62468 0.0
H1872 H 0.25071 0.50421 0.66169 0.0
H1873 H 0.2738 0.50625 0.64866 0.0
H1874 H 0.24851 0.55139 0.64498 0.0
H1875 H 0.27125 0.55325 0.63242 0.0
H1876 H 0.32835 0.59503 0.59719 0.0
H1877 H 0.36658 0.57769 0.58622 0.0
H1878 H 0.35667 0.55303 0.59667 0.0
H1879 H 0.3182 0.57009 0.60753 0.0
C1880 C 0.2036 0.73429 0.18785 0.0
C1881 C 0.206 0.74008 0.20002 0.0
C1882 C 0.22897 0.74822 0.18879 0.0
C1883 C 0.21862 0.74708 0.20043 0.0
C1884 C 0.22611 0.74347 0.17597 0.0
C1885 C 0.21344 0.73674 0.17538 0.0
U1886 U 0.16823 0.71577 0.20344 0.0
O1887 O 0.16427 0.69252 0.21763 0.0
O1888 O 0.15429 0.70307 0.19364 0.0
C1889 C 0.15634 0.69081 0.20631 0.0
C1890 C 0.19269 0.72322 0.18972 0.0
C1891 C 0.15856 0.67719 0.20317 0.0
C1892 C 0.17323 0.6567 0.20413 0.0
C1893 C 0.17177 0.67079 0.20443 0.0
C1894 C 0.14842 0.65548 0.20049 0.0
C1895 C 0.16157 0.64873 0.20245 0.0
C1896 C 0.14695 0.66952 0.20089 0.0
C1897 C 0.14451 0.73256 0.2269 0.0
C1898 C 0.12213 0.72276 0.23845 0.0
C1899 C 0.13365 0.74074 0.24683 0.0
C1900 C 0.14461 0.74137 0.23623 0.0
C1901 C 0.12236 0.73131 0.24821 0.0
C1902 C 0.13318 0.72331 0.22795 0.0
C1903 C 0.15671 0.73269 0.21691 0.0
O1904 O 0.18102 0.72746 0.18148 0.0
O1905 O 0.1908 0.71391 0.20473 0.0
O1906 O 0.1543 0.73407 0.20171 0.0
O1907 O 0.16618 0.72276 0.22425 0.0
H1908 H 0.19858 0.73828 0.20982 0.0
H1909 H 0.22067 0.75069 0.21043 0.0
H1910 H 0.23397 0.74429 0.16687 0.0
H1911 H 0.21184 0.73231 0.16596 0.0
H1912 H 0.18344 0.65184 0.20554 0.0
H1913 H 0.18087 0.67647 0.20624 0.0
H1914 H 0.13915 0.64965 0.19945 0.0
H1915 H 0.13661 0.67415 0.20011 0.0
H1916 H 0.11349 0.71553 0.23904 0.0
H1917 H 0.13428 0.74728 0.25434 0.0
H1918 H 0.15335 0.7485 0.23561 0.0
H1919 H 0.13298 0.71638 0.22085 0.0
C1920 C 0.05213 0.2946 0.11346 0.0
C1921 C 0.06172 0.28379 0.11325 0.0
C1922 C 0.06835 0.27519 0.12806 0.0
C1923 C 0.05732 0.28943 0.14206 0.0
C1924 C 0.05018 0.29731 0.12786 0.0
C1925 C 0.04168 0.30957 0.12955 0.0
H1926 H 0.02609 0.34953 0.17559 0.0
C1927 C 0.05419 0.29599 0.1543 0.0
C1928 C 0.04492 0.30776 0.14707 0.0
H1929 H 0.01488 0.35966 0.12511 0.0
H1930 H 0.02417 0.33608 0.12666 0.0
H1931 H 0.01892 0.31455 0.18929 0.0
H1932 H 0.05457 0.34191 0.17213 0.0
H1933 H 0.06126 0.32618 0.18727 0.0
H1934 H 0.04826 0.33681 0.19263 0.0
H1935 H 0.02817 0.32252 0.20159 0.0
H1936 H 0.0327 0.30467 0.2016 0.0
C1937 C 0.02616 0.30666 0.12736 0.0
C1938 C 0.04713 0.32429 0.11702 0.0
C1939 C 0.08091 0.2799 0.20817 0.0
C1940 C 0.0805 0.28482 0.22125 0.0
C1941 C 0.06996 0.29459 0.22168 0.0
C1942 C 0.06049 0.30013 0.20883 0.0
C1943 C 0.06158 0.29592 0.19531 0.0
C1944 C 0.07119 0.28548 0.19542 0.0
C1945 C 0.06993 0.2817 0.18042 0.0
C1946 C 0.0593 0.29294 0.1704 0.0
C1947 C 0.05435 0.30101 0.1794 0.0
C1948 C 0.06369 0.26621 0.18601 0.0
C1949 C 0.08435 0.28333 0.17203 0.0
C1950 C 0.02545 0.34661 0.1649 0.0
C1951 C 0.02002 0.35648 0.15016 0.0
C1952 C 0.01915 0.35221 0.13659 0.0
C1953 C 0.02474 0.33867 0.13745 0.0
C1954 C 0.03144 0.32956 0.15194 0.0
C1955 C 0.03132 0.33352 0.16542 0.0
C1956 C 0.03959 0.32341 0.17947 0.0
C1957 C 0.04499 0.31274 0.17224 0.0
C1958 C 0.04022 0.3162 0.15615 0.0
C1959 C 0.02943 0.31593 0.19384 0.0
C1960 C 0.05149 0.33242 0.18325 0.0
H1961 H 0.07177 0.27126 0.15317 0.0
H1962 H 0.0466 0.30125 0.10248 0.0
H1963 H 0.05854 0.32379 0.1152 0.0
H1964 H 0.04574 0.33352 0.1211 0.0
H1965 H 0.04201 0.32702 0.10493 0.0
H1966 H 0.02348 0.29508 0.13478 0.0
H1967 H 0.02378 0.30868 0.11435 0.0
H1968 H 0.01914 0.31346 0.13151 0.0
H1969 H 0.08878 0.27218 0.2077 0.0
H1970 H 0.06947 0.29856 0.2316 0.0
H1971 H 0.05309 0.30797 0.20965 0.0
H1972 H 0.05417 0.26541 0.19347 0.0
H1973 H 0.07123 0.25807 0.1938 0.0
H1974 H 0.0604 0.26329 0.17564 0.0
H1975 H 0.09126 0.29085 0.17537 0.0
H1976 H 0.08364 0.28831 0.15854 0.0
H1977 H 0.08975 0.2726 0.17563 0.0
H1978 H 0.07581 0.26683 0.12841 0.0
C1979 C 0.06612 0.27789 0.14244 0.0
C1980 C 0.88829 0.7678 0.54167 0.0
C1981 C 0.88961 0.75261 0.54557 0.0
C1982 C 0.89982 0.74763 0.53734 0.0
C1983 C 0.90634 0.77268 0.52085 0.0
C1984 C 0.89664 0.77758 0.52926 0.0
C1985 C 0.89575 0.79406 0.5227 0.0
H1986 H 0.91114 0.85888 0.46226 0.0
C1987 C 0.91256 0.78563 0.50779 0.0
C1988 C 0.90632 0.79823 0.50886 0.0
H1989 H 0.88314 0.8514 0.50286 0.0
H1990 H 0.89023 0.82592 0.51449 0.0
H1991 H 0.93651 0.8384 0.48504 0.0
H1992 H 0.90384 0.83267 0.4548 0.0
H1993 H 0.9179 0.82262 0.45188 0.0
H1994 H 0.91966 0.84211 0.44641 0.0
H1995 H 0.9372 0.84598 0.46312 0.0
H1996 H 0.94369 0.8278 0.47481 0.0
C1997 C 0.90031 0.79936 0.53641 0.0
C1998 C 0.88073 0.79854 0.51636 0.0
C1999 C 0.94591 0.77961 0.46511 0.0
C2000 C 0.95159 0.78995 0.4506 0.0
C2001 C 0.94974 0.80495 0.44732 0.0
C2002 C 0.94196 0.80971 0.4578 0.0
C2003 C 0.93566 0.79939 0.47171 0.0
C2004 C 0.93794 0.78461 0.4755 0.0
C2005 C 0.93001 0.77539 0.49073 0.0
C2006 C 0.92233 0.78709 0.49503 0.0
C2007 C 0.92579 0.8011 0.48379 0.0
C2008 C 0.9407 0.7671 0.50412 0.0
C2009 C 0.91993 0.76526 0.48613 0.0
C2010 C 0.90659 0.85178 0.47372 0.0
C2011 C 0.89641 0.85713 0.4815 0.0
C2012 C 0.89098 0.84757 0.49658 0.0
C2013 C 0.89501 0.83273 0.50322 0.0
C2014 C 0.90454 0.82734 0.49469 0.0
C2015 C 0.9105 0.83699 0.4805 0.0
C2016 C 0.92058 0.82957 0.47311 0.0
C2017 C 0.91931 0.81373 0.48477 0.0
C2018 C 0.90983 0.8124 0.49737 0.0
C2019 C 0.93528 0.83576 0.47388 0.0
C2020 C 0.91539 0.83187 0.45561 0.0
H2021 H 0.91575 0.75301 0.51936 0.0
H2022 H 0.88051 0.772 0.54767 0.0
H2023 H 0.87666 0.79128 0.51027 0.0
H2024 H 0.88 0.80969 0.50698 0.0
H2025 H 0.87359 0.79769 0.52657 0.0
H2026 H 0.90922 0.79273 0.54345 0.0
H2027 H 0.89168 0.79831 0.54515 0.0
H2028 H 0.90407 0.81078 0.53164 0.0
H2029 H 0.94717 0.76799 0.46793 0.0
H2030 H 0.95413 0.81306 0.43635 0.0
H2031 H 0.94078 0.82131 0.4543 0.0
H2032 H 0.9491 0.77463 0.50478 0.0
H2033 H 0.94564 0.75803 0.50142 0.0
H2034 H 0.93609 0.76258 0.51645 0.0
H2035 H 0.91615 0.77066 0.47333 0.0
H2036 H 0.91038 0.76271 0.4936 0.0
H2037 H 0.92513 0.75487 0.48716 0.0
H2038 H 0.90122 0.736 0.54026 0.0
C2039 C 0.90825 0.75753 0.52518 0.0
C2040 C 0.38076 0.73433 0.50188 0.0
C2041 C 0.38466 0.74905 0.49763 0.0
C2042 C 0.3957 0.75238 0.50624 0.0
C2043 C 0.39812 0.72671 0.52369 0.0
C2044 C 0.3875 0.7234 0.51499 0.0
C2045 C 0.38375 0.7074 0.52206 0.0
H2046 H 0.39032 0.64087 0.58331 0.0
C2047 C 0.40218 0.71304 0.53741 0.0
C2048 C 0.39365 0.70171 0.53656 0.0
H2049 H 0.36193 0.65357 0.54217 0.0
H2050 H 0.37231 0.67756 0.53128 0.0
H2051 H 0.41766 0.65766 0.56188 0.0
H2052 H 0.38693 0.66805 0.59111 0.0
H2053 H 0.40217 0.67656 0.59391 0.0
H2054 H 0.40178 0.65688 0.60013 0.0
H2055 H 0.4171 0.64928 0.58378 0.0
H2056 H 0.42648 0.66608 0.57349 0.0
C2057 C 0.38706 0.70075 0.5091 0.0
C2058 C 0.36829 0.70608 0.52743 0.0
C2059 C 0.43963 0.71338 0.57893 0.0
C2060 C 0.44434 0.70245 0.59373 0.0
C2061 C 0.4385 0.6883 0.59841 0.0
C2062 C 0.42857 0.68499 0.58873 0.0
C2063 C 0.42392 0.69594 0.57423 0.0
C2064 C 0.42937 0.70989 0.56947 0.0
C2065 C 0.42237 0.72024 0.55407 0.0
C2066 C 0.41205 0.71006 0.55039 0.0
C2067 C 0.41312 0.69584 0.56229 0.0
C2068 C 0.4335 0.72601 0.54053 0.0
C2069 C 0.41495 0.73241 0.55821 0.0
C2070 C 0.38624 0.6488 0.57201 0.0
C2071 C 0.37514 0.64519 0.56375 0.0
C2072 C 0.37049 0.65589 0.54883 0.0
C2073 C 0.37646 0.66992 0.54256 0.0
C2074 C 0.38716 0.6735 0.55131 0.0
C2075 C 0.39203 0.66291 0.56562 0.0
C2076 C 0.40343 0.66862 0.57333 0.0
C2077 C 0.40441 0.68445 0.5615 0.0
C2078 C 0.39484 0.6873 0.54862 0.0
C2079 C 0.41691 0.65996 0.57329 0.0
C2080 C 0.39847 0.66742 0.59055 0.0
H2081 H 0.41079 0.74458 0.52518 0.0
H2082 H 0.37223 0.73145 0.49561 0.0
H2083 H 0.36536 0.71498 0.53173 0.0
H2084 H 0.36604 0.69588 0.53792 0.0
H2085 H 0.36125 0.70685 0.51713 0.0
H2086 H 0.39707 0.7051 0.50285 0.0
H2087 H 0.3788 0.7035 0.49959 0.0
H2088 H 0.38844 0.68874 0.51445 0.0
H2089 H 0.44372 0.72441 0.57479 0.0
H2090 H 0.44129 0.67969 0.60987 0.0
H2091 H 0.42468 0.674 0.59318 0.0
H2092 H 0.44021 0.71686 0.5403 0.0
H2093 H 0.44031 0.73421 0.54271 0.0
H2094 H 0.42895 0.73097 0.52816 0.0
H2095 H 0.41121 0.72815 0.57108 0.0
H2096 H 0.40548 0.7366 0.5508 0.0
H2097 H 0.42207 0.7417 0.5567 0.0
H2098 H 0.39899 0.76363 0.50306 0.0
C2099 C 0.40251 0.74131 0.5191 0.0
C2100 C 0.53562 0.23404 0.88245 0.0
C2101 C 0.54727 0.2429 0.88224 0.0
C2102 C 0.55473 0.24921 0.86749 0.0
C2103 C 0.54023 0.23654 0.85439 0.0
C2104 C 0.53218 0.23118 0.86834 0.0
C2105 C 0.52042 0.2217 0.86642 0.0
H2106 H 0.49283 0.18516 0.82125 0.0
C2107 C 0.535 0.23029 0.84253 0.0
C2108 C 0.5232 0.22173 0.84936 0.0
H2109 H 0.47855 0.1832 0.86854 0.0
H2110 H 0.49539 0.20182 0.86782 0.0
H2111 H 0.49588 0.22165 0.80561 0.0
H2112 H 0.52163 0.18373 0.82696 0.0
H2113 H 0.53273 0.19654 0.81333 0.0
H2114 H 0.51739 0.19075 0.80561 0.0
H2115 H 0.50067 0.20959 0.79545 0.0
H2116 H 0.51126 0.22518 0.79401 0.0
C2117 C 0.50651 0.22934 0.86704 0.0
C2118 C 0.52193 0.20626 0.87988 0.0
C2119 C 0.56435 0.23446 0.79294 0.0
C2120 C 0.56261 0.2289 0.78053 0.0
C2121 C 0.54981 0.22262 0.77899 0.0
C2122 C 0.53918 0.22094 0.7904 0.0
C2123 C 0.54143 0.22553 0.80353 0.0
C2124 C 0.55352 0.23281 0.80416 0.0
C2125 C 0.55338 0.23803 0.81816 0.0
C2126 C 0.54036 0.23076 0.82728 0.0
C2127 C 0.53328 0.22373 0.8184 0.0
C2128 C 0.5512 0.25469 0.81058 0.0
C2129 C 0.56696 0.23297 0.82828 0.0
C2130 C 0.4929 0.18891 0.83134 0.0
C2131 C 0.48425 0.18254 0.84497 0.0
C2132 C 0.48523 0.18767 0.85795 0.0
C2133 C 0.49502 0.19848 0.85753 0.0
C2134 C 0.50404 0.20416 0.84406 0.0
C2135 C 0.50253 0.19956 0.83112 0.0
C2136 C 0.51288 0.2063 0.81782 0.0
C2137 C 0.52127 0.2154 0.82502 0.0
C2138 C 0.51613 0.21431 0.84039 0.0
C2139 C 0.50485 0.21614 0.80231 0.0
C2140 C 0.5216 0.1938 0.81565 0.0
H2141 H 0.55768 0.25086 0.84303 0.0
H2142 H 0.52948 0.22923 0.89345 0.0
H2143 H 0.53303 0.2028 0.88149 0.0
H2144 H 0.51644 0.19774 0.87693 0.0
H2145 H 0.51805 0.20612 0.89181 0.0
H2146 H 0.50696 0.24116 0.85905 0.0
H2147 H 0.50424 0.22857 0.8797 0.0
H2148 H 0.49765 0.22477 0.86256 0.0
H2149 H 0.57408 0.23947 0.79421 0.0
H2150 H 0.54832 0.21832 0.76944 0.0
H2151 H 0.52987 0.21556 0.78893 0.0
H2152 H 0.54267 0.25762 0.80134 0.0
H2153 H 0.56074 0.2601 0.80415 0.0
H2154 H 0.54792 0.25918 0.81972 0.0
H2155 H 0.57109 0.22273 0.82736 0.0
H2156 H 0.5654 0.23012 0.84151 0.0
H2157 H 0.57519 0.24145 0.82389 0.0
H2158 H 0.56371 0.25604 0.86685 0.0
C2159 C 0.55128 0.2461 0.85365 0.0
C2160 C 0.05256 0.71688 0.40341 0.0
C2161 C 0.06231 0.72767 0.40302 0.0
C2162 C 0.06898 0.73575 0.3882 0.0
C2163 C 0.05733 0.72142 0.37482 0.0
C2164 C 0.05025 0.71389 0.38918 0.0
C2165 C 0.04155 0.70162 0.38781 0.0
H2166 H 0.02512 0.66099 0.34262 0.0
C2167 C 0.05382 0.71474 0.3628 0.0
C2168 C 0.04448 0.70315 0.37028 0.0
H2169 H 0.01291 0.65223 0.39255 0.0
H2170 H 0.0236 0.67512 0.39108 0.0
H2171 H 0.01717 0.69433 0.32875 0.0
H2172 H 0.05448 0.66963 0.34574 0.0
H2173 H 0.05952 0.68472 0.32861 0.0
H2174 H 0.04654 0.67251 0.32634 0.0
H2175 H 0.02763 0.68844 0.31555 0.0
H2176 H 0.03023 0.70605 0.31717 0.0
C2177 C 0.02611 0.70472 0.39015 0.0
C2178 C 0.04702 0.68693 0.40045 0.0
C2179 C 0.08003 0.72933 0.30877 0.0
C2180 C 0.07904 0.72418 0.2959 0.0
C2181 C 0.06764 0.71545 0.2953 0.0
C2182 C 0.05812 0.71069 0.30808 0.0
C2183 C 0.06004 0.71458 0.3217 0.0
C2184 C 0.0703 0.72438 0.32155 0.0
C2185 C 0.0698 0.72803 0.33669 0.0
C2186 C 0.05856 0.71766 0.3466 0.0
C2187 C 0.05309 0.70975 0.33771 0.0
C2188 C 0.06504 0.74409 0.3312 0.0
C2189 C 0.08427 0.72474 0.34509 0.0
C2190 C 0.02438 0.66403 0.3532 0.0
C2191 C 0.0181 0.65475 0.36768 0.0
C2192 C 0.01783 0.65911 0.38126 0.0
C2193 C 0.02408 0.67236 0.3804 0.0
C2194 C 0.03087 0.68116 0.36593 0.0
C2195 C 0.03062 0.67697 0.35261 0.0
C2196 C 0.03846 0.68712 0.33828 0.0
C2197 C 0.04391 0.69799 0.34521 0.0
C2198 C 0.03953 0.6946 0.36141 0.0
C2199 C 0.02793 0.69433 0.32412 0.0
C2200 C 0.05033 0.67816 0.33435 0.0
H2201 H 0.07228 0.73901 0.36341 0.0
H2202 H 0.04752 0.71031 0.41477 0.0
H2203 H 0.05851 0.68723 0.4018 0.0
H2204 H 0.04513 0.67755 0.39677 0.0
H2205 H 0.04233 0.68461 0.41267 0.0
H2206 H 0.02341 0.71626 0.3825 0.0
H2207 H 0.02398 0.70302 0.40312 0.0
H2208 H 0.01895 0.69779 0.38639 0.0
H2209 H 0.08856 0.73631 0.30934 0.0
H2210 H 0.06647 0.71174 0.28523 0.0
H2211 H 0.0501 0.70349 0.3072 0.0
H2212 H 0.05614 0.74631 0.32249 0.0
H2213 H 0.07367 0.75131 0.32478 0.0
H2214 H 0.06125 0.74714 0.34128 0.0
H2215 H 0.08891 0.71475 0.34407 0.0
H2216 H 0.08389 0.72236 0.35833 0.0
H2217 H 0.09156 0.73395 0.33926 0.0
H2218 H 0.07659 0.74403 0.38772 0.0
C2219 C 0.06648 0.73278 0.3741 0.0
C2220 C 0.53885 0.77753 0.63422 0.0
C2221 C 0.55044 0.7685 0.63465 0.0
C2222 C 0.55763 0.76194 0.64962 0.0
C2223 C 0.54302 0.77474 0.6625 0.0
C2224 C 0.53523 0.78034 0.64829 0.0
C2225 C 0.52364 0.79018 0.64979 0.0
H2226 H 0.49199 0.82271 0.69668 0.0
C2227 C 0.53752 0.78084 0.67438 0.0
C2228 C 0.52589 0.78966 0.66711 0.0
H2229 H 0.48425 0.83197 0.64549 0.0
H2230 H 0.4999 0.81207 0.64661 0.0
H2231 H 0.49639 0.78755 0.71038 0.0
H2232 H 0.52104 0.82622 0.69151 0.0
H2233 H 0.53277 0.81356 0.70425 0.0
H2234 H 0.51717 0.81793 0.71285 0.0
H2235 H 0.50085 0.79881 0.72165 0.0
H2236 H 0.51161 0.78351 0.72235 0.0
C2237 C 0.50957 0.78329 0.64815 0.0
C2238 C 0.5259 0.80572 0.63676 0.0
C2239 C 0.56515 0.77703 0.7255 0.0
C2240 C 0.56263 0.78313 0.73741 0.0
C2241 C 0.54927 0.78848 0.73857 0.0
C2242 C 0.53899 0.78919 0.72714 0.0
C2243 C 0.54209 0.78466 0.71419 0.0
C2244 C 0.55462 0.77791 0.71399 0.0
C2245 C 0.55525 0.7728 0.69984 0.0
C2246 C 0.54226 0.77988 0.69013 0.0
C2247 C 0.53451 0.78646 0.69897 0.0
C2248 C 0.55355 0.75606 0.70713 0.0
C2249 C 0.56896 0.77824 0.69032 0.0
C2250 C 0.49354 0.82053 0.68562 0.0
C2251 C 0.48713 0.82923 0.67092 0.0
C2252 C 0.48919 0.82557 0.65701 0.0
C2253 C 0.49848 0.81421 0.6576 0.0
C2254 C 0.50608 0.80683 0.67206 0.0
C2255 C 0.50333 0.81007 0.68574 0.0
C2256 C 0.51342 0.80319 0.69934 0.0
C2257 C 0.52254 0.79479 0.69197 0.0
C2258 C 0.51825 0.79667 0.67605 0.0
C2259 C 0.50523 0.79278 0.71432 0.0
C2260 C 0.52149 0.81574 0.70232 0.0
H2261 H 0.56008 0.76003 0.67431 0.0
H2262 H 0.53289 0.78256 0.62307 0.0
H2263 H 0.53719 0.80824 0.63476 0.0
H2264 H 0.52165 0.81441 0.64048 0.0
H2265 H 0.52125 0.80673 0.62483 0.0
H2266 H 0.50925 0.77156 0.65646 0.0
H2267 H 0.50798 0.78386 0.63544 0.0
H2268 H 0.50067 0.78869 0.6515 0.0
H2269 H 0.57526 0.77251 0.72459 0.0
H2270 H 0.54696 0.79279 0.74796 0.0
H2271 H 0.52924 0.7939 0.72844 0.0
H2272 H 0.54491 0.75279 0.71617 0.0
H2273 H 0.56315 0.7508 0.71366 0.0
H2274 H 0.55066 0.75167 0.69777 0.0
H2275 H 0.57167 0.78933 0.68999 0.0
H2276 H 0.56833 0.77947 0.6774 0.0
H2277 H 0.57773 0.77076 0.69621 0.0
H2278 H 0.56655 0.75495 0.65047 0.0
C2279 C 0.55397 0.76499 0.66347 0.0
C2280 C 0.43887 0.31484 0.92611 0.0
C2281 C 0.44486 0.30132 0.92748 0.0
C2282 C 0.44164 0.28881 0.94148 0.0
C2283 C 0.42625 0.30311 0.95159 0.0
C2284 C 0.42958 0.31544 0.93814 0.0
C2285 C 0.42164 0.32874 0.93789 0.0
H2286 H 0.3685 0.35709 0.96693 0.0
C2287 C 0.41561 0.30727 0.96125 0.0
C2288 C 0.41287 0.32231 0.95326 0.0
H2289 H 0.39581 0.37943 0.92617 0.0
H2290 H 0.40937 0.35755 0.93239 0.0
H2291 H 0.36605 0.32705 0.96325 0.0
H2292 H 0.39553 0.34097 0.99138 0.0
H2293 H 0.39093 0.32282 1.00313 0.0
H2294 H 0.37774 0.33697 0.99761 0.0
H2295 H 0.36124 0.33021 0.98135 0.0
H2296 H 0.36794 0.31279 0.98244 0.0
C2297 C 0.41261 0.33423 0.92215 0.0
C2298 C 0.43222 0.3401 0.93923 0.0
C2299 C 0.39337 0.26805 0.01075 0.0
C2300 C 0.38294 0.26854 0.02173 0.0
C2301 C 0.37734 0.28221 0.02025 0.0
C2302 C 0.38167 0.29514 0.0077 0.0
C2303 C 0.39178 0.29445 0.99649 0.0
C2304 C 0.39774 0.28112 0.9984 0.0
C2305 C 0.4087 0.28259 0.98569 0.0
C2306 C 0.40804 0.29893 0.97557 0.0
C2307 C 0.398 0.30581 0.98187 0.0
C2308 C 0.40423 0.27321 0.97576 0.0
C2309 C 0.42289 0.27815 0.99455 0.0
C2310 C 0.37746 0.35742 0.95939 0.0
C2311 C 0.38059 0.37009 0.94555 0.0
C2312 C 0.39258 0.36979 0.93639 0.0
C2313 C 0.40061 0.35705 0.94012 0.0
C2314 C 0.39686 0.34432 0.95332 0.0
C2315 C 0.38579 0.34479 0.9631 0.0
C2316 C 0.38389 0.33037 0.97721 0.0
C2317 C 0.39503 0.32098 0.97361 0.0
C2318 C 0.40258 0.32922 0.95955 0.0
C2319 C 0.369 0.32475 0.97619 0.0
C2320 C 0.38705 0.33281 0.99325 0.0
H2321 H 0.4305 0.2797 0.96375 0.0
H2322 H 0.44123 0.3248 0.91583 0.0
H2323 H 0.44125 0.33456 0.94703 0.0
H2324 H 0.4278 0.34719 0.94523 0.0
H2325 H 0.43632 0.34705 0.92702 0.0
H2326 H 0.40818 0.32483 0.91965 0.0
H2327 H 0.4189 0.34084 0.91135 0.0
H2328 H 0.40352 0.34073 0.923 0.0
H2329 H 0.39801 0.25771 0.01174 0.0
H2330 H 0.3693 0.28286 0.02856 0.0
H2331 H 0.37678 0.30515 1.00703 0.0
H2332 H 0.39271 0.2731 0.97457 0.0
H2333 H 0.40777 0.26168 0.98182 0.0
H2334 H 0.40804 0.27758 0.96304 0.0
H2335 H 0.42379 0.28227 1.00468 0.0
H2336 H 0.43184 0.28293 0.9865 0.0
H2337 H 0.42408 0.26605 0.99993 0.0
H2338 H 0.4458 0.27816 0.94299 0.0
C2339 C 0.43254 0.28966 0.95354 0.0
C2340 C 0.88766 0.24652 0.97196 0.0
C2341 C 0.88888 0.26165 0.96842 0.0
C2342 C 0.89904 0.26642 0.97695 0.0
C2343 C 0.90569 0.24124 0.99298 0.0
C2344 C 0.89603 0.23658 0.98429 0.0
C2345 C 0.89513 0.22014 0.99047 0.0
H2346 H 0.90952 0.15443 0.04972 0.0
C2347 C 0.91193 0.22808 1.00586 0.0
C2348 C 0.90565 0.21568 1.0044 0.0
H2349 H 0.88196 0.16368 0.00827 0.0
H2350 H 0.88935 0.18896 0.99766 0.0
H2351 H 0.93508 0.17418 0.02748 0.0
H2352 H 0.90337 0.18152 0.05781 0.0
H2353 H 0.9186 0.18945 0.0617 0.0
H2354 H 0.91828 0.17009 0.06595 0.0
H2355 H 0.93643 0.16706 0.04936 0.0
H2356 H 0.94283 0.18507 0.03699 0.0
C2357 C 0.89979 0.21516 0.97654 0.0
C2358 C 0.88007 0.21566 0.99659 0.0
C2359 C 0.94604 0.23262 0.04879 0.0
C2360 C 0.95244 0.22196 0.06257 0.0
C2361 C 0.95072 0.20707 0.06524 0.0
C2362 C 0.94234 0.20271 0.05487 0.0
C2363 C 0.93547 0.21333 0.0416 0.0
C2364 C 0.9377 0.22804 0.03835 0.0
C2365 C 0.92959 0.23762 0.02339 0.0
C2366 C 0.9218 0.22622 0.01868 0.0
C2367 C 0.92533 0.21203 0.02954 0.0
C2368 C 0.94011 0.24621 0.01002 0.0
C2369 C 0.91961 0.24747 0.02855 0.0
C2370 C 0.90507 0.16193 0.03838 0.0
C2371 C 0.89492 0.15712 0.03001 0.0
C2372 C 0.88972 0.16712 0.01502 0.0
C2373 C 0.89397 0.18183 0.00893 0.0
C2374 C 0.90355 0.18667 0.01789 0.0
C2375 C 0.90931 0.17664 0.03203 0.0
C2376 C 0.91978 0.1836 0.03957 0.0
C2377 C 0.91869 0.1996 0.02824 0.0
C2378 C 0.90912 0.20138 0.01559 0.0
C2379 C 0.9343 0.17713 0.03847 0.0
C2380 C 0.91492 0.18102 0.05721 0.0
H2381 H 0.91494 0.26071 0.99509 0.0
H2382 H 0.87992 0.24245 0.96578 0.0
H2383 H 0.87567 0.22322 1.00211 0.0
H2384 H 0.8794 0.20473 1.0064 0.0
H2385 H 0.87311 0.21601 0.98637 0.0
H2386 H 0.90862 0.22194 0.96961 0.0
H2387 H 0.89117 0.21627 0.96774 0.0
H2388 H 0.90371 0.20378 0.9811 0.0
H2389 H 0.94731 0.24417 0.04639 0.0
H2390 H 0.95564 0.19874 0.07566 0.0
H2391 H 0.94123 0.19116 0.0579 0.0
H2392 H 0.94843 0.23877 0.00889 0.0
H2393 H 0.94515 0.25502 0.01308 0.0
H2394 H 0.93531 0.25112 0.99778 0.0
H2395 H 0.91567 0.24157 0.04117 0.0
H2396 H 0.91019 0.25064 0.02085 0.0
H2397 H 0.92498 0.25753 0.02835 0.0
H2398 H 0.90037 0.27801 0.97431 0.0
C2399 C 0.90749 0.25636 0.98904 0.0
C2400 C 0.19384 0.29549 0.24806 0.0
C2401 C 0.20659 0.29792 0.2546 0.0
C2402 C 0.21911 0.29462 0.24853 0.0
C2403 C 0.20636 0.28528 0.23088 0.0
C2404 C 0.194 0.28908 0.2362 0.0
C2405 C 0.18163 0.28508 0.22812 0.0
H2406 H 0.15497 0.24514 0.18685 0.0
C2407 C 0.20315 0.27776 0.21964 0.0
C2408 C 0.18873 0.27743 0.21793 0.0
H2409 H 0.13377 0.27349 0.207 0.0
H2410 H 0.15553 0.28125 0.21388 0.0
H2411 H 0.18142 0.27231 0.16873 0.0
H2412 H 0.18148 0.23352 0.21363 0.0
H2413 H 0.19569 0.23451 0.20037 0.0
H2414 H 0.1784 0.23207 0.19413 0.0
H2415 H 0.17829 0.25444 0.16828 0.0
H2416 H 0.19563 0.26023 0.17059 0.0
C2417 C 0.17432 0.29948 0.21715 0.0
C2418 C 0.17229 0.27456 0.24179 0.0
C2419 C 0.24406 0.25673 0.20043 0.0
C2420 C 0.24595 0.24757 0.1917 0.0
C2421 C 0.23402 0.24354 0.18487 0.0
C2422 C 0.22047 0.24812 0.18746 0.0
C2423 C 0.21882 0.25684 0.19694 0.0
C2424 C 0.2307 0.26104 0.20296 0.0
C2425 C 0.22766 0.26987 0.21306 0.0
C2426 C 0.21199 0.27068 0.21208 0.0
C2427 C 0.2065 0.26305 0.20271 0.0
C2428 C 0.23439 0.28521 0.2045 0.0
C2429 C 0.23293 0.26102 0.23077 0.0
C2430 C 0.15505 0.25308 0.19265 0.0
C2431 C 0.14236 0.25805 0.19711 0.0
C2432 C 0.14313 0.26876 0.20418 0.0
C2433 C 0.15588 0.27343 0.20809 0.0
C2434 C 0.1683 0.26764 0.20473 0.0
C2435 C 0.16794 0.25818 0.19643 0.0
C2436 C 0.18262 0.25442 0.19275 0.0
C2437 C 0.19163 0.26253 0.20101 0.0
C2438 C 0.18294 0.27005 0.20823 0.0
C2439 C 0.18466 0.26061 0.17406 0.0
C2440 C 0.18472 0.23771 0.20058 0.0
H2441 H 0.22904 0.28609 0.23293 0.0
H2442 H 0.18404 0.29814 0.25236 0.0
H2443 H 0.17875 0.26629 0.2513 0.0
H2444 H 0.16499 0.26819 0.23743 0.0
H2445 H 0.1662 0.28068 0.24789 0.0
H2446 H 0.18175 0.30881 0.21292 0.0
H2447 H 0.16583 0.30251 0.22383 0.0
H2448 H 0.17011 0.29887 0.20573 0.0
H2449 H 0.2529 0.26032 0.20561 0.0
H2450 H 0.23513 0.23652 0.17798 0.0
H2451 H 0.21177 0.24453 0.18227 0.0
H2452 H 0.23456 0.28844 0.19098 0.0
H2453 H 0.24531 0.28532 0.20862 0.0
H2454 H 0.22849 0.2941 0.20643 0.0
H2455 H 0.23338 0.24905 0.23341 0.0
H2456 H 0.22591 0.26187 0.24031 0.0
H2457 H 0.24355 0.26449 0.23276 0.0
H2458 H 0.22904 0.29684 0.25296 0.0
C2459 C 0.21907 0.2884 0.23675 0.0
C2460 C 0.11319 0.91116 0.61014 0.0
C2461 C 0.11308 0.92002 0.61961 0.0
C2462 C 0.10453 0.91586 0.63358 0.0
C2463 C 0.09763 0.89374 0.62966 0.0
C2464 C 0.10539 0.89804 0.61543 0.0
C2465 C 0.10451 0.8869 0.60738 0.0
H2466 H 0.08512 0.81836 0.61388 0.0
C2467 C 0.09159 0.87914 0.63262 0.0
C2468 C 0.09554 0.875 0.61956 0.0
H2469 H 0.10564 0.8512 0.57269 0.0
H2470 H 0.10469 0.86817 0.58652 0.0
H2471 H 0.09968 0.82279 0.64116 0.0
H2472 H 0.06178 0.84214 0.61673 0.0
H2473 H 0.05898 0.83723 0.63781 0.0
H2474 H 0.06337 0.82324 0.63 0.0
H2475 H 0.08339 0.81333 0.64624 0.0
H2476 H 0.08935 0.82521 0.65632 0.0
C2477 C 0.11936 0.88137 0.60613 0.0
C2478 C 0.09713 0.8942 0.59069 0.0
C2479 C 0.06512 0.85206 0.68587 0.0
C2480 C 0.05935 0.83782 0.69267 0.0
C2481 C 0.0606 0.82865 0.68362 0.0
C2482 C 0.06693 0.83352 0.66823 0.0
C2483 C 0.07254 0.84767 0.66165 0.0
C2484 C 0.07169 0.85668 0.67044 0.0
C2485 C 0.07878 0.87118 0.66158 0.0
C2486 C 0.08385 0.86934 0.64605 0.0
C2487 C 0.08013 0.85554 0.64621 0.0
C2488 C 0.09103 0.87247 0.67243 0.0
C2489 C 0.06773 0.8835 0.65776 0.0
C2490 C 0.0892 0.82923 0.60744 0.0
C2491 C 0.09564 0.83305 0.59203 0.0
C2492 C 0.10098 0.84749 0.58471 0.0
C2493 C 0.10027 0.85751 0.59269 0.0
C2494 C 0.09392 0.85332 0.60812 0.0
C2495 C 0.08824 0.83947 0.61498 0.0
C2496 C 0.08128 0.83691 0.63104 0.0
C2497 C 0.084 0.85133 0.63302 0.0
C2498 C 0.09149 0.861 0.61963 0.0
C2499 C 0.08866 0.82385 0.64444 0.0
C2500 C 0.06553 0.83464 0.62896 0.0
H2501 H 0.09074 0.90036 0.64948 0.0
H2502 H 0.11957 0.91408 0.59928 0.0
H2503 H 0.08845 0.90134 0.59161 0.0
H2504 H 0.09227 0.88618 0.58632 0.0
H2505 H 0.10448 0.90112 0.58125 0.0
H2506 H 0.12505 0.8788 0.61788 0.0
H2507 H 0.12539 0.88983 0.59638 0.0
H2508 H 0.11945 0.8712 0.60364 0.0
H2509 H 0.06443 0.85953 0.69227 0.0
H2510 H 0.05682 0.8175 0.68848 0.0
H2511 H 0.06731 0.82593 0.66212 0.0
H2512 H 0.09607 0.86163 0.67879 0.0
H2513 H 0.08737 0.8765 0.68196 0.0
H2514 H 0.09949 0.87961 0.66542 0.0
H2515 H 0.05743 0.8797 0.65512 0.0
H2516 H 0.07019 0.89316 0.64667 0.0
H2517 H 0.06638 0.88703 0.66825 0.0
H2518 H 0.10395 0.92261 0.64086 0.0
C2519 C 0.09683 0.90289 0.6386 0.0
C2520 C 0.36166 0.95159 0.80433 0.0
C2521 C 0.37366 0.9453 0.80033 0.0
C2522 C 0.38058 0.93391 0.81279 0.0
C2523 C 0.36362 0.93473 0.83266 0.0
C2524 C 0.35697 0.94629 0.8207 0.0
C2525 C 0.34459 0.9516 0.82761 0.0
H2526 H 0.30553 0.94345 0.89528 0.0
C2527 C 0.3561 0.93128 0.84823 0.0
C2528 C 0.34504 0.94132 0.84558 0.0
H2529 H 0.29648 0.97251 0.84563 0.0
H2530 H 0.31814 0.96518 0.83658 0.0
H2531 H 0.3109 0.91737 0.88421 0.0
H2532 H 0.33765 0.94669 0.89637 0.0
H2533 H 0.34607 0.92961 0.90401 0.0
H2534 H 0.32909 0.9316 0.91172 0.0
H2535 H 0.31356 0.91619 0.90481 0.0
H2536 H 0.32456 0.90657 0.89562 0.0
C2537 C 0.33132 0.94941 0.81888 0.0
C2538 C 0.34713 0.96768 0.82553 0.0
C2539 C 0.36883 0.88516 0.89715 0.0
C2540 C 0.36401 0.87915 0.9135 0.0
C2541 C 0.35445 0.88751 0.91861 0.0
C2542 C 0.34924 0.90088 0.90767 0.0
C2543 C 0.35371 0.90631 0.89134 0.0
C2544 C 0.36375 0.89879 0.88648 0.0
C2545 C 0.36817 0.90701 0.86902 0.0
C2546 C 0.35816 0.91998 0.86384 0.0
C2547 C 0.34974 0.91944 0.87697 0.0
C2548 C 0.36581 0.89697 0.85927 0.0
C2549 C 0.38348 0.91197 0.86927 0.0
C2550 C 0.3079 0.9482 0.88236 0.0
C2551 C 0.29886 0.95832 0.87121 0.0
C2552 C 0.30308 0.9646 0.85463 0.0
C2553 C 0.31558 0.96016 0.84932 0.0
C2554 C 0.3238 0.94904 0.86058 0.0
C2555 C 0.31979 0.94337 0.8768 0.0
C2556 C 0.32854 0.93067 0.88705 0.0
C2557 C 0.33886 0.92978 0.87456 0.0
C2558 C 0.33627 0.9406 0.85897 0.0
C2559 C 0.31901 0.91695 0.89342 0.0
C2560 C 0.33568 0.93471 0.9006 0.0
H2561 H 0.38128 0.91971 0.83755 0.0
H2562 H 0.35615 0.96039 0.79499 0.0
H2563 H 0.35775 0.96896 0.82987 0.0
H2564 H 0.33981 0.9715 0.83271 0.0
H2565 H 0.34626 0.97505 0.81247 0.0
H2566 H 0.33161 0.93864 0.81748 0.0
H2567 H 0.33036 0.9581 0.80649 0.0
H2568 H 0.32175 0.94929 0.82582 0.0
H2569 H 0.3762 0.87937 0.89251 0.0
H2570 H 0.35092 0.88381 0.93115 0.0
H2571 H 0.3418 0.90643 0.91238 0.0
H2572 H 0.35578 0.89099 0.86282 0.0
H2573 H 0.37425 0.8887 0.86171 0.0
H2574 H 0.36505 0.90302 0.84594 0.0
H2575 H 0.3861 0.91311 0.88104 0.0
H2576 H 0.38552 0.92296 0.85989 0.0
H2577 H 0.3909 0.90395 0.86766 0.0
H2578 H 0.38969 0.92876 0.81003 0.0
C2579 C 0.37564 0.9286 0.82882 0.0
C2580 C 0.36823 0.04352 0.26749 0.0
C2581 C 0.37249 0.05806 0.25862 0.0
C2582 C 0.38618 0.06207 0.26078 0.0
C2583 C 0.39177 0.03686 0.27737 0.0
C2584 C 0.37802 0.03302 0.27685 0.0
C2585 C 0.37596 0.01657 0.28494 0.0
H2586 H 0.41155 0.95088 0.30284 0.0
C2587 C 0.40005 0.02337 0.28472 0.0
C2588 C 0.39121 0.01112 0.2878 0.0
H2589 H 0.36732 0.95502 0.30691 0.0
H2590 H 0.3698 0.98138 0.30069 0.0
H2591 H 0.42282 0.98135 0.27619 0.0
H2592 H 0.41263 0.96552 0.32714 0.0
H2593 H 0.42369 0.98027 0.32477 0.0
H2594 H 0.43009 0.96462 0.32073 0.0
H2595 H 0.43169 0.96702 0.29235 0.0
H2596 H 0.43649 0.98585 0.28699 0.0
C2597 C 0.36685 0.01157 0.27362 0.0
C2598 C 0.36858 0.01312 0.30142 0.0
C2599 C 0.45015 0.02753 0.30144 0.0
C2600 C 0.45999 0.01683 0.31041 0.0
C2601 C 0.45678 1.00195 0.31387 0.0
C2602 C 0.44446 0.99788 0.30835 0.0
C2603 C 0.43458 0.00858 0.30014 0.0
C2604 C 0.43745 0.02312 0.2968 0.0
C2605 C 0.4254 0.03285 0.28842 0.0
C2606 C 0.41443 0.02151 0.28882 0.0
C2607 C 0.42011 0.00746 0.29512 0.0
C2608 C 0.42989 0.04225 0.27065 0.0
C2609 C 0.4212 0.04183 0.29888 0.0
C2610 C 0.4023 0.95756 0.30143 0.0
C2611 C 0.38915 0.95109 0.30372 0.0
C2612 C 0.37748 0.95993 0.30377 0.0
C2613 C 0.37886 0.97518 0.3001 0.0
C2614 C 0.39213 0.98157 0.29695 0.0
C2615 C 0.40355 0.97245 0.29883 0.0
C2616 C 0.41671 0.97956 0.30093 0.0
C2617 C 0.4118 0.99516 0.29678 0.0
C2618 C 0.39732 0.99666 0.29399 0.0
C2619 C 0.42758 0.97837 0.28853 0.0
C2620 C 0.42112 0.97214 0.31924 0.0
H2621 H 0.40632 0.05522 0.26993 0.0
H2622 H 0.35763 0.04032 0.26645 0.0
H2623 H 0.37476 0.01712 0.30958 0.0
H2624 H 0.36708 1.00116 0.30776 0.0
H2625 H 0.35818 0.01848 0.29958 0.0
H2626 H 0.35604 0.0157 0.27313 0.0
H2627 H 0.37068 0.01619 0.2609 0.0
H2628 H 0.36576 0.99964 0.27811 0.0
H2629 H 0.45215 0.03909 0.29805 0.0
H2630 H 0.46365 0.9932 0.32105 0.0
H2631 H 0.44318 0.98649 0.31078 0.0
H2632 H 0.43871 0.03715 0.26651 0.0
H2633 H 0.43328 0.05335 0.26958 0.0
H2634 H 0.42151 0.04328 0.26162 0.0
H2635 H 0.42096 0.03468 0.31208 0.0
H2636 H 0.41073 0.04671 0.29606 0.0
H2637 H 0.42877 0.05077 0.29733 0.0
H2638 H 0.38971 0.07322 0.25474 0.0
C2639 C 0.39588 0.05154 0.26972 0.0
C2640 C 0.19287 0.71706 0.26683 0.0
C2641 C 0.20574 0.71343 0.26149 0.0
C2642 C 0.21813 0.71647 0.26812 0.0
C2643 C 0.20522 0.72801 0.28353 0.0
C2644 C 0.19289 0.72434 0.27795 0.0
C2645 C 0.18048 0.72953 0.28491 0.0
H2646 H 0.15472 0.7693 0.32756 0.0
C2647 C 0.20202 0.73647 0.29381 0.0
C2648 C 0.18756 0.7375 0.29479 0.0
H2649 H 0.13212 0.74545 0.30311 0.0
H2650 H 0.15369 0.73697 0.29573 0.0
H2651 H 0.18085 0.7428 0.3439 0.0
H2652 H 0.1793 0.7818 0.29939 0.0
H2653 H 0.19477 0.78076 0.31064 0.0
H2654 H 0.17838 0.78302 0.31923 0.0
H2655 H 0.17813 0.76068 0.34449 0.0
H2656 H 0.19527 0.7546 0.34184 0.0
C2657 C 0.17247 0.71582 0.29612 0.0
C2658 C 0.17176 0.74003 0.27047 0.0
C2659 C 0.243 0.75717 0.31391 0.0
C2660 C 0.24459 0.76668 0.32226 0.0
C2661 C 0.2325 0.77178 0.32761 0.0
C2662 C 0.21905 0.76732 0.32469 0.0
C2663 C 0.21765 0.75794 0.31595 0.0
C2664 C 0.22964 0.75316 0.31076 0.0
C2665 C 0.22666 0.74389 0.30107 0.0
C2666 C 0.21092 0.74357 0.30135 0.0
C2667 C 0.20542 0.75176 0.31006 0.0
C2668 C 0.23303 0.72846 0.31042 0.0
C2669 C 0.23239 0.75207 0.2835 0.0
C2670 C 0.15452 0.76205 0.32085 0.0
C2671 C 0.1417 0.75791 0.316 0.0
C2672 C 0.14183 0.74867 0.30707 0.0
C2673 C 0.15439 0.7438 0.30275 0.0
C2674 C 0.16712 0.74824 0.30729 0.0
C2675 C 0.16713 0.75704 0.31642 0.0
C2676 C 0.18184 0.76071 0.31988 0.0
C2677 C 0.19057 0.75269 0.31137 0.0
C2678 C 0.18176 0.74546 0.30391 0.0
C2679 C 0.18421 0.75444 0.33854 0.0
C2680 C 0.18375 0.77747 0.31197 0.0
H2681 H 0.22787 0.72598 0.28296 0.0
H2682 H 0.18313 0.71473 0.2621 0.0
H2683 H 0.17862 0.74682 0.26034 0.0
H2684 H 0.1656 0.74798 0.27378 0.0
H2685 H 0.16465 0.73381 0.2655 0.0
H2686 H 0.17982 0.70685 0.30293 0.0
H2687 H 0.16545 0.71159 0.28887 0.0
H2688 H 0.16638 0.71782 0.30568 0.0
H2689 H 0.25204 0.75324 0.30943 0.0
H2690 H 0.23347 0.77917 0.33408 0.0
H2691 H 0.21026 0.77141 0.32919 0.0
H2692 H 0.23356 0.72591 0.32382 0.0
H2693 H 0.24377 0.72766 0.30619 0.0
H2694 H 0.22664 0.71951 0.30933 0.0
H2695 H 0.23202 0.76416 0.28003 0.0
H2696 H 0.22617 0.75018 0.27392 0.0
H2697 H 0.24339 0.74903 0.2825 0.0
H2698 H 0.22813 0.71338 0.26475 0.0
C2699 C 0.21794 0.72375 0.27892 0.0
C2700 C 0.37222 0.96884 0.25224 0.0
C2701 C 0.37513 0.95372 0.25883 0.0
C2702 C 0.38794 0.94904 0.25446 0.0
C2703 C 0.39472 0.97434 0.2388 0.0
C2704 C 0.3822 0.97885 0.2429 0.0
C2705 C 0.38283 0.99472 0.24072 0.0
H2706 H 0.41496 0.0596 0.21843 0.0
C2707 C 0.40324 0.9878 0.23056 0.0
C2708 C 0.39519 1.00015 0.22959 0.0
H2709 H 0.37102 0.05561 0.21194 0.0
H2710 H 0.37435 0.03005 0.21555 0.0
H2711 H 0.42721 0.02645 0.2436 0.0
H2712 H 0.41588 0.04753 0.19304 0.0
H2713 H 0.4266 0.03309 0.19329 0.0
H2714 H 0.43357 0.04742 0.19937 0.0
H2715 H 0.43503 0.04258 0.22887 0.0
H2716 H 0.44077 0.02469 0.23079 0.0
C2717 C 0.38706 0.9949 0.25743 0.0
C2718 C 0.36897 1.00265 0.23426 0.0
C2719 C 0.45362 0.98401 0.21518 0.0
C2720 C 0.46324 0.99494 0.20624 0.0
C2721 C 0.45983 0.00974 0.20297 0.0
C2722 C 0.44751 0.01355 0.20859 0.0
C2723 C 0.43788 1.00268 0.2167 0.0
C2724 C 0.44086 0.98818 0.21981 0.0
C2725 C 0.42861 0.9784 0.22723 0.0
C2726 C 0.41753 0.98972 0.22632 0.0
C2727 C 0.42338 1.00378 0.22111 0.0
C2728 C 0.43237 0.96888 0.24517 0.0
C2729 C 0.42499 0.96954 0.21649 0.0
C2730 C 0.4058 0.05289 0.21956 0.0
C2731 C 0.39257 0.05941 0.21655 0.0
C2732 C 0.38115 0.05067 0.21566 0.0
C2733 C 0.38285 0.03564 0.21859 0.0
C2734 C 0.39597 0.02901 0.22304 0.0
C2735 C 0.4073 0.03803 0.22182 0.0
C2736 C 0.42036 0.03138 0.21829 0.0
C2737 C 0.41543 0.01604 0.22059 0.0
C2738 C 0.4012 0.01448 0.2239 0.0
C2739 C 0.43152 0.03127 0.231 0.0
C2740 C 0.42443 0.04029 0.20016 0.0
H2741 H 0.40738 0.95492 0.24221 0.0
H2742 H 0.36268 0.97299 0.25521 0.0
H2743 H 0.36802 1.00547 0.22086 0.0
H2744 H 0.36803 0.01254 0.23725 0.0
H2745 H 0.3598 0.996 0.24014 0.0
H2746 H 0.39677 0.98847 0.26209 0.0
H2747 H 0.37891 0.98951 0.2664 0.0
H2748 H 0.38938 1.00616 0.25663 0.0
H2749 H 0.45571 0.97249 0.21831 0.0
H2750 H 0.4664 0.01867 0.1957 0.0
H2751 H 0.44595 0.0249 0.20612 0.0
H2752 H 0.43799 0.97547 0.2511 0.0
H2753 H 0.43924 0.9596 0.24575 0.0
H2754 H 0.42315 0.96451 0.25288 0.0
H2755 H 0.42647 0.97633 0.20331 0.0
H2756 H 0.41401 0.96608 0.21753 0.0
H2757 H 0.43177 0.95972 0.21955 0.0
H2758 H 0.39087 0.9376 0.25935 0.0
C2759 C 0.39766 0.95921 0.24447 0.0
C2760 C 0.36257 0.05974 0.71042 0.0
C2761 C 0.37458 0.06606 0.71435 0.0
C2762 C 0.38141 0.0774 0.70179 0.0
C2763 C 0.36438 0.07641 0.682 0.0
C2764 C 0.35778 0.06494 0.69406 0.0
C2765 C 0.34531 0.05964 0.68727 0.0
H2766 H 0.30603 0.06713 0.61981 0.0
C2767 C 0.35675 0.0798 0.66648 0.0
C2768 C 0.34564 0.06983 0.66927 0.0
H2769 H 0.29711 0.03864 0.66968 0.0
H2770 H 0.31872 0.04614 0.67859 0.0
H2771 H 0.3106 0.09316 0.63024 0.0
H2772 H 0.33864 0.06432 0.61899 0.0
H2773 H 0.346 0.08189 0.61035 0.0
H2774 H 0.32904 0.07854 0.60361 0.0
H2775 H 0.31434 0.09512 0.60961 0.0
H2776 H 0.32452 0.10424 0.62017 0.0
C2777 C 0.33213 0.06195 0.69602 0.0
C2778 C 0.34782 0.04352 0.68946 0.0
C2779 C 0.36954 0.12546 0.61714 0.0
C2780 C 0.36417 0.13164 0.60105 0.0
C2781 C 0.35411 0.12364 0.59618 0.0
C2782 C 0.34901 0.11028 0.60717 0.0
C2783 C 0.354 0.10463 0.62333 0.0
C2784 C 0.3644 0.11195 0.62795 0.0
C2785 C 0.36891 0.10378 0.64542 0.0
C2786 C 0.35873 0.09101 0.6508 0.0
C2787 C 0.3501 0.09159 0.63779 0.0
C2788 C 0.36687 0.11403 0.65498 0.0
C2789 C 0.38411 0.0985 0.64516 0.0
C2790 C 0.3084 0.06253 0.63275 0.0
C2791 C 0.2994 0.05249 0.64397 0.0
C2792 C 0.30365 0.04645 0.66059 0.0
C2793 C 0.31614 0.05099 0.66582 0.0
C2794 C 0.32431 0.06201 0.65446 0.0
C2795 C 0.32024 0.06751 0.63824 0.0
C2796 C 0.32885 0.08025 0.6279 0.0
C2797 C 0.33921 0.08127 0.64032 0.0
C2798 C 0.33675 0.07052 0.65596 0.0
C2799 C 0.31918 0.09393 0.62148 0.0
C2800 C 0.33597 0.07619 0.61439 0.0
H2801 H 0.38202 0.0914 0.67696 0.0
H2802 H 0.3571 0.05099 0.7198 0.0
H2803 H 0.35838 0.04216 0.68506 0.0
H2804 H 0.34039 0.03966 0.6824 0.0
H2805 H 0.34707 0.03622 0.70256 0.0
H2806 H 0.33251 0.07272 0.69742 0.0
H2807 H 0.3312 0.05327 0.70842 0.0
H2808 H 0.32252 0.06217 0.68909 0.0
H2809 H 0.37732 0.13113 0.62143 0.0
H2810 H 0.3501 0.12769 0.5838 0.0
H2811 H 0.34122 0.10495 0.60265 0.0
H2812 H 0.35708 0.12046 0.65113 0.0
H2813 H 0.37561 0.12192 0.65271 0.0
H2814 H 0.36581 0.10811 0.66829 0.0
H2815 H 0.38639 0.09681 0.63361 0.0
H2816 H 0.38619 0.0877 0.65491 0.0
H2817 H 0.39171 0.10661 0.64617 0.0
H2818 H 0.3905 0.08262 0.70446 0.0
C2819 C 0.37641 0.08257 0.68576 0.0
C2820 C 0.11414 0.10083 0.90615 0.0
C2821 C 0.11384 0.09177 0.89692 0.0
C2822 C 0.10519 0.09583 0.88299 0.0
C2823 C 0.09849 0.11818 0.88654 0.0
C2824 C 0.10636 0.114 0.90072 0.0
C2825 C 0.10585 0.12546 0.90834 0.0
H2826 H 0.08189 0.19201 0.90456 0.0
C2827 C 0.09237 0.13277 0.88349 0.0
C2828 C 0.09646 0.13711 0.89634 0.0
H2829 H 0.11034 0.16291 0.94021 0.0
H2830 H 0.10835 0.14538 0.92726 0.0
H2831 H 0.09736 0.1885 0.87435 0.0
H2832 H 0.06107 0.1679 0.9018 0.0
H2833 H 0.05743 0.17131 0.88115 0.0
H2834 H 0.0609 0.18649 0.88741 0.0
H2835 H 0.08113 0.19799 0.8727 0.0
H2836 H 0.08492 0.18756 0.8602 0.0
C2837 C 0.1208 0.13117 0.90866 0.0
C2838 C 0.09911 0.1185 0.92542 0.0
C2839 C 0.06644 0.15965 0.82988 0.0
C2840 C 0.05957 0.17336 0.82344 0.0
C2841 C 0.05832 0.18151 0.83364 0.0
C2842 C 0.06434 0.17665 0.84928 0.0
C2843 C 0.07166 0.16333 0.85515 0.0
C2844 C 0.07223 0.15484 0.84573 0.0
C2845 C 0.07966 0.14052 0.85454 0.0
C2846 C 0.08416 0.14228 0.8703 0.0
C2847 C 0.07949 0.1557 0.87054 0.0
C2848 C 0.09226 0.13965 0.844 0.0
C2849 C 0.06894 0.12797 0.85788 0.0
C2850 C 0.08793 0.18203 0.90958 0.0
C2851 C 0.09629 0.17912 0.92362 0.0
C2852 C 0.10357 0.16559 0.92967 0.0
C2853 C 0.10257 0.15539 0.92198 0.0
C2854 C 0.09443 0.15872 0.90778 0.0
C2855 C 0.08733 0.1719 0.90182 0.0
C2856 C 0.07974 0.17407 0.88616 0.0
C2857 C 0.08335 0.16002 0.88367 0.0
C2858 C 0.09189 0.15091 0.89645 0.0
C2859 C 0.08595 0.18777 0.87258 0.0
C2860 C 0.06395 0.17512 0.88912 0.0
H2861 H 0.0915 0.11138 0.86687 0.0
H2862 H 0.12067 0.09805 0.91691 0.0
H2863 H 0.08974 0.11207 0.92484 0.0
H2864 H 0.09545 0.12671 0.93027 0.0
H2865 H 0.10649 0.11094 0.93434 0.0
H2866 H 0.12657 0.13197 0.89742 0.0
H2867 H 0.12672 0.1237 0.91937 0.0
H2868 H 0.12103 0.14234 0.90878 0.0
H2869 H 0.06757 0.15289 0.8227 0.0
H2870 H 0.0526 0.19172 0.82962 0.0
H2871 H 0.06312 0.18353 0.85618 0.0
H2872 H 0.09738 0.15052 0.83843 0.0
H2873 H 0.08895 0.1362 0.8339 0.0
H2874 H 0.10053 0.13218 0.8511 0.0
H2875 H 0.05824 0.1317 0.85925 0.0
H2876 H 0.07092 0.11868 0.86954 0.0
H2877 H 0.06868 0.12388 0.84771 0.0
H2878 H 0.1045 0.08896 0.87586 0.0
C2879 C 0.09757 0.10888 0.87779 0.0
C2880 C 0.82067 0.48922 0.74002 0.0
C2881 C 0.82493 0.47426 0.74588 0.0
C2882 C 0.83869 0.47115 0.74252 0.0
C2883 C 0.84353 0.49678 0.72767 0.0
C2884 C 0.83026 0.50037 0.73109 0.0
C2885 C 0.82836 0.51697 0.72392 0.0
H2886 H 0.85937 0.58402 0.68962 0.0
C2887 C 0.85121 0.51034 0.71847 0.0
C2888 C 0.84319 0.52224 0.71847 0.0
H2889 H 0.83954 0.56947 0.73678 0.0
H2890 H 0.83838 0.54499 0.7369 0.0
H2891 H 0.87838 0.55958 0.70694 0.0
H2892 H 0.84679 0.56321 0.67114 0.0
H2893 H 0.86036 0.55313 0.66698 0.0
H2894 H 0.86353 0.57166 0.66565 0.0
H2895 H 0.88034 0.57068 0.68565 0.0
H2896 H 0.88551 0.55181 0.69391 0.0
C2897 C 0.82252 0.52283 0.7363 0.0
C2898 C 0.81865 0.5212 0.70892 0.0
C2899 C 0.89669 0.50882 0.68936 0.0
C2900 C 0.90423 0.51985 0.67713 0.0
C2901 C 0.89828 0.53395 0.66996 0.0
C2902 C 0.88581 0.53736 0.67579 0.0
C2903 C 0.87913 0.5266 0.6889 0.0
C2904 C 0.88401 0.51241 0.69479 0.0
C2905 C 0.87424 0.50215 0.70718 0.0
C2906 C 0.86337 0.51286 0.70863 0.0
C2907 C 0.86669 0.52719 0.69824 0.0
C2908 C 0.88222 0.49454 0.72346 0.0
C2909 C 0.86823 0.49154 0.69958 0.0
C2910 C 0.85333 0.57621 0.69928 0.0
C2911 C 0.84805 0.57971 0.71227 0.0
C2912 C 0.84245 0.56799 0.72576 0.0
C2913 C 0.8412 0.55374 0.7257 0.0
C2914 C 0.84529 0.55096 0.7119 0.0
C2915 C 0.85253 0.56182 0.69979 0.0
C2916 C 0.86241 0.55548 0.691 0.0
C2917 C 0.85947 0.53924 0.69948 0.0
C2918 C 0.84847 0.53675 0.71052 0.0
C2919 C 0.87745 0.55958 0.69434 0.0
C2920 C 0.8582 0.56119 0.6727 0.0
H2921 H 0.85823 0.4789 0.732 0.0
H2922 H 0.8103 0.49213 0.74253 0.0
H2923 H 0.8179 0.53331 0.7028 0.0
H2924 H 0.80802 0.51679 0.71265 0.0
H2925 H 0.82262 0.51677 0.69984 0.0
H2926 H 0.83014 0.52131 0.74626 0.0
H2927 H 0.81256 0.5174 0.74146 0.0
H2928 H 0.82015 0.53459 0.72993 0.0
H2929 H 0.90069 0.49777 0.695 0.0
H2930 H 0.90337 0.5425 0.65998 0.0
H2931 H 0.88208 0.54839 0.67022 0.0
H2932 H 0.89016 0.502 0.72531 0.0
H2933 H 0.88768 0.48454 0.72359 0.0
H2934 H 0.8754 0.49163 0.7343 0.0
H2935 H 0.8653 0.4976 0.68656 0.0
H2936 H 0.85867 0.48595 0.70555 0.0
H2937 H 0.87605 0.48311 0.69992 0.0
H2938 H 0.84266 0.46004 0.74729 0.0
C2939 C 0.84789 0.48218 0.73367 0.0
C2940 C 0.89928 0.53281 0.23964 0.0
C2941 C 0.91155 0.53983 0.2419 0.0
C2942 C 0.91711 0.55139 0.22853 0.0
C2943 C 0.89776 0.55023 0.2115 0.0
C2944 C 0.89257 0.53818 0.22414 0.0
C2945 C 0.87901 0.533 0.2191 0.0
H2946 H 0.83076 0.54557 0.15711 0.0
C2947 C 0.88814 0.5542 0.19747 0.0
C2948 C 0.87709 0.54399 0.20149 0.0
H2949 H 0.82627 0.51362 0.20615 0.0
H2950 H 0.8497 0.51973 0.21294 0.0
H2951 H 0.83838 0.56923 0.16899 0.0
H2952 H 0.86204 0.54162 0.15107 0.0
H2953 H 0.87072 0.55849 0.1434 0.0
H2954 H 0.85276 0.55743 0.13781 0.0
H2955 H 0.83989 0.5727 0.14761 0.0
H2956 H 0.85172 0.5806 0.15792 0.0
C2957 C 0.86732 0.53421 0.23049 0.0
C2958 C 0.881 0.51727 0.21972 0.0
C2959 C 0.89471 0.60282 0.14936 0.0
C2960 C 0.88751 0.60934 0.13434 0.0
C2961 C 0.87752 0.60088 0.13009 0.0
C2962 C 0.87393 0.5869 0.14092 0.0
C2963 C 0.8805 0.58096 0.15624 0.0
C2964 C 0.89115 0.58856 0.15996 0.0
C2965 C 0.8978 0.57968 0.17619 0.0
C2966 C 0.88836 0.56623 0.1822 0.0
C2967 C 0.87825 0.56722 0.17048 0.0
C2968 C 0.897 0.58871 0.18728 0.0
C2969 C 0.91282 0.5757 0.17277 0.0
C2970 C 0.83456 0.53985 0.16945 0.0
C2971 C 0.8263 0.52943 0.18114 0.0
C2972 C 0.83223 0.52192 0.19684 0.0
C2973 C 0.84572 0.52565 0.20085 0.0
C2974 C 0.8532 0.53722 0.18919 0.0
C2975 C 0.8474 0.5439 0.17379 0.0
C2976 C 0.85544 0.55679 0.16301 0.0
C2977 C 0.86736 0.55685 0.17409 0.0
C2978 C 0.86641 0.54532 0.18954 0.0
C2979 C 0.84596 0.57058 0.159 0.0
C2980 C 0.86046 0.55357 0.14795 0.0
H2981 H 0.91497 0.56576 0.20407 0.0
H2982 H 0.89479 0.52387 0.24976 0.0
H2983 H 0.89018 0.51667 0.21232 0.0
H2984 H 0.87188 0.51348 0.21475 0.0
H2985 H 0.88275 0.50952 0.23251 0.0
H2986 H 0.86755 0.54513 0.2315 0.0
H2987 H 0.86858 0.5257 0.24296 0.0
H2988 H 0.8569 0.53304 0.2259 0.0
H2989 H 0.90265 0.60873 0.15306 0.0
H2990 H 0.87228 0.60508 0.11836 0.0
H2991 H 0.86591 0.5814 0.137 0.0
H2992 H 0.88659 0.59396 0.18623 0.0
H2993 H 0.90494 0.59753 0.18371 0.0
H2994 H 0.89834 0.58204 0.20039 0.0
H2995 H 0.91408 0.57645 0.15993 0.0
H2996 H 0.91559 0.5642 0.18028 0.0
H2997 H 0.92062 0.58314 0.17486 0.0
H2998 H 0.92653 0.55686 0.22996 0.0
C2999 C 0.91034 0.55659 0.21346 0.0
C3000 C 0.62987 0.59551 0.41192 0.0
C3001 C 0.62947 0.5879 0.40106 0.0
C3002 C 0.61883 0.59135 0.38923 0.0
C3003 C 0.61029 0.61068 0.39753 0.0
C3004 C 0.62011 0.60692 0.40991 0.0
C3005 C 0.61895 0.61681 0.41964 0.0
H3006 H 0.59029 0.6791 0.42503 0.0
C3007 C 0.60259 0.62378 0.39735 0.0
C3008 C 0.60749 0.62757 0.41032 0.0
H3009 H 0.61973 0.64995 0.45853 0.0
H3010 H 0.61933 0.63402 0.44296 0.0
H3011 H 0.60345 0.67982 0.39366 0.0
H3012 H 0.5704 0.65258 0.42162 0.0
H3013 H 0.56546 0.6595 0.40084 0.0
H3014 H 0.56896 0.67205 0.41091 0.0
H3015 H 0.58582 0.68623 0.39158 0.0
H3016 H 0.59268 0.6766 0.37931 0.0
C3017 C 0.63303 0.62454 0.4189 0.0
C3018 C 0.61438 0.60732 0.43718 0.0
C3019 C 0.56947 0.64883 0.34979 0.0
C3020 C 0.56234 0.66237 0.34434 0.0
C3021 C 0.56312 0.67088 0.35422 0.0
C3022 C 0.57063 0.66606 0.36896 0.0
C3023 C 0.57793 0.65275 0.37392 0.0
C3024 C 0.57729 0.64441 0.36435 0.0
C3025 C 0.58643 0.63105 0.37094 0.0
C3026 C 0.59265 0.63275 0.38604 0.0
C3027 C 0.58754 0.6454 0.38782 0.0
C3028 C 0.59762 0.63226 0.35778 0.0
C3029 C 0.57699 0.61732 0.37559 0.0
C3030 C 0.59663 0.66928 0.42901 0.0
C3031 C 0.60515 0.66585 0.44289 0.0
C3032 C 0.61317 0.65287 0.44777 0.0
C3033 C 0.61291 0.64364 0.43873 0.0
C3034 C 0.60448 0.64736 0.42464 0.0
C3035 C 0.59638 0.65993 0.42022 0.0
C3036 C 0.58793 0.66232 0.40509 0.0
C3037 C 0.59217 0.64919 0.40107 0.0
C3038 C 0.60198 0.64033 0.41244 0.0
C3039 C 0.59256 0.67702 0.39168 0.0
C3040 C 0.57234 0.66169 0.40971 0.0
H3041 H 0.6017 0.60466 0.37795 0.0
H3042 H 0.63785 0.59303 0.42126 0.0
H3043 H 0.60575 0.59988 0.43692 0.0
H3044 H 0.61035 0.6139 0.44396 0.0
H3045 H 0.62315 0.60044 0.4442 0.0
H3046 H 0.63689 0.6292 0.40609 0.0
H3047 H 0.64098 0.61671 0.42648 0.0
H3048 H 0.63232 0.63378 0.42305 0.0
H3049 H 0.56914 0.64175 0.34291 0.0
H3050 H 0.55822 0.68152 0.35049 0.0
H3051 H 0.57066 0.67309 0.37578 0.0
H3052 H 0.60016 0.64391 0.35045 0.0
H3053 H 0.59396 0.62721 0.34914 0.0
H3054 H 0.60771 0.62736 0.36304 0.0
H3055 H 0.56667 0.6194 0.38002 0.0
H3056 H 0.58124 0.60781 0.38582 0.0
H3057 H 0.57513 0.61414 0.36491 0.0
H3058 H 0.61808 0.58553 0.38096 0.0
C3059 C 0.60929 0.60254 0.38747 0.0
C3060 C 0.89919 0.47998 0.27571 0.0
C3061 C 0.91159 0.47301 0.27367 0.0
C3062 C 0.91752 0.46201 0.28737 0.0
C3063 C 0.89809 0.46321 0.30416 0.0
C3064 C 0.89262 0.47491 0.29126 0.0
C3065 C 0.87909 0.48019 0.29624 0.0
H3066 H 0.82873 0.4658 0.35615 0.0
C3067 C 0.88845 0.45924 0.31811 0.0
C3068 C 0.87722 0.46927 0.31389 0.0
H3069 H 0.82706 0.5009 0.30888 0.0
H3070 H 0.85042 0.49422 0.30256 0.0
H3071 H 0.83766 0.4432 0.34459 0.0
H3072 H 0.86067 0.47009 0.36406 0.0
H3073 H 0.86875 0.45288 0.37229 0.0
H3074 H 0.85056 0.45462 0.37642 0.0
H3075 H 0.83951 0.43853 0.36618 0.0
H3076 H 0.85145 0.43188 0.35474 0.0
C3077 C 0.86732 0.47907 0.28487 0.0
C3078 C 0.88124 0.49593 0.29553 0.0
C3079 C 0.89575 0.41071 0.36626 0.0
C3080 C 0.88786 0.40364 0.3805 0.0
C3081 C 0.87676 0.41123 0.38416 0.0
C3082 C 0.87305 0.42524 0.37349 0.0
C3083 C 0.88037 0.43184 0.35879 0.0
C3084 C 0.89179 0.42484 0.35558 0.0
C3085 C 0.8985 0.43394 0.33954 0.0
C3086 C 0.88863 0.4471 0.3333 0.0
C3087 C 0.87807 0.44565 0.34462 0.0
C3088 C 0.89834 0.42487 0.32845 0.0
C3089 C 0.91325 0.43834 0.34329 0.0
C3090 C 0.83336 0.4722 0.34445 0.0
C3091 C 0.82596 0.48374 0.33301 0.0
C3092 C 0.83252 0.49186 0.31795 0.0
C3093 C 0.84598 0.48787 0.31424 0.0
C3094 C 0.85289 0.47561 0.32567 0.0
C3095 C 0.84648 0.46832 0.34057 0.0
C3096 C 0.85452 0.45537 0.35139 0.0
C3097 C 0.86694 0.45581 0.34079 0.0
C3098 C 0.86626 0.46765 0.32556 0.0
C3099 C 0.8454 0.44149 0.35455 0.0
C3100 C 0.85881 0.45823 0.36694 0.0
H3101 H 0.91583 0.44836 0.31213 0.0
H3102 H 0.89449 0.48862 0.26539 0.0
H3103 H 0.89065 0.4965 0.30265 0.0
H3104 H 0.87237 0.49977 0.30081 0.0
H3105 H 0.8827 0.50365 0.2827 0.0
H3106 H 0.86729 0.46802 0.28416 0.0
H3107 H 0.8687 0.48735 0.2723 0.0
H3108 H 0.85695 0.48069 0.28927 0.0
H3109 H 0.90444 0.40519 0.36322 0.0
H3110 H 0.87075 0.40617 0.39524 0.0
H3111 H 0.86431 0.43017 0.37698 0.0
H3112 H 0.8881 0.41939 0.32922 0.0
H3113 H 0.90649 0.41622 0.33229 0.0
H3114 H 0.89981 0.43152 0.31538 0.0
H3115 H 0.91427 0.43747 0.3562 0.0
H3116 H 0.91568 0.44996 0.33593 0.0
H3117 H 0.92141 0.43123 0.3412 0.0
H3118 H 0.92714 0.45671 0.2862 0.0
C3119 C 0.9109 0.45713 0.30248 0.0
C3120 C 0.68061 0.81337 0.75468 0.0
C3121 C 0.6935 0.81767 0.75925 0.0
C3122 C 0.70573 0.81571 0.75159 0.0
C3123 C 0.69276 0.80386 0.73659 0.0
C3124 C 0.68051 0.80648 0.7432 0.0
C3125 C 0.66808 0.80075 0.73679 0.0
H3126 H 0.64439 0.75753 0.69728 0.0
C3127 C 0.68959 0.79557 0.72616 0.0
C3128 C 0.67516 0.79369 0.72598 0.0
H3129 H 0.62022 0.78145 0.72057 0.0
H3130 H 0.64108 0.79235 0.72589 0.0
H3131 H 0.66555 0.78723 0.67745 0.0
H3132 H 0.66948 0.74847 0.72158 0.0
H3133 H 0.68513 0.75134 0.71051 0.0
H3134 H 0.66948 0.74749 0.70163 0.0
H3135 H 0.66645 0.76913 0.67704 0.0
H3136 H 0.68197 0.77904 0.67802 0.0
C3137 C 0.65895 0.814 0.72662 0.0
C3138 C 0.66047 0.78939 0.75153 0.0
C3139 C 0.73042 0.77573 0.70491 0.0
C3140 C 0.7317 0.76657 0.69612 0.0
C3141 C 0.71963 0.76211 0.69017 0.0
C3142 C 0.70633 0.76646 0.69344 0.0
C3143 C 0.70518 0.77523 0.70289 0.0
C3144 C 0.71719 0.7799 0.70812 0.0
C3145 C 0.71432 0.78907 0.71796 0.0
C3146 C 0.69857 0.78907 0.71809 0.0
C3147 C 0.69314 0.7809 0.70939 0.0
C3148 C 0.72028 0.80463 0.70847 0.0
C3149 C 0.72053 0.78099 0.73536 0.0
C3150 C 0.64349 0.7653 0.70326 0.0
C3151 C 0.63051 0.76812 0.70897 0.0
C3152 C 0.63003 0.77847 0.71661 0.0
C3153 C 0.64218 0.78494 0.71962 0.0
C3154 C 0.65509 0.7813 0.71474 0.0
C3155 C 0.65556 0.77209 0.70613 0.0
C3156 C 0.67023 0.76998 0.70133 0.0
C3157 C 0.67846 0.77896 0.70901 0.0
C3158 C 0.66951 0.78551 0.71701 0.0
C3159 C 0.67118 0.77658 0.68246 0.0
C3160 C 0.67385 0.75347 0.70903 0.0
H3161 H 0.71526 0.80733 0.73563 0.0
H3162 H 0.671 0.81489 0.76025 0.0
H3163 H 0.66809 0.78183 0.7601 0.0
H3164 H 0.65329 0.78235 0.748 0.0
H3165 H 0.6545 0.79489 0.75841 0.0
H3166 H 0.6655 0.8237 0.71992 0.0
H3167 H 0.65175 0.81716 0.7346 0.0
H3168 H 0.65289 0.81199 0.71701 0.0
H3169 H 0.73956 0.77923 0.70969 0.0
H3170 H 0.72048 0.75493 0.68341 0.0
H3171 H 0.69747 0.76257 0.68884 0.0
H3172 H 0.72087 0.80709 0.69509 0.0
H3173 H 0.73094 0.80578 0.71271 0.0
H3174 H 0.71357 0.81344 0.70942 0.0
H3175 H 0.72015 0.76889 0.7389 0.0
H3176 H 0.71467 0.78295 0.74511 0.0
H3177 H 0.73158 0.78405 0.73594 0.0
H3178 H 0.7157 0.81928 0.7545 0.0
C3179 C 0.70543 0.80882 0.74044 0.0
C3180 C 0.93793 0.73295 0.80826 0.0
C3181 C 0.9381 0.72741 0.79577 0.0
C3182 C 0.94902 0.7182 0.795 0.0
C3183 C 0.958 0.71803 0.82071 0.0
C3184 C 0.94805 0.72818 0.82065 0.0
C3185 C 0.94907 0.73203 0.83566 0.0
H3186 H 0.97042 0.7122 0.91403 0.0
C3187 C 0.96517 0.71305 0.83665 0.0
C3188 C 0.96003 0.72116 0.84554 0.0
H3189 H 0.94089 0.74611 0.88723 0.0
H3190 H 0.9463 0.74215 0.86269 0.0
H3191 H 0.95836 0.6901 0.90068 0.0
H3192 H 0.99443 0.71772 0.88352 0.0
H3193 H 0.99849 0.69934 0.88644 0.0
H3194 H 0.99323 0.70375 0.90366 0.0
H3195 H 0.97458 0.68597 0.9116 0.0
H3196 H 0.97091 0.68005 0.89494 0.0
C3197 C 0.93475 0.72977 0.84448 0.0
C3198 C 0.9547 0.7478 0.83008 0.0
C3199 C 0.99293 0.66622 0.85275 0.0
C3200 C 0.99821 0.65654 0.86769 0.0
C3201 C 0.99812 0.6607 0.88136 0.0
C3202 C 0.99254 0.67432 0.88015 0.0
C3203 C 0.98653 0.68355 0.86528 0.0
C3204 C 0.98701 0.67947 0.85188 0.0
C3205 C 0.97931 0.68986 0.83742 0.0
C3206 C 0.97406 0.70092 0.84426 0.0
C3207 C 0.97827 0.69729 0.86058 0.0
C3208 C 0.96725 0.68124 0.83328 0.0
C3209 C 0.9899 0.69683 0.8234 0.0
C3210 C 0.96497 0.71881 0.90299 0.0
C3211 C 0.955 0.72941 0.90302 0.0
C3212 C 0.94868 0.73795 0.88794 0.0
C3213 C 0.95166 0.73551 0.87357 0.0
C3214 C 0.9608 0.72419 0.87416 0.0
C3215 C 0.96747 0.71619 0.88863 0.0
C3216 C 0.97594 0.70377 0.88725 0.0
C3217 C 0.97346 0.70584 0.86949 0.0
C3218 C 0.96454 0.71783 0.86191 0.0
C3219 C 0.96978 0.68916 0.89927 0.0
C3220 C 0.99138 0.70615 0.89047 0.0
H3221 H 0.96673 0.70598 0.80651 0.0
H3222 H 0.92948 0.7399 0.8089 0.0
H3223 H 0.96412 0.74912 0.82234 0.0
H3224 H 0.95786 0.75088 0.84041 0.0
H3225 H 0.94676 0.75563 0.82265 0.0
H3226 H 0.92682 0.72498 0.83878 0.0
H3227 H 0.93043 0.74025 0.84441 0.0
H3228 H 0.93548 0.72206 0.8574 0.0
H3229 H 0.99263 0.66315 0.84215 0.0
H3230 H 1.0022 0.65333 0.893 0.0
H3231 H 0.99275 0.67696 0.89091 0.0
H3232 H 0.96373 0.67193 0.84434 0.0
H3233 H 0.97054 0.67664 0.82411 0.0
H3234 H 0.95773 0.68782 0.82887 0.0
H3235 H 1.00035 0.69788 0.82831 0.0
H3236 H 0.98704 0.70815 0.8154 0.0
H3237 H 0.99113 0.69006 0.81583 0.0
H3238 H 0.94924 0.71384 0.78538 0.0
C3239 C 0.95907 0.71358 0.80734 0.0
C3240 C 0.10935 0.16072 0.53943 0.0
C3241 C 0.11979 0.15574 0.53163 0.0
C3242 C 0.12502 0.16539 0.51652 0.0
C3243 C 0.11072 0.18515 0.51829 0.0
C3244 C 0.10487 0.17534 0.53245 0.0
C3245 C 0.09387 0.18235 0.53921 0.0
H3246 H 0.06792 0.24237 0.54773 0.0
C3247 C 0.10489 0.19991 0.51543 0.0
C3248 C 0.09495 0.19829 0.52762 0.0
H3249 H 0.05665 0.1969 0.57297 0.0
H3250 H 0.07043 0.19008 0.55445 0.0
H3251 H 0.09952 0.23883 0.54113 0.0
H3252 H 0.06592 0.23865 0.50833 0.0
H3253 H 0.07937 0.25075 0.49787 0.0
H3254 H 0.06962 0.25437 0.51338 0.0
H3255 H 0.08954 0.25507 0.53037 0.0
H3256 H 0.10385 0.24962 0.52075 0.0
C3257 C 0.09806 0.1801 0.557 0.0
C3258 C 0.0796 0.1756 0.53758 0.0
C3259 C 0.1269 0.2446 0.47198 0.0
C3260 C 0.12584 0.25979 0.4682 0.0
C3261 C 0.11585 0.2648 0.47668 0.0
C3262 C 0.10732 0.25493 0.48885 0.0
C3263 C 0.10889 0.23976 0.49292 0.0
C3264 C 0.11849 0.23487 0.48437 0.0
C3265 C 0.11932 0.21842 0.49074 0.0
C3266 C 0.1086 0.21419 0.50438 0.0
C3267 C 0.10238 0.22671 0.5057 0.0
C3268 C 0.1343 0.21388 0.49728 0.0
C3269 C 0.1149 0.21329 0.47685 0.0
C3270 C 0.06831 0.23099 0.54904 0.0
C3271 C 0.06161 0.22006 0.5624 0.0
C3272 C 0.06208 0.20547 0.56331 0.0
C3273 C 0.07009 0.20148 0.55245 0.0
C3274 C 0.07782 0.21213 0.5403 0.0
C3275 C 0.07626 0.22674 0.53797 0.0
C3276 C 0.0847 0.23636 0.52332 0.0
C3277 C 0.09221 0.22498 0.5182 0.0
C3278 C 0.0882 0.21082 0.52856 0.0
C3279 C 0.09493 0.24557 0.52906 0.0
C3280 C 0.07443 0.24564 0.50996 0.0
H3281 H 0.12517 0.18697 0.49848 0.0
H3282 H 0.10487 0.15339 0.5508 0.0
H3283 H 0.07983 0.17059 0.52816 0.0
H3284 H 0.07124 0.18397 0.53339 0.0
H3285 H 0.07644 0.16689 0.5493 0.0
H3286 H 0.1094 0.18202 0.55777 0.0
H3287 H 0.09578 0.16874 0.56549 0.0
H3288 H 0.0929 0.18771 0.5617 0.0
H3289 H 0.13455 0.24032 0.4659 0.0
H3290 H 0.11465 0.27643 0.47392 0.0
H3291 H 0.09999 0.25947 0.49483 0.0
H3292 H 0.13853 0.22141 0.50293 0.0
H3293 H 0.14144 0.21421 0.48725 0.0
H3294 H 0.13489 0.20295 0.50709 0.0
H3295 H 0.10609 0.22002 0.4697 0.0
H3296 H 0.11106 0.20189 0.48146 0.0
H3297 H 0.12363 0.21432 0.46823 0.0
H3298 H 0.13291 0.16169 0.51018 0.0
C3299 C 0.12056 0.18006 0.50982 0.0
C3300 C 0.6292 0.36481 0.44259 0.0
C3301 C 0.64018 0.36879 0.45065 0.0
C3302 C 0.64441 0.35883 0.46617 0.0
C3303 C 0.62765 0.3409 0.4647 0.0
C3304 C 0.62302 0.35097 0.4499 0.0
C3305 C 0.61104 0.34521 0.44311 0.0
H3306 H 0.57347 0.28809 0.44128 0.0
C3307 C 0.61964 0.32715 0.46829 0.0
C3308 C 0.6098 0.3297 0.45571 0.0
H3309 H 0.57071 0.33382 0.40965 0.0
H3310 H 0.58687 0.34015 0.4266 0.0
H3311 H 0.60469 0.28597 0.44669 0.0
H3312 H 0.57419 0.29595 0.47681 0.0
H3313 H 0.58606 0.283 0.48952 0.0
H3314 H 0.57558 0.27834 0.4752 0.0
H3315 H 0.59413 0.27197 0.46094 0.0
H3316 H 0.61033 0.2777 0.46703 0.0
C3317 C 0.61538 0.34543 0.42608 0.0
C3318 C 0.59796 0.35455 0.44296 0.0
C3319 C 0.63435 0.28056 0.51542 0.0
C3320 C 0.63048 0.26581 0.51988 0.0
C3321 C 0.61945 0.26227 0.51147 0.0
C3322 C 0.61255 0.27318 0.49857 0.0
C3323 C 0.61687 0.28783 0.49378 0.0
C3324 C 0.62753 0.29134 0.50225 0.0
C3325 C 0.63119 0.30737 0.49486 0.0
C3326 C 0.62104 0.31285 0.48057 0.0
C3327 C 0.61258 0.30135 0.48006 0.0
C3328 C 0.64654 0.30861 0.48917 0.0
C3329 C 0.62819 0.31425 0.5077 0.0
C3330 C 0.57617 0.29948 0.43825 0.0
C3331 C 0.57108 0.31043 0.42378 0.0
C3332 C 0.57476 0.32513 0.42041 0.0
C3333 C 0.58416 0.32882 0.43033 0.0
C3334 C 0.59001 0.31776 0.44395 0.0
C3335 C 0.58559 0.30344 0.44822 0.0
C3336 C 0.59279 0.29339 0.4636 0.0
C3337 C 0.60253 0.30401 0.46734 0.0
C3338 C 0.60093 0.3182 0.45557 0.0
C3339 C 0.60086 0.28154 0.45952 0.0
C3340 C 0.58164 0.2872 0.47705 0.0
H3341 H 0.64202 0.33783 0.48497 0.0
H3342 H 0.62542 0.37238 0.4309 0.0
H3343 H 0.59881 0.35981 0.45212 0.0
H3344 H 0.58839 0.34785 0.44648 0.0
H3345 H 0.59639 0.36341 0.4308 0.0
H3346 H 0.62632 0.34164 0.42635 0.0
H3347 H 0.61465 0.35668 0.41665 0.0
H3348 H 0.60917 0.33804 0.42195 0.0
H3349 H 0.6429 0.28354 0.52158 0.0
H3350 H 0.61625 0.25097 0.51479 0.0
H3351 H 0.60433 0.26974 0.49258 0.0
H3352 H 0.64895 0.30028 0.48381 0.0
H3353 H 0.65378 0.30678 0.4996 0.0
H3354 H 0.64902 0.31919 0.47943 0.0
H3355 H 0.61848 0.30967 0.51454 0.0
H3356 H 0.62641 0.32619 0.50213 0.0
H3357 H 0.63681 0.31198 0.51674 0.0
H3358 H 0.65275 0.36168 0.47272 0.0
C3359 C 0.63822 0.34495 0.47322 0.0
C3360 C 0.45249 0.77608 0.22387 0.0
C3361 C 0.45494 0.78192 0.23598 0.0
C3362 C 0.46845 0.78679 0.23763 0.0
C3363 C 0.47565 0.78357 0.21295 0.0
C3364 C 0.46311 0.77696 0.21253 0.0
C3365 C 0.46248 0.77198 0.19831 0.0
H3366 H 0.48468 0.78091 0.1221 0.0
C3367 C 0.48325 0.78552 0.19772 0.0
C3368 C 0.47555 0.77891 0.18887 0.0
H3369 H 0.45023 0.75495 0.1493 0.0
H3370 H 0.4568 0.7603 0.17284 0.0
H3371 H 0.4808 0.80721 0.13405 0.0
H3372 H 0.50813 0.76975 0.15529 0.0
H3373 H 0.51709 0.78646 0.15122 0.0
H3374 H 0.50992 0.78242 0.13451 0.0
H3375 H 0.49601 0.80482 0.12346 0.0
H3376 H 0.49703 0.81293 0.13868 0.0
C3377 C 0.44882 0.77766 0.18859 0.0
C3378 C 0.46399 0.75522 0.20562 0.0
C3379 C 0.52291 0.82134 0.18315 0.0
C3380 C 0.53059 0.82847 0.16888 0.0
C3381 C 0.52896 0.8238 0.15561 0.0
C3382 C 0.51945 0.81261 0.15647 0.0
C3383 C 0.5113 0.80619 0.17062 0.0
C3384 C 0.51343 0.81045 0.18372 0.0
C3385 C 0.50366 0.80325 0.19756 0.0
C3386 C 0.49501 0.79413 0.19061 0.0
C3387 C 0.49944 0.7957 0.17482 0.0
C3388 C 0.49501 0.8155 0.20037 0.0
C3389 C 0.51236 0.79348 0.21253 0.0
C3390 C 0.47868 0.77619 0.13322 0.0
C3391 C 0.46686 0.76745 0.13371 0.0
C3392 C 0.45944 0.7615 0.14852 0.0
C3393 C 0.46323 0.76464 0.16223 0.0
C3394 C 0.4746 0.77381 0.16136 0.0
C3395 C 0.48244 0.77909 0.14722 0.0
C3396 C 0.49417 0.78877 0.14872 0.0
C3397 C 0.49194 0.78848 0.16598 0.0
C3398 C 0.48027 0.77984 0.17319 0.0
C3399 C 0.49204 0.80426 0.13552 0.0
C3400 C 0.50813 0.78158 0.14728 0.0
H3401 H 0.48854 0.7923 0.22764 0.0
H3402 H 0.44235 0.77185 0.22256 0.0
H3403 H 0.47311 0.75185 0.21402 0.0
H3404 H 0.46582 0.75053 0.19627 0.0
H3405 H 0.45464 0.75034 0.2129 0.0
H3406 H 0.44507 0.78782 0.19001 0.0
H3407 H 0.44041 0.76936 0.19288 0.0
H3408 H 0.45012 0.78085 0.17527 0.0
H3409 H 0.52354 0.82475 0.19347 0.0
H3410 H 0.53487 0.82895 0.14449 0.0
H3411 H 0.51857 0.8096 0.14599 0.0
H3412 H 0.49381 0.82528 0.18885 0.0
H3413 H 0.50008 0.8192 0.20949 0.0
H3414 H 0.48421 0.81229 0.20423 0.0
H3415 H 0.52183 0.78914 0.20862 0.0
H3416 H 0.50666 0.78358 0.22037 0.0
H3417 H 0.51585 0.79972 0.22006 0.0
H3418 H 0.4708 0.79076 0.24728 0.0
C3419 C 0.47878 0.78766 0.22621 0.0
C3420 C 0.93639 0.28016 0.70584 0.0
C3421 C 0.93628 0.28572 0.71837 0.0
C3422 C 0.94732 0.29459 0.71967 0.0
C3423 C 0.95669 0.295 0.69412 0.0
C3424 C 0.94683 0.28492 0.69385 0.0
C3425 C 0.94814 0.2813 0.67876 0.0
H3426 H 0.96979 0.30219 0.60039 0.0
C3427 C 0.964 0.30018 0.67828 0.0
C3428 C 0.95906 0.29225 0.66911 0.0
H3429 H 0.94201 0.26668 0.62701 0.0
H3430 H 0.94675 0.27066 0.65174 0.0
H3431 H 0.95813 0.32417 0.61527 0.0
H3432 H 0.99399 0.29567 0.63174 0.0
H3433 H 0.99816 0.31384 0.6294 0.0
H3434 H 0.99311 0.30995 0.61176 0.0
H3435 H 0.97375 0.32718 0.6033 0.0
H3436 H 0.97189 0.33388 0.61959 0.0
C3437 C 0.93379 0.2836 0.67006 0.0
C3438 C 0.9539 0.26559 0.68442 0.0
C3439 C 0.99109 0.34697 0.66354 0.0
C3440 C 0.99661 0.35686 0.64892 0.0
C3441 C 0.99782 0.35252 0.63541 0.0
C3442 C 0.99253 0.33888 0.63624 0.0
C3443 C 0.9858 0.32969 0.65061 0.0
C3444 C 0.98563 0.33371 0.66406 0.0
C3445 C 0.97773 0.32326 0.67816 0.0
C3446 C 0.97292 0.31228 0.67103 0.0
C3447 C 0.97752 0.316 0.65484 0.0
C3448 C 0.96538 0.33183 0.68183 0.0
C3449 C 0.98805 0.31631 0.69258 0.0
C3450 C 0.96473 0.29521 0.61154 0.0
C3451 C 0.9553 0.28421 0.61147 0.0
C3452 C 0.94935 0.27517 0.62649 0.0
C3453 C 0.95202 0.27759 0.64093 0.0
C3454 C 0.96058 0.2893 0.64047 0.0
C3455 C 0.96714 0.29762 0.62607 0.0
C3456 C 0.97561 0.30986 0.62786 0.0
C3457 C 0.9729 0.30761 0.64564 0.0
C3458 C 0.96394 0.29561 0.65289 0.0
C3459 C 0.96968 0.3246 0.61586 0.0
C3460 C 0.99107 0.30733 0.62496 0.0
H3461 H 0.96522 0.30663 0.70886 0.0
H3462 H 0.92803 0.27322 0.70473 0.0
H3463 H 0.96323 0.26432 0.69233 0.0
H3464 H 0.95729 0.26242 0.67428 0.0
H3465 H 0.94594 0.25788 0.6918 0.0
H3466 H 0.92765 0.29226 0.67229 0.0
H3467 H 0.9276 0.27337 0.67459 0.0
H3468 H 0.93456 0.2875 0.65663 0.0
H3469 H 0.99024 0.3499 0.6742 0.0
H3470 H 1.0022 0.35995 0.62403 0.0
H3471 H 0.9934 0.33624 0.62551 0.0
H3472 H 0.96147 0.34053 0.67043 0.0
H3473 H 0.96857 0.33723 0.69033 0.0
H3474 H 0.95614 0.32504 0.68688 0.0
H3475 H 0.99884 0.31606 0.68813 0.0
H3476 H 0.98562 0.3047 0.69989 0.0
H3477 H 0.98831 0.32258 0.70076 0.0
H3478 H 0.94743 0.29883 0.72939 0.0
C3479 C 0.95759 0.29917 0.70767 0.0
C3480 C 0.45295 0.23789 0.29011 0.0
C3481 C 0.45493 0.232 0.27795 0.0
C3482 C 0.46767 0.22493 0.27765 0.0
C3483 C 0.4753 0.22811 0.3023 0.0
C3484 C 0.46327 0.23581 0.30212 0.0
C3485 C 0.46273 0.24073 0.31636 0.0
H3486 H 0.48454 0.23121 0.39289 0.0
C3487 C 0.48296 0.22614 0.31755 0.0
C3488 C 0.47553 0.23325 0.3261 0.0
H3489 H 0.4499 0.25701 0.36561 0.0
H3490 H 0.4567 0.25193 0.34196 0.0
H3491 H 0.48085 0.20525 0.38147 0.0
H3492 H 0.50805 0.2425 0.35966 0.0
H3493 H 0.51708 0.22578 0.36387 0.0
H3494 H 0.50989 0.22993 0.38048 0.0
H3495 H 0.49657 0.20729 0.39147 0.0
H3496 H 0.49664 0.19924 0.37615 0.0
C3497 C 0.44888 0.23542 0.32575 0.0
C3498 C 0.46465 0.25746 0.30929 0.0
C3499 C 0.52366 0.19127 0.33211 0.0
C3500 C 0.53108 0.18406 0.3466 0.0
C3501 C 0.52907 0.18849 0.35995 0.0
C3502 C 0.51947 0.19966 0.35893 0.0
C3503 C 0.51147 0.20611 0.3446 0.0
C3504 C 0.51385 0.20194 0.33147 0.0
C3505 C 0.50374 0.20868 0.31777 0.0
C3506 C 0.49487 0.21768 0.32468 0.0
C3507 C 0.49939 0.21634 0.34037 0.0
C3508 C 0.49538 0.19611 0.31528 0.0
C3509 C 0.51201 0.21855 0.30257 0.0
C3510 C 0.47856 0.23598 0.38172 0.0
C3511 C 0.46663 0.24459 0.38122 0.0
C3512 C 0.45921 0.25058 0.36637 0.0
C3513 C 0.46312 0.24757 0.35261 0.0
C3514 C 0.4746 0.23849 0.35351 0.0
C3515 C 0.48242 0.23319 0.3677 0.0
C3516 C 0.49416 0.22347 0.36631 0.0
C3517 C 0.49191 0.22369 0.34908 0.0
C3518 C 0.48028 0.2324 0.34175 0.0
C3519 C 0.4921 0.20799 0.37957 0.0
C3520 C 0.5081 0.2307 0.36773 0.0
H3521 H 0.48711 0.21733 0.28879 0.0
H3522 H 0.44345 0.24366 0.29056 0.0
H3523 H 0.474 0.26057 0.30129 0.0
H3524 H 0.4663 0.26201 0.31881 0.0
H3525 H 0.45553 0.26273 0.30168 0.0
H3526 H 0.44443 0.22596 0.32341 0.0
H3527 H 0.44094 0.24427 0.32206 0.0
H3528 H 0.45024 0.23131 0.33917 0.0
H3529 H 0.52465 0.18787 0.32179 0.0
H3530 H 0.53471 0.18308 0.37127 0.0
H3531 H 0.5183 0.20251 0.36949 0.0
H3532 H 0.49558 0.18587 0.3264 0.0
H3533 H 0.49967 0.19341 0.30505 0.0
H3534 H 0.48417 0.19862 0.31309 0.0
H3535 H 0.52053 0.22439 0.30618 0.0
H3536 H 0.50557 0.2273 0.29381 0.0
H3537 H 0.51683 0.21195 0.29612 0.0
H3538 H 0.46957 0.22012 0.26862 0.0
C3539 C 0.47785 0.2231 0.2896 0.0
C3540 C 0.62864 0.64752 0.07397 0.0
C3541 C 0.63939 0.64339 0.06574 0.0
C3542 C 0.64352 0.65334 0.0502 0.0
C3543 C 0.62718 0.67153 0.05201 0.0
C3544 C 0.62262 0.6615 0.06682 0.0
C3545 C 0.61101 0.66753 0.07388 0.0
H3546 H 0.57158 0.7248 0.07311 0.0
C3547 C 0.61944 0.68544 0.04861 0.0
C3548 C 0.60988 0.68308 0.06137 0.0
H3549 H 0.5713 0.67993 0.10775 0.0
H3550 H 0.58845 0.67341 0.09204 0.0
H3551 H 0.60376 0.72745 0.06965 0.0
H3552 H 0.57435 0.71635 0.03917 0.0
H3553 H 0.58604 0.72961 0.02667 0.0
H3554 H 0.57505 0.73403 0.04072 0.0
H3555 H 0.59346 0.74119 0.0546 0.0
H3556 H 0.60994 0.73514 0.04954 0.0
C3557 C 0.61574 0.66713 0.09089 0.0
C3558 C 0.59769 0.65857 0.07412 0.0
C3559 C 0.63435 0.73172 1.00154 0.0
C3560 C 0.63067 0.74653 0.99709 0.0
C3561 C 0.61959 0.75023 1.0053 0.0
C3562 C 0.61253 0.73941 0.01805 0.0
C3563 C 0.61673 0.72471 0.02291 0.0
C3564 C 0.62736 0.72104 0.01455 0.0
C3565 C 0.63086 0.70497 0.02191 0.0
C3566 C 0.62081 0.69966 0.03624 0.0
C3567 C 0.61244 0.71127 0.03668 0.0
C3568 C 0.64627 0.70345 0.02753 0.0
C3569 C 0.62757 0.69817 0.00906 0.0
C3570 C 0.57516 0.71356 0.07722 0.0
C3571 C 0.56982 0.70285 0.09169 0.0
C3572 C 0.57487 0.68837 0.09653 0.0
C3573 C 0.58497 0.68458 0.08741 0.0
C3574 C 0.59031 0.69533 0.07318 0.0
C3575 C 0.58532 0.70952 0.06813 0.0
C3576 C 0.59252 0.71943 0.05273 0.0
C3577 C 0.60254 0.70878 0.04948 0.0
C3578 C 0.6012 0.69471 0.0616 0.0
C3579 C 0.60028 0.73153 0.05666 0.0
C3580 C 0.58147 0.7253 0.03904 0.0
H3581 H 0.64124 0.67445 0.03156 0.0
H3582 H 0.62495 0.64002 0.08571 0.0
H3583 H 0.59753 0.6549 0.0636 0.0
H3584 H 0.58804 0.66504 0.07273 0.0
H3585 H 0.59709 0.64863 0.0855 0.0
H3586 H 0.62712 0.66916 0.09104 0.0
H3587 H 0.61357 0.6563 0.10062 0.0
H3588 H 0.61089 0.67578 0.09427 0.0
H3589 H 0.64291 0.7286 0.99553 0.0
H3590 H 0.6165 0.76157 1.00194 0.0
H3591 H 0.60427 0.74295 0.02388 0.0
H3592 H 0.64891 0.71177 0.03283 0.0
H3593 H 0.6534 0.70509 0.01709 0.0
H3594 H 0.64868 0.69284 0.03731 0.0
H3595 H 0.61792 0.70304 1.00215 0.0
H3596 H 0.6255 0.68629 0.01462 0.0
H3597 H 0.63616 0.70018 1.00007 0.0
H3598 H 0.6517 0.65042 0.04353 0.0
C3599 C 0.63749 0.66734 0.04331 0.0
C3600 C 0.10916 0.85151 0.97654 0.0
C3601 C 0.11945 0.85641 0.98462 0.0
C3602 C 0.12435 0.84677 0.99995 0.0
C3603 C 0.11006 0.82716 0.99791 0.0
C3604 C 0.10451 0.83698 0.9835 0.0
C3605 C 0.09368 0.83005 0.97642 0.0
H3606 H 0.06604 0.76987 0.96963 0.0
C3607 C 0.10409 0.81248 1.00076 0.0
C3608 C 0.0944 0.81418 0.98824 0.0
H3609 H 0.05751 0.81551 0.94118 0.0
H3610 H 0.07127 0.8227 0.95952 0.0
H3611 H 0.0972 0.77233 0.97577 0.0
H3612 H 0.06425 0.77507 0.00788 0.0
H3613 H 0.07737 0.76275 0.01903 0.0
H3614 H 0.06757 0.75881 1.00373 0.0
H3615 H 0.08766 0.75641 0.98826 0.0
H3616 H 0.10241 0.76299 0.99615 0.0
C3617 C 0.09835 0.83196 0.95889 0.0
C3618 C 0.07941 0.83714 0.97734 0.0
C3619 C 0.12534 0.76731 0.04472 0.0
C3620 C 0.12401 0.75217 0.04834 0.0
C3621 C 0.11375 0.74742 0.03993 0.0
C3622 C 0.10526 0.7575 0.0279 0.0
C3623 C 0.10717 0.77262 0.02383 0.0
C3624 C 0.11697 0.77728 0.03239 0.0
C3625 C 0.11806 0.79373 0.02596 0.0
C3626 C 0.10744 0.79818 0.01213 0.0
C3627 C 0.10096 0.78577 0.0109 0.0
C3628 C 0.13312 0.79792 0.01968 0.0
C3629 C 0.1137 0.79902 0.03975 0.0
C3630 C 0.06695 0.78137 0.96764 0.0
C3631 C 0.06092 0.79218 0.95362 0.0
C3632 C 0.06226 0.80701 0.95159 0.0
C3633 C 0.07028 0.81119 0.96232 0.0
C3634 C 0.0772 0.80049 0.9754 0.0
C3635 C 0.07501 0.78582 0.97847 0.0
C3636 C 0.08313 0.77622 0.99344 0.0
C3637 C 0.09096 0.7876 0.9982 0.0
C3638 C 0.08746 0.80177 0.98733 0.0
C3639 C 0.09309 0.76635 0.98829 0.0
C3640 C 0.0726 0.76764 1.00678 0.0
H3641 H 0.12409 0.82527 0.01816 0.0
H3642 H 0.10491 0.85882 0.96497 0.0
H3643 H 0.0792 0.8414 0.98739 0.0
H3644 H 0.07075 0.82916 0.98024 0.0
H3645 H 0.07703 0.84647 0.96577 0.0
H3646 H 0.10982 0.83066 0.95839 0.0
H3647 H 0.09558 0.84302 0.94994 0.0
H3648 H 0.09398 0.82369 0.95458 0.0
H3649 H 0.13318 0.77134 0.05082 0.0
H3650 H 0.11239 0.73583 0.0426 0.0
H3651 H 0.09772 0.75316 0.02194 0.0
H3652 H 0.13708 0.79052 0.0137 0.0
H3653 H 0.1403 0.79703 0.0299 0.0
H3654 H 0.13398 0.809 0.01021 0.0
H3655 H 0.10483 0.79243 0.04684 0.0
H3656 H 0.10994 0.81046 0.03502 0.0
H3657 H 0.12242 0.7979 0.04843 0.0
H3658 H 0.13214 0.85039 1.00651 0.0
C3659 C 0.11973 0.83218 1.00664 0.0
C3660 C 0.8605 0.76021 0.82276 0.0
C3661 C 0.87331 0.75705 0.81664 0.0
C3662 C 0.8726 0.7487 0.80658 0.0
C3663 C 0.84748 0.74683 0.80902 0.0
C3664 C 0.84776 0.75515 0.81865 0.0
C3665 C 0.83311 0.75811 0.82317 0.0
H3666 H 0.76288 0.75347 0.81026 0.0
C3667 C 0.83282 0.7436 0.80637 0.0
C3668 C 0.82416 0.75032 0.81452 0.0
H3669 H 0.7814 0.77452 0.8403 0.0
H3670 H 0.80453 0.76654 0.83535 0.0
H3671 H 0.78354 0.76309 0.78216 0.0
H3672 H 0.78022 0.72494 0.82588 0.0
H3673 H 0.78743 0.71824 0.81182 0.0
H3674 H 0.77051 0.72693 0.8078 0.0
H3675 H 0.77145 0.7486 0.78444 0.0
H3676 H 0.78866 0.74872 0.77627 0.0
C3677 C 0.83063 0.77481 0.81623 0.0
C3678 C 0.83154 0.75107 0.84191 0.0
C3679 C 0.82121 0.71451 0.77014 0.0
C3680 C 0.8083 0.71091 0.76491 0.0
C3681 C 0.79595 0.71443 0.77113 0.0
C3682 C 0.79625 0.72195 0.7817 0.0
C3683 C 0.80905 0.72605 0.78637 0.0
C3684 C 0.82131 0.72211 0.78095 0.0
C3685 C 0.83382 0.7277 0.78732 0.0
C3686 C 0.82689 0.7357 0.79726 0.0
C3687 C 0.81242 0.73466 0.79647 0.0
C3688 C 0.84204 0.73827 0.77247 0.0
C3689 C 0.84229 0.71426 0.79841 0.0
C3690 C 0.7719 0.75648 0.81571 0.0
C3691 C 0.77033 0.76487 0.82536 0.0
C3692 C 0.78235 0.76817 0.83263 0.0
C3693 C 0.79576 0.76363 0.82964 0.0
C3694 C 0.79714 0.75559 0.81939 0.0
C3695 C 0.78515 0.75191 0.81308 0.0
C3696 C 0.78796 0.74263 0.80338 0.0
C3697 C 0.80367 0.74172 0.80416 0.0
C3698 C 0.80929 0.74939 0.8134 0.0
C3699 C 0.78258 0.75103 0.78566 0.0
C3700 C 0.78114 0.72742 0.81252 0.0
H3701 H 0.86043 0.73713 0.79544 0.0
H3702 H 0.8603 0.76648 0.83055 0.0
H3703 H 0.83551 0.73961 0.84657 0.0
H3704 H 0.82059 0.75047 0.84581 0.0
H3705 H 0.83753 0.75728 0.84798 0.0
H3706 H 0.83378 0.77964 0.80316 0.0
H3707 H 0.83684 0.78017 0.82308 0.0
H3708 H 0.81961 0.77773 0.81666 0.0
H3709 H 0.8309 0.71203 0.76545 0.0
H3710 H 0.78592 0.71163 0.76746 0.0
H3711 H 0.78636 0.72459 0.78541 0.0
H3712 H 0.83511 0.74352 0.76173 0.0
H3713 H 0.85038 0.7324 0.76864 0.0
H3714 H 0.84666 0.74756 0.77486 0.0
H3715 H 0.83523 0.70561 0.80643 0.0
H3716 H 0.84941 0.71683 0.80681 0.0
H3717 H 0.84841 0.70943 0.79097 0.0
H3718 H 0.88178 0.74638 0.8009 0.0
C3719 C 0.85997 0.74345 0.80304 0.0
C3720 C 0.89828 0.10489 0.4014 0.0
C3721 C 0.89801 0.09608 0.39189 0.0
C3722 C 0.90596 0.10049 0.37742 0.0
C3723 C 0.9135 0.12241 0.38149 0.0
C3724 C 0.90603 0.11801 0.39593 0.0
C3725 C 0.9069 0.12917 0.40392 0.0
H3726 H 0.9291 0.19592 0.40067 0.0
C3727 C 0.91984 0.13687 0.37871 0.0
C3728 C 0.91597 0.14097 0.3918 0.0
H3729 H 0.90307 0.16489 0.43744 0.0
H3730 H 0.90513 0.1479 0.42377 0.0
H3731 H 0.95086 0.17193 0.39723 0.0
H3732 H 0.91405 0.1923 0.37039 0.0
H3733 H 0.92634 0.19149 0.35606 0.0
H3734 H 0.93015 0.20202 0.36847 0.0
H3735 H 0.95039 0.19082 0.38372 0.0
H3736 H 0.95434 0.17644 0.37635 0.0
C3737 C 0.9142 0.1219 0.42068 0.0
C3738 C 0.892 0.13477 0.40495 0.0
C3739 C 0.94774 0.16304 0.32655 0.0
C3740 C 0.95443 0.17681 0.32017 0.0
C3741 C 0.9544 0.18559 0.32971 0.0
C3742 C 0.9477 0.18101 0.34495 0.0
C3743 C 0.94084 0.16743 0.35095 0.0
C3744 C 0.94108 0.15861 0.34188 0.0
C3745 C 0.93324 0.14451 0.35027 0.0
C3746 C 0.92814 0.14642 0.36571 0.0
C3747 C 0.93263 0.15988 0.36604 0.0
C3748 C 0.94371 0.13166 0.35429 0.0
C3749 C 0.92102 0.14394 0.339 0.0
C3750 C 0.92365 0.18558 0.40573 0.0
C3751 C 0.91587 0.18195 0.42027 0.0
C3752 C 0.9093 0.16808 0.42645 0.0
C3753 C 0.91037 0.15821 0.41837 0.0
C3754 C 0.91793 0.16219 0.40371 0.0
C3755 C 0.92448 0.17565 0.3977 0.0
C3756 C 0.93197 0.17813 0.38191 0.0
C3757 C 0.92871 0.16407 0.37927 0.0
C3758 C 0.92047 0.15469 0.39211 0.0
C3759 C 0.94773 0.17953 0.38478 0.0
C3760 C 0.92544 0.19173 0.36844 0.0
H3761 H 0.91935 0.11619 0.36102 0.0
H3762 H 0.89229 0.10188 0.41257 0.0
H3763 H 0.88575 0.13549 0.39403 0.0
H3764 H 0.8918 0.14595 0.40501 0.0
H3765 H 0.88648 0.12727 0.41596 0.0
H3766 H 0.92321 0.11517 0.41967 0.0
H3767 H 0.90695 0.11456 0.42992 0.0
H3768 H 0.91856 0.12993 0.42538 0.0
H3769 H 0.9474 0.15598 0.31964 0.0
H3770 H 0.95968 0.19605 0.32545 0.0
H3771 H 0.94805 0.18831 0.35144 0.0
H3772 H 0.9539 0.13464 0.35819 0.0
H3773 H 0.9456 0.12876 0.34343 0.0
H3774 H 0.94037 0.12176 0.36461 0.0
H3775 H 0.91697 0.15512 0.33188 0.0
H3776 H 0.91192 0.13789 0.34585 0.0
H3777 H 0.92436 0.13903 0.33011 0.0
H3778 H 0.90625 0.09382 0.37004 0.0
C3779 C 0.91366 0.1135 0.37222 0.0
C3780 C 0.71058 0.05383 0.15222 0.0
C3781 C 0.71627 0.05748 0.13634 0.0
C3782 C 0.70813 0.06598 0.12277 0.0
C3783 C 0.69087 0.06994 0.14052 0.0
C3784 C 0.69762 0.06003 0.15397 0.0
C3785 C 0.68945 0.05765 0.16951 0.0
H3786 H 0.63384 0.07882 0.20446 0.0
C3787 C 0.67882 0.0761 0.14607 0.0
C3788 C 0.67754 0.06872 0.16309 0.0
H3789 H 0.66344 0.04465 0.22923 0.0
H3790 H 0.67554 0.04931 0.2035 0.0
H3791 H 0.65567 0.10084 0.18564 0.0
H3792 H 0.63013 0.07197 0.17113 0.0
H3793 H 0.62982 0.08931 0.15514 0.0
H3794 H 0.62351 0.08741 0.17507 0.0
H3795 H 0.63803 0.1054 0.17907 0.0
H3796 H 0.65234 0.11032 0.1648 0.0
C3797 C 0.69887 0.06124 0.18169 0.0
C3798 C 0.68406 0.04173 0.17611 0.0
C3799 C 0.65638 0.12268 0.10604 0.0
C3800 C 0.6455 0.13168 0.10754 0.0
C3801 C 0.63821 0.12741 0.12248 0.0
C3802 C 0.64184 0.11461 0.13572 0.0
C3803 C 0.65293 0.1059 0.13415 0.0
C3804 C 0.65986 0.10988 0.11942 0.0
C3805 C 0.671 0.09901 0.11976 0.0
C3806 C 0.67016 0.08829 0.13748 0.0
C3807 C 0.65957 0.0924 0.14579 0.0
C3808 C 0.68507 0.10723 0.11594 0.0
C3809 C 0.66685 0.09176 0.10748 0.0
C3810 C 0.64273 0.07207 0.20435 0.0
C3811 C 0.64749 0.06116 0.21887 0.0
C3812 C 0.65949 0.05307 0.21819 0.0
C3813 C 0.66646 0.05576 0.20324 0.0
C3814 C 0.66153 0.06681 0.18882 0.0
C3815 C 0.64985 0.07475 0.18969 0.0
C3816 C 0.64642 0.08673 0.17368 0.0
C3817 C 0.65753 0.08439 0.16275 0.0
C3818 C 0.66646 0.07267 0.17152 0.0
C3819 C 0.64808 0.10163 0.1758 0.0
C3820 C 0.63167 0.08386 0.16842 0.0
H3821 H 0.69041 0.07914 0.11391 0.0
H3822 H 0.71627 0.04689 0.16293 0.0
H3823 H 0.67945 0.03896 0.16603 0.0
H3824 H 0.67575 0.03988 0.18526 0.0
H3825 H 0.69268 0.03389 0.18162 0.0
H3826 H 0.70461 0.07163 0.17535 0.0
H3827 H 0.70664 0.0524 0.18728 0.0
H3828 H 0.69294 0.06288 0.19158 0.0
H3829 H 0.662 0.12546 0.09464 0.0
H3830 H 0.62986 0.13416 0.12406 0.0
H3831 H 0.63591 0.11207 0.14674 0.0
H3832 H 0.68649 0.11378 0.12375 0.0
H3833 H 0.68549 0.11486 0.10295 0.0
H3834 H 0.69415 0.0999 0.11826 0.0
H3835 H 0.65578 0.09383 0.10358 0.0
H3836 H 0.66777 0.07964 0.11297 0.0
H3837 H 0.67328 0.09597 0.09621 0.0
H3838 H 0.71174 0.06832 0.11041 0.0
C3839 C 0.69565 0.07228 0.12478 0.0
C3840 C 0.64665 0.96497 0.75141 0.0
C3841 C 0.64257 0.95047 0.76022 0.0
C3842 C 0.62884 0.9464 0.75832 0.0
C3843 C 0.62284 0.97185 0.74288 0.0
C3844 C 0.63656 0.97565 0.74347 0.0
C3845 C 0.63841 0.99197 0.73858 0.0
H3846 H 0.60299 0.05792 0.72011 0.0
C3847 C 0.61448 0.98543 0.73645 0.0
C3848 C 0.62329 0.99763 0.73398 0.0
H3849 H 0.64688 0.05424 0.71293 0.0
H3850 H 0.6444 0.02772 0.72009 0.0
H3851 H 0.6005 0.04384 0.69609 0.0
H3852 H 0.59284 0.02678 0.74768 0.0
H3853 H 0.57857 0.0224 0.7376 0.0
H3854 H 0.58332 0.04124 0.7324 0.0
H3855 H 0.58339 0.04419 0.70373 0.0
H3856 H 0.58959 0.02896 0.69872 0.0
C3857 C 0.6487 0.99768 0.72417 0.0
C3858 C 0.64427 0.99406 0.75381 0.0
C3859 C 0.5641 0.98194 0.72041 0.0
C3860 C 0.55417 0.99281 0.71202 0.0
C3861 C 0.55727 0.0075 0.70973 0.0
C3862 C 0.56957 0.01119 0.71561 0.0
C3863 C 0.57965 1.00043 0.72282 0.0
C3864 C 0.57684 0.98606 0.72525 0.0
C3865 C 0.58905 0.97622 0.73278 0.0
C3866 C 0.60004 0.9874 0.73275 0.0
C3867 C 0.59425 1.00141 0.72745 0.0
C3868 C 0.59299 0.96802 0.72142 0.0
C3869 C 0.58497 0.96609 0.75043 0.0
C3870 C 0.61223 0.05136 0.7209 0.0
C3871 C 0.62528 0.05805 0.71736 0.0
C3872 C 0.63681 0.04926 0.71668 0.0
C3873 C 0.63543 0.03393 0.72075 0.0
C3874 C 0.62231 0.02735 0.72494 0.0
C3875 C 0.61094 0.03639 0.72378 0.0
C3876 C 0.59765 0.02918 0.72238 0.0
C3877 C 0.60259 0.01366 0.72591 0.0
C3878 C 0.61714 0.01215 0.72822 0.0
C3879 C 0.5924 0.0369 0.70441 0.0
C3880 C 0.58746 0.02996 0.73564 0.0
H3881 H 0.60851 0.95329 0.7497 0.0
H3882 H 0.65733 0.96817 0.7521 0.0
H3883 H 0.65342 0.98706 0.75923 0.0
H3884 H 0.63633 0.99114 0.76364 0.0
H3885 H 0.6485 1.00512 0.75039 0.0
H3886 H 0.64328 1.00031 0.71228 0.0
H3887 H 0.65696 0.98948 0.72516 0.0
H3888 H 0.65436 0.00749 0.72404 0.0
H3889 H 0.56223 0.97045 0.72313 0.0
H3890 H 0.55043 0.01648 0.70313 0.0
H3891 H 0.57071 0.0224 0.71414 0.0
H3892 H 0.59302 0.97571 0.70842 0.0
H3893 H 0.58539 0.95919 0.72259 0.0
H3894 H 0.60348 0.96313 0.72373 0.0
H3895 H 0.57638 0.97086 0.75532 0.0
H3896 H 0.59361 0.96455 0.75926 0.0
H3897 H 0.58141 0.95521 0.75088 0.0
H3898 H 0.62545 0.93519 0.76431 0.0
C3899 C 0.61895 0.95701 0.74984 0.0
C3900 C 0.86086 0.25123 0.69438 0.0
C3901 C 0.87365 0.2548 0.69994 0.0
C3902 C 0.87346 0.26379 0.70915 0.0
C3903 C 0.84819 0.26514 0.70775 0.0
C3904 C 0.84823 0.25642 0.69853 0.0
C3905 C 0.83353 0.25318 0.69451 0.0
H3906 H 0.7635 0.25904 0.70733 0.0
C3907 C 0.83352 0.26835 0.71058 0.0
C3908 C 0.82473 0.26126 0.70291 0.0
H3909 H 0.78135 0.23545 0.67952 0.0
H3910 H 0.80462 0.24376 0.68354 0.0
H3911 H 0.78432 0.24944 0.73543 0.0
H3912 H 0.78058 0.28682 0.69102 0.0
H3913 H 0.78833 0.29401 0.70438 0.0
H3914 H 0.77137 0.28554 0.70915 0.0
H3915 H 0.77234 0.26413 0.73283 0.0
H3916 H 0.78964 0.26402 0.74082 0.0
C3917 C 0.83122 0.23648 0.70203 0.0
C3918 C 0.83156 0.25972 0.67579 0.0
C3919 C 0.82207 0.29812 0.7462 0.0
C3920 C 0.80913 0.30185 0.75124 0.0
C3921 C 0.7968 0.29846 0.74489 0.0
C3922 C 0.79711 0.29084 0.73445 0.0
C3923 C 0.8099 0.28652 0.73003 0.0
C3924 C 0.82218 0.29044 0.73547 0.0
C3925 C 0.83466 0.28475 0.72914 0.0
C3926 C 0.82768 0.27655 0.71942 0.0
C3927 C 0.81322 0.27766 0.72022 0.0
C3928 C 0.84296 0.27433 0.74405 0.0
C3929 C 0.84305 0.29812 0.71789 0.0
C3930 C 0.77236 0.25543 0.70221 0.0
C3931 C 0.77051 0.24626 0.69347 0.0
C3932 C 0.78244 0.2424 0.68651 0.0
C3933 C 0.79595 0.2471 0.689 0.0
C3934 C 0.79758 0.2558 0.69852 0.0
C3935 C 0.7857 0.25996 0.70454 0.0
C3936 C 0.78868 0.26957 0.71377 0.0
C3937 C 0.80437 0.27034 0.71291 0.0
C3938 C 0.80986 0.26223 0.7041 0.0
C3939 C 0.78343 0.26155 0.73161 0.0
C3940 C 0.78185 0.28475 0.70426 0.0
H3941 H 0.86156 0.27585 0.72002 0.0
H3942 H 0.86071 0.24432 0.68727 0.0
H3943 H 0.83517 0.27129 0.6707 0.0
H3944 H 0.82055 0.25985 0.67218 0.0
H3945 H 0.83765 0.25345 0.66988 0.0
H3946 H 0.83471 0.23199 0.71501 0.0
H3947 H 0.83722 0.2309 0.69526 0.0
H3948 H 0.82019 0.23346 0.70206 0.0
H3949 H 0.83173 0.30057 0.75098 0.0
H3950 H 0.78677 0.30134 0.74846 0.0
H3951 H 0.78721 0.28825 0.73073 0.0
H3952 H 0.83583 0.26809 0.75418 0.0
H3953 H 0.85024 0.28055 0.74882 0.0
H3954 H 0.84884 0.26586 0.74134 0.0
H3955 H 0.83592 0.30694 0.71022 0.0
H3956 H 0.84971 0.29556 0.70911 0.0
H3957 H 0.8496 0.30273 0.72519 0.0
H3958 H 0.88314 0.26678 0.71343 0.0
C3959 C 0.86089 0.26905 0.71296 0.0
C3960 C 0.64681 0.04507 0.76846 0.0
C3961 C 0.64303 0.05986 0.76058 0.0
C3962 C 0.6299 0.0643 0.76424 0.0
C3963 C 0.62375 0.03898 0.78049 0.0
C3964 C 0.63694 0.03474 0.77772 0.0
C3965 C 0.63628 0.01941 0.77796 0.0
H3966 H 0.60284 0.95347 0.79938 0.0
C3967 C 0.61491 0.02553 0.78666 0.0
C3968 C 0.62308 0.01334 0.78746 0.0
H3969 H 0.64674 0.95674 0.80691 0.0
H3970 H 0.64396 0.98279 0.80157 0.0
H3971 H 0.60061 0.967 0.82335 0.0
H3972 H 0.59269 0.98557 0.77175 0.0
H3973 H 0.57847 0.98956 0.78213 0.0
H3974 H 0.58321 0.97081 0.78655 0.0
H3975 H 0.5835 0.96662 0.81555 0.0
H3976 H 0.58939 0.98156 0.82124 0.0
C3977 C 0.64962 0.01071 0.78504 0.0
C3978 C 0.63356 0.02174 0.75996 0.0
C3979 C 0.56403 0.02954 0.79951 0.0
C3980 C 0.55397 0.0187 0.80728 0.0
C3981 C 0.55711 1.00401 0.8096 0.0
C3982 C 0.56959 1.00028 0.80422 0.0
C3983 C 0.57972 0.011 0.79753 0.0
C3984 C 0.57693 0.02537 0.79525 0.0
C3985 C 0.58943 0.03503 0.78895 0.0
C3986 C 0.60043 0.02371 0.78964 0.0
C3987 C 0.59443 0.00982 0.79379 0.0
C3988 C 0.59272 0.04286 0.80085 0.0
C3989 C 0.58636 0.04549 0.7711 0.0
C3990 C 0.61213 0.95995 0.79847 0.0
C3991 C 0.62517 0.95307 0.80221 0.0
C3992 C 0.63669 0.96179 0.80297 0.0
C3993 C 0.63525 0.97708 0.79919 0.0
C3994 C 0.62224 0.98396 0.79427 0.0
C3995 C 0.61085 0.975 0.7954 0.0
C3996 C 0.5976 0.98218 0.79731 0.0
C3997 C 0.60255 0.99754 0.79467 0.0
C3998 C 0.61697 0.99895 0.79224 0.0
C3999 C 0.59239 0.97394 0.81517 0.0
C4000 C 0.58735 0.98201 0.7838 0.0
H4001 H 0.61011 0.05802 0.77517 0.0
H4002 H 0.65663 0.04128 0.76556 0.0
H4003 H 0.6262 0.03097 0.75403 0.0
H4004 H 0.62806 0.01238 0.75883 0.0
H4005 H 0.64334 0.02486 0.75284 0.0
H4006 H 0.64954 0.00673 0.79862 0.0
H4007 H 0.65911 0.01742 0.78075 0.0
H4008 H 0.65075 1.00149 0.78087 0.0
H4009 H 0.56216 0.04102 0.79695 0.0
H4010 H 0.5502 0.99506 0.81592 0.0
H4011 H 0.57086 0.98905 0.80581 0.0
H4012 H 0.5915 0.03517 0.81375 0.0
H4013 H 0.58556 0.05226 0.79879 0.0
H4014 H 0.60353 0.04682 0.79998 0.0
H4015 H 0.57883 0.04056 0.76502 0.0
H4016 H 0.59572 0.0478 0.76324 0.0
H4017 H 0.58181 0.05601 0.77069 0.0
H4018 H 0.62657 0.07558 0.75852 0.0
C4019 C 0.62027 0.05399 0.77402 0.0
C4020 C 0.71107 0.95812 0.35918 0.0
C4021 C 0.71819 0.95365 0.37436 0.0
C4022 C 0.71172 0.94346 0.38828 0.0
C4023 C 0.69263 0.94063 0.37182 0.0
C4024 C 0.69821 0.95146 0.35822 0.0
C4025 C 0.68924 0.95405 0.34319 0.0
H4026 H 0.63373 0.93162 0.30964 0.0
C4027 C 0.68012 0.93466 0.36681 0.0
C4028 C 0.67786 0.94251 0.35002 0.0
H4029 H 0.66207 0.96687 0.28456 0.0
H4030 H 0.67425 0.96268 0.31013 0.0
H4031 H 0.65636 0.9098 0.32973 0.0
H4032 H 0.62984 0.93939 0.34208 0.0
H4033 H 0.63034 0.92286 0.35919 0.0
H4034 H 0.62345 0.92302 0.34006 0.0
H4035 H 0.63817 0.90631 0.33393 0.0
H4036 H 0.65106 0.90047 0.34998 0.0
C4037 C 0.69818 0.95122 0.3301 0.0
C4038 C 0.68326 0.96974 0.33754 0.0
C4039 C 0.65787 0.8888 0.40794 0.0
C4040 C 0.64647 0.88016 0.40708 0.0
C4041 C 0.63846 0.88465 0.3926 0.0
C4042 C 0.64197 0.89726 0.37908 0.0
C4043 C 0.65362 0.90558 0.37998 0.0
C4044 C 0.66115 0.90145 0.39436 0.0
C4045 C 0.67289 0.91185 0.39331 0.0
C4046 C 0.67153 0.92256 0.37569 0.0
C4047 C 0.66029 0.9188 0.36793 0.0
C4048 C 0.68668 0.90301 0.39632 0.0
C4049 C 0.66993 0.91935 0.40566 0.0
C4050 C 0.6424 0.93864 0.30962 0.0
C4051 C 0.64683 0.94966 0.29502 0.0
C4052 C 0.65845 0.95824 0.2956 0.0
C4053 C 0.66551 0.9558 0.31046 0.0
C4054 C 0.66105 0.9445 0.3249 0.0
C4055 C 0.64959 0.93624 0.32422 0.0
C4056 C 0.64637 0.92442 0.34041 0.0
C4057 C 0.65768 0.92689 0.35108 0.0
C4058 C 0.66636 0.93869 0.34205 0.0
C4059 C 0.64794 0.90942 0.33854 0.0
C4060 C 0.63171 0.92741 0.34578 0.0
H4061 H 0.69509 0.92899 0.39816 0.0
H4062 H 0.71562 0.96611 0.34827 0.0
H4063 H 0.67913 0.97198 0.34816 0.0
H4064 H 0.67446 0.97151 0.32895 0.0
H4065 H 0.69144 0.97799 0.33165 0.0
H4066 H 0.70486 0.94138 0.33583 0.0
H4067 H 0.70508 0.96069 0.32378 0.0
H4068 H 0.69188 0.94895 0.32086 0.0
H4069 H 0.66411 0.88578 0.41897 0.0
H4070 H 0.62968 0.87817 0.39157 0.0
H4071 H 0.63557 0.89992 0.36837 0.0
H4072 H 0.68638 0.89487 0.39032 0.0
H4073 H 0.68848 0.89691 0.4096 0.0
H4074 H 0.69588 0.90981 0.39111 0.0
H4075 H 0.65861 0.9195 0.40825 0.0
H4076 H 0.67297 0.93105 0.40088 0.0
H4077 H 0.67528 0.91357 0.41752 0.0
H4078 H 0.71662 0.94021 0.4002 0.0
C4079 C 0.6991 0.93697 0.3871 0.0
C4080 C 0.90147 0.91054 0.10831 0.0
C4081 C 0.90164 0.91958 0.11756 0.0
C4082 C 0.90992 0.91524 0.13184 0.0
C4083 C 0.91662 0.89284 0.12834 0.0
C4084 C 0.90901 0.89724 0.11394 0.0
C4085 C 0.90953 0.88588 0.1062 0.0
H4086 H 0.93016 0.81809 0.11115 0.0
C4087 C 0.92265 0.87817 0.13137 0.0
C4088 C 0.91859 0.87402 0.11836 0.0
H4089 H 0.90509 0.84935 0.07322 0.0
H4090 H 0.90721 0.86669 0.0866 0.0
H4091 H 0.95275 0.84197 0.11266 0.0
H4092 H 0.91639 0.8228 0.14086 0.0
H4093 H 0.92928 0.82337 0.15474 0.0
H4094 H 0.93227 0.81276 0.14226 0.0
H4095 H 0.95268 0.82357 0.12749 0.0
H4096 H 0.95676 0.839 0.13309 0.0
C4097 C 0.91665 0.89283 0.08933 0.0
C4098 C 0.89452 0.88049 0.10542 0.0
C4099 C 0.94935 0.85085 0.18445 0.0
C4100 C 0.95637 0.83725 0.19042 0.0
C4101 C 0.95714 0.82899 0.1804 0.0
C4102 C 0.95065 0.83385 0.16499 0.0
C4103 C 0.94338 0.84726 0.15934 0.0
C4104 C 0.94314 0.85572 0.16881 0.0
C4105 C 0.93564 0.87008 0.16026 0.0
C4106 C 0.93084 0.86848 0.14451 0.0
C4107 C 0.9353 0.85502 0.14415 0.0
C4108 C 0.94637 0.88261 0.15684 0.0
C4109 C 0.92324 0.87088 0.17109 0.0
C4110 C 0.92523 0.82871 0.10554 0.0
C4111 C 0.91735 0.83219 0.0911 0.0
C4112 C 0.911 0.84616 0.08449 0.0
C4113 C 0.91231 0.85629 0.09224 0.0
C4114 C 0.92002 0.85248 0.10685 0.0
C4115 C 0.92644 0.83892 0.1131 0.0
C4116 C 0.93425 0.8366 0.12865 0.0
C4117 C 0.9312 0.85081 0.13102 0.0
C4118 C 0.9229 0.86019 0.11819 0.0
C4119 C 0.94993 0.83508 0.12548 0.0
C4120 C 0.92786 0.82315 0.14241 0.0
H4121 H 0.92311 0.89932 0.14841 0.0
H4122 H 0.89521 0.91347 0.09732 0.0
H4123 H 0.88855 0.87974 0.11651 0.0
H4124 H 0.89414 0.86937 0.10518 0.0
H4125 H 0.88885 0.88814 0.09458 0.0
H4126 H 0.92583 0.8994 0.09013 0.0
H4127 H 0.90938 0.90024 0.08011 0.0
H4128 H 0.92071 0.8846 0.08473 0.0
H4129 H 0.94875 0.85754 0.19179 0.0
H4130 H 0.96246 0.81851 0.18471 0.0
H4131 H 0.95139 0.82686 0.15817 0.0
H4132 H 0.95681 0.87914 0.15417 0.0
H4133 H 0.94749 0.8859 0.16754 0.0
H4134 H 0.94378 0.89236 0.14588 0.0
H4135 H 0.91821 0.85997 0.1768 0.0
H4136 H 0.91486 0.87828 0.16414 0.0
H4137 H 0.92672 0.87437 0.18109 0.0
H4138 H 0.91053 0.92205 0.13904 0.0
C4139 C 0.91732 0.90201 0.13726 0.0
C4140 C 0.20068 0.51539 0.26523 0.0
C4141 C 0.19745 0.53477 0.25682 0.0
C4142 C 0.18007 0.54069 0.25583 0.0
C4143 C 0.16966 0.50995 0.27164 0.0
C4144 C 0.18578 0.50311 0.2728 0.0
C4145 C 0.18258 0.48752 0.27136 0.0
H4146 H 0.14737 0.42392 0.32166 0.0
C4147 C 0.16126 0.497 0.2813 0.0
C4148 C 0.16868 0.48391 0.28263 0.0
H4149 H 0.18518 0.4247 0.29589 0.0
H4150 H 0.18739 0.45021 0.28941 0.0
H4151 H 0.16253 0.44473 0.33645 0.0
H4152 H 0.13112 0.44977 0.3005 0.0
H4153 H 0.12517 0.45995 0.31182 0.0
H4154 H 0.12874 0.44082 0.32219 0.0
H4155 H 0.14458 0.44276 0.34198 0.0
H4156 H 0.15355 0.46014 0.33656 0.0
C4157 C 0.19371 0.48024 0.28609 0.0
C4158 C 0.18372 0.4859 0.23717 0.0
C4159 C 0.11945 0.50477 0.3135 0.0
C4160 C 0.11255 0.49495 0.32748 0.0
C4161 C 0.11812 0.48084 0.33539 0.0
C4162 C 0.12891 0.47586 0.32846 0.0
C4163 C 0.13496 0.48523 0.31387 0.0
C4164 C 0.13096 0.49969 0.30718 0.0
C4165 C 0.14048 0.50839 0.29329 0.0
C4166 C 0.14996 0.49629 0.29202 0.0
C4167 C 0.14619 0.48281 0.30389 0.0
C4168 C 0.14824 0.51945 0.29888 0.0
C4169 C 0.13182 0.51571 0.27759 0.0
C4170 C 0.15586 0.42987 0.31398 0.0
C4171 C 0.16584 0.42244 0.30853 0.0
C4172 C 0.17715 0.43039 0.2997 0.0
C4173 C 0.17813 0.44556 0.29553 0.0
C4174 C 0.16706 0.45356 0.29871 0.0
C4175 C 0.15673 0.44524 0.30896 0.0
C4176 C 0.14784 0.45423 0.31526 0.0
C4177 C 0.1524 0.46962 0.30454 0.0
C4178 C 0.16379 0.46976 0.29446 0.0
C4179 C 0.1522 0.45027 0.33349 0.0
C4180 C 0.1324 0.45107 0.31245 0.0
H4181 H 0.15631 0.53299 0.26288 0.0
H4182 H 0.21116 0.51129 0.26557 0.0
H4183 H 0.17468 0.48903 0.22842 0.0
H4184 H 0.18594 0.47528 0.23543 0.0
H4185 H 0.19145 0.49264 0.22769 0.0
H4186 H 0.19125 0.48224 0.29752 0.0
H4187 H 0.20443 0.4846 0.28307 0.0
H4188 H 0.19439 0.46847 0.29107 0.0
H4189 H 0.11578 0.51589 0.30737 0.0
H4190 H 0.11371 0.47327 0.34668 0.0
H4191 H 0.13158 0.46465 0.33457 0.0
H4192 H 0.15557 0.51367 0.30903 0.0
H4193 H 0.1408 0.52578 0.30333 0.0
H4194 H 0.15407 0.52768 0.28904 0.0
H4195 H 0.12385 0.50801 0.27634 0.0
H4196 H 0.13833 0.51881 0.26649 0.0
H4197 H 0.12638 0.52562 0.2778 0.0
H4198 H 0.17774 0.55206 0.25321 0.0
C4199 C 0.1666 0.52852 0.26335 0.0
C4200 C 0.18146 0.48375 0.82456 0.0
C4201 C 0.18967 0.47894 0.83906 0.0
C4202 C 0.1842 0.46831 0.85329 0.0
C4203 C 0.16357 0.46604 0.8386 0.0
C4204 C 0.1682 0.47726 0.82472 0.0
C4205 C 0.15759 0.48053 0.81087 0.0
H4206 H 0.09627 0.45898 0.78548 0.0
C4207 C 0.15037 0.4603 0.83485 0.0
C4208 C 0.14642 0.46885 0.81865 0.0
H4209 H 0.12242 0.49447 0.75591 0.0
H4210 H 0.13781 0.49048 0.77942 0.0
H4211 H 0.12033 0.43786 0.79882 0.0
H4212 H 0.0974 0.46481 0.81862 0.0
H4213 H 0.10004 0.44803 0.83495 0.0
H4214 H 0.09042 0.44843 0.81716 0.0
H4215 H 0.10341 0.43285 0.80762 0.0
H4216 H 0.11906 0.42741 0.81974 0.0
C4217 C 0.16463 0.47853 0.79614 0.0
C4218 C 0.15181 0.49611 0.80681 0.0
C4219 C 0.13243 0.41186 0.87579 0.0
C4220 C 0.12095 0.40301 0.87568 0.0
C4221 C 0.11108 0.40851 0.86293 0.0
C4222 C 0.11302 0.42204 0.85012 0.0
C4223 C 0.12489 0.43038 0.84999 0.0
C4224 C 0.13411 0.42547 0.86293 0.0
C4225 C 0.14581 0.4361 0.86104 0.0
C4226 C 0.14256 0.44775 0.8443 0.0
C4227 C 0.13034 0.44431 0.83794 0.0
C4228 C 0.15966 0.42797 0.86111 0.0
C4229 C 0.14444 0.44221 0.87488 0.0
C4230 C 0.10526 0.466 0.78397 0.0
C4231 C 0.10807 0.4771 0.76883 0.0
C4232 C 0.11988 0.486 0.76756 0.0
C4233 C 0.12891 0.4835 0.78113 0.0
C4234 C 0.12621 0.47178 0.79605 0.0
C4235 C 0.1144 0.46341 0.79709 0.0
C4236 C 0.11313 0.45091 0.81312 0.0
C4237 C 0.12589 0.45313 0.82194 0.0
C4238 C 0.13376 0.46537 0.81211 0.0
C4239 C 0.11391 0.43646 0.8098 0.0
C4240 C 0.09952 0.45299 0.82145 0.0
H4241 H 0.16811 0.45355 0.86437 0.0
H4242 H 0.18537 0.49204 0.81344 0.0
H4243 H 0.14825 0.49751 0.81814 0.0
H4244 H 0.14276 0.49846 0.7985 0.0
H4245 H 0.15995 0.50444 0.80106 0.0
H4246 H 0.17028 0.4679 0.80014 0.0
H4247 H 0.17224 0.48744 0.79031 0.0
H4248 H 0.15707 0.47843 0.78677 0.0
H4249 H 0.14022 0.40811 0.88535 0.0
H4250 H 0.10186 0.40228 0.86271 0.0
H4251 H 0.10526 0.42532 0.84067 0.0
H4252 H 0.15858 0.42081 0.85394 0.0
H4253 H 0.16275 0.42092 0.87377 0.0
H4254 H 0.16839 0.43534 0.85536 0.0
H4255 H 0.13372 0.44089 0.87997 0.0
H4256 H 0.14637 0.45417 0.87044 0.0
H4257 H 0.15162 0.4365 0.8852 0.0
H4258 H 0.19023 0.4645 0.86451 0.0
C4259 C 0.1713 0.46191 0.85315 0.0
C4260 C 0.38593 0.41503 0.60341 0.0
C4261 C 0.38601 0.42272 0.61414 0.0
C4262 C 0.39563 0.41859 0.62711 0.0
C4263 C 0.40444 0.39899 0.61929 0.0
C4264 C 0.3953 0.40321 0.60619 0.0
C4265 C 0.39648 0.39327 0.5966 0.0
H4266 H 0.42573 0.33232 0.58962 0.0
C4267 C 0.4122 0.38585 0.61954 0.0
C4268 C 0.40771 0.3824 0.6062 0.0
H4269 H 0.39378 0.3603 0.55887 0.0
H4270 H 0.39513 0.3761 0.57418 0.0
H4271 H 0.44488 0.35822 0.59202 0.0
H4272 H 0.41292 0.3318 0.62358 0.0
H4273 H 0.42706 0.33272 0.63582 0.0
H4274 H 0.42945 0.32445 0.62094 0.0
H4275 H 0.44772 0.33934 0.60471 0.0
H4276 H 0.45043 0.35384 0.6123 0.0
C4277 C 0.40136 0.40259 0.5791 0.0
C4278 C 0.38227 0.38574 0.59724 0.0
C4279 C 0.44452 0.35987 0.6675 0.0
C4280 C 0.45347 0.34757 0.67164 0.0
C4281 C 0.45481 0.34075 0.66011 0.0
C4282 C 0.44705 0.34553 0.64548 0.0
C4283 C 0.43792 0.35751 0.64194 0.0
C4284 C 0.43718 0.36475 0.65263 0.0
C4285 C 0.42772 0.37789 0.64644 0.0
C4286 C 0.42223 0.37686 0.63072 0.0
C4287 C 0.42816 0.36485 0.62815 0.0
C4288 C 0.4368 0.39175 0.64292 0.0
C4289 C 0.41605 0.37587 0.65924 0.0
C4290 C 0.41883 0.34169 0.58624 0.0
C4291 C 0.40955 0.3448 0.57293 0.0
C4292 C 0.40114 0.35751 0.56888 0.0
C4293 C 0.40181 0.36667 0.57793 0.0
C4294 C 0.41087 0.36313 0.59143 0.0
C4295 C 0.41925 0.35084 0.59526 0.0
C4296 C 0.42821 0.34858 0.61002 0.0
C4297 C 0.42372 0.36134 0.61464 0.0
C4298 C 0.41354 0.36998 0.60369 0.0
C4299 C 0.44365 0.34994 0.60463 0.0
C4300 C 0.42436 0.33359 0.62334 0.0
H4301 H 0.41167 0.4042 0.64003 0.0
H4302 H 0.37853 0.41789 0.59342 0.0
H4303 H 0.37763 0.38245 0.60966 0.0
H4304 H 0.38306 0.37553 0.59487 0.0
H4305 H 0.37483 0.39325 0.58837 0.0
H4306 H 0.41 0.40997 0.57949 0.0
H4307 H 0.39273 0.40952 0.57182 0.0
H4308 H 0.40551 0.3959 0.57251 0.0
H4309 H 0.44285 0.36556 0.67571 0.0
H4310 H 0.46188 0.33167 0.66223 0.0
H4311 H 0.44842 0.33965 0.63749 0.0
H4312 H 0.44732 0.39023 0.63851 0.0
H4313 H 0.43824 0.39425 0.65411 0.0
H4314 H 0.43254 0.40151 0.63303 0.0
H4315 H 0.41329 0.3641 0.66542 0.0
H4316 H 0.40619 0.38128 0.65378 0.0
H4317 H 0.41938 0.37995 0.66884 0.0
H4318 H 0.3958 0.42427 0.63553 0.0
C4319 C 0.40482 0.40688 0.6297 0.0
C4320 C 0.18348 0.52867 0.68956 0.0
C4321 C 0.19164 0.53337 0.6751 0.0
C4322 C 0.18618 0.544 0.66081 0.0
C4323 C 0.16562 0.54649 0.67539 0.0
C4324 C 0.17026 0.53526 0.68932 0.0
C4325 C 0.1597 0.53206 0.70312 0.0
H4326 H 0.0977 0.55276 0.72765 0.0
C4327 C 0.15243 0.55228 0.67907 0.0
C4328 C 0.14851 0.54373 0.69525 0.0
H4329 H 0.12457 0.51805 0.75784 0.0
H4330 H 0.1402 0.52229 0.73457 0.0
H4331 H 0.12157 0.57416 0.71539 0.0
H4332 H 0.09953 0.54755 0.69443 0.0
H4333 H 0.10207 0.56452 0.67839 0.0
H4334 H 0.09227 0.56372 0.69615 0.0
H4335 H 0.10492 0.57942 0.70579 0.0
H4336 H 0.12093 0.58476 0.69446 0.0
C4337 C 0.16677 0.53417 0.7178 0.0
C4338 C 0.15398 0.51647 0.70728 0.0
C4339 C 0.13431 0.60089 0.63831 0.0
C4340 C 0.12283 0.60972 0.63857 0.0
C4341 C 0.11299 0.60414 0.65126 0.0
C4342 C 0.11494 0.59052 0.6639 0.0
C4343 C 0.12683 0.58219 0.66394 0.0
C4344 C 0.13604 0.5872 0.65105 0.0
C4345 C 0.14778 0.57656 0.65291 0.0
C4346 C 0.14457 0.56484 0.66959 0.0
C4347 C 0.13231 0.56822 0.67591 0.0
C4348 C 0.16161 0.58465 0.65297 0.0
C4349 C 0.14647 0.57057 0.63896 0.0
C4350 C 0.10689 0.54594 0.72937 0.0
C4351 C 0.10979 0.53497 0.7446 0.0
C4352 C 0.12191 0.52638 0.74612 0.0
C4353 C 0.13107 0.52903 0.73268 0.0
C4354 C 0.12822 0.54061 0.71767 0.0
C4355 C 0.11621 0.54875 0.71644 0.0
C4356 C 0.11496 0.56138 0.70051 0.0
C4357 C 0.12785 0.55933 0.69184 0.0
C4358 C 0.13582 0.54715 0.70172 0.0
C4359 C 0.11552 0.57571 0.70408 0.0
C4360 C 0.10148 0.55935 0.69187 0.0
H4361 H 0.17008 0.55885 0.64961 0.0
H4362 H 0.18739 0.52039 0.70072 0.0
H4363 H 0.15045 0.51498 0.69597 0.0
H4364 H 0.14493 0.51417 0.71552 0.0
H4365 H 0.16215 0.50814 0.71314 0.0
H4366 H 0.17255 0.54471 0.71369 0.0
H4367 H 0.17428 0.52516 0.72386 0.0
H4368 H 0.15922 0.53459 0.72701 0.0
H4369 H 0.14206 0.60473 0.62876 0.0
H4370 H 0.1038 0.61041 0.65156 0.0
H4371 H 0.10719 0.58716 0.6733 0.0
H4372 H 0.1606 0.59146 0.66054 0.0
H4373 H 0.16449 0.59202 0.64038 0.0
H4374 H 0.17044 0.57723 0.6583 0.0
H4375 H 0.13579 0.57208 0.63367 0.0
H4376 H 0.14829 0.55859 0.64338 0.0
H4377 H 0.15376 0.57621 0.62879 0.0
H4378 H 0.19219 0.54771 0.6496 0.0
C4379 C 0.17331 0.55052 0.66086 0.0
C4380 C 0.37325 0.24902 0.31099 0.0
C4381 C 0.38643 0.24638 0.30555 0.0
C4382 C 0.3873 0.23593 0.29808 0.0
C4383 C 0.36226 0.23226 0.30019 0.0
C4384 C 0.36145 0.24176 0.30841 0.0
C4385 C 0.34676 0.24356 0.3133 0.0
H4386 H 0.27774 0.23164 0.30685 0.0
C4387 C 0.34794 0.22749 0.2983 0.0
C4388 C 0.33881 0.23407 0.30609 0.0
H4389 H 0.2963 0.2573 0.33185 0.0
H4390 H 0.31949 0.25062 0.32577 0.0
H4391 H 0.29736 0.24251 0.27667 0.0
H4392 H 0.29667 0.20495 0.32115 0.0
H4393 H 0.30458 0.19832 0.30738 0.0
H4394 H 0.28704 0.20549 0.30352 0.0
H4395 H 0.28573 0.22738 0.28037 0.0
H4396 H 0.30248 0.228 0.27101 0.0
C4397 C 0.34269 0.25994 0.30524 0.0
C4398 C 0.34598 0.2373 0.3322 0.0
C4399 C 0.33745 0.19825 0.26198 0.0
C4400 C 0.32464 0.19358 0.25765 0.0
C4401 C 0.3124 0.19526 0.26546 0.0
C4402 C 0.31256 0.20235 0.27641 0.0
C4403 C 0.32512 0.20776 0.27994 0.0
C4404 C 0.33743 0.20529 0.27331 0.0
C4405 C 0.34972 0.21154 0.27934 0.0
C4406 C 0.34249 0.21881 0.28982 0.0
C4407 C 0.3281 0.21649 0.2899 0.0
C4408 C 0.35715 0.22277 0.26433 0.0
C4409 C 0.35909 0.19864 0.28979 0.0
C4410 C 0.28682 0.23573 0.31108 0.0
C4411 C 0.28536 0.24495 0.31977 0.0
C4412 C 0.29733 0.25014 0.3251 0.0
C4413 C 0.31071 0.24629 0.32151 0.0
C4414 C 0.31204 0.2373 0.31234 0.0
C4415 C 0.30014 0.23209 0.30754 0.0
C4416 C 0.30321 0.22269 0.29801 0.0
C4417 C 0.31896 0.22307 0.29773 0.0
C4418 C 0.32419 0.23173 0.30594 0.0
C4419 C 0.29684 0.23037 0.28064 0.0
C4420 C 0.29754 0.20707 0.30787 0.0
H4421 H 0.37671 0.22134 0.28935 0.0
H4422 H 0.37194 0.25693 0.31671 0.0
H4423 H 0.35197 0.22688 0.3374 0.0
H4424 H 0.33528 0.23452 0.33681 0.0
H4425 H 0.35044 0.24512 0.33729 0.0
H4426 H 0.34708 0.26487 0.29269 0.0
H4427 H 0.34672 0.26625 0.31246 0.0
H4428 H 0.33137 0.2617 0.30364 0.0
H4429 H 0.34707 0.19696 0.25629 0.0
H4430 H 0.30251 0.19137 0.26277 0.0
H4431 H 0.30271 0.20369 0.28126 0.0
H4432 H 0.3494 0.2299 0.25554 0.0
H4433 H 0.36339 0.21713 0.25782 0.0
H4434 H 0.36404 0.23025 0.2675 0.0
H4435 H 0.35267 0.18909 0.29728 0.0
H4436 H 0.3655 0.20129 0.29872 0.0
H4437 H 0.36599 0.195 0.28193 0.0
H4438 H 0.39723 0.23311 0.29427 0.0
C4439 C 0.37534 0.22895 0.29532 0.0
C4440 C 0.62909 0.41587 0.10429 0.0
C4441 C 0.62865 0.42404 0.11452 0.0
C4442 C 0.61842 0.42071 0.12673 0.0
C4443 C 0.60986 0.40079 0.11939 0.0
C4444 C 0.6194 0.4044 0.10678 0.0
C4445 C 0.61784 0.39458 0.09706 0.0
H4446 H 0.58824 0.33294 0.09182 0.0
C4447 C 0.60191 0.38782 0.11966 0.0
C4448 C 0.60635 0.38407 0.10651 0.0
H4449 H 0.61797 0.36171 0.05843 0.0
H4450 H 0.61751 0.37769 0.07375 0.0
H4451 H 0.60156 0.33358 0.12518 0.0
H4452 H 0.56897 0.35882 0.09344 0.0
H4453 H 0.56376 0.35555 0.11357 0.0
H4454 H 0.56629 0.34026 0.10722 0.0
H4455 H 0.5851 0.32588 0.12298 0.0
H4456 H 0.5875 0.33461 0.13743 0.0
C4457 C 0.63179 0.38662 0.09764 0.0
C4458 C 0.61308 0.40419 0.07957 0.0
C4459 C 0.57015 0.36257 0.16817 0.0
C4460 C 0.56144 0.35015 0.17261 0.0
C4461 C 0.55997 0.3431 0.16131 0.0
C4462 C 0.56751 0.3477 0.14662 0.0
C4463 C 0.57653 0.35973 0.14278 0.0
C4464 C 0.57733 0.36723 0.15323 0.0
C4465 C 0.58667 0.38038 0.14665 0.0
C4466 C 0.59198 0.37903 0.13102 0.0
C4467 C 0.58609 0.36687 0.12883 0.0
C4468 C 0.59848 0.37856 0.1593 0.0
C4469 C 0.57752 0.39427 0.14294 0.0
C4470 C 0.59482 0.34256 0.08788 0.0
C4471 C 0.60333 0.34581 0.07397 0.0
C4472 C 0.61132 0.35881 0.06908 0.0
C4473 C 0.61113 0.36807 0.07807 0.0
C4474 C 0.60281 0.36444 0.09217 0.0
C4475 C 0.59465 0.35196 0.09662 0.0
C4476 C 0.58593 0.34999 0.11143 0.0
C4477 C 0.5904 0.36304 0.11549 0.0
C4478 C 0.6004 0.37157 0.10425 0.0
C4479 C 0.59009 0.33523 0.12502 0.0
C4480 C 0.5704 0.35108 0.10631 0.0
H4481 H 0.60187 0.40705 0.13908 0.0
H4482 H 0.6368 0.41831 0.0947 0.0
H4483 H 0.60482 0.41199 0.07996 0.0
H4484 H 0.60846 0.39774 0.07296 0.0
H4485 H 0.6219 0.4107 0.07231 0.0
H4486 H 0.63587 0.382 0.11037 0.0
H4487 H 0.6397 0.39429 0.08986 0.0
H4488 H 0.63083 0.3773 0.09365 0.0
H4489 H 0.57167 0.36847 0.17622 0.0
H4490 H 0.55294 0.33396 0.16371 0.0
H4491 H 0.56607 0.34163 0.13885 0.0
H4492 H 0.60165 0.36687 0.1652 0.0
H4493 H 0.59505 0.38232 0.16912 0.0
H4494 H 0.60812 0.38438 0.15382 0.0
H4495 H 0.56666 0.39237 0.13981 0.0
H4496 H 0.58113 0.40363 0.1321 0.0
H4497 H 0.57702 0.39763 0.15363 0.0
H4498 H 0.61792 0.42682 0.13472 0.0
C4499 C 0.60911 0.40918 0.12924 0.0
C4500 C 0.82234 0.52573 0.7742 0.0
C4501 C 0.82644 0.54062 0.76995 0.0
C4502 C 0.83981 0.54327 0.77493 0.0
C4503 C 0.84439 0.51734 0.78837 0.0
C4504 C 0.83162 0.51424 0.78322 0.0
C4505 C 0.83003 0.49772 0.78804 0.0
H4506 H 0.85833 0.42949 0.82493 0.0
C4507 C 0.85191 0.5035 0.79705 0.0
C4508 C 0.84434 0.49196 0.7954 0.0
H4509 H 0.83898 0.44413 0.77743 0.0
H4510 H 0.84009 0.46888 0.77624 0.0
H4511 H 0.8778 0.45072 0.80704 0.0
H4512 H 0.84852 0.45333 0.84261 0.0
H4513 H 0.86498 0.45907 0.84691 0.0
H4514 H 0.86299 0.44086 0.84693 0.0
H4515 H 0.88207 0.44385 0.82837 0.0
H4516 H 0.88561 0.46254 0.81504 0.0
C4517 C 0.82666 0.49418 0.77311 0.0
C4518 C 0.81856 0.49191 0.80103 0.0
C4519 C 0.89556 0.50449 0.82898 0.0
C4520 C 0.90479 0.49349 0.83861 0.0
C4521 C 0.90111 0.47868 0.84234 0.0
C4522 C 0.88881 0.47501 0.83628 0.0
C4523 C 0.88035 0.4862 0.82571 0.0
C4524 C 0.88369 0.50062 0.82238 0.0
C4525 C 0.87372 0.51108 0.81055 0.0
C4526 C 0.86388 0.5005 0.80721 0.0
C4527 C 0.8679 0.48599 0.81603 0.0
C4528 C 0.88191 0.52037 0.79493 0.0
C4529 C 0.86651 0.52003 0.81951 0.0
C4530 C 0.85251 0.43743 0.81509 0.0
C4531 C 0.84692 0.43387 0.80227 0.0
C4532 C 0.84197 0.4457 0.78838 0.0
C4533 C 0.84174 0.46019 0.78786 0.0
C4534 C 0.84584 0.46312 0.80157 0.0
C4535 C 0.85258 0.45201 0.81404 0.0
C4536 C 0.86327 0.45803 0.82224 0.0
C4537 C 0.86073 0.47434 0.81386 0.0
C4538 C 0.84971 0.47731 0.80265 0.0
C4539 C 0.87795 0.45354 0.81815 0.0
C4540 C 0.85989 0.45251 0.8407 0.0
H4541 H 0.85858 0.53494 0.78721 0.0
H4542 H 0.81233 0.52311 0.77036 0.0
H4543 H 0.82082 0.49479 0.81183 0.0
H4544 H 0.81783 0.47978 0.80524 0.0
H4545 H 0.80829 0.49666 0.79591 0.0
H4546 H 0.83567 0.49656 0.76463 0.0
H4547 H 0.81734 0.5003 0.76676 0.0
H4548 H 0.82383 0.48263 0.77714 0.0
H4549 H 0.89756 0.51597 0.8262 0.0
H4550 H 0.90789 0.46982 0.84949 0.0
H4551 H 0.88658 0.46358 0.83971 0.0
H4552 H 0.8913 0.51446 0.79324 0.0
H4553 H 0.88544 0.5309 0.79555 0.0
H4554 H 0.87582 0.52263 0.78357 0.0
H4555 H 0.86391 0.51287 0.8323 0.0
H4556 H 0.85652 0.52493 0.81396 0.0
H4557 H 0.87343 0.52889 0.82001 0.0
H4558 H 0.84386 0.55429 0.77131 0.0
C4559 C 0.84862 0.53189 0.78405 0.0
C4560 C 0.68104 0.20097 0.75997 0.0
C4561 C 0.69401 0.19655 0.7557 0.0
C4562 C 0.70622 0.19944 0.76275 0.0
C4563 C 0.693 0.2121 0.77668 0.0
C4564 C 0.6808 0.20869 0.77064 0.0
C4565 C 0.66824 0.21433 0.77691 0.0
H4566 H 0.64334 0.25808 0.81514 0.0
C4567 C 0.68962 0.22072 0.78668 0.0
C4568 C 0.67515 0.22209 0.78712 0.0
H4569 H 0.61992 0.23203 0.79378 0.0
H4570 H 0.64113 0.22208 0.78798 0.0
H4571 H 0.6651 0.2295 0.83519 0.0
H4572 H 0.66893 0.26741 0.79012 0.0
H4573 H 0.68397 0.26537 0.80231 0.0
H4574 H 0.66755 0.26907 0.8097 0.0
H4575 H 0.66607 0.24777 0.83508 0.0
H4576 H 0.68153 0.23767 0.83426 0.0
C4577 C 0.65954 0.20098 0.78764 0.0
C4578 C 0.66023 0.22511 0.76204 0.0
C4579 C 0.72991 0.24171 0.8072 0.0
C4580 C 0.73114 0.25067 0.81624 0.0
C4581 C 0.71903 0.25485 0.82242 0.0
C4582 C 0.70576 0.25052 0.81896 0.0
C4583 C 0.7047 0.24191 0.8093 0.0
C4584 C 0.71677 0.23748 0.80396 0.0
C4585 C 0.71413 0.22809 0.79434 0.0
C4586 C 0.69841 0.22769 0.79442 0.0
C4587 C 0.69279 0.23588 0.80299 0.0
C4588 C 0.72057 0.21273 0.80395 0.0
C4589 C 0.72004 0.23618 0.77684 0.0
C4590 C 0.64268 0.25008 0.80944 0.0
C4591 C 0.62974 0.2464 0.80438 0.0
C4592 C 0.62962 0.23574 0.79716 0.0
C4593 C 0.64199 0.22979 0.7939 0.0
C4594 C 0.65478 0.2342 0.7982 0.0
C4595 C 0.65498 0.24374 0.80641 0.0
C4596 C 0.66958 0.24636 0.81101 0.0
C4597 C 0.67807 0.2374 0.80353 0.0
C4598 C 0.6693 0.23037 0.79586 0.0
C4599 C 0.67071 0.24012 0.82988 0.0
C4600 C 0.67275 0.26293 0.80298 0.0
H4601 H 0.71562 0.20942 0.77728 0.0
H4602 H 0.67142 0.19881 0.75487 0.0
H4603 H 0.66756 0.23287 0.75329 0.0
H4604 H 0.65267 0.23194 0.76538 0.0
H4605 H 0.65459 0.21913 0.75542 0.0
H4606 H 0.66636 0.1914 0.79414 0.0
H4607 H 0.65205 0.1976 0.78011 0.0
H4608 H 0.65386 0.20301 0.79748 0.0
H4609 H 0.73908 0.23822 0.80246 0.0
H4610 H 0.71981 0.2618 0.82944 0.0
H4611 H 0.69685 0.25423 0.82367 0.0
H4612 H 0.7216 0.21056 0.81724 0.0
H4613 H 0.73111 0.21171 0.79934 0.0
H4614 H 0.71394 0.20367 0.80355 0.0
H4615 H 0.71899 0.24827 0.77302 0.0
H4616 H 0.7144 0.23365 0.76729 0.0
H4617 H 0.73125 0.23369 0.77626 0.0
H4618 H 0.71627 0.1958 0.7602 0.0
C4619 C 0.7058 0.20727 0.77296 0.0
C4620 C 0.38578 0.59654 0.90971 0.0
C4621 C 0.38572 0.58896 0.89883 0.0
C4622 C 0.39564 0.59289 0.88617 0.0
C4623 C 0.40453 0.61229 0.89417 0.0
C4624 C 0.39527 0.60822 0.9071 0.0
C4625 C 0.39649 0.61823 0.91663 0.0
H4626 H 0.42575 0.67932 0.92324 0.0
C4627 C 0.41228 0.62541 0.89385 0.0
C4628 C 0.40768 0.62907 0.90699 0.0
H4629 H 0.39422 0.65121 0.95436 0.0
H4630 H 0.39534 0.63551 0.93895 0.0
H4631 H 0.44497 0.65303 0.92 0.0
H4632 H 0.41245 0.68021 0.88996 0.0
H4633 H 0.4254 0.67842 0.87682 0.0
H4634 H 0.42954 0.68719 0.89094 0.0
H4635 H 0.44714 0.67231 0.90867 0.0
H4636 H 0.45028 0.65904 0.89944 0.0
C4637 C 0.40144 0.60894 0.93413 0.0
C4638 C 0.38227 0.6258 0.91597 0.0
C4639 C 0.44568 0.6499 0.84673 0.0
C4640 C 0.45399 0.66261 0.8421 0.0
C4641 C 0.45427 0.67056 0.85255 0.0
C4642 C 0.44628 0.66619 0.86695 0.0
C4643 C 0.43784 0.65364 0.87117 0.0
C4644 C 0.43783 0.64564 0.8612 0.0
C4645 C 0.42831 0.63262 0.86748 0.0
C4646 C 0.42234 0.63425 0.88268 0.0
C4647 C 0.42796 0.64656 0.88485 0.0
C4648 C 0.43737 0.6186 0.87192 0.0
C4649 C 0.41699 0.63435 0.85428 0.0
C4650 C 0.4189 0.66994 0.92671 0.0
C4651 C 0.40985 0.66675 0.9402 0.0
C4652 C 0.40146 0.65405 0.94427 0.0
C4653 C 0.40199 0.64493 0.93515 0.0
C4654 C 0.41086 0.64851 0.92155 0.0
C4655 C 0.41919 0.66081 0.91763 0.0
C4656 C 0.42791 0.66311 0.9027 0.0
C4657 C 0.42345 0.65028 0.89822 0.0
C4658 C 0.41341 0.64162 0.9093 0.0
C4659 C 0.44342 0.66194 0.90782 0.0
C4660 C 0.42376 0.67803 0.88937 0.0
H4661 H 0.41197 0.60685 0.8737 0.0
H4662 H 0.37828 0.59383 0.91955 0.0
H4663 H 0.37762 0.62913 0.90353 0.0
H4664 H 0.38307 0.63598 0.91839 0.0
H4665 H 0.37485 0.6183 0.92481 0.0
H4666 H 0.41006 0.60151 0.93378 0.0
H4667 H 0.39284 0.60207 0.94145 0.0
H4668 H 0.40564 0.61566 0.94068 0.0
H4669 H 0.44493 0.64353 0.83906 0.0
H4670 H 0.46072 0.6802 0.84966 0.0
H4671 H 0.44691 0.67283 0.87421 0.0
H4672 H 0.44759 0.62009 0.87705 0.0
H4673 H 0.43946 0.6159 0.86098 0.0
H4674 H 0.43272 0.60898 0.88158 0.0
H4675 H 0.41485 0.64611 0.84693 0.0
H4676 H 0.40679 0.62988 0.85954 0.0
H4677 H 0.42029 0.62912 0.84566 0.0
H4678 H 0.39601 0.58717 0.87779 0.0
C4679 C 0.40496 0.60438 0.88381 0.0
C4680 C 0.19985 0.4932 0.25176 0.0
C4681 C 0.19656 0.47389 0.26032 0.0
C4682 C 0.17907 0.46813 0.26244 0.0
C4683 C 0.16872 0.49901 0.24729 0.0
C4684 C 0.18496 0.50562 0.24515 0.0
C4685 C 0.18244 0.52123 0.24676 0.0
H4686 H 0.1456 0.58495 0.20101 0.0
C4687 C 0.16029 0.5121 0.23797 0.0
C4688 C 0.16805 0.52504 0.23637 0.0
H4689 H 0.18628 0.58372 0.2215 0.0
H4690 H 0.1876 0.55851 0.2281 0.0
H4691 H 0.1612 0.56573 0.18413 0.0
H4692 H 0.1297 0.55891 0.22016 0.0
H4693 H 0.12393 0.54967 0.20768 0.0
H4694 H 0.12755 0.56884 0.19856 0.0
H4695 H 0.14327 0.56728 0.17847 0.0
H4696 H 0.15284 0.55024 0.18343 0.0
C4697 C 0.19296 0.52827 0.23141 0.0
C4698 C 0.18568 0.52286 0.28078 0.0
C4699 C 0.1183 0.50533 0.20511 0.0
C4700 C 0.11182 0.51532 0.19082 0.0
C4701 C 0.11761 0.52933 0.18325 0.0
C4702 C 0.12816 0.53408 0.19073 0.0
C4703 C 0.13378 0.52455 0.20555 0.0
C4704 C 0.12963 0.51016 0.21198 0.0
C4705 C 0.13897 0.5012 0.22604 0.0
C4706 C 0.14872 0.51306 0.22743 0.0
C4707 C 0.14497 0.52668 0.21574 0.0
C4708 C 0.14641 0.4898 0.22072 0.0
C4709 C 0.13017 0.49419 0.24161 0.0
C4710 C 0.1546 0.57917 0.20769 0.0
C4711 C 0.16547 0.58668 0.21186 0.0
C4712 C 0.17732 0.57843 0.21904 0.0
C4713 C 0.17797 0.56326 0.22311 0.0
C4714 C 0.1663 0.55541 0.22117 0.0
C4715 C 0.15546 0.56386 0.21207 0.0
C4716 C 0.1466 0.55528 0.20515 0.0
C4717 C 0.15127 0.53973 0.21528 0.0
C4718 C 0.16301 0.53931 0.22498 0.0
C4719 C 0.15106 0.55986 0.18687 0.0
C4720 C 0.13112 0.55829 0.20791 0.0
H4721 H 0.15514 0.47621 0.25688 0.0
H4722 H 0.21042 0.49717 0.25082 0.0
H4723 H 0.17703 0.51995 0.29004 0.0
H4724 H 0.18844 0.53342 0.28236 0.0
H4725 H 0.19367 0.51594 0.28982 0.0
H4726 H 0.1936 0.54003 0.22623 0.0
H4727 H 0.18987 0.52618 0.22019 0.0
H4728 H 0.20375 0.5239 0.23391 0.0
H4729 H 0.11448 0.49426 0.21099 0.0
H4730 H 0.11359 0.53701 0.17175 0.0
H4731 H 0.13105 0.54523 0.1848 0.0
H4732 H 0.15407 0.49522 0.21088 0.0
H4733 H 0.13883 0.48386 0.21591 0.0
H4734 H 0.1517 0.48122 0.23083 0.0
H4735 H 0.12287 0.50237 0.24313 0.0
H4736 H 0.13675 0.49023 0.25272 0.0
H4737 H 0.12398 0.48488 0.241 0.0
H4738 H 0.17652 0.45678 0.26532 0.0
C4739 C 0.16555 0.48049 0.25575 0.0
C4740 C 0.37302 0.76099 0.20912 0.0
C4741 C 0.38614 0.76372 0.21464 0.0
C4742 C 0.38671 0.77372 0.22275 0.0
C4743 C 0.36159 0.77711 0.22055 0.0
C4744 C 0.36104 0.76786 0.21198 0.0
C4745 C 0.34643 0.76588 0.20696 0.0
H4746 H 0.27734 0.77832 0.21137 0.0
C4747 C 0.34713 0.78176 0.22227 0.0
C4748 C 0.33823 0.77515 0.21423 0.0
H4749 H 0.29639 0.75197 0.18734 0.0
H4750 H 0.31934 0.7581 0.19454 0.0
H4751 H 0.29604 0.7675 0.24219 0.0
H4752 H 0.29614 0.80438 0.1971 0.0
H4753 H 0.30411 0.81134 0.21056 0.0
H4754 H 0.28645 0.80457 0.21435 0.0
H4755 H 0.28439 0.78278 0.23757 0.0
H4756 H 0.30083 0.78223 0.24763 0.0
C4757 C 0.34263 0.74944 0.21487 0.0
C4758 C 0.34564 0.77225 0.18807 0.0
C4759 C 0.33516 0.81238 0.2569 0.0
C4760 C 0.32218 0.81772 0.26003 0.0
C4761 C 0.31029 0.81583 0.25177 0.0
C4762 C 0.31088 0.80796 0.24165 0.0
C4763 C 0.32357 0.80209 0.23919 0.0
C4764 C 0.33561 0.80468 0.24621 0.0
C4765 C 0.34817 0.79814 0.24094 0.0
C4766 C 0.34136 0.7906 0.23042 0.0
C4767 C 0.32696 0.793 0.22976 0.0
C4768 C 0.35526 0.78709 0.25636 0.0
C4769 C 0.35773 0.81087 0.2307 0.0
C4770 C 0.28639 0.77398 0.20739 0.0
C4771 C 0.28499 0.76474 0.19869 0.0
C4772 C 0.29716 0.7591 0.19416 0.0
C4773 C 0.31047 0.76268 0.19833 0.0
C4774 C 0.31161 0.77189 0.20725 0.0
C4775 C 0.29961 0.77738 0.21145 0.0
C4776 C 0.30238 0.78697 0.22078 0.0
C4777 C 0.31809 0.78635 0.22176 0.0
C4778 C 0.32359 0.77748 0.21396 0.0
C4779 C 0.29553 0.77967 0.2379 0.0
C4780 C 0.29695 0.80261 0.21031 0.0
H4781 H 0.37572 0.7876 0.23221 0.0
H4782 H 0.37189 0.75332 0.20304 0.0
H4783 H 0.35115 0.78295 0.18301 0.0
H4784 H 0.33488 0.77452 0.18341 0.0
H4785 H 0.35061 0.76473 0.1829 0.0
H4786 H 0.34731 0.74438 0.22729 0.0
H4787 H 0.34655 0.74333 0.20739 0.0
H4788 H 0.33135 0.74755 0.21675 0.0
H4789 H 0.34456 0.81379 0.26294 0.0
H4790 H 0.3003 0.82024 0.25337 0.0
H4791 H 0.3012 0.80652 0.2365 0.0
H4792 H 0.34737 0.77987 0.26474 0.0
H4793 H 0.36096 0.79287 0.26315 0.0
H4794 H 0.3626 0.77973 0.25358 0.0
H4795 H 0.35146 0.82022 0.22242 0.0
H4796 H 0.36476 0.80784 0.22259 0.0
H4797 H 0.36402 0.81491 0.23873 0.0
H4798 H 0.39656 0.77653 0.22678 0.0
C4799 C 0.37456 0.78031 0.2258 0.0
C4800 C 0.09879 0.27635 0.26168 0.0
C4801 C 0.1127 0.27892 0.25667 0.0
H4802 H 0.07763 0.27562 0.25433 0.0
C4803 C 0.1161 0.28206 0.24021 0.0
H4804 H 0.096 0.27368 0.27437 0.0
C4805 C 0.10565 0.28318 0.22878 0.0
C4806 C 0.09166 0.28111 0.23368 0.0
H4807 H 0.12679 0.28413 0.23612 0.0
H4808 H 0.10844 0.28633 0.21602 0.0
C4809 C 0.08835 0.27737 0.25027 0.0
C4810 C 0.88007 0.89025 0.4487 0.0
C4811 C 0.87713 0.8995 0.45719 0.0
H4812 H 0.88835 0.86975 0.4497 0.0
C4813 C 0.8815 0.89518 0.47357 0.0
H4814 H 0.8769 0.89328 0.43605 0.0
C4815 C 0.88803 0.88154 0.48149 0.0
C4816 C 0.89053 0.87211 0.47308 0.0
H4817 H 0.87933 0.90204 0.48045 0.0
H4818 H 0.89096 0.87829 0.49424 0.0
C4819 C 0.8867 0.87678 0.45651 0.0
C4820 C 0.35931 0.61 0.59434 0.0
C4821 C 0.35446 0.60307 0.58404 0.0
H4822 H 0.3696 0.62867 0.5961 0.0
C4823 C 0.35659 0.60988 0.56711 0.0
H4824 H 0.35799 0.60482 0.60746 0.0
C4825 C 0.3633 0.62347 0.56055 0.0
C4826 C 0.36818 0.63054 0.57079 0.0
H4827 H 0.35312 0.60462 0.55895 0.0
H4828 H 0.36487 0.62831 0.54746 0.0
C4829 C 0.36612 0.62357 0.58781 0.0
C4830 C 0.59366 0.2127 0.76756 0.0
C4831 C 0.59477 0.22165 0.75094 0.0
H4832 H 0.58258 0.20826 0.79 0.0
C4833 C 0.58602 0.23393 0.74439 0.0
H4834 H 0.60009 0.20299 0.77273 0.0
C4835 C 0.57591 0.23685 0.75422 0.0
C4836 C 0.57454 0.22758 0.7707 0.0
H4837 H 0.58656 0.24078 0.73152 0.0
H4838 H 0.56881 0.24597 0.74885 0.0
C4839 C 0.58367 0.21568 0.77738 0.0
C4840 C 0.10634 0.74195 0.26359 0.0
C4841 C 0.11128 0.72976 0.26045 0.0
H4842 H 0.09223 0.74976 0.27745 0.0
C4843 C 0.10585 0.71585 0.26949 0.0
H4844 H 0.11029 0.75283 0.2568 0.0
C4845 C 0.09554 0.71417 0.28109 0.0
C4846 C 0.09041 0.72634 0.284 0.0
H4847 H 0.10969 0.70616 0.26778 0.0
H4848 H 0.0916 0.70327 0.28789 0.0
C4849 C 0.09603 0.74024 0.27537 0.0
C4850 C 0.5924 0.7768 0.7678 0.0
C4851 C 0.59405 0.79095 0.76819 0.0
H4852 H 0.58131 0.76321 0.75755 0.0
C4853 C 0.58563 0.80235 0.75787 0.0
H4854 H 0.5986 0.76769 0.77565 0.0
C4855 C 0.5757 0.7997 0.74777 0.0
C4856 C 0.57394 0.78561 0.74754 0.0
H4857 H 0.58681 0.81345 0.75739 0.0
H4858 H 0.56936 0.80876 0.74002 0.0
C4859 C 0.58251 0.77419 0.75747 0.0
C4860 C 0.36219 0.40535 0.9186 0.0
C4861 C 0.35479 0.40931 0.93001 0.0
H4862 H 0.37548 0.38982 0.9143 0.0
C4863 C 0.35552 0.40016 0.94662 0.0
H4864 H 0.36188 0.41229 0.90574 0.0
C4865 C 0.36375 0.3874 0.95174 0.0
C4866 C 0.37138 0.38346 0.94032 0.0
H4867 H 0.35007 0.40313 0.95569 0.0
H4868 H 0.36441 0.3809 0.9647 0.0
C4869 C 0.3702 0.39254 0.92363 0.0
C4870 C 0.87922 0.12185 0.06005 0.0
C4871 C 0.87769 0.11343 0.0503 0.0
H4872 H 0.88609 0.14214 0.06135 0.0
C4873 C 0.88211 0.11943 0.0339 0.0
H4874 H 0.87607 0.11748 0.07276 0.0
C4875 C 0.88777 0.13353 0.02736 0.0
C4876 C 0.88935 0.14192 0.03711 0.0
H4877 H 0.88104 0.11325 0.02605 0.0
H4878 H 0.89101 0.13785 0.01468 0.0
C4879 C 0.8851 0.13589 0.05357 0.0
C4880 C 0.20187 0.3231 0.2777 0.0
C4881 C 0.21162 0.31732 0.2905 0.0
H4882 H 0.19252 0.32142 0.25636 0.0
C4883 C 0.21886 0.30448 0.29203 0.0
H4884 H 0.19581 0.33275 0.27644 0.0
C4885 C 0.21669 0.29785 0.28074 0.0
C4886 C 0.2073 0.30392 0.26765 0.0
H4887 H 0.22633 0.29967 0.30179 0.0
H4888 H 0.22255 0.28805 0.28208 0.0
C4889 C 0.19974 0.31647 0.26638 0.0
C4890 C 0.04842 0.83124 0.73693 0.0
C4891 C 0.03748 0.82106 0.73951 0.0
H4892 H 0.06398 0.8444 0.72045 0.0
C4893 C 0.03412 0.81649 0.72658 0.0
H4894 H 0.05136 0.83516 0.74644 0.0
C4895 C 0.04091 0.82223 0.71153 0.0
C4896 C 0.05185 0.83236 0.70885 0.0
H4897 H 0.02613 0.80839 0.72795 0.0
H4898 H 0.03738 0.81871 0.70193 0.0
C4899 C 0.05554 0.83677 0.72185 0.0
C4900 C 0.38581 0.84444 0.93353 0.0
C4901 C 0.37742 0.83605 0.94671 0.0
H4902 H 0.3887 0.86457 0.91335 0.0
C4903 C 0.36472 0.84193 0.9492 0.0
H4904 H 0.39567 0.84014 0.93134 0.0
C4905 C 0.36035 0.85578 0.93842 0.0
C4906 C 0.36875 0.86433 0.92513 0.0
H4907 H 0.35794 0.83558 0.95911 0.0
H4908 H 0.35017 0.85951 0.94039 0.0
C4909 C 0.38166 0.85843 0.92304 0.0
C4910 C 0.4886 0.03857 0.32153 0.0
C4911 C 0.50017 0.02925 0.32371 0.0
H4912 H 0.46684 0.04186 0.31641 0.0
C4913 C 0.49803 0.01536 0.32303 0.0
H4914 H 0.48972 0.04935 0.32201 0.0
C4915 C 0.48518 0.0115 0.31862 0.0
C4916 C 0.47363 0.02096 0.31577 0.0
H4917 H 0.50646 0.00754 0.3253 0.0
H4918 H 0.48466 1.00118 0.31694 0.0
C4919 C 0.47545 0.03438 0.31787 0.0
C4920 C 0.20095 0.68855 0.23751 0.0
C4921 C 0.21166 0.69354 0.22577 0.0
H4922 H 0.19049 0.691 0.25794 0.0
C4923 C 0.21985 0.70538 0.22571 0.0
H4924 H 0.19412 0.67975 0.23768 0.0
C4925 C 0.21734 0.71215 0.23676 0.0
C4926 C 0.20688 0.70703 0.24868 0.0
H4927 H 0.22822 0.70959 0.21701 0.0
H4928 H 0.22375 0.72142 0.23602 0.0
C4929 C 0.1986 0.69522 0.24887 0.0
C4930 C 0.49153 0.97409 0.19352 0.0
C4931 C 0.50276 0.98392 0.19028 0.0
H4932 H 0.4702 0.96999 0.20017 0.0
C4933 C 0.50045 0.99776 0.191 0.0
H4934 H 0.49278 0.9633 0.19313 0.0
C4935 C 0.4879 1.00108 0.19654 0.0
C4936 C 0.47668 0.99118 0.20025 0.0
H4937 H 0.50855 1.00597 0.18792 0.0
H4938 H 0.48737 0.01136 0.19827 0.0
C4939 C 0.47857 0.9778 0.1981 0.0
C4940 C 0.38656 0.1653 0.57909 0.0
C4941 C 0.37718 0.17449 0.56758 0.0
H4942 H 0.39005 0.1445 0.59832 0.0
C4943 C 0.36358 0.1696 0.56699 0.0
H4944 H 0.39706 0.16897 0.57989 0.0
C4945 C 0.35939 0.15576 0.57784 0.0
C4946 C 0.36876 0.14639 0.58942 0.0
H4947 H 0.35609 0.17666 0.55846 0.0
H4948 H 0.34866 0.1526 0.57738 0.0
C4949 C 0.38245 0.15136 0.5898 0.0
C4950 C 0.04629 0.20028 0.78223 0.0
C4951 C 0.04064 0.19102 0.77494 0.0
H4952 H 0.05709 0.20219 0.80249 0.0
C4953 C 0.04219 0.17579 0.78317 0.0
H4954 H 0.04556 0.21207 0.77613 0.0
C4955 C 0.04854 0.16999 0.7987 0.0
C4956 C 0.05368 0.17929 0.80633 0.0
H4957 H 0.03792 0.16832 0.77796 0.0
H4958 H 0.04891 0.15821 0.80492 0.0
C4959 C 0.05281 0.19454 0.79754 0.0
C4960 C 0.94207 0.5258 0.66433 0.0
C4961 C 0.94634 0.51174 0.66559 0.0
H4962 H 0.92599 0.53913 0.66787 0.0
C4963 C 0.9363 0.50053 0.66957 0.0
H4964 H 0.94932 0.53485 0.66089 0.0
C4965 C 0.92253 0.50321 0.67279 0.0
C4966 C 0.91851 0.51709 0.67241 0.0
H4967 H 0.93914 0.48952 0.67083 0.0
H4968 H 0.91512 0.49433 0.67582 0.0
C4969 C 0.92848 0.52835 0.66802 0.0
C4970 C 0.88141 0.6477 0.10248 0.0
C4971 C 0.89444 0.65423 0.10173 0.0
H4972 H 0.86875 0.62892 0.1139 0.0
C4973 C 0.90526 0.64609 0.11177 0.0
H4974 H 0.87283 0.65391 0.09511 0.0
C4975 C 0.90314 0.63151 0.12224 0.0
C4976 C 0.89002 0.62488 0.12316 0.0
H4977 H 0.91538 0.65101 0.11147 0.0
H4978 H 0.91183 0.62548 0.12947 0.0
C4979 C 0.87915 0.6333 0.11323 0.0
C4980 C 0.55007 0.66854 0.30066 0.0
C4981 C 0.53896 0.67847 0.29842 0.0
H4982 H 0.56632 0.65604 0.31632 0.0
C4983 C 0.53584 0.68309 0.31136 0.0
H4984 H 0.55281 0.66457 0.29114 0.0
C4985 C 0.54313 0.67763 0.32616 0.0
C4986 C 0.55429 0.66777 0.32847 0.0
H4987 H 0.5277 0.69102 0.31018 0.0
H4988 H 0.53976 0.68115 0.33581 0.0
C4989 C 0.55769 0.66338 0.31538 0.0
C4990 C 0.88103 0.36399 0.40679 0.0
C4991 C 0.89433 0.3589 0.41289 0.0
H4992 H 0.86867 0.38204 0.39165 0.0
C4993 C 0.90569 0.36854 0.40803 0.0
H4994 H 0.87213 0.35674 0.41027 0.0
C4995 C 0.90376 0.38305 0.39713 0.0
C4996 C 0.89038 0.38816 0.39123 0.0
H4997 H 0.91607 0.36477 0.41241 0.0
H4998 H 0.91263 0.39033 0.39355 0.0
C4999 C 0.87907 0.37845 0.39615 0.0
C5000 C 0.68842 0.8405 0.78535 0.0
C5001 C 0.69887 0.83484 0.79755 0.0
H5002 H 0.67817 0.83924 0.7642 0.0
C5003 C 0.70773 0.82392 0.79608 0.0
H5004 H 0.68131 0.849 0.78526 0.0
C5005 C 0.70562 0.81826 0.78396 0.0
C5006 C 0.69486 0.82347 0.77248 0.0
H5007 H 0.71612 0.81906 0.80446 0.0
H5008 H 0.7124 0.80951 0.78377 0.0
C5009 C 0.68635 0.83475 0.77316 0.0
C5010 C 0.90644 0.71642 0.77848 0.0
C5011 C 0.90485 0.72823 0.76354 0.0
H5012 H 0.91842 0.7071 0.80045 0.0
C5013 C 0.91321 0.74071 0.76003 0.0
H5014 H 0.90021 0.70662 0.78124 0.0
C5015 C 0.92365 0.74099 0.77104 0.0
C5016 C 0.92578 0.72872 0.78546 0.0
H5017 H 0.9122 0.74982 0.74842 0.0
H5018 H 0.93051 0.75036 0.7679 0.0
C5019 C 0.91685 0.71666 0.78936 0.0
C5020 C 0.13076 0.11678 0.53871 0.0
C5021 C 0.13688 0.11215 0.55439 0.0
H5022 H 0.12064 0.13418 0.51923 0.0
C5023 C 0.13727 0.12206 0.56248 0.0
H5024 H 0.13035 0.10948 0.53207 0.0
C5025 C 0.13154 0.13614 0.55516 0.0
C5026 C 0.12553 0.14071 0.53948 0.0
H5027 H 0.14178 0.11884 0.57459 0.0
H5028 H 0.13193 0.14354 0.56168 0.0
C5029 C 0.12525 0.13092 0.5313 0.0
C5030 C 0.65854 0.40178 0.41952 0.0
C5031 C 0.66081 0.4107 0.4286 0.0
H5032 H 0.65007 0.38163 0.41931 0.0
C5033 C 0.65626 0.40562 0.44496 0.0
H5034 H 0.66178 0.40538 0.40687 0.0
C5035 C 0.6496 0.39208 0.45205 0.0
C5036 C 0.6472 0.38325 0.44296 0.0
H5037 H 0.65791 0.41211 0.45239 0.0
H5038 H 0.64617 0.38858 0.46464 0.0
C5039 C 0.6517 0.38826 0.42659 0.0
C5040 C 0.43287 0.8017 0.25661 0.0
C5041 C 0.42288 0.79119 0.26498 0.0
H5042 H 0.45047 0.80705 0.24085 0.0
C5043 C 0.42275 0.77771 0.26282 0.0
H5044 H 0.43301 0.81235 0.2576 0.0
C5045 C 0.43296 0.77459 0.25312 0.0
C5046 C 0.4434 0.78492 0.24552 0.0
H5047 H 0.41509 0.76946 0.26903 0.0
H5048 H 0.43296 0.76401 0.25198 0.0
C5049 C 0.44293 0.79863 0.24704 0.0
C5050 C 0.90637 0.29877 0.73633 0.0
C5051 C 0.90331 0.28635 0.75021 0.0
H5052 H 0.91924 0.30806 0.71524 0.0
C5053 C 0.90978 0.27294 0.75241 0.0
H5054 H 0.90152 0.30922 0.7345 0.0
C5055 C 0.91999 0.27226 0.74133 0.0
C5056 C 0.92372 0.28502 0.72812 0.0
H5057 H 0.90758 0.26328 0.76315 0.0
H5058 H 0.92554 0.2621 0.74361 0.0
C5059 C 0.91648 0.29811 0.72538 0.0
C5060 C 0.41954 0.22605 0.26205 0.0
C5061 C 0.42317 0.22552 0.24682 0.0
H5062 H 0.42674 0.22848 0.28393 0.0
C5063 C 0.43673 0.22959 0.2409 0.0
H5064 H 0.40917 0.22301 0.26694 0.0
C5065 C 0.44675 0.23281 0.25053 0.0
C5066 C 0.44354 0.23194 0.26643 0.0
H5067 H 0.43978 0.22965 0.22905 0.0
H5068 H 0.4572 0.23535 0.24575 0.0
C5069 C 0.42964 0.2292 0.27178 0.0
C5070 C 0.6556 0.60665 0.07093 0.0
C5071 C 0.66002 0.6013 0.08738 0.0
H5072 H 0.64558 0.62391 0.05133 0.0
C5073 C 0.65756 0.60998 0.09668 0.0
H5074 H 0.65739 0.60036 0.06332 0.0
C5075 C 0.65072 0.62355 0.08975 0.0
C5076 C 0.64634 0.62883 0.0733 0.0
H5077 H 0.6607 0.60618 0.10941 0.0
H5078 H 0.64899 0.62999 0.09721 0.0
C5079 C 0.6489 0.62022 0.06399 0.0
C5080 C 0.13139 0.89494 0.9781 0.0
C5081 C 0.13693 0.89977 0.96216 0.0
H5082 H 0.12158 0.87748 0.99767 0.0
C5083 C 0.13663 0.89016 0.95369 0.0
H5084 H 0.13152 0.902 0.98502 0.0
C5085 C 0.13078 0.87616 0.96091 0.0
C5086 C 0.12533 0.87138 0.97686 0.0
H5087 H 0.14068 0.89357 0.94137 0.0
H5088 H 0.13066 0.86899 0.95411 0.0
C5089 C 0.12575 0.88088 0.98539 0.0
C5090 C 0.79651 0.7056 0.72659 0.0
C5091 C 0.80378 0.69297 0.72746 0.0
H5092 H 0.79219 0.72093 0.73785 0.0
C5093 C 0.81236 0.68585 0.74111 0.0
H5094 H 0.78995 0.71138 0.71615 0.0
C5095 C 0.81426 0.69181 0.75317 0.0
C5096 C 0.80714 0.70462 0.75206 0.0
H5097 H 0.81806 0.67606 0.74207 0.0
H5098 H 0.82114 0.68637 0.7634 0.0
C5099 C 0.798 0.71119 0.73887 0.0
C5100 C 0.975 0.17774 0.28252 0.0
C5101 C 0.97447 0.19268 0.27246 0.0
H5102 H 0.96927 0.161 0.30542 0.0
C5103 C 0.9672 0.2023 0.27801 0.0
H5104 H 0.98038 0.17006 0.27841 0.0
C5105 C 0.9607 0.19714 0.29337 0.0
C5106 C 0.96127 0.18218 0.30363 0.0
H5107 H 0.96641 0.21381 0.27036 0.0
H5108 H 0.95502 0.20489 0.29707 0.0
C5109 C 0.96849 0.17255 0.29792 0.0
C5110 C 0.62463 0.1635 0.07791 0.0
C5111 C 0.63518 0.17332 0.06962 0.0
H5112 H 0.61961 0.14268 0.09641 0.0
C5113 C 0.64914 0.169 0.07315 0.0
H5114 H 0.61379 0.16663 0.07557 0.0
C5115 C 0.65249 0.15527 0.08501 0.0
C5116 C 0.64195 0.14566 0.09383 0.0
H5117 H 0.65747 0.1764 0.06698 0.0
H5118 H 0.66335 0.15242 0.08774 0.0
C5119 C 0.62798 0.14987 0.08996 0.0
C5120 C 0.51675 0.99545 0.69665 0.0
C5121 C 0.51447 0.98157 0.69606 0.0
H5122 H 0.5298 0.00928 0.70352 0.0
C5123 C 0.52579 0.97179 0.69933 0.0
H5124 H 0.50859 1.00364 0.69353 0.0
C5125 C 0.53877 0.97558 0.70384 0.0
C5126 C 0.54067 0.98903 0.70588 0.0
H5127 H 0.52458 0.96097 0.69901 0.0
H5128 H 0.54714 0.96775 0.70595 0.0
C5129 C 0.52936 0.99891 0.70202 0.0
C5130 C 0.8114 0.32733 0.77467 0.0
C5131 C 0.80304 0.31982 0.78835 0.0
H5132 H 0.82051 0.32715 0.75241 0.0
C5133 C 0.79679 0.30661 0.78952 0.0
H5134 H 0.81642 0.3375 0.77357 0.0
C5135 C 0.79902 0.30085 0.77752 0.0
C5136 C 0.8078 0.30796 0.76418 0.0
H5137 H 0.79042 0.30053 0.8 0.0
H5138 H 0.79396 0.29068 0.77871 0.0
C5139 C 0.81394 0.32132 0.76277 0.0
C5140 C 0.52518 0.03949 0.81944 0.0
C5141 C 0.51387 0.02985 0.82187 0.0
H5142 H 0.5467 0.04338 0.81393 0.0
C5143 C 0.51624 0.01613 0.8209 0.0
H5144 H 0.52386 0.05018 0.8201 0.0
C5145 C 0.52899 0.01276 0.81585 0.0
C5146 C 0.54032 0.02247 0.8129 0.0
H5147 H 0.50805 0.00805 0.82338 0.0
H5148 H 0.52953 1.0026 0.81388 0.0
C5149 C 0.5383 0.03571 0.81537 0.0
C5150 C 0.62621 0.84908 0.43833 0.0
C5151 C 0.63671 0.83861 0.44532 0.0
H5152 H 0.62106 0.87038 0.42075 0.0
C5153 C 0.65057 0.84236 0.44039 0.0
H5154 H 0.61543 0.84651 0.44173 0.0
C5155 C 0.65379 0.85604 0.4284 0.0
C5156 C 0.6432 0.86623 0.42091 0.0
H5157 H 0.65892 0.8346 0.44559 0.0
H5158 H 0.66451 0.85841 0.42455 0.0
C5159 C 0.62941 0.86269 0.42619 0.0
C5160 C 0.98194 0.82103 0.22587 0.0
C5161 C 0.97343 0.81861 0.23969 0.0
H5162 H 0.98326 0.8287 0.19961 0.0
C5163 C 0.95921 0.82251 0.2368 0.0
H5164 H 0.99293 0.81847 0.22724 0.0
C5165 C 0.95386 0.82896 0.22088 0.0
C5166 C 0.96239 0.83128 0.20726 0.0
H5167 H 0.95199 0.82045 0.24681 0.0
H5168 H 0.94291 0.83178 0.21922 0.0
C5169 C 0.97645 0.82709 0.20992 0.0
C5170 C 0.07596 0.48994 0.34426 0.0
C5171 C 0.07199 0.50425 0.3421 0.0
H5172 H 0.09107 0.47608 0.34017 0.0
C5173 C 0.08196 0.51552 0.33639 0.0
H5174 H 0.06873 0.48089 0.34901 0.0
C5175 C 0.09534 0.51258 0.33204 0.0
C5176 C 0.0989 0.49838 0.33316 0.0
H5177 H 0.07925 0.52671 0.33454 0.0
H5178 H 0.10276 0.52146 0.32749 0.0
C5179 C 0.08901 0.48712 0.33945 0.0
C5180 C 0.11298 0.36236 0.89484 0.0
C5181 C 0.11751 0.35859 0.91107 0.0
H5182 H 0.11091 0.37889 0.87106 0.0
C5183 C 0.12289 0.36968 0.91585 0.0
H5184 H 0.10855 0.35419 0.89076 0.0
C5185 C 0.12393 0.38415 0.90449 0.0
C5186 C 0.11958 0.38782 0.88815 0.0
H5187 H 0.12653 0.36714 0.92824 0.0
H5188 H 0.12809 0.39244 0.90855 0.0
C5189 C 0.11411 0.37668 0.88354 0.0
C5190 C 0.47194 0.3216 0.71051 0.0
C5191 C 0.47342 0.33049 0.7197 0.0
H5192 H 0.4641 0.31954 0.68883 0.0
C5193 C 0.46916 0.34519 0.71263 0.0
H5194 H 0.47506 0.3102 0.71565 0.0
C5195 C 0.46328 0.35081 0.69695 0.0
C5196 C 0.46103 0.3418 0.68791 0.0
H5197 H 0.47034 0.3524 0.7193 0.0
H5198 H 0.46053 0.36229 0.6921 0.0
C5199 C 0.46567 0.3271 0.69495 0.0
C5200 C 0.12415 0.64331 0.59871 0.0
C5201 C 0.11912 0.65433 0.60384 0.0
H5202 H 0.12922 0.62052 0.60557 0.0
C5203 C 0.1151 0.65044 0.62024 0.0
H5204 H 0.1274 0.64595 0.58617 0.0
C5205 C 0.11634 0.63606 0.63134 0.0
C5206 C 0.12143 0.62499 0.62636 0.0
H5207 H 0.11096 0.65857 0.62458 0.0
H5208 H 0.11349 0.63371 0.64394 0.0
C5209 C 0.12533 0.62878 0.60988 0.0
C5210 C 0.33084 0.17179 0.23062 0.0
C5211 C 0.32018 0.17718 0.21871 0.0
H5212 H 0.34091 0.17301 0.2519 0.0
C5213 C 0.3106 0.1872 0.22081 0.0
H5214 H 0.33856 0.16408 0.22993 0.0
C5215 C 0.31235 0.19262 0.23317 0.0
C5216 C 0.32339 0.18782 0.24438 0.0
H5217 H 0.30177 0.19131 0.21282 0.0
H5218 H 0.30509 0.20085 0.23375 0.0
C5219 C 0.33248 0.17714 0.2432 0.0
C5220 C 0.54326 0.32414 0.21104 0.0
C5221 C 0.5395 0.33343 0.2192 0.0
H5222 H 0.55342 0.32175 0.19074 0.0
C5223 C 0.5435 0.34822 0.21232 0.0
H5224 H 0.54057 0.31263 0.21613 0.0
C5225 C 0.55056 0.35369 0.19729 0.0
C5226 C 0.55409 0.34444 0.18887 0.0
H5227 H 0.54069 0.35571 0.21822 0.0
H5228 H 0.55287 0.36527 0.19216 0.0
C5229 C 0.55054 0.3295 0.19626 0.0
C5230 C 0.93825 0.51415 0.83828 0.0
C5231 C 0.94557 0.50411 0.85146 0.0
H5232 H 0.92025 0.51845 0.8233 0.0
C5233 C 0.93919 0.49093 0.86115 0.0
H5234 H 0.94313 0.52424 0.83043 0.0
C5235 C 0.92569 0.48776 0.85754 0.0
C5236 C 0.91852 0.49747 0.84376 0.0
H5237 H 0.94476 0.48298 0.8713 0.0
H5238 H 0.92105 0.47757 0.86544 0.0
C5239 C 0.92501 0.51079 0.8343 0.0
C5240 C 0.70796 0.18749 0.72045 0.0
C5241 C 0.69801 0.17764 0.71871 0.0
H5242 H 0.71395 0.20176 0.73237 0.0
C5243 C 0.68745 0.17284 0.73077 0.0
H5244 H 0.7168 0.19112 0.71246 0.0
C5245 C 0.68608 0.17887 0.74282 0.0
C5246 C 0.69536 0.18962 0.7434 0.0
H5247 H 0.67953 0.16519 0.73052 0.0
H5248 H 0.67761 0.17528 0.7515 0.0
C5249 C 0.70649 0.19355 0.7323 0.0
C5250 C 0.47079 0.68751 0.80194 0.0
C5251 C 0.47587 0.67734 0.79558 0.0
H5252 H 0.45958 0.69096 0.82117 0.0
C5253 C 0.47419 0.66234 0.80481 0.0
H5254 H 0.47173 0.69915 0.79493 0.0
C5255 C 0.46749 0.65757 0.82003 0.0
C5256 C 0.46199 0.6677 0.8263 0.0
H5257 H 0.47799 0.65427 0.80015 0.0
H5258 H 0.46659 0.6459 0.82682 0.0
C5259 C 0.46386 0.68276 0.81704 0.0
C5260 C 0.07578 0.52104 0.17232 0.0
C5261 C 0.07168 0.50677 0.1745 0.0
H5262 H 0.09081 0.53464 0.17693 0.0
C5263 C 0.08147 0.49532 0.18061 0.0
H5264 H 0.0687 0.53021 0.16724 0.0
C5265 C 0.09476 0.49801 0.18545 0.0
C5266 C 0.09839 0.51216 0.18443 0.0
H5267 H 0.07866 0.48416 0.18245 0.0
H5268 H 0.10202 0.48899 0.19035 0.0
C5269 C 0.08872 0.52362 0.17763 0.0
C5270 C 0.3286 0.83951 0.28704 0.0
C5271 C 0.31734 0.835 0.29809 0.0
H5272 H 0.33926 0.83725 0.2667 0.0
C5273 C 0.30689 0.82643 0.29493 0.0
H5274 H 0.33686 0.84624 0.28872 0.0
C5275 C 0.30847 0.82109 0.28248 0.0
C5276 C 0.32038 0.82441 0.27248 0.0
H5277 H 0.29767 0.82328 0.30244 0.0
H5278 H 0.30058 0.81371 0.28128 0.0
C5279 C 0.33019 0.83413 0.27449 0.0
C5280 C 0.07167 0.29453 0.06854 0.0
C5281 C 0.07594 0.28115 0.06771 0.0
H5282 H 0.06421 0.3059 0.08327 0.0
C5283 C 0.07459 0.26832 0.08178 0.0
H5284 H 0.07233 0.3046 0.05789 0.0
C5285 C 0.06962 0.26901 0.09649 0.0
C5286 C 0.06582 0.28254 0.09742 0.0
H5287 H 0.07778 0.25783 0.08157 0.0
H5288 H 0.0689 0.25896 0.10716 0.0
C5289 C 0.06677 0.29523 0.08313 0.0
C5290 C 0.97994 0.77838 0.42782 0.0
C5291 C 0.97386 0.78168 0.41221 0.0
H5292 H 0.97762 0.77812 0.45225 0.0
C5293 C 0.95994 0.78659 0.41005 0.0
H5294 H 0.99068 0.77487 0.43007 0.0
C5295 C 0.95258 0.78863 0.42279 0.0
C5296 C 0.95879 0.78559 0.43816 0.0
H5297 H 0.95469 0.78901 0.39846 0.0
H5298 H 0.94205 0.79289 0.42053 0.0
C5299 C 0.97248 0.78025 0.44063 0.0
C5300 C 0.36819 0.77295 0.45696 0.0
C5301 C 0.3635 0.78513 0.46033 0.0
H5302 H 0.37844 0.75196 0.46609 0.0
C5303 C 0.365 0.78461 0.47647 0.0
H5304 H 0.36736 0.77282 0.44476 0.0
C5305 C 0.37176 0.77289 0.48847 0.0
C5306 C 0.37687 0.76106 0.4849 0.0
H5307 H 0.3611 0.79337 0.47992 0.0
H5308 H 0.37299 0.77307 0.50061 0.0
C5309 C 0.37467 0.76099 0.46915 0.0
C5310 C 0.46752 0.14482 0.86097 0.0
C5311 C 0.46309 0.14341 0.84638 0.0
H5312 H 0.47773 0.15811 0.87204 0.0
C5313 C 0.46397 0.15573 0.83172 0.0
H5314 H 0.46676 0.13567 0.87256 0.0
C5315 C 0.46984 0.16877 0.83151 0.0
C5316 C 0.47533 0.16982 0.84588 0.0
H5317 H 0.46081 0.15511 0.8202 0.0
H5318 H 0.47056 0.17787 0.81988 0.0
C5319 C 0.47364 0.15782 0.86072 0.0
C5320 C 0.06353 0.73529 0.44233 0.0
C5321 C 0.07718 0.73078 0.44781 0.0
H5322 H 0.04795 0.73761 0.42386 0.0
C5323 C 0.08584 0.72584 0.43805 0.0
H5324 H 0.05656 0.73909 0.44955 0.0
C5325 C 0.08092 0.725 0.42352 0.0
C5326 C 0.06721 0.72905 0.41833 0.0
H5327 H 0.09645 0.72248 0.44171 0.0
H5328 H 0.08779 0.72094 0.41643 0.0
C5329 C 0.05854 0.73431 0.42775 0.0
C5330 C 0.46173 0.86149 0.66058 0.0
C5331 C 0.46765 0.86929 0.66948 0.0
H5332 H 0.46326 0.84256 0.65395 0.0
C5333 C 0.47977 0.86395 0.67857 0.0
H5334 H 0.45247 0.8656 0.65328 0.0
C5335 C 0.48598 0.85113 0.67878 0.0
C5336 C 0.48014 0.84306 0.67007 0.0
H5337 H 0.4846 0.8699 0.68535 0.0
H5338 H 0.49558 0.8477 0.68561 0.0
C5339 C 0.46797 0.84845 0.66084 0.0
C5340 C 0.37078 0.24077 0.06253 0.0
C5341 C 0.36644 0.22899 0.05825 0.0
H5342 H 0.3794 0.26243 0.05439 0.0
C5343 C 0.36767 0.23047 0.04176 0.0
H5344 H 0.37031 0.24005 0.07508 0.0
C5345 C 0.37329 0.24315 0.03003 0.0
C5346 C 0.37753 0.25485 0.03437 0.0
H5347 H 0.36417 0.22189 0.03777 0.0
H5348 H 0.37403 0.24393 0.01747 0.0
C5349 C 0.37614 0.25358 0.05071 0.0
C5350 C 0.96168 0.22817 0.10141 0.0
C5351 C 0.97634 0.22829 0.101 0.0
H5352 H 0.94265 0.22647 0.0893 0.0
C5353 C 0.98293 0.22743 0.08708 0.0
H5354 H 0.95622 0.22891 0.11181 0.0
C5355 C 0.97514 0.22613 0.07419 0.0
C5356 C 0.96055 0.22585 0.07476 0.0
H5357 H 0.99417 0.22724 0.08636 0.0
H5358 H 0.98053 0.2249 0.06399 0.0
C5359 C 0.95389 0.22698 0.08843 0.0
C5360 C 0.11102 0.24272 0.181 0.0
C5361 C 0.10091 0.24122 0.19314 0.0
H5362 H 0.13201 0.24904 0.17263 0.0
C5363 C 0.1047 0.2454 0.20621 0.0
H5364 H 0.10856 0.23967 0.17071 0.0
C5365 C 0.11807 0.2504 0.20749 0.0
C5366 C 0.12827 0.25192 0.1955 0.0
H5367 H 0.09726 0.24489 0.21562 0.0
H5368 H 0.12037 0.253 0.21813 0.0
C5369 C 0.12455 0.24794 0.1822 0.0
C5370 C 0.08868 0.79977 0.58027 0.0
C5371 C 0.09903 0.80112 0.56857 0.0
H5372 H 0.0789 0.80887 0.59598 0.0
C5373 C 0.10831 0.81297 0.56467 0.0
H5374 H 0.0812 0.79092 0.58339 0.0
C5375 C 0.10731 0.82316 0.57229 0.0
C5376 C 0.09678 0.82206 0.58384 0.0
H5377 H 0.11649 0.81429 0.5558 0.0
H5378 H 0.11499 0.83179 0.56917 0.0
C5379 C 0.08745 0.81015 0.58761 0.0
C5380 C 0.39903 0.95254 0.7655 0.0
C5381 C 0.39065 0.95044 0.75344 0.0
H5382 H 0.40011 0.95292 0.78962 0.0
C5383 C 0.37613 0.94919 0.75602 0.0
H5384 H 0.41022 0.95347 0.76413 0.0
C5385 C 0.37035 0.94879 0.7708 0.0
C5386 C 0.37894 0.94966 0.7833 0.0
H5387 H 0.36928 0.94788 0.7469 0.0
H5388 H 0.3593 0.94681 0.77286 0.0
C5389 C 0.39324 0.95216 0.78021 0.0
C5390 C 0.35757 0.09339 0.22761 0.0
C5391 C 0.35052 0.08822 0.21684 0.0
H5392 H 0.36984 0.08804 0.24936 0.0
C5393 C 0.3494 0.07301 0.22104 0.0
H5394 H 0.35879 0.10503 0.22469 0.0
C5395 C 0.35579 0.06325 0.23518 0.0
C5396 C 0.36357 0.06841 0.24546 0.0
H5397 H 0.34397 0.06864 0.21309 0.0
H5398 H 0.35532 0.05165 0.23747 0.0
C5399 C 0.36406 0.08362 0.24171 0.0
C5400 C 0.10856 0.78047 0.30691 0.0
C5401 C 0.10021 0.7732 0.32073 0.0
H5402 H 0.12806 0.78133 0.29471 0.0
C5403 C 0.10639 0.76169 0.3339 0.0
H5404 H 0.10446 0.78959 0.29663 0.0
C5405 C 0.12016 0.75713 0.33282 0.0
C5406 C 0.12812 0.76406 0.31864 0.0
H5407 H 0.10039 0.75572 0.34473 0.0
H5408 H 0.1244 0.74783 0.3428 0.0
C5409 C 0.12222 0.77589 0.30583 0.0
C5410 C 0.34953 0.93906 0.29451 0.0
C5411 C 0.35033 0.92388 0.29871 0.0
H5412 H 0.35659 0.96007 0.2795 0.0
C5413 C 0.35796 0.91857 0.28845 0.0
H5414 H 0.34356 0.9436 0.30192 0.0
C5415 C 0.36549 0.92819 0.27508 0.0
C5416 C 0.3656 0.9434 0.27159 0.0
H5417 H 0.3588 0.90691 0.29128 0.0
H5418 H 0.37154 0.92356 0.26784 0.0
C5419 C 0.35701 0.94862 0.28126 0.0
C5420 C 0.39995 0.05959 0.74922 0.0
C5421 C 0.39132 0.06077 0.76155 0.0
H5422 H 0.40137 0.05991 0.72485 0.0
C5423 C 0.37678 0.06122 0.75905 0.0
H5424 H 0.41117 0.0593 0.7505 0.0
C5425 C 0.37116 0.06174 0.74413 0.0
C5426 C 0.37994 0.06178 0.73139 0.0
H5427 H 0.36975 0.0618 0.76838 0.0
H5428 H 0.36002 0.06307 0.74219 0.0
C5429 C 0.39434 0.06005 0.73438 0.0
C5430 C 0.09623 0.21541 0.93063 0.0
C5431 C 0.09899 0.21081 0.94752 0.0
H5432 H 0.09372 0.20946 0.90983 0.0
C5433 C 0.10129 0.19573 0.95627 0.0
H5434 H 0.09429 0.22684 0.92336 0.0
C5435 C 0.10033 0.18558 0.94863 0.0
C5436 C 0.09745 0.19011 0.93178 0.0
H5437 H 0.10383 0.19162 0.96917 0.0
H5438 H 0.10165 0.17411 0.95615 0.0
C5439 C 0.09561 0.20527 0.92288 0.0
C5440 C 0.39251 0.91377 0.2997 0.0
C5441 C 0.38487 0.9044 0.31328 0.0
H5442 H 0.40017 0.93554 0.28639 0.0
C5443 C 0.38007 0.91062 0.32449 0.0
H5444 H 0.39675 0.90986 0.29073 0.0
C5445 C 0.38123 0.92566 0.32125 0.0
C5446 C 0.38799 0.93501 0.3072 0.0
H5447 H 0.37518 0.90406 0.33587 0.0
H5448 H 0.37698 0.92997 0.32991 0.0
C5449 C 0.39428 0.92873 0.29694 0.0
C5450 C 0.85253 0.62155 0.69701 0.0
C5451 C 0.85021 0.62442 0.71122 0.0
H5452 H 0.85239 0.60595 0.68569 0.0
C5453 C 0.84824 0.61249 0.72602 0.0
H5454 H 0.85429 0.63047 0.68543 0.0
C5455 C 0.84809 0.5981 0.72651 0.0
C5456 C 0.84933 0.59513 0.71208 0.0
H5457 H 0.84671 0.6143 0.7373 0.0
H5458 H 0.84689 0.58945 0.73835 0.0
C5459 C 0.85165 0.60724 0.69731 0.0
C5460 C 0.79071 0.51374 0.17533 0.0
C5461 C 0.78364 0.52653 0.16505 0.0
H5462 H 0.8096 0.50442 0.18855 0.0
C5463 C 0.79082 0.53992 0.16081 0.0
H5464 H 0.78569 0.50316 0.17907 0.0
C5465 C 0.80412 0.54065 0.16681 0.0
C5466 C 0.81135 0.52797 0.1767 0.0
H5467 H 0.78635 0.55008 0.15254 0.0
H5468 H 0.80882 0.55138 0.1634 0.0
C5469 C 0.8044 0.51445 0.18103 0.0
C5470 C 0.65602 0.56865 0.3842 0.0
C5471 C 0.65901 0.55569 0.39763 0.0
H5472 H 0.64475 0.58888 0.37494 0.0
C5473 C 0.65256 0.55364 0.41271 0.0
H5474 H 0.6606 0.57061 0.37235 0.0
C5475 C 0.64343 0.56433 0.41424 0.0
C5476 C 0.6404 0.57717 0.40065 0.0
H5477 H 0.65468 0.54385 0.42335 0.0
H5478 H 0.63845 0.56238 0.42588 0.0
C5479 C 0.64689 0.57916 0.38568 0.0
C5480 C 0.28276 0.76561 0.33458 0.0
C5481 C 0.28713 0.77992 0.32521 0.0
H5482 H 0.26584 0.75018 0.34088 0.0
C5483 C 0.2772 0.79005 0.31566 0.0
H5484 H 0.29021 0.75756 0.34194 0.0
C5485 C 0.26322 0.78596 0.31541 0.0
C5486 C 0.25889 0.77157 0.32447 0.0
H5487 H 0.28031 0.80113 0.30825 0.0
H5488 H 0.25588 0.7939 0.30766 0.0
C5489 C 0.26883 0.76142 0.33403 0.0
C5490 C 0.13809 0.94715 0.62611 0.0
C5491 C 0.13915 0.95819 0.61047 0.0
H5492 H 0.12939 0.92655 0.64107 0.0
C5493 C 0.13169 0.95651 0.59749 0.0
H5494 H 0.14361 0.9481 0.6364 0.0
C5495 C 0.12347 0.94396 0.60019 0.0
C5496 C 0.12236 0.93303 0.61596 0.0
H5497 H 0.13238 0.96477 0.58526 0.0
H5498 H 0.11778 0.94294 0.59004 0.0
C5499 C 0.12986 0.9348 0.62881 0.0
C5500 C 0.79282 0.49925 0.34481 0.0
C5501 C 0.78401 0.48686 0.34984 0.0
H5502 H 0.81297 0.50817 0.33533 0.0
C5503 C 0.7888 0.47425 0.34745 0.0
H5504 H 0.7896 0.50917 0.34643 0.0
C5505 C 0.80207 0.47372 0.34119 0.0
C5506 C 0.81109 0.48581 0.33683 0.0
H5507 H 0.78234 0.46459 0.35063 0.0
H5508 H 0.80547 0.46359 0.34016 0.0
C5509 C 0.80621 0.49873 0.33838 0.0
C5510 C 0.76479 0.74476 0.70886 0.0
C5511 C 0.77355 0.75165 0.69543 0.0
H5512 H 0.74456 0.74405 0.71935 0.0
C5513 C 0.76806 0.76279 0.6815 0.0
H5514 H 0.76873 0.7361 0.71972 0.0
C5515 C 0.75416 0.76733 0.68131 0.0
C5516 C 0.74558 0.7606 0.69495 0.0
H5517 H 0.77464 0.76838 0.67107 0.0
H5518 H 0.75026 0.77638 0.6708 0.0
C5519 C 0.75096 0.74921 0.70862 0.0
C5520 C 0.93859 0.7439 0.93382 0.0
C5521 C 0.93897 0.7314 0.94837 0.0
H5522 H 0.9437 0.7534 0.90838 0.0
C5523 C 0.94567 0.71879 0.94806 0.0
H5524 H 0.93356 0.75385 0.93353 0.0
C5525 C 0.95102 0.7183 0.93356 0.0
C5526 C 0.95029 0.73058 0.91879 0.0
H5527 H 0.94658 0.70904 0.95907 0.0
H5528 H 0.95526 0.70797 0.93402 0.0
C5529 C 0.94425 0.74353 0.91926 0.0
C5530 C 0.03892 0.23543 0.58829 0.0
C5531 C 0.04208 0.22557 0.60429 0.0
H5532 H 0.04277 0.24174 0.56238 0.0
C5533 C 0.05196 0.21452 0.60606 0.0
H5534 H 0.03143 0.24414 0.58643 0.0
C5535 C 0.05846 0.21329 0.59249 0.0
C5536 C 0.05527 0.22291 0.57649 0.0
H5537 H 0.05458 0.20657 0.61805 0.0
H5538 H 0.06599 0.20456 0.59458 0.0
C5539 C 0.04552 0.23417 0.57452 0.0
C5540 C 0.65092 0.23083 0.54055 0.0
C5541 C 0.65137 0.22963 0.557 0.0
H5542 H 0.64379 0.243 0.51616 0.0
C5543 C 0.64583 0.24127 0.56081 0.0
H5544 H 0.65548 0.22249 0.53686 0.0
C5545 C 0.6395 0.25335 0.54866 0.0
C5546 C 0.63834 0.25392 0.53255 0.0
H5547 H 0.64584 0.24082 0.57327 0.0
H5548 H 0.635 0.26195 0.55199 0.0
C5549 C 0.64432 0.24267 0.52858 0.0
C5550 C 0.54462 0.86733 0.15328 0.0
C5551 C 0.5505 0.86818 0.16758 0.0
H5552 H 0.53367 0.85427 0.14245 0.0
C5553 C 0.55143 0.85524 0.18159 0.0
H5554 H 0.54399 0.87694 0.1421 0.0
C5555 C 0.54593 0.8421 0.18159 0.0
C5556 C 0.53908 0.84153 0.16769 0.0
H5557 H 0.55575 0.85535 0.19289 0.0
H5558 H 0.54653 0.83248 0.19277 0.0
C5559 C 0.5389 0.85422 0.15337 0.0
C5560 C 0.94355 0.29521 0.5672 0.0
C5561 C 0.93901 0.28186 0.56651 0.0
H5562 H 0.95187 0.30648 0.58163 0.0
C5563 C 0.94087 0.26899 0.58045 0.0
H5564 H 0.94259 0.30532 0.55664 0.0
C5565 C 0.9466 0.2696 0.59487 0.0
C5566 C 0.95061 0.2831 0.59573 0.0
H5567 H 0.93752 0.25852 0.58038 0.0
H5568 H 0.94772 0.2595 0.6054 0.0
C5569 C 0.94915 0.29584 0.58156 0.0
C5570 C 0.55347 0.15785 0.33481 0.0
C5571 C 0.55001 0.14432 0.34708 0.0
H5572 H 0.55036 0.18113 0.32519 0.0
C5573 C 0.54197 0.14436 0.36043 0.0
H5574 H 0.55954 0.15827 0.32431 0.0
C5575 C 0.53669 0.15746 0.3609 0.0
C5576 C 0.53934 0.17084 0.34805 0.0
H5577 H 0.53926 0.13417 0.37022 0.0
H5578 H 0.5298 0.15699 0.3708 0.0
C5579 C 0.54815 0.17095 0.33527 0.0
C5580 C 0.64787 0.77011 0.95704 0.0
C5581 C 0.65297 0.78192 0.96081 0.0
H5582 H 0.63692 0.74956 0.9656 0.0
C5583 C 0.65149 0.78122 0.97701 0.0
H5584 H 0.64867 0.77017 0.94477 0.0
C5585 C 0.64435 0.7697 0.98868 0.0
C5586 C 0.63884 0.75826 0.98471 0.0
H5587 H 0.65569 0.7897 0.98072 0.0
H5588 H 0.64311 0.76974 1.00088 0.0
C5589 C 0.64101 0.75833 0.96892 0.0
C5590 C 0.05264 0.79505 0.91049 0.0
C5591 C 0.04122 0.78561 0.91252 0.0
H5592 H 0.06783 0.80412 0.9217 0.0
C5593 C 0.03662 0.77758 0.9286 0.0
H5594 H 0.05641 0.8016 0.89838 0.0
C5595 C 0.0433 0.77907 0.94221 0.0
C5596 C 0.05454 0.78879 0.93994 0.0
H5597 H 0.0279 0.77014 0.93066 0.0
H5598 H 0.03942 0.77299 0.9544 0.0
C5599 C 0.05918 0.79657 0.92391 0.0
C5600 C 0.91285 0.76102 0.82032 0.0
C5601 C 0.91413 0.7731 0.82488 0.0
H5602 H 0.89975 0.74563 0.81582 0.0
C5603 C 0.90187 0.77982 0.82735 0.0
H5604 H 0.92209 0.75564 0.81859 0.0
C5605 C 0.88866 0.77474 0.82475 0.0
C5606 C 0.88733 0.76244 0.82017 0.0
H5607 H 0.90251 0.78912 0.83106 0.0
H5608 H 0.87956 0.78063 0.82617 0.0
C5609 C 0.89982 0.7555 0.81847 0.0
C5610 C 0.91261 0.19694 0.45436 0.0
C5611 C 0.91278 0.21224 0.44578 0.0
H5612 H 0.91394 0.17562 0.45339 0.0
C5613 C 0.91358 0.21749 0.42858 0.0
H5614 H 0.91169 0.19235 0.46755 0.0
C5615 C 0.91444 0.20775 0.42032 0.0
C5616 C 0.91464 0.19245 0.42898 0.0
H5617 H 0.91383 0.22914 0.42146 0.0
H5618 H 0.91491 0.21228 0.40709 0.0
C5619 C 0.91366 0.18725 0.44614 0.0
C5620 C 0.64082 0.05907 0.26226 0.0
C5621 C 0.62618 0.05999 0.26256 0.0
H5622 H 0.65902 0.0586 0.24834 0.0
C5623 C 0.61867 0.05957 0.24901 0.0
H5624 H 0.64697 0.05913 0.27253 0.0
C5625 C 0.6256 0.05915 0.23521 0.0
C5626 C 0.64024 0.05908 0.23456 0.0
H5627 H 0.60743 0.06036 0.24865 0.0
H5628 H 0.61948 0.05939 0.22478 0.0
C5629 C 0.64775 0.05859 0.24845 0.0
C5630 C 0.6663 0.93687 0.79739 0.0
C5631 C 0.66599 0.92162 0.80163 0.0
H5632 H 0.65932 0.95782 0.78106 0.0
C5633 C 0.65897 0.91602 0.79119 0.0
H5634 H 0.67162 0.9416 0.80509 0.0
C5635 C 0.65184 0.92536 0.77734 0.0
C5636 C 0.65171 0.94055 0.77345 0.0
H5637 H 0.6583 0.90433 0.79417 0.0
H5638 H 0.64613 0.92061 0.76994 0.0
C5639 C 0.65932 0.9462 0.78346 0.0
C5640 C 0.90828 0.23435 0.70621 0.0
C5641 C 0.91474 0.24072 0.69075 0.0
H5642 H 0.89042 0.23379 0.72116 0.0
C5643 C 0.90698 0.25145 0.67824 0.0
H5644 H 0.91347 0.22594 0.71626 0.0
C5645 C 0.89348 0.25553 0.68102 0.0
C5646 C 0.8873 0.24926 0.69647 0.0
H5647 H 0.91136 0.25717 0.66626 0.0
H5648 H 0.88804 0.26397 0.67119 0.0
C5649 C 0.89488 0.23869 0.70905 0.0
C5650 C 0.6586 0.09452 0.72872 0.0
C5651 C 0.66487 0.08908 0.71768 0.0
H5652 H 0.64695 0.08977 0.75081 0.0
C5653 C 0.66513 0.07384 0.72183 0.0
H5654 H 0.65805 0.1062 0.72594 0.0
C5655 C 0.65867 0.06441 0.7361 0.0
C5656 C 0.65166 0.06988 0.74669 0.0
H5657 H 0.66999 0.06917 0.7138 0.0
H5658 H 0.65862 0.05284 0.73829 0.0
C5659 C 0.65205 0.08508 0.74296 0.0
C5660 C 0.64048 0.95283 0.25114 0.0
C5661 C 0.62595 0.95095 0.25092 0.0
H5662 H 0.65844 0.95397 0.26511 0.0
C5663 C 0.61829 0.95014 0.26482 0.0
H5664 H 0.64671 0.95368 0.24059 0.0
C5665 C 0.62501 0.9504 0.27882 0.0
C5666 C 0.6396 0.95153 0.27933 0.0
H5667 H 0.60712 0.94857 0.26522 0.0
H5668 H 0.61879 0.94932 0.28944 0.0
C5669 C 0.64721 0.95315 0.26514 0.0
C5670 C 0.92548 0.8017 0.07548 0.0
C5671 C 0.91292 0.80048 0.06798 0.0
H5672 H 0.93686 0.81276 0.08832 0.0
C5673 C 0.90174 0.80962 0.06813 0.0
H5674 H 0.93431 0.79491 0.07528 0.0
C5675 C 0.90314 0.81989 0.07562 0.0
C5676 C 0.91577 0.82125 0.08308 0.0
H5677 H 0.89201 0.80897 0.06223 0.0
H5678 H 0.89428 0.82669 0.07563 0.0
C5679 C 0.9269 0.81194 0.08296 0.0
C5680 C 0.62262 0.09581 0.72049 0.0
C5681 C 0.62981 0.10507 0.70641 0.0
H5682 H 0.61504 0.07415 0.73448 0.0
C5683 C 0.634 0.09855 0.69522 0.0
H5684 H 0.61868 0.09985 0.72948 0.0
C5685 C 0.63278 0.08343 0.69889 0.0
C5686 C 0.62646 0.07425 0.71337 0.0
H5687 H 0.63848 0.10486 0.68353 0.0
H5688 H 0.63663 0.07893 0.6902 0.0
C5689 C 0.62069 0.08079 0.72365 0.0
C5690 C 0.16374 0.38833 0.29866 0.0
C5691 C 0.16117 0.37719 0.31398 0.0
H5692 H 0.16697 0.41113 0.28506 0.0
C5693 C 0.16048 0.38103 0.32785 0.0
H5694 H 0.16469 0.38583 0.28774 0.0
C5695 C 0.1619 0.39574 0.32626 0.0
C5696 C 0.16424 0.40678 0.31082 0.0
H5697 H 0.15857 0.37276 0.33985 0.0
H5698 H 0.1613 0.39848 0.33706 0.0
C5699 C 0.1652 0.40286 0.29711 0.0
C5700 C 0.22135 0.49515 0.85189 0.0
C5701 C 0.23184 0.48512 0.85179 0.0
H5702 H 0.1997 0.50128 0.8476 0.0
C5703 C 0.22854 0.47483 0.84466 0.0
H5704 H 0.22335 0.50318 0.85731 0.0
C5705 C 0.21507 0.47391 0.83893 0.0
C5706 C 0.20443 0.48332 0.83994 0.0
H5707 H 0.23628 0.46707 0.844 0.0
H5708 H 0.21275 0.46518 0.83465 0.0
C5709 C 0.20778 0.49416 0.84619 0.0
C5710 C 0.35505 0.4412 0.62497 0.0
C5711 C 0.35683 0.45612 0.61501 0.0
H5712 H 0.36265 0.41914 0.63219 0.0
C5713 C 0.36819 0.45982 0.60406 0.0
H5714 H 0.34675 0.43779 0.63388 0.0
C5715 C 0.37738 0.44895 0.60317 0.0
C5716 C 0.37544 0.43413 0.61317 0.0
H5717 H 0.36996 0.47111 0.59614 0.0
H5718 H 0.38618 0.45214 0.59493 0.0
C5719 C 0.36419 0.43042 0.62405 0.0
C5720 C 0.73628 0.23689 0.67699 0.0
C5721 C 0.72778 0.232 0.69112 0.0
H5722 H 0.75635 0.24497 0.66657 0.0
C5723 C 0.73395 0.23127 0.70596 0.0
H5724 H 0.73214 0.23784 0.66522 0.0
C5725 C 0.74774 0.2356 0.70658 0.0
C5726 C 0.75613 0.24062 0.6925 0.0
H5727 H 0.72826 0.22713 0.71734 0.0
H5728 H 0.7519 0.23494 0.71828 0.0
C5729 C 0.75027 0.24103 0.6777 0.0
C5730 C 0.87515 0.06561 0.3887 0.0
C5731 C 0.87547 0.05509 0.40475 0.0
H5732 H 0.88176 0.08673 0.37218 0.0
C5733 C 0.88242 0.05872 0.41686 0.0
H5734 H 0.87003 0.06329 0.37899 0.0
C5735 C 0.88932 0.07218 0.41288 0.0
C5736 C 0.8895 0.08238 0.39668 0.0
H5737 H 0.88272 0.05106 0.42943 0.0
H5738 H 0.89493 0.07437 0.42239 0.0
C5739 C 0.88206 0.07903 0.38474 0.0
C5740 C 0.2233 0.5171 0.66242 0.0
C5741 C 0.23381 0.52693 0.66294 0.0
H5742 H 0.2016 0.51124 0.66619 0.0
C5743 C 0.23052 0.53705 0.67028 0.0
H5744 H 0.22533 0.50921 0.65681 0.0
C5745 C 0.21703 0.53804 0.67583 0.0
C5746 C 0.20637 0.52886 0.67438 0.0
H5747 H 0.23829 0.54466 0.67123 0.0
H5748 H 0.2147 0.54665 0.68031 0.0
C5749 C 0.20971 0.51817 0.66792 0.0
C5750 C 0.2514 0.26569 0.31197 0.0
C5751 C 0.2435 0.25724 0.32562 0.0
H5752 H 0.2711 0.26852 0.29972 0.0
C5753 C 0.24958 0.24485 0.33759 0.0
H5754 H 0.24696 0.27538 0.30269 0.0
C5755 C 0.26334 0.24095 0.33586 0.0
C5756 C 0.27126 0.24957 0.32234 0.0
H5757 H 0.24365 0.23819 0.3482 0.0
H5758 H 0.26778 0.23118 0.345 0.0
C5759 C 0.26519 0.2619 0.31037 0.0
C5760 C 0.56736 0.75241 0.60558 0.0
C5761 C 0.5686 0.76486 0.59104 0.0
H5762 H 0.56065 0.7437 0.63067 0.0
C5763 C 0.56283 0.77813 0.59074 0.0
H5764 H 0.57167 0.742 0.60632 0.0
C5765 C 0.5565 0.77911 0.60463 0.0
C5766 C 0.55577 0.76685 0.61938 0.0
H5767 H 0.56337 0.78793 0.57975 0.0
H5768 H 0.55265 0.78967 0.60396 0.0
C5769 C 0.56113 0.75342 0.61959 0.0
C5770 C 0.46057 0.30792 0.88539 0.0
C5771 C 0.47118 0.29725 0.88914 0.0
H5772 H 0.44387 0.31736 0.89416 0.0
C5773 C 0.47298 0.28801 0.90567 0.0
H5774 H 0.45886 0.31543 0.87293 0.0
C5775 C 0.46474 0.28956 0.918 0.0
C5776 C 0.45407 0.30012 0.91426 0.0
H5777 H 0.48075 0.27941 0.90923 0.0
H5778 H 0.46687 0.28244 0.93052 0.0
C5779 C 0.45209 0.30924 0.89772 0.0
C5780 C 0.86379 0.29363 0.94992 0.0
C5781 C 0.86139 0.29387 0.93401 0.0
H5782 H 0.87431 0.28362 0.9729 0.0
C5783 C 0.86765 0.28271 0.92988 0.0
H5784 H 0.85884 0.3015 0.95405 0.0
C5785 C 0.87632 0.27207 0.94108 0.0
C5786 C 0.87918 0.27242 0.9566 0.0
H5787 H 0.86624 0.2824 0.91783 0.0
H5788 H 0.88113 0.26382 0.93739 0.0
C5789 C 0.87265 0.28324 0.9609 0.0
C5790 C 0.01339 0.61363 0.3818 0.0
C5791 C 1.00816 0.61217 0.36753 0.0
H5792 H 0.02066 0.62819 0.39307 0.0
C5793 C 1.00458 0.62493 0.35416 0.0
H5794 H 0.01603 0.60405 0.39245 0.0
C5795 C 1.00684 0.63874 0.35472 0.0
C5796 C 0.01299 0.64021 0.36855 0.0
H5797 H 1.00067 0.62432 0.3429 0.0
H5798 H 1.00429 0.64831 0.344 0.0
C5799 C 0.01584 0.62749 0.38227 0.0
C5800 C 0.56003 0.23341 0.92599 0.0
C5801 C 0.5657 0.24675 0.92558 0.0
H5802 H 0.54975 0.22178 0.91291 0.0
C5803 C 0.56413 0.25919 0.9111 0.0
H5804 H 0.56085 0.22362 0.93697 0.0
C5805 C 0.55771 0.25812 0.89721 0.0
C5806 C 0.55249 0.24462 0.8975 0.0
H5807 H 0.56835 0.26964 0.91028 0.0
H5808 H 0.55704 0.26782 0.88612 0.0
C5809 C 0.5535 0.23237 0.91222 0.0
C5810 C 0.02526 0.39265 0.15472 0.0
C5811 C 0.01255 0.39987 0.14922 0.0
H5812 H 0.03757 0.37357 0.1589 0.0
C5813 C 1.00224 0.3929 0.14335 0.0
H5814 H 0.03334 0.39762 0.1595 0.0
C5815 C 1.00469 0.37891 0.14304 0.0
C5816 C 0.01737 0.3717 0.14884 0.0
H5817 H 0.99238 0.39827 0.13898 0.0
H5818 H 0.99661 0.3736 0.13869 0.0
C5819 C 0.02765 0.37882 0.15447 0.0
C5820 C 0.86901 0.73152 0.58441 0.0
C5821 C 0.86267 0.72037 0.58035 0.0
H5822 H 0.88236 0.75046 0.57668 0.0
C5823 C 0.86472 0.72068 0.56437 0.0
H5824 H 0.86785 0.73177 0.59651 0.0
C5825 C 0.87337 0.73113 0.55324 0.0
C5826 C 0.87999 0.74193 0.55747 0.0
H5827 H 0.8597 0.7128 0.56032 0.0
H5828 H 0.87482 0.73079 0.5412 0.0
C5829 C 0.87744 0.74223 0.57306 0.0
C5830 C 0.47203 0.6963 0.62681 0.0
C5831 C 0.4727 0.70998 0.62831 0.0
H5832 H 0.46357 0.68349 0.61422 0.0
C5833 C 0.4648 0.72163 0.61745 0.0
H5834 H 0.47827 0.68722 0.63467 0.0
C5835 C 0.45586 0.7194 0.60593 0.0
C5836 C 0.45483 0.70552 0.60476 0.0
H5837 H 0.46519 0.73235 0.61822 0.0
H5838 H 0.44947 0.72846 0.59835 0.0
C5839 C 0.46344 0.69417 0.61507 0.0
C5840 C 0.59634 0.74743 0.72114 0.0
C5841 C 0.59417 0.74183 0.70877 0.0
H5842 H 0.60934 0.75935 0.73126 0.0
C5843 C 0.60368 0.74577 0.69569 0.0
H5844 H 0.58905 0.74517 0.73113 0.0
C5845 C 0.61533 0.75452 0.69546 0.0
C5846 C 0.61773 0.7596 0.70826 0.0
H5847 H 0.60229 0.74183 0.68585 0.0
H5848 H 0.62247 0.75726 0.68527 0.0
C5849 C 0.60794 0.75595 0.72101 0.0
C5850 C 0.60425 0.33195 0.03871 0.0
C5851 C 0.60389 0.31652 0.04677 0.0
H5852 H 0.604 0.35306 0.04065 0.0
C5853 C 0.60369 0.31097 0.06406 0.0
H5854 H 0.6048 0.33702 0.02553 0.0
C5855 C 0.60367 0.32039 0.07279 0.0
C5856 C 0.60373 0.33573 0.06463 0.0
H5857 H 0.60327 0.29932 0.07104 0.0
H5858 H 0.60362 0.3156 0.08603 0.0
C5859 C 0.60406 0.34133 0.04744 0.0
C5860 C 0.92801 0.46408 0.23973 0.0
C5861 C 0.93519 0.47701 0.23069 0.0
H5862 H 0.91471 0.45297 0.25997 0.0
C5863 C 0.93334 0.48937 0.23491 0.0
H5864 H 0.92932 0.45429 0.23702 0.0
C5865 C 0.9247 0.48862 0.24813 0.0
C5866 C 0.91802 0.47545 0.25749 0.0
H5867 H 0.93867 0.49952 0.22812 0.0
H5868 H 0.92373 0.49807 0.25147 0.0
C5869 C 0.91958 0.46333 0.25288 0.0
C5870 C 0.80713 0.56615 0.73227 0.0
C5871 C 0.81117 0.57999 0.73215 0.0
H5872 H 0.80728 0.54283 0.74518 0.0
C5873 C 0.8167 0.5805 0.74673 0.0
H5874 H 0.80211 0.56524 0.72168 0.0
C5875 C 0.81999 0.56757 0.75995 0.0
C5876 C 0.81809 0.55367 0.75899 0.0
H5877 H 0.81974 0.5908 0.7475 0.0
H5878 H 0.8251 0.56856 0.77044 0.0
C5879 C 0.81025 0.55319 0.74571 0.0
C5880 C 0.60227 0.26805 0.81786 0.0
C5881 C 0.59213 0.27069 0.80554 0.0
H5882 H 0.62196 0.25818 0.82744 0.0
C5883 C 0.5941 0.26442 0.79373 0.0
H5884 H 0.60104 0.27255 0.82727 0.0
C5885 C 0.60611 0.25656 0.79355 0.0
C5886 C 0.61655 0.25423 0.80548 0.0
H5887 H 0.58635 0.26572 0.78435 0.0
H5888 H 0.60729 0.25269 0.78363 0.0
C5889 C 0.61435 0.25993 0.81782 0.0
C5890 C 0.81447 0.43477 0.76881 0.0
C5891 C 0.80935 0.43525 0.78355 0.0
H5892 H 0.82279 0.44671 0.74507 0.0
C5893 C 0.80575 0.44914 0.78369 0.0
H5894 H 0.81723 0.42444 0.76787 0.0
C5895 C 0.80878 0.46211 0.77023 0.0
C5896 C 0.81622 0.46155 0.75672 0.0
H5897 H 0.80108 0.45006 0.79443 0.0
H5898 H 0.80605 0.47249 0.77094 0.0
C5899 C 0.81778 0.44768 0.75562 0.0
C5900 C 0.93541 0.524 0.27893 0.0
C5901 C 0.93551 0.53551 0.28479 0.0
H5902 H 0.92742 0.51613 0.26089 0.0
C5903 C 0.92649 0.54747 0.2774 0.0
H5904 H 0.94219 0.51461 0.28432 0.0
C5905 C 0.91793 0.54812 0.26433 0.0
C5906 C 0.9181 0.53689 0.25814 0.0
H5907 H 0.92647 0.55672 0.28122 0.0
H5908 H 0.91165 0.55784 0.25846 0.0
C5909 C 0.92677 0.5247 0.26571 0.0
C5910 C 0.5971 0.68261 0.4745 0.0
C5911 C 0.60538 0.6954 0.46933 0.0
H5912 H 0.59067 0.66332 0.47038 0.0
C5913 C 0.61364 0.69823 0.45525 0.0
H5914 H 0.59029 0.6801 0.48495 0.0
C5915 C 0.61366 0.6886 0.44677 0.0
C5916 C 0.60553 0.67581 0.45218 0.0
H5917 H 0.62026 0.7078 0.45086 0.0
H5918 H 0.62007 0.69112 0.43597 0.0
C5919 C 0.59723 0.67296 0.4661 0.0
C5920 C 0.84619 0.40054 0.78945 0.0
C5921 C 0.84825 0.3888 0.80438 0.0
H5922 H 0.84493 0.4235 0.77668 0.0
C5923 C 0.85055 0.39189 0.81846 0.0
H5924 H 0.84457 0.3985 0.77832 0.0
C5925 C 0.84978 0.4063 0.81784 0.0
C5926 C 0.8476 0.41828 0.80288 0.0
H5927 H 0.85228 0.38307 0.83015 0.0
H5928 H 0.85056 0.4078 0.82934 0.0
C5929 C 0.84615 0.41503 0.78863 0.0
C5930 C 0.39497 0.09745 0.21885 0.0
C5931 C 0.38684 0.10628 0.20533 0.0
H5932 H 0.40383 0.07623 0.23232 0.0
C5933 C 0.38197 0.0994 0.19476 0.0
H5934 H 0.39942 0.10179 0.22735 0.0
C5935 C 0.38363 0.08433 0.19853 0.0
C5936 C 0.39104 0.07557 0.21244 0.0
H5937 H 0.37668 0.10537 0.18345 0.0
H5938 H 0.37928 0.07955 0.19031 0.0
C5939 C 0.39736 0.08251 0.22201 0.0
C5940 C 0.26442 0.0346 0.64072 0.0
C5941 C 0.258 0.04585 0.62755 0.0
H5942 H 0.28249 0.02762 0.65617 0.0
C5943 C 0.26563 0.0587 0.61951 0.0
H5944 H 0.2589 0.02452 0.64724 0.0
C5945 C 0.27877 0.06072 0.62498 0.0
C5946 C 0.28526 0.04969 0.63829 0.0
H5947 H 0.26132 0.06751 0.60906 0.0
H5948 H 0.28359 0.07128 0.61884 0.0
C5949 C 0.27791 0.03648 0.64601 0.0
C5950 C 0.13245 0.05524 0.91932 0.0
C5951 C 0.13977 0.05338 0.90638 0.0
H5952 H 0.1187 0.06903 0.92664 0.0
C5953 C 0.13861 0.0643 0.89067 0.0
H5954 H 0.13323 0.04706 0.9316 0.0
C5955 C 0.13042 0.07672 0.88787 0.0
C5956 C 0.12308 0.07868 0.90068 0.0
H5957 H 0.14403 0.0632 0.88041 0.0
H5958 H 0.12987 0.08488 0.87555 0.0
C5959 C 0.12428 0.06786 0.91652 0.0
C5960 C 0.76606 0.25571 0.83361 0.0
C5961 C 0.77349 0.26322 0.81913 0.0
H5962 H 0.74655 0.24587 0.8441 0.0
C5963 C 0.76633 0.26783 0.80411 0.0
H5964 H 0.77129 0.252 0.84536 0.0
C5965 C 0.75237 0.26433 0.80344 0.0
C5966 C 0.7451 0.25631 0.81777 0.0
H5967 H 0.77159 0.27396 0.79275 0.0
H5968 H 0.74731 0.26755 0.79161 0.0
C5969 C 0.75194 0.25226 0.83293 0.0
C5970 C 0.66164 0.4415 0.12229 0.0
C5971 C 0.65791 0.45644 0.11739 0.0
H5972 H 0.65551 0.41978 0.12471 0.0
C5973 C 0.64459 0.46064 0.11042 0.0
H5974 H 0.67153 0.43755 0.12817 0.0
C5975 C 0.6353 0.45024 0.10875 0.0
C5976 C 0.63915 0.43542 0.11365 0.0
H5977 H 0.64126 0.47196 0.1063 0.0
H5978 H 0.62498 0.45373 0.10388 0.0
C5979 C 0.65245 0.4312 0.12032 0.0
C5980 C 0.26515 0.95151 0.89555 0.0
C5981 C 0.25766 0.96464 0.88824 0.0
H5982 H 0.28296 0.93889 0.89539 0.0
C5983 C 0.26412 0.97617 0.87545 0.0
H5984 H 0.26088 0.94246 0.90572 0.0
C5985 C 0.27751 0.97436 0.8699 0.0
C5986 C 0.28473 0.96095 0.87696 0.0
H5987 H 0.25872 0.98646 0.86945 0.0
H5988 H 0.28216 0.98344 0.86009 0.0
C5989 C 0.27819 0.94959 0.8898 0.0
C5990 C 0.28021 0.23793 0.17563 0.0
C5991 C 0.28873 0.23319 0.18982 0.0
H5992 H 0.26011 0.24588 0.16504 0.0
C5993 C 0.28253 0.23265 0.20454 0.0
H5994 H 0.28434 0.23873 0.16392 0.0
C5995 C 0.26873 0.23704 0.20501 0.0
C5996 C 0.26034 0.24189 0.19088 0.0
H5997 H 0.28817 0.2286 0.216 0.0
H5998 H 0.26457 0.23651 0.21663 0.0
C5999 C 0.26621 0.24208 0.1762 0.0
C6000 C 0.45327 0.23498 0.42463 0.0
C6001 C 0.44701 0.24816 0.42397 0.0
H6002 H 0.46435 0.22356 0.41192 0.0
C6003 C 0.4484 0.26059 0.40945 0.0
H6004 H 0.45264 0.22522 0.43565 0.0
C6005 C 0.45523 0.25963 0.39576 0.0
C6006 C 0.46101 0.24626 0.3963 0.0
H6007 H 0.44373 0.27092 0.40843 0.0
H6008 H 0.45576 0.2693 0.38463 0.0
C6009 C 0.46018 0.23405 0.41105 0.0
C6010 C 0.54128 0.69841 0.12302 0.0
C6011 C 0.54354 0.71054 0.12739 0.0
H6012 H 0.54748 0.68668 0.10801 0.0
C6013 C 0.55333 0.72112 0.11856 0.0
H6014 H 0.53392 0.69001 0.1298 0.0
C6015 C 0.56124 0.7192 0.1061 0.0
C6016 C 0.55965 0.70652 0.10245 0.0
H6017 H 0.55537 0.73048 0.12186 0.0
H6018 H 0.56921 0.72715 0.10011 0.0
C6019 C 0.54918 0.69645 0.11066 0.0
C6020 C 0.14465 0.73024 0.08709 0.0
C6021 C 0.15151 0.71965 0.08248 0.0
H6022 H 0.13075 0.7488 0.08002 0.0
C6023 C 0.1497 0.72062 0.06618 0.0
H6024 H 0.14556 0.72999 0.09942 0.0
C6025 C 0.14084 0.73111 0.05529 0.0
C6026 C 0.13375 0.74135 0.06006 0.0
H6027 H 0.1551 0.71323 0.06168 0.0
H6028 H 0.1396 0.73128 0.043 0.0
C6029 C 0.13601 0.74101 0.07598 0.0
C6030 C 0.9915 0.39323 0.65326 0.0
C6031 C 1.00422 0.40038 0.64777 0.0
H6032 H 0.97914 0.37418 0.65752 0.0
C6033 C 0.01451 0.39322 0.64212 0.0
H6034 H 0.98341 0.39831 0.65791 0.0
C6035 C 0.01204 0.37919 0.64194 0.0
C6036 C 0.99933 0.37209 0.64765 0.0
H6037 H 0.02439 0.39851 0.63775 0.0
H6038 H 0.02012 0.37379 0.63771 0.0
C6039 C 0.98908 0.37934 0.65315 0.0
C6040 C 0.449 0.7509 0.10571 0.0
C6041 C 0.44757 0.76318 0.09104 0.0
H6042 H 0.4563 0.74252 0.1306 0.0
C6043 C 0.4537 0.77646 0.09022 0.0
H6044 H 0.44444 0.7405 0.10687 0.0
C6045 C 0.46051 0.77761 0.10377 0.0
C6046 C 0.46137 0.76555 0.11867 0.0
H6047 H 0.45304 0.78611 0.07908 0.0
H6048 H 0.46458 0.78817 0.10276 0.0
C6049 C 0.45574 0.75209 0.11937 0.0
C6050 C 0.01541 0.62617 0.85795 0.0
C6051 C 1.00739 0.61399 0.86728 0.0
H6052 H 0.01871 0.64932 0.85076 0.0
C6053 C 0.99731 0.61573 0.878 0.0
H6054 H 0.02311 0.62523 0.84944 0.0
C6055 C 0.99496 0.62944 0.87893 0.0
C6056 C 1.00253 0.64171 0.86901 0.0
H6057 H 0.99095 0.60655 0.88534 0.0
H6058 H 0.98672 0.63061 0.88674 0.0
C6059 C 0.01289 0.63993 0.85868 0.0
C6060 C 0.14709 0.27973 0.42936 0.0
C6061 C 0.15365 0.29097 0.43306 0.0
H6062 H 0.1333 0.26115 0.43738 0.0
C6063 C 0.15128 0.29126 0.44877 0.0
H6064 H 0.14843 0.279 0.4175 0.0
C6065 C 0.14226 0.28128 0.45994 0.0
C6066 C 0.13552 0.27032 0.45609 0.0
H6067 H 0.15641 0.29922 0.45261 0.0
H6068 H 0.1407 0.28204 0.47177 0.0
C6069 C 0.13828 0.26949 0.44076 0.0
C6070 C 0.54377 0.29571 0.40211 0.0
C6071 C 0.54788 0.30265 0.38565 0.0
H6072 H 0.54804 0.29243 0.42731 0.0
C6073 C 0.55975 0.31162 0.3822 0.0
H6074 H 0.53471 0.28868 0.40518 0.0
C6075 C 0.56729 0.31365 0.39468 0.0
C6076 C 0.5632 0.30694 0.41109 0.0
H6077 H 0.56315 0.31731 0.36971 0.0
H6078 H 0.57638 0.32065 0.3914 0.0
C6079 C 0.55145 0.29774 0.41477 0.0
C6080 C 0.42168 0.26595 0.29733 0.0
C6081 C 0.42265 0.2713 0.31007 0.0
H6082 H 0.40969 0.25435 0.28567 0.0
C6083 C 0.41158 0.26825 0.32132 0.0
H6084 H 0.43002 0.26774 0.28856 0.0
C6085 C 0.40011 0.25997 0.32008 0.0
C6086 C 0.39906 0.25472 0.30728 0.0
H6087 H 0.41169 0.27227 0.33119 0.0
H6088 H 0.39214 0.25761 0.32935 0.0
C6089 C 0.41005 0.2579 0.29589 0.0
C6090 C 0.40538 0.67986 0.97586 0.0
C6091 C 0.40807 0.69503 0.96861 0.0
H6092 H 0.40427 0.6592 0.97313 0.0
C6093 C 0.41106 0.70085 0.95173 0.0
H6094 H 0.40274 0.67484 0.98869 0.0
C6095 C 0.41152 0.6918 0.94255 0.0
C6096 C 0.40913 0.67657 0.94993 0.0
H6097 H 0.41333 0.71238 0.94557 0.0
H6098 H 0.4137 0.69685 0.9296 0.0
C6099 C 0.40602 0.67081 0.96677 0.0
C6100 C 0.08596 0.5202 0.78219 0.0
C6101 C 0.08181 0.53332 0.78388 0.0
H6102 H 0.09842 0.51027 0.76871 0.0
C6103 C 0.08716 0.5466 0.77285 0.0
H6104 H 0.08206 0.50977 0.79056 0.0
C6105 C 0.09645 0.54688 0.76062 0.0
C6106 C 0.10067 0.53389 0.75877 0.0
H6107 H 0.08412 0.55692 0.77365 0.0
H6108 H 0.10034 0.55741 0.75251 0.0
C6109 C 0.09542 0.52047 0.76982 0.0
C6110 C 0.20746 0.43488 0.27711 0.0
C6111 C 0.21395 0.43448 0.2916 0.0
H6112 H 0.19714 0.44826 0.25501 0.0
C6113 C 0.21956 0.4477 0.29167 0.0
H6114 H 0.20339 0.42495 0.27622 0.0
C6115 C 0.21683 0.46113 0.2787 0.0
C6116 C 0.20719 0.46173 0.26641 0.0
H6117 H 0.22529 0.44779 0.30222 0.0
H6118 H 0.22079 0.47105 0.27961 0.0
C6119 C 0.20397 0.44836 0.26476 0.0
C6120 C 0.41169 0.74342 0.19717 0.0
C6121 C 0.42295 0.74027 0.20822 0.0
H6122 H 0.39193 0.7537 0.18987 0.0
C6123 C 0.42205 0.74516 0.22133 0.0
H6124 H 0.41174 0.7398 0.18699 0.0
C6125 C 0.41025 0.75274 0.22339 0.0
C6126 C 0.39901 0.75595 0.21226 0.0
H6127 H 0.43054 0.74333 0.22996 0.0
H6128 H 0.40994 0.7559 0.2339 0.0
C6129 C 0.40006 0.75126 0.19901 0.0
C6130 C 0.20813 0.57386 0.24196 0.0
C6131 C 0.2137 0.57567 0.22654 0.0
H6132 H 0.1993 0.55908 0.26429 0.0
C6133 C 0.21869 0.5629 0.22456 0.0
H6134 H 0.20435 0.58321 0.24439 0.0
C6135 C 0.21629 0.54882 0.23659 0.0
C6136 C 0.20791 0.54709 0.25032 0.0
H6137 H 0.22372 0.56369 0.21327 0.0
H6138 H 0.21967 0.53941 0.23407 0.0
C6139 C 0.20527 0.55983 0.25359 0.0
C6140 C 0.08435 0.49146 0.73099 0.0
C6141 C 0.08105 0.47836 0.72878 0.0
H6142 H 0.09583 0.50152 0.74512 0.0
C6143 C 0.0869 0.46521 0.73959 0.0
H6144 H 0.08004 0.50179 0.72284 0.0
C6145 C 0.09582 0.46506 0.75214 0.0
C6146 C 0.09922 0.47805 0.75445 0.0
H6147 H 0.08447 0.45489 0.73842 0.0
H6148 H 0.10008 0.45463 0.76013 0.0
C6149 C 0.09348 0.49133 0.74362 0.0
C6150 C 0.4049 0.33132 0.53761 0.0
C6151 C 0.40749 0.31613 0.54509 0.0
H6152 H 0.40391 0.35213 0.54005 0.0
C6153 C 0.41039 0.31043 0.56201 0.0
H6154 H 0.40233 0.33624 0.52474 0.0
C6155 C 0.41091 0.31962 0.571 0.0
C6156 C 0.40866 0.33486 0.56339 0.0
H6157 H 0.41257 0.29889 0.56833 0.0
H6158 H 0.41305 0.31467 0.58398 0.0
C6159 C 0.40558 0.34051 0.54654 0.0
C6160 C 0.17234 0.6237 0.21543 0.0
C6161 C 0.16303 0.63313 0.20398 0.0
H6162 H 0.17991 0.60211 0.22752 0.0
C6163 C 0.15479 0.6273 0.19466 0.0
H6164 H 0.17871 0.62764 0.22307 0.0
C6165 C 0.15575 0.61244 0.19687 0.0
C6166 C 0.16479 0.60284 0.2087 0.0
H6167 H 0.14764 0.63426 0.18556 0.0
H6168 H 0.14936 0.60864 0.18916 0.0
C6169 C 0.17308 0.60885 0.21789 0.0
C6170 C 0.62086 0.91516 0.79976 0.0
C6171 C 0.62926 0.90593 0.81271 0.0
H6172 H 0.61246 0.93666 0.78697 0.0
C6173 C 0.63526 0.91243 0.82307 0.0
H6174 H 0.61581 0.91113 0.79133 0.0
C6175 C 0.63416 0.92759 0.81963 0.0
C6176 C 0.62632 0.93677 0.80625 0.0
H6177 H 0.64096 0.90595 0.83393 0.0
H6178 H 0.63927 0.93209 0.82767 0.0
C6179 C 0.61912 0.93012 0.79694 0.0
C6180 C 0.74942 0.97814 0.37293 0.0
C6181 C 0.75907 0.96796 0.38321 0.0
H6182 H 0.72902 0.98171 0.36192 0.0
C6183 C 0.75536 0.95307 0.38943 0.0
H6184 H 0.75193 0.98968 0.36762 0.0
C6185 C 0.74237 0.94854 0.3859 0.0
C6186 C 0.73254 0.95873 0.37618 0.0
H6187 H 0.76229 0.94485 0.39749 0.0
H6188 H 0.73991 0.93697 0.39111 0.0
C6189 C 0.73633 0.97358 0.36944 0.0
C6190 C 0.87735 0.94816 0.12244 0.0
C6191 C 0.8759 0.95849 0.1064 0.0
H6192 H 0.88613 0.92792 0.13835 0.0
C6193 C 0.88305 0.95595 0.09375 0.0
H6194 H 0.87214 0.94978 0.13253 0.0
C6195 C 0.89127 0.94324 0.09715 0.0
C6196 C 0.89266 0.93296 0.1133 0.0
H6197 H 0.8821 0.96362 0.08123 0.0
H6198 H 0.89666 0.94156 0.08722 0.0
C6199 C 0.88552 0.93564 0.12582 0.0
C6200 C 0.25401 0.74222 0.19518 0.0
C6201 C 0.24327 0.75268 0.19097 0.0
H6202 H 0.2756 0.73779 0.20105 0.0
C6203 C 0.24633 0.76721 0.1887 0.0
H6204 H 0.25178 0.7309 0.1971 0.0
C6205 C 0.25998 0.77124 0.19062 0.0
C6206 C 0.27078 0.76073 0.19509 0.0
H6207 H 0.23819 0.77545 0.18534 0.0
H6208 H 0.26208 0.78258 0.18866 0.0
C6209 C 0.26763 0.74619 0.19728 0.0
C6210 C 0.35875 0.56821 0.88443 0.0
C6211 C 0.35612 0.55563 0.89845 0.0
H6212 H 0.36969 0.58847 0.87374 0.0
C6213 C 0.36312 0.55428 0.91306 0.0
H6214 H 0.35381 0.56965 0.87287 0.0
C6215 C 0.37237 0.56528 0.91355 0.0
C6216 C 0.37498 0.57774 0.89938 0.0
H6217 H 0.36133 0.54482 0.92415 0.0
H6218 H 0.37772 0.56387 0.92486 0.0
C6219 C 0.36796 0.57903 0.88489 0.0
C6220 C 0.75096 0.03758 0.13704 0.0
C6221 C 0.75845 0.0486 0.12475 0.0
H6222 H 0.73176 0.03168 0.15069 0.0
C6223 C 0.75195 0.06221 0.11679 0.0
H6224 H 0.75569 0.02698 0.1435 0.0
C6225 C 0.73862 0.06495 0.12107 0.0
C6226 C 0.73096 0.05407 0.1332 0.0
H6227 H 0.75722 0.07091 0.10712 0.0
H6228 H 0.73428 0.07577 0.11474 0.0
C6229 C 0.73734 0.04032 0.1413 0.0
C6230 C 0.73474 0.78296 0.8144 0.0
C6231 C 0.72818 0.77906 0.82973 0.0
H6232 H 0.75308 0.78168 0.80112 0.0
C6233 C 0.7359 0.77061 0.84377 0.0
H6234 H 0.7294 0.78968 0.8033 0.0
C6235 C 0.74971 0.76636 0.8425 0.0
C6236 C 0.75613 0.7703 0.82715 0.0
H6237 H 0.73124 0.76714 0.85579 0.0
H6238 H 0.75526 0.75971 0.85348 0.0
C6239 C 0.74843 0.77855 0.81314 0.0
loop_
_geom_bond_atom_site_label_1
_geom_bond_atom_site_label_2
_geom_bond_distance
_geom_bond_site_symmetry_2
_ccdc_geom_bond_type
C0 C1 1.264 . S
C0 C5 1.479 . S
C0 C10 1.465 . S
C1 C0 1.264 . S
C1 C3 1.339 . S
C1 H28 0.931 . S
C2 C3 1.395 . S
C2 C4 1.320 . S
C3 C1 1.339 . S
C3 C2 1.395 . S
C3 H29 0.929 . S
C4 C2 1.320 . S
C4 C5 1.405 . S
C4 H30 0.930 . S
C5 C0 1.479 . S
C5 C4 1.405 . S
C5 H31 0.931 . S
U6 O7 2.454 1_455 S
U6 O8 2.458 . S
U6 C9 2.984 . S
U6 C10 2.847 1_455 S
U6 C23 2.882 . S
U6 O24 2.441 1_455 S
U6 O25 2.420 1_455 S
U6 O26 2.455 . S
U6 O27 2.449 . S
O7 U6 2.454 1_655 S
O7 C9 1.353 1_655 S
O8 U6 2.458 . S
O8 C9 1.286 . S
C9 U6 2.984 . S
C9 O7 1.353 1_455 S
C9 O8 1.286 . S
C9 C11 1.363 . S
C10 C0 1.465 . S
C10 U6 2.847 1_655 S
C10 O24 1.249 . S
C10 O25 1.202 . S
C11 C9 1.363 . S
C11 C13 1.408 1_455 S
C11 C16 1.342 . S
C12 C13 1.310 . S
C12 C15 1.461 1_655 S
C12 H32 0.932 . S
C13 C11 1.408 1_655 S
C13 C12 1.310 . S
C13 H33 0.930 . S
C14 C15 1.474 . S
C14 C16 1.285 . S
C14 H34 0.929 . S
C15 C12 1.461 1_455 S
C15 C14 1.474 . S
C16 C11 1.342 . S
C16 C14 1.285 . S
C16 H35 0.930 . S
C17 C20 1.424 . S
C17 C22 1.245 . S
C17 C23 1.428 . S
C18 C21 1.260 . S
C18 C22 1.477 . S
C18 H36 0.932 . S
C19 C20 1.384 . S
C19 C21 1.479 . S
C19 H37 0.929 . S
C20 C17 1.424 . S
C20 C19 1.384 . S
C20 H38 0.928 . S
C21 C18 1.260 . S
C21 C19 1.479 . S
C22 C17 1.245 . S
C22 C18 1.477 . S
C22 H39 0.932 . S
C23 U6 2.882 . S
C23 C17 1.428 . S
C23 O26 1.301 . S
C23 O27 1.282 . S
O24 U6 2.441 1_655 S
O24 C10 1.249 . S
O25 U6 2.420 1_655 S
O25 C10 1.202 . S
O26 U6 2.455 . S
O26 C23 1.301 . S
O27 U6 2.449 . S
O27 C23 1.282 . S
H28 C1 0.931 . S
H29 C3 0.929 . S
H30 C4 0.930 . S
H31 C5 0.931 . S
H32 C12 0.932 . S
H33 C13 0.930 . S
H34 C14 0.929 . S
H35 C16 0.930 . S
H36 C18 0.932 . S
H37 C19 0.929 . S
H38 C20 0.928 . S
H39 C22 0.932 . S
C40 C41 1.264 . S
C40 C45 1.479 . S
C40 C50 1.465 . S
C41 C40 1.264 . S
C41 C43 1.339 . S
C41 H68 0.931 . S
C42 C43 1.395 . S
C42 C44 1.320 . S
C43 C41 1.339 . S
C43 C42 1.395 . S
C43 H69 0.929 . S
C44 C42 1.320 . S
C44 C45 1.405 . S
C44 H70 0.930 . S
C45 C40 1.479 . S
C45 C44 1.405 . S
C45 H71 0.931 . S
U46 O47 2.454 . S
U46 O48 2.458 . S
U46 C49 2.984 . S
U46 C50 2.847 . S
U46 C63 2.882 . S
U46 O64 2.441 . S
U46 O65 2.420 . S
U46 O66 2.455 . S
U46 O67 2.449 . S
O47 U46 2.454 . S
O47 C49 1.353 . S
O48 U46 2.458 . S
O48 C49 1.286 . S
C49 U46 2.984 . S
C49 O47 1.353 . S
C49 O48 1.286 . S
C49 C51 1.363 . S
C50 C40 1.465 . S
C50 U46 2.847 . S
C50 O64 1.249 . S
C50 O65 1.202 . S
C51 C49 1.363 . S
C51 C53 1.408 . S
C51 C56 1.342 . S
C52 C53 1.310 . S
C52 C55 1.461 . S
C52 H72 0.932 . S
C53 C51 1.408 . S
C53 C52 1.310 . S
C53 H73 0.930 . S
C54 C55 1.474 . S
C54 C56 1.285 . S
C54 H74 0.929 . S
C55 C52 1.461 . S
C55 C54 1.474 . S
C56 C51 1.342 . S
C56 C54 1.285 . S
C56 H75 0.930 . S
C57 C60 1.424 . S
C57 C62 1.245 . S
C57 C63 1.428 . S
C58 C61 1.260 . S
C58 C62 1.477 . S
C58 H76 0.932 . S
C59 C60 1.384 . S
C59 C61 1.479 . S
C59 H77 0.929 . S
C60 C57 1.424 . S
C60 C59 1.384 . S
C60 H78 0.928 . S
C61 C58 1.260 . S
C61 C59 1.479 . S
C62 C57 1.245 . S
C62 C58 1.477 . S
C62 H79 0.932 . S
C63 U46 2.882 . S
C63 C57 1.428 . S
C63 O66 1.301 . S
C63 O67 1.282 . S
O64 U46 2.441 . S
O64 C50 1.249 . S
O65 U46 2.420 . S
O65 C50 1.202 . S
O66 U46 2.455 . S
O66 C63 1.301 . S
O67 U46 2.449 . S
O67 C63 1.282 . S
H68 C41 0.931 . S
H69 C43 0.929 . S
H70 C44 0.930 . S
H71 C45 0.931 . S
H72 C52 0.932 . S
H73 C53 0.930 . S
H74 C54 0.929 . S
H75 C56 0.930 . S
H76 C58 0.932 . S
H77 C59 0.929 . S
H78 C60 0.928 . S
H79 C62 0.932 . S
C80 C81 1.264 . S
C80 C85 1.479 . S
C80 C90 1.465 . S
C81 C80 1.264 . S
C81 C83 1.339 . S
C81 H108 0.931 . S
C82 C83 1.395 . S
C82 C84 1.320 . S
C83 C81 1.339 . S
C83 C82 1.395 . S
C83 H109 0.929 . S
C84 C82 1.320 . S
C84 C85 1.405 . S
C84 H110 0.930 . S
C85 C80 1.479 . S
C85 C84 1.405 . S
C85 H111 0.931 . S
U86 O87 2.454 . S
U86 O88 2.458 . S
U86 C89 2.984 . S
U86 C90 2.847 . S
U86 C103 2.882 . S
U86 O104 2.441 . S
U86 O105 2.420 . S
U86 O106 2.455 . S
U86 O107 2.449 . S
O87 U86 2.454 . S
O87 C89 1.353 . S
O88 U86 2.458 . S
O88 C89 1.286 . S
C89 U86 2.984 . S
C89 O87 1.353 . S
C89 O88 1.286 . S
C89 C91 1.363 . S
C90 C80 1.465 . S
C90 U86 2.847 . S
C90 O104 1.249 . S
C90 O105 1.202 . S
C91 C89 1.363 . S
C91 C93 1.408 . S
C91 C96 1.342 . S
C92 C93 1.310 . S
C92 C95 1.461 . S
C92 H112 0.932 . S
C93 C91 1.408 . S
C93 C92 1.310 . S
C93 H113 0.930 . S
C94 C95 1.474 . S
C94 C96 1.285 . S
C94 H114 0.929 . S
C95 C92 1.461 . S
C95 C94 1.474 . S
C96 C91 1.342 . S
C96 C94 1.285 . S
C96 H115 0.930 . S
C97 C100 1.424 . S
C97 C102 1.245 . S
C97 C103 1.428 . S
C98 C101 1.260 . S
C98 C102 1.477 . S
C98 H116 0.932 . S
C99 C100 1.384 . S
C99 C101 1.479 . S
C99 H117 0.929 . S
C100 C97 1.424 . S
C100 C99 1.384 . S
C100 H118 0.928 . S
C101 C98 1.260 . S
C101 C99 1.479 . S
C102 C97 1.245 . S
C102 C98 1.477 . S
C102 H119 0.932 . S
C103 U86 2.882 . S
C103 C97 1.428 . S
C103 O106 1.301 . S
C103 O107 1.282 . S
O104 U86 2.441 . S
O104 C90 1.249 . S
O105 U86 2.420 . S
O105 C90 1.202 . S
O106 U86 2.455 . S
O106 C103 1.301 . S
O107 U86 2.449 . S
O107 C103 1.282 . S
H108 C81 0.931 . S
H109 C83 0.929 . S
H110 C84 0.930 . S
H111 C85 0.931 . S
H112 C92 0.932 . S
H113 C93 0.930 . S
H114 C94 0.929 . S
H115 C96 0.930 . S
H116 C98 0.932 . S
H117 C99 0.929 . S
H118 C100 0.928 . S
H119 C102 0.932 . S
C120 C121 1.264 . S
C120 C125 1.479 . S
C120 C130 1.465 . S
C121 C120 1.264 . S
C121 C123 1.339 . S
C121 H148 0.931 . S
C122 C123 1.395 . S
C122 C124 1.320 . S
C123 C121 1.339 . S
C123 C122 1.395 . S
C123 H149 0.929 . S
C124 C122 1.320 . S
C124 C125 1.405 . S
C124 H150 0.930 . S
C125 C120 1.479 . S
C125 C124 1.405 . S
C125 H151 0.931 1_554 S
U126 O127 2.454 1_554 S
U126 O128 2.458 1_554 S
U126 C129 2.984 1_554 S
U126 C130 2.847 . S
U126 C143 2.882 . S
U126 O144 2.461 1_554 S
U126 O145 2.420 . S
U126 O146 2.455 . S
U126 O147 2.449 . S
O127 U126 2.454 1_556 S
O127 C129 1.353 . S
O128 U126 2.458 1_556 S
O128 C129 1.286 . S
C129 U126 2.984 1_556 S
C129 O127 1.353 . S
C129 O128 1.286 . S
C129 C131 1.363 . S
C130 C120 1.465 . S
C130 U126 2.847 . S
C130 O144 1.176 1_554 S
C130 O145 1.202 . S
C131 C129 1.363 . S
C131 C133 1.408 . S
C131 C136 1.342 . S
C132 C133 1.310 . S
C132 C135 1.461 . S
C132 H152 0.932 . S
C133 C131 1.408 . S
C133 C132 1.310 . S
C133 H153 0.930 . S
C134 C135 1.474 . S
C134 C136 1.285 . S
C134 H154 0.929 . S
C135 C132 1.461 . S
C135 C134 1.474 . S
C136 C131 1.342 . S
C136 C134 1.285 . S
C136 H155 0.930 . S
C137 C140 1.424 . S
C137 C142 1.245 . S
C137 C143 1.428 . S
C138 C141 1.260 . S
C138 C142 1.477 . S
C138 H156 0.932 . S
C139 C140 1.384 . S
C139 C141 1.479 . S
C139 H157 0.929 . S
C140 C137 1.424 . S
C140 C139 1.384 . S
C140 H158 0.928 . S
C141 C138 1.260 . S
C141 C139 1.479 . S
C142 C137 1.245 . S
C142 C138 1.477 . S
C142 H159 0.932 . S
C143 U126 2.882 . S
C143 C137 1.428 . S
C143 O146 1.301 . S
C143 O147 1.282 . S
O144 U126 2.461 1_556 S
O144 C130 1.176 1_556 S
O145 U126 2.420 . S
O145 C130 1.202 . S
O146 U126 2.455 . S
O146 C143 1.301 . S
O147 U126 2.449 . S
O147 C143 1.282 . S
H148 C121 0.931 . S
H149 C123 0.929 . S
H150 C124 0.930 . S
H151 C125 0.931 1_556 S
H152 C132 0.932 . S
H153 C133 0.930 . S
H154 C134 0.929 . S
H155 C136 0.930 . S
H156 C138 0.932 . S
H157 C139 0.929 . S
H158 C140 0.928 . S
H159 C142 0.932 . S
C160 C161 1.264 . S
C160 C165 1.479 . S
C160 C170 1.465 . S
C161 C160 1.264 . S
C161 C163 1.339 . S
C161 H188 0.931 . S
C162 C163 1.395 . S
C162 C164 1.320 . S
C163 C161 1.339 . S
C163 C162 1.395 . S
C163 H189 0.929 . S
C164 C162 1.320 . S
C164 C165 1.405 . S
C164 H190 0.930 . S
C165 C160 1.479 . S
C165 C164 1.405 . S
C165 H191 0.931 . S
U166 O167 2.454 1_455 S
U166 O168 2.458 . S
U166 C169 2.984 . S
U166 C170 2.847 1_455 S
U166 C183 2.882 . S
U166 O184 2.441 1_455 S
U166 O185 2.420 1_455 S
U166 O186 2.455 . S
U166 O187 2.449 . S
O167 U166 2.454 1_655 S
O167 C169 1.353 1_655 S
O168 U166 2.458 . S
O168 C169 1.286 . S
C169 U166 2.984 . S
C169 O167 1.353 1_455 S
C169 O168 1.286 . S
C169 C171 1.363 . S
C170 C160 1.465 . S
C170 U166 2.847 1_655 S
C170 O184 1.249 . S
C170 O185 1.202 . S
C171 C169 1.363 . S
C171 C173 1.408 1_455 S
C171 C176 1.342 . S
C172 C173 1.310 . S
C172 C175 1.461 1_655 S
C172 H192 0.932 . S
C173 C171 1.408 1_655 S
C173 C172 1.310 . S
C173 H193 0.930 . S
C174 C175 1.474 . S
C174 C176 1.285 . S
C174 H194 0.929 . S
C175 C172 1.461 1_455 S
C175 C174 1.474 . S
C176 C171 1.342 . S
C176 C174 1.285 . S
C176 H195 0.930 . S
C177 C180 1.424 . S
C177 C182 1.245 . S
C177 C183 1.428 . S
C178 C181 1.260 . S
C178 C182 1.477 . S
C178 H196 0.932 . S
C179 C180 1.384 . S
C179 C181 1.479 . S
C179 H197 0.929 . S
C180 C177 1.424 . S
C180 C179 1.384 . S
C180 H198 0.928 . S
C181 C178 1.260 . S
C181 C179 1.479 . S
C182 C177 1.245 . S
C182 C178 1.477 . S
C182 H199 0.932 . S
C183 U166 2.882 . S
C183 C177 1.428 . S
C183 O186 1.301 . S
C183 O187 1.282 . S
O184 U166 2.441 1_655 S
O184 C170 1.249 . S
O185 U166 2.420 1_655 S
O185 C170 1.202 . S
O186 U166 2.455 . S
O186 C183 1.301 . S
O187 U166 2.449 . S
O187 C183 1.282 . S
H188 C161 0.931 . S
H189 C163 0.929 . S
H190 C164 0.930 . S
H191 C165 0.931 . S
H192 C172 0.932 . S
H193 C173 0.930 . S
H194 C174 0.929 . S
H195 C176 0.930 . S
H196 C178 0.932 . S
H197 C179 0.929 . S
H198 C180 0.928 . S
H199 C182 0.932 . S
C200 C201 1.264 . S
C200 C205 1.479 . S
C200 C210 1.465 . S
C201 C200 1.264 . S
C201 C203 1.339 . S
C201 H228 0.931 . S
C202 C203 1.395 . S
C202 C204 1.320 . S
C203 C201 1.339 . S
C203 C202 1.395 . S
C203 H229 0.929 . S
C204 C202 1.320 . S
C204 C205 1.405 . S
C204 H230 0.930 . S
C205 C200 1.479 . S
C205 C204 1.405 . S
C205 H231 0.931 . S
U206 O207 2.454 . S
U206 O208 2.458 . S
U206 C209 2.984 . S
U206 C210 2.847 . S
U206 C223 2.882 . S
U206 O224 2.441 . S
U206 O225 2.420 . S
U206 O226 2.455 . S
U206 O227 2.449 . S
O207 U206 2.454 . S
O207 C209 1.353 . S
O208 U206 2.458 . S
O208 C209 1.286 . S
C209 U206 2.984 . S
C209 O207 1.353 . S
C209 O208 1.286 . S
C209 C211 1.363 . S
C210 C200 1.465 . S
C210 U206 2.847 . S
C210 O224 1.249 . S
C210 O225 1.202 . S
C211 C209 1.363 . S
C211 C213 1.408 . S
C211 C216 1.342 . S
C212 C213 1.310 . S
C212 C215 1.461 . S
C212 H232 0.932 . S
C213 C211 1.408 . S
C213 C212 1.310 . S
C213 H233 0.930 . S
C214 C215 1.474 . S
C214 C216 1.285 . S
C214 H234 0.929 . S
C215 C212 1.461 . S
C215 C214 1.474 . S
C216 C211 1.342 . S
C216 C214 1.285 . S
C216 H235 0.930 . S
C217 C220 1.424 . S
C217 C222 1.245 . S
C217 C223 1.428 . S
C218 C221 1.260 . S
C218 C222 1.477 . S
C218 H236 0.932 . S
C219 C220 1.384 . S
C219 C221 1.479 . S
C219 H237 0.929 . S
C220 C217 1.424 . S
C220 C219 1.384 . S
C220 H238 0.928 . S
C221 C218 1.260 . S
C221 C219 1.479 . S
C222 C217 1.245 . S
C222 C218 1.477 . S
C222 H239 0.932 . S
C223 U206 2.882 . S
C223 C217 1.428 . S
C223 O226 1.301 . S
C223 O227 1.282 . S
O224 U206 2.441 . S
O224 C210 1.249 . S
O225 U206 2.420 . S
O225 C210 1.202 . S
O226 U206 2.455 . S
O226 C223 1.301 . S
O227 U206 2.449 . S
O227 C223 1.282 . S
H228 C201 0.931 . S
H229 C203 0.929 . S
H230 C204 0.930 . S
H231 C205 0.931 . S
H232 C212 0.932 . S
H233 C213 0.930 . S
H234 C214 0.929 . S
H235 C216 0.930 . S
H236 C218 0.932 . S
H237 C219 0.929 . S
H238 C220 0.928 . S
H239 C222 0.932 . S
C240 C241 1.264 . S
C240 C245 1.479 . S
C240 C250 1.465 . S
C241 C240 1.264 . S
C241 C243 1.339 . S
C241 H268 0.931 . S
C242 C243 1.395 . S
C242 C244 1.320 . S
C243 C241 1.339 . S
C243 C242 1.395 . S
C243 H269 0.929 . S
C244 C242 1.320 . S
C244 C245 1.405 . S
C244 H270 0.930 . S
C245 C240 1.479 . S
C245 C244 1.405 . S
C245 H271 0.931 . S
U246 O247 2.454 . S
U246 O248 2.458 . S
U246 C249 2.984 . S
U246 C250 2.847 . S
U246 C263 2.882 . S
U246 O264 2.441 . S
U246 O265 2.420 . S
U246 O266 2.455 . S
U246 O267 2.449 . S
O247 U246 2.454 . S
O247 C249 1.353 . S
O248 U246 2.458 . S
O248 C249 1.286 . S
C249 U246 2.984 . S
C249 O247 1.353 . S
C249 O248 1.286 . S
C249 C251 1.363 . S
C250 C240 1.465 . S
C250 U246 2.847 . S
C250 O264 1.249 . S
C250 O265 1.202 . S
C251 C249 1.363 . S
C251 C253 1.408 . S
C251 C256 1.342 . S
C252 C253 1.310 . S
C252 C255 1.461 . S
C252 H272 0.932 . S
C253 C251 1.408 . S
C253 C252 1.310 . S
C253 H273 0.930 . S
C254 C255 1.474 . S
C254 C256 1.285 . S
C254 H274 0.929 . S
C255 C252 1.461 . S
C255 C254 1.474 . S
C256 C251 1.342 . S
C256 C254 1.285 . S
C256 H275 0.930 . S
C257 C260 1.424 . S
C257 C262 1.245 . S
C257 C263 1.428 . S
C258 C261 1.260 . S
C258 C262 1.477 . S
C258 H276 0.932 . S
C259 C260 1.384 . S
C259 C261 1.479 . S
C259 H277 0.929 . S
C260 C257 1.424 . S
C260 C259 1.384 . S
C260 H278 0.928 . S
C261 C258 1.260 . S
C261 C259 1.479 . S
C262 C257 1.245 . S
C262 C258 1.477 . S
C262 H279 0.932 . S
C263 U246 2.882 . S
C263 C257 1.428 . S
C263 O266 1.301 . S
C263 O267 1.282 . S
O264 U246 2.441 . S
O264 C250 1.249 . S
O265 U246 2.420 . S
O265 C250 1.202 . S
O266 U246 2.455 . S
O266 C263 1.301 . S
O267 U246 2.449 . S
O267 C263 1.282 . S
H268 C241 0.931 . S
H269 C243 0.929 . S
H270 C244 0.930 . S
H271 C245 0.931 . S
H272 C252 0.932 . S
H273 C253 0.930 . S
H274 C254 0.929 . S
H275 C256 0.930 . S
H276 C258 0.932 . S
H277 C259 0.929 . S
H278 C260 0.928 . S
H279 C262 0.932 . S
C280 C281 1.264 . S
C280 C285 1.479 . S
C280 C290 1.465 . S
C281 C280 1.264 . S
C281 C283 1.339 . S
C281 H308 0.931 . S
C282 C283 1.395 . S
C282 C284 1.320 . S
C283 C281 1.339 . S
C283 C282 1.395 . S
C283 H309 0.929 . S
C284 C282 1.320 . S
C284 C285 1.405 . S
C284 H310 0.930 . S
C285 C280 1.479 . S
C285 C284 1.405 . S
C285 H311 0.931 . S
U286 O287 2.454 . S
U286 O288 2.458 . S
U286 C289 2.984 . S
U286 C290 2.847 . S
U286 C303 2.882 . S
U286 O304 2.441 . S
U286 O305 2.420 . S
U286 O306 2.455 . S
U286 O307 2.449 . S
O287 U286 2.454 . S
O287 C289 1.353 . S
O288 U286 2.458 . S
O288 C289 1.286 . S
C289 U286 2.984 . S
C289 O287 1.353 . S
C289 O288 1.286 . S
C289 C291 1.363 . S
C290 C280 1.465 . S
C290 U286 2.847 . S
C290 O304 1.249 . S
C290 O305 1.202 . S
C291 C289 1.363 . S
C291 C293 1.408 . S
C291 C296 1.342 . S
C292 C293 1.310 . S
C292 C295 1.461 . S
C292 H312 0.932 . S
C293 C291 1.408 . S
C293 C292 1.310 . S
C293 H313 0.930 . S
C294 C295 1.474 . S
C294 C296 1.285 . S
C294 H314 0.929 . S
C295 C292 1.461 . S
C295 C294 1.474 . S
C296 C291 1.342 . S
C296 C294 1.285 . S
C296 H315 0.930 . S
C297 C300 1.424 . S
C297 C302 1.245 . S
C297 C303 1.428 . S
C298 C301 1.260 . S
C298 C302 1.477 . S
C298 H316 0.932 . S
C299 C300 1.384 . S
C299 C301 1.479 . S
C299 H317 0.929 . S
C300 C297 1.424 . S
C300 C299 1.384 . S
C300 H318 0.928 . S
C301 C298 1.260 . S
C301 C299 1.479 . S
C302 C297 1.245 . S
C302 C298 1.477 . S
C302 H319 0.932 . S
C303 U286 2.882 . S
C303 C297 1.428 . S
C303 O306 1.301 . S
C303 O307 1.282 . S
O304 U286 2.441 . S
O304 C290 1.249 . S
O305 U286 2.420 . S
O305 C290 1.202 . S
O306 U286 2.455 . S
O306 C303 1.301 . S
O307 U286 2.449 . S
O307 C303 1.282 . S
H308 C281 0.931 . S
H309 C283 0.929 . S
H310 C284 0.930 . S
H311 C285 0.931 . S
H312 C292 0.932 . S
H313 C293 0.930 . S
H314 C294 0.929 . S
H315 C296 0.930 . S
H316 C298 0.932 . S
H317 C299 0.929 . S
H318 C300 0.928 . S
H319 C302 0.932 . S
C320 C321 1.264 . S
C320 C325 1.479 . S
C320 C330 1.465 . S
C321 C320 1.264 . S
C321 C323 1.339 . S
C321 H348 0.931 . S
C322 C323 1.395 . S
C322 C324 1.320 . S
C323 C321 1.339 . S
C323 C322 1.395 . S
C323 H349 0.929 . S
C324 C322 1.320 . S
C324 C325 1.405 . S
C324 H350 0.930 . S
C325 C320 1.479 . S
C325 C324 1.405 . S
C325 H351 0.931 . S
U326 O327 2.454 . S
U326 O328 2.458 . S
U326 C329 2.984 . S
U326 C330 2.847 . S
U326 C343 2.882 . S
U326 O344 2.441 . S
U326 O345 2.420 . S
U326 O346 2.455 . S
U326 O347 2.449 . S
O327 U326 2.454 . S
O327 C329 1.353 . S
O328 U326 2.458 . S
O328 C329 1.286 . S
C329 U326 2.984 . S
C329 O327 1.353 . S
C329 O328 1.286 . S
C329 C331 1.363 . S
C330 C320 1.465 . S
C330 U326 2.847 . S
C330 O344 1.249 . S
C330 O345 1.202 . S
C331 C329 1.363 . S
C331 C333 1.408 . S
C331 C336 1.342 . S
C332 C333 1.310 . S
C332 C335 1.461 . S
C332 H352 0.932 . S
C333 C331 1.408 . S
C333 C332 1.310 . S
C333 H353 0.930 . S
C334 C335 1.474 . S
C334 C336 1.285 . S
C334 H354 0.929 . S
C335 C332 1.461 . S
C335 C334 1.474 . S
C336 C331 1.342 . S
C336 C334 1.285 . S
C336 H355 0.930 . S
C337 C340 1.424 . S
C337 C342 1.245 . S
C337 C343 1.428 . S
C338 C341 1.260 . S
C338 C342 1.477 . S
C338 H356 0.932 . S
C339 C340 1.384 . S
C339 C341 1.479 . S
C339 H357 0.929 . S
C340 C337 1.424 . S
C340 C339 1.384 . S
C340 H358 0.928 . S
C341 C338 1.260 . S
C341 C339 1.479 . S
C342 C337 1.245 . S
C342 C338 1.477 . S
C342 H359 0.932 . S
C343 U326 2.882 . S
C343 C337 1.428 . S
C343 O346 1.301 . S
C343 O347 1.282 . S
O344 U326 2.441 . S
O344 C330 1.249 . S
O345 U326 2.420 . S
O345 C330 1.202 . S
O346 U326 2.455 . S
O346 C343 1.301 . S
O347 U326 2.449 . S
O347 C343 1.282 . S
H348 C321 0.931 . S
H349 C323 0.929 . S
H350 C324 0.930 . S
H351 C325 0.931 . S
H352 C332 0.932 . S
H353 C333 0.930 . S
H354 C334 0.929 . S
H355 C336 0.930 . S
H356 C338 0.932 . S
H357 C339 0.929 . S
H358 C340 0.928 . S
H359 C342 0.932 . S
C360 C361 1.264 . S
C360 C365 1.479 . S
C360 C370 1.475 . S
C361 C360 1.264 . S
C361 C363 1.339 . S
C361 H388 0.931 . S
C362 C363 1.395 . S
C362 C364 1.320 . S
C363 C361 1.339 . S
C363 C362 1.395 . S
C363 H389 0.929 . S
C364 C362 1.320 . S
C364 C365 1.405 . S
C364 H390 0.930 . S
C365 C360 1.479 . S
C365 C364 1.405 . S
C365 H391 0.931 . S
U366 O367 2.454 . S
U366 O368 2.458 . S
U366 C369 2.984 . S
U366 C370 2.837 1_545 S
U366 C383 2.882 . S
U366 O384 2.520 . S
U366 O385 2.420 . S
U366 O386 2.455 . S
U366 O387 2.449 . S
O367 U366 2.454 . S
O367 C369 1.353 . S
O368 U366 2.458 . S
O368 C369 1.286 . S
C369 U366 2.984 . S
C369 O367 1.353 . S
C369 O368 1.286 . S
C369 C371 1.363 . S
C370 C360 1.475 . S
C370 U366 2.837 1_565 S
C370 O384 1.237 1_565 S
C370 O385 1.193 1_565 S
C371 C369 1.363 . S
C371 C373 1.408 . S
C371 C376 1.342 . S
C372 C373 1.310 . S
C372 C375 1.461 . S
C372 H392 0.932 . S
C373 C371 1.408 . S
C373 C372 1.310 . S
C373 H393 0.930 . S
C374 C375 1.474 . S
C374 C376 1.285 . S
C374 H394 0.929 . S
C375 C372 1.461 . S
C375 C374 1.474 . S
C376 C371 1.342 . S
C376 C374 1.285 . S
C376 H395 0.930 . S
C377 C380 1.424 . S
C377 C382 1.245 . S
C377 C383 1.428 . S
C378 C381 1.260 . S
C378 C382 1.477 . S
C378 H396 0.932 . S
C379 C380 1.384 . S
C379 C381 1.479 . S
C379 H397 0.929 . S
C380 C377 1.424 . S
C380 C379 1.384 . S
C380 H398 0.928 . S
C381 C378 1.260 . S
C381 C379 1.479 . S
C382 C377 1.245 . S
C382 C378 1.477 . S
C382 H399 0.932 . S
C383 U366 2.882 . S
C383 C377 1.428 . S
C383 O386 1.301 . S
C383 O387 1.282 . S
O384 U366 2.520 . S
O384 C370 1.237 1_545 S
O385 U366 2.420 . S
O385 C370 1.193 1_545 S
O386 U366 2.455 . S
O386 C383 1.301 . S
O387 U366 2.449 . S
O387 C383 1.282 . S
H388 C361 0.931 . S
H389 C363 0.929 . S
H390 C364 0.930 . S
H391 C365 0.931 . S
H392 C372 0.932 . S
H393 C373 0.930 . S
H394 C374 0.929 . S
H395 C376 0.930 . S
H396 C378 0.932 . S
H397 C379 0.929 . S
H398 C380 0.928 . S
H399 C382 0.932 . S
C400 C401 1.264 . S
C400 C405 1.479 . S
C400 C410 1.465 1_545 S
C401 C400 1.264 . S
C401 C403 1.339 . S
C401 H428 0.931 . S
C402 C403 1.395 . S
C402 C404 1.320 . S
C403 C401 1.339 . S
C403 C402 1.395 . S
C403 H429 0.929 . S
C404 C402 1.320 . S
C404 C405 1.405 . S
C404 H430 0.930 . S
C405 C400 1.479 . S
C405 C404 1.405 . S
C405 H431 0.931 . S
U406 O407 2.454 . S
U406 O408 2.458 . S
U406 C409 2.984 . S
U406 C410 2.847 . S
U406 C423 2.882 . S
U406 O424 2.441 . S
U406 O425 2.420 . S
U406 O426 2.455 . S
U406 O427 2.449 . S
O407 U406 2.454 . S
O407 C409 1.353 . S
O408 U406 2.458 . S
O408 C409 1.286 . S
C409 U406 2.984 . S
C409 O407 1.353 . S
C409 O408 1.286 . S
C409 C411 1.363 . S
C410 C400 1.465 1_565 S
C410 U406 2.847 . S
C410 O424 1.249 . S
C410 O425 1.202 . S
C411 C409 1.363 . S
C411 C413 1.408 . S
C411 C416 1.342 . S
C412 C413 1.310 . S
C412 C415 1.461 . S
C412 H432 0.932 . S
C413 C411 1.408 . S
C413 C412 1.310 . S
C413 H433 0.930 . S
C414 C415 1.474 . S
C414 C416 1.285 . S
C414 H434 0.929 . S
C415 C412 1.461 . S
C415 C414 1.474 . S
C416 C411 1.342 . S
C416 C414 1.285 . S
C416 H435 0.930 . S
C417 C420 1.424 . S
C417 C422 1.245 . S
C417 C423 1.428 . S
C418 C421 1.260 . S
C418 C422 1.477 . S
C418 H436 0.932 . S
C419 C420 1.384 . S
C419 C421 1.479 . S
C419 H437 0.929 . S
C420 C417 1.424 . S
C420 C419 1.384 . S
C420 H438 0.928 . S
C421 C418 1.260 . S
C421 C419 1.479 . S
C422 C417 1.245 . S
C422 C418 1.477 . S
C422 H439 0.932 . S
C423 U406 2.882 . S
C423 C417 1.428 . S
C423 O426 1.301 . S
C423 O427 1.282 . S
O424 U406 2.441 . S
O424 C410 1.249 . S
O425 U406 2.420 . S
O425 C410 1.202 . S
O426 U406 2.455 . S
O426 C423 1.301 . S
O427 U406 2.449 . S
O427 C423 1.282 . S
H428 C401 0.931 . S
H429 C403 0.929 . S
H430 C404 0.930 . S
H431 C405 0.931 . S
H432 C412 0.932 . S
H433 C413 0.930 . S
H434 C414 0.929 . S
H435 C416 0.930 . S
H436 C418 0.932 . S
H437 C419 0.929 . S
H438 C420 0.928 . S
H439 C422 0.932 . S
C440 C441 1.264 . S
C440 C445 1.479 . S
C440 C450 1.465 . S
C441 C440 1.264 . S
C441 C443 1.339 . S
C441 H468 0.931 . S
C442 C443 1.395 . S
C442 C444 1.320 . S
C443 C441 1.339 . S
C443 C442 1.395 . S
C443 H469 0.929 . S
C444 C442 1.320 . S
C444 C445 1.405 . S
C444 H470 0.930 . S
C445 C440 1.479 . S
C445 C444 1.405 . S
C445 H471 0.931 . S
U446 O447 2.454 . S
U446 O448 2.458 . S
U446 C449 2.984 . S
U446 C450 2.847 . S
U446 C463 2.882 . S
U446 O464 2.441 . S
U446 O465 2.420 . S
U446 O466 2.455 . S
U446 O467 2.449 . S
O447 U446 2.454 . S
O447 C449 1.353 . S
O448 U446 2.458 . S
O448 C449 1.286 . S
C449 U446 2.984 . S
C449 O447 1.353 . S
C449 O448 1.286 . S
C449 C451 1.363 . S
C450 C440 1.465 . S
C450 U446 2.847 . S
C450 O464 1.249 . S
C450 O465 1.202 . S
C451 C449 1.363 . S
C451 C453 1.408 . S
C451 C456 1.342 . S
C452 C453 1.310 . S
C452 C455 1.461 . S
C452 H472 0.932 . S
C453 C451 1.408 . S
C453 C452 1.310 . S
C453 H473 0.930 . S
C454 C455 1.474 . S
C454 C456 1.285 . S
C454 H474 0.929 . S
C455 C452 1.461 . S
C455 C454 1.474 . S
C456 C451 1.342 . S
C456 C454 1.285 . S
C456 H475 0.930 . S
C457 C460 1.424 . S
C457 C462 1.245 . S
C457 C463 1.428 . S
C458 C461 1.260 . S
C458 C462 1.477 . S
C458 H476 0.932 . S
C459 C460 1.384 . S
C459 C461 1.479 . S
C459 H477 0.929 . S
C460 C457 1.424 . S
C460 C459 1.384 . S
C460 H478 0.928 . S
C461 C458 1.260 . S
C461 C459 1.479 . S
C462 C457 1.245 . S
C462 C458 1.477 . S
C462 H479 0.932 . S
C463 U446 2.882 . S
C463 C457 1.428 . S
C463 O466 1.301 . S
C463 O467 1.282 . S
O464 U446 2.441 . S
O464 C450 1.249 . S
O465 U446 2.420 . S
O465 C450 1.202 . S
O466 U446 2.455 . S
O466 C463 1.301 . S
O467 U446 2.449 . S
O467 C463 1.282 . S
H468 C441 0.931 . S
H469 C443 0.929 . S
H470 C444 0.930 . S
H471 C445 0.931 . S
H472 C452 0.932 . S
H473 C453 0.930 . S
H474 C454 0.929 . S
H475 C456 0.930 . S
H476 C458 0.932 . S
H477 C459 0.929 . S
H478 C460 0.928 . S
H479 C462 0.932 . S
C480 C481 1.264 . S
C480 C485 1.479 . S
C480 C490 1.465 . S
C481 C480 1.264 . S
C481 C483 1.339 . S
C481 H508 0.931 . S
C482 C483 1.395 . S
C482 C484 1.320 . S
C483 C481 1.339 . S
C483 C482 1.395 . S
C483 H509 0.929 . S
C484 C482 1.320 . S
C484 C485 1.405 . S
C484 H510 0.930 . S
C485 C480 1.479 . S
C485 C484 1.405 . S
C485 H511 0.931 . S
U486 O487 2.454 . S
U486 O488 2.458 . S
U486 C489 2.984 . S
U486 C490 2.847 . S
U486 C503 2.882 . S
U486 O504 2.441 . S
U486 O505 2.420 . S
U486 O506 2.455 . S
U486 O507 2.449 . S
O487 U486 2.454 . S
O487 C489 1.353 . S
O488 U486 2.458 . S
O488 C489 1.286 . S
C489 U486 2.984 . S
C489 O487 1.353 . S
C489 O488 1.286 . S
C489 C491 1.363 . S
C490 C480 1.465 . S
C490 U486 2.847 . S
C490 O504 1.249 . S
C490 O505 1.202 . S
C491 C489 1.363 . S
C491 C493 1.408 . S
C491 C496 1.342 . S
C492 C493 1.310 . S
C492 C495 1.461 . S
C492 H512 0.932 . S
C493 C491 1.408 . S
C493 C492 1.310 . S
C493 H513 0.930 . S
C494 C495 1.474 . S
C494 C496 1.285 . S
C494 H514 0.929 . S
C495 C492 1.461 . S
C495 C494 1.474 . S
C496 C491 1.342 . S
C496 C494 1.285 . S
C496 H515 0.930 . S
C497 C500 1.424 . S
C497 C502 1.245 . S
C497 C503 1.428 . S
C498 C501 1.260 . S
C498 C502 1.477 . S
C498 H516 0.932 . S
C499 C500 1.384 . S
C499 C501 1.479 . S
C499 H517 0.929 . S
C500 C497 1.424 . S
C500 C499 1.384 . S
C500 H518 0.928 . S
C501 C498 1.260 . S
C501 C499 1.479 . S
C502 C497 1.245 . S
C502 C498 1.477 . S
C502 H519 0.932 . S
C503 U486 2.882 . S
C503 C497 1.428 . S
C503 O506 1.301 . S
C503 O507 1.282 . S
O504 U486 2.441 . S
O504 C490 1.249 . S
O505 U486 2.420 . S
O505 C490 1.202 . S
O506 U486 2.455 . S
O506 C503 1.301 . S
O507 U486 2.449 . S
O507 C503 1.282 . S
H508 C481 0.931 . S
H509 C483 0.929 . S
H510 C484 0.930 . S
H511 C485 0.931 . S
H512 C492 0.932 . S
H513 C493 0.930 . S
H514 C494 0.929 . S
H515 C496 0.930 . S
H516 C498 0.932 . S
H517 C499 0.929 . S
H518 C500 0.928 . S
H519 C502 0.932 . S
C520 C521 1.264 . S
C520 C525 1.479 . S
C520 C530 1.465 . S
C521 C520 1.264 . S
C521 C523 1.339 . S
C521 H548 0.931 . S
C522 C523 1.395 . S
C522 C524 1.320 . S
C523 C521 1.339 . S
C523 C522 1.395 . S
C523 H549 0.929 . S
C524 C522 1.320 . S
C524 C525 1.405 . S
C524 H550 0.930 . S
C525 C520 1.479 . S
C525 C524 1.405 . S
C525 H551 0.931 . S
U526 O527 2.454 . S
U526 O528 2.458 . S
U526 C529 2.984 . S
U526 C530 2.847 1_655 S
U526 C543 2.882 . S
U526 O544 2.441 1_655 S
U526 O545 2.420 1_655 S
U526 O546 2.455 . S
U526 O547 2.449 . S
O527 U526 2.454 . S
O527 C529 1.353 . S
O528 U526 2.458 . S
O528 C529 1.286 . S
C529 U526 2.984 . S
C529 O527 1.353 . S
C529 O528 1.286 . S
C529 C531 1.363 . S
C530 C520 1.465 . S
C530 U526 2.847 1_455 S
C530 O544 1.249 . S
C530 O545 1.202 . S
C531 C529 1.363 . S
C531 C533 1.408 . S
C531 C536 1.342 . S
C532 C533 1.310 . S
C532 C535 1.461 . S
C532 H552 0.932 . S
C533 C531 1.408 . S
C533 C532 1.310 . S
C533 H553 0.930 . S
C534 C535 1.474 . S
C534 C536 1.285 . S
C534 H554 0.929 . S
C535 C532 1.461 . S
C535 C534 1.474 . S
C536 C531 1.342 . S
C536 C534 1.285 . S
C536 H555 0.930 . S
C537 C540 1.424 . S
C537 C542 1.245 . S
C537 C543 1.428 . S
C538 C541 1.260 . S
C538 C542 1.477 . S
C538 H556 0.932 . S
C539 C540 1.384 . S
C539 C541 1.479 . S
C539 H557 0.929 . S
C540 C537 1.424 . S
C540 C539 1.384 . S
C540 H558 0.928 . S
C541 C538 1.260 . S
C541 C539 1.479 . S
C542 C537 1.245 . S
C542 C538 1.477 . S
C542 H559 0.932 . S
C543 U526 2.882 . S
C543 C537 1.428 . S
C543 O546 1.301 . S
C543 O547 1.282 . S
O544 U526 2.441 1_455 S
O544 C530 1.249 . S
O545 U526 2.420 1_455 S
O545 C530 1.202 . S
O546 U526 2.455 . S
O546 C543 1.301 . S
O547 U526 2.449 . S
O547 C543 1.282 . S
H548 C521 0.931 . S
H549 C523 0.929 . S
H550 C524 0.930 . S
H551 C525 0.931 . S
H552 C532 0.932 . S
H553 C533 0.930 . S
H554 C534 0.929 . S
H555 C536 0.930 . S
H556 C538 0.932 . S
H557 C539 0.929 . S
H558 C540 0.928 . S
H559 C542 0.932 . S
C560 C561 1.264 . S
C560 C565 1.479 . S
C560 C570 1.465 . S
C561 C560 1.264 . S
C561 C563 1.339 . S
C561 H588 0.931 . S
C562 C563 1.395 . S
C562 C564 1.320 . S
C563 C561 1.339 . S
C563 C562 1.395 . S
C563 H589 0.929 . S
C564 C562 1.320 . S
C564 C565 1.405 . S
C564 H590 0.930 . S
C565 C560 1.479 . S
C565 C564 1.405 . S
C565 H591 0.931 . S
U566 O567 2.454 . S
U566 O568 2.458 . S
U566 C569 2.984 . S
U566 C570 2.847 . S
U566 C583 2.882 . S
U566 O584 2.441 . S
U566 O585 2.420 . S
U566 O586 2.455 . S
U566 O587 2.449 . S
O567 U566 2.454 . S
O567 C569 1.353 . S
O568 U566 2.458 . S
O568 C569 1.286 . S
C569 U566 2.984 . S
C569 O567 1.353 . S
C569 O568 1.286 . S
C569 C571 1.363 . S
C570 C560 1.465 . S
C570 U566 2.847 . S
C570 O584 1.249 . S
C570 O585 1.202 . S
C571 C569 1.363 . S
C571 C573 1.408 . S
C571 C576 1.342 . S
C572 C573 1.310 . S
C572 C575 1.461 . S
C572 H592 0.932 . S
C573 C571 1.408 . S
C573 C572 1.310 . S
C573 H593 0.930 . S
C574 C575 1.474 . S
C574 C576 1.285 . S
C574 H594 0.929 . S
C575 C572 1.461 . S
C575 C574 1.474 . S
C576 C571 1.342 . S
C576 C574 1.285 . S
C576 H595 0.930 . S
C577 C580 1.424 . S
C577 C582 1.245 . S
C577 C583 1.428 . S
C578 C581 1.260 . S
C578 C582 1.477 . S
C578 H596 0.932 . S
C579 C580 1.384 . S
C579 C581 1.479 . S
C579 H597 0.929 . S
C580 C577 1.424 . S
C580 C579 1.384 . S
C580 H598 0.928 . S
C581 C578 1.260 . S
C581 C579 1.479 . S
C582 C577 1.245 . S
C582 C578 1.477 . S
C582 H599 0.932 . S
C583 U566 2.882 . S
C583 C577 1.428 . S
C583 O586 1.301 . S
C583 O587 1.282 . S
O584 U566 2.441 . S
O584 C570 1.249 . S
O585 U566 2.420 . S
O585 C570 1.202 . S
O586 U566 2.455 . S
O586 C583 1.301 . S
O587 U566 2.449 . S
O587 C583 1.282 . S
H588 C561 0.931 . S
H589 C563 0.929 . S
H590 C564 0.930 . S
H591 C565 0.931 . S
H592 C572 0.932 . S
H593 C573 0.930 . S
H594 C574 0.929 . S
H595 C576 0.930 . S
H596 C578 0.932 . S
H597 C579 0.929 . S
H598 C580 0.928 . S
H599 C582 0.932 . S
C600 C601 1.264 . S
C600 C605 1.479 1_655 S
C600 C610 1.465 . S
C601 C600 1.264 . S
C601 C603 1.339 . S
C601 H628 0.931 . S
C602 C603 1.395 . S
C602 C604 1.320 1_655 S
C603 C601 1.339 . S
C603 C602 1.395 . S
C603 H629 0.929 . S
C604 C602 1.320 1_455 S
C604 C605 1.405 . S
C604 H630 0.930 . S
C605 C600 1.479 1_455 S
C605 C604 1.405 . S
C605 H631 0.931 . S
U606 O607 2.454 1_655 S
U606 O608 2.458 1_655 S
U606 C609 2.984 1_655 S
U606 C610 2.847 . S
U606 C623 2.882 . S
U606 O624 2.441 1_655 S
U606 O625 2.420 . S
U606 O626 2.455 . S
U606 O627 2.449 . S
O607 U606 2.454 1_455 S
O607 C609 1.353 . S
O608 U606 2.458 1_455 S
O608 C609 1.286 . S
C609 U606 2.984 1_455 S
C609 O607 1.353 . S
C609 O608 1.286 . S
C609 C611 1.363 . S
C610 C600 1.465 . S
C610 U606 2.847 . S
C610 O624 1.249 1_655 S
C610 O625 1.202 . S
C611 C609 1.363 . S
C611 C613 1.408 . S
C611 C616 1.342 . S
C612 C613 1.310 . S
C612 C615 1.461 . S
C612 H632 0.932 . S
C613 C611 1.408 . S
C613 C612 1.310 . S
C613 H633 0.930 . S
C614 C615 1.474 . S
C614 C616 1.285 . S
C614 H634 0.929 . S
C615 C612 1.461 . S
C615 C614 1.474 . S
C616 C611 1.342 . S
C616 C614 1.285 . S
C616 H635 0.930 . S
C617 C620 1.424 . S
C617 C622 1.245 . S
C617 C623 1.428 . S
C618 C621 1.260 . S
C618 C622 1.477 . S
C618 H636 0.932 . S
C619 C620 1.384 . S
C619 C621 1.479 . S
C619 H637 0.929 . S
C620 C617 1.424 . S
C620 C619 1.384 . S
C620 H638 0.928 . S
C621 C618 1.260 . S
C621 C619 1.479 . S
C622 C617 1.245 . S
C622 C618 1.477 . S
C622 H639 0.932 . S
C623 U606 2.882 . S
C623 C617 1.428 . S
C623 O626 1.301 . S
C623 O627 1.282 . S
O624 U606 2.441 1_455 S
O624 C610 1.249 1_455 S
O625 U606 2.420 . S
O625 C610 1.202 . S
O626 U606 2.455 . S
O626 C623 1.301 . S
O627 U606 2.449 . S
O627 C623 1.282 . S
H628 C601 0.931 . S
H629 C603 0.929 . S
H630 C604 0.930 . S
H631 C605 0.931 . S
H632 C612 0.932 . S
H633 C613 0.930 . S
H634 C614 0.929 . S
H635 C616 0.930 . S
H636 C618 0.932 . S
H637 C619 0.929 . S
H638 C620 0.928 . S
H639 C622 0.932 . S
C640 C641 1.264 . S
C640 C645 1.479 . S
C640 C650 1.465 . S
C641 C640 1.264 . S
C641 C643 1.339 . S
C641 H668 0.931 . S
C642 C643 1.395 . S
C642 C644 1.320 . S
C643 C641 1.339 . S
C643 C642 1.395 . S
C643 H669 0.929 . S
C644 C642 1.320 . S
C644 C645 1.405 . S
C644 H670 0.930 . S
C645 C640 1.479 . S
C645 C644 1.405 . S
C645 H671 0.931 . S
U646 O647 2.454 . S
U646 O648 2.458 . S
U646 C649 2.984 . S
U646 C650 2.847 . S
U646 C663 2.882 . S
U646 O664 2.441 . S
U646 O665 2.420 . S
U646 O666 2.455 . S
U646 O667 2.449 . S
O647 U646 2.454 . S
O647 C649 1.353 . S
O648 U646 2.458 . S
O648 C649 1.286 . S
C649 U646 2.984 . S
C649 O647 1.353 . S
C649 O648 1.286 . S
C649 C651 1.363 . S
C650 C640 1.465 . S
C650 U646 2.847 . S
C650 O664 1.249 . S
C650 O665 1.202 . S
C651 C649 1.363 . S
C651 C653 1.408 . S
C651 C656 1.342 . S
C652 C653 1.310 . S
C652 C655 1.461 . S
C652 H672 0.932 . S
C653 C651 1.408 . S
C653 C652 1.310 . S
C653 H673 0.930 . S
C654 C655 1.474 . S
C654 C656 1.285 . S
C654 H674 0.929 . S
C655 C652 1.461 . S
C655 C654 1.474 . S
C656 C651 1.342 . S
C656 C654 1.285 . S
C656 H675 0.930 . S
C657 C660 1.424 . S
C657 C662 1.245 . S
C657 C663 1.428 . S
C658 C661 1.260 . S
C658 C662 1.477 . S
C658 H676 0.932 . S
C659 C660 1.384 . S
C659 C661 1.479 . S
C659 H677 0.929 . S
C660 C657 1.424 . S
C660 C659 1.384 . S
C660 H678 0.928 . S
C661 C658 1.260 . S
C661 C659 1.479 . S
C662 C657 1.245 . S
C662 C658 1.477 . S
C662 H679 0.932 . S
C663 U646 2.882 . S
C663 C657 1.428 . S
C663 O666 1.301 . S
C663 O667 1.282 . S
O664 U646 2.441 . S
O664 C650 1.249 . S
O665 U646 2.420 . S
O665 C650 1.202 . S
O666 U646 2.455 . S
O666 C663 1.301 . S
O667 U646 2.449 . S
O667 C663 1.282 . S
H668 C641 0.931 . S
H669 C643 0.929 . S
H670 C644 0.930 . S
H671 C645 0.931 . S
H672 C652 0.932 . S
H673 C653 0.930 . S
H674 C654 0.929 . S
H675 C656 0.930 . S
H676 C658 0.932 . S
H677 C659 0.929 . S
H678 C660 0.928 . S
H679 C662 0.932 . S
C680 C681 1.264 . S
C680 C685 1.479 . S
C680 C690 1.465 . S
C681 C680 1.264 . S
C681 C683 1.339 . S
C681 H708 0.931 . S
C682 C683 1.395 . S
C682 C684 1.320 . S
C683 C681 1.339 . S
C683 C682 1.395 . S
C683 H709 0.929 . S
C684 C682 1.320 . S
C684 C685 1.405 . S
C684 H710 0.930 . S
C685 C680 1.479 . S
C685 C684 1.405 . S
C685 H711 0.931 . S
U686 O687 2.454 . S
U686 O688 2.458 . S
U686 C689 2.984 . S
U686 C690 2.847 . S
U686 C703 2.882 . S
U686 O704 2.441 . S
U686 O705 2.420 . S
U686 O706 2.455 . S
U686 O707 2.449 . S
O687 U686 2.454 . S
O687 C689 1.353 . S
O688 U686 2.458 . S
O688 C689 1.286 . S
C689 U686 2.984 . S
C689 O687 1.353 . S
C689 O688 1.286 . S
C689 C691 1.363 . S
C690 C680 1.465 . S
C690 U686 2.847 . S
C690 O704 1.249 . S
C690 O705 1.202 . S
C691 C689 1.363 . S
C691 C693 1.408 . S
C691 C696 1.342 . S
C692 C693 1.310 . S
C692 C695 1.461 . S
C692 H712 0.932 . S
C693 C691 1.408 . S
C693 C692 1.310 . S
C693 H713 0.930 . S
C694 C695 1.474 . S
C694 C696 1.285 . S
C694 H714 0.929 . S
C695 C692 1.461 . S
C695 C694 1.474 . S
C696 C691 1.342 . S
C696 C694 1.285 . S
C696 H715 0.930 . S
C697 C700 1.424 . S
C697 C702 1.245 . S
C697 C703 1.428 . S
C698 C701 1.260 . S
C698 C702 1.477 . S
C698 H716 0.932 . S
C699 C700 1.384 . S
C699 C701 1.479 . S
C699 H717 0.929 . S
C700 C697 1.424 . S
C700 C699 1.384 . S
C700 H718 0.928 . S
C701 C698 1.260 . S
C701 C699 1.479 . S
C702 C697 1.245 . S
C702 C698 1.477 . S
C702 H719 0.932 . S
C703 U686 2.882 . S
C703 C697 1.428 . S
C703 O706 1.301 . S
C703 O707 1.282 . S
O704 U686 2.441 . S
O704 C690 1.249 . S
O705 U686 2.420 . S
O705 C690 1.202 . S
O706 U686 2.455 . S
O706 C703 1.301 . S
O707 U686 2.449 . S
O707 C703 1.282 . S
H708 C681 0.931 . S
H709 C683 0.929 . S
H710 C684 0.930 . S
H711 C685 0.931 . S
H712 C692 0.932 . S
H713 C693 0.930 . S
H714 C694 0.929 . S
H715 C696 0.930 . S
H716 C698 0.932 . S
H717 C699 0.929 . S
H718 C700 0.928 . S
H719 C702 0.932 . S
C720 C721 1.264 . S
C720 C725 1.479 . S
C720 C730 1.465 . S
C721 C720 1.264 . S
C721 C723 1.339 . S
C721 H748 0.931 . S
C722 C723 1.395 . S
C722 C724 1.320 . S
C723 C721 1.339 . S
C723 C722 1.395 . S
C723 H749 0.929 . S
C724 C722 1.320 . S
C724 C725 1.405 . S
C724 H750 0.930 . S
C725 C720 1.479 . S
C725 C724 1.405 . S
C725 H751 0.931 1_556 S
U726 O727 2.454 . S
U726 O728 2.458 . S
U726 C729 2.984 . S
U726 C730 2.847 1_554 S
U726 C743 2.882 1_554 S
U726 O744 2.441 . S
U726 O745 2.420 1_554 S
U726 O746 2.457 1_554 S
U726 O747 2.449 1_554 S
O727 U726 2.454 . S
O727 C729 1.353 . S
O728 U726 2.458 . S
O728 C729 1.286 . S
C729 U726 2.984 . S
C729 O727 1.353 . S
C729 O728 1.286 . S
C729 C731 1.363 . S
C730 C720 1.465 . S
C730 U726 2.847 1_556 S
C730 O744 1.249 1_556 S
C730 O745 1.202 . S
C731 C729 1.363 . S
C731 C733 1.408 . S
C731 C736 1.342 . S
C732 C733 1.310 . S
C732 C735 1.461 . S
C732 H752 0.932 . S
C733 C731 1.408 . S
C733 C732 1.310 . S
C733 H753 0.930 . S
C734 C735 1.474 . S
C734 C736 1.285 . S
C734 H754 0.929 . S
C735 C732 1.461 . S
C735 C734 1.474 . S
C736 C731 1.342 . S
C736 C734 1.285 . S
C736 H755 0.930 . S
C737 C740 1.424 . S
C737 C742 1.245 . S
C737 C743 1.428 . S
C738 C741 1.260 . S
C738 C742 1.477 . S
C738 H756 0.932 . S
C739 C740 1.384 . S
C739 C741 1.479 . S
C739 H757 0.929 . S
C740 C737 1.424 . S
C740 C739 1.384 . S
C740 H758 0.928 . S
C741 C738 1.260 . S
C741 C739 1.479 . S
C742 C737 1.245 . S
C742 C738 1.477 . S
C742 H759 0.932 . S
C743 U726 2.882 1_556 S
C743 C737 1.428 . S
C743 O746 1.314 . S
C743 O747 1.282 . S
O744 U726 2.441 . S
O744 C730 1.249 1_554 S
O745 U726 2.420 1_556 S
O745 C730 1.202 . S
O746 U726 2.457 1_556 S
O746 C743 1.314 . S
O747 U726 2.449 1_556 S
O747 C743 1.282 . S
H748 C721 0.931 . S
H749 C723 0.929 . S
H750 C724 0.930 . S
H751 C725 0.931 1_554 S
H752 C732 0.932 . S
H753 C733 0.930 . S
H754 C734 0.929 . S
H755 C736 0.930 . S
H756 C738 0.932 . S
H757 C739 0.929 . S
H758 C740 0.928 . S
H759 C742 0.932 . S
C760 C761 1.264 . S
C760 C765 1.479 . S
C760 C770 1.465 . S
C761 C760 1.264 . S
C761 C763 1.339 . S
C761 H788 0.931 . S
C762 C763 1.395 . S
C762 C764 1.320 . S
C763 C761 1.339 . S
C763 C762 1.395 . S
C763 H789 0.929 . S
C764 C762 1.320 . S
C764 C765 1.405 . S
C764 H790 0.930 . S
C765 C760 1.479 . S
C765 C764 1.405 . S
C765 H791 0.931 . S
U766 O767 2.454 . S
U766 O768 2.458 1_455 S
U766 C769 2.984 1_455 S
U766 C770 2.847 . S
U766 C783 2.882 1_455 S
U766 O784 2.441 . S
U766 O785 2.420 . S
U766 O786 2.455 1_455 S
U766 O787 2.449 1_455 S
O767 U766 2.454 . S
O767 C769 1.353 1_455 S
O768 U766 2.458 1_655 S
O768 C769 1.286 . S
C769 U766 2.984 1_655 S
C769 O767 1.353 1_655 S
C769 O768 1.286 . S
C769 C771 1.363 . S
C770 C760 1.465 . S
C770 U766 2.847 . S
C770 O784 1.249 . S
C770 O785 1.202 . S
C771 C769 1.363 . S
C771 C773 1.408 1_655 S
C771 C776 1.342 . S
C772 C773 1.310 . S
C772 C775 1.461 1_455 S
C772 H792 0.932 . S
C773 C771 1.408 1_455 S
C773 C772 1.310 . S
C773 H793 0.930 . S
C774 C775 1.474 . S
C774 C776 1.285 . S
C774 H794 0.929 . S
C775 C772 1.461 1_655 S
C775 C774 1.474 . S
C776 C771 1.342 . S
C776 C774 1.285 . S
C776 H795 0.930 . S
C777 C780 1.424 . S
C777 C782 1.245 . S
C777 C783 1.428 . S
C778 C781 1.260 . S
C778 C782 1.477 . S
C778 H796 0.932 . S
C779 C780 1.384 . S
C779 C781 1.479 . S
C779 H797 0.929 . S
C780 C777 1.424 . S
C780 C779 1.384 . S
C780 H798 0.928 . S
C781 C778 1.260 . S
C781 C779 1.479 . S
C782 C777 1.245 . S
C782 C778 1.477 . S
C782 H799 0.932 . S
C783 U766 2.882 1_655 S
C783 C777 1.428 . S
C783 O786 1.301 . S
C783 O787 1.282 . S
O784 U766 2.441 . S
O784 C770 1.249 . S
O785 U766 2.420 . S
O785 C770 1.202 . S
O786 U766 2.455 1_655 S
O786 C783 1.301 . S
O787 U766 2.449 1_655 S
O787 C783 1.282 . S
H788 C761 0.931 . S
H789 C763 0.929 . S
H790 C764 0.930 . S
H791 C765 0.931 . S
H792 C772 0.932 . S
H793 C773 0.930 . S
H794 C774 0.929 . S
H795 C776 0.930 . S
H796 C778 0.932 . S
H797 C779 0.929 . S
H798 C780 0.928 . S
H799 C782 0.932 . S
C800 C801 1.264 . S
C800 C805 1.479 . S
C800 C810 1.465 . S
C801 C800 1.264 . S
C801 C803 1.339 . S
C801 H828 0.931 . S
C802 C803 1.395 . S
C802 C804 1.320 . S
C803 C801 1.339 . S
C803 C802 1.395 . S
C803 H829 0.929 . S
C804 C802 1.320 . S
C804 C805 1.405 . S
C804 H830 0.930 . S
C805 C800 1.479 . S
C805 C804 1.405 . S
C805 H831 0.931 . S
U806 O807 2.454 . S
U806 O808 2.458 . S
U806 C809 2.984 . S
U806 C810 2.847 . S
U806 C823 2.882 . S
U806 O824 2.441 . S
U806 O825 2.420 . S
U806 O826 2.455 . S
U806 O827 2.449 . S
O807 U806 2.454 . S
O807 C809 1.353 . S
O808 U806 2.458 . S
O808 C809 1.286 . S
C809 U806 2.984 . S
C809 O807 1.353 . S
C809 O808 1.286 . S
C809 C811 1.363 . S
C810 C800 1.465 . S
C810 U806 2.847 . S
C810 O824 1.249 . S
C810 O825 1.202 . S
C811 C809 1.363 . S
C811 C813 1.408 . S
C811 C816 1.342 . S
C812 C813 1.310 . S
C812 C815 1.461 . S
C812 H832 0.932 . S
C813 C811 1.408 . S
C813 C812 1.310 . S
C813 H833 0.930 . S
C814 C815 1.474 . S
C814 C816 1.285 . S
C814 H834 0.929 . S
C815 C812 1.461 . S
C815 C814 1.474 . S
C816 C811 1.342 . S
C816 C814 1.285 . S
C816 H835 0.930 . S
C817 C820 1.424 . S
C817 C822 1.245 . S
C817 C823 1.428 . S
C818 C821 1.260 . S
C818 C822 1.477 . S
C818 H836 0.932 . S
C819 C820 1.384 . S
C819 C821 1.479 . S
C819 H837 0.929 . S
C820 C817 1.424 . S
C820 C819 1.384 . S
C820 H838 0.928 . S
C821 C818 1.260 . S
C821 C819 1.479 . S
C822 C817 1.245 . S
C822 C818 1.477 . S
C822 H839 0.932 . S
C823 U806 2.882 . S
C823 C817 1.428 . S
C823 O826 1.301 . S
C823 O827 1.282 . S
O824 U806 2.441 . S
O824 C810 1.249 . S
O825 U806 2.420 . S
O825 C810 1.202 . S
O826 U806 2.455 . S
O826 C823 1.301 . S
O827 U806 2.449 . S
O827 C823 1.282 . S
H828 C801 0.931 . S
H829 C803 0.929 . S
H830 C804 0.930 . S
H831 C805 0.931 . S
H832 C812 0.932 . S
H833 C813 0.930 . S
H834 C814 0.929 . S
H835 C816 0.930 . S
H836 C818 0.932 . S
H837 C819 0.929 . S
H838 C820 0.928 . S
H839 C822 0.932 . S
C840 C841 1.264 . S
C840 C845 1.479 . S
C840 C850 1.465 . S
C841 C840 1.264 . S
C841 C843 1.339 . S
C841 H868 0.931 . S
C842 C843 1.395 . S
C842 C844 1.320 . S
C843 C841 1.339 . S
C843 C842 1.395 . S
C843 H869 0.929 . S
C844 C842 1.320 . S
C844 C845 1.405 . S
C844 H870 0.930 . S
C845 C840 1.479 . S
C845 C844 1.405 . S
C845 H871 0.931 . S
U846 O847 2.454 . S
U846 O848 2.458 . S
U846 C849 2.984 . S
U846 C850 2.847 . S
U846 C863 2.882 . S
U846 O864 2.441 . S
U846 O865 2.420 . S
U846 O866 2.455 . S
U846 O867 2.449 . S
O847 U846 2.454 . S
O847 C849 1.353 . S
O848 U846 2.458 . S
O848 C849 1.286 . S
C849 U846 2.984 . S
C849 O847 1.353 . S
C849 O848 1.286 . S
C849 C851 1.363 . S
C850 C840 1.465 . S
C850 U846 2.847 . S
C850 O864 1.249 . S
C850 O865 1.202 . S
C851 C849 1.363 . S
C851 C853 1.408 . S
C851 C856 1.342 . S
C852 C853 1.310 . S
C852 C855 1.461 . S
C852 H872 0.932 . S
C853 C851 1.408 . S
C853 C852 1.310 . S
C853 H873 0.930 . S
C854 C855 1.474 . S
C854 C856 1.285 . S
C854 H874 0.929 . S
C855 C852 1.461 . S
C855 C854 1.474 . S
C856 C851 1.342 . S
C856 C854 1.285 . S
C856 H875 0.930 . S
C857 C860 1.424 . S
C857 C862 1.245 . S
C857 C863 1.428 . S
C858 C861 1.260 . S
C858 C862 1.477 . S
C858 H876 0.932 . S
C859 C860 1.384 . S
C859 C861 1.479 . S
C859 H877 0.929 . S
C860 C857 1.424 . S
C860 C859 1.384 . S
C860 H878 0.928 . S
C861 C858 1.260 . S
C861 C859 1.479 . S
C862 C857 1.245 . S
C862 C858 1.477 . S
C862 H879 0.932 . S
C863 U846 2.882 . S
C863 C857 1.428 . S
C863 O866 1.301 . S
C863 O867 1.282 . S
O864 U846 2.441 . S
O864 C850 1.249 . S
O865 U846 2.420 . S
O865 C850 1.202 . S
O866 U846 2.455 . S
O866 C863 1.301 . S
O867 U846 2.449 . S
O867 C863 1.282 . S
H868 C841 0.931 . S
H869 C843 0.929 . S
H870 C844 0.930 . S
H871 C845 0.931 . S
H872 C852 0.932 . S
H873 C853 0.930 . S
H874 C854 0.929 . S
H875 C856 0.930 . S
H876 C858 0.932 . S
H877 C859 0.929 . S
H878 C860 0.928 . S
H879 C862 0.932 . S
C880 C881 1.264 . S
C880 C885 1.479 . S
C880 C890 1.465 . S
C881 C880 1.264 . S
C881 C883 1.339 . S
C881 H908 0.931 . S
C882 C883 1.395 . S
C882 C884 1.320 . S
C883 C881 1.339 . S
C883 C882 1.395 . S
C883 H909 0.929 . S
C884 C882 1.320 . S
C884 C885 1.405 . S
C884 H910 0.930 . S
C885 C880 1.479 . S
C885 C884 1.405 . S
C885 H911 0.931 . S
U886 O887 2.454 . S
U886 O888 2.458 . S
U886 C889 2.984 . S
U886 C890 2.847 . S
U886 C903 2.882 . S
U886 O904 2.441 . S
U886 O905 2.420 . S
U886 O906 2.455 . S
U886 O907 2.449 . S
O887 U886 2.454 . S
O887 C889 1.353 . S
O888 U886 2.458 . S
O888 C889 1.286 . S
C889 U886 2.984 . S
C889 O887 1.353 . S
C889 O888 1.286 . S
C889 C891 1.363 . S
C890 C880 1.465 . S
C890 U886 2.847 . S
C890 O904 1.249 . S
C890 O905 1.202 . S
C891 C889 1.363 . S
C891 C893 1.408 . S
C891 C896 1.342 . S
C892 C893 1.310 . S
C892 C895 1.461 . S
C892 H912 0.932 . S
C893 C891 1.408 . S
C893 C892 1.310 . S
C893 H913 0.930 . S
C894 C895 1.474 . S
C894 C896 1.285 . S
C894 H914 0.929 . S
C895 C892 1.461 . S
C895 C894 1.474 . S
C896 C891 1.342 . S
C896 C894 1.285 . S
C896 H915 0.930 . S
C897 C900 1.424 . S
C897 C902 1.245 . S
C897 C903 1.428 . S
C898 C901 1.260 . S
C898 C902 1.477 . S
C898 H916 0.932 . S
C899 C900 1.384 . S
C899 C901 1.479 . S
C899 H917 0.929 . S
C900 C897 1.424 . S
C900 C899 1.384 . S
C900 H918 0.928 . S
C901 C898 1.260 . S
C901 C899 1.479 . S
C902 C897 1.245 . S
C902 C898 1.477 . S
C902 H919 0.932 . S
C903 U886 2.882 . S
C903 C897 1.428 . S
C903 O906 1.301 . S
C903 O907 1.282 . S
O904 U886 2.441 . S
O904 C890 1.249 . S
O905 U886 2.420 . S
O905 C890 1.202 . S
O906 U886 2.455 . S
O906 C903 1.301 . S
O907 U886 2.449 . S
O907 C903 1.282 . S
H908 C881 0.931 . S
H909 C883 0.929 . S
H910 C884 0.930 . S
H911 C885 0.931 . S
H912 C892 0.932 . S
H913 C893 0.930 . S
H914 C894 0.929 . S
H915 C896 0.930 . S
H916 C898 0.932 . S
H917 C899 0.929 . S
H918 C900 0.928 . S
H919 C902 0.932 . S
C920 C921 1.264 . S
C920 C925 1.479 . S
C920 C930 1.465 . S
C921 C920 1.264 . S
C921 C923 1.339 . S
C921 H948 0.931 . S
C922 C923 1.395 . S
C922 C924 1.320 . S
C923 C921 1.339 . S
C923 C922 1.395 . S
C923 H949 0.929 . S
C924 C922 1.320 . S
C924 C925 1.405 . S
C924 H950 0.930 . S
C925 C920 1.479 . S
C925 C924 1.405 . S
C925 H951 0.931 . S
U926 O927 2.454 . S
U926 O928 2.458 . S
U926 C929 2.984 . S
U926 C930 2.847 . S
U926 C943 2.882 . S
U926 O944 2.441 . S
U926 O945 2.420 . S
U926 O946 2.455 . S
U926 O947 2.449 . S
O927 U926 2.454 . S
O927 C929 1.353 . S
O928 U926 2.458 . S
O928 C929 1.286 . S
C929 U926 2.984 . S
C929 O927 1.353 . S
C929 O928 1.286 . S
C929 C931 1.363 . S
C930 C920 1.465 . S
C930 U926 2.847 . S
C930 O944 1.249 . S
C930 O945 1.202 . S
C931 C929 1.363 . S
C931 C933 1.408 . S
C931 C936 1.342 . S
C932 C933 1.310 . S
C932 C935 1.461 . S
C932 H952 0.932 . S
C933 C931 1.408 . S
C933 C932 1.310 . S
C933 H953 0.930 . S
C934 C935 1.474 . S
C934 C936 1.285 . S
C934 H954 0.929 . S
C935 C932 1.461 . S
C935 C934 1.474 . S
C936 C931 1.342 . S
C936 C934 1.285 . S
C936 H955 0.930 . S
C937 C940 1.424 . S
C937 C942 1.245 . S
C937 C943 1.428 . S
C938 C941 1.260 . S
C938 C942 1.477 . S
C938 H956 0.932 . S
C939 C940 1.384 . S
C939 C941 1.479 . S
C939 H957 0.929 . S
C940 C937 1.424 . S
C940 C939 1.384 . S
C940 H958 0.928 . S
C941 C938 1.260 . S
C941 C939 1.479 . S
C942 C937 1.245 . S
C942 C938 1.477 . S
C942 H959 0.932 . S
C943 U926 2.882 . S
C943 C937 1.428 . S
C943 O946 1.301 . S
C943 O947 1.282 . S
O944 U926 2.441 . S
O944 C930 1.249 . S
O945 U926 2.420 . S
O945 C930 1.202 . S
O946 U926 2.455 . S
O946 C943 1.301 . S
O947 U926 2.449 . S
O947 C943 1.282 . S
H948 C921 0.931 . S
H949 C923 0.929 . S
H950 C924 0.930 . S
H951 C925 0.931 . S
H952 C932 0.932 . S
H953 C933 0.930 . S
H954 C934 0.929 . S
H955 C936 0.930 . S
H956 C938 0.932 . S
H957 C939 0.929 . S
H958 C940 0.928 . S
H959 C942 0.932 . S
C960 C961 1.264 . S
C960 C965 1.479 . S
C960 C970 1.465 . S
C961 C960 1.264 . S
C961 C963 1.339 . S
C961 H988 0.931 . S
C962 C963 1.395 . S
C962 C964 1.320 . S
C963 C961 1.339 . S
C963 C962 1.395 . S
C963 H989 0.929 . S
C964 C962 1.320 . S
C964 C965 1.405 . S
C964 H990 0.930 . S
C965 C960 1.479 . S
C965 C964 1.405 . S
C965 H991 0.931 . S
U966 O967 2.454 . S
U966 O968 2.458 . S
U966 C969 2.947 1_565 S
U966 C970 2.847 . S
U966 C983 2.882 . S
U966 O984 2.441 . S
U966 O985 2.420 . S
U966 O986 2.455 . S
U966 O987 2.449 . S
O967 U966 2.454 . S
O967 C969 1.344 1_565 S
O968 U966 2.458 . S
O968 C969 1.253 1_565 S
C969 U966 2.947 1_545 S
C969 O967 1.344 1_545 S
C969 O968 1.253 1_545 S
C969 C971 1.400 . S
C970 C960 1.465 . S
C970 U966 2.847 . S
C970 O984 1.249 . S
C970 O985 1.202 . S
C971 C969 1.400 . S
C971 C973 1.408 . S
C971 C976 1.342 . S
C972 C973 1.310 . S
C972 C975 1.461 . S
C972 H992 0.932 . S
C973 C971 1.408 . S
C973 C972 1.310 . S
C973 H993 0.930 . S
C974 C975 1.474 . S
C974 C976 1.285 . S
C974 H994 0.929 . S
C975 C972 1.461 . S
C975 C974 1.474 . S
C976 C971 1.342 . S
C976 C974 1.285 . S
C976 H995 0.930 . S
C977 C980 1.424 . S
C977 C982 1.245 . S
C977 C983 1.428 . S
C978 C981 1.260 . S
C978 C982 1.477 . S
C978 H996 0.932 . S
C979 C980 1.384 . S
C979 C981 1.479 . S
C979 H997 0.929 . S
C980 C977 1.424 . S
C980 C979 1.384 . S
C980 H998 0.928 . S
C981 C978 1.260 . S
C981 C979 1.479 . S
C982 C977 1.245 . S
C982 C978 1.477 . S
C982 H999 0.932 . S
C983 U966 2.882 . S
C983 C977 1.428 . S
C983 O986 1.301 . S
C983 O987 1.282 . S
O984 U966 2.441 . S
O984 C970 1.249 . S
O985 U966 2.420 . S
O985 C970 1.202 . S
O986 U966 2.455 . S
O986 C983 1.301 . S
O987 U966 2.449 . S
O987 C983 1.282 . S
H988 C961 0.931 . S
H989 C963 0.929 . S
H990 C964 0.930 . S
H991 C965 0.931 . S
H992 C972 0.932 . S
H993 C973 0.930 . S
H994 C974 0.929 . S
H995 C976 0.930 . S
H996 C978 0.932 . S
H997 C979 0.929 . S
H998 C980 0.928 . S
H999 C982 0.932 . S
C1000 C1001 1.264 . S
C1000 C1005 1.479 . S
C1000 C1010 1.465 1_565 S
C1001 C1000 1.264 . S
C1001 C1003 1.339 . S
C1001 H1028 0.931 . S
C1002 C1003 1.395 . S
C1002 C1004 1.320 . S
C1003 C1001 1.339 . S
C1003 C1002 1.395 . S
C1003 H1029 0.929 . S
C1004 C1002 1.320 . S
C1004 C1005 1.405 . S
C1004 H1030 0.930 . S
C1005 C1000 1.479 . S
C1005 C1004 1.405 . S
C1005 H1031 0.931 . S
U1006 O1007 2.454 . S
U1006 O1008 2.458 . S
U1006 C1009 2.984 . S
U1006 C1010 2.847 . S
U1006 C1023 2.882 . S
U1006 O1024 2.441 . S
U1006 O1025 2.420 . S
U1006 O1026 2.455 . S
U1006 O1027 2.449 . S
O1007 U1006 2.454 . S
O1007 C1009 1.353 . S
O1008 U1006 2.458 . S
O1008 C1009 1.286 . S
C1009 U1006 2.984 . S
C1009 O1007 1.353 . S
C1009 O1008 1.286 . S
C1009 C1011 1.363 . S
C1010 C1000 1.465 1_545 S
C1010 U1006 2.847 . S
C1010 O1024 1.249 . S
C1010 O1025 1.202 . S
C1011 C1009 1.363 . S
C1011 C1013 1.408 . S
C1011 C1016 1.342 . S
C1012 C1013 1.310 . S
C1012 C1015 1.461 . S
C1012 H1032 0.932 . S
C1013 C1011 1.408 . S
C1013 C1012 1.310 . S
C1013 H1033 0.930 . S
C1014 C1015 1.474 . S
C1014 C1016 1.285 . S
C1014 H1034 0.929 . S
C1015 C1012 1.461 . S
C1015 C1014 1.474 . S
C1016 C1011 1.342 . S
C1016 C1014 1.285 . S
C1016 H1035 0.930 . S
C1017 C1020 1.424 . S
C1017 C1022 1.245 . S
C1017 C1023 1.428 . S
C1018 C1021 1.260 . S
C1018 C1022 1.477 . S
C1018 H1036 0.932 . S
C1019 C1020 1.384 . S
C1019 C1021 1.479 . S
C1019 H1037 0.929 . S
C1020 C1017 1.424 . S
C1020 C1019 1.384 . S
C1020 H1038 0.928 . S
C1021 C1018 1.260 . S
C1021 C1019 1.479 . S
C1022 C1017 1.245 . S
C1022 C1018 1.477 . S
C1022 H1039 0.932 . S
C1023 U1006 2.882 . S
C1023 C1017 1.428 . S
C1023 O1026 1.301 . S
C1023 O1027 1.282 . S
O1024 U1006 2.441 . S
O1024 C1010 1.249 . S
O1025 U1006 2.420 . S
O1025 C1010 1.202 . S
O1026 U1006 2.455 . S
O1026 C1023 1.301 . S
O1027 U1006 2.449 . S
O1027 C1023 1.282 . S
H1028 C1001 0.931 . S
H1029 C1003 0.929 . S
H1030 C1004 0.930 . S
H1031 C1005 0.931 . S
H1032 C1012 0.932 . S
H1033 C1013 0.930 . S
H1034 C1014 0.929 . S
H1035 C1016 0.930 . S
H1036 C1018 0.932 . S
H1037 C1019 0.929 . S
H1038 C1020 0.928 . S
H1039 C1022 0.932 . S
C1040 C1041 1.264 . S
C1040 C1045 1.479 . S
C1040 C1050 1.465 . S
C1041 C1040 1.264 . S
C1041 C1043 1.339 . S
C1041 H1068 0.931 . S
C1042 C1043 1.395 . S
C1042 C1044 1.320 . S
C1043 C1041 1.339 . S
C1043 C1042 1.395 . S
C1043 H1069 0.929 . S
C1044 C1042 1.320 . S
C1044 C1045 1.405 . S
C1044 H1070 0.930 . S
C1045 C1040 1.479 . S
C1045 C1044 1.405 . S
C1045 H1071 0.931 . S
U1046 O1047 2.454 . S
U1046 O1048 2.458 . S
U1046 C1049 2.984 . S
U1046 C1050 2.847 . S
U1046 C1063 2.882 . S
U1046 O1064 2.441 . S
U1046 O1065 2.420 . S
U1046 O1066 2.455 . S
U1046 O1067 2.449 . S
O1047 U1046 2.454 . S
O1047 C1049 1.353 . S
O1048 U1046 2.458 . S
O1048 C1049 1.286 . S
C1049 U1046 2.984 . S
C1049 O1047 1.353 . S
C1049 O1048 1.286 . S
C1049 C1051 1.363 . S
C1050 C1040 1.465 . S
C1050 U1046 2.847 . S
C1050 O1064 1.249 . S
C1050 O1065 1.202 . S
C1051 C1049 1.363 . S
C1051 C1053 1.408 . S
C1051 C1056 1.342 . S
C1052 C1053 1.310 . S
C1052 C1055 1.461 . S
C1052 H1072 0.932 . S
C1053 C1051 1.408 . S
C1053 C1052 1.310 . S
C1053 H1073 0.930 . S
C1054 C1055 1.474 . S
C1054 C1056 1.285 . S
C1054 H1074 0.929 . S
C1055 C1052 1.461 . S
C1055 C1054 1.474 . S
C1056 C1051 1.342 . S
C1056 C1054 1.285 . S
C1056 H1075 0.930 . S
C1057 C1060 1.424 . S
C1057 C1062 1.245 . S
C1057 C1063 1.428 . S
C1058 C1061 1.260 . S
C1058 C1062 1.477 . S
C1058 H1076 0.932 . S
C1059 C1060 1.384 . S
C1059 C1061 1.479 . S
C1059 H1077 0.929 . S
C1060 C1057 1.424 . S
C1060 C1059 1.384 . S
C1060 H1078 0.928 . S
C1061 C1058 1.260 . S
C1061 C1059 1.479 . S
C1062 C1057 1.245 . S
C1062 C1058 1.477 . S
C1062 H1079 0.932 . S
C1063 U1046 2.882 . S
C1063 C1057 1.428 . S
C1063 O1066 1.301 . S
C1063 O1067 1.282 . S
O1064 U1046 2.441 . S
O1064 C1050 1.249 . S
O1065 U1046 2.420 . S
O1065 C1050 1.202 . S
O1066 U1046 2.455 . S
O1066 C1063 1.301 . S
O1067 U1046 2.449 . S
O1067 C1063 1.282 . S
H1068 C1041 0.931 . S
H1069 C1043 0.929 . S
H1070 C1044 0.930 . S
H1071 C1045 0.931 . S
H1072 C1052 0.932 . S
H1073 C1053 0.930 . S
H1074 C1054 0.929 . S
H1075 C1056 0.930 . S
H1076 C1058 0.932 . S
H1077 C1059 0.929 . S
H1078 C1060 0.928 . S
H1079 C1062 0.932 . S
C1080 C1081 1.264 . S
C1080 C1085 1.479 . S
C1080 C1090 1.465 . S
C1081 C1080 1.264 . S
C1081 C1083 1.339 . S
C1081 H1108 0.931 . S
C1082 C1083 1.395 . S
C1082 C1084 1.320 . S
C1083 C1081 1.339 . S
C1083 C1082 1.395 . S
C1083 H1109 0.929 . S
C1084 C1082 1.320 . S
C1084 C1085 1.405 . S
C1084 H1110 0.930 . S
C1085 C1080 1.479 . S
C1085 C1084 1.405 . S
C1085 H1111 0.931 . S
U1086 O1087 2.454 . S
U1086 O1088 2.458 . S
U1086 C1089 2.984 . S
U1086 C1090 2.847 . S
U1086 C1103 2.882 . S
U1086 O1104 2.441 . S
U1086 O1105 2.420 . S
U1086 O1106 2.455 . S
U1086 O1107 2.449 . S
O1087 U1086 2.454 . S
O1087 C1089 1.353 . S
O1088 U1086 2.458 . S
O1088 C1089 1.286 . S
C1089 U1086 2.984 . S
C1089 O1087 1.353 . S
C1089 O1088 1.286 . S
C1089 C1091 1.363 . S
C1090 C1080 1.465 . S
C1090 U1086 2.847 . S
C1090 O1104 1.249 . S
C1090 O1105 1.202 . S
C1091 C1089 1.363 . S
C1091 C1093 1.408 . S
C1091 C1096 1.342 . S
C1092 C1093 1.310 . S
C1092 C1095 1.461 . S
C1092 H1112 0.932 . S
C1093 C1091 1.408 . S
C1093 C1092 1.310 . S
C1093 H1113 0.930 . S
C1094 C1095 1.474 . S
C1094 C1096 1.285 . S
C1094 H1114 0.929 . S
C1095 C1092 1.461 . S
C1095 C1094 1.474 . S
C1096 C1091 1.342 . S
C1096 C1094 1.285 . S
C1096 H1115 0.930 . S
C1097 C1100 1.424 . S
C1097 C1102 1.245 . S
C1097 C1103 1.428 . S
C1098 C1101 1.260 . S
C1098 C1102 1.477 . S
C1098 H1116 0.932 . S
C1099 C1100 1.384 . S
C1099 C1101 1.479 . S
C1099 H1117 0.929 . S
C1100 C1097 1.424 . S
C1100 C1099 1.384 . S
C1100 H1118 0.928 . S
C1101 C1098 1.260 . S
C1101 C1099 1.479 . S
C1102 C1097 1.245 . S
C1102 C1098 1.477 . S
C1102 H1119 0.932 . S
C1103 U1086 2.882 . S
C1103 C1097 1.428 . S
C1103 O1106 1.301 . S
C1103 O1107 1.282 . S
O1104 U1086 2.441 . S
O1104 C1090 1.249 . S
O1105 U1086 2.420 . S
O1105 C1090 1.202 . S
O1106 U1086 2.455 . S
O1106 C1103 1.301 . S
O1107 U1086 2.449 . S
O1107 C1103 1.282 . S
H1108 C1081 0.931 . S
H1109 C1083 0.929 . S
H1110 C1084 0.930 . S
H1111 C1085 0.931 . S
H1112 C1092 0.932 . S
H1113 C1093 0.930 . S
H1114 C1094 0.929 . S
H1115 C1096 0.930 . S
H1116 C1098 0.932 . S
H1117 C1099 0.929 . S
H1118 C1100 0.928 . S
H1119 C1102 0.932 . S
C1120 C1121 1.264 . S
C1120 C1125 1.479 . S
C1120 C1130 1.465 . S
C1121 C1120 1.264 . S
C1121 C1123 1.339 . S
C1121 H1148 0.931 . S
C1122 C1123 1.395 . S
C1122 C1124 1.320 . S
C1123 C1121 1.339 . S
C1123 C1122 1.395 . S
C1123 H1149 0.929 . S
C1124 C1122 1.320 . S
C1124 C1125 1.405 . S
C1124 H1150 0.930 . S
C1125 C1120 1.479 . S
C1125 C1124 1.405 . S
C1125 H1151 0.931 . S
U1126 O1127 2.463 . S
U1126 O1128 2.458 1_655 S
U1126 C1129 2.984 1_655 S
U1126 C1130 2.847 . S
U1126 C1143 2.882 1_655 S
U1126 O1144 2.441 . S
U1126 O1145 2.420 . S
U1126 O1146 2.455 1_655 S
U1126 O1147 2.449 . S
O1127 U1126 2.463 . S
O1127 C1129 1.276 1_655 S
O1128 U1126 2.458 1_455 S
O1128 C1129 1.286 . S
C1129 U1126 2.984 1_455 S
C1129 O1127 1.276 1_455 S
C1129 O1128 1.286 . S
C1129 C1131 1.363 . S
C1130 C1120 1.465 . S
C1130 U1126 2.847 . S
C1130 O1144 1.249 . S
C1130 O1145 1.202 . S
C1131 C1129 1.363 . S
C1131 C1133 1.408 . S
C1131 C1136 1.342 . S
C1132 C1133 1.310 . S
C1132 C1135 1.461 . S
C1132 H1152 0.932 . S
C1133 C1131 1.408 . S
C1133 C1132 1.310 . S
C1133 H1153 0.930 . S
C1134 C1135 1.474 . S
C1134 C1136 1.285 . S
C1134 H1154 0.929 . S
C1135 C1132 1.461 . S
C1135 C1134 1.474 . S
C1136 C1131 1.342 . S
C1136 C1134 1.285 . S
C1136 H1155 0.930 . S
C1137 C1140 1.424 . S
C1137 C1142 1.245 . S
C1137 C1143 1.428 . S
C1138 C1141 1.260 . S
C1138 C1142 1.477 . S
C1138 H1156 0.932 . S
C1139 C1140 1.384 . S
C1139 C1141 1.479 . S
C1139 H1157 0.929 . S
C1140 C1137 1.424 . S
C1140 C1139 1.384 . S
C1140 H1158 0.928 . S
C1141 C1138 1.260 . S
C1141 C1139 1.479 . S
C1142 C1137 1.245 . S
C1142 C1138 1.477 . S
C1142 H1159 0.932 . S
C1143 U1126 2.882 1_455 S
C1143 C1137 1.428 . S
C1143 O1146 1.301 . S
C1143 O1147 1.282 1_455 S
O1144 U1126 2.441 . S
O1144 C1130 1.249 . S
O1145 U1126 2.420 . S
O1145 C1130 1.202 . S
O1146 U1126 2.455 1_455 S
O1146 C1143 1.301 . S
O1147 U1126 2.449 . S
O1147 C1143 1.282 1_655 S
H1148 C1121 0.931 . S
H1149 C1123 0.929 . S
H1150 C1124 0.930 . S
H1151 C1125 0.931 . S
H1152 C1132 0.932 . S
H1153 C1133 0.930 . S
H1154 C1134 0.929 . S
H1155 C1136 0.930 . S
H1156 C1138 0.932 . S
H1157 C1139 0.929 . S
H1158 C1140 0.928 . S
H1159 C1142 0.932 . S
C1160 C1161 1.264 . S
C1160 C1165 1.479 . S
C1160 C1170 1.465 . S
C1161 C1160 1.264 . S
C1161 C1163 1.339 . S
C1161 H1188 0.931 . S
C1162 C1163 1.395 . S
C1162 C1164 1.320 . S
C1163 C1161 1.339 . S
C1163 C1162 1.395 . S
C1163 H1189 0.929 . S
C1164 C1162 1.320 . S
C1164 C1165 1.405 . S
C1164 H1190 0.930 . S
C1165 C1160 1.479 . S
C1165 C1164 1.405 . S
C1165 H1191 0.931 . S
U1166 O1167 2.454 . S
U1166 O1168 2.458 . S
U1166 C1169 2.984 . S
U1166 C1170 2.847 . S
U1166 C1183 2.882 . S
U1166 O1184 2.441 . S
U1166 O1185 2.420 . S
U1166 O1186 2.455 . S
U1166 O1187 2.449 . S
O1167 U1166 2.454 . S
O1167 C1169 1.353 . S
O1168 U1166 2.458 . S
O1168 C1169 1.286 . S
C1169 U1166 2.984 . S
C1169 O1167 1.353 . S
C1169 O1168 1.286 . S
C1169 C1171 1.363 . S
C1170 C1160 1.465 . S
C1170 U1166 2.847 . S
C1170 O1184 1.249 . S
C1170 O1185 1.202 . S
C1171 C1169 1.363 . S
C1171 C1173 1.408 . S
C1171 C1176 1.342 . S
C1172 C1173 1.310 . S
C1172 C1175 1.461 . S
C1172 H1192 0.932 . S
C1173 C1171 1.408 . S
C1173 C1172 1.310 . S
C1173 H1193 0.930 . S
C1174 C1175 1.474 . S
C1174 C1176 1.285 . S
C1174 H1194 0.929 . S
C1175 C1172 1.461 . S
C1175 C1174 1.474 . S
C1176 C1171 1.342 . S
C1176 C1174 1.285 . S
C1176 H1195 0.930 . S
C1177 C1180 1.424 . S
C1177 C1182 1.245 . S
C1177 C1183 1.428 . S
C1178 C1181 1.260 . S
C1178 C1182 1.477 . S
C1178 H1196 0.932 . S
C1179 C1180 1.384 . S
C1179 C1181 1.479 . S
C1179 H1197 0.929 . S
C1180 C1177 1.424 . S
C1180 C1179 1.384 . S
C1180 H1198 0.928 . S
C1181 C1178 1.260 . S
C1181 C1179 1.479 . S
C1182 C1177 1.245 . S
C1182 C1178 1.477 . S
C1182 H1199 0.932 . S
C1183 U1166 2.882 . S
C1183 C1177 1.428 . S
C1183 O1186 1.301 . S
C1183 O1187 1.282 . S
O1184 U1166 2.441 . S
O1184 C1170 1.249 . S
O1185 U1166 2.420 . S
O1185 C1170 1.202 . S
O1186 U1166 2.455 . S
O1186 C1183 1.301 . S
O1187 U1166 2.449 . S
O1187 C1183 1.282 . S
H1188 C1161 0.931 . S
H1189 C1163 0.929 . S
H1190 C1164 0.930 . S
H1191 C1165 0.931 . S
H1192 C1172 0.932 . S
H1193 C1173 0.930 . S
H1194 C1174 0.929 . S
H1195 C1176 0.930 . S
H1196 C1178 0.932 . S
H1197 C1179 0.929 . S
H1198 C1180 0.928 . S
H1199 C1182 0.932 . S
C1200 C1201 1.264 . S
C1200 C1205 1.479 . S
C1200 C1210 1.465 . S
C1201 C1200 1.264 . S
C1201 C1203 1.339 . S
C1201 H1228 0.931 . S
C1202 C1203 1.395 . S
C1202 C1204 1.320 . S
C1203 C1201 1.339 . S
C1203 C1202 1.395 . S
C1203 H1229 0.929 . S
C1204 C1202 1.320 . S
C1204 C1205 1.405 . S
C1204 H1230 0.930 . S
C1205 C1200 1.479 . S
C1205 C1204 1.405 . S
C1205 H1231 0.931 . S
U1206 O1207 2.454 . S
U1206 O1208 2.458 . S
U1206 C1209 2.984 . S
U1206 C1210 2.847 . S
U1206 C1223 2.882 . S
U1206 O1224 2.441 . S
U1206 O1225 2.420 . S
U1206 O1226 2.455 . S
U1206 O1227 2.449 . S
O1207 U1206 2.454 . S
O1207 C1209 1.353 . S
O1208 U1206 2.458 . S
O1208 C1209 1.286 . S
C1209 U1206 2.984 . S
C1209 O1207 1.353 . S
C1209 O1208 1.286 . S
C1209 C1211 1.363 . S
C1210 C1200 1.465 . S
C1210 U1206 2.847 . S
C1210 O1224 1.249 . S
C1210 O1225 1.202 . S
C1211 C1209 1.363 . S
C1211 C1213 1.408 . S
C1211 C1216 1.342 . S
C1212 C1213 1.310 . S
C1212 C1215 1.461 . S
C1212 H1232 0.932 . S
C1213 C1211 1.408 . S
C1213 C1212 1.310 . S
C1213 H1233 0.930 . S
C1214 C1215 1.474 . S
C1214 C1216 1.285 . S
C1214 H1234 0.929 . S
C1215 C1212 1.461 . S
C1215 C1214 1.474 . S
C1216 C1211 1.342 . S
C1216 C1214 1.285 . S
C1216 H1235 0.930 . S
C1217 C1220 1.424 . S
C1217 C1222 1.245 . S
C1217 C1223 1.428 . S
C1218 C1221 1.260 . S
C1218 C1222 1.477 . S
C1218 H1236 0.932 . S
C1219 C1220 1.384 . S
C1219 C1221 1.479 . S
C1219 H1237 0.929 . S
C1220 C1217 1.424 . S
C1220 C1219 1.384 . S
C1220 H1238 0.928 . S
C1221 C1218 1.260 . S
C1221 C1219 1.479 . S
C1222 C1217 1.245 . S
C1222 C1218 1.477 . S
C1222 H1239 0.932 . S
C1223 U1206 2.882 . S
C1223 C1217 1.428 . S
C1223 O1226 1.301 . S
C1223 O1227 1.282 . S
O1224 U1206 2.441 . S
O1224 C1210 1.249 . S
O1225 U1206 2.420 . S
O1225 C1210 1.202 . S
O1226 U1206 2.455 . S
O1226 C1223 1.301 . S
O1227 U1206 2.449 . S
O1227 C1223 1.282 . S
H1228 C1201 0.931 . S
H1229 C1203 0.929 . S
H1230 C1204 0.930 . S
H1231 C1205 0.931 . S
H1232 C1212 0.932 . S
H1233 C1213 0.930 . S
H1234 C1214 0.929 . S
H1235 C1216 0.930 . S
H1236 C1218 0.932 . S
H1237 C1219 0.929 . S
H1238 C1220 0.928 . S
H1239 C1222 0.932 . S
C1240 C1241 1.264 . S
C1240 C1245 1.479 . S
C1240 C1250 1.465 . S
C1241 C1240 1.264 . S
C1241 C1243 1.339 . S
C1241 H1268 0.931 . S
C1242 C1243 1.395 . S
C1242 C1244 1.320 . S
C1243 C1241 1.339 . S
C1243 C1242 1.395 . S
C1243 H1269 0.929 . S
C1244 C1242 1.320 . S
C1244 C1245 1.405 . S
C1244 H1270 0.930 . S
C1245 C1240 1.479 . S
C1245 C1244 1.405 . S
C1245 H1271 0.931 . S
U1246 O1247 2.454 . S
U1246 O1248 2.458 . S
U1246 C1249 2.984 . S
U1246 C1250 2.847 1_455 S
U1246 C1263 2.882 1_455 S
U1246 O1264 2.441 . S
U1246 O1265 2.420 1_455 S
U1246 O1266 2.455 . S
U1246 O1267 2.449 1_455 S
O1247 U1246 2.454 . S
O1247 C1249 1.353 . S
O1248 U1246 2.458 . S
O1248 C1249 1.286 . S
C1249 U1246 2.984 . S
C1249 O1247 1.353 . S
C1249 O1248 1.286 . S
C1249 C1251 1.363 . S
C1250 C1240 1.465 . S
C1250 U1246 2.847 1_655 S
C1250 O1264 1.249 1_655 S
C1250 O1265 1.202 . S
C1251 C1249 1.363 . S
C1251 C1253 1.408 . S
C1251 C1256 1.342 . S
C1252 C1253 1.310 . S
C1252 C1255 1.461 . S
C1252 H1272 0.932 . S
C1253 C1251 1.408 . S
C1253 C1252 1.310 . S
C1253 H1273 0.930 . S
C1254 C1255 1.474 . S
C1254 C1256 1.285 . S
C1254 H1274 0.929 . S
C1255 C1252 1.461 . S
C1255 C1254 1.474 . S
C1256 C1251 1.342 . S
C1256 C1254 1.285 . S
C1256 H1275 0.930 . S
C1257 C1260 1.424 . S
C1257 C1262 1.245 . S
C1257 C1263 1.428 . S
C1258 C1261 1.260 . S
C1258 C1262 1.477 . S
C1258 H1276 0.932 . S
C1259 C1260 1.384 . S
C1259 C1261 1.479 . S
C1259 H1277 0.929 . S
C1260 C1257 1.424 . S
C1260 C1259 1.384 . S
C1260 H1278 0.928 . S
C1261 C1258 1.260 . S
C1261 C1259 1.479 . S
C1262 C1257 1.245 . S
C1262 C1258 1.477 . S
C1262 H1279 0.932 . S
C1263 U1246 2.882 1_655 S
C1263 C1257 1.428 . S
C1263 O1266 1.301 1_655 S
C1263 O1267 1.282 . S
O1264 U1246 2.441 . S
O1264 C1250 1.249 1_455 S
O1265 U1246 2.420 1_655 S
O1265 C1250 1.202 . S
O1266 U1246 2.455 . S
O1266 C1263 1.301 1_455 S
O1267 U1246 2.449 1_655 S
O1267 C1263 1.282 . S
H1268 C1241 0.931 . S
H1269 C1243 0.929 . S
H1270 C1244 0.930 . S
H1271 C1245 0.931 . S
H1272 C1252 0.932 . S
H1273 C1253 0.930 . S
H1274 C1254 0.929 . S
H1275 C1256 0.930 . S
H1276 C1258 0.932 . S
H1277 C1259 0.929 . S
H1278 C1260 0.928 . S
H1279 C1262 0.932 . S
C1280 C1281 1.264 . S
C1280 C1285 1.479 . S
C1280 C1290 1.465 . S
C1281 C1280 1.264 . S
C1281 C1283 1.339 . S
C1281 H1308 0.931 . S
C1282 C1283 1.395 . S
C1282 C1284 1.320 . S
C1283 C1281 1.339 . S
C1283 C1282 1.395 . S
C1283 H1309 0.929 . S
C1284 C1282 1.320 . S
C1284 C1285 1.405 . S
C1284 H1310 0.930 . S
C1285 C1280 1.479 . S
C1285 C1284 1.405 . S
C1285 H1311 0.931 . S
U1286 O1287 2.454 . S
U1286 O1288 2.458 . S
U1286 C1289 2.984 . S
U1286 C1290 2.847 . S
U1286 C1303 2.882 . S
U1286 O1304 2.441 . S
U1286 O1305 2.420 . S
U1286 O1306 2.455 . S
U1286 O1307 2.449 . S
O1287 U1286 2.454 . S
O1287 C1289 1.353 . S
O1288 U1286 2.458 . S
O1288 C1289 1.286 . S
C1289 U1286 2.984 . S
C1289 O1287 1.353 . S
C1289 O1288 1.286 . S
C1289 C1291 1.363 . S
C1290 C1280 1.465 . S
C1290 U1286 2.847 . S
C1290 O1304 1.249 . S
C1290 O1305 1.202 . S
C1291 C1289 1.363 . S
C1291 C1293 1.408 . S
C1291 C1296 1.342 . S
C1292 C1293 1.310 . S
C1292 C1295 1.461 . S
C1292 H1312 0.932 . S
C1293 C1291 1.408 . S
C1293 C1292 1.310 . S
C1293 H1313 0.930 . S
C1294 C1295 1.474 . S
C1294 C1296 1.285 . S
C1294 H1314 0.929 . S
C1295 C1292 1.461 . S
C1295 C1294 1.474 . S
C1296 C1291 1.342 . S
C1296 C1294 1.285 . S
C1296 H1315 0.930 . S
C1297 C1300 1.424 . S
C1297 C1302 1.245 . S
C1297 C1303 1.428 . S
C1298 C1301 1.260 . S
C1298 C1302 1.477 . S
C1298 H1316 0.932 . S
C1299 C1300 1.384 . S
C1299 C1301 1.479 . S
C1299 H1317 0.988 . S
C1300 C1297 1.424 . S
C1300 C1299 1.384 . S
C1300 H1318 0.928 . S
C1301 C1298 1.260 . S
C1301 C1299 1.479 . S
C1302 C1297 1.245 . S
C1302 C1298 1.477 . S
C1302 H1319 0.932 . S
C1303 U1286 2.882 . S
C1303 C1297 1.428 . S
C1303 O1306 1.301 . S
C1303 O1307 1.282 . S
O1304 U1286 2.441 . S
O1304 C1290 1.249 . S
O1305 U1286 2.420 . S
O1305 C1290 1.202 . S
O1306 U1286 2.455 . S
O1306 C1303 1.301 . S
O1307 U1286 2.449 . S
O1307 C1303 1.282 . S
H1308 C1281 0.931 . S
H1309 C1283 0.929 . S
H1310 C1284 0.930 . S
H1311 C1285 0.931 . S
H1312 C1292 0.932 . S
H1313 C1293 0.930 . S
H1314 C1294 0.929 . S
H1315 C1296 0.930 . S
H1316 C1298 0.932 . S
H1317 C1299 0.988 . S
H1318 C1300 0.928 . S
H1319 C1302 0.932 . S
C1320 C1321 1.264 . S
C1320 C1325 1.479 . S
C1320 C1330 1.465 . S
C1321 C1320 1.264 . S
C1321 C1323 1.339 . S
C1321 H1348 0.931 . S
C1322 C1323 1.395 . S
C1322 C1324 1.320 . S
C1323 C1321 1.339 . S
C1323 C1322 1.395 . S
C1323 H1349 0.929 . S
C1324 C1322 1.320 . S
C1324 C1325 1.405 . S
C1324 H1350 0.930 . S
C1325 C1320 1.479 . S
C1325 C1324 1.405 . S
C1325 H1351 0.931 . S
U1326 O1327 2.441 1_556 S
U1326 O1328 2.458 . S
U1326 C1329 2.984 1_556 S
U1326 C1330 2.847 . S
U1326 C1343 2.882 . S
U1326 O1344 2.441 . S
U1326 O1345 2.420 . S
U1326 O1346 2.455 . S
U1326 O1347 2.449 . S
O1327 U1326 2.441 1_554 S
O1327 C1329 1.364 . S
O1328 U1326 2.458 . S
O1328 C1329 1.286 1_556 S
C1329 U1326 2.984 1_554 S
C1329 O1327 1.364 . S
C1329 O1328 1.286 1_554 S
C1329 C1331 1.363 . S
C1330 C1320 1.465 . S
C1330 U1326 2.847 . S
C1330 O1344 1.249 . S
C1330 O1345 1.202 . S
C1331 C1329 1.363 . S
C1331 C1333 1.408 . S
C1331 C1336 1.342 . S
C1332 C1333 1.310 . S
C1332 C1335 1.461 . S
C1332 H1352 0.932 . S
C1333 C1331 1.408 . S
C1333 C1332 1.310 . S
C1333 H1353 0.930 . S
C1334 C1335 1.474 . S
C1334 C1336 1.285 . S
C1334 H1354 0.929 . S
C1335 C1332 1.461 . S
C1335 C1334 1.474 . S
C1336 C1331 1.342 . S
C1336 C1334 1.285 . S
C1336 H1355 0.930 . S
C1337 C1340 1.424 . S
C1337 C1342 1.245 . S
C1337 C1343 1.428 . S
C1338 C1341 1.260 . S
C1338 C1342 1.477 . S
C1338 H1356 0.932 . S
C1339 C1340 1.384 . S
C1339 C1341 1.479 . S
C1339 H1357 0.929 . S
C1340 C1337 1.424 . S
C1340 C1339 1.384 . S
C1340 H1358 0.928 . S
C1341 C1338 1.260 . S
C1341 C1339 1.479 . S
C1342 C1337 1.245 . S
C1342 C1338 1.477 . S
C1342 H1359 0.932 . S
C1343 U1326 2.882 . S
C1343 C1337 1.428 . S
C1343 O1346 1.301 . S
C1343 O1347 1.282 . S
O1344 U1326 2.441 . S
O1344 C1330 1.249 . S
O1345 U1326 2.420 . S
O1345 C1330 1.202 . S
O1346 U1326 2.455 . S
O1346 C1343 1.301 . S
O1347 U1326 2.449 . S
O1347 C1343 1.282 . S
H1348 C1321 0.931 . S
H1349 C1323 0.929 . S
H1350 C1324 0.930 . S
H1351 C1325 0.931 . S
H1352 C1332 0.932 . S
H1353 C1333 0.930 . S
H1354 C1334 0.929 . S
H1355 C1336 0.930 . S
H1356 C1338 0.932 . S
H1357 C1339 0.929 . S
H1358 C1340 0.928 . S
H1359 C1342 0.932 . S
C1360 C1361 1.264 . S
C1360 C1365 1.479 . S
C1360 C1370 1.465 . S
C1361 C1360 1.264 . S
C1361 C1363 1.339 . S
C1361 H1388 0.931 . S
C1362 C1363 1.395 . S
C1362 C1364 1.320 . S
C1363 C1361 1.339 . S
C1363 C1362 1.395 . S
C1363 H1389 0.929 . S
C1364 C1362 1.320 . S
C1364 C1365 1.405 . S
C1364 H1390 0.930 . S
C1365 C1360 1.479 . S
C1365 C1364 1.405 . S
C1365 H1391 0.931 . S
U1366 O1367 2.454 . S
U1366 O1368 2.458 . S
U1366 C1369 2.984 . S
U1366 C1370 2.847 . S
U1366 C1383 2.882 . S
U1366 O1384 2.441 . S
U1366 O1385 2.420 . S
U1366 O1386 2.455 . S
U1366 O1387 2.449 . S
O1367 U1366 2.454 . S
O1367 C1369 1.353 . S
O1368 U1366 2.458 . S
O1368 C1369 1.286 . S
C1369 U1366 2.984 . S
C1369 O1367 1.353 . S
C1369 O1368 1.286 . S
C1369 C1371 1.363 . S
C1370 C1360 1.465 . S
C1370 U1366 2.847 . S
C1370 O1384 1.249 . S
C1370 O1385 1.202 . S
C1371 C1369 1.363 . S
C1371 C1373 1.408 . S
C1371 C1376 1.342 . S
C1372 C1373 1.310 . S
C1372 C1375 1.461 . S
C1372 H1392 0.932 . S
C1373 C1371 1.408 . S
C1373 C1372 1.310 . S
C1373 H1393 0.930 . S
C1374 C1375 1.474 . S
C1374 C1376 1.285 . S
C1374 H1394 0.929 . S
C1375 C1372 1.461 . S
C1375 C1374 1.474 . S
C1376 C1371 1.342 . S
C1376 C1374 1.285 . S
C1376 H1395 0.930 . S
C1377 C1380 1.424 . S
C1377 C1382 1.245 . S
C1377 C1383 1.428 . S
C1378 C1381 1.260 . S
C1378 C1382 1.477 . S
C1378 H1396 0.932 . S
C1379 C1380 1.384 . S
C1379 C1381 1.479 . S
C1379 H1397 0.929 . S
C1380 C1377 1.424 . S
C1380 C1379 1.384 . S
C1380 H1398 0.928 . S
C1381 C1378 1.260 . S
C1381 C1379 1.479 . S
C1382 C1377 1.245 . S
C1382 C1378 1.477 . S
C1382 H1399 0.932 . S
C1383 U1366 2.882 . S
C1383 C1377 1.428 . S
C1383 O1386 1.301 . S
C1383 O1387 1.282 . S
O1384 U1366 2.441 . S
O1384 C1370 1.249 . S
O1385 U1366 2.420 . S
O1385 C1370 1.202 . S
O1386 U1366 2.455 . S
O1386 C1383 1.301 . S
O1387 U1366 2.449 . S
O1387 C1383 1.282 . S
H1388 C1361 0.931 . S
H1389 C1363 0.929 . S
H1390 C1364 0.930 . S
H1391 C1365 0.931 . S
H1392 C1372 0.932 . S
H1393 C1373 0.930 . S
H1394 C1374 0.929 . S
H1395 C1376 0.930 . S
H1396 C1378 0.932 . S
H1397 C1379 0.929 . S
H1398 C1380 0.928 . S
H1399 C1382 0.932 . S
C1400 C1401 1.264 . S
C1400 C1405 1.479 . S
C1400 C1410 1.465 . S
C1401 C1400 1.264 . S
C1401 C1403 1.339 . S
C1401 H1428 0.931 . S
C1402 C1403 1.395 . S
C1402 C1404 1.320 . S
C1403 C1401 1.339 . S
C1403 C1402 1.395 . S
C1403 H1429 0.929 . S
C1404 C1402 1.320 . S
C1404 C1405 1.405 . S
C1404 H1430 0.930 . S
C1405 C1400 1.479 . S
C1405 C1404 1.405 . S
C1405 H1431 0.931 . S
U1406 O1407 2.454 . S
U1406 O1408 2.458 . S
U1406 C1409 2.984 . S
U1406 C1410 2.847 . S
U1406 C1423 2.882 . S
U1406 O1424 2.441 . S
U1406 O1425 2.420 . S
U1406 O1426 2.455 . S
U1406 O1427 2.449 . S
O1407 U1406 2.454 . S
O1407 C1409 1.353 . S
O1408 U1406 2.458 . S
O1408 C1409 1.286 . S
C1409 U1406 2.984 . S
C1409 O1407 1.353 . S
C1409 O1408 1.286 . S
C1409 C1411 1.363 . S
C1410 C1400 1.465 . S
C1410 U1406 2.847 . S
C1410 O1424 1.249 . S
C1410 O1425 1.202 . S
C1411 C1409 1.363 . S
C1411 C1413 1.408 . S
C1411 C1416 1.342 . S
C1412 C1413 1.310 . S
C1412 C1415 1.461 . S
C1412 H1432 0.932 . S
C1413 C1411 1.408 . S
C1413 C1412 1.310 . S
C1413 H1433 0.930 . S
C1414 C1415 1.474 . S
C1414 C1416 1.285 . S
C1414 H1434 0.929 . S
C1415 C1412 1.461 . S
C1415 C1414 1.474 . S
C1416 C1411 1.342 . S
C1416 C1414 1.285 . S
C1416 H1435 0.930 . S
C1417 C1420 1.424 . S
C1417 C1422 1.245 . S
C1417 C1423 1.428 . S
C1418 C1421 1.260 . S
C1418 C1422 1.477 . S
C1418 H1436 0.932 . S
C1419 C1420 1.384 . S
C1419 C1421 1.479 . S
C1419 H1437 0.929 . S
C1420 C1417 1.424 . S
C1420 C1419 1.384 . S
C1420 H1438 0.928 . S
C1421 C1418 1.260 . S
C1421 C1419 1.479 . S
C1422 C1417 1.245 . S
C1422 C1418 1.477 . S
C1422 H1439 0.932 . S
C1423 U1406 2.882 . S
C1423 C1417 1.428 . S
C1423 O1426 1.301 . S
C1423 O1427 1.282 . S
O1424 U1406 2.441 . S
O1424 C1410 1.249 . S
O1425 U1406 2.420 . S
O1425 C1410 1.202 . S
O1426 U1406 2.455 . S
O1426 C1423 1.301 . S
O1427 U1406 2.449 . S
O1427 C1423 1.282 . S
H1428 C1401 0.931 . S
H1429 C1403 0.929 . S
H1430 C1404 0.930 . S
H1431 C1405 0.931 . S
H1432 C1412 0.932 . S
H1433 C1413 0.930 . S
H1434 C1414 0.929 . S
H1435 C1416 0.930 . S
H1436 C1418 0.932 . S
H1437 C1419 0.929 . S
H1438 C1420 0.928 . S
H1439 C1422 0.932 . S
C1440 C1441 1.264 . S
C1440 C1445 1.479 . S
C1440 C1450 1.465 . S
C1441 C1440 1.264 . S
C1441 C1443 1.339 . S
C1441 H1468 0.931 . S
C1442 C1443 1.395 . S
C1442 C1444 1.320 . S
C1443 C1441 1.339 . S
C1443 C1442 1.395 . S
C1443 H1469 0.929 . S
C1444 C1442 1.320 . S
C1444 C1445 1.405 . S
C1444 H1470 0.930 . S
C1445 C1440 1.479 . S
C1445 C1444 1.405 . S
C1445 H1471 0.931 . S
U1446 O1447 2.454 . S
U1446 O1448 2.458 . S
U1446 C1449 2.984 . S
U1446 C1450 2.847 . S
U1446 C1463 2.882 . S
U1446 O1464 2.441 . S
U1446 O1465 2.420 . S
U1446 O1466 2.455 . S
U1446 O1467 2.449 . S
O1447 U1446 2.454 . S
O1447 C1449 1.353 . S
O1448 U1446 2.458 . S
O1448 C1449 1.286 . S
C1449 U1446 2.984 . S
C1449 O1447 1.353 . S
C1449 O1448 1.286 . S
C1449 C1451 1.363 . S
C1450 C1440 1.465 . S
C1450 U1446 2.847 . S
C1450 O1464 1.249 . S
C1450 O1465 1.202 . S
C1451 C1449 1.363 . S
C1451 C1453 1.408 . S
C1451 C1456 1.342 . S
C1452 C1453 1.310 . S
C1452 C1455 1.461 . S
C1452 H1472 0.932 . S
C1453 C1451 1.408 . S
C1453 C1452 1.310 . S
C1453 H1473 0.930 . S
C1454 C1455 1.474 . S
C1454 C1456 1.285 . S
C1454 H1474 0.929 . S
C1455 C1452 1.461 . S
C1455 C1454 1.474 . S
C1456 C1451 1.342 . S
C1456 C1454 1.285 . S
C1456 H1475 0.930 . S
C1457 C1460 1.424 . S
C1457 C1462 1.245 . S
C1457 C1463 1.428 . S
C1458 C1461 1.260 . S
C1458 C1462 1.477 . S
C1458 H1476 0.932 . S
C1459 C1460 1.384 . S
C1459 C1461 1.479 . S
C1459 H1477 0.929 . S
C1460 C1457 1.424 . S
C1460 C1459 1.384 . S
C1460 H1478 0.928 . S
C1461 C1458 1.260 . S
C1461 C1459 1.479 . S
C1462 C1457 1.245 . S
C1462 C1458 1.477 . S
C1462 H1479 0.932 . S
C1463 U1446 2.882 . S
C1463 C1457 1.428 . S
C1463 O1466 1.301 . S
C1463 O1467 1.282 . S
O1464 U1446 2.441 . S
O1464 C1450 1.249 . S
O1465 U1446 2.420 . S
O1465 C1450 1.202 . S
O1466 U1446 2.455 . S
O1466 C1463 1.301 . S
O1467 U1446 2.449 . S
O1467 C1463 1.282 . S
H1468 C1441 0.931 . S
H1469 C1443 0.929 . S
H1470 C1444 0.930 . S
H1471 C1445 0.931 . S
H1472 C1452 0.932 . S
H1473 C1453 0.930 . S
H1474 C1454 0.929 . S
H1475 C1456 0.930 . S
H1476 C1458 0.932 . S
H1477 C1459 0.929 . S
H1478 C1460 0.928 . S
H1479 C1462 0.932 . S
C1480 C1481 1.264 . S
C1480 C1485 1.479 . S
C1480 C1490 1.465 . S
C1481 C1480 1.264 . S
C1481 C1483 1.339 . S
C1481 H1508 0.931 . S
C1482 C1483 1.395 . S
C1482 C1484 1.320 . S
C1483 C1481 1.339 . S
C1483 C1482 1.395 . S
C1483 H1509 0.929 . S
C1484 C1482 1.320 . S
C1484 C1485 1.405 . S
C1484 H1510 0.930 . S
C1485 C1480 1.479 . S
C1485 C1484 1.405 . S
C1485 H1511 0.931 . S
U1486 O1487 2.454 . S
U1486 O1488 2.458 . S
U1486 C1489 2.984 . S
U1486 C1490 2.847 . S
U1486 C1503 2.882 . S
U1486 O1504 2.441 . S
U1486 O1505 2.420 . S
U1486 O1506 2.455 . S
U1486 O1507 2.449 . S
O1487 U1486 2.454 . S
O1487 C1489 1.353 . S
O1488 U1486 2.458 . S
O1488 C1489 1.286 . S
C1489 U1486 2.984 . S
C1489 O1487 1.353 . S
C1489 O1488 1.286 . S
C1489 C1491 1.363 . S
C1490 C1480 1.465 . S
C1490 U1486 2.847 . S
C1490 O1504 1.249 . S
C1490 O1505 1.202 . S
C1491 C1489 1.363 . S
C1491 C1493 1.408 . S
C1491 C1496 1.342 . S
C1492 C1493 1.310 . S
C1492 C1495 1.461 . S
C1492 H1512 0.932 . S
C1493 C1491 1.408 . S
C1493 C1492 1.310 . S
C1493 H1513 0.930 . S
C1494 C1495 1.474 . S
C1494 C1496 1.285 . S
C1494 H1514 0.929 . S
C1495 C1492 1.461 . S
C1495 C1494 1.474 . S
C1496 C1491 1.342 . S
C1496 C1494 1.285 . S
C1496 H1515 0.930 . S
C1497 C1500 1.424 . S
C1497 C1502 1.245 . S
C1497 C1503 1.428 . S
C1498 C1501 1.260 . S
C1498 C1502 1.477 . S
C1498 H1516 0.932 . S
C1499 C1500 1.384 . S
C1499 C1501 1.479 . S
C1499 H1517 0.929 . S
C1500 C1497 1.424 . S
C1500 C1499 1.384 . S
C1500 H1518 0.928 . S
C1501 C1498 1.260 . S
C1501 C1499 1.479 . S
C1502 C1497 1.245 . S
C1502 C1498 1.477 . S
C1502 H1519 0.932 . S
C1503 U1486 2.882 . S
C1503 C1497 1.428 . S
C1503 O1506 1.301 . S
C1503 O1507 1.282 . S
O1504 U1486 2.441 . S
O1504 C1490 1.249 . S
O1505 U1486 2.420 . S
O1505 C1490 1.202 . S
O1506 U1486 2.455 . S
O1506 C1503 1.301 . S
O1507 U1486 2.449 . S
O1507 C1503 1.282 . S
H1508 C1481 0.931 . S
H1509 C1483 0.929 . S
H1510 C1484 0.930 . S
H1511 C1485 0.931 . S
H1512 C1492 0.932 . S
H1513 C1493 0.930 . S
H1514 C1494 0.929 . S
H1515 C1496 0.930 . S
H1516 C1498 0.932 . S
H1517 C1499 0.929 . S
H1518 C1500 0.928 . S
H1519 C1502 0.932 . S
C1520 C1521 1.264 . S
C1520 C1525 1.479 . S
C1520 C1530 1.465 . S
C1521 C1520 1.264 . S
C1521 C1523 1.339 . S
C1521 H1548 0.931 . S
C1522 C1523 1.395 . S
C1522 C1524 1.320 . S
C1523 C1521 1.339 . S
C1523 C1522 1.395 . S
C1523 H1549 0.929 . S
C1524 C1522 1.320 . S
C1524 C1525 1.405 . S
C1524 H1550 0.930 . S
C1525 C1520 1.479 . S
C1525 C1524 1.405 . S
C1525 H1551 0.931 . S
U1526 O1527 2.454 . S
U1526 O1528 2.458 . S
U1526 C1529 2.984 . S
U1526 C1530 2.847 . S
U1526 C1543 2.882 . S
U1526 O1544 2.441 . S
U1526 O1545 2.420 . S
U1526 O1546 2.455 . S
U1526 O1547 2.449 . S
O1527 U1526 2.454 . S
O1527 C1529 1.353 . S
O1528 U1526 2.458 . S
O1528 C1529 1.286 . S
C1529 U1526 2.984 . S
C1529 O1527 1.353 . S
C1529 O1528 1.286 . S
C1529 C1531 1.363 . S
C1530 C1520 1.465 . S
C1530 U1526 2.847 . S
C1530 O1544 1.249 . S
C1530 O1545 1.202 . S
C1531 C1529 1.363 . S
C1531 C1533 1.408 . S
C1531 C1536 1.342 . S
C1532 C1533 1.310 . S
C1532 C1535 1.461 . S
C1532 H1552 0.932 . S
C1533 C1531 1.408 . S
C1533 C1532 1.310 . S
C1533 H1553 0.930 . S
C1534 C1535 1.474 . S
C1534 C1536 1.285 . S
C1534 H1554 0.929 . S
C1535 C1532 1.461 . S
C1535 C1534 1.474 . S
C1536 C1531 1.342 . S
C1536 C1534 1.285 . S
C1536 H1555 0.930 . S
C1537 C1540 1.424 . S
C1537 C1542 1.245 . S
C1537 C1543 1.428 . S
C1538 C1541 1.260 . S
C1538 C1542 1.477 . S
C1538 H1556 0.932 . S
C1539 C1540 1.384 . S
C1539 C1541 1.479 . S
C1539 H1557 0.929 . S
C1540 C1537 1.424 . S
C1540 C1539 1.384 . S
C1540 H1558 0.928 . S
C1541 C1538 1.260 . S
C1541 C1539 1.479 . S
C1542 C1537 1.245 . S
C1542 C1538 1.477 . S
C1542 H1559 0.932 . S
C1543 U1526 2.882 . S
C1543 C1537 1.428 . S
C1543 O1546 1.301 . S
C1543 O1547 1.282 . S
O1544 U1526 2.441 . S
O1544 C1530 1.249 . S
O1545 U1526 2.420 . S
O1545 C1530 1.202 . S
O1546 U1526 2.455 . S
O1546 C1543 1.301 . S
O1547 U1526 2.449 . S
O1547 C1543 1.282 . S
H1548 C1521 0.931 . S
H1549 C1523 0.929 . S
H1550 C1524 0.930 . S
H1551 C1525 0.931 . S
H1552 C1532 0.932 . S
H1553 C1533 0.930 . S
H1554 C1534 0.929 . S
H1555 C1536 0.930 . S
H1556 C1538 0.932 . S
H1557 C1539 0.929 . S
H1558 C1540 0.928 . S
H1559 C1542 0.932 . S
C1560 C1561 1.264 . S
C1560 C1565 1.479 . S
C1560 C1570 1.465 . S
C1561 C1560 1.264 . S
C1561 C1563 1.339 . S
C1561 H1588 0.931 . S
C1562 C1563 1.395 . S
C1562 C1564 1.320 . S
C1563 C1561 1.339 . S
C1563 C1562 1.395 . S
C1563 H1589 0.929 . S
C1564 C1562 1.320 . S
C1564 C1565 1.405 . S
C1564 H1590 0.930 . S
C1565 C1560 1.479 . S
C1565 C1564 1.405 . S
C1565 H1591 0.931 . S
U1566 O1567 2.454 . S
U1566 O1568 2.458 . S
U1566 C1569 2.984 . S
U1566 C1570 2.847 . S
U1566 C1583 2.882 . S
U1566 O1584 2.441 . S
U1566 O1585 2.420 . S
U1566 O1586 2.455 . S
U1566 O1587 2.449 . S
O1567 U1566 2.454 . S
O1567 C1569 1.353 . S
O1568 U1566 2.458 . S
O1568 C1569 1.286 . S
C1569 U1566 2.984 . S
C1569 O1567 1.353 . S
C1569 O1568 1.286 . S
C1569 C1571 1.363 . S
C1570 C1560 1.465 . S
C1570 U1566 2.847 . S
C1570 O1584 1.249 . S
C1570 O1585 1.202 . S
C1571 C1569 1.363 . S
C1571 C1573 1.408 . S
C1571 C1576 1.342 . S
C1572 C1573 1.310 . S
C1572 C1575 1.461 . S
C1572 H1592 0.932 . S
C1573 C1571 1.408 . S
C1573 C1572 1.310 . S
C1573 H1593 0.930 . S
C1574 C1575 1.474 . S
C1574 C1576 1.285 . S
C1574 H1594 0.929 . S
C1575 C1572 1.461 . S
C1575 C1574 1.474 . S
C1576 C1571 1.342 . S
C1576 C1574 1.285 . S
C1576 H1595 0.930 . S
C1577 C1580 1.424 . S
C1577 C1582 1.245 . S
C1577 C1583 1.428 . S
C1578 C1581 1.260 . S
C1578 C1582 1.477 . S
C1578 H1596 0.932 . S
C1579 C1580 1.384 . S
C1579 C1581 1.479 . S
C1579 H1597 0.929 . S
C1580 C1577 1.424 . S
C1580 C1579 1.384 . S
C1580 H1598 0.928 . S
C1581 C1578 1.260 . S
C1581 C1579 1.479 . S
C1582 C1577 1.245 . S
C1582 C1578 1.477 . S
C1582 H1599 0.932 . S
C1583 U1566 2.882 . S
C1583 C1577 1.428 . S
C1583 O1586 1.301 . S
C1583 O1587 1.282 . S
O1584 U1566 2.441 . S
O1584 C1570 1.249 . S
O1585 U1566 2.420 . S
O1585 C1570 1.202 . S
O1586 U1566 2.455 . S
O1586 C1583 1.301 . S
O1587 U1566 2.449 . S
O1587 C1583 1.282 . S
H1588 C1561 0.931 . S
H1589 C1563 0.929 . S
H1590 C1564 0.930 . S
H1591 C1565 0.931 . S
H1592 C1572 0.932 . S
H1593 C1573 0.930 . S
H1594 C1574 0.929 . S
H1595 C1576 0.930 . S
H1596 C1578 0.932 . S
H1597 C1579 0.929 . S
H1598 C1580 0.928 . S
H1599 C1582 0.932 . S
C1600 C1601 1.264 . S
C1600 C1605 1.479 . S
C1600 C1610 1.465 . S
C1601 C1600 1.264 . S
C1601 C1603 1.339 . S
C1601 H1628 0.931 . S
C1602 C1603 1.395 . S
C1602 C1604 1.320 . S
C1603 C1601 1.339 . S
C1603 C1602 1.395 . S
C1603 H1629 0.929 . S
C1604 C1602 1.320 . S
C1604 C1605 1.405 . S
C1604 H1630 0.930 . S
C1605 C1600 1.479 . S
C1605 C1604 1.405 . S
C1605 H1631 0.931 . S
U1606 O1607 2.462 . S
U1606 O1608 2.458 1_655 S
U1606 C1609 2.984 1_655 S
U1606 C1610 2.847 . S
U1606 C1623 2.882 1_655 S
U1606 O1624 2.441 . S
U1606 O1625 2.420 . S
U1606 O1626 2.455 1_655 S
U1606 O1627 2.449 . S
O1607 U1606 2.462 . S
O1607 C1609 1.286 1_655 S
O1608 U1606 2.458 1_455 S
O1608 C1609 1.286 . S
C1609 U1606 2.984 1_455 S
C1609 O1607 1.286 1_455 S
C1609 O1608 1.286 . S
C1609 C1611 1.363 . S
C1610 C1600 1.465 . S
C1610 U1606 2.847 . S
C1610 O1624 1.249 . S
C1610 O1625 1.202 . S
C1611 C1609 1.363 . S
C1611 C1613 1.408 . S
C1611 C1616 1.342 . S
C1612 C1613 1.310 . S
C1612 C1615 1.461 . S
C1612 H1632 0.932 . S
C1613 C1611 1.408 . S
C1613 C1612 1.310 . S
C1613 H1633 0.930 . S
C1614 C1615 1.474 . S
C1614 C1616 1.285 . S
C1614 H1634 0.929 . S
C1615 C1612 1.461 . S
C1615 C1614 1.474 . S
C1616 C1611 1.342 . S
C1616 C1614 1.285 . S
C1616 H1635 0.930 . S
C1617 C1620 1.424 . S
C1617 C1622 1.245 . S
C1617 C1623 1.428 . S
C1618 C1621 1.260 . S
C1618 C1622 1.477 . S
C1618 H1636 0.932 . S
C1619 C1620 1.384 . S
C1619 C1621 1.479 . S
C1619 H1637 0.929 . S
C1620 C1617 1.424 . S
C1620 C1619 1.384 . S
C1620 H1638 0.928 . S
C1621 C1618 1.260 . S
C1621 C1619 1.479 . S
C1622 C1617 1.245 . S
C1622 C1618 1.477 . S
C1622 H1639 0.932 . S
C1623 U1606 2.882 1_455 S
C1623 C1617 1.428 . S
C1623 O1626 1.301 . S
C1623 O1627 1.282 1_455 S
O1624 U1606 2.441 . S
O1624 C1610 1.249 . S
O1625 U1606 2.420 . S
O1625 C1610 1.202 . S
O1626 U1606 2.455 1_455 S
O1626 C1623 1.301 . S
O1627 U1606 2.449 . S
O1627 C1623 1.282 1_655 S
H1628 C1601 0.931 . S
H1629 C1603 0.929 . S
H1630 C1604 0.930 . S
H1631 C1605 0.931 . S
H1632 C1612 0.932 . S
H1633 C1613 0.930 . S
H1634 C1614 0.929 . S
H1635 C1616 0.930 . S
H1636 C1618 0.932 . S
H1637 C1619 0.929 . S
H1638 C1620 0.928 . S
H1639 C1622 0.932 . S
C1640 C1641 1.264 . S
C1640 C1645 1.479 . S
C1640 C1650 1.465 . S
C1641 C1640 1.264 . S
C1641 C1643 1.339 . S
C1641 H1668 0.931 . S
C1642 C1643 1.395 . S
C1642 C1644 1.320 . S
C1643 C1641 1.339 . S
C1643 C1642 1.395 . S
C1643 H1669 0.929 . S
C1644 C1642 1.320 . S
C1644 C1645 1.405 . S
C1644 H1670 0.930 . S
C1645 C1640 1.479 . S
C1645 C1644 1.405 . S
C1645 H1671 0.931 . S
U1646 O1647 2.454 . S
U1646 O1648 2.458 . S
U1646 C1649 2.984 . S
U1646 C1650 2.847 . S
U1646 C1663 2.882 . S
U1646 O1664 2.441 . S
U1646 O1665 2.420 . S
U1646 O1666 2.455 . S
U1646 O1667 2.449 . S
O1647 U1646 2.454 . S
O1647 C1649 1.353 . S
O1648 U1646 2.458 . S
O1648 C1649 1.286 . S
C1649 U1646 2.984 . S
C1649 O1647 1.353 . S
C1649 O1648 1.286 . S
C1649 C1651 1.363 . S
C1650 C1640 1.465 . S
C1650 U1646 2.847 . S
C1650 O1664 1.249 . S
C1650 O1665 1.202 . S
C1651 C1649 1.363 . S
C1651 C1653 1.408 . S
C1651 C1656 1.342 . S
C1652 C1653 1.310 . S
C1652 C1655 1.461 . S
C1652 H1672 0.932 . S
C1653 C1651 1.408 . S
C1653 C1652 1.310 . S
C1653 H1673 0.930 . S
C1654 C1655 1.474 . S
C1654 C1656 1.285 . S
C1654 H1674 0.929 . S
C1655 C1652 1.461 . S
C1655 C1654 1.474 . S
C1656 C1651 1.342 . S
C1656 C1654 1.285 . S
C1656 H1675 0.930 . S
C1657 C1660 1.424 . S
C1657 C1662 1.245 . S
C1657 C1663 1.428 . S
C1658 C1661 1.260 . S
C1658 C1662 1.477 . S
C1658 H1676 0.932 . S
C1659 C1660 1.384 . S
C1659 C1661 1.479 . S
C1659 H1677 0.929 1_565 S
C1660 C1657 1.424 . S
C1660 C1659 1.384 . S
C1660 H1678 0.928 . S
C1661 C1658 1.260 . S
C1661 C1659 1.479 . S
C1662 C1657 1.245 . S
C1662 C1658 1.477 . S
C1662 H1679 0.932 . S
C1663 U1646 2.882 . S
C1663 C1657 1.428 . S
C1663 O1666 1.301 . S
C1663 O1667 1.282 . S
O1664 U1646 2.441 . S
O1664 C1650 1.249 . S
O1665 U1646 2.420 . S
O1665 C1650 1.202 . S
O1666 U1646 2.455 . S
O1666 C1663 1.301 . S
O1667 U1646 2.449 . S
O1667 C1663 1.282 . S
H1668 C1641 0.931 . S
H1669 C1643 0.929 . S
H1670 C1644 0.930 . S
H1671 C1645 0.931 . S
H1672 C1652 0.932 . S
H1673 C1653 0.930 . S
H1674 C1654 0.929 . S
H1675 C1656 0.930 . S
H1676 C1658 0.932 . S
H1677 C1659 0.929 1_545 S
H1678 C1660 0.928 . S
H1679 C1662 0.932 . S
C1680 C1681 1.264 . S
C1680 C1685 1.479 . S
C1680 C1690 1.465 . S
C1681 C1680 1.264 . S
C1681 C1683 1.339 . S
C1681 H1708 0.931 . S
C1682 C1683 1.395 . S
C1682 C1684 1.320 . S
C1683 C1681 1.339 . S
C1683 C1682 1.395 . S
C1683 H1709 0.929 . S
C1684 C1682 1.320 . S
C1684 C1685 1.405 . S
C1684 H1710 0.930 . S
C1685 C1680 1.479 . S
C1685 C1684 1.405 . S
C1685 H1711 0.931 . S
U1686 O1687 2.454 1_554 S
U1686 O1688 2.458 . S
U1686 C1689 2.984 1_554 S
U1686 C1690 2.847 . S
U1686 C1703 2.882 . S
U1686 O1704 2.441 . S
U1686 O1705 2.420 . S
U1686 O1706 2.455 . S
U1686 O1707 2.449 . S
O1687 U1686 2.454 1_556 S
O1687 C1689 1.353 . S
O1688 U1686 2.458 . S
O1688 C1689 1.286 1_554 S
C1689 U1686 2.984 1_556 S
C1689 O1687 1.353 . S
C1689 O1688 1.286 1_556 S
C1689 C1691 1.363 . S
C1690 C1680 1.465 . S
C1690 U1686 2.847 . S
C1690 O1704 1.249 . S
C1690 O1705 1.202 . S
C1691 C1689 1.363 . S
C1691 C1693 1.408 . S
C1691 C1696 1.342 . S
C1692 C1693 1.310 . S
C1692 C1695 1.461 . S
C1692 H1712 0.932 . S
C1693 C1691 1.408 . S
C1693 C1692 1.310 . S
C1693 H1713 0.930 . S
C1694 C1695 1.474 . S
C1694 C1696 1.285 . S
C1694 H1714 0.929 . S
C1695 C1692 1.461 . S
C1695 C1694 1.474 . S
C1696 C1691 1.342 . S
C1696 C1694 1.285 . S
C1696 H1715 0.930 . S
C1697 C1700 1.424 . S
C1697 C1702 1.245 . S
C1697 C1703 1.428 . S
C1698 C1701 1.260 . S
C1698 C1702 1.477 . S
C1698 H1716 0.932 . S
C1699 C1700 1.384 . S
C1699 C1701 1.479 . S
C1699 H1717 0.929 . S
C1700 C1697 1.424 . S
C1700 C1699 1.384 . S
C1700 H1718 0.928 . S
C1701 C1698 1.260 . S
C1701 C1699 1.479 . S
C1702 C1697 1.245 . S
C1702 C1698 1.477 . S
C1702 H1719 0.932 . S
C1703 U1686 2.882 . S
C1703 C1697 1.428 . S
C1703 O1706 1.301 . S
C1703 O1707 1.282 . S
O1704 U1686 2.441 . S
O1704 C1690 1.249 . S
O1705 U1686 2.420 . S
O1705 C1690 1.202 . S
O1706 U1686 2.455 . S
O1706 C1703 1.301 . S
O1707 U1686 2.449 . S
O1707 C1703 1.282 . S
H1708 C1681 0.931 . S
H1709 C1683 0.929 . S
H1710 C1684 0.930 . S
H1711 C1685 0.931 . S
H1712 C1692 0.932 . S
H1713 C1693 0.930 . S
H1714 C1694 0.929 . S
H1715 C1696 0.930 . S
H1716 C1698 0.932 . S
H1717 C1699 0.929 . S
H1718 C1700 0.928 . S
H1719 C1702 0.932 . S
C1720 C1721 1.264 . S
C1720 C1725 1.479 . S
C1720 C1730 1.465 . S
C1721 C1720 1.264 . S
C1721 C1723 1.339 . S
C1721 H1748 0.931 . S
C1722 C1723 1.395 . S
C1722 C1724 1.320 . S
C1723 C1721 1.339 . S
C1723 C1722 1.395 . S
C1723 H1749 0.929 . S
C1724 C1722 1.320 . S
C1724 C1725 1.405 . S
C1724 H1750 0.930 . S
C1725 C1720 1.479 . S
C1725 C1724 1.405 . S
C1725 H1751 0.931 . S
U1726 O1727 2.454 . S
U1726 O1728 2.458 . S
U1726 C1729 2.984 . S
U1726 C1730 2.847 . S
U1726 C1743 2.882 . S
U1726 O1744 2.441 . S
U1726 O1745 2.420 . S
U1726 O1746 2.455 . S
U1726 O1747 2.449 . S
O1727 U1726 2.454 . S
O1727 C1729 1.353 . S
O1728 U1726 2.458 . S
O1728 C1729 1.286 . S
C1729 U1726 2.984 . S
C1729 O1727 1.353 . S
C1729 O1728 1.286 . S
C1729 C1731 1.363 . S
C1730 C1720 1.465 . S
C1730 U1726 2.847 . S
C1730 O1744 1.249 . S
C1730 O1745 1.202 . S
C1731 C1729 1.363 . S
C1731 C1733 1.408 . S
C1731 C1736 1.342 . S
C1732 C1733 1.310 . S
C1732 C1735 1.461 . S
C1732 H1752 0.932 . S
C1733 C1731 1.408 . S
C1733 C1732 1.310 . S
C1733 H1753 0.930 . S
C1734 C1735 1.474 . S
C1734 C1736 1.285 . S
C1734 H1754 0.929 . S
C1735 C1732 1.461 . S
C1735 C1734 1.474 . S
C1736 C1731 1.342 . S
C1736 C1734 1.285 . S
C1736 H1755 0.930 . S
C1737 C1740 1.424 . S
C1737 C1742 1.245 . S
C1737 C1743 1.428 . S
C1738 C1741 1.260 . S
C1738 C1742 1.477 . S
C1738 H1756 0.932 . S
C1739 C1740 1.384 . S
C1739 C1741 1.479 . S
C1739 H1757 0.929 . S
C1740 C1737 1.424 . S
C1740 C1739 1.384 . S
C1740 H1758 0.928 . S
C1741 C1738 1.260 . S
C1741 C1739 1.479 . S
C1742 C1737 1.245 . S
C1742 C1738 1.477 . S
C1742 H1759 0.932 . S
C1743 U1726 2.882 . S
C1743 C1737 1.428 . S
C1743 O1746 1.301 . S
C1743 O1747 1.282 . S
O1744 U1726 2.441 . S
O1744 C1730 1.249 . S
O1745 U1726 2.420 . S
O1745 C1730 1.202 . S
O1746 U1726 2.455 . S
O1746 C1743 1.301 . S
O1747 U1726 2.449 . S
O1747 C1743 1.282 . S
H1748 C1721 0.931 . S
H1749 C1723 0.929 . S
H1750 C1724 0.930 . S
H1751 C1725 0.931 . S
H1752 C1732 0.932 . S
H1753 C1733 0.930 . S
H1754 C1734 0.929 . S
H1755 C1736 0.930 . S
H1756 C1738 0.932 . S
H1757 C1739 0.929 . S
H1758 C1740 0.928 . S
H1759 C1742 0.932 . S
C1760 C1761 1.264 . S
C1760 C1765 1.479 . S
C1760 C1770 1.465 . S
C1761 C1760 1.264 . S
C1761 C1763 1.339 . S
C1761 H1788 0.931 . S
C1762 C1763 1.395 . S
C1762 C1764 1.320 . S
C1763 C1761 1.339 . S
C1763 C1762 1.395 . S
C1763 H1789 0.929 . S
C1764 C1762 1.320 . S
C1764 C1765 1.405 . S
C1764 H1790 0.930 . S
C1765 C1760 1.479 . S
C1765 C1764 1.405 . S
C1765 H1791 0.931 . S
U1766 O1767 2.454 . S
U1766 O1768 2.458 . S
U1766 C1769 2.984 . S
U1766 C1770 2.847 . S
U1766 C1783 2.882 . S
U1766 O1784 2.441 . S
U1766 O1785 2.420 . S
U1766 O1786 2.455 . S
U1766 O1787 2.449 . S
O1767 U1766 2.454 . S
O1767 C1769 1.353 . S
O1768 U1766 2.458 . S
O1768 C1769 1.286 . S
C1769 U1766 2.984 . S
C1769 O1767 1.353 . S
C1769 O1768 1.286 . S
C1769 C1771 1.363 . S
C1770 C1760 1.465 . S
C1770 U1766 2.847 . S
C1770 O1784 1.249 . S
C1770 O1785 1.202 . S
C1771 C1769 1.363 . S
C1771 C1773 1.408 . S
C1771 C1776 1.342 . S
C1772 C1773 1.310 . S
C1772 C1775 1.461 . S
C1772 H1792 0.932 . S
C1773 C1771 1.408 . S
C1773 C1772 1.310 . S
C1773 H1793 0.930 . S
C1774 C1775 1.474 . S
C1774 C1776 1.285 . S
C1774 H1794 0.929 . S
C1775 C1772 1.461 . S
C1775 C1774 1.474 . S
C1776 C1771 1.342 . S
C1776 C1774 1.285 . S
C1776 H1795 0.930 . S
C1777 C1780 1.424 . S
C1777 C1782 1.245 . S
C1777 C1783 1.428 . S
C1778 C1781 1.260 . S
C1778 C1782 1.477 . S
C1778 H1796 0.932 . S
C1779 C1780 1.384 . S
C1779 C1781 1.479 . S
C1779 H1797 0.929 . S
C1780 C1777 1.424 . S
C1780 C1779 1.384 . S
C1780 H1798 0.928 . S
C1781 C1778 1.260 . S
C1781 C1779 1.479 . S
C1782 C1777 1.245 . S
C1782 C1778 1.477 . S
C1782 H1799 0.932 . S
C1783 U1766 2.882 . S
C1783 C1777 1.428 . S
C1783 O1786 1.301 . S
C1783 O1787 1.282 . S
O1784 U1766 2.441 . S
O1784 C1770 1.249 . S
O1785 U1766 2.420 . S
O1785 C1770 1.202 . S
O1786 U1766 2.455 . S
O1786 C1783 1.301 . S
O1787 U1766 2.449 . S
O1787 C1783 1.282 . S
H1788 C1761 0.931 . S
H1789 C1763 0.929 . S
H1790 C1764 0.930 . S
H1791 C1765 0.931 . S
H1792 C1772 0.932 . S
H1793 C1773 0.930 . S
H1794 C1774 0.929 . S
H1795 C1776 0.930 . S
H1796 C1778 0.932 . S
H1797 C1779 0.929 . S
H1798 C1780 0.928 . S
H1799 C1782 0.932 . S
C1800 C1801 1.264 . S
C1800 C1805 1.479 . S
C1800 C1810 1.465 . S
C1801 C1800 1.264 . S
C1801 C1803 1.339 . S
C1801 H1828 0.931 . S
C1802 C1803 1.395 . S
C1802 C1804 1.320 . S
C1803 C1801 1.339 . S
C1803 C1802 1.395 . S
C1803 H1829 0.929 . S
C1804 C1802 1.320 . S
C1804 C1805 1.405 . S
C1804 H1830 0.930 . S
C1805 C1800 1.479 . S
C1805 C1804 1.405 . S
C1805 H1831 0.931 . S
U1806 O1807 2.454 . S
U1806 O1808 2.458 . S
U1806 C1809 2.984 . S
U1806 C1810 2.847 . S
U1806 C1823 2.882 . S
U1806 O1824 2.441 . S
U1806 O1825 2.420 . S
U1806 O1826 2.455 . S
U1806 O1827 2.449 . S
O1807 U1806 2.454 . S
O1807 C1809 1.353 . S
O1808 U1806 2.458 . S
O1808 C1809 1.286 . S
C1809 U1806 2.984 . S
C1809 O1807 1.353 . S
C1809 O1808 1.286 . S
C1809 C1811 1.363 . S
C1810 C1800 1.465 . S
C1810 U1806 2.847 . S
C1810 O1824 1.249 . S
C1810 O1825 1.202 . S
C1811 C1809 1.363 . S
C1811 C1813 1.408 . S
C1811 C1816 1.342 . S
C1812 C1813 1.310 . S
C1812 C1815 1.461 . S
C1812 H1832 0.932 . S
C1813 C1811 1.408 . S
C1813 C1812 1.310 . S
C1813 H1833 0.930 . S
C1814 C1815 1.474 . S
C1814 C1816 1.285 . S
C1814 H1834 0.929 . S
C1815 C1812 1.461 . S
C1815 C1814 1.474 . S
C1816 C1811 1.342 . S
C1816 C1814 1.285 . S
C1816 H1835 0.930 . S
C1817 C1820 1.424 . S
C1817 C1822 1.245 . S
C1817 C1823 1.428 . S
C1818 C1821 1.260 . S
C1818 C1822 1.477 . S
C1818 H1836 0.932 . S
C1819 C1820 1.384 . S
C1819 C1821 1.479 . S
C1819 H1837 0.929 . S
C1820 C1817 1.424 . S
C1820 C1819 1.384 . S
C1820 H1838 0.928 . S
C1821 C1818 1.260 . S
C1821 C1819 1.479 . S
C1822 C1817 1.245 . S
C1822 C1818 1.477 . S
C1822 H1839 0.932 . S
C1823 U1806 2.882 . S
C1823 C1817 1.428 . S
C1823 O1826 1.301 . S
C1823 O1827 1.282 . S
O1824 U1806 2.441 . S
O1824 C1810 1.249 . S
O1825 U1806 2.420 . S
O1825 C1810 1.202 . S
O1826 U1806 2.455 . S
O1826 C1823 1.301 . S
O1827 U1806 2.449 . S
O1827 C1823 1.282 . S
H1828 C1801 0.931 . S
H1829 C1803 0.929 . S
H1830 C1804 0.930 . S
H1831 C1805 0.931 . S
H1832 C1812 0.932 . S
H1833 C1813 0.930 . S
H1834 C1814 0.929 . S
H1835 C1816 0.930 . S
H1836 C1818 0.932 . S
H1837 C1819 0.929 . S
H1838 C1820 0.928 . S
H1839 C1822 0.932 . S
C1840 C1841 1.264 . S
C1840 C1845 1.479 . S
C1840 C1850 1.465 . S
C1841 C1840 1.264 . S
C1841 C1843 1.339 . S
C1841 H1868 0.931 . S
C1842 C1843 1.395 . S
C1842 C1844 1.320 . S
C1843 C1841 1.339 . S
C1843 C1842 1.395 . S
C1843 H1869 0.929 . S
C1844 C1842 1.320 . S
C1844 C1845 1.405 . S
C1844 H1870 0.930 . S
C1845 C1840 1.479 . S
C1845 C1844 1.405 . S
C1845 H1871 0.931 . S
U1846 O1847 2.454 . S
U1846 O1848 2.458 . S
U1846 C1849 2.984 . S
U1846 C1850 2.847 . S
U1846 C1863 2.882 . S
U1846 O1864 2.441 . S
U1846 O1865 2.420 . S
U1846 O1866 2.455 . S
U1846 O1867 2.449 . S
O1847 U1846 2.454 . S
O1847 C1849 1.353 . S
O1848 U1846 2.458 . S
O1848 C1849 1.286 . S
C1849 U1846 2.984 . S
C1849 O1847 1.353 . S
C1849 O1848 1.286 . S
C1849 C1851 1.363 . S
C1850 C1840 1.465 . S
C1850 U1846 2.847 . S
C1850 O1864 1.249 . S
C1850 O1865 1.202 . S
C1851 C1849 1.363 . S
C1851 C1853 1.408 . S
C1851 C1856 1.342 . S
C1852 C1853 1.310 . S
C1852 C1855 1.461 . S
C1852 H1872 0.932 . S
C1853 C1851 1.408 . S
C1853 C1852 1.310 . S
C1853 H1873 0.930 . S
C1854 C1855 1.474 . S
C1854 C1856 1.285 . S
C1854 H1874 0.929 . S
C1855 C1852 1.461 . S
C1855 C1854 1.474 . S
C1856 C1851 1.342 . S
C1856 C1854 1.285 . S
C1856 H1875 0.930 . S
C1857 C1860 1.424 . S
C1857 C1862 1.245 . S
C1857 C1863 1.428 . S
C1858 C1861 1.260 . S
C1858 C1862 1.477 . S
C1858 H1876 0.932 . S
C1859 C1860 1.384 . S
C1859 C1861 1.479 . S
C1859 H1877 0.929 . S
C1860 C1857 1.424 . S
C1860 C1859 1.384 . S
C1860 H1878 0.928 . S
C1861 C1858 1.260 . S
C1861 C1859 1.479 . S
C1862 C1857 1.245 . S
C1862 C1858 1.477 . S
C1862 H1879 0.932 . S
C1863 U1846 2.882 . S
C1863 C1857 1.428 . S
C1863 O1866 1.301 . S
C1863 O1867 1.282 . S
O1864 U1846 2.441 . S
O1864 C1850 1.249 . S
O1865 U1846 2.420 . S
O1865 C1850 1.202 . S
O1866 U1846 2.455 . S
O1866 C1863 1.301 . S
O1867 U1846 2.449 . S
O1867 C1863 1.282 . S
H1868 C1841 0.931 . S
H1869 C1843 0.929 . S
H1870 C1844 0.930 . S
H1871 C1845 0.931 . S
H1872 C1852 0.932 . S
H1873 C1853 0.930 . S
H1874 C1854 0.929 . S
H1875 C1856 0.930 . S
H1876 C1858 0.932 . S
H1877 C1859 0.929 . S
H1878 C1860 0.928 . S
H1879 C1862 0.932 . S
C1880 C1881 1.264 . S
C1880 C1885 1.479 . S
C1880 C1890 1.465 . S
C1881 C1880 1.264 . S
C1881 C1883 1.339 . S
C1881 H1908 0.931 . S
C1882 C1883 1.395 . S
C1882 C1884 1.320 . S
C1883 C1881 1.339 . S
C1883 C1882 1.395 . S
C1883 H1909 0.929 . S
C1884 C1882 1.320 . S
C1884 C1885 1.405 . S
C1884 H1910 0.930 . S
C1885 C1880 1.479 . S
C1885 C1884 1.405 . S
C1885 H1911 0.931 . S
U1886 O1887 2.454 . S
U1886 O1888 2.458 . S
U1886 C1889 2.984 . S
U1886 C1890 2.847 . S
U1886 C1903 2.882 . S
U1886 O1904 2.441 . S
U1886 O1905 2.420 . S
U1886 O1906 2.455 . S
U1886 O1907 2.449 . S
O1887 U1886 2.454 . S
O1887 C1889 1.353 . S
O1888 U1886 2.458 . S
O1888 C1889 1.286 . S
C1889 U1886 2.984 . S
C1889 O1887 1.353 . S
C1889 O1888 1.286 . S
C1889 C1891 1.363 . S
C1890 C1880 1.465 . S
C1890 U1886 2.847 . S
C1890 O1904 1.249 . S
C1890 O1905 1.202 . S
C1891 C1889 1.363 . S
C1891 C1893 1.408 . S
C1891 C1896 1.342 . S
C1892 C1893 1.310 . S
C1892 C1895 1.461 . S
C1892 H1912 0.932 . S
C1893 C1891 1.408 . S
C1893 C1892 1.310 . S
C1893 H1913 0.930 . S
C1894 C1895 1.474 . S
C1894 C1896 1.285 . S
C1894 H1914 0.929 . S
C1895 C1892 1.461 . S
C1895 C1894 1.474 . S
C1896 C1891 1.342 . S
C1896 C1894 1.285 . S
C1896 H1915 0.930 . S
C1897 C1900 1.424 . S
C1897 C1902 1.245 . S
C1897 C1903 1.428 . S
C1898 C1901 1.260 . S
C1898 C1902 1.477 . S
C1898 H1916 0.932 . S
C1899 C1900 1.384 . S
C1899 C1901 1.479 . S
C1899 H1917 0.929 . S
C1900 C1897 1.424 . S
C1900 C1899 1.384 . S
C1900 H1918 0.928 . S
C1901 C1898 1.260 . S
C1901 C1899 1.479 . S
C1902 C1897 1.245 . S
C1902 C1898 1.477 . S
C1902 H1919 0.932 . S
C1903 U1886 2.882 . S
C1903 C1897 1.428 . S
C1903 O1906 1.301 . S
C1903 O1907 1.282 . S
O1904 U1886 2.441 . S
O1904 C1890 1.249 . S
O1905 U1886 2.420 . S
O1905 C1890 1.202 . S
O1906 U1886 2.455 . S
O1906 C1903 1.301 . S
O1907 U1886 2.449 . S
O1907 C1903 1.282 . S
H1908 C1881 0.931 . S
H1909 C1883 0.929 . S
H1910 C1884 0.930 . S
H1911 C1885 0.931 . S
H1912 C1892 0.932 . S
H1913 C1893 0.930 . S
H1914 C1894 0.929 . S
H1915 C1896 0.930 . S
H1916 C1898 0.932 . S
H1917 C1899 0.929 . S
H1918 C1900 0.928 . S
H1919 C1902 0.932 . S
C1920 C1921 1.391 . S
C1920 C1924 1.391 . S
C1920 H1962 0.948 . S
C1921 C1920 1.391 . S
C1921 C1922 1.391 . S
C1922 C1921 1.391 . S
C1922 H1978 0.947 . S
C1922 C1979 1.392 . S
C1923 C1924 1.391 . S
C1923 C1927 1.397 . S
C1923 C1979 1.419 . S
C1924 C1920 1.391 . S
C1924 C1923 1.391 . S
C1924 C1925 1.399 . S
C1925 C1924 1.399 . S
C1925 C1928 1.396 . S
C1925 C1937 1.453 . S
C1925 C1938 1.684 . S
H1926 C1950 0.948 . S
C1927 C1923 1.397 . S
C1927 C1928 1.394 . S
C1927 C1946 1.723 . S
C1928 C1925 1.396 . S
C1928 C1927 1.394 . S
C1928 C1958 1.723 . S
H1929 C1952 0.953 . S
H1930 C1953 0.948 . S
H1931 C1959 0.982 . S
H1932 C1960 0.979 . S
H1933 C1960 0.980 . S
H1934 C1960 0.983 . S
H1935 C1959 0.979 . S
H1936 C1959 0.977 . S
C1937 C1925 1.453 . S
C1937 H1966 0.982 . S
C1937 H1967 0.979 . S
C1937 H1968 0.977 . S
C1938 C1925 1.684 . S
C1938 H1963 0.979 . S
C1938 H1964 0.980 . S
C1938 H1965 0.983 . S
C1939 C1940 1.391 . S
C1939 C1944 1.391 . S
C1939 H1969 0.948 . S
C1940 C1939 1.391 . S
C1940 C1941 1.391 . S
C1941 C1940 1.391 . S
C1941 C1942 1.392 . S
C1941 H1970 0.947 . S
C1942 C1941 1.392 . S
C1942 C1943 1.419 . S
C1942 H1971 0.948 . S
C1943 C1942 1.419 . S
C1943 C1944 1.391 . S
C1943 C1947 1.397 . S
C1944 C1939 1.391 . S
C1944 C1943 1.391 . S
C1944 C1945 1.399 . S
C1945 C1944 1.399 . S
C1945 C1946 1.396 . S
C1945 C1948 1.453 . S
C1945 C1949 1.684 . S
C1946 C1927 1.723 . S
C1946 C1945 1.396 . S
C1946 C1947 1.394 . S
C1947 C1943 1.397 . S
C1947 C1946 1.394 . S
C1947 C1957 1.723 . S
C1948 C1945 1.453 . S
C1948 H1972 0.982 . S
C1948 H1973 0.979 . S
C1948 H1974 0.977 . S
C1949 C1945 1.684 . S
C1949 H1975 0.979 . S
C1949 H1976 0.980 . S
C1949 H1977 0.983 . S
C1950 H1926 0.948 . S
C1950 C1951 1.391 . S
C1950 C1955 1.391 . S
C1951 C1950 1.391 . S
C1951 C1952 1.391 . S
C1952 H1929 0.953 . S
C1952 C1951 1.391 . S
C1952 C1953 1.392 . S
C1953 H1930 0.948 . S
C1953 C1952 1.392 . S
C1953 C1954 1.419 . S
C1954 C1953 1.419 . S
C1954 C1955 1.391 . S
C1954 C1958 1.397 . S
C1955 C1950 1.391 . S
C1955 C1954 1.391 . S
C1955 C1956 1.399 . S
C1956 C1955 1.399 . S
C1956 C1957 1.396 . S
C1956 C1959 1.453 . S
C1956 C1960 1.684 . S
C1957 C1947 1.723 . S
C1957 C1956 1.396 . S
C1957 C1958 1.394 . S
C1958 C1928 1.723 . S
C1958 C1954 1.397 . S
C1958 C1957 1.394 . S
C1959 H1931 0.982 . S
C1959 H1935 0.979 . S
C1959 H1936 0.977 . S
C1959 C1956 1.453 . S
C1960 H1932 0.979 . S
C1960 H1933 0.980 . S
C1960 H1934 0.983 . S
C1960 C1956 1.684 . S
H1961 C1979 0.948 . S
H1962 C1920 0.948 . S
H1963 C1938 0.979 . S
H1964 C1938 0.980 . S
H1965 C1938 0.983 . S
H1966 C1937 0.982 . S
H1967 C1937 0.979 . S
H1968 C1937 0.977 . S
H1969 C1939 0.948 . S
H1970 C1941 0.947 . S
H1971 C1942 0.948 . S
H1972 C1948 0.982 . S
H1973 C1948 0.979 . S
H1974 C1948 0.977 . S
H1975 C1949 0.979 . S
H1976 C1949 0.980 . S
H1977 C1949 0.983 . S
H1978 C1922 0.947 . S
C1979 C1922 1.392 . S
C1979 C1923 1.419 . S
C1979 H1961 0.948 . S
C1980 C1981 1.391 . S
C1980 C1984 1.391 . S
C1980 H2022 0.948 . S
C1981 C1980 1.391 . S
C1981 C1982 1.391 . S
C1982 C1981 1.391 . S
C1982 H2038 0.947 . S
C1982 C2039 1.392 . S
C1983 C1984 1.391 . S
C1983 C1987 1.397 . S
C1983 C2039 1.419 . S
C1984 C1980 1.391 . S
C1984 C1983 1.391 . S
C1984 C1985 1.399 . S
C1985 C1984 1.399 . S
C1985 C1988 1.396 . S
C1985 C1997 1.453 . S
C1985 C1998 1.684 . S
H1986 C2010 0.948 . S
C1987 C1983 1.397 . S
C1987 C1988 1.394 . S
C1987 C2006 1.723 . S
C1988 C1985 1.396 . S
C1988 C1987 1.394 . S
C1988 C2018 1.723 . S
H1989 C2012 0.947 . S
H1990 C2013 0.948 . S
H1991 C2019 0.982 . S
H1992 C2020 0.979 . S
H1993 C2020 0.980 . S
H1994 C2020 0.983 . S
H1995 C2019 0.979 . S
H1996 C2019 0.977 . S
C1997 C1985 1.453 . S
C1997 H2026 0.982 . S
C1997 H2027 0.979 . S
C1997 H2028 0.977 . S
C1998 C1985 1.684 . S
C1998 H2023 0.979 . S
C1998 H2024 0.980 . S
C1998 H2025 0.983 . S
C1999 C2000 1.391 . S
C1999 C2004 1.391 . S
C1999 H2029 0.948 . S
C2000 C1999 1.391 . S
C2000 C2001 1.391 . S
C2001 C2000 1.391 . S
C2001 C2002 1.392 . S
C2001 H2030 0.947 . S
C2002 C2001 1.392 . S
C2002 C2003 1.419 . S
C2002 H2031 0.948 . S
C2003 C2002 1.419 . S
C2003 C2004 1.391 . S
C2003 C2007 1.397 . S
C2004 C1999 1.391 . S
C2004 C2003 1.391 . S
C2004 C2005 1.399 . S
C2005 C2004 1.399 . S
C2005 C2006 1.396 . S
C2005 C2008 1.453 . S
C2005 C2009 1.684 . S
C2006 C1987 1.723 . S
C2006 C2005 1.396 . S
C2006 C2007 1.394 . S
C2007 C2003 1.397 . S
C2007 C2006 1.394 . S
C2007 C2017 1.723 . S
C2008 C2005 1.453 . S
C2008 H2032 0.982 . S
C2008 H2033 0.979 . S
C2008 H2034 0.977 . S
C2009 C2005 1.684 . S
C2009 H2035 0.979 . S
C2009 H2036 0.980 . S
C2009 H2037 0.983 . S
C2010 H1986 0.948 . S
C2010 C2011 1.391 . S
C2010 C2015 1.391 . S
C2011 C2010 1.391 . S
C2011 C2012 1.391 . S
C2012 H1989 0.947 . S
C2012 C2011 1.391 . S
C2012 C2013 1.392 . S
C2013 H1990 0.948 . S
C2013 C2012 1.392 . S
C2013 C2014 1.419 . S
C2014 C2013 1.419 . S
C2014 C2015 1.391 . S
C2014 C2018 1.397 . S
C2015 C2010 1.391 . S
C2015 C2014 1.391 . S
C2015 C2016 1.399 . S
C2016 C2015 1.399 . S
C2016 C2017 1.396 . S
C2016 C2019 1.453 . S
C2016 C2020 1.684 . S
C2017 C2007 1.723 . S
C2017 C2016 1.396 . S
C2017 C2018 1.394 . S
C2018 C1988 1.723 . S
C2018 C2014 1.397 . S
C2018 C2017 1.394 . S
C2019 H1991 0.982 . S
C2019 H1995 0.979 . S
C2019 H1996 0.977 . S
C2019 C2016 1.453 . S
C2020 H1992 0.979 . S
C2020 H1993 0.980 . S
C2020 H1994 0.983 . S
C2020 C2016 1.684 . S
H2021 C2039 0.948 . S
H2022 C1980 0.948 . S
H2023 C1998 0.979 . S
H2024 C1998 0.980 . S
H2025 C1998 0.983 . S
H2026 C1997 0.982 . S
H2027 C1997 0.979 . S
H2028 C1997 0.977 . S
H2029 C1999 0.948 . S
H2030 C2001 0.947 . S
H2031 C2002 0.948 . S
H2032 C2008 0.982 . S
H2033 C2008 0.979 . S
H2034 C2008 0.977 . S
H2035 C2009 0.979 . S
H2036 C2009 0.980 . S
H2037 C2009 0.983 . S
H2038 C1982 0.947 . S
C2039 C1982 1.392 . S
C2039 C1983 1.419 . S
C2039 H2021 0.948 . S
C2040 C2041 1.391 . S
C2040 C2044 1.391 . S
C2040 H2082 0.948 . S
C2041 C2040 1.391 . S
C2041 C2042 1.391 . S
C2042 C2041 1.391 . S
C2042 H2098 0.947 . S
C2042 C2099 1.392 . S
C2043 C2044 1.391 . S
C2043 C2047 1.397 . S
C2043 C2099 1.419 . S
C2044 C2040 1.391 . S
C2044 C2043 1.391 . S
C2044 C2045 1.399 . S
C2045 C2044 1.399 . S
C2045 C2048 1.396 . S
C2045 C2057 1.453 . S
C2045 C2058 1.684 . S
H2046 C2070 0.948 . S
C2047 C2043 1.397 . S
C2047 C2048 1.394 . S
C2047 C2066 1.723 . S
C2048 C2045 1.396 . S
C2048 C2047 1.394 . S
C2048 C2078 1.723 . S
H2049 C2072 0.947 . S
H2050 C2073 0.948 . S
H2051 C2079 0.982 . S
H2052 C2080 0.979 . S
H2053 C2080 0.980 . S
H2054 C2080 0.983 . S
H2055 C2079 0.979 . S
H2056 C2079 0.977 . S
C2057 C2045 1.453 . S
C2057 H2086 0.982 . S
C2057 H2087 0.979 . S
C2057 H2088 0.977 . S
C2058 C2045 1.684 . S
C2058 H2083 0.979 . S
C2058 H2084 0.980 . S
C2058 H2085 0.983 . S
C2059 C2060 1.391 . S
C2059 C2064 1.391 . S
C2059 H2089 0.948 . S
C2060 C2059 1.391 . S
C2060 C2061 1.391 . S
C2061 C2060 1.391 . S
C2061 C2062 1.392 . S
C2061 H2090 0.947 . S
C2062 C2061 1.392 . S
C2062 C2063 1.419 . S
C2062 H2091 0.948 . S
C2063 C2062 1.419 . S
C2063 C2064 1.391 . S
C2063 C2067 1.397 . S
C2064 C2059 1.391 . S
C2064 C2063 1.391 . S
C2064 C2065 1.399 . S
C2065 C2064 1.399 . S
C2065 C2066 1.396 . S
C2065 C2068 1.453 . S
C2065 C2069 1.684 . S
C2066 C2047 1.723 . S
C2066 C2065 1.396 . S
C2066 C2067 1.394 . S
C2067 C2063 1.397 . S
C2067 C2066 1.394 . S
C2067 C2077 1.723 . S
C2068 C2065 1.453 . S
C2068 H2092 0.982 . S
C2068 H2093 0.979 . S
C2068 H2094 0.977 . S
C2069 C2065 1.684 . S
C2069 H2095 0.979 . S
C2069 H2096 0.980 . S
C2069 H2097 0.983 . S
C2070 H2046 0.948 . S
C2070 C2071 1.391 . S
C2070 C2075 1.391 . S
C2071 C2070 1.391 . S
C2071 C2072 1.391 . S
C2072 H2049 0.947 . S
C2072 C2071 1.391 . S
C2072 C2073 1.392 . S
C2073 H2050 0.948 . S
C2073 C2072 1.392 . S
C2073 C2074 1.419 . S
C2074 C2073 1.419 . S
C2074 C2075 1.391 . S
C2074 C2078 1.397 . S
C2075 C2070 1.391 . S
C2075 C2074 1.391 . S
C2075 C2076 1.399 . S
C2076 C2075 1.399 . S
C2076 C2077 1.396 . S
C2076 C2079 1.453 . S
C2076 C2080 1.684 . S
C2077 C2067 1.723 . S
C2077 C2076 1.396 . S
C2077 C2078 1.394 . S
C2078 C2048 1.723 . S
C2078 C2074 1.397 . S
C2078 C2077 1.394 . S
C2079 H2051 0.982 . S
C2079 H2055 0.979 . S
C2079 H2056 0.977 . S
C2079 C2076 1.453 . S
C2080 H2052 0.979 . S
C2080 H2053 0.980 . S
C2080 H2054 0.983 . S
C2080 C2076 1.684 . S
H2081 C2099 0.948 . S
H2082 C2040 0.948 . S
H2083 C2058 0.979 . S
H2084 C2058 0.980 . S
H2085 C2058 0.983 . S
H2086 C2057 0.982 . S
H2087 C2057 0.979 . S
H2088 C2057 0.977 . S
H2089 C2059 0.948 . S
H2090 C2061 0.947 . S
H2091 C2062 0.948 . S
H2092 C2068 0.982 . S
H2093 C2068 0.979 . S
H2094 C2068 0.977 . S
H2095 C2069 0.979 . S
H2096 C2069 0.980 . S
H2097 C2069 0.983 . S
H2098 C2042 0.947 . S
C2099 C2042 1.392 . S
C2099 C2043 1.419 . S
C2099 H2081 0.948 . S
C2100 C2101 1.391 . S
C2100 C2104 1.391 . S
C2100 H2142 0.948 . S
C2101 C2100 1.391 . S
C2101 C2102 1.391 . S
C2102 C2101 1.391 . S
C2102 H2158 0.947 . S
C2102 C2159 1.392 . S
C2103 C2104 1.391 . S
C2103 C2107 1.397 . S
C2103 C2159 1.419 . S
C2104 C2100 1.391 . S
C2104 C2103 1.391 . S
C2104 C2105 1.399 . S
C2105 C2104 1.399 . S
C2105 C2108 1.396 . S
C2105 C2117 1.453 . S
C2105 C2118 1.684 . S
H2106 C2130 0.948 . S
C2107 C2103 1.397 . S
C2107 C2108 1.394 . S
C2107 C2126 1.723 . S
C2108 C2105 1.396 . S
C2108 C2107 1.394 . S
C2108 C2138 1.723 . S
H2109 C2132 0.947 . S
H2110 C2133 0.948 . S
H2111 C2139 0.982 . S
H2112 C2140 0.979 . S
H2113 C2140 0.980 . S
H2114 C2140 0.983 . S
H2115 C2139 0.979 . S
H2116 C2139 0.977 . S
C2117 C2105 1.453 . S
C2117 H2146 0.982 . S
C2117 H2147 0.979 . S
C2117 H2148 0.977 . S
C2118 C2105 1.684 . S
C2118 H2143 0.979 . S
C2118 H2144 0.980 . S
C2118 H2145 0.983 . S
C2119 C2120 1.391 . S
C2119 C2124 1.391 . S
C2119 H2149 0.948 . S
C2120 C2119 1.391 . S
C2120 C2121 1.391 . S
C2121 C2120 1.391 . S
C2121 C2122 1.392 . S
C2121 H2150 0.947 . S
C2122 C2121 1.392 . S
C2122 C2123 1.419 . S
C2122 H2151 0.948 . S
C2123 C2122 1.419 . S
C2123 C2124 1.391 . S
C2123 C2127 1.397 . S
C2124 C2119 1.391 . S
C2124 C2123 1.391 . S
C2124 C2125 1.399 . S
C2125 C2124 1.399 . S
C2125 C2126 1.396 . S
C2125 C2128 1.453 . S
C2125 C2129 1.684 . S
C2126 C2107 1.723 . S
C2126 C2125 1.396 . S
C2126 C2127 1.394 . S
C2127 C2123 1.397 . S
C2127 C2126 1.394 . S
C2127 C2137 1.723 . S
C2128 C2125 1.453 . S
C2128 H2152 0.982 . S
C2128 H2153 0.979 . S
C2128 H2154 0.977 . S
C2129 C2125 1.684 . S
C2129 H2155 0.979 . S
C2129 H2156 0.980 . S
C2129 H2157 0.983 . S
C2130 H2106 0.948 . S
C2130 C2131 1.391 . S
C2130 C2135 1.391 . S
C2131 C2130 1.391 . S
C2131 C2132 1.391 . S
C2132 H2109 0.947 . S
C2132 C2131 1.391 . S
C2132 C2133 1.392 . S
C2133 H2110 0.948 . S
C2133 C2132 1.392 . S
C2133 C2134 1.419 . S
C2134 C2133 1.419 . S
C2134 C2135 1.391 . S
C2134 C2138 1.397 . S
C2135 C2130 1.391 . S
C2135 C2134 1.391 . S
C2135 C2136 1.399 . S
C2136 C2135 1.399 . S
C2136 C2137 1.396 . S
C2136 C2139 1.453 . S
C2136 C2140 1.684 . S
C2137 C2127 1.723 . S
C2137 C2136 1.396 . S
C2137 C2138 1.394 . S
C2138 C2108 1.723 . S
C2138 C2134 1.397 . S
C2138 C2137 1.394 . S
C2139 H2111 0.982 . S
C2139 H2115 0.979 . S
C2139 H2116 0.977 . S
C2139 C2136 1.453 . S
C2140 H2112 0.979 . S
C2140 H2113 0.980 . S
C2140 H2114 0.983 . S
C2140 C2136 1.684 . S
H2141 C2159 0.948 . S
H2142 C2100 0.948 . S
H2143 C2118 0.979 . S
H2144 C2118 0.980 . S
H2145 C2118 0.983 . S
H2146 C2117 0.982 . S
H2147 C2117 0.979 . S
H2148 C2117 0.977 . S
H2149 C2119 0.948 . S
H2150 C2121 0.947 . S
H2151 C2122 0.948 . S
H2152 C2128 0.982 . S
H2153 C2128 0.979 . S
H2154 C2128 0.977 . S
H2155 C2129 0.979 . S
H2156 C2129 0.980 . S
H2157 C2129 0.983 . S
H2158 C2102 0.947 . S
C2159 C2102 1.392 . S
C2159 C2103 1.419 . S
C2159 H2141 0.948 . S
C2160 C2161 1.391 . S
C2160 C2164 1.391 . S
C2160 H2202 0.948 . S
C2161 C2160 1.391 . S
C2161 C2162 1.391 . S
C2162 C2161 1.391 . S
C2162 H2218 0.947 . S
C2162 C2219 1.392 . S
C2163 C2164 1.391 . S
C2163 C2167 1.397 . S
C2163 C2219 1.419 . S
C2164 C2160 1.391 . S
C2164 C2163 1.391 . S
C2164 C2165 1.399 . S
C2165 C2164 1.399 . S
C2165 C2168 1.396 . S
C2165 C2177 1.453 . S
C2165 C2178 1.684 . S
H2166 C2190 0.948 . S
C2167 C2163 1.397 . S
C2167 C2168 1.394 . S
C2167 C2186 1.723 . S
C2168 C2165 1.396 . S
C2168 C2167 1.394 . S
C2168 C2198 1.723 . S
H2169 C2192 0.946 1_655 S
H2170 C2193 0.948 . S
H2171 C2199 0.982 . S
H2172 C2200 0.979 . S
H2173 C2200 0.980 . S
H2174 C2200 0.983 . S
H2175 C2199 0.979 . S
H2176 C2199 0.977 . S
C2177 C2165 1.453 . S
C2177 H2206 0.982 . S
C2177 H2207 0.979 . S
C2177 H2208 0.977 . S
C2178 C2165 1.684 . S
C2178 H2203 0.979 . S
C2178 H2204 0.980 . S
C2178 H2205 0.983 . S
C2179 C2180 1.391 . S
C2179 C2184 1.391 . S
C2179 H2209 0.948 . S
C2180 C2179 1.391 . S
C2180 C2181 1.391 . S
C2181 C2180 1.391 . S
C2181 C2182 1.392 . S
C2181 H2210 0.947 . S
C2182 C2181 1.392 . S
C2182 C2183 1.419 . S
C2182 H2211 0.948 . S
C2183 C2182 1.419 . S
C2183 C2184 1.391 . S
C2183 C2187 1.397 . S
C2184 C2179 1.391 . S
C2184 C2183 1.391 . S
C2184 C2185 1.399 . S
C2185 C2184 1.399 . S
C2185 C2186 1.396 . S
C2185 C2188 1.453 . S
C2185 C2189 1.684 . S
C2186 C2167 1.723 . S
C2186 C2185 1.396 . S
C2186 C2187 1.394 . S
C2187 C2183 1.397 . S
C2187 C2186 1.394 . S
C2187 C2197 1.723 . S
C2188 C2185 1.453 . S
C2188 H2212 0.982 . S
C2188 H2213 0.979 . S
C2188 H2214 0.977 . S
C2189 C2185 1.684 . S
C2189 H2215 0.979 . S
C2189 H2216 0.980 . S
C2189 H2217 0.983 . S
C2190 H2166 0.948 . S
C2190 C2191 1.391 . S
C2190 C2195 1.391 . S
C2191 C2190 1.391 . S
C2191 C2192 1.391 . S
C2192 H2169 0.946 1_455 S
C2192 C2191 1.391 . S
C2192 C2193 1.392 . S
C2193 H2170 0.948 . S
C2193 C2192 1.392 . S
C2193 C2194 1.419 . S
C2194 C2193 1.419 . S
C2194 C2195 1.391 . S
C2194 C2198 1.397 . S
C2195 C2190 1.391 . S
C2195 C2194 1.391 . S
C2195 C2196 1.399 . S
C2196 C2195 1.399 . S
C2196 C2197 1.396 . S
C2196 C2199 1.453 . S
C2196 C2200 1.684 . S
C2197 C2187 1.723 . S
C2197 C2196 1.396 . S
C2197 C2198 1.394 . S
C2198 C2168 1.723 . S
C2198 C2194 1.397 . S
C2198 C2197 1.394 . S
C2199 H2171 0.982 . S
C2199 H2175 0.979 . S
C2199 H2176 0.977 . S
C2199 C2196 1.453 . S
C2200 H2172 0.979 . S
C2200 H2173 0.980 . S
C2200 H2174 0.983 . S
C2200 C2196 1.684 . S
H2201 C2219 0.948 . S
H2202 C2160 0.948 . S
H2203 C2178 0.979 . S
H2204 C2178 0.980 . S
H2205 C2178 0.983 . S
H2206 C2177 0.982 . S
H2207 C2177 0.979 . S
H2208 C2177 0.977 . S
H2209 C2179 0.948 . S
H2210 C2181 0.947 . S
H2211 C2182 0.948 . S
H2212 C2188 0.982 . S
H2213 C2188 0.979 . S
H2214 C2188 0.977 . S
H2215 C2189 0.979 . S
H2216 C2189 0.980 . S
H2217 C2189 0.983 . S
H2218 C2162 0.947 . S
C2219 C2162 1.392 . S
C2219 C2163 1.419 . S
C2219 H2201 0.948 . S
C2220 C2221 1.391 . S
C2220 C2224 1.391 . S
C2220 H2262 0.948 . S
C2221 C2220 1.391 . S
C2221 C2222 1.391 . S
C2222 C2221 1.391 . S
C2222 H2278 0.947 . S
C2222 C2279 1.392 . S
C2223 C2224 1.391 . S
C2223 C2227 1.397 . S
C2223 C2279 1.419 . S
C2224 C2220 1.391 . S
C2224 C2223 1.391 . S
C2224 C2225 1.399 . S
C2225 C2224 1.399 . S
C2225 C2228 1.396 . S
C2225 C2237 1.453 . S
C2225 C2238 1.684 . S
H2226 C2250 0.948 . S
C2227 C2223 1.397 . S
C2227 C2228 1.394 . S
C2227 C2246 1.723 . S
C2228 C2225 1.396 . S
C2228 C2227 1.394 . S
C2228 C2258 1.723 . S
H2229 C2252 0.947 . S
H2230 C2253 0.948 . S
H2231 C2259 0.982 . S
H2232 C2260 0.979 . S
H2233 C2260 0.980 . S
H2234 C2260 0.983 . S
H2235 C2259 0.979 . S
H2236 C2259 0.977 . S
C2237 C2225 1.453 . S
C2237 H2266 0.982 . S
C2237 H2267 0.979 . S
C2237 H2268 0.977 . S
C2238 C2225 1.684 . S
C2238 H2263 0.979 . S
C2238 H2264 0.980 . S
C2238 H2265 0.983 . S
C2239 C2240 1.391 . S
C2239 C2244 1.391 . S
C2239 H2269 0.948 . S
C2240 C2239 1.391 . S
C2240 C2241 1.391 . S
C2241 C2240 1.391 . S
C2241 C2242 1.392 . S
C2241 H2270 0.947 . S
C2242 C2241 1.392 . S
C2242 C2243 1.419 . S
C2242 H2271 0.948 . S
C2243 C2242 1.419 . S
C2243 C2244 1.391 . S
C2243 C2247 1.397 . S
C2244 C2239 1.391 . S
C2244 C2243 1.391 . S
C2244 C2245 1.399 . S
C2245 C2244 1.399 . S
C2245 C2246 1.396 . S
C2245 C2248 1.453 . S
C2245 C2249 1.684 . S
C2246 C2227 1.723 . S
C2246 C2245 1.396 . S
C2246 C2247 1.394 . S
C2247 C2243 1.397 . S
C2247 C2246 1.394 . S
C2247 C2257 1.723 . S
C2248 C2245 1.453 . S
C2248 H2272 0.982 . S
C2248 H2273 0.979 . S
C2248 H2274 0.977 . S
C2249 C2245 1.684 . S
C2249 H2275 0.979 . S
C2249 H2276 0.980 . S
C2249 H2277 0.983 . S
C2250 H2226 0.948 . S
C2250 C2251 1.391 . S
C2250 C2255 1.391 . S
C2251 C2250 1.391 . S
C2251 C2252 1.391 . S
C2252 H2229 0.947 . S
C2252 C2251 1.391 . S
C2252 C2253 1.392 . S
C2253 H2230 0.948 . S
C2253 C2252 1.392 . S
C2253 C2254 1.419 . S
C2254 C2253 1.419 . S
C2254 C2255 1.391 . S
C2254 C2258 1.397 . S
C2255 C2250 1.391 . S
C2255 C2254 1.391 . S
C2255 C2256 1.399 . S
C2256 C2255 1.399 . S
C2256 C2257 1.396 . S
C2256 C2259 1.453 . S
C2256 C2260 1.684 . S
C2257 C2247 1.723 . S
C2257 C2256 1.396 . S
C2257 C2258 1.394 . S
C2258 C2228 1.723 . S
C2258 C2254 1.397 . S
C2258 C2257 1.394 . S
C2259 H2231 0.982 . S
C2259 H2235 0.979 . S
C2259 H2236 0.977 . S
C2259 C2256 1.453 . S
C2260 H2232 0.979 . S
C2260 H2233 0.980 . S
C2260 H2234 0.983 . S
C2260 C2256 1.684 . S
H2261 C2279 0.948 . S
H2262 C2220 0.948 . S
H2263 C2238 0.979 . S
H2264 C2238 0.980 . S
H2265 C2238 0.983 . S
H2266 C2237 0.982 . S
H2267 C2237 0.979 . S
H2268 C2237 0.977 . S
H2269 C2239 0.948 . S
H2270 C2241 0.947 . S
H2271 C2242 0.948 . S
H2272 C2248 0.982 . S
H2273 C2248 0.979 . S
H2274 C2248 0.977 . S
H2275 C2249 0.979 . S
H2276 C2249 0.980 . S
H2277 C2249 0.983 . S
H2278 C2222 0.947 . S
C2279 C2222 1.392 . S
C2279 C2223 1.419 . S
C2279 H2261 0.948 . S
C2280 C2281 1.391 . S
C2280 C2284 1.391 . S
C2280 H2322 0.948 . S
C2281 C2280 1.391 . S
C2281 C2282 1.391 . S
C2282 C2281 1.391 . S
C2282 H2338 0.947 . S
C2282 C2339 1.392 . S
C2283 C2284 1.391 . S
C2283 C2287 1.397 . S
C2283 C2339 1.419 . S
C2284 C2280 1.391 . S
C2284 C2283 1.391 . S
C2284 C2285 1.399 . S
C2285 C2284 1.399 . S
C2285 C2288 1.396 . S
C2285 C2297 1.453 . S
C2285 C2298 1.684 . S
H2286 C2310 0.948 . S
C2287 C2283 1.397 . S
C2287 C2288 1.394 . S
C2287 C2306 1.723 . S
C2288 C2285 1.396 . S
C2288 C2287 1.394 . S
C2288 C2318 1.723 . S
H2289 C2312 0.947 . S
H2290 C2313 0.948 . S
H2291 C2319 0.982 . S
H2292 C2320 0.979 . S
H2293 C2320 0.989 . S
H2294 C2320 0.983 . S
H2295 C2319 0.979 . S
H2296 C2319 0.977 . S
C2297 C2285 1.453 . S
C2297 H2326 0.982 . S
C2297 H2327 0.979 . S
C2297 H2328 0.977 . S
C2298 C2285 1.684 . S
C2298 H2323 0.979 . S
C2298 H2324 0.980 . S
C2298 H2325 0.983 . S
C2299 C2300 1.391 . S
C2299 C2304 1.391 1_554 S
C2299 H2329 0.948 . S
C2300 C2299 1.391 . S
C2300 C2301 1.391 . S
C2301 C2300 1.391 . S
C2301 C2302 1.392 . S
C2301 H2330 0.947 . S
C2302 C2301 1.392 . S
C2302 C2303 1.419 1_554 S
C2302 H2331 0.948 . S
C2303 C2302 1.419 1_556 S
C2303 C2304 1.391 . S
C2303 C2307 1.397 . S
C2304 C2299 1.391 1_556 S
C2304 C2303 1.391 . S
C2304 C2305 1.399 . S
C2305 C2304 1.399 . S
C2305 C2306 1.396 . S
C2305 C2308 1.453 . S
C2305 C2309 1.684 . S
C2306 C2287 1.723 . S
C2306 C2305 1.396 . S
C2306 C2307 1.394 . S
C2307 C2303 1.397 . S
C2307 C2306 1.394 . S
C2307 C2317 1.723 . S
C2308 C2305 1.453 . S
C2308 H2332 0.982 . S
C2308 H2333 0.979 . S
C2308 H2334 0.977 . S
C2309 C2305 1.684 . S
C2309 H2335 0.979 . S
C2309 H2336 0.980 . S
C2309 H2337 0.983 . S
C2310 H2286 0.948 . S
C2310 C2311 1.391 . S
C2310 C2315 1.391 . S
C2311 C2310 1.391 . S
C2311 C2312 1.391 . S
C2312 H2289 0.947 . S
C2312 C2311 1.391 . S
C2312 C2313 1.392 . S
C2313 H2290 0.948 . S
C2313 C2312 1.392 . S
C2313 C2314 1.419 . S
C2314 C2313 1.419 . S
C2314 C2315 1.391 . S
C2314 C2318 1.397 . S
C2315 C2310 1.391 . S
C2315 C2314 1.391 . S
C2315 C2316 1.399 . S
C2316 C2315 1.399 . S
C2316 C2317 1.396 . S
C2316 C2319 1.453 . S
C2316 C2320 1.684 . S
C2317 C2307 1.723 . S
C2317 C2316 1.396 . S
C2317 C2318 1.394 . S
C2318 C2288 1.723 . S
C2318 C2314 1.397 . S
C2318 C2317 1.394 . S
C2319 H2291 0.982 . S
C2319 H2295 0.979 . S
C2319 H2296 0.977 . S
C2319 C2316 1.453 . S
C2320 H2292 0.979 . S
C2320 H2293 0.989 . S
C2320 H2294 0.983 . S
C2320 C2316 1.684 . S
H2321 C2339 0.948 . S
H2322 C2280 0.948 . S
H2323 C2298 0.979 . S
H2324 C2298 0.980 . S
H2325 C2298 0.983 . S
H2326 C2297 0.982 . S
H2327 C2297 0.979 . S
H2328 C2297 0.977 . S
H2329 C2299 0.948 . S
H2330 C2301 0.947 . S
H2331 C2302 0.948 . S
H2332 C2308 0.982 . S
H2333 C2308 0.979 . S
H2334 C2308 0.977 . S
H2335 C2309 0.979 . S
H2336 C2309 0.980 . S
H2337 C2309 0.983 . S
H2338 C2282 0.947 . S
C2339 C2282 1.392 . S
C2339 C2283 1.419 . S
C2339 H2321 0.948 . S
C2340 C2341 1.391 . S
C2340 C2344 1.391 . S
C2340 H2382 0.948 . S
C2341 C2340 1.391 . S
C2341 C2342 1.391 . S
C2342 C2341 1.391 . S
C2342 H2398 0.947 . S
C2342 C2399 1.392 . S
C2343 C2344 1.391 . S
C2343 C2347 1.397 . S
C2343 C2399 1.419 . S
C2344 C2340 1.391 . S
C2344 C2343 1.391 . S
C2344 C2345 1.399 . S
C2345 C2344 1.399 . S
C2345 C2348 1.396 . S
C2345 C2357 1.453 . S
C2345 C2358 1.684 . S
H2346 C2370 0.948 . S
C2347 C2343 1.397 . S
C2347 C2348 1.394 . S
C2347 C2366 1.723 1_556 S
C2348 C2345 1.396 . S
C2348 C2347 1.394 . S
C2348 C2378 1.723 1_556 S
H2349 C2372 0.947 . S
H2350 C2373 0.948 1_556 S
H2351 C2379 0.982 . S
H2352 C2380 0.979 . S
H2353 C2380 0.980 . S
H2354 C2380 0.983 . S
H2355 C2379 0.979 . S
H2356 C2379 0.977 . S
C2357 C2345 1.453 . S
C2357 H2386 0.982 . S
C2357 H2387 0.979 . S
C2357 H2388 0.977 . S
C2358 C2345 1.684 . S
C2358 H2383 0.979 . S
C2358 H2384 0.980 . S
C2358 H2385 0.983 . S
C2359 C2360 1.391 . S
C2359 C2364 1.391 . S
C2359 H2389 0.948 . S
C2360 C2359 1.391 . S
C2360 C2361 1.391 . S
C2361 C2360 1.391 . S
C2361 C2362 1.392 . S
C2361 H2390 0.947 . S
C2362 C2361 1.392 . S
C2362 C2363 1.419 . S
C2362 H2391 0.948 . S
C2363 C2362 1.419 . S
C2363 C2364 1.391 . S
C2363 C2367 1.397 . S
C2364 C2359 1.391 . S
C2364 C2363 1.391 . S
C2364 C2365 1.399 . S
C2365 C2364 1.399 . S
C2365 C2366 1.396 . S
C2365 C2368 1.504 . S
C2365 C2369 1.684 . S
C2366 C2347 1.723 1_554 S
C2366 C2365 1.396 . S
C2366 C2367 1.394 . S
C2367 C2363 1.397 . S
C2367 C2366 1.394 . S
C2367 C2377 1.723 . S
C2368 C2365 1.504 . S
C2368 H2392 0.947 1_554 S
C2368 H2393 1.022 . S
C2368 H2394 0.926 1_554 S
C2369 C2365 1.684 . S
C2369 H2395 0.979 . S
C2369 H2396 0.980 . S
C2369 H2397 0.983 . S
C2370 H2346 0.948 . S
C2370 C2371 1.391 . S
C2370 C2375 1.391 . S
C2371 C2370 1.391 . S
C2371 C2372 1.391 . S
C2372 H2349 0.947 . S
C2372 C2371 1.391 . S
C2372 C2373 1.392 . S
C2373 H2350 0.948 1_554 S
C2373 C2372 1.392 . S
C2373 C2374 1.419 . S
C2374 C2373 1.419 . S
C2374 C2375 1.391 . S
C2374 C2378 1.397 . S
C2375 C2370 1.391 . S
C2375 C2374 1.391 . S
C2375 C2376 1.399 . S
C2376 C2375 1.399 . S
C2376 C2377 1.396 . S
C2376 C2379 1.453 . S
C2376 C2380 1.684 . S
C2377 C2367 1.723 . S
C2377 C2376 1.396 . S
C2377 C2378 1.394 . S
C2378 C2348 1.723 1_554 S
C2378 C2374 1.397 . S
C2378 C2377 1.394 . S
C2379 H2351 0.982 . S
C2379 H2355 0.979 . S
C2379 H2356 0.977 . S
C2379 C2376 1.453 . S
C2380 H2352 0.979 . S
C2380 H2353 0.980 . S
C2380 H2354 0.983 . S
C2380 C2376 1.684 . S
H2381 C2399 0.948 . S
H2382 C2340 0.948 . S
H2383 C2358 0.979 . S
H2384 C2358 0.980 . S
H2385 C2358 0.983 . S
H2386 C2357 0.982 . S
H2387 C2357 0.979 . S
H2388 C2357 0.977 . S
H2389 C2359 0.948 . S
H2390 C2361 0.947 . S
H2391 C2362 0.948 . S
H2392 C2368 0.947 1_556 S
H2393 C2368 1.022 . S
H2394 C2368 0.926 1_556 S
H2395 C2369 0.979 . S
H2396 C2369 0.980 . S
H2397 C2369 0.983 . S
H2398 C2342 0.947 . S
C2399 C2342 1.392 . S
C2399 C2343 1.419 . S
C2399 H2381 0.948 . S
C2400 C2401 1.391 . S
C2400 C2404 1.391 . S
C2400 H2442 0.948 . S
C2401 C2400 1.391 . S
C2401 C2402 1.391 . S
C2402 C2401 1.391 . S
C2402 H2458 0.947 . S
C2402 C2459 1.392 . S
C2403 C2404 1.391 . S
C2403 C2407 1.397 . S
C2403 C2459 1.419 . S
C2404 C2400 1.391 . S
C2404 C2403 1.391 . S
C2404 C2405 1.399 . S
C2405 C2404 1.399 . S
C2405 C2408 1.396 . S
C2405 C2417 1.453 . S
C2405 C2418 1.684 . S
H2406 C2430 0.948 . S
C2407 C2403 1.397 . S
C2407 C2408 1.394 . S
C2407 C2426 1.723 . S
C2408 C2405 1.396 . S
C2408 C2407 1.394 . S
C2408 C2438 1.723 . S
H2409 C2432 0.947 . S
H2410 C2433 0.948 . S
H2411 C2439 0.982 . S
H2412 C2440 0.979 . S
H2413 C2440 0.980 . S
H2414 C2440 0.983 . S
H2415 C2439 0.979 . S
H2416 C2439 0.977 . S
C2417 C2405 1.453 . S
C2417 H2446 0.982 . S
C2417 H2447 0.979 . S
C2417 H2448 0.977 . S
C2418 C2405 1.684 . S
C2418 H2443 0.979 . S
C2418 H2444 0.980 . S
C2418 H2445 0.983 . S
C2419 C2420 1.391 . S
C2419 C2424 1.391 . S
C2419 H2449 0.948 . S
C2420 C2419 1.391 . S
C2420 C2421 1.391 . S
C2421 C2420 1.391 . S
C2421 C2422 1.392 . S
C2421 H2450 0.947 . S
C2422 C2421 1.392 . S
C2422 C2423 1.419 . S
C2422 H2451 0.948 . S
C2423 C2422 1.419 . S
C2423 C2424 1.391 . S
C2423 C2427 1.397 . S
C2424 C2419 1.391 . S
C2424 C2423 1.391 . S
C2424 C2425 1.399 . S
C2425 C2424 1.399 . S
C2425 C2426 1.396 . S
C2425 C2428 1.453 . S
C2425 C2429 1.684 . S
C2426 C2407 1.723 . S
C2426 C2425 1.396 . S
C2426 C2427 1.394 . S
C2427 C2423 1.397 . S
C2427 C2426 1.394 . S
C2427 C2437 1.723 . S
C2428 C2425 1.453 . S
C2428 H2452 0.982 . S
C2428 H2453 0.979 . S
C2428 H2454 0.977 . S
C2429 C2425 1.684 . S
C2429 H2455 0.979 . S
C2429 H2456 0.980 . S
C2429 H2457 0.983 . S
C2430 H2406 0.948 . S
C2430 C2431 1.391 . S
C2430 C2435 1.391 . S
C2431 C2430 1.391 . S
C2431 C2432 1.391 . S
C2432 H2409 0.947 . S
C2432 C2431 1.391 . S
C2432 C2433 1.392 . S
C2433 H2410 0.948 . S
C2433 C2432 1.392 . S
C2433 C2434 1.419 . S
C2434 C2433 1.419 . S
C2434 C2435 1.391 . S
C2434 C2438 1.397 . S
C2435 C2430 1.391 . S
C2435 C2434 1.391 . S
C2435 C2436 1.399 . S
C2436 C2435 1.399 . S
C2436 C2437 1.396 . S
C2436 C2439 1.453 . S
C2436 C2440 1.684 . S
C2437 C2427 1.723 . S
C2437 C2436 1.396 . S
C2437 C2438 1.394 . S
C2438 C2408 1.723 . S
C2438 C2434 1.397 . S
C2438 C2437 1.394 . S
C2439 H2411 0.982 . S
C2439 H2415 0.979 . S
C2439 H2416 0.977 . S
C2439 C2436 1.453 . S
C2440 H2412 0.979 . S
C2440 H2413 0.980 . S
C2440 H2414 0.983 . S
C2440 C2436 1.684 . S
H2441 C2459 0.948 . S
H2442 C2400 0.948 . S
H2443 C2418 0.979 . S
H2444 C2418 0.980 . S
H2445 C2418 0.983 . S
H2446 C2417 0.982 . S
H2447 C2417 0.979 . S
H2448 C2417 0.977 . S
H2449 C2419 0.948 . S
H2450 C2421 0.947 . S
H2451 C2422 0.948 . S
H2452 C2428 0.982 . S
H2453 C2428 0.979 . S
H2454 C2428 0.977 . S
H2455 C2429 0.979 . S
H2456 C2429 0.980 . S
H2457 C2429 0.983 . S
H2458 C2402 0.947 . S
C2459 C2402 1.392 . S
C2459 C2403 1.419 . S
C2459 H2441 0.948 . S
C2460 C2461 1.391 . S
C2460 C2464 1.391 . S
C2460 H2502 0.948 . S
C2461 C2460 1.391 . S
C2461 C2462 1.391 . S
C2462 C2461 1.391 . S
C2462 H2518 0.947 . S
C2462 C2519 1.392 . S
C2463 C2464 1.391 . S
C2463 C2467 1.397 . S
C2463 C2519 1.419 . S
C2464 C2460 1.391 . S
C2464 C2463 1.391 . S
C2464 C2465 1.399 . S
C2465 C2464 1.399 . S
C2465 C2468 1.396 . S
C2465 C2477 1.453 . S
C2465 C2478 1.684 . S
H2466 C2490 0.948 . S
C2467 C2463 1.397 . S
C2467 C2468 1.394 . S
C2467 C2486 1.723 . S
C2468 C2465 1.396 . S
C2468 C2467 1.394 . S
C2468 C2498 1.723 . S
H2469 C2492 0.947 . S
H2470 C2493 0.948 . S
H2471 C2499 0.982 . S
H2472 C2500 0.979 . S
H2473 C2500 0.980 . S
H2474 C2500 0.983 . S
H2475 C2499 0.979 . S
H2476 C2499 0.977 . S
C2477 C2465 1.453 . S
C2477 H2506 0.982 . S
C2477 H2507 0.979 . S
C2477 H2508 0.977 . S
C2478 C2465 1.684 . S
C2478 H2503 0.979 . S
C2478 H2504 0.980 . S
C2478 H2505 0.983 . S
C2479 C2480 1.391 . S
C2479 C2484 1.391 . S
C2479 H2509 0.948 . S
C2480 C2479 1.391 . S
C2480 C2481 1.391 . S
C2481 C2480 1.391 . S
C2481 C2482 1.392 . S
C2481 H2510 0.947 . S
C2482 C2481 1.392 . S
C2482 C2483 1.419 . S
C2482 H2511 0.948 . S
C2483 C2482 1.419 . S
C2483 C2484 1.391 . S
C2483 C2487 1.397 . S
C2484 C2479 1.391 . S
C2484 C2483 1.391 . S
C2484 C2485 1.399 . S
C2485 C2484 1.399 . S
C2485 C2486 1.396 . S
C2485 C2488 1.453 . S
C2485 C2489 1.684 . S
C2486 C2467 1.723 . S
C2486 C2485 1.396 . S
C2486 C2487 1.394 . S
C2487 C2483 1.397 . S
C2487 C2486 1.394 . S
C2487 C2497 1.723 . S
C2488 C2485 1.453 . S
C2488 H2512 0.982 . S
C2488 H2513 0.979 . S
C2488 H2514 0.977 . S
C2489 C2485 1.684 . S
C2489 H2515 0.979 . S
C2489 H2516 0.980 . S
C2489 H2517 0.983 . S
C2490 H2466 0.948 . S
C2490 C2491 1.391 . S
C2490 C2495 1.391 . S
C2491 C2490 1.391 . S
C2491 C2492 1.391 . S
C2492 H2469 0.947 . S
C2492 C2491 1.391 . S
C2492 C2493 1.392 . S
C2493 H2470 0.948 . S
C2493 C2492 1.392 . S
C2493 C2494 1.419 . S
C2494 C2493 1.419 . S
C2494 C2495 1.391 . S
C2494 C2498 1.397 . S
C2495 C2490 1.391 . S
C2495 C2494 1.391 . S
C2495 C2496 1.399 . S
C2496 C2495 1.399 . S
C2496 C2497 1.396 . S
C2496 C2499 1.453 . S
C2496 C2500 1.684 . S
C2497 C2487 1.723 . S
C2497 C2496 1.396 . S
C2497 C2498 1.394 . S
C2498 C2468 1.723 . S
C2498 C2494 1.397 . S
C2498 C2497 1.394 . S
C2499 H2471 0.982 . S
C2499 H2475 0.979 . S
C2499 H2476 0.977 . S
C2499 C2496 1.453 . S
C2500 H2472 0.979 . S
C2500 H2473 0.980 . S
C2500 H2474 0.983 . S
C2500 C2496 1.684 . S
H2501 C2519 0.948 . S
H2502 C2460 0.948 . S
H2503 C2478 0.979 . S
H2504 C2478 0.980 . S
H2505 C2478 0.983 . S
H2506 C2477 0.982 . S
H2507 C2477 0.979 . S
H2508 C2477 0.977 . S
H2509 C2479 0.948 . S
H2510 C2481 0.947 . S
H2511 C2482 0.948 . S
H2512 C2488 0.982 . S
H2513 C2488 0.979 . S
H2514 C2488 0.977 . S
H2515 C2489 0.979 . S
H2516 C2489 0.980 . S
H2517 C2489 0.983 . S
H2518 C2462 0.947 . S
C2519 C2462 1.392 . S
C2519 C2463 1.419 . S
C2519 H2501 0.948 . S
C2520 C2521 1.391 . S
C2520 C2524 1.391 . S
C2520 H2562 0.948 . S
C2521 C2520 1.391 . S
C2521 C2522 1.391 . S
C2522 C2521 1.391 . S
C2522 H2578 0.947 . S
C2522 C2579 1.392 . S
C2523 C2524 1.391 . S
C2523 C2527 1.397 . S
C2523 C2579 1.419 . S
C2524 C2520 1.391 . S
C2524 C2523 1.391 . S
C2524 C2525 1.399 . S
C2525 C2524 1.399 . S
C2525 C2528 1.396 . S
C2525 C2537 1.453 . S
C2525 C2538 1.684 . S
H2526 C2550 0.948 . S
C2527 C2523 1.397 . S
C2527 C2528 1.394 . S
C2527 C2546 1.723 . S
C2528 C2525 1.396 . S
C2528 C2527 1.394 . S
C2528 C2558 1.723 . S
H2529 C2552 0.947 . S
H2530 C2553 0.948 . S
H2531 C2559 0.982 . S
H2532 C2560 0.979 . S
H2533 C2560 0.980 . S
H2534 C2560 0.983 . S
H2535 C2559 0.979 . S
H2536 C2559 0.977 . S
C2537 C2525 1.453 . S
C2537 H2566 0.982 . S
C2537 H2567 0.979 . S
C2537 H2568 0.977 . S
C2538 C2525 1.684 . S
C2538 H2563 0.979 . S
C2538 H2564 0.980 . S
C2538 H2565 0.983 . S
C2539 C2540 1.391 . S
C2539 C2544 1.391 . S
C2539 H2569 0.948 . S
C2540 C2539 1.391 . S
C2540 C2541 1.391 . S
C2541 C2540 1.391 . S
C2541 C2542 1.392 . S
C2541 H2570 0.947 . S
C2542 C2541 1.392 . S
C2542 C2543 1.419 . S
C2542 H2571 0.948 . S
C2543 C2542 1.419 . S
C2543 C2544 1.391 . S
C2543 C2547 1.397 . S
C2544 C2539 1.391 . S
C2544 C2543 1.391 . S
C2544 C2545 1.399 . S
C2545 C2544 1.399 . S
C2545 C2546 1.396 . S
C2545 C2548 1.453 . S
C2545 C2549 1.684 . S
C2546 C2527 1.723 . S
C2546 C2545 1.396 . S
C2546 C2547 1.394 . S
C2547 C2543 1.397 . S
C2547 C2546 1.394 . S
C2547 C2557 1.723 . S
C2548 C2545 1.453 . S
C2548 H2572 0.982 . S
C2548 H2573 0.979 . S
C2548 H2574 0.977 . S
C2549 C2545 1.684 . S
C2549 H2575 0.979 . S
C2549 H2576 0.980 . S
C2549 H2577 0.983 . S
C2550 H2526 0.948 . S
C2550 C2551 1.391 . S
C2550 C2555 1.391 . S
C2551 C2550 1.391 . S
C2551 C2552 1.391 . S
C2552 H2529 0.947 . S
C2552 C2551 1.391 . S
C2552 C2553 1.392 . S
C2553 H2530 0.948 . S
C2553 C2552 1.392 . S
C2553 C2554 1.419 . S
C2554 C2553 1.419 . S
C2554 C2555 1.391 . S
C2554 C2558 1.397 . S
C2555 C2550 1.391 . S
C2555 C2554 1.391 . S
C2555 C2556 1.399 . S
C2556 C2555 1.399 . S
C2556 C2557 1.396 . S
C2556 C2559 1.453 . S
C2556 C2560 1.684 . S
C2557 C2547 1.723 . S
C2557 C2556 1.396 . S
C2557 C2558 1.394 . S
C2558 C2528 1.723 . S
C2558 C2554 1.397 . S
C2558 C2557 1.394 . S
C2559 H2531 0.982 . S
C2559 H2535 0.979 . S
C2559 H2536 0.977 . S
C2559 C2556 1.453 . S
C2560 H2532 0.979 . S
C2560 H2533 0.980 . S
C2560 H2534 0.983 . S
C2560 C2556 1.684 . S
H2561 C2579 0.948 . S
H2562 C2520 0.948 . S
H2563 C2538 0.979 . S
H2564 C2538 0.980 . S
H2565 C2538 0.983 . S
H2566 C2537 0.982 . S
H2567 C2537 0.979 . S
H2568 C2537 0.977 . S
H2569 C2539 0.948 . S
H2570 C2541 0.947 . S
H2571 C2542 0.948 . S
H2572 C2548 0.982 . S
H2573 C2548 0.979 . S
H2574 C2548 0.977 . S
H2575 C2549 0.979 . S
H2576 C2549 0.980 . S
H2577 C2549 0.983 . S
H2578 C2522 0.947 . S
C2579 C2522 1.392 . S
C2579 C2523 1.419 . S
C2579 H2561 0.948 . S
C2580 C2581 1.391 . S
C2580 C2584 1.391 . S
C2580 H2622 0.948 . S
C2581 C2580 1.391 . S
C2581 C2582 1.391 . S
C2582 C2581 1.391 . S
C2582 H2638 0.947 . S
C2582 C2639 1.392 . S
C2583 C2584 1.391 . S
C2583 C2587 1.397 . S
C2583 C2639 1.419 . S
C2584 C2580 1.391 . S
C2584 C2583 1.391 . S
C2584 C2585 1.399 . S
C2585 C2584 1.399 . S
C2585 C2588 1.396 . S
C2585 C2597 1.504 . S
C2585 C2598 1.683 1_545 S
H2586 C2610 0.948 . S
C2587 C2583 1.397 . S
C2587 C2588 1.394 . S
C2587 C2606 1.723 . S
C2588 C2585 1.396 . S
C2588 C2587 1.394 . S
C2588 C2618 1.723 1_545 S
H2589 C2612 0.947 . S
H2590 C2613 0.948 . S
H2591 C2619 0.982 . S
H2592 C2620 0.979 . S
H2593 C2620 0.980 . S
H2594 C2620 0.983 . S
H2595 C2619 0.979 . S
H2596 C2619 0.977 . S
C2597 C2585 1.504 . S
C2597 H2626 0.986 . S
C2597 H2627 0.990 . S
C2597 H2628 0.916 1_545 S
C2598 C2585 1.683 1_565 S
C2598 H2623 0.977 1_565 S
C2598 H2624 0.982 . S
C2598 H2625 0.983 1_565 S
C2599 C2600 1.391 . S
C2599 C2604 1.391 . S
C2599 H2629 0.948 . S
C2600 C2599 1.391 . S
C2600 C2601 1.391 1_545 S
C2601 C2600 1.391 1_565 S
C2601 C2602 1.392 . S
C2601 H2630 0.947 . S
C2602 C2601 1.392 . S
C2602 C2603 1.419 1_565 S
C2602 H2631 0.948 . S
C2603 C2602 1.419 1_545 S
C2603 C2604 1.391 . S
C2603 C2607 1.400 . S
C2604 C2599 1.391 . S
C2604 C2603 1.391 . S
C2604 C2605 1.399 . S
C2605 C2604 1.399 . S
C2605 C2606 1.396 . S
C2605 C2608 1.453 . S
C2605 C2609 1.684 . S
C2606 C2587 1.723 . S
C2606 C2605 1.396 . S
C2606 C2607 1.404 . S
C2607 C2603 1.400 . S
C2607 C2606 1.404 . S
C2607 C2617 1.711 1_545 S
C2608 C2605 1.453 . S
C2608 H2632 0.982 . S
C2608 H2633 0.979 . S
C2608 H2634 0.977 . S
C2609 C2605 1.684 . S
C2609 H2635 0.979 . S
C2609 H2636 0.980 . S
C2609 H2637 0.983 . S
C2610 H2586 0.948 . S
C2610 C2611 1.391 . S
C2610 C2615 1.391 . S
C2611 C2610 1.391 . S
C2611 C2612 1.391 . S
C2612 H2589 0.947 . S
C2612 C2611 1.391 . S
C2612 C2613 1.392 . S
C2613 H2590 0.948 . S
C2613 C2612 1.392 . S
C2613 C2614 1.419 . S
C2614 C2613 1.419 . S
C2614 C2615 1.391 . S
C2614 C2618 1.397 . S
C2615 C2610 1.391 . S
C2615 C2614 1.391 . S
C2615 C2616 1.399 . S
C2616 C2615 1.399 . S
C2616 C2617 1.396 . S
C2616 C2619 1.453 . S
C2616 C2620 1.684 . S
C2617 C2607 1.711 1_565 S
C2617 C2616 1.396 . S
C2617 C2618 1.394 . S
C2618 C2588 1.723 1_565 S
C2618 C2614 1.397 . S
C2618 C2617 1.394 . S
C2619 H2591 0.982 . S
C2619 H2595 0.979 . S
C2619 H2596 0.977 . S
C2619 C2616 1.453 . S
C2620 H2592 0.979 . S
C2620 H2593 0.980 . S
C2620 H2594 0.983 . S
C2620 C2616 1.684 . S
H2621 C2639 0.948 . S
H2622 C2580 0.948 . S
H2623 C2598 0.977 1_545 S
H2624 C2598 0.982 . S
H2625 C2598 0.983 1_545 S
H2626 C2597 0.986 . S
H2627 C2597 0.990 . S
H2628 C2597 0.916 1_565 S
H2629 C2599 0.948 . S
H2630 C2601 0.947 . S
H2631 C2602 0.948 . S
H2632 C2608 0.982 . S
H2633 C2608 0.979 . S
H2634 C2608 0.977 . S
H2635 C2609 0.979 . S
H2636 C2609 0.980 . S
H2637 C2609 0.983 . S
H2638 C2582 0.947 . S
C2639 C2582 1.392 . S
C2639 C2583 1.419 . S
C2639 H2621 0.948 . S
C2640 C2641 1.391 . S
C2640 C2644 1.391 . S
C2640 H2682 0.948 . S
C2641 C2640 1.391 . S
C2641 C2642 1.391 . S
C2642 C2641 1.391 . S
C2642 H2698 0.947 . S
C2642 C2699 1.392 . S
C2643 C2644 1.391 . S
C2643 C2647 1.397 . S
C2643 C2699 1.419 . S
C2644 C2640 1.391 . S
C2644 C2643 1.391 . S
C2644 C2645 1.399 . S
C2645 C2644 1.399 . S
C2645 C2648 1.396 . S
C2645 C2657 1.453 . S
C2645 C2658 1.684 . S
H2646 C2670 0.948 . S
C2647 C2643 1.397 . S
C2647 C2648 1.394 . S
C2647 C2666 1.723 . S
C2648 C2645 1.396 . S
C2648 C2647 1.394 . S
C2648 C2678 1.723 . S
H2649 C2672 0.947 . S
H2650 C2673 0.948 . S
H2651 C2679 0.982 . S
H2652 C2680 0.979 . S
H2653 C2680 0.980 . S
H2654 C2680 0.983 . S
H2655 C2679 0.979 . S
H2656 C2679 0.977 . S
C2657 C2645 1.453 . S
C2657 H2686 0.982 . S
C2657 H2687 0.979 . S
C2657 H2688 0.977 . S
C2658 C2645 1.684 . S
C2658 H2683 0.979 . S
C2658 H2684 0.980 . S
C2658 H2685 0.983 . S
C2659 C2660 1.391 . S
C2659 C2664 1.391 . S
C2659 H2689 0.948 . S
C2660 C2659 1.391 . S
C2660 C2661 1.391 . S
C2661 C2660 1.391 . S
C2661 C2662 1.392 . S
C2661 H2690 0.947 . S
C2662 C2661 1.392 . S
C2662 C2663 1.419 . S
C2662 H2691 0.948 . S
C2663 C2662 1.419 . S
C2663 C2664 1.391 . S
C2663 C2667 1.397 . S
C2664 C2659 1.391 . S
C2664 C2663 1.391 . S
C2664 C2665 1.399 . S
C2665 C2664 1.399 . S
C2665 C2666 1.396 . S
C2665 C2668 1.453 . S
C2665 C2669 1.684 . S
C2666 C2647 1.723 . S
C2666 C2665 1.396 . S
C2666 C2667 1.394 . S
C2667 C2663 1.397 . S
C2667 C2666 1.394 . S
C2667 C2677 1.723 . S
C2668 C2665 1.453 . S
C2668 H2692 0.982 . S
C2668 H2693 0.979 . S
C2668 H2694 0.977 . S
C2669 C2665 1.684 . S
C2669 H2695 0.979 . S
C2669 H2696 0.980 . S
C2669 H2697 0.983 . S
C2670 H2646 0.948 . S
C2670 C2671 1.391 . S
C2670 C2675 1.391 . S
C2671 C2670 1.391 . S
C2671 C2672 1.391 . S
C2672 H2649 0.947 . S
C2672 C2671 1.391 . S
C2672 C2673 1.392 . S
C2673 H2650 0.948 . S
C2673 C2672 1.392 . S
C2673 C2674 1.419 . S
C2674 C2673 1.419 . S
C2674 C2675 1.391 . S
C2674 C2678 1.397 . S
C2675 C2670 1.391 . S
C2675 C2674 1.391 . S
C2675 C2676 1.399 . S
C2676 C2675 1.399 . S
C2676 C2677 1.396 . S
C2676 C2679 1.453 . S
C2676 C2680 1.684 . S
C2677 C2667 1.723 . S
C2677 C2676 1.396 . S
C2677 C2678 1.394 . S
C2678 C2648 1.723 . S
C2678 C2674 1.397 . S
C2678 C2677 1.394 . S
C2679 H2651 0.982 . S
C2679 H2655 0.979 . S
C2679 H2656 0.977 . S
C2679 C2676 1.453 . S
C2680 H2652 0.979 . S
C2680 H2653 0.980 . S
C2680 H2654 0.983 . S
C2680 C2676 1.684 . S
H2681 C2699 0.948 . S
H2682 C2640 0.948 . S
H2683 C2658 0.979 . S
H2684 C2658 0.980 . S
H2685 C2658 0.983 . S
H2686 C2657 0.982 . S
H2687 C2657 0.979 . S
H2688 C2657 0.977 . S
H2689 C2659 0.948 . S
H2690 C2661 0.947 . S
H2691 C2662 0.948 . S
H2692 C2668 0.982 . S
H2693 C2668 0.979 . S
H2694 C2668 0.977 . S
H2695 C2669 0.979 . S
H2696 C2669 0.980 . S
H2697 C2669 0.983 . S
H2698 C2642 0.947 . S
C2699 C2642 1.392 . S
C2699 C2643 1.419 . S
C2699 H2681 0.948 . S
C2700 C2701 1.391 . S
C2700 C2704 1.391 . S
C2700 H2742 0.948 . S
C2701 C2700 1.391 . S
C2701 C2702 1.391 . S
C2702 C2701 1.391 . S
C2702 H2758 0.947 . S
C2702 C2759 1.392 . S
C2703 C2704 1.391 . S
C2703 C2707 1.397 . S
C2703 C2759 1.419 . S
C2704 C2700 1.391 . S
C2704 C2703 1.391 . S
C2704 C2705 1.399 . S
C2705 C2704 1.399 . S
C2705 C2708 1.396 . S
C2705 C2717 1.483 . S
C2705 C2718 1.674 1_565 S
H2706 C2730 0.948 . S
C2707 C2703 1.397 . S
C2707 C2708 1.394 . S
C2707 C2726 1.723 . S
C2708 C2705 1.396 . S
C2708 C2707 1.394 . S
C2708 C2738 1.723 1_565 S
H2709 C2732 0.947 . S
H2710 C2733 0.948 . S
H2711 C2739 0.982 . S
H2712 C2740 0.979 . S
H2713 C2740 0.980 . S
H2714 C2740 0.983 . S
H2715 C2739 0.979 . S
H2716 C2739 0.977 . S
C2717 C2705 1.483 . S
C2717 H2746 0.984 . S
C2717 H2747 0.985 . S
C2717 H2748 0.942 1_565 S
C2718 C2705 1.674 1_545 S
C2718 H2743 0.962 1_545 S
C2718 H2744 1.011 . S
C2718 H2745 0.980 1_545 S
C2719 C2720 1.391 . S
C2719 C2724 1.391 . S
C2719 H2749 0.948 . S
C2720 C2719 1.391 . S
C2720 C2721 1.391 1_565 S
C2721 C2720 1.391 1_545 S
C2721 C2722 1.392 . S
C2721 H2750 0.947 . S
C2722 C2721 1.392 . S
C2722 C2723 1.419 1_545 S
C2722 H2751 0.948 . S
C2723 C2722 1.419 1_565 S
C2723 C2724 1.391 . S
C2723 C2727 1.403 . S
C2724 C2719 1.391 . S
C2724 C2723 1.391 . S
C2724 C2725 1.399 . S
C2725 C2724 1.399 . S
C2725 C2726 1.396 . S
C2725 C2728 1.453 . S
C2725 C2729 1.684 . S
C2726 C2707 1.723 . S
C2726 C2725 1.396 . S
C2726 C2727 1.413 . S
C2727 C2723 1.403 . S
C2727 C2726 1.413 . S
C2727 C2737 1.701 1_565 S
C2728 C2725 1.453 . S
C2728 H2752 0.982 . S
C2728 H2753 0.979 . S
C2728 H2754 0.977 . S
C2729 C2725 1.684 . S
C2729 H2755 0.979 . S
C2729 H2756 0.980 . S
C2729 H2757 0.983 . S
C2730 H2706 0.948 . S
C2730 C2731 1.391 . S
C2730 C2735 1.391 . S
C2731 C2730 1.391 . S
C2731 C2732 1.391 . S
C2732 H2709 0.947 . S
C2732 C2731 1.391 . S
C2732 C2733 1.392 . S
C2733 H2710 0.948 . S
C2733 C2732 1.392 . S
C2733 C2734 1.419 . S
C2734 C2733 1.419 . S
C2734 C2735 1.391 . S
C2734 C2738 1.397 . S
C2735 C2730 1.391 . S
C2735 C2734 1.391 . S
C2735 C2736 1.399 . S
C2736 C2735 1.399 . S
C2736 C2737 1.396 . S
C2736 C2739 1.453 . S
C2736 C2740 1.684 . S
C2737 C2727 1.701 1_545 S
C2737 C2736 1.396 . S
C2737 C2738 1.394 . S
C2738 C2708 1.723 1_545 S
C2738 C2734 1.397 . S
C2738 C2737 1.394 . S
C2739 H2711 0.982 . S
C2739 H2715 0.979 . S
C2739 H2716 0.977 . S
C2739 C2736 1.453 . S
C2740 H2712 0.979 . S
C2740 H2713 0.980 . S
C2740 H2714 0.983 . S
C2740 C2736 1.684 . S
H2741 C2759 0.948 . S
H2742 C2700 0.948 . S
H2743 C2718 0.962 1_565 S
H2744 C2718 1.011 . S
H2745 C2718 0.980 1_565 S
H2746 C2717 0.984 . S
H2747 C2717 0.985 . S
H2748 C2717 0.942 1_545 S
H2749 C2719 0.948 . S
H2750 C2721 0.947 . S
H2751 C2722 0.948 . S
H2752 C2728 0.982 . S
H2753 C2728 0.979 . S
H2754 C2728 0.977 . S
H2755 C2729 0.979 . S
H2756 C2729 0.980 . S
H2757 C2729 0.983 . S
H2758 C2702 0.947 . S
C2759 C2702 1.392 . S
C2759 C2703 1.419 . S
C2759 H2741 0.948 . S
C2760 C2761 1.391 . S
C2760 C2764 1.391 . S
C2760 H2802 0.948 . S
C2761 C2760 1.391 . S
C2761 C2762 1.391 . S
C2762 C2761 1.391 . S
C2762 H2818 0.947 . S
C2762 C2819 1.392 . S
C2763 C2764 1.391 . S
C2763 C2767 1.397 . S
C2763 C2819 1.419 . S
C2764 C2760 1.391 . S
C2764 C2763 1.391 . S
C2764 C2765 1.399 . S
C2765 C2764 1.399 . S
C2765 C2768 1.396 . S
C2765 C2777 1.453 . S
C2765 C2778 1.684 . S
H2766 C2790 0.948 . S
C2767 C2763 1.397 . S
C2767 C2768 1.394 . S
C2767 C2786 1.723 . S
C2768 C2765 1.396 . S
C2768 C2767 1.394 . S
C2768 C2798 1.723 . S
H2769 C2792 0.947 . S
H2770 C2793 0.948 . S
H2771 C2799 0.982 . S
H2772 C2800 0.979 . S
H2773 C2800 0.980 . S
H2774 C2800 0.983 . S
H2775 C2799 0.979 . S
H2776 C2799 0.977 . S
C2777 C2765 1.453 . S
C2777 H2806 0.982 . S
C2777 H2807 0.979 . S
C2777 H2808 0.977 . S
C2778 C2765 1.684 . S
C2778 H2803 0.979 . S
C2778 H2804 0.980 . S
C2778 H2805 0.983 . S
C2779 C2780 1.391 . S
C2779 C2784 1.391 . S
C2779 H2809 0.948 . S
C2780 C2779 1.391 . S
C2780 C2781 1.391 . S
C2781 C2780 1.391 . S
C2781 C2782 1.392 . S
C2781 H2810 0.947 . S
C2782 C2781 1.392 . S
C2782 C2783 1.419 . S
C2782 H2811 0.948 . S
C2783 C2782 1.419 . S
C2783 C2784 1.391 . S
C2783 C2787 1.397 . S
C2784 C2779 1.391 . S
C2784 C2783 1.391 . S
C2784 C2785 1.399 . S
C2785 C2784 1.399 . S
C2785 C2786 1.396 . S
C2785 C2788 1.453 . S
C2785 C2789 1.684 . S
C2786 C2767 1.723 . S
C2786 C2785 1.396 . S
C2786 C2787 1.394 . S
C2787 C2783 1.397 . S
C2787 C2786 1.394 . S
C2787 C2797 1.723 . S
C2788 C2785 1.453 . S
C2788 H2812 0.982 . S
C2788 H2813 0.979 . S
C2788 H2814 0.977 . S
C2789 C2785 1.684 . S
C2789 H2815 0.979 . S
C2789 H2816 0.980 . S
C2789 H2817 0.983 . S
C2790 H2766 0.948 . S
C2790 C2791 1.391 . S
C2790 C2795 1.391 . S
C2791 C2790 1.391 . S
C2791 C2792 1.391 . S
C2792 H2769 0.947 . S
C2792 C2791 1.391 . S
C2792 C2793 1.392 . S
C2793 H2770 0.948 . S
C2793 C2792 1.392 . S
C2793 C2794 1.419 . S
C2794 C2793 1.419 . S
C2794 C2795 1.391 . S
C2794 C2798 1.397 . S
C2795 C2790 1.391 . S
C2795 C2794 1.391 . S
C2795 C2796 1.399 . S
C2796 C2795 1.399 . S
C2796 C2797 1.396 . S
C2796 C2799 1.453 . S
C2796 C2800 1.684 . S
C2797 C2787 1.723 . S
C2797 C2796 1.396 . S
C2797 C2798 1.394 . S
C2798 C2768 1.723 . S
C2798 C2794 1.397 . S
C2798 C2797 1.394 . S
C2799 H2771 0.982 . S
C2799 H2775 0.979 . S
C2799 H2776 0.977 . S
C2799 C2796 1.453 . S
C2800 H2772 0.979 . S
C2800 H2773 0.980 . S
C2800 H2774 0.983 . S
C2800 C2796 1.684 . S
H2801 C2819 0.948 . S
H2802 C2760 0.948 . S
H2803 C2778 0.979 . S
H2804 C2778 0.980 . S
H2805 C2778 0.983 . S
H2806 C2777 0.982 . S
H2807 C2777 0.979 . S
H2808 C2777 0.977 . S
H2809 C2779 0.948 . S
H2810 C2781 0.947 . S
H2811 C2782 0.948 . S
H2812 C2788 0.982 . S
H2813 C2788 0.979 . S
H2814 C2788 0.977 . S
H2815 C2789 0.979 . S
H2816 C2789 0.980 . S
H2817 C2789 0.983 . S
H2818 C2762 0.947 . S
C2819 C2762 1.392 . S
C2819 C2763 1.419 . S
C2819 H2801 0.948 . S
C2820 C2821 1.391 . S
C2820 C2824 1.391 . S
C2820 H2862 0.948 . S
C2821 C2820 1.391 . S
C2821 C2822 1.391 . S
C2822 C2821 1.391 . S
C2822 H2878 0.947 . S
C2822 C2879 1.392 . S
C2823 C2824 1.391 . S
C2823 C2827 1.397 . S
C2823 C2879 1.419 . S
C2824 C2820 1.391 . S
C2824 C2823 1.391 . S
C2824 C2825 1.399 . S
C2825 C2824 1.399 . S
C2825 C2828 1.396 . S
C2825 C2837 1.453 . S
C2825 C2838 1.684 . S
H2826 C2850 0.948 . S
C2827 C2823 1.397 . S
C2827 C2828 1.394 . S
C2827 C2846 1.723 . S
C2828 C2825 1.396 . S
C2828 C2827 1.394 . S
C2828 C2858 1.723 . S
H2829 C2852 0.947 . S
H2830 C2853 0.948 . S
H2831 C2859 0.982 . S
H2832 C2860 0.979 . S
H2833 C2860 0.980 . S
H2834 C2860 0.983 . S
H2835 C2859 0.979 . S
H2836 C2859 0.977 . S
C2837 C2825 1.453 . S
C2837 H2866 0.982 . S
C2837 H2867 0.979 . S
C2837 H2868 0.977 . S
C2838 C2825 1.684 . S
C2838 H2863 0.979 . S
C2838 H2864 0.980 . S
C2838 H2865 0.983 . S
C2839 C2840 1.391 . S
C2839 C2844 1.391 . S
C2839 H2869 0.948 . S
C2840 C2839 1.391 . S
C2840 C2841 1.391 . S
C2841 C2840 1.391 . S
C2841 C2842 1.392 . S
C2841 H2870 0.947 . S
C2842 C2841 1.392 . S
C2842 C2843 1.419 . S
C2842 H2871 0.948 . S
C2843 C2842 1.419 . S
C2843 C2844 1.391 . S
C2843 C2847 1.397 . S
C2844 C2839 1.391 . S
C2844 C2843 1.391 . S
C2844 C2845 1.399 . S
C2845 C2844 1.399 . S
C2845 C2846 1.396 . S
C2845 C2848 1.453 . S
C2845 C2849 1.684 . S
C2846 C2827 1.723 . S
C2846 C2845 1.396 . S
C2846 C2847 1.394 . S
C2847 C2843 1.397 . S
C2847 C2846 1.394 . S
C2847 C2857 1.723 . S
C2848 C2845 1.453 . S
C2848 H2872 0.982 . S
C2848 H2873 0.979 . S
C2848 H2874 0.977 . S
C2849 C2845 1.684 . S
C2849 H2875 0.979 . S
C2849 H2876 0.980 . S
C2849 H2877 0.983 . S
C2850 H2826 0.948 . S
C2850 C2851 1.391 . S
C2850 C2855 1.391 . S
C2851 C2850 1.391 . S
C2851 C2852 1.391 . S
C2852 H2829 0.947 . S
C2852 C2851 1.391 . S
C2852 C2853 1.392 . S
C2853 H2830 0.948 . S
C2853 C2852 1.392 . S
C2853 C2854 1.419 . S
C2854 C2853 1.419 . S
C2854 C2855 1.391 . S
C2854 C2858 1.397 . S
C2855 C2850 1.391 . S
C2855 C2854 1.391 . S
C2855 C2856 1.399 . S
C2856 C2855 1.399 . S
C2856 C2857 1.396 . S
C2856 C2859 1.453 . S
C2856 C2860 1.684 . S
C2857 C2847 1.723 . S
C2857 C2856 1.396 . S
C2857 C2858 1.394 . S
C2858 C2828 1.723 . S
C2858 C2854 1.397 . S
C2858 C2857 1.394 . S
C2859 H2831 0.982 . S
C2859 H2835 0.979 . S
C2859 H2836 0.977 . S
C2859 C2856 1.453 . S
C2860 H2832 0.979 . S
C2860 H2833 0.980 . S
C2860 H2834 0.983 . S
C2860 C2856 1.684 . S
H2861 C2879 0.948 . S
H2862 C2820 0.948 . S
H2863 C2838 0.979 . S
H2864 C2838 0.980 . S
H2865 C2838 0.983 . S
H2866 C2837 0.982 . S
H2867 C2837 0.979 . S
H2868 C2837 0.977 . S
H2869 C2839 0.948 . S
H2870 C2841 0.947 . S
H2871 C2842 0.948 . S
H2872 C2848 0.982 . S
H2873 C2848 0.979 . S
H2874 C2848 0.977 . S
H2875 C2849 0.979 . S
H2876 C2849 0.980 . S
H2877 C2849 0.983 . S
H2878 C2822 0.947 . S
C2879 C2822 1.392 . S
C2879 C2823 1.419 . S
C2879 H2861 0.948 . S
C2880 C2881 1.391 . S
C2880 C2884 1.391 . S
C2880 H2922 0.948 . S
C2881 C2880 1.391 . S
C2881 C2882 1.391 . S
C2882 C2881 1.391 . S
C2882 H2938 0.947 . S
C2882 C2939 1.392 . S
C2883 C2884 1.391 . S
C2883 C2887 1.397 . S
C2883 C2939 1.419 . S
C2884 C2880 1.391 . S
C2884 C2883 1.391 . S
C2884 C2885 1.399 . S
C2885 C2884 1.399 . S
C2885 C2888 1.396 . S
C2885 C2897 1.453 . S
C2885 C2898 1.684 . S
H2886 C2910 0.948 . S
C2887 C2883 1.397 . S
C2887 C2888 1.394 . S
C2887 C2906 1.723 . S
C2888 C2885 1.396 . S
C2888 C2887 1.394 . S
C2888 C2918 1.723 . S
H2889 C2912 0.947 . S
H2890 C2913 0.948 . S
H2891 C2919 0.982 . S
H2892 C2920 0.979 . S
H2893 C2920 0.980 . S
H2894 C2920 0.983 . S
H2895 C2919 0.979 . S
H2896 C2919 0.977 . S
C2897 C2885 1.453 . S
C2897 H2926 0.982 . S
C2897 H2927 0.979 . S
C2897 H2928 0.977 . S
C2898 C2885 1.684 . S
C2898 H2923 0.979 . S
C2898 H2924 0.980 . S
C2898 H2925 0.983 . S
C2899 C2900 1.391 . S
C2899 C2904 1.391 . S
C2899 H2929 0.948 . S
C2900 C2899 1.391 . S
C2900 C2901 1.391 . S
C2901 C2900 1.391 . S
C2901 C2902 1.392 . S
C2901 H2930 0.947 . S
C2902 C2901 1.392 . S
C2902 C2903 1.419 . S
C2902 H2931 0.948 . S
C2903 C2902 1.419 . S
C2903 C2904 1.391 . S
C2903 C2907 1.397 . S
C2904 C2899 1.391 . S
C2904 C2903 1.391 . S
C2904 C2905 1.399 . S
C2905 C2904 1.399 . S
C2905 C2906 1.396 . S
C2905 C2908 1.453 . S
C2905 C2909 1.684 . S
C2906 C2887 1.723 . S
C2906 C2905 1.396 . S
C2906 C2907 1.394 . S
C2907 C2903 1.397 . S
C2907 C2906 1.394 . S
C2907 C2917 1.723 . S
C2908 C2905 1.453 . S
C2908 H2932 0.982 . S
C2908 H2933 0.979 . S
C2908 H2934 0.977 . S
C2909 C2905 1.684 . S
C2909 H2935 0.979 . S
C2909 H2936 0.980 . S
C2909 H2937 0.983 . S
C2910 H2886 0.948 . S
C2910 C2911 1.391 . S
C2910 C2915 1.391 . S
C2911 C2910 1.391 . S
C2911 C2912 1.391 . S
C2912 H2889 0.947 . S
C2912 C2911 1.391 . S
C2912 C2913 1.392 . S
C2913 H2890 0.948 . S
C2913 C2912 1.392 . S
C2913 C2914 1.419 . S
C2914 C2913 1.419 . S
C2914 C2915 1.391 . S
C2914 C2918 1.397 . S
C2915 C2910 1.391 . S
C2915 C2914 1.391 . S
C2915 C2916 1.399 . S
C2916 C2915 1.399 . S
C2916 C2917 1.396 . S
C2916 C2919 1.453 . S
C2916 C2920 1.684 . S
C2917 C2907 1.723 . S
C2917 C2916 1.396 . S
C2917 C2918 1.394 . S
C2918 C2888 1.723 . S
C2918 C2914 1.397 . S
C2918 C2917 1.394 . S
C2919 H2891 0.982 . S
C2919 H2895 0.979 . S
C2919 H2896 0.977 . S
C2919 C2916 1.453 . S
C2920 H2892 0.979 . S
C2920 H2893 0.980 . S
C2920 H2894 0.983 . S
C2920 C2916 1.684 . S
H2921 C2939 0.948 . S
H2922 C2880 0.948 . S
H2923 C2898 0.979 . S
H2924 C2898 0.980 . S
H2925 C2898 0.983 . S
H2926 C2897 0.982 . S
H2927 C2897 0.979 . S
H2928 C2897 0.977 . S
H2929 C2899 0.948 . S
H2930 C2901 0.947 . S
H2931 C2902 0.948 . S
H2932 C2908 0.982 . S
H2933 C2908 0.979 . S
H2934 C2908 0.977 . S
H2935 C2909 0.979 . S
H2936 C2909 0.980 . S
H2937 C2909 0.983 . S
H2938 C2882 0.947 . S
C2939 C2882 1.392 . S
C2939 C2883 1.419 . S
C2939 H2921 0.948 . S
C2940 C2941 1.391 . S
C2940 C2944 1.391 . S
C2940 H2982 0.948 . S
C2941 C2940 1.391 . S
C2941 C2942 1.391 . S
C2942 C2941 1.391 . S
C2942 H2998 0.947 . S
C2942 C2999 1.392 . S
C2943 C2944 1.391 . S
C2943 C2947 1.397 . S
C2943 C2999 1.419 . S
C2944 C2940 1.391 . S
C2944 C2943 1.391 . S
C2944 C2945 1.399 . S
C2945 C2944 1.399 . S
C2945 C2948 1.396 . S
C2945 C2957 1.453 . S
C2945 C2958 1.684 . S
H2946 C2970 0.948 . S
C2947 C2943 1.397 . S
C2947 C2948 1.394 . S
C2947 C2966 1.723 . S
C2948 C2945 1.396 . S
C2948 C2947 1.394 . S
C2948 C2978 1.723 . S
H2949 C2972 0.947 . S
H2950 C2973 0.948 . S
H2951 C2979 0.982 . S
H2952 C2980 0.979 . S
H2953 C2980 0.980 . S
H2954 C2980 0.983 . S
H2955 C2979 0.979 . S
H2956 C2979 0.977 . S
C2957 C2945 1.453 . S
C2957 H2986 0.982 . S
C2957 H2987 0.979 . S
C2957 H2988 0.977 . S
C2958 C2945 1.684 . S
C2958 H2983 0.979 . S
C2958 H2984 0.980 . S
C2958 H2985 0.983 . S
C2959 C2960 1.391 . S
C2959 C2964 1.391 . S
C2959 H2989 0.948 . S
C2960 C2959 1.391 . S
C2960 C2961 1.391 . S
C2961 C2960 1.391 . S
C2961 C2962 1.392 . S
C2961 H2990 0.947 . S
C2962 C2961 1.392 . S
C2962 C2963 1.419 . S
C2962 H2991 0.948 . S
C2963 C2962 1.419 . S
C2963 C2964 1.391 . S
C2963 C2967 1.397 . S
C2964 C2959 1.391 . S
C2964 C2963 1.391 . S
C2964 C2965 1.399 . S
C2965 C2964 1.399 . S
C2965 C2966 1.396 . S
C2965 C2968 1.453 . S
C2965 C2969 1.684 . S
C2966 C2947 1.723 . S
C2966 C2965 1.396 . S
C2966 C2967 1.394 . S
C2967 C2963 1.397 . S
C2967 C2966 1.394 . S
C2967 C2977 1.723 . S
C2968 C2965 1.453 . S
C2968 H2992 0.982 . S
C2968 H2993 0.979 . S
C2968 H2994 0.977 . S
C2969 C2965 1.684 . S
C2969 H2995 0.979 . S
C2969 H2996 0.980 . S
C2969 H2997 0.983 . S
C2970 H2946 0.948 . S
C2970 C2971 1.391 . S
C2970 C2975 1.391 . S
C2971 C2970 1.391 . S
C2971 C2972 1.391 . S
C2972 H2949 0.947 . S
C2972 C2971 1.391 . S
C2972 C2973 1.392 . S
C2973 H2950 0.948 . S
C2973 C2972 1.392 . S
C2973 C2974 1.419 . S
C2974 C2973 1.419 . S
C2974 C2975 1.391 . S
C2974 C2978 1.397 . S
C2975 C2970 1.391 . S
C2975 C2974 1.391 . S
C2975 C2976 1.399 . S
C2976 C2975 1.399 . S
C2976 C2977 1.396 . S
C2976 C2979 1.453 . S
C2976 C2980 1.684 . S
C2977 C2967 1.723 . S
C2977 C2976 1.396 . S
C2977 C2978 1.394 . S
C2978 C2948 1.723 . S
C2978 C2974 1.397 . S
C2978 C2977 1.394 . S
C2979 H2951 0.982 . S
C2979 H2955 0.979 . S
C2979 H2956 0.977 . S
C2979 C2976 1.453 . S
C2980 H2952 0.979 . S
C2980 H2953 0.980 . S
C2980 H2954 0.983 . S
C2980 C2976 1.684 . S
H2981 C2999 0.948 . S
H2982 C2940 0.948 . S
H2983 C2958 0.979 . S
H2984 C2958 0.980 . S
H2985 C2958 0.983 . S
H2986 C2957 0.982 . S
H2987 C2957 0.979 . S
H2988 C2957 0.977 . S
H2989 C2959 0.948 . S
H2990 C2961 0.947 . S
H2991 C2962 0.948 . S
H2992 C2968 0.982 . S
H2993 C2968 0.979 . S
H2994 C2968 0.977 . S
H2995 C2969 0.979 . S
H2996 C2969 0.980 . S
H2997 C2969 0.983 . S
H2998 C2942 0.947 . S
C2999 C2942 1.392 . S
C2999 C2943 1.419 . S
C2999 H2981 0.948 . S
C3000 C3001 1.391 . S
C3000 C3004 1.391 . S
C3000 H3042 0.948 . S
C3001 C3000 1.391 . S
C3001 C3002 1.391 . S
C3002 C3001 1.391 . S
C3002 H3058 0.947 . S
C3002 C3059 1.392 . S
C3003 C3004 1.391 . S
C3003 C3007 1.397 . S
C3003 C3059 1.419 . S
C3004 C3000 1.391 . S
C3004 C3003 1.391 . S
C3004 C3005 1.399 . S
C3005 C3004 1.399 . S
C3005 C3008 1.396 . S
C3005 C3017 1.453 . S
C3005 C3018 1.684 . S
H3006 C3030 0.948 . S
C3007 C3003 1.397 . S
C3007 C3008 1.394 . S
C3007 C3026 1.723 . S
C3008 C3005 1.396 . S
C3008 C3007 1.394 . S
C3008 C3038 1.723 . S
H3009 C3032 0.947 . S
H3010 C3033 0.948 . S
H3011 C3039 0.982 . S
H3012 C3040 0.979 . S
H3013 C3040 0.980 . S
H3014 C3040 0.983 . S
H3015 C3039 0.979 . S
H3016 C3039 0.977 . S
C3017 C3005 1.453 . S
C3017 H3046 0.982 . S
C3017 H3047 0.979 . S
C3017 H3048 0.977 . S
C3018 C3005 1.684 . S
C3018 H3043 0.979 . S
C3018 H3044 0.980 . S
C3018 H3045 0.983 . S
C3019 C3020 1.391 . S
C3019 C3024 1.391 . S
C3019 H3049 0.948 . S
C3020 C3019 1.391 . S
C3020 C3021 1.391 . S
C3021 C3020 1.391 . S
C3021 C3022 1.392 . S
C3021 H3050 0.947 . S
C3022 C3021 1.392 . S
C3022 C3023 1.419 . S
C3022 H3051 0.948 . S
C3023 C3022 1.419 . S
C3023 C3024 1.391 . S
C3023 C3027 1.397 . S
C3024 C3019 1.391 . S
C3024 C3023 1.391 . S
C3024 C3025 1.399 . S
C3025 C3024 1.399 . S
C3025 C3026 1.396 . S
C3025 C3028 1.453 . S
C3025 C3029 1.684 . S
C3026 C3007 1.723 . S
C3026 C3025 1.396 . S
C3026 C3027 1.394 . S
C3027 C3023 1.397 . S
C3027 C3026 1.394 . S
C3027 C3037 1.723 . S
C3028 C3025 1.453 . S
C3028 H3052 0.982 . S
C3028 H3053 0.979 . S
C3028 H3054 0.977 . S
C3029 C3025 1.684 . S
C3029 H3055 0.979 . S
C3029 H3056 0.980 . S
C3029 H3057 0.983 . S
C3030 H3006 0.948 . S
C3030 C3031 1.391 . S
C3030 C3035 1.391 . S
C3031 C3030 1.391 . S
C3031 C3032 1.391 . S
C3032 H3009 0.947 . S
C3032 C3031 1.391 . S
C3032 C3033 1.392 . S
C3033 H3010 0.948 . S
C3033 C3032 1.392 . S
C3033 C3034 1.419 . S
C3034 C3033 1.419 . S
C3034 C3035 1.391 . S
C3034 C3038 1.397 . S
C3035 C3030 1.391 . S
C3035 C3034 1.391 . S
C3035 C3036 1.399 . S
C3036 C3035 1.399 . S
C3036 C3037 1.396 . S
C3036 C3039 1.453 . S
C3036 C3040 1.684 . S
C3037 C3027 1.723 . S
C3037 C3036 1.396 . S
C3037 C3038 1.394 . S
C3038 C3008 1.723 . S
C3038 C3034 1.397 . S
C3038 C3037 1.394 . S
C3039 H3011 0.982 . S
C3039 H3015 0.979 . S
C3039 H3016 0.977 . S
C3039 C3036 1.453 . S
C3040 H3012 0.979 . S
C3040 H3013 0.980 . S
C3040 H3014 0.983 . S
C3040 C3036 1.684 . S
H3041 C3059 0.948 . S
H3042 C3000 0.948 . S
H3043 C3018 0.979 . S
H3044 C3018 0.980 . S
H3045 C3018 0.983 . S
H3046 C3017 0.982 . S
H3047 C3017 0.979 . S
H3048 C3017 0.977 . S
H3049 C3019 0.948 . S
H3050 C3021 0.947 . S
H3051 C3022 0.948 . S
H3052 C3028 0.982 . S
H3053 C3028 0.979 . S
H3054 C3028 0.977 . S
H3055 C3029 0.979 . S
H3056 C3029 0.980 . S
H3057 C3029 0.983 . S
H3058 C3002 0.947 . S
C3059 C3002 1.392 . S
C3059 C3003 1.419 . S
C3059 H3041 0.948 . S
C3060 C3061 1.391 . S
C3060 C3064 1.391 . S
C3060 H3102 0.948 . S
C3061 C3060 1.391 . S
C3061 C3062 1.391 . S
C3062 C3061 1.391 . S
C3062 H3118 0.947 . S
C3062 C3119 1.392 . S
C3063 C3064 1.391 . S
C3063 C3067 1.397 . S
C3063 C3119 1.419 . S
C3064 C3060 1.391 . S
C3064 C3063 1.391 . S
C3064 C3065 1.399 . S
C3065 C3064 1.399 . S
C3065 C3068 1.396 . S
C3065 C3077 1.453 . S
C3065 C3078 1.684 . S
H3066 C3090 0.948 . S
C3067 C3063 1.397 . S
C3067 C3068 1.394 . S
C3067 C3086 1.723 . S
C3068 C3065 1.396 . S
C3068 C3067 1.394 . S
C3068 C3098 1.723 . S
H3069 C3092 0.947 . S
H3070 C3093 0.948 . S
H3071 C3099 0.982 . S
H3072 C3100 0.979 . S
H3073 C3100 0.980 . S
H3074 C3100 0.983 . S
H3075 C3099 0.979 . S
H3076 C3099 0.977 . S
C3077 C3065 1.453 . S
C3077 H3106 0.982 . S
C3077 H3107 0.979 . S
C3077 H3108 0.977 . S
C3078 C3065 1.684 . S
C3078 H3103 0.979 . S
C3078 H3104 0.980 . S
C3078 H3105 0.983 . S
C3079 C3080 1.391 . S
C3079 C3084 1.391 . S
C3079 H3109 0.948 . S
C3080 C3079 1.391 . S
C3080 C3081 1.391 . S
C3081 C3080 1.391 . S
C3081 C3082 1.392 . S
C3081 H3110 0.947 . S
C3082 C3081 1.392 . S
C3082 C3083 1.419 . S
C3082 H3111 0.948 . S
C3083 C3082 1.419 . S
C3083 C3084 1.391 . S
C3083 C3087 1.397 . S
C3084 C3079 1.391 . S
C3084 C3083 1.391 . S
C3084 C3085 1.399 . S
C3085 C3084 1.399 . S
C3085 C3086 1.396 . S
C3085 C3088 1.453 . S
C3085 C3089 1.684 . S
C3086 C3067 1.723 . S
C3086 C3085 1.396 . S
C3086 C3087 1.394 . S
C3087 C3083 1.397 . S
C3087 C3086 1.394 . S
C3087 C3097 1.723 . S
C3088 C3085 1.453 . S
C3088 H3112 0.982 . S
C3088 H3113 0.979 . S
C3088 H3114 0.977 . S
C3089 C3085 1.684 . S
C3089 H3115 0.979 . S
C3089 H3116 0.980 . S
C3089 H3117 0.983 . S
C3090 H3066 0.948 . S
C3090 C3091 1.391 . S
C3090 C3095 1.391 . S
C3091 C3090 1.391 . S
C3091 C3092 1.391 . S
C3092 H3069 0.947 . S
C3092 C3091 1.391 . S
C3092 C3093 1.392 . S
C3093 H3070 0.948 . S
C3093 C3092 1.392 . S
C3093 C3094 1.419 . S
C3094 C3093 1.419 . S
C3094 C3095 1.391 . S
C3094 C3098 1.397 . S
C3095 C3090 1.391 . S
C3095 C3094 1.391 . S
C3095 C3096 1.399 . S
C3096 C3095 1.399 . S
C3096 C3097 1.396 . S
C3096 C3099 1.453 . S
C3096 C3100 1.684 . S
C3097 C3087 1.723 . S
C3097 C3096 1.396 . S
C3097 C3098 1.394 . S
C3098 C3068 1.723 . S
C3098 C3094 1.397 . S
C3098 C3097 1.394 . S
C3099 H3071 0.982 . S
C3099 H3075 0.979 . S
C3099 H3076 0.977 . S
C3099 C3096 1.453 . S
C3100 H3072 0.979 . S
C3100 H3073 0.980 . S
C3100 H3074 0.983 . S
C3100 C3096 1.684 . S
H3101 C3119 0.948 . S
H3102 C3060 0.948 . S
H3103 C3078 0.979 . S
H3104 C3078 0.980 . S
H3105 C3078 0.983 . S
H3106 C3077 0.982 . S
H3107 C3077 0.979 . S
H3108 C3077 0.977 . S
H3109 C3079 0.948 . S
H3110 C3081 0.947 . S
H3111 C3082 0.948 . S
H3112 C3088 0.982 . S
H3113 C3088 0.979 . S
H3114 C3088 0.977 . S
H3115 C3089 0.979 . S
H3116 C3089 0.980 . S
H3117 C3089 0.983 . S
H3118 C3062 0.947 . S
C3119 C3062 1.392 . S
C3119 C3063 1.419 . S
C3119 H3101 0.948 . S
C3120 C3121 1.391 . S
C3120 C3124 1.391 . S
C3120 H3162 0.948 . S
C3121 C3120 1.391 . S
C3121 C3122 1.391 . S
C3122 C3121 1.391 . S
C3122 H3178 0.947 . S
C3122 C3179 1.392 . S
C3123 C3124 1.391 . S
C3123 C3127 1.397 . S
C3123 C3179 1.419 . S
C3124 C3120 1.391 . S
C3124 C3123 1.391 . S
C3124 C3125 1.399 . S
C3125 C3124 1.399 . S
C3125 C3128 1.396 . S
C3125 C3137 1.453 . S
C3125 C3138 1.684 . S
H3126 C3150 0.948 . S
C3127 C3123 1.397 . S
C3127 C3128 1.394 . S
C3127 C3146 1.723 . S
C3128 C3125 1.396 . S
C3128 C3127 1.394 . S
C3128 C3158 1.723 . S
H3129 C3152 0.947 . S
H3130 C3153 0.948 . S
H3131 C3159 0.982 . S
H3132 C3160 0.979 . S
H3133 C3160 0.980 . S
H3134 C3160 0.983 . S
H3135 C3159 0.979 . S
H3136 C3159 0.977 . S
C3137 C3125 1.453 . S
C3137 H3166 0.982 . S
C3137 H3167 0.979 . S
C3137 H3168 0.977 . S
C3138 C3125 1.684 . S
C3138 H3163 0.979 . S
C3138 H3164 0.980 . S
C3138 H3165 0.983 . S
C3139 C3140 1.391 . S
C3139 C3144 1.391 . S
C3139 H3169 0.948 . S
C3140 C3139 1.391 . S
C3140 C3141 1.391 . S
C3141 C3140 1.391 . S
C3141 C3142 1.392 . S
C3141 H3170 0.947 . S
C3142 C3141 1.392 . S
C3142 C3143 1.419 . S
C3142 H3171 0.948 . S
C3143 C3142 1.419 . S
C3143 C3144 1.391 . S
C3143 C3147 1.397 . S
C3144 C3139 1.391 . S
C3144 C3143 1.391 . S
C3144 C3145 1.399 . S
C3145 C3144 1.399 . S
C3145 C3146 1.396 . S
C3145 C3148 1.453 . S
C3145 C3149 1.684 . S
C3146 C3127 1.723 . S
C3146 C3145 1.396 . S
C3146 C3147 1.394 . S
C3147 C3143 1.397 . S
C3147 C3146 1.394 . S
C3147 C3157 1.723 . S
C3148 C3145 1.453 . S
C3148 H3172 0.982 . S
C3148 H3173 0.979 . S
C3148 H3174 0.977 . S
C3149 C3145 1.684 . S
C3149 H3175 0.979 . S
C3149 H3176 0.980 . S
C3149 H3177 0.983 . S
C3150 H3126 0.948 . S
C3150 C3151 1.391 . S
C3150 C3155 1.391 . S
C3151 C3150 1.391 . S
C3151 C3152 1.391 . S
C3152 H3129 0.947 . S
C3152 C3151 1.391 . S
C3152 C3153 1.392 . S
C3153 H3130 0.948 . S
C3153 C3152 1.392 . S
C3153 C3154 1.419 . S
C3154 C3153 1.419 . S
C3154 C3155 1.391 . S
C3154 C3158 1.397 . S
C3155 C3150 1.391 . S
C3155 C3154 1.391 . S
C3155 C3156 1.399 . S
C3156 C3155 1.399 . S
C3156 C3157 1.396 . S
C3156 C3159 1.453 . S
C3156 C3160 1.684 . S
C3157 C3147 1.723 . S
C3157 C3156 1.396 . S
C3157 C3158 1.394 . S
C3158 C3128 1.723 . S
C3158 C3154 1.397 . S
C3158 C3157 1.394 . S
C3159 H3131 0.982 . S
C3159 H3135 0.979 . S
C3159 H3136 0.977 . S
C3159 C3156 1.453 . S
C3160 H3132 0.979 . S
C3160 H3133 0.980 . S
C3160 H3134 0.983 . S
C3160 C3156 1.684 . S
H3161 C3179 0.948 . S
H3162 C3120 0.948 . S
H3163 C3138 0.979 . S
H3164 C3138 0.980 . S
H3165 C3138 0.983 . S
H3166 C3137 0.982 . S
H3167 C3137 0.979 . S
H3168 C3137 0.977 . S
H3169 C3139 0.948 . S
H3170 C3141 0.947 . S
H3171 C3142 0.948 . S
H3172 C3148 0.982 . S
H3173 C3148 0.979 . S
H3174 C3148 0.977 . S
H3175 C3149 0.979 . S
H3176 C3149 0.980 . S
H3177 C3149 0.983 . S
H3178 C3122 0.947 . S
C3179 C3122 1.392 . S
C3179 C3123 1.419 . S
C3179 H3161 0.948 . S
C3180 C3181 1.391 . S
C3180 C3184 1.391 . S
C3180 H3222 0.948 . S
C3181 C3180 1.391 . S
C3181 C3182 1.391 . S
C3182 C3181 1.391 . S
C3182 H3238 0.947 . S
C3182 C3239 1.392 . S
C3183 C3184 1.391 . S
C3183 C3187 1.397 . S
C3183 C3239 1.419 . S
C3184 C3180 1.391 . S
C3184 C3183 1.391 . S
C3184 C3185 1.399 . S
C3185 C3184 1.399 . S
C3185 C3188 1.396 . S
C3185 C3197 1.453 . S
C3185 C3198 1.684 . S
H3186 C3210 0.948 . S
C3187 C3183 1.397 . S
C3187 C3188 1.394 . S
C3187 C3206 1.723 . S
C3188 C3185 1.396 . S
C3188 C3187 1.394 . S
C3188 C3218 1.723 . S
H3189 C3212 0.947 . S
H3190 C3213 0.948 . S
H3191 C3219 0.982 . S
H3192 C3220 0.979 . S
H3193 C3220 0.980 . S
H3194 C3220 0.983 . S
H3195 C3219 0.979 . S
H3196 C3219 0.977 . S
C3197 C3185 1.453 . S
C3197 H3226 0.982 . S
C3197 H3227 0.979 . S
C3197 H3228 0.977 . S
C3198 C3185 1.684 . S
C3198 H3223 0.979 . S
C3198 H3224 0.980 . S
C3198 H3225 0.983 . S
C3199 C3200 1.391 . S
C3199 C3204 1.391 . S
C3199 H3229 0.948 . S
C3200 C3199 1.391 . S
C3200 C3201 1.391 . S
C3201 C3200 1.391 . S
C3201 C3202 1.392 . S
C3201 H3230 0.947 1_655 S
C3202 C3201 1.392 . S
C3202 C3203 1.419 . S
C3202 H3231 0.948 . S
C3203 C3202 1.419 . S
C3203 C3204 1.391 . S
C3203 C3207 1.397 . S
C3204 C3199 1.391 . S
C3204 C3203 1.391 . S
C3204 C3205 1.399 . S
C3205 C3204 1.399 . S
C3205 C3206 1.396 . S
C3205 C3208 1.453 . S
C3205 C3209 1.684 . S
C3206 C3187 1.723 . S
C3206 C3205 1.396 . S
C3206 C3207 1.394 . S
C3207 C3203 1.397 . S
C3207 C3206 1.394 . S
C3207 C3217 1.723 . S
C3208 C3205 1.453 . S
C3208 H3232 0.982 . S
C3208 H3233 0.979 . S
C3208 H3234 0.977 . S
C3209 C3205 1.684 . S
C3209 H3235 0.979 . S
C3209 H3236 0.980 . S
C3209 H3237 0.983 . S
C3210 H3186 0.948 . S
C3210 C3211 1.391 . S
C3210 C3215 1.391 . S
C3211 C3210 1.391 . S
C3211 C3212 1.391 . S
C3212 H3189 0.947 . S
C3212 C3211 1.391 . S
C3212 C3213 1.392 . S
C3213 H3190 0.948 . S
C3213 C3212 1.392 . S
C3213 C3214 1.419 . S
C3214 C3213 1.419 . S
C3214 C3215 1.391 . S
C3214 C3218 1.397 . S
C3215 C3210 1.391 . S
C3215 C3214 1.391 . S
C3215 C3216 1.399 . S
C3216 C3215 1.399 . S
C3216 C3217 1.396 . S
C3216 C3219 1.453 . S
C3216 C3220 1.684 . S
C3217 C3207 1.723 . S
C3217 C3216 1.396 . S
C3217 C3218 1.394 . S
C3218 C3188 1.723 . S
C3218 C3214 1.397 . S
C3218 C3217 1.394 . S
C3219 H3191 0.982 . S
C3219 H3195 0.979 . S
C3219 H3196 0.977 . S
C3219 C3216 1.453 . S
C3220 H3192 0.979 . S
C3220 H3193 0.980 . S
C3220 H3194 0.983 . S
C3220 C3216 1.684 . S
H3221 C3239 0.948 . S
H3222 C3180 0.948 . S
H3223 C3198 0.979 . S
H3224 C3198 0.980 . S
H3225 C3198 0.983 . S
H3226 C3197 0.982 . S
H3227 C3197 0.979 . S
H3228 C3197 0.977 . S
H3229 C3199 0.948 . S
H3230 C3201 0.947 1_455 S
H3231 C3202 0.948 . S
H3232 C3208 0.982 . S
H3233 C3208 0.979 . S
H3234 C3208 0.977 . S
H3235 C3209 0.979 . S
H3236 C3209 0.980 . S
H3237 C3209 0.983 . S
H3238 C3182 0.947 . S
C3239 C3182 1.392 . S
C3239 C3183 1.419 . S
C3239 H3221 0.948 . S
C3240 C3241 1.391 . S
C3240 C3244 1.391 . S
C3240 H3282 0.948 . S
C3241 C3240 1.391 . S
C3241 C3242 1.391 . S
C3242 C3241 1.391 . S
C3242 H3298 0.947 . S
C3242 C3299 1.392 . S
C3243 C3244 1.391 . S
C3243 C3247 1.397 . S
C3243 C3299 1.419 . S
C3244 C3240 1.391 . S
C3244 C3243 1.391 . S
C3244 C3245 1.399 . S
C3245 C3244 1.399 . S
C3245 C3248 1.396 . S
C3245 C3257 1.453 . S
C3245 C3258 1.684 . S
H3246 C3270 0.948 . S
C3247 C3243 1.397 . S
C3247 C3248 1.394 . S
C3247 C3266 1.723 . S
C3248 C3245 1.396 . S
C3248 C3247 1.394 . S
C3248 C3278 1.723 . S
H3249 C3272 0.947 . S
H3250 C3273 0.948 . S
H3251 C3279 0.982 . S
H3252 C3280 0.979 . S
H3253 C3280 0.980 . S
H3254 C3280 0.983 . S
H3255 C3279 0.979 . S
H3256 C3279 0.977 . S
C3257 C3245 1.453 . S
C3257 H3286 0.982 . S
C3257 H3287 0.979 . S
C3257 H3288 0.977 . S
C3258 C3245 1.684 . S
C3258 H3283 0.979 . S
C3258 H3284 0.980 . S
C3258 H3285 0.983 . S
C3259 C3260 1.391 . S
C3259 C3264 1.391 . S
C3259 H3289 0.948 . S
C3260 C3259 1.391 . S
C3260 C3261 1.391 . S
C3261 C3260 1.391 . S
C3261 C3262 1.392 . S
C3261 H3290 0.947 . S
C3262 C3261 1.392 . S
C3262 C3263 1.419 . S
C3262 H3291 0.948 . S
C3263 C3262 1.419 . S
C3263 C3264 1.391 . S
C3263 C3267 1.397 . S
C3264 C3259 1.391 . S
C3264 C3263 1.391 . S
C3264 C3265 1.399 . S
C3265 C3264 1.399 . S
C3265 C3266 1.396 . S
C3265 C3268 1.453 . S
C3265 C3269 1.684 . S
C3266 C3247 1.723 . S
C3266 C3265 1.396 . S
C3266 C3267 1.394 . S
C3267 C3263 1.397 . S
C3267 C3266 1.394 . S
C3267 C3277 1.723 . S
C3268 C3265 1.453 . S
C3268 H3292 0.982 . S
C3268 H3293 0.979 . S
C3268 H3294 0.977 . S
C3269 C3265 1.684 . S
C3269 H3295 0.979 . S
C3269 H3296 0.980 . S
C3269 H3297 0.983 . S
C3270 H3246 0.948 . S
C3270 C3271 1.391 . S
C3270 C3275 1.391 . S
C3271 C3270 1.391 . S
C3271 C3272 1.391 . S
C3272 H3249 0.947 . S
C3272 C3271 1.391 . S
C3272 C3273 1.392 . S
C3273 H3250 0.948 . S
C3273 C3272 1.392 . S
C3273 C3274 1.419 . S
C3274 C3273 1.419 . S
C3274 C3275 1.391 . S
C3274 C3278 1.397 . S
C3275 C3270 1.391 . S
C3275 C3274 1.391 . S
C3275 C3276 1.399 . S
C3276 C3275 1.399 . S
C3276 C3277 1.396 . S
C3276 C3279 1.453 . S
C3276 C3280 1.684 . S
C3277 C3267 1.723 . S
C3277 C3276 1.396 . S
C3277 C3278 1.394 . S
C3278 C3248 1.723 . S
C3278 C3274 1.397 . S
C3278 C3277 1.394 . S
C3279 H3251 0.982 . S
C3279 H3255 0.979 . S
C3279 H3256 0.977 . S
C3279 C3276 1.453 . S
C3280 H3252 0.979 . S
C3280 H3253 0.980 . S
C3280 H3254 0.983 . S
C3280 C3276 1.684 . S
H3281 C3299 0.948 . S
H3282 C3240 0.948 . S
H3283 C3258 0.979 . S
H3284 C3258 0.980 . S
H3285 C3258 0.983 . S
H3286 C3257 0.982 . S
H3287 C3257 0.979 . S
H3288 C3257 0.977 . S
H3289 C3259 0.948 . S
H3290 C3261 0.947 . S
H3291 C3262 0.948 . S
H3292 C3268 0.982 . S
H3293 C3268 0.979 . S
H3294 C3268 0.977 . S
H3295 C3269 0.979 . S
H3296 C3269 0.980 . S
H3297 C3269 0.983 . S
H3298 C3242 0.947 . S
C3299 C3242 1.392 . S
C3299 C3243 1.419 . S
C3299 H3281 0.948 . S
C3300 C3301 1.391 . S
C3300 C3304 1.391 . S
C3300 H3342 0.948 . S
C3301 C3300 1.391 . S
C3301 C3302 1.391 . S
C3302 C3301 1.391 . S
C3302 H3358 0.947 . S
C3302 C3359 1.392 . S
C3303 C3304 1.391 . S
C3303 C3307 1.397 . S
C3303 C3359 1.419 . S
C3304 C3300 1.391 . S
C3304 C3303 1.391 . S
C3304 C3305 1.399 . S
C3305 C3304 1.399 . S
C3305 C3308 1.396 . S
C3305 C3317 1.453 . S
C3305 C3318 1.684 . S
H3306 C3330 0.948 . S
C3307 C3303 1.397 . S
C3307 C3308 1.394 . S
C3307 C3326 1.723 . S
C3308 C3305 1.396 . S
C3308 C3307 1.394 . S
C3308 C3338 1.723 . S
H3309 C3332 0.947 . S
H3310 C3333 0.948 . S
H3311 C3339 0.982 . S
H3312 C3340 0.979 . S
H3313 C3340 0.980 . S
H3314 C3340 0.983 . S
H3315 C3339 0.979 . S
H3316 C3339 0.977 . S
C3317 C3305 1.453 . S
C3317 H3346 0.982 . S
C3317 H3347 0.979 . S
C3317 H3348 0.977 . S
C3318 C3305 1.684 . S
C3318 H3343 0.979 . S
C3318 H3344 0.980 . S
C3318 H3345 0.983 . S
C3319 C3320 1.391 . S
C3319 C3324 1.391 . S
C3319 H3349 0.948 . S
C3320 C3319 1.391 . S
C3320 C3321 1.391 . S
C3321 C3320 1.391 . S
C3321 C3322 1.392 . S
C3321 H3350 0.947 . S
C3322 C3321 1.392 . S
C3322 C3323 1.419 . S
C3322 H3351 0.948 . S
C3323 C3322 1.419 . S
C3323 C3324 1.391 . S
C3323 C3327 1.397 . S
C3324 C3319 1.391 . S
C3324 C3323 1.391 . S
C3324 C3325 1.399 . S
C3325 C3324 1.399 . S
C3325 C3326 1.396 . S
C3325 C3328 1.453 . S
C3325 C3329 1.684 . S
C3326 C3307 1.723 . S
C3326 C3325 1.396 . S
C3326 C3327 1.394 . S
C3327 C3323 1.397 . S
C3327 C3326 1.394 . S
C3327 C3337 1.723 . S
C3328 C3325 1.453 . S
C3328 H3352 0.982 . S
C3328 H3353 0.979 . S
C3328 H3354 0.977 . S
C3329 C3325 1.684 . S
C3329 H3355 0.979 . S
C3329 H3356 0.980 . S
C3329 H3357 0.983 . S
C3330 H3306 0.948 . S
C3330 C3331 1.391 . S
C3330 C3335 1.391 . S
C3331 C3330 1.391 . S
C3331 C3332 1.391 . S
C3332 H3309 0.947 . S
C3332 C3331 1.391 . S
C3332 C3333 1.392 . S
C3333 H3310 0.948 . S
C3333 C3332 1.392 . S
C3333 C3334 1.419 . S
C3334 C3333 1.419 . S
C3334 C3335 1.391 . S
C3334 C3338 1.397 . S
C3335 C3330 1.391 . S
C3335 C3334 1.391 . S
C3335 C3336 1.399 . S
C3336 C3335 1.399 . S
C3336 C3337 1.396 . S
C3336 C3339 1.453 . S
C3336 C3340 1.684 . S
C3337 C3327 1.723 . S
C3337 C3336 1.396 . S
C3337 C3338 1.394 . S
C3338 C3308 1.723 . S
C3338 C3334 1.397 . S
C3338 C3337 1.394 . S
C3339 H3311 0.982 . S
C3339 H3315 0.979 . S
C3339 H3316 0.977 . S
C3339 C3336 1.453 . S
C3340 H3312 0.979 . S
C3340 H3313 0.980 . S
C3340 H3314 0.983 . S
C3340 C3336 1.684 . S
H3341 C3359 0.948 . S
H3342 C3300 0.948 . S
H3343 C3318 0.979 . S
H3344 C3318 0.980 . S
H3345 C3318 0.983 . S
H3346 C3317 0.982 . S
H3347 C3317 0.979 . S
H3348 C3317 0.977 . S
H3349 C3319 0.948 . S
H3350 C3321 0.947 . S
H3351 C3322 0.948 . S
H3352 C3328 0.982 . S
H3353 C3328 0.979 . S
H3354 C3328 0.977 . S
H3355 C3329 0.979 . S
H3356 C3329 0.980 . S
H3357 C3329 0.983 . S
H3358 C3302 0.947 . S
C3359 C3302 1.392 . S
C3359 C3303 1.419 . S
C3359 H3341 0.948 . S
C3360 C3361 1.391 . S
C3360 C3364 1.391 . S
C3360 H3402 0.948 . S
C3361 C3360 1.391 . S
C3361 C3362 1.391 . S
C3362 C3361 1.391 . S
C3362 H3418 0.947 . S
C3362 C3419 1.392 . S
C3363 C3364 1.391 . S
C3363 C3367 1.397 . S
C3363 C3419 1.419 . S
C3364 C3360 1.391 . S
C3364 C3363 1.391 . S
C3364 C3365 1.399 . S
C3365 C3364 1.399 . S
C3365 C3368 1.396 . S
C3365 C3377 1.453 . S
C3365 C3378 1.684 . S
H3366 C3390 0.948 . S
C3367 C3363 1.397 . S
C3367 C3368 1.394 . S
C3367 C3386 1.723 . S
C3368 C3365 1.396 . S
C3368 C3367 1.394 . S
C3368 C3398 1.723 . S
H3369 C3392 0.947 . S
H3370 C3393 0.948 . S
H3371 C3399 0.982 . S
H3372 C3400 0.979 . S
H3373 C3400 0.980 . S
H3374 C3400 0.983 . S
H3375 C3399 0.979 . S
H3376 C3399 0.977 . S
C3377 C3365 1.453 . S
C3377 H3406 0.982 . S
C3377 H3407 0.979 . S
C3377 H3408 0.977 . S
C3378 C3365 1.684 . S
C3378 H3403 0.979 . S
C3378 H3404 0.980 . S
C3378 H3405 0.983 . S
C3379 C3380 1.391 . S
C3379 C3384 1.391 . S
C3379 H3409 0.948 . S
C3380 C3379 1.391 . S
C3380 C3381 1.391 . S
C3381 C3380 1.391 . S
C3381 C3382 1.392 . S
C3381 H3410 0.947 . S
C3382 C3381 1.392 . S
C3382 C3383 1.419 . S
C3382 H3411 0.948 . S
C3383 C3382 1.419 . S
C3383 C3384 1.391 . S
C3383 C3387 1.397 . S
C3384 C3379 1.391 . S
C3384 C3383 1.391 . S
C3384 C3385 1.399 . S
C3385 C3384 1.399 . S
C3385 C3386 1.396 . S
C3385 C3388 1.453 . S
C3385 C3389 1.684 . S
C3386 C3367 1.723 . S
C3386 C3385 1.396 . S
C3386 C3387 1.394 . S
C3387 C3383 1.397 . S
C3387 C3386 1.394 . S
C3387 C3397 1.723 . S
C3388 C3385 1.453 . S
C3388 H3412 0.982 . S
C3388 H3413 0.979 . S
C3388 H3414 0.977 . S
C3389 C3385 1.684 . S
C3389 H3415 0.979 . S
C3389 H3416 0.980 . S
C3389 H3417 0.983 . S
C3390 H3366 0.948 . S
C3390 C3391 1.391 . S
C3390 C3395 1.391 . S
C3391 C3390 1.391 . S
C3391 C3392 1.391 . S
C3392 H3369 0.947 . S
C3392 C3391 1.391 . S
C3392 C3393 1.392 . S
C3393 H3370 0.948 . S
C3393 C3392 1.392 . S
C3393 C3394 1.419 . S
C3394 C3393 1.419 . S
C3394 C3395 1.391 . S
C3394 C3398 1.397 . S
C3395 C3390 1.391 . S
C3395 C3394 1.391 . S
C3395 C3396 1.399 . S
C3396 C3395 1.399 . S
C3396 C3397 1.396 . S
C3396 C3399 1.453 . S
C3396 C3400 1.684 . S
C3397 C3387 1.723 . S
C3397 C3396 1.396 . S
C3397 C3398 1.394 . S
C3398 C3368 1.723 . S
C3398 C3394 1.397 . S
C3398 C3397 1.394 . S
C3399 H3371 0.982 . S
C3399 H3375 0.979 . S
C3399 H3376 0.977 . S
C3399 C3396 1.453 . S
C3400 H3372 0.979 . S
C3400 H3373 0.980 . S
C3400 H3374 0.983 . S
C3400 C3396 1.684 . S
H3401 C3419 0.948 . S
H3402 C3360 0.948 . S
H3403 C3378 0.979 . S
H3404 C3378 0.980 . S
H3405 C3378 0.983 . S
H3406 C3377 0.982 . S
H3407 C3377 0.979 . S
H3408 C3377 0.977 . S
H3409 C3379 0.948 . S
H3410 C3381 0.947 . S
H3411 C3382 0.948 . S
H3412 C3388 0.982 . S
H3413 C3388 0.979 . S
H3414 C3388 0.977 . S
H3415 C3389 0.979 . S
H3416 C3389 0.980 . S
H3417 C3389 0.983 . S
H3418 C3362 0.947 . S
C3419 C3362 1.392 . S
C3419 C3363 1.419 . S
C3419 H3401 0.948 . S
C3420 C3421 1.391 . S
C3420 C3424 1.391 . S
C3420 H3462 0.948 . S
C3421 C3420 1.391 . S
C3421 C3422 1.391 . S
C3422 C3421 1.391 . S
C3422 H3478 0.947 . S
C3422 C3479 1.392 . S
C3423 C3424 1.391 . S
C3423 C3427 1.397 . S
C3423 C3479 1.419 . S
C3424 C3420 1.391 . S
C3424 C3423 1.391 . S
C3424 C3425 1.399 . S
C3425 C3424 1.399 . S
C3425 C3428 1.396 . S
C3425 C3437 1.453 . S
C3425 C3438 1.684 . S
H3426 C3450 0.948 . S
C3427 C3423 1.397 . S
C3427 C3428 1.394 . S
C3427 C3446 1.723 . S
C3428 C3425 1.396 . S
C3428 C3427 1.394 . S
C3428 C3458 1.723 . S
H3429 C3452 0.947 . S
H3430 C3453 0.948 . S
H3431 C3459 0.982 . S
H3432 C3460 0.979 . S
H3433 C3460 0.980 . S
H3434 C3460 0.983 . S
H3435 C3459 0.979 . S
H3436 C3459 0.977 . S
C3437 C3425 1.453 . S
C3437 H3466 0.982 . S
C3437 H3467 0.979 . S
C3437 H3468 0.977 . S
C3438 C3425 1.684 . S
C3438 H3463 0.979 . S
C3438 H3464 0.980 . S
C3438 H3465 0.983 . S
C3439 C3440 1.391 . S
C3439 C3444 1.391 . S
C3439 H3469 0.948 . S
C3440 C3439 1.391 . S
C3440 C3441 1.391 . S
C3441 C3440 1.391 . S
C3441 C3442 1.392 . S
C3441 H3470 0.947 1_655 S
C3442 C3441 1.392 . S
C3442 C3443 1.419 . S
C3442 H3471 0.948 . S
C3443 C3442 1.419 . S
C3443 C3444 1.391 . S
C3443 C3447 1.397 . S
C3444 C3439 1.391 . S
C3444 C3443 1.391 . S
C3444 C3445 1.399 . S
C3445 C3444 1.399 . S
C3445 C3446 1.396 . S
C3445 C3448 1.453 . S
C3445 C3449 1.684 . S
C3446 C3427 1.723 . S
C3446 C3445 1.396 . S
C3446 C3447 1.394 . S
C3447 C3443 1.397 . S
C3447 C3446 1.394 . S
C3447 C3457 1.723 . S
C3448 C3445 1.453 . S
C3448 H3472 0.982 . S
C3448 H3473 0.979 . S
C3448 H3474 0.977 . S
C3449 C3445 1.684 . S
C3449 H3475 0.979 . S
C3449 H3476 0.980 . S
C3449 H3477 0.983 . S
C3450 H3426 0.948 . S
C3450 C3451 1.391 . S
C3450 C3455 1.391 . S
C3451 C3450 1.391 . S
C3451 C3452 1.391 . S
C3452 H3429 0.947 . S
C3452 C3451 1.391 . S
C3452 C3453 1.392 . S
C3453 H3430 0.948 . S
C3453 C3452 1.392 . S
C3453 C3454 1.419 . S
C3454 C3453 1.419 . S
C3454 C3455 1.391 . S
C3454 C3458 1.397 . S
C3455 C3450 1.391 . S
C3455 C3454 1.391 . S
C3455 C3456 1.399 . S
C3456 C3455 1.399 . S
C3456 C3457 1.396 . S
C3456 C3459 1.453 . S
C3456 C3460 1.684 . S
C3457 C3447 1.723 . S
C3457 C3456 1.396 . S
C3457 C3458 1.394 . S
C3458 C3428 1.723 . S
C3458 C3454 1.397 . S
C3458 C3457 1.394 . S
C3459 H3431 0.982 . S
C3459 H3435 0.979 . S
C3459 H3436 0.977 . S
C3459 C3456 1.453 . S
C3460 H3432 0.979 . S
C3460 H3433 0.980 . S
C3460 H3434 0.983 . S
C3460 C3456 1.684 . S
H3461 C3479 0.948 . S
H3462 C3420 0.948 . S
H3463 C3438 0.979 . S
H3464 C3438 0.980 . S
H3465 C3438 0.983 . S
H3466 C3437 0.982 . S
H3467 C3437 0.979 . S
H3468 C3437 0.977 . S
H3469 C3439 0.948 . S
H3470 C3441 0.947 1_455 S
H3471 C3442 0.948 . S
H3472 C3448 0.982 . S
H3473 C3448 0.979 . S
H3474 C3448 0.977 . S
H3475 C3449 0.979 . S
H3476 C3449 0.980 . S
H3477 C3449 0.983 . S
H3478 C3422 0.947 . S
C3479 C3422 1.392 . S
C3479 C3423 1.419 . S
C3479 H3461 0.948 . S
C3480 C3481 1.391 . S
C3480 C3484 1.391 . S
C3480 H3522 0.948 . S
C3481 C3480 1.391 . S
C3481 C3482 1.391 . S
C3482 C3481 1.391 . S
C3482 H3538 0.947 . S
C3482 C3539 1.392 . S
C3483 C3484 1.391 . S
C3483 C3487 1.397 . S
C3483 C3539 1.419 . S
C3484 C3480 1.391 . S
C3484 C3483 1.391 . S
C3484 C3485 1.399 . S
C3485 C3484 1.399 . S
C3485 C3488 1.396 . S
C3485 C3497 1.453 . S
C3485 C3498 1.684 . S
H3486 C3510 0.948 . S
C3487 C3483 1.397 . S
C3487 C3488 1.394 . S
C3487 C3506 1.723 . S
C3488 C3485 1.396 . S
C3488 C3487 1.394 . S
C3488 C3518 1.723 . S
H3489 C3512 0.947 . S
H3490 C3513 0.948 . S
H3491 C3519 0.982 . S
H3492 C3520 0.979 . S
H3493 C3520 0.980 . S
H3494 C3520 0.983 . S
H3495 C3519 0.979 . S
H3496 C3519 0.977 . S
C3497 C3485 1.453 . S
C3497 H3526 0.982 . S
C3497 H3527 0.979 . S
C3497 H3528 0.977 . S
C3498 C3485 1.684 . S
C3498 H3523 0.979 . S
C3498 H3524 0.980 . S
C3498 H3525 0.983 . S
C3499 C3500 1.391 . S
C3499 C3504 1.391 . S
C3499 H3529 0.948 . S
C3500 C3499 1.391 . S
C3500 C3501 1.391 . S
C3501 C3500 1.391 . S
C3501 C3502 1.392 . S
C3501 H3530 0.947 . S
C3502 C3501 1.392 . S
C3502 C3503 1.419 . S
C3502 H3531 0.948 . S
C3503 C3502 1.419 . S
C3503 C3504 1.391 . S
C3503 C3507 1.397 . S
C3504 C3499 1.391 . S
C3504 C3503 1.391 . S
C3504 C3505 1.399 . S
C3505 C3504 1.399 . S
C3505 C3506 1.396 . S
C3505 C3508 1.453 . S
C3505 C3509 1.684 . S
C3506 C3487 1.723 . S
C3506 C3505 1.396 . S
C3506 C3507 1.394 . S
C3507 C3503 1.397 . S
C3507 C3506 1.394 . S
C3507 C3517 1.723 . S
C3508 C3505 1.453 . S
C3508 H3532 0.982 . S
C3508 H3533 0.979 . S
C3508 H3534 0.977 . S
C3509 C3505 1.684 . S
C3509 H3535 0.979 . S
C3509 H3536 0.980 . S
C3509 H3537 0.983 . S
C3510 H3486 0.948 . S
C3510 C3511 1.391 . S
C3510 C3515 1.391 . S
C3511 C3510 1.391 . S
C3511 C3512 1.391 . S
C3512 H3489 0.947 . S
C3512 C3511 1.391 . S
C3512 C3513 1.392 . S
C3513 H3490 0.948 . S
C3513 C3512 1.392 . S
C3513 C3514 1.419 . S
C3514 C3513 1.419 . S
C3514 C3515 1.391 . S
C3514 C3518 1.397 . S
C3515 C3510 1.391 . S
C3515 C3514 1.391 . S
C3515 C3516 1.399 . S
C3516 C3515 1.399 . S
C3516 C3517 1.396 . S
C3516 C3519 1.453 . S
C3516 C3520 1.684 . S
C3517 C3507 1.723 . S
C3517 C3516 1.396 . S
C3517 C3518 1.394 . S
C3518 C3488 1.723 . S
C3518 C3514 1.397 . S
C3518 C3517 1.394 . S
C3519 H3491 0.982 . S
C3519 H3495 0.979 . S
C3519 H3496 0.977 . S
C3519 C3516 1.453 . S
C3520 H3492 0.979 . S
C3520 H3493 0.980 . S
C3520 H3494 0.983 . S
C3520 C3516 1.684 . S
H3521 C3539 0.948 . S
H3522 C3480 0.948 . S
H3523 C3498 0.979 . S
H3524 C3498 0.980 . S
H3525 C3498 0.983 . S
H3526 C3497 0.982 . S
H3527 C3497 0.979 . S
H3528 C3497 0.977 . S
H3529 C3499 0.948 . S
H3530 C3501 0.947 . S
H3531 C3502 0.948 . S
H3532 C3508 0.982 . S
H3533 C3508 0.979 . S
H3534 C3508 0.977 . S
H3535 C3509 0.979 . S
H3536 C3509 0.980 . S
H3537 C3509 0.983 . S
H3538 C3482 0.947 . S
C3539 C3482 1.392 . S
C3539 C3483 1.419 . S
C3539 H3521 0.948 . S
C3540 C3541 1.391 . S
C3540 C3544 1.391 . S
C3540 H3582 0.948 . S
C3541 C3540 1.391 . S
C3541 C3542 1.391 . S
C3542 C3541 1.391 . S
C3542 H3598 0.947 . S
C3542 C3599 1.392 . S
C3543 C3544 1.391 . S
C3543 C3547 1.397 . S
C3543 C3599 1.419 . S
C3544 C3540 1.391 . S
C3544 C3543 1.391 . S
C3544 C3545 1.399 . S
C3545 C3544 1.399 . S
C3545 C3548 1.396 . S
C3545 C3557 1.453 . S
C3545 C3558 1.684 . S
H3546 C3570 0.948 . S
C3547 C3543 1.397 . S
C3547 C3548 1.394 . S
C3547 C3566 1.723 . S
C3548 C3545 1.396 . S
C3548 C3547 1.394 . S
C3548 C3578 1.723 . S
H3549 C3572 0.947 . S
H3550 C3573 0.948 . S
H3551 C3579 0.982 . S
H3552 C3580 0.979 . S
H3553 C3580 0.980 . S
H3554 C3580 0.983 . S
H3555 C3579 0.979 . S
H3556 C3579 0.977 . S
C3557 C3545 1.453 . S
C3557 H3586 0.982 . S
C3557 H3587 0.979 . S
C3557 H3588 0.977 . S
C3558 C3545 1.684 . S
C3558 H3583 0.979 . S
C3558 H3584 0.980 . S
C3558 H3585 0.983 . S
C3559 C3560 1.391 . S
C3559 C3564 1.391 1_556 S
C3559 H3589 0.948 . S
C3560 C3559 1.391 . S
C3560 C3561 1.391 . S
C3561 C3560 1.391 . S
C3561 C3562 1.392 1_556 S
C3561 H3590 0.947 . S
C3562 C3561 1.392 1_554 S
C3562 C3563 1.419 . S
C3562 H3591 0.948 . S
C3563 C3562 1.419 . S
C3563 C3564 1.391 . S
C3563 C3567 1.397 . S
C3564 C3559 1.391 1_554 S
C3564 C3563 1.391 . S
C3564 C3565 1.399 . S
C3565 C3564 1.399 . S
C3565 C3566 1.396 . S
C3565 C3568 1.453 . S
C3565 C3569 1.684 1_554 S
C3566 C3547 1.723 . S
C3566 C3565 1.396 . S
C3566 C3567 1.394 . S
C3567 C3563 1.397 . S
C3567 C3566 1.394 . S
C3567 C3577 1.723 . S
C3568 C3565 1.453 . S
C3568 H3592 0.982 . S
C3568 H3593 0.979 . S
C3568 H3594 0.977 . S
C3569 C3565 1.684 1_556 S
C3569 H3595 0.979 . S
C3569 H3596 0.980 1_556 S
C3569 H3597 0.983 . S
C3570 H3546 0.948 . S
C3570 C3571 1.391 . S
C3570 C3575 1.391 . S
C3571 C3570 1.391 . S
C3571 C3572 1.391 . S
C3572 H3549 0.947 . S
C3572 C3571 1.391 . S
C3572 C3573 1.392 . S
C3573 H3550 0.948 . S
C3573 C3572 1.392 . S
C3573 C3574 1.419 . S
C3574 C3573 1.419 . S
C3574 C3575 1.391 . S
C3574 C3578 1.397 . S
C3575 C3570 1.391 . S
C3575 C3574 1.391 . S
C3575 C3576 1.399 . S
C3576 C3575 1.399 . S
C3576 C3577 1.396 . S
C3576 C3579 1.453 . S
C3576 C3580 1.684 . S
C3577 C3567 1.723 . S
C3577 C3576 1.396 . S
C3577 C3578 1.394 . S
C3578 C3548 1.723 . S
C3578 C3574 1.397 . S
C3578 C3577 1.394 . S
C3579 H3551 0.982 . S
C3579 H3555 0.979 . S
C3579 H3556 0.977 . S
C3579 C3576 1.453 . S
C3580 H3552 0.979 . S
C3580 H3553 0.980 . S
C3580 H3554 0.983 . S
C3580 C3576 1.684 . S
H3581 C3599 0.948 . S
H3582 C3540 0.948 . S
H3583 C3558 0.979 . S
H3584 C3558 0.980 . S
H3585 C3558 0.983 . S
H3586 C3557 0.982 . S
H3587 C3557 0.979 . S
H3588 C3557 0.977 . S
H3589 C3559 0.948 . S
H3590 C3561 0.947 . S
H3591 C3562 0.948 . S
H3592 C3568 0.982 . S
H3593 C3568 0.979 . S
H3594 C3568 0.977 . S
H3595 C3569 0.979 . S
H3596 C3569 0.980 1_554 S
H3597 C3569 0.983 . S
H3598 C3542 0.947 . S
C3599 C3542 1.392 . S
C3599 C3543 1.419 . S
C3599 H3581 0.948 . S
C3600 C3601 1.391 . S
C3600 C3604 1.391 . S
C3600 H3642 0.948 . S
C3601 C3600 1.391 . S
C3601 C3602 1.391 . S
C3602 C3601 1.391 . S
C3602 H3658 0.947 1_556 S
C3602 C3659 1.395 1_556 S
C3603 C3604 1.391 . S
C3603 C3607 1.397 . S
C3603 C3659 1.384 1_556 S
C3604 C3600 1.391 . S
C3604 C3603 1.391 . S
C3604 C3605 1.399 . S
C3605 C3604 1.399 . S
C3605 C3608 1.396 . S
C3605 C3617 1.453 . S
C3605 C3618 1.684 . S
H3606 C3630 0.948 . S
C3607 C3603 1.397 . S
C3607 C3608 1.394 . S
C3607 C3626 1.723 1_556 S
C3608 C3605 1.396 . S
C3608 C3607 1.394 . S
C3608 C3638 1.723 . S
H3609 C3632 0.947 . S
H3610 C3633 0.948 . S
H3611 C3639 0.982 . S
H3612 C3640 0.979 . S
H3613 C3640 0.980 . S
H3614 C3640 0.963 1_556 S
H3615 C3639 0.979 . S
H3616 C3639 1.024 . S
C3617 C3605 1.453 . S
C3617 H3646 0.982 . S
C3617 H3647 0.979 . S
C3617 H3648 0.977 . S
C3618 C3605 1.684 . S
C3618 H3643 0.979 . S
C3618 H3644 0.980 . S
C3618 H3645 0.983 . S
C3619 C3620 1.391 . S
C3619 C3624 1.391 . S
C3619 H3649 0.948 . S
C3620 C3619 1.391 . S
C3620 C3621 1.391 . S
C3621 C3620 1.391 . S
C3621 C3622 1.392 . S
C3621 H3650 0.947 . S
C3622 C3621 1.392 . S
C3622 C3623 1.419 . S
C3622 H3651 0.948 . S
C3623 C3622 1.419 . S
C3623 C3624 1.391 . S
C3623 C3627 1.397 . S
C3624 C3619 1.391 . S
C3624 C3623 1.391 . S
C3624 C3625 1.399 . S
C3625 C3624 1.399 . S
C3625 C3626 1.396 . S
C3625 C3628 1.453 . S
C3625 C3629 1.684 . S
C3626 C3607 1.723 1_554 S
C3626 C3625 1.396 . S
C3626 C3627 1.394 . S
C3627 C3623 1.397 . S
C3627 C3626 1.394 . S
C3627 C3637 1.723 1_554 S
C3628 C3625 1.453 . S
C3628 H3652 0.982 . S
C3628 H3653 0.979 . S
C3628 H3654 0.977 . S
C3629 C3625 1.684 . S
C3629 H3655 0.979 . S
C3629 H3656 0.980 . S
C3629 H3657 0.983 . S
C3630 H3606 0.948 . S
C3630 C3631 1.391 . S
C3630 C3635 1.391 . S
C3631 C3630 1.391 . S
C3631 C3632 1.391 . S
C3632 H3609 0.947 . S
C3632 C3631 1.391 . S
C3632 C3633 1.392 . S
C3633 H3610 0.948 . S
C3633 C3632 1.392 . S
C3633 C3634 1.419 . S
C3634 C3633 1.419 . S
C3634 C3635 1.391 . S
C3634 C3638 1.397 . S
C3635 C3630 1.391 . S
C3635 C3634 1.391 . S
C3635 C3636 1.399 . S
C3636 C3635 1.399 . S
C3636 C3637 1.396 . S
C3636 C3639 1.453 . S
C3636 C3640 1.684 1_556 S
C3637 C3627 1.723 1_556 S
C3637 C3636 1.396 . S
C3637 C3638 1.394 . S
C3638 C3608 1.723 . S
C3638 C3634 1.397 . S
C3638 C3637 1.394 . S
C3639 H3611 0.982 . S
C3639 H3615 0.979 . S
C3639 H3616 1.024 . S
C3639 C3636 1.453 . S
C3640 H3612 0.979 . S
C3640 H3613 0.980 . S
C3640 H3614 0.963 1_554 S
C3640 C3636 1.684 1_554 S
H3641 C3659 0.981 . S
H3642 C3600 0.948 . S
H3643 C3618 0.979 . S
H3644 C3618 0.980 . S
H3645 C3618 0.983 . S
H3646 C3617 0.982 . S
H3647 C3617 0.979 . S
H3648 C3617 0.977 . S
H3649 C3619 0.948 . S
H3650 C3621 0.947 . S
H3651 C3622 0.948 . S
H3652 C3628 0.982 . S
H3653 C3628 0.979 . S
H3654 C3628 0.977 . S
H3655 C3629 0.979 . S
H3656 C3629 0.980 . S
H3657 C3629 0.983 . S
H3658 C3602 0.947 1_554 S
C3659 C3602 1.395 1_554 S
C3659 C3603 1.384 1_554 S
C3659 H3641 0.981 . S
C3660 C3661 1.391 . S
C3660 C3664 1.391 . S
C3660 H3702 0.948 . S
C3661 C3660 1.391 . S
C3661 C3662 1.391 . S
C3662 C3661 1.391 . S
C3662 H3718 0.947 . S
C3662 C3719 1.392 . S
C3663 C3664 1.391 . S
C3663 C3667 1.397 . S
C3663 C3719 1.419 . S
C3664 C3660 1.391 . S
C3664 C3663 1.391 . S
C3664 C3665 1.399 . S
C3665 C3664 1.399 . S
C3665 C3668 1.396 . S
C3665 C3677 1.453 . S
C3665 C3678 1.684 . S
H3666 C3690 0.948 . S
C3667 C3663 1.397 . S
C3667 C3668 1.394 . S
C3667 C3686 1.723 . S
C3668 C3665 1.396 . S
C3668 C3667 1.394 . S
C3668 C3698 1.723 . S
H3669 C3692 0.947 . S
H3670 C3693 0.948 . S
H3671 C3699 0.982 . S
H3672 C3700 0.979 . S
H3673 C3700 0.980 . S
H3674 C3700 0.983 . S
H3675 C3699 0.979 . S
H3676 C3699 0.977 . S
C3677 C3665 1.453 . S
C3677 H3706 0.982 . S
C3677 H3707 0.979 . S
C3677 H3708 0.977 . S
C3678 C3665 1.684 . S
C3678 H3703 0.979 . S
C3678 H3704 0.980 . S
C3678 H3705 0.983 . S
C3679 C3680 1.391 . S
C3679 C3684 1.391 . S
C3679 H3709 0.948 . S
C3680 C3679 1.391 . S
C3680 C3681 1.391 . S
C3681 C3680 1.391 . S
C3681 C3682 1.392 . S
C3681 H3710 0.947 . S
C3682 C3681 1.392 . S
C3682 C3683 1.419 . S
C3682 H3711 0.948 . S
C3683 C3682 1.419 . S
C3683 C3684 1.391 . S
C3683 C3687 1.397 . S
C3684 C3679 1.391 . S
C3684 C3683 1.391 . S
C3684 C3685 1.399 . S
C3685 C3684 1.399 . S
C3685 C3686 1.396 . S
C3685 C3688 1.453 . S
C3685 C3689 1.684 . S
C3686 C3667 1.723 . S
C3686 C3685 1.396 . S
C3686 C3687 1.394 . S
C3687 C3683 1.397 . S
C3687 C3686 1.394 . S
C3687 C3697 1.723 . S
C3688 C3685 1.453 . S
C3688 H3712 0.982 . S
C3688 H3713 0.979 . S
C3688 H3714 0.977 . S
C3689 C3685 1.684 . S
C3689 H3715 0.979 . S
C3689 H3716 0.980 . S
C3689 H3717 0.983 . S
C3690 H3666 0.948 . S
C3690 C3691 1.391 . S
C3690 C3695 1.391 . S
C3691 C3690 1.391 . S
C3691 C3692 1.391 . S
C3692 H3669 0.947 . S
C3692 C3691 1.391 . S
C3692 C3693 1.392 . S
C3693 H3670 0.948 . S
C3693 C3692 1.392 . S
C3693 C3694 1.419 . S
C3694 C3693 1.419 . S
C3694 C3695 1.391 . S
C3694 C3698 1.397 . S
C3695 C3690 1.391 . S
C3695 C3694 1.391 . S
C3695 C3696 1.399 . S
C3696 C3695 1.399 . S
C3696 C3697 1.396 . S
C3696 C3699 1.453 . S
C3696 C3700 1.684 . S
C3697 C3687 1.723 . S
C3697 C3696 1.396 . S
C3697 C3698 1.394 . S
C3698 C3668 1.723 . S
C3698 C3694 1.397 . S
C3698 C3697 1.394 . S
C3699 H3671 0.982 . S
C3699 H3675 0.979 . S
C3699 H3676 0.977 . S
C3699 C3696 1.453 . S
C3700 H3672 0.979 . S
C3700 H3673 0.980 . S
C3700 H3674 0.983 . S
C3700 C3696 1.684 . S
H3701 C3719 0.948 . S
H3702 C3660 0.948 . S
H3703 C3678 0.979 . S
H3704 C3678 0.980 . S
H3705 C3678 0.983 . S
H3706 C3677 0.982 . S
H3707 C3677 0.979 . S
H3708 C3677 0.977 . S
H3709 C3679 0.948 . S
H3710 C3681 0.947 . S
H3711 C3682 0.948 . S
H3712 C3688 0.982 . S
H3713 C3688 0.979 . S
H3714 C3688 0.977 . S
H3715 C3689 0.979 . S
H3716 C3689 0.980 . S
H3717 C3689 0.983 . S
H3718 C3662 0.947 . S
C3719 C3662 1.392 . S
C3719 C3663 1.419 . S
C3719 H3701 0.948 . S
C3720 C3721 1.391 . S
C3720 C3724 1.391 . S
C3720 H3762 0.948 . S
C3721 C3720 1.391 . S
C3721 C3722 1.391 . S
C3722 C3721 1.391 . S
C3722 H3778 0.947 . S
C3722 C3779 1.392 . S
C3723 C3724 1.391 . S
C3723 C3727 1.397 . S
C3723 C3779 1.419 . S
C3724 C3720 1.391 . S
C3724 C3723 1.391 . S
C3724 C3725 1.399 . S
C3725 C3724 1.399 . S
C3725 C3728 1.396 . S
C3725 C3737 1.453 . S
C3725 C3738 1.684 . S
H3726 C3750 0.948 . S
C3727 C3723 1.397 . S
C3727 C3728 1.394 . S
C3727 C3746 1.723 . S
C3728 C3725 1.396 . S
C3728 C3727 1.394 . S
C3728 C3758 1.723 . S
H3729 C3752 0.947 . S
H3730 C3753 0.948 . S
H3731 C3759 0.982 . S
H3732 C3760 0.979 . S
H3733 C3760 0.980 . S
H3734 C3760 0.983 . S
H3735 C3759 0.979 . S
H3736 C3759 0.977 . S
C3737 C3725 1.453 . S
C3737 H3766 0.982 . S
C3737 H3767 0.979 . S
C3737 H3768 0.977 . S
C3738 C3725 1.684 . S
C3738 H3763 0.979 . S
C3738 H3764 0.980 . S
C3738 H3765 0.983 . S
C3739 C3740 1.391 . S
C3739 C3744 1.391 . S
C3739 H3769 0.948 . S
C3740 C3739 1.391 . S
C3740 C3741 1.391 . S
C3741 C3740 1.391 . S
C3741 C3742 1.392 . S
C3741 H3770 0.947 . S
C3742 C3741 1.392 . S
C3742 C3743 1.419 . S
C3742 H3771 0.948 . S
C3743 C3742 1.419 . S
C3743 C3744 1.391 . S
C3743 C3747 1.397 . S
C3744 C3739 1.391 . S
C3744 C3743 1.391 . S
C3744 C3745 1.399 . S
C3745 C3744 1.399 . S
C3745 C3746 1.396 . S
C3745 C3748 1.453 . S
C3745 C3749 1.684 . S
C3746 C3727 1.723 . S
C3746 C3745 1.396 . S
C3746 C3747 1.394 . S
C3747 C3743 1.397 . S
C3747 C3746 1.394 . S
C3747 C3757 1.723 . S
C3748 C3745 1.453 . S
C3748 H3772 0.982 . S
C3748 H3773 0.979 . S
C3748 H3774 0.977 . S
C3749 C3745 1.684 . S
C3749 H3775 0.979 . S
C3749 H3776 0.980 . S
C3749 H3777 0.983 . S
C3750 H3726 0.948 . S
C3750 C3751 1.391 . S
C3750 C3755 1.391 . S
C3751 C3750 1.391 . S
C3751 C3752 1.391 . S
C3752 H3729 0.947 . S
C3752 C3751 1.391 . S
C3752 C3753 1.392 . S
C3753 H3730 0.948 . S
C3753 C3752 1.392 . S
C3753 C3754 1.419 . S
C3754 C3753 1.419 . S
C3754 C3755 1.391 . S
C3754 C3758 1.397 . S
C3755 C3750 1.391 . S
C3755 C3754 1.391 . S
C3755 C3756 1.399 . S
C3756 C3755 1.399 . S
C3756 C3757 1.396 . S
C3756 C3759 1.453 . S
C3756 C3760 1.684 . S
C3757 C3747 1.723 . S
C3757 C3756 1.396 . S
C3757 C3758 1.394 . S
C3758 C3728 1.723 . S
C3758 C3754 1.397 . S
C3758 C3757 1.394 . S
C3759 H3731 0.982 . S
C3759 H3735 0.979 . S
C3759 H3736 0.977 . S
C3759 C3756 1.453 . S
C3760 H3732 0.979 . S
C3760 H3733 0.980 . S
C3760 H3734 0.983 . S
C3760 C3756 1.684 . S
H3761 C3779 0.948 . S
H3762 C3720 0.948 . S
H3763 C3738 0.979 . S
H3764 C3738 0.980 . S
H3765 C3738 0.983 . S
H3766 C3737 0.982 . S
H3767 C3737 0.979 . S
H3768 C3737 0.977 . S
H3769 C3739 0.948 . S
H3770 C3741 0.947 . S
H3771 C3742 0.948 . S
H3772 C3748 0.982 . S
H3773 C3748 0.979 . S
H3774 C3748 0.977 . S
H3775 C3749 0.979 . S
H3776 C3749 0.980 . S
H3777 C3749 0.983 . S
H3778 C3722 0.947 . S
C3779 C3722 1.392 . S
C3779 C3723 1.419 . S
C3779 H3761 0.948 . S
C3780 C3781 1.391 . S
C3780 C3784 1.391 . S
C3780 H3822 0.948 . S
C3781 C3780 1.391 . S
C3781 C3782 1.391 . S
C3782 C3781 1.391 . S
C3782 H3838 0.947 . S
C3782 C3839 1.392 . S
C3783 C3784 1.391 . S
C3783 C3787 1.397 . S
C3783 C3839 1.419 . S
C3784 C3780 1.391 . S
C3784 C3783 1.391 . S
C3784 C3785 1.399 . S
C3785 C3784 1.399 . S
C3785 C3788 1.396 . S
C3785 C3797 1.453 . S
C3785 C3798 1.684 . S
H3786 C3810 0.948 . S
C3787 C3783 1.397 . S
C3787 C3788 1.394 . S
C3787 C3806 1.723 . S
C3788 C3785 1.396 . S
C3788 C3787 1.394 . S
C3788 C3818 1.723 . S
H3789 C3812 0.947 . S
H3790 C3813 0.948 . S
H3791 C3819 0.982 . S
H3792 C3820 0.979 . S
H3793 C3820 0.980 . S
H3794 C3820 0.983 . S
H3795 C3819 0.979 . S
H3796 C3819 0.977 . S
C3797 C3785 1.453 . S
C3797 H3826 0.982 . S
C3797 H3827 0.979 . S
C3797 H3828 0.977 . S
C3798 C3785 1.684 . S
C3798 H3823 0.979 . S
C3798 H3824 0.980 . S
C3798 H3825 0.983 . S
C3799 C3800 1.391 . S
C3799 C3804 1.391 . S
C3799 H3829 0.948 . S
C3800 C3799 1.391 . S
C3800 C3801 1.391 . S
C3801 C3800 1.391 . S
C3801 C3802 1.392 . S
C3801 H3830 0.947 . S
C3802 C3801 1.392 . S
C3802 C3803 1.419 . S
C3802 H3831 0.948 . S
C3803 C3802 1.419 . S
C3803 C3804 1.391 . S
C3803 C3807 1.397 . S
C3804 C3799 1.391 . S
C3804 C3803 1.391 . S
C3804 C3805 1.399 . S
C3805 C3804 1.399 . S
C3805 C3806 1.396 . S
C3805 C3808 1.453 . S
C3805 C3809 1.684 . S
C3806 C3787 1.723 . S
C3806 C3805 1.396 . S
C3806 C3807 1.394 . S
C3807 C3803 1.397 . S
C3807 C3806 1.394 . S
C3807 C3817 1.723 . S
C3808 C3805 1.453 . S
C3808 H3832 0.982 . S
C3808 H3833 0.979 . S
C3808 H3834 0.977 . S
C3809 C3805 1.684 . S
C3809 H3835 0.979 . S
C3809 H3836 0.980 . S
C3809 H3837 0.983 . S
C3810 H3786 0.948 . S
C3810 C3811 1.391 . S
C3810 C3815 1.391 . S
C3811 C3810 1.391 . S
C3811 C3812 1.391 . S
C3812 H3789 0.947 . S
C3812 C3811 1.391 . S
C3812 C3813 1.392 . S
C3813 H3790 0.948 . S
C3813 C3812 1.392 . S
C3813 C3814 1.419 . S
C3814 C3813 1.419 . S
C3814 C3815 1.391 . S
C3814 C3818 1.397 . S
C3815 C3810 1.391 . S
C3815 C3814 1.391 . S
C3815 C3816 1.399 . S
C3816 C3815 1.399 . S
C3816 C3817 1.396 . S
C3816 C3819 1.453 . S
C3816 C3820 1.684 . S
C3817 C3807 1.723 . S
C3817 C3816 1.396 . S
C3817 C3818 1.394 . S
C3818 C3788 1.723 . S
C3818 C3814 1.397 . S
C3818 C3817 1.394 . S
C3819 H3791 0.982 . S
C3819 H3795 0.979 . S
C3819 H3796 0.977 . S
C3819 C3816 1.453 . S
C3820 H3792 0.979 . S
C3820 H3793 0.980 . S
C3820 H3794 0.983 . S
C3820 C3816 1.684 . S
H3821 C3839 0.948 . S
H3822 C3780 0.948 . S
H3823 C3798 0.979 . S
H3824 C3798 0.980 . S
H3825 C3798 0.983 . S
H3826 C3797 0.982 . S
H3827 C3797 0.979 . S
H3828 C3797 0.977 . S
H3829 C3799 0.948 . S
H3830 C3801 0.947 . S
H3831 C3802 0.948 . S
H3832 C3808 0.982 . S
H3833 C3808 0.979 . S
H3834 C3808 0.977 . S
H3835 C3809 0.979 . S
H3836 C3809 0.980 . S
H3837 C3809 0.983 . S
H3838 C3782 0.947 . S
C3839 C3782 1.392 . S
C3839 C3783 1.419 . S
C3839 H3821 0.948 . S
C3840 C3841 1.391 . S
C3840 C3844 1.391 . S
C3840 H3882 0.948 . S
C3841 C3840 1.391 . S
C3841 C3842 1.391 . S
C3842 C3841 1.391 . S
C3842 H3898 0.947 . S
C3842 C3899 1.392 . S
C3843 C3844 1.391 . S
C3843 C3847 1.397 . S
C3843 C3899 1.419 . S
C3844 C3840 1.391 . S
C3844 C3843 1.391 . S
C3844 C3845 1.399 . S
C3845 C3844 1.399 . S
C3845 C3848 1.396 . S
C3845 C3857 1.453 . S
C3845 C3858 1.632 1_565 S
H3846 C3870 0.948 . S
C3847 C3843 1.397 . S
C3847 C3848 1.394 . S
C3847 C3866 1.723 . S
C3848 C3845 1.396 . S
C3848 C3847 1.394 . S
C3848 C3878 1.723 1_565 S
H3849 C3872 0.947 . S
H3850 C3873 0.948 . S
H3851 C3879 0.982 . S
H3852 C3880 0.979 . S
H3853 C3880 0.980 . S
H3854 C3880 0.983 . S
H3855 C3879 0.979 . S
H3856 C3879 0.977 . S
C3857 C3845 1.453 . S
C3857 H3886 0.982 . S
C3857 H3887 0.979 . S
C3857 H3888 0.977 1_565 S
C3858 C3845 1.632 1_545 S
C3858 H3883 1.007 1_545 S
C3858 H3884 1.042 . S
C3858 H3885 0.968 1_545 S
C3859 C3860 1.391 . S
C3859 C3864 1.391 . S
C3859 H3889 0.948 . S
C3860 C3859 1.391 . S
C3860 C3861 1.391 1_565 S
C3861 C3860 1.391 1_545 S
C3861 C3862 1.392 . S
C3861 H3890 0.947 . S
C3862 C3861 1.392 . S
C3862 C3863 1.419 1_545 S
C3862 H3891 0.948 . S
C3863 C3862 1.419 1_565 S
C3863 C3864 1.391 . S
C3863 C3867 1.401 . S
C3864 C3859 1.391 . S
C3864 C3863 1.391 . S
C3864 C3865 1.399 . S
C3865 C3864 1.399 . S
C3865 C3866 1.396 . S
C3865 C3868 1.453 . S
C3865 C3869 1.684 . S
C3866 C3847 1.723 . S
C3866 C3865 1.396 . S
C3866 C3867 1.409 . S
C3867 C3863 1.401 . S
C3867 C3866 1.409 . S
C3867 C3877 1.707 1_565 S
C3868 C3865 1.453 . S
C3868 H3892 0.982 . S
C3868 H3893 0.979 . S
C3868 H3894 0.977 . S
C3869 C3865 1.684 . S
C3869 H3895 0.979 . S
C3869 H3896 0.980 . S
C3869 H3897 0.983 . S
C3870 H3846 0.948 . S
C3870 C3871 1.391 . S
C3870 C3875 1.391 . S
C3871 C3870 1.391 . S
C3871 C3872 1.391 . S
C3872 H3849 0.947 . S
C3872 C3871 1.391 . S
C3872 C3873 1.392 . S
C3873 H3850 0.948 . S
C3873 C3872 1.392 . S
C3873 C3874 1.419 . S
C3874 C3873 1.419 . S
C3874 C3875 1.391 . S
C3874 C3878 1.397 . S
C3875 C3870 1.391 . S
C3875 C3874 1.391 . S
C3875 C3876 1.399 . S
C3876 C3875 1.399 . S
C3876 C3877 1.396 . S
C3876 C3879 1.453 . S
C3876 C3880 1.684 . S
C3877 C3867 1.707 1_545 S
C3877 C3876 1.396 . S
C3877 C3878 1.394 . S
C3878 C3848 1.723 1_545 S
C3878 C3874 1.397 . S
C3878 C3877 1.394 . S
C3879 H3851 0.982 . S
C3879 H3855 0.979 . S
C3879 H3856 0.977 . S
C3879 C3876 1.453 . S
C3880 H3852 0.979 . S
C3880 H3853 0.980 . S
C3880 H3854 0.983 . S
C3880 C3876 1.684 . S
H3881 C3899 0.948 . S
H3882 C3840 0.948 . S
H3883 C3858 1.007 1_565 S
H3884 C3858 1.042 . S
H3885 C3858 0.968 1_565 S
H3886 C3857 0.982 . S
H3887 C3857 0.979 . S
H3888 C3857 0.977 1_545 S
H3889 C3859 0.948 . S
H3890 C3861 0.947 . S
H3891 C3862 0.948 . S
H3892 C3868 0.982 . S
H3893 C3868 0.979 . S
H3894 C3868 0.977 . S
H3895 C3869 0.979 . S
H3896 C3869 0.980 . S
H3897 C3869 0.983 . S
H3898 C3842 0.947 . S
C3899 C3842 1.392 . S
C3899 C3843 1.419 . S
C3899 H3881 0.948 . S
C3900 C3901 1.391 . S
C3900 C3904 1.391 . S
C3900 H3942 0.948 . S
C3901 C3900 1.391 . S
C3901 C3902 1.391 . S
C3902 C3901 1.391 . S
C3902 H3958 0.947 . S
C3902 C3959 1.392 . S
C3903 C3904 1.391 . S
C3903 C3907 1.397 . S
C3903 C3959 1.419 . S
C3904 C3900 1.391 . S
C3904 C3903 1.391 . S
C3904 C3905 1.399 . S
C3905 C3904 1.399 . S
C3905 C3908 1.396 . S
C3905 C3917 1.453 . S
C3905 C3918 1.684 . S
H3906 C3930 0.948 . S
C3907 C3903 1.397 . S
C3907 C3908 1.394 . S
C3907 C3926 1.723 . S
C3908 C3905 1.396 . S
C3908 C3907 1.394 . S
C3908 C3938 1.723 . S
H3909 C3932 0.947 . S
H3910 C3933 0.948 . S
H3911 C3939 0.982 . S
H3912 C3940 0.979 . S
H3913 C3940 0.980 . S
H3914 C3940 0.983 . S
H3915 C3939 0.979 . S
H3916 C3939 0.977 . S
C3917 C3905 1.453 . S
C3917 H3946 0.982 . S
C3917 H3947 0.979 . S
C3917 H3948 0.977 . S
C3918 C3905 1.684 . S
C3918 H3943 0.979 . S
C3918 H3944 0.980 . S
C3918 H3945 0.983 . S
C3919 C3920 1.391 . S
C3919 C3924 1.391 . S
C3919 H3949 0.948 . S
C3920 C3919 1.391 . S
C3920 C3921 1.391 . S
C3921 C3920 1.391 . S
C3921 C3922 1.392 . S
C3921 H3950 0.947 . S
C3922 C3921 1.392 . S
C3922 C3923 1.419 . S
C3922 H3951 0.948 . S
C3923 C3922 1.419 . S
C3923 C3924 1.391 . S
C3923 C3927 1.397 . S
C3924 C3919 1.391 . S
C3924 C3923 1.391 . S
C3924 C3925 1.399 . S
C3925 C3924 1.399 . S
C3925 C3926 1.396 . S
C3925 C3928 1.453 . S
C3925 C3929 1.684 . S
C3926 C3907 1.723 . S
C3926 C3925 1.396 . S
C3926 C3927 1.394 . S
C3927 C3923 1.397 . S
C3927 C3926 1.394 . S
C3927 C3937 1.723 . S
C3928 C3925 1.453 . S
C3928 H3952 0.982 . S
C3928 H3953 0.979 . S
C3928 H3954 0.977 . S
C3929 C3925 1.684 . S
C3929 H3955 0.979 . S
C3929 H3956 0.980 . S
C3929 H3957 0.983 . S
C3930 H3906 0.948 . S
C3930 C3931 1.391 . S
C3930 C3935 1.391 . S
C3931 C3930 1.391 . S
C3931 C3932 1.391 . S
C3932 H3909 0.947 . S
C3932 C3931 1.391 . S
C3932 C3933 1.392 . S
C3933 H3910 0.948 . S
C3933 C3932 1.392 . S
C3933 C3934 1.419 . S
C3934 C3933 1.419 . S
C3934 C3935 1.391 . S
C3934 C3938 1.397 . S
C3935 C3930 1.391 . S
C3935 C3934 1.391 . S
C3935 C3936 1.399 . S
C3936 C3935 1.399 . S
C3936 C3937 1.396 . S
C3936 C3939 1.453 . S
C3936 C3940 1.684 . S
C3937 C3927 1.723 . S
C3937 C3936 1.396 . S
C3937 C3938 1.394 . S
C3938 C3908 1.723 . S
C3938 C3934 1.397 . S
C3938 C3937 1.394 . S
C3939 H3911 0.982 . S
C3939 H3915 0.979 . S
C3939 H3916 0.977 . S
C3939 C3936 1.453 . S
C3940 H3912 0.979 . S
C3940 H3913 0.980 . S
C3940 H3914 0.983 . S
C3940 C3936 1.684 . S
H3941 C3959 0.948 . S
H3942 C3900 0.948 . S
H3943 C3918 0.979 . S
H3944 C3918 0.980 . S
H3945 C3918 0.983 . S
H3946 C3917 0.982 . S
H3947 C3917 0.979 . S
H3948 C3917 0.977 . S
H3949 C3919 0.948 . S
H3950 C3921 0.947 . S
H3951 C3922 0.948 . S
H3952 C3928 0.982 . S
H3953 C3928 0.979 . S
H3954 C3928 0.977 . S
H3955 C3929 0.979 . S
H3956 C3929 0.980 . S
H3957 C3929 0.983 . S
H3958 C3902 0.947 . S
C3959 C3902 1.392 . S
C3959 C3903 1.419 . S
C3959 H3941 0.948 . S
C3960 C3961 1.391 . S
C3960 C3964 1.391 . S
C3960 H4002 0.948 . S
C3961 C3960 1.391 . S
C3961 C3962 1.391 . S
C3962 C3961 1.391 . S
C3962 H4018 0.947 . S
C3962 C4019 1.392 . S
C3963 C3964 1.391 . S
C3963 C3967 1.397 . S
C3963 C4019 1.419 . S
C3964 C3960 1.391 . S
C3964 C3963 1.391 . S
C3964 C3965 1.399 . S
C3965 C3964 1.399 . S
C3965 C3968 1.396 . S
C3965 C3977 1.453 . S
C3965 C3978 1.630 1_545 S
H3966 C3990 0.948 . S
C3967 C3963 1.397 . S
C3967 C3968 1.394 . S
C3967 C3986 1.723 . S
C3968 C3965 1.396 . S
C3968 C3967 1.394 . S
C3968 C3998 1.723 1_545 S
H3969 C3992 0.947 . S
H3970 C3993 0.948 . S
H3971 C3999 0.982 . S
H3972 C4000 0.979 . S
H3973 C4000 0.980 . S
H3974 C4000 0.983 . S
H3975 C3999 0.979 . S
H3976 C3999 0.977 . S
C3977 C3965 1.453 . S
C3977 H4006 0.982 . S
C3977 H4007 0.979 . S
C3977 H4008 0.977 1_545 S
C3978 C3965 1.630 1_565 S
C3978 H4003 1.008 1_565 S
C3978 H4004 1.045 . S
C3978 H4005 0.967 1_565 S
C3979 C3980 1.391 . S
C3979 C3984 1.391 . S
C3979 H4009 0.948 . S
C3980 C3979 1.391 . S
C3980 C3981 1.391 1_545 S
C3981 C3980 1.391 1_565 S
C3981 C3982 1.392 . S
C3981 H4010 0.947 . S
C3982 C3981 1.392 . S
C3982 C3983 1.419 1_565 S
C3982 H4011 0.948 . S
C3983 C3982 1.419 1_545 S
C3983 C3984 1.391 . S
C3983 C3987 1.401 . S
C3984 C3979 1.391 . S
C3984 C3983 1.391 . S
C3984 C3985 1.399 . S
C3985 C3984 1.399 . S
C3985 C3986 1.396 . S
C3985 C3988 1.453 . S
C3985 C3989 1.684 . S
C3986 C3967 1.723 . S
C3986 C3985 1.396 . S
C3986 C3987 1.410 . S
C3987 C3983 1.401 . S
C3987 C3986 1.410 . S
C3987 C3997 1.705 1_545 S
C3988 C3985 1.453 . S
C3988 H4012 0.982 . S
C3988 H4013 0.979 . S
C3988 H4014 0.977 . S
C3989 C3985 1.684 . S
C3989 H4015 0.979 . S
C3989 H4016 0.980 . S
C3989 H4017 0.983 . S
C3990 H3966 0.948 . S
C3990 C3991 1.391 . S
C3990 C3995 1.391 . S
C3991 C3990 1.391 . S
C3991 C3992 1.391 . S
C3992 H3969 0.947 . S
C3992 C3991 1.391 . S
C3992 C3993 1.392 . S
C3993 H3970 0.948 . S
C3993 C3992 1.392 . S
C3993 C3994 1.419 . S
C3994 C3993 1.419 . S
C3994 C3995 1.391 . S
C3994 C3998 1.397 . S
C3995 C3990 1.391 . S
C3995 C3994 1.391 . S
C3995 C3996 1.399 . S
C3996 C3995 1.399 . S
C3996 C3997 1.396 . S
C3996 C3999 1.453 . S
C3996 C4000 1.684 . S
C3997 C3987 1.705 1_565 S
C3997 C3996 1.396 . S
C3997 C3998 1.394 . S
C3998 C3968 1.723 1_565 S
C3998 C3994 1.397 . S
C3998 C3997 1.394 . S
C3999 H3971 0.982 . S
C3999 H3975 0.979 . S
C3999 H3976 0.977 . S
C3999 C3996 1.453 . S
C4000 H3972 0.979 . S
C4000 H3973 0.980 . S
C4000 H3974 0.983 . S
C4000 C3996 1.684 . S
H4001 C4019 0.948 . S
H4002 C3960 0.948 . S
H4003 C3978 1.008 1_545 S
H4004 C3978 1.045 . S
H4005 C3978 0.967 1_545 S
H4006 C3977 0.982 . S
H4007 C3977 0.979 . S
H4008 C3977 0.977 1_565 S
H4009 C3979 0.948 . S
H4010 C3981 0.947 . S
H4011 C3982 0.948 . S
H4012 C3988 0.982 . S
H4013 C3988 0.979 . S
H4014 C3988 0.977 . S
H4015 C3989 0.979 . S
H4016 C3989 0.980 . S
H4017 C3989 0.983 . S
H4018 C3962 0.947 . S
C4019 C3962 1.392 . S
C4019 C3963 1.419 . S
C4019 H4001 0.948 . S
C4020 C4021 1.391 . S
C4020 C4024 1.391 . S
C4020 H4062 0.948 . S
C4021 C4020 1.391 . S
C4021 C4022 1.391 . S
C4022 C4021 1.391 . S
C4022 H4078 0.947 . S
C4022 C4079 1.392 . S
C4023 C4024 1.391 . S
C4023 C4027 1.397 . S
C4023 C4079 1.419 . S
C4024 C4020 1.391 . S
C4024 C4023 1.391 . S
C4024 C4025 1.399 . S
C4025 C4024 1.399 . S
C4025 C4028 1.396 . S
C4025 C4037 1.453 . S
C4025 C4038 1.684 . S
H4026 C4050 0.948 . S
C4027 C4023 1.397 . S
C4027 C4028 1.394 . S
C4027 C4046 1.723 . S
C4028 C4025 1.396 . S
C4028 C4027 1.394 . S
C4028 C4058 1.723 . S
H4029 C4052 0.947 . S
H4030 C4053 0.948 . S
H4031 C4059 0.982 . S
H4032 C4060 0.979 . S
H4033 C4060 0.980 . S
H4034 C4060 0.983 . S
H4035 C4059 0.979 . S
H4036 C4059 0.977 . S
C4037 C4025 1.453 . S
C4037 H4066 0.982 . S
C4037 H4067 0.979 . S
C4037 H4068 0.977 . S
C4038 C4025 1.684 . S
C4038 H4063 0.979 . S
C4038 H4064 0.980 . S
C4038 H4065 0.983 . S
C4039 C4040 1.391 . S
C4039 C4044 1.391 . S
C4039 H4069 0.948 . S
C4040 C4039 1.391 . S
C4040 C4041 1.391 . S
C4041 C4040 1.391 . S
C4041 C4042 1.392 . S
C4041 H4070 0.947 . S
C4042 C4041 1.392 . S
C4042 C4043 1.419 . S
C4042 H4071 0.948 . S
C4043 C4042 1.419 . S
C4043 C4044 1.391 . S
C4043 C4047 1.397 . S
C4044 C4039 1.391 . S
C4044 C4043 1.391 . S
C4044 C4045 1.399 . S
C4045 C4044 1.399 . S
C4045 C4046 1.396 . S
C4045 C4048 1.453 . S
C4045 C4049 1.684 . S
C4046 C4027 1.723 . S
C4046 C4045 1.396 . S
C4046 C4047 1.394 . S
C4047 C4043 1.397 . S
C4047 C4046 1.394 . S
C4047 C4057 1.723 . S
C4048 C4045 1.453 . S
C4048 H4072 0.982 . S
C4048 H4073 0.979 . S
C4048 H4074 0.977 . S
C4049 C4045 1.684 . S
C4049 H4075 0.979 . S
C4049 H4076 0.980 . S
C4049 H4077 0.983 . S
C4050 H4026 0.948 . S
C4050 C4051 1.391 . S
C4050 C4055 1.391 . S
C4051 C4050 1.391 . S
C4051 C4052 1.391 . S
C4052 H4029 0.947 . S
C4052 C4051 1.391 . S
C4052 C4053 1.392 . S
C4053 H4030 0.948 . S
C4053 C4052 1.392 . S
C4053 C4054 1.419 . S
C4054 C4053 1.419 . S
C4054 C4055 1.391 . S
C4054 C4058 1.397 . S
C4055 C4050 1.391 . S
C4055 C4054 1.391 . S
C4055 C4056 1.399 . S
C4056 C4055 1.399 . S
C4056 C4057 1.396 . S
C4056 C4059 1.453 . S
C4056 C4060 1.684 . S
C4057 C4047 1.723 . S
C4057 C4056 1.396 . S
C4057 C4058 1.394 . S
C4058 C4028 1.723 . S
C4058 C4054 1.397 . S
C4058 C4057 1.394 . S
C4059 H4031 0.982 . S
C4059 H4035 0.979 . S
C4059 H4036 0.977 . S
C4059 C4056 1.453 . S
C4060 H4032 0.979 . S
C4060 H4033 0.980 . S
C4060 H4034 0.983 . S
C4060 C4056 1.684 . S
H4061 C4079 0.948 . S
H4062 C4020 0.948 . S
H4063 C4038 0.979 . S
H4064 C4038 0.980 . S
H4065 C4038 0.983 . S
H4066 C4037 0.982 . S
H4067 C4037 0.979 . S
H4068 C4037 0.977 . S
H4069 C4039 0.948 . S
H4070 C4041 0.947 . S
H4071 C4042 0.948 . S
H4072 C4048 0.982 . S
H4073 C4048 0.979 . S
H4074 C4048 0.977 . S
H4075 C4049 0.979 . S
H4076 C4049 0.980 . S
H4077 C4049 0.983 . S
H4078 C4022 0.947 . S
C4079 C4022 1.392 . S
C4079 C4023 1.419 . S
C4079 H4061 0.948 . S
C4080 C4081 1.391 . S
C4080 C4084 1.391 . S
C4080 H4122 0.948 . S
C4081 C4080 1.391 . S
C4081 C4082 1.391 . S
C4082 C4081 1.391 . S
C4082 H4138 0.947 . S
C4082 C4139 1.392 . S
C4083 C4084 1.391 . S
C4083 C4087 1.397 . S
C4083 C4139 1.419 . S
C4084 C4080 1.391 . S
C4084 C4083 1.391 . S
C4084 C4085 1.399 . S
C4085 C4084 1.399 . S
C4085 C4088 1.396 . S
C4085 C4097 1.453 . S
C4085 C4098 1.684 . S
H4086 C4110 0.948 . S
C4087 C4083 1.397 . S
C4087 C4088 1.394 . S
C4087 C4106 1.723 . S
C4088 C4085 1.396 . S
C4088 C4087 1.394 . S
C4088 C4118 1.723 . S
H4089 C4112 0.947 . S
H4090 C4113 0.948 . S
H4091 C4119 0.982 . S
H4092 C4120 0.979 . S
H4093 C4120 0.980 . S
H4094 C4120 0.983 . S
H4095 C4119 0.979 . S
H4096 C4119 0.977 . S
C4097 C4085 1.453 . S
C4097 H4126 0.982 . S
C4097 H4127 0.979 . S
C4097 H4128 0.977 . S
C4098 C4085 1.684 . S
C4098 H4123 0.979 . S
C4098 H4124 0.980 . S
C4098 H4125 0.983 . S
C4099 C4100 1.391 . S
C4099 C4104 1.391 . S
C4099 H4129 0.948 . S
C4100 C4099 1.391 . S
C4100 C4101 1.391 . S
C4101 C4100 1.391 . S
C4101 C4102 1.392 . S
C4101 H4130 0.947 . S
C4102 C4101 1.392 . S
C4102 C4103 1.419 . S
C4102 H4131 0.948 . S
C4103 C4102 1.419 . S
C4103 C4104 1.391 . S
C4103 C4107 1.397 . S
C4104 C4099 1.391 . S
C4104 C4103 1.391 . S
C4104 C4105 1.399 . S
C4105 C4104 1.399 . S
C4105 C4106 1.396 . S
C4105 C4108 1.453 . S
C4105 C4109 1.684 . S
C4106 C4087 1.723 . S
C4106 C4105 1.396 . S
C4106 C4107 1.394 . S
C4107 C4103 1.397 . S
C4107 C4106 1.394 . S
C4107 C4117 1.723 . S
C4108 C4105 1.453 . S
C4108 H4132 0.982 . S
C4108 H4133 0.979 . S
C4108 H4134 0.977 . S
C4109 C4105 1.684 . S
C4109 H4135 0.979 . S
C4109 H4136 0.980 . S
C4109 H4137 0.983 . S
C4110 H4086 0.948 . S
C4110 C4111 1.391 . S
C4110 C4115 1.391 . S
C4111 C4110 1.391 . S
C4111 C4112 1.391 . S
C4112 H4089 0.947 . S
C4112 C4111 1.391 . S
C4112 C4113 1.392 . S
C4113 H4090 0.948 . S
C4113 C4112 1.392 . S
C4113 C4114 1.419 . S
C4114 C4113 1.419 . S
C4114 C4115 1.391 . S
C4114 C4118 1.397 . S
C4115 C4110 1.391 . S
C4115 C4114 1.391 . S
C4115 C4116 1.399 . S
C4116 C4115 1.399 . S
C4116 C4117 1.396 . S
C4116 C4119 1.453 . S
C4116 C4120 1.684 . S
C4117 C4107 1.723 . S
C4117 C4116 1.396 . S
C4117 C4118 1.394 . S
C4118 C4088 1.723 . S
C4118 C4114 1.397 . S
C4118 C4117 1.394 . S
C4119 H4091 0.982 . S
C4119 H4095 0.979 . S
C4119 H4096 0.977 . S
C4119 C4116 1.453 . S
C4120 H4092 0.979 . S
C4120 H4093 0.980 . S
C4120 H4094 0.983 . S
C4120 C4116 1.684 . S
H4121 C4139 0.948 . S
H4122 C4080 0.948 . S
H4123 C4098 0.979 . S
H4124 C4098 0.980 . S
H4125 C4098 0.983 . S
H4126 C4097 0.982 . S
H4127 C4097 0.979 . S
H4128 C4097 0.977 . S
H4129 C4099 0.948 . S
H4130 C4101 0.947 . S
H4131 C4102 0.948 . S
H4132 C4108 0.982 . S
H4133 C4108 0.979 . S
H4134 C4108 0.977 . S
H4135 C4109 0.979 . S
H4136 C4109 0.980 . S
H4137 C4109 0.983 . S
H4138 C4082 0.947 . S
C4139 C4082 1.392 . S
C4139 C4083 1.419 . S
C4139 H4121 0.948 . S
C4140 C4141 1.391 . S
C4140 C4144 1.391 . S
C4140 H4182 0.948 . S
C4141 C4140 1.391 . S
C4141 C4142 1.391 . S
C4142 C4141 1.391 . S
C4142 H4198 0.947 . S
C4142 C4199 1.392 . S
C4143 C4144 1.391 . S
C4143 C4147 1.397 . S
C4143 C4199 1.419 . S
C4144 C4140 1.391 . S
C4144 C4143 1.391 . S
C4144 C4145 1.399 . S
C4145 C4144 1.399 . S
C4145 C4148 1.396 . S
C4145 C4157 1.453 . S
C4145 C4158 1.684 . S
H4146 C4170 0.948 . S
C4147 C4143 1.397 . S
C4147 C4148 1.394 . S
C4147 C4166 1.723 . S
C4148 C4145 1.396 . S
C4148 C4147 1.394 . S
C4148 C4178 1.723 . S
H4149 C4172 0.947 . S
H4150 C4173 0.948 . S
H4151 C4179 0.982 . S
H4152 C4180 0.979 . S
H4153 C4180 0.980 . S
H4154 C4180 0.983 . S
H4155 C4179 0.979 . S
H4156 C4179 0.977 . S
C4157 C4145 1.453 . S
C4157 H4186 0.982 . S
C4157 H4187 0.979 . S
C4157 H4188 0.977 . S
C4158 C4145 1.684 . S
C4158 H4183 0.979 . S
C4158 H4184 0.980 . S
C4158 H4185 0.983 . S
C4159 C4160 1.391 . S
C4159 C4164 1.391 . S
C4159 H4189 0.948 . S
C4160 C4159 1.391 . S
C4160 C4161 1.391 . S
C4161 C4160 1.391 . S
C4161 C4162 1.392 . S
C4161 H4190 0.947 . S
C4162 C4161 1.392 . S
C4162 C4163 1.419 . S
C4162 H4191 0.948 . S
C4163 C4162 1.419 . S
C4163 C4164 1.391 . S
C4163 C4167 1.397 . S
C4164 C4159 1.391 . S
C4164 C4163 1.391 . S
C4164 C4165 1.399 . S
C4165 C4164 1.399 . S
C4165 C4166 1.396 . S
C4165 C4168 1.453 . S
C4165 C4169 1.684 . S
C4166 C4147 1.723 . S
C4166 C4165 1.396 . S
C4166 C4167 1.394 . S
C4167 C4163 1.397 . S
C4167 C4166 1.394 . S
C4167 C4177 1.723 . S
C4168 C4165 1.453 . S
C4168 H4192 0.982 . S
C4168 H4193 0.979 . S
C4168 H4194 0.977 . S
C4169 C4165 1.684 . S
C4169 H4195 0.979 . S
C4169 H4196 0.980 . S
C4169 H4197 0.983 . S
C4170 H4146 0.948 . S
C4170 C4171 1.391 . S
C4170 C4175 1.391 . S
C4171 C4170 1.391 . S
C4171 C4172 1.391 . S
C4172 H4149 0.947 . S
C4172 C4171 1.391 . S
C4172 C4173 1.392 . S
C4173 H4150 0.948 . S
C4173 C4172 1.392 . S
C4173 C4174 1.419 . S
C4174 C4173 1.419 . S
C4174 C4175 1.391 . S
C4174 C4178 1.397 . S
C4175 C4170 1.391 . S
C4175 C4174 1.391 . S
C4175 C4176 1.399 . S
C4176 C4175 1.399 . S
C4176 C4177 1.396 . S
C4176 C4179 1.453 . S
C4176 C4180 1.684 . S
C4177 C4167 1.723 . S
C4177 C4176 1.396 . S
C4177 C4178 1.394 . S
C4178 C4148 1.723 . S
C4178 C4174 1.397 . S
C4178 C4177 1.394 . S
C4179 H4151 0.982 . S
C4179 H4155 0.979 . S
C4179 H4156 0.977 . S
C4179 C4176 1.453 . S
C4180 H4152 0.979 . S
C4180 H4153 0.980 . S
C4180 H4154 0.983 . S
C4180 C4176 1.684 . S
H4181 C4199 0.948 . S
H4182 C4140 0.948 . S
H4183 C4158 0.979 . S
H4184 C4158 0.980 . S
H4185 C4158 0.983 . S
H4186 C4157 0.982 . S
H4187 C4157 0.979 . S
H4188 C4157 0.977 . S
H4189 C4159 0.948 . S
H4190 C4161 0.947 . S
H4191 C4162 0.948 . S
H4192 C4168 0.982 . S
H4193 C4168 0.979 . S
H4194 C4168 0.977 . S
H4195 C4169 0.979 . S
H4196 C4169 0.980 . S
H4197 C4169 0.983 . S
H4198 C4142 0.947 . S
C4199 C4142 1.392 . S
C4199 C4143 1.419 . S
C4199 H4181 0.948 . S
C4200 C4201 1.391 . S
C4200 C4204 1.391 . S
C4200 H4242 0.948 . S
C4201 C4200 1.391 . S
C4201 C4202 1.391 . S
C4202 C4201 1.391 . S
C4202 H4258 0.947 . S
C4202 C4259 1.392 . S
C4203 C4204 1.391 . S
C4203 C4207 1.397 . S
C4203 C4259 1.419 . S
C4204 C4200 1.391 . S
C4204 C4203 1.391 . S
C4204 C4205 1.399 . S
C4205 C4204 1.399 . S
C4205 C4208 1.396 . S
C4205 C4217 1.453 . S
C4205 C4218 1.684 . S
H4206 C4230 0.948 . S
C4207 C4203 1.397 . S
C4207 C4208 1.394 . S
C4207 C4226 1.723 . S
C4208 C4205 1.396 . S
C4208 C4207 1.394 . S
C4208 C4238 1.723 . S
H4209 C4232 0.947 . S
H4210 C4233 0.948 . S
H4211 C4239 0.982 . S
H4212 C4240 0.979 . S
H4213 C4240 0.980 . S
H4214 C4240 0.983 . S
H4215 C4239 0.979 . S
H4216 C4239 0.977 . S
C4217 C4205 1.453 . S
C4217 H4246 0.982 . S
C4217 H4247 0.979 . S
C4217 H4248 0.977 . S
C4218 C4205 1.684 . S
C4218 H4243 0.979 . S
C4218 H4244 0.980 . S
C4218 H4245 0.983 . S
C4219 C4220 1.391 . S
C4219 C4224 1.391 . S
C4219 H4249 0.948 . S
C4220 C4219 1.391 . S
C4220 C4221 1.391 . S
C4221 C4220 1.391 . S
C4221 C4222 1.392 . S
C4221 H4250 0.947 . S
C4222 C4221 1.392 . S
C4222 C4223 1.419 . S
C4222 H4251 0.948 . S
C4223 C4222 1.419 . S
C4223 C4224 1.391 . S
C4223 C4227 1.397 . S
C4224 C4219 1.391 . S
C4224 C4223 1.391 . S
C4224 C4225 1.399 . S
C4225 C4224 1.399 . S
C4225 C4226 1.396 . S
C4225 C4228 1.453 . S
C4225 C4229 1.684 . S
C4226 C4207 1.723 . S
C4226 C4225 1.396 . S
C4226 C4227 1.394 . S
C4227 C4223 1.397 . S
C4227 C4226 1.394 . S
C4227 C4237 1.723 . S
C4228 C4225 1.453 . S
C4228 H4252 0.982 . S
C4228 H4253 0.979 . S
C4228 H4254 0.977 . S
C4229 C4225 1.684 . S
C4229 H4255 0.979 . S
C4229 H4256 0.980 . S
C4229 H4257 0.983 . S
C4230 H4206 0.948 . S
C4230 C4231 1.391 . S
C4230 C4235 1.391 . S
C4231 C4230 1.391 . S
C4231 C4232 1.391 . S
C4232 H4209 0.947 . S
C4232 C4231 1.391 . S
C4232 C4233 1.392 . S
C4233 H4210 0.948 . S
C4233 C4232 1.392 . S
C4233 C4234 1.419 . S
C4234 C4233 1.419 . S
C4234 C4235 1.391 . S
C4234 C4238 1.397 . S
C4235 C4230 1.391 . S
C4235 C4234 1.391 . S
C4235 C4236 1.399 . S
C4236 C4235 1.399 . S
C4236 C4237 1.396 . S
C4236 C4239 1.453 . S
C4236 C4240 1.684 . S
C4237 C4227 1.723 . S
C4237 C4236 1.396 . S
C4237 C4238 1.394 . S
C4238 C4208 1.723 . S
C4238 C4234 1.397 . S
C4238 C4237 1.394 . S
C4239 H4211 0.982 . S
C4239 H4215 0.979 . S
C4239 H4216 0.977 . S
C4239 C4236 1.453 . S
C4240 H4212 0.979 . S
C4240 H4213 0.980 . S
C4240 H4214 0.983 . S
C4240 C4236 1.684 . S
H4241 C4259 0.948 . S
H4242 C4200 0.948 . S
H4243 C4218 0.979 . S
H4244 C4218 0.980 . S
H4245 C4218 0.983 . S
H4246 C4217 0.982 . S
H4247 C4217 0.979 . S
H4248 C4217 0.977 . S
H4249 C4219 0.948 . S
H4250 C4221 0.947 . S
H4251 C4222 0.948 . S
H4252 C4228 0.982 . S
H4253 C4228 0.979 . S
H4254 C4228 0.977 . S
H4255 C4229 0.979 . S
H4256 C4229 0.980 . S
H4257 C4229 0.983 . S
H4258 C4202 0.947 . S
C4259 C4202 1.392 . S
C4259 C4203 1.419 . S
C4259 H4241 0.948 . S
C4260 C4261 1.391 . S
C4260 C4264 1.391 . S
C4260 H4302 0.948 . S
C4261 C4260 1.391 . S
C4261 C4262 1.391 . S
C4262 C4261 1.391 . S
C4262 H4318 0.947 . S
C4262 C4319 1.392 . S
C4263 C4264 1.391 . S
C4263 C4267 1.397 . S
C4263 C4319 1.419 . S
C4264 C4260 1.391 . S
C4264 C4263 1.391 . S
C4264 C4265 1.399 . S
C4265 C4264 1.399 . S
C4265 C4268 1.396 . S
C4265 C4277 1.453 . S
C4265 C4278 1.684 . S
H4266 C4290 0.948 . S
C4267 C4263 1.397 . S
C4267 C4268 1.394 . S
C4267 C4286 1.723 . S
C4268 C4265 1.396 . S
C4268 C4267 1.394 . S
C4268 C4298 1.723 . S
H4269 C4292 0.947 . S
H4270 C4293 0.948 . S
H4271 C4299 0.982 . S
H4272 C4300 0.979 . S
H4273 C4300 0.980 . S
H4274 C4300 0.983 . S
H4275 C4299 0.979 . S
H4276 C4299 0.977 . S
C4277 C4265 1.453 . S
C4277 H4306 0.982 . S
C4277 H4307 0.979 . S
C4277 H4308 0.977 . S
C4278 C4265 1.684 . S
C4278 H4303 0.979 . S
C4278 H4304 0.980 . S
C4278 H4305 0.983 . S
C4279 C4280 1.391 . S
C4279 C4284 1.391 . S
C4279 H4309 0.948 . S
C4280 C4279 1.391 . S
C4280 C4281 1.391 . S
C4281 C4280 1.391 . S
C4281 C4282 1.392 . S
C4281 H4310 0.947 . S
C4282 C4281 1.392 . S
C4282 C4283 1.419 . S
C4282 H4311 0.948 . S
C4283 C4282 1.419 . S
C4283 C4284 1.391 . S
C4283 C4287 1.397 . S
C4284 C4279 1.391 . S
C4284 C4283 1.391 . S
C4284 C4285 1.399 . S
C4285 C4284 1.399 . S
C4285 C4286 1.396 . S
C4285 C4288 1.453 . S
C4285 C4289 1.684 . S
C4286 C4267 1.723 . S
C4286 C4285 1.396 . S
C4286 C4287 1.394 . S
C4287 C4283 1.397 . S
C4287 C4286 1.394 . S
C4287 C4297 1.723 . S
C4288 C4285 1.453 . S
C4288 H4312 0.982 . S
C4288 H4313 0.979 . S
C4288 H4314 0.977 . S
C4289 C4285 1.684 . S
C4289 H4315 0.979 . S
C4289 H4316 0.980 . S
C4289 H4317 0.983 . S
C4290 H4266 0.948 . S
C4290 C4291 1.391 . S
C4290 C4295 1.391 . S
C4291 C4290 1.391 . S
C4291 C4292 1.391 . S
C4292 H4269 0.947 . S
C4292 C4291 1.391 . S
C4292 C4293 1.392 . S
C4293 H4270 0.948 . S
C4293 C4292 1.392 . S
C4293 C4294 1.419 . S
C4294 C4293 1.419 . S
C4294 C4295 1.391 . S
C4294 C4298 1.397 . S
C4295 C4290 1.391 . S
C4295 C4294 1.391 . S
C4295 C4296 1.399 . S
C4296 C4295 1.399 . S
C4296 C4297 1.396 . S
C4296 C4299 1.453 . S
C4296 C4300 1.684 . S
C4297 C4287 1.723 . S
C4297 C4296 1.396 . S
C4297 C4298 1.394 . S
C4298 C4268 1.723 . S
C4298 C4294 1.397 . S
C4298 C4297 1.394 . S
C4299 H4271 0.982 . S
C4299 H4275 0.979 . S
C4299 H4276 0.977 . S
C4299 C4296 1.453 . S
C4300 H4272 0.979 . S
C4300 H4273 0.980 . S
C4300 H4274 0.983 . S
C4300 C4296 1.684 . S
H4301 C4319 0.948 . S
H4302 C4260 0.948 . S
H4303 C4278 0.979 . S
H4304 C4278 0.980 . S
H4305 C4278 0.983 . S
H4306 C4277 0.982 . S
H4307 C4277 0.979 . S
H4308 C4277 0.977 . S
H4309 C4279 0.948 . S
H4310 C4281 0.947 . S
H4311 C4282 0.948 . S
H4312 C4288 0.982 . S
H4313 C4288 0.979 . S
H4314 C4288 0.977 . S
H4315 C4289 0.979 . S
H4316 C4289 0.980 . S
H4317 C4289 0.983 . S
H4318 C4262 0.947 . S
C4319 C4262 1.392 . S
C4319 C4263 1.419 . S
C4319 H4301 0.948 . S
C4320 C4321 1.391 . S
C4320 C4324 1.391 . S
C4320 H4362 0.948 . S
C4321 C4320 1.391 . S
C4321 C4322 1.391 . S
C4322 C4321 1.391 . S
C4322 H4378 0.947 . S
C4322 C4379 1.392 . S
C4323 C4324 1.391 . S
C4323 C4327 1.397 . S
C4323 C4379 1.419 . S
C4324 C4320 1.391 . S
C4324 C4323 1.391 . S
C4324 C4325 1.399 . S
C4325 C4324 1.399 . S
C4325 C4328 1.396 . S
C4325 C4337 1.453 . S
C4325 C4338 1.684 . S
H4326 C4350 0.948 . S
C4327 C4323 1.397 . S
C4327 C4328 1.394 . S
C4327 C4346 1.723 . S
C4328 C4325 1.396 . S
C4328 C4327 1.394 . S
C4328 C4358 1.723 . S
H4329 C4352 0.947 . S
H4330 C4353 0.948 . S
H4331 C4359 0.982 . S
H4332 C4360 0.979 . S
H4333 C4360 0.980 . S
H4334 C4360 0.983 . S
H4335 C4359 0.979 . S
H4336 C4359 0.977 . S
C4337 C4325 1.453 . S
C4337 H4366 0.982 . S
C4337 H4367 0.979 . S
C4337 H4368 0.977 . S
C4338 C4325 1.684 . S
C4338 H4363 0.979 . S
C4338 H4364 0.980 . S
C4338 H4365 0.983 . S
C4339 C4340 1.391 . S
C4339 C4344 1.391 . S
C4339 H4369 0.948 . S
C4340 C4339 1.391 . S
C4340 C4341 1.391 . S
C4341 C4340 1.391 . S
C4341 C4342 1.392 . S
C4341 H4370 0.947 . S
C4342 C4341 1.392 . S
C4342 C4343 1.419 . S
C4342 H4371 0.948 . S
C4343 C4342 1.419 . S
C4343 C4344 1.391 . S
C4343 C4347 1.397 . S
C4344 C4339 1.391 . S
C4344 C4343 1.391 . S
C4344 C4345 1.399 . S
C4345 C4344 1.399 . S
C4345 C4346 1.396 . S
C4345 C4348 1.453 . S
C4345 C4349 1.684 . S
C4346 C4327 1.723 . S
C4346 C4345 1.396 . S
C4346 C4347 1.394 . S
C4347 C4343 1.397 . S
C4347 C4346 1.394 . S
C4347 C4357 1.723 . S
C4348 C4345 1.453 . S
C4348 H4372 0.982 . S
C4348 H4373 0.979 . S
C4348 H4374 0.977 . S
C4349 C4345 1.684 . S
C4349 H4375 0.979 . S
C4349 H4376 0.980 . S
C4349 H4377 0.983 . S
C4350 H4326 0.948 . S
C4350 C4351 1.391 . S
C4350 C4355 1.391 . S
C4351 C4350 1.391 . S
C4351 C4352 1.391 . S
C4352 H4329 0.947 . S
C4352 C4351 1.391 . S
C4352 C4353 1.392 . S
C4353 H4330 0.948 . S
C4353 C4352 1.392 . S
C4353 C4354 1.419 . S
C4354 C4353 1.419 . S
C4354 C4355 1.391 . S
C4354 C4358 1.397 . S
C4355 C4350 1.391 . S
C4355 C4354 1.391 . S
C4355 C4356 1.399 . S
C4356 C4355 1.399 . S
C4356 C4357 1.396 . S
C4356 C4359 1.453 . S
C4356 C4360 1.684 . S
C4357 C4347 1.723 . S
C4357 C4356 1.396 . S
C4357 C4358 1.394 . S
C4358 C4328 1.723 . S
C4358 C4354 1.397 . S
C4358 C4357 1.394 . S
C4359 H4331 0.982 . S
C4359 H4335 0.979 . S
C4359 H4336 0.977 . S
C4359 C4356 1.453 . S
C4360 H4332 0.979 . S
C4360 H4333 0.980 . S
C4360 H4334 0.983 . S
C4360 C4356 1.684 . S
H4361 C4379 0.948 . S
H4362 C4320 0.948 . S
H4363 C4338 0.979 . S
H4364 C4338 0.980 . S
H4365 C4338 0.983 . S
H4366 C4337 0.982 . S
H4367 C4337 0.979 . S
H4368 C4337 0.977 . S
H4369 C4339 0.948 . S
H4370 C4341 0.947 . S
H4371 C4342 0.948 . S
H4372 C4348 0.982 . S
H4373 C4348 0.979 . S
H4374 C4348 0.977 . S
H4375 C4349 0.979 . S
H4376 C4349 0.980 . S
H4377 C4349 0.983 . S
H4378 C4322 0.947 . S
C4379 C4322 1.392 . S
C4379 C4323 1.419 . S
C4379 H4361 0.948 . S
C4380 C4381 1.391 . S
C4380 C4384 1.391 . S
C4380 H4422 0.948 . S
C4381 C4380 1.391 . S
C4381 C4382 1.391 . S
C4382 C4381 1.391 . S
C4382 H4438 0.947 . S
C4382 C4439 1.392 . S
C4383 C4384 1.391 . S
C4383 C4387 1.397 . S
C4383 C4439 1.419 . S
C4384 C4380 1.391 . S
C4384 C4383 1.391 . S
C4384 C4385 1.399 . S
C4385 C4384 1.399 . S
C4385 C4388 1.396 . S
C4385 C4397 1.453 . S
C4385 C4398 1.684 . S
H4386 C4410 0.948 . S
C4387 C4383 1.397 . S
C4387 C4388 1.394 . S
C4387 C4406 1.723 . S
C4388 C4385 1.396 . S
C4388 C4387 1.394 . S
C4388 C4418 1.723 . S
H4389 C4412 0.947 . S
H4390 C4413 0.948 . S
H4391 C4419 0.982 . S
H4392 C4420 0.979 . S
H4393 C4420 0.980 . S
H4394 C4420 0.983 . S
H4395 C4419 0.979 . S
H4396 C4419 0.977 . S
C4397 C4385 1.453 . S
C4397 H4426 0.982 . S
C4397 H4427 0.979 . S
C4397 H4428 0.977 . S
C4398 C4385 1.684 . S
C4398 H4423 0.979 . S
C4398 H4424 0.980 . S
C4398 H4425 0.983 . S
C4399 C4400 1.391 . S
C4399 C4404 1.391 . S
C4399 H4429 0.948 . S
C4400 C4399 1.391 . S
C4400 C4401 1.391 . S
C4401 C4400 1.391 . S
C4401 C4402 1.392 . S
C4401 H4430 0.947 . S
C4402 C4401 1.392 . S
C4402 C4403 1.419 . S
C4402 H4431 0.948 . S
C4403 C4402 1.419 . S
C4403 C4404 1.391 . S
C4403 C4407 1.397 . S
C4404 C4399 1.391 . S
C4404 C4403 1.391 . S
C4404 C4405 1.399 . S
C4405 C4404 1.399 . S
C4405 C4406 1.396 . S
C4405 C4408 1.453 . S
C4405 C4409 1.684 . S
C4406 C4387 1.723 . S
C4406 C4405 1.396 . S
C4406 C4407 1.394 . S
C4407 C4403 1.397 . S
C4407 C4406 1.394 . S
C4407 C4417 1.723 . S
C4408 C4405 1.453 . S
C4408 H4432 0.982 . S
C4408 H4433 0.979 . S
C4408 H4434 0.977 . S
C4409 C4405 1.684 . S
C4409 H4435 0.979 . S
C4409 H4436 0.980 . S
C4409 H4437 0.983 . S
C4410 H4386 0.948 . S
C4410 C4411 1.391 . S
C4410 C4415 1.391 . S
C4411 C4410 1.391 . S
C4411 C4412 1.391 . S
C4412 H4389 0.947 . S
C4412 C4411 1.391 . S
C4412 C4413 1.392 . S
C4413 H4390 0.948 . S
C4413 C4412 1.392 . S
C4413 C4414 1.419 . S
C4414 C4413 1.419 . S
C4414 C4415 1.391 . S
C4414 C4418 1.397 . S
C4415 C4410 1.391 . S
C4415 C4414 1.391 . S
C4415 C4416 1.399 . S
C4416 C4415 1.399 . S
C4416 C4417 1.396 . S
C4416 C4419 1.453 . S
C4416 C4420 1.684 . S
C4417 C4407 1.723 . S
C4417 C4416 1.396 . S
C4417 C4418 1.394 . S
C4418 C4388 1.723 . S
C4418 C4414 1.397 . S
C4418 C4417 1.394 . S
C4419 H4391 0.982 . S
C4419 H4395 0.979 . S
C4419 H4396 0.977 . S
C4419 C4416 1.453 . S
C4420 H4392 0.979 . S
C4420 H4393 0.980 . S
C4420 H4394 0.983 . S
C4420 C4416 1.684 . S
H4421 C4439 0.948 . S
H4422 C4380 0.948 . S
H4423 C4398 0.979 . S
H4424 C4398 0.980 . S
H4425 C4398 0.983 . S
H4426 C4397 0.982 . S
H4427 C4397 0.979 . S
H4428 C4397 0.977 . S
H4429 C4399 0.948 . S
H4430 C4401 0.947 . S
H4431 C4402 0.948 . S
H4432 C4408 0.982 . S
H4433 C4408 0.979 . S
H4434 C4408 0.977 . S
H4435 C4409 0.979 . S
H4436 C4409 0.980 . S
H4437 C4409 0.983 . S
H4438 C4382 0.947 . S
C4439 C4382 1.392 . S
C4439 C4383 1.419 . S
C4439 H4421 0.948 . S
C4440 C4441 1.391 . S
C4440 C4444 1.391 . S
C4440 H4482 0.948 . S
C4441 C4440 1.391 . S
C4441 C4442 1.391 . S
C4442 C4441 1.391 . S
C4442 H4498 0.947 . S
C4442 C4499 1.392 . S
C4443 C4444 1.391 . S
C4443 C4447 1.397 . S
C4443 C4499 1.419 . S
C4444 C4440 1.391 . S
C4444 C4443 1.391 . S
C4444 C4445 1.399 . S
C4445 C4444 1.399 . S
C4445 C4448 1.396 . S
C4445 C4457 1.453 . S
C4445 C4458 1.684 . S
H4446 C4470 0.948 . S
C4447 C4443 1.397 . S
C4447 C4448 1.394 . S
C4447 C4466 1.723 . S
C4448 C4445 1.396 . S
C4448 C4447 1.394 . S
C4448 C4478 1.723 . S
H4449 C4472 0.947 . S
H4450 C4473 0.948 . S
H4451 C4479 0.982 . S
H4452 C4480 0.979 . S
H4453 C4480 0.980 . S
H4454 C4480 0.983 . S
H4455 C4479 0.979 . S
H4456 C4479 0.977 . S
C4457 C4445 1.453 . S
C4457 H4486 0.982 . S
C4457 H4487 0.979 . S
C4457 H4488 0.977 . S
C4458 C4445 1.684 . S
C4458 H4483 0.979 . S
C4458 H4484 0.980 . S
C4458 H4485 0.983 . S
C4459 C4460 1.391 . S
C4459 C4464 1.391 . S
C4459 H4489 0.948 . S
C4460 C4459 1.391 . S
C4460 C4461 1.391 . S
C4461 C4460 1.391 . S
C4461 C4462 1.392 . S
C4461 H4490 0.947 . S
C4462 C4461 1.392 . S
C4462 C4463 1.419 . S
C4462 H4491 0.948 . S
C4463 C4462 1.419 . S
C4463 C4464 1.391 . S
C4463 C4467 1.397 . S
C4464 C4459 1.391 . S
C4464 C4463 1.391 . S
C4464 C4465 1.399 . S
C4465 C4464 1.399 . S
C4465 C4466 1.396 . S
C4465 C4468 1.453 . S
C4465 C4469 1.684 . S
C4466 C4447 1.723 . S
C4466 C4465 1.396 . S
C4466 C4467 1.394 . S
C4467 C4463 1.397 . S
C4467 C4466 1.394 . S
C4467 C4477 1.723 . S
C4468 C4465 1.453 . S
C4468 H4492 0.982 . S
C4468 H4493 0.979 . S
C4468 H4494 0.977 . S
C4469 C4465 1.684 . S
C4469 H4495 0.979 . S
C4469 H4496 0.980 . S
C4469 H4497 0.983 . S
C4470 H4446 0.948 . S
C4470 C4471 1.391 . S
C4470 C4475 1.391 . S
C4471 C4470 1.391 . S
C4471 C4472 1.391 . S
C4472 H4449 0.947 . S
C4472 C4471 1.391 . S
C4472 C4473 1.392 . S
C4473 H4450 0.948 . S
C4473 C4472 1.392 . S
C4473 C4474 1.419 . S
C4474 C4473 1.419 . S
C4474 C4475 1.391 . S
C4474 C4478 1.397 . S
C4475 C4470 1.391 . S
C4475 C4474 1.391 . S
C4475 C4476 1.399 . S
C4476 C4475 1.399 . S
C4476 C4477 1.396 . S
C4476 C4479 1.453 . S
C4476 C4480 1.684 . S
C4477 C4467 1.723 . S
C4477 C4476 1.396 . S
C4477 C4478 1.394 . S
C4478 C4448 1.723 . S
C4478 C4474 1.397 . S
C4478 C4477 1.394 . S
C4479 H4451 0.982 . S
C4479 H4455 0.979 . S
C4479 H4456 0.977 . S
C4479 C4476 1.453 . S
C4480 H4452 0.979 . S
C4480 H4453 0.980 . S
C4480 H4454 0.983 . S
C4480 C4476 1.684 . S
H4481 C4499 0.948 . S
H4482 C4440 0.948 . S
H4483 C4458 0.979 . S
H4484 C4458 0.980 . S
H4485 C4458 0.983 . S
H4486 C4457 0.982 . S
H4487 C4457 0.979 . S
H4488 C4457 0.977 . S
H4489 C4459 0.948 . S
H4490 C4461 0.947 . S
H4491 C4462 0.948 . S
H4492 C4468 0.982 . S
H4493 C4468 0.979 . S
H4494 C4468 0.977 . S
H4495 C4469 0.979 . S
H4496 C4469 0.980 . S
H4497 C4469 0.983 . S
H4498 C4442 0.947 . S
C4499 C4442 1.392 . S
C4499 C4443 1.419 . S
C4499 H4481 0.948 . S
C4500 C4501 1.391 . S
C4500 C4504 1.391 . S
C4500 H4542 0.948 . S
C4501 C4500 1.391 . S
C4501 C4502 1.391 . S
C4502 C4501 1.391 . S
C4502 H4558 0.947 . S
C4502 C4559 1.392 . S
C4503 C4504 1.391 . S
C4503 C4507 1.397 . S
C4503 C4559 1.419 . S
C4504 C4500 1.391 . S
C4504 C4503 1.391 . S
C4504 C4505 1.399 . S
C4505 C4504 1.399 . S
C4505 C4508 1.396 . S
C4505 C4517 1.453 . S
C4505 C4518 1.684 . S
H4506 C4530 0.948 . S
C4507 C4503 1.397 . S
C4507 C4508 1.394 . S
C4507 C4526 1.723 . S
C4508 C4505 1.396 . S
C4508 C4507 1.394 . S
C4508 C4538 1.723 . S
H4509 C4532 0.947 . S
H4510 C4533 0.948 . S
H4511 C4539 0.982 . S
H4512 C4540 0.979 . S
H4513 C4540 0.980 . S
H4514 C4540 0.983 . S
H4515 C4539 0.979 . S
H4516 C4539 0.977 . S
C4517 C4505 1.453 . S
C4517 H4546 0.982 . S
C4517 H4547 0.979 . S
C4517 H4548 0.977 . S
C4518 C4505 1.684 . S
C4518 H4543 0.979 . S
C4518 H4544 0.980 . S
C4518 H4545 0.983 . S
C4519 C4520 1.391 . S
C4519 C4524 1.391 . S
C4519 H4549 0.948 . S
C4520 C4519 1.391 . S
C4520 C4521 1.391 . S
C4521 C4520 1.391 . S
C4521 C4522 1.392 . S
C4521 H4550 0.947 . S
C4522 C4521 1.392 . S
C4522 C4523 1.419 . S
C4522 H4551 0.948 . S
C4523 C4522 1.419 . S
C4523 C4524 1.391 . S
C4523 C4527 1.397 . S
C4524 C4519 1.391 . S
C4524 C4523 1.391 . S
C4524 C4525 1.399 . S
C4525 C4524 1.399 . S
C4525 C4526 1.396 . S
C4525 C4528 1.453 . S
C4525 C4529 1.684 . S
C4526 C4507 1.723 . S
C4526 C4525 1.396 . S
C4526 C4527 1.394 . S
C4527 C4523 1.397 . S
C4527 C4526 1.394 . S
C4527 C4537 1.723 . S
C4528 C4525 1.453 . S
C4528 H4552 0.982 . S
C4528 H4553 0.979 . S
C4528 H4554 0.977 . S
C4529 C4525 1.684 . S
C4529 H4555 0.979 . S
C4529 H4556 0.980 . S
C4529 H4557 0.983 . S
C4530 H4506 0.948 . S
C4530 C4531 1.391 . S
C4530 C4535 1.391 . S
C4531 C4530 1.391 . S
C4531 C4532 1.391 . S
C4532 H4509 0.947 . S
C4532 C4531 1.391 . S
C4532 C4533 1.392 . S
C4533 H4510 0.948 . S
C4533 C4532 1.392 . S
C4533 C4534 1.419 . S
C4534 C4533 1.419 . S
C4534 C4535 1.391 . S
C4534 C4538 1.397 . S
C4535 C4530 1.391 . S
C4535 C4534 1.391 . S
C4535 C4536 1.399 . S
C4536 C4535 1.399 . S
C4536 C4537 1.396 . S
C4536 C4539 1.453 . S
C4536 C4540 1.684 . S
C4537 C4527 1.723 . S
C4537 C4536 1.396 . S
C4537 C4538 1.394 . S
C4538 C4508 1.723 . S
C4538 C4534 1.397 . S
C4538 C4537 1.394 . S
C4539 H4511 0.982 . S
C4539 H4515 0.979 . S
C4539 H4516 0.977 . S
C4539 C4536 1.453 . S
C4540 H4512 0.979 . S
C4540 H4513 0.980 . S
C4540 H4514 0.983 . S
C4540 C4536 1.684 . S
H4541 C4559 0.948 . S
H4542 C4500 0.948 . S
H4543 C4518 0.979 . S
H4544 C4518 0.980 . S
H4545 C4518 0.983 . S
H4546 C4517 0.982 . S
H4547 C4517 0.979 . S
H4548 C4517 0.977 . S
H4549 C4519 0.948 . S
H4550 C4521 0.947 . S
H4551 C4522 0.948 . S
H4552 C4528 0.982 . S
H4553 C4528 0.979 . S
H4554 C4528 0.977 . S
H4555 C4529 0.979 . S
H4556 C4529 0.980 . S
H4557 C4529 0.983 . S
H4558 C4502 0.947 . S
C4559 C4502 1.392 . S
C4559 C4503 1.419 . S
C4559 H4541 0.948 . S
C4560 C4561 1.391 . S
C4560 C4564 1.391 . S
C4560 H4602 0.948 . S
C4561 C4560 1.391 . S
C4561 C4562 1.391 . S
C4562 C4561 1.391 . S
C4562 H4618 0.947 . S
C4562 C4619 1.392 . S
C4563 C4564 1.391 . S
C4563 C4567 1.397 . S
C4563 C4619 1.419 . S
C4564 C4560 1.391 . S
C4564 C4563 1.391 . S
C4564 C4565 1.399 . S
C4565 C4564 1.399 . S
C4565 C4568 1.396 . S
C4565 C4577 1.453 . S
C4565 C4578 1.684 . S
H4566 C4590 0.948 . S
C4567 C4563 1.397 . S
C4567 C4568 1.394 . S
C4567 C4586 1.723 . S
C4568 C4565 1.396 . S
C4568 C4567 1.394 . S
C4568 C4598 1.723 . S
H4569 C4592 0.947 . S
H4570 C4593 0.948 . S
H4571 C4599 0.982 . S
H4572 C4600 0.979 . S
H4573 C4600 0.980 . S
H4574 C4600 0.983 . S
H4575 C4599 0.979 . S
H4576 C4599 0.977 . S
C4577 C4565 1.453 . S
C4577 H4606 0.982 . S
C4577 H4607 0.979 . S
C4577 H4608 0.977 . S
C4578 C4565 1.684 . S
C4578 H4603 0.979 . S
C4578 H4604 0.980 . S
C4578 H4605 0.983 . S
C4579 C4580 1.391 . S
C4579 C4584 1.391 . S
C4579 H4609 0.948 . S
C4580 C4579 1.391 . S
C4580 C4581 1.391 . S
C4581 C4580 1.391 . S
C4581 C4582 1.392 . S
C4581 H4610 0.947 . S
C4582 C4581 1.392 . S
C4582 C4583 1.419 . S
C4582 H4611 0.948 . S
C4583 C4582 1.419 . S
C4583 C4584 1.391 . S
C4583 C4587 1.397 . S
C4584 C4579 1.391 . S
C4584 C4583 1.391 . S
C4584 C4585 1.399 . S
C4585 C4584 1.399 . S
C4585 C4586 1.396 . S
C4585 C4588 1.453 . S
C4585 C4589 1.684 . S
C4586 C4567 1.723 . S
C4586 C4585 1.396 . S
C4586 C4587 1.394 . S
C4587 C4583 1.397 . S
C4587 C4586 1.394 . S
C4587 C4597 1.723 . S
C4588 C4585 1.453 . S
C4588 H4612 0.982 . S
C4588 H4613 0.979 . S
C4588 H4614 0.977 . S
C4589 C4585 1.684 . S
C4589 H4615 0.979 . S
C4589 H4616 0.980 . S
C4589 H4617 0.983 . S
C4590 H4566 0.948 . S
C4590 C4591 1.391 . S
C4590 C4595 1.391 . S
C4591 C4590 1.391 . S
C4591 C4592 1.391 . S
C4592 H4569 0.947 . S
C4592 C4591 1.391 . S
C4592 C4593 1.392 . S
C4593 H4570 0.948 . S
C4593 C4592 1.392 . S
C4593 C4594 1.419 . S
C4594 C4593 1.419 . S
C4594 C4595 1.391 . S
C4594 C4598 1.397 . S
C4595 C4590 1.391 . S
C4595 C4594 1.391 . S
C4595 C4596 1.399 . S
C4596 C4595 1.399 . S
C4596 C4597 1.396 . S
C4596 C4599 1.453 . S
C4596 C4600 1.684 . S
C4597 C4587 1.723 . S
C4597 C4596 1.396 . S
C4597 C4598 1.394 . S
C4598 C4568 1.723 . S
C4598 C4594 1.397 . S
C4598 C4597 1.394 . S
C4599 H4571 0.982 . S
C4599 H4575 0.979 . S
C4599 H4576 0.977 . S
C4599 C4596 1.453 . S
C4600 H4572 0.979 . S
C4600 H4573 0.980 . S
C4600 H4574 0.983 . S
C4600 C4596 1.684 . S
H4601 C4619 0.948 . S
H4602 C4560 0.948 . S
H4603 C4578 0.979 . S
H4604 C4578 0.980 . S
H4605 C4578 0.983 . S
H4606 C4577 0.982 . S
H4607 C4577 0.979 . S
H4608 C4577 0.977 . S
H4609 C4579 0.948 . S
H4610 C4581 0.947 . S
H4611 C4582 0.948 . S
H4612 C4588 0.982 . S
H4613 C4588 0.979 . S
H4614 C4588 0.977 . S
H4615 C4589 0.979 . S
H4616 C4589 0.980 . S
H4617 C4589 0.983 . S
H4618 C4562 0.947 . S
C4619 C4562 1.392 . S
C4619 C4563 1.419 . S
C4619 H4601 0.948 . S
C4620 C4621 1.391 . S
C4620 C4624 1.391 . S
C4620 H4662 0.948 . S
C4621 C4620 1.391 . S
C4621 C4622 1.391 . S
C4622 C4621 1.391 . S
C4622 H4678 0.947 . S
C4622 C4679 1.392 . S
C4623 C4624 1.391 . S
C4623 C4627 1.397 . S
C4623 C4679 1.419 . S
C4624 C4620 1.391 . S
C4624 C4623 1.391 . S
C4624 C4625 1.399 . S
C4625 C4624 1.399 . S
C4625 C4628 1.396 . S
C4625 C4637 1.453 . S
C4625 C4638 1.684 . S
H4626 C4650 0.948 . S
C4627 C4623 1.397 . S
C4627 C4628 1.394 . S
C4627 C4646 1.723 . S
C4628 C4625 1.396 . S
C4628 C4627 1.394 . S
C4628 C4658 1.723 . S
H4629 C4652 0.947 . S
H4630 C4653 0.948 . S
H4631 C4659 0.982 . S
H4632 C4660 0.979 . S
H4633 C4660 0.980 . S
H4634 C4660 0.983 . S
H4635 C4659 0.979 . S
H4636 C4659 0.977 . S
C4637 C4625 1.453 . S
C4637 H4666 0.982 . S
C4637 H4667 0.979 . S
C4637 H4668 0.977 . S
C4638 C4625 1.684 . S
C4638 H4663 0.979 . S
C4638 H4664 0.980 . S
C4638 H4665 0.983 . S
C4639 C4640 1.391 . S
C4639 C4644 1.391 . S
C4639 H4669 0.948 . S
C4640 C4639 1.391 . S
C4640 C4641 1.391 . S
C4641 C4640 1.391 . S
C4641 C4642 1.392 . S
C4641 H4670 0.947 . S
C4642 C4641 1.392 . S
C4642 C4643 1.419 . S
C4642 H4671 0.948 . S
C4643 C4642 1.419 . S
C4643 C4644 1.391 . S
C4643 C4647 1.397 . S
C4644 C4639 1.391 . S
C4644 C4643 1.391 . S
C4644 C4645 1.399 . S
C4645 C4644 1.399 . S
C4645 C4646 1.396 . S
C4645 C4648 1.453 . S
C4645 C4649 1.684 . S
C4646 C4627 1.723 . S
C4646 C4645 1.396 . S
C4646 C4647 1.394 . S
C4647 C4643 1.397 . S
C4647 C4646 1.394 . S
C4647 C4657 1.723 . S
C4648 C4645 1.453 . S
C4648 H4672 0.982 . S
C4648 H4673 0.979 . S
C4648 H4674 0.977 . S
C4649 C4645 1.684 . S
C4649 H4675 0.979 . S
C4649 H4676 0.980 . S
C4649 H4677 0.983 . S
C4650 H4626 0.948 . S
C4650 C4651 1.391 . S
C4650 C4655 1.391 . S
C4651 C4650 1.391 . S
C4651 C4652 1.391 . S
C4652 H4629 0.947 . S
C4652 C4651 1.391 . S
C4652 C4653 1.392 . S
C4653 H4630 0.948 . S
C4653 C4652 1.392 . S
C4653 C4654 1.419 . S
C4654 C4653 1.419 . S
C4654 C4655 1.391 . S
C4654 C4658 1.397 . S
C4655 C4650 1.391 . S
C4655 C4654 1.391 . S
C4655 C4656 1.399 . S
C4656 C4655 1.399 . S
C4656 C4657 1.396 . S
C4656 C4659 1.453 . S
C4656 C4660 1.684 . S
C4657 C4647 1.723 . S
C4657 C4656 1.396 . S
C4657 C4658 1.394 . S
C4658 C4628 1.723 . S
C4658 C4654 1.397 . S
C4658 C4657 1.394 . S
C4659 H4631 0.982 . S
C4659 H4635 0.979 . S
C4659 H4636 0.977 . S
C4659 C4656 1.453 . S
C4660 H4632 0.979 . S
C4660 H4633 0.980 . S
C4660 H4634 0.983 . S
C4660 C4656 1.684 . S
H4661 C4679 0.948 . S
H4662 C4620 0.948 . S
H4663 C4638 0.979 . S
H4664 C4638 0.980 . S
H4665 C4638 0.983 . S
H4666 C4637 0.982 . S
H4667 C4637 0.979 . S
H4668 C4637 0.977 . S
H4669 C4639 0.948 . S
H4670 C4641 0.947 . S
H4671 C4642 0.948 . S
H4672 C4648 0.982 . S
H4673 C4648 0.979 . S
H4674 C4648 0.977 . S
H4675 C4649 0.979 . S
H4676 C4649 0.980 . S
H4677 C4649 0.983 . S
H4678 C4622 0.947 . S
C4679 C4622 1.392 . S
C4679 C4623 1.419 . S
C4679 H4661 0.948 . S
C4680 C4681 1.391 . S
C4680 C4684 1.391 . S
C4680 H4722 0.948 . S
C4681 C4680 1.391 . S
C4681 C4682 1.391 . S
C4682 C4681 1.391 . S
C4682 H4738 0.947 . S
C4682 C4739 1.392 . S
C4683 C4684 1.391 . S
C4683 C4687 1.397 . S
C4683 C4739 1.419 . S
C4684 C4680 1.391 . S
C4684 C4683 1.391 . S
C4684 C4685 1.399 . S
C4685 C4684 1.399 . S
C4685 C4688 1.396 . S
C4685 C4697 1.453 . S
C4685 C4698 1.684 . S
H4686 C4710 0.948 . S
C4687 C4683 1.397 . S
C4687 C4688 1.394 . S
C4687 C4706 1.723 . S
C4688 C4685 1.396 . S
C4688 C4687 1.394 . S
C4688 C4718 1.723 . S
H4689 C4712 0.947 . S
H4690 C4713 0.948 . S
H4691 C4719 0.982 . S
H4692 C4720 0.979 . S
H4693 C4720 0.980 . S
H4694 C4720 0.983 . S
H4695 C4719 0.979 . S
H4696 C4719 0.977 . S
C4697 C4685 1.453 . S
C4697 H4726 0.982 . S
C4697 H4727 0.979 . S
C4697 H4728 0.977 . S
C4698 C4685 1.684 . S
C4698 H4723 0.979 . S
C4698 H4724 0.980 . S
C4698 H4725 0.983 . S
C4699 C4700 1.391 . S
C4699 C4704 1.391 . S
C4699 H4729 0.948 . S
C4700 C4699 1.391 . S
C4700 C4701 1.391 . S
C4701 C4700 1.391 . S
C4701 C4702 1.392 . S
C4701 H4730 0.947 . S
C4702 C4701 1.392 . S
C4702 C4703 1.419 . S
C4702 H4731 0.948 . S
C4703 C4702 1.419 . S
C4703 C4704 1.391 . S
C4703 C4707 1.397 . S
C4704 C4699 1.391 . S
C4704 C4703 1.391 . S
C4704 C4705 1.399 . S
C4705 C4704 1.399 . S
C4705 C4706 1.396 . S
C4705 C4708 1.453 . S
C4705 C4709 1.684 . S
C4706 C4687 1.723 . S
C4706 C4705 1.396 . S
C4706 C4707 1.394 . S
C4707 C4703 1.397 . S
C4707 C4706 1.394 . S
C4707 C4717 1.723 . S
C4708 C4705 1.453 . S
C4708 H4732 0.982 . S
C4708 H4733 0.979 . S
C4708 H4734 0.977 . S
C4709 C4705 1.684 . S
C4709 H4735 0.979 . S
C4709 H4736 0.980 . S
C4709 H4737 0.983 . S
C4710 H4686 0.948 . S
C4710 C4711 1.391 . S
C4710 C4715 1.391 . S
C4711 C4710 1.391 . S
C4711 C4712 1.391 . S
C4712 H4689 0.947 . S
C4712 C4711 1.391 . S
C4712 C4713 1.392 . S
C4713 H4690 0.948 . S
C4713 C4712 1.392 . S
C4713 C4714 1.419 . S
C4714 C4713 1.419 . S
C4714 C4715 1.391 . S
C4714 C4718 1.397 . S
C4715 C4710 1.391 . S
C4715 C4714 1.391 . S
C4715 C4716 1.399 . S
C4716 C4715 1.399 . S
C4716 C4717 1.396 . S
C4716 C4719 1.453 . S
C4716 C4720 1.684 . S
C4717 C4707 1.723 . S
C4717 C4716 1.396 . S
C4717 C4718 1.394 . S
C4718 C4688 1.723 . S
C4718 C4714 1.397 . S
C4718 C4717 1.394 . S
C4719 H4691 0.982 . S
C4719 H4695 0.979 . S
C4719 H4696 0.977 . S
C4719 C4716 1.453 . S
C4720 H4692 0.979 . S
C4720 H4693 0.980 . S
C4720 H4694 0.983 . S
C4720 C4716 1.684 . S
H4721 C4739 0.948 . S
H4722 C4680 0.948 . S
H4723 C4698 0.979 . S
H4724 C4698 0.980 . S
H4725 C4698 0.983 . S
H4726 C4697 0.982 . S
H4727 C4697 0.979 . S
H4728 C4697 0.977 . S
H4729 C4699 0.948 . S
H4730 C4701 0.947 . S
H4731 C4702 0.948 . S
H4732 C4708 0.982 . S
H4733 C4708 0.979 . S
H4734 C4708 0.977 . S
H4735 C4709 0.979 . S
H4736 C4709 0.980 . S
H4737 C4709 0.983 . S
H4738 C4682 0.947 . S
C4739 C4682 1.392 . S
C4739 C4683 1.419 . S
C4739 H4721 0.948 . S
C4740 C4741 1.391 . S
C4740 C4744 1.391 . S
C4740 H4782 0.948 . S
C4741 C4740 1.391 . S
C4741 C4742 1.391 . S
C4742 C4741 1.391 . S
C4742 H4798 0.947 . S
C4742 C4799 1.392 . S
C4743 C4744 1.391 . S
C4743 C4747 1.397 . S
C4743 C4799 1.419 . S
C4744 C4740 1.391 . S
C4744 C4743 1.391 . S
C4744 C4745 1.399 . S
C4745 C4744 1.399 . S
C4745 C4748 1.396 . S
C4745 C4757 1.453 . S
C4745 C4758 1.684 . S
H4746 C4770 0.948 . S
C4747 C4743 1.397 . S
C4747 C4748 1.394 . S
C4747 C4766 1.723 . S
C4748 C4745 1.396 . S
C4748 C4747 1.394 . S
C4748 C4778 1.723 . S
H4749 C4772 0.947 . S
H4750 C4773 0.948 . S
H4751 C4779 0.982 . S
H4752 C4780 0.979 . S
H4753 C4780 0.980 . S
H4754 C4780 0.983 . S
H4755 C4779 0.979 . S
H4756 C4779 0.977 . S
C4757 C4745 1.453 . S
C4757 H4786 0.982 . S
C4757 H4787 0.979 . S
C4757 H4788 0.977 . S
C4758 C4745 1.684 . S
C4758 H4783 0.979 . S
C4758 H4784 0.980 . S
C4758 H4785 0.983 . S
C4759 C4760 1.391 . S
C4759 C4764 1.391 . S
C4759 H4789 0.948 . S
C4760 C4759 1.391 . S
C4760 C4761 1.391 . S
C4761 C4760 1.391 . S
C4761 C4762 1.392 . S
C4761 H4790 0.947 . S
C4762 C4761 1.392 . S
C4762 C4763 1.419 . S
C4762 H4791 0.948 . S
C4763 C4762 1.419 . S
C4763 C4764 1.391 . S
C4763 C4767 1.397 . S
C4764 C4759 1.391 . S
C4764 C4763 1.391 . S
C4764 C4765 1.399 . S
C4765 C4764 1.399 . S
C4765 C4766 1.396 . S
C4765 C4768 1.453 . S
C4765 C4769 1.684 . S
C4766 C4747 1.723 . S
C4766 C4765 1.396 . S
C4766 C4767 1.394 . S
C4767 C4763 1.397 . S
C4767 C4766 1.394 . S
C4767 C4777 1.723 . S
C4768 C4765 1.453 . S
C4768 H4792 0.982 . S
C4768 H4793 0.979 . S
C4768 H4794 0.977 . S
C4769 C4765 1.684 . S
C4769 H4795 0.979 . S
C4769 H4796 0.980 . S
C4769 H4797 0.983 . S
C4770 H4746 0.948 . S
C4770 C4771 1.391 . S
C4770 C4775 1.391 . S
C4771 C4770 1.391 . S
C4771 C4772 1.391 . S
C4772 H4749 0.947 . S
C4772 C4771 1.391 . S
C4772 C4773 1.392 . S
C4773 H4750 0.948 . S
C4773 C4772 1.392 . S
C4773 C4774 1.419 . S
C4774 C4773 1.419 . S
C4774 C4775 1.391 . S
C4774 C4778 1.397 . S
C4775 C4770 1.391 . S
C4775 C4774 1.391 . S
C4775 C4776 1.399 . S
C4776 C4775 1.399 . S
C4776 C4777 1.396 . S
C4776 C4779 1.453 . S
C4776 C4780 1.684 . S
C4777 C4767 1.723 . S
C4777 C4776 1.396 . S
C4777 C4778 1.394 . S
C4778 C4748 1.723 . S
C4778 C4774 1.397 . S
C4778 C4777 1.394 . S
C4779 H4751 0.982 . S
C4779 H4755 0.979 . S
C4779 H4756 0.977 . S
C4779 C4776 1.453 . S
C4780 H4752 0.979 . S
C4780 H4753 0.980 . S
C4780 H4754 0.983 . S
C4780 C4776 1.684 . S
H4781 C4799 0.948 . S
H4782 C4740 0.948 . S
H4783 C4758 0.979 . S
H4784 C4758 0.980 . S
H4785 C4758 0.983 . S
H4786 C4757 0.982 . S
H4787 C4757 0.979 . S
H4788 C4757 0.977 . S
H4789 C4759 0.948 . S
H4790 C4761 0.947 . S
H4791 C4762 0.948 . S
H4792 C4768 0.982 . S
H4793 C4768 0.979 . S
H4794 C4768 0.977 . S
H4795 C4769 0.979 . S
H4796 C4769 0.980 . S
H4797 C4769 0.983 . S
H4798 C4742 0.947 . S
C4799 C4742 1.392 . S
C4799 C4743 1.419 . S
C4799 H4781 0.948 . S
C4800 C4801 1.387 . S
C4800 H4804 0.950 . S
C4800 C4809 1.390 . S
C4801 C4800 1.387 . S
C4801 C4803 1.387 . S
H4802 C4809 0.950 . S
C4803 C4801 1.387 . S
C4803 C4805 1.390 . S
C4803 H4807 0.950 . S
H4804 C4800 0.950 . S
C4805 C4803 1.390 . S
C4805 C4806 1.387 . S
C4805 H4808 0.950 . S
C4806 C4805 1.387 . S
C4806 C4809 1.387 . S
H4807 C4803 0.950 . S
H4808 C4805 0.950 . S
C4809 C4800 1.390 . S
C4809 H4802 0.950 . S
C4809 C4806 1.387 . S
C4810 C4811 1.387 . S
C4810 H4814 0.950 . S
C4810 C4819 1.390 . S
C4811 C4810 1.387 . S
C4811 C4813 1.387 . S
H4812 C4819 0.950 . S
C4813 C4811 1.387 . S
C4813 C4815 1.390 . S
C4813 H4817 0.950 . S
H4814 C4810 0.950 . S
C4815 C4813 1.390 . S
C4815 C4816 1.387 . S
C4815 H4818 0.950 . S
C4816 C4815 1.387 . S
C4816 C4819 1.387 . S
H4817 C4813 0.950 . S
H4818 C4815 0.950 . S
C4819 C4810 1.390 . S
C4819 H4812 0.950 . S
C4819 C4816 1.387 . S
C4820 C4821 1.387 . S
C4820 H4824 0.950 . S
C4820 C4829 1.390 . S
C4821 C4820 1.387 . S
C4821 C4823 1.387 . S
H4822 C4829 0.950 . S
C4823 C4821 1.387 . S
C4823 C4825 1.390 . S
C4823 H4827 0.950 . S
H4824 C4820 0.950 . S
C4825 C4823 1.390 . S
C4825 C4826 1.387 . S
C4825 H4828 0.950 . S
C4826 C4825 1.387 . S
C4826 C4829 1.387 . S
H4827 C4823 0.950 . S
H4828 C4825 0.950 . S
C4829 C4820 1.390 . S
C4829 H4822 0.950 . S
C4829 C4826 1.387 . S
C4830 C4831 1.387 . S
C4830 H4834 0.950 . S
C4830 C4839 1.390 . S
C4831 C4830 1.387 . S
C4831 C4833 1.387 . S
H4832 C4839 0.950 . S
C4833 C4831 1.387 . S
C4833 C4835 1.390 . S
C4833 H4837 0.950 . S
H4834 C4830 0.950 . S
C4835 C4833 1.390 . S
C4835 C4836 1.387 . S
C4835 H4838 0.950 . S
C4836 C4835 1.387 . S
C4836 C4839 1.387 . S
H4837 C4833 0.950 . S
H4838 C4835 0.950 . S
C4839 C4830 1.390 . S
C4839 H4832 0.950 . S
C4839 C4836 1.387 . S
C4840 C4841 1.387 . S
C4840 H4844 0.950 . S
C4840 C4849 1.390 . S
C4841 C4840 1.387 . S
C4841 C4843 1.387 . S
H4842 C4849 0.950 . S
C4843 C4841 1.387 . S
C4843 C4845 1.390 . S
C4843 H4847 0.950 . S
H4844 C4840 0.950 . S
C4845 C4843 1.390 . S
C4845 C4846 1.387 . S
C4845 H4848 0.950 . S
C4846 C4845 1.387 . S
C4846 C4849 1.387 . S
H4847 C4843 0.950 . S
H4848 C4845 0.950 . S
C4849 C4840 1.390 . S
C4849 H4842 0.950 . S
C4849 C4846 1.387 . S
C4850 C4851 1.387 . S
C4850 H4854 0.950 . S
C4850 C4859 1.390 . S
C4851 C4850 1.387 . S
C4851 C4853 1.387 . S
H4852 C4859 0.950 . S
C4853 C4851 1.387 . S
C4853 C4855 1.390 . S
C4853 H4857 0.950 . S
H4854 C4850 0.950 . S
C4855 C4853 1.390 . S
C4855 C4856 1.387 . S
C4855 H4858 0.950 . S
C4856 C4855 1.387 . S
C4856 C4859 1.387 . S
H4857 C4853 0.950 . S
H4858 C4855 0.950 . S
C4859 C4850 1.390 . S
C4859 H4852 0.950 . S
C4859 C4856 1.387 . S
C4860 C4861 1.387 . S
C4860 H4864 0.950 . S
C4860 C4869 1.390 . S
C4861 C4860 1.387 . S
C4861 C4863 1.387 . S
H4862 C4869 0.950 . S
C4863 C4861 1.387 . S
C4863 C4865 1.390 . S
C4863 H4867 0.950 . S
H4864 C4860 0.950 . S
C4865 C4863 1.390 . S
C4865 C4866 1.387 . S
C4865 H4868 0.950 . S
C4866 C4865 1.387 . S
C4866 C4869 1.387 . S
H4867 C4863 0.950 . S
H4868 C4865 0.950 . S
C4869 C4860 1.390 . S
C4869 H4862 0.950 . S
C4869 C4866 1.387 . S
C4870 C4871 1.387 . S
C4870 H4874 0.950 . S
C4870 C4879 1.390 . S
C4871 C4870 1.387 . S
C4871 C4873 1.387 . S
H4872 C4879 0.950 . S
C4873 C4871 1.387 . S
C4873 C4875 1.390 . S
C4873 H4877 0.950 . S
H4874 C4870 0.950 . S
C4875 C4873 1.390 . S
C4875 C4876 1.387 . S
C4875 H4878 0.950 . S
C4876 C4875 1.387 . S
C4876 C4879 1.387 . S
H4877 C4873 0.950 . S
H4878 C4875 0.950 . S
C4879 C4870 1.390 . S
C4879 H4872 0.950 . S
C4879 C4876 1.387 . S
C4880 C4881 1.387 . S
C4880 H4884 0.950 . S
C4880 C4889 1.390 . S
C4881 C4880 1.387 . S
C4881 C4883 1.387 . S
H4882 C4889 0.950 . S
C4883 C4881 1.387 . S
C4883 C4885 1.390 . S
C4883 H4887 0.950 . S
H4884 C4880 0.950 . S
C4885 C4883 1.390 . S
C4885 C4886 1.387 . S
C4885 H4888 0.950 . S
C4886 C4885 1.387 . S
C4886 C4889 1.387 . S
H4887 C4883 0.950 . S
H4888 C4885 0.950 . S
C4889 C4880 1.390 . S
C4889 H4882 0.950 . S
C4889 C4886 1.387 . S
C4890 C4891 1.387 . S
C4890 H4894 0.950 . S
C4890 C4899 1.390 . S
C4891 C4890 1.387 . S
C4891 C4893 1.387 . S
H4892 C4899 0.950 . S
C4893 C4891 1.387 . S
C4893 C4895 1.390 . S
C4893 H4897 0.950 . S
H4894 C4890 0.950 . S
C4895 C4893 1.390 . S
C4895 C4896 1.387 . S
C4895 H4898 0.950 . S
C4896 C4895 1.387 . S
C4896 C4899 1.387 . S
H4897 C4893 0.950 . S
H4898 C4895 0.950 . S
C4899 C4890 1.390 . S
C4899 H4892 0.950 . S
C4899 C4896 1.387 . S
C4900 C4901 1.387 . S
C4900 H4904 0.950 . S
C4900 C4909 1.390 . S
C4901 C4900 1.387 . S
C4901 C4903 1.387 . S
H4902 C4909 0.950 . S
C4903 C4901 1.387 . S
C4903 C4905 1.390 . S
C4903 H4907 0.950 . S
H4904 C4900 0.950 . S
C4905 C4903 1.390 . S
C4905 C4906 1.387 . S
C4905 H4908 0.950 . S
C4906 C4905 1.387 . S
C4906 C4909 1.387 . S
H4907 C4903 0.950 . S
H4908 C4905 0.950 . S
C4909 C4900 1.390 . S
C4909 H4902 0.950 . S
C4909 C4906 1.387 . S
C4910 C4911 1.387 . S
C4910 H4914 0.950 . S
C4910 C4919 1.390 . S
C4911 C4910 1.387 . S
C4911 C4913 1.387 1_545 S
H4912 C4919 0.950 . S
C4913 C4911 1.387 1_565 S
C4913 C4915 1.390 . S
C4913 H4917 0.950 . S
H4914 C4910 0.950 . S
C4915 C4913 1.390 . S
C4915 C4916 1.387 1_565 S
C4915 H4918 0.950 . S
C4916 C4915 1.387 1_545 S
C4916 C4919 1.387 . S
H4917 C4913 0.950 . S
H4918 C4915 0.950 . S
C4919 C4910 1.390 . S
C4919 H4912 0.950 . S
C4919 C4916 1.387 . S
C4920 C4921 1.387 . S
C4920 H4924 0.950 . S
C4920 C4929 1.390 . S
C4921 C4920 1.387 . S
C4921 C4923 1.387 . S
H4922 C4929 0.950 . S
C4923 C4921 1.387 . S
C4923 C4925 1.390 . S
C4923 H4927 0.950 . S
H4924 C4920 0.950 . S
C4925 C4923 1.390 . S
C4925 C4926 1.387 . S
C4925 H4928 0.950 . S
C4926 C4925 1.387 . S
C4926 C4929 1.387 . S
H4927 C4923 0.950 . S
H4928 C4925 0.950 . S
C4929 C4920 1.390 . S
C4929 H4922 0.950 . S
C4929 C4926 1.387 . S
C4930 C4931 1.387 . S
C4930 H4934 0.950 . S
C4930 C4939 1.390 . S
C4931 C4930 1.387 . S
C4931 C4933 1.387 1_565 S
H4932 C4939 0.950 . S
C4933 C4931 1.387 1_545 S
C4933 C4935 1.390 . S
C4933 H4937 0.950 . S
H4934 C4930 0.950 . S
C4935 C4933 1.390 . S
C4935 C4936 1.387 1_545 S
C4935 H4938 0.950 . S
C4936 C4935 1.387 1_565 S
C4936 C4939 1.387 . S
H4937 C4933 0.950 . S
H4938 C4935 0.950 . S
C4939 C4930 1.390 . S
C4939 H4932 0.950 . S
C4939 C4936 1.387 . S
C4940 C4941 1.387 . S
C4940 H4944 0.950 . S
C4940 C4949 1.390 . S
C4941 C4940 1.387 . S
C4941 C4943 1.387 . S
H4942 C4949 0.950 . S
C4943 C4941 1.387 . S
C4943 C4945 1.390 . S
C4943 H4947 0.950 . S
H4944 C4940 0.950 . S
C4945 C4943 1.390 . S
C4945 C4946 1.387 . S
C4945 H4948 0.950 . S
C4946 C4945 1.387 . S
C4946 C4949 1.387 . S
H4947 C4943 0.950 . S
H4948 C4945 0.950 . S
C4949 C4940 1.390 . S
C4949 H4942 0.950 . S
C4949 C4946 1.387 . S
C4950 C4951 1.387 . S
C4950 H4954 0.950 . S
C4950 C4959 1.390 . S
C4951 C4950 1.387 . S
C4951 C4953 1.387 . S
H4952 C4959 0.950 . S
C4953 C4951 1.387 . S
C4953 C4955 1.390 . S
C4953 H4957 0.950 . S
H4954 C4950 0.950 . S
C4955 C4953 1.390 . S
C4955 C4956 1.387 . S
C4955 H4958 0.950 . S
C4956 C4955 1.387 . S
C4956 C4959 1.387 . S
H4957 C4953 0.950 . S
H4958 C4955 0.950 . S
C4959 C4950 1.390 . S
C4959 H4952 0.950 . S
C4959 C4956 1.387 . S
C4960 C4961 1.387 . S
C4960 H4964 0.950 . S
C4960 C4969 1.390 . S
C4961 C4960 1.387 . S
C4961 C4963 1.387 . S
H4962 C4969 0.950 . S
C4963 C4961 1.387 . S
C4963 C4965 1.390 . S
C4963 H4967 0.950 . S
H4964 C4960 0.950 . S
C4965 C4963 1.390 . S
C4965 C4966 1.387 . S
C4965 H4968 0.950 . S
C4966 C4965 1.387 . S
C4966 C4969 1.387 . S
H4967 C4963 0.950 . S
H4968 C4965 0.950 . S
C4969 C4960 1.390 . S
C4969 H4962 0.950 . S
C4969 C4966 1.387 . S
C4970 C4971 1.387 . S
C4970 H4974 0.950 . S
C4970 C4979 1.390 . S
C4971 C4970 1.387 . S
C4971 C4973 1.387 . S
H4972 C4979 0.950 . S
C4973 C4971 1.387 . S
C4973 C4975 1.390 . S
C4973 H4977 0.950 . S
H4974 C4970 0.950 . S
C4975 C4973 1.390 . S
C4975 C4976 1.387 . S
C4975 H4978 0.950 . S
C4976 C4975 1.387 . S
C4976 C4979 1.387 . S
H4977 C4973 0.950 . S
H4978 C4975 0.950 . S
C4979 C4970 1.390 . S
C4979 H4972 0.950 . S
C4979 C4976 1.387 . S
C4980 C4981 1.387 . S
C4980 H4984 0.950 . S
C4980 C4989 1.390 . S
C4981 C4980 1.387 . S
C4981 C4983 1.387 . S
H4982 C4989 0.950 . S
C4983 C4981 1.387 . S
C4983 C4985 1.390 . S
C4983 H4987 0.950 . S
H4984 C4980 0.950 . S
C4985 C4983 1.390 . S
C4985 C4986 1.387 . S
C4985 H4988 0.950 . S
C4986 C4985 1.387 . S
C4986 C4989 1.387 . S
H4987 C4983 0.950 . S
H4988 C4985 0.950 . S
C4989 C4980 1.390 . S
C4989 H4982 0.950 . S
C4989 C4986 1.387 . S
C4990 C4991 1.387 . S
C4990 H4994 0.950 . S
C4990 C4999 1.390 . S
C4991 C4990 1.387 . S
C4991 C4993 1.387 . S
H4992 C4999 0.950 . S
C4993 C4991 1.387 . S
C4993 C4995 1.390 . S
C4993 H4997 0.950 . S
H4994 C4990 0.950 . S
C4995 C4993 1.390 . S
C4995 C4996 1.387 . S
C4995 H4998 0.950 . S
C4996 C4995 1.387 . S
C4996 C4999 1.387 . S
H4997 C4993 0.950 . S
H4998 C4995 0.950 . S
C4999 C4990 1.390 . S
C4999 H4992 0.950 . S
C4999 C4996 1.387 . S
C5000 C5001 1.387 . S
C5000 H5004 0.950 . S
C5000 C5009 1.390 . S
C5001 C5000 1.387 . S
C5001 C5003 1.387 . S
H5002 C5009 0.950 . S
C5003 C5001 1.387 . S
C5003 C5005 1.390 . S
C5003 H5007 0.950 . S
H5004 C5000 0.950 . S
C5005 C5003 1.390 . S
C5005 C5006 1.387 . S
C5005 H5008 0.950 . S
C5006 C5005 1.387 . S
C5006 C5009 1.387 . S
H5007 C5003 0.950 . S
H5008 C5005 0.950 . S
C5009 C5000 1.390 . S
C5009 H5002 0.950 . S
C5009 C5006 1.387 . S
C5010 C5011 1.387 . S
C5010 H5014 0.950 . S
C5010 C5019 1.390 . S
C5011 C5010 1.387 . S
C5011 C5013 1.387 . S
H5012 C5019 0.950 . S
C5013 C5011 1.387 . S
C5013 C5015 1.390 . S
C5013 H5017 0.950 . S
H5014 C5010 0.950 . S
C5015 C5013 1.390 . S
C5015 C5016 1.387 . S
C5015 H5018 0.950 . S
C5016 C5015 1.387 . S
C5016 C5019 1.387 . S
H5017 C5013 0.950 . S
H5018 C5015 0.950 . S
C5019 C5010 1.390 . S
C5019 H5012 0.950 . S
C5019 C5016 1.387 . S
C5020 C5021 1.387 . S
C5020 H5024 0.950 . S
C5020 C5029 1.390 . S
C5021 C5020 1.387 . S
C5021 C5023 1.387 . S
H5022 C5029 0.950 . S
C5023 C5021 1.387 . S
C5023 C5025 1.390 . S
C5023 H5027 0.950 . S
H5024 C5020 0.950 . S
C5025 C5023 1.390 . S
C5025 C5026 1.387 . S
C5025 H5028 0.950 . S
C5026 C5025 1.387 . S
C5026 C5029 1.387 . S
H5027 C5023 0.950 . S
H5028 C5025 0.950 . S
C5029 C5020 1.390 . S
C5029 H5022 0.950 . S
C5029 C5026 1.387 . S
C5030 C5031 1.387 . S
C5030 H5034 0.950 . S
C5030 C5039 1.390 . S
C5031 C5030 1.387 . S
C5031 C5033 1.387 . S
H5032 C5039 0.950 . S
C5033 C5031 1.387 . S
C5033 C5035 1.390 . S
C5033 H5037 0.950 . S
H5034 C5030 0.950 . S
C5035 C5033 1.390 . S
C5035 C5036 1.387 . S
C5035 H5038 0.950 . S
C5036 C5035 1.387 . S
C5036 C5039 1.387 . S
H5037 C5033 0.950 . S
H5038 C5035 0.950 . S
C5039 C5030 1.390 . S
C5039 H5032 0.950 . S
C5039 C5036 1.387 . S
C5040 C5041 1.387 . S
C5040 H5044 0.950 . S
C5040 C5049 1.390 . S
C5041 C5040 1.387 . S
C5041 C5043 1.387 . S
H5042 C5049 0.950 . S
C5043 C5041 1.387 . S
C5043 C5045 1.390 . S
C5043 H5047 0.950 . S
H5044 C5040 0.950 . S
C5045 C5043 1.390 . S
C5045 C5046 1.387 . S
C5045 H5048 0.950 . S
C5046 C5045 1.387 . S
C5046 C5049 1.387 . S
H5047 C5043 0.950 . S
H5048 C5045 0.950 . S
C5049 C5040 1.390 . S
C5049 H5042 0.950 . S
C5049 C5046 1.387 . S
C5050 C5051 1.387 . S
C5050 H5054 0.950 . S
C5050 C5059 1.390 . S
C5051 C5050 1.387 . S
C5051 C5053 1.387 . S
H5052 C5059 0.950 . S
C5053 C5051 1.387 . S
C5053 C5055 1.390 . S
C5053 H5057 0.950 . S
H5054 C5050 0.950 . S
C5055 C5053 1.390 . S
C5055 C5056 1.387 . S
C5055 H5058 0.950 . S
C5056 C5055 1.387 . S
C5056 C5059 1.387 . S
H5057 C5053 0.950 . S
H5058 C5055 0.950 . S
C5059 C5050 1.390 . S
C5059 H5052 0.950 . S
C5059 C5056 1.387 . S
C5060 C5061 1.387 . S
C5060 H5064 0.950 . S
C5060 C5069 1.390 . S
C5061 C5060 1.387 . S
C5061 C5063 1.387 . S
H5062 C5069 0.950 . S
C5063 C5061 1.387 . S
C5063 C5065 1.390 . S
C5063 H5067 0.950 . S
H5064 C5060 0.950 . S
C5065 C5063 1.390 . S
C5065 C5066 1.387 . S
C5065 H5068 0.950 . S
C5066 C5065 1.387 . S
C5066 C5069 1.387 . S
H5067 C5063 0.950 . S
H5068 C5065 0.950 . S
C5069 C5060 1.390 . S
C5069 H5062 0.950 . S
C5069 C5066 1.387 . S
C5070 C5071 1.387 . S
C5070 H5074 0.950 . S
C5070 C5079 1.390 . S
C5071 C5070 1.387 . S
C5071 C5073 1.387 . S
H5072 C5079 0.950 . S
C5073 C5071 1.387 . S
C5073 C5075 1.390 . S
C5073 H5077 0.950 . S
H5074 C5070 0.950 . S
C5075 C5073 1.390 . S
C5075 C5076 1.387 . S
C5075 H5078 0.950 . S
C5076 C5075 1.387 . S
C5076 C5079 1.387 . S
H5077 C5073 0.950 . S
H5078 C5075 0.950 . S
C5079 C5070 1.390 . S
C5079 H5072 0.950 . S
C5079 C5076 1.387 . S
C5080 C5081 1.387 . S
C5080 H5084 0.950 . S
C5080 C5089 1.390 . S
C5081 C5080 1.387 . S
C5081 C5083 1.387 . S
H5082 C5089 0.950 . S
C5083 C5081 1.387 . S
C5083 C5085 1.390 . S
C5083 H5087 0.950 . S
H5084 C5080 0.950 . S
C5085 C5083 1.390 . S
C5085 C5086 1.387 . S
C5085 H5088 0.950 . S
C5086 C5085 1.387 . S
C5086 C5089 1.387 . S
H5087 C5083 0.950 . S
H5088 C5085 0.950 . S
C5089 C5080 1.390 . S
C5089 H5082 0.950 . S
C5089 C5086 1.387 . S
C5090 C5091 1.387 . S
C5090 H5094 0.950 . S
C5090 C5099 1.390 . S
C5091 C5090 1.387 . S
C5091 C5093 1.387 . S
H5092 C5099 0.950 . S
C5093 C5091 1.387 . S
C5093 C5095 1.390 . S
C5093 H5097 0.950 . S
H5094 C5090 0.950 . S
C5095 C5093 1.390 . S
C5095 C5096 1.387 . S
C5095 H5098 0.950 . S
C5096 C5095 1.387 . S
C5096 C5099 1.387 . S
H5097 C5093 0.950 . S
H5098 C5095 0.950 . S
C5099 C5090 1.390 . S
C5099 H5092 0.950 . S
C5099 C5096 1.387 . S
C5100 C5101 1.387 . S
C5100 H5104 0.950 . S
C5100 C5109 1.390 . S
C5101 C5100 1.387 . S
C5101 C5103 1.387 . S
H5102 C5109 0.950 . S
C5103 C5101 1.387 . S
C5103 C5105 1.390 . S
C5103 H5107 0.950 . S
H5104 C5100 0.950 . S
C5105 C5103 1.390 . S
C5105 C5106 1.387 . S
C5105 H5108 0.950 . S
C5106 C5105 1.387 . S
C5106 C5109 1.387 . S
H5107 C5103 0.950 . S
H5108 C5105 0.950 . S
C5109 C5100 1.390 . S
C5109 H5102 0.950 . S
C5109 C5106 1.387 . S
C5110 C5111 1.387 . S
C5110 H5114 0.950 . S
C5110 C5119 1.390 . S
C5111 C5110 1.387 . S
C5111 C5113 1.387 . S
H5112 C5119 0.950 . S
C5113 C5111 1.387 . S
C5113 C5115 1.390 . S
C5113 H5117 0.950 . S
H5114 C5110 0.950 . S
C5115 C5113 1.390 . S
C5115 C5116 1.387 . S
C5115 H5118 0.950 . S
C5116 C5115 1.387 . S
C5116 C5119 1.387 . S
H5117 C5113 0.950 . S
H5118 C5115 0.950 . S
C5119 C5110 1.390 . S
C5119 H5112 0.950 . S
C5119 C5116 1.387 . S
C5120 C5121 1.387 1_545 S
C5120 H5124 0.950 . S
C5120 C5129 1.390 . S
C5121 C5120 1.387 1_565 S
C5121 C5123 1.387 . S
H5122 C5129 0.950 . S
C5123 C5121 1.387 . S
C5123 C5125 1.390 . S
C5123 H5127 0.950 . S
H5124 C5120 0.950 . S
C5125 C5123 1.390 . S
C5125 C5126 1.387 . S
C5125 H5128 0.950 . S
C5126 C5125 1.387 . S
C5126 C5129 1.387 1_565 S
H5127 C5123 0.950 . S
H5128 C5125 0.950 . S
C5129 C5120 1.390 . S
C5129 H5122 0.950 . S
C5129 C5126 1.387 1_545 S
C5130 C5131 1.387 . S
C5130 H5134 0.950 . S
C5130 C5139 1.390 . S
C5131 C5130 1.387 . S
C5131 C5133 1.387 . S
H5132 C5139 0.950 . S
C5133 C5131 1.387 . S
C5133 C5135 1.390 . S
C5133 H5137 0.950 . S
H5134 C5130 0.950 . S
C5135 C5133 1.390 . S
C5135 C5136 1.387 . S
C5135 H5138 0.950 . S
C5136 C5135 1.387 . S
C5136 C5139 1.387 . S
H5137 C5133 0.950 . S
H5138 C5135 0.950 . S
C5139 C5130 1.390 . S
C5139 H5132 0.950 . S
C5139 C5136 1.387 . S
C5140 C5141 1.387 . S
C5140 H5144 0.950 . S
C5140 C5149 1.390 . S
C5141 C5140 1.387 . S
C5141 C5143 1.387 1_545 S
H5142 C5149 0.950 . S
C5143 C5141 1.387 1_565 S
C5143 C5145 1.390 . S
C5143 H5147 0.950 . S
H5144 C5140 0.950 . S
C5145 C5143 1.390 . S
C5145 C5146 1.387 1_565 S
C5145 H5148 0.950 . S
C5146 C5145 1.387 1_545 S
C5146 C5149 1.387 . S
H5147 C5143 0.950 . S
H5148 C5145 0.950 . S
C5149 C5140 1.390 . S
C5149 H5142 0.950 . S
C5149 C5146 1.387 . S
C5150 C5151 1.387 . S
C5150 H5154 0.950 . S
C5150 C5159 1.390 . S
C5151 C5150 1.387 . S
C5151 C5153 1.387 . S
H5152 C5159 0.950 . S
C5153 C5151 1.387 . S
C5153 C5155 1.390 . S
C5153 H5157 0.950 . S
H5154 C5150 0.950 . S
C5155 C5153 1.390 . S
C5155 C5156 1.387 . S
C5155 H5158 0.950 . S
C5156 C5155 1.387 . S
C5156 C5159 1.387 . S
H5157 C5153 0.950 . S
H5158 C5155 0.950 . S
C5159 C5150 1.390 . S
C5159 H5152 0.950 . S
C5159 C5156 1.387 . S
C5160 C5161 1.387 . S
C5160 H5164 0.950 . S
C5160 C5169 1.390 . S
C5161 C5160 1.387 . S
C5161 C5163 1.387 . S
H5162 C5169 0.950 . S
C5163 C5161 1.387 . S
C5163 C5165 1.390 . S
C5163 H5167 0.950 . S
H5164 C5160 0.950 . S
C5165 C5163 1.390 . S
C5165 C5166 1.387 . S
C5165 H5168 0.950 . S
C5166 C5165 1.387 . S
C5166 C5169 1.387 . S
H5167 C5163 0.950 . S
H5168 C5165 0.950 . S
C5169 C5160 1.390 . S
C5169 H5162 0.950 . S
C5169 C5166 1.387 . S
C5170 C5171 1.387 . S
C5170 H5174 0.950 . S
C5170 C5179 1.390 . S
C5171 C5170 1.387 . S
C5171 C5173 1.387 . S
H5172 C5179 0.950 . S
C5173 C5171 1.387 . S
C5173 C5175 1.390 . S
C5173 H5177 0.950 . S
H5174 C5170 0.950 . S
C5175 C5173 1.390 . S
C5175 C5176 1.387 . S
C5175 H5178 0.950 . S
C5176 C5175 1.387 . S
C5176 C5179 1.387 . S
H5177 C5173 0.950 . S
H5178 C5175 0.950 . S
C5179 C5170 1.390 . S
C5179 H5172 0.950 . S
C5179 C5176 1.387 . S
C5180 C5181 1.387 . S
C5180 H5184 0.950 . S
C5180 C5189 1.390 . S
C5181 C5180 1.387 . S
C5181 C5183 1.387 . S
H5182 C5189 0.950 . S
C5183 C5181 1.387 . S
C5183 C5185 1.390 . S
C5183 H5187 0.950 . S
H5184 C5180 0.950 . S
C5185 C5183 1.390 . S
C5185 C5186 1.387 . S
C5185 H5188 0.950 . S
C5186 C5185 1.387 . S
C5186 C5189 1.387 . S
H5187 C5183 0.950 . S
H5188 C5185 0.950 . S
C5189 C5180 1.390 . S
C5189 H5182 0.950 . S
C5189 C5186 1.387 . S
C5190 C5191 1.387 . S
C5190 H5194 0.950 . S
C5190 C5199 1.390 . S
C5191 C5190 1.387 . S
C5191 C5193 1.387 . S
H5192 C5199 0.950 . S
C5193 C5191 1.387 . S
C5193 C5195 1.390 . S
C5193 H5197 0.950 . S
H5194 C5190 0.950 . S
C5195 C5193 1.390 . S
C5195 C5196 1.387 . S
C5195 H5198 0.950 . S
C5196 C5195 1.387 . S
C5196 C5199 1.387 . S
H5197 C5193 0.950 . S
H5198 C5195 0.950 . S
C5199 C5190 1.390 . S
C5199 H5192 0.950 . S
C5199 C5196 1.387 . S
C5200 C5201 1.387 . S
C5200 H5204 0.950 . S
C5200 C5209 1.390 . S
C5201 C5200 1.387 . S
C5201 C5203 1.387 . S
H5202 C5209 0.950 . S
C5203 C5201 1.387 . S
C5203 C5205 1.390 . S
C5203 H5207 0.950 . S
H5204 C5200 0.950 . S
C5205 C5203 1.390 . S
C5205 C5206 1.387 . S
C5205 H5208 0.950 . S
C5206 C5205 1.387 . S
C5206 C5209 1.387 . S
H5207 C5203 0.950 . S
H5208 C5205 0.950 . S
C5209 C5200 1.390 . S
C5209 H5202 0.950 . S
C5209 C5206 1.387 . S
C5210 C5211 1.387 . S
C5210 H5214 0.950 . S
C5210 C5219 1.390 . S
C5211 C5210 1.387 . S
C5211 C5213 1.387 . S
H5212 C5219 0.950 . S
C5213 C5211 1.387 . S
C5213 C5215 1.390 . S
C5213 H5217 0.950 . S
H5214 C5210 0.950 . S
C5215 C5213 1.390 . S
C5215 C5216 1.387 . S
C5215 H5218 0.950 . S
C5216 C5215 1.387 . S
C5216 C5219 1.387 . S
H5217 C5213 0.950 . S
H5218 C5215 0.950 . S
C5219 C5210 1.390 . S
C5219 H5212 0.950 . S
C5219 C5216 1.387 . S
C5220 C5221 1.387 . S
C5220 H5224 0.950 . S
C5220 C5229 1.390 . S
C5221 C5220 1.387 . S
C5221 C5223 1.387 . S
H5222 C5229 0.950 . S
C5223 C5221 1.387 . S
C5223 C5225 1.390 . S
C5223 H5227 0.950 . S
H5224 C5220 0.950 . S
C5225 C5223 1.390 . S
C5225 C5226 1.387 . S
C5225 H5228 0.950 . S
C5226 C5225 1.387 . S
C5226 C5229 1.387 . S
H5227 C5223 0.950 . S
H5228 C5225 0.950 . S
C5229 C5220 1.390 . S
C5229 H5222 0.950 . S
C5229 C5226 1.387 . S
C5230 C5231 1.387 . S
C5230 H5234 0.950 . S
C5230 C5239 1.390 . S
C5231 C5230 1.387 . S
C5231 C5233 1.387 . S
H5232 C5239 0.950 . S
C5233 C5231 1.387 . S
C5233 C5235 1.390 . S
C5233 H5237 0.950 . S
H5234 C5230 0.950 . S
C5235 C5233 1.390 . S
C5235 C5236 1.387 . S
C5235 H5238 0.950 . S
C5236 C5235 1.387 . S
C5236 C5239 1.387 . S
H5237 C5233 0.950 . S
H5238 C5235 0.950 . S
C5239 C5230 1.390 . S
C5239 H5232 0.950 . S
C5239 C5236 1.387 . S
C5240 C5241 1.387 . S
C5240 H5244 0.950 . S
C5240 C5249 1.390 . S
C5241 C5240 1.387 . S
C5241 C5243 1.387 . S
H5242 C5249 0.950 . S
C5243 C5241 1.387 . S
C5243 C5245 1.390 . S
C5243 H5247 0.950 . S
H5244 C5240 0.950 . S
C5245 C5243 1.390 . S
C5245 C5246 1.387 . S
C5245 H5248 0.950 . S
C5246 C5245 1.387 . S
C5246 C5249 1.387 . S
H5247 C5243 0.950 . S
H5248 C5245 0.950 . S
C5249 C5240 1.390 . S
C5249 H5242 0.950 . S
C5249 C5246 1.387 . S
C5250 C5251 1.387 . S
C5250 H5254 0.950 . S
C5250 C5259 1.390 . S
C5251 C5250 1.387 . S
C5251 C5253 1.387 . S
H5252 C5259 0.950 . S
C5253 C5251 1.387 . S
C5253 C5255 1.390 . S
C5253 H5257 0.950 . S
H5254 C5250 0.950 . S
C5255 C5253 1.390 . S
C5255 C5256 1.387 . S
C5255 H5258 0.950 . S
C5256 C5255 1.387 . S
C5256 C5259 1.387 . S
H5257 C5253 0.950 . S
H5258 C5255 0.950 . S
C5259 C5250 1.390 . S
C5259 H5252 0.950 . S
C5259 C5256 1.387 . S
C5260 C5261 1.387 . S
C5260 H5264 0.950 . S
C5260 C5269 1.390 . S
C5261 C5260 1.387 . S
C5261 C5263 1.387 . S
H5262 C5269 0.950 . S
C5263 C5261 1.387 . S
C5263 C5265 1.390 . S
C5263 H5267 0.950 . S
H5264 C5260 0.950 . S
C5265 C5263 1.390 . S
C5265 C5266 1.387 . S
C5265 H5268 0.950 . S
C5266 C5265 1.387 . S
C5266 C5269 1.387 . S
H5267 C5263 0.950 . S
H5268 C5265 0.950 . S
C5269 C5260 1.390 . S
C5269 H5262 0.950 . S
C5269 C5266 1.387 . S
C5270 C5271 1.387 . S
C5270 H5274 0.950 . S
C5270 C5279 1.390 . S
C5271 C5270 1.387 . S
C5271 C5273 1.387 . S
H5272 C5279 0.950 . S
C5273 C5271 1.387 . S
C5273 C5275 1.390 . S
C5273 H5277 0.950 . S
H5274 C5270 0.950 . S
C5275 C5273 1.390 . S
C5275 C5276 1.387 . S
C5275 H5278 0.950 . S
C5276 C5275 1.387 . S
C5276 C5279 1.387 . S
H5277 C5273 0.950 . S
H5278 C5275 0.950 . S
C5279 C5270 1.390 . S
C5279 H5272 0.950 . S
C5279 C5276 1.387 . S
C5280 C5281 1.387 . S
C5280 H5284 0.950 . S
C5280 C5289 1.390 . S
C5281 C5280 1.387 . S
C5281 C5283 1.387 . S
H5282 C5289 0.950 . S
C5283 C5281 1.387 . S
C5283 C5285 1.390 . S
C5283 H5287 0.950 . S
H5284 C5280 0.950 . S
C5285 C5283 1.390 . S
C5285 C5286 1.387 . S
C5285 H5288 0.950 . S
C5286 C5285 1.387 . S
C5286 C5289 1.387 . S
H5287 C5283 0.950 . S
H5288 C5285 0.950 . S
C5289 C5280 1.390 . S
C5289 H5282 0.950 . S
C5289 C5286 1.387 . S
C5290 C5291 1.387 . S
C5290 H5294 0.950 . S
C5290 C5299 1.390 . S
C5291 C5290 1.387 . S
C5291 C5293 1.387 . S
H5292 C5299 0.950 . S
C5293 C5291 1.387 . S
C5293 C5295 1.390 . S
C5293 H5297 0.950 . S
H5294 C5290 0.950 . S
C5295 C5293 1.390 . S
C5295 C5296 1.387 . S
C5295 H5298 0.950 . S
C5296 C5295 1.387 . S
C5296 C5299 1.387 . S
H5297 C5293 0.950 . S
H5298 C5295 0.950 . S
C5299 C5290 1.390 . S
C5299 H5292 0.950 . S
C5299 C5296 1.387 . S
C5300 C5301 1.387 . S
C5300 H5304 0.950 . S
C5300 C5309 1.390 . S
C5301 C5300 1.387 . S
C5301 C5303 1.387 . S
H5302 C5309 0.950 . S
C5303 C5301 1.387 . S
C5303 C5305 1.390 . S
C5303 H5307 0.950 . S
H5304 C5300 0.950 . S
C5305 C5303 1.390 . S
C5305 C5306 1.387 . S
C5305 H5308 0.950 . S
C5306 C5305 1.387 . S
C5306 C5309 1.387 . S
H5307 C5303 0.950 . S
H5308 C5305 0.950 . S
C5309 C5300 1.390 . S
C5309 H5302 0.950 . S
C5309 C5306 1.387 . S
C5310 C5311 1.387 . S
C5310 H5314 0.950 . S
C5310 C5319 1.390 . S
C5311 C5310 1.387 . S
C5311 C5313 1.387 . S
H5312 C5319 0.950 . S
C5313 C5311 1.387 . S
C5313 C5315 1.390 . S
C5313 H5317 0.950 . S
H5314 C5310 0.950 . S
C5315 C5313 1.390 . S
C5315 C5316 1.387 . S
C5315 H5318 0.950 . S
C5316 C5315 1.387 . S
C5316 C5319 1.387 . S
H5317 C5313 0.950 . S
H5318 C5315 0.950 . S
C5319 C5310 1.390 . S
C5319 H5312 0.950 . S
C5319 C5316 1.387 . S
C5320 C5321 1.387 . S
C5320 H5324 0.950 . S
C5320 C5329 1.390 . S
C5321 C5320 1.387 . S
C5321 C5323 1.387 . S
H5322 C5329 0.950 . S
C5323 C5321 1.387 . S
C5323 C5325 1.390 . S
C5323 H5327 0.950 . S
H5324 C5320 0.950 . S
C5325 C5323 1.390 . S
C5325 C5326 1.387 . S
C5325 H5328 0.950 . S
C5326 C5325 1.387 . S
C5326 C5329 1.387 . S
H5327 C5323 0.950 . S
H5328 C5325 0.950 . S
C5329 C5320 1.390 . S
C5329 H5322 0.950 . S
C5329 C5326 1.387 . S
C5330 C5331 1.387 . S
C5330 H5334 0.950 . S
C5330 C5339 1.390 . S
C5331 C5330 1.387 . S
C5331 C5333 1.387 . S
H5332 C5339 0.950 . S
C5333 C5331 1.387 . S
C5333 C5335 1.390 . S
C5333 H5337 0.950 . S
H5334 C5330 0.950 . S
C5335 C5333 1.390 . S
C5335 C5336 1.387 . S
C5335 H5338 0.950 . S
C5336 C5335 1.387 . S
C5336 C5339 1.387 . S
H5337 C5333 0.950 . S
H5338 C5335 0.950 . S
C5339 C5330 1.390 . S
C5339 H5332 0.950 . S
C5339 C5336 1.387 . S
C5340 C5341 1.387 . S
C5340 H5344 0.950 . S
C5340 C5349 1.390 . S
C5341 C5340 1.387 . S
C5341 C5343 1.387 . S
H5342 C5349 0.950 . S
C5343 C5341 1.387 . S
C5343 C5345 1.390 . S
C5343 H5347 0.950 . S
H5344 C5340 0.950 . S
C5345 C5343 1.390 . S
C5345 C5346 1.387 . S
C5345 H5348 0.950 . S
C5346 C5345 1.387 . S
C5346 C5349 1.387 . S
H5347 C5343 0.950 . S
H5348 C5345 0.950 . S
C5349 C5340 1.390 . S
C5349 H5342 0.950 . S
C5349 C5346 1.387 . S
C5350 C5351 1.387 . S
C5350 H5354 0.950 . S
C5350 C5359 1.390 . S
C5351 C5350 1.387 . S
C5351 C5353 1.387 . S
H5352 C5359 0.950 . S
C5353 C5351 1.387 . S
C5353 C5355 1.390 . S
C5353 H5357 0.950 . S
H5354 C5350 0.950 . S
C5355 C5353 1.390 . S
C5355 C5356 1.387 . S
C5355 H5358 0.950 . S
C5356 C5355 1.387 . S
C5356 C5359 1.387 . S
H5357 C5353 0.950 . S
H5358 C5355 0.950 . S
C5359 C5350 1.390 . S
C5359 H5352 0.950 . S
C5359 C5356 1.387 . S
C5360 C5361 1.387 . S
C5360 H5364 0.950 . S
C5360 C5369 1.390 . S
C5361 C5360 1.387 . S
C5361 C5363 1.387 . S
H5362 C5369 0.950 . S
C5363 C5361 1.387 . S
C5363 C5365 1.390 . S
C5363 H5367 0.950 . S
H5364 C5360 0.950 . S
C5365 C5363 1.390 . S
C5365 C5366 1.387 . S
C5365 H5368 0.950 . S
C5366 C5365 1.387 . S
C5366 C5369 1.387 . S
H5367 C5363 0.950 . S
H5368 C5365 0.950 . S
C5369 C5360 1.390 . S
C5369 H5362 0.950 . S
C5369 C5366 1.387 . S
C5370 C5371 1.387 . S
C5370 H5374 0.950 . S
C5370 C5379 1.390 . S
C5371 C5370 1.387 . S
C5371 C5373 1.387 . S
H5372 C5379 0.950 . S
C5373 C5371 1.387 . S
C5373 C5375 1.390 . S
C5373 H5377 0.950 . S
H5374 C5370 0.950 . S
C5375 C5373 1.390 . S
C5375 C5376 1.387 . S
C5375 H5378 0.950 . S
C5376 C5375 1.387 . S
C5376 C5379 1.387 . S
H5377 C5373 0.950 . S
H5378 C5375 0.950 . S
C5379 C5370 1.390 . S
C5379 H5372 0.950 . S
C5379 C5376 1.387 . S
C5380 C5381 1.387 . S
C5380 H5384 0.950 . S
C5380 C5389 1.390 . S
C5381 C5380 1.387 . S
C5381 C5383 1.387 . S
H5382 C5389 0.950 . S
C5383 C5381 1.387 . S
C5383 C5385 1.390 . S
C5383 H5387 0.950 . S
H5384 C5380 0.950 . S
C5385 C5383 1.390 . S
C5385 C5386 1.387 . S
C5385 H5388 0.950 . S
C5386 C5385 1.387 . S
C5386 C5389 1.387 . S
H5387 C5383 0.950 . S
H5388 C5385 0.950 . S
C5389 C5380 1.390 . S
C5389 H5382 0.950 . S
C5389 C5386 1.387 . S
C5390 C5391 1.387 . S
C5390 H5394 0.950 . S
C5390 C5399 1.390 . S
C5391 C5390 1.387 . S
C5391 C5393 1.387 . S
H5392 C5399 0.950 . S
C5393 C5391 1.387 . S
C5393 C5395 1.390 . S
C5393 H5397 0.950 . S
H5394 C5390 0.950 . S
C5395 C5393 1.390 . S
C5395 C5396 1.387 . S
C5395 H5398 0.950 . S
C5396 C5395 1.387 . S
C5396 C5399 1.387 . S
H5397 C5393 0.950 . S
H5398 C5395 0.950 . S
C5399 C5390 1.390 . S
C5399 H5392 0.950 . S
C5399 C5396 1.387 . S
C5400 C5401 1.387 . S
C5400 H5404 0.950 . S
C5400 C5409 1.390 . S
C5401 C5400 1.387 . S
C5401 C5403 1.387 . S
H5402 C5409 0.950 . S
C5403 C5401 1.387 . S
C5403 C5405 1.390 . S
C5403 H5407 0.950 . S
H5404 C5400 0.950 . S
C5405 C5403 1.390 . S
C5405 C5406 1.387 . S
C5405 H5408 0.950 . S
C5406 C5405 1.387 . S
C5406 C5409 1.387 . S
H5407 C5403 0.950 . S
H5408 C5405 0.950 . S
C5409 C5400 1.390 . S
C5409 H5402 0.950 . S
C5409 C5406 1.387 . S
C5410 C5411 1.387 . S
C5410 H5414 0.950 . S
C5410 C5419 1.390 . S
C5411 C5410 1.387 . S
C5411 C5413 1.387 . S
H5412 C5419 0.950 . S
C5413 C5411 1.387 . S
C5413 C5415 1.390 . S
C5413 H5417 0.950 . S
H5414 C5410 0.950 . S
C5415 C5413 1.390 . S
C5415 C5416 1.387 . S
C5415 H5418 0.950 . S
C5416 C5415 1.387 . S
C5416 C5419 1.387 . S
H5417 C5413 0.950 . S
H5418 C5415 0.950 . S
C5419 C5410 1.390 . S
C5419 H5412 0.950 . S
C5419 C5416 1.387 . S
C5420 C5421 1.387 . S
C5420 H5424 0.950 . S
C5420 C5429 1.390 . S
C5421 C5420 1.387 . S
C5421 C5423 1.387 . S
H5422 C5429 0.950 . S
C5423 C5421 1.387 . S
C5423 C5425 1.390 . S
C5423 H5427 0.950 . S
H5424 C5420 0.950 . S
C5425 C5423 1.390 . S
C5425 C5426 1.387 . S
C5425 H5428 0.950 . S
C5426 C5425 1.387 . S
C5426 C5429 1.387 . S
H5427 C5423 0.950 . S
H5428 C5425 0.950 . S
C5429 C5420 1.390 . S
C5429 H5422 0.950 . S
C5429 C5426 1.387 . S
C5430 C5431 1.387 . S
C5430 H5434 0.950 . S
C5430 C5439 1.390 . S
C5431 C5430 1.387 . S
C5431 C5433 1.387 . S
H5432 C5439 0.950 . S
C5433 C5431 1.387 . S
C5433 C5435 1.390 . S
C5433 H5437 0.950 . S
H5434 C5430 0.950 . S
C5435 C5433 1.390 . S
C5435 C5436 1.387 . S
C5435 H5438 0.950 . S
C5436 C5435 1.387 . S
C5436 C5439 1.387 . S
H5437 C5433 0.950 . S
H5438 C5435 0.950 . S
C5439 C5430 1.390 . S
C5439 H5432 0.950 . S
C5439 C5436 1.387 . S
C5440 C5441 1.387 . S
C5440 H5444 0.950 . S
C5440 C5449 1.390 . S
C5441 C5440 1.387 . S
C5441 C5443 1.387 . S
H5442 C5449 0.950 . S
C5443 C5441 1.387 . S
C5443 C5445 1.390 . S
C5443 H5447 0.950 . S
H5444 C5440 0.950 . S
C5445 C5443 1.390 . S
C5445 C5446 1.387 . S
C5445 H5448 0.950 . S
C5446 C5445 1.387 . S
C5446 C5449 1.387 . S
H5447 C5443 0.950 . S
H5448 C5445 0.950 . S
C5449 C5440 1.390 . S
C5449 H5442 0.950 . S
C5449 C5446 1.387 . S
C5450 C5451 1.387 . S
C5450 H5454 0.950 . S
C5450 C5459 1.390 . S
C5451 C5450 1.387 . S
C5451 C5453 1.387 . S
H5452 C5459 0.950 . S
C5453 C5451 1.387 . S
C5453 C5455 1.390 . S
C5453 H5457 0.950 . S
H5454 C5450 0.950 . S
C5455 C5453 1.390 . S
C5455 C5456 1.387 . S
C5455 H5458 0.950 . S
C5456 C5455 1.387 . S
C5456 C5459 1.387 . S
H5457 C5453 0.950 . S
H5458 C5455 0.950 . S
C5459 C5450 1.390 . S
C5459 H5452 0.950 . S
C5459 C5456 1.387 . S
C5460 C5461 1.387 . S
C5460 H5464 0.950 . S
C5460 C5469 1.390 . S
C5461 C5460 1.387 . S
C5461 C5463 1.387 . S
H5462 C5469 0.950 . S
C5463 C5461 1.387 . S
C5463 C5465 1.390 . S
C5463 H5467 0.950 . S
H5464 C5460 0.950 . S
C5465 C5463 1.390 . S
C5465 C5466 1.387 . S
C5465 H5468 0.950 . S
C5466 C5465 1.387 . S
C5466 C5469 1.387 . S
H5467 C5463 0.950 . S
H5468 C5465 0.950 . S
C5469 C5460 1.390 . S
C5469 H5462 0.950 . S
C5469 C5466 1.387 . S
C5470 C5471 1.387 . S
C5470 H5474 0.950 . S
C5470 C5479 1.390 . S
C5471 C5470 1.387 . S
C5471 C5473 1.387 . S
H5472 C5479 0.950 . S
C5473 C5471 1.387 . S
C5473 C5475 1.390 . S
C5473 H5477 0.950 . S
H5474 C5470 0.950 . S
C5475 C5473 1.390 . S
C5475 C5476 1.387 . S
C5475 H5478 0.950 . S
C5476 C5475 1.387 . S
C5476 C5479 1.387 . S
H5477 C5473 0.950 . S
H5478 C5475 0.950 . S
C5479 C5470 1.390 . S
C5479 H5472 0.950 . S
C5479 C5476 1.387 . S
C5480 C5481 1.387 . S
C5480 H5484 0.950 . S
C5480 C5489 1.390 . S
C5481 C5480 1.387 . S
C5481 C5483 1.387 . S
H5482 C5489 0.950 . S
C5483 C5481 1.387 . S
C5483 C5485 1.390 . S
C5483 H5487 0.950 . S
H5484 C5480 0.950 . S
C5485 C5483 1.390 . S
C5485 C5486 1.387 . S
C5485 H5488 0.950 . S
C5486 C5485 1.387 . S
C5486 C5489 1.387 . S
H5487 C5483 0.950 . S
H5488 C5485 0.950 . S
C5489 C5480 1.390 . S
C5489 H5482 0.950 . S
C5489 C5486 1.387 . S
C5490 C5491 1.387 . S
C5490 H5494 0.950 . S
C5490 C5499 1.390 . S
C5491 C5490 1.387 . S
C5491 C5493 1.387 . S
H5492 C5499 0.950 . S
C5493 C5491 1.387 . S
C5493 C5495 1.390 . S
C5493 H5497 0.950 . S
H5494 C5490 0.950 . S
C5495 C5493 1.390 . S
C5495 C5496 1.387 . S
C5495 H5498 0.950 . S
C5496 C5495 1.387 . S
C5496 C5499 1.387 . S
H5497 C5493 0.950 . S
H5498 C5495 0.950 . S
C5499 C5490 1.390 . S
C5499 H5492 0.950 . S
C5499 C5496 1.387 . S
C5500 C5501 1.387 . S
C5500 H5504 0.950 . S
C5500 C5509 1.390 . S
C5501 C5500 1.387 . S
C5501 C5503 1.387 . S
H5502 C5509 0.950 . S
C5503 C5501 1.387 . S
C5503 C5505 1.390 . S
C5503 H5507 0.950 . S
H5504 C5500 0.950 . S
C5505 C5503 1.390 . S
C5505 C5506 1.387 . S
C5505 H5508 0.950 . S
C5506 C5505 1.387 . S
C5506 C5509 1.387 . S
H5507 C5503 0.950 . S
H5508 C5505 0.950 . S
C5509 C5500 1.390 . S
C5509 H5502 0.950 . S
C5509 C5506 1.387 . S
C5510 C5511 1.387 . S
C5510 H5514 0.950 . S
C5510 C5519 1.390 . S
C5511 C5510 1.387 . S
C5511 C5513 1.387 . S
H5512 C5519 0.950 . S
C5513 C5511 1.387 . S
C5513 C5515 1.390 . S
C5513 H5517 0.950 . S
H5514 C5510 0.950 . S
C5515 C5513 1.390 . S
C5515 C5516 1.387 . S
C5515 H5518 0.950 . S
C5516 C5515 1.387 . S
C5516 C5519 1.387 . S
H5517 C5513 0.950 . S
H5518 C5515 0.950 . S
C5519 C5510 1.390 . S
C5519 H5512 0.950 . S
C5519 C5516 1.387 . S
C5520 C5521 1.387 . S
C5520 H5524 0.950 . S
C5520 C5529 1.390 . S
C5521 C5520 1.387 . S
C5521 C5523 1.387 . S
H5522 C5529 0.950 . S
C5523 C5521 1.387 . S
C5523 C5525 1.390 . S
C5523 H5527 0.950 . S
H5524 C5520 0.950 . S
C5525 C5523 1.390 . S
C5525 C5526 1.387 . S
C5525 H5528 0.950 . S
C5526 C5525 1.387 . S
C5526 C5529 1.387 . S
H5527 C5523 0.950 . S
H5528 C5525 0.950 . S
C5529 C5520 1.390 . S
C5529 H5522 0.950 . S
C5529 C5526 1.387 . S
C5530 C5531 1.387 . S
C5530 H5534 0.950 . S
C5530 C5539 1.390 . S
C5531 C5530 1.387 . S
C5531 C5533 1.387 . S
H5532 C5539 0.950 . S
C5533 C5531 1.387 . S
C5533 C5535 1.390 . S
C5533 H5537 0.950 . S
H5534 C5530 0.950 . S
C5535 C5533 1.390 . S
C5535 C5536 1.387 . S
C5535 H5538 0.950 . S
C5536 C5535 1.387 . S
C5536 C5539 1.387 . S
H5537 C5533 0.950 . S
H5538 C5535 0.950 . S
C5539 C5530 1.390 . S
C5539 H5532 0.950 . S
C5539 C5536 1.387 . S
C5540 C5541 1.387 . S
C5540 H5544 0.950 . S
C5540 C5549 1.390 . S
C5541 C5540 1.387 . S
C5541 C5543 1.387 . S
H5542 C5549 0.950 . S
C5543 C5541 1.387 . S
C5543 C5545 1.390 . S
C5543 H5547 0.950 . S
H5544 C5540 0.950 . S
C5545 C5543 1.390 . S
C5545 C5546 1.387 . S
C5545 H5548 0.950 . S
C5546 C5545 1.387 . S
C5546 C5549 1.387 . S
H5547 C5543 0.950 . S
H5548 C5545 0.950 . S
C5549 C5540 1.390 . S
C5549 H5542 0.950 . S
C5549 C5546 1.387 . S
C5550 C5551 1.387 . S
C5550 H5554 0.950 . S
C5550 C5559 1.390 . S
C5551 C5550 1.387 . S
C5551 C5553 1.387 . S
H5552 C5559 0.950 . S
C5553 C5551 1.387 . S
C5553 C5555 1.390 . S
C5553 H5557 0.950 . S
H5554 C5550 0.950 . S
C5555 C5553 1.390 . S
C5555 C5556 1.387 . S
C5555 H5558 0.950 . S
C5556 C5555 1.387 . S
C5556 C5559 1.387 . S
H5557 C5553 0.950 . S
H5558 C5555 0.950 . S
C5559 C5550 1.390 . S
C5559 H5552 0.950 . S
C5559 C5556 1.387 . S
C5560 C5561 1.387 . S
C5560 H5564 0.950 . S
C5560 C5569 1.390 . S
C5561 C5560 1.387 . S
C5561 C5563 1.387 . S
H5562 C5569 0.950 . S
C5563 C5561 1.387 . S
C5563 C5565 1.390 . S
C5563 H5567 0.950 . S
H5564 C5560 0.950 . S
C5565 C5563 1.390 . S
C5565 C5566 1.387 . S
C5565 H5568 0.950 . S
C5566 C5565 1.387 . S
C5566 C5569 1.387 . S
H5567 C5563 0.950 . S
H5568 C5565 0.950 . S
C5569 C5560 1.390 . S
C5569 H5562 0.950 . S
C5569 C5566 1.387 . S
C5570 C5571 1.387 . S
C5570 H5574 0.950 . S
C5570 C5579 1.390 . S
C5571 C5570 1.387 . S
C5571 C5573 1.387 . S
H5572 C5579 0.950 . S
C5573 C5571 1.387 . S
C5573 C5575 1.390 . S
C5573 H5577 0.950 . S
H5574 C5570 0.950 . S
C5575 C5573 1.390 . S
C5575 C5576 1.387 . S
C5575 H5578 0.950 . S
C5576 C5575 1.387 . S
C5576 C5579 1.387 . S
H5577 C5573 0.950 . S
H5578 C5575 0.950 . S
C5579 C5570 1.390 . S
C5579 H5572 0.950 . S
C5579 C5576 1.387 . S
C5580 C5581 1.387 . S
C5580 H5584 0.950 . S
C5580 C5589 1.390 . S
C5581 C5580 1.387 . S
C5581 C5583 1.387 . S
H5582 C5589 0.950 . S
C5583 C5581 1.387 . S
C5583 C5585 1.390 . S
C5583 H5587 0.950 . S
H5584 C5580 0.950 . S
C5585 C5583 1.390 . S
C5585 C5586 1.387 . S
C5585 H5588 0.950 . S
C5586 C5585 1.387 . S
C5586 C5589 1.387 . S
H5587 C5583 0.950 . S
H5588 C5585 0.950 . S
C5589 C5580 1.390 . S
C5589 H5582 0.950 . S
C5589 C5586 1.387 . S
C5590 C5591 1.387 . S
C5590 H5594 0.950 . S
C5590 C5599 1.390 . S
C5591 C5590 1.387 . S
C5591 C5593 1.387 . S
H5592 C5599 0.950 . S
C5593 C5591 1.387 . S
C5593 C5595 1.390 . S
C5593 H5597 0.950 . S
H5594 C5590 0.950 . S
C5595 C5593 1.390 . S
C5595 C5596 1.387 . S
C5595 H5598 0.950 . S
C5596 C5595 1.387 . S
C5596 C5599 1.387 . S
H5597 C5593 0.950 . S
H5598 C5595 0.950 . S
C5599 C5590 1.390 . S
C5599 H5592 0.950 . S
C5599 C5596 1.387 . S
C5600 C5601 1.387 . S
C5600 H5604 0.950 . S
C5600 C5609 1.390 . S
C5601 C5600 1.387 . S
C5601 C5603 1.387 . S
H5602 C5609 0.950 . S
C5603 C5601 1.387 . S
C5603 C5605 1.390 . S
C5603 H5607 0.950 . S
H5604 C5600 0.950 . S
C5605 C5603 1.390 . S
C5605 C5606 1.387 . S
C5605 H5608 0.950 . S
C5606 C5605 1.387 . S
C5606 C5609 1.387 . S
H5607 C5603 0.950 . S
H5608 C5605 0.950 . S
C5609 C5600 1.390 . S
C5609 H5602 0.950 . S
C5609 C5606 1.387 . S
C5610 C5611 1.387 . S
C5610 H5614 0.950 . S
C5610 C5619 1.390 . S
C5611 C5610 1.387 . S
C5611 C5613 1.387 . S
H5612 C5619 0.950 . S
C5613 C5611 1.387 . S
C5613 C5615 1.390 . S
C5613 H5617 0.950 . S
H5614 C5610 0.950 . S
C5615 C5613 1.390 . S
C5615 C5616 1.387 . S
C5615 H5618 0.950 . S
C5616 C5615 1.387 . S
C5616 C5619 1.387 . S
H5617 C5613 0.950 . S
H5618 C5615 0.950 . S
C5619 C5610 1.390 . S
C5619 H5612 0.950 . S
C5619 C5616 1.387 . S
C5620 C5621 1.387 . S
C5620 H5624 0.950 . S
C5620 C5629 1.390 . S
C5621 C5620 1.387 . S
C5621 C5623 1.387 . S
H5622 C5629 0.950 . S
C5623 C5621 1.387 . S
C5623 C5625 1.390 . S
C5623 H5627 0.950 . S
H5624 C5620 0.950 . S
C5625 C5623 1.390 . S
C5625 C5626 1.387 . S
C5625 H5628 0.950 . S
C5626 C5625 1.387 . S
C5626 C5629 1.387 . S
H5627 C5623 0.950 . S
H5628 C5625 0.950 . S
C5629 C5620 1.390 . S
C5629 H5622 0.950 . S
C5629 C5626 1.387 . S
C5630 C5631 1.387 . S
C5630 H5634 0.950 . S
C5630 C5639 1.390 . S
C5631 C5630 1.387 . S
C5631 C5633 1.387 . S
H5632 C5639 0.950 . S
C5633 C5631 1.387 . S
C5633 C5635 1.390 . S
C5633 H5637 0.950 . S
H5634 C5630 0.950 . S
C5635 C5633 1.390 . S
C5635 C5636 1.387 . S
C5635 H5638 0.950 . S
C5636 C5635 1.387 . S
C5636 C5639 1.387 . S
H5637 C5633 0.950 . S
H5638 C5635 0.950 . S
C5639 C5630 1.390 . S
C5639 H5632 0.950 . S
C5639 C5636 1.387 . S
C5640 C5641 1.387 . S
C5640 H5644 0.950 . S
C5640 C5649 1.390 . S
C5641 C5640 1.387 . S
C5641 C5643 1.387 . S
H5642 C5649 0.950 . S
C5643 C5641 1.387 . S
C5643 C5645 1.390 . S
C5643 H5647 0.950 . S
H5644 C5640 0.950 . S
C5645 C5643 1.390 . S
C5645 C5646 1.387 . S
C5645 H5648 0.950 . S
C5646 C5645 1.387 . S
C5646 C5649 1.387 . S
H5647 C5643 0.950 . S
H5648 C5645 0.950 . S
C5649 C5640 1.390 . S
C5649 H5642 0.950 . S
C5649 C5646 1.387 . S
C5650 C5651 1.387 . S
C5650 H5654 0.950 . S
C5650 C5659 1.390 . S
C5651 C5650 1.387 . S
C5651 C5653 1.387 . S
H5652 C5659 0.950 . S
C5653 C5651 1.387 . S
C5653 C5655 1.390 . S
C5653 H5657 0.950 . S
H5654 C5650 0.950 . S
C5655 C5653 1.390 . S
C5655 C5656 1.387 . S
C5655 H5658 0.950 . S
C5656 C5655 1.387 . S
C5656 C5659 1.387 . S
H5657 C5653 0.950 . S
H5658 C5655 0.950 . S
C5659 C5650 1.390 . S
C5659 H5652 0.950 . S
C5659 C5656 1.387 . S
C5660 C5661 1.387 . S
C5660 H5664 0.950 . S
C5660 C5669 1.390 . S
C5661 C5660 1.387 . S
C5661 C5663 1.387 . S
H5662 C5669 0.950 . S
C5663 C5661 1.387 . S
C5663 C5665 1.390 . S
C5663 H5667 0.950 . S
H5664 C5660 0.950 . S
C5665 C5663 1.390 . S
C5665 C5666 1.387 . S
C5665 H5668 0.950 . S
C5666 C5665 1.387 . S
C5666 C5669 1.387 . S
H5667 C5663 0.950 . S
H5668 C5665 0.950 . S
C5669 C5660 1.390 . S
C5669 H5662 0.950 . S
C5669 C5666 1.387 . S
C5670 C5671 1.387 . S
C5670 H5674 0.950 . S
C5670 C5679 1.390 . S
C5671 C5670 1.387 . S
C5671 C5673 1.387 . S
H5672 C5679 0.950 . S
C5673 C5671 1.387 . S
C5673 C5675 1.390 . S
C5673 H5677 0.950 . S
H5674 C5670 0.950 . S
C5675 C5673 1.390 . S
C5675 C5676 1.387 . S
C5675 H5678 0.950 . S
C5676 C5675 1.387 . S
C5676 C5679 1.387 . S
H5677 C5673 0.950 . S
H5678 C5675 0.950 . S
C5679 C5670 1.390 . S
C5679 H5672 0.950 . S
C5679 C5676 1.387 . S
C5680 C5681 1.387 . S
C5680 H5684 0.950 . S
C5680 C5689 1.390 . S
C5681 C5680 1.387 . S
C5681 C5683 1.387 . S
H5682 C5689 0.950 . S
C5683 C5681 1.387 . S
C5683 C5685 1.390 . S
C5683 H5687 0.950 . S
H5684 C5680 0.950 . S
C5685 C5683 1.390 . S
C5685 C5686 1.387 . S
C5685 H5688 0.950 . S
C5686 C5685 1.387 . S
C5686 C5689 1.387 . S
H5687 C5683 0.950 . S
H5688 C5685 0.950 . S
C5689 C5680 1.390 . S
C5689 H5682 0.950 . S
C5689 C5686 1.387 . S
C5690 C5691 1.387 . S
C5690 H5694 0.950 . S
C5690 C5699 1.390 . S
C5691 C5690 1.387 . S
C5691 C5693 1.387 . S
H5692 C5699 0.950 . S
C5693 C5691 1.387 . S
C5693 C5695 1.390 . S
C5693 H5697 0.950 . S
H5694 C5690 0.950 . S
C5695 C5693 1.390 . S
C5695 C5696 1.387 . S
C5695 H5698 0.950 . S
C5696 C5695 1.387 . S
C5696 C5699 1.387 . S
H5697 C5693 0.950 . S
H5698 C5695 0.950 . S
C5699 C5690 1.390 . S
C5699 H5692 0.950 . S
C5699 C5696 1.387 . S
C5700 C5701 1.387 . S
C5700 H5704 0.950 . S
C5700 C5709 1.390 . S
C5701 C5700 1.387 . S
C5701 C5703 1.387 . S
H5702 C5709 0.950 . S
C5703 C5701 1.387 . S
C5703 C5705 1.390 . S
C5703 H5707 0.950 . S
H5704 C5700 0.950 . S
C5705 C5703 1.390 . S
C5705 C5706 1.387 . S
C5705 H5708 0.950 . S
C5706 C5705 1.387 . S
C5706 C5709 1.387 . S
H5707 C5703 0.950 . S
H5708 C5705 0.950 . S
C5709 C5700 1.390 . S
C5709 H5702 0.950 . S
C5709 C5706 1.387 . S
C5710 C5711 1.387 . S
C5710 H5714 0.950 . S
C5710 C5719 1.390 . S
C5711 C5710 1.387 . S
C5711 C5713 1.387 . S
H5712 C5719 0.950 . S
C5713 C5711 1.387 . S
C5713 C5715 1.390 . S
C5713 H5717 0.950 . S
H5714 C5710 0.950 . S
C5715 C5713 1.390 . S
C5715 C5716 1.387 . S
C5715 H5718 0.950 . S
C5716 C5715 1.387 . S
C5716 C5719 1.387 . S
H5717 C5713 0.950 . S
H5718 C5715 0.950 . S
C5719 C5710 1.390 . S
C5719 H5712 0.950 . S
C5719 C5716 1.387 . S
C5720 C5721 1.387 . S
C5720 H5724 0.950 . S
C5720 C5729 1.390 . S
C5721 C5720 1.387 . S
C5721 C5723 1.387 . S
H5722 C5729 0.950 . S
C5723 C5721 1.387 . S
C5723 C5725 1.390 . S
C5723 H5727 0.950 . S
H5724 C5720 0.950 . S
C5725 C5723 1.390 . S
C5725 C5726 1.387 . S
C5725 H5728 0.950 . S
C5726 C5725 1.387 . S
C5726 C5729 1.387 . S
H5727 C5723 0.950 . S
H5728 C5725 0.950 . S
C5729 C5720 1.390 . S
C5729 H5722 0.950 . S
C5729 C5726 1.387 . S
C5730 C5731 1.387 . S
C5730 H5734 0.950 . S
C5730 C5739 1.390 . S
C5731 C5730 1.387 . S
C5731 C5733 1.387 . S
H5732 C5739 0.950 . S
C5733 C5731 1.387 . S
C5733 C5735 1.390 . S
C5733 H5737 0.950 . S
H5734 C5730 0.950 . S
C5735 C5733 1.390 . S
C5735 C5736 1.387 . S
C5735 H5738 0.950 . S
C5736 C5735 1.387 . S
C5736 C5739 1.387 . S
H5737 C5733 0.950 . S
H5738 C5735 0.950 . S
C5739 C5730 1.390 . S
C5739 H5732 0.950 . S
C5739 C5736 1.387 . S
C5740 C5741 1.387 . S
C5740 H5744 0.950 . S
C5740 C5749 1.390 . S
C5741 C5740 1.387 . S
C5741 C5743 1.387 . S
H5742 C5749 0.950 . S
C5743 C5741 1.387 . S
C5743 C5745 1.390 . S
C5743 H5747 0.950 . S
H5744 C5740 0.950 . S
C5745 C5743 1.390 . S
C5745 C5746 1.387 . S
C5745 H5748 0.950 . S
C5746 C5745 1.387 . S
C5746 C5749 1.387 . S
H5747 C5743 0.950 . S
H5748 C5745 0.950 . S
C5749 C5740 1.390 . S
C5749 H5742 0.950 . S
C5749 C5746 1.387 . S
C5750 C5751 1.387 . S
C5750 H5754 0.950 . S
C5750 C5759 1.390 . S
C5751 C5750 1.387 . S
C5751 C5753 1.387 . S
H5752 C5759 0.950 . S
C5753 C5751 1.387 . S
C5753 C5755 1.390 . S
C5753 H5757 0.950 . S
H5754 C5750 0.950 . S
C5755 C5753 1.390 . S
C5755 C5756 1.387 . S
C5755 H5758 0.950 . S
C5756 C5755 1.387 . S
C5756 C5759 1.387 . S
H5757 C5753 0.950 . S
H5758 C5755 0.950 . S
C5759 C5750 1.390 . S
C5759 H5752 0.950 . S
C5759 C5756 1.387 . S
C5760 C5761 1.387 . S
C5760 H5764 0.950 . S
C5760 C5769 1.390 . S
C5761 C5760 1.387 . S
C5761 C5763 1.387 . S
H5762 C5769 0.950 . S
C5763 C5761 1.387 . S
C5763 C5765 1.390 . S
C5763 H5767 0.950 . S
H5764 C5760 0.950 . S
C5765 C5763 1.390 . S
C5765 C5766 1.387 . S
C5765 H5768 0.950 . S
C5766 C5765 1.387 . S
C5766 C5769 1.387 . S
H5767 C5763 0.950 . S
H5768 C5765 0.950 . S
C5769 C5760 1.390 . S
C5769 H5762 0.950 . S
C5769 C5766 1.387 . S
C5770 C5771 1.387 . S
C5770 H5774 0.950 . S
C5770 C5779 1.390 . S
C5771 C5770 1.387 . S
C5771 C5773 1.387 . S
H5772 C5779 0.950 . S
C5773 C5771 1.387 . S
C5773 C5775 1.390 . S
C5773 H5777 0.950 . S
H5774 C5770 0.950 . S
C5775 C5773 1.390 . S
C5775 C5776 1.387 . S
C5775 H5778 0.950 . S
C5776 C5775 1.387 . S
C5776 C5779 1.387 . S
H5777 C5773 0.950 . S
H5778 C5775 0.950 . S
C5779 C5770 1.390 . S
C5779 H5772 0.950 . S
C5779 C5776 1.387 . S
C5780 C5781 1.387 . S
C5780 H5784 0.950 . S
C5780 C5789 1.390 . S
C5781 C5780 1.387 . S
C5781 C5783 1.387 . S
H5782 C5789 0.950 . S
C5783 C5781 1.387 . S
C5783 C5785 1.390 . S
C5783 H5787 0.950 . S
H5784 C5780 0.950 . S
C5785 C5783 1.390 . S
C5785 C5786 1.387 . S
C5785 H5788 0.950 . S
C5786 C5785 1.387 . S
C5786 C5789 1.387 . S
H5787 C5783 0.950 . S
H5788 C5785 0.950 . S
C5789 C5780 1.390 . S
C5789 H5782 0.950 . S
C5789 C5786 1.387 . S
C5790 C5791 1.387 . S
C5790 H5794 0.950 . S
C5790 C5799 1.390 . S
C5791 C5790 1.387 . S
C5791 C5793 1.387 . S
H5792 C5799 0.950 . S
C5793 C5791 1.387 . S
C5793 C5795 1.390 . S
C5793 H5797 0.950 . S
H5794 C5790 0.950 . S
C5795 C5793 1.390 . S
C5795 C5796 1.387 . S
C5795 H5798 0.950 . S
C5796 C5795 1.387 . S
C5796 C5799 1.387 . S
H5797 C5793 0.950 . S
H5798 C5795 0.950 . S
C5799 C5790 1.390 . S
C5799 H5792 0.950 . S
C5799 C5796 1.387 . S
C5800 C5801 1.387 . S
C5800 H5804 0.950 . S
C5800 C5809 1.390 . S
C5801 C5800 1.387 . S
C5801 C5803 1.387 . S
H5802 C5809 0.950 . S
C5803 C5801 1.387 . S
C5803 C5805 1.390 . S
C5803 H5807 0.950 . S
H5804 C5800 0.950 . S
C5805 C5803 1.390 . S
C5805 C5806 1.387 . S
C5805 H5808 0.950 . S
C5806 C5805 1.387 . S
C5806 C5809 1.387 . S
H5807 C5803 0.950 . S
H5808 C5805 0.950 . S
C5809 C5800 1.390 . S
C5809 H5802 0.950 . S
C5809 C5806 1.387 . S
C5810 C5811 1.387 . S
C5810 H5814 0.950 . S
C5810 C5819 1.390 . S
C5811 C5810 1.387 . S
C5811 C5813 1.387 1_455 S
H5812 C5819 0.950 . S
C5813 C5811 1.387 1_655 S
C5813 C5815 1.390 . S
C5813 H5817 0.950 . S
H5814 C5810 0.950 . S
C5815 C5813 1.390 . S
C5815 C5816 1.387 1_655 S
C5815 H5818 0.950 . S
C5816 C5815 1.387 1_455 S
C5816 C5819 1.387 . S
H5817 C5813 0.950 . S
H5818 C5815 0.950 . S
C5819 C5810 1.390 . S
C5819 H5812 0.950 . S
C5819 C5816 1.387 . S
C5820 C5821 1.387 . S
C5820 H5824 0.950 . S
C5820 C5829 1.390 . S
C5821 C5820 1.387 . S
C5821 C5823 1.387 . S
H5822 C5829 0.950 . S
C5823 C5821 1.387 . S
C5823 C5825 1.390 . S
C5823 H5827 0.950 . S
H5824 C5820 0.950 . S
C5825 C5823 1.390 . S
C5825 C5826 1.387 . S
C5825 H5828 0.950 . S
C5826 C5825 1.387 . S
C5826 C5829 1.387 . S
H5827 C5823 0.950 . S
H5828 C5825 0.950 . S
C5829 C5820 1.390 . S
C5829 H5822 0.950 . S
C5829 C5826 1.387 . S
C5830 C5831 1.387 . S
C5830 H5834 0.950 . S
C5830 C5839 1.390 . S
C5831 C5830 1.387 . S
C5831 C5833 1.387 . S
H5832 C5839 0.950 . S
C5833 C5831 1.387 . S
C5833 C5835 1.390 . S
C5833 H5837 0.950 . S
H5834 C5830 0.950 . S
C5835 C5833 1.390 . S
C5835 C5836 1.387 . S
C5835 H5838 0.950 . S
C5836 C5835 1.387 . S
C5836 C5839 1.387 . S
H5837 C5833 0.950 . S
H5838 C5835 0.950 . S
C5839 C5830 1.390 . S
C5839 H5832 0.950 . S
C5839 C5836 1.387 . S
C5840 C5841 1.387 . S
C5840 H5844 0.950 . S
C5840 C5849 1.390 . S
C5841 C5840 1.387 . S
C5841 C5843 1.387 . S
H5842 C5849 0.950 . S
C5843 C5841 1.387 . S
C5843 C5845 1.390 . S
C5843 H5847 0.950 . S
H5844 C5840 0.950 . S
C5845 C5843 1.390 . S
C5845 C5846 1.387 . S
C5845 H5848 0.950 . S
C5846 C5845 1.387 . S
C5846 C5849 1.387 . S
H5847 C5843 0.950 . S
H5848 C5845 0.950 . S
C5849 C5840 1.390 . S
C5849 H5842 0.950 . S
C5849 C5846 1.387 . S
C5850 C5851 1.387 . S
C5850 H5854 0.950 . S
C5850 C5859 1.390 . S
C5851 C5850 1.387 . S
C5851 C5853 1.387 . S
H5852 C5859 0.950 . S
C5853 C5851 1.387 . S
C5853 C5855 1.390 . S
C5853 H5857 0.950 . S
H5854 C5850 0.950 . S
C5855 C5853 1.390 . S
C5855 C5856 1.387 . S
C5855 H5858 0.950 . S
C5856 C5855 1.387 . S
C5856 C5859 1.387 . S
H5857 C5853 0.950 . S
H5858 C5855 0.950 . S
C5859 C5850 1.390 . S
C5859 H5852 0.950 . S
C5859 C5856 1.387 . S
C5860 C5861 1.387 . S
C5860 H5864 0.950 . S
C5860 C5869 1.390 . S
C5861 C5860 1.387 . S
C5861 C5863 1.387 . S
H5862 C5869 0.950 . S
C5863 C5861 1.387 . S
C5863 C5865 1.390 . S
C5863 H5867 0.950 . S
H5864 C5860 0.950 . S
C5865 C5863 1.390 . S
C5865 C5866 1.387 . S
C5865 H5868 0.950 . S
C5866 C5865 1.387 . S
C5866 C5869 1.387 . S
H5867 C5863 0.950 . S
H5868 C5865 0.950 . S
C5869 C5860 1.390 . S
C5869 H5862 0.950 . S
C5869 C5866 1.387 . S
C5870 C5871 1.387 . S
C5870 H5874 0.950 . S
C5870 C5879 1.390 . S
C5871 C5870 1.387 . S
C5871 C5873 1.387 . S
H5872 C5879 0.950 . S
C5873 C5871 1.387 . S
C5873 C5875 1.390 . S
C5873 H5877 0.950 . S
H5874 C5870 0.950 . S
C5875 C5873 1.390 . S
C5875 C5876 1.387 . S
C5875 H5878 0.950 . S
C5876 C5875 1.387 . S
C5876 C5879 1.387 . S
H5877 C5873 0.950 . S
H5878 C5875 0.950 . S
C5879 C5870 1.390 . S
C5879 H5872 0.950 . S
C5879 C5876 1.387 . S
C5880 C5881 1.387 . S
C5880 H5884 0.950 . S
C5880 C5889 1.390 . S
C5881 C5880 1.387 . S
C5881 C5883 1.387 . S
H5882 C5889 0.950 . S
C5883 C5881 1.387 . S
C5883 C5885 1.390 . S
C5883 H5887 0.950 . S
H5884 C5880 0.950 . S
C5885 C5883 1.390 . S
C5885 C5886 1.387 . S
C5885 H5888 0.950 . S
C5886 C5885 1.387 . S
C5886 C5889 1.387 . S
H5887 C5883 0.950 . S
H5888 C5885 0.950 . S
C5889 C5880 1.390 . S
C5889 H5882 0.950 . S
C5889 C5886 1.387 . S
C5890 C5891 1.387 . S
C5890 H5894 0.950 . S
C5890 C5899 1.390 . S
C5891 C5890 1.387 . S
C5891 C5893 1.387 . S
H5892 C5899 0.950 . S
C5893 C5891 1.387 . S
C5893 C5895 1.390 . S
C5893 H5897 0.950 . S
H5894 C5890 0.950 . S
C5895 C5893 1.390 . S
C5895 C5896 1.387 . S
C5895 H5898 0.950 . S
C5896 C5895 1.387 . S
C5896 C5899 1.387 . S
H5897 C5893 0.950 . S
H5898 C5895 0.950 . S
C5899 C5890 1.390 . S
C5899 H5892 0.950 . S
C5899 C5896 1.387 . S
C5900 C5901 1.387 . S
C5900 H5904 0.950 . S
C5900 C5909 1.390 . S
C5901 C5900 1.387 . S
C5901 C5903 1.387 . S
H5902 C5909 0.950 . S
C5903 C5901 1.387 . S
C5903 C5905 1.390 . S
C5903 H5907 0.950 . S
H5904 C5900 0.950 . S
C5905 C5903 1.390 . S
C5905 C5906 1.387 . S
C5905 H5908 0.950 . S
C5906 C5905 1.387 . S
C5906 C5909 1.387 . S
H5907 C5903 0.950 . S
H5908 C5905 0.950 . S
C5909 C5900 1.390 . S
C5909 H5902 0.950 . S
C5909 C5906 1.387 . S
C5910 C5911 1.387 . S
C5910 H5914 0.950 . S
C5910 C5919 1.390 . S
C5911 C5910 1.387 . S
C5911 C5913 1.387 . S
H5912 C5919 0.950 . S
C5913 C5911 1.387 . S
C5913 C5915 1.390 . S
C5913 H5917 0.950 . S
H5914 C5910 0.950 . S
C5915 C5913 1.390 . S
C5915 C5916 1.387 . S
C5915 H5918 0.950 . S
C5916 C5915 1.387 . S
C5916 C5919 1.387 . S
H5917 C5913 0.950 . S
H5918 C5915 0.950 . S
C5919 C5910 1.390 . S
C5919 H5912 0.950 . S
C5919 C5916 1.387 . S
C5920 C5921 1.387 . S
C5920 H5924 0.950 . S
C5920 C5929 1.390 . S
C5921 C5920 1.387 . S
C5921 C5923 1.387 . S
H5922 C5929 0.950 . S
C5923 C5921 1.387 . S
C5923 C5925 1.390 . S
C5923 H5927 0.950 . S
H5924 C5920 0.950 . S
C5925 C5923 1.390 . S
C5925 C5926 1.387 . S
C5925 H5928 0.950 . S
C5926 C5925 1.387 . S
C5926 C5929 1.387 . S
H5927 C5923 0.950 . S
H5928 C5925 0.950 . S
C5929 C5920 1.390 . S
C5929 H5922 0.950 . S
C5929 C5926 1.387 . S
C5930 C5931 1.387 . S
C5930 H5934 0.950 . S
C5930 C5939 1.390 . S
C5931 C5930 1.387 . S
C5931 C5933 1.387 . S
H5932 C5939 0.950 . S
C5933 C5931 1.387 . S
C5933 C5935 1.390 . S
C5933 H5937 0.950 . S
H5934 C5930 0.950 . S
C5935 C5933 1.390 . S
C5935 C5936 1.387 . S
C5935 H5938 0.950 . S
C5936 C5935 1.387 . S
C5936 C5939 1.387 . S
H5937 C5933 0.950 . S
H5938 C5935 0.950 . S
C5939 C5930 1.390 . S
C5939 H5932 0.950 . S
C5939 C5936 1.387 . S
C5940 C5941 1.387 . S
C5940 H5944 0.950 . S
C5940 C5949 1.390 . S
C5941 C5940 1.387 . S
C5941 C5943 1.387 . S
H5942 C5949 0.950 . S
C5943 C5941 1.387 . S
C5943 C5945 1.390 . S
C5943 H5947 0.950 . S
H5944 C5940 0.950 . S
C5945 C5943 1.390 . S
C5945 C5946 1.387 . S
C5945 H5948 0.950 . S
C5946 C5945 1.387 . S
C5946 C5949 1.387 . S
H5947 C5943 0.950 . S
H5948 C5945 0.950 . S
C5949 C5940 1.390 . S
C5949 H5942 0.950 . S
C5949 C5946 1.387 . S
C5950 C5951 1.387 . S
C5950 H5954 0.950 . S
C5950 C5959 1.390 . S
C5951 C5950 1.387 . S
C5951 C5953 1.387 . S
H5952 C5959 0.950 . S
C5953 C5951 1.387 . S
C5953 C5955 1.390 . S
C5953 H5957 0.950 . S
H5954 C5950 0.950 . S
C5955 C5953 1.390 . S
C5955 C5956 1.387 . S
C5955 H5958 0.950 . S
C5956 C5955 1.387 . S
C5956 C5959 1.387 . S
H5957 C5953 0.950 . S
H5958 C5955 0.950 . S
C5959 C5950 1.390 . S
C5959 H5952 0.950 . S
C5959 C5956 1.387 . S
C5960 C5961 1.387 . S
C5960 H5964 0.950 . S
C5960 C5969 1.390 . S
C5961 C5960 1.387 . S
C5961 C5963 1.387 . S
H5962 C5969 0.950 . S
C5963 C5961 1.387 . S
C5963 C5965 1.390 . S
C5963 H5967 0.950 . S
H5964 C5960 0.950 . S
C5965 C5963 1.390 . S
C5965 C5966 1.387 . S
C5965 H5968 0.950 . S
C5966 C5965 1.387 . S
C5966 C5969 1.387 . S
H5967 C5963 0.950 . S
H5968 C5965 0.950 . S
C5969 C5960 1.390 . S
C5969 H5962 0.950 . S
C5969 C5966 1.387 . S
C5970 C5971 1.387 . S
C5970 H5974 0.950 . S
C5970 C5979 1.390 . S
C5971 C5970 1.387 . S
C5971 C5973 1.387 . S
H5972 C5979 0.950 . S
C5973 C5971 1.387 . S
C5973 C5975 1.390 . S
C5973 H5977 0.950 . S
H5974 C5970 0.950 . S
C5975 C5973 1.390 . S
C5975 C5976 1.387 . S
C5975 H5978 0.950 . S
C5976 C5975 1.387 . S
C5976 C5979 1.387 . S
H5977 C5973 0.950 . S
H5978 C5975 0.950 . S
C5979 C5970 1.390 . S
C5979 H5972 0.950 . S
C5979 C5976 1.387 . S
C5980 C5981 1.387 . S
C5980 H5984 0.950 . S
C5980 C5989 1.390 . S
C5981 C5980 1.387 . S
C5981 C5983 1.387 . S
H5982 C5989 0.950 . S
C5983 C5981 1.387 . S
C5983 C5985 1.390 . S
C5983 H5987 0.950 . S
H5984 C5980 0.950 . S
C5985 C5983 1.390 . S
C5985 C5986 1.387 . S
C5985 H5988 0.950 . S
C5986 C5985 1.387 . S
C5986 C5989 1.387 . S
H5987 C5983 0.950 . S
H5988 C5985 0.950 . S
C5989 C5980 1.390 . S
C5989 H5982 0.950 . S
C5989 C5986 1.387 . S
C5990 C5991 1.387 . S
C5990 H5994 0.950 . S
C5990 C5999 1.390 . S
C5991 C5990 1.387 . S
C5991 C5993 1.387 . S
H5992 C5999 0.950 . S
C5993 C5991 1.387 . S
C5993 C5995 1.390 . S
C5993 H5997 0.950 . S
H5994 C5990 0.950 . S
C5995 C5993 1.390 . S
C5995 C5996 1.387 . S
C5995 H5998 0.950 . S
C5996 C5995 1.387 . S
C5996 C5999 1.387 . S
H5997 C5993 0.950 . S
H5998 C5995 0.950 . S
C5999 C5990 1.390 . S
C5999 H5992 0.950 . S
C5999 C5996 1.387 . S
C6000 C6001 1.387 . S
C6000 H6004 0.950 . S
C6000 C6009 1.390 . S
C6001 C6000 1.387 . S
C6001 C6003 1.387 . S
H6002 C6009 0.950 . S
C6003 C6001 1.387 . S
C6003 C6005 1.390 . S
C6003 H6007 0.950 . S
H6004 C6000 0.950 . S
C6005 C6003 1.390 . S
C6005 C6006 1.387 . S
C6005 H6008 0.950 . S
C6006 C6005 1.387 . S
C6006 C6009 1.387 . S
H6007 C6003 0.950 . S
H6008 C6005 0.950 . S
C6009 C6000 1.390 . S
C6009 H6002 0.950 . S
C6009 C6006 1.387 . S
C6010 C6011 1.387 . S
C6010 H6014 0.950 . S
C6010 C6019 1.390 . S
C6011 C6010 1.387 . S
C6011 C6013 1.387 . S
H6012 C6019 0.950 . S
C6013 C6011 1.387 . S
C6013 C6015 1.390 . S
C6013 H6017 0.950 . S
H6014 C6010 0.950 . S
C6015 C6013 1.390 . S
C6015 C6016 1.387 . S
C6015 H6018 0.950 . S
C6016 C6015 1.387 . S
C6016 C6019 1.387 . S
H6017 C6013 0.950 . S
H6018 C6015 0.950 . S
C6019 C6010 1.390 . S
C6019 H6012 0.950 . S
C6019 C6016 1.387 . S
C6020 C6021 1.387 . S
C6020 H6024 0.950 . S
C6020 C6029 1.390 . S
C6021 C6020 1.387 . S
C6021 C6023 1.387 . S
H6022 C6029 0.950 . S
C6023 C6021 1.387 . S
C6023 C6025 1.390 . S
C6023 H6027 0.950 . S
H6024 C6020 0.950 . S
C6025 C6023 1.390 . S
C6025 C6026 1.387 . S
C6025 H6028 0.950 . S
C6026 C6025 1.387 . S
C6026 C6029 1.387 . S
H6027 C6023 0.950 . S
H6028 C6025 0.950 . S
C6029 C6020 1.390 . S
C6029 H6022 0.950 . S
C6029 C6026 1.387 . S
C6030 C6031 1.387 . S
C6030 H6034 0.950 . S
C6030 C6039 1.390 . S
C6031 C6030 1.387 . S
C6031 C6033 1.387 1_655 S
H6032 C6039 0.950 . S
C6033 C6031 1.387 1_455 S
C6033 C6035 1.390 . S
C6033 H6037 0.950 . S
H6034 C6030 0.950 . S
C6035 C6033 1.390 . S
C6035 C6036 1.387 1_455 S
C6035 H6038 0.950 . S
C6036 C6035 1.387 1_655 S
C6036 C6039 1.387 . S
H6037 C6033 0.950 . S
H6038 C6035 0.950 . S
C6039 C6030 1.390 . S
C6039 H6032 0.950 . S
C6039 C6036 1.387 . S
C6040 C6041 1.387 . S
C6040 H6044 0.950 . S
C6040 C6049 1.390 . S
C6041 C6040 1.387 . S
C6041 C6043 1.387 . S
H6042 C6049 0.950 . S
C6043 C6041 1.387 . S
C6043 C6045 1.390 . S
C6043 H6047 0.950 . S
H6044 C6040 0.950 . S
C6045 C6043 1.390 . S
C6045 C6046 1.387 . S
C6045 H6048 0.950 . S
C6046 C6045 1.387 . S
C6046 C6049 1.387 . S
H6047 C6043 0.950 . S
H6048 C6045 0.950 . S
C6049 C6040 1.390 . S
C6049 H6042 0.950 . S
C6049 C6046 1.387 . S
C6050 C6051 1.387 1_455 S
C6050 H6054 0.950 . S
C6050 C6059 1.390 . S
C6051 C6050 1.387 1_655 S
C6051 C6053 1.387 . S
H6052 C6059 0.950 . S
C6053 C6051 1.387 . S
C6053 C6055 1.390 . S
C6053 H6057 0.950 . S
H6054 C6050 0.950 . S
C6055 C6053 1.390 . S
C6055 C6056 1.387 . S
C6055 H6058 0.950 . S
C6056 C6055 1.387 . S
C6056 C6059 1.387 1_655 S
H6057 C6053 0.950 . S
H6058 C6055 0.950 . S
C6059 C6050 1.390 . S
C6059 H6052 0.950 . S
C6059 C6056 1.387 1_455 S
C6060 C6061 1.387 . S
C6060 H6064 0.950 . S
C6060 C6069 1.390 . S
C6061 C6060 1.387 . S
C6061 C6063 1.387 . S
H6062 C6069 0.950 . S
C6063 C6061 1.387 . S
C6063 C6065 1.390 . S
C6063 H6067 0.950 . S
H6064 C6060 0.950 . S
C6065 C6063 1.390 . S
C6065 C6066 1.387 . S
C6065 H6068 0.950 . S
C6066 C6065 1.387 . S
C6066 C6069 1.387 . S
H6067 C6063 0.950 . S
H6068 C6065 0.950 . S
C6069 C6060 1.390 . S
C6069 H6062 0.950 . S
C6069 C6066 1.387 . S
C6070 C6071 1.387 . S
C6070 H6074 0.950 . S
C6070 C6079 1.390 . S
C6071 C6070 1.387 . S
C6071 C6073 1.387 . S
H6072 C6079 0.950 . S
C6073 C6071 1.387 . S
C6073 C6075 1.390 . S
C6073 H6077 0.950 . S
H6074 C6070 0.950 . S
C6075 C6073 1.390 . S
C6075 C6076 1.387 . S
C6075 H6078 0.950 . S
C6076 C6075 1.387 . S
C6076 C6079 1.387 . S
H6077 C6073 0.950 . S
H6078 C6075 0.950 . S
C6079 C6070 1.390 . S
C6079 H6072 0.950 . S
C6079 C6076 1.387 . S
C6080 C6081 1.387 . S
C6080 H6084 0.950 . S
C6080 C6089 1.390 . S
C6081 C6080 1.387 . S
C6081 C6083 1.387 . S
H6082 C6089 0.950 . S
C6083 C6081 1.387 . S
C6083 C6085 1.390 . S
C6083 H6087 0.950 . S
H6084 C6080 0.950 . S
C6085 C6083 1.390 . S
C6085 C6086 1.387 . S
C6085 H6088 0.950 . S
C6086 C6085 1.387 . S
C6086 C6089 1.387 . S
H6087 C6083 0.950 . S
H6088 C6085 0.950 . S
C6089 C6080 1.390 . S
C6089 H6082 0.950 . S
C6089 C6086 1.387 . S
C6090 C6091 1.387 . S
C6090 H6094 0.950 . S
C6090 C6099 1.390 . S
C6091 C6090 1.387 . S
C6091 C6093 1.387 . S
H6092 C6099 0.950 . S
C6093 C6091 1.387 . S
C6093 C6095 1.390 . S
C6093 H6097 0.950 . S
H6094 C6090 0.950 . S
C6095 C6093 1.390 . S
C6095 C6096 1.387 . S
C6095 H6098 0.950 . S
C6096 C6095 1.387 . S
C6096 C6099 1.387 . S
H6097 C6093 0.950 . S
H6098 C6095 0.950 . S
C6099 C6090 1.390 . S
C6099 H6092 0.950 . S
C6099 C6096 1.387 . S
C6100 C6101 1.387 . S
C6100 H6104 0.950 . S
C6100 C6109 1.390 . S
C6101 C6100 1.387 . S
C6101 C6103 1.387 . S
H6102 C6109 0.950 . S
C6103 C6101 1.387 . S
C6103 C6105 1.390 . S
C6103 H6107 0.950 . S
H6104 C6100 0.950 . S
C6105 C6103 1.390 . S
C6105 C6106 1.387 . S
C6105 H6108 0.950 . S
C6106 C6105 1.387 . S
C6106 C6109 1.387 . S
H6107 C6103 0.950 . S
H6108 C6105 0.950 . S
C6109 C6100 1.390 . S
C6109 H6102 0.950 . S
C6109 C6106 1.387 . S
C6110 C6111 1.387 . S
C6110 H6114 0.950 . S
C6110 C6119 1.390 . S
C6111 C6110 1.387 . S
C6111 C6113 1.387 . S
H6112 C6119 0.950 . S
C6113 C6111 1.387 . S
C6113 C6115 1.390 . S
C6113 H6117 0.950 . S
H6114 C6110 0.950 . S
C6115 C6113 1.390 . S
C6115 C6116 1.387 . S
C6115 H6118 0.950 . S
C6116 C6115 1.387 . S
C6116 C6119 1.387 . S
H6117 C6113 0.950 . S
H6118 C6115 0.950 . S
C6119 C6110 1.390 . S
C6119 H6112 0.950 . S
C6119 C6116 1.387 . S
C6120 C6121 1.387 . S
C6120 H6124 0.950 . S
C6120 C6129 1.390 . S
C6121 C6120 1.387 . S
C6121 C6123 1.387 . S
H6122 C6129 0.950 . S
C6123 C6121 1.387 . S
C6123 C6125 1.390 . S
C6123 H6127 0.950 . S
H6124 C6120 0.950 . S
C6125 C6123 1.390 . S
C6125 C6126 1.387 . S
C6125 H6128 0.950 . S
C6126 C6125 1.387 . S
C6126 C6129 1.387 . S
H6127 C6123 0.950 . S
H6128 C6125 0.950 . S
C6129 C6120 1.390 . S
C6129 H6122 0.950 . S
C6129 C6126 1.387 . S
C6130 C6131 1.387 . S
C6130 H6134 0.950 . S
C6130 C6139 1.390 . S
C6131 C6130 1.387 . S
C6131 C6133 1.387 . S
H6132 C6139 0.950 . S
C6133 C6131 1.387 . S
C6133 C6135 1.390 . S
C6133 H6137 0.950 . S
H6134 C6130 0.950 . S
C6135 C6133 1.390 . S
C6135 C6136 1.387 . S
C6135 H6138 0.950 . S
C6136 C6135 1.387 . S
C6136 C6139 1.387 . S
H6137 C6133 0.950 . S
H6138 C6135 0.950 . S
C6139 C6130 1.390 . S
C6139 H6132 0.950 . S
C6139 C6136 1.387 . S
C6140 C6141 1.387 . S
C6140 H6144 0.950 . S
C6140 C6149 1.390 . S
C6141 C6140 1.387 . S
C6141 C6143 1.387 . S
H6142 C6149 0.950 . S
C6143 C6141 1.387 . S
C6143 C6145 1.390 . S
C6143 H6147 0.950 . S
H6144 C6140 0.950 . S
C6145 C6143 1.390 . S
C6145 C6146 1.387 . S
C6145 H6148 0.950 . S
C6146 C6145 1.387 . S
C6146 C6149 1.387 . S
H6147 C6143 0.950 . S
H6148 C6145 0.950 . S
C6149 C6140 1.390 . S
C6149 H6142 0.950 . S
C6149 C6146 1.387 . S
C6150 C6151 1.387 . S
C6150 H6154 0.950 . S
C6150 C6159 1.390 . S
C6151 C6150 1.387 . S
C6151 C6153 1.387 . S
H6152 C6159 0.950 . S
C6153 C6151 1.387 . S
C6153 C6155 1.390 . S
C6153 H6157 0.950 . S
H6154 C6150 0.950 . S
C6155 C6153 1.390 . S
C6155 C6156 1.387 . S
C6155 H6158 0.950 . S
C6156 C6155 1.387 . S
C6156 C6159 1.387 . S
H6157 C6153 0.950 . S
H6158 C6155 0.950 . S
C6159 C6150 1.390 . S
C6159 H6152 0.950 . S
C6159 C6156 1.387 . S
C6160 C6161 1.387 . S
C6160 H6164 0.950 . S
C6160 C6169 1.390 . S
C6161 C6160 1.387 . S
C6161 C6163 1.387 . S
H6162 C6169 0.950 . S
C6163 C6161 1.387 . S
C6163 C6165 1.390 . S
C6163 H6167 0.950 . S
H6164 C6160 0.950 . S
C6165 C6163 1.390 . S
C6165 C6166 1.387 . S
C6165 H6168 0.950 . S
C6166 C6165 1.387 . S
C6166 C6169 1.387 . S
H6167 C6163 0.950 . S
H6168 C6165 0.950 . S
C6169 C6160 1.390 . S
C6169 H6162 0.950 . S
C6169 C6166 1.387 . S
C6170 C6171 1.387 . S
C6170 H6174 0.950 . S
C6170 C6179 1.390 . S
C6171 C6170 1.387 . S
C6171 C6173 1.387 . S
H6172 C6179 0.950 . S
C6173 C6171 1.387 . S
C6173 C6175 1.390 . S
C6173 H6177 0.950 . S
H6174 C6170 0.950 . S
C6175 C6173 1.390 . S
C6175 C6176 1.387 . S
C6175 H6178 0.950 . S
C6176 C6175 1.387 . S
C6176 C6179 1.387 . S
H6177 C6173 0.950 . S
H6178 C6175 0.950 . S
C6179 C6170 1.390 . S
C6179 H6172 0.950 . S
C6179 C6176 1.387 . S
C6180 C6181 1.387 . S
C6180 H6184 0.950 . S
C6180 C6189 1.390 . S
C6181 C6180 1.387 . S
C6181 C6183 1.387 . S
H6182 C6189 0.950 . S
C6183 C6181 1.387 . S
C6183 C6185 1.390 . S
C6183 H6187 0.950 . S
H6184 C6180 0.950 . S
C6185 C6183 1.390 . S
C6185 C6186 1.387 . S
C6185 H6188 0.950 . S
C6186 C6185 1.387 . S
C6186 C6189 1.387 . S
H6187 C6183 0.950 . S
H6188 C6185 0.950 . S
C6189 C6180 1.390 . S
C6189 H6182 0.950 . S
C6189 C6186 1.387 . S
C6190 C6191 1.387 . S
C6190 H6194 0.950 . S
C6190 C6199 1.390 . S
C6191 C6190 1.387 . S
C6191 C6193 1.387 . S
H6192 C6199 0.950 . S
C6193 C6191 1.387 . S
C6193 C6195 1.390 . S
C6193 H6197 0.950 . S
H6194 C6190 0.950 . S
C6195 C6193 1.390 . S
C6195 C6196 1.387 . S
C6195 H6198 0.950 . S
C6196 C6195 1.387 . S
C6196 C6199 1.387 . S
H6197 C6193 0.950 . S
H6198 C6195 0.950 . S
C6199 C6190 1.390 . S
C6199 H6192 0.950 . S
C6199 C6196 1.387 . S
C6200 C6201 1.387 . S
C6200 H6204 0.950 . S
C6200 C6209 1.390 . S
C6201 C6200 1.387 . S
C6201 C6203 1.387 . S
H6202 C6209 0.950 . S
C6203 C6201 1.387 . S
C6203 C6205 1.390 . S
C6203 H6207 0.950 . S
H6204 C6200 0.950 . S
C6205 C6203 1.390 . S
C6205 C6206 1.387 . S
C6205 H6208 0.950 . S
C6206 C6205 1.387 . S
C6206 C6209 1.387 . S
H6207 C6203 0.950 . S
H6208 C6205 0.950 . S
C6209 C6200 1.390 . S
C6209 H6202 0.950 . S
C6209 C6206 1.387 . S
C6210 C6211 1.387 . S
C6210 H6214 0.950 . S
C6210 C6219 1.390 . S
C6211 C6210 1.387 . S
C6211 C6213 1.387 . S
H6212 C6219 0.950 . S
C6213 C6211 1.387 . S
C6213 C6215 1.390 . S
C6213 H6217 0.950 . S
H6214 C6210 0.950 . S
C6215 C6213 1.390 . S
C6215 C6216 1.387 . S
C6215 H6218 0.950 . S
C6216 C6215 1.387 . S
C6216 C6219 1.387 . S
H6217 C6213 0.950 . S
H6218 C6215 0.950 . S
C6219 C6210 1.390 . S
C6219 H6212 0.950 . S
C6219 C6216 1.387 . S
C6220 C6221 1.387 . S
C6220 H6224 0.950 . S
C6220 C6229 1.390 . S
C6221 C6220 1.387 . S
C6221 C6223 1.387 . S
H6222 C6229 0.950 . S
C6223 C6221 1.387 . S
C6223 C6225 1.390 . S
C6223 H6227 0.950 . S
H6224 C6220 0.950 . S
C6225 C6223 1.390 . S
C6225 C6226 1.387 . S
C6225 H6228 0.950 . S
C6226 C6225 1.387 . S
C6226 C6229 1.387 . S
H6227 C6223 0.950 . S
H6228 C6225 0.950 . S
C6229 C6220 1.390 . S
C6229 H6222 0.950 . S
C6229 C6226 1.387 . S
C6230 C6231 1.387 . S
C6230 H6234 0.950 . S
C6230 C6239 1.390 . S
C6231 C6230 1.387 . S
C6231 C6233 1.387 . S
H6232 C6239 0.950 . S
C6233 C6231 1.387 . S
C6233 C6235 1.390 . S
C6233 H6237 0.950 . S
H6234 C6230 0.950 . S
C6235 C6233 1.390 . S
C6235 C6236 1.387 . S
C6235 H6238 0.950 . S
C6236 C6235 1.387 . S
C6236 C6239 1.387 . S
H6237 C6233 0.950 . S
H6238 C6235 0.950 . S
C6239 C6230 1.390 . S
C6239 H6232 0.950 . S
C6239 C6236 1.387 . S
C4801 C1781 1.757 . S
C4806 C1940 1.560 . S
C4811 C981 1.711 . S
C4816 C2011 1.650 . S
C4826 C2071 1.804 . S
C4821 C1861 1.838 . S
C4831 C1061 1.927 . S
C4836 C2120 1.792 . S
C4841 C1901 1.753 . S
C4846 C2180 1.559 . S
C4851 C941 1.966 . S
C4856 C2240 1.783 . S
C4861 C1821 1.841 . S
C4866 C2311 1.837 . S
C4871 C1021 1.727 . S
C4876 C2371 1.666 . S
C4881 C661 1.966 . S
C4886 C2401 1.847 . S
C4891 C1621 1.638 . S
C4896 C2480 1.676 . S
C4901 C741 1.708 . S
C4906 C2540 1.659 . S
C4911 C1581 1.934 . S
C4916 C2600 2.160 . S
C4921 C901 1.762 . S
C4926 C2641 1.837 . S
C4936 C2720 2.160 . S
C4931 C1661 2.156 . S
C4946 C2780 1.694 . S
C4941 C821 1.742 . S
C4951 C1141 1.623 . S
C4956 C2840 1.659 . S
C4966 C2900 1.645 . S
C4961 C781 1.633 . S
C4976 C2960 1.666 . S
C4971 C1701 1.728 . S
C4981 C861 1.578 . S
C4986 C3020 1.593 . S
C4991 C1181 1.690 . S
C4996 C3080 1.628 . S
C5006 C3121 1.764 . S
C5001 C1101 1.904 . S
C5011 C1421 1.682 . S
C5016 C3181 1.613 . S
C5026 C3241 1.708 . S
C5021 C381 1.715 . S
C5036 C3301 1.857 . S
C5031 C1501 1.859 . S
C5046 C3361 1.881 . S
C5041 C461 1.933 . S
C5056 C3421 1.637 . S
C5051 C1541 1.713 . S
C5061 C341 1.908 . S
C5066 C3481 1.857 . S
C5076 C3541 1.853 . S
C5071 C1461 1.856 . S
C5081 C421 1.726 . S
C5086 C3601 1.720 . S
C5096 C3680 1.895 . S
C5091 C61 1.754 . S
C5106 C3740 1.599 . S
C5101 C1261 1.624 . S
C5111 C141 1.626 . S
C5116 C3800 1.716 . S
C5126 C3860 2.176 . S
C5121 C1221 1.931 . S
C5136 C3920 1.903 . S
C5131 C301 1.960 . S
C5141 C1301 1.935 . S
C5146 C3980 2.173 . S
C5156 C4040 1.717 . S
C5151 C221 1.623 . S
C5166 C4100 1.597 . S
C5161 C541 1.712 . S
C5171 C181 1.470 . S
C5176 C4160 1.615 . S
C5186 C4220 1.723 . S
C5181 C1341 1.632 . S
C5191 C261 1.621 . S
C5196 C4280 1.547 . S
C5206 C4340 1.704 . S
C5201 C581 1.611 . S
C5211 C501 1.663 . S
C5216 C4400 1.824 . S
C5221 C701 1.588 . S
C5226 C4460 1.600 . S
C5236 C4520 1.642 . S
C5231 C621 1.460 . S
C5241 C1741 1.671 . S
C5246 C4561 1.725 . S
C5251 C101 1.590 . S
C5256 C4640 1.554 . S
C5266 C4700 1.620 . S
C5261 C21 1.458 . S
C5276 C4760 1.821 . S
C5271 C1381 1.869 . S
C5281 C1335 1.947 . S
C5286 C1921 1.753 . S
C5291 C535 1.536 . S
C5296 C2000 1.416 . S
C5301 C1362 2.485 . S
C5306 C2041 2.381 . S
C5316 C2131 2.474 . S
C5311 C1295 2.505 . S
C5321 C575 1.949 . S
C5326 C2161 1.753 . S
C5331 C1215 2.520 . S
C5336 C2251 2.490 . S
C5346 C2300 2.532 . S
C5341 C495 2.364 . S
C5351 C1242 1.499 . S
C5356 C2360 1.432 . S
C5361 C1255 1.943 . S
C5366 C2431 1.827 . S
C5376 C2491 1.629 . S
C5371 C562 1.593 . S
C5381 C1202 2.183 . S
C5386 C2521 2.457 . S
C5396 C2581 2.096 . S
C5391 C482 1.788 . S
C5401 C522 1.958 . S
C5406 C2671 1.824 . S
C5411 C1375 1.822 . S
C5416 C2701 2.081 . S
C5426 C2761 2.476 . S
C5421 C1282 2.201 . S
C5436 C2851 1.621 . S
C5431 C1322 1.586 . S
C5441 C455 1.847 . S
C5446 C2611 1.920 . S
C5451 C1415 1.688 . S
C5456 C2911 1.792 . S
C5461 C1455 1.729 . S
C5466 C2971 1.725 . S
C5476 C3001 1.839 . S
C5471 C1482 1.902 . S
C5486 C2660 1.678 . S
C5481 C442 1.589 . S
C5491 C362 1.632 . S
C5496 C2461 1.616 . S
C5501 C1495 1.729 . S
C5506 C3091 1.722 . S
C5516 C3140 1.334 . S
C5511 C1402 1.255 . S
C5526 C3211 1.879 . S
C5521 C1695 1.960 . S
C5531 C1135 1.547 . S
C5536 C3271 1.515 . S
C5546 C3320 2.526 . S
C5541 C1722 2.265 . S
C5556 C3380 2.609 . S
C5551 C1655 2.529 . S
C5561 C1175 1.948 . S
C5566 C3451 1.866 . S
C5571 C1562 2.420 . S
C5576 C3500 2.618 . S
C5581 C1095 2.391 . S
C5586 C3560 2.545 . S
C5596 C3631 1.532 . S
C5591 C1615 1.558 . S
C5606 C3661 1.834 . S
C5601 C1602 1.901 . S
C5611 C1162 1.625 . S
C5616 C3751 1.576 . S
C5626 C3811 2.445 . S
C5621 C1575 2.270 . S
C5631 C1082 1.876 . S
C5636 C3841 1.947 . S
C5646 C3901 1.815 . S
C5641 C1122 1.884 . S
C5651 C1735 1.802 . S
C5656 C3961 1.992 . S
C5666 C4051 2.442 . S
C5661 C1642 2.387 . S
C5671 C1682 1.653 . S
C5676 C4111 1.598 . S
C5681 C1042 1.814 . S
C5686 C3871 1.988 . S
C5691 C1775 1.697 . S
C5696 C4171 1.782 . S
C5701 C1815 1.727 . S
C5706 C4201 1.583 . S
C5716 C4261 1.753 . S
C5711 C1842 1.872 . S
C5721 C1055 1.646 . S
C5726 C3931 1.676 . S
C5731 C975 1.604 . S
C5736 C3721 1.541 . S
C5746 C4321 1.573 . S
C5741 C1855 1.722 . S
C5751 C1762 1.315 . S
C5756 C4411 1.336 . S
C5766 C2221 1.986 . S
C5761 C215 2.225 . S
C5776 C2281 1.398 . S
C5771 C255 1.407 . S
C5786 C2341 2.619 . S
C5781 C282 2.763 . S
C5796 C2191 2.260 . S
C5791 C175 2.357 . S
C5806 C2101 1.989 . S
C5801 C135 2.227 . S
C5811 C15 2.353 . S
C5816 C1951 2.256 . S
C5821 C55 2.610 . S
C5826 C1981 2.607 . S
C5831 C82 1.395 . S
C5836 C2060 1.356 . S
C5841 C95 1.528 . S
C5846 C3151 1.414 . S
C5851 C122 1.701 . S
C5856 C4471 1.737 . S
C5861 C2 2.329 . S
C5866 C3061 2.479 . S
C5871 C42 1.929 . S
C5876 C4501 2.069 . S
C5881 C242 1.475 . S
C5886 C4591 1.382 . S
C5896 C2881 2.071 . S
C5891 C295 1.947 . S
C5901 C162 2.331 . S
C5906 C2941 2.489 . S
C5911 C202 1.695 . S
C5916 C3031 1.732 . S
C5926 C4531 1.805 . S
C5921 C1535 1.705 . S
C5931 C335 1.846 . S
C5936 C2731 1.922 . S
C5941 C375 1.454 . S
C5946 C2791 1.466 . S
C5951 C402 1.620 . S
C5956 C2821 1.607 . S
C5966 C4580 1.307 . S
C5961 C1522 1.219 . S
C5976 C4441 1.855 . S
C5971 C1442 1.918 . S
C5986 C2551 1.464 . S
C5981 C415 1.452 . S
C5991 C322 1.605 . S
C5996 C2420 1.685 . S
C6001 C815 2.236 . S
C6006 C3511 2.109 . S
C6011 C855 1.413 . S
C6016 C3571 1.396 . S
C6021 C882 2.555 . S
C6026 C3620 2.804 . S
C6031 C775 2.363 . S
C6036 C3440 2.399 . S
C6046 C3391 2.107 . S
C6041 C735 2.238 . S
C6056 C3200 2.414 . S
C6051 C602 2.248 . S
C6066 C3260 2.811 . S
C6061 C655 2.665 . S
C6071 C695 1.411 . S
C6076 C3331 1.393 . S
C6086 C4381 1.454 . S
C6081 C682 1.495 . S
C6091 C722 1.759 . S
C6096 C4651 1.696 . S
C6101 C615 2.389 . S
C6106 C4351 2.491 . S
C6116 C4681 1.955 . S
C6111 C642 2.006 . S
C6121 C842 1.465 . S
C6126 C4741 1.425 . S
C6136 C4141 1.970 . S
C6131 C895 1.937 . S
C6141 C762 2.484 . S
C6146 C4231 2.509 . S
C6151 C802 1.767 . S
C6156 C4291 1.708 . S
C6161 C1895 1.705 . S
C6166 C4711 1.789 . S
C6176 C3991 1.965 . S
C6171 C935 1.872 . S
C6181 C962 1.430 . S
C6186 C4021 1.384 . S
C6191 C1002 1.640 . S
C6196 C4081 1.562 . S
C6201 C1882 1.299 . S
C6206 C4771 1.319 . S
C6211 C1802 1.857 . S
C6216 C4621 1.743 . S
C6226 C3781 1.379 . S
C6221 C1015 1.455 . S
C6236 C3691 1.675 . S
C6231 C922 1.674 . S
