# Generated by pormake.
# Topology ssa, (4,4)-cn, num edge types: 1
# Building blocks:
#     Node 0, Type 0, BuildingBlock: NAWXER_clean_sbu_0, # of connection points: 4
#     Node 1, Type 0, BuildingBlock: NAWXER_clean_sbu_0, # of connection points: 4
#     Node 2, Type 0, BuildingBlock: NAWXER_clean_sbu_0, # of connection points: 4
#     Node 3, Type 0, BuildingBlock: NAWXER_clean_sbu_0, # of connection points: 4
#     Node 4, Type 0, BuildingBlock: NAWXER_clean_sbu_0, # of connection points: 4
#     Node 5, Type 0, BuildingBlock: NAWXER_clean_sbu_0, # of connection points: 4
#     Node 6, Type 1, BuildingBlock: MUDLON_clean_linker_0, # of connection points: 4
#     Node 7, Type 1, BuildingBlock: MUDLON_clean_linker_0, # of connection points: 4
#     Node 8, Type 1, BuildingBlock: MUDLON_clean_linker_0, # of connection points: 4
#     Node 9, Type 1, BuildingBlock: MUDLON_clean_linker_0, # of connection points: 4
#     Node 10, Type 1, BuildingBlock: MUDLON_clean_linker_0, # of connection points: 4
#     Node 11, Type 1, BuildingBlock: MUDLON_clean_linker_0, # of connection points: 4
#     Edge 12, Type (0, 1), BuildingBlock: CIFDUS_clean_linker_0, # of connection points: 2
#     Edge 13, Type (0, 1), BuildingBlock: CIFDUS_clean_linker_0, # of connection points: 2
#     Edge 14, Type (0, 1), BuildingBlock: CIFDUS_clean_linker_0, # of connection points: 2
#     Edge 15, Type (0, 1), BuildingBlock: CIFDUS_clean_linker_0, # of connection points: 2
#     Edge 16, Type (0, 1), BuildingBlock: CIFDUS_clean_linker_0, # of connection points: 2
#     Edge 17, Type (0, 1), BuildingBlock: CIFDUS_clean_linker_0, # of connection points: 2
#     Edge 18, Type (0, 1), BuildingBlock: CIFDUS_clean_linker_0, # of connection points: 2
#     Edge 19, Type (0, 1), BuildingBlock: CIFDUS_clean_linker_0, # of connection points: 2
#     Edge 20, Type (0, 1), BuildingBlock: CIFDUS_clean_linker_0, # of connection points: 2
#     Edge 21, Type (0, 1), BuildingBlock: CIFDUS_clean_linker_0, # of connection points: 2
#     Edge 22, Type (0, 1), BuildingBlock: CIFDUS_clean_linker_0, # of connection points: 2
#     Edge 23, Type (0, 1), BuildingBlock: CIFDUS_clean_linker_0, # of connection points: 2
#     Edge 24, Type (0, 1), BuildingBlock: CIFDUS_clean_linker_0, # of connection points: 2
#     Edge 25, Type (0, 1), BuildingBlock: CIFDUS_clean_linker_0, # of connection points: 2
#     Edge 26, Type (0, 1), BuildingBlock: CIFDUS_clean_linker_0, # of connection points: 2
#     Edge 27, Type (0, 1), BuildingBlock: CIFDUS_clean_linker_0, # of connection points: 2
#     Edge 28, Type (0, 1), BuildingBlock: CIFDUS_clean_linker_0, # of connection points: 2
#     Edge 29, Type (0, 1), BuildingBlock: CIFDUS_clean_linker_0, # of connection points: 2
#     Edge 30, Type (0, 1), BuildingBlock: CIFDUS_clean_linker_0, # of connection points: 2
#     Edge 31, Type (0, 1), BuildingBlock: CIFDUS_clean_linker_0, # of connection points: 2
#     Edge 32, Type (0, 1), BuildingBlock: CIFDUS_clean_linker_0, # of connection points: 2
#     Edge 33, Type (0, 1), BuildingBlock: CIFDUS_clean_linker_0, # of connection points: 2
#     Edge 34, Type (0, 1), BuildingBlock: CIFDUS_clean_linker_0, # of connection points: 2
#     Edge 35, Type (0, 1), BuildingBlock: CIFDUS_clean_linker_0, # of connection points: 2
# Relax obj value: 0.010
# Max RMSD: 0.048
# Mean RMSD: 0.034
data_MOF--net-ssa--node1-NAWXER_clean_sbu_0--node2-MUDLON_clean_linker_0--edge1-CIFDUS_clean_linker_0
_symmetry_space_group_name_H-M    P1
_symmetry_Int_Tables_number       1
_symmetry_cell_setting            triclinic
loop_
_symmetry_equiv_pos_as_xyz
'x, y, z'
_cell_length_a     62.237711
_cell_length_b     62.285061
_cell_length_c     34.297132
_cell_angle_alpha  90.010482
_cell_angle_beta   89.911405
_cell_angle_gamma 120.05352
loop_
_atom_site_label
_atom_site_type_symbol
_atom_site_fract_x
_atom_site_fract_y
_atom_site_fract_z
_atom_type_partial_charge
C0 C 0.06851 0.56294 0.05923 0.0
C1 C 0.02606 0.48652 0.98361 0.0
O2 O 0.04714 0.54747 0.0734 0.0
Zn3 Zn 0.01706 0.51087 0.05993 0.0
O4 O 0.07609 0.55757 0.02834 0.0
Zn5 Zn 0.04739 0.52528 0.01992 0.0
O6 O 0.01795 0.53261 0.0054 0.0
O7 O 0.98929 0.51593 0.0513 0.0
O8 O 0.04738 0.50512 0.9768 0.0
O9 O 0.01328 0.48683 0.01267 0.0
O10 O 0.01642 0.49073 0.10381 0.0
O11 O 0.05018 0.50488 0.0675 0.0
C12 C 0.99691 0.52795 0.01952 0.0
C13 C 0.0373 0.49243 0.0969 0.0
C14 C 0.56754 0.05202 0.51014 0.0
C15 C 0.59532 0.99871 0.45145 0.0
O16 O 0.56088 0.03216 0.52988 0.0
Zn17 Zn 0.56399 0.99933 0.52585 0.0
O18 O 0.5798 0.05572 0.47877 0.0
Zn19 Zn 0.58206 0.02584 0.48122 0.0
O20 O 0.54449 0.99756 0.4689 0.0
O21 O 0.52964 0.97337 0.52061 0.0
O22 O 0.60008 0.02018 0.44071 0.0
O23 O 0.58242 0.98914 0.48243 0.0
O24 O 0.58106 1.0009 0.57333 0.0
O25 O 0.60408 0.03145 0.53286 0.0
C26 C 0.52662 0.97883 0.48612 0.0
C27 C 0.60136 0.02059 0.56583 0.0
C28 C 0.4774 0.44506 0.95317 0.0
C29 C 0.51165 0.51976 0.03361 0.0
O30 O 0.47719 0.46501 0.94615 0.0
Zn31 Zn 0.49242 0.48192 0.99411 0.0
O32 O 0.48556 0.44238 0.9861 0.0
Zn33 Zn 0.50149 0.46383 0.03838 0.0
O34 O 0.47739 0.44583 0.07892 0.0
O35 O 0.46378 0.46267 0.03625 0.0
O36 O 0.5127 0.50179 0.0499 0.0
O37 O 0.50099 0.51634 0.00076 0.0
O38 O 0.52824 0.48467 0.98937 0.0
O39 O 0.53345 0.4655 0.03971 0.0
C40 C 0.46032 0.44975 0.06714 0.0
C41 C 0.54156 0.47777 0.0082 0.0
C42 C 0.06317 0.56162 0.53116 0.0
C43 C 0.01249 0.48045 0.592 0.0
O44 O 0.06776 0.55479 0.56356 0.0
Zn45 Zn 0.03929 0.52144 0.56263 0.0
O46 O 0.04437 0.54647 0.51078 0.0
Zn47 Zn 0.01459 0.50873 0.51312 0.0
O48 O 0.98566 0.5128 0.51194 0.0
O49 O 0.00877 0.52833 0.56481 0.0
O50 O 0.00453 0.48261 0.55874 0.0
O51 O 0.03251 0.49828 0.60557 0.0
O52 O 0.04994 0.5058 0.51722 0.0
O53 O 0.02191 0.49267 0.47037 0.0
C54 C 0.98986 0.52423 0.54429 0.0
C55 C 0.04215 0.49548 0.48403 0.0
C56 C 0.52664 0.99061 0.0321 0.0
C57 C 0.49539 0.03721 0.96076 0.0
O58 O 0.52975 0.00993 0.0504 0.0
Zn59 Zn 0.52323 0.0404 0.04121 0.0
O60 O 0.51695 0.98585 0.99831 0.0
Zn61 Zn 0.51099 0.01353 0.9959 0.0
O62 O 0.54788 0.04435 0.98912 0.0
O63 O 0.55671 0.06867 0.04053 0.0
O64 O 0.49405 0.01687 0.9511 0.0
O65 O 0.5057 0.0475 0.99312 0.0
O66 O 0.50153 0.03671 0.08411 0.0
O67 O 0.48509 0.00509 0.04312 0.0
C68 C 0.56314 0.06388 0.00797 0.0
C69 C 0.48376 0.01546 0.07463 0.0
C70 C 0.56747 0.5576 0.58399 0.0
C71 C 0.49082 0.53046 0.51092 0.0
O72 O 0.54852 0.55902 0.59366 0.0
Zn73 Zn 0.52904 0.54477 0.54702 0.0
O74 O 0.56801 0.54874 0.55052 0.0
Zn75 Zn 0.54415 0.53366 0.50108 0.0
O76 O 0.56259 0.55646 0.45965 0.0
O77 O 0.54768 0.57222 0.50222 0.0
O78 O 0.50693 0.52737 0.49205 0.0
O79 O 0.49594 0.53995 0.54486 0.0
O80 O 0.5205 0.50683 0.54891 0.0
O81 O 0.53904 0.50028 0.49913 0.0
C82 C 0.55958 0.57427 0.47056 0.0
C83 C 0.52531 0.49224 0.52923 0.0
H84 H 0.31779 0.41513 0.38339 0.0
N85 N 0.30855 0.42295 0.31078 0.0
H86 H 0.35417 0.44276 0.4227 0.0
H87 H 0.3401 0.47252 0.29657 0.0
H88 H 0.37605 0.50004 0.33558 0.0
H89 H 0.32227 0.38896 0.30696 0.0
H90 H 0.34961 0.38616 0.25839 0.0
H91 H 0.32151 0.44722 0.24035 0.0
H92 H 0.34961 0.44551 0.19301 0.0
H93 H 0.29967 0.45918 0.28223 0.0
H94 H 0.26436 0.38433 0.32618 0.0
H95 H 0.25931 0.45563 0.27279 0.0
H96 H 0.2237 0.38087 0.3184 0.0
H97 H 0.15284 0.45632 0.29996 0.0
H98 H 0.13134 0.4693 0.34451 0.0
H99 H 0.08879 0.39447 0.38851 0.0
H100 H 0.11109 0.38151 0.34389 0.0
H101 H 0.09447 0.3866 0.26223 0.0
H102 H 0.07696 0.40449 0.21972 0.0
H103 H 0.1511 0.4593 0.18212 0.0
H104 H 0.16826 0.44312 0.22917 0.0
H105 H 0.18564 0.45063 0.30412 0.0
H106 H 0.22596 0.45396 0.30862 0.0
H107 H 0.194 0.37765 0.27174 0.0
N108 N 0.14111 0.40839 0.28601 0.0
H109 H 0.15305 0.37412 0.26897 0.0
C110 C 0.3261 0.44155 0.33703 0.0
C111 C 0.32997 0.43396 0.37353 0.0
C112 C 0.35075 0.44976 0.39591 0.0
C113 C 0.3681 0.47344 0.38191 0.0
C114 C 0.36312 0.48177 0.34685 0.0
C115 C 0.34232 0.46602 0.32462 0.0
C116 C 0.31991 0.41832 0.2776 0.0
C117 C 0.32758 0.40077 0.28142 0.0
C118 C 0.34347 0.39945 0.2539 0.0
C119 C 0.35224 0.41592 0.22207 0.0
C120 C 0.34316 0.43238 0.21691 0.0
C121 C 0.32707 0.43349 0.24427 0.0
C122 C 0.2851 0.42188 0.30488 0.0
C123 C 0.2833 0.44195 0.28993 0.0
C124 C 0.26006 0.43994 0.28481 0.0
C125 C 0.23812 0.41795 0.29482 0.0
C126 C 0.24008 0.39795 0.3097 0.0
C127 C 0.2633 0.39993 0.31451 0.0
C128 C 0.13406 0.41789 0.31913 0.0
C129 C 0.14002 0.4429 0.32065 0.0
C130 C 0.12737 0.45028 0.34587 0.0
C131 C 0.10825 0.43285 0.36977 0.0
C132 C 0.10333 0.40823 0.37011 0.0
C133 C 0.11627 0.40089 0.34513 0.0
C134 C 0.13262 0.41371 0.24997 0.0
C135 C 0.10691 0.40215 0.24407 0.0
C136 C 0.09689 0.41262 0.21934 0.0
C137 C 0.11241 0.43434 0.19799 0.0
C138 C 0.13829 0.44362 0.1996 0.0
C139 C 0.14831 0.43387 0.226 0.0
C140 C 0.1659 0.41183 0.28672 0.0
C141 C 0.18698 0.43448 0.29712 0.0
C142 C 0.21035 0.43649 0.29929 0.0
C143 C 0.21335 0.41605 0.29076 0.0
C144 C 0.19238 0.39366 0.27929 0.0
C145 C 0.16897 0.39163 0.27738 0.0
H146 H 0.7386 0.12383 0.88367 0.0
N147 N 0.74957 0.14435 0.8131 0.0
H148 H 0.70134 0.11321 0.92235 0.0
H149 H 0.7174 0.16177 0.80049 0.0
H150 H 0.68043 0.15121 0.8387 0.0
H151 H 0.74373 0.1646 0.74574 0.0
H152 H 0.72013 0.14166 0.68865 0.0
H153 H 0.73273 0.0968 0.79756 0.0
H154 H 0.70983 0.07367 0.73974 0.0
H155 H 0.7935 0.14736 0.81555 0.0
H156 H 0.75924 0.19257 0.80724 0.0
H157 H 0.83453 0.18453 0.81156 0.0
H158 H 0.79998 0.22978 0.80474 0.0
H159 H 0.96537 0.32228 0.81903 0.0
H160 H 0.98352 0.35854 0.85996 0.0
H161 H 0.90979 0.34161 0.89579 0.0
H162 H 0.89207 0.30744 0.85005 0.0
H163 H 0.90306 0.32974 0.77734 0.0
H164 H 0.92407 0.36434 0.7323 0.0
H165 H 0.97168 0.33621 0.69523 0.0
H166 H 0.95024 0.30124 0.74053 0.0
H167 H 0.90455 0.25708 0.84036 0.0
H168 H 0.86333 0.22046 0.84682 0.0
H169 H 0.83483 0.25145 0.7626 0.0
N170 N 0.91844 0.29693 0.79616 0.0
H171 H 0.87533 0.28792 0.75707 0.0
C172 C 0.73083 0.14341 0.8391 0.0
C173 C 0.72638 0.13054 0.87444 0.0
C174 C 0.70514 0.12452 0.89647 0.0
C175 C 0.6879 0.13117 0.88323 0.0
C176 C 0.69331 0.14566 0.84935 0.0
C177 C 0.71458 0.1518 0.82753 0.0
C178 C 0.73987 0.13232 0.77613 0.0
C179 C 0.73678 0.14485 0.74444 0.0
C180 C 0.72331 0.13166 0.71162 0.0
C181 C 0.71279 0.10572 0.70971 0.0
C182 C 0.71721 0.09353 0.74053 0.0
C183 C 0.73052 0.10672 0.77339 0.0
C184 C 0.77326 0.16702 0.81202 0.0
C185 C 0.79487 0.16534 0.81332 0.0
C186 C 0.81829 0.18665 0.81129 0.0
C187 C 0.82065 0.21025 0.808 0.0
C188 C 0.79892 0.21192 0.8068 0.0
C189 C 0.77547 0.19055 0.80859 0.0
C190 C 0.92743 0.31223 0.83077 0.0
C191 C 0.95316 0.32616 0.83642 0.0
C192 C 0.96355 0.3471 0.86026 0.0
C193 C 0.94836 0.35405 0.88088 0.0
C194 C 0.92238 0.33802 0.87904 0.0
C195 C 0.91203 0.31779 0.85353 0.0
C196 C 0.92483 0.31256 0.76195 0.0
C197 C 0.91719 0.33029 0.75824 0.0
C198 C 0.9294 0.35023 0.73266 0.0
C199 C 0.94971 0.35312 0.71059 0.0
C200 C 0.95624 0.33456 0.71224 0.0
C201 C 0.94378 0.31439 0.73758 0.0
C202 C 0.8935 0.27565 0.79863 0.0
C203 C 0.88936 0.25602 0.82345 0.0
C204 C 0.86579 0.23501 0.8269 0.0
C205 C 0.84567 0.23294 0.80522 0.0
C206 C 0.84974 0.25256 0.78031 0.0
C207 C 0.87327 0.27365 0.77706 0.0
H208 H 0.58691 0.8669 0.25206 0.0
N209 N 0.61563 0.88146 0.1861 0.0
H210 H 0.58916 0.89413 0.30508 0.0
H211 H 0.65237 0.92713 0.19989 0.0
H212 H 0.65556 0.95432 0.25374 0.0
H213 H 0.62987 0.90101 0.11528 0.0
H214 H 0.60845 0.91582 0.07237 0.0
H215 H 0.5674 0.87087 0.19402 0.0
H216 H 0.54609 0.88545 0.15156 0.0
H217 H 0.57245 0.83606 0.19021 0.0
H218 H 0.65229 0.8717 0.19093 0.0
H219 H 0.56942 0.79561 0.19286 0.0
H220 H 0.64952 0.83129 0.19575 0.0
H221 H 0.56427 0.68734 0.2428 0.0
H222 H 0.56148 0.66292 0.30004 0.0
H223 H 0.64076 0.69262 0.29623 0.0
H224 H 0.6435 0.71759 0.23901 0.0
H225 H 0.62688 0.6965 0.15547 0.0
H226 H 0.6059 0.66092 0.11156 0.0
H227 H 0.53668 0.65963 0.1307 0.0
H228 H 0.55794 0.69546 0.17452 0.0
H229 H 0.57272 0.72732 0.23324 0.0
H230 H 0.57476 0.76736 0.23168 0.0
H231 H 0.63983 0.79627 0.15795 0.0
N232 N 0.60606 0.71598 0.19944 0.0
H233 H 0.63834 0.7564 0.16156 0.0
C234 C 0.61937 0.89515 0.22176 0.0
C235 C 0.60216 0.88583 0.25259 0.0
C236 C 0.60358 0.90145 0.28305 0.0
C237 C 0.62234 0.92659 0.28342 0.0
C238 C 0.64054 0.93525 0.25396 0.0
C239 C 0.63895 0.9197 0.2234 0.0
C240 C 0.60044 0.88496 0.15792 0.0
C241 C 0.61127 0.89691 0.12267 0.0
C242 C 0.59902 0.90531 0.09823 0.0
C243 C 0.57574 0.90201 0.10893 0.0
C244 C 0.56415 0.88848 0.14286 0.0
C245 C 0.57633 0.88001 0.1671 0.0
C246 C 0.61274 0.85707 0.18963 0.0
C247 C 0.58938 0.83529 0.19113 0.0
C248 C 0.58767 0.81202 0.19304 0.0
C249 C 0.60922 0.81001 0.19411 0.0
C250 C 0.63249 0.83194 0.19391 0.0
C251 C 0.63416 0.85511 0.1915 0.0
C252 C 0.60427 0.70472 0.23693 0.0
C253 C 0.58121 0.68942 0.255 0.0
C254 C 0.5796 0.67531 0.2877 0.0
C255 C 0.6009 0.67585 0.30253 0.0
C256 C 0.62404 0.69179 0.28529 0.0
C257 C 0.62567 0.70618 0.2529 0.0
C258 C 0.59401 0.69851 0.1683 0.0
C259 C 0.60733 0.68894 0.14933 0.0
C260 C 0.5953 0.66856 0.12455 0.0
C261 C 0.56961 0.65736 0.11816 0.0
C262 C 0.5565 0.66798 0.13504 0.0
C263 C 0.56861 0.68839 0.16013 0.0
C264 C 0.60573 0.73894 0.19797 0.0
C265 C 0.58754 0.74223 0.217 0.0
C266 C 0.5886 0.76522 0.21575 0.0
C267 C 0.60761 0.78528 0.19499 0.0
C268 C 0.62529 0.78156 0.1751 0.0
C269 C 0.62438 0.75872 0.17679 0.0
H270 H 0.93459 0.62069 0.8122 0.0
N271 N 0.89153 0.58838 0.78068 0.0
H272 H 0.95795 0.61262 0.86169 0.0
H273 H 0.87399 0.54568 0.82325 0.0
H274 H 0.89746 0.53715 0.87229 0.0
H275 H 0.88221 0.54304 0.75411 0.0
H276 H 0.9012 0.53567 0.69723 0.0
H277 H 0.91736 0.62067 0.72486 0.0
H278 H 0.93662 0.61344 0.66768 0.0
H279 H 0.87995 0.61935 0.81469 0.0
H280 H 0.84708 0.54803 0.75827 0.0
H281 H 0.83895 0.61489 0.82257 0.0
H282 H 0.80627 0.54404 0.7636 0.0
H283 H 0.71528 0.58399 0.87992 0.0
H284 H 0.6788 0.55796 0.92043 0.0
H285 H 0.65569 0.49814 0.83772 0.0
H286 H 0.69178 0.52412 0.79746 0.0
H287 H 0.71416 0.54754 0.74039 0.0
H288 H 0.68804 0.54774 0.68741 0.0
H289 H 0.68317 0.60702 0.74468 0.0
H290 H 0.70845 0.60584 0.7983 0.0
H291 H 0.76774 0.61372 0.79491 0.0
H292 H 0.80805 0.6166 0.78712 0.0
H293 H 0.77358 0.53739 0.80492 0.0
N294 N 0.7242 0.57375 0.80844 0.0
H295 H 0.73337 0.53453 0.81017 0.0
C296 C 0.90275 0.58382 0.81398 0.0
C297 C 0.92621 0.60259 0.82588 0.0
C298 C 0.93956 0.59786 0.85386 0.0
C299 C 0.9297 0.57413 0.87048 0.0
C300 C 0.90552 0.55564 0.86012 0.0
C301 C 0.89213 0.56043 0.83201 0.0
C302 C 0.89835 0.58251 0.74368 0.0
C303 C 0.89336 0.55839 0.73478 0.0
C304 C 0.90421 0.55417 0.70214 0.0
C305 C 0.92047 0.57401 0.67812 0.0
C306 C 0.92426 0.59783 0.68581 0.0
C307 C 0.91322 0.60198 0.71827 0.0
C308 C 0.86676 0.58433 0.78548 0.0
C309 C 0.86386 0.60281 0.80374 0.0
C310 C 0.84039 0.6003 0.80781 0.0
C311 C 0.81916 0.57927 0.79314 0.0
C312 C 0.82206 0.56043 0.77553 0.0
C313 C 0.84558 0.5628 0.77208 0.0
C314 C 0.70627 0.5562 0.83562 0.0
C315 C 0.70276 0.56498 0.8713 0.0
C316 C 0.68197 0.55008 0.8944 0.0
C317 C 0.66428 0.52614 0.88193 0.0
C318 C 0.66889 0.51663 0.84778 0.0
C319 C 0.68963 0.5315 0.82478 0.0
C320 C 0.71305 0.5766 0.77344 0.0
C321 C 0.70776 0.5608 0.7412 0.0
C322 C 0.69289 0.56104 0.71082 0.0
C323 C 0.68318 0.57718 0.71198 0.0
C324 C 0.68984 0.59397 0.74321 0.0
C325 C 0.70452 0.59357 0.77364 0.0
C326 C 0.74745 0.57411 0.80357 0.0
C327 C 0.76893 0.59699 0.79691 0.0
C328 C 0.79201 0.59858 0.79286 0.0
C329 C 0.79428 0.57727 0.79595 0.0
C330 C 0.77263 0.55421 0.80201 0.0
C331 C 0.74944 0.55258 0.80541 0.0
H332 H 0.18098 0.68611 0.31418 0.0
N333 N 0.17098 0.7237 0.30424 0.0
H334 H 0.16894 0.65823 0.37055 0.0
H335 H 0.15412 0.7294 0.37228 0.0
H336 H 0.14268 0.70216 0.42927 0.0
H337 H 0.12234 0.69635 0.29508 0.0
H338 H 0.09965 0.66765 0.24283 0.0
H339 H 0.1914 0.71754 0.23607 0.0
H340 H 0.16881 0.69047 0.18206 0.0
H341 H 0.21672 0.72834 0.29465 0.0
H342 H 0.17839 0.76936 0.30756 0.0
H343 H 0.25648 0.76703 0.29335 0.0
H344 H 0.21792 0.8081 0.30945 0.0
H345 H 0.36738 0.86945 0.31278 0.0
H346 H 0.40209 0.88091 0.35741 0.0
H347 H 0.37223 0.91392 0.4354 0.0
H348 H 0.33755 0.90251 0.39031 0.0
H349 H 0.35935 0.93267 0.30927 0.0
H350 H 0.38696 0.95527 0.25569 0.0
H351 H 0.36071 0.88619 0.19295 0.0
H352 H 0.33547 0.8637 0.24877 0.0
H353 H 0.32342 0.83676 0.33935 0.0
H354 H 0.28462 0.79836 0.33271 0.0
H355 H 0.25215 0.83767 0.27684 0.0
N356 N 0.33265 0.88385 0.31878 0.0
H357 H 0.29075 0.87662 0.28652 0.0
C358 C 0.16801 0.70954 0.33903 0.0
C359 C 0.17308 0.68994 0.33954 0.0
C360 C 0.16631 0.67413 0.37187 0.0
C361 C 0.15454 0.6778 0.40419 0.0
C362 C 0.15128 0.69857 0.40455 0.0
C363 C 0.15789 0.71421 0.37221 0.0
C364 C 0.15857 0.70919 0.27 0.0
C365 C 0.13258 0.69524 0.27034 0.0
C366 C 0.1196 0.67894 0.24003 0.0
C367 C 0.13222 0.67657 0.20767 0.0
C368 C 0.15833 0.69125 0.20667 0.0
C369 C 0.17139 0.70712 0.23767 0.0
C370 C 0.19461 0.74611 0.30037 0.0
C371 C 0.21691 0.74576 0.29687 0.0
C372 C 0.23969 0.76798 0.29676 0.0
C373 C 0.24068 0.79096 0.3014 0.0
C374 C 0.21815 0.79103 0.30482 0.0
C375 C 0.19544 0.76887 0.304 0.0
C376 C 0.35 0.88539 0.34816 0.0
C377 C 0.36798 0.87862 0.33991 0.0
C378 C 0.38781 0.88523 0.36535 0.0
C379 C 0.38995 0.89854 0.3996 0.0
C380 C 0.37095 0.90354 0.40931 0.0
C381 C 0.35118 0.89708 0.38364 0.0
C382 C 0.3452 0.89655 0.28327 0.0
C383 C 0.35942 0.9225 0.28369 0.0
C384 C 0.37512 0.93543 0.25262 0.0
C385 C 0.37645 0.92277 0.21947 0.0
C386 C 0.36097 0.89675 0.21817 0.0
C387 C 0.34599 0.88375 0.24998 0.0
C388 C 0.31017 0.86006 0.31381 0.0
C389 C 0.3081 0.83744 0.32584 0.0
C390 C 0.28571 0.81513 0.32155 0.0
C391 C 0.26495 0.81464 0.3043 0.0
C392 C 0.26738 0.83717 0.29117 0.0
C393 C 0.28956 0.85953 0.29635 0.0
H394 H 0.46209 0.1268 0.61915 0.0
N395 N 0.47131 0.14721 0.68959 0.0
H396 H 0.4878 0.11394 0.58305 0.0
H397 H 0.52049 0.16356 0.70383 0.0
H398 H 0.54606 0.15076 0.66816 0.0
H399 H 0.49571 0.16244 0.75971 0.0
H400 H 0.49341 0.1355 0.81257 0.0
H401 H 0.43715 0.09987 0.69919 0.0
H402 H 0.43407 0.07263 0.753 0.0
H403 H 0.43374 0.15347 0.67014 0.0
H404 H 0.50893 0.19324 0.71252 0.0
H405 H 0.43165 0.19155 0.67234 0.0
H406 H 0.5066 0.23099 0.71731 0.0
H407 H 0.43746 0.30637 0.63567 0.0
H408 H 0.45376 0.34076 0.58873 0.0
H409 H 0.52524 0.37379 0.64514 0.0
H410 H 0.50881 0.33986 0.69224 0.0
H411 H 0.4956 0.31818 0.75543 0.0
H412 H 0.49756 0.34195 0.81357 0.0
H413 H 0.42726 0.33537 0.78229 0.0
H414 H 0.42581 0.3121 0.72385 0.0
H415 H 0.42527 0.25655 0.71426 0.0
H416 H 0.42843 0.21904 0.71452 0.0
H417 H 0.50584 0.26269 0.68206 0.0
N418 N 0.46037 0.30253 0.69825 0.0
H419 H 0.50283 0.30004 0.68434 0.0
C420 C 0.48917 0.14599 0.66424 0.0
C421 C 0.48078 0.1329 0.6291 0.0
C422 C 0.49548 0.12558 0.60856 0.0
C423 C 0.51878 0.1311 0.62314 0.0
C424 C 0.52805 0.14607 0.65651 0.0
C425 C 0.51344 0.15354 0.67683 0.0
C426 C 0.46661 0.13316 0.72516 0.0
C427 C 0.48179 0.14304 0.75821 0.0
C428 C 0.48038 0.1275 0.78871 0.0
C429 C 0.46373 0.10179 0.78691 0.0
C430 C 0.44741 0.09226 0.75503 0.0
C431 C 0.44892 0.10782 0.7245 0.0
C432 C 0.47127 0.17031 0.69145 0.0
C433 C 0.44971 0.17041 0.68033 0.0
C434 C 0.44851 0.19219 0.68201 0.0
C435 C 0.46887 0.21447 0.69546 0.0
C436 C 0.49061 0.21434 0.70643 0.0
C437 C 0.49189 0.19256 0.70414 0.0
C438 C 0.47186 0.32033 0.66719 0.0
C439 C 0.45681 0.32069 0.63716 0.0
C440 C 0.4661 0.34033 0.61057 0.0
C441 C 0.49075 0.35987 0.61336 0.0
C442 C 0.50628 0.35879 0.64201 0.0
C443 C 0.49687 0.33934 0.66896 0.0
C444 C 0.4605 0.31341 0.73538 0.0
C445 C 0.48048 0.32157 0.76144 0.0
C446 C 0.48151 0.33509 0.79471 0.0
C447 C 0.46265 0.34074 0.8024 0.0
C448 C 0.44227 0.33169 0.77693 0.0
C449 C 0.44127 0.3182 0.74379 0.0
C450 C 0.46355 0.2811 0.69874 0.0
C451 C 0.44293 0.25796 0.70743 0.0
C452 C 0.44476 0.2365 0.70718 0.0
C453 C 0.46733 0.23762 0.69771 0.0
C454 C 0.48819 0.261 0.68981 0.0
C455 C 0.48641 0.28253 0.69069 0.0
H456 H 0.08395 0.50973 0.1221 0.0
H457 H 0.01131 0.44448 0.12172 0.0
H458 H 0.0285 0.42007 0.14984 0.0
H459 H 0.06453 0.41715 0.17055 0.0
H460 H 0.13606 0.48441 0.18021 0.0
H461 H 0.11909 0.50771 0.15027 0.0
C462 C 0.07187 0.49023 0.12885 0.0
C463 C 0.04647 0.47884 0.12013 0.0
C464 C 0.08179 0.47652 0.14545 0.0
C465 C 0.03088 0.45364 0.12882 0.0
C466 C 0.04077 0.43968 0.14441 0.0
C467 C 0.07656 0.43695 0.16721 0.0
C468 C 0.10192 0.44849 0.17768 0.0
C469 C 0.0663 0.45089 0.15238 0.0
C470 C 0.11681 0.47429 0.17147 0.0
C471 C 0.107 0.48798 0.1549 0.0
H472 H 0.64713 0.06169 0.55843 0.0
H473 H 0.59987 0.00519 0.64091 0.0
H474 H 0.63072 0.02592 0.692 0.0
H475 H 0.6697 0.06144 0.71432 0.0
H476 H 0.71739 0.11773 0.63194 0.0
H477 H 0.68758 0.09581 0.57987 0.0
C478 C 0.64364 0.05377 0.58748 0.0
C479 C 0.6211 0.03196 0.59579 0.0
C480 C 0.66142 0.06586 0.61686 0.0
C481 C 0.61699 0.02195 0.63362 0.0
C482 C 0.63462 0.03384 0.66294 0.0
C483 C 0.67389 0.06871 0.68484 0.0
C484 C 0.6958 0.0913 0.6772 0.0
C485 C 0.65672 0.05598 0.65502 0.0
C486 C 0.70055 0.1006 0.63886 0.0
C487 C 0.68356 0.08801 0.609 0.0
H488 H 0.50649 0.56018 0.01744 0.0
H489 H 0.54457 0.5347 0.09316 0.0
H490 H 0.56579 0.57486 0.12509 0.0
H491 H 0.57375 0.61712 0.13203 0.0
H492 H 0.53539 0.64334 0.05903 0.0
H493 H 0.51394 0.60301 0.02572 0.0
C494 C 0.51944 0.56347 0.04091 0.0
C495 C 0.5239 0.54439 0.05279 0.0
C496 C 0.53153 0.58673 0.05966 0.0
C497 C 0.54063 0.54892 0.08345 0.0
C498 C 0.55288 0.57195 0.10175 0.0
C499 C 0.56086 0.61409 0.10856 0.0
C500 C 0.55639 0.63321 0.09757 0.0
C501 C 0.54852 0.59095 0.09008 0.0
C502 C 0.53916 0.62885 0.06785 0.0
C503 C 0.52696 0.60585 0.04882 0.0
H504 H 0.00296 0.56557 0.58552 0.0
H505 H 0.93924 0.50116 0.53795 0.0
H506 H 0.91152 0.5119 0.57318 0.0
H507 H 0.90583 0.53758 0.62291 0.0
H508 H 0.97027 0.60221 0.66891 0.0
H509 H 0.9973 0.59364 0.62848 0.0
C510 C 0.98298 0.55408 0.58249 0.0
C511 C 0.97306 0.53248 0.55969 0.0
C512 C 0.96734 0.56038 0.60265 0.0
C513 C 0.94723 0.5179 0.55539 0.0
C514 C 0.93143 0.52395 0.57571 0.0
C515 C 0.92577 0.54991 0.62359 0.0
C516 C 0.93604 0.57045 0.64896 0.0
C517 C 0.94131 0.54482 0.60025 0.0
C518 C 0.96188 0.58644 0.64937 0.0
C519 C 0.97739 0.58145 0.6265 0.0
H520 H 0.45983 0.96645 0.08904 0.0
H521 H 0.46047 0.03385 0.11982 0.0
H522 H 0.42558 0.01061 0.16468 0.0
H523 H 0.39569 0.97133 0.19572 0.0
H524 H 0.40003 0.90536 0.17168 0.0
H525 H 0.4314 0.92768 0.1225 0.0
C526 C 0.45215 0.97598 0.10537 0.0
C527 C 0.46244 0.00171 0.10102 0.0
C528 C 0.43283 0.96271 0.13203 0.0
C529 C 0.45276 0.01401 0.1228 0.0
C530 C 0.43283 1.00073 0.14834 0.0
C531 C 0.40363 0.96175 0.18035 0.0
C532 C 0.39502 0.93641 0.18783 0.0
C533 C 0.42288 0.97508 0.15346 0.0
C534 C 0.40542 0.92452 0.16632 0.0
C535 C 0.42377 0.9374 0.13835 0.0
H536 H 0.54533 0.4621 0.52311 0.0
H537 H 0.48097 0.46431 0.56447 0.0
H538 H 0.46351 0.42244 0.59061 0.0
H539 H 0.46782 0.38652 0.60606 0.0
H540 H 0.53336 0.38492 0.57008 0.0
H541 H 0.54913 0.42513 0.53741 0.0
C542 C 0.52736 0.45321 0.53743 0.0
C543 C 0.51444 0.46621 0.54194 0.0
C544 C 0.51774 0.42933 0.55352 0.0
C545 C 0.49131 0.45469 0.56092 0.0
C546 C 0.48131 0.43076 0.57583 0.0
C547 C 0.48533 0.39477 0.5904 0.0
C548 C 0.49932 0.38277 0.59007 0.0
C549 C 0.49453 0.41809 0.57289 0.0
C550 C 0.52227 0.39388 0.57055 0.0
C551 C 0.53127 0.41684 0.55198 0.0
H552 H 0.61549 0.00976 0.37864 0.0
H553 H 0.59116 0.95394 0.46867 0.0
H554 H 0.59893 0.92733 0.42561 0.0
H555 H 0.61022 0.91881 0.36099 0.0
H556 H 0.63242 0.974 0.27022 0.0
H557 H 0.62836 0.00199 0.31517 0.0
C558 C 0.61217 0.99191 0.38907 0.0
C559 C 0.60265 0.98386 0.42681 0.0
C560 C 0.61627 0.9765 0.36395 0.0
C561 C 0.5984 0.96061 0.43971 0.0
C562 C 0.60279 0.94533 0.41507 0.0
C563 C 0.61417 0.93696 0.35103 0.0
C564 C 0.62166 0.94419 0.31218 0.0
C565 C 0.61128 0.95288 0.37686 0.0
C566 C 0.62704 0.96798 0.30004 0.0
C567 C 0.6245 0.98399 0.32567 0.0
H568 H 0.55273 0.479 0.93262 0.0
H569 H 0.58467 0.49018 0.04736 0.0
H570 H 0.62594 0.50508 0.01846 0.0
H571 H 0.65317 0.51785 0.95986 0.0
H572 H 0.61977 0.50525 0.84577 0.0
H573 H 0.57878 0.48768 0.87508 0.0
C574 C 0.56873 0.48454 0.95129 0.0
C575 C 0.56588 0.48388 0.99192 0.0
C576 C 0.59208 0.49281 0.93454 0.0
C577 C 0.58655 0.49061 0.01593 0.0
C578 C 0.61009 0.49922 -0.00059 0.0
C579 C 0.63684 0.51099 0.94156 0.0
C580 C 0.6395 0.51283 0.90072 0.0
C581 C 0.61315 0.50085 0.95868 0.0
C582 C 0.61822 0.50375 0.87724 0.0
C583 C 0.59476 0.49388 0.89396 0.0
H584 H 0.11296 0.5856 0.51808 0.0
H585 H 0.04798 0.59305 0.50828 0.0
H586 H 0.07161 0.63154 0.47151 0.0
H587 H 0.10893 0.65992 0.43565 0.0
H588 H 0.1737 0.65173 0.44081 0.0
H589 H 0.15202 0.61656 0.48557 0.0
C590 C 0.10431 0.59611 0.5087 0.0
C591 C 0.07894 0.58683 0.51599 0.0
C592 C 0.11781 0.61775 0.48615 0.0
C593 C 0.06757 0.60009 0.50304 0.0
C594 C 0.08102 0.62196 0.48188 0.0
C595 C 0.1186 0.6509 0.44732 0.0
C596 C 0.14292 0.65849 0.43497 0.0
C597 C 0.10591 0.63054 0.47231 0.0
C598 C 0.15489 0.64612 0.44966 0.0
C599 C 0.14252 0.62606 0.4753 0.0
H600 H 0.47951 0.02519 0.88558 0.0
H601 H 0.49155 0.07807 0.9764 0.0
H602 H 0.48079 0.10155 0.93156 0.0
H603 H 0.47059 0.10867 0.86554 0.0
H604 H 0.46052 0.05695 0.77388 0.0
H605 H 0.46724 0.03123 0.82021 0.0
C606 C 0.47951 0.04169 0.89569 0.0
C607 C 0.48652 0.04991 0.93425 0.0
C608 C 0.47362 0.05537 0.86957 0.0
C609 C 0.48641 0.07137 0.94681 0.0
C610 C 0.48026 0.08485 0.92118 0.0
C611 C 0.46983 0.09175 0.85569 0.0
C612 C 0.46512 0.08487 0.81619 0.0
C613 C 0.4743 0.0773 0.8823 0.0
C614 C 0.46377 0.06261 0.80415 0.0
C615 C 0.46785 0.04797 0.83058 0.0
H616 H 0.47993 0.52599 0.43421 0.0
H617 H 0.44669 0.51635 0.54795 0.0
H618 H 0.40552 0.49883 0.51812 0.0
H619 H 0.37876 0.48381 0.45945 0.0
H620 H 0.41295 0.49467 0.34614 0.0
H621 H 0.45393 0.51439 0.37599 0.0
C622 C 0.46368 0.52018 0.45247 0.0
C623 C 0.46627 0.52218 0.49319 0.0
C624 C 0.44023 0.51035 0.43516 0.0
C625 C 0.44514 0.51497 0.51649 0.0
C626 C 0.4216 0.50487 0.49945 0.0
C627 C 0.39524 0.49072 0.4414 0.0
C628 C 0.39281 0.48781 0.40065 0.0
C629 C 0.41888 0.5021 0.45881 0.0
C630 C 0.41431 0.49697 0.37751 0.0
C631 C 0.43776 0.50808 0.39456 0.0
H632 H 0.97944 0.45854 0.95702 0.0
H633 H 0.05071 0.46291 0.96055 0.0
H634 H 0.03254 0.42132 0.93202 0.0
H635 H 0.996 0.38325 0.90988 0.0
H636 H 0.92614 0.38205 0.89676 0.0
H637 H 0.94396 0.42229 0.92727 0.0
C638 C 0.99101 0.45046 0.95091 0.0
C639 C 0.0163 0.4636 0.96064 0.0
C640 C 0.98056 0.42686 0.93393 0.0
C641 C 0.03123 0.45315 0.95272 0.0
C642 C 0.02079 0.42931 0.93685 0.0
C643 C 0.98456 0.39172 0.91258 0.0
C644 C 0.95937 0.37876 0.90103 0.0
C645 C 0.99537 0.41588 0.92777 0.0
C646 C 0.94519 0.39052 0.90638 0.0
C647 C 0.95551 0.41399 0.92329 0.0
H648 H 0.00966 0.55661 0.95464 0.0
H649 H 0.94906 0.51654 0.03518 0.0
H650 H 0.92288 0.52748 0.99662 0.0
H651 H 0.91693 0.54767 0.93874 0.0
H652 H 0.97795 0.58732 0.85872 0.0
H653 H 0.00419 0.57742 0.8985 0.0
C654 C 0.99076 0.55031 0.96394 0.0
C655 C 0.98135 0.53569 0.99771 0.0
C656 C 0.97583 0.55661 0.94166 0.0
C657 C 0.95682 0.52784 0.00932 0.0
C658 C 0.9418 0.53403 0.98722 0.0
C659 C 0.93596 0.55409 0.93006 0.0
C660 C 0.94547 0.56834 0.8959 0.0
C661 C 0.95104 0.54825 0.95311 0.0
C662 C 0.97025 0.57668 0.88518 0.0
C663 C 0.98526 0.57089 0.90778 0.0
H664 H 0.48058 0.94772 0.51672 0.0
H665 H 0.51975 0.97606 0.40793 0.0
H666 H 0.48119 0.95244 0.3719 0.0
H667 H 0.43628 0.92523 0.371 0.0
H668 H 0.39593 0.8982 0.47888 0.0
H669 H 0.43494 0.91978 0.51562 0.0
C670 C 0.48063 0.94856 0.48513 0.0
C671 C 0.503 0.96367 0.46506 0.0
C672 C 0.4582 0.93522 0.46445 0.0
C673 C 0.50278 0.96474 0.42413 0.0
C674 C 0.48075 0.95119 0.40344 0.0
C675 C 0.43607 0.92372 0.40253 0.0
C676 C 0.41337 0.90994 0.42223 0.0
C677 C 0.45836 0.93655 0.42328 0.0
C678 C 0.41326 0.90868 0.46314 0.0
C679 C 0.43552 0.92101 0.48408 0.0
H680 H 0.48233 0.40413 0.95572 0.0
H681 H 0.45742 0.44322 0.88128 0.0
H682 H 0.44975 0.41376 0.82871 0.0
H683 H 0.45242 0.37841 0.80271 0.0
H684 H 0.47791 0.33975 0.87686 0.0
H685 H 0.48333 0.36778 0.93064 0.0
C686 C 0.47496 0.40609 0.92816 0.0
C687 C 0.47047 0.42591 0.92252 0.0
C688 C 0.47096 0.38933 0.89787 0.0
C689 C 0.46105 0.42818 0.88648 0.0
C690 C 0.45673 0.41137 0.85635 0.0
C691 C 0.45879 0.37585 0.83081 0.0
C692 C 0.46476 0.35698 0.83571 0.0
C693 C 0.46193 0.39208 0.86155 0.0
C694 C 0.47345 0.35427 0.87215 0.0
C695 C 0.47644 0.37022 0.90296 0.0
H696 H 0.02644 0.45387 0.4397 0.0
H697 H 0.09206 0.51891 0.48161 0.0
H698 H 0.11835 0.50492 0.45119 0.0
H699 H 0.1228 0.47403 0.41361 0.0
H700 H 0.05759 0.40817 0.37292 0.0
H701 H 0.03102 0.42223 0.4027 0.0
C702 C 0.04649 0.46502 0.44167 0.0
C703 C 0.05736 0.48743 0.46249 0.0
C704 C 0.06154 0.45651 0.42498 0.0
C705 C 0.08333 0.50158 0.46561 0.0
C706 C 0.09837 0.49358 0.44837 0.0
C707 C 0.10277 0.46275 0.41135 0.0
C708 C 0.09218 0.44012 0.39121 0.0
C709 C 0.08768 0.471 0.42827 0.0
C710 C 0.06618 0.42553 0.3888 0.0
C711 C 0.05099 0.43368 0.40545 0.0
H712 H 0.57539 0.0707 0.93193 0.0
H713 H 0.60663 0.09372 0.04678 0.0
H714 H 0.64836 0.11753 0.01841 0.0
H715 H 0.67612 0.12975 0.96056 0.0
H716 H 0.6437 0.10731 0.84615 0.0
H717 H 0.60227 0.0855 0.87467 0.0
C718 C 0.59133 0.08105 0.95076 0.0
C719 C 0.58805 0.08027 0.99135 0.0
C720 C 0.61504 0.09478 0.93427 0.0
C721 C 0.60876 0.09407 0.0154 0.0
C722 C 0.63259 0.10757 -0.00081 0.0
C723 C 0.65991 0.12023 0.94201 0.0
C724 C 0.66294 0.12015 0.90133 0.0
C725 C 0.636 0.10776 0.95865 0.0
C726 C 0.64183 0.10789 0.87749 0.0
C727 C 0.61814 0.09527 0.89378 0.0
H728 H 0.59114 0.58856 0.40832 0.0
H729 H 0.54637 0.60977 0.47648 0.0
H730 H 0.55631 0.64395 0.43179 0.0
H731 H 0.57546 0.66622 0.37085 0.0
H732 H 0.62067 0.64551 0.30313 0.0
H733 H 0.6131 0.61303 0.35029 0.0
C734 C 0.58373 0.60079 0.41357 0.0
C735 C 0.56786 0.59644 0.44553 0.0
C736 C 0.58957 0.62052 0.38777 0.0
C737 C 0.55862 0.61264 0.45212 0.0
C738 C 0.56422 0.63217 0.42648 0.0
C739 C 0.58378 0.65468 0.36666 0.0
C740 C 0.5985 0.65816 0.33354 0.0
C741 C 0.57931 0.63603 0.39385 0.0
C742 C 0.60943 0.64331 0.32859 0.0
C743 C 0.60496 0.62462 0.3554 0.0
H744 H 0.56224 0.06152 0.58497 0.0
H745 H 0.55794 0.08339 0.46733 0.0
H746 H 0.54333 0.11091 0.49178 0.0
H747 H 0.52947 0.12682 0.547 0.0
H748 H 0.53572 0.10562 0.66436 0.0
H749 H 0.55215 0.08001 0.63972 0.0
C750 C 0.55821 0.07241 0.5647 0.0
C751 C 0.56083 0.07025 0.52445 0.0
C752 C 0.55022 0.08834 0.57896 0.0
C753 C 0.556 0.08476 0.49849 0.0
C754 C 0.54758 0.1004 0.51245 0.0
C755 C 0.5347 0.11677 0.56706 0.0
C756 C 0.53143 0.11814 0.60742 0.0
C757 C 0.54429 0.10208 0.55266 0.0
C758 C 0.53836 0.10513 0.63321 0.0
C759 C 0.54758 0.09032 0.61914 0.0
H760 H 0.45064 0.43197 0.1416 0.0
H761 H 0.41757 0.44749 0.04295 0.0
H762 H 0.38031 0.43625 0.0811 0.0
H763 H 0.3581 0.4245 0.14351 0.0
H764 H 0.39235 0.41171 0.24342 0.0
H765 H 0.42766 0.41867 0.20351 0.0
C766 C 0.43516 0.43261 0.12832 0.0
C767 C 0.43699 0.4407 0.08955 0.0
C768 C 0.4139 0.42654 0.15065 0.0
C769 C 0.41677 0.44151 0.07284 0.0
C770 C 0.39542 0.43507 0.09462 0.0
C771 C 0.37328 0.42324 0.15662 0.0
C772 C 0.37244 0.41762 0.19653 0.0
C773 C 0.39396 0.42802 0.13377 0.0
C774 C 0.39216 0.41561 0.21271 0.0
C775 C 0.41256 0.41986 0.18997 0.0
H776 H 0.02916 0.45687 0.6399 0.0
H777 H 0.96268 0.45145 0.59152 0.0
H778 H 0.93742 0.4113 0.62285 0.0
H779 H 0.93409 0.37741 0.66324 0.0
H780 H 1.00026 0.38164 0.7105 0.0
H781 H 0.02578 0.42215 0.67973 0.0
C782 C 0.00914 0.44694 0.63666 0.0
C783 C 0.99776 0.45711 0.61372 0.0
C784 C 0.9947 0.42347 0.654 0.0
C785 C 0.97184 0.44394 0.60908 0.0
C786 C 0.95738 0.42096 0.62688 0.0
C787 C 0.95411 0.38721 0.66673 0.0
C788 C 0.96526 0.37655 0.68898 0.0
C789 C 0.9686 0.41047 0.64917 0.0
C790 C 0.99125 0.38932 0.69299 0.0
C791 C 0.00583 0.41259 0.67575 0.0
H792 H 0.53868 0.95821 0.99809 0.0
H793 H 0.53077 0.98568 0.10963 0.0
H794 H 0.54381 0.9596 0.14289 0.0
H795 H 0.55908 0.93045 0.14062 0.0
H796 H 0.56943 0.90403 0.02999 0.0
H797 H 0.55393 0.92826 0.99597 0.0
C798 C 0.53968 0.95831 0.02966 0.0
C799 C 0.53383 0.97391 0.05134 0.0
C800 C 0.5477 0.94354 0.04874 0.0
C801 C 0.53538 0.97402 0.09223 0.0
C802 C 0.54277 0.95906 0.11133 0.0
C803 C 0.55756 0.92967 0.10907 0.0
C804 C 0.56507 0.91528 0.08783 0.0
C805 C 0.54917 0.94395 0.0899 0.0
C806 C 0.56367 0.91496 0.04692 0.0
C807 C 0.55482 0.92879 0.02753 0.0
H808 H 0.61144 0.55949 0.57008 0.0
H809 H 0.57004 0.57122 0.66049 0.0
H810 H 0.60268 0.5793 0.7075 0.0
H811 H 0.6416 0.58047 0.72378 0.0
H812 H 0.6834 0.56947 0.63321 0.0
H813 H 0.65172 0.56334 0.58552 0.0
C814 C 0.60959 0.56399 0.6 0.0
C815 C 0.5882 0.5646 0.61173 0.0
C816 C 0.62838 0.56851 0.62694 0.0
C817 C 0.58625 0.57059 0.65061 0.0
C818 C 0.60489 0.57515 0.67756 0.0
C819 C 0.6441 0.57723 0.69348 0.0
C820 C 0.66491 0.57538 0.68224 0.0
C821 C 0.62588 0.57384 0.66616 0.0
C822 C 0.66745 0.57065 0.64289 0.0
C823 C 0.64939 0.56725 0.61553 0.0
H824 H 0.05492 0.59284 0.09552 0.0
H825 H 0.11824 0.5844 0.07121 0.0
H826 H 0.14404 0.61949 0.11405 0.0
H827 H 0.14739 0.65001 0.16258 0.0
H828 H 0.08502 0.66136 0.18095 0.0
H829 H 0.06003 0.62747 0.13666 0.0
C830 C 0.07446 0.59894 0.09931 0.0
C831 C 0.08469 0.58604 0.08065 0.0
C832 C 0.08924 0.61937 0.12331 0.0
C833 C 0.11004 0.59418 0.08526 0.0
C834 C 0.12473 0.61412 0.10991 0.0
C835 C 0.12857 0.64564 0.15636 0.0
C836 C 0.11811 0.65806 0.17631 0.0
C837 C 0.11439 0.62658 0.12965 0.0
C838 C 0.09349 0.65167 0.16754 0.0
C839 C 0.07914 0.63238 0.14179 0.0
loop_
_geom_bond_atom_site_label_1
_geom_bond_atom_site_label_2
_geom_bond_distance
_geom_bond_site_symmetry_2
_ccdc_geom_bond_type
C0 O2 1.247 . S
C0 O4 1.258 . S
C1 O8 1.247 . S
C1 O9 1.258 . S
O2 C0 1.247 . S
O2 Zn3 2.028 1_455 S
Zn3 O2 2.028 1_655 S
Zn3 O7 2.035 . S
Zn3 O9 2.035 . S
Zn3 O10 2.028 1_655 S
O4 C0 1.258 . S
O4 Zn5 2.035 . S
Zn5 O4 2.035 . S
Zn5 O6 2.028 1_455 S
Zn5 O8 2.028 1_455 S
Zn5 O11 2.035 . S
O6 Zn5 2.028 1_655 S
O6 C12 1.247 . S
O7 Zn3 2.035 . S
O7 C12 1.258 . S
O8 C1 1.247 . S
O8 Zn5 2.028 1_655 S
O9 C1 1.258 . S
O9 Zn3 2.035 . S
O10 Zn3 2.028 1_455 S
O10 C13 1.247 . S
O11 Zn5 2.035 . S
O11 C13 1.258 . S
C12 O6 1.247 . S
C12 O7 1.258 . S
C13 O10 1.247 . S
C13 O11 1.258 . S
C14 O16 1.247 . S
C14 O18 1.258 . S
C15 O22 1.247 . S
C15 O23 1.258 . S
O16 C14 1.247 . S
O16 Zn17 2.028 1_545 S
Zn17 O16 2.028 1_565 S
Zn17 O21 2.035 . S
Zn17 O23 2.035 . S
Zn17 O24 2.028 1_565 S
O18 C14 1.258 . S
O18 Zn19 2.035 . S
Zn19 O18 2.035 . S
Zn19 O20 2.028 1_545 S
Zn19 O22 2.028 1_545 S
Zn19 O25 2.035 . S
O20 Zn19 2.028 1_565 S
O20 C26 1.247 . S
O21 Zn17 2.035 . S
O21 C26 1.258 . S
O22 C15 1.247 . S
O22 Zn19 2.028 1_565 S
O23 C15 1.258 . S
O23 Zn17 2.035 . S
O24 Zn17 2.028 1_545 S
O24 C27 1.247 . S
O25 Zn19 2.035 . S
O25 C27 1.258 . S
C26 O20 1.247 . S
C26 O21 1.258 . S
C27 O24 1.247 . S
C27 O25 1.258 . S
C28 O30 1.247 . S
C28 O32 1.258 1_556 S
C29 O36 1.247 . S
C29 O37 1.258 . S
O30 C28 1.247 . S
O30 Zn31 2.028 . S
Zn31 O30 2.028 . S
Zn31 O35 2.035 1_556 S
Zn31 O37 2.035 1_556 S
Zn31 O38 2.028 . S
O32 C28 1.258 1_554 S
O32 Zn33 2.035 . S
Zn33 O32 2.035 . S
Zn33 O34 2.028 . S
Zn33 O36 2.028 . S
Zn33 O39 2.035 . S
O34 Zn33 2.028 . S
O34 C40 1.247 . S
O35 Zn31 2.035 1_554 S
O35 C40 1.258 . S
O36 C29 1.247 . S
O36 Zn33 2.028 . S
O37 C29 1.258 . S
O37 Zn31 2.035 1_554 S
O38 Zn31 2.028 . S
O38 C41 1.247 . S
O39 Zn33 2.035 . S
O39 C41 1.258 1_554 S
C40 O34 1.247 . S
C40 O35 1.258 . S
C41 O38 1.247 . S
C41 O39 1.258 1_556 S
C42 O44 1.247 . S
C42 O46 1.258 . S
C43 O50 1.247 . S
C43 O51 1.258 . S
O44 C42 1.247 . S
O44 Zn45 2.028 . S
Zn45 O44 2.028 . S
Zn45 O49 2.035 . S
Zn45 O51 2.035 . S
Zn45 O52 2.028 . S
O46 C42 1.258 . S
O46 Zn47 2.035 . S
Zn47 O46 2.035 . S
Zn47 O48 2.028 . S
Zn47 O50 2.028 . S
Zn47 O53 2.035 . S
O48 Zn47 2.028 . S
O48 C54 1.247 . S
O49 Zn45 2.035 . S
O49 C54 1.258 . S
O50 C43 1.247 . S
O50 Zn47 2.028 . S
O51 C43 1.258 . S
O51 Zn45 2.035 . S
O52 Zn45 2.028 . S
O52 C55 1.247 . S
O53 Zn47 2.035 . S
O53 C55 1.258 . S
C54 O48 1.247 . S
C54 O49 1.258 . S
C55 O52 1.247 . S
C55 O53 1.258 . S
C56 O58 1.247 1_565 S
C56 O60 1.258 . S
C57 O64 1.247 . S
C57 O65 1.258 1_556 S
O58 C56 1.247 1_545 S
O58 Zn59 2.028 . S
Zn59 O58 2.028 . S
Zn59 O63 2.035 . S
Zn59 O65 2.035 . S
Zn59 O66 2.028 . S
O60 C56 1.258 . S
O60 Zn61 2.035 1_554 S
Zn61 O60 2.035 1_556 S
Zn61 O62 2.028 1_565 S
Zn61 O64 2.028 1_565 S
Zn61 O67 2.035 1_556 S
O62 Zn61 2.028 1_545 S
O62 C68 1.247 . S
O63 Zn59 2.035 . S
O63 C68 1.258 1_554 S
O64 C57 1.247 . S
O64 Zn61 2.028 1_545 S
O65 C57 1.258 1_554 S
O65 Zn59 2.035 . S
O66 Zn59 2.028 . S
O66 C69 1.247 1_545 S
O67 Zn61 2.035 1_554 S
O67 C69 1.258 . S
C68 O62 1.247 . S
C68 O63 1.258 1_556 S
C69 O66 1.247 1_565 S
C69 O67 1.258 . S
C70 O72 1.247 . S
C70 O74 1.258 . S
C71 O78 1.247 . S
C71 O79 1.258 . S
O72 C70 1.247 . S
O72 Zn73 2.028 . S
Zn73 O72 2.028 . S
Zn73 O77 2.035 . S
Zn73 O79 2.035 . S
Zn73 O80 2.028 . S
O74 C70 1.258 . S
O74 Zn75 2.035 . S
Zn75 O74 2.035 . S
Zn75 O76 2.028 . S
Zn75 O78 2.028 . S
Zn75 O81 2.035 . S
O76 Zn75 2.028 . S
O76 C82 1.247 . S
O77 Zn73 2.035 . S
O77 C82 1.258 . S
O78 C71 1.247 . S
O78 Zn75 2.028 . S
O79 C71 1.258 . S
O79 Zn73 2.035 . S
O80 Zn73 2.028 . S
O80 C83 1.247 . S
O81 Zn75 2.035 . S
O81 C83 1.258 . S
C82 O76 1.247 . S
C82 O77 1.258 . S
C83 O80 1.247 . S
C83 O81 1.258 . S
H84 C111 0.929 . S
N85 C110 1.433 . S
N85 C116 1.435 . S
N85 C122 1.423 . S
H86 C112 0.930 . S
H87 C115 0.931 . S
H88 C114 0.929 . S
H89 C117 0.930 . S
H90 C118 0.932 . S
H91 C121 0.929 . S
H92 C120 0.931 . S
H93 C123 0.929 . S
H94 C127 0.932 . S
H95 C124 0.931 . S
H96 C126 0.929 . S
H97 C129 0.929 . S
H98 C130 0.930 . S
H99 C132 0.929 . S
H100 C133 0.931 . S
H101 C135 0.930 . S
H102 C136 0.932 . S
H103 C138 0.931 . S
H104 C139 0.929 . S
H105 C141 0.929 . S
H106 C142 0.931 . S
H107 C144 0.929 . S
N108 C128 1.433 . S
N108 C134 1.435 . S
N108 C140 1.423 . S
H109 C145 0.932 . S
C110 N85 1.433 . S
C110 C111 1.363 . S
C110 C115 1.370 . S
C111 H84 0.929 . S
C111 C110 1.363 . S
C111 C112 1.385 . S
C112 H86 0.930 . S
C112 C111 1.385 . S
C112 C113 1.357 . S
C113 C112 1.357 . S
C113 C114 1.406 . S
C114 H88 0.929 . S
C114 C113 1.406 . S
C114 C115 1.391 . S
C115 H87 0.931 . S
C115 C110 1.370 . S
C115 C114 1.391 . S
C116 N85 1.435 . S
C116 C117 1.358 . S
C116 C121 1.371 . S
C117 H89 0.930 . S
C117 C116 1.358 . S
C117 C118 1.405 . S
C118 H90 0.932 . S
C118 C117 1.405 . S
C118 C119 1.383 . S
C119 C118 1.383 . S
C119 C120 1.393 . S
C120 H92 0.931 . S
C120 C119 1.393 . S
C120 C121 1.382 . S
C121 H91 0.929 . S
C121 C116 1.371 . S
C121 C120 1.382 . S
C122 N85 1.423 . S
C122 C123 1.362 . S
C122 C127 1.388 . S
C123 H93 0.929 . S
C123 C122 1.362 . S
C123 C124 1.376 . S
C124 H95 0.931 . S
C124 C123 1.376 . S
C124 C125 1.396 . S
C125 C124 1.396 . S
C125 C126 1.348 . S
C125 C143 1.472 . S
C126 H96 0.929 . S
C126 C125 1.348 . S
C126 C127 1.443 . S
C127 H94 0.932 . S
C127 C122 1.388 . S
C127 C126 1.443 . S
C128 N108 1.433 . S
C128 C129 1.363 . S
C128 C133 1.370 . S
C129 H97 0.929 . S
C129 C128 1.363 . S
C129 C130 1.385 . S
C130 H98 0.930 . S
C130 C129 1.385 . S
C130 C131 1.357 . S
C131 C130 1.357 . S
C131 C132 1.406 . S
C132 H99 0.929 . S
C132 C131 1.406 . S
C132 C133 1.391 . S
C133 H100 0.931 . S
C133 C128 1.370 . S
C133 C132 1.391 . S
C134 N108 1.435 . S
C134 C135 1.358 . S
C134 C139 1.371 . S
C135 H101 0.930 . S
C135 C134 1.358 . S
C135 C136 1.405 . S
C136 H102 0.932 . S
C136 C135 1.405 . S
C136 C137 1.383 . S
C137 C136 1.383 . S
C137 C138 1.393 . S
C138 H103 0.931 . S
C138 C137 1.393 . S
C138 C139 1.382 . S
C139 H104 0.929 . S
C139 C134 1.371 . S
C139 C138 1.382 . S
C140 N108 1.423 . S
C140 C141 1.362 . S
C140 C145 1.388 . S
C141 H105 0.929 . S
C141 C140 1.362 . S
C141 C142 1.376 . S
C142 H106 0.931 . S
C142 C141 1.376 . S
C142 C143 1.396 . S
C143 C125 1.472 . S
C143 C142 1.396 . S
C143 C144 1.348 . S
C144 H107 0.929 . S
C144 C143 1.348 . S
C144 C145 1.443 . S
C145 H109 0.932 . S
C145 C140 1.388 . S
C145 C144 1.443 . S
H146 C173 0.929 . S
N147 C172 1.433 . S
N147 C178 1.435 . S
N147 C184 1.423 . S
H148 C174 0.930 . S
H149 C177 0.931 . S
H150 C176 0.929 . S
H151 C179 0.930 . S
H152 C180 0.932 . S
H153 C183 0.929 . S
H154 C182 0.931 . S
H155 C185 0.929 . S
H156 C189 0.932 . S
H157 C186 0.931 . S
H158 C188 0.929 . S
H159 C191 0.929 . S
H160 C192 0.930 . S
H161 C194 0.929 . S
H162 C195 0.931 . S
H163 C197 0.930 . S
H164 C198 0.932 . S
H165 C200 0.931 . S
H166 C201 0.929 . S
H167 C203 0.929 . S
H168 C204 0.931 . S
H169 C206 0.929 . S
N170 C190 1.433 . S
N170 C196 1.435 . S
N170 C202 1.423 . S
H171 C207 0.932 . S
C172 N147 1.433 . S
C172 C173 1.363 . S
C172 C177 1.370 . S
C173 H146 0.929 . S
C173 C172 1.363 . S
C173 C174 1.385 . S
C174 H148 0.930 . S
C174 C173 1.385 . S
C174 C175 1.357 . S
C175 C174 1.357 . S
C175 C176 1.406 . S
C176 H150 0.929 . S
C176 C175 1.406 . S
C176 C177 1.391 . S
C177 H149 0.931 . S
C177 C172 1.370 . S
C177 C176 1.391 . S
C178 N147 1.435 . S
C178 C179 1.358 . S
C178 C183 1.371 . S
C179 H151 0.930 . S
C179 C178 1.358 . S
C179 C180 1.405 . S
C180 H152 0.932 . S
C180 C179 1.405 . S
C180 C181 1.383 . S
C181 C180 1.383 . S
C181 C182 1.393 . S
C182 H154 0.931 . S
C182 C181 1.393 . S
C182 C183 1.382 . S
C183 H153 0.929 . S
C183 C178 1.371 . S
C183 C182 1.382 . S
C184 N147 1.423 . S
C184 C185 1.362 . S
C184 C189 1.388 . S
C185 H155 0.929 . S
C185 C184 1.362 . S
C185 C186 1.376 . S
C186 H157 0.931 . S
C186 C185 1.376 . S
C186 C187 1.396 . S
C187 C186 1.396 . S
C187 C188 1.348 . S
C187 C205 1.472 . S
C188 H158 0.929 . S
C188 C187 1.348 . S
C188 C189 1.443 . S
C189 H156 0.932 . S
C189 C184 1.388 . S
C189 C188 1.443 . S
C190 N170 1.433 . S
C190 C191 1.363 . S
C190 C195 1.370 . S
C191 H159 0.929 . S
C191 C190 1.363 . S
C191 C192 1.385 . S
C192 H160 0.930 . S
C192 C191 1.385 . S
C192 C193 1.357 . S
C193 C192 1.357 . S
C193 C194 1.406 . S
C194 H161 0.929 . S
C194 C193 1.406 . S
C194 C195 1.391 . S
C195 H162 0.931 . S
C195 C190 1.370 . S
C195 C194 1.391 . S
C196 N170 1.435 . S
C196 C197 1.358 . S
C196 C201 1.371 . S
C197 H163 0.930 . S
C197 C196 1.358 . S
C197 C198 1.405 . S
C198 H164 0.932 . S
C198 C197 1.405 . S
C198 C199 1.383 . S
C199 C198 1.383 . S
C199 C200 1.393 . S
C200 H165 0.931 . S
C200 C199 1.393 . S
C200 C201 1.382 . S
C201 H166 0.929 . S
C201 C196 1.371 . S
C201 C200 1.382 . S
C202 N170 1.423 . S
C202 C203 1.362 . S
C202 C207 1.388 . S
C203 H167 0.929 . S
C203 C202 1.362 . S
C203 C204 1.376 . S
C204 H168 0.931 . S
C204 C203 1.376 . S
C204 C205 1.396 . S
C205 C187 1.472 . S
C205 C204 1.396 . S
C205 C206 1.348 . S
C206 H169 0.929 . S
C206 C205 1.348 . S
C206 C207 1.443 . S
C207 H171 0.932 . S
C207 C202 1.388 . S
C207 C206 1.443 . S
H208 C235 0.929 . S
N209 C234 1.433 . S
N209 C240 1.435 . S
N209 C246 1.423 . S
H210 C236 0.930 . S
H211 C239 0.931 . S
H212 C238 0.929 . S
H213 C241 0.930 . S
H214 C242 0.932 . S
H215 C245 0.929 . S
H216 C244 0.931 . S
H217 C247 0.929 . S
H218 C251 0.932 . S
H219 C248 0.931 . S
H220 C250 0.929 . S
H221 C253 0.929 . S
H222 C254 0.930 . S
H223 C256 0.929 . S
H224 C257 0.931 . S
H225 C259 0.930 . S
H226 C260 0.932 . S
H227 C262 0.931 . S
H228 C263 0.929 . S
H229 C265 0.929 . S
H230 C266 0.931 . S
H231 C268 0.929 . S
N232 C252 1.433 . S
N232 C258 1.435 . S
N232 C264 1.423 . S
H233 C269 0.932 . S
C234 N209 1.433 . S
C234 C235 1.363 . S
C234 C239 1.370 . S
C235 H208 0.929 . S
C235 C234 1.363 . S
C235 C236 1.385 . S
C236 H210 0.930 . S
C236 C235 1.385 . S
C236 C237 1.357 . S
C237 C236 1.357 . S
C237 C238 1.406 . S
C238 H212 0.929 . S
C238 C237 1.406 . S
C238 C239 1.391 . S
C239 H211 0.931 . S
C239 C234 1.370 . S
C239 C238 1.391 . S
C240 N209 1.435 . S
C240 C241 1.358 . S
C240 C245 1.371 . S
C241 H213 0.930 . S
C241 C240 1.358 . S
C241 C242 1.405 . S
C242 H214 0.932 . S
C242 C241 1.405 . S
C242 C243 1.383 . S
C243 C242 1.383 . S
C243 C244 1.393 . S
C244 H216 0.931 . S
C244 C243 1.393 . S
C244 C245 1.382 . S
C245 H215 0.929 . S
C245 C240 1.371 . S
C245 C244 1.382 . S
C246 N209 1.423 . S
C246 C247 1.362 . S
C246 C251 1.388 . S
C247 H217 0.929 . S
C247 C246 1.362 . S
C247 C248 1.376 . S
C248 H219 0.931 . S
C248 C247 1.376 . S
C248 C249 1.396 . S
C249 C248 1.396 . S
C249 C250 1.348 . S
C249 C267 1.472 . S
C250 H220 0.929 . S
C250 C249 1.348 . S
C250 C251 1.443 . S
C251 H218 0.932 . S
C251 C246 1.388 . S
C251 C250 1.443 . S
C252 N232 1.433 . S
C252 C253 1.363 . S
C252 C257 1.370 . S
C253 H221 0.929 . S
C253 C252 1.363 . S
C253 C254 1.385 . S
C254 H222 0.930 . S
C254 C253 1.385 . S
C254 C255 1.357 . S
C255 C254 1.357 . S
C255 C256 1.406 . S
C256 H223 0.929 . S
C256 C255 1.406 . S
C256 C257 1.391 . S
C257 H224 0.931 . S
C257 C252 1.370 . S
C257 C256 1.391 . S
C258 N232 1.435 . S
C258 C259 1.358 . S
C258 C263 1.371 . S
C259 H225 0.930 . S
C259 C258 1.358 . S
C259 C260 1.405 . S
C260 H226 0.932 . S
C260 C259 1.405 . S
C260 C261 1.383 . S
C261 C260 1.383 . S
C261 C262 1.393 . S
C262 H227 0.931 . S
C262 C261 1.393 . S
C262 C263 1.382 . S
C263 H228 0.929 . S
C263 C258 1.371 . S
C263 C262 1.382 . S
C264 N232 1.423 . S
C264 C265 1.362 . S
C264 C269 1.388 . S
C265 H229 0.929 . S
C265 C264 1.362 . S
C265 C266 1.376 . S
C266 H230 0.931 . S
C266 C265 1.376 . S
C266 C267 1.396 . S
C267 C249 1.472 . S
C267 C266 1.396 . S
C267 C268 1.348 . S
C268 H231 0.929 . S
C268 C267 1.348 . S
C268 C269 1.443 . S
C269 H233 0.932 . S
C269 C264 1.388 . S
C269 C268 1.443 . S
H270 C297 0.929 . S
N271 C296 1.433 . S
N271 C302 1.435 . S
N271 C308 1.423 . S
H272 C298 0.930 . S
H273 C301 0.931 . S
H274 C300 0.929 . S
H275 C303 0.930 . S
H276 C304 0.932 . S
H277 C307 0.929 . S
H278 C306 0.931 . S
H279 C309 0.929 . S
H280 C313 0.932 . S
H281 C310 0.931 . S
H282 C312 0.929 . S
H283 C315 0.929 . S
H284 C316 0.930 . S
H285 C318 0.929 . S
H286 C319 0.931 . S
H287 C321 0.930 . S
H288 C322 0.932 . S
H289 C324 0.931 . S
H290 C325 0.929 . S
H291 C327 0.929 . S
H292 C328 0.931 . S
H293 C330 0.929 . S
N294 C314 1.433 . S
N294 C320 1.435 . S
N294 C326 1.423 . S
H295 C331 0.932 . S
C296 N271 1.433 . S
C296 C297 1.363 . S
C296 C301 1.370 . S
C297 H270 0.929 . S
C297 C296 1.363 . S
C297 C298 1.385 . S
C298 H272 0.930 . S
C298 C297 1.385 . S
C298 C299 1.357 . S
C299 C298 1.357 . S
C299 C300 1.406 . S
C300 H274 0.929 . S
C300 C299 1.406 . S
C300 C301 1.391 . S
C301 H273 0.931 . S
C301 C296 1.370 . S
C301 C300 1.391 . S
C302 N271 1.435 . S
C302 C303 1.358 . S
C302 C307 1.371 . S
C303 H275 0.930 . S
C303 C302 1.358 . S
C303 C304 1.405 . S
C304 H276 0.932 . S
C304 C303 1.405 . S
C304 C305 1.383 . S
C305 C304 1.383 . S
C305 C306 1.393 . S
C306 H278 0.931 . S
C306 C305 1.393 . S
C306 C307 1.382 . S
C307 H277 0.929 . S
C307 C302 1.371 . S
C307 C306 1.382 . S
C308 N271 1.423 . S
C308 C309 1.362 . S
C308 C313 1.388 . S
C309 H279 0.929 . S
C309 C308 1.362 . S
C309 C310 1.376 . S
C310 H281 0.931 . S
C310 C309 1.376 . S
C310 C311 1.396 . S
C311 C310 1.396 . S
C311 C312 1.348 . S
C311 C329 1.472 . S
C312 H282 0.929 . S
C312 C311 1.348 . S
C312 C313 1.443 . S
C313 H280 0.932 . S
C313 C308 1.388 . S
C313 C312 1.443 . S
C314 N294 1.433 . S
C314 C315 1.363 . S
C314 C319 1.370 . S
C315 H283 0.929 . S
C315 C314 1.363 . S
C315 C316 1.385 . S
C316 H284 0.930 . S
C316 C315 1.385 . S
C316 C317 1.357 . S
C317 C316 1.357 . S
C317 C318 1.406 . S
C318 H285 0.929 . S
C318 C317 1.406 . S
C318 C319 1.391 . S
C319 H286 0.931 . S
C319 C314 1.370 . S
C319 C318 1.391 . S
C320 N294 1.435 . S
C320 C321 1.358 . S
C320 C325 1.371 . S
C321 H287 0.930 . S
C321 C320 1.358 . S
C321 C322 1.405 . S
C322 H288 0.932 . S
C322 C321 1.405 . S
C322 C323 1.383 . S
C323 C322 1.383 . S
C323 C324 1.393 . S
C324 H289 0.931 . S
C324 C323 1.393 . S
C324 C325 1.382 . S
C325 H290 0.929 . S
C325 C320 1.371 . S
C325 C324 1.382 . S
C326 N294 1.423 . S
C326 C327 1.362 . S
C326 C331 1.388 . S
C327 H291 0.929 . S
C327 C326 1.362 . S
C327 C328 1.376 . S
C328 H292 0.931 . S
C328 C327 1.376 . S
C328 C329 1.396 . S
C329 C311 1.472 . S
C329 C328 1.396 . S
C329 C330 1.348 . S
C330 H293 0.929 . S
C330 C329 1.348 . S
C330 C331 1.443 . S
C331 H295 0.932 . S
C331 C326 1.388 . S
C331 C330 1.443 . S
H332 C359 0.929 . S
N333 C358 1.433 . S
N333 C364 1.435 . S
N333 C370 1.423 . S
H334 C360 0.930 . S
H335 C363 0.931 . S
H336 C362 0.929 . S
H337 C365 0.930 . S
H338 C366 0.932 . S
H339 C369 0.929 . S
H340 C368 0.931 . S
H341 C371 0.929 . S
H342 C375 0.932 . S
H343 C372 0.931 . S
H344 C374 0.929 . S
H345 C377 0.929 . S
H346 C378 0.930 . S
H347 C380 0.929 . S
H348 C381 0.931 . S
H349 C383 0.930 . S
H350 C384 0.932 . S
H351 C386 0.931 . S
H352 C387 0.929 . S
H353 C389 0.929 . S
H354 C390 0.931 . S
H355 C392 0.929 . S
N356 C376 1.433 . S
N356 C382 1.435 . S
N356 C388 1.423 . S
H357 C393 0.932 . S
C358 N333 1.433 . S
C358 C359 1.363 . S
C358 C363 1.370 . S
C359 H332 0.929 . S
C359 C358 1.363 . S
C359 C360 1.385 . S
C360 H334 0.930 . S
C360 C359 1.385 . S
C360 C361 1.357 . S
C361 C360 1.357 . S
C361 C362 1.406 . S
C362 H336 0.929 . S
C362 C361 1.406 . S
C362 C363 1.391 . S
C363 H335 0.931 . S
C363 C358 1.370 . S
C363 C362 1.391 . S
C364 N333 1.435 . S
C364 C365 1.358 . S
C364 C369 1.371 . S
C365 H337 0.930 . S
C365 C364 1.358 . S
C365 C366 1.405 . S
C366 H338 0.932 . S
C366 C365 1.405 . S
C366 C367 1.383 . S
C367 C366 1.383 . S
C367 C368 1.393 . S
C368 H340 0.931 . S
C368 C367 1.393 . S
C368 C369 1.382 . S
C369 H339 0.929 . S
C369 C364 1.371 . S
C369 C368 1.382 . S
C370 N333 1.423 . S
C370 C371 1.362 . S
C370 C375 1.388 . S
C371 H341 0.929 . S
C371 C370 1.362 . S
C371 C372 1.376 . S
C372 H343 0.931 . S
C372 C371 1.376 . S
C372 C373 1.396 . S
C373 C372 1.396 . S
C373 C374 1.348 . S
C373 C391 1.472 . S
C374 H344 0.929 . S
C374 C373 1.348 . S
C374 C375 1.443 . S
C375 H342 0.932 . S
C375 C370 1.388 . S
C375 C374 1.443 . S
C376 N356 1.433 . S
C376 C377 1.363 . S
C376 C381 1.370 . S
C377 H345 0.929 . S
C377 C376 1.363 . S
C377 C378 1.385 . S
C378 H346 0.930 . S
C378 C377 1.385 . S
C378 C379 1.357 . S
C379 C378 1.357 . S
C379 C380 1.406 . S
C380 H347 0.929 . S
C380 C379 1.406 . S
C380 C381 1.391 . S
C381 H348 0.931 . S
C381 C376 1.370 . S
C381 C380 1.391 . S
C382 N356 1.435 . S
C382 C383 1.358 . S
C382 C387 1.371 . S
C383 H349 0.930 . S
C383 C382 1.358 . S
C383 C384 1.405 . S
C384 H350 0.932 . S
C384 C383 1.405 . S
C384 C385 1.383 . S
C385 C384 1.383 . S
C385 C386 1.393 . S
C386 H351 0.931 . S
C386 C385 1.393 . S
C386 C387 1.382 . S
C387 H352 0.929 . S
C387 C382 1.371 . S
C387 C386 1.382 . S
C388 N356 1.423 . S
C388 C389 1.362 . S
C388 C393 1.388 . S
C389 H353 0.929 . S
C389 C388 1.362 . S
C389 C390 1.376 . S
C390 H354 0.931 . S
C390 C389 1.376 . S
C390 C391 1.396 . S
C391 C373 1.472 . S
C391 C390 1.396 . S
C391 C392 1.348 . S
C392 H355 0.929 . S
C392 C391 1.348 . S
C392 C393 1.443 . S
C393 H357 0.932 . S
C393 C388 1.388 . S
C393 C392 1.443 . S
H394 C421 0.929 . S
N395 C420 1.433 . S
N395 C426 1.435 . S
N395 C432 1.423 . S
H396 C422 0.930 . S
H397 C425 0.931 . S
H398 C424 0.929 . S
H399 C427 0.930 . S
H400 C428 0.932 . S
H401 C431 0.929 . S
H402 C430 0.931 . S
H403 C433 0.929 . S
H404 C437 0.932 . S
H405 C434 0.931 . S
H406 C436 0.929 . S
H407 C439 0.929 . S
H408 C440 0.930 . S
H409 C442 0.929 . S
H410 C443 0.931 . S
H411 C445 0.930 . S
H412 C446 0.932 . S
H413 C448 0.931 . S
H414 C449 0.929 . S
H415 C451 0.929 . S
H416 C452 0.931 . S
H417 C454 0.929 . S
N418 C438 1.433 . S
N418 C444 1.435 . S
N418 C450 1.423 . S
H419 C455 0.932 . S
C420 N395 1.433 . S
C420 C421 1.363 . S
C420 C425 1.370 . S
C421 H394 0.929 . S
C421 C420 1.363 . S
C421 C422 1.385 . S
C422 H396 0.930 . S
C422 C421 1.385 . S
C422 C423 1.357 . S
C423 C422 1.357 . S
C423 C424 1.406 . S
C424 H398 0.929 . S
C424 C423 1.406 . S
C424 C425 1.391 . S
C425 H397 0.931 . S
C425 C420 1.370 . S
C425 C424 1.391 . S
C426 N395 1.435 . S
C426 C427 1.358 . S
C426 C431 1.371 . S
C427 H399 0.930 . S
C427 C426 1.358 . S
C427 C428 1.405 . S
C428 H400 0.932 . S
C428 C427 1.405 . S
C428 C429 1.383 . S
C429 C428 1.383 . S
C429 C430 1.393 . S
C430 H402 0.931 . S
C430 C429 1.393 . S
C430 C431 1.382 . S
C431 H401 0.929 . S
C431 C426 1.371 . S
C431 C430 1.382 . S
C432 N395 1.423 . S
C432 C433 1.362 . S
C432 C437 1.388 . S
C433 H403 0.929 . S
C433 C432 1.362 . S
C433 C434 1.376 . S
C434 H405 0.931 . S
C434 C433 1.376 . S
C434 C435 1.396 . S
C435 C434 1.396 . S
C435 C436 1.348 . S
C435 C453 1.472 . S
C436 H406 0.929 . S
C436 C435 1.348 . S
C436 C437 1.443 . S
C437 H404 0.932 . S
C437 C432 1.388 . S
C437 C436 1.443 . S
C438 N418 1.433 . S
C438 C439 1.363 . S
C438 C443 1.370 . S
C439 H407 0.929 . S
C439 C438 1.363 . S
C439 C440 1.385 . S
C440 H408 0.930 . S
C440 C439 1.385 . S
C440 C441 1.357 . S
C441 C440 1.357 . S
C441 C442 1.406 . S
C442 H409 0.929 . S
C442 C441 1.406 . S
C442 C443 1.391 . S
C443 H410 0.931 . S
C443 C438 1.370 . S
C443 C442 1.391 . S
C444 N418 1.435 . S
C444 C445 1.358 . S
C444 C449 1.371 . S
C445 H411 0.930 . S
C445 C444 1.358 . S
C445 C446 1.405 . S
C446 H412 0.932 . S
C446 C445 1.405 . S
C446 C447 1.383 . S
C447 C446 1.383 . S
C447 C448 1.393 . S
C448 H413 0.931 . S
C448 C447 1.393 . S
C448 C449 1.382 . S
C449 H414 0.929 . S
C449 C444 1.371 . S
C449 C448 1.382 . S
C450 N418 1.423 . S
C450 C451 1.362 . S
C450 C455 1.388 . S
C451 H415 0.929 . S
C451 C450 1.362 . S
C451 C452 1.376 . S
C452 H416 0.931 . S
C452 C451 1.376 . S
C452 C453 1.396 . S
C453 C435 1.472 . S
C453 C452 1.396 . S
C453 C454 1.348 . S
C454 H417 0.929 . S
C454 C453 1.348 . S
C454 C455 1.443 . S
C455 H419 0.932 . S
C455 C450 1.388 . S
C455 C454 1.443 . S
H456 C462 0.930 . S
H457 C465 0.930 . S
H458 C466 0.930 . S
H459 C467 0.930 . S
H460 C470 0.930 . S
H461 C471 0.930 . S
C462 H456 0.930 . S
C462 C463 1.355 . S
C462 C464 1.415 . S
C463 C462 1.355 . S
C463 C465 1.419 . S
C464 C462 1.415 . S
C464 C469 1.425 . S
C464 C471 1.409 . S
C465 H457 0.930 . S
C465 C463 1.419 . S
C465 C466 1.362 . S
C466 H458 0.930 . S
C466 C465 1.362 . S
C466 C469 1.409 . S
C467 H459 0.930 . S
C467 C468 1.355 . S
C467 C469 1.415 . S
C468 C467 1.355 . S
C468 C470 1.419 . S
C469 C464 1.425 . S
C469 C466 1.409 . S
C469 C467 1.415 . S
C470 H460 0.930 . S
C470 C468 1.419 . S
C470 C471 1.362 . S
C471 H461 0.930 . S
C471 C464 1.409 . S
C471 C470 1.362 . S
H472 C478 0.930 . S
H473 C481 0.930 . S
H474 C482 0.930 . S
H475 C483 0.930 . S
H476 C486 0.930 . S
H477 C487 0.930 . S
C478 H472 0.930 . S
C478 C479 1.355 . S
C478 C480 1.415 . S
C479 C478 1.355 . S
C479 C481 1.419 . S
C480 C478 1.415 . S
C480 C485 1.425 . S
C480 C487 1.409 . S
C481 H473 0.930 . S
C481 C479 1.419 . S
C481 C482 1.362 . S
C482 H474 0.930 . S
C482 C481 1.362 . S
C482 C485 1.409 . S
C483 H475 0.930 . S
C483 C484 1.355 . S
C483 C485 1.415 . S
C484 C483 1.355 . S
C484 C486 1.419 . S
C485 C480 1.425 . S
C485 C482 1.409 . S
C485 C483 1.415 . S
C486 H476 0.930 . S
C486 C484 1.419 . S
C486 C487 1.362 . S
C487 H477 0.930 . S
C487 C480 1.409 . S
C487 C486 1.362 . S
H488 C494 0.930 . S
H489 C497 0.930 . S
H490 C498 0.930 . S
H491 C499 0.930 . S
H492 C502 0.930 . S
H493 C503 0.930 . S
C494 H488 0.930 . S
C494 C495 1.355 . S
C494 C496 1.415 . S
C495 C494 1.355 . S
C495 C497 1.419 . S
C496 C494 1.415 . S
C496 C501 1.425 . S
C496 C503 1.409 . S
C497 H489 0.930 . S
C497 C495 1.419 . S
C497 C498 1.362 . S
C498 H490 0.930 . S
C498 C497 1.362 . S
C498 C501 1.409 . S
C499 H491 0.930 . S
C499 C500 1.355 . S
C499 C501 1.415 . S
C500 C499 1.355 . S
C500 C502 1.419 . S
C501 C496 1.425 . S
C501 C498 1.409 . S
C501 C499 1.415 . S
C502 H492 0.930 . S
C502 C500 1.419 . S
C502 C503 1.362 . S
C503 H493 0.930 . S
C503 C496 1.409 . S
C503 C502 1.362 . S
H504 C510 0.930 . S
H505 C513 0.946 . S
H506 C514 0.930 . S
H507 C515 0.930 . S
H508 C518 0.930 . S
H509 C519 0.935 . S
C510 H504 0.930 . S
C510 C511 1.355 . S
C510 C512 1.415 1_455 S
C511 C510 1.355 . S
C511 C513 1.449 . S
C512 C510 1.415 1_655 S
C512 C517 1.425 . S
C512 C519 1.409 . S
C513 H505 0.946 . S
C513 C511 1.449 . S
C513 C514 1.318 1_455 S
C514 H506 0.930 . S
C514 C513 1.318 1_655 S
C514 C517 1.409 . S
C515 H507 0.930 . S
C515 C516 1.355 . S
C515 C517 1.415 . S
C516 C515 1.355 . S
C516 C518 1.419 . S
C517 C512 1.425 . S
C517 C514 1.409 . S
C517 C515 1.415 . S
C518 H508 0.930 . S
C518 C516 1.419 . S
C518 C519 1.362 . S
C519 H509 0.935 . S
C519 C512 1.409 . S
C519 C518 1.362 . S
H520 C526 0.930 . S
H521 C529 0.930 . S
H522 C530 0.930 . S
H523 C531 0.930 . S
H524 C534 0.930 . S
H525 C535 0.930 . S
C526 H520 0.930 . S
C526 C527 1.355 . S
C526 C528 1.415 . S
C527 C526 1.355 . S
C527 C529 1.419 . S
C528 C526 1.415 . S
C528 C533 1.425 . S
C528 C535 1.409 . S
C529 H521 0.930 . S
C529 C527 1.419 . S
C529 C530 1.362 . S
C530 H522 0.930 . S
C530 C529 1.362 . S
C530 C533 1.409 . S
C531 H523 0.930 . S
C531 C532 1.355 . S
C531 C533 1.415 . S
C532 C531 1.355 . S
C532 C534 1.419 . S
C533 C528 1.425 . S
C533 C530 1.409 . S
C533 C531 1.415 . S
C534 H524 0.930 . S
C534 C532 1.419 . S
C534 C535 1.362 . S
C535 H525 0.930 . S
C535 C528 1.409 . S
C535 C534 1.362 . S
H536 C542 0.930 . S
H537 C545 0.930 . S
H538 C546 0.930 . S
H539 C547 0.930 . S
H540 C550 0.930 . S
H541 C551 0.930 . S
C542 H536 0.930 . S
C542 C543 1.355 . S
C542 C544 1.415 . S
C543 C542 1.355 . S
C543 C545 1.419 . S
C544 C542 1.415 . S
C544 C549 1.425 . S
C544 C551 1.409 . S
C545 H537 0.930 . S
C545 C543 1.419 . S
C545 C546 1.362 . S
C546 H538 0.930 . S
C546 C545 1.362 . S
C546 C549 1.409 . S
C547 H539 0.930 . S
C547 C548 1.355 . S
C547 C549 1.415 . S
C548 C547 1.355 . S
C548 C550 1.419 . S
C549 C544 1.425 . S
C549 C546 1.409 . S
C549 C547 1.415 . S
C550 H540 0.930 . S
C550 C548 1.419 . S
C550 C551 1.362 . S
C551 H541 0.930 . S
C551 C544 1.409 . S
C551 C550 1.362 . S
H552 C558 0.930 . S
H553 C561 0.930 . S
H554 C562 0.930 . S
H555 C563 0.930 . S
H556 C566 0.930 . S
H557 C567 0.930 . S
C558 H552 0.930 . S
C558 C559 1.355 . S
C558 C560 1.415 . S
C559 C558 1.355 . S
C559 C561 1.419 . S
C560 C558 1.415 . S
C560 C565 1.425 . S
C560 C567 1.409 . S
C561 H553 0.930 . S
C561 C559 1.419 . S
C561 C562 1.362 . S
C562 H554 0.930 . S
C562 C561 1.362 . S
C562 C565 1.409 . S
C563 H555 0.930 . S
C563 C564 1.355 . S
C563 C565 1.415 . S
C564 C563 1.355 . S
C564 C566 1.419 . S
C565 C560 1.425 . S
C565 C562 1.409 . S
C565 C563 1.415 . S
C566 H556 0.930 . S
C566 C564 1.419 . S
C566 C567 1.362 . S
C567 H557 0.930 . S
C567 C560 1.409 . S
C567 C566 1.362 . S
H568 C574 0.930 . S
H569 C577 0.930 . S
H570 C578 0.930 . S
H571 C579 0.930 . S
H572 C582 0.930 . S
H573 C583 0.930 . S
C574 H568 0.930 . S
C574 C575 1.355 . S
C574 C576 1.415 . S
C575 C574 1.355 . S
C575 C577 1.419 . S
C576 C574 1.415 . S
C576 C581 1.425 . S
C576 C583 1.409 . S
C577 H569 0.930 . S
C577 C575 1.419 . S
C577 C578 1.362 . S
C578 H570 0.930 . S
C578 C577 1.362 . S
C578 C581 1.409 . S
C579 H571 0.930 . S
C579 C580 1.355 . S
C579 C581 1.415 . S
C580 C579 1.355 . S
C580 C582 1.419 . S
C581 C576 1.425 . S
C581 C578 1.409 . S
C581 C579 1.415 . S
C582 H572 0.930 . S
C582 C580 1.419 . S
C582 C583 1.362 . S
C583 H573 0.930 . S
C583 C576 1.409 . S
C583 C582 1.362 . S
H584 C590 0.930 . S
H585 C593 0.930 . S
H586 C594 0.930 . S
H587 C595 0.930 . S
H588 C598 0.930 . S
H589 C599 0.930 . S
C590 H584 0.930 . S
C590 C591 1.355 . S
C590 C592 1.415 . S
C591 C590 1.355 . S
C591 C593 1.419 . S
C592 C590 1.415 . S
C592 C597 1.425 . S
C592 C599 1.409 . S
C593 H585 0.930 . S
C593 C591 1.419 . S
C593 C594 1.362 . S
C594 H586 0.930 . S
C594 C593 1.362 . S
C594 C597 1.409 . S
C595 H587 0.930 . S
C595 C596 1.355 . S
C595 C597 1.415 . S
C596 C595 1.355 . S
C596 C598 1.419 . S
C597 C592 1.425 . S
C597 C594 1.409 . S
C597 C595 1.415 . S
C598 H588 0.930 . S
C598 C596 1.419 . S
C598 C599 1.362 . S
C599 H589 0.930 . S
C599 C592 1.409 . S
C599 C598 1.362 . S
H600 C606 0.930 . S
H601 C609 0.930 . S
H602 C610 0.930 . S
H603 C611 0.930 . S
H604 C614 0.930 . S
H605 C615 0.930 . S
C606 H600 0.930 . S
C606 C607 1.355 . S
C606 C608 1.415 . S
C607 C606 1.355 . S
C607 C609 1.419 . S
C608 C606 1.415 . S
C608 C613 1.425 . S
C608 C615 1.409 . S
C609 H601 0.930 . S
C609 C607 1.419 . S
C609 C610 1.362 . S
C610 H602 0.930 . S
C610 C609 1.362 . S
C610 C613 1.409 . S
C611 H603 0.930 . S
C611 C612 1.355 . S
C611 C613 1.415 . S
C612 C611 1.355 . S
C612 C614 1.419 . S
C613 C608 1.425 . S
C613 C610 1.409 . S
C613 C611 1.415 . S
C614 H604 0.930 . S
C614 C612 1.419 . S
C614 C615 1.362 . S
C615 H605 0.930 . S
C615 C608 1.409 . S
C615 C614 1.362 . S
H616 C622 0.930 . S
H617 C625 0.930 . S
H618 C626 0.930 . S
H619 C627 0.930 . S
H620 C630 0.930 . S
H621 C631 0.930 . S
C622 H616 0.930 . S
C622 C623 1.355 . S
C622 C624 1.415 . S
C623 C622 1.355 . S
C623 C625 1.419 . S
C624 C622 1.415 . S
C624 C629 1.425 . S
C624 C631 1.409 . S
C625 H617 0.930 . S
C625 C623 1.419 . S
C625 C626 1.362 . S
C626 H618 0.930 . S
C626 C625 1.362 . S
C626 C629 1.409 . S
C627 H619 0.930 . S
C627 C628 1.355 . S
C627 C629 1.415 . S
C628 C627 1.355 . S
C628 C630 1.419 . S
C629 C624 1.425 . S
C629 C626 1.409 . S
C629 C627 1.415 . S
C630 H620 0.930 . S
C630 C628 1.419 . S
C630 C631 1.362 . S
C631 H621 0.930 . S
C631 C624 1.409 . S
C631 C630 1.362 . S
H632 C638 0.930 . S
H633 C641 0.930 . S
H634 C642 0.930 . S
H635 C643 0.930 . S
H636 C646 0.930 . S
H637 C647 0.930 . S
C638 H632 0.930 . S
C638 C639 1.355 1_556 S
C638 C640 1.415 . S
C639 C638 1.355 1_554 S
C639 C641 1.419 . S
C640 C638 1.415 . S
C640 C645 1.425 . S
C640 C647 1.409 . S
C641 H633 0.930 . S
C641 C639 1.419 . S
C641 C642 1.362 . S
C642 H634 0.930 . S
C642 C641 1.362 . S
C642 C645 1.409 1_554 S
C643 H635 0.930 . S
C643 C644 1.355 . S
C643 C645 1.415 . S
C644 C643 1.355 . S
C644 C646 1.419 . S
C645 C640 1.425 . S
C645 C642 1.409 1_556 S
C645 C643 1.415 . S
C646 H636 0.930 . S
C646 C644 1.419 . S
C646 C647 1.362 . S
C647 H637 0.930 . S
C647 C640 1.409 . S
C647 C646 1.362 . S
H648 C654 0.930 . S
H649 C657 0.930 . S
H650 C658 0.930 . S
H651 C659 0.930 . S
H652 C662 0.930 . S
H653 C663 0.930 . S
C654 H648 0.930 . S
C654 C655 1.355 1_556 S
C654 C656 1.415 . S
C655 C654 1.355 1_554 S
C655 C657 1.419 . S
C656 C654 1.415 . S
C656 C661 1.425 . S
C656 C663 1.409 . S
C657 H649 0.930 . S
C657 C655 1.419 . S
C657 C658 1.362 . S
C658 H650 0.930 . S
C658 C657 1.362 . S
C658 C661 1.409 1_554 S
C659 H651 0.930 . S
C659 C660 1.355 . S
C659 C661 1.415 . S
C660 C659 1.355 . S
C660 C662 1.419 . S
C661 C656 1.425 . S
C661 C658 1.409 1_556 S
C661 C659 1.415 . S
C662 H652 0.930 . S
C662 C660 1.419 . S
C662 C663 1.362 . S
C663 H653 0.930 . S
C663 C656 1.409 . S
C663 C662 1.362 . S
H664 C670 0.930 . S
H665 C673 0.930 . S
H666 C674 0.930 . S
H667 C675 0.930 . S
H668 C678 0.930 . S
H669 C679 0.930 . S
C670 H664 0.930 . S
C670 C671 1.355 . S
C670 C672 1.415 . S
C671 C670 1.355 . S
C671 C673 1.419 . S
C672 C670 1.415 . S
C672 C677 1.425 . S
C672 C679 1.409 . S
C673 H665 0.930 . S
C673 C671 1.419 . S
C673 C674 1.362 . S
C674 H666 0.930 . S
C674 C673 1.362 . S
C674 C677 1.409 . S
C675 H667 0.930 . S
C675 C676 1.355 . S
C675 C677 1.415 . S
C676 C675 1.355 . S
C676 C678 1.419 . S
C677 C672 1.425 . S
C677 C674 1.409 . S
C677 C675 1.415 . S
C678 H668 0.930 . S
C678 C676 1.419 . S
C678 C679 1.362 . S
C679 H669 0.930 . S
C679 C672 1.409 . S
C679 C678 1.362 . S
H680 C686 0.930 . S
H681 C689 0.930 . S
H682 C690 0.930 . S
H683 C691 0.930 . S
H684 C694 0.930 . S
H685 C695 0.930 . S
C686 H680 0.930 . S
C686 C687 1.355 . S
C686 C688 1.415 . S
C687 C686 1.355 . S
C687 C689 1.419 . S
C688 C686 1.415 . S
C688 C693 1.425 . S
C688 C695 1.409 . S
C689 H681 0.930 . S
C689 C687 1.419 . S
C689 C690 1.362 . S
C690 H682 0.930 . S
C690 C689 1.362 . S
C690 C693 1.409 . S
C691 H683 0.930 . S
C691 C692 1.355 . S
C691 C693 1.415 . S
C692 C691 1.355 . S
C692 C694 1.419 . S
C693 C688 1.425 . S
C693 C690 1.409 . S
C693 C691 1.415 . S
C694 H684 0.930 . S
C694 C692 1.419 . S
C694 C695 1.362 . S
C695 H685 0.930 . S
C695 C688 1.409 . S
C695 C694 1.362 . S
H696 C702 0.930 . S
H697 C705 0.930 . S
H698 C706 0.930 . S
H699 C707 0.930 . S
H700 C710 0.930 . S
H701 C711 0.930 . S
C702 H696 0.930 . S
C702 C703 1.355 . S
C702 C704 1.415 . S
C703 C702 1.355 . S
C703 C705 1.419 . S
C704 C702 1.415 . S
C704 C709 1.425 . S
C704 C711 1.409 . S
C705 H697 0.930 . S
C705 C703 1.419 . S
C705 C706 1.362 . S
C706 H698 0.930 . S
C706 C705 1.362 . S
C706 C709 1.409 . S
C707 H699 0.930 . S
C707 C708 1.355 . S
C707 C709 1.415 . S
C708 C707 1.355 . S
C708 C710 1.419 . S
C709 C704 1.425 . S
C709 C706 1.409 . S
C709 C707 1.415 . S
C710 H700 0.930 . S
C710 C708 1.419 . S
C710 C711 1.362 . S
C711 H701 0.930 . S
C711 C704 1.409 . S
C711 C710 1.362 . S
H712 C718 0.930 . S
H713 C721 0.930 . S
H714 C722 0.930 . S
H715 C723 0.930 . S
H716 C726 0.930 . S
H717 C727 0.930 . S
C718 H712 0.930 . S
C718 C719 1.355 . S
C718 C720 1.415 . S
C719 C718 1.355 . S
C719 C721 1.419 . S
C720 C718 1.415 . S
C720 C725 1.425 . S
C720 C727 1.409 . S
C721 H713 0.930 . S
C721 C719 1.419 . S
C721 C722 1.362 . S
C722 H714 0.930 . S
C722 C721 1.362 . S
C722 C725 1.409 . S
C723 H715 0.930 . S
C723 C724 1.355 . S
C723 C725 1.415 . S
C724 C723 1.355 . S
C724 C726 1.419 . S
C725 C720 1.425 . S
C725 C722 1.409 . S
C725 C723 1.415 . S
C726 H716 0.930 . S
C726 C724 1.419 . S
C726 C727 1.362 . S
C727 H717 0.930 . S
C727 C720 1.409 . S
C727 C726 1.362 . S
H728 C734 0.930 . S
H729 C737 0.930 . S
H730 C738 0.930 . S
H731 C739 0.930 . S
H732 C742 0.930 . S
H733 C743 0.930 . S
C734 H728 0.930 . S
C734 C735 1.355 . S
C734 C736 1.415 . S
C735 C734 1.355 . S
C735 C737 1.419 . S
C736 C734 1.415 . S
C736 C741 1.425 . S
C736 C743 1.409 . S
C737 H729 0.930 . S
C737 C735 1.419 . S
C737 C738 1.362 . S
C738 H730 0.930 . S
C738 C737 1.362 . S
C738 C741 1.409 . S
C739 H731 0.930 . S
C739 C740 1.355 . S
C739 C741 1.415 . S
C740 C739 1.355 . S
C740 C742 1.419 . S
C741 C736 1.425 . S
C741 C738 1.409 . S
C741 C739 1.415 . S
C742 H732 0.930 . S
C742 C740 1.419 . S
C742 C743 1.362 . S
C743 H733 0.930 . S
C743 C736 1.409 . S
C743 C742 1.362 . S
H744 C750 0.930 . S
H745 C753 0.930 . S
H746 C754 0.930 . S
H747 C755 0.930 . S
H748 C758 0.930 . S
H749 C759 0.930 . S
C750 H744 0.930 . S
C750 C751 1.355 . S
C750 C752 1.415 . S
C751 C750 1.355 . S
C751 C753 1.419 . S
C752 C750 1.415 . S
C752 C757 1.425 . S
C752 C759 1.409 . S
C753 H745 0.930 . S
C753 C751 1.419 . S
C753 C754 1.362 . S
C754 H746 0.930 . S
C754 C753 1.362 . S
C754 C757 1.409 . S
C755 H747 0.930 . S
C755 C756 1.355 . S
C755 C757 1.415 . S
C756 C755 1.355 . S
C756 C758 1.419 . S
C757 C752 1.425 . S
C757 C754 1.409 . S
C757 C755 1.415 . S
C758 H748 0.930 . S
C758 C756 1.419 . S
C758 C759 1.362 . S
C759 H749 0.930 . S
C759 C752 1.409 . S
C759 C758 1.362 . S
H760 C766 0.930 . S
H761 C769 0.930 . S
H762 C770 0.930 . S
H763 C771 0.930 . S
H764 C774 0.930 . S
H765 C775 0.930 . S
C766 H760 0.930 . S
C766 C767 1.355 . S
C766 C768 1.415 . S
C767 C766 1.355 . S
C767 C769 1.419 . S
C768 C766 1.415 . S
C768 C773 1.425 . S
C768 C775 1.409 . S
C769 H761 0.930 . S
C769 C767 1.419 . S
C769 C770 1.362 . S
C770 H762 0.930 . S
C770 C769 1.362 . S
C770 C773 1.409 . S
C771 H763 0.930 . S
C771 C772 1.355 . S
C771 C773 1.415 . S
C772 C771 1.355 . S
C772 C774 1.419 . S
C773 C768 1.425 . S
C773 C770 1.409 . S
C773 C771 1.415 . S
C774 H764 0.930 . S
C774 C772 1.419 . S
C774 C775 1.362 . S
C775 H765 0.930 . S
C775 C768 1.409 . S
C775 C774 1.362 . S
H776 C782 0.930 . S
H777 C785 0.930 . S
H778 C786 0.930 . S
H779 C787 0.930 . S
H780 C790 0.930 . S
H781 C791 0.930 . S
C782 H776 0.930 . S
C782 C783 1.355 . S
C782 C784 1.415 . S
C783 C782 1.355 . S
C783 C785 1.419 1_455 S
C784 C782 1.415 . S
C784 C789 1.425 1_455 S
C784 C791 1.409 . S
C785 H777 0.930 . S
C785 C783 1.419 1_655 S
C785 C786 1.362 . S
C786 H778 0.930 . S
C786 C785 1.362 . S
C786 C789 1.409 . S
C787 H779 0.930 . S
C787 C788 1.355 . S
C787 C789 1.415 . S
C788 C787 1.355 . S
C788 C790 1.419 . S
C789 C784 1.425 1_655 S
C789 C786 1.409 . S
C789 C787 1.415 . S
C790 H780 0.930 . S
C790 C788 1.419 . S
C790 C791 1.362 1_655 S
C791 H781 0.930 . S
C791 C784 1.409 . S
C791 C790 1.362 1_455 S
H792 C798 0.930 . S
H793 C801 0.930 . S
H794 C802 0.930 . S
H795 C803 0.930 . S
H796 C806 0.930 . S
H797 C807 0.930 . S
C798 H792 0.930 . S
C798 C799 1.355 . S
C798 C800 1.415 . S
C799 C798 1.355 . S
C799 C801 1.419 . S
C800 C798 1.415 . S
C800 C805 1.425 . S
C800 C807 1.409 . S
C801 H793 0.930 . S
C801 C799 1.419 . S
C801 C802 1.362 . S
C802 H794 0.930 . S
C802 C801 1.362 . S
C802 C805 1.409 . S
C803 H795 0.930 . S
C803 C804 1.355 . S
C803 C805 1.415 . S
C804 C803 1.355 . S
C804 C806 1.419 . S
C805 C800 1.425 . S
C805 C802 1.409 . S
C805 C803 1.415 . S
C806 H796 0.930 . S
C806 C804 1.419 . S
C806 C807 1.362 . S
C807 H797 0.930 . S
C807 C800 1.409 . S
C807 C806 1.362 . S
H808 C814 0.930 . S
H809 C817 0.930 . S
H810 C818 0.930 . S
H811 C819 0.930 . S
H812 C822 0.930 . S
H813 C823 0.930 . S
C814 H808 0.930 . S
C814 C815 1.355 . S
C814 C816 1.415 . S
C815 C814 1.355 . S
C815 C817 1.419 . S
C816 C814 1.415 . S
C816 C821 1.425 . S
C816 C823 1.409 . S
C817 H809 0.930 . S
C817 C815 1.419 . S
C817 C818 1.362 . S
C818 H810 0.930 . S
C818 C817 1.362 . S
C818 C821 1.409 . S
C819 H811 0.930 . S
C819 C820 1.355 . S
C819 C821 1.415 . S
C820 C819 1.355 . S
C820 C822 1.419 . S
C821 C816 1.425 . S
C821 C818 1.409 . S
C821 C819 1.415 . S
C822 H812 0.930 . S
C822 C820 1.419 . S
C822 C823 1.362 . S
C823 H813 0.930 . S
C823 C816 1.409 . S
C823 C822 1.362 . S
H824 C830 0.930 . S
H825 C833 0.930 . S
H826 C834 0.930 . S
H827 C835 0.930 . S
H828 C838 0.930 . S
H829 C839 0.930 . S
C830 H824 0.930 . S
C830 C831 1.355 . S
C830 C832 1.415 . S
C831 C830 1.355 . S
C831 C833 1.419 . S
C832 C830 1.415 . S
C832 C837 1.425 . S
C832 C839 1.409 . S
C833 H825 0.930 . S
C833 C831 1.419 . S
C833 C834 1.362 . S
C834 H826 0.930 . S
C834 C833 1.362 . S
C834 C837 1.409 . S
C835 H827 0.930 . S
C835 C836 1.355 . S
C835 C837 1.415 . S
C836 C835 1.355 . S
C836 C838 1.419 . S
C837 C832 1.425 . S
C837 C834 1.409 . S
C837 C835 1.415 . S
C838 H828 0.930 . S
C838 C836 1.419 . S
C838 C839 1.362 . S
C839 H829 0.930 . S
C839 C832 1.409 . S
C839 C838 1.362 . S
C463 C13 1.713 . S
C468 C137 1.584 . S
C479 C27 1.857 . S
C484 C181 1.767 . S
C500 C261 1.590 . S
C495 C29 1.658 . S
C516 C305 1.630 . S
C511 C54 1.715 . S
C532 C385 1.682 . S
C527 C69 1.832 . S
C548 C441 1.809 . S
C543 C83 1.942 . S
C559 C15 2.001 . S
C564 C237 1.769 . S
C575 C41 1.724 . S
C580 C317 1.628 . S
C596 C361 1.707 . S
C591 C42 1.939 . S
C612 C429 1.705 . S
C607 C57 1.723 . S
C623 C71 1.763 . S
C628 C113 1.533 . S
C644 C193 1.814 . S
C639 C1 1.943 . S
C660 C299 1.813 . S
C655 C12 1.939 . S
C671 C26 1.790 . S
C676 C379 1.640 . S
C692 C447 1.647 . S
C687 C28 1.685 . S
C703 C55 1.963 . S
C708 C131 1.801 . S
C719 C68 1.724 . S
C724 C175 1.627 . S
C735 C82 1.985 . S
C740 C255 1.706 . S
C751 C14 1.937 . S
C756 C423 1.795 . S
C772 C119 1.681 . S
C767 C40 1.828 . S
C783 C43 1.729 . S
C788 C199 1.657 . S
C799 C56 1.692 . S
C804 C243 1.615 . S
C815 C70 1.884 . S
C820 C323 1.838 . S
C831 C0 1.736 . S
C836 C367 1.636 . S
