# Generated by pormake.
# Topology pth, (4,4)-cn, num edge types: 1
# Building blocks:
#     Node 0, Type 0, BuildingBlock: TATPOV_clean_sbu_0, # of connection points: 4
#     Node 1, Type 0, BuildingBlock: TATPOV_clean_sbu_0, # of connection points: 4
#     Node 2, Type 0, BuildingBlock: TATPOV_clean_sbu_0, # of connection points: 4
#     Node 3, Type 1, BuildingBlock: MIFKUJ_clean_linker_1, # of connection points: 4
#     Node 4, Type 1, BuildingBlock: MIFKUJ_clean_linker_1, # of connection points: 4
#     Node 5, Type 1, BuildingBlock: MIFKUJ_clean_linker_1, # of connection points: 4
#     Edge 6, Type (0, 1), BuildingBlock: FUNLAD_clean_linker_0, # of connection points: 2
#     Edge 7, Type (0, 1), BuildingBlock: FUNLAD_clean_linker_0, # of connection points: 2
#     Edge 8, Type (0, 1), BuildingBlock: FUNLAD_clean_linker_0, # of connection points: 2
#     Edge 9, Type (0, 1), BuildingBlock: FUNLAD_clean_linker_0, # of connection points: 2
#     Edge 10, Type (0, 1), BuildingBlock: FUNLAD_clean_linker_0, # of connection points: 2
#     Edge 11, Type (0, 1), BuildingBlock: FUNLAD_clean_linker_0, # of connection points: 2
#     Edge 12, Type (0, 1), BuildingBlock: FUNLAD_clean_linker_0, # of connection points: 2
#     Edge 13, Type (0, 1), BuildingBlock: FUNLAD_clean_linker_0, # of connection points: 2
#     Edge 14, Type (0, 1), BuildingBlock: FUNLAD_clean_linker_0, # of connection points: 2
#     Edge 15, Type (0, 1), BuildingBlock: FUNLAD_clean_linker_0, # of connection points: 2
#     Edge 16, Type (0, 1), BuildingBlock: FUNLAD_clean_linker_0, # of connection points: 2
#     Edge 17, Type (0, 1), BuildingBlock: FUNLAD_clean_linker_0, # of connection points: 2
# Relax obj value: 0.038
# Max RMSD: 0.160
# Mean RMSD: 0.089
data_MOF--net-pth--node1-TATPOV_clean_sbu_0--node2-MIFKUJ_clean_linker_1--edge1-FUNLAD_clean_linker_0
_symmetry_space_group_name_H-M    P1
_symmetry_Int_Tables_number       1
_symmetry_cell_setting            triclinic
loop_
_symmetry_equiv_pos_as_xyz
'x, y, z'
_cell_length_a     33.762901
_cell_length_b     33.514719
_cell_length_c     70.716565
_cell_angle_alpha  92.562272
_cell_angle_beta   92.13453
_cell_angle_gamma 120.87421
loop_
_atom_site_label
_atom_site_type_symbol
_atom_site_fract_x
_atom_site_fract_y
_atom_site_fract_z
_atom_type_partial_charge
Zn0 Zn 0.12491 0.00656 0.01894 0.0
Zn1 Zn 0.0822 0.04156 0.03941 0.0
O2 O 0.09296 0.0013 0.0576 0.0
O3 O 0.12832 0.9728 0.04131 0.0
O4 O 0.05454 0.06966 0.05614 0.0
O5 O 0.17653 0.07192 0.015 0.0
O6 O 0.13892 0.09936 0.03032 0.0
C7 C 0.11102 0.97602 0.05648 0.0
C8 C 0.03204 0.97852 0.00368 0.0
O9 O 0.0324 0.00299 0.01807 0.0
O10 O 0.06707 0.97501 0.00089 0.0
C11 C 0.03729 0.09274 0.04976 0.0
O12 O 0.03612 0.09753 0.03145 0.0
C13 C 0.17319 0.10617 0.02102 0.0
Zn14 Zn 0.12605 0.09231 0.35497 0.0
Zn15 Zn 0.05253 0.0532 0.37602 0.0
O16 O 0.10749 0.06669 0.39452 0.0
O17 O 0.16783 0.09781 0.37731 0.0
O18 O -0.00087 0.03059 0.39278 0.0
O19 O 0.11614 0.14522 0.34983 0.0
O20 O 0.05233 0.10887 0.36481 0.0
C21 C 0.15068 0.08386 0.39301 0.0
C22 C 0.05458 -0.00263 0.34154 0.0
O23 O 0.03463 -0.00104 0.35626 0.0
O24 O 0.09259 0.03258 0.33779 0.0
C25 C 0.00575 0.05483 0.40822 0.0
O26 O 0.04689 0.0917 0.41268 0.0
C27 C 0.07955 0.14244 0.35522 0.0
Zn28 Zn 0.07971 0.94471 0.73792 0.0
Zn29 Zn 0.03932 0.97501 0.71347 0.0
O30 O 0.08524 0.96827 0.69717 0.0
O31 O 0.1195 0.94506 0.7172 0.0
O32 O 0.00455 0.99284 0.69531 0.0
O33 O 0.01803 0.88765 0.7419 0.0
O34 O 0.98605 0.91602 0.72345 0.0
C35 C 0.11522 0.95682 0.70082 0.0
C36 C 0.09302 0.03523 0.74954 0.0
O37 O 0.07076 0.02973 0.73374 0.0
O38 O 0.10066 0.00385 0.75462 0.0
C39 C 0.97699 0.00419 0.70203 0.0
O40 O 0.97383 0.00572 0.72048 0.0
C41 C 0.98217 0.88506 0.73429 0.0
H42 H 0.05742 0.47112 0.1728 0.0
H43 H 0.06116 0.40818 0.15582 0.0
H44 H 0.9285 0.30774 0.17517 0.0
H45 H 0.92477 0.37114 0.19213 0.0
H46 H 0.00059 0.501 0.16799 0.0
H47 H 0.05199 0.44888 0.21563 0.0
H48 H 0.06531 0.40451 0.23854 0.0
H49 H 0.93891 0.37258 0.26409 0.0
H50 H 0.9243 0.41526 0.24023 0.0
H51 H 0.91572 0.54336 0.228 0.0
H52 H 0.91915 0.61128 0.24435 0.0
H53 H 0.06316 0.69585 0.23286 0.0
H54 H 0.05926 0.62817 0.21648 0.0
H55 H 0.97362 0.50462 0.23634 0.0
H56 H 0.94543 0.58277 0.18325 0.0
H57 H 0.97034 0.65158 0.16516 0.0
H58 H 0.10006 0.65856 0.15719 0.0
H59 H 0.07459 0.58964 0.17482 0.0
C60 C 0.99079 0.42584 0.1837 0.0
C61 C 0.02911 0.43556 0.17339 0.0
C62 C 0.03138 0.39955 0.16383 0.0
C63 C 0.99515 0.35307 0.16421 0.0
C64 C 0.95677 0.34329 0.17455 0.0
C65 C 0.95474 0.37938 0.18432 0.0
C66 C 0.98835 0.46456 0.19346 0.0
C67 C 0.99443 0.50154 0.18292 0.0
C68 C 0.98173 0.46606 0.21308 0.0
C69 C 0.98663 0.43474 0.22591 0.0
C70 C 0.02625 0.43115 0.22573 0.0
C71 C 0.03433 0.40646 0.23913 0.0
C72 C 0.00353 0.38555 0.25334 0.0
C73 C 0.96319 0.38808 0.25327 0.0
C74 C 0.95489 0.4126 0.2397 0.0
C75 C 0.98701 0.58101 0.22079 0.0
C76 C 0.94794 0.57663 0.22902 0.0
C77 C 0.95001 0.61537 0.2384 0.0
C78 C 0.99131 0.65906 0.23975 0.0
C79 C 0.03054 0.66299 0.23171 0.0
C80 C 0.02844 0.62432 0.22239 0.0
C81 C 0.98487 0.54019 0.21074 0.0
C82 C 0.97795 0.50287 0.22126 0.0
C83 C 0.99433 0.54003 0.19145 0.0
C84 C 0.00808 0.581 0.18028 0.0
C85 C 0.97915 0.59919 0.17755 0.0
C86 C 0.99357 0.63864 0.16731 0.0
C87 C 0.03713 0.66048 0.15964 0.0
C88 C 0.06595 0.64214 0.16255 0.0
C89 C 0.05148 0.60275 0.17266 0.0
H90 H 0.65492 0.10542 0.51793 0.0
H91 H 0.71756 0.10904 0.50043 0.0
H92 H 0.68114 0.97264 0.51745 0.0
H93 H 0.61719 0.9683 0.53409 0.0
H94 H 0.56614 0.05246 0.5137 0.0
H95 H 0.67739 0.08866 0.56363 0.0
H96 H 0.73679 0.0843 0.58261 0.0
H97 H 0.63477 0.94532 0.59625 0.0
H98 H 0.5756 0.94945 0.57677 0.0
H99 H 0.44475 0.94365 0.56804 0.0
H100 H 0.378 0.93376 0.58451 0.0
H101 H 0.42753 0.08036 0.58167 0.0
H102 H 0.49424 0.09003 0.56521 0.0
H103 H 0.54156 0.00592 0.57986 0.0
H104 H 0.43023 0.97913 0.52696 0.0
H105 H 0.3786 -0.00384 0.50849 0.0
H106 H 0.49185 0.13715 0.50438 0.0
H107 H 0.54328 0.11954 0.52253 0.0
C108 C 0.63156 0.03681 0.52749 0.0
C109 C 0.66028 0.0762 0.5178 0.0
C110 C 0.6964 0.07839 0.50795 0.0
C111 C 0.70459 0.04121 0.50759 0.0
C112 C 0.67559 0.0017 0.51725 0.0
C113 C 0.63932 -0.00058 0.52699 0.0
C114 C 0.59293 0.03431 0.53785 0.0
C115 C 0.56118 0.04283 0.52825 0.0
C116 C 0.58642 0.02201 0.55687 0.0
C117 C 0.62215 0.01918 0.56861 0.0
C118 C 0.66787 0.05709 0.57058 0.0
C119 C 0.70171 0.05473 0.58158 0.0
C120 C 0.6905 0.01446 0.59094 0.0
C121 C 0.6446 0.9766 0.58904 0.0
C122 C 0.61069 0.97904 0.57805 0.0
C123 C 0.47426 0.0175 0.56539 0.0
C124 C 0.44112 0.97359 0.57095 0.0
C125 C 0.40289 0.96793 0.5802 0.0
C126 C 0.39755 0.00628 0.58431 0.0
C127 C 0.43091 0.05028 0.57876 0.0
C128 C 0.46887 0.05581 0.56932 0.0
C129 C 0.51458 0.0232 0.55554 0.0
C130 C 0.54666 0.01539 0.5653 0.0
C131 C 0.52237 0.0379 0.53692 0.0
C132 C 0.49053 0.04812 0.52613 0.0
C133 C 0.44376 0.01378 0.52218 0.0
C134 C 0.41427 0.02364 0.51169 0.0
C135 C 0.43109 0.06802 0.50492 0.0
C136 C 0.47791 0.10242 0.5091 0.0
C137 C 0.50734 0.09248 0.51953 0.0
H138 H 0.45544 0.46221 0.84027 0.0
H139 H 0.38874 0.39737 0.82223 0.0
H140 H 0.29784 0.43041 0.85137 0.0
H141 H 0.36512 0.49641 0.86923 0.0
H142 H 0.48955 0.54766 0.83958 0.0
H143 H 0.43753 0.44527 0.88648 0.0
H144 H 0.39221 0.39005 0.90933 0.0
H145 H 0.37273 0.49459 0.93811 0.0
H146 H 0.41687 0.54948 0.91461 0.0
H147 H 0.54441 0.67866 0.90439 0.0
H148 H 0.61393 0.74331 0.9215 0.0
H149 H 0.69448 0.68603 0.90062 0.0
H150 H 0.62491 0.62126 0.88381 0.0
H151 H 0.50479 0.58439 0.90909 0.0
H152 H 0.57998 0.68662 0.85567 0.0
H153 H 0.64641 0.72614 0.8361 0.0
H154 H 0.64041 0.59564 0.82378 0.0
H155 H 0.57479 0.55669 0.84336 0.0
C156 C 0.41543 0.48447 0.85605 0.0
C157 C 0.42124 0.45578 0.84276 0.0
C158 C 0.38312 0.41876 0.83244 0.0
C159 C 0.33826 0.40932 0.83526 0.0
C160 C 0.33213 0.437 0.84896 0.0
C161 C 0.37048 0.47454 0.85919 0.0
C162 C 0.45671 0.52592 0.86583 0.0
C163 C 0.49269 0.55547 0.85481 0.0
C164 C 0.46149 0.53591 0.88573 0.0
C165 C 0.43008 0.50138 0.89863 0.0
C166 C 0.42257 0.45606 0.8974 0.0
C167 C 0.39723 0.4247 0.91068 0.0
C168 C 0.3793 0.43809 0.92567 0.0
C169 C 0.38585 0.48313 0.92666 0.0
C170 C 0.4112 0.51457 0.91329 0.0
C171 C 0.57962 0.64561 0.89257 0.0
C172 C 0.57711 0.68018 0.90346 0.0
C173 C 0.61676 0.71697 0.91325 0.0
C174 C 0.65964 0.71983 0.91229 0.0
C175 C 0.66207 0.68519 0.90134 0.0
C176 C 0.62235 0.6482 0.89171 0.0
C177 C 0.53711 0.60581 0.8828 0.0
C178 C 0.50076 0.57686 0.89382 0.0
C179 C 0.53345 0.59415 0.8631 0.0
C180 C 0.57265 0.61882 0.851 0.0
C181 C 0.59306 0.66667 0.84872 0.0
C182 C 0.63073 0.68907 0.83749 0.0
C183 C 0.64861 0.66392 0.82851 0.0
C184 C 0.62771 0.61598 0.83071 0.0
C185 C 0.59003 0.59365 0.84177 0.0
C186 C 0.0262 0.11409 0.08273 0.0
C187 C 0.02162 0.11645 0.06303 0.0
C188 C 0.01437 0.13894 0.09536 0.0
C189 C -0.00216 0.16691 0.08855 0.0
C190 C 0.99142 0.1677 0.06887 0.0
C191 C 0.00342 0.14296 0.05623 0.0
C192 C 0.98761 0.19611 0.10153 0.0
C193 C 0.01021 0.21419 0.11872 0.0
C194 C 0.00424 0.24772 0.13092 0.0
C195 C 0.04156 0.28041 0.1433 0.0
C196 C 0.03832 0.31408 0.15434 0.0
C197 C -0.00266 0.31532 0.15346 0.0
H198 H 0.93272 0.22248 0.1215 0.0
C199 C 0.95926 0.28146 0.14166 0.0
C200 C 0.96266 0.24799 0.13045 0.0
H201 H 0.92723 0.2816 0.14072 0.0
H202 H 0.03958 0.09353 0.08846 0.0
H203 H 0.01826 0.13612 0.11041 0.0
H204 H 0.97825 0.18855 0.06324 0.0
H205 H -0.0009 0.14525 0.04114 0.0
H206 H 0.96391 0.20634 0.09603 0.0
H207 H 0.03726 0.20766 0.12338 0.0
H208 H 0.07379 0.28063 0.1441 0.0
H209 H 0.06799 0.33934 0.16351 0.0
C210 C 0.97603 0.06814 0.43825 0.0
C211 C 0.96722 0.044 0.42038 0.0
C212 C 0.93967 0.06055 0.4493 0.0
C213 C 0.89346 0.02906 0.44259 0.0
C214 C 0.88482 0.00364 0.42504 0.0
C215 C 0.92127 0.01102 0.41403 0.0
C216 C 0.85351 0.02179 0.45341 0.0
C217 C 0.85606 0.05373 0.46651 0.0
C218 C 0.81632 0.04869 0.47694 0.0
C219 C 0.82192 0.08804 0.48747 0.0
C220 C 0.78588 0.08559 0.49743 0.0
C221 C 0.74313 0.04361 0.49714 0.0
H222 H 0.7678 0.9748 0.46939 0.0
C223 C 0.73755 0.00402 0.48679 0.0
C224 C 0.77371 0.00638 0.47689 0.0
H225 H 0.70497 0.97117 0.48614 0.0
H226 H 0.0111 0.09324 0.4437 0.0
H227 H 0.94819 0.07943 0.46307 0.0
H228 H 0.84967 0.9787 0.41961 0.0
H229 H 0.91333 0.99168 0.40035 0.0
H230 H 0.82059 0.99029 0.44946 0.0
H231 H 0.88847 0.08661 0.46925 0.0
H232 H 0.85438 0.12101 0.48797 0.0
H233 H 0.79176 0.11657 0.50553 0.0
C234 C 0.93146 0.81511 0.75181 0.0
C235 C 0.93602 0.84957 0.73995 0.0
C236 C 0.88962 0.78652 0.75978 0.0
C237 C 0.85154 0.79217 0.75622 0.0
C238 C 0.85509 0.82419 0.74326 0.0
C239 C 0.89693 0.85273 0.73523 0.0
C240 C 0.80841 0.7667 0.76626 0.0
C241 C 0.80779 0.7517 0.78367 0.0
C242 C 0.76599 0.72924 0.79462 0.0
C243 C 0.76352 0.69938 0.80842 0.0
C244 C 0.72549 0.67837 0.81942 0.0
C245 C 0.68933 0.68731 0.81706 0.0
H246 H 0.73138 0.76265 0.78231 0.0
C247 C 0.69209 0.71793 0.80354 0.0
C248 C 0.73002 0.73867 0.79237 0.0
H249 H 0.66466 0.72539 0.80144 0.0
H250 H 0.96066 0.81118 0.75546 0.0
H251 H 0.88767 0.76068 0.76895 0.0
H252 H 0.82606 0.82869 0.74001 0.0
H253 H 0.89915 0.87869 0.72603 0.0
H254 H 0.77699 0.76261 0.75951 0.0
H255 H 0.83925 0.75604 0.79047 0.0
H256 H 0.79104 0.69206 0.81063 0.0
H257 H 0.72458 0.65542 0.82993 0.0
C258 C 0.12491 0.91647 0.07026 0.0
C259 C 0.10813 0.94698 0.07217 0.0
C260 C 0.11743 0.88488 0.08388 0.0
C261 C 0.09335 0.88334 0.09995 0.0
C262 C 0.07789 0.91491 0.10215 0.0
C263 C 0.08526 0.94648 0.08845 0.0
C264 C 0.08044 0.84707 0.11381 0.0
C265 C 0.10056 0.8214 0.11539 0.0
C266 C 0.08363 0.78091 0.1272 0.0
C267 C 0.0928 0.74577 0.12189 0.0
C268 C 0.07721 0.7066 0.13226 0.0
C269 C 0.05259 0.70187 0.14844 0.0
H270 H 0.05241 0.80337 0.14827 0.0
C271 C 0.04368 0.73725 0.1539 0.0
C272 C 0.05907 0.77643 0.14341 0.0
H273 H 0.02557 0.73511 0.16649 0.0
H274 H 0.14244 0.91569 0.05785 0.0
H275 H 0.12897 0.86062 0.08115 0.0
H276 H 0.05906 0.91445 0.1143 0.0
H277 H 0.07179 0.96946 0.09037 0.0
H278 H 0.0519 0.84018 0.12239 0.0
H279 H 0.12924 0.82827 0.10694 0.0
H280 H 0.11158 0.74826 0.10947 0.0
H281 H 0.0841 0.67976 0.12746 0.0
C282 C 0.22818 0.10388 0.40724 0.0
C283 C 0.18072 0.08537 0.40918 0.0
C284 C 0.25627 0.10233 0.4218 0.0
C285 C 0.23771 0.08257 0.43882 0.0
C286 C 0.19039 0.06462 0.44088 0.0
C287 C 0.16219 0.06619 0.42627 0.0
C288 C 0.26589 0.07699 0.45399 0.0
C289 C 0.3124 0.10387 0.45623 0.0
C290 C 0.34185 0.09511 0.4695 0.0
C291 C 0.38831 0.11318 0.46572 0.0
C292 C 0.41717 0.10457 0.47723 0.0
C293 C 0.40041 0.07803 0.49301 0.0
H294 H 0.29001 0.05588 0.4893 0.0
C295 C 0.35415 0.06075 0.4971 0.0
C296 C 0.32515 0.06925 0.4855 0.0
H297 H 0.34043 0.04098 0.50937 0.0
H298 H 0.24359 0.11862 0.39423 0.0
H299 H 0.29207 0.11509 0.41924 0.0
H300 H 0.17506 0.0488 0.45375 0.0
H301 H 0.12572 0.05147 0.42821 0.0
H302 H 0.24746 0.04878 0.4631 0.0
H303 H 0.33041 0.13247 0.44723 0.0
H304 H 0.40217 0.13328 0.45353 0.0
H305 H 0.4524 0.11794 0.4735 0.0
C306 C 0.10859 0.1166 0.75575 0.0
C307 C 0.11063 0.07842 0.76201 0.0
C308 C 0.12761 0.15813 0.76729 0.0
C309 C 0.149 0.16217 0.78533 0.0
C310 C 0.1491 0.12333 0.79186 0.0
C311 C 0.13044 0.08204 0.78031 0.0
C312 C 0.17326 0.20656 0.79745 0.0
C313 C 0.1942 0.24863 0.79029 0.0
C314 C 0.22754 0.29201 0.80191 0.0
C315 C 0.26526 0.327 0.7932 0.0
C316 C 0.30052 0.36578 0.804 0.0
C317 C 0.29841 0.37071 0.8237 0.0
H318 H 0.19476 0.27247 0.82855 0.0
C319 C 0.25927 0.33727 0.83228 0.0
C320 C 0.2241 0.29813 0.82149 0.0
H321 H 0.25671 0.34045 0.84744 0.0
H322 H 0.09302 0.11472 0.74181 0.0
H323 H 0.12565 0.18692 0.76201 0.0
H324 H 0.165 0.12536 0.80575 0.0
H325 H 0.13208 0.05312 0.78569 0.0
H326 H 0.17916 0.20423 0.81247 0.0
H327 H 0.19207 0.2508 0.77504 0.0
H328 H 0.26848 0.3234 0.77812 0.0
H329 H 0.32996 0.39154 0.79698 0.0
C330 C 0.94417 0.00376 0.66952 0.0
C331 C 0.94669 0.01268 0.68928 0.0
C332 C 0.9135 0.00928 0.65765 0.0
C333 C 0.88472 0.02389 0.66531 0.0
C334 C 0.8884 0.03425 0.68498 0.0
C335 C 0.91877 0.02841 0.69685 0.0
C336 C 0.85097 0.02933 0.65329 0.0
C337 C 0.83084 0.00422 0.63667 0.0
C338 C 0.79522 0.00786 0.62514 0.0
C339 C 0.76331 0.96962 0.61285 0.0
C340 C 0.72917 0.9716 0.60184 0.0
C341 C 0.72657 0.01216 0.60271 0.0
H342 H 0.81771 0.0794 0.63469 0.0
C343 C 0.75895 0.05072 0.61478 0.0
C344 C 0.79297 0.04868 0.62584 0.0
H345 H 0.7578 0.08244 0.61582 0.0
H346 H 0.96546 0.99192 0.66323 0.0
H347 H 0.91275 0.00241 0.6425 0.0
H348 H 0.86703 0.04606 0.69124 0.0
H349 H 0.92007 0.0359 0.712 0.0
H350 H 0.84006 0.05245 0.65907 0.0
H351 H 0.83843 0.97779 0.63183 0.0
H352 H 0.76454 0.93792 0.61187 0.0
H353 H 0.7052 0.94156 0.59246 0.0
C354 C 0.95152 0.95727 0.99267 0.0
C355 C 0.99037 0.95297 0.99036 0.0
C356 C 0.91166 0.93163 0.98044 0.0
C357 C 0.90971 0.90076 0.96573 0.0
C358 C 0.94905 0.89756 0.96316 0.0
C359 C 0.98883 0.92323 0.97532 0.0
C360 C 0.86772 0.87104 0.95277 0.0
C361 C 0.8247 0.8603 0.95668 0.0
C362 C 0.78255 0.8265 0.94452 0.0
C363 C 0.73975 0.80452 0.95269 0.0
C364 C 0.69967 0.77057 0.94214 0.0
C365 C 0.70154 0.75793 0.92313 0.0
H366 H 0.81575 0.83255 0.9181 0.0
C367 C 0.74396 0.78101 0.91472 0.0
C368 C 0.784 0.81519 0.92523 0.0
H369 H 0.74617 0.77268 0.89996 0.0
H370 H 0.95179 0.98032 0.00397 0.0
H371 H 0.8828 0.93645 0.98258 0.0
H372 H 0.9488 0.87446 0.95188 0.0
H373 H 0.0182 0.91922 0.97304 0.0
H374 H 0.8724 0.8546 0.94018 0.0
H375 H 0.81935 0.87359 0.97 0.0
H376 H 0.73745 0.81278 0.96745 0.0
H377 H 0.66747 0.75325 0.94902 0.0
C378 C 0.04913 0.95627 0.31041 0.0
C379 C 0.03465 0.95422 0.32888 0.0
C380 C 0.03363 0.91561 0.29878 0.0
C381 C 0.00399 0.87166 0.30551 0.0
C382 C 0.98772 0.86975 0.32365 0.0
C383 C 0.00283 0.91065 0.33524 0.0
C384 C 0.99023 0.82734 0.2942 0.0
C385 C 0.01541 0.82466 0.28037 0.0
C386 C 0.00478 0.78076 0.26965 0.0
C387 C 0.02431 0.78394 0.2522 0.0
C388 C 0.01882 0.74431 0.24227 0.0
C389 C 0.994 0.70046 0.24967 0.0
H390 H 0.96429 0.73281 0.29051 0.0
C391 C 0.97351 0.69696 0.26695 0.0
C392 C 0.9789 0.7367 0.27689 0.0
H393 H 0.95472 0.66376 0.27316 0.0
H394 H 0.0728 0.98943 0.30493 0.0
H395 H 0.04526 0.91912 0.28458 0.0
H396 H 0.96433 0.83647 0.32911 0.0
H397 H 0.99083 0.90801 0.34939 0.0
H398 H 0.95963 0.79595 0.29801 0.0
H399 H 0.04625 0.856 0.27672 0.0
H400 H 0.04443 0.8174 0.24629 0.0
H401 H 0.03439 0.74811 0.22885 0.0
C402 C 0.14219 0.96996 0.66771 0.0
C403 C 0.14766 0.96047 0.68649 0.0
C404 C 0.17514 0.97678 0.65474 0.0
C405 C 0.21433 0.97453 0.6604 0.0
C406 C 0.21939 0.96453 0.67907 0.0
C407 C 0.18632 0.95717 0.6919 0.0
C408 C 0.25204 0.98506 0.64773 0.0
C409 C 0.24569 0.97741 0.62871 0.0
C410 C 0.28445 0.98676 0.61682 0.0
C411 C 0.2764 0.95669 0.60078 0.0
C412 C 0.31302 0.96322 0.59007 0.0
C413 C 0.3582 0.0006 0.59497 0.0
H414 H 0.33654 0.04947 0.63338 0.0
C415 C 0.36588 0.0318 0.61055 0.0
C416 C 0.32942 0.02492 0.6214 0.0
H417 H 0.40033 0.06088 0.61467 0.0
H418 H 0.11291 0.97295 0.66311 0.0
H419 H 0.17063 0.98534 0.64055 0.0
H420 H 0.24932 0.96278 0.68381 0.0
H421 H 0.19184 0.95014 0.70626 0.0
H422 H 0.28616 -0.00273 0.65452 0.0
H423 H 0.21102 0.96073 0.62185 0.0
H424 H 0.24197 0.92735 0.59686 0.0
H425 H 0.30607 0.93899 0.57797 0.0
C426 C 0.1961 0.18864 0.01588 0.0
C427 C 0.20715 0.15349 0.01576 0.0
C428 C 0.22562 0.23125 0.0084 0.0
C429 C 0.26693 0.23956 0.00083 0.0
C430 C 0.27928 0.20559 0.00187 0.0
C431 C 0.24953 0.16282 0.00907 0.0
C432 C 0.29708 0.28206 0.99101 0.0
C433 C 0.28037 0.30364 0.98059 0.0
C434 C 0.30838 0.34049 0.96768 0.0
C435 C 0.29147 0.36816 0.96093 0.0
C436 C 0.31478 0.40049 0.94756 0.0
C437 C 0.35533 0.40551 0.94051 0.0
H438 H 0.36327 0.32488 0.96505 0.0
C439 C 0.37265 0.37839 0.94747 0.0
C440 C 0.34943 0.34614 0.96079 0.0
H441 H 0.40414 0.38181 0.9425 0.0
H442 H 0.16379 0.18258 0.02105 0.0
H443 H 0.21573 0.25728 0.00835 0.0
H444 H 0.31116 0.21133 0.99632 0.0
H445 H 0.25925 0.13663 0.00896 0.0
H446 H 0.33337 0.29293 0.99106 0.0
H447 H 0.24393 0.29233 0.98067 0.0
H448 H 0.2597 0.36426 0.96581 0.0
H449 H 0.30035 0.42061 0.94237 0.0
C450 C 0.10103 0.21918 0.343 0.0
C451 C 0.0669 0.17612 0.34891 0.0
C452 C 0.08885 0.24863 0.33461 0.0
C453 C 0.04198 0.23511 0.33148 0.0
C454 C 0.00811 0.19333 0.3385 0.0
C455 C 0.02042 0.16413 0.34718 0.0
C456 C 0.02696 0.26237 0.32034 0.0
C457 C 0.05405 0.29374 0.30831 0.0
C458 C 0.03869 0.31817 0.29571 0.0
C459 C 0.07248 0.36082 0.28941 0.0
C460 C 0.06071 0.38312 0.27611 0.0
C461 C 0.01483 0.36291 0.2685 0.0
H462 H 0.96557 0.265 0.29276 0.0
C463 C 0.98061 0.32069 0.27512 0.0
C464 C 0.9924 0.29844 0.2886 0.0
H465 H 0.94504 0.30402 0.26941 0.0
H466 H 0.13725 0.22979 0.34453 0.0
H467 H 0.1165 0.28151 0.33043 0.0
H468 H 0.97183 0.1823 0.33659 0.0
H469 H 0.99333 0.1312 0.35169 0.0
H470 H 0.99169 0.2545 0.32139 0.0
H471 H 0.0893 0.30189 0.30712 0.0
H472 H 0.10836 0.37678 0.29464 0.0
H473 H 0.08777 0.41614 0.27167 0.0
loop_
_geom_bond_atom_site_label_1
_geom_bond_atom_site_label_2
_geom_bond_distance
_geom_bond_site_symmetry_2
_ccdc_geom_bond_type
Zn0 O3 2.031 1_545 S
Zn0 O5 2.049 . S
Zn0 O10 2.067 1_545 S
Zn1 O2 1.962 . S
Zn1 O4 1.986 . S
Zn1 O6 1.996 . S
Zn1 O9 1.943 . S
O2 Zn1 1.962 . S
O2 C7 1.254 1_545 S
O3 Zn0 2.031 1_565 S
O3 C7 1.269 . S
O4 Zn1 1.986 . S
O4 C11 1.262 . S
O5 Zn0 2.049 . S
O5 C13 1.260 . S
O6 Zn1 1.996 . S
O6 C13 1.257 . S
C7 O2 1.254 1_565 S
C7 O3 1.269 . S
C8 O9 1.249 1_565 S
C8 O10 1.270 . S
O9 Zn1 1.943 . S
O9 C8 1.249 1_545 S
O10 Zn0 2.067 1_565 S
O10 C8 1.270 . S
C11 O4 1.262 . S
C11 O12 1.232 . S
O12 C11 1.232 . S
C13 O5 1.260 . S
C13 O6 1.257 . S
Zn14 O17 2.031 . S
Zn14 O19 2.049 . S
Zn14 O24 2.067 . S
Zn15 O16 1.962 . S
Zn15 O18 1.986 1_455 S
Zn15 O20 1.996 . S
Zn15 O23 1.943 1_455 S
O16 Zn15 1.962 . S
O16 C21 1.254 . S
O17 Zn14 2.031 . S
O17 C21 1.269 . S
O18 Zn15 1.986 1_655 S
O18 C25 1.262 . S
O19 Zn14 2.049 . S
O19 C27 1.260 . S
O20 Zn15 1.996 . S
O20 C27 1.257 . S
C21 O16 1.254 . S
C21 O17 1.269 . S
C22 O23 1.249 1_465 S
C22 O24 1.270 1_565 S
O23 Zn15 1.943 1_655 S
O23 C22 1.249 1_645 S
O24 Zn14 2.067 . S
O24 C22 1.270 1_545 S
C25 O18 1.262 . S
C25 O26 1.232 . S
O26 C25 1.232 . S
C27 O19 1.260 . S
C27 O20 1.257 . S
Zn28 O31 2.031 1_565 S
Zn28 O33 2.049 . S
Zn28 O38 2.067 1_565 S
Zn29 O30 1.962 1_545 S
Zn29 O32 1.986 1_445 S
Zn29 O34 1.996 1_445 S
Zn29 O37 1.943 . S
O30 Zn29 1.962 1_565 S
O30 C35 1.254 . S
O31 Zn28 2.031 1_545 S
O31 C35 1.269 1_545 S
O32 Zn29 1.986 1_665 S
O32 C39 1.262 1_565 S
O33 Zn28 2.049 . S
O33 C41 1.260 1_455 S
O34 Zn29 1.996 1_665 S
O34 C41 1.257 . S
C35 O30 1.254 . S
C35 O31 1.269 1_565 S
C36 O37 1.249 . S
C36 O38 1.270 . S
O37 Zn29 1.943 . S
O37 C36 1.249 . S
O38 Zn28 2.067 1_545 S
O38 C36 1.270 . S
C39 O32 1.262 1_545 S
C39 O40 1.213 1_655 S
O40 C39 1.213 1_455 S
C41 O33 1.260 1_655 S
C41 O34 1.257 . S
H42 C61 0.949 . S
H43 C62 0.950 . S
H44 C64 0.950 1_655 S
H45 C65 0.950 1_655 S
H46 C67 0.950 . S
H47 C70 0.950 . S
H48 C71 0.950 . S
H49 C73 0.951 . S
H50 C74 0.949 . S
H51 C76 0.949 . S
H52 C77 0.950 . S
H53 C79 0.950 . S
H54 C80 0.950 . S
H55 C82 0.950 . S
H56 C85 0.950 1_655 S
H57 C86 0.950 1_655 S
H58 C88 0.951 . S
H59 C89 0.949 . S
C60 C61 1.376 . S
C60 C65 1.386 . S
C60 C66 1.483 . S
C61 H42 0.949 . S
C61 C60 1.376 . S
C61 C62 1.397 . S
C62 H43 0.950 . S
C62 C61 1.397 . S
C62 C63 1.391 . S
C63 C62 1.391 . S
C63 C64 1.405 . S
C64 H44 0.950 1_455 S
C64 C63 1.405 . S
C64 C65 1.367 . S
C65 H45 0.950 1_455 S
C65 C60 1.386 . S
C65 C64 1.367 . S
C66 C60 1.483 . S
C66 C67 1.382 . S
C66 C68 1.403 . S
C67 H46 0.950 . S
C67 C66 1.382 . S
C67 C83 1.411 . S
C68 C66 1.403 . S
C68 C69 1.489 . S
C68 C82 1.411 . S
C69 C68 1.489 . S
C69 C70 1.383 . S
C69 C74 1.382 1_455 S
C70 H47 0.950 . S
C70 C69 1.383 . S
C70 C71 1.395 . S
C71 H48 0.950 . S
C71 C70 1.395 . S
C71 C72 1.288 . S
C72 C71 1.288 . S
C72 C73 1.392 1_455 S
C73 H49 0.951 . S
C73 C72 1.392 1_655 S
C73 C74 1.392 . S
C74 H50 0.949 . S
C74 C69 1.382 1_655 S
C74 C73 1.392 . S
C75 C76 1.376 1_455 S
C75 C80 1.386 . S
C75 C81 1.483 . S
C76 H51 0.949 . S
C76 C75 1.376 1_655 S
C76 C77 1.397 . S
C77 H52 0.950 . S
C77 C76 1.397 . S
C77 C78 1.391 1_655 S
C78 C77 1.391 1_455 S
C78 C79 1.405 . S
C79 H53 0.950 . S
C79 C78 1.405 . S
C79 C80 1.367 . S
C80 H54 0.950 . S
C80 C75 1.386 . S
C80 C79 1.367 . S
C81 C75 1.483 . S
C81 C82 1.382 . S
C81 C83 1.403 . S
C82 H55 0.950 . S
C82 C68 1.411 . S
C82 C81 1.382 . S
C83 C67 1.411 . S
C83 C81 1.403 . S
C83 C84 1.489 . S
C84 C83 1.489 . S
C84 C85 1.383 . S
C84 C89 1.382 . S
C85 H56 0.950 1_455 S
C85 C84 1.383 . S
C85 C86 1.395 . S
C86 H57 0.950 1_455 S
C86 C85 1.395 . S
C86 C87 1.288 . S
C87 C86 1.288 . S
C87 C88 1.392 . S
C88 H58 0.951 . S
C88 C87 1.392 . S
C88 C89 1.392 . S
C89 H59 0.949 . S
C89 C84 1.382 . S
C89 C88 1.392 . S
H90 C109 0.949 . S
H91 C110 0.950 . S
H92 C112 0.950 . S
H93 C113 0.951 . S
H94 C115 0.950 . S
H95 C118 0.950 . S
H96 C119 0.950 . S
H97 C121 0.951 . S
H98 C122 0.949 . S
H99 C124 0.949 . S
H100 C125 0.950 . S
H101 C127 0.950 . S
H102 C128 0.950 . S
H103 C130 0.950 . S
H104 C133 0.950 1_565 S
H105 C134 0.950 1_565 S
H106 C136 0.951 . S
H107 C137 0.949 . S
C108 C109 1.376 . S
C108 C113 1.385 1_545 S
C108 C114 1.483 . S
C109 H90 0.949 . S
C109 C108 1.376 . S
C109 C110 1.397 . S
C110 H91 0.950 . S
C110 C109 1.397 . S
C110 C111 1.391 . S
C111 C110 1.391 . S
C111 C112 1.405 1_545 S
C112 H92 0.950 . S
C112 C111 1.405 1_565 S
C112 C113 1.368 . S
C113 H93 0.951 . S
C113 C108 1.385 1_565 S
C113 C112 1.368 . S
C114 C108 1.483 . S
C114 C115 1.382 . S
C114 C116 1.403 . S
C115 H94 0.950 . S
C115 C114 1.382 . S
C115 C131 1.411 . S
C116 C114 1.403 . S
C116 C117 1.489 . S
C116 C130 1.411 . S
C117 C116 1.489 . S
C117 C118 1.383 . S
C117 C122 1.382 1_545 S
C118 H95 0.950 . S
C118 C117 1.383 . S
C118 C119 1.395 . S
C119 H96 0.950 . S
C119 C118 1.395 . S
C119 C120 1.288 . S
C120 C119 1.288 . S
C120 C121 1.392 1_545 S
C121 H97 0.951 . S
C121 C120 1.392 1_565 S
C121 C122 1.392 . S
C122 H98 0.949 . S
C122 C117 1.382 1_565 S
C122 C121 1.392 . S
C123 C124 1.376 1_545 S
C123 C128 1.386 . S
C123 C129 1.483 . S
C124 H99 0.949 . S
C124 C123 1.376 1_565 S
C124 C125 1.397 . S
C125 H100 0.950 . S
C125 C124 1.397 . S
C125 C126 1.391 1_565 S
C126 C125 1.391 1_545 S
C126 C127 1.405 . S
C127 H101 0.950 . S
C127 C126 1.405 . S
C127 C128 1.367 . S
C128 H102 0.950 . S
C128 C123 1.386 . S
C128 C127 1.367 . S
C129 C123 1.483 . S
C129 C130 1.382 . S
C129 C131 1.403 . S
C130 H103 0.950 . S
C130 C116 1.411 . S
C130 C129 1.382 . S
C131 C115 1.411 . S
C131 C129 1.403 . S
C131 C132 1.489 . S
C132 C131 1.489 . S
C132 C133 1.383 . S
C132 C137 1.382 . S
C133 H104 0.950 1_545 S
C133 C132 1.383 . S
C133 C134 1.395 . S
C134 H105 0.950 1_545 S
C134 C133 1.395 . S
C134 C135 1.288 . S
C135 C134 1.288 . S
C135 C136 1.392 . S
C136 H106 0.951 . S
C136 C135 1.392 . S
C136 C137 1.392 . S
C137 H107 0.949 . S
C137 C132 1.382 . S
C137 C136 1.392 . S
H138 C157 0.949 . S
H139 C158 0.950 . S
H140 C160 0.950 . S
H141 C161 0.950 . S
H142 C163 0.950 . S
H143 C166 0.950 . S
H144 C167 0.950 . S
H145 C169 0.951 . S
H146 C170 0.949 . S
H147 C172 0.949 . S
H148 C173 0.950 . S
H149 C175 0.950 . S
H150 C176 0.950 . S
H151 C178 0.950 . S
H152 C181 0.950 . S
H153 C182 0.950 . S
H154 C184 0.951 . S
H155 C185 0.949 . S
C156 C157 1.376 . S
C156 C161 1.386 . S
C156 C162 1.483 . S
C157 H138 0.949 . S
C157 C156 1.376 . S
C157 C158 1.397 . S
C158 H139 0.950 . S
C158 C157 1.397 . S
C158 C159 1.391 . S
C159 C158 1.391 . S
C159 C160 1.405 . S
C160 H140 0.950 . S
C160 C159 1.405 . S
C160 C161 1.367 . S
C161 H141 0.950 . S
C161 C156 1.386 . S
C161 C160 1.367 . S
C162 C156 1.483 . S
C162 C163 1.382 . S
C162 C164 1.403 . S
C163 H142 0.950 . S
C163 C162 1.382 . S
C163 C179 1.411 . S
C164 C162 1.403 . S
C164 C165 1.489 . S
C164 C178 1.411 . S
C165 C164 1.489 . S
C165 C166 1.383 . S
C165 C170 1.382 . S
C166 H143 0.950 . S
C166 C165 1.383 . S
C166 C167 1.395 . S
C167 H144 0.950 . S
C167 C166 1.395 . S
C167 C168 1.288 . S
C168 C167 1.288 . S
C168 C169 1.392 . S
C169 H145 0.951 . S
C169 C168 1.392 . S
C169 C170 1.392 . S
C170 H146 0.949 . S
C170 C165 1.382 . S
C170 C169 1.392 . S
C171 C172 1.376 . S
C171 C176 1.386 . S
C171 C177 1.483 . S
C172 H147 0.949 . S
C172 C171 1.376 . S
C172 C173 1.397 . S
C173 H148 0.950 . S
C173 C172 1.397 . S
C173 C174 1.391 . S
C174 C173 1.391 . S
C174 C175 1.405 . S
C175 H149 0.950 . S
C175 C174 1.405 . S
C175 C176 1.367 . S
C176 H150 0.950 . S
C176 C171 1.386 . S
C176 C175 1.367 . S
C177 C171 1.483 . S
C177 C178 1.382 . S
C177 C179 1.403 . S
C178 H151 0.950 . S
C178 C164 1.411 . S
C178 C177 1.382 . S
C179 C163 1.411 . S
C179 C177 1.403 . S
C179 C180 1.489 . S
C180 C179 1.489 . S
C180 C181 1.383 . S
C180 C185 1.382 . S
C181 H152 0.950 . S
C181 C180 1.383 . S
C181 C182 1.395 . S
C182 H153 0.950 . S
C182 C181 1.395 . S
C182 C183 1.288 . S
C183 C182 1.288 . S
C183 C184 1.392 . S
C184 H154 0.951 . S
C184 C183 1.392 . S
C184 C185 1.392 . S
C185 H155 0.949 . S
C185 C180 1.382 . S
C185 C184 1.392 . S
C186 C187 1.386 . S
C186 C188 1.383 . S
C186 H202 0.951 . S
C187 C186 1.386 . S
C187 C191 1.372 1_455 S
C188 C186 1.383 . S
C188 C189 1.402 . S
C188 H203 0.951 . S
C189 C188 1.402 . S
C189 C190 1.375 1_455 S
C189 C192 1.481 . S
C190 C189 1.375 1_655 S
C190 C191 1.373 . S
C190 H204 0.951 . S
C191 C187 1.372 1_655 S
C191 C190 1.373 . S
C191 H205 0.955 . S
C192 C189 1.481 . S
C192 C193 1.297 . S
C192 H206 0.930 1_455 S
C193 C192 1.297 . S
C193 C194 1.479 . S
C193 H207 0.950 . S
C194 C193 1.479 . S
C194 C195 1.375 . S
C194 C200 1.404 . S
C195 C194 1.375 . S
C195 C196 1.369 . S
C195 H208 0.950 . S
C196 C195 1.369 . S
C196 C197 1.392 . S
C196 H209 0.951 . S
C197 C196 1.392 . S
C197 C199 1.384 . S
H198 C200 0.949 1_655 S
C199 C197 1.384 . S
C199 C200 1.385 . S
C199 H201 0.950 1_455 S
C200 C194 1.404 . S
C200 H198 0.949 1_455 S
C200 C199 1.385 . S
H201 C199 0.950 1_655 S
H202 C186 0.951 . S
H203 C188 0.951 . S
H204 C190 0.951 . S
H205 C191 0.955 . S
H206 C192 0.930 1_655 S
H207 C193 0.950 . S
H208 C195 0.950 . S
H209 C196 0.951 . S
C210 C211 1.386 . S
C210 C212 1.383 . S
C210 H226 0.951 . S
C211 C210 1.386 . S
C211 C215 1.383 . S
C212 C210 1.383 . S
C212 C213 1.402 . S
C212 H227 0.951 . S
C213 C212 1.402 . S
C213 C214 1.375 . S
C213 C216 1.481 . S
C214 C213 1.375 . S
C214 C215 1.367 . S
C214 H228 0.951 1_545 S
C215 C211 1.383 . S
C215 C214 1.367 . S
C215 H229 0.950 1_545 S
C216 C213 1.481 . S
C216 C217 1.297 . S
C216 H230 0.950 . S
C217 C216 1.297 . S
C217 C218 1.479 . S
C217 H231 0.950 . S
C218 C217 1.479 . S
C218 C219 1.375 . S
C218 C224 1.404 . S
C219 C218 1.375 . S
C219 C220 1.369 . S
C219 H232 0.950 . S
C220 C219 1.369 . S
C220 C221 1.392 . S
C220 H233 0.951 . S
C221 C220 1.392 . S
C221 C223 1.384 . S
H222 C224 0.949 . S
C223 C221 1.384 . S
C223 C224 1.385 . S
C223 H225 0.950 . S
C224 C218 1.404 . S
C224 H222 0.949 . S
C224 C223 1.385 . S
H225 C223 0.950 . S
H226 C210 0.951 . S
H227 C212 0.951 . S
H228 C214 0.951 1_565 S
H229 C215 0.950 1_565 S
H230 C216 0.950 . S
H231 C217 0.950 . S
H232 C219 0.950 . S
H233 C220 0.951 . S
C234 C235 1.386 . S
C234 C236 1.383 . S
C234 H250 0.951 . S
C235 C234 1.386 . S
C235 C239 1.383 . S
C236 C234 1.383 . S
C236 C237 1.402 . S
C236 H251 0.951 . S
C237 C236 1.402 . S
C237 C238 1.375 . S
C237 C240 1.481 . S
C238 C237 1.375 . S
C238 C239 1.367 . S
C238 H252 0.951 . S
C239 C235 1.383 . S
C239 C238 1.367 . S
C239 H253 0.950 . S
C240 C237 1.481 . S
C240 C241 1.297 . S
C240 H254 0.950 . S
C241 C240 1.297 . S
C241 C242 1.479 . S
C241 H255 0.950 . S
C242 C241 1.479 . S
C242 C243 1.375 . S
C242 C248 1.404 . S
C243 C242 1.375 . S
C243 C244 1.369 . S
C243 H256 0.950 . S
C244 C243 1.369 . S
C244 C245 1.392 . S
C244 H257 0.951 . S
C245 C244 1.392 . S
C245 C247 1.384 . S
H246 C248 0.949 . S
C247 C245 1.384 . S
C247 C248 1.385 . S
C247 H249 0.950 . S
C248 C242 1.404 . S
C248 H246 0.949 . S
C248 C247 1.385 . S
H249 C247 0.950 . S
H250 C234 0.951 . S
H251 C236 0.951 . S
H252 C238 0.951 . S
H253 C239 0.950 . S
H254 C240 0.950 . S
H255 C241 0.950 . S
H256 C243 0.950 . S
H257 C244 0.951 . S
C258 C259 1.386 . S
C258 C260 1.383 . S
C258 H274 0.951 . S
C259 C258 1.386 . S
C259 C263 1.383 . S
C260 C258 1.383 . S
C260 C261 1.402 . S
C260 H275 0.951 . S
C261 C260 1.402 . S
C261 C262 1.375 . S
C261 C264 1.481 . S
C262 C261 1.375 . S
C262 C263 1.367 . S
C262 H276 0.951 . S
C263 C259 1.383 . S
C263 C262 1.367 . S
C263 H277 0.950 . S
C264 C261 1.481 . S
C264 C265 1.297 . S
C264 H278 0.950 . S
C265 C264 1.297 . S
C265 C266 1.479 . S
C265 H279 0.950 . S
C266 C265 1.479 . S
C266 C267 1.375 . S
C266 C272 1.404 . S
C267 C266 1.375 . S
C267 C268 1.369 . S
C267 H280 0.950 . S
C268 C267 1.369 . S
C268 C269 1.392 . S
C268 H281 0.951 . S
C269 C268 1.392 . S
C269 C271 1.384 . S
H270 C272 0.949 . S
C271 C269 1.384 . S
C271 C272 1.385 . S
C271 H273 0.950 . S
C272 C266 1.404 . S
C272 H270 0.949 . S
C272 C271 1.385 . S
H273 C271 0.950 . S
H274 C258 0.951 . S
H275 C260 0.951 . S
H276 C262 0.951 . S
H277 C263 0.950 . S
H278 C264 0.950 . S
H279 C265 0.950 . S
H280 C267 0.950 . S
H281 C268 0.951 . S
C282 C283 1.386 . S
C282 C284 1.383 . S
C282 H298 0.951 . S
C283 C282 1.386 . S
C283 C287 1.383 . S
C284 C282 1.383 . S
C284 C285 1.402 . S
C284 H299 0.951 . S
C285 C284 1.402 . S
C285 C286 1.375 . S
C285 C288 1.481 . S
C286 C285 1.375 . S
C286 C287 1.367 . S
C286 H300 0.951 . S
C287 C283 1.383 . S
C287 C286 1.367 . S
C287 H301 0.950 . S
C288 C285 1.481 . S
C288 C289 1.297 . S
C288 H302 0.950 . S
C289 C288 1.297 . S
C289 C290 1.479 . S
C289 H303 0.950 . S
C290 C289 1.479 . S
C290 C291 1.375 . S
C290 C296 1.404 . S
C291 C290 1.375 . S
C291 C292 1.369 . S
C291 H304 0.950 . S
C292 C291 1.369 . S
C292 C293 1.392 . S
C292 H305 0.951 . S
C293 C292 1.392 . S
C293 C295 1.384 . S
H294 C296 0.949 . S
C295 C293 1.384 . S
C295 C296 1.385 . S
C295 H297 0.950 . S
C296 C290 1.404 . S
C296 H294 0.949 . S
C296 C295 1.385 . S
H297 C295 0.950 . S
H298 C282 0.951 . S
H299 C284 0.951 . S
H300 C286 0.951 . S
H301 C287 0.950 . S
H302 C288 0.950 . S
H303 C289 0.950 . S
H304 C291 0.950 . S
H305 C292 0.951 . S
C306 C307 1.386 . S
C306 C308 1.383 . S
C306 H322 0.951 . S
C307 C306 1.386 . S
C307 C311 1.383 . S
C308 C306 1.383 . S
C308 C309 1.402 . S
C308 H323 0.951 . S
C309 C308 1.402 . S
C309 C310 1.375 . S
C309 C312 1.481 . S
C310 C309 1.375 . S
C310 C311 1.367 . S
C310 H324 0.951 . S
C311 C307 1.383 . S
C311 C310 1.367 . S
C311 H325 0.950 . S
C312 C309 1.481 . S
C312 C313 1.297 . S
C312 H326 0.950 . S
C313 C312 1.297 . S
C313 C314 1.479 . S
C313 H327 0.950 . S
C314 C313 1.479 . S
C314 C315 1.375 . S
C314 C320 1.404 . S
C315 C314 1.375 . S
C315 C316 1.369 . S
C315 H328 0.950 . S
C316 C315 1.369 . S
C316 C317 1.392 . S
C316 H329 0.951 . S
C317 C316 1.392 . S
C317 C319 1.384 . S
H318 C320 0.949 . S
C319 C317 1.384 . S
C319 C320 1.385 . S
C319 H321 0.950 . S
C320 C314 1.404 . S
C320 H318 0.949 . S
C320 C319 1.385 . S
H321 C319 0.950 . S
H322 C306 0.951 . S
H323 C308 0.951 . S
H324 C310 0.951 . S
H325 C311 0.950 . S
H326 C312 0.950 . S
H327 C313 0.950 . S
H328 C315 0.950 . S
H329 C316 0.951 . S
C330 C331 1.386 . S
C330 C332 1.383 . S
C330 H346 0.951 1_545 S
C331 C330 1.386 . S
C331 C335 1.383 . S
C332 C330 1.383 . S
C332 C333 1.402 . S
C332 H347 0.951 1_545 S
C333 C332 1.402 . S
C333 C334 1.375 . S
C333 C336 1.481 . S
C334 C333 1.375 . S
C334 C335 1.367 . S
C334 H348 0.951 . S
C335 C331 1.383 . S
C335 C334 1.367 . S
C335 H349 0.950 . S
C336 C333 1.481 . S
C336 C337 1.297 . S
C336 H350 0.950 . S
C337 C336 1.297 . S
C337 C338 1.479 . S
C337 H351 0.950 1_545 S
C338 C337 1.479 . S
C338 C339 1.375 1_545 S
C338 C344 1.404 . S
C339 C338 1.375 1_565 S
C339 C340 1.369 . S
C339 H352 0.950 . S
C340 C339 1.369 . S
C340 C341 1.392 1_565 S
C340 H353 0.951 . S
C341 C340 1.392 1_545 S
C341 C343 1.384 . S
H342 C344 0.949 . S
C343 C341 1.384 . S
C343 C344 1.385 . S
C343 H345 0.950 . S
C344 C338 1.404 . S
C344 H342 0.949 . S
C344 C343 1.385 . S
H345 C343 0.950 . S
H346 C330 0.951 1_565 S
H347 C332 0.951 1_565 S
H348 C334 0.951 . S
H349 C335 0.950 . S
H350 C336 0.950 . S
H351 C337 0.950 1_565 S
H352 C339 0.950 . S
H353 C340 0.951 . S
C354 C355 1.386 . S
C354 C356 1.418 . S
C354 H370 0.951 . S
C355 C354 1.386 . S
C355 C359 1.383 1_554 S
C356 C354 1.418 . S
C356 C357 1.353 1_554 S
C356 H371 0.966 . S
C357 C356 1.353 1_556 S
C357 C358 1.375 . S
C357 C360 1.481 . S
C358 C357 1.375 . S
C358 C359 1.367 . S
C358 H372 0.951 . S
C359 C355 1.383 1_556 S
C359 C358 1.367 . S
C359 H373 0.950 1_655 S
C360 C357 1.481 . S
C360 C361 1.297 . S
C360 H374 0.950 . S
C361 C360 1.297 . S
C361 C362 1.479 . S
C361 H375 0.950 . S
C362 C361 1.479 . S
C362 C363 1.375 . S
C362 C368 1.404 . S
C363 C362 1.375 . S
C363 C364 1.369 . S
C363 H376 0.950 . S
C364 C363 1.369 . S
C364 C365 1.392 . S
C364 H377 0.951 . S
C365 C364 1.392 . S
C365 C367 1.384 . S
H366 C368 0.949 . S
C367 C365 1.384 . S
C367 C368 1.385 . S
C367 H369 0.950 . S
C368 C362 1.404 . S
C368 H366 0.949 . S
C368 C367 1.385 . S
H369 C367 0.950 . S
H370 C354 0.951 . S
H371 C356 0.966 . S
H372 C358 0.951 . S
H373 C359 0.950 1_455 S
H374 C360 0.950 . S
H375 C361 0.950 . S
H376 C363 0.950 . S
H377 C364 0.951 . S
C378 C379 1.386 . S
C378 C380 1.383 . S
C378 H394 0.951 . S
C379 C378 1.386 . S
C379 C383 1.378 . S
C380 C378 1.383 . S
C380 C381 1.402 . S
C380 H395 0.951 . S
C381 C380 1.402 . S
C381 C382 1.375 . S
C381 C384 1.481 . S
C382 C381 1.375 . S
C382 C383 1.377 . S
C382 H396 0.955 1_455 S
C383 C379 1.378 . S
C383 C382 1.377 . S
C383 H397 0.945 1_455 S
C384 C381 1.481 . S
C384 C385 1.297 . S
C384 H398 0.950 . S
C385 C384 1.297 . S
C385 C386 1.479 . S
C385 H399 0.950 . S
C386 C385 1.479 . S
C386 C387 1.375 . S
C386 C392 1.404 . S
C387 C386 1.375 . S
C387 C388 1.369 . S
C387 H400 0.950 . S
C388 C387 1.369 . S
C388 C389 1.392 . S
C388 H401 0.951 . S
C389 C388 1.392 . S
C389 C391 1.384 . S
H390 C392 0.949 . S
C391 C389 1.384 . S
C391 C392 1.385 . S
C391 H393 0.950 . S
C392 C386 1.404 . S
C392 H390 0.949 . S
C392 C391 1.385 . S
H393 C391 0.950 . S
H394 C378 0.951 . S
H395 C380 0.951 . S
H396 C382 0.955 1_655 S
H397 C383 0.945 1_655 S
H398 C384 0.950 . S
H399 C385 0.950 . S
H400 C387 0.950 . S
H401 C388 0.951 . S
C402 C403 1.384 1_565 S
C402 C404 1.383 . S
C402 H418 0.951 . S
C403 C402 1.384 1_545 S
C403 C407 1.384 . S
C404 C402 1.383 . S
C404 C405 1.402 1_565 S
C404 H419 0.951 . S
C405 C404 1.402 1_545 S
C405 C406 1.375 . S
C405 C408 1.481 . S
C406 C405 1.375 . S
C406 C407 1.367 . S
C406 H420 0.951 . S
C407 C403 1.384 . S
C407 C406 1.367 . S
C407 H421 0.950 . S
C408 C405 1.481 . S
C408 C409 1.297 . S
C408 H422 0.950 . S
C409 C408 1.297 . S
C409 C410 1.479 . S
C409 H423 0.950 . S
C410 C409 1.479 . S
C410 C411 1.385 . S
C410 C416 1.404 . S
C411 C410 1.385 . S
C411 C412 1.363 . S
C411 H424 0.949 1_545 S
C412 C411 1.363 . S
C412 C413 1.393 . S
C412 H425 0.946 1_545 S
C413 C412 1.393 . S
C413 C415 1.384 . S
H414 C416 0.949 . S
C415 C413 1.384 . S
C415 C416 1.385 . S
C415 H417 0.950 . S
C416 C410 1.404 . S
C416 H414 0.949 . S
C416 C415 1.385 . S
H417 C415 0.950 . S
H418 C402 0.951 . S
H419 C404 0.951 . S
H420 C406 0.951 . S
H421 C407 0.950 . S
H422 C408 0.950 . S
H423 C409 0.950 . S
H424 C411 0.949 1_565 S
H425 C412 0.946 1_565 S
C426 C427 1.345 1_556 S
C426 C428 1.418 . S
C426 H442 0.961 . S
C427 C426 1.345 1_554 S
C427 C431 1.383 . S
C428 C426 1.418 . S
C428 C429 1.402 . S
C428 H443 0.951 . S
C429 C428 1.402 . S
C429 C430 1.375 1_556 S
C429 C432 1.481 . S
C430 C429 1.375 1_554 S
C430 C431 1.367 . S
C430 H444 0.951 . S
C431 C427 1.383 . S
C431 C430 1.367 . S
C431 H445 0.950 . S
C432 C429 1.481 . S
C432 C433 1.297 . S
C432 H446 0.950 . S
C433 C432 1.297 . S
C433 C434 1.479 . S
C433 H447 0.950 . S
C434 C433 1.479 . S
C434 C435 1.375 . S
C434 C440 1.404 . S
C435 C434 1.375 . S
C435 C436 1.369 . S
C435 H448 0.950 . S
C436 C435 1.369 . S
C436 C437 1.392 . S
C436 H449 0.951 . S
C437 C436 1.392 . S
C437 C439 1.384 . S
H438 C440 0.949 . S
C439 C437 1.384 . S
C439 C440 1.385 . S
C439 H441 0.950 . S
C440 C434 1.404 . S
C440 H438 0.949 . S
C440 C439 1.385 . S
H441 C439 0.950 . S
H442 C426 0.961 . S
H443 C428 0.951 . S
H444 C430 0.951 . S
H445 C431 0.950 . S
H446 C432 0.950 . S
H447 C433 0.950 . S
H448 C435 0.950 . S
H449 C436 0.951 . S
C450 C451 1.386 . S
C450 C452 1.383 . S
C450 H466 0.951 . S
C451 C450 1.386 . S
C451 C455 1.383 . S
C452 C450 1.383 . S
C452 C453 1.402 . S
C452 H467 0.951 . S
C453 C452 1.402 . S
C453 C454 1.378 . S
C453 C456 1.481 . S
C454 C453 1.378 . S
C454 C455 1.373 . S
C454 H468 0.941 1_455 S
C455 C451 1.383 . S
C455 C454 1.373 . S
C455 H469 0.950 1_455 S
C456 C453 1.481 . S
C456 C457 1.297 . S
C456 H470 0.955 . S
C457 C456 1.297 . S
C457 C458 1.479 . S
C457 H471 0.950 . S
C458 C457 1.479 . S
C458 C459 1.375 . S
C458 C464 1.404 . S
C459 C458 1.375 . S
C459 C460 1.369 . S
C459 H472 0.950 . S
C460 C459 1.369 . S
C460 C461 1.392 . S
C460 H473 0.951 . S
C461 C460 1.392 . S
C461 C463 1.384 . S
H462 C464 0.949 1_655 S
C463 C461 1.384 . S
C463 C464 1.385 . S
C463 H465 0.950 1_455 S
C464 C458 1.404 . S
C464 H462 0.949 1_455 S
C464 C463 1.385 . S
H465 C463 0.950 1_655 S
H466 C450 0.951 . S
H467 C452 0.951 . S
H468 C454 0.941 1_655 S
H469 C455 0.950 1_655 S
H470 C456 0.955 . S
H471 C457 0.950 . S
H472 C459 0.950 . S
H473 C460 0.951 . S
C197 C63 1.324 . S
C187 C11 1.331 . S
C211 C25 1.395 . S
C221 C111 1.393 . S
C235 C41 1.382 . S
C245 C183 1.438 . S
C259 C7 1.350 . S
C269 C87 1.313 . S
C293 C135 1.381 . S
C283 C21 1.418 . S
C307 C36 1.404 . S
C317 C159 1.441 . S
C341 C120 1.371 . S
C331 C39 1.393 . S
C355 C8 1.382 1_655 S
C365 C174 1.419 . S
C389 C78 1.504 . S
C379 C22 1.457 . S
C413 C126 1.403 . S
C403 C35 1.397 1_545 S
C437 C168 1.407 . S
C427 C13 1.382 . S
C451 C27 1.425 . S
C461 C72 1.485 . S
