# Generated by pormake.
# Topology zzz, (3,6)-cn, num edge types: 1
# Building blocks:
#     Node 0, Type 0, BuildingBlock: BETDIP_clean_linker_0, # of connection points: 3
#     Node 1, Type 0, BuildingBlock: BETDIP_clean_linker_0, # of connection points: 3
#     Node 2, Type 0, BuildingBlock: BETDIP_clean_linker_0, # of connection points: 3
#     Node 3, Type 0, BuildingBlock: BETDIP_clean_linker_0, # of connection points: 3
#     Node 4, Type 0, BuildingBlock: BETDIP_clean_linker_0, # of connection points: 3
#     Node 5, Type 0, BuildingBlock: BETDIP_clean_linker_0, # of connection points: 3
#     Node 6, Type 0, BuildingBlock: BETDIP_clean_linker_0, # of connection points: 3
#     Node 7, Type 0, BuildingBlock: BETDIP_clean_linker_0, # of connection points: 3
#     Node 8, Type 1, BuildingBlock: BETGAK_clean_sbu_0, # of connection points: 6
#     Node 9, Type 1, BuildingBlock: BETGAK_clean_sbu_0, # of connection points: 6
#     Node 10, Type 1, BuildingBlock: BETGAK_clean_sbu_0, # of connection points: 6
#     Node 11, Type 1, BuildingBlock: BETGAK_clean_sbu_0, # of connection points: 6
#     Edge 12, Type (0, 1), BuildingBlock: CIFDUS_clean_linker_0, # of connection points: 2
#     Edge 13, Type (0, 1), BuildingBlock: CIFDUS_clean_linker_0, # of connection points: 2
#     Edge 14, Type (0, 1), BuildingBlock: CIFDUS_clean_linker_0, # of connection points: 2
#     Edge 15, Type (0, 1), BuildingBlock: CIFDUS_clean_linker_0, # of connection points: 2
#     Edge 16, Type (0, 1), BuildingBlock: CIFDUS_clean_linker_0, # of connection points: 2
#     Edge 17, Type (0, 1), BuildingBlock: CIFDUS_clean_linker_0, # of connection points: 2
#     Edge 18, Type (0, 1), BuildingBlock: CIFDUS_clean_linker_0, # of connection points: 2
#     Edge 19, Type (0, 1), BuildingBlock: CIFDUS_clean_linker_0, # of connection points: 2
#     Edge 20, Type (0, 1), BuildingBlock: CIFDUS_clean_linker_0, # of connection points: 2
#     Edge 21, Type (0, 1), BuildingBlock: CIFDUS_clean_linker_0, # of connection points: 2
#     Edge 22, Type (0, 1), BuildingBlock: CIFDUS_clean_linker_0, # of connection points: 2
#     Edge 23, Type (0, 1), BuildingBlock: CIFDUS_clean_linker_0, # of connection points: 2
#     Edge 24, Type (0, 1), BuildingBlock: CIFDUS_clean_linker_0, # of connection points: 2
#     Edge 25, Type (0, 1), BuildingBlock: CIFDUS_clean_linker_0, # of connection points: 2
#     Edge 26, Type (0, 1), BuildingBlock: CIFDUS_clean_linker_0, # of connection points: 2
#     Edge 27, Type (0, 1), BuildingBlock: CIFDUS_clean_linker_0, # of connection points: 2
#     Edge 28, Type (0, 1), BuildingBlock: CIFDUS_clean_linker_0, # of connection points: 2
#     Edge 29, Type (0, 1), BuildingBlock: CIFDUS_clean_linker_0, # of connection points: 2
#     Edge 30, Type (0, 1), BuildingBlock: CIFDUS_clean_linker_0, # of connection points: 2
#     Edge 31, Type (0, 1), BuildingBlock: CIFDUS_clean_linker_0, # of connection points: 2
#     Edge 32, Type (0, 1), BuildingBlock: CIFDUS_clean_linker_0, # of connection points: 2
#     Edge 33, Type (0, 1), BuildingBlock: CIFDUS_clean_linker_0, # of connection points: 2
#     Edge 34, Type (0, 1), BuildingBlock: CIFDUS_clean_linker_0, # of connection points: 2
#     Edge 35, Type (0, 1), BuildingBlock: CIFDUS_clean_linker_0, # of connection points: 2
# Relax obj value: 0.316
# Max RMSD: 0.202
# Mean RMSD: 0.161
data_MOF--net-zzz--node1-BETGAK_clean_sbu_0--node2-BETDIP_clean_linker_0--edge1-CIFDUS_clean_linker_0
_symmetry_space_group_name_H-M    P1
_symmetry_Int_Tables_number       1
_symmetry_cell_setting            triclinic
loop_
_symmetry_equiv_pos_as_xyz
'x, y, z'
_cell_length_a     46.203743
_cell_length_b     46.315622
_cell_length_c     11.899522
_cell_angle_alpha  89.723186
_cell_angle_beta   90.147442
_cell_angle_gamma 90.189935
loop_
_atom_site_label
_atom_site_type_symbol
_atom_site_fract_x
_atom_site_fract_y
_atom_site_fract_z
_atom_type_partial_charge
H0 H 0.76716 0.51363 0.57184 0.0
H1 H 0.73562 0.5565 0.27267 0.0
H2 H 0.82426 0.56641 0.37153 0.0
H3 H 0.71413 0.48808 0.32225 0.0
C4 C 0.70399 0.5077 0.35225 0.0
C5 C 0.77086 0.52805 0.50141 0.0
C6 C 0.79936 0.53913 0.48087 0.0
C7 C 0.74751 0.53451 0.42545 0.0
C8 C 0.75274 0.55245 0.33303 0.0
C9 C 0.78005 0.5643 0.31445 0.0
C10 C 0.80282 0.55802 0.38938 0.0
N11 N 0.71869 0.52346 0.43944 0.0
H12 H 1.00028 0.7694 0.44732 0.0
H13 H 0.07195 0.74254 0.24002 0.0
H14 H 0.0754 0.82353 0.41239 0.0
H15 H 0.05614 0.69635 0.33101 0.0
C16 C 0.03504 0.69925 0.29191 0.0
C17 C 0.02193 0.7729 0.41535 0.0
C18 C 0.03692 0.79895 0.44116 0.0
C19 C 0.03504 0.75164 0.34558 0.0
C20 C 0.06256 0.7574 0.29966 0.0
C21 C 0.07721 0.78318 0.32333 0.0
C22 C 0.06457 0.80312 0.39655 0.0
N23 N 0.01996 0.72573 0.31346 0.0
H24 H 0.77202 1.00342 0.51624 0.0
H25 H 0.79379 0.02312 0.17122 0.0
H26 H 0.70518 0.02344 0.27471 0.0
H27 H 0.83141 0.96953 0.28994 0.0
C28 C 0.83623 0.99238 0.29824 0.0
C29 C 0.76532 1.00845 0.43114 0.0
C30 C 0.7352 1.01157 0.40561 0.0
C31 C 0.78669 1.01131 0.34444 0.0
C32 C 0.77781 0.01908 0.23599 0.0
C33 C 0.7487 0.0238 0.21256 0.0
C34 C 0.72769 0.01923 0.29532 0.0
N35 N 0.81717 1.00943 0.36622 0.0
H36 H 0.54595 0.75962 0.45693 0.0
H37 H 0.46768 0.7896 0.29575 0.0
H38 H 0.46756 0.70996 0.48073 0.0
H39 H 0.48959 0.83565 0.36668 0.0
C40 C 0.509 0.83128 0.31825 0.0
C41 C 0.523 0.75728 0.44064 0.0
C42 C 0.50792 0.73264 0.48229 0.0
C43 C 0.50809 0.77904 0.3783 0.0
C44 C 0.47868 0.77462 0.3514 0.0
C45 C 0.46401 0.7497 0.38746 0.0
C46 C 0.4785 0.72979 0.45652 0.0
N47 N 0.52302 0.80392 0.33426 0.0
H48 H 0.27188 0.49496 0.09903 0.0
H49 H 0.29742 0.55868 0.34478 0.0
H50 H 0.21409 0.56395 0.18716 0.0
H51 H 0.34441 0.54883 0.23275 0.0
C52 C 0.34215 0.52718 0.26746 0.0
C53 C 0.2675 0.51457 0.14503 0.0
C54 C 0.24029 0.52877 0.13091 0.0
C55 C 0.28892 0.52591 0.22037 0.0
C56 C 0.28228 0.55075 0.28235 0.0
C57 C 0.25553 0.56443 0.27046 0.0
C58 C 0.23513 0.55368 0.19365 0.0
N59 N 0.31598 0.51149 0.24189 0.0
H60 H 0.05226 0.25072 0.18404 0.0
H61 H 0.97292 0.28816 0.30692 0.0
H62 H 0.97086 0.20791 0.12938 0.0
H63 H 1.00117 0.33162 0.23106 0.0
C64 C 1.01798 0.3264 0.29189 0.0
C65 C 0.0289 0.2504 0.19065 0.0
C66 C 1.01293 0.22687 0.1451 0.0
C67 C 1.01428 0.27375 0.24363 0.0
C68 C 0.98405 0.272 0.25781 0.0
C69 C 0.96836 0.24833 0.21695 0.0
C70 C 0.98285 0.22677 0.15723 0.0
N71 N 0.02986 0.29779 0.29038 0.0
H72 H 0.27124 0.03725 0.09022 0.0
H73 H 0.23704 0.96782 0.29435 0.0
H74 H 0.32215 0.96146 0.15175 0.0
H75 H 0.18998 0.99185 0.171 0.0
C76 C 0.1966 1.00835 0.23045 0.0
C77 C 0.27328 1.01575 0.12539 0.0
C78 C 0.29926 0.99988 0.10842 0.0
C79 C 0.25018 1.00382 0.19072 0.0
C80 C 0.25373 0.97636 0.2396 0.0
C81 C 0.27969 0.96109 0.22737 0.0
C82 C 0.30173 0.97275 0.15944 0.0
N83 N 0.22515 0.02054 0.21981 0.0
H84 H 0.49387 0.26998 0.14335 0.0
H85 H 0.57152 0.24053 0.31072 0.0
H86 H 0.57085 0.32211 0.13898 0.0
H87 H 0.55168 0.1946 0.22709 0.0
C88 C 0.53155 0.19778 0.2724 0.0
C89 C 0.51657 0.27281 0.16346 0.0
C90 C 0.53122 0.29833 0.12871 0.0
C91 C 0.53159 0.2508 0.22378 0.0
C92 C 0.56058 0.25579 0.25612 0.0
C93 C 0.5748 0.28148 0.22588 0.0
C94 C 0.56029 0.30174 0.15863 0.0
N95 N 0.51701 0.22496 0.2601 0.0
La96 La 0.03744 1.00469 0.87489 0.0
La97 La 0.99746 0.02559 0.67308 0.0
C98 C 0.05559 0.98547 0.05932 0.0
C99 C 0.07832 0.96478 0.08882 0.0
C100 C 0.09742 0.95461 1.00647 0.0
C101 C 0.11695 0.93254 0.03207 0.0
C102 C 0.11769 0.92047 0.14053 0.0
C103 C 0.09963 0.93199 0.22424 0.0
C104 C 0.07992 0.95377 0.19818 0.0
C105 C 0.06928 1.01471 0.68973 0.0
C106 C 1.01738 0.95935 0.68638 0.0
C107 C 0.97649 0.04543 0.49441 0.0
C108 C 0.9547 0.06799 0.47616 0.0
C109 C 0.93855 0.0784 0.56713 0.0
C110 C 0.92237 0.10366 0.55623 0.0
C111 C 0.92243 0.11919 0.45455 0.0
C112 C 0.93659 0.10721 0.36083 0.0
C113 C 0.95265 0.08182 0.37176 0.0
C114 C 0.96673 1.0165 0.86379 0.0
C115 C 0.02087 0.07195 0.84799 0.0
O116 O 0.06467 1.00975 0.01433 0.0
O117 O 0.03316 0.9746 1.00603 0.0
O118 O 0.07943 1.00656 0.78628 0.0
O119 O 0.0422 1.01713 0.70322 0.0
O120 O 0.02762 0.96299 0.79049 0.0
O121 O 1.00739 0.98123 0.625 0.0
O122 O 0.96715 0.02161 0.54251 0.0
O123 O 1.00089 0.05469 0.53843 0.0
O124 O 0.95613 0.02573 0.76983 0.0
O125 O 0.99327 1.01309 0.84426 0.0
O126 O 1.01057 0.06675 0.74578 0.0
O127 O 0.02959 0.05077 0.91644 0.0
H128 H 0.09634 0.96281 0.92123 0.0
H129 H 0.13037 0.92387 0.96586 0.0
H130 H 0.0991 0.92267 0.30789 0.0
H131 H 0.06508 0.96112 0.26229 0.0
H132 H 0.93989 0.06811 0.64865 0.0
H133 H 0.91156 0.11215 0.62962 0.0
H134 H 0.93752 0.11873 0.28149 0.0
H135 H 0.96501 0.07412 0.30074 0.0
La136 La 0.52757 0.03249 0.85482 0.0
La137 La 0.50966 0.99129 0.70373 0.0
C138 C 0.55168 0.06544 0.99452 0.0
C139 C 0.57654 0.08464 0.9797 0.0
C140 C 0.58828 0.08858 0.87198 0.0
C141 C 0.61618 0.09969 0.85987 0.0
C142 C 0.63256 0.10665 0.95557 0.0
C143 C 0.619 0.10671 0.06141 0.0
C144 C 0.59115 0.09542 0.07353 0.0
C145 C 0.50998 0.05692 0.66243 0.0
C146 C 0.57531 1.00639 0.68752 0.0
C147 C 0.48476 0.96057 0.55781 0.0
C148 C 0.45765 0.9439 0.55141 0.0
C149 C 0.45809 0.91544 0.51163 0.0
C150 C 0.43221 0.9003 0.4943 0.0
C151 C 0.40542 0.9135 0.51614 0.0
C152 C 0.40538 0.94137 0.56346 0.0
C153 C 0.43117 0.95633 0.58121 0.0
C154 C 0.52751 0.9668 0.89616 0.0
C155 C 0.46254 1.01596 0.87399 0.0
O156 O 0.52877 0.07248 0.93671 0.0
O157 O 0.55754 0.03791 0.98606 0.0
O158 O 0.50285 0.065 0.7619 0.0
O159 O 0.52536 0.03451 0.67298 0.0
O160 O 0.57081 0.01933 0.78536 0.0
O161 O 0.55267 0.99683 0.63078 0.0
O162 O 0.50416 0.95075 0.62767 0.0
O163 O 0.48253 0.98869 0.56249 0.0
O164 O 0.53387 0.95816 0.79638 0.0
O165 O 0.51224 0.98929 0.88572 0.0
O166 O 0.46676 1.00504 0.77258 0.0
O167 O 0.48545 0.02411 0.93248 0.0
H168 H 0.57701 0.0806 0.79837 0.0
H169 H 0.6262 0.09936 0.77765 0.0
H170 H 0.6312 0.11177 0.13673 0.0
H171 H 0.58219 0.09272 0.15694 0.0
H172 H 0.47843 0.90527 0.49064 0.0
H173 H 0.43316 0.87879 0.45924 0.0
H174 H 0.38538 0.95269 0.57976 0.0
H175 H 0.43019 0.9781 0.61372 0.0
La176 La 0.49943 0.5201 0.89933 0.0
La177 La 0.54311 0.51291 0.73905 0.0
C178 C 0.46847 0.53904 0.05684 0.0
C179 C 0.45619 0.56797 0.07617 0.0
C180 C 0.42615 0.57164 0.08874 0.0
C181 C 0.41428 0.59943 0.09591 0.0
C182 C 0.43235 0.62378 0.08799 0.0
C183 C 0.46237 0.61993 0.0785 0.0
C184 C 0.47416 0.59242 0.07301 0.0
C185 C 0.47696 0.50891 0.69724 0.0
C186 C 0.524 0.57612 0.76404 0.0
C187 C 0.57493 0.49424 0.58309 0.0
C188 C 0.58552 0.46496 0.55772 0.0
C189 C 0.61521 0.45987 0.54126 0.0
C190 C 0.62552 0.43157 0.52907 0.0
C191 C 0.60623 0.40811 0.53523 0.0
C192 C 0.57652 0.41346 0.5476 0.0
C193 C 0.56627 0.44148 0.55841 0.0
C194 C 0.56488 0.52353 0.94436 0.0
C195 C 0.51761 0.45687 0.86912 0.0
O196 O 0.45807 0.52535 0.97009 0.0
O197 O 0.49667 0.5369 0.06248 0.0
O198 O 0.46838 0.49766 0.79116 0.0
O199 O 0.49835 0.52538 0.71859 0.0
O200 O 0.5103 0.56569 0.85369 0.0
O201 O 0.53719 0.55824 0.69567 0.0
O202 O 0.58494 0.50555 0.67548 0.0
O203 O 0.54706 0.4984 0.57287 0.0
O204 O 0.57325 0.53566 0.85168 0.0
O205 O 0.54392 0.50696 0.91934 0.0
O206 O 0.53069 0.46748 0.77854 0.0
O207 O 0.50562 0.47467 0.94108 0.0
H208 H 0.41188 0.55304 0.09119 0.0
H209 H 0.39113 0.60192 0.10578 0.0
H210 H 0.47689 0.63835 0.07583 0.0
H211 H 0.49739 0.59047 0.06373 0.0
H212 H 0.63043 0.47771 0.53982 0.0
H213 H 0.64845 0.42797 0.51703 0.0
H214 H 0.56104 0.39582 0.54892 0.0
H215 H 0.54325 0.44459 0.57002 0.0
La216 La 1.01256 0.49587 0.87246 0.0
La217 La 0.03149 0.5322 0.6991 0.0
C218 C 0.98382 0.47784 0.03595 0.0
C219 C 0.95627 0.49108 0.06659 0.0
C220 C 0.93194 0.47393 0.08803 0.0
C221 C 0.90433 0.48611 0.08315 0.0
C222 C 0.90073 0.51542 0.05318 0.0
C223 C 0.92541 0.53265 0.03717 0.0
C224 C 0.9528 0.52077 0.04611 0.0
C225 C 0.02987 0.46524 0.69609 0.0
C226 C 0.96596 0.51919 0.69752 0.0
C227 C 0.0547 0.55793 0.53599 0.0
C228 C 0.07743 0.57969 0.52464 0.0
C229 C 0.09023 0.59247 0.61933 0.0
C230 C 0.11391 0.6111 0.60639 0.0
C231 C 0.12489 0.61714 0.49859 0.0
C232 C 0.11046 0.60572 0.40411 0.0
C233 C 0.08712 0.58697 0.41743 0.0
C234 C 1.01552 0.56218 0.88151 0.0
C235 C 0.07935 0.50755 0.87412 0.0
O236 O 0.98339 0.46522 0.93805 0.0
O237 O 1.00647 0.49455 0.04736 0.0
O238 O 0.0343 0.45832 0.80034 0.0
O239 O 1.01559 0.48857 0.69368 0.0
O240 O 0.97102 0.51437 0.80556 0.0
O241 O 0.98862 0.52162 0.63097 0.0
O242 O 0.03116 0.56672 0.58515 0.0
O243 O 0.06298 0.53252 0.57224 0.0
O244 O 1.00996 0.56934 0.77889 0.0
O245 O 0.02959 0.53895 0.87739 0.0
O246 O 0.07443 0.52143 0.77765 0.0
O247 O 0.05738 0.49615 0.92993 0.0
H248 H 0.93417 0.45094 0.1028 0.0
H249 H 0.88588 0.47236 0.10046 0.0
H250 H 0.92383 0.55509 0.01226 0.0
H251 H 0.97119 0.53452 0.02748 0.0
H252 H 0.08272 0.58707 0.70306 0.0
H253 H 0.12464 0.6194 0.68058 0.0
H254 H 0.11865 0.60922 0.31992 0.0
H255 H 0.07752 0.57689 0.34438 0.0
H256 H 0.13727 1.00632 0.22604 0.0
H257 H 0.20908 0.0262 0.44474 0.0
H258 H 0.17576 0.03124 0.60329 0.0
H259 H 0.12666 0.02635 0.68333 0.0
H260 H 0.05395 1.01027 0.46476 0.0
H261 H 0.08684 1.00891 0.30228 0.0
C262 C 0.14556 1.0123 0.30807 0.0
C263 C 0.17584 1.01584 0.32308 0.0
C264 C 0.12603 1.01582 0.39901 0.0
C265 C 0.18607 0.02357 0.43006 0.0
C266 C 0.16695 0.02627 0.52111 0.0
C267 C 0.11788 0.02278 0.5999 0.0
C268 C 0.08774 1.0182 0.58683 0.0
C269 C 0.13697 0.02192 0.50712 0.0
C270 C 0.07688 1.0139 0.47778 0.0
C271 C 0.09582 1.0127 0.38499 0.0
H272 H 0.55046 0.14242 0.2742 0.0
H273 H 0.4893 0.19842 0.43664 0.0
H274 H 0.47601 0.15927 0.56651 0.0
H275 H 0.48398 0.10977 0.64168 0.0
H276 H 0.54463 0.0537 0.47623 0.0
H277 H 0.55557 0.09187 0.33971 0.0
C278 C 0.53398 0.14598 0.33736 0.0
C279 C 0.52097 0.17347 0.34554 0.0
C280 C 0.52637 0.12324 0.41154 0.0
C281 C 0.49962 0.1776 0.42779 0.0
C282 C 0.49209 0.15516 0.50247 0.0
C283 C 0.49931 0.10575 0.57476 0.0
C284 C 0.51351 0.07874 0.56991 0.0
C285 C 0.50559 0.12798 0.49622 0.0
C286 C 0.53328 0.07407 0.4823 0.0
C287 C 0.53967 0.09602 0.40433 0.0
H288 H 0.39526 0.55117 0.29713 0.0
H289 H 0.34221 0.48091 0.41708 0.0
H290 H 0.37959 0.4684 0.55622 0.0
H291 H 0.42661 0.47914 0.65129 0.0
H292 H 0.48001 0.5486 0.52541 0.0
H293 H 0.44375 0.55928 0.38064 0.0
C294 C 0.39203 0.53279 0.35249 0.0
C295 C 0.36579 0.51698 0.34573 0.0
C296 C 0.41383 0.52562 0.43185 0.0
C297 C 0.36206 0.4934 0.4192 0.0
C298 C 0.38349 0.48632 0.49934 0.0
C299 C 0.4305 0.49643 0.59144 0.0
C300 C 0.45623 0.51311 0.60042 0.0
C301 C 0.40936 0.50249 0.50757 0.0
C302 C 0.46067 0.53535 0.52131 0.0
C303 C 0.43978 0.54157 0.43851 0.0
H304 H 1.0039 0.38294 0.282 0.0
H305 H 0.05012 0.32183 0.48856 0.0
H306 H 0.059 0.35957 0.6291 0.0
H307 H 0.05127 0.40974 0.6982 0.0
H308 H 1.00565 0.47055 0.48739 0.0
H309 H 0.99919 0.43345 0.34404 0.0
C310 C 1.01619 0.37792 0.35733 0.0
C311 C 0.02628 0.34946 0.3744 0.0
C312 C 0.02125 0.3998 0.43753 0.0
C313 C 0.04218 0.34344 0.47258 0.0
C314 C 0.04716 0.36508 0.55331 0.0
C315 C 0.04016 0.41496 0.6204 0.0
C316 C 0.02882 0.44308 0.60447 0.0
C317 C 0.03648 0.39331 0.53748 0.0
C318 C 1.01458 0.44929 0.50262 0.0
C319 C 1.01079 0.42797 0.42046 0.0
H320 H 0.88632 0.96447 0.24607 0.0
H321 H 0.84353 0.04628 0.20241 0.0
H322 H 0.88115 0.06159 0.06942 0.0
H323 H 0.92373 0.04968 0.95041 0.0
H324 H 0.96921 0.96991 0.00723 0.0
H325 H 0.93355 0.95601 0.15075 0.0
C326 C 0.88555 0.9859 0.20916 0.0
C327 C 0.86182 1.00409 0.23402 0.0
C328 C 0.90779 0.99484 0.13443 0.0
C329 C 0.86136 0.03182 0.18559 0.0
C330 C 0.88288 0.04052 0.10877 0.0
C331 C 0.92624 0.02954 0.99623 0.0
C332 C 0.94925 1.01084 0.96772 0.0
C333 C 0.90584 0.02197 0.08042 0.0
C334 C 0.95207 0.98485 0.02796 0.0
C335 C 0.93143 0.97679 0.10945 0.0
H336 H 0.49037 0.8865 0.30567 0.0
H337 H 0.54926 0.82767 0.1463 0.0
H338 H 0.56124 0.86477 1.00542 0.0
H339 H 0.55287 0.91345 0.92117 0.0
H340 H 0.49503 0.97241 0.08679 0.0
H341 H 0.48521 0.93615 0.23199 0.0
C342 C 0.50618 0.88191 0.24111 0.0
C343 C 0.51891 0.85423 0.23717 0.0
C344 C 0.51312 0.9035 0.16106 0.0
C345 C 0.5392 0.84869 0.15219 0.0
C346 C 0.54598 0.86996 0.07123 0.0
C347 C 0.53839 0.9185 0.98981 0.0
C348 C 0.52463 0.94579 0.99212 0.0
C349 C 0.53281 0.89738 0.07388 0.0
C350 C 0.50598 0.9518 0.08225 0.0
C351 C 0.50022 0.93094 0.1653 0.0
H352 H 0.66154 0.47257 0.27109 0.0
H353 H 0.6833 0.56257 0.30565 0.0
H354 H 0.64215 0.57565 0.18476 0.0
H355 H 0.60177 0.56101 0.05531 0.0
H356 H 0.57756 0.47117 0.03837 0.0
H357 H 0.61722 0.45867 0.16604 0.0
C358 C 0.65697 0.49513 0.25394 0.0
C359 C 0.67585 0.51651 0.29727 0.0
C360 C 0.63272 0.50252 0.18632 0.0
C361 C 0.66935 0.5456 0.27422 0.0
C362 C 0.64579 0.55307 0.20419 0.0
C363 C 0.60489 0.53876 0.0811 0.0
C364 C 0.58653 0.51708 0.03612 0.0
C365 C 0.6276 0.53169 0.15763 0.0
C366 C 0.59102 0.48838 0.07134 0.0
C367 C 0.61392 0.48116 0.1442 0.0
H368 H 0.05957 0.64721 0.26214 0.0
H369 H 0.98801 0.69861 0.14465 0.0
H370 H 0.97495 0.66058 0.00966 0.0
H371 H 0.98545 0.61288 0.9188 0.0
H372 H 0.05676 0.56208 0.04447 0.0
H373 H 0.06888 0.60001 0.17758 0.0
C374 C 0.04093 0.65006 0.20762 0.0
C375 C 0.0248 0.67583 0.2141 0.0
C376 C 0.03359 0.62811 0.13055 0.0
C377 C 1.00075 0.67904 0.14242 0.0
C378 C 0.99335 0.65725 0.06478 0.0
C379 C 1.00327 0.6099 0.97709 0.0
C380 C 0.02007 0.58439 0.97127 0.0
C381 C 1.00975 0.63168 0.05732 0.0
C382 C 0.04318 0.58109 0.04727 0.0
C383 C 0.0501 0.6028 0.12432 0.0
H384 H 0.95228 0.24516 0.43349 0.0
H385 H 0.91948 0.23325 0.09825 0.0
H386 H 0.89192 0.19109 0.15989 0.0
H387 H 0.8944 0.14908 0.28779 0.0
H388 H 0.9328 0.15947 0.61626 0.0
H389 H 0.93991 0.21053 0.58083 0.0
C390 C 0.93762 0.23446 0.37557 0.0
C391 C 0.93922 0.24099 0.26041 0.0
C392 C 0.92374 0.20897 0.41006 0.0
C393 C 0.9193 0.22784 0.18695 0.0
C394 C 0.90405 0.20328 0.22175 0.0
C395 C 0.90327 0.1628 0.3531 0.0
C396 C 0.91422 0.1502 0.45223 0.0
C397 C 0.90879 0.19205 0.3299 0.0
C398 C 0.92463 0.16834 0.53807 0.0
C399 C 0.92903 0.19768 0.51748 0.0
H400 H 0.30879 0.91178 0.17601 0.0
H401 H 0.2681 0.95566 0.45215 0.0
H402 H 0.30118 0.9327 0.58364 0.0
H403 H 0.35116 0.91634 0.60713 0.0
H404 H 0.39729 0.88343 0.32014 0.0
H405 H 0.35323 0.88455 0.20928 0.0
C406 C 0.30653 0.91541 0.2656 0.0
C407 C 0.28717 0.93662 0.30339 0.0
C408 C 0.32762 0.90461 0.3393 0.0
C409 C 0.28333 0.94006 0.41983 0.0
C410 C 0.30267 0.92727 0.49533 0.0
C411 C 0.35138 0.90872 0.52109 0.0
C412 C 0.37788 0.90144 0.47056 0.0
C413 C 0.32659 0.91208 0.45424 0.0
C414 C 0.37749 0.88992 0.36124 0.0
C415 C 0.35224 0.89091 0.29674 0.0
H416 H 0.58392 0.28218 0.44981 0.0
H417 H 0.62421 0.30523 0.13608 0.0
H418 H 0.64624 0.34757 0.22286 0.0
H419 H 0.6377 0.38548 0.36454 0.0
H420 H 0.59534 0.36291 0.6748 0.0
H421 H 0.59092 0.31285 0.6145 0.0
C422 C 0.599 0.29541 0.4022 0.0
C423 C 0.60115 0.29166 0.28547 0.0
C424 C 0.61023 0.32055 0.45136 0.0
C425 C 0.62151 0.30835 0.22563 0.0
C426 C 0.63366 0.33292 0.27477 0.0
C427 C 0.6289 0.36926 0.42108 0.0
C428 C 0.61573 0.37786 0.52167 0.0
C429 C 0.62569 0.34063 0.38419 0.0
C430 C 0.60476 0.35671 0.59531 0.0
C431 C 0.60215 0.32812 0.56065 0.0
H432 H 0.23196 0.61687 0.22652 0.0
H433 H 0.25664 0.56005 0.49771 0.0
H434 H 0.22072 0.58199 0.61949 0.0
H435 H 0.17241 0.60296 0.61945 0.0
H436 H 0.14463 0.65612 0.34134 0.0
H437 H 0.19202 0.65114 0.25371 0.0
C438 C 0.23038 0.61042 0.31409 0.0
C439 C 0.24596 0.58629 0.35224 0.0
C440 C 0.20854 0.62204 0.3815 0.0
C441 C 0.24446 0.57834 0.46612 0.0
C442 C 0.22362 0.59065 0.53545 0.0
C443 C 0.17717 0.61486 0.54291 0.0
C444 C 0.15466 0.62851 0.48348 0.0
C445 C 0.20385 0.61047 0.49019 0.0
C446 C 0.16142 0.64451 0.38623 0.0
C447 C 0.18842 0.64139 0.33548 0.0
H448 H 0.1272 0.80872 0.39354 0.0
H449 H 0.08202 0.7815 0.09515 0.0
H450 H 0.10211 0.82206 0.99089 0.0
H451 H 0.11429 0.87315 0.01031 0.0
H452 H 0.15139 0.90419 0.31985 0.0
H453 H 0.1531 0.85493 0.39363 0.0
C454 C 0.12306 0.81094 0.3041 0.0
C455 C 0.10189 0.79329 0.25376 0.0
C456 C 0.13226 0.83602 0.24808 0.0
C457 C 0.09754 0.79536 0.13706 0.0
C458 C 0.1086 0.819 0.07774 0.0
C459 C 0.12421 0.86897 0.0915 0.0
C460 C 0.1317 0.89223 0.16144 0.0
C461 C 0.12321 0.84092 0.13597 0.0
C462 C 0.14478 0.88656 0.26593 0.0
C463 C 0.14556 0.85841 0.30833 0.0
H464 H 0.74801 0.08042 0.1727 0.0
H465 H 0.72716 0.99818 0.02593 0.0
H466 H 0.69326 0.0214 0.89667 0.0
H467 H 0.65986 0.06129 0.87382 0.0
H468 H 0.67498 0.14183 0.04324 0.0
H469 H 0.7214 0.12376 0.11361 0.0
C470 C 0.73712 0.06803 0.10787 0.0
C471 C 0.73967 0.03785 0.10784 0.0
C472 C 0.71627 0.08134 0.03984 0.0
C473 C 0.72541 0.0215 0.02595 0.0
C474 C 0.70585 0.03479 0.95313 0.0
C475 C 0.67425 0.07558 0.91945 0.0
C476 C 0.66421 0.10276 0.95331 0.0
C477 C 0.69961 0.06425 0.9656 0.0
C478 C 0.68242 0.12081 0.01637 0.0
C479 C 0.70873 0.11031 0.0576 0.0
H480 H 0.45268 0.74932 0.16463 0.0
H481 H 0.41512 0.72619 0.48344 0.0
H482 H 0.39231 0.68392 0.39923 0.0
H483 H 0.40039 0.64592 0.25762 0.0
H484 H 0.4406 0.66844 0.94296 0.0
H485 H 0.44439 0.71871 1.001 0.0
C486 C 0.43803 0.7361 0.21424 0.0
C487 C 0.43706 0.73966 0.33137 0.0
C488 C 0.42637 0.711 0.16636 0.0
C489 C 0.41708 0.72309 0.39359 0.0
C490 C 0.40445 0.69858 0.34581 0.0
C491 C 0.40846 0.66217 0.19957 0.0
C492 C 0.4213 0.65355 0.09839 0.0
C493 C 0.41156 0.69088 0.23549 0.0
C494 C 0.43134 0.6747 0.02273 0.0
C495 C 0.43368 0.7034 0.05625 0.0
H496 H 0.77131 0.53831 0.11613 0.0
H497 H 0.80678 0.61594 0.25697 0.0
H498 H 0.85142 0.60913 0.15199 0.0
H499 H 0.88453 0.57081 0.09841 0.0
H500 H 0.85075 0.48934 0.97841 0.0
H501 H 0.80161 0.50688 1.00328 0.0
C502 C 0.78823 0.55462 0.11845 0.0
C503 C 0.78755 0.57578 0.20235 0.0
C504 C 0.81491 0.54836 0.06939 0.0
C505 C 0.80792 0.59832 0.19761 0.0
C506 C 0.83384 0.59388 0.14043 0.0
C507 C 0.86668 0.55713 0.07272 0.0
C508 C 0.87145 0.5282 0.0421 0.0
C509 C 0.83855 0.56718 0.08833 0.0
C510 C 0.84771 0.51108 0.00915 0.0
C511 C 0.81957 0.52128 0.02107 0.0
H512 H 1.0028 0.20595 0.93647 0.0
H513 H 0.04896 0.18641 0.24167 0.0
H514 H 0.05637 0.13655 0.17767 0.0
H515 H 0.04497 0.09675 0.04144 0.0
H516 H 0.99735 0.11816 0.73931 0.0
H517 H 0.99515 0.16824 0.79586 0.0
C518 C 1.01538 0.19106 0.98737 0.0
C519 C 0.02577 0.20028 0.09303 0.0
C520 C 1.01863 0.1622 0.9516 0.0
C521 C 0.04138 0.18033 0.15887 0.0
C522 C 0.04513 0.15157 0.12293 0.0
C523 C 0.03428 0.11238 0.98762 0.0
C524 C 0.02123 0.10306 0.88587 0.0
C525 C 0.03307 0.14191 0.02068 0.0
C526 C 1.00764 0.12408 0.81782 0.0
C527 C 1.00634 0.15304 0.85003 0.0
H528 H 0.35204 1.01404 0.1941 0.0
H529 H 0.30653 1.00637 0.8799 0.0
H530 H 0.35258 1.01042 0.77741 0.0
H531 H 0.40705 1.01227 0.77828 0.0
H532 H 0.45112 0.02048 0.09697 0.0
H533 H 0.40502 0.0199 0.19475 0.0
C534 C 0.35207 1.01423 0.10293 0.0
C535 C 0.32552 1.01063 0.04514 0.0
C536 C 0.37877 1.016 0.04478 0.0
C537 C 0.32631 1.00999 0.9269 0.0
C538 C 0.35283 1.01184 0.86826 0.0
C539 C 0.40657 1.01408 0.86902 0.0
C540 C 0.43306 1.0163 0.9293 0.0
C541 C 0.37941 1.01418 0.92628 0.0
C542 C 0.43154 0.0188 0.04719 0.0
C543 C 0.40498 1.01848 0.10386 0.0
H544 H 0.5468 0.32399 0.93247 0.0
H545 H 0.48654 0.33184 0.20565 0.0
H546 H 0.47562 0.38159 0.14707 0.0
H547 H 0.48802 0.42508 0.03106 0.0
H548 H 0.55014 0.41633 0.7637 0.0
H549 H 0.55536 0.36522 0.8066 0.0
C550 C 0.53048 0.33624 0.97684 0.0
C551 C 0.51723 0.32388 0.07262 0.0
C552 C 0.52515 0.36516 0.945 0.0
C553 C 0.49659 0.34039 0.13032 0.0
C554 C 0.49075 0.36912 0.09786 0.0
C555 C 0.50249 0.41195 0.98138 0.0
C556 C 0.51864 0.42495 0.89335 0.0
C557 C 0.50568 0.38213 0.00757 0.0
C558 C 0.53719 0.40726 0.83051 0.0
C559 C 0.54033 0.37787 0.85553 0.0
H560 H 0.19008 0.50271 0.19628 0.0
H561 H 0.23331 0.53552 0.90254 0.0
H562 H 0.18798 0.53191 0.79453 0.0
H563 H 0.13411 0.52313 0.78811 0.0
H564 H 0.09244 0.48983 0.08653 0.0
H565 H 0.13832 0.49 0.18581 0.0
C566 C 0.18988 0.50806 0.10743 0.0
C567 C 0.2156 0.51852 0.05728 0.0
C568 C 0.16346 0.50643 0.04639 0.0
C569 C 0.21434 0.52644 0.9429 0.0
C570 C 0.18814 0.52481 0.88142 0.0
C571 C 0.13508 0.51564 0.87445 0.0
C572 C 0.10916 0.50654 0.92853 0.0
C573 C 0.16223 0.51544 0.93278 0.0
C574 C 0.11146 0.49695 0.04101 0.0
C575 C 0.13794 0.49701 0.0988 0.0
H576 H 0.02315 0.85152 0.35837 0.0
H577 H 0.02683 0.80384 0.66898 0.0
H578 H 0.02129 0.849 0.77519 0.0
H579 H 1.01962 0.90342 0.77906 0.0
H580 H 1.01741 0.94936 0.46227 0.0
H581 H 1.01863 0.90413 0.36109 0.0
C582 C 0.02172 0.85087 0.44936 0.0
C583 C 0.02464 0.82405 0.50514 0.0
C584 C 1.0196 0.87702 0.50953 0.0
C585 C 0.02373 0.82389 0.62337 0.0
C586 C 0.02111 0.8499 0.6842 0.0
C587 C 1.01933 0.90351 0.688 0.0
C588 C 1.01836 0.93027 0.62944 0.0
C589 C 1.01978 0.87682 0.62833 0.0
C590 C 1.01789 0.92953 0.51093 0.0
C591 C 1.01857 0.90348 0.45217 0.0
H592 H 0.68623 0.97875 0.38855 0.0
H593 H 0.72698 0.04092 0.60527 0.0
H594 H 0.68197 0.04531 0.71229 0.0
H595 H 0.6289 0.03293 0.74071 0.0
H596 H 0.58972 0.97126 0.51522 0.0
H597 H 0.6355 0.96509 0.41939 0.0
C598 C 0.68558 0.99267 0.46152 0.0
C599 C 0.71051 1.00909 0.48916 0.0
C600 C 0.65936 0.9953 0.52239 0.0
C601 C 0.70872 0.02737 0.58302 0.0
C602 C 0.68264 0.03006 0.64419 0.0
C603 C 0.63044 1.01794 0.67138 0.0
C604 C 0.6052 1.00271 0.63616 0.0
C605 C 0.6575 1.01441 0.61424 0.0
C606 C 0.60815 0.98356 0.54506 0.0
C607 C 0.6346 0.97986 0.48967 0.0
H608 H 0.49172 0.70777 0.68021 0.0
H609 H 0.55316 0.6988 0.41141 0.0
H610 H 0.56488 0.64984 0.47735 0.0
H611 H 0.55322 0.60723 0.59914 0.0
H612 H 0.49021 0.61693 0.8629 0.0
H613 H 0.48364 0.66742 0.81163 0.0
C614 C 0.50837 0.69544 0.63802 0.0
C615 C 0.52173 0.70729 0.54127 0.0
C616 C 0.51426 0.66694 0.67438 0.0
C617 C 0.54293 0.69069 0.48709 0.0
C618 C 0.54926 0.6624 0.52389 0.0
C619 C 0.53827 0.62044 0.64629 0.0
C620 C 0.52224 0.60785 0.73566 0.0
C621 C 0.53436 0.64988 0.61535 0.0
C622 C 0.50305 0.62566 0.79502 0.0
C623 C 0.49916 0.65471 0.76521 0.0
H624 H 0.85128 0.52122 0.39561 0.0
H625 H 0.81048 0.54051 0.7113 0.0
H626 H 0.85764 0.53646 0.8064 0.0
H627 H 0.91166 0.52822 0.80038 0.0
H628 H 0.95104 0.51188 0.47848 0.0
H629 H 0.9038 0.51343 0.38819 0.0
C630 C 0.85243 0.52401 0.48598 0.0
C631 C 0.82676 0.53097 0.54551 0.0
C632 C 0.87977 0.52195 0.54025 0.0
C633 C 0.82928 0.53455 0.66262 0.0
C634 C 0.85649 0.5323 0.71736 0.0
C635 C 0.90994 0.52486 0.71068 0.0
C636 C 0.93558 0.51996 0.64732 0.0
C637 C 0.88209 0.52618 0.65729 0.0
C638 C 0.9323 0.51587 0.53058 0.0
C639 C 0.90503 0.51664 0.47828 0.0
loop_
_geom_bond_atom_site_label_1
_geom_bond_atom_site_label_2
_geom_bond_distance
_geom_bond_site_symmetry_2
_ccdc_geom_bond_type
H0 C5 0.930 . S
H1 C8 0.930 . S
H2 C10 0.930 . S
H3 C4 1.016 . S
C4 H3 1.016 . S
C4 N11 1.286 . S
C5 H0 0.930 . S
C5 C6 1.397 . S
C5 C7 1.361 . S
C6 C5 1.397 . S
C6 C10 1.390 . S
C7 C5 1.361 . S
C7 C8 1.393 . S
C7 N11 1.413 . S
C8 H1 0.930 . S
C8 C7 1.393 . S
C8 C9 1.399 . S
C9 C8 1.399 . S
C9 C10 1.381 . S
C10 H2 0.930 . S
C10 C6 1.390 . S
C10 C9 1.381 . S
N11 C4 1.286 . S
N11 C7 1.413 . S
H12 C17 0.930 . S
H13 C20 0.930 . S
H14 C22 0.930 . S
H15 C16 1.029 . S
C16 H15 1.029 . S
C16 N23 1.268 1_655 S
C17 H12 0.930 . S
C17 C18 1.397 . S
C17 C19 1.361 . S
C18 C17 1.397 . S
C18 C22 1.390 1_455 S
C19 C17 1.361 . S
C19 C20 1.393 . S
C19 N23 1.413 . S
C20 H13 0.930 . S
C20 C19 1.393 . S
C20 C21 1.402 . S
C21 C20 1.402 . S
C21 C22 1.379 1_455 S
C22 H14 0.930 . S
C22 C18 1.390 1_655 S
C22 C21 1.379 1_655 S
N23 C16 1.268 1_455 S
N23 C19 1.413 . S
H24 C29 0.930 . S
H25 C32 0.930 . S
H26 C34 0.930 . S
H27 C28 1.030 . S
C28 H27 1.030 . S
C28 N35 1.268 1_565 S
C29 H24 0.930 . S
C29 C30 1.397 . S
C29 C31 1.361 . S
C30 C29 1.397 . S
C30 C34 1.390 1_545 S
C31 C29 1.361 . S
C31 C32 1.393 . S
C31 N35 1.413 . S
C32 H25 0.930 . S
C32 C31 1.393 . S
C32 C33 1.402 . S
C33 C32 1.402 . S
C33 C34 1.379 1_545 S
C34 H26 0.930 . S
C34 C30 1.390 1_565 S
C34 C33 1.379 1_565 S
N35 C28 1.268 1_545 S
N35 C31 1.413 . S
H36 C41 0.930 . S
H37 C44 0.930 . S
H38 C46 0.930 . S
H39 C40 1.016 . S
C40 H39 1.016 . S
C40 N47 1.286 . S
C41 H36 0.930 . S
C41 C42 1.397 . S
C41 C43 1.361 . S
C42 C41 1.397 . S
C42 C46 1.390 . S
C43 C41 1.361 . S
C43 C44 1.393 . S
C43 N47 1.413 . S
C44 H37 0.930 . S
C44 C43 1.393 . S
C44 C45 1.399 . S
C45 C44 1.399 . S
C45 C46 1.381 . S
C46 H38 0.930 . S
C46 C42 1.390 . S
C46 C45 1.381 . S
N47 C40 1.286 . S
N47 C43 1.413 . S
H48 C53 0.930 . S
H49 C56 0.930 . S
H50 C58 0.930 . S
H51 C52 1.016 . S
C52 H51 1.016 . S
C52 N59 1.286 . S
C53 H48 0.930 . S
C53 C54 1.397 . S
C53 C55 1.361 1_556 S
C54 C53 1.397 . S
C54 C58 1.390 1_556 S
C55 C53 1.361 1_554 S
C55 C56 1.393 . S
C55 N59 1.413 . S
C56 H49 0.930 . S
C56 C55 1.393 . S
C56 C57 1.399 . S
C57 C56 1.399 . S
C57 C58 1.381 . S
C58 H50 0.930 . S
C58 C54 1.390 1_554 S
C58 C57 1.381 . S
N59 C52 1.286 . S
N59 C55 1.413 . S
H60 C65 0.930 . S
H61 C68 0.930 . S
H62 C70 0.930 . S
H63 C64 1.026 . S
C64 H63 1.026 . S
C64 N71 1.272 1_655 S
C65 H60 0.930 . S
C65 C66 1.397 . S
C65 C67 1.361 1_556 S
C66 C65 1.397 . S
C66 C70 1.390 1_456 S
C67 C65 1.361 1_554 S
C67 C68 1.393 . S
C67 N71 1.413 . S
C68 H61 0.930 . S
C68 C67 1.393 . S
C68 C69 1.404 . S
C69 C68 1.404 . S
C69 C70 1.378 1_455 S
C70 H62 0.930 . S
C70 C66 1.390 1_654 S
C70 C69 1.378 1_655 S
N71 C64 1.272 1_455 S
N71 C67 1.413 . S
H72 C77 0.930 . S
H73 C80 0.930 . S
H74 C82 0.930 . S
H75 C76 1.026 . S
C76 H75 1.026 . S
C76 N83 1.272 1_565 S
C77 H72 0.930 . S
C77 C78 1.397 . S
C77 C79 1.361 1_556 S
C78 C77 1.397 . S
C78 C82 1.390 1_546 S
C79 C77 1.361 1_554 S
C79 C80 1.393 . S
C79 N83 1.413 . S
C80 H73 0.930 . S
C80 C79 1.393 . S
C80 C81 1.404 . S
C81 C80 1.404 . S
C81 C82 1.378 1_545 S
C82 H74 0.930 . S
C82 C78 1.390 1_564 S
C82 C81 1.378 1_565 S
N83 C76 1.272 1_545 S
N83 C79 1.413 . S
H84 C89 0.930 . S
H85 C92 0.930 . S
H86 C94 0.931 . S
H87 C88 1.016 . S
C88 H87 1.016 . S
C88 N95 1.286 . S
C89 H84 0.930 . S
C89 C90 1.397 . S
C89 C91 1.361 1_556 S
C90 C89 1.397 . S
C90 C94 1.390 1_556 S
C91 C89 1.361 1_554 S
C91 C92 1.393 . S
C91 N95 1.413 . S
C92 H85 0.930 . S
C92 C91 1.393 . S
C92 C93 1.399 . S
C93 C92 1.399 . S
C93 C94 1.381 . S
C94 H86 0.931 . S
C94 C90 1.390 1_554 S
C94 C93 1.381 . S
N95 C88 1.286 . S
N95 C91 1.413 . S
La96 C98 2.928 1_556 S
La96 O116 2.521 . S
La96 O117 2.628 1_556 S
La96 O118 2.554 . S
La96 O119 2.757 1_565 S
La96 O120 2.470 . S
La96 O125 2.482 1_455 S
La96 O127 2.503 1_565 S
La97 C107 2.928 . S
La97 O119 2.482 1_655 S
La97 O121 2.503 1_545 S
La97 O122 2.521 . S
La97 O123 2.628 . S
La97 O124 2.554 . S
La97 O125 2.757 1_545 S
La97 O126 2.470 . S
C98 La96 2.928 1_554 S
C98 C99 1.503 . S
C98 O116 1.261 1_554 S
C98 O117 1.243 . S
C99 C98 1.503 . S
C99 C100 1.394 . S
C99 C104 1.373 . S
C100 C99 1.394 . S
C100 C101 1.380 . S
C100 H128 0.930 . S
C101 C100 1.380 . S
C101 C102 1.376 . S
C101 H129 0.930 . S
C102 C101 1.376 . S
C102 C103 1.370 . S
C103 C102 1.370 . S
C103 C104 1.396 . S
C103 H130 0.929 1_455 S
C104 C99 1.373 . S
C104 C103 1.396 . S
C104 H131 0.929 1_455 S
C105 O118 1.240 . S
C105 O119 1.289 1_565 S
C106 O120 1.258 1_655 S
C106 O121 1.256 . S
C107 La97 2.928 . S
C107 C108 1.503 . S
C107 O122 1.261 . S
C107 O123 1.243 . S
C108 C107 1.503 . S
C108 C109 1.394 . S
C108 C113 1.373 . S
C109 C108 1.394 . S
C109 C110 1.380 . S
C109 H132 0.930 . S
C110 C109 1.380 . S
C110 C111 1.376 . S
C110 H133 0.930 . S
C111 C110 1.376 . S
C111 C112 1.370 . S
C112 C111 1.370 . S
C112 C113 1.396 . S
C112 H134 0.929 1_655 S
C113 C108 1.373 . S
C113 C112 1.396 . S
C113 H135 0.929 1_655 S
C114 O124 1.240 . S
C114 O125 1.289 1_545 S
C115 O126 1.258 1_455 S
C115 O127 1.256 . S
O116 La96 2.521 . S
O116 C98 1.261 1_556 S
O117 La96 2.628 1_554 S
O117 C98 1.243 . S
O118 La96 2.554 . S
O118 C105 1.240 . S
O119 La96 2.757 1_545 S
O119 La97 2.482 1_455 S
O119 C105 1.289 1_545 S
O120 La96 2.470 . S
O120 C106 1.258 1_455 S
O121 La97 2.503 1_565 S
O121 C106 1.256 . S
O122 La97 2.521 . S
O122 C107 1.261 . S
O123 La97 2.628 . S
O123 C107 1.243 . S
O124 La97 2.554 . S
O124 C114 1.240 . S
O125 La96 2.482 1_655 S
O125 La97 2.757 1_565 S
O125 C114 1.289 1_565 S
O126 La97 2.470 . S
O126 C115 1.258 1_655 S
O127 La96 2.503 1_545 S
O127 C115 1.256 . S
H128 C100 0.930 . S
H129 C101 0.930 . S
H130 C103 0.929 1_655 S
H131 C104 0.929 1_655 S
H132 C109 0.930 . S
H133 C110 0.930 . S
H134 C112 0.929 1_455 S
H135 C113 0.929 1_455 S
La136 C138 2.928 1_556 S
La136 O156 2.521 . S
La136 O157 2.628 1_556 S
La136 O158 2.554 . S
La136 O159 2.757 . S
La136 O160 2.470 . S
La136 O165 2.482 1_545 S
La136 O167 2.503 . S
La137 C147 2.928 . S
La137 O159 2.482 1_565 S
La137 O161 2.503 . S
La137 O162 2.521 . S
La137 O163 2.628 . S
La137 O164 2.554 . S
La137 O165 2.757 . S
La137 O166 2.470 . S
C138 La136 2.928 1_554 S
C138 C139 1.503 . S
C138 O156 1.261 1_554 S
C138 O157 1.243 . S
C139 C138 1.503 . S
C139 C140 1.394 . S
C139 C144 1.373 . S
C140 C139 1.394 . S
C140 C141 1.380 . S
C140 H168 0.930 . S
C141 C140 1.380 . S
C141 C142 1.376 . S
C141 H169 0.930 . S
C142 C141 1.376 . S
C142 C143 1.370 . S
C143 C142 1.370 . S
C143 C144 1.396 . S
C143 H170 0.929 1_545 S
C144 C139 1.373 . S
C144 C143 1.396 . S
C144 H171 0.929 1_545 S
C145 O158 1.240 . S
C145 O159 1.289 . S
C146 O160 1.258 1_565 S
C146 O161 1.256 . S
C147 La137 2.928 . S
C147 C148 1.503 . S
C147 O162 1.261 . S
C147 O163 1.243 . S
C148 C147 1.503 . S
C148 C149 1.394 . S
C148 C153 1.373 . S
C149 C148 1.394 . S
C149 C150 1.380 . S
C149 H172 0.930 . S
C150 C149 1.380 . S
C150 C151 1.376 . S
C150 H173 0.930 . S
C151 C150 1.376 . S
C151 C152 1.370 . S
C152 C151 1.370 . S
C152 C153 1.396 . S
C152 H174 0.929 1_565 S
C153 C148 1.373 . S
C153 C152 1.396 . S
C153 H175 0.929 1_565 S
C154 O164 1.240 . S
C154 O165 1.289 . S
C155 O166 1.258 1_545 S
C155 O167 1.256 . S
O156 La136 2.521 . S
O156 C138 1.261 1_556 S
O157 La136 2.628 1_554 S
O157 C138 1.243 . S
O158 La136 2.554 . S
O158 C145 1.240 . S
O159 La136 2.757 . S
O159 La137 2.482 1_545 S
O159 C145 1.289 . S
O160 La136 2.470 . S
O160 C146 1.258 1_545 S
O161 La137 2.503 . S
O161 C146 1.256 . S
O162 La137 2.521 . S
O162 C147 1.261 . S
O163 La137 2.628 . S
O163 C147 1.243 . S
O164 La137 2.554 . S
O164 C154 1.240 . S
O165 La136 2.482 1_565 S
O165 La137 2.757 . S
O165 C154 1.289 . S
O166 La137 2.470 . S
O166 C155 1.258 1_565 S
O167 La136 2.503 . S
O167 C155 1.256 . S
H168 C140 0.930 . S
H169 C141 0.930 . S
H170 C143 0.929 1_565 S
H171 C144 0.929 1_565 S
H172 C149 0.930 . S
H173 C150 0.930 . S
H174 C152 0.929 1_545 S
H175 C153 0.929 1_545 S
La176 C178 2.928 1_556 S
La176 O196 2.521 . S
La176 O197 2.628 1_556 S
La176 O198 2.554 . S
La176 O199 2.757 . S
La176 O200 2.470 . S
La176 O205 2.482 . S
La176 O207 2.503 . S
La177 C187 2.928 . S
La177 O199 2.482 . S
La177 O201 2.503 . S
La177 O202 2.521 . S
La177 O203 2.628 . S
La177 O204 2.554 . S
La177 O205 2.757 . S
La177 O206 2.470 . S
C178 La176 2.928 1_554 S
C178 C179 1.503 . S
C178 O196 1.261 1_554 S
C178 O197 1.243 . S
C179 C178 1.503 . S
C179 C180 1.394 . S
C179 C184 1.373 . S
C180 C179 1.394 . S
C180 C181 1.380 . S
C180 H208 0.930 . S
C181 C180 1.380 . S
C181 C182 1.376 . S
C181 H209 0.930 . S
C182 C181 1.376 . S
C182 C183 1.370 . S
C183 C182 1.370 . S
C183 C184 1.396 . S
C183 H210 0.929 . S
C184 C179 1.373 . S
C184 C183 1.396 . S
C184 H211 0.929 . S
C185 O198 1.240 . S
C185 O199 1.289 . S
C186 O200 1.258 . S
C186 O201 1.256 . S
C187 La177 2.928 . S
C187 C188 1.503 . S
C187 O202 1.261 . S
C187 O203 1.243 . S
C188 C187 1.503 . S
C188 C189 1.394 . S
C188 C193 1.373 . S
C189 C188 1.394 . S
C189 C190 1.380 . S
C189 H212 0.930 . S
C190 C189 1.380 . S
C190 C191 1.376 . S
C190 H213 0.930 . S
C191 C190 1.376 . S
C191 C192 1.370 . S
C192 C191 1.370 . S
C192 C193 1.396 . S
C192 H214 0.929 . S
C193 C188 1.373 . S
C193 C192 1.396 . S
C193 H215 0.929 . S
C194 O204 1.240 . S
C194 O205 1.289 . S
C195 O206 1.258 . S
C195 O207 1.256 . S
O196 La176 2.521 . S
O196 C178 1.261 1_556 S
O197 La176 2.628 1_554 S
O197 C178 1.243 . S
O198 La176 2.554 . S
O198 C185 1.240 . S
O199 La176 2.757 . S
O199 La177 2.482 . S
O199 C185 1.289 . S
O200 La176 2.470 . S
O200 C186 1.258 . S
O201 La177 2.503 . S
O201 C186 1.256 . S
O202 La177 2.521 . S
O202 C187 1.261 . S
O203 La177 2.628 . S
O203 C187 1.243 . S
O204 La177 2.554 . S
O204 C194 1.240 . S
O205 La176 2.482 . S
O205 La177 2.757 . S
O205 C194 1.289 . S
O206 La177 2.470 . S
O206 C195 1.258 . S
O207 La176 2.503 . S
O207 C195 1.256 . S
H208 C180 0.930 . S
H209 C181 0.930 . S
H210 C183 0.929 . S
H211 C184 0.929 . S
H212 C189 0.930 . S
H213 C190 0.930 . S
H214 C192 0.929 . S
H215 C193 0.929 . S
La216 C218 2.928 1_556 S
La216 O236 2.521 . S
La216 O237 2.628 1_556 S
La216 O238 2.554 . S
La216 O239 2.757 1_655 S
La216 O240 2.470 . S
La216 O245 2.482 . S
La216 O247 2.503 1_655 S
La217 C227 2.928 . S
La217 O239 2.482 . S
La217 O241 2.503 1_455 S
La217 O242 2.521 . S
La217 O243 2.628 . S
La217 O244 2.554 . S
La217 O245 2.757 1_455 S
La217 O246 2.470 . S
C218 La216 2.928 1_554 S
C218 C219 1.503 . S
C218 O236 1.261 1_554 S
C218 O237 1.243 . S
C219 C218 1.503 . S
C219 C220 1.394 . S
C219 C224 1.373 . S
C220 C219 1.394 . S
C220 C221 1.380 . S
C220 H248 0.930 . S
C221 C220 1.380 . S
C221 C222 1.376 . S
C221 H249 0.930 . S
C222 C221 1.376 . S
C222 C223 1.370 . S
C223 C222 1.370 . S
C223 C224 1.396 . S
C223 H250 0.929 . S
C224 C219 1.373 . S
C224 C223 1.396 . S
C224 H251 0.929 . S
C225 O238 1.252 . S
C225 O239 1.282 1_655 S
C226 O240 1.258 . S
C226 O241 1.256 . S
C227 La217 2.928 . S
C227 C228 1.503 . S
C227 O242 1.261 . S
C227 O243 1.243 . S
C228 C227 1.503 . S
C228 C229 1.394 . S
C228 C233 1.373 . S
C229 C228 1.394 . S
C229 C230 1.380 . S
C229 H252 0.930 . S
C230 C229 1.380 . S
C230 C231 1.376 . S
C230 H253 0.930 . S
C231 C230 1.376 . S
C231 C232 1.370 . S
C232 C231 1.370 . S
C232 C233 1.396 . S
C232 H254 0.929 . S
C233 C228 1.373 . S
C233 C232 1.396 . S
C233 H255 0.929 . S
C234 O244 1.257 . S
C234 O245 1.279 1_455 S
C235 O246 1.258 . S
C235 O247 1.256 . S
O236 La216 2.521 . S
O236 C218 1.261 1_556 S
O237 La216 2.628 1_554 S
O237 C218 1.243 . S
O238 La216 2.554 . S
O238 C225 1.252 . S
O239 La216 2.757 1_455 S
O239 La217 2.482 . S
O239 C225 1.282 1_455 S
O240 La216 2.470 . S
O240 C226 1.258 . S
O241 La217 2.503 1_655 S
O241 C226 1.256 . S
O242 La217 2.521 . S
O242 C227 1.261 . S
O243 La217 2.628 . S
O243 C227 1.243 . S
O244 La217 2.554 . S
O244 C234 1.257 . S
O245 La216 2.482 . S
O245 La217 2.757 1_655 S
O245 C234 1.279 1_655 S
O246 La217 2.470 . S
O246 C235 1.258 . S
O247 La216 2.503 1_455 S
O247 C235 1.256 . S
H248 C220 0.930 . S
H249 C221 0.930 . S
H250 C223 0.929 . S
H251 C224 0.929 . S
H252 C229 0.930 . S
H253 C230 0.930 . S
H254 C232 0.929 . S
H255 C233 0.929 . S
H256 C262 0.930 . S
H257 C265 0.930 . S
H258 C266 0.930 . S
H259 C267 0.930 . S
H260 C270 0.930 . S
H261 C271 0.930 . S
C262 H256 0.930 . S
C262 C263 1.353 1_565 S
C262 C264 1.415 . S
C263 C262 1.353 1_545 S
C263 C265 1.422 . S
C264 C262 1.415 . S
C264 C269 1.425 1_565 S
C264 C271 1.409 . S
C265 H257 0.930 . S
C265 C263 1.422 . S
C265 C266 1.362 . S
C266 H258 0.930 . S
C266 C265 1.362 . S
C266 C269 1.409 . S
C267 H259 0.930 . S
C267 C268 1.365 . S
C267 C269 1.415 . S
C268 C267 1.365 . S
C268 C270 1.406 1_545 S
C269 C264 1.425 1_545 S
C269 C266 1.409 . S
C269 C267 1.415 . S
C270 H260 0.930 . S
C270 C268 1.406 1_565 S
C270 C271 1.362 . S
C271 H261 0.930 . S
C271 C264 1.409 . S
C271 C270 1.362 . S
H272 C278 0.930 . S
H273 C281 0.930 . S
H274 C282 0.930 . S
H275 C283 0.930 . S
H276 C286 0.930 . S
H277 C287 0.930 . S
C278 H272 0.930 . S
C278 C279 1.355 . S
C278 C280 1.415 . S
C279 C278 1.355 . S
C279 C281 1.419 . S
C280 C278 1.415 . S
C280 C285 1.425 . S
C280 C287 1.409 . S
C281 H273 0.930 . S
C281 C279 1.419 . S
C281 C282 1.362 . S
C282 H274 0.930 . S
C282 C281 1.362 . S
C282 C285 1.409 . S
C283 H275 0.930 . S
C283 C284 1.355 . S
C283 C285 1.415 . S
C284 C283 1.355 . S
C284 C286 1.419 . S
C285 C280 1.425 . S
C285 C282 1.409 . S
C285 C283 1.415 . S
C286 H276 0.930 . S
C286 C284 1.419 . S
C286 C287 1.362 . S
C287 H277 0.930 . S
C287 C280 1.409 . S
C287 C286 1.362 . S
H288 C294 0.930 . S
H289 C297 0.930 . S
H290 C298 0.930 . S
H291 C299 0.930 . S
H292 C302 0.930 . S
H293 C303 0.930 . S
C294 H288 0.930 . S
C294 C295 1.355 . S
C294 C296 1.415 . S
C295 C294 1.355 . S
C295 C297 1.419 . S
C296 C294 1.415 . S
C296 C301 1.425 . S
C296 C303 1.409 . S
C297 H289 0.930 . S
C297 C295 1.419 . S
C297 C298 1.362 . S
C298 H290 0.930 . S
C298 C297 1.362 . S
C298 C301 1.409 . S
C299 H291 0.930 . S
C299 C300 1.355 . S
C299 C301 1.415 . S
C300 C299 1.355 . S
C300 C302 1.419 . S
C301 C296 1.425 . S
C301 C298 1.409 . S
C301 C299 1.415 . S
C302 H292 0.930 . S
C302 C300 1.419 . S
C302 C303 1.362 . S
C303 H293 0.930 . S
C303 C296 1.409 . S
C303 C302 1.362 . S
H304 C310 0.930 . S
H305 C313 0.930 . S
H306 C314 0.930 . S
H307 C315 0.930 . S
H308 C318 0.930 . S
H309 C319 0.930 . S
C310 H304 0.930 . S
C310 C311 1.361 . S
C310 C312 1.415 . S
C311 C310 1.361 . S
C311 C313 1.413 1_455 S
C312 C310 1.415 . S
C312 C317 1.425 1_455 S
C312 C319 1.409 . S
C313 H305 0.930 . S
C313 C311 1.413 1_655 S
C313 C314 1.362 . S
C314 H306 0.930 . S
C314 C313 1.362 . S
C314 C317 1.409 . S
C315 H307 0.930 . S
C315 C316 1.355 1_655 S
C315 C317 1.415 . S
C316 C315 1.355 1_455 S
C316 C318 1.419 . S
C317 C312 1.425 1_655 S
C317 C314 1.409 . S
C317 C315 1.415 . S
C318 H308 0.930 . S
C318 C316 1.419 . S
C318 C319 1.362 . S
C319 H309 0.930 . S
C319 C312 1.409 . S
C319 C318 1.362 . S
H320 C326 0.930 . S
H321 C329 0.930 . S
H322 C330 0.930 . S
H323 C331 0.930 1_556 S
H324 C334 0.930 . S
H325 C335 0.930 . S
C326 H320 0.930 . S
C326 C327 1.355 1_565 S
C326 C328 1.415 . S
C327 C326 1.355 1_545 S
C327 C329 1.419 . S
C328 C326 1.415 . S
C328 C333 1.425 1_565 S
C328 C335 1.409 . S
C329 H321 0.930 . S
C329 C327 1.419 . S
C329 C330 1.362 . S
C330 H322 0.930 . S
C330 C329 1.362 . S
C330 C333 1.409 . S
C331 H323 0.930 1_554 S
C331 C332 1.355 1_545 S
C331 C333 1.415 . S
C332 C331 1.355 1_565 S
C332 C334 1.419 . S
C333 C328 1.425 1_545 S
C333 C330 1.409 . S
C333 C331 1.415 . S
C334 H324 0.930 . S
C334 C332 1.419 . S
C334 C335 1.362 . S
C335 H325 0.930 . S
C335 C328 1.409 . S
C335 C334 1.362 . S
H336 C342 0.930 . S
H337 C345 0.930 . S
H338 C346 0.930 . S
H339 C347 0.930 . S
H340 C350 0.930 . S
H341 C351 0.930 . S
C342 H336 0.930 . S
C342 C343 1.355 . S
C342 C344 1.415 . S
C343 C342 1.355 . S
C343 C345 1.419 . S
C344 C342 1.415 . S
C344 C349 1.425 . S
C344 C351 1.409 . S
C345 H337 0.930 . S
C345 C343 1.419 . S
C345 C346 1.362 . S
C346 H338 0.930 . S
C346 C345 1.362 . S
C346 C349 1.409 . S
C347 H339 0.930 . S
C347 C348 1.355 . S
C347 C349 1.415 . S
C348 C347 1.355 . S
C348 C350 1.419 . S
C349 C344 1.425 . S
C349 C346 1.409 . S
C349 C347 1.415 . S
C350 H340 0.930 . S
C350 C348 1.419 . S
C350 C351 1.362 . S
C351 H341 0.930 . S
C351 C344 1.409 . S
C351 C350 1.362 . S
H352 C358 0.930 . S
H353 C361 0.930 . S
H354 C362 0.930 . S
H355 C363 0.930 . S
H356 C366 0.930 . S
H357 C367 0.930 . S
C358 H352 0.930 . S
C358 C359 1.355 . S
C358 C360 1.415 . S
C359 C358 1.355 . S
C359 C361 1.419 . S
C360 C358 1.415 . S
C360 C365 1.425 . S
C360 C367 1.409 . S
C361 H353 0.930 . S
C361 C359 1.419 . S
C361 C362 1.362 . S
C362 H354 0.930 . S
C362 C361 1.362 . S
C362 C365 1.409 . S
C363 H355 0.930 . S
C363 C364 1.355 . S
C363 C365 1.415 . S
C364 C363 1.355 . S
C364 C366 1.419 . S
C365 C360 1.425 . S
C365 C362 1.409 . S
C365 C363 1.415 . S
C366 H356 0.930 . S
C366 C364 1.419 . S
C366 C367 1.362 . S
C367 H357 0.930 . S
C367 C360 1.409 . S
C367 C366 1.362 . S
H368 C374 0.930 . S
H369 C377 0.930 . S
H370 C378 0.930 . S
H371 C379 0.930 . S
H372 C382 0.930 1_556 S
H373 C383 0.930 . S
C374 H368 0.930 . S
C374 C375 1.355 1_455 S
C374 C376 1.415 . S
C375 C374 1.355 1_655 S
C375 C377 1.419 . S
C376 C374 1.415 . S
C376 C381 1.425 1_455 S
C376 C383 1.409 . S
C377 H369 0.930 . S
C377 C375 1.419 . S
C377 C378 1.362 . S
C378 H370 0.930 . S
C378 C377 1.362 . S
C378 C381 1.409 . S
C379 H371 0.930 . S
C379 C380 1.355 1_655 S
C379 C381 1.415 . S
C380 C379 1.355 1_455 S
C380 C382 1.419 . S
C381 C376 1.425 1_655 S
C381 C378 1.409 . S
C381 C379 1.415 . S
C382 H372 0.930 1_554 S
C382 C380 1.419 . S
C382 C383 1.362 . S
C383 H373 0.930 . S
C383 C376 1.409 . S
C383 C382 1.362 . S
H384 C390 0.930 . S
H385 C393 0.930 . S
H386 C394 0.930 . S
H387 C395 0.930 . S
H388 C398 0.930 . S
H389 C399 0.908 1_455 S
C390 H384 0.930 . S
C390 C391 1.355 . S
C390 C392 1.415 1_455 S
C391 C390 1.355 . S
C391 C393 1.417 1_455 S
C392 C390 1.415 1_655 S
C392 C397 1.425 . S
C392 C399 1.416 . S
C393 H385 0.930 . S
C393 C391 1.417 1_655 S
C393 C394 1.362 . S
C394 H386 0.930 . S
C394 C393 1.362 . S
C394 C397 1.409 . S
C395 H387 0.930 . S
C395 C396 1.355 . S
C395 C397 1.415 . S
C396 C395 1.355 . S
C396 C398 1.419 . S
C397 C392 1.425 . S
C397 C394 1.409 . S
C397 C395 1.415 . S
C398 H388 0.930 . S
C398 C396 1.419 . S
C398 C399 1.377 . S
C399 H389 0.908 1_655 S
C399 C392 1.416 . S
C399 C398 1.377 . S
H400 C406 0.930 . S
H401 C409 0.930 . S
H402 C410 0.930 . S
H403 C411 0.930 . S
H404 C414 0.930 . S
H405 C415 0.930 . S
C406 H400 0.930 . S
C406 C407 1.355 1_565 S
C406 C408 1.415 . S
C407 C406 1.355 1_545 S
C407 C409 1.419 . S
C408 C406 1.415 . S
C408 C413 1.425 . S
C408 C415 1.409 . S
C409 H401 0.930 . S
C409 C407 1.419 . S
C409 C410 1.362 . S
C410 H402 0.930 . S
C410 C409 1.362 . S
C410 C413 1.409 1_545 S
C411 H403 0.930 . S
C411 C412 1.355 . S
C411 C413 1.415 . S
C412 C411 1.355 . S
C412 C414 1.419 . S
C413 C408 1.425 . S
C413 C410 1.409 1_565 S
C413 C411 1.415 . S
C414 H404 0.930 . S
C414 C412 1.419 . S
C414 C415 1.362 . S
C415 H405 0.930 . S
C415 C408 1.409 . S
C415 C414 1.362 . S
H416 C422 0.930 . S
H417 C425 0.930 . S
H418 C426 0.930 . S
H419 C427 0.930 . S
H420 C430 0.930 . S
H421 C431 0.930 . S
C422 H416 0.930 . S
C422 C423 1.355 . S
C422 C424 1.415 . S
C423 C422 1.355 . S
C423 C425 1.419 . S
C424 C422 1.415 . S
C424 C429 1.425 . S
C424 C431 1.409 . S
C425 H417 0.930 . S
C425 C423 1.419 . S
C425 C426 1.362 . S
C426 H418 0.930 . S
C426 C425 1.362 . S
C426 C429 1.409 . S
C427 H419 0.930 . S
C427 C428 1.355 . S
C427 C429 1.415 . S
C428 C427 1.355 . S
C428 C430 1.419 . S
C429 C424 1.425 . S
C429 C426 1.409 . S
C429 C427 1.415 . S
C430 H420 0.930 . S
C430 C428 1.419 . S
C430 C431 1.362 . S
C431 H421 0.930 . S
C431 C424 1.409 . S
C431 C430 1.362 . S
H432 C438 0.930 . S
H433 C441 0.930 . S
H434 C442 0.930 . S
H435 C443 0.930 . S
H436 C446 0.930 . S
H437 C447 0.930 . S
C438 H432 0.930 . S
C438 C439 1.355 . S
C438 C440 1.415 . S
C439 C438 1.355 . S
C439 C441 1.419 . S
C440 C438 1.415 . S
C440 C445 1.425 . S
C440 C447 1.409 . S
C441 H433 0.930 . S
C441 C439 1.419 . S
C441 C442 1.362 . S
C442 H434 0.930 . S
C442 C441 1.362 . S
C442 C445 1.409 . S
C443 H435 0.930 . S
C443 C444 1.355 . S
C443 C445 1.415 . S
C444 C443 1.355 . S
C444 C446 1.419 . S
C445 C440 1.425 . S
C445 C442 1.409 . S
C445 C443 1.415 . S
C446 H436 0.930 . S
C446 C444 1.419 . S
C446 C447 1.362 . S
C447 H437 0.930 . S
C447 C440 1.409 . S
C447 C446 1.362 . S
H448 C454 0.930 . S
H449 C457 0.930 . S
H450 C458 0.930 . S
H451 C459 0.930 . S
H452 C462 0.930 . S
H453 C463 0.930 . S
C454 H448 0.930 . S
C454 C455 1.355 1_455 S
C454 C456 1.415 . S
C455 C454 1.355 1_655 S
C455 C457 1.419 . S
C456 C454 1.415 . S
C456 C461 1.425 . S
C456 C463 1.409 . S
C457 H449 0.930 . S
C457 C455 1.419 . S
C457 C458 1.362 . S
C458 H450 0.930 . S
C458 C457 1.362 . S
C458 C461 1.409 1_655 S
C459 H451 0.930 . S
C459 C460 1.355 . S
C459 C461 1.415 . S
C460 C459 1.355 . S
C460 C462 1.419 . S
C461 C456 1.425 . S
C461 C458 1.409 1_455 S
C461 C459 1.415 . S
C462 H452 0.930 . S
C462 C460 1.419 . S
C462 C463 1.362 . S
C463 H453 0.930 . S
C463 C456 1.409 . S
C463 C462 1.362 . S
H464 C470 0.930 . S
H465 C473 0.930 . S
H466 C474 0.937 . S
H467 C475 0.930 . S
H468 C478 0.930 . S
H469 C479 0.930 . S
C470 H464 0.930 . S
C470 C471 1.355 1_545 S
C470 C472 1.415 . S
C471 C470 1.355 1_565 S
C471 C473 1.419 . S
C472 C470 1.415 . S
C472 C477 1.425 . S
C472 C479 1.409 . S
C473 H465 0.930 . S
C473 C471 1.419 . S
C473 C474 1.371 . S
C474 H466 0.937 . S
C474 C473 1.371 . S
C474 C477 1.394 1_565 S
C475 H467 0.930 . S
C475 C476 1.355 . S
C475 C477 1.415 . S
C476 C475 1.355 . S
C476 C478 1.419 . S
C477 C472 1.425 . S
C477 C474 1.394 1_545 S
C477 C475 1.415 . S
C478 H468 0.930 . S
C478 C476 1.419 . S
C478 C479 1.362 . S
C479 H469 0.930 . S
C479 C472 1.409 . S
C479 C478 1.362 . S
H480 C486 0.930 . S
H481 C489 0.930 . S
H482 C490 0.930 . S
H483 C491 0.930 . S
H484 C494 0.930 . S
H485 C495 0.930 . S
C486 H480 0.930 . S
C486 C487 1.355 . S
C486 C488 1.415 . S
C487 C486 1.355 . S
C487 C489 1.419 . S
C488 C486 1.415 . S
C488 C493 1.425 . S
C488 C495 1.409 . S
C489 H481 0.930 . S
C489 C487 1.419 . S
C489 C490 1.362 . S
C490 H482 0.930 . S
C490 C489 1.362 . S
C490 C493 1.409 . S
C491 H483 0.930 . S
C491 C492 1.355 . S
C491 C493 1.415 . S
C492 C491 1.355 . S
C492 C494 1.419 . S
C493 C488 1.425 . S
C493 C490 1.409 . S
C493 C491 1.415 . S
C494 H484 0.930 . S
C494 C492 1.419 . S
C494 C495 1.362 . S
C495 H485 0.930 . S
C495 C488 1.409 . S
C495 C494 1.362 . S
H496 C502 0.930 . S
H497 C505 0.930 . S
H498 C506 0.930 . S
H499 C507 0.930 . S
H500 C510 0.930 . S
H501 C511 0.930 . S
C502 H496 0.930 . S
C502 C503 1.355 . S
C502 C504 1.415 . S
C503 C502 1.355 . S
C503 C505 1.419 . S
C504 C502 1.415 . S
C504 C509 1.425 . S
C504 C511 1.409 . S
C505 H497 0.930 . S
C505 C503 1.419 . S
C505 C506 1.362 . S
C506 H498 0.930 . S
C506 C505 1.362 . S
C506 C509 1.409 . S
C507 H499 0.930 . S
C507 C508 1.355 . S
C507 C509 1.415 . S
C508 C507 1.355 . S
C508 C510 1.419 . S
C509 C504 1.425 . S
C509 C506 1.409 . S
C509 C507 1.415 . S
C510 H500 0.930 . S
C510 C508 1.419 . S
C510 C511 1.362 . S
C511 H501 0.930 . S
C511 C504 1.409 . S
C511 C510 1.362 . S
H512 C518 0.930 . S
H513 C521 0.930 . S
H514 C522 0.930 . S
H515 C523 0.930 . S
H516 C526 0.930 . S
H517 C527 0.930 . S
C518 H512 0.930 . S
C518 C519 1.355 1_655 S
C518 C520 1.415 . S
C519 C518 1.355 1_455 S
C519 C521 1.419 . S
C520 C518 1.415 . S
C520 C525 1.425 1_655 S
C520 C527 1.409 . S
C521 H513 0.930 . S
C521 C519 1.419 . S
C521 C522 1.362 . S
C522 H514 0.930 . S
C522 C521 1.362 . S
C522 C525 1.409 . S
C523 H515 0.930 . S
C523 C524 1.355 . S
C523 C525 1.415 . S
C524 C523 1.355 . S
C524 C526 1.419 1_455 S
C525 C520 1.425 1_455 S
C525 C522 1.409 . S
C525 C523 1.415 . S
C526 H516 0.930 . S
C526 C524 1.419 1_655 S
C526 C527 1.362 . S
C527 H517 0.930 . S
C527 C520 1.409 . S
C527 C526 1.362 . S
H528 C534 0.930 . S
H529 C537 0.930 . S
H530 C538 0.930 . S
H531 C539 0.942 . S
H532 C542 0.930 1_554 S
H533 C543 0.930 1_554 S
C534 H528 0.930 . S
C534 C535 1.355 . S
C534 C536 1.415 . S
C535 C534 1.355 . S
C535 C537 1.419 1_545 S
C536 C534 1.415 . S
C536 C541 1.430 . S
C536 C543 1.409 . S
C537 H529 0.930 . S
C537 C535 1.419 1_565 S
C537 C538 1.362 . S
C538 H530 0.930 . S
C538 C537 1.362 . S
C538 C541 1.405 1_565 S
C539 H531 0.942 . S
C539 C540 1.343 1_565 S
C539 C541 1.414 1_565 S
C540 C539 1.343 1_545 S
C540 C542 1.419 . S
C541 C536 1.430 . S
C541 C538 1.405 1_545 S
C541 C539 1.414 1_545 S
C542 H532 0.930 1_556 S
C542 C540 1.419 . S
C542 C543 1.362 . S
C543 H533 0.930 1_556 S
C543 C536 1.409 . S
C543 C542 1.362 . S
H544 C550 0.930 . S
H545 C553 0.930 . S
H546 C554 0.930 . S
H547 C555 0.930 . S
H548 C558 0.930 . S
H549 C559 0.930 . S
C550 H544 0.930 . S
C550 C551 1.355 . S
C550 C552 1.415 . S
C551 C550 1.355 . S
C551 C553 1.419 . S
C552 C550 1.415 . S
C552 C557 1.425 . S
C552 C559 1.409 . S
C553 H545 0.930 . S
C553 C551 1.419 . S
C553 C554 1.362 . S
C554 H546 0.930 . S
C554 C553 1.362 . S
C554 C557 1.409 . S
C555 H547 0.930 . S
C555 C556 1.355 . S
C555 C557 1.415 . S
C556 C555 1.355 . S
C556 C558 1.419 . S
C557 C552 1.425 . S
C557 C554 1.409 . S
C557 C555 1.415 . S
C558 H548 0.930 . S
C558 C556 1.419 . S
C558 C559 1.362 . S
C559 H549 0.930 . S
C559 C552 1.409 . S
C559 C558 1.362 . S
H560 C566 0.930 . S
H561 C569 0.930 1_554 S
H562 C570 0.930 1_554 S
H563 C571 0.930 . S
H564 C574 0.930 . S
H565 C575 0.930 . S
C566 H560 0.930 . S
C566 C567 1.355 . S
C566 C568 1.415 . S
C567 C566 1.355 . S
C567 C569 1.419 . S
C568 C566 1.415 . S
C568 C573 1.425 . S
C568 C575 1.409 . S
C569 H561 0.930 1_556 S
C569 C567 1.419 . S
C569 C570 1.362 . S
C570 H562 0.930 1_556 S
C570 C569 1.362 . S
C570 C573 1.409 . S
C571 H563 0.930 . S
C571 C572 1.355 . S
C571 C573 1.415 . S
C572 C571 1.355 . S
C572 C574 1.419 . S
C573 C568 1.425 . S
C573 C570 1.409 . S
C573 C571 1.415 . S
C574 H564 0.930 . S
C574 C572 1.419 . S
C574 C575 1.362 . S
C575 H565 0.930 . S
C575 C568 1.409 . S
C575 C574 1.362 . S
H576 C582 0.930 . S
H577 C585 0.930 . S
H578 C586 0.930 . S
H579 C587 0.930 . S
H580 C590 0.930 . S
H581 C591 0.930 . S
C582 H576 0.930 . S
C582 C583 1.355 . S
C582 C584 1.415 . S
C583 C582 1.355 . S
C583 C585 1.419 1_655 S
C584 C582 1.415 . S
C584 C589 1.425 1_655 S
C584 C591 1.409 . S
C585 H577 0.930 . S
C585 C583 1.419 1_455 S
C585 C586 1.362 . S
C586 H578 0.930 . S
C586 C585 1.362 . S
C586 C589 1.409 . S
C587 H579 0.930 . S
C587 C588 1.355 1_455 S
C587 C589 1.415 . S
C588 C587 1.355 1_655 S
C588 C590 1.419 . S
C589 C584 1.425 1_455 S
C589 C586 1.409 . S
C589 C587 1.415 . S
C590 H580 0.930 . S
C590 C588 1.419 . S
C590 C591 1.362 . S
C591 H581 0.930 . S
C591 C584 1.409 . S
C591 C590 1.362 . S
H592 C598 0.930 . S
H593 C601 0.930 . S
H594 C602 0.930 . S
H595 C603 0.930 . S
H596 C606 0.930 . S
H597 C607 0.930 . S
C598 H592 0.930 . S
C598 C599 1.358 . S
C598 C600 1.415 . S
C599 C598 1.358 . S
C599 C601 1.415 1_565 S
C600 C598 1.415 . S
C600 C605 1.425 1_565 S
C600 C607 1.409 . S
C601 H593 0.930 . S
C601 C599 1.415 1_545 S
C601 C602 1.362 . S
C602 H594 0.930 . S
C602 C601 1.362 . S
C602 C605 1.409 . S
C603 H595 0.930 . S
C603 C604 1.355 1_545 S
C603 C605 1.415 . S
C604 C603 1.355 1_565 S
C604 C606 1.419 . S
C605 C600 1.425 1_545 S
C605 C602 1.409 . S
C605 C603 1.415 . S
C606 H596 0.930 . S
C606 C604 1.419 . S
C606 C607 1.362 . S
C607 H597 0.930 . S
C607 C600 1.409 . S
C607 C606 1.362 . S
H608 C614 0.930 . S
H609 C617 0.930 . S
H610 C618 0.930 . S
H611 C619 0.930 . S
H612 C622 0.930 . S
H613 C623 0.930 . S
C614 H608 0.930 . S
C614 C615 1.355 . S
C614 C616 1.415 . S
C615 C614 1.355 . S
C615 C617 1.419 . S
C616 C614 1.415 . S
C616 C621 1.425 . S
C616 C623 1.409 . S
C617 H609 0.930 . S
C617 C615 1.419 . S
C617 C618 1.362 . S
C618 H610 0.930 . S
C618 C617 1.362 . S
C618 C621 1.409 . S
C619 H611 0.930 . S
C619 C620 1.355 . S
C619 C621 1.415 . S
C620 C619 1.355 . S
C620 C622 1.419 . S
C621 C616 1.425 . S
C621 C618 1.409 . S
C621 C619 1.415 . S
C622 H612 0.930 . S
C622 C620 1.419 . S
C622 C623 1.362 . S
C623 H613 0.930 . S
C623 C616 1.409 . S
C623 C622 1.362 . S
H624 C630 0.930 . S
H625 C633 0.930 . S
H626 C634 0.930 . S
H627 C635 0.930 . S
H628 C638 0.930 . S
H629 C639 0.930 . S
C630 H624 0.930 . S
C630 C631 1.355 . S
C630 C632 1.415 . S
C631 C630 1.355 . S
C631 C633 1.419 . S
C632 C630 1.415 . S
C632 C637 1.425 . S
C632 C639 1.409 . S
C633 H625 0.930 . S
C633 C631 1.419 . S
C633 C634 1.362 . S
C634 H626 0.930 . S
C634 C633 1.362 . S
C634 C637 1.409 . S
C635 H627 0.930 . S
C635 C636 1.355 . S
C635 C637 1.415 . S
C636 C635 1.355 . S
C636 C638 1.419 . S
C637 C632 1.425 . S
C637 C634 1.409 . S
C637 C635 1.415 . S
C638 H628 0.930 . S
C638 C636 1.419 . S
C638 C639 1.362 . S
C639 H629 0.930 . S
C639 C632 1.409 . S
C639 C638 1.362 . S
C263 C76 1.904 1_545 S
C268 C105 2.054 1_545 S
C284 C145 2.071 . S
C279 C88 1.915 . S
C300 C185 2.080 . S
C295 C52 1.927 . S
C316 C225 2.068 1_455 S
C311 C64 1.825 1_455 S
C332 C114 2.070 1_564 S
C327 C28 1.850 1_545 S
C343 C40 1.838 . S
C348 C154 2.070 1_554 S
C359 C4 1.844 . S
C364 C194 2.075 1_554 S
C375 C16 1.865 . S
C380 C234 2.060 1_554 S
C396 C111 0.554 . S
C391 C69 0.519 . S
C412 C151 0.666 . S
C407 C81 0.708 . S
C428 C191 0.589 . S
C423 C93 0.537 . S
C439 C57 0.702 . S
C444 C231 0.682 . S
C455 C21 0.705 1_655 S
C460 C102 0.718 . S
C476 C142 0.704 . S
C471 C33 0.717 1_565 S
C492 C182 0.595 . S
C487 C45 0.544 . S
C503 C9 0.585 . S
C508 C222 0.654 . S
C519 C66 2.129 . S
C524 C115 2.396 . S
C535 C78 2.165 . S
C540 C155 2.390 . S
C556 C195 2.354 . S
C551 C90 2.090 . S
C572 C235 2.417 . S
C567 C54 2.105 . S
C583 C18 2.129 1_655 S
C588 C106 2.436 . S
C604 C146 2.405 . S
C599 C30 2.122 1_565 S
C620 C186 2.365 . S
C615 C42 2.082 . S
C631 C6 2.192 . S
C636 C226 2.411 . S
