# Generated by pormake.
# Topology llk, (3,12)-cn, num edge types: 1
# Building blocks:
#     Node 0, Type 0, BuildingBlock: QEWDON_clean_linker_0, # of connection points: 3
#     Node 1, Type 0, BuildingBlock: QEWDON_clean_linker_0, # of connection points: 3
#     Node 2, Type 0, BuildingBlock: QEWDON_clean_linker_0, # of connection points: 3
#     Node 3, Type 0, BuildingBlock: QEWDON_clean_linker_0, # of connection points: 3
#     Node 4, Type 0, BuildingBlock: QEWDON_clean_linker_0, # of connection points: 3
#     Node 5, Type 0, BuildingBlock: QEWDON_clean_linker_0, # of connection points: 3
#     Node 6, Type 0, BuildingBlock: QEWDON_clean_linker_0, # of connection points: 3
#     Node 7, Type 0, BuildingBlock: QEWDON_clean_linker_0, # of connection points: 3
#     Node 8, Type 0, BuildingBlock: QEWDON_clean_linker_0, # of connection points: 3
#     Node 9, Type 0, BuildingBlock: QEWDON_clean_linker_0, # of connection points: 3
#     Node 10, Type 0, BuildingBlock: QEWDON_clean_linker_0, # of connection points: 3
#     Node 11, Type 0, BuildingBlock: QEWDON_clean_linker_0, # of connection points: 3
#     Node 12, Type 0, BuildingBlock: QEWDON_clean_linker_0, # of connection points: 3
#     Node 13, Type 0, BuildingBlock: QEWDON_clean_linker_0, # of connection points: 3
#     Node 14, Type 0, BuildingBlock: QEWDON_clean_linker_0, # of connection points: 3
#     Node 15, Type 0, BuildingBlock: QEWDON_clean_linker_0, # of connection points: 3
#     Node 16, Type 0, BuildingBlock: QEWDON_clean_linker_0, # of connection points: 3
#     Node 17, Type 0, BuildingBlock: QEWDON_clean_linker_0, # of connection points: 3
#     Node 18, Type 0, BuildingBlock: QEWDON_clean_linker_0, # of connection points: 3
#     Node 19, Type 0, BuildingBlock: QEWDON_clean_linker_0, # of connection points: 3
#     Node 20, Type 0, BuildingBlock: QEWDON_clean_linker_0, # of connection points: 3
#     Node 21, Type 0, BuildingBlock: QEWDON_clean_linker_0, # of connection points: 3
#     Node 22, Type 0, BuildingBlock: QEWDON_clean_linker_0, # of connection points: 3
#     Node 23, Type 0, BuildingBlock: QEWDON_clean_linker_0, # of connection points: 3
#     Node 24, Type 1, BuildingBlock: EZIPEK_clean_sbu_0, # of connection points: 12
#     Node 25, Type 1, BuildingBlock: EZIPEK_clean_sbu_0, # of connection points: 12
#     Node 26, Type 1, BuildingBlock: EZIPEK_clean_sbu_0, # of connection points: 12
#     Node 27, Type 1, BuildingBlock: EZIPEK_clean_sbu_0, # of connection points: 12
#     Node 28, Type 1, BuildingBlock: EZIPEK_clean_sbu_0, # of connection points: 12
#     Node 29, Type 1, BuildingBlock: EZIPEK_clean_sbu_0, # of connection points: 12
#     Edge 30, Type (0, 1), BuildingBlock: OJICUG_clean_linker_0, # of connection points: 2
#     Edge 31, Type (0, 1), BuildingBlock: OJICUG_clean_linker_0, # of connection points: 2
#     Edge 32, Type (0, 1), BuildingBlock: OJICUG_clean_linker_0, # of connection points: 2
#     Edge 33, Type (0, 1), BuildingBlock: OJICUG_clean_linker_0, # of connection points: 2
#     Edge 34, Type (0, 1), BuildingBlock: OJICUG_clean_linker_0, # of connection points: 2
#     Edge 35, Type (0, 1), BuildingBlock: OJICUG_clean_linker_0, # of connection points: 2
#     Edge 36, Type (0, 1), BuildingBlock: OJICUG_clean_linker_0, # of connection points: 2
#     Edge 37, Type (0, 1), BuildingBlock: OJICUG_clean_linker_0, # of connection points: 2
#     Edge 38, Type (0, 1), BuildingBlock: OJICUG_clean_linker_0, # of connection points: 2
#     Edge 39, Type (0, 1), BuildingBlock: OJICUG_clean_linker_0, # of connection points: 2
#     Edge 40, Type (0, 1), BuildingBlock: OJICUG_clean_linker_0, # of connection points: 2
#     Edge 41, Type (0, 1), BuildingBlock: OJICUG_clean_linker_0, # of connection points: 2
#     Edge 42, Type (0, 1), BuildingBlock: OJICUG_clean_linker_0, # of connection points: 2
#     Edge 43, Type (0, 1), BuildingBlock: OJICUG_clean_linker_0, # of connection points: 2
#     Edge 44, Type (0, 1), BuildingBlock: OJICUG_clean_linker_0, # of connection points: 2
#     Edge 45, Type (0, 1), BuildingBlock: OJICUG_clean_linker_0, # of connection points: 2
#     Edge 46, Type (0, 1), BuildingBlock: OJICUG_clean_linker_0, # of connection points: 2
#     Edge 47, Type (0, 1), BuildingBlock: OJICUG_clean_linker_0, # of connection points: 2
#     Edge 48, Type (0, 1), BuildingBlock: OJICUG_clean_linker_0, # of connection points: 2
#     Edge 49, Type (0, 1), BuildingBlock: OJICUG_clean_linker_0, # of connection points: 2
#     Edge 50, Type (0, 1), BuildingBlock: OJICUG_clean_linker_0, # of connection points: 2
#     Edge 51, Type (0, 1), BuildingBlock: OJICUG_clean_linker_0, # of connection points: 2
#     Edge 52, Type (0, 1), BuildingBlock: OJICUG_clean_linker_0, # of connection points: 2
#     Edge 53, Type (0, 1), BuildingBlock: OJICUG_clean_linker_0, # of connection points: 2
#     Edge 54, Type (0, 1), BuildingBlock: OJICUG_clean_linker_0, # of connection points: 2
#     Edge 55, Type (0, 1), BuildingBlock: OJICUG_clean_linker_0, # of connection points: 2
#     Edge 56, Type (0, 1), BuildingBlock: OJICUG_clean_linker_0, # of connection points: 2
#     Edge 57, Type (0, 1), BuildingBlock: OJICUG_clean_linker_0, # of connection points: 2
#     Edge 58, Type (0, 1), BuildingBlock: OJICUG_clean_linker_0, # of connection points: 2
#     Edge 59, Type (0, 1), BuildingBlock: OJICUG_clean_linker_0, # of connection points: 2
#     Edge 60, Type (0, 1), BuildingBlock: OJICUG_clean_linker_0, # of connection points: 2
#     Edge 61, Type (0, 1), BuildingBlock: OJICUG_clean_linker_0, # of connection points: 2
#     Edge 62, Type (0, 1), BuildingBlock: OJICUG_clean_linker_0, # of connection points: 2
#     Edge 63, Type (0, 1), BuildingBlock: OJICUG_clean_linker_0, # of connection points: 2
#     Edge 64, Type (0, 1), BuildingBlock: OJICUG_clean_linker_0, # of connection points: 2
#     Edge 65, Type (0, 1), BuildingBlock: OJICUG_clean_linker_0, # of connection points: 2
#     Edge 66, Type (0, 1), BuildingBlock: OJICUG_clean_linker_0, # of connection points: 2
#     Edge 67, Type (0, 1), BuildingBlock: OJICUG_clean_linker_0, # of connection points: 2
#     Edge 68, Type (0, 1), BuildingBlock: OJICUG_clean_linker_0, # of connection points: 2
#     Edge 69, Type (0, 1), BuildingBlock: OJICUG_clean_linker_0, # of connection points: 2
#     Edge 70, Type (0, 1), BuildingBlock: OJICUG_clean_linker_0, # of connection points: 2
#     Edge 71, Type (0, 1), BuildingBlock: OJICUG_clean_linker_0, # of connection points: 2
#     Edge 72, Type (0, 1), BuildingBlock: OJICUG_clean_linker_0, # of connection points: 2
#     Edge 73, Type (0, 1), BuildingBlock: OJICUG_clean_linker_0, # of connection points: 2
#     Edge 74, Type (0, 1), BuildingBlock: OJICUG_clean_linker_0, # of connection points: 2
#     Edge 75, Type (0, 1), BuildingBlock: OJICUG_clean_linker_0, # of connection points: 2
#     Edge 76, Type (0, 1), BuildingBlock: OJICUG_clean_linker_0, # of connection points: 2
#     Edge 77, Type (0, 1), BuildingBlock: OJICUG_clean_linker_0, # of connection points: 2
#     Edge 78, Type (0, 1), BuildingBlock: OJICUG_clean_linker_0, # of connection points: 2
#     Edge 79, Type (0, 1), BuildingBlock: OJICUG_clean_linker_0, # of connection points: 2
#     Edge 80, Type (0, 1), BuildingBlock: OJICUG_clean_linker_0, # of connection points: 2
#     Edge 81, Type (0, 1), BuildingBlock: OJICUG_clean_linker_0, # of connection points: 2
#     Edge 82, Type (0, 1), BuildingBlock: OJICUG_clean_linker_0, # of connection points: 2
#     Edge 83, Type (0, 1), BuildingBlock: OJICUG_clean_linker_0, # of connection points: 2
#     Edge 84, Type (0, 1), BuildingBlock: OJICUG_clean_linker_0, # of connection points: 2
#     Edge 85, Type (0, 1), BuildingBlock: OJICUG_clean_linker_0, # of connection points: 2
#     Edge 86, Type (0, 1), BuildingBlock: OJICUG_clean_linker_0, # of connection points: 2
#     Edge 87, Type (0, 1), BuildingBlock: OJICUG_clean_linker_0, # of connection points: 2
#     Edge 88, Type (0, 1), BuildingBlock: OJICUG_clean_linker_0, # of connection points: 2
#     Edge 89, Type (0, 1), BuildingBlock: OJICUG_clean_linker_0, # of connection points: 2
#     Edge 90, Type (0, 1), BuildingBlock: OJICUG_clean_linker_0, # of connection points: 2
#     Edge 91, Type (0, 1), BuildingBlock: OJICUG_clean_linker_0, # of connection points: 2
#     Edge 92, Type (0, 1), BuildingBlock: OJICUG_clean_linker_0, # of connection points: 2
#     Edge 93, Type (0, 1), BuildingBlock: OJICUG_clean_linker_0, # of connection points: 2
#     Edge 94, Type (0, 1), BuildingBlock: OJICUG_clean_linker_0, # of connection points: 2
#     Edge 95, Type (0, 1), BuildingBlock: OJICUG_clean_linker_0, # of connection points: 2
#     Edge 96, Type (0, 1), BuildingBlock: OJICUG_clean_linker_0, # of connection points: 2
#     Edge 97, Type (0, 1), BuildingBlock: OJICUG_clean_linker_0, # of connection points: 2
#     Edge 98, Type (0, 1), BuildingBlock: OJICUG_clean_linker_0, # of connection points: 2
#     Edge 99, Type (0, 1), BuildingBlock: OJICUG_clean_linker_0, # of connection points: 2
#     Edge 100, Type (0, 1), BuildingBlock: OJICUG_clean_linker_0, # of connection points: 2
#     Edge 101, Type (0, 1), BuildingBlock: OJICUG_clean_linker_0, # of connection points: 2
# Relax obj value: 0.093
# Max RMSD: 0.249
# Mean RMSD: 0.190
data_MOF--net-llk--node1-EZIPEK_clean_sbu_0--node2-QEWDON_clean_linker_0--edge1-OJICUG_clean_linker_0
_symmetry_space_group_name_H-M    P1
_symmetry_Int_Tables_number       1
_symmetry_cell_setting            triclinic
loop_
_symmetry_equiv_pos_as_xyz
'x, y, z'
_cell_length_a     37.545461
_cell_length_b     37.291578
_cell_length_c     37.014061
_cell_angle_alpha  90.036277
_cell_angle_beta   89.956378
_cell_angle_gamma 89.956555
loop_
_atom_site_label
_atom_site_type_symbol
_atom_site_fract_x
_atom_site_fract_y
_atom_site_fract_z
_atom_type_partial_charge
H0 H 1.00966 0.31525 0.28859 0.0
C1 C 0.01416 0.28995 0.30196 0.0
C2 C 0.01856 0.29004 0.33961 0.0
C3 C 0.01556 0.25762 0.28203 0.0
H4 H 0.02209 0.25727 0.38706 0.0
C5 C 0.02187 0.25735 0.35779 0.0
C6 C 0.02439 0.22487 0.33907 0.0
C7 C 0.02195 0.22528 0.30115 0.0
C8 C 1.00975 0.25742 0.24175 0.0
H9 H 0.02547 0.20027 0.2868 0.0
C10 C 0.01517 0.2885 0.22032 0.0
C11 C 1.00787 0.28846 0.18289 0.0
C12 C 0.99734 0.22614 0.22438 0.0
H13 H 0.99105 0.20206 0.2393 0.0
C14 C 0.99197 0.2254 0.18718 0.0
H15 H 0.02447 0.31303 0.23254 0.0
C16 C 0.99732 0.25609 0.16656 0.0
H17 H 0.99286 0.25439 0.13772 0.0
H18 H 0.98299 0.20095 0.1743 0.0
H19 H 0.74114 0.02973 0.32138 0.0
C20 C 0.72798 0.02614 0.29572 0.0
C21 C 0.69079 0.02208 0.29555 0.0
C22 C 0.74774 0.02531 0.26315 0.0
H23 H 0.64418 0.02005 0.26214 0.0
C24 C 0.67303 0.01996 0.26238 0.0
C25 C 0.69161 0.01741 0.22969 0.0
C26 C 0.72899 0.01954 0.23035 0.0
C27 C 0.78757 0.03056 0.26309 0.0
H28 H 0.74322 0.01599 0.20521 0.0
C29 C 0.80874 0.02404 0.2942 0.0
C30 C 0.84588 0.03029 0.29396 0.0
C31 C 0.8048 0.04332 0.23175 0.0
H32 H 0.79011 0.05054 0.20773 0.0
C33 C 0.84159 0.04773 0.2308 0.0
H34 H 0.79657 0.01458 0.31882 0.0
C35 C 0.862 0.04106 0.26139 0.0
H36 H 0.89054 0.04464 0.25944 0.0
H37 H 0.85435 0.0569 0.20625 0.0
H38 H 1.0078 0.73023 0.32185 0.0
C39 C 0.01115 0.71665 0.29623 0.0
C40 C 0.01731 0.67951 0.29604 0.0
C41 C 1.00873 0.73607 0.26363 0.0
H42 H 0.02174 0.63265 0.26261 0.0
C43 C 0.0198 0.66163 0.26286 0.0
C44 C 0.01869 0.68023 0.23004 0.0
C45 C 0.01342 0.71756 0.23061 0.0
C46 C 0.9999 0.7752 0.26405 0.0
H47 H 0.01319 0.73213 0.20534 0.0
C48 C 0.01079 0.79757 0.29283 0.0
C49 C 1.00041 0.83385 0.29427 0.0
C50 C 0.979 0.79019 0.23631 0.0
H51 H 0.96916 0.77391 0.21425 0.0
C52 C 0.96944 0.82632 0.23714 0.0
H53 H 0.02755 0.787 0.3141 0.0
C54 C 0.97989 0.848 0.26591 0.0
H55 H 0.97106 0.87565 0.2664 0.0
H56 H 0.9532 0.8374 0.21572 0.0
H57 H 0.29475 0.99082 0.32144 0.0
C58 C 0.3074 0.9959 0.29572 0.0
C59 C 0.34387 1.00347 0.2953 0.0
C60 C 0.28724 0.9951 0.2637 0.0
H61 H 0.38951 0.01259 0.26129 0.0
C62 C 0.36096 0.00845 0.26181 0.0
C63 C 0.34177 0.00704 0.22906 0.0
C64 C 0.30478 1.00094 0.23044 0.0
C65 C 0.24814 0.9875 0.26547 0.0
H66 H 0.28966 1.00142 0.20556 0.0
C67 C 0.22817 0.9966 0.29657 0.0
C68 C 0.1926 0.98566 0.30047 0.0
C69 C 0.23085 0.96917 0.23722 0.0
H70 H 0.24512 0.96095 0.2132 0.0
C71 C 0.19493 0.96002 0.24011 0.0
H72 H 0.24046 0.01127 0.31845 0.0
C73 C 0.17597 0.96785 0.27157 0.0
H74 H 0.14833 0.95976 0.27334 0.0
H75 H 0.18194 0.94595 0.21818 0.0
H76 H 1.00019 0.69938 0.73571 0.0
C77 C 1.0046 0.72459 0.72211 0.0
C78 C 0.01045 0.72407 0.68466 0.0
C79 C 1.00454 0.7572 0.74159 0.0
H80 H 0.01532 0.75637 0.63693 0.0
C81 C 0.01373 0.75661 0.66616 0.0
C82 C 0.01441 0.78938 0.68458 0.0
C83 C 0.01057 0.78942 0.72233 0.0
C84 C 0.99794 0.75776 0.78165 0.0
H85 H 0.01279 0.81468 0.7365 0.0
C86 C 1.00477 0.72735 0.80347 0.0
C87 C 0.99706 0.72745 0.84077 0.0
C88 C 0.98366 0.78858 0.79839 0.0
H89 H 0.97642 0.8121 0.783 0.0
C90 C 0.97774 0.78949 0.83553 0.0
H91 H 0.01555 0.70326 0.79158 0.0
C92 C 0.98449 0.75936 0.85661 0.0
H93 H 0.97956 0.7611 0.88537 0.0
H94 H 0.96729 0.81357 0.84799 0.0
H95 H 0.29423 0.01452 0.70401 0.0
C96 C 0.30747 0.01065 0.72958 0.0
C97 C 0.34459 1.00583 0.72951 0.0
C98 C 0.2878 0.01037 0.76215 0.0
H99 H 0.39134 1.00204 0.76277 0.0
C100 C 0.3625 1.00301 0.76264 0.0
C101 C 0.34395 1.00209 0.79552 0.0
C102 C 0.30661 1.00492 0.79492 0.0
C103 C 0.24803 0.01615 0.76219 0.0
H104 H 0.29244 1.00229 0.8202 0.0
C105 C 0.22681 0.00969 0.73109 0.0
C106 C 0.18975 0.01641 0.73121 0.0
C107 C 0.23088 0.02934 0.79343 0.0
H108 H 0.2456 0.03657 0.81742 0.0
C109 C 0.19414 0.03414 0.79431 0.0
H110 H 0.23891 0.99992 0.70654 0.0
C111 C 0.1737 0.0275 0.76373 0.0
H112 H 0.14519 0.0314 0.76566 0.0
H113 H 0.18143 0.04359 0.8188 0.0
H114 H 0.99594 0.28184 0.70393 0.0
C115 C 0.99937 0.29539 0.72947 0.0
C116 C 1.00333 0.3328 0.72923 0.0
C117 C 1.00011 0.276 0.76233 0.0
H118 H 1.00486 0.38023 0.76189 0.0
C119 C 1.00506 0.35117 0.76205 0.0
C120 C 1.00759 0.33298 0.79488 0.0
C121 C 1.00555 0.29535 0.79487 0.0
C122 C 0.99522 0.23595 0.76286 0.0
H123 H 1.00885 0.28143 0.82026 0.0
C124 C 1.00251 0.21444 0.73212 0.0
C125 C 0.99645 0.17709 0.73247 0.0
C126 C 0.98208 0.21884 0.79412 0.0
H127 H 0.97447 0.23387 0.81789 0.0
C128 C 0.97779 0.18178 0.79522 0.0
H129 H 0.01238 0.22656 0.70762 0.0
C130 C 0.98505 0.16102 0.76485 0.0
H131 H 0.98144 0.13229 0.7668 0.0
H132 H 0.96823 0.16909 0.81967 0.0
H133 H 0.70805 0.01119 0.73258 0.0
C134 C 0.73333 0.00751 0.71927 0.0
C135 C 0.73344 1.00386 0.68154 0.0
C136 C 0.76521 0.00633 0.73945 0.0
H137 H 0.76639 1.00131 0.63415 0.0
C138 C 0.76621 1.00131 0.6634 0.0
C139 C 0.7986 0.99947 0.68232 0.0
C140 C 0.79766 1.00111 0.72037 0.0
C141 C 0.76466 0.01135 0.77998 0.0
H142 H 0.8224 0.99775 0.73484 0.0
C143 C 0.73321 1.00615 0.80084 0.0
C144 C 0.73251 0.01342 0.83831 0.0
C145 C 0.79553 0.02313 0.79819 0.0
H146 H 0.81989 0.02925 0.78395 0.0
C147 C 0.79552 0.02823 0.83545 0.0
H148 H 0.70893 0.99714 0.78825 0.0
C149 C 0.76448 0.02335 0.85537 0.0
H150 H 0.76557 0.02774 0.88426 0.0
H151 H 0.81966 0.03674 0.84894 0.0
H152 H 0.29688 0.3179 0.01547 0.0
C153 C 0.30949 0.29213 0.0121 0.0
C154 C 0.34663 0.29121 0.00771 0.0
C155 C 0.28891 0.26046 0.012 0.0
H156 H 0.39258 0.25683 0.00408 0.0
C157 C 0.36377 0.25771 0.00517 0.0
C158 C 0.34437 0.2254 0.00482 0.0
C159 C 0.30696 0.22723 0.0074 0.0
C160 C 0.24898 0.26205 0.01741 0.0
H161 H 0.29217 0.20251 0.0051 0.0
C162 C 0.22891 0.29395 0.01134 0.0
C163 C 0.19194 0.29543 0.01867 0.0
C164 C 0.23056 0.23166 0.03028 0.0
H165 H 0.2442 0.2071 0.03716 0.0
C166 C 0.19385 0.23239 0.03544 0.0
H167 H 0.24169 0.31794 1.00153 0.0
C168 C 0.17469 0.26376 0.02958 0.0
H169 H 0.14618 0.26316 0.03398 0.0
H170 H 0.18019 0.20856 0.04474 0.0
H171 H 0.29744 0.69642 0.99709 0.0
C172 C 0.3103 0.72211 1.0007 0.0
C173 C 0.34713 0.72296 0.00674 0.0
C174 C 0.29004 0.75382 0.99909 0.0
H175 H 0.39286 0.75713 0.01301 0.0
C176 C 0.36416 0.75643 0.01019 0.0
C177 C 0.34486 0.7889 0.00906 0.0
C178 C 0.30766 0.78716 0.00374 0.0
C179 C 0.25084 0.75178 0.99129 0.0
H180 H 0.29241 0.81179 0.00388 0.0
C181 C 0.23007 0.72173 1.00191 0.0
C182 C 0.19377 0.71911 0.99243 0.0
C183 C 0.23416 0.77923 0.97141 0.0
H184 H 0.24903 0.80214 0.96174 0.0
C185 C 0.19813 0.77704 0.96259 0.0
H186 H 0.24174 0.70051 0.01795 0.0
C187 C 0.17811 0.74729 0.97285 0.0
H188 H 0.1504 0.74601 0.9648 0.0
H189 H 0.18577 0.7983 0.94712 0.0
H190 H 0.70939 0.28499 0.01984 0.0
C191 C 0.73473 0.29783 0.01534 0.0
C192 C 0.73513 0.3351 0.01066 0.0
C193 C 0.76631 0.27739 0.01421 0.0
H194 H 0.76856 0.3816 0.00564 0.0
C195 C 0.76807 0.3526 0.00692 0.0
C196 C 0.80031 0.33328 0.00577 0.0
C197 C 0.79899 0.29562 0.00866 0.0
C198 C 0.76496 0.23742 0.01988 0.0
H199 H 0.82356 0.28071 0.00601 0.0
C200 C 0.73329 0.21754 0.01367 0.0
C201 C 0.73096 0.18094 0.02277 0.0
C202 C 0.7948 0.21896 0.03363 0.0
H203 H 0.81931 0.2327 0.04011 0.0
C204 C 0.79331 0.18224 0.04045 0.0
H205 H 0.70992 0.23038 0.00267 0.0
C206 C 0.76173 0.16338 0.03525 0.0
H207 H 0.76135 0.135 0.04141 0.0
H208 H 0.81657 0.16846 0.05073 0.0
H209 H 0.70815 0.72974 0.00923 0.0
C210 C 0.73351 0.71681 0.0135 0.0
C211 C 0.73389 0.67957 0.01863 0.0
C212 C 0.76518 0.73711 0.01391 0.0
H213 H 0.76735 0.63301 0.02356 0.0
C214 C 0.76687 0.662 0.02204 0.0
C215 C 0.79912 0.68123 0.02253 0.0
C216 C 0.79784 0.71883 0.01934 0.0
C217 C 0.76409 0.777 0.00776 0.0
H218 H 0.82244 0.73368 0.02163 0.0
C219 C 0.73277 0.79732 0.01436 0.0
C220 C 0.73091 0.83403 0.00554 0.0
C221 C 0.79397 0.79498 0.99344 0.0
H222 H 0.81817 0.78085 0.98651 0.0
C223 C 0.79296 0.83173 0.98678 0.0
H224 H 0.70938 0.78474 0.02558 0.0
C225 C 0.7618 0.85112 0.9927 0.0
H226 H 0.76188 0.87957 0.98683 0.0
H227 H 0.81628 0.84514 0.97616 0.0
H228 H 0.5098 0.81626 0.78949 0.0
C229 C 0.51372 0.7909 0.80309 0.0
C230 C 0.51944 0.79084 0.84051 0.0
C231 C 0.51248 0.75857 0.78339 0.0
H232 H 0.52413 0.75788 0.88775 0.0
C233 C 0.52259 0.75799 0.85853 0.0
C234 C 0.52275 0.72535 0.83973 0.0
C235 C 0.51794 0.72589 0.802 0.0
C236 C 0.50391 0.75906 0.7439 0.0
H237 H 0.51866 0.70088 0.78717 0.0
C238 C 0.51364 0.78843 0.7218 0.0
C239 C 0.50295 0.79015 0.68537 0.0
C240 C 0.48405 0.73098 0.72839 0.0
H241 H 0.47513 0.70845 0.74443 0.0
C242 C 0.47426 0.7321 0.69208 0.0
H243 H 0.52969 0.80997 0.73267 0.0
C244 C 0.4834 0.76147 0.67074 0.0
H245 H 0.47436 0.7621 0.64297 0.0
H246 H 0.45878 0.71043 0.68061 0.0
H247 H 0.24077 0.53008 0.82115 0.0
C248 C 0.22772 0.52607 0.79549 0.0
C249 C 0.19059 0.52157 0.79526 0.0
C250 C 0.24759 0.52516 0.76302 0.0
H251 H 0.14409 0.51827 0.76174 0.0
C252 C 0.17294 0.51877 0.76206 0.0
C253 C 0.19167 0.51648 0.72941 0.0
C254 C 0.22902 0.51915 0.73016 0.0
C255 C 0.28735 0.53065 0.7632 0.0
H256 H 0.24338 0.51583 0.70506 0.0
C257 C 0.30836 0.52403 0.79439 0.0
C258 C 0.34542 0.53069 0.79451 0.0
C259 C 0.30468 0.54377 0.73207 0.0
H260 H 0.29006 0.55096 0.70799 0.0
C261 C 0.34143 0.54859 0.73145 0.0
H262 H 0.29611 0.5142 0.81883 0.0
C263 C 0.36167 0.54194 0.76218 0.0
H264 H 0.39018 0.5459 0.76053 0.0
H265 H 0.35427 0.55808 0.70708 0.0
H266 H 0.50788 0.23098 0.82082 0.0
C267 C 0.51178 0.21744 0.79533 0.0
C268 C 0.51669 0.18008 0.7956 0.0
C269 C 0.51189 0.23687 0.76251 0.0
H270 H 0.51995 0.13273 0.76276 0.0
C271 C 0.51928 0.16177 0.7627 0.0
C272 C 0.52042 0.1801 0.7298 0.0
C273 C 0.51751 0.21765 0.72995 0.0
C274 C 0.50573 0.27678 0.76191 0.0
H275 H 0.52006 0.23165 0.70451 0.0
C276 C 0.5125 0.29866 0.7925 0.0
C277 C 0.50562 0.33591 0.79187 0.0
C278 C 0.49197 0.29337 0.73064 0.0
H279 H 0.48453 0.27803 0.70704 0.0
C280 C 0.48686 0.3303 0.72925 0.0
H281 H 0.52264 0.28689 0.81704 0.0
C282 C 0.49386 0.35146 0.75936 0.0
H283 H 0.48972 0.38009 0.75709 0.0
H284 H 0.47693 0.34259 0.70475 0.0
H285 H 0.79451 0.49338 0.82112 0.0
C286 C 0.80717 0.49831 0.79539 0.0
C287 C 0.84368 0.50576 0.79496 0.0
C288 C 0.78702 0.49734 0.76335 0.0
H289 H 0.88938 0.51437 0.76092 0.0
C290 C 0.86081 0.51044 0.76146 0.0
C291 C 0.84164 0.50898 0.72871 0.0
C292 C 0.80462 0.50305 0.73009 0.0
C293 C 0.74792 0.48956 0.76506 0.0
H294 H 0.78956 0.50351 0.70518 0.0
C295 C 0.72785 0.49821 0.79625 0.0
C296 C 0.69226 0.48717 0.79992 0.0
C297 C 0.73071 0.4715 0.73657 0.0
H298 H 0.74501 0.46353 0.71249 0.0
C299 C 0.69479 0.46231 0.73923 0.0
H300 H 0.74004 0.51263 0.81834 0.0
C301 C 0.67573 0.46977 0.77071 0.0
H302 H 0.64807 0.46169 0.77224 0.0
H303 H 0.68187 0.44851 0.71709 0.0
H304 H 0.49941 0.19973 0.23625 0.0
C305 C 0.5039 0.22498 0.22277 0.0
C306 C 0.50951 0.22462 0.1853 0.0
C307 C 0.50421 0.25749 0.24242 0.0
H308 H 0.51433 0.25708 0.1377 0.0
C309 C 0.5129 0.25721 0.16694 0.0
C310 C 0.51396 0.28987 0.18549 0.0
C311 C 0.5103 0.28978 0.22327 0.0
C312 C 0.49794 0.25782 0.28255 0.0
H313 H 0.51272 0.31498 0.23752 0.0
C314 C 0.50471 0.22719 0.3041 0.0
C315 C 0.49722 0.22705 0.34144 0.0
C316 C 0.48403 0.28861 0.29963 0.0
H317 H 0.47688 0.31231 0.28447 0.0
C318 C 0.47833 0.28927 0.33681 0.0
H319 H 0.51527 0.20311 0.29197 0.0
C320 C 0.48497 0.25892 0.35761 0.0
H321 H 0.48021 0.26047 0.38641 0.0
H322 H 0.46815 0.31334 0.34953 0.0
H323 H 0.79428 0.51442 0.2037 0.0
C324 C 0.80752 0.51061 0.22927 0.0
C325 C 0.84462 0.50566 0.22919 0.0
C326 C 0.78786 0.51051 0.26185 0.0
H327 H 0.89137 0.5018 0.26248 0.0
C328 C 0.86254 0.5029 0.26233 0.0
C329 C 0.84398 0.50221 0.29524 0.0
C330 C 0.80665 0.50515 0.29463 0.0
C331 C 0.74811 0.51636 0.26187 0.0
H332 H 0.79247 0.50267 0.31992 0.0
C333 C 0.72691 0.5098 0.23079 0.0
C334 C 0.68987 0.5166 0.23084 0.0
C335 C 0.73096 0.52969 0.29305 0.0
H336 H 0.74567 0.53699 0.31702 0.0
C337 C 0.69422 0.53455 0.29388 0.0
H338 H 0.739 0.4999 0.2063 0.0
C339 C 0.6738 0.52784 0.2633 0.0
H340 H 0.6453 0.53182 0.26517 0.0
H341 H 0.68151 0.54413 0.31832 0.0
H342 H 0.4951 0.78271 0.20292 0.0
C343 C 0.49832 0.79622 0.22858 0.0
C344 C 0.50439 0.8333 0.22883 0.0
C345 C 0.49609 0.77679 0.26121 0.0
H346 H 0.50845 0.8802 0.2621 0.0
C347 C 0.50659 0.8512 0.26193 0.0
C348 C 0.50609 0.83263 0.29472 0.0
C349 C 0.50081 0.7953 0.29426 0.0
C350 C 0.4879 0.73756 0.26062 0.0
H351 H 0.50082 0.78073 0.31956 0.0
C352 C 0.49925 0.71553 0.23172 0.0
C353 C 0.48929 0.67918 0.22989 0.0
C354 C 0.46713 0.72214 0.28822 0.0
H355 H 0.45709 0.73815 0.3104 0.0
C356 C 0.45798 0.68592 0.28702 0.0
H357 H 0.51607 0.72644 0.21065 0.0
C358 C 0.46875 0.6646 0.25805 0.0
H359 H 0.46023 0.63688 0.25729 0.0
H360 H 0.4418 0.67448 0.3083 0.0
H361 H 0.20797 0.51126 0.23263 0.0
C362 C 0.23326 0.50755 0.21932 0.0
C363 C 0.23344 0.50406 0.18157 0.0
C364 C 0.26508 0.50621 0.23955 0.0
H365 H 0.26659 0.50139 0.13427 0.0
C366 C 0.26628 0.5014 0.16352 0.0
C367 C 0.29862 0.49953 0.18256 0.0
C368 C 0.29758 0.50107 0.22059 0.0
C369 C 0.26444 0.51103 0.28006 0.0
H370 H 0.32227 0.49771 0.23516 0.0
C371 C 0.23307 0.50517 0.30081 0.0
C372 C 0.23219 0.51236 0.33828 0.0
C373 C 0.29508 0.5233 0.29833 0.0
H374 H 0.31935 0.52985 0.2841 0.0
C375 C 0.29492 0.52832 0.3356 0.0
H376 H 0.20899 0.49573 0.28812 0.0
C377 C 0.26392 0.52287 0.35544 0.0
H378 H 0.26482 0.52729 0.38434 0.0
H379 H 0.31887 0.53726 0.34915 0.0
H380 H 0.79701 0.8177 0.51427 0.0
C381 C 0.80982 0.79201 0.51108 0.0
C382 C 0.847 0.79139 0.50703 0.0
C383 C 0.7895 0.76017 0.51083 0.0
H384 H 0.89329 0.75747 0.50404 0.0
C385 C 0.86447 0.75805 0.50479 0.0
C386 C 0.84537 0.72556 0.5043 0.0
C387 C 0.8079 0.72709 0.50645 0.0
C388 C 0.74947 0.76144 0.51579 0.0
H389 H 0.79336 0.70224 0.50395 0.0
C390 C 0.72921 0.79326 0.50982 0.0
C391 C 0.69212 0.79435 0.51663 0.0
C392 C 0.73111 0.73077 0.52809 0.0
H393 H 0.74483 0.70624 0.53491 0.0
C394 C 0.69432 0.73114 0.5327 0.0
H395 H 0.74191 0.81747 0.5005 0.0
C396 C 0.67498 0.7624 0.52688 0.0
H397 H 0.64642 0.76148 0.53082 0.0
H398 H 0.68074 0.70709 0.54152 0.0
H399 H 0.79777 0.19608 0.49631 0.0
C400 C 0.81039 0.22187 0.5 0.0
C401 C 0.84721 0.22305 0.50613 0.0
C402 C 0.78984 0.2534 0.49842 0.0
H403 H 0.89256 0.25773 0.51274 0.0
C404 C 0.86389 0.25669 0.50977 0.0
C405 C 0.84425 0.28895 0.50866 0.0
C406 C 0.80712 0.28689 0.50319 0.0
C407 C 0.75068 0.25103 0.4906 0.0
H408 H 0.79165 0.31139 0.50333 0.0
C409 C 0.73017 0.22083 0.50128 0.0
C410 C 0.69388 0.21798 0.49192 0.0
C411 C 0.73376 0.27835 0.47074 0.0
H412 H 0.74846 0.30137 0.46103 0.0
C413 C 0.69773 0.27591 0.46203 0.0
H414 H 0.74203 0.1997 0.5173 0.0
C415 C 0.67794 0.24603 0.4724 0.0
H416 H 0.65021 0.24457 0.46449 0.0
H417 H 0.68518 0.29708 0.4466 0.0
H418 H 0.20823 0.78389 0.51839 0.0
C419 C 0.23371 0.79712 0.51599 0.0
C420 C 0.23423 0.83426 0.51056 0.0
C421 C 0.26537 0.77714 0.51907 0.0
H422 H 0.26797 0.88075 0.50573 0.0
C423 C 0.2673 0.85189 0.50897 0.0
C424 C 0.29957 0.83289 0.51251 0.0
C425 C 0.29835 0.79537 0.51661 0.0
C426 C 0.26335 0.73785 0.52731 0.0
H427 H 0.32313 0.78071 0.5189 0.0
C428 C 0.23368 0.71712 0.51626 0.0
C429 C 0.2298 0.6813 0.52734 0.0
C430 C 0.28973 0.72125 0.54857 0.0
H431 H 0.31238 0.73612 0.55862 0.0
C432 C 0.28661 0.68531 0.55849 0.0
H433 H 0.21343 0.72852 0.49892 0.0
C434 C 0.25682 0.6655 0.54821 0.0
H435 H 0.25453 0.638 0.55732 0.0
H436 H 0.30699 0.67298 0.57502 0.0
H437 H 0.2087 0.22893 0.50912 0.0
C438 C 0.23411 0.21615 0.51346 0.0
C439 C 0.23469 0.17894 0.51859 0.0
C440 C 0.26566 0.23662 0.5139 0.0
H441 H 0.26838 0.13257 0.52367 0.0
C442 C 0.26774 0.16155 0.52209 0.0
C443 C 0.29989 0.18097 0.52257 0.0
C444 C 0.29842 0.21856 0.51928 0.0
C445 C 0.26423 0.27646 0.50772 0.0
H446 H 0.32295 0.23358 0.52144 0.0
C447 C 0.23277 0.29645 0.51458 0.0
C448 C 0.23029 0.33296 0.50525 0.0
C449 C 0.29374 0.29466 0.49295 0.0
H450 H 0.31805 0.28074 0.48596 0.0
C451 C 0.29214 0.33132 0.48581 0.0
H452 H 0.20969 0.28372 0.52631 0.0
C453 C 0.26074 0.35033 0.49174 0.0
H454 H 0.26025 0.37866 0.48537 0.0
H455 H 0.31515 0.34492 0.47475 0.0
C456 C 0.01789 0.91398 0.59234 0.0
C457 C 0.02111 0.92761 0.41727 0.0
C458 C 0.01223 0.08654 0.60599 0.0
C459 C 0.02618 0.10022 0.43151 0.0
C460 C 0.93519 0.09558 0.51379 0.0
C461 C 0.93479 0.91894 0.50215 0.0
C462 C 0.10778 0.09168 0.52243 0.0
C463 C 0.10729 0.92131 0.50724 0.0
C464 C 0.1086 0.00728 0.42843 0.0
C465 C 0.93754 0.01549 0.41942 0.0
C466 C 0.09906 1.00391 0.6048 0.0
C467 C 0.92618 0.99967 0.59309 0.0
Eu468 Eu 0.02029 0.93932 0.50627 0.0
O469 O 0.98935 0.97763 0.47556 0.0
O470 O 0.04909 0.97257 0.54357 0.0
Eu471 Eu 0.95129 0.00719 0.50742 0.0
Eu472 Eu 0.08665 0.00642 0.51581 0.0
O473 O 0.98565 0.97271 0.53871 0.0
O474 O 0.0526 0.97802 0.47917 0.0
Eu475 Eu 0.01416 1.00162 0.57969 0.0
Eu476 Eu 0.02248 0.01259 0.44417 0.0
O477 O 0.98585 0.03647 0.5436 0.0
O478 O 0.9896 0.04177 0.4813 0.0
O479 O 0.05341 0.04123 0.48395 0.0
O480 O 0.04907 0.03565 0.54853 0.0
Eu481 Eu 0.02073 0.07479 0.51751 0.0
O482 O 0.02064 0.90581 0.55731 0.0
O483 O 0.02117 0.91364 0.45052 0.0
O484 O 0.01855 0.10054 0.57336 0.0
O485 O 0.02465 0.10852 0.46661 0.0
O486 O 0.9231 0.06202 0.50891 0.0
O487 O 0.92265 0.95276 0.50418 0.0
O488 O 0.11755 0.05746 0.52117 0.0
O489 O 0.11729 0.95512 0.51204 0.0
O490 O 0.07539 0.00968 0.41628 0.0
O491 O 0.97203 0.01827 0.41125 0.0
O492 O 0.06448 1.00417 0.61317 0.0
O493 O 0.95924 0.99898 0.60664 0.0
O494 O 0.0743 0.10397 0.52105 0.0
O495 O 0.96912 0.1052 0.5178 0.0
O496 O 0.0737 0.90954 0.50484 0.0
O497 O 0.96885 0.90895 0.50227 0.0
O498 O 0.02128 0.96257 0.40955 0.0
O499 O 0.02561 0.0672 0.41769 0.0
O500 O 0.01435 0.94686 0.6061 0.0
O501 O 1.00861 0.05176 0.61344 0.0
O502 O 0.91794 1.00275 0.55816 0.0
O503 O 0.92422 0.00991 0.45242 0.0
O504 O 0.11277 1.00296 0.57143 0.0
O505 O 0.11875 0.00674 0.4631 0.0
C506 C 0.51344 0.92571 0.10507 0.0
C507 C 0.51512 0.09896 0.09527 0.0
C508 C 0.52085 0.91594 0.9315 0.0
C509 C 0.51951 0.08892 0.92106 0.0
C510 C 0.60677 0.00694 0.92959 0.0
C511 C 0.6003 0.01016 0.10406 0.0
C512 C 0.43354 1.00139 0.9229 0.0
C513 C 0.42845 0.01295 0.09974 0.0
C514 C 0.43105 0.09574 0.00532 0.0
C515 C 0.60371 0.09423 0.01488 0.0
C516 C 0.43148 0.91862 0.0154 0.0
C517 C 0.60452 0.92201 0.01638 0.0
Eu518 Eu 0.51465 0.01152 0.08119 0.0
O519 O 0.54739 0.04165 0.04471 0.0
O520 O 0.48397 0.97755 0.04601 0.0
Eu521 Eu 0.5842 0.00809 0.01617 0.0
Eu522 Eu 0.44807 0.00727 0.01154 0.0
O523 O 0.54805 0.97743 0.04887 0.0
O524 O 0.48395 0.04104 0.04197 0.0
Eu525 Eu 0.51757 0.93989 0.01759 0.0
Eu526 Eu 0.51716 0.07523 0.00904 0.0
O527 O 0.54998 0.97411 0.98459 0.0
O528 O 0.54993 0.03765 0.98037 0.0
O529 O 0.48608 0.0368 0.97885 0.0
O530 O 0.48633 0.9741 0.98288 0.0
Eu531 Eu 0.51947 1.00331 0.94539 0.0
O532 O 0.51353 0.96037 0.11409 0.0
O533 O 0.51372 0.06582 0.10868 0.0
O534 O 0.52008 0.94905 0.918 0.0
O535 O 0.52077 0.05423 0.91229 0.0
O536 O 0.61565 0.01079 0.96425 0.0
O537 O 0.61282 0.00884 0.07032 0.0
O538 O 0.42065 1.00493 0.95647 0.0
O539 O 0.41734 0.00917 0.06547 0.0
O540 O 0.46524 0.10543 0.00496 0.0
O541 O 0.57034 0.1056 0.00915 0.0
O542 O 0.4657 0.90919 0.01779 0.0
O543 O 0.57102 0.91016 0.0196 0.0
O544 O 0.46796 1.00006 0.91381 0.0
O545 O 0.57371 1.00206 0.91697 0.0
O546 O 0.46226 0.01467 0.11041 0.0
O547 O 0.56596 0.01152 0.11338 0.0
O548 O 0.51663 0.10778 0.0604 0.0
O549 O 0.51762 0.10231 0.95439 0.0
O550 O 0.51456 0.91244 0.07173 0.0
O551 O 0.5204 0.90716 0.96639 0.0
O552 O 0.6145 0.95618 0.01429 0.0
O553 O 0.61376 0.06028 0.01902 0.0
O554 O 0.41931 0.95241 0.01221 0.0
O555 O 0.41897 0.06191 0.00839 0.0
C556 C 0.01564 0.41491 0.09194 0.0
C557 C 0.01388 0.4271 0.91835 0.0
C558 C 0.01881 0.58854 0.10448 0.0
C559 C 0.01044 0.60132 0.93085 0.0
C560 C 0.9265 0.59331 0.02144 0.0
C561 C 0.92725 0.42184 0.005 0.0
C562 C 0.09982 0.59706 0.0128 0.0
C563 C 0.10091 0.42091 0.00696 0.0
C564 C 0.09947 0.51419 0.92057 0.0
C565 C 0.92863 0.51456 0.92449 0.0
C566 C 0.1062 0.50253 0.09376 0.0
C567 C 0.93311 0.50144 0.10149 0.0
Eu568 Eu 0.01444 0.44044 0.00625 0.0
O569 O 0.98274 0.4788 0.97743 0.0
O570 O 0.04823 0.47434 0.03879 0.0
Eu571 Eu 0.94759 0.5077 0.01283 0.0
Eu572 Eu 0.08315 0.50879 0.008 0.0
O573 O 0.98452 0.47416 0.04202 0.0
O574 O 0.04622 0.47835 0.9757 0.0
Eu575 Eu 0.01865 0.50294 0.07908 0.0
Eu576 Eu 0.01408 0.51319 0.94312 0.0
O577 O 0.98453 0.53676 0.04661 0.0
O578 O 0.9823 0.54193 0.9822 0.0
O579 O 0.04578 0.54313 0.98058 0.0
O580 O 0.04793 0.53793 0.04371 0.0
Eu581 Eu 0.01378 0.57588 0.01633 0.0
O582 O 0.012 0.40702 0.05701 0.0
O583 O 0.01376 0.4136 0.95165 0.0
O584 O 0.01514 0.60217 0.07141 0.0
O585 O 1.00914 0.60935 0.9659 0.0
O586 O 0.91672 0.55909 0.01895 0.0
O587 O 0.91715 0.45593 0.00816 0.0
O588 O 0.11178 0.56324 0.00983 0.0
O589 O 0.11261 0.45484 0.00528 0.0
O590 O 0.06524 0.51425 0.91108 0.0
O591 O 0.96232 0.51622 0.91367 0.0
O592 O 0.073 0.50186 0.10694 0.0
O593 O 0.96741 0.50022 0.11079 0.0
O594 O 0.06564 0.6066 0.01561 0.0
O595 O 0.96012 0.60536 0.0205 0.0
O596 O 0.06687 0.41061 0.00779 0.0
O597 O 0.96104 0.41021 0.00438 0.0
O598 O 0.01409 0.46194 0.90975 0.0
O599 O 0.01376 0.56846 0.91677 0.0
O600 O 0.02015 0.44775 0.10568 0.0
O601 O 0.02095 0.55373 0.11275 0.0
O602 O 0.92026 0.50438 0.06788 0.0
O603 O 0.91738 0.51091 0.95874 0.0
O604 O 0.11517 0.50493 0.05906 0.0
O605 O 0.11195 0.51283 0.95424 0.0
C606 C 0.51796 0.41408 0.09279 0.0
C607 C 0.51369 0.58657 0.10658 0.0
C608 C 0.51922 0.42762 0.91777 0.0
C609 C 0.52504 0.60019 0.93164 0.0
C610 C 0.60764 0.5071 0.92791 0.0
C611 C 0.59943 0.50392 0.10438 0.0
C612 C 0.43664 0.51562 0.9202 0.0
C613 C 0.42644 0.49966 0.09379 0.0
C614 C 0.43442 0.59514 0.01433 0.0
C615 C 0.60701 0.59222 0.02231 0.0
C616 C 0.43501 0.41846 0.00268 0.0
C617 C 0.60764 0.42165 0.00831 0.0
Eu618 Eu 0.51443 0.50168 0.07984 0.0
O619 O 0.54887 0.53582 0.04835 0.0
O620 O 0.48588 0.47247 0.03904 0.0
Eu621 Eu 0.58641 0.5068 0.01548 0.0
Eu622 Eu 0.45102 0.50682 0.00808 0.0
O623 O 0.54929 0.47271 0.04353 0.0
O624 O 0.48545 0.53641 0.04414 0.0
Eu625 Eu 0.52055 0.4391 0.00658 0.0
Eu626 Eu 0.52 0.57477 0.01769 0.0
O627 O 0.55235 0.47803 0.97904 0.0
O628 O 0.55265 0.54136 0.9839 0.0
O629 O 0.48888 0.54158 0.98166 0.0
O630 O 0.48917 0.47738 0.97622 0.0
Eu631 Eu 0.52163 0.51253 0.94438 0.0
O632 O 0.51446 0.44701 0.10641 0.0
O633 O 0.51178 0.55167 0.11417 0.0
O634 O 0.51738 0.46252 0.91011 0.0
O635 O 0.52461 0.56716 0.91783 0.0
O636 O 0.6181 0.50733 0.9625 0.0
O637 O 0.61295 0.50369 0.07092 0.0
O638 O 0.42357 0.50947 0.9532 0.0
O639 O 0.418 0.5022 0.0589 0.0
O640 O 0.46833 0.60495 0.01797 0.0
O641 O 0.57343 0.60429 0.02132 0.0
O642 O 0.46912 0.4086 0.00244 0.0
O643 O 0.57413 0.40959 0.00605 0.0
O644 O 0.47105 0.51887 0.9119 0.0
O645 O 0.57428 0.50883 0.91603 0.0
O646 O 0.45958 0.49955 0.10718 0.0
O647 O 0.56492 0.50351 0.11298 0.0
O648 O 0.5171 0.60055 0.07348 0.0
O649 O 0.5236 0.6085 0.96674 0.0
O650 O 0.52077 0.40578 0.05778 0.0
O651 O 0.52233 0.41341 0.95075 0.0
O652 O 0.61738 0.45564 0.01226 0.0
O653 O 0.61699 0.55807 0.02066 0.0
O654 O 0.42273 0.45222 0.00497 0.0
O655 O 0.42247 0.56149 0.0097 0.0
C656 C 0.01218 0.42459 0.60483 0.0
C657 C 0.01906 0.41485 0.4311 0.0
C658 C 0.01659 0.59797 0.59517 0.0
C659 C 0.02067 0.58775 0.42099 0.0
C660 C 0.93239 0.59586 0.50538 0.0
C661 C 0.93036 0.4187 0.51546 0.0
C662 C 0.10582 0.59119 0.51054 0.0
C663 C 0.10328 0.41953 0.5163 0.0
C664 C 0.10645 0.50404 0.42912 0.0
C665 C 0.93331 0.50133 0.42279 0.0
C666 C 0.10053 0.50863 0.6037 0.0
C667 C 0.92866 0.51319 0.59958 0.0
Eu668 Eu 0.01662 0.43877 0.51731 0.0
O669 O 0.98573 0.47336 0.48265 0.0
O670 O 0.04764 0.47582 0.54872 0.0
Eu671 Eu 0.94813 0.50713 0.51139 0.0
Eu672 Eu 0.08411 0.50575 0.51578 0.0
O673 O 0.98373 0.47705 0.54583 0.0
O674 O 0.04951 0.47233 0.48412 0.0
Eu675 Eu 0.01488 0.51047 0.58109 0.0
Eu676 Eu 0.01921 0.50212 0.44518 0.0
O677 O 0.98462 0.54035 0.54183 0.0
O678 O 0.98654 0.53624 0.47878 0.0
O679 O 0.05008 0.53582 0.48032 0.0
O680 O 0.0482 0.54016 0.54467 0.0
Eu681 Eu 0.01832 0.57415 0.509 0.0
O682 O 0.01323 0.41129 0.57148 0.0
O683 O 0.01862 0.40607 0.466 0.0
O684 O 0.01841 0.60675 0.56032 0.0
O685 O 0.01903 0.60113 0.45433 0.0
O686 O 0.91987 0.56219 0.5083 0.0
O687 O 0.91862 0.45265 0.51224 0.0
O688 O 0.11503 0.55696 0.51416 0.0
O689 O 0.11374 0.45353 0.51453 0.0
O690 O 0.07326 0.50037 0.41648 0.0
O691 O 0.96768 0.49963 0.41366 0.0
O692 O 0.06623 0.50973 0.61317 0.0
O693 O 0.96249 0.51445 0.61027 0.0
O694 O 0.07229 0.60343 0.50823 0.0
O695 O 0.96673 0.6051 0.50509 0.0
O696 O 0.06959 0.40812 0.51911 0.0
O697 O 0.96444 0.40881 0.51774 0.0
O698 O 0.01886 0.44797 0.41764 0.0
O699 O 0.02133 0.55307 0.41214 0.0
O700 O 0.01277 0.45926 0.61382 0.0
O701 O 0.01458 0.56484 0.60857 0.0
O702 O 0.91749 0.50951 0.56532 0.0
O703 O 0.92051 0.50506 0.45638 0.0
O704 O 0.11292 0.50756 0.56988 0.0
O705 O 0.11552 0.50699 0.4638 0.0
C706 C 0.51818 0.9138 0.59198 0.0
C707 C 0.51249 0.92617 0.41854 0.0
C708 C 0.51989 0.08779 0.60464 0.0
C709 C 0.5105 0.10043 0.43093 0.0
C710 C 0.42714 0.09311 0.52143 0.0
C711 C 0.42684 0.92144 0.51175 0.0
C712 C 0.60031 0.09587 0.51274 0.0
C713 C 0.60063 0.91974 0.50574 0.0
C714 C 0.59932 0.01347 0.42056 0.0
C715 C 0.42842 0.01298 0.42504 0.0
C716 C 0.60631 1.00143 0.59374 0.0
C717 C 0.43339 1.00208 0.60203 0.0
Eu718 Eu 0.51416 0.93957 0.50636 0.0
O719 O 0.48235 0.978 0.47763 0.0
O720 O 0.54807 0.9735 0.53878 0.0
Eu721 Eu 0.4478 0.00737 0.51338 0.0
Eu722 Eu 0.58319 0.00768 0.50796 0.0
O723 O 0.4847 0.9736 0.54222 0.0
O724 O 0.54608 0.97731 0.47573 0.0
Eu725 Eu 0.51881 1.00221 0.57925 0.0
Eu726 Eu 0.51394 0.01226 0.44329 0.0
O727 O 0.48483 0.03635 0.54702 0.0
O728 O 0.48256 0.04126 0.4825 0.0
O729 O 0.54588 0.04211 0.48064 0.0
O730 O 0.54822 0.03698 0.54377 0.0
Eu731 Eu 0.51425 0.07513 0.51647 0.0
O732 O 0.51583 0.90587 0.55693 0.0
O733 O 0.51179 0.9127 0.45183 0.0
O734 O 0.51626 0.10143 0.57155 0.0
O735 O 0.50956 0.10852 0.46598 0.0
O736 O 0.41717 0.05897 0.51872 0.0
O737 O 0.41727 0.95571 0.51418 0.0
O738 O 0.61212 0.062 0.50978 0.0
O739 O 0.61246 0.95365 0.5049 0.0
O740 O 0.56506 0.01347 0.41114 0.0
O741 O 0.46204 0.01533 0.41414 0.0
O742 O 0.57315 1.0009 0.60698 0.0
O743 O 0.46769 0.99985 0.61117 0.0
O744 O 0.56618 0.10557 0.51555 0.0
O745 O 0.46082 0.10496 0.52079 0.0
O746 O 0.56654 0.90956 0.50617 0.0
O747 O 0.46039 0.9096 0.50771 0.0
O748 O 0.51376 0.96098 0.4099 0.0
O749 O 0.51351 0.06753 0.41685 0.0
O750 O 0.51971 0.94695 0.60576 0.0
O751 O 0.5216 0.05297 0.61291 0.0
O752 O 0.42056 1.00572 0.56851 0.0
O753 O 0.41734 0.00897 0.45932 0.0
O754 O 0.61524 1.00367 0.55902 0.0
O755 O 0.61186 0.01197 0.4542 0.0
C756 C 0.17101 0.16699 0.49929 0.0
C757 C 0.20073 0.15825 0.52092 0.0
H758 H 0.11762 0.1532 0.48352 0.0
C759 C 0.19775 0.12955 0.54534 0.0
H760 H 0.17234 0.18861 0.47984 0.0
C761 C 0.16668 0.10915 0.54694 0.0
C762 C 0.13751 0.11731 0.5247 0.0
H763 H 0.21956 0.12258 0.56313 0.0
H764 H 0.16568 0.08644 0.56518 0.0
C765 C 0.13955 0.14686 0.50141 0.0
C766 C 0.86058 0.15895 0.48742 0.0
C767 C 0.86819 0.18909 0.50922 0.0
H768 H 0.87538 0.10525 0.47222 0.0
C769 C 0.89602 0.1865 0.53444 0.0
H770 H 0.83959 0.15996 0.46742 0.0
C771 C 0.91659 0.15541 0.53679 0.0
C772 C 0.90964 0.12579 0.51437 0.0
H773 H 0.90212 0.20861 0.55238 0.0
H774 H 0.93841 0.15475 0.55593 0.0
C775 C 0.88097 0.1275 0.49017 0.0
C776 C 0.89692 0.82784 0.48065 0.0
C777 C 0.86772 0.82557 0.50435 0.0
H778 H 0.94046 0.85929 0.46112 0.0
C779 C 0.85869 0.85613 0.52498 0.0
H780 H 0.90416 0.80542 0.46353 0.0
C781 C 0.87909 0.8876 0.52274 0.0
C782 C 0.90915 0.88893 0.50025 0.0
H783 H 0.83661 0.85542 0.54379 0.0
H784 H 0.87242 0.91017 0.5399 0.0
C785 C 0.91749 0.85893 0.47887 0.0
C786 C 0.17014 0.84538 0.5287 0.0
C787 C 0.20011 0.85465 0.50759 0.0
H788 H 0.11658 0.85876 0.54437 0.0
C789 C 0.19737 0.88393 0.48387 0.0
H790 H 0.1713 0.82339 0.54774 0.0
C791 C 0.16626 0.90436 0.48255 0.0
C792 C 0.13689 0.89564 0.50435 0.0
H793 H 0.21942 0.8914 0.46658 0.0
H794 H 0.16539 0.92761 0.46499 0.0
C795 C 0.13868 0.86551 0.52682 0.0
C796 C 0.49066 0.16088 0.17217 0.0
C797 C 0.51262 0.19055 0.16471 0.0
H798 H 0.47461 0.10796 0.15599 0.0
C799 C 0.53732 0.18814 0.13619 0.0
H800 H 0.47127 0.16186 0.19381 0.0
C801 C 0.53845 0.15794 0.11421 0.0
C802 C 0.51568 0.12898 0.12085 0.0
H803 H 0.55551 0.20994 0.1304 0.0
H804 H 0.55703 0.15731 0.09178 0.0
C805 C 0.49244 0.13012 0.15053 0.0
C806 C 0.85666 0.52394 0.16435 0.0
C807 C 0.86511 0.50282 0.19473 0.0
H808 H 0.87133 0.53956 0.11047 0.0
C809 C 0.89412 0.47901 0.19239 0.0
H810 H 0.83469 0.54274 0.16514 0.0
C811 C 0.91535 0.47787 0.16153 0.0
C812 C 0.90766 0.49982 0.1318 0.0
H813 H 0.90082 0.46144 0.21467 0.0
H814 H 0.93815 0.46002 0.16108 0.0
C815 C 0.87761 0.5222 0.13301 0.0
C816 C 0.48737 0.84784 0.16456 0.0
C817 C 0.50878 0.85422 0.19505 0.0
H818 H 0.47235 0.86573 0.11156 0.0
C819 C 0.53352 0.88254 0.19411 0.0
H820 H 0.46798 0.82636 0.16444 0.0
C821 C 0.53504 0.90549 0.16462 0.0
C822 C 0.51283 0.89995 0.13488 0.0
H823 H 0.55131 0.88751 0.21659 0.0
H824 H 0.55357 0.92766 0.16508 0.0
C825 C 0.48967 0.87042 0.13445 0.0
C826 C 0.19674 0.47966 0.13054 0.0
C827 C 0.1994 0.50241 0.16075 0.0
H828 H 0.16505 0.46188 0.08602 0.0
C829 C 0.16945 0.52314 0.17056 0.0
H830 H 0.21868 0.46246 0.12271 0.0
C831 C 0.13809 0.52182 0.15002 0.0
C832 C 0.13643 0.50028 0.119 0.0
H833 H 0.1705 0.54124 0.19341 0.0
H834 H 0.11585 0.53886 0.15736 0.0
C835 C 0.16583 0.47894 0.10974 0.0
C836 C 0.54543 0.82713 0.89088 0.0
C837 C 0.52178 0.82476 0.86149 0.0
H838 H 0.56319 0.85781 0.93625 0.0
C839 C 0.49972 0.85429 0.8536 0.0
H840 H 0.56362 0.80545 0.89711 0.0
C841 C 0.50045 0.88487 0.87549 0.0
C842 C 0.52264 0.88599 0.90593 0.0
H843 H 0.48099 0.85333 0.8314 0.0
H844 H 0.48255 0.9069 0.86961 0.0
C845 C 0.54544 0.85717 0.91317 0.0
C846 C 0.17691 0.53936 0.85999 0.0
C847 C 0.1696 0.51828 0.82927 0.0
H848 H 0.16039 0.5543 0.91366 0.0
C849 C 0.14094 0.49402 0.83059 0.0
H850 H 0.19871 0.55834 0.85993 0.0
C851 C 0.1188 0.49252 0.86064 0.0
C852 C 0.12526 0.51435 0.89067 0.0
H853 H 0.1352 0.47638 0.80808 0.0
H854 H 0.0964 0.4743 0.86035 0.0
C855 C 0.155 0.53716 0.89066 0.0
C856 C 0.49764 0.16692 0.85975 0.0
C857 C 0.51943 0.15931 0.82976 0.0
H858 H 0.4809 0.1505 0.91271 0.0
C859 C 0.54315 0.1301 0.83171 0.0
H860 H 0.47899 0.18907 0.85915 0.0
C861 C 0.54338 0.10763 0.86168 0.0
C862 C 0.52074 0.11447 0.89093 0.0
H863 H 0.5612 0.12412 0.80967 0.0
H864 H 0.56121 0.08476 0.86191 0.0
C865 C 0.49857 0.1448 0.8903 0.0
C866 C 0.85632 0.48682 0.85944 0.0
C867 C 0.8636 0.50935 0.82967 0.0
H868 H 0.87061 0.4715 0.91352 0.0
C869 C 0.88969 0.53603 0.83352 0.0
H870 H 0.83666 0.4657 0.85743 0.0
C871 C 0.90908 0.53908 0.86551 0.0
C872 C 0.90263 0.51585 0.89468 0.0
H873 H 0.89542 0.55445 0.81166 0.0
H874 H 0.92998 0.55907 0.8671 0.0
C875 C 0.87553 0.49021 0.89174 0.0
C876 C 0.69685 0.63027 0.04542 0.0
C877 C 0.69984 0.65901 0.02104 0.0
H878 H 0.66484 0.58707 0.06513 0.0
C879 C 0.67008 0.66781 0.99948 0.0
H880 H 0.71867 0.62325 0.06318 0.0
C881 C 0.63864 0.64763 1.00154 0.0
C882 C 0.63663 0.61799 0.02472 0.0
H883 H 0.6714 0.68949 0.9801 0.0
H884 H 0.6167 0.65399 0.98367 0.0
C885 C 0.6658 0.60984 0.04696 0.0
C886 C 0.36003 0.65875 0.98807 0.0
C887 C 0.36777 0.68881 0.00993 0.0
H888 H 0.37463 0.60501 0.97277 0.0
C889 C 0.39545 0.686 0.03528 0.0
H890 H 0.33912 0.65994 0.96799 0.0
C891 C 0.4158 0.65478 0.03767 0.0
C892 C 0.40881 0.62526 0.01512 0.0
H893 H 0.40162 0.70806 0.05326 0.0
H894 H 0.43757 0.65396 0.05687 0.0
C895 C 0.38023 0.62717 0.99082 0.0
C896 C 0.35881 0.35583 0.02577 0.0
C897 C 0.36763 0.32524 0.00508 0.0
H898 H 0.37279 0.4098 0.04064 0.0
C899 C 0.39685 0.32736 0.98139 0.0
H900 H 0.33676 0.35525 0.0446 0.0
C901 C 0.4176 0.35834 0.97963 0.0
C902 C 0.4094 0.3884 1.00098 0.0
H903 H 0.40395 0.30493 0.96423 0.0
H904 H 0.44054 0.3586 0.96184 0.0
C905 C 0.37935 0.3872 0.0235 0.0
C906 C 0.69767 0.38451 0.98466 0.0
C907 C 0.70103 0.35569 0.00888 0.0
H908 H 0.6651 0.4275 0.96534 0.0
C909 C 0.67151 0.34664 0.03072 0.0
H910 H 0.71931 0.39172 0.96673 0.0
C911 C 0.63987 0.36657 0.02897 0.0
C912 C 0.63746 0.39617 0.00582 0.0
H913 H 0.67315 0.32491 0.05002 0.0
H914 H 0.61807 0.36002 0.04698 0.0
C915 C 0.66643 0.40468 0.98342 0.0
C916 C 0.992 0.66013 0.67188 0.0
C917 C 0.01379 0.68989 0.66425 0.0
H918 H 0.97622 0.60705 0.65599 0.0
C919 C 0.03851 0.68745 0.63576 0.0
H920 H 0.97258 0.66111 0.69349 0.0
C921 C 0.03982 0.65711 0.61395 0.0
C922 C 0.0172 0.62805 0.62073 0.0
H923 H 0.05656 0.70931 0.62983 0.0
H924 H 0.05838 0.65649 0.5915 0.0
C925 C 0.99396 0.62925 0.65041 0.0
C926 C 0.39413 0.97933 0.69273 0.0
C927 C 0.36514 1.00315 0.69509 0.0
H928 H 0.43824 0.96046 0.66149 0.0
C929 C 0.35683 0.02449 0.66483 0.0
H930 H 0.40071 0.9616 0.71491 0.0
C931 C 0.37792 0.02295 0.63358 0.0
C932 C 0.40797 1.00056 0.63236 0.0
H933 H 0.33485 0.04328 0.66566 0.0
H934 H 0.37171 0.04042 0.61112 0.0
C935 C 0.4155 0.97838 0.66196 0.0
C936 C 0.0315 0.38244 0.69448 0.0
C937 C 1.00734 0.3536 0.69531 0.0
H938 H 0.05107 0.42774 0.6655 0.0
C939 C 0.9866 0.34645 0.66452 0.0
H940 H 0.04887 0.38798 0.71716 0.0
C941 C 0.98893 0.36886 0.63423 0.0
C942 C 0.01146 0.39891 0.63478 0.0
H943 H 0.96777 0.32447 0.66428 0.0
H944 H 0.97215 0.36358 0.61106 0.0
C945 C 0.03302 0.40516 0.66486 0.0
C946 C 0.69683 0.97896 0.63074 0.0
C947 C 0.6994 1.00192 0.66079 0.0
H948 H 0.66525 0.96086 0.58627 0.0
C949 C 0.66939 0.02262 0.67047 0.0
H950 H 0.71883 0.96178 0.62303 0.0
C951 C 0.63807 0.02109 0.6499 0.0
C952 C 0.63651 0.99937 0.61899 0.0
H953 H 0.67037 0.04086 0.69321 0.0
H954 H 0.61578 0.03811 0.65712 0.0
C955 C 0.66596 0.97804 0.60989 0.0
C956 C 0.04385 0.32629 0.39024 0.0
C957 C 0.02035 0.32392 0.36071 0.0
H958 H 0.06131 0.3568 0.43581 0.0
C959 C 0.9982 0.35336 0.35282 0.0
H960 H 0.06217 0.3047 0.39644 0.0
C961 C 0.99866 0.38385 0.37492 0.0
C962 C 0.02072 0.38492 0.40549 0.0
H963 H 0.97969 0.3524 0.33043 0.0
H964 H 0.98076 0.40587 0.36903 0.0
C965 C 0.04361 0.35618 0.41268 0.0
C966 C 0.67727 0.03878 0.36064 0.0
C967 C 0.66976 0.0184 0.3295 0.0
H968 H 0.6608 0.0529 0.41455 0.0
C969 C 0.64075 0.99453 0.33028 0.0
H970 H 0.69935 0.05742 0.36101 0.0
C971 C 0.61843 0.99282 0.36018 0.0
C972 C 0.62512 0.01395 0.39066 0.0
H973 H 0.63483 0.97736 0.30744 0.0
H974 H 0.59574 0.97498 0.35941 0.0
C975 C 0.65522 0.0363 0.39119 0.0
C976 C 0.99878 0.66594 0.36016 0.0
C977 C 0.02048 0.65854 0.33004 0.0
H978 H 0.98218 0.64926 0.41304 0.0
C979 C 0.04418 0.6293 0.33171 0.0
H980 H 0.98004 0.68801 0.35977 0.0
C981 C 0.04447 0.60664 0.36156 0.0
C982 C 0.02195 0.61335 0.39094 0.0
H983 H 0.06214 0.62342 0.30956 0.0
H984 H 0.06225 0.58372 0.36162 0.0
C985 C 0.99981 0.64369 0.39056 0.0
C986 C 0.3893 0.03423 0.33413 0.0
C987 C 0.3637 0.0071 0.33006 0.0
H988 H 0.42899 0.05785 0.36798 0.0
C989 C 0.35673 0.98428 0.35967 0.0
H990 H 0.39476 0.05285 0.31238 0.0
C991 C 0.37579 0.98782 0.39207 0.0
C992 C 0.40239 0.01396 0.39524 0.0
H993 H 0.3374 0.96286 0.35747 0.0
H994 H 0.37118 0.96886 0.41374 0.0
C995 C 0.40848 0.03748 0.36622 0.0
C996 C 0.04859 0.19069 0.39219 0.0
C997 C 0.02859 0.19092 0.35998 0.0
H998 H 0.0628 0.16221 0.44025 0.0
C999 C 1.0103 0.15952 0.34998 0.0
H1000 H 0.06402 0.21387 0.40026 0.0
C1001 C 0.01061 0.12937 0.37258 0.0
C1002 C 0.02858 0.13038 0.40586 0.0
H1003 H 0.99448 0.15869 0.32554 0.0
H1004 H 0.99549 0.1059 0.36478 0.0
C1005 C 0.04808 0.16104 0.41511 0.0
C1006 C 0.89737 0.04989 0.33275 0.0
C1007 C 0.868 0.02695 0.32751 0.0
H1008 H 0.94219 0.06385 0.36547 0.0
C1009 C 0.86055 1.00117 0.35436 0.0
H1010 H 0.90345 0.07101 0.31367 0.0
C1011 C 0.88236 0.99804 0.38504 0.0
C1012 C 0.91243 0.02007 0.38904 0.0
H1013 H 0.83847 0.98278 0.35137 0.0
H1014 H 0.87644 0.97761 0.40495 0.0
C1015 C 0.91951 0.04611 0.36274 0.0
C1016 C 1.00581 0.84351 0.36135 0.0
C1017 C 1.00942 0.85672 0.32594 0.0
H1018 H 1.00656 0.85539 0.41796 0.0
C1019 C 0.01945 0.89268 0.32104 0.0
H1020 H 0.9978 0.816 0.36606 0.0
C1021 C 0.02431 0.91529 0.35072 0.0
C1022 C 0.01928 0.90254 0.38613 0.0
H1023 H 0.02306 0.90353 0.29415 0.0
H1024 H 0.03144 0.943 0.34575 0.0
C1025 C 0.0107 0.86616 0.39113 0.0
C1026 C 0.17679 0.02287 0.35541 0.0
C1027 C 0.17353 0.99084 0.33539 0.0
H1028 H 0.15896 0.05313 0.40161 0.0
C1029 C 0.15193 0.96325 0.3491 0.0
H1030 H 0.19306 0.04473 0.34552 0.0
C1031 C 0.13277 0.96811 0.38099 0.0
C1032 C 0.13509 1.00043 0.40017 0.0
H1033 H 0.14943 0.93795 0.33493 0.0
H1034 H 0.11506 0.94699 0.39006 0.0
C1035 C 0.15759 0.02766 0.38759 0.0
C1036 C 0.99835 0.85393 0.67241 0.0
C1037 C 0.01838 0.82322 0.66363 0.0
H1038 H 0.9826 0.90702 0.65665 0.0
C1039 C 0.04028 0.82404 0.63275 0.0
H1040 H 0.98104 0.85418 0.69582 0.0
C1041 C 0.04032 0.85373 0.60993 0.0
C1042 C 0.01925 0.88375 0.61793 0.0
H1043 H 0.05692 0.80134 0.62571 0.0
H1044 H 0.05678 0.85312 0.58588 0.0
C1045 C 0.99903 0.88409 0.64988 0.0
C1046 C 0.17528 0.98788 0.67037 0.0
C1047 C 0.16771 0.01337 0.69755 0.0
H1048 H 0.15978 0.9652 0.61918 0.0
C1049 C 0.13842 0.03648 0.6924 0.0
H1050 H 0.19728 0.96935 0.67324 0.0
C1051 C 0.11651 0.03317 0.66221 0.0
C1052 C 0.12379 0.0075 0.63556 0.0
H1053 H 0.13227 0.05744 0.71167 0.0
H1054 H 0.09388 0.05106 0.65952 0.0
C1055 C 0.15374 0.98529 0.63943 0.0
C1056 C 0.02658 0.16249 0.67271 0.0
C1057 C 1.00042 0.15488 0.69901 0.0
H1058 H 0.05053 0.14711 0.62216 0.0
C1059 C 0.97747 0.12562 0.69305 0.0
H1060 H 0.04503 0.18447 0.67634 0.0
C1061 C 0.98138 0.10384 0.66269 0.0
C1062 C 1.00765 0.11121 0.63682 0.0
H1063 H 0.95618 0.11944 0.71176 0.0
H1064 H 0.96354 0.08127 0.65928 0.0
C1065 C 0.02988 0.14106 0.64169 0.0
C1066 C 0.86435 0.01383 0.67357 0.0
C1067 C 0.83306 0.99637 0.66182 0.0
H1068 H 0.91859 0.02819 0.66136 0.0
C1069 C 0.83435 0.97748 0.62886 0.0
H1070 H 0.86455 0.02885 0.6986 0.0
C1071 C 0.86487 0.97804 0.60725 0.0
C1072 C 0.89552 0.99657 0.61829 0.0
H1073 H 0.81148 0.9626 0.61926 0.0
H1074 H 0.86434 0.96413 0.58156 0.0
C1075 C 0.89535 0.01362 0.65217 0.0
C1076 C 0.3518 0.99076 0.16313 0.0
C1077 C 0.36065 0.01167 0.19367 0.0
H1078 H 0.36599 0.97503 0.10894 0.0
C1079 C 0.38914 0.03593 0.19073 0.0
H1080 H 0.33013 0.97167 0.16435 0.0
C1081 C 0.40965 0.03751 0.1593 0.0
C1082 C 0.40209 0.01531 0.12956 0.0
H1083 H 0.3962 0.05325 0.21309 0.0
H1084 H 0.43226 0.05552 0.15866 0.0
C1085 C 0.37225 0.99268 0.13129 0.0
C1086 C 0.03491 0.34922 0.16787 0.0
C1087 C 1.00961 0.32211 0.16088 0.0
H1088 H 0.05637 0.40034 0.15182 0.0
C1089 C 0.98542 0.32733 0.13228 0.0
H1090 H 0.05421 0.34623 0.18936 0.0
C1091 C 0.98741 0.35767 0.11042 0.0
C1092 C 0.01294 0.38428 0.11704 0.0
H1093 H 0.96468 0.30798 0.12665 0.0
H1094 H 0.96873 0.36043 0.08828 0.0
C1095 C 0.03629 0.38022 0.14635 0.0
C1096 C 0.68094 0.0295 0.16305 0.0
C1097 C 0.67114 0.01224 0.19544 0.0
H1098 H 0.66632 0.04203 0.10826 0.0
C1099 C 0.63969 0.99171 0.19579 0.0
H1100 H 0.70491 0.04558 0.16171 0.0
C1101 C 0.61725 0.99086 0.16588 0.0
C1102 C 0.62616 0.00926 0.13416 0.0
H1103 H 0.63177 0.97688 0.21962 0.0
H1104 H 0.59258 0.97603 0.16776 0.0
C1105 C 0.65877 0.02769 0.13251 0.0
C1106 C 1.00033 0.66788 0.16561 0.0
C1107 C 0.02182 0.65969 0.19564 0.0
H1108 H 0.98267 0.65168 0.1129 0.0
C1109 C 0.04436 0.62953 0.1938 0.0
H1110 H 0.98251 0.69072 0.16613 0.0
C1111 C 0.04352 0.60671 0.16399 0.0
C1112 C 0.021 0.61408 0.13477 0.0
H1113 H 0.06212 0.62296 0.21588 0.0
H1114 H 0.06042 0.58314 0.16389 0.0
C1115 C 1.00019 0.64541 0.13527 0.0
C1116 C 0.39519 0.97755 0.83167 0.0
C1117 C 0.36417 0.99871 0.83019 0.0
H1118 H 0.4412 0.96206 0.86185 0.0
C1119 C 0.35431 0.01829 0.86124 0.0
H1120 H 0.40317 0.96121 0.80885 0.0
C1121 C 0.37591 0.01802 0.89223 0.0
C1122 C 0.408 0.9986 0.89252 0.0
H1123 H 0.33073 0.03502 0.86112 0.0
H1124 H 0.36837 0.03431 0.91524 0.0
C1125 C 0.41697 0.97783 0.86219 0.0
C1126 C 0.99423 0.34556 0.86056 0.0
C1127 C 0.01247 0.35426 0.82855 0.0
H1128 H 0.98049 0.36198 0.91444 0.0
C1129 C 0.03326 0.38569 0.82771 0.0
H1130 H 0.9779 0.32169 0.86211 0.0
C1131 C 0.03355 0.4092 0.8569 0.0
C1132 C 0.01432 0.40125 0.88826 0.0
H1133 H 0.04867 0.39271 0.804 0.0
H1134 H 0.04879 0.43372 0.85486 0.0
C1135 C 0.99546 0.36875 0.89035 0.0
C1136 C 0.69325 0.03732 0.88787 0.0
C1137 C 0.69857 0.01245 0.85972 0.0
H1138 H 0.66038 0.0548 0.93167 0.0
C1139 C 0.6715 0.98708 0.8529 0.0
H1140 H 0.71258 0.05816 0.89331 0.0
C1141 C 0.64064 0.98599 0.87451 0.0
C1142 C 0.63663 0.00984 0.90363 0.0
H1143 H 0.67453 0.96737 0.83164 0.0
H1144 H 0.6207 0.96564 0.86939 0.0
C1145 C 0.66304 0.03571 0.90973 0.0
C1146 C 0.02709 0.66827 0.85586 0.0
C1147 C 1.00049 0.69412 0.86294 0.0
H1148 H 0.05068 0.61798 0.87145 0.0
C1149 C 0.97644 0.68768 0.89141 0.0
H1150 H 0.04643 0.67229 0.83456 0.0
C1151 C 0.97968 0.65725 0.91298 0.0
C1152 C 1.00633 0.63185 0.90606 0.0
H1153 H 0.95482 0.70606 0.89713 0.0
H1154 H 0.96111 0.65345 0.93507 0.0
C1155 C 0.02968 0.63717 0.87699 0.0
C1156 C 0.14326 0.33598 0.04139 0.0
C1157 C 0.17109 0.32977 0.0166 0.0
H1158 H 0.09959 0.36927 0.05737 0.0
C1159 C 0.17773 0.35612 0.99004 0.0
H1160 H 0.13795 0.31733 0.06314 0.0
C1161 C 0.15609 0.38693 0.98757 0.0
C1162 C 0.12716 0.39158 0.01123 0.0
H1163 H 0.1988 0.35244 0.97042 0.0
H1164 H 0.16099 0.40623 0.96629 0.0
C1165 C 0.12139 0.36607 0.03841 0.0
C1166 C 0.13709 0.69168 0.01517 0.0
C1167 C 0.17188 0.68706 1.00201 0.0
H1168 H 0.0877 0.66739 0.02942 0.0
C1169 C 0.18415 0.65194 0.99545 0.0
H1170 H 0.12698 0.71826 0.02109 0.0
C1171 C 0.16138 0.62232 1.00013 0.0
C1172 C 0.12592 0.62725 0.0116 0.0
H1173 H 0.2108 0.6475 0.98515 0.0
H1174 H 0.17116 0.59579 0.99347 0.0
C1175 C 0.11453 0.66231 0.01994 0.0
C1176 C 0.39455 0.18723 0.98055 0.0
C1177 C 0.36363 0.19006 1.00187 0.0
H1178 H 0.4394 0.15554 0.96487 0.0
C1179 C 0.35277 0.15949 0.02157 0.0
H1180 H 0.40338 0.20952 0.96409 0.0
C1181 C 0.37335 0.12778 0.02135 0.0
C1182 C 0.40538 0.12612 1.0017 0.0
H1183 H 0.32921 0.16052 0.03842 0.0
H1184 H 0.36516 0.10535 0.03795 0.0
C1185 C 0.41515 0.156 0.98073 0.0
C1186 C 0.83692 0.38429 0.98103 0.0
C1187 C 0.83503 0.35292 1.00204 0.0
H1188 H 0.86736 0.43024 0.96569 0.0
C1189 C 0.86587 0.3421 0.02099 0.0
H1190 H 0.81436 0.39305 0.96509 0.0
C1191 C 0.89697 0.36321 0.02042 0.0
C1192 C 0.89761 0.39574 1.00131 0.0
H1193 H 0.86552 0.31821 0.03759 0.0
H1194 H 0.91971 0.35511 0.03646 0.0
C1195 C 0.86753 0.40552 0.98104 0.0
C1196 C 0.68861 0.88013 0.98122 0.0
C1197 C 0.69659 0.85429 0.00769 0.0
H1198 H 0.65319 0.9214 0.96345 0.0
C1199 C 0.67165 0.84843 0.03564 0.0
H1200 H 0.70633 0.88466 0.95858 0.0
C1201 C 0.6403 0.86898 0.0377 0.0
C1202 C 0.63373 0.89594 0.01213 0.0
H1203 H 0.67684 0.82887 0.05659 0.0
H1204 H 0.62215 0.865 0.06011 0.0
C1205 C 0.65787 0.9009 0.98367 0.0
C1206 C 0.83624 0.63032 0.04679 0.0
C1207 C 0.83391 0.66164 0.02575 0.0
H1208 H 0.86719 0.58458 0.06179 0.0
C1209 C 0.86442 0.67256 0.00631 0.0
H1210 H 0.81393 0.62149 0.06307 0.0
C1211 C 0.89564 0.65165 0.00649 0.0
C1212 C 0.89674 0.61917 0.02565 0.0
H1213 H 0.86373 0.69639 0.98963 0.0
H1214 H 0.91811 0.65985 0.9901 0.0
C1215 C 0.86699 0.60925 0.04639 0.0
C1216 C 0.39375 0.82666 0.03642 0.0
C1217 C 0.36406 0.82417 0.01335 0.0
H1218 H 0.4377 0.85798 0.05504 0.0
C1219 C 0.35439 0.85504 0.99347 0.0
H1220 H 0.40159 0.80418 0.05313 0.0
C1221 C 0.37495 0.8867 0.99534 0.0
C1222 C 0.40582 0.88804 0.01682 0.0
H1223 H 0.33182 0.85434 0.97531 0.0
H1224 H 0.36769 0.90941 0.97867 0.0
C1225 C 0.4144 0.85782 0.03782 0.0
C1226 C 0.68792 0.13664 0.0489 0.0
C1227 C 0.69625 0.16136 0.0215 0.0
H1228 H 0.65191 0.09665 0.06823 0.0
C1229 C 0.67133 0.16672 0.99347 0.0
H1230 H 0.70569 0.13254 0.07156 0.0
C1231 C 0.63971 0.14655 0.99216 0.0
C1232 C 0.63276 0.12058 0.01867 0.0
H1233 H 0.67681 0.18549 0.97187 0.0
H1234 H 0.6217 0.14992 0.96956 0.0
C1235 C 0.65683 0.11636 0.04731 0.0
C1236 C 0.54801 0.69029 0.89181 0.0
C1237 C 0.52673 0.69121 0.86045 0.0
H1238 H 0.56339 0.66121 0.93915 0.0
C1239 C 0.5073 0.66028 0.8511 0.0
H1240 H 0.56438 0.71298 0.89933 0.0
C1241 C 0.50787 0.62998 0.8735 0.0
C1242 C 0.52717 0.63038 0.90601 0.0
H1243 H 0.49048 0.65993 0.82736 0.0
H1244 H 0.49196 0.60689 0.86622 0.0
C1245 C 0.54768 0.66054 0.91462 0.0
C1246 C 0.36012 0.50101 0.85463 0.0
C1247 C 0.36728 0.52732 0.82821 0.0
H1248 H 0.37619 0.47693 0.90493 0.0
C1249 C 0.39612 0.55077 0.83403 0.0
H1250 H 0.33841 0.48225 0.85117 0.0
C1251 C 0.41811 0.54698 0.86413 0.0
C1252 C 0.4114 0.52037 0.88996 0.0
H1253 H 0.40194 0.57226 0.81529 0.0
H1254 H 0.44043 0.56509 0.86728 0.0
C1255 C 0.38179 0.49782 0.88542 0.0
C1256 C 0.53514 0.35141 0.85172 0.0
C1257 C 0.5092 0.35859 0.8251 0.0
H1258 H 0.55834 0.36737 0.90241 0.0
C1259 C 0.48609 0.38791 0.8305 0.0
H1260 H 0.55374 0.32946 0.84855 0.0
C1261 C 0.48962 0.41009 0.8606 0.0
C1262 C 0.51556 0.40301 0.88683 0.0
H1263 H 0.4649 0.3938 0.8116 0.0
H1264 H 0.47164 0.43266 0.86362 0.0
C1265 C 0.53797 0.37318 0.88253 0.0
C1266 C 0.65096 0.46426 0.8478 0.0
C1267 C 0.67302 0.49186 0.83485 0.0
H1268 H 0.61352 0.44762 0.88808 0.0
C1269 C 0.6765 0.52341 0.8556 0.0
H1270 H 0.6483 0.43927 0.83313 0.0
C1271 C 0.65712 0.52775 0.88774 0.0
C1272 C 0.63409 0.5006 0.89949 0.0
H1273 H 0.69312 0.54528 0.84634 0.0
H1274 H 0.65874 0.55287 0.90235 0.0
C1275 C 0.63154 0.46872 0.87959 0.0
C1276 C 0.54016 0.32433 0.13373 0.0
C1277 C 0.51821 0.3237 0.16458 0.0
H1278 H 0.55676 0.35312 0.0867 0.0
C1279 C 0.49827 0.3545 0.17321 0.0
H1280 H 0.55673 0.30155 0.1268 0.0
C1281 C 0.49902 0.38453 0.1505 0.0
C1282 C 0.51924 0.38398 0.11854 0.0
H1283 H 0.48095 0.35489 0.19661 0.0
H1284 H 0.48264 0.40754 0.15714 0.0
C1285 C 0.54028 0.3539 0.11074 0.0
C1286 C 0.67549 0.48792 0.17006 0.0
C1287 C 0.66791 0.51352 0.19715 0.0
H1288 H 0.66007 0.46514 0.11889 0.0
C1289 C 0.63872 0.53671 0.19186 0.0
H1290 H 0.69742 0.46932 0.17305 0.0
C1291 C 0.6169 0.53339 0.16161 0.0
C1292 C 0.6242 0.50763 0.13505 0.0
H1293 H 0.63255 0.55772 0.21106 0.0
H1294 H 0.59431 0.55129 0.15881 0.0
C1295 C 0.65406 0.48532 0.13906 0.0
C1296 C 0.49616 0.67016 0.16273 0.0
C1297 C 0.49898 0.65664 0.19813 0.0
H1298 H 0.49851 0.65876 0.10597 0.0
C1299 C 0.50915 0.6207 0.20292 0.0
H1300 H 0.48809 0.69765 0.15809 0.0
C1301 C 0.5149 0.59841 0.17317 0.0
C1302 C 0.51072 0.61146 0.13775 0.0
H1303 H 0.51226 0.6096 0.22978 0.0
H1304 H 0.52215 0.57073 0.17806 0.0
C1305 C 0.50202 0.64781 0.13286 0.0
C1306 C 0.36431 0.51417 0.17398 0.0
C1307 C 0.33317 0.49643 0.16225 0.0
H1308 H 0.41852 0.5288 0.16182 0.0
C1309 C 0.33468 0.4772 0.12953 0.0
H1310 H 0.3643 0.52945 0.19886 0.0
C1311 C 0.36532 0.47764 0.1081 0.0
C1312 C 0.39583 0.49649 0.11906 0.0
H1313 H 0.31189 0.46217 0.11998 0.0
H1314 H 0.36497 0.46345 0.08256 0.0
C1315 C 0.39542 0.51394 0.15273 0.0
C1316 C 0.88935 0.53719 0.6903 0.0
C1317 C 0.86061 0.51325 0.69332 0.0
H1318 H 0.9328 0.55607 0.65824 0.0
C1319 C 0.85164 0.49221 0.6629 0.0
H1320 H 0.89653 0.5546 0.71256 0.0
C1321 C 0.87221 0.49371 0.63112 0.0
C1322 C 0.90229 0.516 0.62934 0.0
H1323 H 0.82978 0.47334 0.66419 0.0
H1324 H 0.86583 0.47598 0.60887 0.0
C1325 C 0.90999 0.53832 0.65894 0.0
C1326 C 0.52066 0.81817 0.62643 0.0
C1327 C 0.51073 0.82226 0.66279 0.0
H1328 H 0.53124 0.84357 0.57591 0.0
C1329 C 0.50603 0.85716 0.67656 0.0
H1330 H 0.52517 0.79175 0.61512 0.0
C1331 C 0.50964 0.88716 0.65401 0.0
C1332 C 0.51795 0.88283 0.61721 0.0
H1333 H 0.49813 0.86124 0.70442 0.0
H1334 H 0.50462 0.91355 0.66512 0.0
C1335 C 0.52419 0.848 0.60396 0.0
C1336 C 0.18077 0.52902 0.66291 0.0
C1337 C 0.17138 0.51113 0.69507 0.0
H1338 H 0.16576 0.54203 0.60831 0.0
C1339 C 0.14044 0.48983 0.69515 0.0
H1340 H 0.20434 0.54571 0.66181 0.0
C1341 C 0.11807 0.48874 0.66518 0.0
C1342 C 0.1265 0.5078 0.63372 0.0
H1343 H 0.13287 0.4746 0.71884 0.0
H1344 H 0.09381 0.47322 0.66681 0.0
C1345 C 0.15864 0.52709 0.63234 0.0
C1346 C 0.54463 0.12788 0.69469 0.0
C1347 C 0.52365 0.15919 0.69564 0.0
H1348 H 0.55932 0.08061 0.66549 0.0
C1349 C 0.50356 0.1683 0.6649 0.0
H1350 H 0.56129 0.12053 0.71739 0.0
C1351 C 0.50321 0.1457 0.63467 0.0
C1352 C 0.52242 0.11334 0.63494 0.0
H1353 H 0.48694 0.19204 0.66476 0.0
H1354 H 0.48671 0.15276 0.61174 0.0
C1355 C 0.54362 0.105 0.66493 0.0
C1356 C 0.85432 0.51863 0.3609 0.0
C1357 C 0.86413 0.49888 0.32994 0.0
H1358 H 0.86836 0.53472 0.4149 0.0
C1359 C 0.89499 0.4775 0.33156 0.0
H1360 H 0.83086 0.53553 0.36066 0.0
C1361 C 0.91666 0.47771 0.36216 0.0
C1362 C 0.90777 0.49864 0.39241 0.0
H1363 H 0.9029 0.46104 0.30882 0.0
H1364 H 0.94077 0.46174 0.36192 0.0
C1365 C 0.87583 0.5183 0.39196 0.0
C1366 C 0.53399 0.88302 0.32929 0.0
C1367 C 0.51075 0.85337 0.32877 0.0
H1368 H 0.55167 0.9297 0.35753 0.0
C1369 C 0.49001 0.84624 0.3596 0.0
H1370 H 0.55128 0.88872 0.30658 0.0
C1371 C 0.49126 0.86936 0.38945 0.0
C1372 C 0.51266 0.90027 0.38853 0.0
H1373 H 0.47178 0.82376 0.36009 0.0
H1374 H 0.47441 0.86392 0.41258 0.0
C1375 C 0.53438 0.90653 0.35849 0.0
C1376 C 0.17177 0.48474 0.35288 0.0
C1377 C 0.19823 0.51081 0.35954 0.0
H1378 H 0.12141 0.46231 0.36945 0.0
C1379 C 0.19224 0.53587 0.38736 0.0
H1380 H 0.17535 0.4649 0.33183 0.0
C1381 C 0.16197 0.53384 0.40906 0.0
C1382 C 0.13622 0.50728 0.40318 0.0
H1383 H 0.2111 0.55719 0.39264 0.0
H1384 H 0.15873 0.55314 0.43072 0.0
C1385 C 0.14087 0.48317 0.37438 0.0
C1386 C 0.47658 0.18703 0.3919 0.0
C1387 C 0.50054 0.19352 0.36335 0.0
H1388 H 0.46132 0.15266 0.43548 0.0
C1389 C 0.52697 0.16756 0.356 0.0
H1390 H 0.45508 0.20548 0.39782 0.0
C1391 C 0.52953 0.13634 0.37698 0.0
C1392 C 0.50631 0.13099 0.40616 0.0
H1393 H 0.54621 0.17159 0.33462 0.0
H1394 H 0.55043 0.1171 0.37127 0.0
C1395 C 0.47979 0.15648 0.4133 0.0
C1396 C 0.67795 0.85546 0.48879 0.0
C1397 C 0.67098 0.82856 0.5147 0.0
H1398 H 0.66143 0.90598 0.46576 0.0
C1399 C 0.64259 0.83411 0.539 0.0
H1400 H 0.69944 0.85232 0.46954 0.0
C1401 C 0.62059 0.86411 0.53616 0.0
C1402 C 0.62677 0.89023 0.50966 0.0
H1403 H 0.63698 0.81504 0.5603 0.0
H1404 H 0.59845 0.86684 0.55478 0.0
C1405 C 0.65618 0.8862 0.4865 0.0
C1406 C 0.68443 0.1508 0.49471 0.0
C1407 C 0.67222 0.18586 0.5017 0.0
H1408 H 0.67141 0.09465 0.49248 0.0
C1409 C 0.63766 0.19038 0.51545 0.0
H1410 H 0.71093 0.14646 0.48397 0.0
C1411 C 0.61519 0.16097 0.52037 0.0
C1412 C 0.62647 0.12599 0.51154 0.0
H1413 H 0.62763 0.21692 0.52169 0.0
H1414 H 0.58852 0.16598 0.53031 0.0
C1415 C 0.66174 0.12113 0.49951 0.0
C1416 C 0.89646 0.68783 0.48111 0.0
C1417 C 0.865 0.69035 0.50165 0.0
H1418 H 0.94179 0.65644 0.4662 0.0
C1419 C 0.85384 0.65956 0.52084 0.0
H1420 H 0.90557 0.71026 0.46501 0.0
C1421 C 0.87452 0.62793 0.52078 0.0
C1422 C 0.90701 0.62653 0.50188 0.0
H1423 H 0.82988 0.66032 0.53711 0.0
H1424 H 0.86596 0.60528 0.53689 0.0
C1425 C 0.9172 0.65667 0.48152 0.0
C1426 C 0.33583 0.88472 0.53466 0.0
C1427 C 0.33403 0.853 0.5143 0.0
H1428 H 0.36639 0.93028 0.55028 0.0
C1429 C 0.36482 0.84171 0.49554 0.0
H1430 H 0.31316 0.89374 0.55036 0.0
C1431 C 0.39599 0.86283 0.49573 0.0
C1432 C 0.39678 0.89556 0.51463 0.0
H1433 H 0.36438 0.81728 0.47971 0.0
H1434 H 0.41879 0.85435 0.47993 0.0
C1435 C 0.36657 0.90564 0.53475 0.0
C1436 C 0.17143 0.34722 0.5361 0.0
C1437 C 0.19566 0.3526 0.50742 0.0
H1438 H 0.1223 0.36394 0.56122 0.0
C1439 C 0.18666 0.37731 0.48023 0.0
H1440 H 0.17746 0.3285 0.55757 0.0
C1441 C 0.15558 0.39757 0.48262 0.0
C1442 C 0.13219 0.39322 0.51183 0.0
H1443 H 0.20389 0.38142 0.45712 0.0
H1444 H 0.15015 0.41736 0.46189 0.0
C1445 C 0.1398 0.36733 0.53819 0.0
C1446 C 0.33715 0.13037 0.54711 0.0
C1447 C 0.33473 0.16154 0.52587 0.0
H1448 H 0.36813 0.08469 0.56218 0.0
C1449 C 0.36515 0.17239 0.50626 0.0
H1450 H 0.31491 0.12163 0.56353 0.0
C1451 C 0.39637 0.15147 0.5064 0.0
C1452 C 0.39751 0.11908 0.52571 0.0
H1453 H 0.36437 0.19613 0.48945 0.0
H1454 H 0.41876 0.15956 0.48987 0.0
C1455 C 0.36788 0.1093 0.54667 0.0
C1456 C 0.89221 0.32714 0.5369 0.0
C1457 C 0.86304 0.32437 0.51322 0.0
H1458 H 0.93566 0.35877 0.55614 0.0
C1459 C 0.85359 0.35505 0.49294 0.0
H1460 H 0.89984 0.30477 0.55387 0.0
C1461 C 0.874 0.3868 0.49496 0.0
C1462 C 0.90445 0.38839 0.51703 0.0
H1463 H 0.83139 0.35409 0.47433 0.0
H1464 H 0.86706 0.40932 0.47789 0.0
C1465 C 0.91267 0.3584 0.5385 0.0
C1466 C 0.1629 0.67457 0.52408 0.0
C1467 C 0.19727 0.66041 0.51827 0.0
H1468 H 0.10659 0.66382 0.52627 0.0
C1469 C 0.20058 0.62496 0.50622 0.0
H1470 H 0.15959 0.70188 0.53347 0.0
C1471 C 0.17057 0.60344 0.50204 0.0
C1472 C 0.13625 0.61665 0.50994 0.0
H1473 H 0.22659 0.61351 0.50085 0.0
H1474 H 0.17454 0.57591 0.49361 0.0
C1475 C 0.13258 0.65282 0.51998 0.0
loop_
_geom_bond_atom_site_label_1
_geom_bond_atom_site_label_2
_geom_bond_distance
_geom_bond_site_symmetry_2
_ccdc_geom_bond_type
H0 C1 0.949 . S
C1 H0 0.949 . S
C1 C2 1.395 . S
C1 C3 1.388 1_455 S
C2 C1 1.395 . S
C2 C5 1.390 . S
C3 C1 1.388 1_655 S
C3 C7 1.385 1_655 S
C3 C8 1.498 . S
H4 C5 0.950 . S
C5 C2 1.390 . S
C5 H4 0.950 . S
C5 C6 1.378 . S
C6 C5 1.378 . S
C6 C7 1.409 . S
C7 C3 1.385 1_455 S
C7 C6 1.409 . S
C7 H9 0.952 . S
C8 C3 1.498 . S
C8 C10 1.382 1_655 S
C8 C12 1.404 . S
H9 C7 0.952 . S
C10 C8 1.382 1_455 S
C10 C11 1.390 1_455 S
C10 H15 0.949 . S
C11 C10 1.390 1_655 S
C11 C16 1.399 . S
C12 C8 1.404 . S
C12 H13 0.950 . S
C12 C14 1.375 . S
H13 C12 0.950 . S
C14 C12 1.375 . S
C14 C16 1.382 . S
C14 H18 0.950 . S
H15 C10 0.949 . S
C16 C11 1.399 . S
C16 C14 1.382 . S
C16 H17 0.952 . S
H17 C16 0.952 . S
H18 C14 0.950 . S
H19 C20 0.949 . S
C20 H19 0.949 . S
C20 C21 1.398 . S
C20 C22 1.391 . S
C21 C20 1.398 . S
C21 C24 1.389 1_545 S
C22 C20 1.391 . S
C22 C26 1.387 . S
C22 C27 1.491 . S
H23 C24 0.950 . S
C24 C21 1.389 1_565 S
C24 H23 0.950 . S
C24 C25 1.376 1_565 S
C25 C24 1.376 1_545 S
C25 C26 1.415 . S
C26 C22 1.387 . S
C26 C25 1.415 . S
C26 H28 0.951 . S
C27 C22 1.491 . S
C27 C29 1.382 . S
C27 C31 1.404 . S
H28 C26 0.951 . S
C29 C27 1.382 . S
C29 C30 1.390 . S
C29 H34 0.949 1_545 S
C30 C29 1.390 . S
C30 C35 1.399 . S
C31 C27 1.404 . S
C31 H32 0.950 . S
C31 C33 1.375 . S
H32 C31 0.950 . S
C33 C31 1.375 . S
C33 C35 1.382 . S
C33 H37 0.950 . S
H34 C29 0.949 1_565 S
C35 C30 1.399 . S
C35 C33 1.382 . S
C35 H36 0.952 . S
H36 C35 0.952 . S
H37 C33 0.950 . S
H38 C39 0.949 . S
C39 H38 0.949 . S
C39 C40 1.395 . S
C39 C41 1.389 1_455 S
C40 C39 1.395 . S
C40 C43 1.390 . S
C41 C39 1.389 1_655 S
C41 C45 1.386 1_655 S
C41 C46 1.496 . S
H42 C43 0.950 . S
C43 C40 1.390 . S
C43 H42 0.950 . S
C43 C44 1.378 . S
C44 C43 1.378 . S
C44 C45 1.409 . S
C45 C41 1.386 1_455 S
C45 C44 1.409 . S
C45 H47 0.950 1_455 S
C46 C41 1.496 . S
C46 C48 1.382 1_655 S
C46 C50 1.404 . S
H47 C45 0.950 1_655 S
C48 C46 1.382 1_455 S
C48 C49 1.396 . S
C48 H53 0.949 . S
C49 C48 1.396 . S
C49 C54 1.379 1_455 S
C50 C46 1.404 . S
C50 H51 0.950 . S
C50 C52 1.375 . S
H51 C50 0.950 . S
C52 C50 1.375 . S
C52 C54 1.382 . S
C52 H56 0.950 . S
H53 C48 0.949 . S
C54 C49 1.379 1_655 S
C54 C52 1.382 . S
C54 H55 0.952 . S
H55 C54 0.952 . S
H56 C52 0.950 . S
H57 C58 0.949 . S
C58 H57 0.949 . S
C58 C59 1.394 1_565 S
C58 C60 1.391 . S
C59 C58 1.394 1_545 S
C59 C62 1.391 . S
C60 C58 1.391 . S
C60 C64 1.387 . S
C60 C65 1.491 . S
H61 C62 0.950 . S
C62 C59 1.391 . S
C62 H61 0.950 . S
C62 C63 1.378 1_545 S
C63 C62 1.378 1_565 S
C63 C64 1.409 . S
C64 C60 1.387 . S
C64 C63 1.409 . S
C64 H66 0.951 . S
C65 C60 1.491 . S
C65 C67 1.382 . S
C65 C69 1.404 . S
H66 C64 0.951 . S
C67 C65 1.382 . S
C67 C68 1.390 . S
C67 H72 0.949 1_565 S
C68 C67 1.390 . S
C68 C73 1.399 . S
C69 C65 1.404 . S
C69 H70 0.950 . S
C69 C71 1.375 . S
H70 C69 0.950 . S
C71 C69 1.375 . S
C71 C73 1.382 . S
C71 H75 0.950 . S
H72 C67 0.949 1_545 S
C73 C68 1.399 . S
C73 C71 1.382 . S
C73 H74 0.952 . S
H74 C73 0.952 . S
H75 C71 0.950 . S
H76 C77 0.949 . S
C77 H76 0.949 . S
C77 C78 1.395 . S
C77 C79 1.389 1_455 S
C78 C77 1.395 . S
C78 C81 1.390 . S
C79 C77 1.389 1_655 S
C79 C83 1.385 1_655 S
C79 C84 1.497 . S
H80 C81 0.950 . S
C81 C78 1.390 . S
C81 H80 0.950 . S
C81 C82 1.378 . S
C82 C81 1.378 . S
C82 C83 1.409 . S
C83 C79 1.385 1_455 S
C83 C82 1.409 . S
C83 H85 0.953 . S
C84 C79 1.497 . S
C84 C86 1.382 1_655 S
C84 C88 1.404 . S
H85 C83 0.953 . S
C86 C84 1.382 1_455 S
C86 C87 1.390 1_455 S
C86 H91 0.949 . S
C87 C86 1.390 1_655 S
C87 C92 1.399 . S
C88 C84 1.404 . S
C88 H89 0.950 . S
C88 C90 1.375 . S
H89 C88 0.950 . S
C90 C88 1.375 . S
C90 C92 1.382 . S
C90 H94 0.950 . S
H91 C86 0.949 . S
C92 C87 1.399 . S
C92 C90 1.382 . S
C92 H93 0.952 . S
H93 C92 0.952 . S
H94 C90 0.950 . S
H95 C96 0.949 . S
C96 H95 0.949 . S
C96 C97 1.400 . S
C96 C98 1.391 . S
C97 C96 1.400 . S
C97 C100 1.388 1_545 S
C98 C96 1.391 . S
C98 C102 1.387 . S
C98 C103 1.491 . S
H99 C100 0.950 . S
C100 C97 1.388 1_565 S
C100 H99 0.950 . S
C100 C101 1.378 1_565 S
C101 C100 1.378 1_545 S
C101 C102 1.409 . S
C102 C98 1.387 . S
C102 C101 1.409 . S
C102 H104 0.951 . S
C103 C98 1.491 . S
C103 C105 1.382 . S
C103 C107 1.404 . S
H104 C102 0.951 . S
C105 C103 1.382 . S
C105 C106 1.390 . S
C105 H110 0.949 1_545 S
C106 C105 1.390 . S
C106 C111 1.399 . S
C107 C103 1.404 . S
C107 H108 0.950 . S
C107 C109 1.375 . S
H108 C107 0.950 . S
C109 C107 1.375 . S
C109 C111 1.382 . S
C109 H113 0.950 . S
H110 C105 0.949 1_565 S
C111 C106 1.399 . S
C111 C109 1.382 . S
C111 H112 0.952 . S
H112 C111 0.952 . S
H113 C109 0.950 . S
H114 C115 0.949 . S
C115 H114 0.949 . S
C115 C116 1.395 . S
C115 C117 1.390 1_455 S
C116 C115 1.395 . S
C116 C119 1.390 . S
C117 C115 1.390 1_655 S
C117 C121 1.387 1_655 S
C117 C122 1.493 . S
H118 C119 0.950 . S
C119 C116 1.390 . S
C119 H118 0.950 . S
C119 C120 1.378 . S
C120 C119 1.378 . S
C120 C121 1.409 . S
C121 C117 1.387 1_455 S
C121 C120 1.409 . S
C121 H123 0.950 1_455 S
C122 C117 1.493 . S
C122 C124 1.382 1_655 S
C122 C126 1.404 . S
H123 C121 0.950 1_655 S
C124 C122 1.382 1_455 S
C124 C125 1.390 . S
C124 H129 0.949 . S
C125 C124 1.390 . S
C125 C130 1.399 1_455 S
C126 C122 1.404 . S
C126 H127 0.950 . S
C126 C128 1.375 . S
H127 C126 0.950 . S
C128 C126 1.375 . S
C128 C130 1.382 . S
C128 H132 0.950 . S
H129 C124 0.949 . S
C130 C125 1.399 1_655 S
C130 C128 1.382 . S
C130 H131 0.952 . S
H131 C130 0.952 . S
H132 C128 0.950 . S
H133 C134 0.949 . S
C134 H133 0.949 . S
C134 C135 1.398 . S
C134 C136 1.391 . S
C135 C134 1.398 . S
C135 C138 1.389 1_545 S
C136 C134 1.391 . S
C136 C140 1.387 . S
C136 C141 1.491 . S
H137 C138 0.950 . S
C138 C135 1.389 1_565 S
C138 H137 0.950 . S
C138 C139 1.378 1_565 S
C139 C138 1.378 1_545 S
C139 C140 1.409 . S
C140 C136 1.387 . S
C140 C139 1.409 . S
C140 H142 0.951 . S
C141 C136 1.491 . S
C141 C143 1.382 . S
C141 C145 1.404 . S
H142 C140 0.951 . S
C143 C141 1.382 . S
C143 C144 1.390 . S
C143 H148 0.949 1_545 S
C144 C143 1.390 . S
C144 C149 1.399 . S
C145 C141 1.404 . S
C145 H146 0.950 . S
C145 C147 1.375 . S
H146 C145 0.950 . S
C147 C145 1.375 . S
C147 C149 1.382 . S
C147 H151 0.950 . S
H148 C143 0.949 1_565 S
C149 C144 1.399 . S
C149 C147 1.382 . S
C149 H150 0.952 . S
H150 C149 0.952 . S
H151 C147 0.950 . S
H152 C153 0.949 . S
C153 H152 0.949 . S
C153 C154 1.395 . S
C153 C155 1.391 . S
C154 C153 1.395 . S
C154 C157 1.390 . S
C155 C153 1.391 . S
C155 C159 1.387 . S
C155 C160 1.491 . S
H156 C157 0.950 . S
C157 C154 1.390 . S
C157 H156 0.950 . S
C157 C158 1.378 . S
C158 C157 1.378 . S
C158 C159 1.409 . S
C159 C155 1.387 . S
C159 C158 1.409 . S
C159 H161 0.951 . S
C160 C155 1.491 . S
C160 C162 1.382 . S
C160 C164 1.404 . S
H161 C159 0.951 . S
C162 C160 1.382 . S
C162 C163 1.390 . S
C162 H167 0.949 1_554 S
C163 C162 1.390 . S
C163 C168 1.399 . S
C164 C160 1.404 . S
C164 H165 0.950 . S
C164 C166 1.375 . S
H165 C164 0.950 . S
C166 C164 1.375 . S
C166 C168 1.382 . S
C166 H170 0.950 . S
H167 C162 0.949 1_556 S
C168 C163 1.399 . S
C168 C166 1.382 . S
C168 H169 0.952 . S
H169 C168 0.952 . S
H170 C166 0.950 . S
H171 C172 0.949 . S
C172 H171 0.949 . S
C172 C173 1.395 . S
C172 C174 1.390 1_554 S
C173 C172 1.395 . S
C173 C176 1.390 . S
C174 C172 1.390 1_556 S
C174 C178 1.386 1_556 S
C174 C179 1.494 . S
H175 C176 0.950 . S
C176 C173 1.390 . S
C176 H175 0.950 . S
C176 C177 1.378 . S
C177 C176 1.378 . S
C177 C178 1.409 . S
C178 C174 1.386 1_554 S
C178 C177 1.409 . S
C178 H180 0.954 . S
C179 C174 1.494 . S
C179 C181 1.382 1_556 S
C179 C183 1.404 . S
H180 C178 0.954 . S
C181 C179 1.382 1_554 S
C181 C182 1.390 1_554 S
C181 H186 0.949 . S
C182 C181 1.390 1_556 S
C182 C187 1.399 . S
C183 C179 1.404 . S
C183 H184 0.950 . S
C183 C185 1.375 . S
H184 C183 0.950 . S
C185 C183 1.375 . S
C185 C187 1.382 . S
C185 H189 0.950 . S
H186 C181 0.949 . S
C187 C182 1.399 . S
C187 C185 1.382 . S
C187 H188 0.952 . S
H188 C187 0.952 . S
H189 C185 0.950 . S
H190 C191 0.949 . S
C191 H190 0.949 . S
C191 C192 1.395 . S
C191 C193 1.391 . S
C192 C191 1.395 . S
C192 C195 1.390 . S
C193 C191 1.391 . S
C193 C197 1.387 . S
C193 C198 1.491 . S
H194 C195 0.950 . S
C195 C192 1.390 . S
C195 H194 0.950 . S
C195 C196 1.378 . S
C196 C195 1.378 . S
C196 C197 1.409 . S
C197 C193 1.387 . S
C197 C196 1.409 . S
C197 H199 0.951 . S
C198 C193 1.491 . S
C198 C200 1.382 . S
C198 C202 1.404 . S
H199 C197 0.951 . S
C200 C198 1.382 . S
C200 C201 1.390 . S
C200 H205 0.949 1_554 S
C201 C200 1.390 . S
C201 C206 1.399 . S
C202 C198 1.404 . S
C202 H203 0.950 . S
C202 C204 1.375 . S
H203 C202 0.950 . S
C204 C202 1.375 . S
C204 C206 1.382 . S
C204 H208 0.950 . S
H205 C200 0.949 1_556 S
C206 C201 1.399 . S
C206 C204 1.382 . S
C206 H207 0.952 . S
H207 C206 0.952 . S
H208 C204 0.950 . S
H209 C210 0.949 . S
C210 H209 0.949 . S
C210 C211 1.395 . S
C210 C212 1.390 1_554 S
C211 C210 1.395 . S
C211 C214 1.390 . S
C212 C210 1.390 1_556 S
C212 C216 1.387 1_556 S
C212 C217 1.492 . S
H213 C214 0.950 . S
C214 C211 1.390 . S
C214 H213 0.950 . S
C214 C215 1.378 . S
C215 C214 1.378 . S
C215 C216 1.409 . S
C216 C212 1.387 1_554 S
C216 C215 1.409 . S
C216 H218 0.951 1_554 S
C217 C212 1.492 . S
C217 C219 1.382 1_556 S
C217 C221 1.404 . S
H218 C216 0.951 1_556 S
C219 C217 1.382 1_554 S
C219 C220 1.390 . S
C219 H224 0.949 . S
C220 C219 1.390 . S
C220 C225 1.399 1_554 S
C221 C217 1.404 . S
C221 H222 0.950 . S
C221 C223 1.375 . S
H222 C221 0.950 . S
C223 C221 1.375 . S
C223 C225 1.382 . S
C223 H227 0.950 . S
H224 C219 0.949 . S
C225 C220 1.399 1_556 S
C225 C223 1.382 . S
C225 H226 0.952 . S
H226 C225 0.952 . S
H227 C223 0.950 . S
H228 C229 0.949 . S
C229 H228 0.949 . S
C229 C230 1.395 . S
C229 C231 1.391 . S
C230 C229 1.395 . S
C230 C233 1.390 . S
C231 C229 1.391 . S
C231 C235 1.387 . S
C231 C236 1.491 . S
H232 C233 0.950 . S
C233 C230 1.390 . S
C233 H232 0.950 . S
C233 C234 1.378 . S
C234 C233 1.378 . S
C234 C235 1.409 . S
C235 C231 1.387 . S
C235 C234 1.409 . S
C235 H237 0.951 . S
C236 C231 1.491 . S
C236 C238 1.382 . S
C236 C240 1.404 . S
H237 C235 0.951 . S
C238 C236 1.382 . S
C238 C239 1.390 . S
C238 H243 0.949 . S
C239 C238 1.390 . S
C239 C244 1.399 . S
C240 C236 1.404 . S
C240 H241 0.950 . S
C240 C242 1.375 . S
H241 C240 0.950 . S
C242 C240 1.375 . S
C242 C244 1.382 . S
C242 H246 0.950 . S
H243 C238 0.949 . S
C244 C239 1.399 . S
C244 C242 1.382 . S
C244 H245 0.952 . S
H245 C244 0.952 . S
H246 C242 0.950 . S
H247 C248 0.949 . S
C248 H247 0.949 . S
C248 C249 1.395 . S
C248 C250 1.391 . S
C249 C248 1.395 . S
C249 C252 1.390 . S
C250 C248 1.391 . S
C250 C254 1.387 . S
C250 C255 1.491 . S
H251 C252 0.950 . S
C252 C249 1.390 . S
C252 H251 0.950 . S
C252 C253 1.378 . S
C253 C252 1.378 . S
C253 C254 1.409 . S
C254 C250 1.387 . S
C254 C253 1.409 . S
C254 H256 0.951 . S
C255 C250 1.491 . S
C255 C257 1.382 . S
C255 C259 1.404 . S
H256 C254 0.951 . S
C257 C255 1.382 . S
C257 C258 1.390 . S
C257 H262 0.949 . S
C258 C257 1.390 . S
C258 C263 1.399 . S
C259 C255 1.404 . S
C259 H260 0.950 . S
C259 C261 1.375 . S
H260 C259 0.950 . S
C261 C259 1.375 . S
C261 C263 1.382 . S
C261 H265 0.950 . S
H262 C257 0.949 . S
C263 C258 1.399 . S
C263 C261 1.382 . S
C263 H264 0.952 . S
H264 C263 0.952 . S
H265 C261 0.950 . S
H266 C267 0.949 . S
C267 H266 0.949 . S
C267 C268 1.395 . S
C267 C269 1.391 . S
C268 C267 1.395 . S
C268 C271 1.390 . S
C269 C267 1.391 . S
C269 C273 1.387 . S
C269 C274 1.491 . S
H270 C271 0.950 . S
C271 C268 1.390 . S
C271 H270 0.950 . S
C271 C272 1.378 . S
C272 C271 1.378 . S
C272 C273 1.409 . S
C273 C269 1.387 . S
C273 C272 1.409 . S
C273 H275 0.951 . S
C274 C269 1.491 . S
C274 C276 1.382 . S
C274 C278 1.404 . S
H275 C273 0.951 . S
C276 C274 1.382 . S
C276 C277 1.390 . S
C276 H281 0.949 . S
C277 C276 1.390 . S
C277 C282 1.399 . S
C278 C274 1.404 . S
C278 H279 0.950 . S
C278 C280 1.375 . S
H279 C278 0.950 . S
C280 C278 1.375 . S
C280 C282 1.382 . S
C280 H284 0.950 . S
H281 C276 0.949 . S
C282 C277 1.399 . S
C282 C280 1.382 . S
C282 H283 0.952 . S
H283 C282 0.952 . S
H284 C280 0.950 . S
H285 C286 0.949 . S
C286 H285 0.949 . S
C286 C287 1.395 . S
C286 C288 1.391 . S
C287 C286 1.395 . S
C287 C290 1.390 . S
C288 C286 1.391 . S
C288 C292 1.387 . S
C288 C293 1.491 . S
H289 C290 0.950 . S
C290 C287 1.390 . S
C290 H289 0.950 . S
C290 C291 1.378 . S
C291 C290 1.378 . S
C291 C292 1.409 . S
C292 C288 1.387 . S
C292 C291 1.409 . S
C292 H294 0.951 . S
C293 C288 1.491 . S
C293 C295 1.382 . S
C293 C297 1.404 . S
H294 C292 0.951 . S
C295 C293 1.382 . S
C295 C296 1.390 . S
C295 H300 0.949 . S
C296 C295 1.390 . S
C296 C301 1.399 . S
C297 C293 1.404 . S
C297 H298 0.950 . S
C297 C299 1.375 . S
H298 C297 0.950 . S
C299 C297 1.375 . S
C299 C301 1.382 . S
C299 H303 0.950 . S
H300 C295 0.949 . S
C301 C296 1.399 . S
C301 C299 1.382 . S
C301 H302 0.952 . S
H302 C301 0.952 . S
H303 C299 0.950 . S
H304 C305 0.949 . S
C305 H304 0.949 . S
C305 C306 1.395 . S
C305 C307 1.391 . S
C306 C305 1.395 . S
C306 C309 1.390 . S
C307 C305 1.391 . S
C307 C311 1.387 . S
C307 C312 1.491 . S
H308 C309 0.950 . S
C309 C306 1.390 . S
C309 H308 0.950 . S
C309 C310 1.378 . S
C310 C309 1.378 . S
C310 C311 1.409 . S
C311 C307 1.387 . S
C311 C310 1.409 . S
C311 H313 0.951 . S
C312 C307 1.491 . S
C312 C314 1.382 . S
C312 C316 1.404 . S
H313 C311 0.951 . S
C314 C312 1.382 . S
C314 C315 1.390 . S
C314 H319 0.949 . S
C315 C314 1.390 . S
C315 C320 1.399 . S
C316 C312 1.404 . S
C316 H317 0.950 . S
C316 C318 1.375 . S
H317 C316 0.950 . S
C318 C316 1.375 . S
C318 C320 1.382 . S
C318 H322 0.950 . S
H319 C314 0.949 . S
C320 C315 1.399 . S
C320 C318 1.382 . S
C320 H321 0.952 . S
H321 C320 0.952 . S
H322 C318 0.950 . S
H323 C324 0.949 . S
C324 H323 0.949 . S
C324 C325 1.395 . S
C324 C326 1.391 . S
C325 C324 1.395 . S
C325 C328 1.390 . S
C326 C324 1.391 . S
C326 C330 1.387 . S
C326 C331 1.491 . S
H327 C328 0.950 . S
C328 C325 1.390 . S
C328 H327 0.950 . S
C328 C329 1.378 . S
C329 C328 1.378 . S
C329 C330 1.409 . S
C330 C326 1.387 . S
C330 C329 1.409 . S
C330 H332 0.951 . S
C331 C326 1.491 . S
C331 C333 1.382 . S
C331 C335 1.404 . S
H332 C330 0.951 . S
C333 C331 1.382 . S
C333 C334 1.390 . S
C333 H338 0.949 . S
C334 C333 1.390 . S
C334 C339 1.399 . S
C335 C331 1.404 . S
C335 H336 0.950 . S
C335 C337 1.375 . S
H336 C335 0.950 . S
C337 C335 1.375 . S
C337 C339 1.382 . S
C337 H341 0.950 . S
H338 C333 0.949 . S
C339 C334 1.399 . S
C339 C337 1.382 . S
C339 H340 0.952 . S
H340 C339 0.952 . S
H341 C337 0.950 . S
H342 C343 0.949 . S
C343 H342 0.949 . S
C343 C344 1.395 . S
C343 C345 1.391 . S
C344 C343 1.395 . S
C344 C347 1.390 . S
C345 C343 1.391 . S
C345 C349 1.387 . S
C345 C350 1.491 . S
H346 C347 0.950 . S
C347 C344 1.390 . S
C347 H346 0.950 . S
C347 C348 1.378 . S
C348 C347 1.378 . S
C348 C349 1.409 . S
C349 C345 1.387 . S
C349 C348 1.409 . S
C349 H351 0.951 . S
C350 C345 1.491 . S
C350 C352 1.382 . S
C350 C354 1.404 . S
H351 C349 0.951 . S
C352 C350 1.382 . S
C352 C353 1.390 . S
C352 H357 0.949 . S
C353 C352 1.390 . S
C353 C358 1.399 . S
C354 C350 1.404 . S
C354 H355 0.950 . S
C354 C356 1.375 . S
H355 C354 0.950 . S
C356 C354 1.375 . S
C356 C358 1.382 . S
C356 H360 0.950 . S
H357 C352 0.949 . S
C358 C353 1.399 . S
C358 C356 1.382 . S
C358 H359 0.952 . S
H359 C358 0.952 . S
H360 C356 0.950 . S
H361 C362 0.949 . S
C362 H361 0.949 . S
C362 C363 1.395 . S
C362 C364 1.391 . S
C363 C362 1.395 . S
C363 C366 1.390 . S
C364 C362 1.391 . S
C364 C368 1.387 . S
C364 C369 1.491 . S
H365 C366 0.950 . S
C366 C363 1.390 . S
C366 H365 0.950 . S
C366 C367 1.378 . S
C367 C366 1.378 . S
C367 C368 1.409 . S
C368 C364 1.387 . S
C368 C367 1.409 . S
C368 H370 0.951 . S
C369 C364 1.491 . S
C369 C371 1.382 . S
C369 C373 1.404 . S
H370 C368 0.951 . S
C371 C369 1.382 . S
C371 C372 1.390 . S
C371 H376 0.949 . S
C372 C371 1.390 . S
C372 C377 1.399 . S
C373 C369 1.404 . S
C373 H374 0.950 . S
C373 C375 1.375 . S
H374 C373 0.950 . S
C375 C373 1.375 . S
C375 C377 1.382 . S
C375 H379 0.950 . S
H376 C371 0.949 . S
C377 C372 1.399 . S
C377 C375 1.382 . S
C377 H378 0.952 . S
H378 C377 0.952 . S
H379 C375 0.950 . S
H380 C381 0.949 . S
C381 H380 0.949 . S
C381 C382 1.395 . S
C381 C383 1.391 . S
C382 C381 1.395 . S
C382 C385 1.390 . S
C383 C381 1.391 . S
C383 C387 1.387 . S
C383 C388 1.491 . S
H384 C385 0.950 . S
C385 C382 1.390 . S
C385 H384 0.950 . S
C385 C386 1.378 . S
C386 C385 1.378 . S
C386 C387 1.409 . S
C387 C383 1.387 . S
C387 C386 1.409 . S
C387 H389 0.951 . S
C388 C383 1.491 . S
C388 C390 1.382 . S
C388 C392 1.404 . S
H389 C387 0.951 . S
C390 C388 1.382 . S
C390 C391 1.390 . S
C390 H395 0.949 . S
C391 C390 1.390 . S
C391 C396 1.399 . S
C392 C388 1.404 . S
C392 H393 0.950 . S
C392 C394 1.375 . S
H393 C392 0.950 . S
C394 C392 1.375 . S
C394 C396 1.382 . S
C394 H398 0.950 . S
H395 C390 0.949 . S
C396 C391 1.399 . S
C396 C394 1.382 . S
C396 H397 0.952 . S
H397 C396 0.952 . S
H398 C394 0.950 . S
H399 C400 0.949 . S
C400 H399 0.949 . S
C400 C401 1.395 . S
C400 C402 1.391 . S
C401 C400 1.395 . S
C401 C404 1.390 . S
C402 C400 1.391 . S
C402 C406 1.387 . S
C402 C407 1.491 . S
H403 C404 0.950 . S
C404 C401 1.390 . S
C404 H403 0.950 . S
C404 C405 1.378 . S
C405 C404 1.378 . S
C405 C406 1.409 . S
C406 C402 1.387 . S
C406 C405 1.409 . S
C406 H408 0.951 . S
C407 C402 1.491 . S
C407 C409 1.382 . S
C407 C411 1.404 . S
H408 C406 0.951 . S
C409 C407 1.382 . S
C409 C410 1.390 . S
C409 H414 0.949 . S
C410 C409 1.390 . S
C410 C415 1.399 . S
C411 C407 1.404 . S
C411 H412 0.950 . S
C411 C413 1.375 . S
H412 C411 0.950 . S
C413 C411 1.375 . S
C413 C415 1.382 . S
C413 H417 0.950 . S
H414 C409 0.949 . S
C415 C410 1.399 . S
C415 C413 1.382 . S
C415 H416 0.952 . S
H416 C415 0.952 . S
H417 C413 0.950 . S
H418 C419 0.949 . S
C419 H418 0.949 . S
C419 C420 1.395 . S
C419 C421 1.391 . S
C420 C419 1.395 . S
C420 C423 1.390 . S
C421 C419 1.391 . S
C421 C425 1.387 . S
C421 C426 1.491 . S
H422 C423 0.950 . S
C423 C420 1.390 . S
C423 H422 0.950 . S
C423 C424 1.378 . S
C424 C423 1.378 . S
C424 C425 1.409 . S
C425 C421 1.387 . S
C425 C424 1.409 . S
C425 H427 0.951 . S
C426 C421 1.491 . S
C426 C428 1.382 . S
C426 C430 1.404 . S
H427 C425 0.951 . S
C428 C426 1.382 . S
C428 C429 1.390 . S
C428 H433 0.949 . S
C429 C428 1.390 . S
C429 C434 1.399 . S
C430 C426 1.404 . S
C430 H431 0.950 . S
C430 C432 1.375 . S
H431 C430 0.950 . S
C432 C430 1.375 . S
C432 C434 1.382 . S
C432 H436 0.950 . S
H433 C428 0.949 . S
C434 C429 1.399 . S
C434 C432 1.382 . S
C434 H435 0.952 . S
H435 C434 0.952 . S
H436 C432 0.950 . S
H437 C438 0.949 . S
C438 H437 0.949 . S
C438 C439 1.395 . S
C438 C440 1.391 . S
C439 C438 1.395 . S
C439 C442 1.390 . S
C440 C438 1.391 . S
C440 C444 1.387 . S
C440 C445 1.491 . S
H441 C442 0.950 . S
C442 C439 1.390 . S
C442 H441 0.950 . S
C442 C443 1.378 . S
C443 C442 1.378 . S
C443 C444 1.409 . S
C444 C440 1.387 . S
C444 C443 1.409 . S
C444 H446 0.951 . S
C445 C440 1.491 . S
C445 C447 1.382 . S
C445 C449 1.404 . S
H446 C444 0.951 . S
C447 C445 1.382 . S
C447 C448 1.390 . S
C447 H452 0.949 . S
C448 C447 1.390 . S
C448 C453 1.399 . S
C449 C445 1.404 . S
C449 H450 0.950 . S
C449 C451 1.375 . S
H450 C449 0.950 . S
C451 C449 1.375 . S
C451 C453 1.382 . S
C451 H455 0.950 . S
H452 C447 0.949 . S
C453 C448 1.399 . S
C453 C451 1.382 . S
C453 H454 0.952 . S
H454 C453 0.952 . S
H455 C451 0.950 . S
C456 O482 1.283 . S
C456 O500 1.283 . S
C457 O483 1.283 . S
C457 O498 1.283 . S
C458 O484 1.283 . S
C458 O501 1.283 . S
C459 O485 1.283 . S
C459 O499 1.283 . S
C460 O486 1.283 . S
C460 O495 1.283 . S
C461 O487 1.283 . S
C461 O497 1.283 . S
C462 O488 1.283 . S
C462 O494 1.283 . S
C463 O489 1.283 . S
C463 O496 1.283 . S
C464 O490 1.283 . S
C464 O505 1.283 . S
C465 O491 1.283 . S
C465 O503 1.283 . S
C466 O492 1.283 . S
C466 O504 1.283 . S
C467 O493 1.283 . S
C467 O502 1.283 . S
Eu468 O469 2.370 1_455 S
Eu468 O470 2.370 . S
Eu468 O473 2.370 1_455 S
Eu468 O474 2.370 . S
Eu468 O482 2.363 . S
Eu468 O483 2.363 . S
Eu468 O496 2.363 . S
Eu468 O497 2.363 1_455 S
O469 Eu468 2.370 1_655 S
O469 Eu471 2.359 1_565 S
O469 Eu476 2.359 1_665 S
O470 Eu468 2.370 . S
O470 Eu472 2.359 1_565 S
O470 Eu475 2.359 1_565 S
Eu471 O469 2.359 1_545 S
Eu471 O473 2.359 1_545 S
Eu471 O477 2.382 . S
Eu471 O478 2.382 . S
Eu471 O486 2.382 . S
Eu471 O487 2.344 1_545 S
Eu471 O502 2.363 . S
Eu471 O503 2.363 . S
Eu472 O470 2.359 1_545 S
Eu472 O474 2.359 1_545 S
Eu472 O479 2.381 . S
Eu472 O480 2.381 . S
Eu472 O488 2.382 . S
Eu472 O489 2.344 1_545 S
Eu472 O504 2.363 . S
Eu472 O505 2.363 . S
O473 Eu468 2.370 1_655 S
O473 Eu471 2.359 1_565 S
O473 Eu475 2.359 1_665 S
O474 Eu468 2.370 . S
O474 Eu472 2.359 1_565 S
O474 Eu476 2.359 1_565 S
Eu475 O470 2.359 1_545 S
Eu475 O473 2.359 1_445 S
Eu475 O477 2.381 1_455 S
Eu475 O480 2.381 . S
Eu475 O492 2.363 . S
Eu475 O493 2.363 1_455 S
Eu475 O500 2.344 1_545 S
Eu475 O501 2.382 . S
Eu476 O469 2.359 1_445 S
Eu476 O474 2.359 1_545 S
Eu476 O478 2.382 1_455 S
Eu476 O479 2.382 . S
Eu476 O490 2.363 . S
Eu476 O491 2.363 1_455 S
Eu476 O498 2.344 1_545 S
Eu476 O499 2.382 . S
O477 Eu471 2.382 . S
O477 Eu475 2.381 1_655 S
O477 Eu481 2.370 1_655 S
O478 Eu471 2.382 . S
O478 Eu476 2.382 1_655 S
O478 Eu481 2.370 1_655 S
O479 Eu472 2.381 . S
O479 Eu476 2.382 . S
O479 Eu481 2.370 . S
O480 Eu472 2.381 . S
O480 Eu475 2.381 . S
O480 Eu481 2.370 . S
Eu481 O477 2.370 1_455 S
Eu481 O478 2.370 1_455 S
Eu481 O479 2.370 . S
Eu481 O480 2.370 . S
Eu481 O484 2.363 . S
Eu481 O485 2.363 . S
Eu481 O494 2.363 . S
Eu481 O495 2.363 1_455 S
O482 C456 1.283 . S
O482 Eu468 2.363 . S
O483 C457 1.283 . S
O483 Eu468 2.363 . S
O484 C458 1.283 . S
O484 Eu481 2.363 . S
O485 C459 1.283 . S
O485 Eu481 2.363 . S
O486 C460 1.283 . S
O486 Eu471 2.382 . S
O487 C461 1.283 . S
O487 Eu471 2.344 1_565 S
O488 C462 1.283 . S
O488 Eu472 2.382 . S
O489 C463 1.283 . S
O489 Eu472 2.344 1_565 S
O490 C464 1.283 . S
O490 Eu476 2.363 . S
O491 C465 1.283 . S
O491 Eu476 2.363 1_655 S
O492 C466 1.283 . S
O492 Eu475 2.363 . S
O493 C467 1.283 . S
O493 Eu475 2.363 1_655 S
O494 C462 1.283 . S
O494 Eu481 2.363 . S
O495 C460 1.283 . S
O495 Eu481 2.363 1_655 S
O496 C463 1.283 . S
O496 Eu468 2.363 . S
O497 C461 1.283 . S
O497 Eu468 2.363 1_655 S
O498 C457 1.283 . S
O498 Eu476 2.344 1_565 S
O499 C459 1.283 . S
O499 Eu476 2.382 . S
O500 C456 1.283 . S
O500 Eu475 2.344 1_565 S
O501 C458 1.283 . S
O501 Eu475 2.382 . S
O502 C467 1.283 . S
O502 Eu471 2.363 . S
O503 C465 1.283 . S
O503 Eu471 2.363 . S
O504 C466 1.283 . S
O504 Eu472 2.363 . S
O505 C464 1.283 . S
O505 Eu472 2.363 . S
C506 O532 1.283 . S
C506 O550 1.283 . S
C507 O533 1.283 . S
C507 O548 1.283 . S
C508 O534 1.283 . S
C508 O551 1.283 . S
C509 O535 1.283 . S
C509 O549 1.283 . S
C510 O536 1.283 . S
C510 O545 1.283 . S
C511 O537 1.283 . S
C511 O547 1.283 . S
C512 O538 1.283 . S
C512 O544 1.283 . S
C513 O539 1.284 . S
C513 O546 1.283 . S
C514 O540 1.283 . S
C514 O555 1.283 . S
C515 O541 1.283 . S
C515 O553 1.283 . S
C516 O542 1.283 . S
C516 O554 1.283 . S
C517 O543 1.283 . S
C517 O552 1.283 . S
Eu518 O519 2.388 . S
Eu518 O520 2.352 1_545 S
Eu518 O523 2.352 1_545 S
Eu518 O524 2.388 . S
Eu518 O532 2.333 1_545 S
Eu518 O533 2.393 . S
Eu518 O546 2.363 . S
Eu518 O547 2.363 . S
O519 Eu518 2.388 . S
O519 Eu521 2.381 . S
O519 Eu526 2.370 . S
O520 Eu518 2.352 1_565 S
O520 Eu522 2.359 1_565 S
O520 Eu525 2.370 . S
Eu521 O519 2.381 . S
Eu521 O523 2.360 1_545 S
Eu521 O527 2.360 1_544 S
Eu521 O528 2.381 1_554 S
Eu521 O536 2.363 1_554 S
Eu521 O537 2.363 . S
Eu521 O552 2.345 1_545 S
Eu521 O553 2.381 . S
Eu522 O520 2.359 1_545 S
Eu522 O524 2.381 . S
Eu522 O529 2.381 1_554 S
Eu522 O530 2.359 1_544 S
Eu522 O538 2.363 1_554 S
Eu522 O539 2.363 . S
Eu522 O554 2.345 1_545 S
Eu522 O555 2.381 . S
O523 Eu518 2.352 1_565 S
O523 Eu521 2.360 1_565 S
O523 Eu525 2.370 . S
O524 Eu518 2.388 . S
O524 Eu522 2.381 . S
O524 Eu526 2.370 . S
Eu525 O520 2.370 . S
Eu525 O523 2.370 . S
Eu525 O527 2.370 1_554 S
Eu525 O530 2.370 1_554 S
Eu525 O542 2.363 . S
Eu525 O543 2.363 . S
Eu525 O550 2.363 . S
Eu525 O551 2.363 1_554 S
Eu526 O519 2.370 . S
Eu526 O524 2.370 . S
Eu526 O528 2.370 1_554 S
Eu526 O529 2.370 1_554 S
Eu526 O540 2.363 . S
Eu526 O541 2.363 . S
Eu526 O548 2.363 . S
Eu526 O549 2.363 1_554 S
O527 Eu521 2.360 1_566 S
O527 Eu525 2.370 1_556 S
O527 Eu531 2.367 1_565 S
O528 Eu521 2.381 1_556 S
O528 Eu526 2.370 1_556 S
O528 Eu531 2.373 . S
O529 Eu522 2.381 1_556 S
O529 Eu526 2.370 1_556 S
O529 Eu531 2.373 . S
O530 Eu522 2.359 1_566 S
O530 Eu525 2.370 1_556 S
O530 Eu531 2.367 1_565 S
Eu531 O527 2.367 1_545 S
Eu531 O528 2.373 . S
Eu531 O529 2.373 . S
Eu531 O530 2.367 1_545 S
Eu531 O534 2.357 1_545 S
Eu531 O535 2.369 . S
Eu531 O544 2.363 . S
Eu531 O545 2.363 . S
O532 C506 1.283 . S
O532 Eu518 2.333 1_565 S
O533 C507 1.283 . S
O533 Eu518 2.393 . S
O534 C508 1.283 . S
O534 Eu531 2.357 1_565 S
O535 C509 1.283 . S
O535 Eu531 2.369 . S
O536 C510 1.283 . S
O536 Eu521 2.363 1_556 S
O537 C511 1.283 . S
O537 Eu521 2.363 . S
O538 C512 1.283 . S
O538 Eu522 2.363 1_556 S
O539 C513 1.284 . S
O539 Eu522 2.363 . S
O540 C514 1.283 . S
O540 Eu526 2.363 . S
O541 C515 1.283 . S
O541 Eu526 2.363 . S
O542 C516 1.283 . S
O542 Eu525 2.363 . S
O543 C517 1.283 . S
O543 Eu525 2.363 . S
O544 C512 1.283 . S
O544 Eu531 2.363 . S
O545 C510 1.283 . S
O545 Eu531 2.363 . S
O546 C513 1.283 . S
O546 Eu518 2.363 . S
O547 C511 1.283 . S
O547 Eu518 2.363 . S
O548 C507 1.283 . S
O548 Eu526 2.363 . S
O549 C509 1.283 . S
O549 Eu526 2.363 1_556 S
O550 C506 1.283 . S
O550 Eu525 2.363 . S
O551 C508 1.283 . S
O551 Eu525 2.363 1_556 S
O552 C517 1.283 . S
O552 Eu521 2.345 1_565 S
O553 C515 1.283 . S
O553 Eu521 2.381 . S
O554 C516 1.283 . S
O554 Eu522 2.345 1_565 S
O555 C514 1.283 . S
O555 Eu522 2.381 . S
C556 O582 1.283 . S
C556 O600 1.283 . S
C557 O583 1.283 . S
C557 O598 1.283 . S
C558 O584 1.283 . S
C558 O601 1.283 . S
C559 O585 1.283 . S
C559 O599 1.283 . S
C560 O586 1.283 . S
C560 O595 1.283 . S
C561 O587 1.283 . S
C561 O597 1.283 . S
C562 O588 1.283 . S
C562 O594 1.283 . S
C563 O589 1.283 . S
C563 O596 1.283 . S
C564 O590 1.283 . S
C564 O605 1.283 . S
C565 O591 1.283 . S
C565 O603 1.283 . S
C566 O592 1.283 . S
C566 O604 1.283 . S
C567 O593 1.283 . S
C567 O602 1.283 . S
Eu568 O569 2.370 1_454 S
Eu568 O570 2.370 . S
Eu568 O573 2.370 1_455 S
Eu568 O574 2.370 1_554 S
Eu568 O582 2.363 . S
Eu568 O583 2.363 1_554 S
Eu568 O596 2.363 . S
Eu568 O597 2.363 1_455 S
O569 Eu568 2.370 1_656 S
O569 Eu571 2.370 1_556 S
O569 Eu576 2.370 1_655 S
O570 Eu568 2.370 . S
O570 Eu572 2.370 . S
O570 Eu575 2.370 . S
Eu571 O569 2.370 1_554 S
Eu571 O573 2.370 . S
Eu571 O577 2.370 . S
Eu571 O578 2.370 1_554 S
Eu571 O586 2.363 . S
Eu571 O587 2.363 . S
Eu571 O602 2.363 . S
Eu571 O603 2.363 1_554 S
Eu572 O570 2.370 . S
Eu572 O574 2.370 1_554 S
Eu572 O579 2.370 1_554 S
Eu572 O580 2.370 . S
Eu572 O588 2.363 . S
Eu572 O589 2.363 . S
Eu572 O604 2.363 . S
Eu572 O605 2.363 1_554 S
O573 Eu568 2.370 1_655 S
O573 Eu571 2.370 . S
O573 Eu575 2.370 1_655 S
O574 Eu568 2.370 1_556 S
O574 Eu572 2.370 1_556 S
O574 Eu576 2.370 . S
Eu575 O570 2.370 . S
Eu575 O573 2.370 1_455 S
Eu575 O577 2.370 1_455 S
Eu575 O580 2.370 . S
Eu575 O592 2.363 . S
Eu575 O593 2.363 1_455 S
Eu575 O600 2.363 . S
Eu575 O601 2.363 . S
Eu576 O569 2.370 1_455 S
Eu576 O574 2.370 . S
Eu576 O578 2.370 1_455 S
Eu576 O579 2.370 . S
Eu576 O590 2.363 . S
Eu576 O591 2.363 1_455 S
Eu576 O598 2.363 . S
Eu576 O599 2.363 . S
O577 Eu571 2.370 . S
O577 Eu575 2.370 1_655 S
O577 Eu581 2.370 1_655 S
O578 Eu571 2.370 1_556 S
O578 Eu576 2.370 1_655 S
O578 Eu581 2.370 1_656 S
O579 Eu572 2.370 1_556 S
O579 Eu576 2.370 . S
O579 Eu581 2.370 1_556 S
O580 Eu572 2.370 . S
O580 Eu575 2.370 . S
O580 Eu581 2.370 . S
Eu581 O577 2.370 1_455 S
Eu581 O578 2.370 1_454 S
Eu581 O579 2.370 1_554 S
Eu581 O580 2.370 . S
Eu581 O584 2.363 . S
Eu581 O585 2.363 1_554 S
Eu581 O594 2.363 . S
Eu581 O595 2.363 1_455 S
O582 C556 1.283 . S
O582 Eu568 2.363 . S
O583 C557 1.283 . S
O583 Eu568 2.363 1_556 S
O584 C558 1.283 . S
O584 Eu581 2.363 . S
O585 C559 1.283 . S
O585 Eu581 2.363 1_556 S
O586 C560 1.283 . S
O586 Eu571 2.363 . S
O587 C561 1.283 . S
O587 Eu571 2.363 . S
O588 C562 1.283 . S
O588 Eu572 2.363 . S
O589 C563 1.283 . S
O589 Eu572 2.363 . S
O590 C564 1.283 . S
O590 Eu576 2.363 . S
O591 C565 1.283 . S
O591 Eu576 2.363 1_655 S
O592 C566 1.283 . S
O592 Eu575 2.363 . S
O593 C567 1.283 . S
O593 Eu575 2.363 1_655 S
O594 C562 1.283 . S
O594 Eu581 2.363 . S
O595 C560 1.283 . S
O595 Eu581 2.363 1_655 S
O596 C563 1.283 . S
O596 Eu568 2.363 . S
O597 C561 1.283 . S
O597 Eu568 2.363 1_655 S
O598 C557 1.283 . S
O598 Eu576 2.363 . S
O599 C559 1.283 . S
O599 Eu576 2.363 . S
O600 C556 1.283 . S
O600 Eu575 2.363 . S
O601 C558 1.283 . S
O601 Eu575 2.363 . S
O602 C567 1.283 . S
O602 Eu571 2.363 . S
O603 C565 1.283 . S
O603 Eu571 2.363 1_556 S
O604 C566 1.283 . S
O604 Eu572 2.363 . S
O605 C564 1.283 . S
O605 Eu572 2.363 1_556 S
C606 O632 1.283 . S
C606 O650 1.283 . S
C607 O633 1.283 . S
C607 O648 1.283 . S
C608 O634 1.283 . S
C608 O651 1.283 . S
C609 O635 1.283 . S
C609 O649 1.283 . S
C610 O636 1.283 . S
C610 O645 1.283 . S
C611 O637 1.283 . S
C611 O647 1.283 . S
C612 O638 1.283 . S
C612 O644 1.283 . S
C613 O639 1.283 . S
C613 O646 1.283 . S
C614 O640 1.283 . S
C614 O655 1.283 . S
C615 O641 1.283 . S
C615 O653 1.283 . S
C616 O642 1.283 . S
C616 O654 1.283 . S
C617 O643 1.283 . S
C617 O652 1.283 . S
Eu618 O619 2.370 . S
Eu618 O620 2.370 . S
Eu618 O623 2.370 . S
Eu618 O624 2.370 . S
Eu618 O632 2.363 . S
Eu618 O633 2.363 . S
Eu618 O646 2.363 . S
Eu618 O647 2.363 . S
O619 Eu618 2.370 . S
O619 Eu621 2.370 . S
O619 Eu626 2.370 . S
O620 Eu618 2.370 . S
O620 Eu622 2.370 . S
O620 Eu625 2.370 . S
Eu621 O619 2.370 . S
Eu621 O623 2.370 . S
Eu621 O627 2.370 1_554 S
Eu621 O628 2.370 1_554 S
Eu621 O636 2.363 1_554 S
Eu621 O637 2.363 . S
Eu621 O652 2.363 . S
Eu621 O653 2.363 . S
Eu622 O620 2.370 . S
Eu622 O624 2.370 . S
Eu622 O629 2.370 1_554 S
Eu622 O630 2.370 1_554 S
Eu622 O638 2.363 1_554 S
Eu622 O639 2.363 . S
Eu622 O654 2.363 . S
Eu622 O655 2.363 . S
O623 Eu618 2.370 . S
O623 Eu621 2.370 . S
O623 Eu625 2.370 . S
O624 Eu618 2.370 . S
O624 Eu622 2.370 . S
O624 Eu626 2.370 . S
Eu625 O620 2.370 . S
Eu625 O623 2.370 . S
Eu625 O627 2.370 1_554 S
Eu625 O630 2.370 1_554 S
Eu625 O642 2.363 . S
Eu625 O643 2.363 . S
Eu625 O650 2.363 . S
Eu625 O651 2.363 1_554 S
Eu626 O619 2.370 . S
Eu626 O624 2.370 . S
Eu626 O628 2.370 1_554 S
Eu626 O629 2.370 1_554 S
Eu626 O640 2.363 . S
Eu626 O641 2.363 . S
Eu626 O648 2.363 . S
Eu626 O649 2.363 1_554 S
O627 Eu621 2.370 1_556 S
O627 Eu625 2.370 1_556 S
O627 Eu631 2.370 . S
O628 Eu621 2.370 1_556 S
O628 Eu626 2.370 1_556 S
O628 Eu631 2.370 . S
O629 Eu622 2.370 1_556 S
O629 Eu626 2.370 1_556 S
O629 Eu631 2.370 . S
O630 Eu622 2.370 1_556 S
O630 Eu625 2.370 1_556 S
O630 Eu631 2.370 . S
Eu631 O627 2.370 . S
Eu631 O628 2.370 . S
Eu631 O629 2.370 . S
Eu631 O630 2.370 . S
Eu631 O634 2.363 . S
Eu631 O635 2.363 . S
Eu631 O644 2.363 . S
Eu631 O645 2.363 . S
O632 C606 1.283 . S
O632 Eu618 2.363 . S
O633 C607 1.283 . S
O633 Eu618 2.363 . S
O634 C608 1.283 . S
O634 Eu631 2.363 . S
O635 C609 1.283 . S
O635 Eu631 2.363 . S
O636 C610 1.283 . S
O636 Eu621 2.363 1_556 S
O637 C611 1.283 . S
O637 Eu621 2.363 . S
O638 C612 1.283 . S
O638 Eu622 2.363 1_556 S
O639 C613 1.283 . S
O639 Eu622 2.363 . S
O640 C614 1.283 . S
O640 Eu626 2.363 . S
O641 C615 1.283 . S
O641 Eu626 2.363 . S
O642 C616 1.283 . S
O642 Eu625 2.363 . S
O643 C617 1.283 . S
O643 Eu625 2.363 . S
O644 C612 1.283 . S
O644 Eu631 2.363 . S
O645 C610 1.283 . S
O645 Eu631 2.363 . S
O646 C613 1.283 . S
O646 Eu618 2.363 . S
O647 C611 1.283 . S
O647 Eu618 2.363 . S
O648 C607 1.283 . S
O648 Eu626 2.363 . S
O649 C609 1.283 . S
O649 Eu626 2.363 1_556 S
O650 C606 1.283 . S
O650 Eu625 2.363 . S
O651 C608 1.283 . S
O651 Eu625 2.363 1_556 S
O652 C617 1.283 . S
O652 Eu621 2.363 . S
O653 C615 1.283 . S
O653 Eu621 2.363 . S
O654 C616 1.283 . S
O654 Eu622 2.363 . S
O655 C614 1.283 . S
O655 Eu622 2.363 . S
C656 O682 1.283 . S
C656 O700 1.283 . S
C657 O683 1.283 . S
C657 O698 1.283 . S
C658 O684 1.283 . S
C658 O701 1.283 . S
C659 O685 1.283 . S
C659 O699 1.283 . S
C660 O686 1.283 . S
C660 O695 1.283 . S
C661 O687 1.283 . S
C661 O697 1.283 . S
C662 O688 1.283 . S
C662 O694 1.283 . S
C663 O689 1.283 . S
C663 O696 1.283 . S
C664 O690 1.283 . S
C664 O705 1.283 . S
C665 O691 1.283 . S
C665 O703 1.283 . S
C666 O692 1.283 . S
C666 O704 1.283 . S
C667 O693 1.283 . S
C667 O702 1.283 . S
Eu668 O669 2.370 1_455 S
Eu668 O670 2.370 . S
Eu668 O673 2.370 1_455 S
Eu668 O674 2.370 . S
Eu668 O682 2.363 . S
Eu668 O683 2.363 . S
Eu668 O696 2.363 . S
Eu668 O697 2.363 1_455 S
O669 Eu668 2.370 1_655 S
O669 Eu671 2.370 . S
O669 Eu676 2.370 1_655 S
O670 Eu668 2.370 . S
O670 Eu672 2.370 . S
O670 Eu675 2.370 . S
Eu671 O669 2.370 . S
Eu671 O673 2.370 . S
Eu671 O677 2.370 . S
Eu671 O678 2.370 . S
Eu671 O686 2.363 . S
Eu671 O687 2.363 . S
Eu671 O702 2.363 . S
Eu671 O703 2.363 . S
Eu672 O670 2.370 . S
Eu672 O674 2.370 . S
Eu672 O679 2.370 . S
Eu672 O680 2.370 . S
Eu672 O688 2.363 . S
Eu672 O689 2.363 . S
Eu672 O704 2.363 . S
Eu672 O705 2.363 . S
O673 Eu668 2.370 1_655 S
O673 Eu671 2.370 . S
O673 Eu675 2.370 1_655 S
O674 Eu668 2.370 . S
O674 Eu672 2.370 . S
O674 Eu676 2.370 . S
Eu675 O670 2.370 . S
Eu675 O673 2.370 1_455 S
Eu675 O677 2.370 1_455 S
Eu675 O680 2.370 . S
Eu675 O692 2.363 . S
Eu675 O693 2.363 1_455 S
Eu675 O700 2.363 . S
Eu675 O701 2.363 . S
Eu676 O669 2.370 1_455 S
Eu676 O674 2.370 . S
Eu676 O678 2.370 1_455 S
Eu676 O679 2.370 . S
Eu676 O690 2.363 . S
Eu676 O691 2.363 1_455 S
Eu676 O698 2.363 . S
Eu676 O699 2.363 . S
O677 Eu671 2.370 . S
O677 Eu675 2.370 1_655 S
O677 Eu681 2.370 1_655 S
O678 Eu671 2.370 . S
O678 Eu676 2.370 1_655 S
O678 Eu681 2.370 1_655 S
O679 Eu672 2.370 . S
O679 Eu676 2.370 . S
O679 Eu681 2.370 . S
O680 Eu672 2.370 . S
O680 Eu675 2.370 . S
O680 Eu681 2.370 . S
Eu681 O677 2.370 1_455 S
Eu681 O678 2.370 1_455 S
Eu681 O679 2.370 . S
Eu681 O680 2.370 . S
Eu681 O684 2.363 . S
Eu681 O685 2.363 . S
Eu681 O694 2.363 . S
Eu681 O695 2.363 1_455 S
O682 C656 1.283 . S
O682 Eu668 2.363 . S
O683 C657 1.283 . S
O683 Eu668 2.363 . S
O684 C658 1.283 . S
O684 Eu681 2.363 . S
O685 C659 1.283 . S
O685 Eu681 2.363 . S
O686 C660 1.283 . S
O686 Eu671 2.363 . S
O687 C661 1.283 . S
O687 Eu671 2.363 . S
O688 C662 1.283 . S
O688 Eu672 2.363 . S
O689 C663 1.283 . S
O689 Eu672 2.363 . S
O690 C664 1.283 . S
O690 Eu676 2.363 . S
O691 C665 1.283 . S
O691 Eu676 2.363 1_655 S
O692 C666 1.283 . S
O692 Eu675 2.363 . S
O693 C667 1.283 . S
O693 Eu675 2.363 1_655 S
O694 C662 1.283 . S
O694 Eu681 2.363 . S
O695 C660 1.283 . S
O695 Eu681 2.363 1_655 S
O696 C663 1.283 . S
O696 Eu668 2.363 . S
O697 C661 1.283 . S
O697 Eu668 2.363 1_655 S
O698 C657 1.283 . S
O698 Eu676 2.363 . S
O699 C659 1.283 . S
O699 Eu676 2.363 . S
O700 C656 1.283 . S
O700 Eu675 2.363 . S
O701 C658 1.283 . S
O701 Eu675 2.363 . S
O702 C667 1.283 . S
O702 Eu671 2.363 . S
O703 C665 1.283 . S
O703 Eu671 2.363 . S
O704 C666 1.283 . S
O704 Eu672 2.363 . S
O705 C664 1.283 . S
O705 Eu672 2.363 . S
C706 O732 1.283 . S
C706 O750 1.283 . S
C707 O733 1.283 . S
C707 O748 1.283 . S
C708 O734 1.283 . S
C708 O751 1.283 . S
C709 O735 1.283 . S
C709 O749 1.283 . S
C710 O736 1.283 . S
C710 O745 1.283 . S
C711 O737 1.283 . S
C711 O747 1.283 . S
C712 O738 1.283 . S
C712 O744 1.283 . S
C713 O739 1.283 . S
C713 O746 1.283 . S
C714 O740 1.283 . S
C714 O755 1.283 . S
C715 O741 1.283 . S
C715 O753 1.283 . S
C716 O742 1.283 . S
C716 O754 1.283 . S
C717 O743 1.283 . S
C717 O752 1.283 . S
Eu718 O719 2.370 . S
Eu718 O720 2.370 . S
Eu718 O723 2.370 . S
Eu718 O724 2.370 . S
Eu718 O732 2.363 . S
Eu718 O733 2.363 . S
Eu718 O746 2.363 . S
Eu718 O747 2.363 . S
O719 Eu718 2.370 . S
O719 Eu721 2.360 1_565 S
O719 Eu726 2.360 1_565 S
O720 Eu718 2.370 . S
O720 Eu722 2.360 1_565 S
O720 Eu725 2.360 1_565 S
Eu721 O719 2.360 1_545 S
Eu721 O723 2.360 1_545 S
Eu721 O727 2.380 . S
Eu721 O728 2.380 . S
Eu721 O736 2.380 . S
Eu721 O737 2.346 1_545 S
Eu721 O752 2.363 . S
Eu721 O753 2.363 . S
Eu722 O720 2.360 1_545 S
Eu722 O724 2.360 1_545 S
Eu722 O729 2.380 . S
Eu722 O730 2.380 . S
Eu722 O738 2.380 . S
Eu722 O739 2.346 1_545 S
Eu722 O754 2.363 . S
Eu722 O755 2.363 . S
O723 Eu718 2.370 . S
O723 Eu721 2.360 1_565 S
O723 Eu725 2.360 1_565 S
O724 Eu718 2.370 . S
O724 Eu722 2.360 1_565 S
O724 Eu726 2.360 1_565 S
Eu725 O720 2.360 1_545 S
Eu725 O723 2.360 1_545 S
Eu725 O727 2.380 . S
Eu725 O730 2.380 . S
Eu725 O742 2.363 . S
Eu725 O743 2.363 . S
Eu725 O750 2.346 1_545 S
Eu725 O751 2.380 . S
Eu726 O719 2.360 1_545 S
Eu726 O724 2.360 1_545 S
Eu726 O728 2.380 . S
Eu726 O729 2.380 . S
Eu726 O740 2.363 . S
Eu726 O741 2.363 . S
Eu726 O748 2.346 1_545 S
Eu726 O749 2.380 . S
O727 Eu721 2.380 . S
O727 Eu725 2.380 . S
O727 Eu731 2.370 . S
O728 Eu721 2.380 . S
O728 Eu726 2.380 . S
O728 Eu731 2.370 . S
O729 Eu722 2.380 . S
O729 Eu726 2.380 . S
O729 Eu731 2.370 . S
O730 Eu722 2.380 . S
O730 Eu725 2.380 . S
O730 Eu731 2.370 . S
Eu731 O727 2.370 . S
Eu731 O728 2.370 . S
Eu731 O729 2.370 . S
Eu731 O730 2.370 . S
Eu731 O734 2.363 . S
Eu731 O735 2.363 . S
Eu731 O744 2.363 . S
Eu731 O745 2.363 . S
O732 C706 1.283 . S
O732 Eu718 2.363 . S
O733 C707 1.283 . S
O733 Eu718 2.363 . S
O734 C708 1.283 . S
O734 Eu731 2.363 . S
O735 C709 1.283 . S
O735 Eu731 2.363 . S
O736 C710 1.283 . S
O736 Eu721 2.380 . S
O737 C711 1.283 . S
O737 Eu721 2.346 1_565 S
O738 C712 1.283 . S
O738 Eu722 2.380 . S
O739 C713 1.283 . S
O739 Eu722 2.346 1_565 S
O740 C714 1.283 . S
O740 Eu726 2.363 . S
O741 C715 1.283 . S
O741 Eu726 2.363 . S
O742 C716 1.283 . S
O742 Eu725 2.363 . S
O743 C717 1.283 . S
O743 Eu725 2.363 . S
O744 C712 1.283 . S
O744 Eu731 2.363 . S
O745 C710 1.283 . S
O745 Eu731 2.363 . S
O746 C713 1.283 . S
O746 Eu718 2.363 . S
O747 C711 1.283 . S
O747 Eu718 2.363 . S
O748 C707 1.283 . S
O748 Eu726 2.346 1_565 S
O749 C709 1.283 . S
O749 Eu726 2.380 . S
O750 C706 1.283 . S
O750 Eu725 2.346 1_565 S
O751 C708 1.283 . S
O751 Eu725 2.380 . S
O752 C717 1.283 . S
O752 Eu721 2.363 . S
O753 C715 1.283 . S
O753 Eu721 2.363 . S
O754 C716 1.283 . S
O754 Eu722 2.363 . S
O755 C714 1.283 . S
O755 Eu722 2.363 . S
C756 C757 1.387 . S
C756 H760 0.950 . S
C756 C765 1.390 . S
C757 C756 1.387 . S
C757 C759 1.387 . S
H758 C765 0.950 . S
C759 C757 1.387 . S
C759 C761 1.390 . S
C759 H763 0.950 . S
H760 C756 0.950 . S
C761 C759 1.390 . S
C761 C762 1.387 . S
C761 H764 0.950 . S
C762 C761 1.387 . S
C762 C765 1.387 . S
H763 C759 0.950 . S
H764 C761 0.950 . S
C765 C756 1.390 . S
C765 H758 0.950 . S
C765 C762 1.387 . S
C766 C767 1.387 . S
C766 H770 0.950 . S
C766 C775 1.390 . S
C767 C766 1.387 . S
C767 C769 1.387 . S
H768 C775 0.950 . S
C769 C767 1.387 . S
C769 C771 1.390 . S
C769 H773 0.950 . S
H770 C766 0.950 . S
C771 C769 1.390 . S
C771 C772 1.387 . S
C771 H774 0.950 . S
C772 C771 1.387 . S
C772 C775 1.387 . S
H773 C769 0.950 . S
H774 C771 0.950 . S
C775 C766 1.390 . S
C775 H768 0.950 . S
C775 C772 1.387 . S
C776 C777 1.387 . S
C776 H780 0.950 . S
C776 C785 1.390 . S
C777 C776 1.387 . S
C777 C779 1.387 . S
H778 C785 0.950 . S
C779 C777 1.387 . S
C779 C781 1.390 . S
C779 H783 0.950 . S
H780 C776 0.950 . S
C781 C779 1.390 . S
C781 C782 1.387 . S
C781 H784 0.950 . S
C782 C781 1.387 . S
C782 C785 1.387 . S
H783 C779 0.950 . S
H784 C781 0.950 . S
C785 C776 1.390 . S
C785 H778 0.950 . S
C785 C782 1.387 . S
C786 C787 1.387 . S
C786 H790 0.950 . S
C786 C795 1.390 . S
C787 C786 1.387 . S
C787 C789 1.387 . S
H788 C795 0.950 . S
C789 C787 1.387 . S
C789 C791 1.390 . S
C789 H793 0.950 . S
H790 C786 0.950 . S
C791 C789 1.390 . S
C791 C792 1.387 . S
C791 H794 0.950 . S
C792 C791 1.387 . S
C792 C795 1.387 . S
H793 C789 0.950 . S
H794 C791 0.950 . S
C795 C786 1.390 . S
C795 H788 0.950 . S
C795 C792 1.387 . S
C796 C797 1.387 . S
C796 H800 0.950 . S
C796 C805 1.390 . S
C797 C796 1.387 . S
C797 C799 1.387 . S
H798 C805 0.950 . S
C799 C797 1.387 . S
C799 C801 1.390 . S
C799 H803 0.950 . S
H800 C796 0.950 . S
C801 C799 1.390 . S
C801 C802 1.387 . S
C801 H804 0.950 . S
C802 C801 1.387 . S
C802 C805 1.387 . S
H803 C799 0.950 . S
H804 C801 0.950 . S
C805 C796 1.390 . S
C805 H798 0.950 . S
C805 C802 1.387 . S
C806 C807 1.387 . S
C806 H810 0.950 . S
C806 C815 1.390 . S
C807 C806 1.387 . S
C807 C809 1.387 . S
H808 C815 0.950 . S
C809 C807 1.387 . S
C809 C811 1.390 . S
C809 H813 0.950 . S
H810 C806 0.950 . S
C811 C809 1.390 . S
C811 C812 1.387 . S
C811 H814 0.950 . S
C812 C811 1.387 . S
C812 C815 1.387 . S
H813 C809 0.950 . S
H814 C811 0.950 . S
C815 C806 1.390 . S
C815 H808 0.950 . S
C815 C812 1.387 . S
C816 C817 1.387 . S
C816 H820 0.950 . S
C816 C825 1.390 . S
C817 C816 1.387 . S
C817 C819 1.387 . S
H818 C825 0.950 . S
C819 C817 1.387 . S
C819 C821 1.390 . S
C819 H823 0.950 . S
H820 C816 0.950 . S
C821 C819 1.390 . S
C821 C822 1.387 . S
C821 H824 0.950 . S
C822 C821 1.387 . S
C822 C825 1.387 . S
H823 C819 0.950 . S
H824 C821 0.950 . S
C825 C816 1.390 . S
C825 H818 0.950 . S
C825 C822 1.387 . S
C826 C827 1.387 . S
C826 H830 0.950 . S
C826 C835 1.390 . S
C827 C826 1.387 . S
C827 C829 1.387 . S
H828 C835 0.950 . S
C829 C827 1.387 . S
C829 C831 1.390 . S
C829 H833 0.950 . S
H830 C826 0.950 . S
C831 C829 1.390 . S
C831 C832 1.387 . S
C831 H834 0.950 . S
C832 C831 1.387 . S
C832 C835 1.387 . S
H833 C829 0.950 . S
H834 C831 0.950 . S
C835 C826 1.390 . S
C835 H828 0.950 . S
C835 C832 1.387 . S
C836 C837 1.387 . S
C836 H840 0.950 . S
C836 C845 1.390 . S
C837 C836 1.387 . S
C837 C839 1.387 . S
H838 C845 0.950 . S
C839 C837 1.387 . S
C839 C841 1.390 . S
C839 H843 0.950 . S
H840 C836 0.950 . S
C841 C839 1.390 . S
C841 C842 1.387 . S
C841 H844 0.950 . S
C842 C841 1.387 . S
C842 C845 1.387 . S
H843 C839 0.950 . S
H844 C841 0.950 . S
C845 C836 1.390 . S
C845 H838 0.950 . S
C845 C842 1.387 . S
C846 C847 1.387 . S
C846 H850 0.950 . S
C846 C855 1.390 . S
C847 C846 1.387 . S
C847 C849 1.387 . S
H848 C855 0.950 . S
C849 C847 1.387 . S
C849 C851 1.390 . S
C849 H853 0.950 . S
H850 C846 0.950 . S
C851 C849 1.390 . S
C851 C852 1.387 . S
C851 H854 0.950 . S
C852 C851 1.387 . S
C852 C855 1.387 . S
H853 C849 0.950 . S
H854 C851 0.950 . S
C855 C846 1.390 . S
C855 H848 0.950 . S
C855 C852 1.387 . S
C856 C857 1.387 . S
C856 H860 0.950 . S
C856 C865 1.390 . S
C857 C856 1.387 . S
C857 C859 1.387 . S
H858 C865 0.950 . S
C859 C857 1.387 . S
C859 C861 1.390 . S
C859 H863 0.950 . S
H860 C856 0.950 . S
C861 C859 1.390 . S
C861 C862 1.387 . S
C861 H864 0.950 . S
C862 C861 1.387 . S
C862 C865 1.387 . S
H863 C859 0.950 . S
H864 C861 0.950 . S
C865 C856 1.390 . S
C865 H858 0.950 . S
C865 C862 1.387 . S
C866 C867 1.387 . S
C866 H870 0.950 . S
C866 C875 1.390 . S
C867 C866 1.387 . S
C867 C869 1.387 . S
H868 C875 0.950 . S
C869 C867 1.387 . S
C869 C871 1.390 . S
C869 H873 0.950 . S
H870 C866 0.950 . S
C871 C869 1.390 . S
C871 C872 1.387 . S
C871 H874 0.950 . S
C872 C871 1.387 . S
C872 C875 1.387 . S
H873 C869 0.950 . S
H874 C871 0.950 . S
C875 C866 1.390 . S
C875 H868 0.950 . S
C875 C872 1.387 . S
C876 C877 1.387 . S
C876 H880 0.950 . S
C876 C885 1.390 . S
C877 C876 1.387 . S
C877 C879 1.387 1_554 S
H878 C885 0.950 . S
C879 C877 1.387 1_556 S
C879 C881 1.390 . S
C879 H883 0.950 . S
H880 C876 0.950 . S
C881 C879 1.390 . S
C881 C882 1.387 1_556 S
C881 H884 0.950 . S
C882 C881 1.387 1_554 S
C882 C885 1.387 . S
H883 C879 0.950 . S
H884 C881 0.950 . S
C885 C876 1.390 . S
C885 H878 0.950 . S
C885 C882 1.387 . S
C886 C887 1.387 1_556 S
C886 H890 0.950 . S
C886 C895 1.390 . S
C887 C886 1.387 1_554 S
C887 C889 1.387 . S
H888 C895 0.950 . S
C889 C887 1.387 . S
C889 C891 1.390 . S
C889 H893 0.950 . S
H890 C886 0.950 . S
C891 C889 1.390 . S
C891 C892 1.387 . S
C891 H894 0.950 . S
C892 C891 1.387 . S
C892 C895 1.387 1_554 S
H893 C889 0.950 . S
H894 C891 0.950 . S
C895 C886 1.390 . S
C895 H888 0.950 . S
C895 C892 1.387 1_556 S
C896 C897 1.387 . S
C896 H900 0.950 . S
C896 C905 1.390 . S
C897 C896 1.387 . S
C897 C899 1.387 1_554 S
H898 C905 0.950 . S
C899 C897 1.387 1_556 S
C899 C901 1.390 . S
C899 H903 0.950 . S
H900 C896 0.950 . S
C901 C899 1.390 . S
C901 C902 1.387 1_556 S
C901 H904 0.950 . S
C902 C901 1.387 1_554 S
C902 C905 1.387 . S
H903 C899 0.950 . S
H904 C901 0.950 . S
C905 C896 1.390 . S
C905 H898 0.950 . S
C905 C902 1.387 . S
C906 C907 1.387 1_556 S
C906 H910 0.950 . S
C906 C915 1.390 . S
C907 C906 1.387 1_554 S
C907 C909 1.387 . S
H908 C915 0.950 . S
C909 C907 1.387 . S
C909 C911 1.390 . S
C909 H913 0.950 . S
H910 C906 0.950 . S
C911 C909 1.390 . S
C911 C912 1.387 . S
C911 H914 0.950 . S
C912 C911 1.387 . S
C912 C915 1.387 1_554 S
H913 C909 0.950 . S
H914 C911 0.950 . S
C915 C906 1.390 . S
C915 H908 0.950 . S
C915 C912 1.387 1_556 S
C916 C917 1.387 1_655 S
C916 H920 0.950 . S
C916 C925 1.390 . S
C917 C916 1.387 1_455 S
C917 C919 1.387 . S
H918 C925 0.950 . S
C919 C917 1.387 . S
C919 C921 1.390 . S
C919 H923 0.950 . S
H920 C916 0.950 . S
C921 C919 1.390 . S
C921 C922 1.387 . S
C921 H924 0.950 . S
C922 C921 1.387 . S
C922 C925 1.387 1_455 S
H923 C919 0.950 . S
H924 C921 0.950 . S
C925 C916 1.390 . S
C925 H918 0.950 . S
C925 C922 1.387 1_655 S
C926 C927 1.366 1_565 S
C926 H930 0.950 . S
C926 C935 1.390 . S
C927 C926 1.366 1_545 S
C927 C929 1.409 . S
H928 C935 0.950 . S
C929 C927 1.409 . S
C929 C931 1.390 . S
C929 H933 0.950 . S
H930 C926 0.950 . S
C931 C929 1.390 . S
C931 C932 1.405 . S
C931 H934 0.950 . S
C932 C931 1.405 . S
C932 C935 1.370 1_545 S
H933 C929 0.950 . S
H934 C931 0.950 . S
C935 C926 1.390 . S
C935 H928 0.950 . S
C935 C932 1.370 1_565 S
C936 C937 1.387 . S
C936 H940 0.950 . S
C936 C945 1.390 . S
C937 C936 1.387 . S
C937 C939 1.387 1_455 S
H938 C945 0.950 . S
C939 C937 1.387 1_655 S
C939 C941 1.390 . S
C939 H943 0.950 . S
H940 C936 0.950 . S
C941 C939 1.390 . S
C941 C942 1.387 1_655 S
C941 H944 0.950 . S
C942 C941 1.387 1_455 S
C942 C945 1.387 . S
H943 C939 0.950 . S
H944 C941 0.950 . S
C945 C936 1.390 . S
C945 H938 0.950 . S
C945 C942 1.387 . S
C946 C947 1.372 1_565 S
C946 H950 0.950 . S
C946 C955 1.390 . S
C947 C946 1.372 1_545 S
C947 C949 1.403 . S
H948 C955 0.950 . S
C949 C947 1.403 . S
C949 C951 1.390 . S
C949 H953 0.950 . S
H950 C946 0.950 . S
C951 C949 1.390 . S
C951 C952 1.404 . S
C951 H954 0.950 . S
C952 C951 1.404 . S
C952 C955 1.371 1_545 S
H953 C949 0.950 . S
H954 C951 0.950 . S
C955 C946 1.390 . S
C955 H948 0.950 . S
C955 C952 1.371 1_565 S
C956 C957 1.387 . S
C956 H960 0.950 . S
C956 C965 1.390 . S
C957 C956 1.387 . S
C957 C959 1.387 1_455 S
H958 C965 0.950 . S
C959 C957 1.387 1_655 S
C959 C961 1.390 . S
C959 H963 0.950 . S
H960 C956 0.950 . S
C961 C959 1.390 . S
C961 C962 1.387 1_655 S
C961 H964 0.950 . S
C962 C961 1.387 1_455 S
C962 C965 1.387 . S
H963 C959 0.950 . S
H964 C961 0.950 . S
C965 C956 1.390 . S
C965 H958 0.950 . S
C965 C962 1.387 . S
C966 C967 1.400 . S
C966 H970 0.950 . S
C966 C975 1.390 . S
C967 C966 1.400 . S
C967 C969 1.375 1_545 S
H968 C975 0.950 . S
C969 C967 1.375 1_565 S
C969 C971 1.390 . S
C969 H973 0.950 . S
H970 C966 0.950 . S
C971 C969 1.390 . S
C971 C972 1.372 1_565 S
C971 H974 0.950 . S
C972 C971 1.372 1_545 S
C972 C975 1.403 . S
H973 C969 0.950 . S
H974 C971 0.950 . S
C975 C966 1.390 . S
C975 H968 0.950 . S
C975 C972 1.403 . S
C976 C977 1.387 1_655 S
C976 H980 0.950 . S
C976 C985 1.390 . S
C977 C976 1.387 1_455 S
C977 C979 1.387 . S
H978 C985 0.950 . S
C979 C977 1.387 . S
C979 C981 1.390 . S
C979 H983 0.950 . S
H980 C976 0.950 . S
C981 C979 1.390 . S
C981 C982 1.387 . S
C981 H984 0.950 . S
C982 C981 1.387 . S
C982 C985 1.387 1_455 S
H983 C979 0.950 . S
H984 C981 0.950 . S
C985 C976 1.390 . S
C985 H978 0.950 . S
C985 C982 1.387 1_655 S
C986 C987 1.399 . S
C986 H990 0.950 . S
C986 C995 1.390 . S
C987 C986 1.399 . S
C987 C989 1.376 1_545 S
H988 C995 0.950 . S
C989 C987 1.376 1_565 S
C989 C991 1.390 . S
C989 H993 0.950 . S
H990 C986 0.950 . S
C991 C989 1.390 . S
C991 C992 1.372 1_565 S
C991 H994 0.950 . S
C992 C991 1.372 1_545 S
C992 C995 1.403 . S
H993 C989 0.950 . S
H994 C991 0.950 . S
C995 C986 1.390 . S
C995 H988 0.950 . S
C995 C992 1.403 . S
C996 C997 1.387 . S
C996 H1000 0.950 . S
C996 C1005 1.390 . S
C997 C996 1.387 . S
C997 C999 1.387 1_455 S
H998 C1005 0.950 . S
C999 C997 1.387 1_655 S
C999 C1001 1.390 . S
C999 H1003 0.950 . S
H1000 C996 0.950 . S
C1001 C999 1.390 . S
C1001 C1002 1.387 1_655 S
C1001 H1004 0.950 . S
C1002 C1001 1.387 1_455 S
C1002 C1005 1.387 . S
H1003 C999 0.950 . S
H1004 C1001 0.950 . S
C1005 C996 1.390 . S
C1005 H998 0.950 . S
C1005 C1002 1.387 . S
C1006 C1007 1.401 . S
C1006 H1010 0.950 . S
C1006 C1015 1.390 . S
C1007 C1006 1.401 . S
C1007 C1009 1.374 1_545 S
H1008 C1015 0.950 . S
C1009 C1007 1.374 1_565 S
C1009 C1011 1.390 . S
C1009 H1013 0.950 . S
H1010 C1006 0.950 . S
C1011 C1009 1.390 . S
C1011 C1012 1.370 1_565 S
C1011 H1014 0.950 . S
C1012 C1011 1.370 1_545 S
C1012 C1015 1.405 . S
H1013 C1009 0.950 . S
H1014 C1011 0.950 . S
C1015 C1006 1.390 . S
C1015 H1008 0.950 . S
C1015 C1012 1.405 . S
C1016 C1017 1.387 . S
C1016 H1020 0.950 . S
C1016 C1025 1.390 . S
C1017 C1016 1.387 . S
C1017 C1019 1.387 . S
H1018 C1025 0.950 . S
C1019 C1017 1.387 . S
C1019 C1021 1.390 . S
C1019 H1023 0.950 . S
H1020 C1016 0.950 . S
C1021 C1019 1.390 . S
C1021 C1022 1.387 . S
C1021 H1024 0.950 . S
C1022 C1021 1.387 . S
C1022 C1025 1.387 . S
H1023 C1019 0.950 . S
H1024 C1021 0.950 . S
C1025 C1016 1.390 . S
C1025 H1018 0.950 . S
C1025 C1022 1.387 . S
C1026 C1027 1.400 . S
C1026 H1030 0.950 . S
C1026 C1035 1.390 . S
C1027 C1026 1.400 . S
C1027 C1029 1.375 1_545 S
H1028 C1035 0.950 . S
C1029 C1027 1.375 1_565 S
C1029 C1031 1.390 . S
C1029 H1033 0.950 . S
H1030 C1026 0.950 . S
C1031 C1029 1.390 . S
C1031 C1032 1.370 1_565 S
C1031 H1034 0.950 . S
C1032 C1031 1.370 1_545 S
C1032 C1035 1.405 . S
H1033 C1029 0.950 . S
H1034 C1031 0.950 . S
C1035 C1026 1.390 . S
C1035 H1028 0.950 . S
C1035 C1032 1.405 . S
C1036 C1037 1.387 1_655 S
C1036 H1040 0.950 . S
C1036 C1045 1.390 . S
C1037 C1036 1.387 1_455 S
C1037 C1039 1.387 . S
H1038 C1045 0.950 . S
C1039 C1037 1.387 . S
C1039 C1041 1.390 . S
C1039 H1043 0.950 . S
H1040 C1036 0.950 . S
C1041 C1039 1.390 . S
C1041 C1042 1.387 . S
C1041 H1044 0.950 . S
C1042 C1041 1.387 . S
C1042 C1045 1.387 1_455 S
H1043 C1039 0.950 . S
H1044 C1041 0.950 . S
C1045 C1036 1.390 . S
C1045 H1038 0.950 . S
C1045 C1042 1.387 1_655 S
C1046 C1047 1.365 1_565 S
C1046 H1050 0.950 . S
C1046 C1055 1.390 . S
C1047 C1046 1.365 1_545 S
C1047 C1049 1.410 . S
H1048 C1055 0.950 . S
C1049 C1047 1.410 . S
C1049 C1051 1.390 . S
C1049 H1053 0.950 . S
H1050 C1046 0.950 . S
C1051 C1049 1.390 . S
C1051 C1052 1.406 . S
C1051 H1054 0.950 . S
C1052 C1051 1.406 . S
C1052 C1055 1.369 1_545 S
H1053 C1049 0.950 . S
H1054 C1051 0.950 . S
C1055 C1046 1.390 . S
C1055 H1048 0.950 . S
C1055 C1052 1.369 1_565 S
C1056 C1057 1.387 . S
C1056 H1060 0.950 . S
C1056 C1065 1.390 . S
C1057 C1056 1.387 . S
C1057 C1059 1.387 1_455 S
H1058 C1065 0.950 . S
C1059 C1057 1.387 1_655 S
C1059 C1061 1.390 . S
C1059 H1063 0.950 . S
H1060 C1056 0.950 . S
C1061 C1059 1.390 . S
C1061 C1062 1.387 1_655 S
C1061 H1064 0.950 . S
C1062 C1061 1.387 1_455 S
C1062 C1065 1.387 . S
H1063 C1059 0.950 . S
H1064 C1061 0.950 . S
C1065 C1056 1.390 . S
C1065 H1058 0.950 . S
C1065 C1062 1.387 . S
C1066 C1067 1.404 . S
C1066 H1070 0.950 . S
C1066 C1075 1.390 . S
C1067 C1066 1.404 . S
C1067 C1069 1.371 1_545 S
H1068 C1075 0.950 . S
C1069 C1067 1.371 1_565 S
C1069 C1071 1.390 . S
C1069 H1073 0.950 . S
H1070 C1066 0.950 . S
C1071 C1069 1.390 . S
C1071 C1072 1.370 1_565 S
C1071 H1074 0.950 . S
C1072 C1071 1.370 1_545 S
C1072 C1075 1.405 . S
H1073 C1069 0.950 . S
H1074 C1071 0.950 . S
C1075 C1066 1.390 . S
C1075 H1068 0.950 . S
C1075 C1072 1.405 . S
C1076 C1077 1.372 1_565 S
C1076 H1080 0.950 . S
C1076 C1085 1.390 . S
C1077 C1076 1.372 1_545 S
C1077 C1079 1.403 . S
H1078 C1085 0.950 . S
C1079 C1077 1.403 . S
C1079 C1081 1.390 . S
C1079 H1083 0.950 . S
H1080 C1076 0.950 . S
C1081 C1079 1.390 . S
C1081 C1082 1.387 . S
C1081 H1084 0.950 . S
C1082 C1081 1.387 . S
C1082 C1085 1.387 1_545 S
H1083 C1079 0.950 . S
H1084 C1081 0.950 . S
C1085 C1076 1.390 . S
C1085 H1078 0.950 . S
C1085 C1082 1.387 1_565 S
C1086 C1087 1.387 . S
C1086 H1090 0.950 . S
C1086 C1095 1.390 . S
C1087 C1086 1.387 . S
C1087 C1089 1.387 1_455 S
H1088 C1095 0.950 . S
C1089 C1087 1.387 1_655 S
C1089 C1091 1.390 . S
C1089 H1093 0.950 . S
H1090 C1086 0.950 . S
C1091 C1089 1.390 . S
C1091 C1092 1.387 1_655 S
C1091 H1094 0.950 . S
C1092 C1091 1.387 1_455 S
C1092 C1095 1.387 . S
H1093 C1089 0.950 . S
H1094 C1091 0.950 . S
C1095 C1086 1.390 . S
C1095 H1088 0.950 . S
C1095 C1092 1.387 . S
C1096 C1097 1.403 . S
C1096 H1100 0.950 . S
C1096 C1105 1.390 . S
C1097 C1096 1.403 . S
C1097 C1099 1.372 1_545 S
H1098 C1105 0.950 . S
C1099 C1097 1.372 1_565 S
C1099 C1101 1.390 . S
C1099 H1103 0.950 . S
H1100 C1096 0.950 . S
C1101 C1099 1.390 . S
C1101 C1102 1.358 1_565 S
C1101 H1104 0.950 . S
C1102 C1101 1.358 1_545 S
C1102 C1105 1.417 . S
H1103 C1099 0.950 . S
H1104 C1101 0.950 . S
C1105 C1096 1.390 . S
C1105 H1098 0.950 . S
C1105 C1102 1.417 . S
C1106 C1107 1.387 1_655 S
C1106 H1110 0.950 . S
C1106 C1115 1.390 . S
C1107 C1106 1.387 1_455 S
C1107 C1109 1.387 . S
H1108 C1115 0.950 . S
C1109 C1107 1.387 . S
C1109 C1111 1.390 . S
C1109 H1113 0.950 . S
H1110 C1106 0.950 . S
C1111 C1109 1.390 . S
C1111 C1112 1.387 . S
C1111 H1114 0.950 . S
C1112 C1111 1.387 . S
C1112 C1115 1.387 1_455 S
H1113 C1109 0.950 . S
H1114 C1111 0.950 . S
C1115 C1106 1.390 . S
C1115 H1108 0.950 . S
C1115 C1112 1.387 1_655 S
C1116 C1117 1.369 1_565 S
C1116 H1120 0.950 . S
C1116 C1125 1.390 . S
C1117 C1116 1.369 1_545 S
C1117 C1119 1.406 . S
H1118 C1125 0.950 . S
C1119 C1117 1.406 . S
C1119 C1121 1.390 . S
C1119 H1123 0.950 . S
H1120 C1116 0.950 . S
C1121 C1119 1.390 . S
C1121 C1122 1.393 . S
C1121 H1124 0.950 . S
C1122 C1121 1.393 . S
C1122 C1125 1.382 1_545 S
H1123 C1119 0.950 . S
H1124 C1121 0.950 . S
C1125 C1116 1.390 . S
C1125 H1118 0.950 . S
C1125 C1122 1.382 1_565 S
C1126 C1127 1.387 1_655 S
C1126 H1130 0.950 . S
C1126 C1135 1.390 . S
C1127 C1126 1.387 1_455 S
C1127 C1129 1.387 . S
H1128 C1135 0.950 . S
C1129 C1127 1.387 . S
C1129 C1131 1.390 . S
C1129 H1133 0.950 . S
H1130 C1126 0.950 . S
C1131 C1129 1.390 . S
C1131 C1132 1.387 . S
C1131 H1134 0.950 . S
C1132 C1131 1.387 . S
C1132 C1135 1.387 1_455 S
H1133 C1129 0.950 . S
H1134 C1131 0.950 . S
C1135 C1126 1.390 . S
C1135 H1128 0.950 . S
C1135 C1132 1.387 1_655 S
C1136 C1137 1.400 . S
C1136 H1140 0.950 . S
C1136 C1145 1.390 . S
C1137 C1136 1.400 . S
C1137 C1139 1.374 1_545 S
H1138 C1145 0.950 . S
C1139 C1137 1.374 1_565 S
C1139 C1141 1.390 . S
C1139 H1143 0.950 . S
H1140 C1136 0.950 . S
C1141 C1139 1.390 . S
C1141 C1142 1.385 1_565 S
C1141 H1144 0.950 . S
C1142 C1141 1.385 1_545 S
C1142 C1145 1.390 . S
H1143 C1139 0.950 . S
H1144 C1141 0.950 . S
C1145 C1136 1.390 . S
C1145 H1138 0.950 . S
C1145 C1142 1.390 . S
C1146 C1147 1.387 . S
C1146 H1150 0.950 . S
C1146 C1155 1.390 . S
C1147 C1146 1.387 . S
C1147 C1149 1.387 1_455 S
H1148 C1155 0.950 . S
C1149 C1147 1.387 1_655 S
C1149 C1151 1.390 . S
C1149 H1153 0.950 . S
H1150 C1146 0.950 . S
C1151 C1149 1.390 . S
C1151 C1152 1.387 1_655 S
C1151 H1154 0.950 . S
C1152 C1151 1.387 1_455 S
C1152 C1155 1.387 . S
H1153 C1149 0.950 . S
H1154 C1151 0.950 . S
C1155 C1146 1.390 . S
C1155 H1148 0.950 . S
C1155 C1152 1.387 . S
C1156 C1157 1.387 . S
C1156 H1160 0.950 . S
C1156 C1165 1.390 . S
C1157 C1156 1.387 . S
C1157 C1159 1.387 1_554 S
H1158 C1165 0.950 . S
C1159 C1157 1.387 1_556 S
C1159 C1161 1.390 . S
C1159 H1163 0.950 . S
H1160 C1156 0.950 . S
C1161 C1159 1.390 . S
C1161 C1162 1.387 1_556 S
C1161 H1164 0.950 . S
C1162 C1161 1.387 1_554 S
C1162 C1165 1.387 . S
H1163 C1159 0.950 . S
H1164 C1161 0.950 . S
C1165 C1156 1.390 . S
C1165 H1158 0.950 . S
C1165 C1162 1.387 . S
C1166 C1167 1.387 . S
C1166 H1170 0.950 . S
C1166 C1175 1.390 . S
C1167 C1166 1.387 . S
C1167 C1169 1.387 1_554 S
H1168 C1175 0.950 . S
C1169 C1167 1.387 1_556 S
C1169 C1171 1.390 . S
C1169 H1173 0.950 . S
H1170 C1166 0.950 . S
C1171 C1169 1.390 . S
C1171 C1172 1.387 1_556 S
C1171 H1174 0.950 . S
C1172 C1171 1.387 1_554 S
C1172 C1175 1.387 . S
H1173 C1169 0.950 . S
H1174 C1171 0.950 . S
C1175 C1166 1.390 . S
C1175 H1168 0.950 . S
C1175 C1172 1.387 . S
C1176 C1177 1.387 1_556 S
C1176 H1180 0.950 . S
C1176 C1185 1.390 . S
C1177 C1176 1.387 1_554 S
C1177 C1179 1.387 . S
H1178 C1185 0.950 . S
C1179 C1177 1.387 . S
C1179 C1181 1.390 . S
C1179 H1183 0.950 . S
H1180 C1176 0.950 . S
C1181 C1179 1.390 . S
C1181 C1182 1.387 . S
C1181 H1184 0.950 . S
C1182 C1181 1.387 . S
C1182 C1185 1.387 1_554 S
H1183 C1179 0.950 . S
H1184 C1181 0.950 . S
C1185 C1176 1.390 . S
C1185 H1178 0.950 . S
C1185 C1182 1.387 1_556 S
C1186 C1187 1.387 1_556 S
C1186 H1190 0.950 . S
C1186 C1195 1.390 . S
C1187 C1186 1.387 1_554 S
C1187 C1189 1.387 . S
H1188 C1195 0.950 . S
C1189 C1187 1.387 . S
C1189 C1191 1.390 . S
C1189 H1193 0.950 . S
H1190 C1186 0.950 . S
C1191 C1189 1.390 . S
C1191 C1192 1.387 . S
C1191 H1194 0.950 . S
C1192 C1191 1.387 . S
C1192 C1195 1.387 1_554 S
H1193 C1189 0.950 . S
H1194 C1191 0.950 . S
C1195 C1186 1.390 . S
C1195 H1188 0.950 . S
C1195 C1192 1.387 1_556 S
C1196 C1197 1.387 1_556 S
C1196 H1200 0.950 . S
C1196 C1205 1.390 . S
C1197 C1196 1.387 1_554 S
C1197 C1199 1.387 . S
H1198 C1205 0.950 . S
C1199 C1197 1.387 . S
C1199 C1201 1.390 . S
C1199 H1203 0.950 . S
H1200 C1196 0.950 . S
C1201 C1199 1.390 . S
C1201 C1202 1.387 . S
C1201 H1204 0.950 . S
C1202 C1201 1.387 . S
C1202 C1205 1.387 1_554 S
H1203 C1199 0.950 . S
H1204 C1201 0.950 . S
C1205 C1196 1.390 . S
C1205 H1198 0.950 . S
C1205 C1202 1.387 1_556 S
C1206 C1207 1.387 . S
C1206 H1210 0.950 . S
C1206 C1215 1.390 . S
C1207 C1206 1.387 . S
C1207 C1209 1.387 1_554 S
H1208 C1215 0.950 . S
C1209 C1207 1.387 1_556 S
C1209 C1211 1.390 . S
C1209 H1213 0.950 . S
H1210 C1206 0.950 . S
C1211 C1209 1.390 . S
C1211 C1212 1.387 1_556 S
C1211 H1214 0.950 . S
C1212 C1211 1.387 1_554 S
C1212 C1215 1.387 . S
H1213 C1209 0.950 . S
H1214 C1211 0.950 . S
C1215 C1206 1.390 . S
C1215 H1208 0.950 . S
C1215 C1212 1.387 . S
C1216 C1217 1.387 . S
C1216 H1220 0.950 . S
C1216 C1225 1.390 . S
C1217 C1216 1.387 . S
C1217 C1219 1.387 1_554 S
H1218 C1225 0.950 . S
C1219 C1217 1.387 1_556 S
C1219 C1221 1.390 . S
C1219 H1223 0.950 . S
H1220 C1216 0.950 . S
C1221 C1219 1.390 . S
C1221 C1222 1.387 1_556 S
C1221 H1224 0.950 . S
C1222 C1221 1.387 1_554 S
C1222 C1225 1.387 . S
H1223 C1219 0.950 . S
H1224 C1221 0.950 . S
C1225 C1216 1.390 . S
C1225 H1218 0.950 . S
C1225 C1222 1.387 . S
C1226 C1227 1.387 . S
C1226 H1230 0.950 . S
C1226 C1235 1.390 . S
C1227 C1226 1.387 . S
C1227 C1229 1.387 1_554 S
H1228 C1235 0.950 . S
C1229 C1227 1.387 1_556 S
C1229 C1231 1.390 . S
C1229 H1233 0.950 . S
H1230 C1226 0.950 . S
C1231 C1229 1.390 . S
C1231 C1232 1.387 1_556 S
C1231 H1234 0.950 . S
C1232 C1231 1.387 1_554 S
C1232 C1235 1.387 . S
H1233 C1229 0.950 . S
H1234 C1231 0.950 . S
C1235 C1226 1.390 . S
C1235 H1228 0.950 . S
C1235 C1232 1.387 . S
C1236 C1237 1.387 . S
C1236 H1240 0.950 . S
C1236 C1245 1.390 . S
C1237 C1236 1.387 . S
C1237 C1239 1.387 . S
H1238 C1245 0.950 . S
C1239 C1237 1.387 . S
C1239 C1241 1.390 . S
C1239 H1243 0.950 . S
H1240 C1236 0.950 . S
C1241 C1239 1.390 . S
C1241 C1242 1.387 . S
C1241 H1244 0.950 . S
C1242 C1241 1.387 . S
C1242 C1245 1.387 . S
H1243 C1239 0.950 . S
H1244 C1241 0.950 . S
C1245 C1236 1.390 . S
C1245 H1238 0.950 . S
C1245 C1242 1.387 . S
C1246 C1247 1.387 . S
C1246 H1250 0.950 . S
C1246 C1255 1.390 . S
C1247 C1246 1.387 . S
C1247 C1249 1.387 . S
H1248 C1255 0.950 . S
C1249 C1247 1.387 . S
C1249 C1251 1.390 . S
C1249 H1253 0.950 . S
H1250 C1246 0.950 . S
C1251 C1249 1.390 . S
C1251 C1252 1.387 . S
C1251 H1254 0.950 . S
C1252 C1251 1.387 . S
C1252 C1255 1.387 . S
H1253 C1249 0.950 . S
H1254 C1251 0.950 . S
C1255 C1246 1.390 . S
C1255 H1248 0.950 . S
C1255 C1252 1.387 . S
C1256 C1257 1.387 . S
C1256 H1260 0.950 . S
C1256 C1265 1.390 . S
C1257 C1256 1.387 . S
C1257 C1259 1.387 . S
H1258 C1265 0.950 . S
C1259 C1257 1.387 . S
C1259 C1261 1.390 . S
C1259 H1263 0.950 . S
H1260 C1256 0.950 . S
C1261 C1259 1.390 . S
C1261 C1262 1.387 . S
C1261 H1264 0.950 . S
C1262 C1261 1.387 . S
C1262 C1265 1.387 . S
H1263 C1259 0.950 . S
H1264 C1261 0.950 . S
C1265 C1256 1.390 . S
C1265 H1258 0.950 . S
C1265 C1262 1.387 . S
C1266 C1267 1.387 . S
C1266 H1270 0.950 . S
C1266 C1275 1.390 . S
C1267 C1266 1.387 . S
C1267 C1269 1.387 . S
H1268 C1275 0.950 . S
C1269 C1267 1.387 . S
C1269 C1271 1.390 . S
C1269 H1273 0.950 . S
H1270 C1266 0.950 . S
C1271 C1269 1.390 . S
C1271 C1272 1.387 . S
C1271 H1274 0.950 . S
C1272 C1271 1.387 . S
C1272 C1275 1.387 . S
H1273 C1269 0.950 . S
H1274 C1271 0.950 . S
C1275 C1266 1.390 . S
C1275 H1268 0.950 . S
C1275 C1272 1.387 . S
C1276 C1277 1.387 . S
C1276 H1280 0.950 . S
C1276 C1285 1.390 . S
C1277 C1276 1.387 . S
C1277 C1279 1.387 . S
H1278 C1285 0.950 . S
C1279 C1277 1.387 . S
C1279 C1281 1.390 . S
C1279 H1283 0.950 . S
H1280 C1276 0.950 . S
C1281 C1279 1.390 . S
C1281 C1282 1.387 . S
C1281 H1284 0.950 . S
C1282 C1281 1.387 . S
C1282 C1285 1.387 . S
H1283 C1279 0.950 . S
H1284 C1281 0.950 . S
C1285 C1276 1.390 . S
C1285 H1278 0.950 . S
C1285 C1282 1.387 . S
C1286 C1287 1.387 . S
C1286 H1290 0.950 . S
C1286 C1295 1.390 . S
C1287 C1286 1.387 . S
C1287 C1289 1.387 . S
H1288 C1295 0.950 . S
C1289 C1287 1.387 . S
C1289 C1291 1.390 . S
C1289 H1293 0.950 . S
H1290 C1286 0.950 . S
C1291 C1289 1.390 . S
C1291 C1292 1.387 . S
C1291 H1294 0.950 . S
C1292 C1291 1.387 . S
C1292 C1295 1.387 . S
H1293 C1289 0.950 . S
H1294 C1291 0.950 . S
C1295 C1286 1.390 . S
C1295 H1288 0.950 . S
C1295 C1292 1.387 . S
C1296 C1297 1.387 . S
C1296 H1300 0.950 . S
C1296 C1305 1.390 . S
C1297 C1296 1.387 . S
C1297 C1299 1.387 . S
H1298 C1305 0.950 . S
C1299 C1297 1.387 . S
C1299 C1301 1.390 . S
C1299 H1303 0.950 . S
H1300 C1296 0.950 . S
C1301 C1299 1.390 . S
C1301 C1302 1.387 . S
C1301 H1304 0.950 . S
C1302 C1301 1.387 . S
C1302 C1305 1.387 . S
H1303 C1299 0.950 . S
H1304 C1301 0.950 . S
C1305 C1296 1.390 . S
C1305 H1298 0.950 . S
C1305 C1302 1.387 . S
C1306 C1307 1.387 . S
C1306 H1310 0.950 . S
C1306 C1315 1.390 . S
C1307 C1306 1.387 . S
C1307 C1309 1.387 . S
H1308 C1315 0.950 . S
C1309 C1307 1.387 . S
C1309 C1311 1.390 . S
C1309 H1313 0.950 . S
H1310 C1306 0.950 . S
C1311 C1309 1.390 . S
C1311 C1312 1.387 . S
C1311 H1314 0.950 . S
C1312 C1311 1.387 . S
C1312 C1315 1.387 . S
H1313 C1309 0.950 . S
H1314 C1311 0.950 . S
C1315 C1306 1.390 . S
C1315 H1308 0.950 . S
C1315 C1312 1.387 . S
C1316 C1317 1.387 . S
C1316 H1320 0.950 . S
C1316 C1325 1.390 . S
C1317 C1316 1.387 . S
C1317 C1319 1.387 . S
H1318 C1325 0.950 . S
C1319 C1317 1.387 . S
C1319 C1321 1.390 . S
C1319 H1323 0.950 . S
H1320 C1316 0.950 . S
C1321 C1319 1.390 . S
C1321 C1322 1.387 . S
C1321 H1324 0.950 . S
C1322 C1321 1.387 . S
C1322 C1325 1.387 . S
H1323 C1319 0.950 . S
H1324 C1321 0.950 . S
C1325 C1316 1.390 . S
C1325 H1318 0.950 . S
C1325 C1322 1.387 . S
C1326 C1327 1.387 . S
C1326 H1330 0.950 . S
C1326 C1335 1.390 . S
C1327 C1326 1.387 . S
C1327 C1329 1.387 . S
H1328 C1335 0.950 . S
C1329 C1327 1.387 . S
C1329 C1331 1.390 . S
C1329 H1333 0.950 . S
H1330 C1326 0.950 . S
C1331 C1329 1.390 . S
C1331 C1332 1.387 . S
C1331 H1334 0.950 . S
C1332 C1331 1.387 . S
C1332 C1335 1.387 . S
H1333 C1329 0.950 . S
H1334 C1331 0.950 . S
C1335 C1326 1.390 . S
C1335 H1328 0.950 . S
C1335 C1332 1.387 . S
C1336 C1337 1.387 . S
C1336 H1340 0.950 . S
C1336 C1345 1.390 . S
C1337 C1336 1.387 . S
C1337 C1339 1.387 . S
H1338 C1345 0.950 . S
C1339 C1337 1.387 . S
C1339 C1341 1.390 . S
C1339 H1343 0.950 . S
H1340 C1336 0.950 . S
C1341 C1339 1.390 . S
C1341 C1342 1.387 . S
C1341 H1344 0.950 . S
C1342 C1341 1.387 . S
C1342 C1345 1.387 . S
H1343 C1339 0.950 . S
H1344 C1341 0.950 . S
C1345 C1336 1.390 . S
C1345 H1338 0.950 . S
C1345 C1342 1.387 . S
C1346 C1347 1.387 . S
C1346 H1350 0.950 . S
C1346 C1355 1.390 . S
C1347 C1346 1.387 . S
C1347 C1349 1.387 . S
H1348 C1355 0.950 . S
C1349 C1347 1.387 . S
C1349 C1351 1.390 . S
C1349 H1353 0.950 . S
H1350 C1346 0.950 . S
C1351 C1349 1.390 . S
C1351 C1352 1.387 . S
C1351 H1354 0.950 . S
C1352 C1351 1.387 . S
C1352 C1355 1.387 . S
H1353 C1349 0.950 . S
H1354 C1351 0.950 . S
C1355 C1346 1.390 . S
C1355 H1348 0.950 . S
C1355 C1352 1.387 . S
C1356 C1357 1.387 . S
C1356 H1360 0.950 . S
C1356 C1365 1.390 . S
C1357 C1356 1.387 . S
C1357 C1359 1.387 . S
H1358 C1365 0.950 . S
C1359 C1357 1.387 . S
C1359 C1361 1.390 . S
C1359 H1363 0.950 . S
H1360 C1356 0.950 . S
C1361 C1359 1.390 . S
C1361 C1362 1.387 . S
C1361 H1364 0.950 . S
C1362 C1361 1.387 . S
C1362 C1365 1.387 . S
H1363 C1359 0.950 . S
H1364 C1361 0.950 . S
C1365 C1356 1.390 . S
C1365 H1358 0.950 . S
C1365 C1362 1.387 . S
C1366 C1367 1.387 . S
C1366 H1370 0.950 . S
C1366 C1375 1.390 . S
C1367 C1366 1.387 . S
C1367 C1369 1.387 . S
H1368 C1375 0.950 . S
C1369 C1367 1.387 . S
C1369 C1371 1.390 . S
C1369 H1373 0.950 . S
H1370 C1366 0.950 . S
C1371 C1369 1.390 . S
C1371 C1372 1.387 . S
C1371 H1374 0.950 . S
C1372 C1371 1.387 . S
C1372 C1375 1.387 . S
H1373 C1369 0.950 . S
H1374 C1371 0.950 . S
C1375 C1366 1.390 . S
C1375 H1368 0.950 . S
C1375 C1372 1.387 . S
C1376 C1377 1.387 . S
C1376 H1380 0.950 . S
C1376 C1385 1.390 . S
C1377 C1376 1.387 . S
C1377 C1379 1.387 . S
H1378 C1385 0.950 . S
C1379 C1377 1.387 . S
C1379 C1381 1.390 . S
C1379 H1383 0.950 . S
H1380 C1376 0.950 . S
C1381 C1379 1.390 . S
C1381 C1382 1.387 . S
C1381 H1384 0.950 . S
C1382 C1381 1.387 . S
C1382 C1385 1.387 . S
H1383 C1379 0.950 . S
H1384 C1381 0.950 . S
C1385 C1376 1.390 . S
C1385 H1378 0.950 . S
C1385 C1382 1.387 . S
C1386 C1387 1.387 . S
C1386 H1390 0.950 . S
C1386 C1395 1.390 . S
C1387 C1386 1.387 . S
C1387 C1389 1.387 . S
H1388 C1395 0.950 . S
C1389 C1387 1.387 . S
C1389 C1391 1.390 . S
C1389 H1393 0.950 . S
H1390 C1386 0.950 . S
C1391 C1389 1.390 . S
C1391 C1392 1.387 . S
C1391 H1394 0.950 . S
C1392 C1391 1.387 . S
C1392 C1395 1.387 . S
H1393 C1389 0.950 . S
H1394 C1391 0.950 . S
C1395 C1386 1.390 . S
C1395 H1388 0.950 . S
C1395 C1392 1.387 . S
C1396 C1397 1.387 . S
C1396 H1400 0.950 . S
C1396 C1405 1.390 . S
C1397 C1396 1.387 . S
C1397 C1399 1.387 . S
H1398 C1405 0.950 . S
C1399 C1397 1.387 . S
C1399 C1401 1.390 . S
C1399 H1403 0.950 . S
H1400 C1396 0.950 . S
C1401 C1399 1.390 . S
C1401 C1402 1.387 . S
C1401 H1404 0.950 . S
C1402 C1401 1.387 . S
C1402 C1405 1.387 . S
H1403 C1399 0.950 . S
H1404 C1401 0.950 . S
C1405 C1396 1.390 . S
C1405 H1398 0.950 . S
C1405 C1402 1.387 . S
C1406 C1407 1.387 . S
C1406 H1410 0.950 . S
C1406 C1415 1.390 . S
C1407 C1406 1.387 . S
C1407 C1409 1.387 . S
H1408 C1415 0.950 . S
C1409 C1407 1.387 . S
C1409 C1411 1.390 . S
C1409 H1413 0.950 . S
H1410 C1406 0.950 . S
C1411 C1409 1.390 . S
C1411 C1412 1.387 . S
C1411 H1414 0.950 . S
C1412 C1411 1.387 . S
C1412 C1415 1.387 . S
H1413 C1409 0.950 . S
H1414 C1411 0.950 . S
C1415 C1406 1.390 . S
C1415 H1408 0.950 . S
C1415 C1412 1.387 . S
C1416 C1417 1.387 . S
C1416 H1420 0.950 . S
C1416 C1425 1.390 . S
C1417 C1416 1.387 . S
C1417 C1419 1.387 . S
H1418 C1425 0.950 . S
C1419 C1417 1.387 . S
C1419 C1421 1.390 . S
C1419 H1423 0.950 . S
H1420 C1416 0.950 . S
C1421 C1419 1.390 . S
C1421 C1422 1.387 . S
C1421 H1424 0.950 . S
C1422 C1421 1.387 . S
C1422 C1425 1.387 . S
H1423 C1419 0.950 . S
H1424 C1421 0.950 . S
C1425 C1416 1.390 . S
C1425 H1418 0.950 . S
C1425 C1422 1.387 . S
C1426 C1427 1.387 . S
C1426 H1430 0.950 . S
C1426 C1435 1.390 . S
C1427 C1426 1.387 . S
C1427 C1429 1.387 . S
H1428 C1435 0.950 . S
C1429 C1427 1.387 . S
C1429 C1431 1.390 . S
C1429 H1433 0.950 . S
H1430 C1426 0.950 . S
C1431 C1429 1.390 . S
C1431 C1432 1.387 . S
C1431 H1434 0.950 . S
C1432 C1431 1.387 . S
C1432 C1435 1.387 . S
H1433 C1429 0.950 . S
H1434 C1431 0.950 . S
C1435 C1426 1.390 . S
C1435 H1428 0.950 . S
C1435 C1432 1.387 . S
C1436 C1437 1.387 . S
C1436 H1440 0.950 . S
C1436 C1445 1.390 . S
C1437 C1436 1.387 . S
C1437 C1439 1.387 . S
H1438 C1445 0.950 . S
C1439 C1437 1.387 . S
C1439 C1441 1.390 . S
C1439 H1443 0.950 . S
H1440 C1436 0.950 . S
C1441 C1439 1.390 . S
C1441 C1442 1.387 . S
C1441 H1444 0.950 . S
C1442 C1441 1.387 . S
C1442 C1445 1.387 . S
H1443 C1439 0.950 . S
H1444 C1441 0.950 . S
C1445 C1436 1.390 . S
C1445 H1438 0.950 . S
C1445 C1442 1.387 . S
C1446 C1447 1.387 . S
C1446 H1450 0.950 . S
C1446 C1455 1.390 . S
C1447 C1446 1.387 . S
C1447 C1449 1.387 . S
H1448 C1455 0.950 . S
C1449 C1447 1.387 . S
C1449 C1451 1.390 . S
C1449 H1453 0.950 . S
H1450 C1446 0.950 . S
C1451 C1449 1.390 . S
C1451 C1452 1.387 . S
C1451 H1454 0.950 . S
C1452 C1451 1.387 . S
C1452 C1455 1.387 . S
H1453 C1449 0.950 . S
H1454 C1451 0.950 . S
C1455 C1446 1.390 . S
C1455 H1448 0.950 . S
C1455 C1452 1.387 . S
C1456 C1457 1.387 . S
C1456 H1460 0.950 . S
C1456 C1465 1.390 . S
C1457 C1456 1.387 . S
C1457 C1459 1.387 . S
H1458 C1465 0.950 . S
C1459 C1457 1.387 . S
C1459 C1461 1.390 . S
C1459 H1463 0.950 . S
H1460 C1456 0.950 . S
C1461 C1459 1.390 . S
C1461 C1462 1.387 . S
C1461 H1464 0.950 . S
C1462 C1461 1.387 . S
C1462 C1465 1.387 . S
H1463 C1459 0.950 . S
H1464 C1461 0.950 . S
C1465 C1456 1.390 . S
C1465 H1458 0.950 . S
C1465 C1462 1.387 . S
C1466 C1467 1.387 . S
C1466 H1470 0.950 . S
C1466 C1475 1.390 . S
C1467 C1466 1.387 . S
C1467 C1469 1.387 . S
H1468 C1475 0.950 . S
C1469 C1467 1.387 . S
C1469 C1471 1.390 . S
C1469 H1473 0.950 . S
H1470 C1466 0.950 . S
C1471 C1469 1.390 . S
C1471 C1472 1.387 . S
C1471 H1474 0.950 . S
C1472 C1471 1.387 . S
C1472 C1475 1.387 . S
H1473 C1469 0.950 . S
H1474 C1471 0.950 . S
C1475 C1466 1.390 . S
C1475 H1468 0.950 . S
C1475 C1472 1.387 . S
C762 C462 1.730 . S
C757 C439 1.736 . S
C767 C401 1.840 . S
C772 C460 1.836 . S
C782 C461 1.837 . S
C777 C382 1.840 . S
C787 C420 1.737 . S
C792 C463 1.731 . S
C802 C507 1.714 . S
C797 C306 1.725 . S
C812 C567 1.788 . S
C807 C325 1.798 . S
C817 C344 1.687 . S
C822 C506 1.682 . S
C832 C566 1.891 . S
C827 C363 1.899 . S
C837 C230 1.807 . S
C842 C508 1.802 . S
C852 C564 1.748 . S
C847 C249 1.750 . S
C857 C268 1.819 . S
C862 C509 1.810 . S
C867 C287 1.654 . S
C872 C565 1.648 . S
C882 C615 1.731 . S
C877 C211 1.736 . S
C887 C173 1.841 . S
C892 C614 1.837 . S
C897 C154 1.840 . S
C902 C616 1.836 . S
C912 C617 1.731 . S
C907 C192 1.737 . S
C917 C78 1.725 . S
C922 C658 1.714 . S
C927 C97 1.799 . S
C932 C717 1.789 . S
C937 C116 1.687 . S
C942 C656 1.682 . S
C947 C135 1.898 . S
C952 C716 1.891 . S
C962 C657 1.802 . S
C957 C2 1.807 . S
C972 C714 1.748 . S
C967 C21 1.750 . S
C977 C40 1.819 . S
C982 C659 1.810 . S
C992 C715 1.649 . S
C987 C59 1.654 . S
C1002 C459 1.607 . S
C997 C6 1.590 . S
C1007 C30 1.445 . S
C1012 C465 1.475 . S
C1017 C49 1.387 . S
C1022 C457 1.403 . S
C1027 C68 1.323 1_545 S
C1032 C464 1.350 . S
C1037 C82 1.566 . S
C1042 C456 1.585 . S
C1052 C466 1.401 . S
C1047 C106 1.382 . S
C1057 C125 1.364 . S
C1062 C458 1.386 . S
C1072 C467 1.794 . S
C1067 C139 1.785 . S
C1082 C513 1.554 . S
C1077 C63 1.520 1_545 S
C1087 C11 1.383 1_455 S
C1092 C556 1.412 . S
C1102 C511 1.537 . S
C1097 C25 1.503 . S
C1112 C558 1.626 . S
C1107 C44 1.606 . S
C1117 C101 1.627 . S
C1122 C512 1.645 . S
C1132 C557 1.482 . S
C1127 C120 1.451 . S
C1142 C510 1.420 . S
C1137 C144 1.397 . S
C1152 C559 1.351 . S
C1147 C87 1.328 1_455 S
C1162 C563 1.471 . S
C1157 C163 1.442 . S
C1167 C182 1.435 1_554 S
C1172 C562 1.471 . S
C1182 C514 1.708 . S
C1177 C158 1.687 . S
C1192 C561 1.678 . S
C1187 C196 1.656 . S
C1197 C220 1.395 . S
C1202 C517 1.417 . S
C1207 C215 1.655 . S
C1212 C560 1.678 . S
C1222 C516 1.709 . S
C1217 C177 1.689 . S
C1232 C515 1.417 . S
C1227 C201 1.389 . S
C1242 C609 1.607 . S
C1237 C234 1.590 . S
C1252 C612 1.474 . S
C1247 C258 1.441 . S
C1257 C277 1.378 . S
C1262 C608 1.402 . S
C1272 C610 1.352 . S
C1267 C296 1.328 . S
C1282 C606 1.585 . S
C1277 C310 1.567 . S
C1287 C334 1.375 . S
C1292 C611 1.402 . S
C1297 C353 1.365 . S
C1302 C607 1.389 . S
C1312 C613 1.794 . S
C1307 C367 1.784 . S
C1322 C667 1.555 . S
C1317 C291 1.523 . S
C1327 C239 1.384 . S
C1332 C706 1.412 . S
C1342 C666 1.537 . S
C1337 C253 1.504 . S
C1352 C708 1.625 . S
C1347 C272 1.608 . S
C1362 C665 1.646 . S
C1357 C329 1.625 . S
C1367 C348 1.454 . S
C1372 C707 1.483 . S
C1382 C664 1.418 . S
C1377 C372 1.392 . S
C1392 C709 1.354 . S
C1387 C315 1.331 . S
C1402 C713 1.469 . S
C1397 C391 1.441 . S
C1407 C410 1.436 . S
C1412 C712 1.473 . S
C1422 C660 1.708 . S
C1417 C386 1.687 . S
C1427 C424 1.654 . S
C1432 C711 1.678 . S
C1442 C663 1.414 . S
C1437 C448 1.394 . S
C1452 C710 1.678 . S
C1447 C443 1.655 . S
C1462 C661 1.709 . S
C1457 C405 1.689 . S
C1467 C429 1.388 . S
C1472 C662 1.417 . S
