# Generated by pormake.
# Topology nom, (4,4)-cn, num edge types: 1
# Building blocks:
#     Node 0, Type 0, BuildingBlock: GIZVER_clean_linker_0, # of connection points: 4
#     Node 1, Type 0, BuildingBlock: GIZVER_clean_linker_0, # of connection points: 4
#     Node 2, Type 0, BuildingBlock: GIZVER_clean_linker_0, # of connection points: 4
#     Node 3, Type 0, BuildingBlock: GIZVER_clean_linker_0, # of connection points: 4
#     Node 4, Type 0, BuildingBlock: GIZVER_clean_linker_0, # of connection points: 4
#     Node 5, Type 0, BuildingBlock: GIZVER_clean_linker_0, # of connection points: 4
#     Node 6, Type 1, BuildingBlock: AZAVOO_clean_sbu_0, # of connection points: 4
#     Node 7, Type 1, BuildingBlock: AZAVOO_clean_sbu_0, # of connection points: 4
#     Node 8, Type 1, BuildingBlock: AZAVOO_clean_sbu_0, # of connection points: 4
#     Node 9, Type 1, BuildingBlock: AZAVOO_clean_sbu_0, # of connection points: 4
#     Node 10, Type 1, BuildingBlock: AZAVOO_clean_sbu_0, # of connection points: 4
#     Node 11, Type 1, BuildingBlock: AZAVOO_clean_sbu_0, # of connection points: 4
#     Edge 12, Type (0, 1), BuildingBlock: CIFDUS_clean_linker_0, # of connection points: 2
#     Edge 13, Type (0, 1), BuildingBlock: CIFDUS_clean_linker_0, # of connection points: 2
#     Edge 14, Type (0, 1), BuildingBlock: CIFDUS_clean_linker_0, # of connection points: 2
#     Edge 15, Type (0, 1), BuildingBlock: CIFDUS_clean_linker_0, # of connection points: 2
#     Edge 16, Type (0, 1), BuildingBlock: CIFDUS_clean_linker_0, # of connection points: 2
#     Edge 17, Type (0, 1), BuildingBlock: CIFDUS_clean_linker_0, # of connection points: 2
#     Edge 18, Type (0, 1), BuildingBlock: CIFDUS_clean_linker_0, # of connection points: 2
#     Edge 19, Type (0, 1), BuildingBlock: CIFDUS_clean_linker_0, # of connection points: 2
#     Edge 20, Type (0, 1), BuildingBlock: CIFDUS_clean_linker_0, # of connection points: 2
#     Edge 21, Type (0, 1), BuildingBlock: CIFDUS_clean_linker_0, # of connection points: 2
#     Edge 22, Type (0, 1), BuildingBlock: CIFDUS_clean_linker_0, # of connection points: 2
#     Edge 23, Type (0, 1), BuildingBlock: CIFDUS_clean_linker_0, # of connection points: 2
#     Edge 24, Type (0, 1), BuildingBlock: CIFDUS_clean_linker_0, # of connection points: 2
#     Edge 25, Type (0, 1), BuildingBlock: CIFDUS_clean_linker_0, # of connection points: 2
#     Edge 26, Type (0, 1), BuildingBlock: CIFDUS_clean_linker_0, # of connection points: 2
#     Edge 27, Type (0, 1), BuildingBlock: CIFDUS_clean_linker_0, # of connection points: 2
#     Edge 28, Type (0, 1), BuildingBlock: CIFDUS_clean_linker_0, # of connection points: 2
#     Edge 29, Type (0, 1), BuildingBlock: CIFDUS_clean_linker_0, # of connection points: 2
#     Edge 30, Type (0, 1), BuildingBlock: CIFDUS_clean_linker_0, # of connection points: 2
#     Edge 31, Type (0, 1), BuildingBlock: CIFDUS_clean_linker_0, # of connection points: 2
#     Edge 32, Type (0, 1), BuildingBlock: CIFDUS_clean_linker_0, # of connection points: 2
#     Edge 33, Type (0, 1), BuildingBlock: CIFDUS_clean_linker_0, # of connection points: 2
#     Edge 34, Type (0, 1), BuildingBlock: CIFDUS_clean_linker_0, # of connection points: 2
#     Edge 35, Type (0, 1), BuildingBlock: CIFDUS_clean_linker_0, # of connection points: 2
# Relax obj value: 0.032
# Max RMSD: 0.161
# Mean RMSD: 0.106
data_MOF--net-nom--node1-AZAVOO_clean_sbu_0--node2-GIZVER_clean_linker_0--edge1-CIFDUS_clean_linker_0
_symmetry_space_group_name_H-M    P1
_symmetry_Int_Tables_number       1
_symmetry_cell_setting            triclinic
loop_
_symmetry_equiv_pos_as_xyz
'x, y, z'
_cell_length_a     40.931948
_cell_length_b     41.170728
_cell_length_c     40.01484
_cell_angle_alpha  91.60628
_cell_angle_beta   92.214041
_cell_angle_gamma 119.77654
loop_
_atom_site_label
_atom_site_type_symbol
_atom_site_fract_x
_atom_site_fract_y
_atom_site_fract_z
_atom_type_partial_charge
H0 H 0.9473 0.56231 0.36967 0.0
H1 H 0.9863 0.56567 0.27079 0.0
H2 H 0.87677 0.4781 0.29316 0.0
H3 H 1.00093 0.6176 0.35437 0.0
H4 H 0.00774 0.62435 0.31095 0.0
H5 H 0.0367 0.59478 0.38809 0.0
H6 H 0.14165 0.61695 0.34978 0.0
H7 H 0.0549 0.61527 0.28382 0.0
C8 C 0.94331 0.5495 0.34471 0.0
C9 C 0.90873 0.51741 0.33462 0.0
C10 C 0.9716 0.56697 0.32191 0.0
C11 C 0.96548 0.55144 0.28896 0.0
C12 C 0.93165 0.51871 0.27893 0.0
C13 C 0.90385 0.50165 0.30196 0.0
C14 C 1.00517 0.60517 0.33102 0.0
C15 C 0.04149 0.60424 0.33522 0.0
C16 C 0.0541 0.59972 0.36696 0.0
C17 C 0.08988 0.60336 0.37181 0.0
C18 C 0.11315 0.61168 0.34491 0.0
C19 C 0.10127 0.61659 0.31294 0.0
C20 C 0.06476 0.61166 0.30819 0.0
H21 H 0.41976 0.9635 0.50506 0.0
H22 H 0.44926 0.99376 0.40391 0.0
H23 H 0.44523 0.89496 0.44039 0.0
H24 H 0.41248 0.01266 0.48244 0.0
H25 H 0.41395 0.01759 0.43829 0.0
H26 H 0.47724 0.04193 0.51703 0.0
H27 H 0.55452 0.15192 0.48566 0.0
H28 H 0.46213 0.07418 0.41866 0.0
C29 C 0.42949 0.95879 0.48158 0.0
C30 C 0.43131 0.92591 0.47578 0.0
C31 C 0.43716 0.98411 0.45602 0.0
C32 C 0.44622 0.97598 0.42441 0.0
C33 C 0.44808 0.9432 0.41859 0.0
C34 C 0.44311 0.91993 0.44498 0.0
C35 C 0.43016 0.01659 0.46083 0.0
C36 C 0.46653 0.05336 0.4667 0.0
C37 C 0.48708 0.06217 0.4978 0.0
C38 C 0.51864 0.09786 0.50488 0.0
C39 C 0.53043 0.12417 0.48011 0.0
C40 C 0.51025 0.11593 0.44904 0.0
C41 C 0.47831 0.0804 0.44238 0.0
H42 H 0.40322 0.44279 0.58157 0.0
H43 H 0.47455 0.47169 0.67197 0.0
H44 H 0.44451 0.55005 0.63343 0.0
H45 H 0.41068 0.39534 0.60735 0.0
H46 H 0.42547 0.40342 0.65083 0.0
H47 H 0.46312 0.42147 0.56484 0.0
H48 H 0.55694 0.40711 0.59367 0.0
H49 H 0.48265 0.40516 0.66792 0.0
C50 C 0.42093 0.4633 0.60133 0.0
C51 C 0.42257 0.49825 0.60372 0.0
C52 C 0.44006 0.45375 0.62566 0.0
C53 C 0.46142 0.47966 0.65226 0.0
C54 C 0.46373 0.51479 0.65471 0.0
C55 C 0.44503 0.5241 0.62997 0.0
C56 C 0.43403 0.4145 0.62568 0.0
C57 C 0.46936 0.41397 0.61741 0.0
C58 C 0.47999 0.41766 0.58422 0.0
C59 C 0.51202 0.41595 0.57591 0.0
C60 C 0.53335 0.41029 0.60082 0.0
C61 C 0.5229 0.40587 0.6341 0.0
C62 C 0.49106 0.40837 0.64233 0.0
H63 H 0.9565 0.43081 0.76152 0.0
H64 H 1.0001 0.48099 0.86047 0.0
H65 H 0.89107 0.46015 0.82427 0.0
H66 H 0.0099 0.42973 0.78547 0.0
H67 H 0.01656 0.43493 0.83007 0.0
H68 H 0.03597 0.49285 0.75429 0.0
H69 H 0.15045 0.56836 0.78947 0.0
H70 H 0.07626 0.48214 0.85199 0.0
C71 C 0.95378 0.44374 0.78441 0.0
C72 C 0.92051 0.44498 0.7891 0.0
C73 C 0.98252 0.45669 0.8101 0.0
C74 C 0.97862 0.47237 0.84019 0.0
C75 C 0.94595 0.47437 0.84513 0.0
C76 C 0.91745 0.46129 0.8193 0.0
C77 C 0.01478 0.44916 0.8074 0.0
C78 C 0.0515 0.48486 0.80423 0.0
C79 C 0.05799 0.50347 0.77428 0.0
C80 C 0.0935 0.53408 0.76916 0.0
C81 C 0.12233 0.54651 0.79457 0.0
C82 C 0.11673 0.52779 0.82443 0.0
C83 C 0.08082 0.49735 0.82938 0.0
H84 H 0.60428 0.07682 0.02824 0.0
H85 H 0.55582 0.03008 0.92929 0.0
H86 H 0.57326 0.13811 0.96105 0.0
H87 H 0.6067 0.02346 0.00706 0.0
H88 H 0.60093 0.01436 0.96263 0.0
H89 H 0.53971 1.00176 0.03531 0.0
H90 H 0.46542 0.88517 0.008 0.0
H91 H 0.55733 0.95116 0.94708 0.0
C92 C 0.59144 0.07852 0.00465 0.0
C93 C 0.58932 0.11091 -0.00173 0.0
C94 C 0.57926 0.04924 0.97989 0.0
C95 C 0.56375 0.05186 0.94889 0.0
C96 C 0.56072 0.08355 0.94237 0.0
C97 C 0.57293 0.11251 0.96729 0.0
C98 C 0.58694 0.0174 -0.01515 0.0
C99 C 0.55114 0.98118 -0.01052 0.0
C100 C 0.53051 0.9779 0.01772 0.0
C101 C 0.49915 0.94348 0.02414 0.0
C102 C 0.48865 0.91224 0.00227 0.0
C103 C 0.50972 0.91455 0.9748 0.0
C104 C 0.54048 0.94935 0.96794 0.0
H105 H 0.6342 0.56051 0.09626 0.0
H106 H 0.55212 0.55111 0.16542 0.0
H107 H 0.56897 0.4579 0.14453 0.0
H108 H 0.62463 0.61242 0.10462 0.0
H109 H 0.6223 0.61569 0.14874 0.0
H110 H 0.56564 0.59468 0.06696 0.0
H111 H 0.49658 0.63701 0.10508 0.0
H112 H 0.57537 0.62705 0.17202 0.0
C113 C 0.6112 0.54355 0.11176 0.0
C114 C 0.60322 0.50703 0.11809 0.0
C115 C 0.59199 0.55944 0.12794 0.0
C116 C 0.56475 0.53827 0.15065 0.0
C117 C 0.55585 0.50135 0.15627 0.0
C118 C 0.57431 0.48571 0.13897 0.0
C119 C 0.60528 0.60068 0.12529 0.0
C120 C 0.57324 0.6087 0.12025 0.0
C121 C 0.55622 0.60441 0.08797 0.0
C122 C 0.52892 0.6151 0.0825 0.0
C123 C 0.51726 0.62818 0.10956 0.0
C124 C 0.5335 0.63219 0.14193 0.0
C125 C 0.56182 0.62279 0.14721 0.0
Mg126 Mg 0.60611 0.38119 0.33899 0.0
O127 O 0.59607 0.40343 0.38847 0.0
O128 O 0.62622 0.46619 0.3883 0.0
Mg129 Mg 0.65237 0.48385 0.33815 0.0
C130 C 0.60606 0.4356 0.40239 0.0
C131 C 0.60553 0.30704 0.35634 0.0
O132 O 0.6374 0.32375 0.34138 0.0
O133 O 0.66765 0.4019 0.35681 0.0
O134 O 0.69364 0.46381 0.35305 0.0
O135 O 0.55388 0.37766 0.31502 0.0
O136 O 0.61062 0.4279 0.31677 0.0
C137 C 0.69624 0.43494 0.35947 0.0
C138 C 0.57504 0.41262 0.30905 0.0
O139 O 0.5864 0.32349 0.35952 0.0
Mg140 Mg 0.27457 0.6512 0.58624 0.0
O141 O 0.22873 0.62513 0.54331 0.0
O142 O 0.19074 0.56458 0.55265 0.0
Mg143 Mg 0.2093 0.55361 0.60369 0.0
C144 C 0.20062 0.59284 0.53481 0.0
C145 C 0.32818 0.73388 0.56871 0.0
O146 O 0.32842 0.73894 0.60131 0.0
O147 O 0.30322 0.61901 0.56739 0.0
O148 O 0.26379 0.56106 0.58244 0.0
O149 O 0.23944 0.66888 0.61407 0.0
O150 O 0.23655 0.61398 0.61803 0.0
C151 C 0.29439 0.58475 0.56993 0.0
C152 C 0.22361 0.63586 0.62587 0.0
O153 O 0.30969 0.70084 0.55526 0.0
Mg154 Mg 0.63844 0.25165 0.75067 0.0
O155 O 0.61783 0.21923 0.69984 0.0
O156 O 0.63787 0.17784 0.69598 0.0
Mg157 Mg 0.67208 0.18417 0.74473 0.0
C158 C 0.61986 0.19313 0.68378 0.0
C159 C 0.59141 0.29132 0.74446 0.0
O160 O 0.57384 0.26695 0.76704 0.0
O161 O 0.69824 0.2864 0.7333 0.0
O162 O 0.7173 0.24407 0.7336 0.0
O163 O 0.5877 0.20762 0.7742 0.0
O164 O 0.64099 0.20682 0.77134 0.0
C165 C 0.72375 0.27746 0.72982 0.0
C166 C 0.60681 0.1909 0.78025 0.0
O167 O 0.62071 0.29319 0.73271 0.0
Mg168 Mg 0.41592 0.64535 0.84715 0.0
O169 O 0.43089 0.62286 0.89381 0.0
O170 O 0.40119 0.56032 0.88729 0.0
Mg171 Mg 0.36739 0.54271 0.83696 0.0
C172 C 0.42316 0.59085 0.90422 0.0
C173 C 0.44535 0.73107 0.85619 0.0
O174 O 0.43816 0.72583 0.82359 0.0
O175 O 0.35681 0.62639 0.86458 0.0
O176 O 0.32873 0.56432 0.85519 0.0
O177 O 0.46463 0.6476 0.82138 0.0
O178 O 0.40736 0.5981 0.81962 0.0
C179 C 0.32774 0.59375 0.86446 0.0
C180 C 0.44197 0.61278 0.81209 0.0
O181 O 0.43916 0.7032 0.87333 0.0
Mg182 Mg 0.78164 0.39669 0.04041 0.0
O183 O 0.81793 0.41425 0.09027 0.0
O184 O 0.85475 0.38825 0.0881 0.0
Mg185 Mg 0.84629 0.35925 0.0366 0.0
C186 C 0.8429 0.40765 0.10339 0.0
C187 C 0.72901 0.42893 0.03875 0.0
O188 O 0.7391 0.43028 0.00781 0.0
O189 O 0.74594 0.33578 0.05583 0.0
O190 O 0.78673 0.31528 0.04896 0.0
O191 O 0.82465 0.44806 0.01699 0.0
O192 O 0.8247 0.39448 0.01658 0.0
C193 C 0.75409 0.30952 0.05577 0.0
C194 C 0.84066 0.42892 0.00875 0.0
O195 O 0.74137 0.41492 0.06039 0.0
Mg196 Mg 0.36756 0.75655 0.18976 0.0
O197 O 0.38965 0.79534 0.23725 0.0
O198 O 0.44947 0.83963 0.23159 0.0
Mg199 Mg 0.46609 0.82842 0.18051 0.0
C200 C 0.42001 0.82462 0.24833 0.0
C201 C 0.28418 0.71066 0.20773 0.0
O202 O 0.28198 0.73128 0.18426 0.0
O203 O 0.40125 0.72817 0.20477 0.0
O204 O 0.46015 0.77226 0.19583 0.0
O205 O 0.34972 0.79446 0.16622 0.0
O206 O 0.40618 0.80027 0.16304 0.0
C207 C 0.43641 0.73926 0.20399 0.0
C208 C 0.38377 0.81311 0.15669 0.0
O209 O 0.31608 0.71402 0.21597 0.0
H210 H 0.15839 0.60212 0.30026 0.0
H211 H 0.10718 0.66604 0.26561 0.0
H212 H 0.15702 0.6973 0.22748 0.0
H213 H 0.2187 0.71196 0.20843 0.0
H214 H 0.27403 0.65391 0.24769 0.0
H215 H 0.21965 0.61587 0.28028 0.0
C216 C 0.15808 0.62299 0.28453 0.0
C217 C 0.12884 0.63162 0.28625 0.0
C218 C 0.18804 0.64253 0.26384 0.0
C219 C 0.12866 0.65805 0.26474 0.0
C220 C 0.15757 0.67649 0.24313 0.0
C221 C 0.21875 0.69073 0.22385 0.0
C222 C 0.25044 0.68589 0.22576 0.0
C223 C 0.18789 0.6697 0.24315 0.0
C224 C 0.25009 0.65838 0.24599 0.0
C225 C 0.21898 0.63658 0.26457 0.0
H226 H 0.57927 0.16134 0.42629 0.0
H227 H 0.46457 0.13918 0.42031 0.0
H228 H 0.48366 0.19608 0.38994 0.0
H229 H 0.53403 0.25491 0.36948 0.0
H230 H 0.64854 0.27619 0.37434 0.0
H231 H 0.62857 0.21699 0.40088 0.0
C232 C 0.55844 0.16877 0.41785 0.0
C233 C 0.52065 0.1463 0.42556 0.0
C234 C 0.56968 0.2016 0.40067 0.0
C235 C 0.49377 0.15593 0.41436 0.0
C236 C 0.50475 0.18863 0.39732 0.0
C237 C 0.55455 0.24647 0.37623 0.0
C238 C 0.59277 0.27009 0.3704 0.0
C239 C 0.54278 0.21215 0.39108 0.0
C240 C 0.61897 0.25854 0.37871 0.0
C241 C 0.60759 0.22472 0.3939 0.0
H242 H 0.4354 0.56362 0.57679 0.0
H243 H 0.34807 0.44924 0.58727 0.0
H244 H 0.30016 0.4652 0.57082 0.0
H245 H 0.28267 0.5137 0.56522 0.0
H246 H 0.36947 0.6292 0.55927 0.0
H247 H 0.4177 0.61073 0.56201 0.0
C248 C 0.4059 0.54202 0.57477 0.0
C249 C 0.39544 0.50544 0.58391 0.0
C250 C 0.37824 0.55177 0.5668 0.0
C251 C 0.35715 0.4776 0.58037 0.0
C252 C 0.32957 0.48683 0.57139 0.0
C253 C 0.31207 0.53482 0.56383 0.0
C254 C 0.32242 0.57291 0.5629 0.0
C255 C 0.33972 0.52417 0.56638 0.0
C256 C 0.36063 0.59972 0.56038 0.0
C257 C 0.38831 0.58921 0.56213 0.0
H258 H 0.89679 0.37708 0.7569 0.0
H259 H 0.86609 0.4627 0.7703 0.0
H260 H 0.8022 0.41901 0.7474 0.0
H261 H 0.75278 0.35352 0.73374 0.0
H262 H 0.78468 0.2687 0.72027 0.0
H263 H 0.85065 0.31563 0.7318 0.0
C264 C 0.87676 0.38688 0.75366 0.0
C265 C 0.88614 0.42296 0.7662 0.0
C266 C 0.83999 0.36154 0.74079 0.0
C267 C 0.8594 0.43476 0.76175 0.0
C268 C 0.82281 0.40978 0.74864 0.0
C269 C 0.7742 0.34542 0.7324 0.0
C270 C 0.76351 0.30735 0.72714 0.0
C271 C 0.81229 0.37252 0.7397 0.0
C272 C 0.79185 0.29761 0.72498 0.0
C273 C 0.82971 0.32444 0.73169 0.0
H274 H 0.4976 0.89785 0.9072 0.0
H275 H 0.50418 0.85254 0.00146 0.0
H276 H 0.48592 0.79224 0.97312 0.0
H277 H 0.4653 0.75145 0.92218 0.0
H278 H 0.45765 0.7955 0.82742 0.0
H279 H 0.47912 0.85701 0.85519 0.0
C280 C 0.49538 0.87481 0.92133 0.0
C281 C 0.5018 0.87943 0.95634 0.0
C282 C 0.48442 0.83989 0.90485 0.0
C283 C 0.49882 0.84941 0.9745 0.0
C284 C 0.48844 0.81495 0.95834 0.0
C285 C 0.46841 0.77448 0.90752 0.0
C286 C 0.45965 0.76873 0.8728 0.0
C287 C 0.48061 0.80969 0.92362 0.0
C288 C 0.46408 0.79905 0.85423 0.0
C289 C 0.47637 0.83429 0.87009 0.0
H290 H 0.62622 0.50277 0.0555 0.0
H291 H 0.63741 0.47982 0.15852 0.0
H292 H 0.67668 0.45327 0.14328 0.0
H293 H 0.70727 0.43565 0.1008 0.0
H294 H 0.69668 0.45829 -0.0025 0.0
H295 H 0.65792 0.48563 0.01265 0.0
C296 C 0.6375 0.49212 0.0745 0.0
C297 C 0.62858 0.49284 0.10796 0.0
C298 C 0.66005 0.47662 0.06554 0.0
C299 C 0.64337 0.47898 0.13246 0.0
C300 C 0.66592 0.46388 0.12382 0.0
C301 C 0.69643 0.44647 0.08157 0.0
C302 C 0.70485 0.44479 0.04809 0.0
C303 C 0.67422 0.46226 0.09042 0.0
C304 C 0.69064 0.45914 0.02352 0.0
C305 C 0.66848 0.47487 0.03214 0.0
H306 H 0.38647 0.85239 0.45858 0.0
H307 H 0.43881 0.92919 0.54496 0.0
H308 H 0.41157 0.87634 0.58171 0.0
H309 H 0.37311 0.80795 0.58871 0.0
H310 H 0.32423 0.73269 0.50073 0.0
H311 H 0.35119 0.78556 0.46505 0.0
C312 C 0.39279 0.85775 0.48541 0.0
C313 C 0.41534 0.89472 0.49894 0.0
C314 C 0.37781 0.82747 0.50605 0.0
C315 C 0.42166 0.90102 0.53389 0.0
C316 C 0.40624 0.8708 0.55485 0.0
C317 C 0.36854 0.80315 0.56173 0.0
C318 C 0.3466 0.76633 0.54746 0.0
C319 C 0.38433 0.83384 0.54114 0.0
C320 C 0.341 0.76061 0.51244 0.0
C321 C 0.35631 0.79086 0.49197 0.0
H322 H 0.49226 0.35376 0.68086 0.0
H323 H 0.5989 0.43205 0.64241 0.0
H324 H 0.63014 0.4045 0.67441 0.0
H325 H 0.62588 0.35407 0.70893 0.0
H326 H 0.51955 0.2776 0.74893 0.0
H327 H 0.48973 0.30904 0.7212 0.0
C328 C 0.52251 0.36558 0.68017 0.0
C329 C 0.54302 0.39453 0.65877 0.0
C330 C 0.54035 0.34964 0.69865 0.0
C331 C 0.58222 0.4092 0.65809 0.0
C332 C 0.60016 0.39349 0.67641 0.0
C333 C 0.59628 0.34455 0.7118 0.0
C334 C 0.57487 0.31322 0.73053 0.0
C335 C 0.57927 0.36292 0.69594 0.0
C336 C 0.53668 0.30154 0.7345 0.0
C337 C 0.51953 0.31946 0.7186 0.0
H338 H 0.17696 0.59581 0.84528 0.0
H339 H 0.13272 0.47684 0.85163 0.0
H340 H 0.19448 0.48805 0.87181 0.0
H341 H 0.26282 0.53004 0.87567 0.0
H342 H 0.30832 0.64865 0.8652 0.0
H343 H 0.24457 0.63923 0.85896 0.0
C344 C 0.1807 0.57243 0.85184 0.0
C345 C 0.15035 0.53552 0.84629 0.0
C346 C 0.21679 0.57895 0.86204 0.0
C347 C 0.15541 0.50555 0.85563 0.0
C348 C 0.19095 0.5119 0.86678 0.0
C349 C 0.25885 0.554 0.87277 0.0
C350 C 0.29035 0.58985 0.87002 0.0
C351 C 0.22216 0.54825 0.86823 0.0
C352 C 0.28465 0.62066 0.86703 0.0
C353 C 0.24814 0.61527 0.86323 0.0
H354 H 0.6571 0.13688 0.03284 0.0
H355 H 0.5695 0.1644 0.01304 0.0
H356 H 0.61193 0.22878 0.0345 0.0
H357 H 0.67734 0.27941 0.0489 0.0
H358 H 0.76381 0.25036 0.06912 0.0
H359 H 0.71786 0.18427 0.05866 0.0
C360 C 0.64655 0.15635 0.03435 0.0
C361 C 0.61035 0.14585 0.02039 0.0
C362 C 0.67115 0.19339 0.04648 0.0
C363 C 0.5976 0.17191 0.02266 0.0
C364 C 0.62187 0.20881 0.03496 0.0
C365 C 0.6859 0.25857 0.05201 0.0
C366 C 0.72422 0.27001 0.05888 0.0
C367 C 0.65933 0.22032 0.04535 0.0
C368 C 0.73467 0.24249 0.06312 0.0
C369 C 0.70842 0.20458 0.05706 0.0
H370 H 0.46467 0.60872 0.16531 0.0
H371 H 0.57987 0.6987 0.17571 0.0
H372 H 0.55996 0.73939 0.20307 0.0
H373 H 0.5086 0.75272 0.21219 0.0
H374 H 0.39303 0.66282 0.19997 0.0
H375 H 0.41424 0.61855 0.18612 0.0
C376 C 0.48545 0.63679 0.17483 0.0
C377 C 0.52354 0.65096 0.16836 0.0
C378 C 0.47362 0.66022 0.18963 0.0
C379 C 0.55041 0.68727 0.18062 0.0
C380 C 0.53894 0.71063 0.19587 0.0
C381 C 0.48805 0.72326 0.2074 0.0
C382 C 0.44925 0.71138 0.20618 0.0
C383 C 0.50043 0.69801 0.19873 0.0
C384 C 0.42305 0.67294 0.20067 0.0
C385 C 0.43516 0.64756 0.19249 0.0
H386 H 0.85195 0.44573 0.34258 0.0
H387 H 0.8888 0.56135 0.37092 0.0
H388 H 0.82616 0.54374 0.38814 0.0
H389 H 0.7587 0.49851 0.38316 0.0
H390 H 0.71993 0.38377 0.35023 0.0
H391 H 0.78522 0.39794 0.34691 0.0
C392 C 0.84644 0.46694 0.35318 0.0
C393 C 0.87499 0.50493 0.35468 0.0
C394 C 0.80968 0.4569 0.36151 0.0
C395 C 0.86763 0.53191 0.36939 0.0
C396 C 0.83152 0.52194 0.37885 0.0
C397 C 0.76452 0.47637 0.37594 0.0
C398 C 0.73453 0.44041 0.3661 0.0
C399 C 0.80196 0.48496 0.37314 0.0
C400 C 0.7425 0.41181 0.3576 0.0
C401 C 0.77985 0.41997 0.35548 0.0
H402 H 0.10908 0.55366 0.39506 0.0
H403 H 0.10697 0.6543 0.42323 0.0
H404 H 0.14202 0.66058 0.47633 0.0
H405 H 0.17608 0.639 0.51331 0.0
H406 H 0.17414 0.53576 0.48725 0.0
H407 H 0.13791 0.52872 0.43465 0.0
C408 C 0.11582 0.57651 0.41321 0.0
C409 C 0.10553 0.60343 0.40563 0.0
C410 C 0.13559 0.57965 0.44371 0.0
C411 C 0.11437 0.63311 0.42897 0.0
C412 C 0.13463 0.63684 0.4591 0.0
C413 C 0.16766 0.61502 0.49602 0.0
C414 C 0.1781 0.58821 0.50364 0.0
C415 C 0.14591 0.61062 0.46647 0.0
C416 C 0.16647 0.55679 0.48161 0.0
C417 C 0.14581 0.55277 0.45163 0.0
H418 H 0.53494 0.16065 0.54147 0.0
H419 H 0.54355 0.06058 0.54483 0.0
H420 H 0.57613 0.08138 0.60062 0.0
H421 H 0.60288 0.12871 0.6479 0.0
H422 H 0.59266 0.22809 0.64401 0.0
H423 H 0.56031 0.20698 0.58868 0.0
C424 C 0.54423 0.14353 0.55432 0.0
C425 C 0.53735 0.1094 0.53899 0.0
C426 C 0.56271 0.15559 0.58617 0.0
C427 C 0.54861 0.08699 0.5562 0.0
C428 C 0.56733 0.09895 0.58797 0.0
C429 C 0.5937 0.14582 0.6349 0.0
C430 C 0.60038 0.18004 0.65009 0.0
C431 C 0.5747 0.13333 0.60312 0.0
C432 C 0.5879 0.20164 0.633 0.0
C433 C 0.5694 0.18962 0.60132 0.0
H434 H 0.44442 0.49245 0.71698 0.0
H435 H 0.51215 0.59037 0.66241 0.0
H436 H 0.51754 0.6309 0.71074 0.0
H437 H 0.49169 0.63752 0.76351 0.0
H438 H 0.41971 0.53882 0.81547 0.0
H439 H 0.42761 0.49952 0.77357 0.0
C440 C 0.46167 0.52265 0.71618 0.0
C441 C 0.47768 0.53849 0.68623 0.0
C442 C 0.46305 0.54559 0.74338 0.0
C443 C 0.49949 0.57766 0.68528 0.0
C444 C 0.50227 0.60078 0.71277 0.0
C445 C 0.47869 0.60753 0.76609 0.0
C446 C 0.45435 0.59087 0.79192 0.0
C447 C 0.48243 0.58499 0.74124 0.0
C448 C 0.4376 0.55206 0.79516 0.0
C449 C 0.44226 0.52961 0.77129 0.0
H450 H 0.95328 0.44482 0.90228 0.0
H451 H 0.91755 0.51957 0.86344 0.0
H452 H 0.88719 0.51774 0.91542 0.0
H453 H 0.86084 0.48515 0.96659 0.0
H454 H 0.89267 0.40636 0.00253 0.0
H455 H 0.93529 0.42015 0.95747 0.0
C456 C 0.9401 0.46185 0.90569 0.0
C457 C 0.93737 0.48209 0.87908 0.0
C458 C 0.92147 0.45939 0.93495 0.0
C459 C 0.91971 0.50358 0.88361 0.0
C460 C 0.90221 0.50236 0.91321 0.0
C461 C 0.87796 0.47185 0.96511 0.0
C462 C 0.87307 0.44421 -0.01258 0.0
C463 C 0.90133 0.47887 0.93832 0.0
C464 C 0.89534 0.42714 -0.01475 0.0
C465 C 0.91973 0.43502 0.95946 0.0
H466 H 0.42453 0.91061 0.03423 0.0
H467 H 0.53419 0.96075 0.08625 0.0
H468 H 0.5057 0.92932 0.13678 0.0
H469 H 0.45197 0.87619 0.16053 0.0
H470 H 0.34275 0.82334 0.10758 0.0
H471 H 0.36827 0.86768 0.06335 0.0
C472 C 0.44189 0.9157 0.05711 0.0
C473 C 0.48132 0.93724 0.0565 0.0
C474 C 0.42543 0.89638 0.08559 0.0
C475 C 0.50374 0.94419 0.08619 0.0
C476 C 0.4875 0.9258 0.11494 0.0
C477 C 0.43369 0.87498 0.13964 0.0
C478 C 0.39599 0.84603 0.13654 0.0
C479 C 0.44876 0.89997 0.1141 0.0
C480 C 0.37203 0.84532 0.11015 0.0
C481 C 0.38668 0.87046 0.08477 0.0
H482 H 0.57191 0.52967 0.21982 0.0
H483 H 0.49756 0.42949 0.15927 0.0
H484 H 0.4894 0.39137 0.20735 0.0
H485 H 0.51881 0.38626 0.26038 0.0
H486 H 0.59775 0.48676 0.31848 0.0
H487 H 0.58852 0.52507 0.27806 0.0
C488 C 0.55232 0.49971 0.21763 0.0
C489 C 0.53604 0.48222 0.18602 0.0
C490 C 0.54979 0.47793 0.24475 0.0
C491 C 0.51068 0.44341 0.18342 0.0
C492 C 0.50651 0.42159 0.21078 0.0
C493 C 0.53285 0.41646 0.26475 0.0
C494 C 0.56006 0.43387 0.29151 0.0
C495 C 0.52833 0.43837 0.24072 0.0
C496 C 0.57787 0.47291 0.29723 0.0
C497 C 0.57243 0.49482 0.27421 0.0
H498 H 0.3971 0.87617 0.3907 0.0
H499 H 0.49806 0.97776 0.36978 0.0
H500 H 0.49857 0.94975 0.31477 0.0
H501 H 0.47097 0.89517 0.27384 0.0
H502 H 0.36965 0.79413 0.29641 0.0
H503 H 0.36898 0.82306 0.35005 0.0
C504 C 0.41932 0.89216 0.37411 0.0
C505 C 0.44786 0.92868 0.38429 0.0
C506 C 0.4195 0.87585 0.34309 0.0
C507 C 0.47594 0.94953 0.36238 0.0
C508 C 0.47629 0.93343 0.33112 0.0
C509 C 0.44885 0.87941 0.29058 0.0
C510 C 0.42051 0.84237 0.28116 0.0
C511 C 0.44842 0.89639 0.32142 0.0
C512 C 0.39179 0.82258 0.30296 0.0
C513 C 0.39135 0.83911 0.33365 0.0
H514 H 0.57811 0.46458 0.55104 0.0
H515 H 0.46878 0.36956 0.52313 0.0
H516 H 0.48849 0.36658 0.46658 0.0
H517 H 0.53805 0.38954 0.42609 0.0
H518 H 0.64609 0.48701 0.45316 0.0
H519 H 0.62591 0.49055 0.50925 0.0
C520 C 0.5586 0.44357 0.53234 0.0
C521 C 0.52221 0.4173 0.54089 0.0
C522 C 0.57006 0.44226 0.50004 0.0
C523 C 0.49687 0.39019 0.51673 0.0
C524 C 0.50822 0.38833 0.48461 0.0
C525 C 0.55709 0.41144 0.44438 0.0
C526 C 0.59357 0.43769 0.43591 0.0
C527 C 0.54494 0.41388 0.47617 0.0
C528 C 0.61789 0.46647 0.45937 0.0
C529 C 0.60639 0.4685 0.49135 0.0
H530 H 0.13064 0.60668 0.7524 0.0
H531 H 0.08024 0.49316 0.71077 0.0
H532 H 0.11266 0.51565 0.65935 0.0
H533 H 0.16393 0.56638 0.63103 0.0
H534 H 0.21562 0.67987 0.67279 0.0
H535 H 0.1738 0.65883 0.71917 0.0
C536 C 0.12599 0.58708 0.73162 0.0
C537 C 0.10354 0.54839 0.73542 0.0
C538 C 0.14549 0.60014 0.70248 0.0
C539 C 0.0973 0.52311 0.70834 0.0
C540 C 0.11619 0.5359 0.6791 0.0
C541 C 0.16566 0.58649 0.65007 0.0
C542 C 0.19334 0.62434 0.64917 0.0
C543 C 0.14177 0.57415 0.67665 0.0
C544 C 0.19461 0.65046 0.67325 0.0
C545 C 0.17087 0.63843 0.69983 0.0
H546 H 0.59381 0.07907 0.88691 0.0
H547 H 0.51143 0.10639 0.92133 0.0
H548 H 0.51292 0.13634 0.86899 0.0
H549 H 0.54727 0.16548 0.81941 0.0
H550 H 0.63411 0.14288 0.78824 0.0
H551 H 0.62067 0.09963 0.83276 0.0
C552 C 0.5751 0.09027 0.88236 0.0
C553 C 0.55272 0.09081 0.90786 0.0
C554 C 0.57747 0.1089 0.85299 0.0
C555 C 0.52899 0.10588 0.90197 0.0
C556 C 0.53007 0.12321 0.87219 0.0
C557 C 0.56249 0.15026 0.82176 0.0
C558 C 0.59213 0.15793 0.80094 0.0
C559 C 0.55568 0.1266 0.84835 0.0
C560 C 0.61156 0.13795 0.80422 0.0
C561 C 0.60395 0.11325 0.82978 0.0
H562 H 0.48686 0.55688 0.03741 0.0
H563 H 0.53909 0.67682 0.05219 0.0
H564 H 0.51146 0.6802 -0.00196 0.0
H565 H 0.47057 0.6489 0.94772 0.0
H566 H 0.41629 0.52845 0.93328 0.0
H567 H 0.44629 0.52538 -0.01397 0.0
C568 C 0.49243 0.58366 0.0284 0.0
C569 C 0.51493 0.61656 0.04839 0.0
C570 C 0.47577 0.58528 -0.00244 0.0
C571 C 0.52179 0.6512 0.03695 0.0
C572 C 0.50593 0.65312 0.00613 0.0
C573 C 0.46525 0.62193 0.95602 0.0
C574 C 0.44106 0.589 0.93651 0.0
C575 C 0.48248 0.62029 -0.01357 0.0
C576 C 0.43464 0.55432 0.94779 0.0
C577 C 0.45188 0.55249 0.97796 0.0
H578 H 0.90754 0.44834 0.25346 0.0
H579 H 0.93277 0.55832 0.22534 0.0
H580 H 0.90625 0.53348 0.16837 0.0
H581 H 0.87246 0.47946 0.12744 0.0
H582 H 0.85096 0.37036 0.15472 0.0
H583 H 0.87889 0.39554 0.21128 0.0
C584 C 0.90774 0.46686 0.2346 0.0
C585 C 0.9221 0.50502 0.24337 0.0
C586 C 0.89246 0.45238 0.20203 0.0
C587 C 0.92229 0.52891 0.21892 0.0
C588 C 0.90674 0.51465 0.18651 0.0
C589 C 0.87384 0.46134 0.14593 0.0
C590 C 0.85921 0.42311 0.1374 0.0
C591 C 0.89108 0.47629 0.17797 0.0
C592 C 0.86184 0.39986 0.16105 0.0
C593 C 0.87787 0.41424 0.19327 0.0
loop_
_geom_bond_atom_site_label_1
_geom_bond_atom_site_label_2
_geom_bond_distance
_geom_bond_site_symmetry_2
_ccdc_geom_bond_type
H0 C8 0.930 . S
H1 C11 0.930 . S
H2 C13 0.930 . S
H3 C14 0.970 1_655 S
H4 C14 0.970 . S
H5 C16 0.930 . S
H6 C18 0.930 . S
H7 C20 0.930 . S
C8 H0 0.930 . S
C8 C9 1.382 . S
C8 C10 1.426 . S
C9 C8 1.382 . S
C9 C13 1.389 . S
C10 C8 1.426 . S
C10 C11 1.375 . S
C10 C14 1.532 1_655 S
C11 H1 0.930 . S
C11 C10 1.375 . S
C11 C12 1.416 . S
C12 C11 1.416 . S
C12 C13 1.371 . S
C13 H2 0.930 . S
C13 C9 1.389 . S
C13 C12 1.371 . S
C14 H3 0.970 1_455 S
C14 H4 0.970 . S
C14 C10 1.532 1_455 S
C14 C15 1.499 . S
C15 C14 1.499 . S
C15 C16 1.370 . S
C15 C20 1.415 . S
C16 H5 0.930 . S
C16 C15 1.370 . S
C16 C17 1.407 . S
C17 C16 1.407 . S
C17 C18 1.365 . S
C18 H6 0.930 . S
C18 C17 1.365 . S
C18 C19 1.393 . S
C19 C18 1.393 . S
C19 C20 1.387 . S
C20 H7 0.930 . S
C20 C15 1.415 . S
C20 C19 1.387 . S
H21 C29 0.930 . S
H22 C32 0.930 . S
H23 C34 0.930 . S
H24 C35 0.970 . S
H25 C35 0.970 . S
H26 C37 0.930 . S
H27 C39 0.930 . S
H28 C41 0.930 . S
C29 H21 0.930 . S
C29 C30 1.382 . S
C29 C31 1.426 . S
C30 C29 1.382 . S
C30 C34 1.389 . S
C31 C29 1.426 . S
C31 C32 1.375 . S
C31 C35 1.532 1_565 S
C32 H22 0.930 . S
C32 C31 1.375 . S
C32 C33 1.416 . S
C33 C32 1.416 . S
C33 C34 1.371 . S
C34 H23 0.930 . S
C34 C30 1.389 . S
C34 C33 1.371 . S
C35 H24 0.970 . S
C35 H25 0.970 . S
C35 C31 1.532 1_545 S
C35 C36 1.499 . S
C36 C35 1.499 . S
C36 C37 1.370 . S
C36 C41 1.415 . S
C37 H26 0.930 . S
C37 C36 1.370 . S
C37 C38 1.407 . S
C38 C37 1.407 . S
C38 C39 1.365 . S
C39 H27 0.930 . S
C39 C38 1.365 . S
C39 C40 1.393 . S
C40 C39 1.393 . S
C40 C41 1.387 . S
C41 H28 0.930 . S
C41 C36 1.415 . S
C41 C40 1.387 . S
H42 C50 0.930 . S
H43 C53 0.930 . S
H44 C55 0.930 . S
H45 C56 0.970 . S
H46 C56 0.970 . S
H47 C58 0.930 . S
H48 C60 0.930 . S
H49 C62 0.930 . S
C50 H42 0.930 . S
C50 C51 1.382 . S
C50 C52 1.426 . S
C51 C50 1.382 . S
C51 C55 1.389 . S
C52 C50 1.426 . S
C52 C53 1.375 . S
C52 C56 1.532 . S
C53 H43 0.930 . S
C53 C52 1.375 . S
C53 C54 1.416 . S
C54 C53 1.416 . S
C54 C55 1.371 . S
C55 H44 0.930 . S
C55 C51 1.389 . S
C55 C54 1.371 . S
C56 H45 0.970 . S
C56 H46 0.970 . S
C56 C52 1.532 . S
C56 C57 1.499 . S
C57 C56 1.499 . S
C57 C58 1.370 . S
C57 C62 1.415 . S
C58 H47 0.930 . S
C58 C57 1.370 . S
C58 C59 1.407 . S
C59 C58 1.407 . S
C59 C60 1.365 . S
C60 H48 0.930 . S
C60 C59 1.365 . S
C60 C61 1.393 . S
C61 C60 1.393 . S
C61 C62 1.387 . S
C62 H49 0.930 . S
C62 C57 1.415 . S
C62 C61 1.387 . S
H63 C71 0.930 . S
H64 C74 0.930 . S
H65 C76 0.930 . S
H66 C77 0.970 . S
H67 C77 0.970 . S
H68 C79 0.930 . S
H69 C81 0.930 . S
H70 C83 0.930 . S
C71 H63 0.930 . S
C71 C72 1.382 . S
C71 C73 1.426 . S
C72 C71 1.382 . S
C72 C76 1.389 . S
C73 C71 1.426 . S
C73 C74 1.375 . S
C73 C77 1.532 1_655 S
C74 H64 0.930 . S
C74 C73 1.375 . S
C74 C75 1.416 . S
C75 C74 1.416 . S
C75 C76 1.371 . S
C76 H65 0.930 . S
C76 C72 1.389 . S
C76 C75 1.371 . S
C77 H66 0.970 . S
C77 H67 0.970 . S
C77 C73 1.532 1_455 S
C77 C78 1.499 . S
C78 C77 1.499 . S
C78 C79 1.370 . S
C78 C83 1.415 . S
C79 H68 0.930 . S
C79 C78 1.370 . S
C79 C80 1.407 . S
C80 C79 1.407 . S
C80 C81 1.365 . S
C81 H69 0.930 . S
C81 C80 1.365 . S
C81 C82 1.393 . S
C82 C81 1.393 . S
C82 C83 1.387 . S
C83 H70 0.930 . S
C83 C78 1.415 . S
C83 C82 1.387 . S
H84 C92 0.930 . S
H85 C95 0.930 . S
H86 C97 0.930 . S
H87 C98 0.970 1_554 S
H88 C98 0.970 . S
H89 C100 0.930 . S
H90 C102 0.930 . S
H91 C104 0.930 . S
C92 H84 0.930 . S
C92 C93 1.382 1_554 S
C92 C94 1.426 1_554 S
C93 C92 1.382 1_556 S
C93 C97 1.389 . S
C94 C92 1.426 1_556 S
C94 C95 1.375 . S
C94 C98 1.532 . S
C95 H85 0.930 . S
C95 C94 1.375 . S
C95 C96 1.416 . S
C96 C95 1.416 . S
C96 C97 1.371 . S
C97 H86 0.930 . S
C97 C93 1.389 . S
C97 C96 1.371 . S
C98 H87 0.970 1_556 S
C98 H88 0.970 . S
C98 C94 1.532 . S
C98 C99 1.499 1_545 S
C99 C98 1.499 1_565 S
C99 C100 1.370 1_556 S
C99 C104 1.415 . S
C100 H89 0.930 . S
C100 C99 1.370 1_554 S
C100 C101 1.407 . S
C101 C100 1.407 . S
C101 C102 1.365 . S
C102 H90 0.930 . S
C102 C101 1.365 . S
C102 C103 1.393 1_554 S
C103 C102 1.393 1_556 S
C103 C104 1.387 . S
C104 H91 0.930 . S
C104 C99 1.415 . S
C104 C103 1.387 . S
H105 C113 0.930 . S
H106 C116 0.930 . S
H107 C118 0.930 . S
H108 C119 0.970 . S
H109 C119 0.970 . S
H110 C121 0.930 . S
H111 C123 0.930 . S
H112 C125 0.930 . S
C113 H105 0.930 . S
C113 C114 1.382 . S
C113 C115 1.426 . S
C114 C113 1.382 . S
C114 C118 1.389 . S
C115 C113 1.426 . S
C115 C116 1.375 . S
C115 C119 1.532 . S
C116 H106 0.930 . S
C116 C115 1.375 . S
C116 C117 1.416 . S
C117 C116 1.416 . S
C117 C118 1.371 . S
C118 H107 0.930 . S
C118 C114 1.389 . S
C118 C117 1.371 . S
C119 H108 0.970 . S
C119 H109 0.970 . S
C119 C115 1.532 . S
C119 C120 1.499 . S
C120 C119 1.499 . S
C120 C121 1.370 . S
C120 C125 1.415 . S
C121 H110 0.930 . S
C121 C120 1.370 . S
C121 C122 1.407 . S
C122 C121 1.407 . S
C122 C123 1.365 . S
C123 H111 0.930 . S
C123 C122 1.365 . S
C123 C124 1.393 . S
C124 C123 1.393 . S
C124 C125 1.387 . S
C125 H112 0.930 . S
C125 C120 1.415 . S
C125 C124 1.387 . S
Mg126 O127 2.028 . S
Mg126 O133 1.986 . S
Mg126 O135 2.114 . S
Mg126 O136 2.251 . S
Mg126 O139 2.010 . S
O127 Mg126 2.028 . S
O127 C130 1.250 . S
O128 Mg129 2.028 . S
O128 C130 1.248 . S
Mg129 O128 2.028 . S
Mg129 O134 2.032 . S
Mg129 O136 2.079 . S
C130 O127 1.250 . S
C130 O128 1.248 . S
C131 O132 1.264 . S
C131 O139 1.249 . S
O132 C131 1.264 . S
O133 Mg126 1.986 . S
O133 C137 1.246 . S
O134 Mg129 2.032 . S
O134 C137 1.259 . S
O135 Mg126 2.114 . S
O135 C138 1.252 . S
O136 Mg126 2.251 . S
O136 Mg129 2.079 . S
O136 C138 1.273 . S
C137 O133 1.246 . S
C137 O134 1.259 . S
C138 O135 1.252 . S
C138 O136 1.273 . S
O139 Mg126 2.010 . S
O139 C131 1.249 . S
Mg140 O141 2.028 . S
Mg140 O147 1.986 . S
Mg140 O149 2.114 . S
Mg140 O150 2.251 . S
Mg140 O153 2.010 . S
O141 Mg140 2.028 . S
O141 C144 1.250 . S
O142 Mg143 2.028 . S
O142 C144 1.248 . S
Mg143 O142 2.028 . S
Mg143 O148 2.032 . S
Mg143 O150 2.079 . S
C144 O141 1.250 . S
C144 O142 1.248 . S
C145 O146 1.264 . S
C145 O153 1.249 . S
O146 C145 1.264 . S
O147 Mg140 1.986 . S
O147 C151 1.246 . S
O148 Mg143 2.032 . S
O148 C151 1.259 . S
O149 Mg140 2.114 . S
O149 C152 1.252 . S
O150 Mg140 2.251 . S
O150 Mg143 2.079 . S
O150 C152 1.273 . S
C151 O147 1.246 . S
C151 O148 1.259 . S
C152 O149 1.252 . S
C152 O150 1.273 . S
O153 Mg140 2.010 . S
O153 C145 1.249 . S
Mg154 O155 2.028 . S
Mg154 O161 1.986 . S
Mg154 O163 2.114 . S
Mg154 O164 2.251 . S
Mg154 O167 2.010 . S
O155 Mg154 2.028 . S
O155 C158 1.250 . S
O156 Mg157 2.028 . S
O156 C158 1.248 . S
Mg157 O156 2.028 . S
Mg157 O162 2.032 . S
Mg157 O164 2.079 . S
C158 O155 1.250 . S
C158 O156 1.248 . S
C159 O160 1.264 . S
C159 O167 1.249 . S
O160 C159 1.264 . S
O161 Mg154 1.986 . S
O161 C165 1.246 . S
O162 Mg157 2.032 . S
O162 C165 1.259 . S
O163 Mg154 2.114 . S
O163 C166 1.252 . S
O164 Mg154 2.251 . S
O164 Mg157 2.079 . S
O164 C166 1.273 . S
C165 O161 1.246 . S
C165 O162 1.259 . S
C166 O163 1.252 . S
C166 O164 1.273 . S
O167 Mg154 2.010 . S
O167 C159 1.249 . S
Mg168 O169 2.028 . S
Mg168 O175 1.986 . S
Mg168 O177 2.114 . S
Mg168 O178 2.251 . S
Mg168 O181 2.010 . S
O169 Mg168 2.028 . S
O169 C172 1.250 . S
O170 Mg171 2.028 . S
O170 C172 1.248 . S
Mg171 O170 2.028 . S
Mg171 O176 2.032 . S
Mg171 O178 2.079 . S
C172 O169 1.250 . S
C172 O170 1.248 . S
C173 O174 1.264 . S
C173 O181 1.249 . S
O174 C173 1.264 . S
O175 Mg168 1.986 . S
O175 C179 1.246 . S
O176 Mg171 2.032 . S
O176 C179 1.259 . S
O177 Mg168 2.114 . S
O177 C180 1.252 . S
O178 Mg168 2.251 . S
O178 Mg171 2.079 . S
O178 C180 1.273 . S
C179 O175 1.246 . S
C179 O176 1.259 . S
C180 O177 1.252 . S
C180 O178 1.273 . S
O181 Mg168 2.010 . S
O181 C173 1.249 . S
Mg182 O183 2.028 . S
Mg182 O189 1.986 . S
Mg182 O191 2.114 . S
Mg182 O192 2.251 . S
Mg182 O195 2.010 . S
O183 Mg182 2.028 . S
O183 C186 1.250 . S
O184 Mg185 2.028 . S
O184 C186 1.248 . S
Mg185 O184 2.028 . S
Mg185 O190 2.032 . S
Mg185 O192 2.079 . S
C186 O183 1.250 . S
C186 O184 1.248 . S
C187 O188 1.264 . S
C187 O195 1.249 . S
O188 C187 1.264 . S
O189 Mg182 1.986 . S
O189 C193 1.246 . S
O190 Mg185 2.032 . S
O190 C193 1.259 . S
O191 Mg182 2.114 . S
O191 C194 1.252 . S
O192 Mg182 2.251 . S
O192 Mg185 2.079 . S
O192 C194 1.273 . S
C193 O189 1.246 . S
C193 O190 1.259 . S
C194 O191 1.252 . S
C194 O192 1.273 . S
O195 Mg182 2.010 . S
O195 C187 1.249 . S
Mg196 O197 2.028 . S
Mg196 O203 1.986 . S
Mg196 O205 2.114 . S
Mg196 O206 2.251 . S
Mg196 O209 2.010 . S
O197 Mg196 2.028 . S
O197 C200 1.250 . S
O198 Mg199 2.028 . S
O198 C200 1.248 . S
Mg199 O198 2.028 . S
Mg199 O204 2.032 . S
Mg199 O206 2.079 . S
C200 O197 1.250 . S
C200 O198 1.248 . S
C201 O202 1.264 . S
C201 O209 1.249 . S
O202 C201 1.264 . S
O203 Mg196 1.986 . S
O203 C207 1.246 . S
O204 Mg199 2.032 . S
O204 C207 1.259 . S
O205 Mg196 2.114 . S
O205 C208 1.252 . S
O206 Mg196 2.251 . S
O206 Mg199 2.079 . S
O206 C208 1.273 . S
C207 O203 1.246 . S
C207 O204 1.259 . S
C208 O205 1.252 . S
C208 O206 1.273 . S
O209 Mg196 2.010 . S
O209 C201 1.249 . S
H210 C216 0.930 . S
H211 C219 0.930 . S
H212 C220 0.930 . S
H213 C221 0.930 . S
H214 C224 0.930 . S
H215 C225 0.930 . S
C216 H210 0.930 . S
C216 C217 1.355 . S
C216 C218 1.415 . S
C217 C216 1.355 . S
C217 C219 1.419 . S
C218 C216 1.415 . S
C218 C223 1.425 . S
C218 C225 1.409 . S
C219 H211 0.930 . S
C219 C217 1.419 . S
C219 C220 1.362 . S
C220 H212 0.930 . S
C220 C219 1.362 . S
C220 C223 1.409 . S
C221 H213 0.930 . S
C221 C222 1.355 . S
C221 C223 1.415 . S
C222 C221 1.355 . S
C222 C224 1.419 . S
C223 C218 1.425 . S
C223 C220 1.409 . S
C223 C221 1.415 . S
C224 H214 0.930 . S
C224 C222 1.419 . S
C224 C225 1.362 . S
C225 H215 0.930 . S
C225 C218 1.409 . S
C225 C224 1.362 . S
H226 C232 0.930 . S
H227 C235 0.930 . S
H228 C236 0.930 . S
H229 C237 0.930 . S
H230 C240 0.930 . S
H231 C241 0.930 . S
C232 H226 0.930 . S
C232 C233 1.355 . S
C232 C234 1.415 . S
C233 C232 1.355 . S
C233 C235 1.419 . S
C234 C232 1.415 . S
C234 C239 1.425 . S
C234 C241 1.409 . S
C235 H227 0.930 . S
C235 C233 1.419 . S
C235 C236 1.362 . S
C236 H228 0.930 . S
C236 C235 1.362 . S
C236 C239 1.409 . S
C237 H229 0.930 . S
C237 C238 1.355 . S
C237 C239 1.415 . S
C238 C237 1.355 . S
C238 C240 1.419 . S
C239 C234 1.425 . S
C239 C236 1.409 . S
C239 C237 1.415 . S
C240 H230 0.930 . S
C240 C238 1.419 . S
C240 C241 1.362 . S
C241 H231 0.930 . S
C241 C234 1.409 . S
C241 C240 1.362 . S
H242 C248 0.930 . S
H243 C251 0.930 . S
H244 C252 0.930 . S
H245 C253 0.930 . S
H246 C256 0.930 . S
H247 C257 0.930 . S
C248 H242 0.930 . S
C248 C249 1.355 . S
C248 C250 1.415 . S
C249 C248 1.355 . S
C249 C251 1.419 . S
C250 C248 1.415 . S
C250 C255 1.425 . S
C250 C257 1.409 . S
C251 H243 0.930 . S
C251 C249 1.419 . S
C251 C252 1.362 . S
C252 H244 0.930 . S
C252 C251 1.362 . S
C252 C255 1.409 . S
C253 H245 0.930 . S
C253 C254 1.355 . S
C253 C255 1.415 . S
C254 C253 1.355 . S
C254 C256 1.419 . S
C255 C250 1.425 . S
C255 C252 1.409 . S
C255 C253 1.415 . S
C256 H246 0.930 . S
C256 C254 1.419 . S
C256 C257 1.362 . S
C257 H247 0.930 . S
C257 C250 1.409 . S
C257 C256 1.362 . S
H258 C264 0.930 . S
H259 C267 0.930 . S
H260 C268 0.930 . S
H261 C269 0.930 . S
H262 C272 0.930 . S
H263 C273 0.930 . S
C264 H258 0.930 . S
C264 C265 1.355 . S
C264 C266 1.415 . S
C265 C264 1.355 . S
C265 C267 1.419 . S
C266 C264 1.415 . S
C266 C271 1.425 . S
C266 C273 1.409 . S
C267 H259 0.930 . S
C267 C265 1.419 . S
C267 C268 1.362 . S
C268 H260 0.930 . S
C268 C267 1.362 . S
C268 C271 1.409 . S
C269 H261 0.930 . S
C269 C270 1.355 . S
C269 C271 1.415 . S
C270 C269 1.355 . S
C270 C272 1.419 . S
C271 C266 1.425 . S
C271 C268 1.409 . S
C271 C269 1.415 . S
C272 H262 0.930 . S
C272 C270 1.419 . S
C272 C273 1.362 . S
C273 H263 0.930 . S
C273 C266 1.409 . S
C273 C272 1.362 . S
H274 C280 0.930 . S
H275 C283 0.930 1_554 S
H276 C284 0.931 1_554 S
H277 C285 0.930 . S
H278 C288 0.930 . S
H279 C289 0.930 . S
C280 H274 0.930 . S
C280 C281 1.355 . S
C280 C282 1.415 . S
C281 C280 1.355 . S
C281 C283 1.419 . S
C282 C280 1.415 . S
C282 C287 1.425 . S
C282 C289 1.409 . S
C283 H275 0.930 1_556 S
C283 C281 1.419 . S
C283 C284 1.362 . S
C284 H276 0.931 1_556 S
C284 C283 1.362 . S
C284 C287 1.409 . S
C285 H277 0.930 . S
C285 C286 1.355 . S
C285 C287 1.415 . S
C286 C285 1.355 . S
C286 C288 1.419 . S
C287 C282 1.425 . S
C287 C284 1.409 . S
C287 C285 1.415 . S
C288 H278 0.930 . S
C288 C286 1.419 . S
C288 C289 1.362 . S
C289 H279 0.930 . S
C289 C282 1.409 . S
C289 C288 1.362 . S
H290 C296 0.930 . S
H291 C299 0.930 . S
H292 C300 0.930 . S
H293 C301 0.930 . S
H294 C304 0.930 . S
H295 C305 0.930 . S
C296 H290 0.930 . S
C296 C297 1.355 . S
C296 C298 1.415 . S
C297 C296 1.355 . S
C297 C299 1.419 . S
C298 C296 1.415 . S
C298 C303 1.425 . S
C298 C305 1.409 . S
C299 H291 0.930 . S
C299 C297 1.419 . S
C299 C300 1.362 . S
C300 H292 0.930 . S
C300 C299 1.362 . S
C300 C303 1.409 . S
C301 H293 0.930 . S
C301 C302 1.355 . S
C301 C303 1.415 . S
C302 C301 1.355 . S
C302 C304 1.419 . S
C303 C298 1.425 . S
C303 C300 1.409 . S
C303 C301 1.415 . S
C304 H294 0.930 . S
C304 C302 1.419 . S
C304 C305 1.362 . S
C305 H295 0.930 . S
C305 C298 1.409 . S
C305 C304 1.362 . S
H306 C312 0.930 . S
H307 C315 0.930 . S
H308 C316 0.930 . S
H309 C317 0.930 . S
H310 C320 0.930 . S
H311 C321 0.930 . S
C312 H306 0.930 . S
C312 C313 1.355 . S
C312 C314 1.415 . S
C313 C312 1.355 . S
C313 C315 1.419 . S
C314 C312 1.415 . S
C314 C319 1.425 . S
C314 C321 1.409 . S
C315 H307 0.930 . S
C315 C313 1.419 . S
C315 C316 1.362 . S
C316 H308 0.930 . S
C316 C315 1.362 . S
C316 C319 1.409 . S
C317 H309 0.930 . S
C317 C318 1.355 . S
C317 C319 1.415 . S
C318 C317 1.355 . S
C318 C320 1.419 . S
C319 C314 1.425 . S
C319 C316 1.409 . S
C319 C317 1.415 . S
C320 H310 0.930 . S
C320 C318 1.419 . S
C320 C321 1.362 . S
C321 H311 0.930 . S
C321 C314 1.409 . S
C321 C320 1.362 . S
H322 C328 0.930 . S
H323 C331 0.930 . S
H324 C332 0.930 . S
H325 C333 0.930 . S
H326 C336 0.930 . S
H327 C337 0.930 . S
C328 H322 0.930 . S
C328 C329 1.355 . S
C328 C330 1.415 . S
C329 C328 1.355 . S
C329 C331 1.419 . S
C330 C328 1.415 . S
C330 C335 1.425 . S
C330 C337 1.409 . S
C331 H323 0.930 . S
C331 C329 1.419 . S
C331 C332 1.362 . S
C332 H324 0.930 . S
C332 C331 1.362 . S
C332 C335 1.409 . S
C333 H325 0.930 . S
C333 C334 1.355 . S
C333 C335 1.415 . S
C334 C333 1.355 . S
C334 C336 1.419 . S
C335 C330 1.425 . S
C335 C332 1.409 . S
C335 C333 1.415 . S
C336 H326 0.930 . S
C336 C334 1.419 . S
C336 C337 1.362 . S
C337 H327 0.930 . S
C337 C330 1.409 . S
C337 C336 1.362 . S
H338 C344 0.930 . S
H339 C347 0.930 . S
H340 C348 0.930 . S
H341 C349 0.930 . S
H342 C352 0.930 . S
H343 C353 0.930 . S
C344 H338 0.930 . S
C344 C345 1.355 . S
C344 C346 1.415 . S
C345 C344 1.355 . S
C345 C347 1.419 . S
C346 C344 1.415 . S
C346 C351 1.425 . S
C346 C353 1.409 . S
C347 H339 0.930 . S
C347 C345 1.419 . S
C347 C348 1.362 . S
C348 H340 0.930 . S
C348 C347 1.362 . S
C348 C351 1.409 . S
C349 H341 0.930 . S
C349 C350 1.355 . S
C349 C351 1.415 . S
C350 C349 1.355 . S
C350 C352 1.419 . S
C351 C346 1.425 . S
C351 C348 1.409 . S
C351 C349 1.415 . S
C352 H342 0.930 . S
C352 C350 1.419 . S
C352 C353 1.362 . S
C353 H343 0.930 . S
C353 C346 1.409 . S
C353 C352 1.362 . S
H354 C360 0.930 . S
H355 C363 0.930 1_556 S
H356 C364 0.930 1_556 S
H357 C365 0.930 . S
H358 C368 0.930 . S
H359 C369 0.930 . S
C360 H354 0.930 . S
C360 C361 1.355 . S
C360 C362 1.415 . S
C361 C360 1.355 . S
C361 C363 1.419 . S
C362 C360 1.415 . S
C362 C367 1.425 . S
C362 C369 1.409 . S
C363 H355 0.930 1_554 S
C363 C361 1.419 . S
C363 C364 1.362 . S
C364 H356 0.930 1_554 S
C364 C363 1.362 . S
C364 C367 1.409 . S
C365 H357 0.930 . S
C365 C366 1.355 . S
C365 C367 1.415 . S
C366 C365 1.355 . S
C366 C368 1.419 . S
C367 C362 1.425 . S
C367 C364 1.409 . S
C367 C365 1.415 . S
C368 H358 0.930 . S
C368 C366 1.419 . S
C368 C369 1.362 . S
C369 H359 0.930 . S
C369 C362 1.409 . S
C369 C368 1.362 . S
H370 C376 0.930 . S
H371 C379 0.930 . S
H372 C380 0.930 . S
H373 C381 0.930 . S
H374 C384 0.930 . S
H375 C385 0.930 . S
C376 H370 0.930 . S
C376 C377 1.355 . S
C376 C378 1.415 . S
C377 C376 1.355 . S
C377 C379 1.419 . S
C378 C376 1.415 . S
C378 C383 1.425 . S
C378 C385 1.409 . S
C379 H371 0.930 . S
C379 C377 1.419 . S
C379 C380 1.362 . S
C380 H372 0.930 . S
C380 C379 1.362 . S
C380 C383 1.409 . S
C381 H373 0.930 . S
C381 C382 1.355 . S
C381 C383 1.415 . S
C382 C381 1.355 . S
C382 C384 1.419 . S
C383 C378 1.425 . S
C383 C380 1.409 . S
C383 C381 1.415 . S
C384 H374 0.930 . S
C384 C382 1.419 . S
C384 C385 1.362 . S
C385 H375 0.930 . S
C385 C378 1.409 . S
C385 C384 1.362 . S
H386 C392 0.930 . S
H387 C395 0.930 . S
H388 C396 0.930 . S
H389 C397 0.930 . S
H390 C400 0.930 . S
H391 C401 0.930 . S
C392 H386 0.930 . S
C392 C393 1.355 . S
C392 C394 1.415 . S
C393 C392 1.355 . S
C393 C395 1.419 . S
C394 C392 1.415 . S
C394 C399 1.425 . S
C394 C401 1.409 . S
C395 H387 0.930 . S
C395 C393 1.419 . S
C395 C396 1.362 . S
C396 H388 0.930 . S
C396 C395 1.362 . S
C396 C399 1.409 . S
C397 H389 0.930 . S
C397 C398 1.355 . S
C397 C399 1.415 . S
C398 C397 1.355 . S
C398 C400 1.419 . S
C399 C394 1.425 . S
C399 C396 1.409 . S
C399 C397 1.415 . S
C400 H390 0.930 . S
C400 C398 1.419 . S
C400 C401 1.362 . S
C401 H391 0.930 . S
C401 C394 1.409 . S
C401 C400 1.362 . S
H402 C408 0.930 . S
H403 C411 0.930 . S
H404 C412 0.930 . S
H405 C413 0.930 . S
H406 C416 0.930 . S
H407 C417 0.930 . S
C408 H402 0.930 . S
C408 C409 1.355 . S
C408 C410 1.415 . S
C409 C408 1.355 . S
C409 C411 1.419 . S
C410 C408 1.415 . S
C410 C415 1.425 . S
C410 C417 1.409 . S
C411 H403 0.930 . S
C411 C409 1.419 . S
C411 C412 1.362 . S
C412 H404 0.930 . S
C412 C411 1.362 . S
C412 C415 1.409 . S
C413 H405 0.930 . S
C413 C414 1.355 . S
C413 C415 1.415 . S
C414 C413 1.355 . S
C414 C416 1.419 . S
C415 C410 1.425 . S
C415 C412 1.409 . S
C415 C413 1.415 . S
C416 H406 0.930 . S
C416 C414 1.419 . S
C416 C417 1.362 . S
C417 H407 0.930 . S
C417 C410 1.409 . S
C417 C416 1.362 . S
H418 C424 0.930 . S
H419 C427 0.930 . S
H420 C428 0.930 . S
H421 C429 0.930 . S
H422 C432 0.930 . S
H423 C433 0.930 . S
C424 H418 0.930 . S
C424 C425 1.355 . S
C424 C426 1.415 . S
C425 C424 1.355 . S
C425 C427 1.419 . S
C426 C424 1.415 . S
C426 C431 1.425 . S
C426 C433 1.409 . S
C427 H419 0.930 . S
C427 C425 1.419 . S
C427 C428 1.362 . S
C428 H420 0.930 . S
C428 C427 1.362 . S
C428 C431 1.409 . S
C429 H421 0.930 . S
C429 C430 1.355 . S
C429 C431 1.415 . S
C430 C429 1.355 . S
C430 C432 1.419 . S
C431 C426 1.425 . S
C431 C428 1.409 . S
C431 C429 1.415 . S
C432 H422 0.930 . S
C432 C430 1.419 . S
C432 C433 1.362 . S
C433 H423 0.930 . S
C433 C426 1.409 . S
C433 C432 1.362 . S
H434 C440 0.930 . S
H435 C443 0.930 . S
H436 C444 0.930 . S
H437 C445 0.930 . S
H438 C448 0.930 . S
H439 C449 0.930 . S
C440 H434 0.930 . S
C440 C441 1.355 . S
C440 C442 1.415 . S
C441 C440 1.355 . S
C441 C443 1.419 . S
C442 C440 1.415 . S
C442 C447 1.425 . S
C442 C449 1.409 . S
C443 H435 0.930 . S
C443 C441 1.419 . S
C443 C444 1.362 . S
C444 H436 0.930 . S
C444 C443 1.362 . S
C444 C447 1.409 . S
C445 H437 0.930 . S
C445 C446 1.355 . S
C445 C447 1.415 . S
C446 C445 1.355 . S
C446 C448 1.419 . S
C447 C442 1.425 . S
C447 C444 1.409 . S
C447 C445 1.415 . S
C448 H438 0.930 . S
C448 C446 1.419 . S
C448 C449 1.362 . S
C449 H439 0.930 . S
C449 C442 1.409 . S
C449 C448 1.362 . S
H450 C456 0.930 . S
H451 C459 0.930 . S
H452 C460 0.930 . S
H453 C461 0.930 . S
H454 C464 0.930 . S
H455 C465 0.930 . S
C456 H450 0.930 . S
C456 C457 1.355 . S
C456 C458 1.415 . S
C457 C456 1.355 . S
C457 C459 1.419 . S
C458 C456 1.415 . S
C458 C463 1.425 . S
C458 C465 1.409 . S
C459 H451 0.930 . S
C459 C457 1.419 . S
C459 C460 1.362 . S
C460 H452 0.930 . S
C460 C459 1.362 . S
C460 C463 1.409 . S
C461 H453 0.930 . S
C461 C462 1.355 . S
C461 C463 1.415 . S
C462 C461 1.355 . S
C462 C464 1.419 . S
C463 C458 1.425 . S
C463 C460 1.409 . S
C463 C461 1.415 . S
C464 H454 0.930 . S
C464 C462 1.419 . S
C464 C465 1.362 . S
C465 H455 0.930 . S
C465 C458 1.409 . S
C465 C464 1.362 . S
H466 C472 0.930 . S
H467 C475 0.930 . S
H468 C476 0.930 . S
H469 C477 0.930 . S
H470 C480 0.930 . S
H471 C481 0.930 . S
C472 H466 0.930 . S
C472 C473 1.355 . S
C472 C474 1.415 . S
C473 C472 1.355 . S
C473 C475 1.419 . S
C474 C472 1.415 . S
C474 C479 1.425 . S
C474 C481 1.409 . S
C475 H467 0.930 . S
C475 C473 1.419 . S
C475 C476 1.362 . S
C476 H468 0.930 . S
C476 C475 1.362 . S
C476 C479 1.409 . S
C477 H469 0.930 . S
C477 C478 1.355 . S
C477 C479 1.415 . S
C478 C477 1.355 . S
C478 C480 1.419 . S
C479 C474 1.425 . S
C479 C476 1.409 . S
C479 C477 1.415 . S
C480 H470 0.930 . S
C480 C478 1.419 . S
C480 C481 1.362 . S
C481 H471 0.930 . S
C481 C474 1.409 . S
C481 C480 1.362 . S
H482 C488 0.930 . S
H483 C491 0.930 . S
H484 C492 0.930 . S
H485 C493 0.930 . S
H486 C496 0.930 . S
H487 C497 0.930 . S
C488 H482 0.930 . S
C488 C489 1.355 . S
C488 C490 1.415 . S
C489 C488 1.355 . S
C489 C491 1.419 . S
C490 C488 1.415 . S
C490 C495 1.425 . S
C490 C497 1.409 . S
C491 H483 0.930 . S
C491 C489 1.419 . S
C491 C492 1.362 . S
C492 H484 0.930 . S
C492 C491 1.362 . S
C492 C495 1.409 . S
C493 H485 0.930 . S
C493 C494 1.355 . S
C493 C495 1.415 . S
C494 C493 1.355 . S
C494 C496 1.419 . S
C495 C490 1.425 . S
C495 C492 1.409 . S
C495 C493 1.415 . S
C496 H486 0.930 . S
C496 C494 1.419 . S
C496 C497 1.362 . S
C497 H487 0.930 . S
C497 C490 1.409 . S
C497 C496 1.362 . S
H498 C504 0.930 . S
H499 C507 0.930 . S
H500 C508 0.930 . S
H501 C509 0.930 . S
H502 C512 0.930 . S
H503 C513 0.930 . S
C504 H498 0.930 . S
C504 C505 1.355 . S
C504 C506 1.415 . S
C505 C504 1.355 . S
C505 C507 1.419 . S
C506 C504 1.415 . S
C506 C511 1.425 . S
C506 C513 1.409 . S
C507 H499 0.930 . S
C507 C505 1.419 . S
C507 C508 1.362 . S
C508 H500 0.930 . S
C508 C507 1.362 . S
C508 C511 1.409 . S
C509 H501 0.930 . S
C509 C510 1.355 . S
C509 C511 1.415 . S
C510 C509 1.355 . S
C510 C512 1.419 . S
C511 C506 1.425 . S
C511 C508 1.409 . S
C511 C509 1.415 . S
C512 H502 0.930 . S
C512 C510 1.419 . S
C512 C513 1.362 . S
C513 H503 0.930 . S
C513 C506 1.409 . S
C513 C512 1.362 . S
H514 C520 0.930 . S
H515 C523 0.930 . S
H516 C524 0.930 . S
H517 C525 0.930 . S
H518 C528 0.930 . S
H519 C529 0.930 . S
C520 H514 0.930 . S
C520 C521 1.355 . S
C520 C522 1.415 . S
C521 C520 1.355 . S
C521 C523 1.419 . S
C522 C520 1.415 . S
C522 C527 1.425 . S
C522 C529 1.409 . S
C523 H515 0.930 . S
C523 C521 1.419 . S
C523 C524 1.362 . S
C524 H516 0.930 . S
C524 C523 1.362 . S
C524 C527 1.409 . S
C525 H517 0.930 . S
C525 C526 1.355 . S
C525 C527 1.415 . S
C526 C525 1.355 . S
C526 C528 1.419 . S
C527 C522 1.425 . S
C527 C524 1.409 . S
C527 C525 1.415 . S
C528 H518 0.930 . S
C528 C526 1.419 . S
C528 C529 1.362 . S
C529 H519 0.930 . S
C529 C522 1.409 . S
C529 C528 1.362 . S
H530 C536 0.930 . S
H531 C539 0.930 . S
H532 C540 0.930 . S
H533 C541 0.930 . S
H534 C544 0.930 . S
H535 C545 0.930 . S
C536 H530 0.930 . S
C536 C537 1.355 . S
C536 C538 1.415 . S
C537 C536 1.355 . S
C537 C539 1.419 . S
C538 C536 1.415 . S
C538 C543 1.425 . S
C538 C545 1.409 . S
C539 H531 0.930 . S
C539 C537 1.419 . S
C539 C540 1.362 . S
C540 H532 0.930 . S
C540 C539 1.362 . S
C540 C543 1.409 . S
C541 H533 0.930 . S
C541 C542 1.355 . S
C541 C543 1.415 . S
C542 C541 1.355 . S
C542 C544 1.419 . S
C543 C538 1.425 . S
C543 C540 1.409 . S
C543 C541 1.415 . S
C544 H534 0.930 . S
C544 C542 1.419 . S
C544 C545 1.362 . S
C545 H535 0.930 . S
C545 C538 1.409 . S
C545 C544 1.362 . S
H546 C552 0.930 . S
H547 C555 0.930 . S
H548 C556 0.930 . S
H549 C557 0.930 . S
H550 C560 0.930 . S
H551 C561 0.930 . S
C552 H546 0.930 . S
C552 C553 1.355 . S
C552 C554 1.415 . S
C553 C552 1.355 . S
C553 C555 1.419 . S
C554 C552 1.415 . S
C554 C559 1.425 . S
C554 C561 1.409 . S
C555 H547 0.930 . S
C555 C553 1.419 . S
C555 C556 1.362 . S
C556 H548 0.930 . S
C556 C555 1.362 . S
C556 C559 1.409 . S
C557 H549 0.930 . S
C557 C558 1.355 . S
C557 C559 1.415 . S
C558 C557 1.355 . S
C558 C560 1.419 . S
C559 C554 1.425 . S
C559 C556 1.409 . S
C559 C557 1.415 . S
C560 H550 0.930 . S
C560 C558 1.419 . S
C560 C561 1.362 . S
C561 H551 0.930 . S
C561 C554 1.409 . S
C561 C560 1.362 . S
H562 C568 0.930 . S
H563 C571 0.930 . S
H564 C572 0.930 . S
H565 C573 0.930 . S
H566 C576 0.930 . S
H567 C577 0.930 . S
C568 H562 0.930 . S
C568 C569 1.355 . S
C568 C570 1.415 . S
C569 C568 1.355 . S
C569 C571 1.419 . S
C570 C568 1.415 . S
C570 C575 1.425 . S
C570 C577 1.409 1_554 S
C571 H563 0.930 . S
C571 C569 1.419 . S
C571 C572 1.362 . S
C572 H564 0.930 . S
C572 C571 1.362 . S
C572 C575 1.409 . S
C573 H565 0.930 . S
C573 C574 1.355 1_554 S
C573 C575 1.415 . S
C574 C573 1.355 1_556 S
C574 C576 1.419 . S
C575 C570 1.425 . S
C575 C572 1.409 . S
C575 C573 1.415 . S
C576 H566 0.930 . S
C576 C574 1.419 . S
C576 C577 1.362 . S
C577 H567 0.930 . S
C577 C570 1.409 1_556 S
C577 C576 1.362 . S
H578 C584 0.930 . S
H579 C587 0.930 . S
H580 C588 0.930 . S
H581 C589 0.930 . S
H582 C592 0.930 . S
H583 C593 0.930 . S
C584 H578 0.930 . S
C584 C585 1.355 . S
C584 C586 1.415 . S
C585 C584 1.355 . S
C585 C587 1.419 . S
C586 C584 1.415 . S
C586 C591 1.425 . S
C586 C593 1.409 . S
C587 H579 0.930 . S
C587 C585 1.419 . S
C587 C588 1.362 . S
C588 H580 0.930 . S
C588 C587 1.362 . S
C588 C591 1.409 . S
C589 H581 0.930 . S
C589 C590 1.355 . S
C589 C591 1.415 . S
C590 C589 1.355 . S
C590 C592 1.419 . S
C591 C586 1.425 . S
C591 C588 1.409 . S
C591 C589 1.415 . S
C592 H582 0.930 . S
C592 C590 1.419 . S
C592 C593 1.362 . S
C593 H583 0.930 . S
C593 C586 1.409 . S
C593 C592 1.362 . S
C222 C201 1.262 . S
C217 C19 1.400 . S
C233 C40 1.409 . S
C238 C131 1.250 . S
C249 C51 1.368 . S
C254 C151 1.544 . S
C265 C72 1.409 . S
C270 C165 1.459 . S
C286 C173 1.247 . S
C281 C103 1.401 . S
C297 C114 1.387 . S
C302 C187 1.247 . S
C313 C30 1.481 . S
C318 C145 1.380 . S
C329 C61 1.440 . S
C334 C159 1.310 . S
C345 C82 1.403 . S
C350 C179 1.442 . S
C366 C193 1.484 . S
C361 C93 1.406 1_554 S
C382 C207 1.493 . S
C377 C124 1.394 . S
C398 C137 1.529 . S
C393 C9 1.365 . S
C409 C17 1.362 . S
C414 C144 1.435 . S
C425 C38 1.454 . S
C430 C158 1.494 . S
C446 C180 1.481 . S
C441 C54 1.441 . S
C457 C75 1.425 . S
C462 C194 1.483 1_556 S
C478 C208 1.473 . S
C473 C101 1.400 . S
C494 C138 1.447 . S
C489 C117 1.406 . S
C510 C200 1.480 . S
C505 C33 1.437 . S
C521 C59 1.367 . S
C526 C130 1.434 . S
C542 C152 1.486 . S
C537 C80 1.354 . S
C553 C96 1.353 . S
C558 C166 1.475 . S
C569 C122 1.401 . S
C574 C172 1.465 . S
C585 C12 1.441 . S
C590 C186 1.494 . S
