# Generated by pormake.
# Topology anh, (6,3)-cn, num edge types: 1
# Building blocks:
#     Node 0, Type 0, BuildingBlock: CUWYAW_clean_sbu_0, # of connection points: 6
#     Node 1, Type 0, BuildingBlock: CUWYAW_clean_sbu_0, # of connection points: 6
#     Node 2, Type 0, BuildingBlock: CUWYAW_clean_sbu_0, # of connection points: 6
#     Node 3, Type 1, BuildingBlock: QEWDON_clean_linker_0, # of connection points: 3
#     Node 4, Type 1, BuildingBlock: QEWDON_clean_linker_0, # of connection points: 3
#     Node 5, Type 1, BuildingBlock: QEWDON_clean_linker_0, # of connection points: 3
#     Node 6, Type 1, BuildingBlock: QEWDON_clean_linker_0, # of connection points: 3
#     Node 7, Type 1, BuildingBlock: QEWDON_clean_linker_0, # of connection points: 3
#     Node 8, Type 1, BuildingBlock: QEWDON_clean_linker_0, # of connection points: 3
#     Edge 9, Type (0, 1), BuildingBlock: MIFKUJ_clean_linker_0, # of connection points: 2
#     Edge 10, Type (0, 1), BuildingBlock: MIFKUJ_clean_linker_0, # of connection points: 2
#     Edge 11, Type (0, 1), BuildingBlock: MIFKUJ_clean_linker_0, # of connection points: 2
#     Edge 12, Type (0, 1), BuildingBlock: MIFKUJ_clean_linker_0, # of connection points: 2
#     Edge 13, Type (0, 1), BuildingBlock: MIFKUJ_clean_linker_0, # of connection points: 2
#     Edge 14, Type (0, 1), BuildingBlock: MIFKUJ_clean_linker_0, # of connection points: 2
#     Edge 15, Type (0, 1), BuildingBlock: MIFKUJ_clean_linker_0, # of connection points: 2
#     Edge 16, Type (0, 1), BuildingBlock: MIFKUJ_clean_linker_0, # of connection points: 2
#     Edge 17, Type (0, 1), BuildingBlock: MIFKUJ_clean_linker_0, # of connection points: 2
#     Edge 18, Type (0, 1), BuildingBlock: MIFKUJ_clean_linker_0, # of connection points: 2
#     Edge 19, Type (0, 1), BuildingBlock: MIFKUJ_clean_linker_0, # of connection points: 2
#     Edge 20, Type (0, 1), BuildingBlock: MIFKUJ_clean_linker_0, # of connection points: 2
#     Edge 21, Type (0, 1), BuildingBlock: MIFKUJ_clean_linker_0, # of connection points: 2
#     Edge 22, Type (0, 1), BuildingBlock: MIFKUJ_clean_linker_0, # of connection points: 2
#     Edge 23, Type (0, 1), BuildingBlock: MIFKUJ_clean_linker_0, # of connection points: 2
#     Edge 24, Type (0, 1), BuildingBlock: MIFKUJ_clean_linker_0, # of connection points: 2
#     Edge 25, Type (0, 1), BuildingBlock: MIFKUJ_clean_linker_0, # of connection points: 2
#     Edge 26, Type (0, 1), BuildingBlock: MIFKUJ_clean_linker_0, # of connection points: 2
# Relax obj value: 0.174
# Max RMSD: 0.145
# Mean RMSD: 0.131
data_MOF--net-anh--node1-CUWYAW_clean_sbu_0--node2-QEWDON_clean_linker_0--edge1-MIFKUJ_clean_linker_0
_symmetry_space_group_name_H-M    P1
_symmetry_Int_Tables_number       1
_symmetry_cell_setting            triclinic
loop_
_symmetry_equiv_pos_as_xyz
'x, y, z'
_cell_length_a     42.874302
_cell_length_b     42.661641
_cell_length_c     63.062208
_cell_angle_alpha  94.237294
_cell_angle_beta   93.501977
_cell_angle_gamma 119.56933
loop_
_atom_site_label
_atom_site_type_symbol
_atom_site_fract_x
_atom_site_fract_y
_atom_site_fract_z
_atom_type_partial_charge
C0 C 1.02792 0.52223 0.13342 0.0
Eu1 Eu 0.06248 0.58553 0.15411 0.0
C2 C 0.98867 0.50279 0.13045 0.0
C3 C 0.96974 0.4928 0.1484 0.0
C4 C 0.9339 0.48369 0.14705 0.0
C5 C 0.91614 0.48416 0.12767 0.0
C6 C 0.93536 0.49537 0.10993 0.0
C7 C 0.97113 0.50383 0.11116 0.0
C8 C 0.06796 0.60308 0.1974 0.0
C9 C 1.00444 0.61808 0.15512 0.0
C10 C 0.1279 0.73023 0.17148 0.0
Eu11 Eu 0.0914 0.66243 0.15959 0.0
C12 C 0.16606 0.75057 0.16992 0.0
C13 C 0.1789 0.75031 0.14993 0.0
C14 C 0.21534 0.76457 0.14886 0.0
C15 C 0.23892 0.77952 0.16768 0.0
C16 C 0.22612 0.77698 0.18769 0.0
C17 C 0.18969 0.763 0.1888 0.0
C18 C 0.0765 0.63309 0.11841 0.0
C19 C 0.15039 0.63003 0.15649 0.0
O20 O 1.04183 0.55152 0.12383 0.0
O21 O 1.04323 0.52762 0.15304 0.0
O22 O 0.05735 0.57076 0.18813 0.0
O23 O 0.07658 0.62491 0.18352 0.0
O24 O 1.00934 0.59018 0.14894 0.0
O25 O 1.03333 0.64901 0.1631 0.0
O26 O 0.11941 0.70645 0.18517 0.0
O27 O 0.10742 0.71727 0.15321 0.0
O28 O 0.06665 0.65587 0.12534 0.0
O29 O 0.09255 0.62698 0.13343 0.0
O30 O 0.14592 0.65931 0.15894 0.0
O31 O 0.12113 0.59737 0.15438 0.0
H32 H 0.98268 0.49271 0.16368 0.0
H33 H 0.91965 0.47413 0.16089 0.0
H34 H 0.92203 0.49549 0.0948 0.0
H35 H 0.98555 0.51261 0.09728 0.0
H36 H 0.16103 0.7394 0.1351 0.0
H37 H 0.22542 0.76714 0.13335 0.0
H38 H 0.24452 0.78907 0.2023 0.0
H39 H 0.17993 0.76179 0.20434 0.0
C40 C 0.5112 0.13225 0.49712 0.0
Eu41 Eu 0.55676 0.1094 0.49688 0.0
C42 C 0.51353 0.16432 0.48963 0.0
C43 C 0.50429 0.18528 0.503 0.0
C44 C 0.51695 0.2212 0.50007 0.0
C45 C 0.53846 0.23584 0.48363 0.0
C46 C 0.5453 0.21426 0.46914 0.0
C47 C 0.53296 0.17837 0.4722 0.0
C48 C 0.58372 0.09953 0.53437 0.0
C49 C 0.64098 0.16459 0.49075 0.0
C50 C 0.62753 0.04377 0.48752 0.0
Eu51 Eu 0.58977 0.07467 0.48808 0.0
C52 C 0.61008 1.00601 0.49116 0.0
C53 C 0.60916 0.98051 0.47556 0.0
C54 C 0.58547 0.94389 0.47619 0.0
C55 C 0.56252 0.93256 0.49246 0.0
C56 C 0.56223 0.95812 0.50742 0.0
C57 C 0.58608 0.99461 0.50692 0.0
C58 C 0.56063 0.08317 0.45127 0.0
C59 C 0.50428 1.01908 0.48923 0.0
O60 O 0.50889 0.10799 0.48228 0.0
O61 O 0.53493 0.13926 0.51339 0.0
O62 O 0.58846 0.13042 0.52959 0.0
O63 O 0.56666 0.0752 0.51867 0.0
O64 O 0.60902 0.16265 0.49092 0.0
O65 O 0.64055 0.13331 0.4914 0.0
O66 O 0.63134 0.06649 0.50394 0.0
O67 O 0.61389 0.04865 0.46987 0.0
O68 O 0.55674 0.0526 0.456 0.0
O69 O 0.57891 0.10786 0.46649 0.0
O70 O 0.53585 1.02046 0.48929 0.0
O71 O 0.50567 0.05092 0.49102 0.0
H72 H 0.49014 0.17485 0.51677 0.0
H73 H 0.51211 0.23823 0.51145 0.0
H74 H 0.56245 0.22586 0.45665 0.0
H75 H 0.54111 0.16265 0.46206 0.0
H76 H 0.62621 0.98899 0.46272 0.0
H77 H 0.58666 0.92441 0.46471 0.0
H78 H 0.54497 0.94969 0.52016 0.0
H79 H 0.58496 1.01388 0.51859 0.0
C80 C 0.72055 0.59703 0.81821 0.0
Eu81 Eu 0.65492 0.56614 0.82634 0.0
C82 C 0.74113 0.57904 0.81526 0.0
C83 C 0.74305 0.55816 0.83091 0.0
C84 C 0.7573 0.53597 0.82673 0.0
C85 C 0.76981 0.53464 0.80693 0.0
C86 C 0.76619 0.55383 0.79083 0.0
C87 C 0.752 0.57624 0.79505 0.0
C88 C 0.6343 0.56233 0.86648 0.0
C89 C 0.62335 0.47581 0.82335 0.0
C90 C 0.51737 0.49573 0.83333 0.0
Eu91 Eu 0.58264 0.52187 0.82576 0.0
C92 C 0.4989 0.51622 0.83118 0.0
C93 C 0.47135 0.50485 0.81444 0.0
C94 C 0.45666 0.52659 0.81046 0.0
C95 C 0.46896 0.55954 0.82352 0.0
C96 C 0.49874 0.5725 0.83887 0.0
C97 C 0.51333 0.55073 0.84292 0.0
C98 C 0.60252 0.52837 0.78593 0.0
C99 C 0.61488 0.61241 0.82381 0.0
O100 O 0.69351 0.58541 0.80334 0.0
O101 O 0.71189 0.59952 0.83755 0.0
O102 O 0.65524 0.59228 0.85895 0.0
O103 O 0.6246 0.53554 0.85249 0.0
O104 O 0.65062 0.50825 0.8201 0.0
O105 O 0.59336 0.4746 0.82838 0.0
O106 O 0.54384 0.50897 0.84883 0.0
O107 O 0.5257 0.48656 0.81523 0.0
O108 O 0.5804 0.49742 0.7921 0.0
O109 O 0.61257 0.5538 0.80076 0.0
O110 O 0.58658 0.58012 0.8265 0.0
O111 O 0.64576 0.61352 0.82197 0.0
H112 H 0.73354 0.55877 0.84638 0.0
H113 H 0.76093 0.52196 0.83948 0.0
H114 H 0.77643 0.55317 0.77561 0.0
H115 H 0.74915 0.59107 0.78255 0.0
H116 H 0.46097 0.47902 0.80465 0.0
H117 H 0.43324 0.51577 0.79866 0.0
H118 H 0.50826 0.59775 0.84911 0.0
H119 H 0.5357 0.56096 0.8554 0.0
H120 H 0.5707 0.17936 0.22955 0.0
C121 C 0.56597 0.15509 0.21979 0.0
C122 C 0.56406 0.12561 0.22937 0.0
C123 C 0.56319 0.15344 0.19748 0.0
H124 H 0.5525 0.07041 0.22412 0.0
C125 C 0.55772 0.09432 0.21659 0.0
C126 C 0.55491 0.09298 0.19426 0.0
C127 C 0.56076 0.12376 0.18514 0.0
C128 C 0.57165 0.18486 0.18636 0.0
H129 H 0.56144 0.12385 0.16795 0.0
C130 C 0.6084 0.20801 0.18675 0.0
C131 C 0.6224 0.22098 0.16798 0.0
C132 C 0.54815 0.18128 0.16854 0.0
H133 H 0.51947 0.16232 0.16773 0.0
C134 C 0.56226 0.19803 0.15044 0.0
H135 H 0.62653 0.20961 0.20017 0.0
C136 C 0.59957 0.21671 0.14979 0.0
H137 H 0.61052 0.22698 0.13516 0.0
H138 H 0.54436 0.19402 0.13636 0.0
H139 H 0.60211 0.61052 0.56192 0.0
C140 C 0.62478 0.60905 0.55624 0.0
C141 C 0.64643 0.60121 0.56979 0.0
C142 C 0.63317 0.61551 0.53536 0.0
H143 H 0.68476 0.58302 0.57139 0.0
C144 C 0.67235 0.59437 0.56144 0.0
C145 C 0.67834 0.5979 0.53984 0.0
C146 C 0.66374 0.61562 0.52878 0.0
C147 C 0.60908 0.61877 0.51931 0.0
H148 H 0.67138 0.62276 0.51305 0.0
C149 C 0.62439 0.64575 0.50594 0.0
C150 C 0.60295 0.65067 0.49061 0.0
C151 C 0.57196 0.5936 0.51586 0.0
H152 H 0.55984 0.57148 0.52554 0.0
C153 C 0.55052 0.59644 0.49936 0.0
H154 H 0.65324 0.66447 0.50837 0.0
C155 C 0.56574 0.6252 0.48697 0.0
H156 H 0.54806 0.62846 0.47548 0.0
H157 H 0.5219 0.57703 0.49661 0.0
H158 H 0.13799 0.55752 0.89728 0.0
C159 C 0.11412 0.53261 0.89026 0.0
C160 C 0.08453 0.5147 0.90195 0.0
C161 C 0.1113 0.51902 0.86891 0.0
H162 H 1.02744 0.47681 0.89953 0.0
C163 C 1.05176 0.48621 0.89161 0.0
C164 C 1.04887 0.47556 0.86981 0.0
C165 C 0.0801 0.48712 0.85993 0.0
C166 C 0.1351 0.54018 0.8535 0.0
H167 H 0.0772 0.47835 0.84293 0.0
C168 C 0.15033 0.52296 0.84227 0.0
C169 C 0.15113 0.52328 0.82005 0.0
C170 C 0.12765 0.56452 0.84355 0.0
H171 H 0.11519 0.57783 0.85187 0.0
C172 C 0.13189 0.56814 0.82189 0.0
H173 H 0.15747 0.50584 0.85078 0.0
C174 C 0.14236 0.54667 0.80995 0.0
H175 H 0.14321 0.54819 0.79293 0.0
H176 H 0.12484 0.58587 0.81403 0.0
H177 H 1.05124 0.5811 0.43307 0.0
C178 C 0.07587 0.60366 0.44137 0.0
C179 C 0.10072 0.62946 0.42908 0.0
C180 C 0.08184 0.60744 0.464 0.0
H181 H 0.15119 0.67893 0.42917 0.0
C182 C 0.13283 0.65977 0.43907 0.0
C183 C 0.14211 0.66619 0.46127 0.0
C184 C 0.11619 0.63955 0.4737 0.0
C185 C 1.05155 0.5794 0.47709 0.0
H186 H 0.12341 0.64408 0.49079 0.0
C187 C 1.01954 0.54354 0.4689 0.0
C188 C 0.9924 0.52084 0.48272 0.0
C189 C 0.05401 0.5902 0.49905 0.0
H190 H 0.07537 0.61624 0.50657 0.0
C191 C 1.02863 0.56867 0.51216 0.0
H192 H 1.0155 0.53354 0.45213 0.0
C193 C 0.99883 0.53514 0.50428 0.0
H194 H 0.98012 0.5201 0.51542 0.0
H195 H 1.03193 0.57853 0.52893 0.0
H196 H 0.61763 1.0299 0.76623 0.0
C197 C 0.61944 0.05413 0.77423 0.0
C198 C 0.62012 0.08036 0.7615 0.0
C199 C 0.62092 0.05881 0.79682 0.0
H200 H 0.61976 0.13014 0.76069 0.0
C201 C 0.62138 0.1118 0.77112 0.0
C202 C 0.624 0.12017 0.79335 0.0
C203 C 0.62348 0.09293 0.80618 0.0
C204 C 0.61853 1.02762 0.80998 0.0
H205 H 0.62589 0.09909 0.82331 0.0
C206 C 0.62182 0.99594 0.80209 0.0
C207 C 0.61752 0.96768 0.81552 0.0
C208 C 0.61101 1.02878 0.83136 0.0
H209 H 0.60702 0.0501 0.83853 0.0
C210 C 0.60728 1.00211 0.8442 0.0
H211 H 0.62745 0.99296 0.78584 0.0
C212 C 0.61038 0.97241 0.83652 0.0
H213 H 0.60688 0.95251 0.84729 0.0
H214 H 0.60141 1.00431 0.86052 0.0
H215 H 0.55577 0.60417 0.09679 0.0
C216 C 0.57947 0.60534 0.10478 0.0
C217 C 0.60187 0.59785 0.09225 0.0
C218 C 0.58778 0.61513 0.12719 0.0
H219 H 0.65049 0.59565 0.09143 0.0
C220 C 0.63355 0.60021 0.10185 0.0
C221 C 0.6447 0.60923 0.12395 0.0
C222 C 0.62125 0.61689 0.13657 0.0
C223 C 0.56331 0.62626 0.14002 0.0
H224 H 0.62892 0.62345 0.15364 0.0
C225 C 0.52534 0.61695 0.13389 0.0
C226 C 0.50623 0.63056 0.14716 0.0
C227 C 0.58012 0.64955 0.15916 0.0
H228 H 0.608 0.65892 0.16465 0.0
C229 C 0.56259 0.6631 0.17145 0.0
H230 H 0.51076 0.59899 0.11938 0.0
C231 C 0.52711 0.65422 0.16561 0.0
H232 H 0.51599 0.66674 0.17592 0.0
H233 H 0.57711 0.68144 0.18588 0.0
H234 H 0.17769 0.61516 0.12024 0.0
H235 H 0.23398 0.61484 0.1164 0.0
H236 H 0.26448 0.64541 0.1843 0.0
H237 H 0.20917 0.64849 0.18762 0.0
H238 H 0.32298 0.66972 0.17345 0.0
H239 H 0.23186 0.54968 0.14555 0.0
H240 H 0.17878 0.50105 0.12251 0.0
H241 H 0.23259 0.53844 0.06671 0.0
H242 H 0.28581 0.58763 0.08941 0.0
H243 H 0.45837 0.61622 0.17791 0.0
H244 H 0.40206 0.61702 0.1778 0.0
H245 H 0.40128 0.62711 0.11055 0.0
H246 H 0.4597 0.6281 0.11076 0.0
H247 H 0.32917 0.58274 0.11981 0.0
H248 H 0.423 0.70094 0.15139 0.0
H249 H 0.47489 0.74533 0.17691 0.0
H250 H 0.41293 0.70403 0.22942 0.0
H251 H 0.36083 0.659 0.20421 0.0
C252 C 0.1965 0.62239 0.13444 0.0
C253 C 0.18786 0.63257 0.15425 0.0
C254 C 0.22924 0.6214 0.13232 0.0
C255 C 0.25528 0.62886 0.15004 0.0
C256 C 0.24649 0.63926 0.16988 0.0
C257 C 0.2141 0.64114 0.17189 0.0
C258 C 0.29107 0.62659 0.14805 0.0
C259 C 0.32335 0.64998 0.16179 0.0
C260 C 0.29452 0.60181 0.13286 0.0
C261 C 0.26258 0.5726 0.11915 0.0
C262 C 0.23224 0.54768 0.12835 0.0
C263 C 0.20216 0.52001 0.11536 0.0
C264 C 0.20227 0.51674 0.09316 0.0
C265 C 0.2325 0.54108 0.0839 0.0
C266 C 0.26262 0.56887 0.09682 0.0
C267 C 0.44682 0.61869 0.16281 0.0
C268 C 0.46574 0.62251 0.14439 0.0
C269 C 0.41374 0.61929 0.16285 0.0
C270 C 0.39597 0.62302 0.14435 0.0
C271 C 0.41332 0.62459 0.12544 0.0
C272 C 0.44727 0.62474 0.12549 0.0
C273 C 0.36041 0.62563 0.14526 0.0
C274 C 0.32838 0.60233 0.1314 0.0
C275 C 0.3568 0.64971 0.16075 0.0
C276 C 0.38818 0.67636 0.17592 0.0
C277 C 0.42057 0.70109 0.16839 0.0
C278 C 0.44999 0.72641 0.1828 0.0
C279 C 0.44724 0.72743 0.20478 0.0
C280 C 0.41504 0.70316 0.21239 0.0
C281 C 0.38557 0.67774 0.19805 0.0
H282 H 0.47004 0.7471 0.2159 0.0
H283 H 0.17896 0.49528 0.08313 0.0
H284 H 0.71126 0.17681 0.48719 0.0
H285 H 0.76769 0.23251 0.48417 0.0
H286 H 0.71241 0.29351 0.48848 0.0
H287 H 0.65546 0.23716 0.49053 0.0
H288 H 0.75831 0.32943 0.46621 0.0
H289 H 0.78656 0.29188 0.53051 0.0
H290 H 0.79387 0.25165 0.554 0.0
H291 H 0.8677 0.24361 0.51394 0.0
H292 H 0.86051 0.28347 0.49008 0.0
H293 H 0.92164 0.50599 0.4832 0.0
H294 H 0.86605 0.44891 0.48463 0.0
H295 H 0.92255 0.39033 0.47414 0.0
H296 H 0.97908 0.44841 0.47361 0.0
H297 H 0.87671 0.35283 0.49919 0.0
H298 H 0.84643 0.39294 0.43514 0.0
H299 H 0.83969 0.4366 0.41449 0.0
H300 H 0.76906 0.44261 0.45803 0.0
H301 H 0.77567 0.39923 0.47901 0.0
C302 C 0.7107 0.20194 0.4876 0.0
C303 C 0.67727 0.20097 0.48932 0.0
C304 C 0.74399 0.23482 0.4861 0.0
C305 C 0.74675 0.26961 0.48659 0.0
C306 C 0.71309 0.26845 0.48807 0.0
C307 C 0.67968 0.23546 0.48938 0.0
C308 C 0.78346 0.30623 0.48505 0.0
C309 C 0.78381 0.33408 0.47383 0.0
C310 C 0.81865 0.31462 0.4943 0.0
C311 C 0.82267 0.2903 0.50839 0.0
C312 C 0.80413 0.2813 0.52663 0.0
C313 C 0.80829 0.25861 0.54002 0.0
C314 C 0.83115 0.245 0.53543 0.0
C315 C 0.84994 0.2541 0.51745 0.0
C316 C 0.84585 0.27675 0.504 0.0
C317 C 0.92242 0.48106 0.48028 0.0
C318 C 0.95608 0.48341 0.47704 0.0
C319 C 0.88971 0.44743 0.4812 0.0
C320 C 0.88764 0.41296 0.47889 0.0
C321 C 0.92137 0.41515 0.47575 0.0
C322 C 0.95436 0.44908 0.47496 0.0
C323 C 0.85137 0.37584 0.48035 0.0
C324 C 0.85113 0.34796 0.49155 0.0
C325 C 0.81613 0.3676 0.47143 0.0
C326 C 0.81176 0.39313 0.45868 0.0
C327 C 0.82956 0.40368 0.44031 0.0
C328 C 0.82576 0.42836 0.42856 0.0
C329 C 0.80402 0.44242 0.43497 0.0
C330 C 0.78591 0.43172 0.45309 0.0
C331 C 0.78962 0.40706 0.46489 0.0
H332 H 0.80117 0.46158 0.42588 0.0
H333 H 0.83437 0.22747 0.54583 0.0
H334 H 0.55568 0.62525 0.81914 0.0
H335 H 0.55606 0.68272 0.81645 0.0
H336 H 0.67211 0.73983 0.82115 0.0
H337 H 0.67164 0.68295 0.82449 0.0
H338 H 0.66034 0.7851 0.84021 0.0
H339 H 0.60515 0.72003 0.77103 0.0
H340 H 0.56093 0.66898 0.74477 0.0
H341 H 0.4745 0.67829 0.76976 0.0
H342 H 0.51825 0.72929 0.79624 0.0
H343 H 0.67674 0.95598 0.81463 0.0
H344 H 0.67756 0.89876 0.81466 0.0
H345 H 0.56141 0.83936 0.80746 0.0
H346 H 0.56093 0.89647 0.80665 0.0
H347 H 0.57417 0.79498 0.78915 0.0
H348 H 0.63322 0.86229 0.85897 0.0
H349 H 0.67972 0.91159 0.8853 0.0
H350 H 0.76213 0.89755 0.85818 0.0
H351 H 0.71618 0.84843 0.8316 0.0
C352 C 0.58138 0.64994 0.81983 0.0
C353 C 0.61354 0.64814 0.82228 0.0
C354 C 0.5817 0.68349 0.81793 0.0
C355 C 0.61421 0.71737 0.81817 0.0
C356 C 0.64624 0.71536 0.82083 0.0
C357 C 0.6459 0.682 0.8227 0.0
C358 C 0.61535 0.75447 0.816 0.0
C359 C 0.64154 0.78688 0.82874 0.0
C360 C 0.59118 0.75883 0.80146 0.0
C361 C 0.56488 0.72819 0.7857 0.0
C362 C 0.57668 0.71102 0.77098 0.0
C363 C 0.55173 0.68215 0.75605 0.0
C364 C 0.51492 0.67034 0.75563 0.0
C365 C 0.50301 0.68745 0.77011 0.0
C366 C 0.52787 0.71637 0.78506 0.0
C367 C 0.65123 0.93074 0.81222 0.0
C368 C 0.61875 0.93206 0.80963 0.0
C369 C 0.65161 0.89728 0.81287 0.0
C370 C 0.61948 0.86281 0.81163 0.0
C371 C 0.5871 0.86425 0.8085 0.0
C372 C 0.58677 0.8976 0.80774 0.0
C373 C 0.61902 0.82585 0.81356 0.0
C374 C 0.59296 0.79335 0.80069 0.0
C375 C 0.64366 0.82152 0.82784 0.0
C376 C 0.67134 0.85211 0.84313 0.0
C377 C 0.66131 0.87005 0.85848 0.0
C378 C 0.68756 0.89787 0.87349 0.0
C379 C 0.72386 0.90779 0.87336 0.0
C380 C 0.73403 0.88994 0.85822 0.0
C381 C 0.70791 0.86213 0.84319 0.0
H382 H 0.74411 0.92924 0.88504 0.0
H383 H 0.49563 0.64798 0.74406 0.0
H384 H 0.93726 0.56559 0.13175 0.0
H385 H 0.87944 0.56511 0.12756 0.0
H386 H 0.92684 0.6663 0.16854 0.0
H387 H 0.98441 0.66695 0.17253 0.0
H388 H 0.86146 0.63014 0.17862 0.0
H389 H 0.90191 0.65436 0.11016 0.0
H390 H 0.92256 0.64622 0.07561 0.0
H391 H 0.82508 0.5437 0.05907 0.0
H392 H 0.80402 0.55103 0.09366 0.0
H393 H 0.70596 0.6581 0.15455 0.0
H394 H 0.76496 0.66121 0.16102 0.0
H395 H 0.72639 0.56482 0.11666 0.0
H396 H 0.66823 0.56134 0.11059 0.0
H397 H 0.78939 0.60174 0.1084 0.0
H398 H 0.74992 0.57789 0.1781 0.0
H399 H 0.73051 0.58766 0.2128 0.0
H400 H 0.8273 0.69139 0.22696 0.0
H401 H 0.84708 0.68241 0.19221 0.0
C402 C 0.93565 0.58782 0.14 0.0
C403 C 0.96684 0.61617 0.15269 0.0
C404 C 0.902 0.58775 0.13743 0.0
C405 C 0.89711 0.61585 0.14751 0.0
C406 C 0.92824 0.64387 0.16037 0.0
C407 C 0.9619 0.64422 0.16267 0.0
C408 C 0.86035 0.61608 0.14504 0.0
C409 C 0.8462 0.62428 0.16308 0.0
C410 C 0.83854 0.60819 0.1251 0.0
C411 C 0.85163 0.60301 0.10465 0.0
C412 C 0.88509 0.62985 0.09928 0.0
C413 C 0.89681 0.62545 0.07965 0.0
C414 C 0.87521 0.59439 0.06519 0.0
C415 C 0.84183 0.56769 0.07032 0.0
C416 C 0.82999 0.57195 0.08993 0.0
C417 C 0.70948 0.63698 0.14644 0.0
C418 C 0.68065 0.60951 0.13176 0.0
C419 C 0.74405 0.63882 0.15013 0.0
C420 C 0.75209 0.6133 0.13941 0.0
C421 C 0.7229 0.5856 0.12527 0.0
C422 C 0.68868 0.5836 0.12177 0.0
C423 C 0.78991 0.61504 0.14207 0.0
C424 C 0.80443 0.60739 0.12399 0.0
C425 C 0.81211 0.62358 0.16197 0.0
C426 C 0.79967 0.62971 0.18243 0.0
C427 C 0.76682 0.60299 0.1885 0.0
C428 C 0.75582 0.60833 0.2082 0.0
C429 C 0.77758 0.64019 0.22203 0.0
C430 C 0.81041 0.66678 0.21619 0.0
C431 C 0.82151 0.66159 0.1965 0.0
H432 H 0.76907 0.64422 0.23731 0.0
H433 H 0.88429 0.59107 0.04998 0.0
H434 H 0.48848 0.9461 0.48193 0.0
H435 H 0.43041 0.88913 0.47844 0.0
H436 H 0.37548 0.94974 0.48743 0.0
H437 H 0.43363 1.00663 0.49123 0.0
H438 H 0.33781 0.8946 0.5052 0.0
H439 H 0.37372 0.89368 0.43519 0.0
H440 H 0.41267 0.89583 0.40745 0.0
H441 H 0.41467 0.80335 0.42859 0.0
H442 H 0.37592 0.80084 0.45656 0.0
H443 H 0.15745 0.73703 0.47532 0.0
H444 H 0.21518 0.79425 0.47991 0.0
H445 H 0.27083 0.735 0.46824 0.0
H446 H 0.21265 0.67797 0.46278 0.0
H447 H 0.30813 0.79022 0.45173 0.0
H448 H 0.27112 0.79305 0.52264 0.0
H449 H 0.23086 0.79237 0.54919 0.0
H450 H 0.2297 0.88317 0.52475 0.0
H451 H 0.26972 0.88418 0.49797 0.0
C452 C 0.46421 0.94769 0.48317 0.0
C453 C 0.46724 0.98242 0.48695 0.0
C454 C 0.43011 0.91434 0.48091 0.0
C455 C 0.39645 0.91319 0.48218 0.0
C456 C 0.39967 0.94801 0.4862 0.0
C457 C 0.43372 0.98134 0.48837 0.0
C458 C 0.35872 0.87666 0.47982 0.0
C459 C 0.33169 0.8722 0.49321 0.0
C460 C 0.3486 0.84558 0.46461 0.0
C461 C 0.3723 0.84733 0.4481 0.0
C462 C 0.38272 0.87399 0.43402 0.0
C463 C 0.40468 0.87523 0.41823 0.0
C464 C 0.41623 0.84981 0.4163 0.0
C465 C 0.40576 0.82306 0.43013 0.0
C466 C 0.38377 0.82169 0.44593 0.0
C467 C 0.18195 0.73575 0.47449 0.0
C468 C 0.17908 0.70128 0.46964 0.0
C469 C 0.2159 0.76932 0.47712 0.0
C470 C 0.2497 0.77103 0.47515 0.0
C471 C 0.24664 0.73641 0.47023 0.0
C472 C 0.21266 0.70292 0.46743 0.0
C473 C 0.2873 0.80786 0.47734 0.0
C474 C 0.31431 0.81247 0.46383 0.0
C475 C 0.29727 0.83924 0.49231 0.0
C476 C 0.27305 0.83843 0.50821 0.0
C477 C 0.26207 0.8127 0.52287 0.0
C478 C 0.23935 0.8123 0.53796 0.0
C479 C 0.22765 0.83764 0.53861 0.0
C480 C 0.23872 0.86352 0.52421 0.0
C481 C 0.26144 0.86404 0.50909 0.0
H482 H 0.21006 0.83729 0.55031 0.0
H483 H 0.43321 0.85078 0.40406 0.0
H484 H 0.66687 0.45616 0.79989 0.0
H485 H 0.66655 0.39794 0.79575 0.0
H486 H 0.584 0.35447 0.83803 0.0
H487 H 0.58326 0.41182 0.8415 0.0
H488 H 0.63406 0.33297 0.84805 0.0
H489 H 0.56554 0.3262 0.78372 0.0
H490 H 0.5509 0.34263 0.74935 0.0
H491 H 0.63956 0.3382 0.72407 0.0
H492 H 0.65509 0.32226 0.75842 0.0
H493 H 0.59313 0.14242 0.82653 0.0
H494 H 0.59318 0.20039 0.83317 0.0
H495 H 0.66185 0.24266 0.78342 0.0
H496 H 0.6631 0.18645 0.77746 0.0
H497 H 0.61666 0.26414 0.77747 0.0
H498 H 0.68737 0.27345 0.84106 0.0
H499 H 0.70394 0.25778 0.87518 0.0
H500 H 0.61449 0.25888 0.90162 0.0
H501 H 0.59705 0.27405 0.86752 0.0
C502 C 0.64857 0.43439 0.8084 0.0
C503 C 0.62521 0.44001 0.8212 0.0
C504 C 0.64824 0.40042 0.80591 0.0
C505 C 0.62518 0.37026 0.81648 0.0
C506 C 0.60236 0.37621 0.82952 0.0
C507 C 0.60196 0.40968 0.83152 0.0
C508 C 0.62483 0.33317 0.81419 0.0
C509 C 0.62973 0.31793 0.8325 0.0
C510 C 0.62008 0.31245 0.79414 0.0
C511 C 0.61185 0.32363 0.7738 0.0
C512 C 0.58229 0.32931 0.77096 0.0
C513 C 0.57373 0.33837 0.75144 0.0
C514 C 0.59439 0.34163 0.73456 0.0
C515 C 0.62367 0.33581 0.73718 0.0
C516 C 0.63237 0.32678 0.75668 0.0
C517 C 0.60894 0.16416 0.81725 0.0
C518 C 0.62769 0.15797 0.80109 0.0
C519 C 0.60882 0.19793 0.82099 0.0
C520 C 0.62724 0.22745 0.80873 0.0
C521 C 0.64668 0.22141 0.79317 0.0
C522 C 0.6473 0.18834 0.78972 0.0
C523 C 0.62626 0.26395 0.81134 0.0
C524 C 0.62104 0.27911 0.79305 0.0
C525 C 0.63108 0.28475 0.83139 0.0
C526 C 0.64055 0.27428 0.85162 0.0
C527 C 0.67092 0.26983 0.85405 0.0
C528 C 0.68055 0.26117 0.8734 0.0
C529 C 0.66019 0.25717 0.89052 0.0
C530 C 0.63015 0.26184 0.88831 0.0
C531 C 0.62037 0.27045 0.86897 0.0
H532 H 0.66776 0.25058 0.90553 0.0
H533 H 0.58765 0.34854 0.71944 0.0
H534 H 0.52021 0.86991 0.46602 0.0
H535 H 0.53105 0.819 0.46718 0.0
H536 H 0.58846 0.86338 0.53041 0.0
H537 H 0.57683 0.9135 0.52965 0.0
H538 H 0.63106 0.86327 0.49562 0.0
H539 H 0.53309 0.79002 0.5304 0.0
H540 H 0.4703 0.76349 0.53865 0.0
H541 H 0.43301 0.69929 0.47717 0.0
H542 H 0.49567 0.72645 0.46821 0.0
H543 H 0.65387 0.71635 0.51187 0.0
H544 H 0.65757 0.77239 0.50659 0.0
H545 H 0.58943 0.72442 0.44669 0.0
H546 H 0.58611 0.66659 0.45145 0.0
H547 H 0.55528 0.7292 0.48255 0.0
H548 H 0.66551 0.80917 0.45185 0.0
H549 H 0.73116 0.83569 0.45127 0.0
H550 H 0.74963 0.8852 0.51602 0.0
H551 H 0.68408 0.85852 0.51711 0.0
C552 C 0.53271 0.86723 0.48072 0.0
C553 C 0.54857 0.89565 0.49748 0.0
C554 C 0.53941 0.83867 0.48126 0.0
C555 C 0.56146 0.83877 0.49863 0.0
C556 C 0.57184 0.86369 0.51686 0.0
C557 C 0.56454 0.8918 0.5165 0.0
C558 C 0.57816 0.81661 0.49595 0.0
C559 C 0.61483 0.83388 0.49293 0.0
C560 C 0.55669 0.77877 0.49286 0.0
C561 C 0.51909 0.76047 0.49854 0.0
C562 C 0.51151 0.77038 0.51856 0.0
C563 C 0.47593 0.75531 0.52336 0.0
C564 C 0.44766 0.72976 0.50843 0.0
C565 C 0.45497 0.71913 0.48871 0.0
C566 C 0.49053 0.73438 0.48374 0.0
C567 C 0.64162 0.71758 0.49667 0.0
C568 C 0.61807 0.68622 0.48246 0.0
C569 C 0.64414 0.75038 0.49365 0.0
C570 C 0.62285 0.75196 0.47661 0.0
C571 C 0.60555 0.72306 0.46012 0.0
C572 C 0.60315 0.68998 0.46305 0.0
C573 C 0.60797 0.77572 0.48074 0.0
C574 C 0.57156 0.7586 0.48466 0.0
C575 C 0.63034 0.81359 0.48574 0.0
C576 C 0.66984 0.83191 0.48451 0.0
C577 C 0.68358 0.82582 0.46594 0.0
C578 C 0.72078 0.8408 0.46554 0.0
C579 C 0.74455 0.86215 0.48359 0.0
C580 C 0.73119 0.86876 0.50203 0.0
C581 C 0.69401 0.85381 0.50251 0.0
H582 H 0.77333 0.87356 0.48329 0.0
H583 H 0.42009 0.71814 0.51215 0.0
H584 H 0.76061 0.46855 0.81299 0.0
H585 H 0.81011 0.4569 0.82219 0.0
H586 H 0.88728 0.56677 0.81204 0.0
H587 H 0.83836 0.57764 0.80189 0.0
H588 H 0.90348 0.52354 0.79408 0.0
H589 H 0.87419 0.54463 0.86158 0.0
H590 H 0.84008 0.5413 0.89221 0.0
H591 H 0.81377 0.43088 0.89544 0.0
H592 H 0.84715 0.43326 0.86456 0.0
H593 H 1.05268 0.53344 0.85462 0.0
H594 H 1.00481 0.53902 0.83657 0.0
H595 H 0.93135 0.42464 0.83807 0.0
H596 H 0.98028 0.41899 0.85676 0.0
H597 H 0.91408 0.47082 0.85972 0.0
H598 H 0.95741 0.46669 0.7878 0.0
H599 H 1.00247 0.48981 0.76194 0.0
H600 H 1.01834 0.59696 0.77662 0.0
H601 H 0.97364 0.57456 0.80255 0.0
C602 C 0.7882 0.48937 0.81191 0.0
C603 C 0.79623 0.52338 0.80616 0.0
C604 C 0.81617 0.48318 0.81767 0.0
C605 C 0.85184 0.51128 0.81802 0.0
C606 C 0.85968 0.5449 0.81173 0.0
C607 C 0.8319 0.55077 0.80553 0.0
C608 C 0.88128 0.50497 0.82344 0.0
C609 C 0.90601 0.51221 0.80853 0.0
C610 C 0.8845 0.49108 0.84251 0.0
C611 C 0.86277 0.48893 0.86046 0.0
C612 C 0.86062 0.5194 0.86854 0.0
C613 C 0.84153 0.51775 0.88604 0.0
C614 C 0.82464 0.48585 0.89571 0.0
C615 C 0.82676 0.45554 0.88789 0.0
C616 C 0.84575 0.45702 0.87038 0.0
C617 C 1.02666 0.50915 0.85037 0.0
C618 C 1.01981 0.47562 0.85672 0.0
C619 C 0.99952 0.51234 0.83985 0.0
C620 C 0.96512 0.482 0.83552 0.0
C621 C 0.95832 0.44801 0.841 0.0
C622 C 0.98579 0.4448 0.85173 0.0
C623 C 0.93532 0.48789 0.82986 0.0
C624 C 0.91088 0.4813 0.84507 0.0
C625 C 0.93419 0.50547 0.81198 0.0
C626 C 0.96241 0.51892 0.7972 0.0
C627 C 0.97085 0.49522 0.78567 0.0
C628 C 0.99622 0.50821 0.77094 0.0
C629 C 1.01331 0.54483 0.76767 0.0
C630 C 1.00515 0.56862 0.77915 0.0
C631 C 0.97979 0.55578 0.79383 0.0
H632 H 1.03282 0.55475 0.75621 0.0
H633 H 0.81001 0.48467 0.9093 0.0
H634 H 0.30227 0.78705 0.18416 0.0
H635 H 0.36054 0.84385 0.18783 0.0
H636 H 0.30996 0.89552 0.15494 0.0
H637 H 0.2526 0.8391 0.15071 0.0
H638 H 0.36574 0.89871 0.13709 0.0
H639 H 0.33548 0.92264 0.20339 0.0
H640 H 0.31292 0.91137 0.23861 0.0
H641 H 0.40368 0.9016 0.26161 0.0
H642 H 0.4265 0.91202 0.22633 0.0
H643 H 0.50562 0.07519 0.16005 0.0
H644 H 0.4559 1.01653 0.15008 0.0
H645 H 0.508 0.9702 0.18683 0.0
H646 H 0.55905 1.03114 0.19827 0.0
H647 H 0.44958 0.9647 0.203 0.0
H648 H 0.47486 0.94426 0.12893 0.0
H649 H 0.49078 0.96501 0.0936 0.0
H650 H 0.39981 0.98149 0.08647 0.0
H651 H 0.38354 0.96112 0.12175 0.0
C652 C 0.30429 0.81048 0.17735 0.0
C653 C 0.27426 0.80912 0.16646 0.0
C654 C 0.33679 0.84271 0.1799 0.0
C655 C 0.33856 0.87318 0.17184 0.0
C656 C 0.30839 0.87185 0.16122 0.0
C657 C 0.27627 0.8397 0.15837 0.0
C658 C 0.37308 0.90484 0.17158 0.0
C659 C 0.3842 0.91347 0.15146 0.0
C660 C 0.39594 0.92362 0.19052 0.0
C661 C 0.38261 0.91776 0.21201 0.0
C662 C 0.35052 0.91771 0.21584 0.0
C663 C 0.33768 0.91152 0.23585 0.0
C664 C 0.3568 0.90567 0.25232 0.0
C665 C 0.38887 0.9061 0.24881 0.0
C666 C 0.4018 0.91217 0.22879 0.0
C667 C 0.50828 0.05286 0.16513 0.0
C668 C 0.53592 0.05802 0.18067 0.0
C669 C 0.47935 1.01874 0.15912 0.0
C670 C 0.47839 0.98913 0.16771 0.0
C671 C 0.50864 0.9932 0.18019 0.0
C672 C 0.53759 1.02784 0.18671 0.0
C673 C 0.44327 0.95739 0.16829 0.0
C674 C 0.43154 0.94929 0.18861 0.0
C675 C 0.41892 0.94031 0.14954 0.0
C676 C 0.42804 0.95109 0.12794 0.0
C677 C 0.45828 0.95227 0.11979 0.0
C678 C 0.46735 0.964 0.09979 0.0
C679 C 0.44632 0.97455 0.0878 0.0
C680 C 0.41603 0.97322 0.09573 0.0
C681 C 0.4068 0.96144 0.11568 0.0
H682 H 0.45351 0.98376 0.07236 0.0
H683 H 0.34683 0.90089 0.2678 0.0
H684 H 0.59135 0.28257 0.51336 0.0
H685 H 0.61852 0.34848 0.51752 0.0
H686 H 0.55583 0.34116 0.45907 0.0
H687 H 0.52908 0.27477 0.45468 0.0
H688 H 0.62439 0.39624 0.46285 0.0
H689 H 0.52754 0.34999 0.50341 0.0
H690 H 0.48691 0.31187 0.52827 0.0
H691 H 0.57036 0.36919 0.58065 0.0
H692 H 0.61213 0.40678 0.55601 0.0
H693 H 0.65861 0.57252 0.49634 0.0
H694 H 0.63974 0.51235 0.48245 0.0
H695 H 0.69315 0.49886 0.53826 0.0
H696 H 0.7131 0.56091 0.55321 0.0
H697 H 0.61867 0.45353 0.53284 0.0
H698 H 0.71659 0.49288 0.487 0.0
H699 H 0.75186 0.53084 0.46014 0.0
H700 H 0.6558 0.48611 0.41585 0.0
H701 H 0.6199 0.44833 0.4426 0.0
C702 C 0.58393 0.29533 0.50133 0.0
C703 C 0.55806 0.27462 0.48394 0.0
C704 C 0.59908 0.33254 0.50375 0.0
C705 C 0.58793 0.34886 0.48894 0.0
C706 C 0.56393 0.32839 0.47073 0.0
C707 C 0.54893 0.29098 0.46821 0.0
C708 C 0.60169 0.38753 0.49285 0.0
C709 C 0.62277 0.40893 0.478 0.0
C710 C 0.59865 0.4033 0.51254 0.0
C711 C 0.57328 0.38117 0.52769 0.0
C712 C 0.53751 0.3543 0.52017 0.0
C713 C 0.51421 0.33271 0.53425 0.0
C714 C 0.52607 0.33805 0.55602 0.0
C715 C 0.56124 0.36503 0.56376 0.0
C716 C 0.58478 0.38647 0.54971 0.0
C717 C 0.66829 0.5584 0.50584 0.0
C718 C 0.68528 0.57152 0.52711 0.0
C719 C 0.65708 0.52323 0.49748 0.0
C720 C 0.66426 0.50114 0.50962 0.0
C721 C 0.68672 0.51574 0.52899 0.0
C722 C 0.69794 0.5512 0.53752 0.0
C723 C 0.6438 0.46201 0.50355 0.0
C724 C 0.62045 0.4407 0.5178 0.0
C725 C 0.64381 0.44628 0.48307 0.0
C726 C 0.66563 0.468 0.46681 0.0
C727 C 0.70303 0.49126 0.47155 0.0
C728 C 0.72309 0.51274 0.45636 0.0
C729 C 0.70607 0.51094 0.43631 0.0
C730 C 0.66895 0.4875 0.43138 0.0
C731 C 0.64875 0.46601 0.44654 0.0
H732 H 0.72167 0.52768 0.42459 0.0
H733 H 0.50798 0.32135 0.5669 0.0
H734 H 0.44371 0.56342 0.8607 0.0
H735 H 0.38057 0.54463 0.86239 0.0
H736 H 0.36959 0.55851 0.7958 0.0
H737 H 0.433 0.5766 0.79371 0.0
H738 H 0.33724 0.5845 0.83527 0.0
H739 H 0.34612 0.48261 0.79362 0.0
H740 H 0.36398 0.4357 0.79128 0.0
H741 H 0.31902 0.39991 0.84978 0.0
H742 H 0.30111 0.4468 0.85246 0.0
H743 H 0.18917 0.53859 0.78493 0.0
H744 H 0.23968 0.5285 0.78403 0.0
H745 H 0.19696 0.45189 0.82998 0.0
H746 H 0.14252 0.45641 0.82772 0.0
H747 H 0.2548 0.45231 0.81387 0.0
H748 H 0.23659 0.54402 0.85319 0.0
H749 H 0.21955 0.59129 0.85896 0.0
H750 H 0.28372 0.64776 0.81015 0.0
H751 H 0.30157 0.60121 0.8044 0.0
C752 C 0.42851 0.56461 0.84671 0.0
C753 C 0.44264 0.57077 0.8269 0.0
C754 C 0.39235 0.55287 0.84764 0.0
C755 C 0.37106 0.54882 0.82899 0.0
C756 C 0.38627 0.56073 0.8101 0.0
C757 C 0.42239 0.57198 0.80905 0.0
C758 C 0.33261 0.53221 0.82889 0.0
C759 C 0.31901 0.5556 0.83078 0.0
C760 C 0.30951 0.4944 0.82414 0.0
C761 C 0.32291 0.46849 0.82342 0.0
C762 C 0.34067 0.46514 0.80616 0.0
C763 C 0.35057 0.43842 0.80471 0.0
C764 C 0.34276 0.41492 0.82041 0.0
C765 C 0.32518 0.4182 0.83767 0.0
C766 C 0.31519 0.44485 0.83917 0.0
C767 C 0.1886 0.51724 0.79343 0.0
C768 C 0.16422 0.50138 0.80846 0.0
C769 C 0.21787 0.51173 0.79306 0.0
C770 C 0.22303 0.4922 0.80846 0.0
C771 C 0.19398 0.46855 0.81876 0.0
C772 C 0.16325 0.4718 0.8177 0.0
C773 C 0.25967 0.5052 0.81817 0.0
C774 C 0.27275 0.48107 0.81882 0.0
C775 C 0.28253 0.54249 0.82576 0.0
C776 C 0.26981 0.56892 0.82813 0.0
C777 C 0.24664 0.56631 0.84354 0.0
C778 C 0.23706 0.59308 0.8469 0.0
C779 C 0.25026 0.6223 0.8348 0.0
C780 C 0.27332 0.62501 0.81942 0.0
C781 C 0.28328 0.59856 0.81617 0.0
H782 H 0.24276 0.64295 0.83741 0.0
H783 H 0.35019 0.39407 0.81917 0.0
H784 H 0.87753 0.43196 0.09516 0.0
H785 H 0.83198 0.37421 0.10325 0.0
H786 H 0.81816 0.42493 0.16104 0.0
H787 H 0.86672 0.48376 0.15361 0.0
H788 H 0.83742 0.37603 0.16988 0.0
H789 H 0.75025 0.37846 0.11923 0.0
H790 H 0.73165 0.38997 0.08424 0.0
H791 H 0.74677 0.30654 0.05267 0.0
H792 H 0.76608 0.29495 0.08748 0.0
H793 H 0.67548 0.27719 0.1934 0.0
H794 H 0.73883 0.30557 0.19016 0.0
H795 H 0.71918 0.2199 0.14067 0.0
H796 H 0.6542 0.19262 0.14314 0.0
H797 H 0.73273 0.2755 0.12385 0.0
H798 H 0.7997 0.26278 0.1812 0.0
H799 H 0.81057 0.25289 0.21829 0.0
H800 H 0.82284 0.35598 0.24141 0.0
H801 H 0.81186 0.36651 0.20454 0.0
C802 C 0.86343 0.43157 0.10891 0.0
C803 C 0.87685 0.4618 0.12444 0.0
C804 C 0.83752 0.39814 0.11367 0.0
C805 C 0.82263 0.39538 0.13304 0.0
C806 C 0.83034 0.42677 0.14628 0.0
C807 C 0.8572 0.46035 0.14174 0.0
C808 C 0.80237 0.35968 0.14025 0.0
C809 C 0.81411 0.3539 0.16012 0.0
C810 C 0.77375 0.33074 0.12675 0.0
C811 C 0.75977 0.33594 0.10594 0.0
C812 C 0.74956 0.36253 0.10482 0.0
C813 C 0.73899 0.36914 0.08502 0.0
C814 C 0.73807 0.34903 0.06624 0.0
C815 C 0.74748 0.32208 0.06724 0.0
C816 C 0.75818 0.31543 0.087 0.0
C817 C 0.68492 0.26434 0.18203 0.0
C818 C 0.66067 0.2348 0.16736 0.0
C819 C 0.72144 0.27963 0.18074 0.0
C820 C 0.73395 0.26538 0.1647 0.0
C821 C 0.70991 0.23166 0.15284 0.0
C822 C 0.67301 0.2169 0.15369 0.0
C823 C 0.76481 0.29201 0.15482 0.0
C824 C 0.75642 0.29677 0.1338 0.0
C825 C 0.79546 0.32016 0.16773 0.0
C826 C 0.80541 0.31562 0.18992 0.0
C827 C 0.80507 0.28353 0.19415 0.0
C828 C 0.81113 0.27776 0.21518 0.0
C829 C 0.81752 0.30384 0.23219 0.0
C830 C 0.81817 0.33592 0.2282 0.0
C831 C 0.81232 0.34194 0.20719 0.0
H832 H 0.82188 0.29916 0.24846 0.0
H833 H 0.73004 0.3543 0.05091 0.0
H834 H 1.04288 0.64313 0.08332 0.0
H835 H 1.04078 0.62166 0.04572 0.0
H836 H 0.10059 0.56979 0.06532 0.0
H837 H 0.10341 0.59164 0.10261 0.0
H838 H 0.12966 0.61068 0.03398 0.0
H839 H 1.01121 0.52063 0.04811 0.0
H840 H 0.95018 0.49791 0.05903 0.0
H841 H 0.92471 0.5476 0.00913 0.0
H842 H 0.98576 0.57098 -0.00195 0.0
H843 H 0.11326 0.50495 0.9384 0.0
H844 H 0.10783 0.52368 0.97509 0.0
H845 H 1.04975 0.57451 0.95052 0.0
H846 H 0.05441 0.55482 0.91383 0.0
H847 H 1.01877 0.53578 0.98343 0.0
H848 H 0.13679 0.62612 0.96945 0.0
H849 H 0.19596 0.64491 0.95657 0.0
H850 H 0.22095 0.59311 0.00538 0.0
H851 H 0.16163 0.57351 0.01834 0.0
C852 C 0.05539 0.627 0.07954 0.0
C853 C 0.07337 0.61911 0.09582 0.0
C854 C 0.054 0.6146 0.05812 0.0
C855 C 0.07044 0.59405 0.05278 0.0
C856 C 0.08783 0.58569 0.0691 0.0
C857 C 0.08932 0.59812 0.0904 0.0
C858 C 0.07147 0.58283 0.03018 0.0
C859 C 0.10535 0.59402 0.02302 0.0
C860 C 1.03982 0.56187 0.01572 0.0
C861 C 1.00324 0.54803 0.02247 0.0
C862 C 0.99274 0.52707 0.03962 0.0
C863 C 0.95812 0.51401 0.04582 0.0
C864 C 0.93367 0.52152 0.03488 0.0
C865 C 0.94372 0.54193 0.01765 0.0
C866 C 0.97832 0.55508 0.0114 0.0
C867 C 0.09986 0.52057 0.941 0.0
C868 C 0.08494 0.52933 0.92368 0.0
C869 C 0.09654 0.53102 0.96181 0.0
C870 C 0.0787 0.55077 0.96543 0.0
C871 C 0.0636 0.55932 0.94801 0.0
C872 C 0.06664 0.54856 0.9272 0.0
C873 C 0.07683 0.56342 0.98748 0.0
C874 C 1.04295 0.55262 -0.00555 0.0
C875 C 0.10841 0.58487 0.0018 0.0
C876 C 0.14482 0.59832 -0.00517 0.0
C877 C 0.15494 0.61878 0.97744 0.0
C878 C 0.18845 0.62949 0.9701 0.0
C879 C 0.2122 0.6202 0.98015 0.0
C880 C 0.20254 0.60032 -0.00237 0.0
C881 C 0.16901 0.58946 0.00501 0.0
H882 H 0.23809 0.62841 0.97439 0.0
H883 H 0.90687 0.51139 0.03972 0.0
H884 H 0.51002 0.08774 0.42577 0.0
H885 H 0.51089 0.09551 0.38748 0.0
H886 H 0.61413 0.10054 0.38887 0.0
H887 H 0.61332 0.09324 0.42704 0.0
H888 H 0.6147 0.15181 0.36775 0.0
H889 H 0.53875 1.0252 0.36762 0.0
H890 H 0.48826 0.96797 0.37629 0.0
H891 H 0.41238 0.99352 0.34613 0.0
H892 H 0.46244 0.05133 0.33768 0.0
H893 H 0.61126 0.11595 0.25453 0.0
H894 H 0.61121 0.11017 0.29295 0.0
H895 H 0.52067 0.12812 0.29435 0.0
H896 H 0.52101 0.13441 0.25594 0.0
H897 H 0.51413 0.06469 0.31344 0.0
H898 H 0.59634 0.19382 0.31384 0.0
H899 H 0.64987 0.24551 0.30253 0.0
H900 H 0.71764 0.20802 0.33028 0.0
H901 H 0.66436 0.15567 0.34139 0.0
C902 C 0.53291 0.0909 0.4178 0.0
C903 C 0.56176 0.09033 0.42903 0.0
C904 C 0.53331 0.09501 0.39602 0.0
C905 C 0.56247 0.09831 0.38538 0.0
C906 C 0.59146 0.09813 0.39682 0.0
C907 C 0.59104 0.09404 0.41851 0.0
C908 C 0.56309 0.10241 0.36235 0.0
C909 C 0.5928 0.13257 0.35589 0.0
C910 C 0.53455 0.07727 0.34688 0.0
C911 C 0.50436 0.0429 0.35234 0.0
C912 C 0.5113 1.01889 0.36311 0.0
C913 C 0.48275 0.98628 0.36793 0.0
C914 C 0.44713 0.97719 0.36185 0.0
C915 C 0.43998 1.00066 0.35091 0.0
C916 C 0.46843 1.03337 0.34612 0.0
C917 C 0.59175 0.11913 0.2632 0.0
C918 C 0.56636 0.12596 0.25263 0.0
C919 C 0.59165 0.11572 0.28498 0.0
C920 C 0.56593 0.11875 0.29628 0.0
C921 C 0.54067 0.12576 0.28574 0.0
C922 C 0.54109 0.12969 0.26401 0.0
C923 C 0.56523 0.1143 0.31914 0.0
C924 C 0.53571 0.08397 0.32546 0.0
C925 C 0.59429 0.13872 0.33441 0.0
C926 C 0.62637 0.17073 0.3283 0.0
C927 C 0.62264 0.19649 0.31742 0.0
C928 C 0.65292 0.2259 0.31104 0.0
C929 C 0.68713 0.23002 0.31565 0.0
C930 C 0.69113 0.20478 0.32671 0.0
C931 C 0.6609 0.17526 0.33306 0.0
H932 H 0.71055 0.25279 0.31068 0.0
H933 H 0.42506 0.95189 0.36556 0.0
H934 H 0.56985 0.48054 0.74963 0.0
H935 H 0.58098 0.49313 0.71275 0.0
H936 H 0.66662 0.60183 0.73591 0.0
H937 H 0.65364 0.59021 0.77247 0.0
H938 H 0.62728 0.60636 0.70681 0.0
H939 H 0.68107 0.53216 0.71143 0.0
H940 H 0.68621 0.47865 0.71834 0.0
H941 H 0.59698 0.41198 0.6704 0.0
H942 H 0.59092 0.46495 0.66345 0.0
H943 H 0.69105 0.64395 0.60444 0.0
H944 H 0.6852 0.63176 0.64181 0.0
H945 H 0.58296 0.53418 0.6222 0.0
H946 H 0.58873 0.54668 0.58473 0.0
H947 H 0.6343 0.52546 0.64898 0.0
H948 H 0.57974 0.60156 0.64719 0.0
H949 H 0.57915 0.65702 0.63923 0.0
H950 H 0.67697 0.72226 0.68146 0.0
H951 H 0.67825 0.66713 0.68952 0.0
C952 C 0.59123 0.50696 0.74678 0.0
C953 C 0.61098 0.53436 0.76384 0.0
C954 C 0.59784 0.51405 0.72574 0.0
C955 C 0.62498 0.54833 0.72153 0.0
C956 C 0.64554 0.57521 0.73871 0.0
C957 C 0.63827 0.56845 0.75963 0.0
C958 C 0.62964 0.55737 0.69929 0.0
C959 C 0.62943 0.58884 0.69432 0.0
C960 C 0.6319 0.53441 0.6828 0.0
C961 C 0.63527 0.50245 0.68711 0.0
C962 C 0.66231 0.50601 0.70252 0.0
C963 C 0.66543 0.47579 0.70641 0.0
C964 C 0.64185 0.44191 0.69487 0.0
C965 C 0.61517 0.43821 0.67937 0.0
C966 C 0.61189 0.46833 0.67545 0.0
C967 C 0.66709 0.62034 0.60829 0.0
C968 C 0.64013 0.59633 0.5921 0.0
C969 C 0.66382 0.61335 0.62948 0.0
C970 C 0.63369 0.58211 0.63459 0.0
C971 C 0.60637 0.5584 0.61841 0.0
C972 C 0.60946 0.56564 0.5972 0.0
C973 C 0.63133 0.57375 0.65683 0.0
C974 C 0.63222 0.5427 0.66169 0.0
C975 C 0.6303 0.59729 0.6733 0.0
C976 C 0.62918 0.63033 0.66886 0.0
C977 C 0.60117 0.62777 0.65471 0.0
C978 C 0.6007 0.65912 0.65019 0.0
C979 C 0.62803 0.69315 0.65981 0.0
C980 C 0.65581 0.69589 0.67403 0.0
C981 C 0.65638 0.6646 0.67861 0.0
H982 H 0.62765 0.7174 0.65626 0.0
H983 H 0.6443 0.41854 0.69791 0.0
H984 H 0.62508 0.14967 0.56814 0.0
H985 H 0.63076 0.14054 0.60574 0.0
H986 H 0.55763 1.02572 0.58966 0.0
H987 H 0.55237 1.03466 0.55171 0.0
H988 H 0.54358 0.06181 0.62765 0.0
H989 H 0.63895 0.04863 0.59925 0.0
H990 H 0.69142 0.06889 0.57878 0.0
H991 H 0.75012 0.16686 0.62241 0.0
H992 H 0.69767 0.1475 0.64289 0.0
H993 H 0.5734 1.02148 0.73222 0.0
H994 H 0.56752 1.01894 0.693 0.0
H995 H 0.65836 0.1277 0.69778 0.0
H996 H 0.66472 0.12993 0.73669 0.0
H997 H 0.66173 0.08992 0.66439 0.0
H998 H 0.57071 0.10966 0.6911 0.0
H999 H 0.51906 0.09731 0.71118 0.0
H1000 H 0.4534 0.9961 0.67123 0.0
H1001 H 0.50495 1.00753 0.65118 0.0
C1002 C 0.61035 0.1224 0.57255 0.0
C1003 C 0.58836 0.09288 0.5569 0.0
C1004 C 0.61355 0.11724 0.59409 0.0
C1005 C 0.59455 0.08246 0.60062 0.0
C1006 C 0.57244 0.05283 0.58505 0.0
C1007 C 0.56966 0.05792 0.56335 0.0
C1008 C 0.59861 0.07738 0.62367 0.0
C1009 C 0.56917 0.06714 0.6356 0.0
C1010 C 0.63232 0.08569 0.6343 0.0
C1011 C 0.66433 0.09672 0.62252 0.0
C1012 C 0.663 0.07457 0.60442 0.0
C1013 C 0.69272 0.0859 0.59281 0.0
C1014 C 0.72407 0.11917 0.59927 0.0
C1015 C 0.72581 0.1411 0.61742 0.0
C1016 C 0.6961 0.12995 0.62905 0.0
C1017 C 0.59256 0.04448 0.72485 0.0
C1018 C 0.61939 0.07596 0.73763 0.0
C1019 C 0.58898 0.04321 0.70241 0.0
C1020 C 0.61211 0.07339 0.69225 0.0
C1021 C 0.64003 0.10405 0.70502 0.0
C1022 C 0.64357 0.10534 0.72735 0.0
C1023 C 0.60653 0.07396 0.66855 0.0
C1024 C 0.63584 0.0838 0.65647 0.0
C1025 C 0.57287 0.06607 0.6579 0.0
C1026 C 0.5418 0.05919 0.66983 0.0
C1027 C 0.54535 0.0846 0.68672 0.0
C1028 C 0.51609 0.07779 0.69809 0.0
C1029 C 0.483 0.04588 0.69253 0.0
C1030 C 0.47908 1.02076 0.67556 0.0
C1031 C 0.50832 1.02737 0.6642 0.0
H1032 H 0.46035 0.04066 0.70133 0.0
H1033 H 0.74705 0.12793 0.59024 0.0
H1034 H 0.60677 0.5039 0.89004 0.0
H1035 H 0.59474 0.50431 0.92771 0.0
H1036 H 0.62544 0.61741 0.93021 0.0
H1037 H 0.63901 0.61736 0.89327 0.0
H1038 H 0.65642 0.61069 0.96324 0.0
H1039 H 0.53373 0.5403 0.92912 0.0
H1040 H 0.48248 0.48869 0.90655 0.0
H1041 H 0.48966 0.41458 0.94638 0.0
H1042 H 0.54139 0.4657 0.96896 0.0
H1043 H 0.60001 0.64025 0.06215 0.0
H1044 H 0.59925 0.62935 0.02322 0.0
H1045 H 0.58734 0.52425 0.02985 0.0
H1046 H 0.58858 0.53537 0.06874 0.0
H1047 H 0.54602 0.52277 -0.00709 0.0
H1048 H 0.66751 0.59146 0.02635 0.0
H1049 H 0.72005 0.64182 0.04878 0.0
H1050 H 0.71563 0.71797 0.00956 0.0
H1051 H 0.66257 0.6681 0.98715 0.0
C1052 C 0.61077 0.52874 0.89869 0.0
C1053 C 0.62423 0.56073 0.88874 0.0
C1054 C 0.60364 0.52894 0.92022 0.0
C1055 C 0.60898 0.56093 0.93209 0.0
C1056 C 0.62134 0.59241 0.92174 0.0
C1057 C 0.62907 0.59237 0.9005 0.0
C1058 C 0.60399 0.56293 0.9555 0.0
C1059 C 0.63187 0.5917 0.96951 0.0
C1060 C 0.57272 0.5375 0.96422 0.0
C1061 C 0.54168 0.50681 0.9506 0.0
C1062 C 0.52458 0.51298 0.93296 0.0
C1063 C 0.49542 0.48381 0.92017 0.0
C1064 C 0.48287 0.44837 0.925 0.0
C1065 C 0.49944 0.44203 0.94264 0.0
C1066 C 0.52869 0.47109 0.95543 0.0
C1067 C 0.59618 0.61444 0.05521 0.0
C1068 C 0.59388 0.58849 0.06848 0.0
C1069 C 0.59606 0.6083 0.03296 0.0
C1070 C 0.59343 0.57599 0.02347 0.0
C1071 C 0.58924 0.54929 0.03664 0.0
C1072 C 0.58986 0.55563 0.05888 0.0
C1073 C 0.59786 0.57129 0.00021 0.0
C1074 C 0.57024 0.54188 0.98641 0.0
C1075 C 0.62935 0.59606 -0.00844 0.0
C1076 C 0.6608 0.62611 0.00525 0.0
C1077 C 0.67746 0.61899 0.02267 0.0
C1078 C 0.70739 0.64744 0.03535 0.0
C1079 C 0.72111 0.68308 0.03064 0.0
C1080 C 0.70492 0.69036 0.01323 0.0
C1081 C 0.6749 0.66202 0.00055 0.0
H1082 H 0.74436 0.70507 0.04043 0.0
H1083 H 0.46026 0.42583 0.91511 0.0
H1084 H 0.06437 0.65702 0.22274 0.0
H1085 H 0.07279 0.66803 0.2622 0.0
H1086 H 0.10209 0.5849 0.26449 0.0
H1087 H 0.09159 0.57263 0.22562 0.0
H1088 H 0.05429 0.57121 0.28874 0.0
H1089 H 0.1613 0.68332 0.27945 0.0
H1090 H 0.19771 0.7442 0.26828 0.0
H1091 H 0.13838 0.78278 0.30365 0.0
H1092 H 0.10116 0.72199 0.31469 0.0
H1093 H 0.10871 0.58494 0.3992 0.0
H1094 H 0.10578 0.58562 0.36027 0.0
H1095 H 0.07555 0.66825 0.36641 0.0
H1096 H 0.08005 0.66847 0.40545 0.0
H1097 H 0.12083 0.68511 0.33831 0.0
H1098 H 1.01383 0.57356 0.34675 0.0
H1099 H 0.97722 0.51282 0.3581 0.0
H1100 H 1.03728 0.474 0.32367 0.0
H1101 H 0.07461 0.53463 0.31243 0.0
C1102 C 0.0728 0.64134 0.23177 0.0
C1103 C 0.07652 0.61336 0.22107 0.0
C1104 C 0.07795 0.64785 0.25438 0.0
C1105 C 0.08791 0.62717 0.26668 0.0
C1106 C 0.09381 0.60093 0.25568 0.0
C1107 C 0.08773 0.59382 0.23334 0.0
C1108 C 0.08845 0.62916 0.29072 0.0
C1109 C 0.06951 0.59628 0.29946 0.0
C1110 C 0.10668 0.6618 0.30508 0.0
C1111 C 0.12802 0.69788 0.2976 0.0
C1112 C 0.15561 0.70461 0.28456 0.0
C1113 C 0.1765 0.73916 0.27832 0.0
C1114 C 0.17026 0.7673 0.28517 0.0
C1115 C 0.1431 0.76094 0.29827 0.0
C1116 C 0.12207 0.72643 0.3045 0.0
C1117 C 0.10073 0.60267 0.39214 0.0
C1118 C 0.09369 0.62596 0.40529 0.0
C1119 C 0.0991 0.60317 0.36983 0.0
C1120 C 0.08978 0.62656 0.36003 0.0
C1121 C 0.08269 0.64982 0.37331 0.0
C1122 C 0.08481 0.64964 0.39564 0.0
C1123 C 0.08777 0.62698 0.33608 0.0
C1124 C 0.10592 0.66019 0.32744 0.0
C1125 C 0.06889 0.5947 0.32163 0.0
C1126 C 1.04719 0.55866 0.32895 0.0
C1127 C 1.01945 0.55215 0.34181 0.0
C1128 C 0.99854 0.51773 0.34818 0.0
C1129 C 1.00497 0.4896 0.34165 0.0
C1130 C 1.03237 0.49582 0.32876 0.0
C1131 C 1.05341 0.53019 0.3224 0.0
H1132 H 0.98866 0.46293 0.34654 0.0
H1133 H 0.18657 0.79406 0.2804 0.0
loop_
_geom_bond_atom_site_label_1
_geom_bond_atom_site_label_2
_geom_bond_distance
_geom_bond_site_symmetry_2
_ccdc_geom_bond_type
C0 Eu1 2.835 1_655 S
C0 C2 1.500 . S
C0 O20 1.257 . S
C0 O21 1.260 . S
Eu1 C0 2.835 1_455 S
Eu1 O20 2.473 1_455 S
Eu1 O21 2.480 1_455 S
Eu1 O22 2.430 . S
Eu1 O23 2.670 . S
Eu1 O24 2.394 1_455 S
Eu1 O29 2.355 . S
Eu1 O31 2.374 . S
C2 C0 1.500 . S
C2 C3 1.377 . S
C2 C7 1.377 . S
C3 C2 1.377 . S
C3 C4 1.395 . S
C3 H32 0.931 . S
C4 C3 1.395 . S
C4 C5 1.383 . S
C4 H33 0.931 . S
C5 C4 1.383 . S
C5 C6 1.394 . S
C6 C5 1.394 . S
C6 C7 1.378 . S
C6 H34 0.931 . S
C7 C2 1.377 . S
C7 C6 1.378 . S
C7 H35 0.931 . S
C8 O22 1.259 . S
C8 O23 1.270 . S
C9 O24 1.251 . S
C9 O25 1.251 . S
C10 Eu11 2.835 . S
C10 C12 1.500 . S
C10 O26 1.257 . S
C10 O27 1.260 . S
Eu11 C10 2.835 . S
Eu11 O23 2.355 . S
Eu11 O25 2.374 1_455 S
Eu11 O26 2.473 . S
Eu11 O27 2.480 . S
Eu11 O28 2.430 . S
Eu11 O29 2.670 . S
Eu11 O30 2.394 . S
C12 C10 1.500 . S
C12 C13 1.377 . S
C12 C17 1.377 . S
C13 C12 1.377 . S
C13 C14 1.395 . S
C13 H36 0.931 . S
C14 C13 1.395 . S
C14 C15 1.383 . S
C14 H37 0.931 . S
C15 C14 1.383 . S
C15 C16 1.394 . S
C16 C15 1.394 . S
C16 C17 1.378 . S
C16 H38 0.931 . S
C17 C12 1.377 . S
C17 C16 1.378 . S
C17 H39 0.931 . S
C18 O28 1.259 . S
C18 O29 1.270 . S
C19 O30 1.251 . S
C19 O31 1.251 . S
O20 C0 1.257 . S
O20 Eu1 2.473 1_655 S
O21 C0 1.260 . S
O21 Eu1 2.480 1_655 S
O22 Eu1 2.430 . S
O22 C8 1.259 . S
O23 Eu1 2.670 . S
O23 C8 1.270 . S
O23 Eu11 2.355 . S
O24 Eu1 2.394 1_655 S
O24 C9 1.251 . S
O25 C9 1.251 . S
O25 Eu11 2.374 1_655 S
O26 C10 1.257 . S
O26 Eu11 2.473 . S
O27 C10 1.260 . S
O27 Eu11 2.480 . S
O28 Eu11 2.430 . S
O28 C18 1.259 . S
O29 Eu1 2.355 . S
O29 Eu11 2.670 . S
O29 C18 1.270 . S
O30 Eu11 2.394 . S
O30 C19 1.251 . S
O31 Eu1 2.374 . S
O31 C19 1.251 . S
H32 C3 0.931 . S
H33 C4 0.931 . S
H34 C6 0.931 . S
H35 C7 0.931 . S
H36 C13 0.931 . S
H37 C14 0.931 . S
H38 C16 0.931 . S
H39 C17 0.931 . S
C40 Eu41 2.835 . S
C40 C42 1.500 . S
C40 O60 1.257 . S
C40 O61 1.260 . S
Eu41 C40 2.835 . S
Eu41 O60 2.473 . S
Eu41 O61 2.480 . S
Eu41 O62 2.430 . S
Eu41 O63 2.670 . S
Eu41 O64 2.394 . S
Eu41 O69 2.355 . S
Eu41 O71 2.374 . S
C42 C40 1.500 . S
C42 C43 1.377 . S
C42 C47 1.377 . S
C43 C42 1.377 . S
C43 C44 1.395 . S
C43 H72 0.931 . S
C44 C43 1.395 . S
C44 C45 1.383 . S
C44 H73 0.931 . S
C45 C44 1.383 . S
C45 C46 1.394 . S
C46 C45 1.394 . S
C46 C47 1.378 . S
C46 H74 0.931 . S
C47 C42 1.377 . S
C47 C46 1.378 . S
C47 H75 0.931 . S
C48 O62 1.259 . S
C48 O63 1.270 . S
C49 O64 1.251 . S
C49 O65 1.251 . S
C50 Eu51 2.835 1_565 S
C50 C52 1.500 . S
C50 O66 1.257 . S
C50 O67 1.260 . S
Eu51 C50 2.835 1_545 S
Eu51 O63 2.355 . S
Eu51 O65 2.374 . S
Eu51 O66 2.473 1_545 S
Eu51 O67 2.480 1_545 S
Eu51 O68 2.430 . S
Eu51 O69 2.670 . S
Eu51 O70 2.394 1_545 S
C52 C50 1.500 . S
C52 C53 1.377 . S
C52 C57 1.377 . S
C53 C52 1.377 . S
C53 C54 1.395 . S
C53 H76 0.931 . S
C54 C53 1.395 . S
C54 C55 1.383 . S
C54 H77 0.931 . S
C55 C54 1.383 . S
C55 C56 1.394 . S
C56 C55 1.394 . S
C56 C57 1.378 . S
C56 H78 0.931 . S
C57 C52 1.377 . S
C57 C56 1.378 . S
C57 H79 0.931 . S
C58 O68 1.259 . S
C58 O69 1.270 . S
C59 O70 1.251 . S
C59 O71 1.251 1_565 S
O60 C40 1.257 . S
O60 Eu41 2.473 . S
O61 C40 1.260 . S
O61 Eu41 2.480 . S
O62 Eu41 2.430 . S
O62 C48 1.259 . S
O63 Eu41 2.670 . S
O63 C48 1.270 . S
O63 Eu51 2.355 . S
O64 Eu41 2.394 . S
O64 C49 1.251 . S
O65 C49 1.251 . S
O65 Eu51 2.374 . S
O66 C50 1.257 . S
O66 Eu51 2.473 1_565 S
O67 C50 1.260 . S
O67 Eu51 2.480 1_565 S
O68 Eu51 2.430 . S
O68 C58 1.259 . S
O69 Eu41 2.355 . S
O69 Eu51 2.670 . S
O69 C58 1.270 . S
O70 Eu51 2.394 1_565 S
O70 C59 1.251 . S
O71 Eu41 2.374 . S
O71 C59 1.251 1_545 S
H72 C43 0.931 . S
H73 C44 0.931 . S
H74 C46 0.931 . S
H75 C47 0.931 . S
H76 C53 0.931 . S
H77 C54 0.931 . S
H78 C56 0.931 . S
H79 C57 0.931 . S
C80 Eu81 2.835 . S
C80 C82 1.500 . S
C80 O100 1.257 . S
C80 O101 1.260 . S
Eu81 C80 2.835 . S
Eu81 O100 2.473 . S
Eu81 O101 2.480 . S
Eu81 O102 2.430 . S
Eu81 O103 2.670 . S
Eu81 O104 2.394 . S
Eu81 O109 2.355 . S
Eu81 O111 2.374 . S
C82 C80 1.500 . S
C82 C83 1.377 . S
C82 C87 1.377 . S
C83 C82 1.377 . S
C83 C84 1.395 . S
C83 H112 0.931 . S
C84 C83 1.395 . S
C84 C85 1.383 . S
C84 H113 0.931 . S
C85 C84 1.383 . S
C85 C86 1.394 . S
C86 C85 1.394 . S
C86 C87 1.378 . S
C86 H114 0.931 . S
C87 C82 1.377 . S
C87 C86 1.378 . S
C87 H115 0.931 . S
C88 O102 1.259 . S
C88 O103 1.270 . S
C89 O104 1.251 . S
C89 O105 1.251 . S
C90 Eu91 2.835 . S
C90 C92 1.500 . S
C90 O106 1.257 . S
C90 O107 1.260 . S
Eu91 C90 2.835 . S
Eu91 O103 2.355 . S
Eu91 O105 2.374 . S
Eu91 O106 2.473 . S
Eu91 O107 2.480 . S
Eu91 O108 2.430 . S
Eu91 O109 2.670 . S
Eu91 O110 2.394 . S
C92 C90 1.500 . S
C92 C93 1.377 . S
C92 C97 1.377 . S
C93 C92 1.377 . S
C93 C94 1.395 . S
C93 H116 0.931 . S
C94 C93 1.395 . S
C94 C95 1.383 . S
C94 H117 0.931 . S
C95 C94 1.383 . S
C95 C96 1.394 . S
C96 C95 1.394 . S
C96 C97 1.378 . S
C96 H118 0.931 . S
C97 C92 1.377 . S
C97 C96 1.378 . S
C97 H119 0.931 . S
C98 O108 1.259 . S
C98 O109 1.270 . S
C99 O110 1.251 . S
C99 O111 1.251 . S
O100 C80 1.257 . S
O100 Eu81 2.473 . S
O101 C80 1.260 . S
O101 Eu81 2.480 . S
O102 Eu81 2.430 . S
O102 C88 1.259 . S
O103 Eu81 2.670 . S
O103 C88 1.270 . S
O103 Eu91 2.355 . S
O104 Eu81 2.394 . S
O104 C89 1.251 . S
O105 C89 1.251 . S
O105 Eu91 2.374 . S
O106 C90 1.257 . S
O106 Eu91 2.473 . S
O107 C90 1.260 . S
O107 Eu91 2.480 . S
O108 Eu91 2.430 . S
O108 C98 1.259 . S
O109 Eu81 2.355 . S
O109 Eu91 2.670 . S
O109 C98 1.270 . S
O110 Eu91 2.394 . S
O110 C99 1.251 . S
O111 Eu81 2.374 . S
O111 C99 1.251 . S
H112 C83 0.931 . S
H113 C84 0.931 . S
H114 C86 0.931 . S
H115 C87 0.931 . S
H116 C93 0.931 . S
H117 C94 0.931 . S
H118 C96 0.931 . S
H119 C97 0.931 . S
H120 C121 0.949 . S
C121 H120 0.949 . S
C121 C122 1.395 . S
C121 C123 1.391 . S
C122 C121 1.395 . S
C122 C125 1.390 . S
C123 C121 1.391 . S
C123 C127 1.387 . S
C123 C128 1.491 . S
H124 C125 0.950 . S
C125 C122 1.390 . S
C125 H124 0.950 . S
C125 C126 1.378 . S
C126 C125 1.378 . S
C126 C127 1.409 . S
C127 C123 1.387 . S
C127 C126 1.409 . S
C127 H129 0.951 . S
C128 C123 1.491 . S
C128 C130 1.382 . S
C128 C132 1.404 . S
H129 C127 0.951 . S
C130 C128 1.382 . S
C130 C131 1.390 . S
C130 H135 0.949 . S
C131 C130 1.390 . S
C131 C136 1.399 . S
C132 C128 1.404 . S
C132 H133 0.950 . S
C132 C134 1.375 . S
H133 C132 0.950 . S
C134 C132 1.375 . S
C134 C136 1.382 . S
C134 H138 0.950 . S
H135 C130 0.949 . S
C136 C131 1.399 . S
C136 C134 1.382 . S
C136 H137 0.952 . S
H137 C136 0.952 . S
H138 C134 0.950 . S
H139 C140 0.949 . S
C140 H139 0.949 . S
C140 C141 1.395 . S
C140 C142 1.391 . S
C141 C140 1.395 . S
C141 C144 1.390 . S
C142 C140 1.391 . S
C142 C146 1.387 . S
C142 C147 1.491 . S
H143 C144 0.950 . S
C144 C141 1.390 . S
C144 H143 0.950 . S
C144 C145 1.378 . S
C145 C144 1.378 . S
C145 C146 1.409 . S
C146 C142 1.387 . S
C146 C145 1.409 . S
C146 H148 0.951 . S
C147 C142 1.491 . S
C147 C149 1.382 . S
C147 C151 1.404 . S
H148 C146 0.951 . S
C149 C147 1.382 . S
C149 C150 1.390 . S
C149 H154 0.949 . S
C150 C149 1.390 . S
C150 C155 1.399 . S
C151 C147 1.404 . S
C151 H152 0.950 . S
C151 C153 1.375 . S
H152 C151 0.950 . S
C153 C151 1.375 . S
C153 C155 1.382 . S
C153 H157 0.950 . S
H154 C149 0.949 . S
C155 C150 1.399 . S
C155 C153 1.382 . S
C155 H156 0.952 . S
H156 C155 0.952 . S
H157 C153 0.950 . S
H158 C159 0.949 . S
C159 H158 0.949 . S
C159 C160 1.395 . S
C159 C161 1.391 . S
C160 C159 1.395 . S
C160 C163 1.390 1_455 S
C161 C159 1.391 . S
C161 C165 1.387 . S
C161 C166 1.491 . S
H162 C163 0.950 . S
C163 C160 1.390 1_655 S
C163 H162 0.950 . S
C163 C164 1.378 . S
C164 C163 1.378 . S
C164 C165 1.409 1_655 S
C165 C161 1.387 . S
C165 C164 1.409 1_455 S
C165 H167 0.949 1_455 S
C166 C161 1.491 . S
C166 C168 1.382 . S
C166 C170 1.404 . S
H167 C165 0.949 1_655 S
C168 C166 1.382 . S
C168 C169 1.390 . S
C168 H173 0.949 . S
C169 C168 1.390 . S
C169 C174 1.399 . S
C170 C166 1.404 . S
C170 H171 0.950 . S
C170 C172 1.375 . S
H171 C170 0.950 . S
C172 C170 1.375 . S
C172 C174 1.382 . S
C172 H176 0.950 . S
H173 C168 0.949 . S
C174 C169 1.399 . S
C174 C172 1.382 . S
C174 H175 0.952 . S
H175 C174 0.952 . S
H176 C172 0.950 . S
H177 C178 0.962 . S
C178 H177 0.962 . S
C178 C179 1.395 . S
C178 C180 1.391 . S
C179 C178 1.395 . S
C179 C182 1.390 . S
C180 C178 1.391 . S
C180 C184 1.387 . S
C180 C185 1.498 . S
H181 C182 0.950 . S
C182 C179 1.390 . S
C182 H181 0.950 . S
C182 C183 1.378 . S
C183 C182 1.378 . S
C183 C184 1.409 . S
C184 C180 1.387 . S
C184 C183 1.409 . S
C184 H186 0.951 . S
C185 C180 1.498 . S
C185 C187 1.381 1_455 S
C185 C189 1.398 1_455 S
H186 C184 0.951 . S
C187 C185 1.381 1_655 S
C187 C188 1.390 . S
C187 H192 0.949 . S
C188 C187 1.390 . S
C188 C193 1.399 . S
C189 C185 1.398 1_655 S
C189 H190 0.950 1_655 S
C189 C191 1.375 . S
H190 C189 0.950 1_455 S
C191 C189 1.375 . S
C191 C193 1.382 . S
C191 H195 0.950 . S
H192 C187 0.949 . S
C193 C188 1.399 . S
C193 C191 1.382 . S
C193 H194 0.952 . S
H194 C193 0.952 . S
H195 C191 0.950 . S
H196 C197 0.949 1_565 S
C197 H196 0.949 1_545 S
C197 C198 1.395 . S
C197 C199 1.391 . S
C198 C197 1.395 . S
C198 C201 1.390 . S
C199 C197 1.391 . S
C199 C203 1.387 . S
C199 C204 1.491 1_545 S
H200 C201 0.950 . S
C201 C198 1.390 . S
C201 H200 0.950 . S
C201 C202 1.378 . S
C202 C201 1.378 . S
C202 C203 1.409 . S
C203 C199 1.387 . S
C203 C202 1.409 . S
C203 H205 0.951 . S
C204 C199 1.491 1_565 S
C204 C206 1.382 . S
C204 C208 1.404 . S
H205 C203 0.951 . S
C206 C204 1.382 . S
C206 C207 1.390 . S
C206 H211 0.949 . S
C207 C206 1.390 . S
C207 C212 1.399 . S
C208 C204 1.404 . S
C208 H209 0.950 . S
C208 C210 1.375 . S
H209 C208 0.950 . S
C210 C208 1.375 . S
C210 C212 1.382 . S
C210 H214 0.950 . S
H211 C206 0.949 . S
C212 C207 1.399 . S
C212 C210 1.382 . S
C212 H213 0.952 . S
H213 C212 0.952 . S
H214 C210 0.950 . S
H215 C216 0.949 . S
C216 H215 0.949 . S
C216 C217 1.395 . S
C216 C218 1.391 . S
C217 C216 1.395 . S
C217 C220 1.390 . S
C218 C216 1.391 . S
C218 C222 1.387 . S
C218 C223 1.491 . S
H219 C220 0.950 . S
C220 C217 1.390 . S
C220 H219 0.950 . S
C220 C221 1.378 . S
C221 C220 1.378 . S
C221 C222 1.409 . S
C222 C218 1.387 . S
C222 C221 1.409 . S
C222 H224 0.951 . S
C223 C218 1.491 . S
C223 C225 1.382 . S
C223 C227 1.404 . S
H224 C222 0.951 . S
C225 C223 1.382 . S
C225 C226 1.390 . S
C225 H230 0.949 . S
C226 C225 1.390 . S
C226 C231 1.399 . S
C227 C223 1.404 . S
C227 H228 0.950 . S
C227 C229 1.375 . S
H228 C227 0.950 . S
C229 C227 1.375 . S
C229 C231 1.382 . S
C229 H233 0.950 . S
H230 C225 0.949 . S
C231 C226 1.399 . S
C231 C229 1.382 . S
C231 H232 0.952 . S
H232 C231 0.952 . S
H233 C229 0.950 . S
H234 C252 0.951 . S
H235 C254 0.951 . S
H236 C256 0.950 . S
H237 C257 0.950 . S
H238 C259 0.950 . S
H239 C262 0.950 . S
H240 C263 0.950 . S
H241 C265 0.950 . S
H242 C266 0.950 . S
H243 C267 0.951 . S
H244 C269 0.951 . S
H245 C271 0.950 . S
H246 C272 0.950 . S
H247 C274 0.950 . S
H248 C277 0.950 . S
H249 C278 0.950 . S
H250 C280 0.950 . S
H251 C281 0.950 . S
C252 H234 0.951 . S
C252 C253 1.366 . S
C252 C254 1.388 . S
C253 C252 1.366 . S
C253 C257 1.385 . S
C254 H235 0.951 . S
C254 C252 1.388 . S
C254 C255 1.366 . S
C255 C254 1.366 . S
C255 C256 1.414 . S
C255 C258 1.499 . S
C256 H236 0.950 . S
C256 C255 1.414 . S
C256 C257 1.374 . S
C257 H237 0.950 . S
C257 C253 1.385 . S
C257 C256 1.374 . S
C258 C255 1.499 . S
C258 C259 1.373 . S
C258 C260 1.389 . S
C259 H238 0.950 . S
C259 C258 1.373 . S
C259 C275 1.377 . S
C260 C258 1.389 . S
C260 C261 1.524 . S
C260 C274 1.377 . S
C261 C260 1.524 . S
C261 C262 1.397 . S
C261 C266 1.363 . S
C262 H239 0.950 . S
C262 C261 1.397 . S
C262 C263 1.334 . S
C263 H240 0.950 . S
C263 C262 1.334 . S
C263 C264 1.287 . S
C264 C263 1.287 . S
C264 C265 1.524 . S
C264 H283 0.913 . S
C265 H241 0.950 . S
C265 C264 1.524 . S
C265 C266 1.415 . S
C266 H242 0.950 . S
C266 C261 1.363 . S
C266 C265 1.415 . S
C267 H243 0.951 . S
C267 C268 1.366 . S
C267 C269 1.388 . S
C268 C267 1.366 . S
C268 C272 1.385 . S
C269 H244 0.951 . S
C269 C267 1.388 . S
C269 C270 1.366 . S
C270 C269 1.366 . S
C270 C271 1.414 . S
C270 C273 1.499 . S
C271 H245 0.950 . S
C271 C270 1.414 . S
C271 C272 1.374 . S
C272 H246 0.950 . S
C272 C268 1.385 . S
C272 C271 1.374 . S
C273 C270 1.499 . S
C273 C274 1.373 . S
C273 C275 1.389 . S
C274 H247 0.950 . S
C274 C260 1.377 . S
C274 C273 1.373 . S
C275 C259 1.377 . S
C275 C273 1.389 . S
C275 C276 1.524 . S
C276 C275 1.524 . S
C276 C277 1.397 . S
C276 C281 1.363 . S
C277 H248 0.950 . S
C277 C276 1.397 . S
C277 C278 1.334 . S
C278 H249 0.950 . S
C278 C277 1.334 . S
C278 C279 1.287 . S
C279 C278 1.287 . S
C279 C280 1.524 . S
C279 H282 0.999 . S
C280 H250 0.950 . S
C280 C279 1.524 . S
C280 C281 1.415 . S
C281 H251 0.950 . S
C281 C276 1.363 . S
C281 C280 1.415 . S
H282 C279 0.999 . S
H283 C264 0.913 . S
H284 C302 0.951 . S
H285 C304 0.951 . S
H286 C306 0.950 . S
H287 C307 0.950 . S
H288 C309 0.950 . S
H289 C312 0.950 . S
H290 C313 0.950 . S
H291 C315 0.950 . S
H292 C316 0.950 . S
H293 C317 0.951 . S
H294 C319 0.951 . S
H295 C321 0.950 . S
H296 C322 0.950 . S
H297 C324 0.950 . S
H298 C327 0.950 . S
H299 C328 0.950 . S
H300 C330 0.950 . S
H301 C331 0.950 . S
C302 H284 0.951 . S
C302 C303 1.366 . S
C302 C304 1.388 . S
C303 C302 1.366 . S
C303 C307 1.385 . S
C304 H285 0.951 . S
C304 C302 1.388 . S
C304 C305 1.366 . S
C305 C304 1.366 . S
C305 C306 1.414 . S
C305 C308 1.499 . S
C306 H286 0.950 . S
C306 C305 1.414 . S
C306 C307 1.374 . S
C307 H287 0.950 . S
C307 C303 1.385 . S
C307 C306 1.374 . S
C308 C305 1.499 . S
C308 C309 1.373 . S
C308 C310 1.389 . S
C309 H288 0.950 . S
C309 C308 1.373 . S
C309 C325 1.377 . S
C310 C308 1.389 . S
C310 C311 1.524 . S
C310 C324 1.377 . S
C311 C310 1.524 . S
C311 C312 1.397 . S
C311 C316 1.363 . S
C312 H289 0.950 . S
C312 C311 1.397 . S
C312 C313 1.334 . S
C313 H290 0.950 . S
C313 C312 1.334 . S
C313 C314 1.287 . S
C314 C313 1.287 . S
C314 C315 1.524 . S
C314 H333 0.913 . S
C315 H291 0.950 . S
C315 C314 1.524 . S
C315 C316 1.415 . S
C316 H292 0.950 . S
C316 C311 1.363 . S
C316 C315 1.415 . S
C317 H293 0.951 . S
C317 C318 1.366 . S
C317 C319 1.388 . S
C318 C317 1.366 . S
C318 C322 1.385 . S
C319 H294 0.951 . S
C319 C317 1.388 . S
C319 C320 1.366 . S
C320 C319 1.366 . S
C320 C321 1.414 . S
C320 C323 1.499 . S
C321 H295 0.950 . S
C321 C320 1.414 . S
C321 C322 1.374 . S
C322 H296 0.950 . S
C322 C318 1.385 . S
C322 C321 1.374 . S
C323 C320 1.499 . S
C323 C324 1.373 . S
C323 C325 1.389 . S
C324 H297 0.950 . S
C324 C310 1.377 . S
C324 C323 1.373 . S
C325 C309 1.377 . S
C325 C323 1.389 . S
C325 C326 1.524 . S
C326 C325 1.524 . S
C326 C327 1.397 . S
C326 C331 1.363 . S
C327 H298 0.950 . S
C327 C326 1.397 . S
C327 C328 1.334 . S
C328 H299 0.950 . S
C328 C327 1.334 . S
C328 C329 1.287 . S
C329 C328 1.287 . S
C329 C330 1.524 . S
C329 H332 0.999 . S
C330 H300 0.950 . S
C330 C329 1.524 . S
C330 C331 1.415 . S
C331 H301 0.950 . S
C331 C326 1.363 . S
C331 C330 1.415 . S
H332 C329 0.999 . S
H333 C314 0.913 . S
H334 C352 0.951 . S
H335 C354 0.951 . S
H336 C356 0.950 . S
H337 C357 0.950 . S
H338 C359 0.950 . S
H339 C362 0.950 . S
H340 C363 0.950 . S
H341 C365 0.950 . S
H342 C366 0.950 . S
H343 C367 0.951 . S
H344 C369 0.951 . S
H345 C371 0.950 . S
H346 C372 0.950 . S
H347 C374 0.950 . S
H348 C377 0.950 . S
H349 C378 0.950 . S
H350 C380 0.950 . S
H351 C381 0.950 . S
C352 H334 0.951 . S
C352 C353 1.366 . S
C352 C354 1.388 . S
C353 C352 1.366 . S
C353 C357 1.385 . S
C354 H335 0.951 . S
C354 C352 1.388 . S
C354 C355 1.366 . S
C355 C354 1.366 . S
C355 C356 1.414 . S
C355 C358 1.499 . S
C356 H336 0.950 . S
C356 C355 1.414 . S
C356 C357 1.374 . S
C357 H337 0.950 . S
C357 C353 1.385 . S
C357 C356 1.374 . S
C358 C355 1.499 . S
C358 C359 1.373 . S
C358 C360 1.389 . S
C359 H338 0.950 . S
C359 C358 1.373 . S
C359 C375 1.377 . S
C360 C358 1.389 . S
C360 C361 1.524 . S
C360 C374 1.377 . S
C361 C360 1.524 . S
C361 C362 1.397 . S
C361 C366 1.363 . S
C362 H339 0.950 . S
C362 C361 1.397 . S
C362 C363 1.334 . S
C363 H340 0.950 . S
C363 C362 1.334 . S
C363 C364 1.287 . S
C364 C363 1.287 . S
C364 C365 1.524 . S
C364 H383 0.913 . S
C365 H341 0.950 . S
C365 C364 1.524 . S
C365 C366 1.415 . S
C366 H342 0.950 . S
C366 C361 1.363 . S
C366 C365 1.415 . S
C367 H343 0.951 . S
C367 C368 1.366 . S
C367 C369 1.388 . S
C368 C367 1.366 . S
C368 C372 1.385 . S
C369 H344 0.951 . S
C369 C367 1.388 . S
C369 C370 1.366 . S
C370 C369 1.366 . S
C370 C371 1.414 . S
C370 C373 1.499 . S
C371 H345 0.950 . S
C371 C370 1.414 . S
C371 C372 1.374 . S
C372 H346 0.950 . S
C372 C368 1.385 . S
C372 C371 1.374 . S
C373 C370 1.499 . S
C373 C374 1.373 . S
C373 C375 1.389 . S
C374 H347 0.950 . S
C374 C360 1.377 . S
C374 C373 1.373 . S
C375 C359 1.377 . S
C375 C373 1.389 . S
C375 C376 1.524 . S
C376 C375 1.524 . S
C376 C377 1.397 . S
C376 C381 1.363 . S
C377 H348 0.950 . S
C377 C376 1.397 . S
C377 C378 1.334 . S
C378 H349 0.950 . S
C378 C377 1.334 . S
C378 C379 1.287 . S
C379 C378 1.287 . S
C379 C380 1.524 . S
C379 H382 0.999 . S
C380 H350 0.950 . S
C380 C379 1.524 . S
C380 C381 1.415 . S
C381 H351 0.950 . S
C381 C376 1.363 . S
C381 C380 1.415 . S
H382 C379 0.999 . S
H383 C364 0.913 . S
H384 C402 0.951 . S
H385 C404 0.951 . S
H386 C406 0.950 . S
H387 C407 0.950 . S
H388 C409 0.950 . S
H389 C412 0.950 . S
H390 C413 0.950 . S
H391 C415 0.950 . S
H392 C416 0.950 . S
H393 C417 0.951 . S
H394 C419 0.951 . S
H395 C421 0.950 . S
H396 C422 0.950 . S
H397 C424 0.950 . S
H398 C427 0.950 . S
H399 C428 0.950 . S
H400 C430 0.950 . S
H401 C431 0.950 . S
C402 H384 0.951 . S
C402 C403 1.366 . S
C402 C404 1.388 . S
C403 C402 1.366 . S
C403 C407 1.385 . S
C404 H385 0.951 . S
C404 C402 1.388 . S
C404 C405 1.366 . S
C405 C404 1.366 . S
C405 C406 1.414 . S
C405 C408 1.499 . S
C406 H386 0.950 . S
C406 C405 1.414 . S
C406 C407 1.374 . S
C407 H387 0.950 . S
C407 C403 1.385 . S
C407 C406 1.374 . S
C408 C405 1.499 . S
C408 C409 1.373 . S
C408 C410 1.389 . S
C409 H388 0.950 . S
C409 C408 1.373 . S
C409 C425 1.377 . S
C410 C408 1.389 . S
C410 C411 1.524 . S
C410 C424 1.377 . S
C411 C410 1.524 . S
C411 C412 1.397 . S
C411 C416 1.363 . S
C412 H389 0.950 . S
C412 C411 1.397 . S
C412 C413 1.334 . S
C413 H390 0.950 . S
C413 C412 1.334 . S
C413 C414 1.287 . S
C414 C413 1.287 . S
C414 C415 1.524 . S
C414 H433 0.913 . S
C415 H391 0.950 . S
C415 C414 1.524 . S
C415 C416 1.415 . S
C416 H392 0.950 . S
C416 C411 1.363 . S
C416 C415 1.415 . S
C417 H393 0.951 . S
C417 C418 1.366 . S
C417 C419 1.388 . S
C418 C417 1.366 . S
C418 C422 1.385 . S
C419 H394 0.951 . S
C419 C417 1.388 . S
C419 C420 1.366 . S
C420 C419 1.366 . S
C420 C421 1.414 . S
C420 C423 1.499 . S
C421 H395 0.950 . S
C421 C420 1.414 . S
C421 C422 1.374 . S
C422 H396 0.950 . S
C422 C418 1.385 . S
C422 C421 1.374 . S
C423 C420 1.499 . S
C423 C424 1.373 . S
C423 C425 1.389 . S
C424 H397 0.950 . S
C424 C410 1.377 . S
C424 C423 1.373 . S
C425 C409 1.377 . S
C425 C423 1.389 . S
C425 C426 1.524 . S
C426 C425 1.524 . S
C426 C427 1.397 . S
C426 C431 1.363 . S
C427 H398 0.950 . S
C427 C426 1.397 . S
C427 C428 1.334 . S
C428 H399 0.950 . S
C428 C427 1.334 . S
C428 C429 1.287 . S
C429 C428 1.287 . S
C429 C430 1.524 . S
C429 H432 0.999 . S
C430 H400 0.950 . S
C430 C429 1.524 . S
C430 C431 1.415 . S
C431 H401 0.950 . S
C431 C426 1.363 . S
C431 C430 1.415 . S
H432 C429 0.999 . S
H433 C414 0.913 . S
H434 C452 0.951 . S
H435 C454 0.951 . S
H436 C456 0.950 . S
H437 C457 0.950 . S
H438 C459 0.950 . S
H439 C462 0.950 . S
H440 C463 0.950 . S
H441 C465 0.950 . S
H442 C466 0.950 . S
H443 C467 0.951 . S
H444 C469 0.951 . S
H445 C471 0.950 . S
H446 C472 0.950 . S
H447 C474 0.950 . S
H448 C477 0.950 . S
H449 C478 0.950 . S
H450 C480 0.950 . S
H451 C481 0.950 . S
C452 H434 0.951 . S
C452 C453 1.366 . S
C452 C454 1.388 . S
C453 C452 1.366 . S
C453 C457 1.385 . S
C454 H435 0.951 . S
C454 C452 1.388 . S
C454 C455 1.366 . S
C455 C454 1.366 . S
C455 C456 1.414 . S
C455 C458 1.499 . S
C456 H436 0.950 . S
C456 C455 1.414 . S
C456 C457 1.374 . S
C457 H437 0.950 . S
C457 C453 1.385 . S
C457 C456 1.374 . S
C458 C455 1.499 . S
C458 C459 1.373 . S
C458 C460 1.389 . S
C459 H438 0.950 . S
C459 C458 1.373 . S
C459 C475 1.377 . S
C460 C458 1.389 . S
C460 C461 1.524 . S
C460 C474 1.377 . S
C461 C460 1.524 . S
C461 C462 1.397 . S
C461 C466 1.363 . S
C462 H439 0.950 . S
C462 C461 1.397 . S
C462 C463 1.334 . S
C463 H440 0.950 . S
C463 C462 1.334 . S
C463 C464 1.287 . S
C464 C463 1.287 . S
C464 C465 1.524 . S
C464 H483 0.913 . S
C465 H441 0.950 . S
C465 C464 1.524 . S
C465 C466 1.415 . S
C466 H442 0.950 . S
C466 C461 1.363 . S
C466 C465 1.415 . S
C467 H443 0.951 . S
C467 C468 1.366 . S
C467 C469 1.388 . S
C468 C467 1.366 . S
C468 C472 1.385 . S
C469 H444 0.951 . S
C469 C467 1.388 . S
C469 C470 1.366 . S
C470 C469 1.366 . S
C470 C471 1.414 . S
C470 C473 1.499 . S
C471 H445 0.950 . S
C471 C470 1.414 . S
C471 C472 1.374 . S
C472 H446 0.950 . S
C472 C468 1.385 . S
C472 C471 1.374 . S
C473 C470 1.499 . S
C473 C474 1.373 . S
C473 C475 1.389 . S
C474 H447 0.950 . S
C474 C460 1.377 . S
C474 C473 1.373 . S
C475 C459 1.377 . S
C475 C473 1.389 . S
C475 C476 1.524 . S
C476 C475 1.524 . S
C476 C477 1.397 . S
C476 C481 1.363 . S
C477 H448 0.950 . S
C477 C476 1.397 . S
C477 C478 1.334 . S
C478 H449 0.950 . S
C478 C477 1.334 . S
C478 C479 1.287 . S
C479 C478 1.287 . S
C479 C480 1.524 . S
C479 H482 0.999 . S
C480 H450 0.950 . S
C480 C479 1.524 . S
C480 C481 1.415 . S
C481 H451 0.950 . S
C481 C476 1.363 . S
C481 C480 1.415 . S
H482 C479 0.999 . S
H483 C464 0.913 . S
H484 C502 0.951 . S
H485 C504 0.951 . S
H486 C506 0.950 . S
H487 C507 0.950 . S
H488 C509 0.950 . S
H489 C512 0.950 . S
H490 C513 0.950 . S
H491 C515 0.950 . S
H492 C516 0.950 . S
H493 C517 0.951 . S
H494 C519 0.951 . S
H495 C521 0.950 . S
H496 C522 0.950 . S
H497 C524 0.950 . S
H498 C527 0.950 . S
H499 C528 0.950 . S
H500 C530 0.950 . S
H501 C531 0.950 . S
C502 H484 0.951 . S
C502 C503 1.366 . S
C502 C504 1.388 . S
C503 C502 1.366 . S
C503 C507 1.385 . S
C504 H485 0.951 . S
C504 C502 1.388 . S
C504 C505 1.366 . S
C505 C504 1.366 . S
C505 C506 1.414 . S
C505 C508 1.499 . S
C506 H486 0.950 . S
C506 C505 1.414 . S
C506 C507 1.374 . S
C507 H487 0.950 . S
C507 C503 1.385 . S
C507 C506 1.374 . S
C508 C505 1.499 . S
C508 C509 1.373 . S
C508 C510 1.389 . S
C509 H488 0.950 . S
C509 C508 1.373 . S
C509 C525 1.377 . S
C510 C508 1.389 . S
C510 C511 1.524 . S
C510 C524 1.377 . S
C511 C510 1.524 . S
C511 C512 1.397 . S
C511 C516 1.363 . S
C512 H489 0.950 . S
C512 C511 1.397 . S
C512 C513 1.334 . S
C513 H490 0.950 . S
C513 C512 1.334 . S
C513 C514 1.287 . S
C514 C513 1.287 . S
C514 C515 1.524 . S
C514 H533 0.913 . S
C515 H491 0.950 . S
C515 C514 1.524 . S
C515 C516 1.415 . S
C516 H492 0.950 . S
C516 C511 1.363 . S
C516 C515 1.415 . S
C517 H493 0.951 . S
C517 C518 1.366 . S
C517 C519 1.388 . S
C518 C517 1.366 . S
C518 C522 1.385 . S
C519 H494 0.951 . S
C519 C517 1.388 . S
C519 C520 1.366 . S
C520 C519 1.366 . S
C520 C521 1.414 . S
C520 C523 1.499 . S
C521 H495 0.950 . S
C521 C520 1.414 . S
C521 C522 1.374 . S
C522 H496 0.950 . S
C522 C518 1.385 . S
C522 C521 1.374 . S
C523 C520 1.499 . S
C523 C524 1.373 . S
C523 C525 1.389 . S
C524 H497 0.950 . S
C524 C510 1.377 . S
C524 C523 1.373 . S
C525 C509 1.377 . S
C525 C523 1.389 . S
C525 C526 1.524 . S
C526 C525 1.524 . S
C526 C527 1.397 . S
C526 C531 1.363 . S
C527 H498 0.950 . S
C527 C526 1.397 . S
C527 C528 1.334 . S
C528 H499 0.950 . S
C528 C527 1.334 . S
C528 C529 1.287 . S
C529 C528 1.287 . S
C529 C530 1.524 . S
C529 H532 0.999 . S
C530 H500 0.950 . S
C530 C529 1.524 . S
C530 C531 1.415 . S
C531 H501 0.950 . S
C531 C526 1.363 . S
C531 C530 1.415 . S
H532 C529 0.999 . S
H533 C514 0.913 . S
H534 C552 0.951 . S
H535 C554 0.951 . S
H536 C556 0.950 . S
H537 C557 0.950 . S
H538 C559 0.950 . S
H539 C562 0.950 . S
H540 C563 0.950 . S
H541 C565 0.950 . S
H542 C566 0.950 . S
H543 C567 0.951 . S
H544 C569 0.951 . S
H545 C571 0.950 . S
H546 C572 0.950 . S
H547 C574 0.950 . S
H548 C577 0.950 . S
H549 C578 0.950 . S
H550 C580 0.950 . S
H551 C581 0.950 . S
C552 H534 0.951 . S
C552 C553 1.366 . S
C552 C554 1.388 . S
C553 C552 1.366 . S
C553 C557 1.385 . S
C554 H535 0.951 . S
C554 C552 1.388 . S
C554 C555 1.366 . S
C555 C554 1.366 . S
C555 C556 1.414 . S
C555 C558 1.499 . S
C556 H536 0.950 . S
C556 C555 1.414 . S
C556 C557 1.374 . S
C557 H537 0.950 . S
C557 C553 1.385 . S
C557 C556 1.374 . S
C558 C555 1.499 . S
C558 C559 1.373 . S
C558 C560 1.389 . S
C559 H538 0.950 . S
C559 C558 1.373 . S
C559 C575 1.377 . S
C560 C558 1.389 . S
C560 C561 1.524 . S
C560 C574 1.377 . S
C561 C560 1.524 . S
C561 C562 1.397 . S
C561 C566 1.363 . S
C562 H539 0.950 . S
C562 C561 1.397 . S
C562 C563 1.334 . S
C563 H540 0.950 . S
C563 C562 1.334 . S
C563 C564 1.287 . S
C564 C563 1.287 . S
C564 C565 1.524 . S
C564 H583 0.913 . S
C565 H541 0.950 . S
C565 C564 1.524 . S
C565 C566 1.415 . S
C566 H542 0.950 . S
C566 C561 1.363 . S
C566 C565 1.415 . S
C567 H543 0.951 . S
C567 C568 1.366 . S
C567 C569 1.388 . S
C568 C567 1.366 . S
C568 C572 1.385 . S
C569 H544 0.951 . S
C569 C567 1.388 . S
C569 C570 1.366 . S
C570 C569 1.366 . S
C570 C571 1.414 . S
C570 C573 1.499 . S
C571 H545 0.950 . S
C571 C570 1.414 . S
C571 C572 1.374 . S
C572 H546 0.950 . S
C572 C568 1.385 . S
C572 C571 1.374 . S
C573 C570 1.499 . S
C573 C574 1.373 . S
C573 C575 1.389 . S
C574 H547 0.950 . S
C574 C560 1.377 . S
C574 C573 1.373 . S
C575 C559 1.377 . S
C575 C573 1.389 . S
C575 C576 1.524 . S
C576 C575 1.524 . S
C576 C577 1.397 . S
C576 C581 1.363 . S
C577 H548 0.950 . S
C577 C576 1.397 . S
C577 C578 1.334 . S
C578 H549 0.950 . S
C578 C577 1.334 . S
C578 C579 1.287 . S
C579 C578 1.287 . S
C579 C580 1.524 . S
C579 H582 0.999 . S
C580 H550 0.950 . S
C580 C579 1.524 . S
C580 C581 1.415 . S
C581 H551 0.950 . S
C581 C576 1.363 . S
C581 C580 1.415 . S
H582 C579 0.999 . S
H583 C564 0.913 . S
H584 C602 0.951 . S
H585 C604 0.951 . S
H586 C606 0.950 . S
H587 C607 0.950 . S
H588 C609 0.950 . S
H589 C612 0.950 . S
H590 C613 0.950 . S
H591 C615 0.950 . S
H592 C616 0.950 . S
H593 C617 0.951 1_455 S
H594 C619 0.951 . S
H595 C621 0.950 . S
H596 C622 0.950 . S
H597 C624 0.950 . S
H598 C627 0.950 . S
H599 C628 0.950 . S
H600 C630 0.950 . S
H601 C631 0.950 . S
C602 H584 0.951 . S
C602 C603 1.366 . S
C602 C604 1.388 . S
C603 C602 1.366 . S
C603 C607 1.385 . S
C604 H585 0.951 . S
C604 C602 1.388 . S
C604 C605 1.366 . S
C605 C604 1.366 . S
C605 C606 1.414 . S
C605 C608 1.499 . S
C606 H586 0.950 . S
C606 C605 1.414 . S
C606 C607 1.374 . S
C607 H587 0.950 . S
C607 C603 1.385 . S
C607 C606 1.374 . S
C608 C605 1.499 . S
C608 C609 1.373 . S
C608 C610 1.389 . S
C609 H588 0.950 . S
C609 C608 1.373 . S
C609 C625 1.377 . S
C610 C608 1.389 . S
C610 C611 1.524 . S
C610 C624 1.377 . S
C611 C610 1.524 . S
C611 C612 1.397 . S
C611 C616 1.363 . S
C612 H589 0.950 . S
C612 C611 1.397 . S
C612 C613 1.334 . S
C613 H590 0.950 . S
C613 C612 1.334 . S
C613 C614 1.287 . S
C614 C613 1.287 . S
C614 C615 1.524 . S
C614 H633 0.913 . S
C615 H591 0.950 . S
C615 C614 1.524 . S
C615 C616 1.415 . S
C616 H592 0.950 . S
C616 C611 1.363 . S
C616 C615 1.415 . S
C617 H593 0.951 1_655 S
C617 C618 1.366 . S
C617 C619 1.388 . S
C618 C617 1.366 . S
C618 C622 1.385 . S
C619 H594 0.951 . S
C619 C617 1.388 . S
C619 C620 1.366 . S
C620 C619 1.366 . S
C620 C621 1.414 . S
C620 C623 1.499 . S
C621 H595 0.950 . S
C621 C620 1.414 . S
C621 C622 1.374 . S
C622 H596 0.950 . S
C622 C618 1.385 . S
C622 C621 1.374 . S
C623 C620 1.499 . S
C623 C624 1.373 . S
C623 C625 1.389 . S
C624 H597 0.950 . S
C624 C610 1.377 . S
C624 C623 1.373 . S
C625 C609 1.377 . S
C625 C623 1.389 . S
C625 C626 1.524 . S
C626 C625 1.524 . S
C626 C627 1.397 . S
C626 C631 1.363 . S
C627 H598 0.950 . S
C627 C626 1.397 . S
C627 C628 1.334 . S
C628 H599 0.950 . S
C628 C627 1.334 . S
C628 C629 1.287 . S
C629 C628 1.287 . S
C629 C630 1.524 . S
C629 H632 0.999 . S
C630 H600 0.950 . S
C630 C629 1.524 . S
C630 C631 1.415 . S
C631 H601 0.950 . S
C631 C626 1.363 . S
C631 C630 1.415 . S
H632 C629 0.999 . S
H633 C614 0.913 . S
H634 C652 0.951 . S
H635 C654 0.951 . S
H636 C656 0.950 . S
H637 C657 0.950 . S
H638 C659 0.950 . S
H639 C662 0.950 . S
H640 C663 0.950 . S
H641 C665 0.950 . S
H642 C666 0.950 . S
H643 C667 0.951 . S
H644 C669 0.951 1_565 S
H645 C671 0.950 . S
H646 C672 0.950 . S
H647 C674 0.950 . S
H648 C677 0.950 . S
H649 C678 0.950 . S
H650 C680 0.950 . S
H651 C681 0.950 . S
C652 H634 0.951 . S
C652 C653 1.366 . S
C652 C654 1.388 . S
C653 C652 1.366 . S
C653 C657 1.385 . S
C654 H635 0.951 . S
C654 C652 1.388 . S
C654 C655 1.366 . S
C655 C654 1.366 . S
C655 C656 1.414 . S
C655 C658 1.499 . S
C656 H636 0.950 . S
C656 C655 1.414 . S
C656 C657 1.374 . S
C657 H637 0.950 . S
C657 C653 1.385 . S
C657 C656 1.374 . S
C658 C655 1.499 . S
C658 C659 1.373 . S
C658 C660 1.389 . S
C659 H638 0.950 . S
C659 C658 1.373 . S
C659 C675 1.377 . S
C660 C658 1.389 . S
C660 C661 1.524 . S
C660 C674 1.377 . S
C661 C660 1.524 . S
C661 C662 1.397 . S
C661 C666 1.363 . S
C662 H639 0.950 . S
C662 C661 1.397 . S
C662 C663 1.334 . S
C663 H640 0.950 . S
C663 C662 1.334 . S
C663 C664 1.287 . S
C664 C663 1.287 . S
C664 C665 1.524 . S
C664 H683 0.913 . S
C665 H641 0.950 . S
C665 C664 1.524 . S
C665 C666 1.415 . S
C666 H642 0.950 . S
C666 C661 1.363 . S
C666 C665 1.415 . S
C667 H643 0.951 . S
C667 C668 1.366 . S
C667 C669 1.389 . S
C668 C667 1.366 . S
C668 C672 1.385 . S
C669 H644 0.951 1_545 S
C669 C667 1.389 . S
C669 C670 1.364 1_545 S
C670 C669 1.364 1_565 S
C670 C671 1.414 . S
C670 C673 1.499 . S
C671 H645 0.950 . S
C671 C670 1.414 . S
C671 C672 1.374 1_565 S
C672 H646 0.950 . S
C672 C668 1.385 . S
C672 C671 1.374 1_545 S
C673 C670 1.499 . S
C673 C674 1.373 . S
C673 C675 1.389 . S
C674 H647 0.950 . S
C674 C660 1.377 . S
C674 C673 1.373 . S
C675 C659 1.377 . S
C675 C673 1.389 . S
C675 C676 1.524 . S
C676 C675 1.524 . S
C676 C677 1.397 . S
C676 C681 1.363 . S
C677 H648 0.950 . S
C677 C676 1.397 . S
C677 C678 1.334 . S
C678 H649 0.950 . S
C678 C677 1.334 . S
C678 C679 1.287 . S
C679 C678 1.287 . S
C679 C680 1.524 . S
C679 H682 0.999 . S
C680 H650 0.950 . S
C680 C679 1.524 . S
C680 C681 1.415 . S
C681 H651 0.950 . S
C681 C676 1.363 . S
C681 C680 1.415 . S
H682 C679 0.999 . S
H683 C664 0.913 . S
H684 C702 0.951 . S
H685 C704 0.951 . S
H686 C706 0.950 . S
H687 C707 0.950 . S
H688 C709 0.950 . S
H689 C712 0.950 . S
H690 C713 0.950 . S
H691 C715 0.950 . S
H692 C716 0.950 . S
H693 C717 0.951 . S
H694 C719 0.951 . S
H695 C721 0.950 . S
H696 C722 0.950 . S
H697 C724 0.950 . S
H698 C727 0.950 . S
H699 C728 0.950 . S
H700 C730 0.950 . S
H701 C731 0.950 . S
C702 H684 0.951 . S
C702 C703 1.366 . S
C702 C704 1.388 . S
C703 C702 1.366 . S
C703 C707 1.385 . S
C704 H685 0.951 . S
C704 C702 1.388 . S
C704 C705 1.366 . S
C705 C704 1.366 . S
C705 C706 1.414 . S
C705 C708 1.499 . S
C706 H686 0.950 . S
C706 C705 1.414 . S
C706 C707 1.374 . S
C707 H687 0.950 . S
C707 C703 1.385 . S
C707 C706 1.374 . S
C708 C705 1.499 . S
C708 C709 1.373 . S
C708 C710 1.389 . S
C709 H688 0.950 . S
C709 C708 1.373 . S
C709 C725 1.377 . S
C710 C708 1.389 . S
C710 C711 1.524 . S
C710 C724 1.377 . S
C711 C710 1.524 . S
C711 C712 1.397 . S
C711 C716 1.363 . S
C712 H689 0.950 . S
C712 C711 1.397 . S
C712 C713 1.334 . S
C713 H690 0.950 . S
C713 C712 1.334 . S
C713 C714 1.287 . S
C714 C713 1.287 . S
C714 C715 1.524 . S
C714 H733 0.913 . S
C715 H691 0.950 . S
C715 C714 1.524 . S
C715 C716 1.415 . S
C716 H692 0.950 . S
C716 C711 1.363 . S
C716 C715 1.415 . S
C717 H693 0.951 . S
C717 C718 1.366 . S
C717 C719 1.388 . S
C718 C717 1.366 . S
C718 C722 1.385 . S
C719 H694 0.951 . S
C719 C717 1.388 . S
C719 C720 1.366 . S
C720 C719 1.366 . S
C720 C721 1.414 . S
C720 C723 1.499 . S
C721 H695 0.950 . S
C721 C720 1.414 . S
C721 C722 1.374 . S
C722 H696 0.950 . S
C722 C718 1.385 . S
C722 C721 1.374 . S
C723 C720 1.499 . S
C723 C724 1.373 . S
C723 C725 1.389 . S
C724 H697 0.950 . S
C724 C710 1.377 . S
C724 C723 1.373 . S
C725 C709 1.377 . S
C725 C723 1.389 . S
C725 C726 1.524 . S
C726 C725 1.524 . S
C726 C727 1.397 . S
C726 C731 1.363 . S
C727 H698 0.950 . S
C727 C726 1.397 . S
C727 C728 1.334 . S
C728 H699 0.950 . S
C728 C727 1.334 . S
C728 C729 1.287 . S
C729 C728 1.287 . S
C729 C730 1.524 . S
C729 H732 0.999 . S
C730 H700 0.950 . S
C730 C729 1.524 . S
C730 C731 1.415 . S
C731 H701 0.950 . S
C731 C726 1.363 . S
C731 C730 1.415 . S
H732 C729 0.999 . S
H733 C714 0.913 . S
H734 C752 0.951 . S
H735 C754 0.951 . S
H736 C756 0.950 . S
H737 C757 0.950 . S
H738 C759 0.950 . S
H739 C762 0.950 . S
H740 C763 0.950 . S
H741 C765 0.950 . S
H742 C766 0.950 . S
H743 C767 0.951 . S
H744 C769 0.951 . S
H745 C771 0.950 . S
H746 C772 0.950 . S
H747 C774 0.950 . S
H748 C777 0.950 . S
H749 C778 0.950 . S
H750 C780 0.950 . S
H751 C781 0.950 . S
C752 H734 0.951 . S
C752 C753 1.366 . S
C752 C754 1.388 . S
C753 C752 1.366 . S
C753 C757 1.385 . S
C754 H735 0.951 . S
C754 C752 1.388 . S
C754 C755 1.366 . S
C755 C754 1.366 . S
C755 C756 1.414 . S
C755 C758 1.499 . S
C756 H736 0.950 . S
C756 C755 1.414 . S
C756 C757 1.374 . S
C757 H737 0.950 . S
C757 C753 1.385 . S
C757 C756 1.374 . S
C758 C755 1.499 . S
C758 C759 1.373 . S
C758 C760 1.389 . S
C759 H738 0.950 . S
C759 C758 1.373 . S
C759 C775 1.377 . S
C760 C758 1.389 . S
C760 C761 1.524 . S
C760 C774 1.377 . S
C761 C760 1.524 . S
C761 C762 1.397 . S
C761 C766 1.363 . S
C762 H739 0.950 . S
C762 C761 1.397 . S
C762 C763 1.334 . S
C763 H740 0.950 . S
C763 C762 1.334 . S
C763 C764 1.287 . S
C764 C763 1.287 . S
C764 C765 1.524 . S
C764 H783 0.913 . S
C765 H741 0.950 . S
C765 C764 1.524 . S
C765 C766 1.415 . S
C766 H742 0.950 . S
C766 C761 1.363 . S
C766 C765 1.415 . S
C767 H743 0.951 . S
C767 C768 1.366 . S
C767 C769 1.388 . S
C768 C767 1.366 . S
C768 C772 1.385 . S
C769 H744 0.951 . S
C769 C767 1.388 . S
C769 C770 1.366 . S
C770 C769 1.366 . S
C770 C771 1.414 . S
C770 C773 1.499 . S
C771 H745 0.950 . S
C771 C770 1.414 . S
C771 C772 1.374 . S
C772 H746 0.950 . S
C772 C768 1.385 . S
C772 C771 1.374 . S
C773 C770 1.499 . S
C773 C774 1.373 . S
C773 C775 1.389 . S
C774 H747 0.950 . S
C774 C760 1.377 . S
C774 C773 1.373 . S
C775 C759 1.377 . S
C775 C773 1.389 . S
C775 C776 1.524 . S
C776 C775 1.524 . S
C776 C777 1.397 . S
C776 C781 1.363 . S
C777 H748 0.950 . S
C777 C776 1.397 . S
C777 C778 1.334 . S
C778 H749 0.950 . S
C778 C777 1.334 . S
C778 C779 1.287 . S
C779 C778 1.287 . S
C779 C780 1.524 . S
C779 H782 0.999 . S
C780 H750 0.950 . S
C780 C779 1.524 . S
C780 C781 1.415 . S
C781 H751 0.950 . S
C781 C776 1.363 . S
C781 C780 1.415 . S
H782 C779 0.999 . S
H783 C764 0.913 . S
H784 C802 0.951 . S
H785 C804 0.951 . S
H786 C806 0.950 . S
H787 C807 0.950 . S
H788 C809 0.950 . S
H789 C812 0.950 . S
H790 C813 0.950 . S
H791 C815 0.950 . S
H792 C816 0.950 . S
H793 C817 0.951 . S
H794 C819 0.951 . S
H795 C821 0.950 . S
H796 C822 0.950 . S
H797 C824 0.950 . S
H798 C827 0.950 . S
H799 C828 0.950 . S
H800 C830 0.950 . S
H801 C831 0.950 . S
C802 H784 0.951 . S
C802 C803 1.366 . S
C802 C804 1.388 . S
C803 C802 1.366 . S
C803 C807 1.385 . S
C804 H785 0.951 . S
C804 C802 1.388 . S
C804 C805 1.366 . S
C805 C804 1.366 . S
C805 C806 1.414 . S
C805 C808 1.499 . S
C806 H786 0.950 . S
C806 C805 1.414 . S
C806 C807 1.374 . S
C807 H787 0.950 . S
C807 C803 1.385 . S
C807 C806 1.374 . S
C808 C805 1.499 . S
C808 C809 1.373 . S
C808 C810 1.389 . S
C809 H788 0.950 . S
C809 C808 1.373 . S
C809 C825 1.377 . S
C810 C808 1.389 . S
C810 C811 1.524 . S
C810 C824 1.377 . S
C811 C810 1.524 . S
C811 C812 1.397 . S
C811 C816 1.363 . S
C812 H789 0.950 . S
C812 C811 1.397 . S
C812 C813 1.334 . S
C813 H790 0.950 . S
C813 C812 1.334 . S
C813 C814 1.287 . S
C814 C813 1.287 . S
C814 C815 1.524 . S
C814 H833 0.913 . S
C815 H791 0.950 . S
C815 C814 1.524 . S
C815 C816 1.415 . S
C816 H792 0.950 . S
C816 C811 1.363 . S
C816 C815 1.415 . S
C817 H793 0.951 . S
C817 C818 1.366 . S
C817 C819 1.388 . S
C818 C817 1.366 . S
C818 C822 1.385 . S
C819 H794 0.951 . S
C819 C817 1.388 . S
C819 C820 1.366 . S
C820 C819 1.366 . S
C820 C821 1.414 . S
C820 C823 1.499 . S
C821 H795 0.950 . S
C821 C820 1.414 . S
C821 C822 1.374 . S
C822 H796 0.950 . S
C822 C818 1.385 . S
C822 C821 1.374 . S
C823 C820 1.499 . S
C823 C824 1.373 . S
C823 C825 1.389 . S
C824 H797 0.950 . S
C824 C810 1.377 . S
C824 C823 1.373 . S
C825 C809 1.377 . S
C825 C823 1.389 . S
C825 C826 1.524 . S
C826 C825 1.524 . S
C826 C827 1.397 . S
C826 C831 1.363 . S
C827 H798 0.950 . S
C827 C826 1.397 . S
C827 C828 1.334 . S
C828 H799 0.950 . S
C828 C827 1.334 . S
C828 C829 1.287 . S
C829 C828 1.287 . S
C829 C830 1.524 . S
C829 H832 0.999 . S
C830 H800 0.950 . S
C830 C829 1.524 . S
C830 C831 1.415 . S
C831 H801 0.950 . S
C831 C826 1.363 . S
C831 C830 1.415 . S
H832 C829 0.999 . S
H833 C814 0.913 . S
H834 C852 0.951 1_655 S
H835 C854 0.951 1_655 S
H836 C856 0.950 . S
H837 C857 0.950 . S
H838 C859 0.950 . S
H839 C862 0.950 . S
H840 C863 0.950 . S
H841 C865 0.950 . S
H842 C866 0.954 . S
H843 C867 0.951 . S
H844 C869 0.951 . S
H845 C871 0.950 1_655 S
H846 C872 0.950 1_655 S
H847 C874 0.950 . S
H848 C877 0.950 . S
H849 C878 0.950 . S
H850 C880 0.950 . S
H851 C881 0.950 . S
C852 H834 0.951 1_455 S
C852 C853 1.366 . S
C852 C854 1.388 . S
C853 C852 1.366 . S
C853 C857 1.385 . S
C854 H835 0.951 1_455 S
C854 C852 1.388 . S
C854 C855 1.366 . S
C855 C854 1.366 . S
C855 C856 1.414 . S
C855 C858 1.499 . S
C856 H836 0.950 . S
C856 C855 1.414 . S
C856 C857 1.374 . S
C857 H837 0.950 . S
C857 C853 1.385 . S
C857 C856 1.374 . S
C858 C855 1.499 . S
C858 C859 1.373 . S
C858 C860 1.389 1_455 S
C859 H838 0.950 . S
C859 C858 1.373 . S
C859 C875 1.377 . S
C860 C858 1.389 1_655 S
C860 C861 1.524 . S
C860 C874 1.377 1_554 S
C861 C860 1.524 . S
C861 C862 1.397 . S
C861 C866 1.363 . S
C862 H839 0.950 . S
C862 C861 1.397 . S
C862 C863 1.334 . S
C863 H840 0.950 . S
C863 C862 1.334 . S
C863 C864 1.287 . S
C864 C863 1.287 . S
C864 C865 1.524 . S
C864 H883 0.913 . S
C865 H841 0.950 . S
C865 C864 1.524 . S
C865 C866 1.415 . S
C866 H842 0.954 . S
C866 C861 1.363 . S
C866 C865 1.415 . S
C867 H843 0.951 . S
C867 C868 1.366 . S
C867 C869 1.388 . S
C868 C867 1.366 . S
C868 C872 1.385 . S
C869 H844 0.951 . S
C869 C867 1.388 . S
C869 C870 1.366 . S
C870 C869 1.366 . S
C870 C871 1.414 . S
C870 C873 1.499 . S
C871 H845 0.950 1_455 S
C871 C870 1.414 . S
C871 C872 1.374 . S
C872 H846 0.950 1_455 S
C872 C868 1.385 . S
C872 C871 1.374 . S
C873 C870 1.499 . S
C873 C874 1.373 1_455 S
C873 C875 1.389 1_556 S
C874 H847 0.950 . S
C874 C860 1.377 1_556 S
C874 C873 1.373 1_655 S
C875 C859 1.377 . S
C875 C873 1.389 1_554 S
C875 C876 1.524 1_554 S
C876 C875 1.524 1_556 S
C876 C877 1.397 . S
C876 C881 1.363 1_556 S
C877 H848 0.950 . S
C877 C876 1.397 . S
C877 C878 1.334 . S
C878 H849 0.950 . S
C878 C877 1.334 . S
C878 C879 1.287 . S
C879 C878 1.287 . S
C879 C880 1.524 1_556 S
C879 H882 0.999 . S
C880 H850 0.950 . S
C880 C879 1.524 1_554 S
C880 C881 1.415 . S
C881 H851 0.950 . S
C881 C876 1.363 1_554 S
C881 C880 1.415 . S
H882 C879 0.999 . S
H883 C864 0.913 . S
H884 C902 0.951 . S
H885 C904 0.951 . S
H886 C906 0.950 . S
H887 C907 0.950 . S
H888 C909 0.950 . S
H889 C912 0.950 . S
H890 C913 0.950 . S
H891 C915 0.950 . S
H892 C916 0.937 1_545 S
H893 C917 0.951 . S
H894 C919 0.951 . S
H895 C921 0.950 . S
H896 C922 0.950 . S
H897 C924 0.950 . S
H898 C927 0.950 . S
H899 C928 0.950 . S
H900 C930 0.950 . S
H901 C931 0.950 . S
C902 H884 0.951 . S
C902 C903 1.366 . S
C902 C904 1.388 . S
C903 C902 1.366 . S
C903 C907 1.385 . S
C904 H885 0.951 . S
C904 C902 1.388 . S
C904 C905 1.366 . S
C905 C904 1.366 . S
C905 C906 1.414 . S
C905 C908 1.499 . S
C906 H886 0.950 . S
C906 C905 1.414 . S
C906 C907 1.374 . S
C907 H887 0.950 . S
C907 C903 1.385 . S
C907 C906 1.374 . S
C908 C905 1.499 . S
C908 C909 1.373 . S
C908 C910 1.389 . S
C909 H888 0.950 . S
C909 C908 1.373 . S
C909 C925 1.377 . S
C910 C908 1.389 . S
C910 C911 1.524 . S
C910 C924 1.377 . S
C911 C910 1.524 . S
C911 C912 1.397 1_545 S
C911 C916 1.368 1_545 S
C912 H889 0.950 . S
C912 C911 1.397 1_565 S
C912 C913 1.334 . S
C913 H890 0.950 . S
C913 C912 1.334 . S
C913 C914 1.287 . S
C914 C913 1.287 . S
C914 C915 1.524 . S
C914 H933 0.913 . S
C915 H891 0.950 . S
C915 C914 1.524 . S
C915 C916 1.423 . S
C916 H892 0.937 1_565 S
C916 C911 1.368 1_565 S
C916 C915 1.423 . S
C917 H893 0.951 . S
C917 C918 1.366 . S
C917 C919 1.388 . S
C918 C917 1.366 . S
C918 C922 1.385 . S
C919 H894 0.951 . S
C919 C917 1.388 . S
C919 C920 1.366 . S
C920 C919 1.366 . S
C920 C921 1.414 . S
C920 C923 1.499 . S
C921 H895 0.950 . S
C921 C920 1.414 . S
C921 C922 1.374 . S
C922 H896 0.950 . S
C922 C918 1.385 . S
C922 C921 1.374 . S
C923 C920 1.499 . S
C923 C924 1.373 . S
C923 C925 1.389 . S
C924 H897 0.950 . S
C924 C910 1.377 . S
C924 C923 1.373 . S
C925 C909 1.377 . S
C925 C923 1.389 . S
C925 C926 1.524 . S
C926 C925 1.524 . S
C926 C927 1.397 . S
C926 C931 1.363 . S
C927 H898 0.950 . S
C927 C926 1.397 . S
C927 C928 1.334 . S
C928 H899 0.950 . S
C928 C927 1.334 . S
C928 C929 1.287 . S
C929 C928 1.287 . S
C929 C930 1.524 . S
C929 H932 0.999 . S
C930 H900 0.950 . S
C930 C929 1.524 . S
C930 C931 1.415 . S
C931 H901 0.950 . S
C931 C926 1.363 . S
C931 C930 1.415 . S
H932 C929 0.999 . S
H933 C914 0.913 . S
H934 C952 0.951 . S
H935 C954 0.951 . S
H936 C956 0.950 . S
H937 C957 0.950 . S
H938 C959 0.950 . S
H939 C962 0.950 . S
H940 C963 0.950 . S
H941 C965 0.950 . S
H942 C966 0.950 . S
H943 C967 0.951 . S
H944 C969 0.951 . S
H945 C971 0.950 . S
H946 C972 0.950 . S
H947 C974 0.950 . S
H948 C977 0.950 . S
H949 C978 0.950 . S
H950 C980 0.950 . S
H951 C981 0.950 . S
C952 H934 0.951 . S
C952 C953 1.366 . S
C952 C954 1.388 . S
C953 C952 1.366 . S
C953 C957 1.385 . S
C954 H935 0.951 . S
C954 C952 1.388 . S
C954 C955 1.366 . S
C955 C954 1.366 . S
C955 C956 1.414 . S
C955 C958 1.499 . S
C956 H936 0.950 . S
C956 C955 1.414 . S
C956 C957 1.374 . S
C957 H937 0.950 . S
C957 C953 1.385 . S
C957 C956 1.374 . S
C958 C955 1.499 . S
C958 C959 1.373 . S
C958 C960 1.389 . S
C959 H938 0.950 . S
C959 C958 1.373 . S
C959 C975 1.377 . S
C960 C958 1.389 . S
C960 C961 1.524 . S
C960 C974 1.377 . S
C961 C960 1.524 . S
C961 C962 1.397 . S
C961 C966 1.363 . S
C962 H939 0.950 . S
C962 C961 1.397 . S
C962 C963 1.334 . S
C963 H940 0.950 . S
C963 C962 1.334 . S
C963 C964 1.287 . S
C964 C963 1.287 . S
C964 C965 1.524 . S
C964 H983 0.913 . S
C965 H941 0.950 . S
C965 C964 1.524 . S
C965 C966 1.415 . S
C966 H942 0.950 . S
C966 C961 1.363 . S
C966 C965 1.415 . S
C967 H943 0.951 . S
C967 C968 1.366 . S
C967 C969 1.388 . S
C968 C967 1.366 . S
C968 C972 1.385 . S
C969 H944 0.951 . S
C969 C967 1.388 . S
C969 C970 1.366 . S
C970 C969 1.366 . S
C970 C971 1.414 . S
C970 C973 1.499 . S
C971 H945 0.950 . S
C971 C970 1.414 . S
C971 C972 1.374 . S
C972 H946 0.950 . S
C972 C968 1.385 . S
C972 C971 1.374 . S
C973 C970 1.499 . S
C973 C974 1.373 . S
C973 C975 1.389 . S
C974 H947 0.950 . S
C974 C960 1.377 . S
C974 C973 1.373 . S
C975 C959 1.377 . S
C975 C973 1.389 . S
C975 C976 1.524 . S
C976 C975 1.524 . S
C976 C977 1.397 . S
C976 C981 1.363 . S
C977 H948 0.950 . S
C977 C976 1.397 . S
C977 C978 1.334 . S
C978 H949 0.950 . S
C978 C977 1.334 . S
C978 C979 1.287 . S
C979 C978 1.287 . S
C979 C980 1.524 . S
C979 H982 0.999 . S
C980 H950 0.950 . S
C980 C979 1.524 . S
C980 C981 1.415 . S
C981 H951 0.950 . S
C981 C976 1.363 . S
C981 C980 1.415 . S
H982 C979 0.999 . S
H983 C964 0.913 . S
H984 C1002 0.951 . S
H985 C1004 0.951 . S
H986 C1006 0.950 . S
H987 C1007 0.950 . S
H988 C1009 0.950 . S
H989 C1012 0.950 . S
H990 C1013 0.950 . S
H991 C1015 0.950 . S
H992 C1016 0.950 . S
H993 C1017 0.951 1_565 S
H994 C1019 0.951 1_565 S
H995 C1021 0.950 . S
H996 C1022 0.950 . S
H997 C1024 0.950 . S
H998 C1027 0.950 . S
H999 C1028 0.950 . S
H1000 C1030 0.950 . S
H1001 C1031 0.950 . S
C1002 H984 0.951 . S
C1002 C1003 1.366 . S
C1002 C1004 1.388 . S
C1003 C1002 1.366 . S
C1003 C1007 1.385 . S
C1004 H985 0.951 . S
C1004 C1002 1.388 . S
C1004 C1005 1.366 . S
C1005 C1004 1.366 . S
C1005 C1006 1.414 . S
C1005 C1008 1.499 . S
C1006 H986 0.950 . S
C1006 C1005 1.414 . S
C1006 C1007 1.374 . S
C1007 H987 0.950 . S
C1007 C1003 1.385 . S
C1007 C1006 1.374 . S
C1008 C1005 1.499 . S
C1008 C1009 1.373 . S
C1008 C1010 1.389 . S
C1009 H988 0.950 . S
C1009 C1008 1.373 . S
C1009 C1025 1.377 . S
C1010 C1008 1.389 . S
C1010 C1011 1.524 . S
C1010 C1024 1.377 . S
C1011 C1010 1.524 . S
C1011 C1012 1.397 . S
C1011 C1016 1.363 . S
C1012 H989 0.950 . S
C1012 C1011 1.397 . S
C1012 C1013 1.334 . S
C1013 H990 0.950 . S
C1013 C1012 1.334 . S
C1013 C1014 1.287 . S
C1014 C1013 1.287 . S
C1014 C1015 1.524 . S
C1014 H1033 0.913 . S
C1015 H991 0.950 . S
C1015 C1014 1.524 . S
C1015 C1016 1.415 . S
C1016 H992 0.950 . S
C1016 C1011 1.363 . S
C1016 C1015 1.415 . S
C1017 H993 0.951 1_545 S
C1017 C1018 1.366 . S
C1017 C1019 1.388 . S
C1018 C1017 1.366 . S
C1018 C1022 1.385 . S
C1019 H994 0.951 1_545 S
C1019 C1017 1.388 . S
C1019 C1020 1.366 . S
C1020 C1019 1.366 . S
C1020 C1021 1.414 . S
C1020 C1023 1.499 . S
C1021 H995 0.950 . S
C1021 C1020 1.414 . S
C1021 C1022 1.374 . S
C1022 H996 0.950 . S
C1022 C1018 1.385 . S
C1022 C1021 1.374 . S
C1023 C1020 1.499 . S
C1023 C1024 1.373 . S
C1023 C1025 1.389 . S
C1024 H997 0.950 . S
C1024 C1010 1.377 . S
C1024 C1023 1.373 . S
C1025 C1009 1.377 . S
C1025 C1023 1.389 . S
C1025 C1026 1.524 . S
C1026 C1025 1.524 . S
C1026 C1027 1.397 . S
C1026 C1031 1.363 1_545 S
C1027 H998 0.950 . S
C1027 C1026 1.397 . S
C1027 C1028 1.334 . S
C1028 H999 0.950 . S
C1028 C1027 1.334 . S
C1028 C1029 1.287 . S
C1029 C1028 1.287 . S
C1029 C1030 1.524 1_545 S
C1029 H1032 0.999 . S
C1030 H1000 0.950 . S
C1030 C1029 1.524 1_565 S
C1030 C1031 1.415 . S
C1031 H1001 0.950 . S
C1031 C1026 1.363 1_565 S
C1031 C1030 1.415 . S
H1032 C1029 0.999 . S
H1033 C1014 0.913 . S
H1034 C1052 0.951 . S
H1035 C1054 0.951 . S
H1036 C1056 0.950 . S
H1037 C1057 0.950 . S
H1038 C1059 0.950 . S
H1039 C1062 0.950 . S
H1040 C1063 0.950 . S
H1041 C1065 0.950 . S
H1042 C1066 0.950 . S
H1043 C1067 0.951 . S
H1044 C1069 0.951 . S
H1045 C1071 0.950 . S
H1046 C1072 0.950 . S
H1047 C1074 0.950 1_554 S
H1048 C1077 0.950 . S
H1049 C1078 0.950 . S
H1050 C1080 0.950 . S
H1051 C1081 0.950 1_556 S
C1052 H1034 0.951 . S
C1052 C1053 1.366 . S
C1052 C1054 1.388 . S
C1053 C1052 1.366 . S
C1053 C1057 1.385 . S
C1054 H1035 0.951 . S
C1054 C1052 1.388 . S
C1054 C1055 1.366 . S
C1055 C1054 1.366 . S
C1055 C1056 1.414 . S
C1055 C1058 1.499 . S
C1056 H1036 0.950 . S
C1056 C1055 1.414 . S
C1056 C1057 1.374 . S
C1057 H1037 0.950 . S
C1057 C1053 1.385 . S
C1057 C1056 1.374 . S
C1058 C1055 1.499 . S
C1058 C1059 1.373 . S
C1058 C1060 1.389 . S
C1059 H1038 0.950 . S
C1059 C1058 1.373 . S
C1059 C1075 1.377 . S
C1060 C1058 1.389 . S
C1060 C1061 1.524 . S
C1060 C1074 1.377 . S
C1061 C1060 1.524 . S
C1061 C1062 1.397 . S
C1061 C1066 1.363 . S
C1062 H1039 0.950 . S
C1062 C1061 1.397 . S
C1062 C1063 1.334 . S
C1063 H1040 0.950 . S
C1063 C1062 1.334 . S
C1063 C1064 1.287 . S
C1064 C1063 1.287 . S
C1064 C1065 1.524 . S
C1064 H1083 0.913 . S
C1065 H1041 0.950 . S
C1065 C1064 1.524 . S
C1065 C1066 1.415 . S
C1066 H1042 0.950 . S
C1066 C1061 1.363 . S
C1066 C1065 1.415 . S
C1067 H1043 0.951 . S
C1067 C1068 1.366 . S
C1067 C1069 1.388 . S
C1068 C1067 1.366 . S
C1068 C1072 1.385 . S
C1069 H1044 0.951 . S
C1069 C1067 1.388 . S
C1069 C1070 1.366 . S
C1070 C1069 1.366 . S
C1070 C1071 1.414 . S
C1070 C1073 1.499 . S
C1071 H1045 0.950 . S
C1071 C1070 1.414 . S
C1071 C1072 1.374 . S
C1072 H1046 0.950 . S
C1072 C1068 1.385 . S
C1072 C1071 1.374 . S
C1073 C1070 1.499 . S
C1073 C1074 1.373 1_554 S
C1073 C1075 1.389 1_554 S
C1074 H1047 0.950 1_556 S
C1074 C1060 1.377 . S
C1074 C1073 1.373 1_556 S
C1075 C1059 1.377 . S
C1075 C1073 1.389 1_556 S
C1075 C1076 1.524 1_556 S
C1076 C1075 1.524 1_554 S
C1076 C1077 1.397 . S
C1076 C1081 1.363 . S
C1077 H1048 0.950 . S
C1077 C1076 1.397 . S
C1077 C1078 1.334 . S
C1078 H1049 0.950 . S
C1078 C1077 1.334 . S
C1078 C1079 1.287 . S
C1079 C1078 1.287 . S
C1079 C1080 1.524 . S
C1079 H1082 0.999 . S
C1080 H1050 0.950 . S
C1080 C1079 1.524 . S
C1080 C1081 1.415 . S
C1081 H1051 0.950 1_554 S
C1081 C1076 1.363 . S
C1081 C1080 1.415 . S
H1082 C1079 0.999 . S
H1083 C1064 0.913 . S
H1084 C1102 0.951 . S
H1085 C1104 0.951 . S
H1086 C1106 0.950 . S
H1087 C1107 0.950 . S
H1088 C1109 0.950 . S
H1089 C1112 0.950 . S
H1090 C1113 0.950 . S
H1091 C1115 0.950 . S
H1092 C1116 0.950 . S
H1093 C1117 0.951 . S
H1094 C1119 0.951 . S
H1095 C1121 0.950 . S
H1096 C1122 0.950 . S
H1097 C1124 0.950 . S
H1098 C1127 0.950 . S
H1099 C1128 0.950 . S
H1100 C1130 0.950 . S
H1101 C1131 0.950 . S
C1102 H1084 0.951 . S
C1102 C1103 1.366 . S
C1102 C1104 1.388 . S
C1103 C1102 1.366 . S
C1103 C1107 1.385 . S
C1104 H1085 0.951 . S
C1104 C1102 1.388 . S
C1104 C1105 1.366 . S
C1105 C1104 1.366 . S
C1105 C1106 1.414 . S
C1105 C1108 1.499 . S
C1106 H1086 0.950 . S
C1106 C1105 1.414 . S
C1106 C1107 1.374 . S
C1107 H1087 0.950 . S
C1107 C1103 1.385 . S
C1107 C1106 1.374 . S
C1108 C1105 1.499 . S
C1108 C1109 1.373 . S
C1108 C1110 1.389 . S
C1109 H1088 0.950 . S
C1109 C1108 1.373 . S
C1109 C1125 1.377 . S
C1110 C1108 1.389 . S
C1110 C1111 1.524 . S
C1110 C1124 1.377 . S
C1111 C1110 1.524 . S
C1111 C1112 1.397 . S
C1111 C1116 1.363 . S
C1112 H1089 0.950 . S
C1112 C1111 1.397 . S
C1112 C1113 1.334 . S
C1113 H1090 0.950 . S
C1113 C1112 1.334 . S
C1113 C1114 1.287 . S
C1114 C1113 1.287 . S
C1114 C1115 1.524 . S
C1114 H1133 0.913 . S
C1115 H1091 0.950 . S
C1115 C1114 1.524 . S
C1115 C1116 1.415 . S
C1116 H1092 0.950 . S
C1116 C1111 1.363 . S
C1116 C1115 1.415 . S
C1117 H1093 0.951 . S
C1117 C1118 1.366 . S
C1117 C1119 1.388 . S
C1118 C1117 1.366 . S
C1118 C1122 1.385 . S
C1119 H1094 0.951 . S
C1119 C1117 1.388 . S
C1119 C1120 1.366 . S
C1120 C1119 1.366 . S
C1120 C1121 1.414 . S
C1120 C1123 1.499 . S
C1121 H1095 0.950 . S
C1121 C1120 1.414 . S
C1121 C1122 1.374 . S
C1122 H1096 0.950 . S
C1122 C1118 1.385 . S
C1122 C1121 1.374 . S
C1123 C1120 1.499 . S
C1123 C1124 1.373 . S
C1123 C1125 1.389 . S
C1124 H1097 0.950 . S
C1124 C1110 1.377 . S
C1124 C1123 1.373 . S
C1125 C1109 1.377 . S
C1125 C1123 1.389 . S
C1125 C1126 1.524 . S
C1126 C1125 1.524 . S
C1126 C1127 1.397 1_455 S
C1126 C1131 1.363 . S
C1127 H1098 0.950 . S
C1127 C1126 1.397 1_655 S
C1127 C1128 1.334 . S
C1128 H1099 0.950 . S
C1128 C1127 1.334 . S
C1128 C1129 1.287 . S
C1129 C1128 1.287 . S
C1129 C1130 1.524 . S
C1129 H1132 0.999 . S
C1130 H1100 0.950 . S
C1130 C1129 1.524 . S
C1130 C1131 1.415 1_655 S
C1131 H1101 0.950 . S
C1131 C1126 1.363 . S
C1131 C1130 1.415 1_455 S
H1132 C1129 0.999 . S
H1133 C1114 0.913 . S
C253 C19 3.103 . S
C268 C226 3.032 . S
C303 C49 3.198 . S
C318 C188 3.118 . S
C353 C99 3.086 . S
C368 C207 3.018 . S
C403 C9 2.957 . S
C418 C221 2.923 . S
C468 C183 2.857 . S
C453 C59 2.885 . S
C518 C202 2.928 . S
C503 C89 2.962 . S
C553 C55 0.511 . S
C568 C150 0.603 . S
C603 C85 0.207 . S
C618 C164 0.241 . S
C653 C15 0.113 . S
C668 C126 0.257 . S
C718 C145 0.256 . S
C703 C45 0.211 . S
C768 C169 0.547 . S
C753 C95 0.407 . S
C803 C5 0.322 . S
C818 C131 0.468 . S
C868 C160 1.447 . S
C853 C18 1.441 . S
C903 C58 1.304 . S
C918 C122 1.359 . S
C953 C98 1.368 . S
C968 C141 1.393 . S
C1018 C198 1.710 . S
C1003 C48 1.686 . S
C1068 C217 1.742 . S
C1053 C88 1.692 . S
C1103 C8 1.687 . S
C1118 C179 1.809 . S
