# Generated by pormake.
# Topology zzz, (3,6)-cn, num edge types: 1
# Building blocks:
#     Node 0, Type 0, BuildingBlock: BETDIP_clean_linker_0, # of connection points: 3
#     Node 1, Type 0, BuildingBlock: BETDIP_clean_linker_0, # of connection points: 3
#     Node 2, Type 0, BuildingBlock: BETDIP_clean_linker_0, # of connection points: 3
#     Node 3, Type 0, BuildingBlock: BETDIP_clean_linker_0, # of connection points: 3
#     Node 4, Type 0, BuildingBlock: BETDIP_clean_linker_0, # of connection points: 3
#     Node 5, Type 0, BuildingBlock: BETDIP_clean_linker_0, # of connection points: 3
#     Node 6, Type 0, BuildingBlock: BETDIP_clean_linker_0, # of connection points: 3
#     Node 7, Type 0, BuildingBlock: BETDIP_clean_linker_0, # of connection points: 3
#     Node 8, Type 1, BuildingBlock: VOLQOD_clean_sbu_1, # of connection points: 6
#     Node 9, Type 1, BuildingBlock: VOLQOD_clean_sbu_1, # of connection points: 6
#     Node 10, Type 1, BuildingBlock: VOLQOD_clean_sbu_1, # of connection points: 6
#     Node 11, Type 1, BuildingBlock: VOLQOD_clean_sbu_1, # of connection points: 6
#     Edge 12, Type (0, 1), BuildingBlock: CIFDUS_clean_linker_0, # of connection points: 2
#     Edge 13, Type (0, 1), BuildingBlock: CIFDUS_clean_linker_0, # of connection points: 2
#     Edge 14, Type (0, 1), BuildingBlock: CIFDUS_clean_linker_0, # of connection points: 2
#     Edge 15, Type (0, 1), BuildingBlock: CIFDUS_clean_linker_0, # of connection points: 2
#     Edge 16, Type (0, 1), BuildingBlock: CIFDUS_clean_linker_0, # of connection points: 2
#     Edge 17, Type (0, 1), BuildingBlock: CIFDUS_clean_linker_0, # of connection points: 2
#     Edge 18, Type (0, 1), BuildingBlock: CIFDUS_clean_linker_0, # of connection points: 2
#     Edge 19, Type (0, 1), BuildingBlock: CIFDUS_clean_linker_0, # of connection points: 2
#     Edge 20, Type (0, 1), BuildingBlock: CIFDUS_clean_linker_0, # of connection points: 2
#     Edge 21, Type (0, 1), BuildingBlock: CIFDUS_clean_linker_0, # of connection points: 2
#     Edge 22, Type (0, 1), BuildingBlock: CIFDUS_clean_linker_0, # of connection points: 2
#     Edge 23, Type (0, 1), BuildingBlock: CIFDUS_clean_linker_0, # of connection points: 2
#     Edge 24, Type (0, 1), BuildingBlock: CIFDUS_clean_linker_0, # of connection points: 2
#     Edge 25, Type (0, 1), BuildingBlock: CIFDUS_clean_linker_0, # of connection points: 2
#     Edge 26, Type (0, 1), BuildingBlock: CIFDUS_clean_linker_0, # of connection points: 2
#     Edge 27, Type (0, 1), BuildingBlock: CIFDUS_clean_linker_0, # of connection points: 2
#     Edge 28, Type (0, 1), BuildingBlock: CIFDUS_clean_linker_0, # of connection points: 2
#     Edge 29, Type (0, 1), BuildingBlock: CIFDUS_clean_linker_0, # of connection points: 2
#     Edge 30, Type (0, 1), BuildingBlock: CIFDUS_clean_linker_0, # of connection points: 2
#     Edge 31, Type (0, 1), BuildingBlock: CIFDUS_clean_linker_0, # of connection points: 2
#     Edge 32, Type (0, 1), BuildingBlock: CIFDUS_clean_linker_0, # of connection points: 2
#     Edge 33, Type (0, 1), BuildingBlock: CIFDUS_clean_linker_0, # of connection points: 2
#     Edge 34, Type (0, 1), BuildingBlock: CIFDUS_clean_linker_0, # of connection points: 2
#     Edge 35, Type (0, 1), BuildingBlock: CIFDUS_clean_linker_0, # of connection points: 2
# Relax obj value: 0.193
# Max RMSD: 0.235
# Mean RMSD: 0.111
data_MOF--net-zzz--node1-VOLQOD_clean_sbu_1--node2-BETDIP_clean_linker_0--edge1-CIFDUS_clean_linker_0
_symmetry_space_group_name_H-M    P1
_symmetry_Int_Tables_number       1
_symmetry_cell_setting            triclinic
loop_
_symmetry_equiv_pos_as_xyz
'x, y, z'
_cell_length_a     44.980767
_cell_length_b     44.732411
_cell_length_c     15.385902
_cell_angle_alpha  89.967171
_cell_angle_beta   90.212699
_cell_angle_gamma 90.99564
loop_
_atom_site_label
_atom_site_type_symbol
_atom_site_fract_x
_atom_site_fract_y
_atom_site_fract_z
_atom_type_partial_charge
H0 H 0.76863 0.52677 0.2527 0.0
H1 H 0.78812 0.4807 0.01464 0.0
H2 H 0.85917 0.51635 0.1733 0.0
H3 H 0.72648 0.54075 0.1679 0.0
C4 C 0.72193 0.52223 0.12391 0.0
C5 C 0.78458 0.51895 0.20574 0.0
C6 C 0.81523 0.52269 0.22209 0.0
C7 C 0.77495 0.50453 0.12867 0.0
C8 C 0.79595 0.49262 0.07179 0.0
C9 C 0.82655 0.49679 0.08666 0.0
C10 C 0.8357 0.51237 0.16122 0.0
N11 N 0.74452 0.50146 0.10488 0.0
H12 H 0.0164 0.76615 0.28822 0.0
H13 H 0.05132 0.79874 0.04457 0.0
H14 H 0.04723 0.85704 0.26559 0.0
H15 H 0.01989 0.76254 -0.00509 0.0
C16 C 0.02478 0.74394 0.03779 0.0
C17 C 0.02686 0.78379 0.25021 0.0
C18 C 0.03098 0.81235 0.2861 0.0
C19 C 0.03476 0.77846 0.16331 0.0
C20 C 0.04625 0.80229 0.11235 0.0
C21 C 0.05003 0.83109 0.14795 0.0
C22 C 0.044 0.83516 0.2363 0.0
N23 N 0.02988 0.74937 0.12778 0.0
H24 H 0.74058 0.97825 0.2086 0.0
H25 H 0.72783 0.05247 0.03338 0.0
H26 H 0.65619 0.02082 0.19356 0.0
H27 H 0.77712 0.05673 0.03898 0.0
C28 C 0.78475 0.03388 0.04288 0.0
C29 C 0.7269 0.99597 0.18321 0.0
C30 C 0.69715 0.99796 0.20907 0.0
C31 C 0.73867 0.01625 0.12176 0.0
C32 C 0.71994 0.0381 0.08519 0.0
C33 C 0.69007 0.04011 0.11114 0.0
C34 C 0.67944 0.02049 0.17508 0.0
N35 N 0.76835 0.01233 0.09216 0.0
H36 H 0.52079 0.74048 0.25268 0.0
H37 H 0.48427 0.70961 0.00993 0.0
H38 H 0.47312 0.65682 0.24234 0.0
H39 H 0.53343 0.73927 0.97679 0.0
C40 C 0.52299 0.75869 0.00516 0.0
C41 C 0.50776 0.72411 0.2164 0.0
C42 C 0.4982 0.69756 0.25663 0.0
C43 C 0.50164 0.72894 0.1281 0.0
C44 C 0.48713 0.70637 0.0791 0.0
C45 C 0.47709 0.67966 0.11916 0.0
C46 C 0.48118 0.6767 0.20923 0.0
N47 N 0.51038 0.75654 0.08947 0.0
H48 H 0.25444 0.47775 0.10084 0.0
H49 H 0.2377 0.53327 0.32216 0.0
H50 H 0.19019 0.54717 0.08295 0.0
H51 H 0.25459 0.48926 0.3878 0.0
C52 C 0.27527 0.48863 0.35158 0.0
C53 C 0.24345 0.49673 0.12929 0.0
C54 C 0.22088 0.51122 0.08299 0.0
C55 C 0.25072 0.50585 0.21434 0.0
C56 C 0.23367 0.52806 0.25457 0.0
C57 C 0.2106 0.54228 0.2091 0.0
C58 C 0.20689 0.5357 0.12058 0.0
N59 N 0.27447 0.49186 0.25947 0.0
H60 H 0.07456 0.25849 0.06339 0.0
H61 H 0.025 0.23421 0.29258 0.0
H62 H 0.03062 0.173 0.07826 0.0
H63 H 0.00794 0.28281 0.26815 0.0
C64 C 0.02954 0.29391 0.26221 0.0
C65 C 0.06098 0.24251 0.09919 0.0
C66 C 0.05502 0.21402 0.06462 0.0
C67 C 0.04833 0.25055 0.17925 0.0
C68 C 0.0322 0.22886 0.22753 0.0
C69 C 0.02618 0.20025 0.19305 0.0
C70 C 0.03641 0.19404 0.10936 0.0
N71 N 0.05181 0.28036 0.21066 0.0
H72 H 0.26246 0.03562 0.04435 0.0
H73 H 0.28387 0.01821 0.31398 0.0
H74 H 0.35174 0.04797 0.13968 0.0
H75 H 0.24505 0.98666 0.30019 0.0
C76 C 0.22906 1.00085 0.26788 0.0
C77 C 0.27815 0.03593 0.09792 0.0
C78 C 0.30812 0.04413 0.08325 0.0
C79 C 0.26886 0.02688 0.18166 0.0
C80 C 0.29009 0.02541 0.24932 0.0
C81 C 0.31983 0.03308 0.23389 0.0
C82 C 0.32835 0.04337 0.15216 0.0
N83 N 0.23841 0.01913 0.19679 0.0
H84 H 0.4765 0.25171 0.11173 0.0
H85 H 0.52632 0.2797 0.33788 0.0
H86 H 0.52868 0.33271 0.10489 0.0
H87 H 0.48795 0.25117 0.40071 0.0
C88 C 0.49099 0.23126 0.36144 0.0
C89 C 0.49189 0.26721 0.14306 0.0
C90 C 0.50111 0.29337 0.09989 0.0
C91 C 0.50198 0.26156 0.22807 0.0
C92 C 0.51997 0.28322 0.2709 0.0
C93 C 0.52898 0.3097 0.22811 0.0
C94 C 0.52111 0.31315 0.14059 0.0
N95 N 0.49369 0.23422 0.26968 0.0
O96 O 0.08171 0.01384 0.63955 0.0
Zn97 Zn 0.04737 0.02171 0.7213 0.0
O98 O 0.00873 0.01393 0.66189 0.0
Zn99 Zn 0.98517 0.04988 0.66009 0.0
Zn100 Zn 0.01568 1.00186 0.54205 0.0
Zn101 Zn 0.9853 0.98281 0.72128 0.0
O102 O 0.94628 0.04483 0.72223 0.0
O103 O 0.94548 0.99758 0.76579 0.0
O104 O 0.05121 0.06567 0.76025 0.0
O105 O 0.00774 0.08301 0.71643 0.0
O106 O 0.97826 0.06525 0.54 0.0
O107 O 0.99997 0.03166 0.45726 0.0
O108 O 0.99843 0.96095 0.51885 0.0
O109 O 0.05189 0.99341 0.82453 0.0
O110 O 0.97927 0.94616 0.64534 0.0
O111 O 0.00825 0.96893 0.82365 0.0
C112 C 0.08294 1.00599 0.56001 0.0
C113 C 0.93342 0.02313 0.76134 0.0
C114 C 0.9862 0.05608 0.46565 0.0
C115 C 0.03313 0.08718 0.75125 0.0
C116 C 0.9854 0.94135 0.56591 0.0
C117 C 0.03384 0.97403 0.85629 0.0
O118 O 0.05946 1.00069 0.5159 0.0
O119 O 0.49805 0.06295 0.62367 0.0
Zn120 Zn 0.49967 0.0302 0.71476 0.0
O121 O 0.50782 0.99123 0.65852 0.0
Zn122 Zn 0.4743 0.96384 0.67318 0.0
Zn123 Zn 0.5154 0.99762 0.53533 0.0
Zn124 Zn 0.54201 0.9719 0.70845 0.0
O125 O 0.48452 0.92615 0.7375 0.0
O126 O 0.53204 0.93342 0.7728 0.0
O127 O 0.45907 0.02949 0.77734 0.0
O128 O 0.44362 0.98357 0.74346 0.0
O129 O 0.45287 0.95602 0.56096 0.0
O130 O 0.47998 0.98319 0.46884 0.0
O131 O 0.55389 0.97921 0.4947 0.0
O132 O 0.53506 0.04243 0.79229 0.0
O133 O 0.57291 0.96318 0.61926 0.0
O134 O 0.56258 1.00158 0.78302 0.0
C135 C 0.50707 0.06463 0.54532 0.0
C136 C 0.50811 0.91777 0.77567 0.0
C137 C 0.45681 0.96766 0.48642 0.0
C138 C 0.43927 0.00863 0.77952 0.0
C139 C 0.5748 0.96715 0.5377 0.0
C140 C 0.55875 0.02819 0.80916 0.0
O141 O 0.51669 0.04168 0.50607 0.0
O142 O 0.43916 0.4817 0.6398 0.0
Zn143 Zn 0.47277 0.48125 0.73016 0.0
O144 O 0.51102 0.49554 0.67755 0.0
Zn145 Zn 0.54091 0.46489 0.68494 0.0
Zn146 Zn 0.50492 0.50565 0.55579 0.0
Zn147 Zn 0.52746 0.5307 0.73691 0.0
O148 O 0.57671 0.47723 0.7564 0.0
O149 O 0.56729 0.52377 0.79558 0.0
O150 O 0.47643 0.43795 0.77497 0.0
O151 O 0.52319 0.42869 0.73956 0.0
O152 O 0.55353 0.4508 0.56796 0.0
O153 O 0.5288 0.47961 0.47668 0.0
O154 O 0.51237 0.54948 0.534 0.0
O155 O 0.46092 0.50942 0.82894 0.0
O156 O 0.52897 0.56728 0.66026 0.0
O157 O 0.49925 0.54173 0.82821 0.0
C158 C 0.43887 0.48886 0.55944 0.0
C159 C 0.58395 0.50103 0.79726 0.0
C160 C 0.54648 0.45819 0.49093 0.0
C161 C 0.49836 0.42021 0.77109 0.0
C162 C 0.52166 0.57108 0.58119 0.0
C163 C 0.47439 0.53273 0.85792 0.0
O164 O 0.46242 0.49801 0.52158 0.0
O165 O 0.97233 0.56199 0.52404 0.0
Zn166 Zn 0.01309 0.5604 0.58174 0.0
O167 O 0.0203 0.52161 0.63845 0.0
Zn168 Zn 0.02711 0.52686 0.76446 0.0
Zn169 Zn 0.98577 0.49604 0.6181 0.0
Zn170 Zn 0.05455 0.50205 0.58722 0.0
O171 O 0.06871 0.51358 0.79874 0.0
O172 O 0.08784 0.49816 0.67373 0.0
O173 O 0.01492 0.59314 0.67069 0.0
O174 O 0.0245 0.57099 0.79673 0.0
O175 O 0.99518 0.50472 0.83423 0.0
O176 O 0.967 0.48503 0.72935 0.0
O177 O 0.99591 0.45843 0.55507 0.0
O178 O 0.04455 0.56983 0.49149 0.0
O179 O 0.04454 0.46147 0.53315 0.0
O180 O 0.07146 0.52849 0.4958 0.0
C181 C 0.95112 0.54278 0.51948 0.0
C182 C 0.09024 0.50329 0.75475 0.0
C183 C 0.97234 0.48967 0.80931 0.0
C184 C 0.01952 0.59451 0.75235 0.0
C185 C 0.01975 0.44746 0.52549 0.0
C186 C 0.06628 0.55435 0.46574 0.0
O187 O 0.95375 0.51679 0.5518 0.0
H188 H 0.21473 0.98808 0.43274 0.0
H189 H 0.17714 0.01969 0.19234 0.0
H190 H 0.12817 0.023 0.26124 0.0
H191 H 0.09625 0.01701 0.39073 0.0
H192 H 0.13527 0.98951 0.63389 0.0
H193 H 0.18358 0.98454 0.56335 0.0
C194 C 0.19574 0.99566 0.39555 0.0
C195 C 0.19934 1.00345 0.30769 0.0
C196 C 0.16802 0.99826 0.43621 0.0
C197 C 0.17482 0.0136 0.26015 0.0
C198 C 0.14687 0.01544 0.29951 0.0
C199 C 0.11534 0.00984 0.42808 0.0
C200 C 0.11219 1.00338 0.51724 0.0
C201 C 0.14322 0.00782 0.38756 0.0
C202 C 0.13717 0.99462 0.56527 0.0
C203 C 0.16476 0.99172 0.52493 0.0
H204 H 0.50525 0.17668 0.29292 0.0
H205 H 0.47883 0.2201 0.52988 0.0
H206 H 0.48132 0.17263 0.60808 0.0
H207 H 0.49155 0.11897 0.60979 0.0
H208 H 0.51911 0.07551 0.37364 0.0
H209 H 0.51575 0.12272 0.29492 0.0
C210 C 0.49986 0.17568 0.3615 0.0
C211 C 0.49168 0.20182 0.40558 0.0
C212 C 0.50172 0.14832 0.40643 0.0
C213 C 0.48507 0.20023 0.4946 0.0
C214 C 0.48655 0.17312 0.53938 0.0
C215 C 0.49685 0.11976 0.54112 0.0
C216 C 0.5056 0.09359 0.49803 0.0
C217 C 0.49496 0.14703 0.49609 0.0
C218 C 0.51241 0.09522 0.40887 0.0
C219 C 0.51043 0.12224 0.36356 0.0
H220 H 0.33235 0.49183 0.2897 0.0
H221 H 0.28142 0.4788 0.52391 0.0
H222 H 0.32726 0.47635 0.60947 0.0
H223 H 0.38195 0.4799 0.61858 0.0
H224 H 0.43253 0.49427 0.38377 0.0
H225 H 0.38691 0.49411 0.29825 0.0
C226 C 0.33129 0.4882 0.35932 0.0
C227 C 0.30353 0.48543 0.40047 0.0
C228 C 0.35776 0.48719 0.40831 0.0
C229 C 0.30257 0.48094 0.49081 0.0
C230 C 0.32877 0.47959 0.5398 0.0
C231 C 0.38302 0.4828 0.54867 0.0
C232 C 0.41077 0.4872 0.50812 0.0
C233 C 0.35653 0.48298 0.49942 0.0
C234 C 0.41158 0.491 0.41724 0.0
C235 C 0.38544 0.4909 0.36795 0.0
H236 H 0.98899 0.32245 0.35511 0.0
H237 H 0.07958 0.3308 0.26706 0.0
H238 H 0.08489 0.37904 0.34222 0.0
H239 H 0.06323 0.41901 0.43302 0.0
H240 H 0.97207 0.40937 0.51804 0.0
H241 H 0.96765 0.36155 0.44425 0.0
C242 C 0.00991 0.33486 0.35231 0.0
C243 C 0.0338 0.3232 0.30567 0.0
C244 C 0.01271 0.36237 0.39532 0.0
C245 C 0.06081 0.33939 0.3025 0.0
C246 C 0.06384 0.36694 0.34554 0.0
C247 C 0.04245 0.40639 0.4356 0.0
C248 C 0.01804 0.41795 0.48121 0.0
C249 C 0.03988 0.37868 0.39226 0.0
C250 C 0.99124 0.40125 0.48345 0.0
C251 C 0.98863 0.3738 0.44121 0.0
H252 H 0.81603 0.06963 0.93586 0.0
H253 H 0.81491 0.98068 0.04375 0.0
H254 H 0.86038 0.9691 0.96417 0.0
H255 H 0.901 0.98476 0.86512 0.0
H256 H 0.90102 0.07402 0.75752 0.0
H257 H 0.85547 0.08478 0.83513 0.0
C258 C 0.82578 0.04771 0.94193 0.0
C259 C 0.81225 0.02614 -0.00424 0.0
C260 C 0.85173 0.0412 0.89574 0.0
C261 C 0.82495 0.99774 0.00282 0.0
C262 C 0.85094 0.9911 0.95724 0.0
C263 C 0.89095 0.00649 0.8582 0.0
C264 C 0.90463 0.02851 0.80543 0.0
C265 C 0.86459 0.01271 0.90355 0.0
C266 C 0.89119 0.05658 0.7976 0.0
C267 C 0.86508 0.06285 0.84214 0.0
H268 H 0.48375 0.80405 0.00964 0.0
H269 H 0.56702 0.77786 0.898 0.0
H270 H 0.57099 0.82573 0.82078 0.0
H271 H 0.54999 0.87475 0.7826 0.0
H272 H 0.46391 0.89808 0.88141 0.0
H273 H 0.46169 0.85179 0.96614 0.0
C274 C 0.50284 0.809 0.96888 0.0
C275 C 0.5253 0.78782 0.96018 0.0
C276 C 0.50434 0.83602 0.92222 0.0
C277 C 0.54959 0.79404 0.90574 0.0
C278 C 0.55184 0.82135 0.86169 0.0
C279 C 0.53087 0.86965 0.82306 0.0
C280 C 0.50724 0.88976 0.82644 0.0
C281 C 0.52927 0.84248 0.86911 0.0
C282 C 0.48232 0.88282 0.87784 0.0
C283 C 0.48106 0.85642 0.92635 0.0
H284 H 0.70419 0.48148 0.00121 0.0
H285 H 0.6773 0.56245 0.12864 0.0
H286 H 0.6325 0.56379 0.0375 0.0
H287 H 0.60126 0.542 0.92048 0.0
H288 H 0.62874 0.46072 0.79503 0.0
H289 H 0.67314 0.45969 0.88602 0.0
C290 C 0.68854 0.49942 0.00942 0.0
C291 C 0.69408 0.52189 0.07171 0.0
C292 C 0.66302 0.5001 0.9566 0.0
C293 C 0.67347 0.54487 0.08129 0.0
C294 C 0.64793 0.54569 0.02898 0.0
C295 C 0.61705 0.52417 0.91263 0.0
C296 C 0.6116 0.50153 0.85054 0.0
C297 C 0.64255 0.52349 0.96603 0.0
C298 C 0.63225 0.47845 0.84207 0.0
C299 C 0.65769 0.47779 0.89426 0.0
H300 H 0.01401 0.72934 0.87184 0.0
H301 H 0.03498 0.69021 0.12021 0.0
H302 H 0.03497 0.64036 0.05412 0.0
H303 H 0.02942 0.60797 0.92441 0.0
H304 H 0.00855 0.6483 0.67673 0.0
H305 H 0.0081 0.6974 0.74395 0.0
C306 C 0.01852 0.70986 0.9115 0.0
C307 C 0.02445 0.71341 0.00053 0.0
C308 C 0.01853 0.68142 0.87313 0.0
C309 C 0.0303 0.68806 0.05138 0.0
C310 C 0.03032 0.65955 0.01358 0.0
C311 C 0.02474 0.62748 0.88516 0.0
C312 C 0.01908 0.62425 0.7954 0.0
C313 C 0.02453 0.65596 0.92432 0.0
C314 C 0.01305 0.64991 0.74579 0.0
C315 C 0.01277 0.67812 0.78415 0.0
H316 H 0.03361 0.13984 0.17954 0.0
H317 H 0.98445 0.20538 0.32467 0.0
H318 H 0.96393 0.16549 0.41587 0.0
H319 H 0.96396 0.11258 0.46185 0.0
H320 H 0.00969 0.04796 0.30456 0.0
H321 H 0.02524 0.08729 0.20502 0.0
C322 C 0.01741 0.14585 0.22805 0.0
C323 C 0.01094 0.17608 0.24446 0.0
C324 C 1.00459 0.12285 0.27737 0.0
C325 C 0.99072 0.18261 0.31127 0.0
C326 C 0.97857 0.15971 0.36291 0.0
C327 C 0.9766 0.10693 0.40444 0.0
C328 C 0.98633 0.07742 0.39221 0.0
C329 C 0.98591 0.1298 0.34763 0.0
C330 C 1.00223 0.07047 0.31658 0.0
C331 C 0.01144 0.09303 0.25995 0.0
H332 H 0.33166 0.97939 0.3057 0.0
H333 H 0.36183 0.07139 0.29647 0.0
H334 H 0.4085 0.05795 0.36663 0.0
H335 H 0.44145 0.02007 0.42174 0.0
H336 H 0.41151 0.92828 0.44216 0.0
H337 H 0.36393 0.94134 0.37348 0.0
C338 C 0.34816 0.99652 0.32169 0.0
C339 C 0.34349 0.02633 0.29679 0.0
C340 C 0.37515 0.98849 0.36051 0.0
C341 C 0.36506 0.04839 0.31601 0.0
C342 C 0.3918 0.04065 0.35484 0.0
C343 C 0.42478 1.00273 0.4094 0.0
C344 C 0.43023 0.97305 0.43353 0.0
C345 C 0.39734 0.0107 0.37488 0.0
C346 C 0.40797 0.95108 0.42137 0.0
C347 C 0.38074 0.95866 0.38343 0.0
H348 H 0.52198 0.36925 0.19544 0.0
H349 H 0.56669 0.30922 0.37145 0.0
H350 H 0.58111 0.35174 0.46265 0.0
H351 H 0.57458 0.40466 0.50154 0.0
H352 H 0.53143 0.46363 0.31965 0.0
H353 H 0.52515 0.42255 0.21746 0.0
C354 C 0.53605 0.36505 0.2512 0.0
C355 C 0.54277 0.33554 0.27628 0.0
C356 C 0.54485 0.38953 0.30209 0.0
C357 C 0.56027 0.33137 0.35125 0.0
C358 C 0.56884 0.35577 0.40315 0.0
C359 C 0.56461 0.4088 0.43848 0.0
C360 C 0.55265 0.43704 0.41952 0.0
C361 C 0.56028 0.38482 0.38069 0.0
C362 C 0.54035 0.44206 0.3368 0.0
C363 C 0.53648 0.41848 0.27854 0.0
H364 H 0.15161 0.54607 0.16483 0.0
H365 H 0.21454 0.57505 0.36257 0.0
H366 H 0.17328 0.58728 0.45768 0.0
H367 H 0.12005 0.57952 0.49338 0.0
H368 H 0.05864 0.55189 0.29238 0.0
H369 H 0.09909 0.5512 0.18685 0.0
C370 C 0.157 0.55643 0.22653 0.0
C371 C 0.18671 0.55851 0.2566 0.0
C372 C 0.13328 0.56379 0.28036 0.0
C373 C 0.19211 0.57176 0.33836 0.0
C374 C 0.16847 0.57905 0.39281 0.0
C375 C 0.11549 0.57479 0.4254 0.0
C376 C 0.0867 0.56582 0.39976 0.0
C377 C 0.13902 0.57359 0.36601 0.0
C378 C 0.08071 0.5592 0.31252 0.0
C379 C 0.10388 0.55841 0.25276 0.0
H380 H 0.02588 0.88599 0.16384 0.0
H381 H 0.08641 0.8364 0.00377 0.0
H382 H 0.09061 0.87905 0.9044 0.0
H383 H 0.07251 0.9285 0.85576 0.0
H384 H 0.01171 0.97642 0.01787 0.0
H385 H 0.0136 0.93684 0.12713 0.0
C386 C 0.04096 0.88461 0.10926 0.0
C387 C 0.05588 0.8578 0.0919 0.0
C388 C 0.04345 0.90915 0.05329 0.0
C389 C 0.07432 0.85649 0.01839 0.0
C390 C 0.0769 0.88097 0.96183 0.0
C391 C 0.06068 0.93064 0.9167 0.0
C392 C 0.0424 0.95538 0.93016 0.0
C393 C 0.06102 0.90719 0.97766 0.0
C394 C 0.02631 0.95774 0.00754 0.0
C395 C 0.02711 0.93497 0.06924 0.0
H396 H 0.68681 0.04541 0.9361 0.0
H397 H 0.64229 0.07189 0.17068 0.0
H398 H 0.59551 0.07616 0.09084 0.0
H399 H 0.56563 0.05856 0.96353 0.0
H400 H 0.61156 0.0317 0.73165 0.0
H401 H 0.65936 0.0422 0.80035 0.0
C402 C 0.66735 0.05362 0.96925 0.0
C403 C 0.66773 0.05694 0.0599 0.0
C404 C 0.64043 0.05522 0.92351 0.0
C405 C 0.64228 0.06811 0.10114 0.0
C406 C 0.61542 0.07031 0.05568 0.0
C407 C 0.58612 0.05616 0.92747 0.0
C408 C 0.58532 0.04365 0.84392 0.0
C409 C 0.61381 0.06165 0.96824 0.0
C410 C 0.61188 0.04076 0.79702 0.0
C411 C 0.63922 0.0467 0.83619 0.0
H412 H 0.48258 0.61997 0.15655 0.0
H413 H 0.44633 0.67938 0.96252 0.0
H414 H 0.43598 0.63657 0.86843 0.0
H415 H 0.44478 0.58349 0.83367 0.0
H416 H 0.47928 0.52519 0.0311 0.0
H417 H 0.48041 0.56646 0.13513 0.0
C418 C 0.47111 0.62399 0.09584 0.0
C419 C 0.46576 0.65346 0.06713 0.0
C420 C 0.46441 0.59927 0.04311 0.0
C421 C 0.45174 0.65732 0.98598 0.0
C422 C 0.44543 0.63274 0.9323 0.0
C423 C 0.45097 0.57959 0.90092 0.0
C424 C 0.4616 0.55143 0.92557 0.0
C425 C 0.45265 0.60375 0.9591 0.0
C426 C 0.47041 0.54657 0.01172 0.0
C427 C 0.47163 0.57032 0.07046 0.0
H428 H 0.88298 0.47721 0.11933 0.0
H429 H 0.82154 0.49418 0.90868 0.0
H430 H 0.86112 0.48713 0.80423 0.0
H431 H 0.91401 0.48505 0.7738 0.0
H432 H 0.97721 0.47836 0.98436 0.0
H433 H 0.93617 0.47353 0.08833 0.0
C434 C 0.87815 0.47972 0.05068 0.0
C435 C 0.84922 0.48702 0.0227 0.0
C436 C 0.90151 0.47801 -0.00897 0.0
C437 C 0.84334 0.4885 0.93295 0.0
C438 C 0.86612 0.48486 0.87287 0.0
C439 C 0.9189 0.4819 0.84228 0.0
C440 C 0.94858 0.48205 0.87162 0.0
C441 C 0.89542 0.48089 0.90145 0.0
C442 C 0.95452 0.47839 0.96052 0.0
C443 C 0.93109 0.4757 0.01972 0.0
H444 H 0.02976 0.21572 0.90686 0.0
H445 H 0.10624 0.18396 0.0448 0.0
H446 H 0.10883 0.14083 0.94782 0.0
H447 H 0.08108 0.10621 0.85 0.0
H448 H 1.00235 0.13778 0.71966 0.0
H449 H 0.00878 0.18642 0.78701 0.0
C450 C 0.04807 0.20032 0.91194 0.0
C451 C 0.0676 0.20279 0.98286 0.0
C452 C 0.04806 0.17456 0.85992 0.0
C453 C 0.09109 0.18258 -0.01004 0.0
C454 C 0.09205 0.15745 0.93594 0.0
C455 C 0.06569 0.12391 0.83509 0.0
C456 C 0.04069 0.11785 0.78223 0.0
C457 C 0.06929 0.15212 0.87499 0.0
C458 C 0.02132 0.14134 0.76223 0.0
C459 C 0.02504 0.16939 0.80027 0.0
H460 H 0.31611 0.99974 0.97102 0.0
H461 H 0.33338 0.09369 0.00871 0.0
H462 H 0.37633 0.09161 0.91158 0.0
H463 H 0.41425 0.0607 0.83886 0.0
H464 H 0.39756 0.96567 0.81301 0.0
H465 H 0.34983 0.97043 0.88331 0.0
C466 C 0.32834 0.02004 0.95404 0.0
C467 C 0.32149 0.04683 -0.00397 0.0
C468 C 0.35415 0.01816 0.90348 0.0
C469 C 0.33795 0.07291 0.97557 0.0
C470 C 0.36298 0.07153 0.92189 0.0
C471 C 0.40011 0.04111 0.84842 0.0
C472 C 0.40996 0.01282 0.82191 0.0
C473 C 0.3723 0.04388 0.88962 0.0
C474 C 0.39097 0.98774 0.83348 0.0
C475 C 0.36342 0.99039 0.87334 0.0
H476 H 0.52601 0.29729 0.9415 0.0
H477 H 0.44647 0.31695 0.08306 0.0
H478 H 0.43552 0.35774 0.98257 0.0
H479 H 0.45546 0.39483 0.87692 0.0
H480 H 0.53666 0.37524 0.74082 0.0
H481 H 0.53995 0.32772 0.81569 0.0
C482 C 0.50542 0.30944 0.94705 0.0
C483 C 0.4871 0.30425 0.01922 0.0
C484 C 0.50021 0.33382 0.89196 0.0
C485 C 0.4607 0.32036 0.02711 0.0
C486 C 0.45482 0.34417 0.9708 0.0
C487 C 0.47347 0.37987 0.86232 0.0
C488 C 0.49628 0.38919 0.80551 0.0
C489 C 0.47551 0.35233 0.90656 0.0
C490 C 0.51922 0.3692 0.78624 0.0
C491 C 0.52111 0.34181 0.8287 0.0
H492 H 0.21386 0.53458 0.9216 0.0
H493 H 0.19086 0.4585 0.08064 0.0
H494 H 0.14784 0.44737 0.98792 0.0
H495 H 0.11162 0.4654 0.87848 0.0
H496 H 0.13549 0.54089 0.71778 0.0
H497 H 0.1831 0.54635 0.79394 0.0
C498 C 0.20025 0.51471 0.93307 0.0
C499 C 0.20549 0.49736 0.00756 0.0
C500 C 0.17505 0.50903 0.88098 0.0
C501 C 0.1875 0.47191 0.02286 0.0
C502 C 0.16251 0.46592 0.9709 0.0
C503 C 0.12758 0.48262 0.85949 0.0
C504 C 0.12011 0.50306 0.79403 0.0
C505 C 0.15518 0.4853 0.90269 0.0
C506 C 0.14089 0.52511 0.7687 0.0
C507 C 0.16808 0.52821 0.81207 0.0
H508 H 0.97822 0.83744 0.30236 0.0
H509 H 0.05487 0.81078 0.44929 0.0
H510 H 0.0423 0.84602 0.56494 0.0
H511 H 0.01696 0.89264 0.6038 0.0
H512 H 0.94588 0.92426 0.44171 0.0
H513 H 0.94828 0.87905 0.35258 0.0
C514 C 0.99119 0.83835 0.36198 0.0
C515 C 0.01717 0.82149 0.36834 0.0
C516 C 0.98518 0.86033 0.42404 0.0
C517 C 0.03449 0.82323 0.44417 0.0
C518 C 0.02758 0.84379 0.50932 0.0
C519 C 1.00131 0.8889 0.55092 0.0
C520 C 0.98111 0.91133 0.52916 0.0
C521 C 1.0041 0.86372 0.49716 0.0
C522 C 0.96136 0.90698 0.45952 0.0
C523 C 0.9629 0.88127 0.40846 0.0
H524 H 0.6998 0.99411 0.38438 0.0
H525 H 0.65872 0.95456 0.15803 0.0
H526 H 0.6165 0.93727 0.24494 0.0
H527 H 0.58654 0.94456 0.37723 0.0
H528 H 0.62839 0.98246 0.60533 0.0
H529 H 0.67505 0.98901 0.52665 0.0
C530 C 0.68241 0.98021 0.35544 0.0
C531 C 0.68211 0.97573 0.26527 0.0
C532 C 0.65784 0.97098 0.4056 0.0
C533 C 0.65935 0.95803 0.22773 0.0
C534 C 0.63494 0.94865 0.27708 0.0
C535 C 0.60618 0.95338 0.41014 0.0
C536 C 0.60399 0.96353 0.49607 0.0
C537 C 0.63311 0.95675 0.3648 0.0
C538 C 0.62958 0.97459 0.53884 0.0
C539 C 0.65626 0.97848 0.49383 0.0
H540 H 0.46748 0.68145 0.40027 0.0
H541 H 0.55605 0.68885 0.29667 0.0
H542 H 0.5734 0.65166 0.40083 0.0
H543 H 0.56019 0.60883 0.49677 0.0
H544 H 0.47082 0.60049 0.59442 0.0
H545 H 0.45682 0.64601 0.51782 0.0
C546 C 0.49086 0.67592 0.40366 0.0
C547 C 0.51042 0.68755 0.34084 0.0
C548 C 0.50026 0.65354 0.46081 0.0
C549 C 0.54065 0.68026 0.34498 0.0
C550 C 0.55044 0.65854 0.40341 0.0
C551 C 0.53798 0.61763 0.50294 0.0
C552 C 0.51639 0.6015 0.54992 0.0
C553 C 0.53001 0.64369 0.45774 0.0
C554 C 0.48762 0.61274 0.55794 0.0
C555 C 0.47963 0.63868 0.51418 0.0
H556 H 0.85227 0.57027 0.24501 0.0
H557 H 0.80807 0.49849 0.38243 0.0
H558 H 0.84582 0.50118 0.49714 0.0
H559 H 0.89684 0.51603 0.53884 0.0
H560 H 0.9426 0.58585 0.39596 0.0
H561 H 0.899 0.59183 0.30265 0.0
C562 C 0.85021 0.55626 0.30235 0.0
C563 C 0.82765 0.53405 0.3052 0.0
C564 C 0.87296 0.55678 0.3651 0.0
C565 C 0.82512 0.51586 0.37922 0.0
C566 C 0.84709 0.51699 0.44382 0.0
C567 C 0.89712 0.53288 0.4881 0.0
C568 C 0.92322 0.54994 0.47283 0.0
C569 C 0.87206 0.536 0.43427 0.0
C570 C 0.92296 0.57218 0.40834 0.0
C571 C 0.89802 0.5756 0.35494 0.0
loop_
_geom_bond_atom_site_label_1
_geom_bond_atom_site_label_2
_geom_bond_distance
_geom_bond_site_symmetry_2
_ccdc_geom_bond_type
H0 C5 0.930 . S
H1 C8 0.930 . S
H2 C10 0.930 . S
H3 C4 1.016 . S
C4 H3 1.016 . S
C4 N11 1.286 1_556 S
C5 H0 0.930 . S
C5 C6 1.397 . S
C5 C7 1.361 . S
C6 C5 1.397 . S
C6 C10 1.390 . S
C7 C5 1.361 . S
C7 C8 1.393 1_554 S
C7 N11 1.413 . S
C8 H1 0.930 . S
C8 C7 1.393 1_556 S
C8 C9 1.399 . S
C9 C8 1.399 . S
C9 C10 1.381 1_556 S
C10 H2 0.930 . S
C10 C6 1.390 . S
C10 C9 1.381 1_554 S
N11 C4 1.286 1_554 S
N11 C7 1.413 . S
H12 C17 0.930 . S
H13 C20 0.930 1_556 S
H14 C22 0.930 . S
H15 C16 1.016 1_556 S
C16 H15 1.016 1_554 S
C16 N23 1.286 1_655 S
C17 H12 0.930 . S
C17 C18 1.397 . S
C17 C19 1.361 . S
C18 C17 1.397 . S
C18 C22 1.390 1_455 S
C19 C17 1.361 . S
C19 C20 1.393 . S
C19 N23 1.413 . S
C20 H13 0.930 1_554 S
C20 C19 1.393 . S
C20 C21 1.399 . S
C21 C20 1.399 . S
C21 C22 1.381 1_455 S
C22 H14 0.930 . S
C22 C18 1.390 1_655 S
C22 C21 1.381 1_655 S
N23 C16 1.286 1_455 S
N23 C19 1.413 . S
H24 C29 0.930 . S
H25 C32 0.930 . S
H26 C34 0.930 . S
H27 C28 1.016 1_556 S
C28 H27 1.016 1_554 S
C28 N35 1.286 1_565 S
C29 H24 0.930 . S
C29 C30 1.397 . S
C29 C31 1.361 . S
C30 C29 1.397 . S
C30 C34 1.390 1_545 S
C31 C29 1.361 . S
C31 C32 1.393 1_554 S
C31 N35 1.413 . S
C32 H25 0.930 . S
C32 C31 1.393 1_556 S
C32 C33 1.405 1_556 S
C33 C32 1.405 1_554 S
C33 C34 1.378 1_545 S
C34 H26 0.930 . S
C34 C30 1.390 1_565 S
C34 C33 1.378 1_565 S
N35 C28 1.286 1_545 S
N35 C31 1.413 . S
H36 C41 0.930 . S
H37 C44 0.930 . S
H38 C46 0.930 . S
H39 C40 1.016 . S
C40 H39 1.016 . S
C40 N47 1.286 1_556 S
C41 H36 0.930 . S
C41 C42 1.397 . S
C41 C43 1.361 . S
C42 C41 1.397 . S
C42 C46 1.390 . S
C43 C41 1.361 . S
C43 C44 1.393 1_554 S
C43 N47 1.413 . S
C44 H37 0.930 . S
C44 C43 1.393 1_556 S
C44 C45 1.399 . S
C45 C44 1.399 . S
C45 C46 1.381 1_556 S
C46 H38 0.930 . S
C46 C42 1.390 . S
C46 C45 1.381 1_554 S
N47 C40 1.286 1_554 S
N47 C43 1.413 . S
H48 C53 0.930 . S
H49 C56 0.930 . S
H50 C58 0.930 . S
H51 C52 1.016 . S
C52 H51 1.016 . S
C52 N59 1.286 . S
C53 H48 0.930 . S
C53 C54 1.397 . S
C53 C55 1.361 . S
C54 C53 1.397 . S
C54 C58 1.390 . S
C55 C53 1.361 . S
C55 C56 1.393 . S
C55 N59 1.413 . S
C56 H49 0.930 . S
C56 C55 1.393 . S
C56 C57 1.399 . S
C57 C56 1.399 . S
C57 C58 1.381 . S
C58 H50 0.930 . S
C58 C54 1.390 . S
C58 C57 1.381 . S
N59 C52 1.286 . S
N59 C55 1.413 . S
H60 C65 0.930 . S
H61 C68 0.930 . S
H62 C70 0.930 . S
H63 C64 1.016 . S
C64 H63 1.016 . S
C64 N71 1.286 . S
C65 H60 0.930 . S
C65 C66 1.397 . S
C65 C67 1.361 . S
C66 C65 1.397 . S
C66 C70 1.390 . S
C67 C65 1.361 . S
C67 C68 1.393 . S
C67 N71 1.413 . S
C68 H61 0.930 . S
C68 C67 1.393 . S
C68 C69 1.399 . S
C69 C68 1.399 . S
C69 C70 1.381 . S
C70 H62 0.930 . S
C70 C66 1.390 . S
C70 C69 1.381 . S
N71 C64 1.286 . S
N71 C67 1.413 . S
H72 C77 0.930 . S
H73 C80 0.930 . S
H74 C82 0.930 . S
H75 C76 1.024 . S
C76 H75 1.024 . S
C76 N83 1.286 . S
C77 H72 0.930 . S
C77 C78 1.397 . S
C77 C79 1.361 . S
C78 C77 1.397 . S
C78 C82 1.390 . S
C79 C77 1.361 . S
C79 C80 1.393 . S
C79 N83 1.413 . S
C80 H73 0.930 . S
C80 C79 1.393 . S
C80 C81 1.399 . S
C81 C80 1.399 . S
C81 C82 1.381 . S
C82 H74 0.930 . S
C82 C78 1.390 . S
C82 C81 1.381 . S
N83 C76 1.286 . S
N83 C79 1.413 . S
H84 C89 0.930 . S
H85 C92 0.930 . S
H86 C94 0.930 . S
H87 C88 1.016 . S
C88 H87 1.016 . S
C88 N95 1.286 . S
C89 H84 0.930 . S
C89 C90 1.397 . S
C89 C91 1.361 . S
C90 C89 1.397 . S
C90 C94 1.390 . S
C91 C89 1.361 . S
C91 C92 1.393 . S
C91 N95 1.413 . S
C92 H85 0.930 . S
C92 C91 1.393 . S
C92 C93 1.399 . S
C93 C92 1.399 . S
C93 C94 1.381 . S
C94 H86 0.930 . S
C94 C90 1.390 . S
C94 C93 1.381 . S
N95 C88 1.286 . S
N95 C91 1.413 . S
O96 Zn97 1.956 . S
O96 C112 1.225 1_545 S
Zn97 O96 1.956 . S
Zn97 O98 1.948 1_545 S
Zn97 O104 1.947 . S
Zn97 O109 1.890 1_545 S
O98 Zn97 1.948 1_565 S
O98 Zn99 1.900 1_465 S
O98 Zn100 1.952 . S
O98 Zn101 1.966 1_455 S
Zn99 O98 1.900 1_645 S
Zn99 O102 1.933 . S
Zn99 O105 1.941 1_655 S
Zn99 O106 1.965 . S
Zn100 O98 1.952 . S
Zn100 O107 1.938 1_565 S
Zn100 O108 1.906 . S
Zn100 O118 1.953 . S
Zn101 O98 1.966 1_655 S
Zn101 O103 1.932 . S
Zn101 O110 1.977 . S
Zn101 O111 1.910 1_655 S
O102 Zn99 1.933 . S
O102 C113 1.226 . S
O103 Zn101 1.932 . S
O103 C113 1.307 1_565 S
O104 Zn97 1.947 . S
O104 C115 1.253 . S
O105 Zn99 1.941 1_455 S
O105 C115 1.283 . S
O106 Zn99 1.965 . S
O106 C114 1.303 1_655 S
O107 Zn100 1.938 1_545 S
O107 C114 1.247 . S
O108 Zn100 1.906 . S
O108 C116 1.304 1_455 S
O109 Zn97 1.890 1_565 S
O109 C117 1.311 . S
O110 Zn101 1.977 . S
O110 C116 1.272 . S
O111 Zn101 1.910 1_455 S
O111 C117 1.231 . S
C112 O96 1.225 1_565 S
C112 O118 1.298 . S
C113 O102 1.226 . S
C113 O103 1.307 1_545 S
C114 O106 1.303 1_455 S
C114 O107 1.247 . S
C115 O104 1.253 . S
C115 O105 1.283 . S
C116 O108 1.304 1_655 S
C116 O110 1.272 . S
C117 O109 1.311 . S
C117 O111 1.231 . S
O118 Zn100 1.953 . S
O118 C112 1.298 . S
O119 Zn120 1.953 . S
O119 C135 1.225 . S
Zn120 O119 1.953 . S
Zn120 O121 1.949 . S
Zn120 O127 1.919 . S
Zn120 O132 1.924 . S
O121 Zn120 1.949 . S
O121 Zn122 1.923 1_545 S
O121 Zn123 1.950 . S
O121 Zn124 1.945 1_545 S
Zn122 O121 1.923 1_565 S
Zn122 O125 1.933 . S
Zn122 O128 1.941 . S
Zn122 O129 1.965 . S
Zn123 O121 1.950 . S
Zn123 O130 1.938 . S
Zn123 O131 1.906 . S
Zn123 O141 1.953 . S
Zn124 O121 1.945 1_565 S
Zn124 O126 1.932 . S
Zn124 O133 1.977 . S
Zn124 O134 1.910 1_565 S
O125 Zn122 1.933 . S
O125 C136 1.226 . S
O126 Zn124 1.932 . S
O126 C136 1.307 . S
O127 Zn120 1.919 . S
O127 C138 1.253 . S
O128 Zn122 1.941 . S
O128 C138 1.283 1_565 S
O129 Zn122 1.965 . S
O129 C137 1.303 1_565 S
O130 Zn123 1.938 . S
O130 C137 1.247 . S
O131 Zn123 1.906 . S
O131 C139 1.304 1_545 S
O132 Zn120 1.924 . S
O132 C140 1.311 . S
O133 Zn124 1.977 . S
O133 C139 1.272 . S
O134 Zn124 1.910 1_545 S
O134 C140 1.231 . S
C135 O119 1.225 . S
C135 O141 1.298 . S
C136 O125 1.226 . S
C136 O126 1.307 . S
C137 O129 1.303 1_545 S
C137 O130 1.247 . S
C138 O127 1.253 . S
C138 O128 1.283 1_545 S
C139 O131 1.304 1_565 S
C139 O133 1.272 . S
C140 O132 1.311 . S
C140 O134 1.231 . S
O141 Zn123 1.953 . S
O141 C135 1.298 . S
O142 Zn143 1.953 . S
O142 C158 1.225 . S
Zn143 O142 1.953 . S
Zn143 O144 1.949 . S
Zn143 O150 1.919 . S
Zn143 O155 1.924 . S
O144 Zn143 1.949 . S
O144 Zn145 1.923 . S
O144 Zn146 1.950 . S
O144 Zn147 1.945 . S
Zn145 O144 1.923 . S
Zn145 O148 1.933 . S
Zn145 O151 1.941 . S
Zn145 O152 1.965 . S
Zn146 O144 1.950 . S
Zn146 O153 1.938 . S
Zn146 O154 1.906 . S
Zn146 O164 1.953 . S
Zn147 O144 1.945 . S
Zn147 O149 1.932 . S
Zn147 O156 1.977 . S
Zn147 O157 1.910 . S
O148 Zn145 1.933 . S
O148 C159 1.226 . S
O149 Zn147 1.932 . S
O149 C159 1.307 . S
O150 Zn143 1.919 . S
O150 C161 1.253 . S
O151 Zn145 1.941 . S
O151 C161 1.283 . S
O152 Zn145 1.965 . S
O152 C160 1.303 . S
O153 Zn146 1.938 . S
O153 C160 1.247 . S
O154 Zn146 1.906 . S
O154 C162 1.304 . S
O155 Zn143 1.924 . S
O155 C163 1.311 . S
O156 Zn147 1.977 . S
O156 C162 1.272 . S
O157 Zn147 1.910 . S
O157 C163 1.231 . S
C158 O142 1.225 . S
C158 O164 1.298 . S
C159 O148 1.226 . S
C159 O149 1.307 . S
C160 O152 1.303 . S
C160 O153 1.247 . S
C161 O150 1.253 . S
C161 O151 1.283 . S
C162 O154 1.304 . S
C162 O156 1.272 . S
C163 O155 1.311 . S
C163 O157 1.231 . S
O164 Zn146 1.953 . S
O164 C158 1.298 . S
O165 Zn166 1.953 1_655 S
O165 C181 1.225 . S
Zn166 O165 1.953 1_455 S
Zn166 O167 1.949 . S
Zn166 O173 1.919 . S
Zn166 O178 1.924 . S
O167 Zn166 1.949 . S
O167 Zn168 1.918 1_455 S
O167 Zn169 1.929 1_455 S
O167 Zn170 1.973 . S
Zn168 O167 1.918 1_655 S
Zn168 O171 1.933 1_655 S
Zn168 O174 1.941 . S
Zn168 O175 1.965 . S
Zn169 O167 1.929 1_655 S
Zn169 O176 1.938 . S
Zn169 O177 1.906 . S
Zn169 O187 1.953 . S
Zn170 O167 1.973 . S
Zn170 O172 1.932 . S
Zn170 O179 1.977 . S
Zn170 O180 1.910 . S
O171 Zn168 1.933 1_455 S
O171 C182 1.226 . S
O172 Zn170 1.932 . S
O172 C182 1.307 . S
O173 Zn166 1.919 . S
O173 C184 1.253 . S
O174 Zn168 1.941 . S
O174 C184 1.283 1_655 S
O175 Zn168 1.965 . S
O175 C183 1.303 . S
O176 Zn169 1.938 . S
O176 C183 1.247 . S
O177 Zn169 1.906 . S
O177 C185 1.304 1_655 S
O178 Zn166 1.924 . S
O178 C186 1.311 . S
O179 Zn170 1.977 . S
O179 C185 1.272 . S
O180 Zn170 1.910 . S
O180 C186 1.231 . S
C181 O165 1.225 . S
C181 O187 1.298 . S
C182 O171 1.226 . S
C182 O172 1.307 . S
C183 O175 1.303 . S
C183 O176 1.247 . S
C184 O173 1.253 . S
C184 O174 1.283 1_455 S
C185 O177 1.304 1_455 S
C185 O179 1.272 . S
C186 O178 1.311 . S
C186 O180 1.231 . S
O187 Zn169 1.953 . S
O187 C181 1.298 . S
H188 C194 0.930 . S
H189 C197 0.930 . S
H190 C198 0.930 . S
H191 C199 0.930 . S
H192 C202 0.930 . S
H193 C203 0.930 . S
C194 H188 0.930 . S
C194 C195 1.355 1_565 S
C194 C196 1.415 . S
C195 C194 1.355 1_545 S
C195 C197 1.419 . S
C196 C194 1.415 . S
C196 C201 1.425 1_565 S
C196 C203 1.409 . S
C197 H189 0.930 . S
C197 C195 1.419 . S
C197 C198 1.362 . S
C198 H190 0.930 . S
C198 C197 1.362 . S
C198 C201 1.409 . S
C199 H191 0.930 . S
C199 C200 1.355 1_545 S
C199 C201 1.415 . S
C200 C199 1.355 1_565 S
C200 C202 1.419 . S
C201 C196 1.425 1_545 S
C201 C198 1.409 . S
C201 C199 1.415 . S
C202 H192 0.930 . S
C202 C200 1.419 . S
C202 C203 1.362 . S
C203 H193 0.930 . S
C203 C196 1.409 . S
C203 C202 1.362 . S
H204 C210 0.930 . S
H205 C213 0.930 . S
H206 C214 0.930 . S
H207 C215 0.930 . S
H208 C218 0.930 . S
H209 C219 0.930 . S
C210 H204 0.930 . S
C210 C211 1.355 . S
C210 C212 1.415 . S
C211 C210 1.355 . S
C211 C213 1.419 . S
C212 C210 1.415 . S
C212 C217 1.425 . S
C212 C219 1.409 . S
C213 H205 0.930 . S
C213 C211 1.419 . S
C213 C214 1.362 . S
C214 H206 0.930 . S
C214 C213 1.362 . S
C214 C217 1.409 . S
C215 H207 0.930 . S
C215 C216 1.355 . S
C215 C217 1.415 . S
C216 C215 1.355 . S
C216 C218 1.419 . S
C217 C212 1.425 . S
C217 C214 1.409 . S
C217 C215 1.415 . S
C218 H208 0.930 . S
C218 C216 1.419 . S
C218 C219 1.362 . S
C219 H209 0.930 . S
C219 C212 1.409 . S
C219 C218 1.362 . S
H220 C226 0.930 . S
H221 C229 0.930 . S
H222 C230 0.930 . S
H223 C231 0.930 . S
H224 C234 0.930 . S
H225 C235 0.930 . S
C226 H220 0.930 . S
C226 C227 1.355 . S
C226 C228 1.415 . S
C227 C226 1.355 . S
C227 C229 1.419 . S
C228 C226 1.415 . S
C228 C233 1.425 . S
C228 C235 1.409 . S
C229 H221 0.930 . S
C229 C227 1.419 . S
C229 C230 1.362 . S
C230 H222 0.930 . S
C230 C229 1.362 . S
C230 C233 1.409 . S
C231 H223 0.930 . S
C231 C232 1.355 . S
C231 C233 1.415 . S
C232 C231 1.355 . S
C232 C234 1.419 . S
C233 C228 1.425 . S
C233 C230 1.409 . S
C233 C231 1.415 . S
C234 H224 0.930 . S
C234 C232 1.419 . S
C234 C235 1.362 . S
C235 H225 0.930 . S
C235 C228 1.409 . S
C235 C234 1.362 . S
H236 C242 0.930 1_655 S
H237 C245 0.930 . S
H238 C246 0.930 . S
H239 C247 0.930 . S
H240 C250 0.930 . S
H241 C251 0.930 . S
C242 H236 0.930 1_455 S
C242 C243 1.355 . S
C242 C244 1.415 . S
C243 C242 1.355 . S
C243 C245 1.419 . S
C244 C242 1.415 . S
C244 C249 1.425 . S
C244 C251 1.409 1_455 S
C245 H237 0.930 . S
C245 C243 1.419 . S
C245 C246 1.362 . S
C246 H238 0.930 . S
C246 C245 1.362 . S
C246 C249 1.409 . S
C247 H239 0.930 . S
C247 C248 1.355 . S
C247 C249 1.415 . S
C248 C247 1.355 . S
C248 C250 1.419 1_455 S
C249 C244 1.425 . S
C249 C246 1.409 . S
C249 C247 1.415 . S
C250 H240 0.930 . S
C250 C248 1.419 1_655 S
C250 C251 1.362 . S
C251 H241 0.930 . S
C251 C244 1.409 1_655 S
C251 C250 1.362 . S
H252 C258 0.930 . S
H253 C261 0.930 . S
H254 C262 0.930 . S
H255 C263 0.930 . S
H256 C266 0.930 . S
H257 C267 0.930 . S
C258 H252 0.930 . S
C258 C259 1.358 . S
C258 C260 1.415 . S
C259 C258 1.358 . S
C259 C261 1.414 1_566 S
C260 C258 1.415 . S
C260 C265 1.425 1_565 S
C260 C267 1.409 . S
C261 H253 0.930 . S
C261 C259 1.414 1_544 S
C261 C262 1.362 . S
C262 H254 0.930 . S
C262 C261 1.362 . S
C262 C265 1.409 1_554 S
C263 H255 0.930 . S
C263 C264 1.355 . S
C263 C265 1.415 . S
C264 C263 1.355 . S
C264 C266 1.419 1_545 S
C265 C260 1.425 1_545 S
C265 C262 1.409 1_556 S
C265 C263 1.415 . S
C266 H256 0.930 . S
C266 C264 1.419 1_565 S
C266 C267 1.362 . S
C267 H257 0.930 . S
C267 C260 1.409 . S
C267 C266 1.362 . S
H268 C274 0.930 . S
H269 C277 0.930 . S
H270 C278 0.930 . S
H271 C279 0.930 . S
H272 C282 0.930 . S
H273 C283 0.930 . S
C274 H268 0.930 . S
C274 C275 1.355 . S
C274 C276 1.415 . S
C275 C274 1.355 . S
C275 C277 1.419 . S
C276 C274 1.415 . S
C276 C281 1.425 . S
C276 C283 1.409 . S
C277 H269 0.930 . S
C277 C275 1.419 . S
C277 C278 1.362 . S
C278 H270 0.930 . S
C278 C277 1.362 . S
C278 C281 1.409 . S
C279 H271 0.930 . S
C279 C280 1.355 . S
C279 C281 1.415 . S
C280 C279 1.355 . S
C280 C282 1.419 . S
C281 C276 1.425 . S
C281 C278 1.409 . S
C281 C279 1.415 . S
C282 H272 0.930 . S
C282 C280 1.419 . S
C282 C283 1.362 . S
C283 H273 0.930 . S
C283 C276 1.409 . S
C283 C282 1.362 . S
H284 C290 0.930 . S
H285 C293 0.930 . S
H286 C294 0.930 . S
H287 C295 0.930 . S
H288 C298 0.930 . S
H289 C299 0.930 . S
C290 H284 0.930 . S
C290 C291 1.355 . S
C290 C292 1.415 . S
C291 C290 1.355 . S
C291 C293 1.419 . S
C292 C290 1.415 . S
C292 C297 1.425 . S
C292 C299 1.409 . S
C293 H285 0.930 . S
C293 C291 1.419 . S
C293 C294 1.362 . S
C294 H286 0.930 . S
C294 C293 1.362 . S
C294 C297 1.409 . S
C295 H287 0.930 . S
C295 C296 1.355 . S
C295 C297 1.415 . S
C296 C295 1.355 . S
C296 C298 1.419 . S
C297 C292 1.425 . S
C297 C294 1.409 . S
C297 C295 1.415 . S
C298 H288 0.930 . S
C298 C296 1.419 . S
C298 C299 1.362 . S
C299 H289 0.930 . S
C299 C292 1.409 . S
C299 C298 1.362 . S
H300 C306 0.930 . S
H301 C309 0.930 . S
H302 C310 0.930 . S
H303 C311 0.927 1_655 S
H304 C314 0.930 . S
H305 C315 0.930 . S
C306 H300 0.930 . S
C306 C307 1.355 1_456 S
C306 C308 1.415 . S
C307 C306 1.355 1_654 S
C307 C309 1.419 . S
C308 C306 1.415 . S
C308 C313 1.425 1_455 S
C308 C315 1.409 . S
C309 H301 0.930 . S
C309 C307 1.419 . S
C309 C310 1.362 . S
C310 H302 0.930 . S
C310 C309 1.362 . S
C310 C313 1.409 1_554 S
C311 H303 0.927 1_455 S
C311 C312 1.358 . S
C311 C313 1.414 1_455 S
C312 C311 1.358 . S
C312 C314 1.419 . S
C313 C308 1.425 1_655 S
C313 C310 1.409 1_556 S
C313 C311 1.414 1_655 S
C314 H304 0.930 . S
C314 C312 1.419 . S
C314 C315 1.362 . S
C315 H305 0.930 . S
C315 C308 1.409 . S
C315 C314 1.362 . S
H316 C322 0.930 . S
H317 C325 0.930 1_655 S
H318 C326 0.948 . S
H319 C327 0.930 1_655 S
H320 C330 0.930 . S
H321 C331 0.930 . S
C322 H316 0.930 . S
C322 C323 1.355 . S
C322 C324 1.415 . S
C323 C322 1.355 . S
C323 C325 1.419 . S
C324 C322 1.415 . S
C324 C329 1.425 . S
C324 C331 1.409 . S
C325 H317 0.930 1_455 S
C325 C323 1.419 . S
C325 C326 1.356 1_455 S
C326 H318 0.948 . S
C326 C325 1.356 1_655 S
C326 C329 1.398 1_655 S
C327 H319 0.930 1_455 S
C327 C328 1.355 . S
C327 C329 1.415 . S
C328 C327 1.355 . S
C328 C330 1.419 . S
C329 C324 1.425 . S
C329 C326 1.398 1_455 S
C329 C327 1.415 . S
C330 H320 0.930 . S
C330 C328 1.419 . S
C330 C331 1.362 . S
C331 H321 0.930 . S
C331 C324 1.409 . S
C331 C330 1.362 . S
H332 C338 0.930 . S
H333 C341 0.930 . S
H334 C342 0.930 . S
H335 C343 0.930 . S
H336 C346 0.930 . S
H337 C347 0.930 . S
C338 H332 0.930 . S
C338 C339 1.355 1_565 S
C338 C340 1.415 . S
C339 C338 1.355 1_545 S
C339 C341 1.419 . S
C340 C338 1.415 . S
C340 C345 1.425 1_565 S
C340 C347 1.409 . S
C341 H333 0.930 . S
C341 C339 1.419 . S
C341 C342 1.362 . S
C342 H334 0.930 . S
C342 C341 1.362 . S
C342 C345 1.409 . S
C343 H335 0.930 . S
C343 C344 1.355 . S
C343 C345 1.415 . S
C344 C343 1.355 . S
C344 C346 1.419 1_545 S
C345 C340 1.425 1_545 S
C345 C342 1.409 . S
C345 C343 1.415 . S
C346 H336 0.930 . S
C346 C344 1.419 1_565 S
C346 C347 1.362 . S
C347 H337 0.930 . S
C347 C340 1.409 . S
C347 C346 1.362 . S
H348 C354 0.930 . S
H349 C357 0.930 . S
H350 C358 0.930 . S
H351 C359 0.930 . S
H352 C362 0.930 . S
H353 C363 0.930 . S
C354 H348 0.930 . S
C354 C355 1.355 . S
C354 C356 1.415 . S
C355 C354 1.355 . S
C355 C357 1.419 . S
C356 C354 1.415 . S
C356 C361 1.425 . S
C356 C363 1.409 . S
C357 H349 0.930 . S
C357 C355 1.419 . S
C357 C358 1.362 . S
C358 H350 0.930 . S
C358 C357 1.362 . S
C358 C361 1.409 . S
C359 H351 0.930 . S
C359 C360 1.355 . S
C359 C361 1.415 . S
C360 C359 1.355 . S
C360 C362 1.419 . S
C361 C356 1.425 . S
C361 C358 1.409 . S
C361 C359 1.415 . S
C362 H352 0.930 . S
C362 C360 1.419 . S
C362 C363 1.362 . S
C363 H353 0.930 . S
C363 C356 1.409 . S
C363 C362 1.362 . S
H364 C370 0.930 . S
H365 C373 0.930 . S
H366 C374 0.930 . S
H367 C375 0.930 . S
H368 C378 0.930 . S
H369 C379 0.930 . S
C370 H364 0.930 . S
C370 C371 1.355 . S
C370 C372 1.415 . S
C371 C370 1.355 . S
C371 C373 1.419 . S
C372 C370 1.415 . S
C372 C377 1.425 . S
C372 C379 1.409 . S
C373 H365 0.930 . S
C373 C371 1.419 . S
C373 C374 1.362 . S
C374 H366 0.930 . S
C374 C373 1.362 . S
C374 C377 1.409 . S
C375 H367 0.930 . S
C375 C376 1.355 . S
C375 C377 1.415 . S
C376 C375 1.355 . S
C376 C378 1.419 . S
C377 C372 1.425 . S
C377 C374 1.409 . S
C377 C375 1.415 . S
C378 H368 0.930 . S
C378 C376 1.419 . S
C378 C379 1.362 . S
C379 H369 0.930 . S
C379 C372 1.409 . S
C379 C378 1.362 . S
H380 C386 0.924 1_655 S
H381 C389 0.930 . S
H382 C390 0.930 . S
H383 C391 0.930 . S
H384 C394 0.930 . S
H385 C395 0.930 . S
C386 H380 0.924 1_455 S
C386 C387 1.355 . S
C386 C388 1.419 1_554 S
C387 C386 1.355 . S
C387 C389 1.419 1_554 S
C388 C386 1.419 1_556 S
C388 C393 1.425 . S
C388 C395 1.409 1_556 S
C389 H381 0.930 . S
C389 C387 1.419 1_556 S
C389 C390 1.362 . S
C390 H382 0.930 . S
C390 C389 1.362 . S
C390 C393 1.409 . S
C391 H383 0.930 . S
C391 C392 1.355 . S
C391 C393 1.415 . S
C392 C391 1.355 . S
C392 C394 1.419 . S
C393 C388 1.425 . S
C393 C390 1.409 . S
C393 C391 1.415 . S
C394 H384 0.930 . S
C394 C392 1.419 . S
C394 C395 1.362 1_556 S
C395 H385 0.930 . S
C395 C388 1.409 1_554 S
C395 C394 1.362 1_554 S
H396 C402 0.930 . S
H397 C405 0.930 1_565 S
H398 C406 0.930 . S
H399 C407 0.930 . S
H400 C410 0.930 . S
H401 C411 0.930 . S
C402 H396 0.930 . S
C402 C403 1.355 . S
C402 C404 1.415 . S
C403 C402 1.355 . S
C403 C405 1.419 1_556 S
C404 C402 1.415 . S
C404 C409 1.425 . S
C404 C411 1.409 . S
C405 H397 0.930 1_545 S
C405 C403 1.419 1_554 S
C405 C406 1.362 . S
C406 H398 0.930 . S
C406 C405 1.362 . S
C406 C409 1.409 1_554 S
C407 H399 0.930 . S
C407 C408 1.355 . S
C407 C409 1.415 . S
C408 C407 1.355 . S
C408 C410 1.419 . S
C409 C404 1.425 . S
C409 C406 1.409 1_556 S
C409 C407 1.415 . S
C410 H400 0.930 . S
C410 C408 1.419 . S
C410 C411 1.362 . S
C411 H401 0.930 . S
C411 C404 1.409 . S
C411 C410 1.362 . S
H412 C418 0.930 . S
H413 C421 0.930 . S
H414 C422 0.930 . S
H415 C423 0.930 . S
H416 C426 0.930 . S
H417 C427 0.930 . S
C418 H412 0.930 . S
C418 C419 1.355 . S
C418 C420 1.415 . S
C419 C418 1.355 . S
C419 C421 1.419 . S
C420 C418 1.415 . S
C420 C425 1.425 . S
C420 C427 1.409 . S
C421 H413 0.930 . S
C421 C419 1.419 . S
C421 C422 1.362 . S
C422 H414 0.930 . S
C422 C421 1.362 . S
C422 C425 1.409 . S
C423 H415 0.930 . S
C423 C424 1.355 . S
C423 C425 1.415 . S
C424 C423 1.355 . S
C424 C426 1.419 . S
C425 C420 1.425 . S
C425 C422 1.409 . S
C425 C423 1.415 . S
C426 H416 0.930 . S
C426 C424 1.419 . S
C426 C427 1.362 . S
C427 H417 0.930 . S
C427 C420 1.409 . S
C427 C426 1.362 . S
H428 C434 0.930 . S
H429 C437 0.930 1_554 S
H430 C438 0.930 . S
H431 C439 0.930 . S
H432 C442 0.930 . S
H433 C443 0.930 . S
C434 H428 0.930 . S
C434 C435 1.355 . S
C434 C436 1.415 . S
C435 C434 1.355 . S
C435 C437 1.419 . S
C436 C434 1.415 . S
C436 C441 1.425 . S
C436 C443 1.409 . S
C437 H429 0.930 1_556 S
C437 C435 1.419 . S
C437 C438 1.362 . S
C438 H430 0.930 . S
C438 C437 1.362 . S
C438 C441 1.409 . S
C439 H431 0.930 . S
C439 C440 1.355 . S
C439 C441 1.415 . S
C440 C439 1.355 . S
C440 C442 1.419 . S
C441 C436 1.425 . S
C441 C438 1.409 . S
C441 C439 1.415 . S
C442 H432 0.930 . S
C442 C440 1.419 . S
C442 C443 1.362 . S
C443 H433 0.930 . S
C443 C436 1.409 . S
C443 C442 1.362 . S
H444 C450 0.930 . S
H445 C453 0.930 . S
H446 C454 0.930 1_556 S
H447 C455 0.930 . S
H448 C458 0.930 . S
H449 C459 0.930 . S
C450 H444 0.930 . S
C450 C451 1.355 . S
C450 C452 1.415 . S
C451 C450 1.355 . S
C451 C453 1.419 . S
C452 C450 1.415 . S
C452 C457 1.425 . S
C452 C459 1.409 1_455 S
C453 H445 0.930 . S
C453 C451 1.419 . S
C453 C454 1.362 . S
C454 H446 0.930 1_554 S
C454 C453 1.362 . S
C454 C457 1.409 . S
C455 H447 0.930 . S
C455 C456 1.355 . S
C455 C457 1.415 1_556 S
C456 C455 1.355 . S
C456 C458 1.419 1_456 S
C457 C452 1.425 . S
C457 C454 1.409 . S
C457 C455 1.415 1_554 S
C458 H448 0.930 . S
C458 C456 1.419 1_654 S
C458 C459 1.362 . S
C459 H449 0.930 . S
C459 C452 1.409 1_655 S
C459 C458 1.362 . S
H460 C466 0.930 . S
H461 C469 0.930 . S
H462 C470 0.930 . S
H463 C471 0.930 . S
H464 C474 0.930 . S
H465 C475 0.930 . S
C466 H460 0.930 . S
C466 C467 1.355 1_565 S
C466 C468 1.415 . S
C467 C466 1.355 1_545 S
C467 C469 1.419 . S
C468 C466 1.415 . S
C468 C473 1.425 1_565 S
C468 C475 1.409 1_554 S
C469 H461 0.930 . S
C469 C467 1.419 . S
C469 C470 1.362 . S
C470 H462 0.930 . S
C470 C469 1.362 . S
C470 C473 1.409 . S
C471 H463 0.930 . S
C471 C472 1.355 . S
C471 C473 1.415 1_556 S
C472 C471 1.355 . S
C472 C474 1.419 1_545 S
C473 C468 1.425 1_545 S
C473 C470 1.409 . S
C473 C471 1.415 1_554 S
C474 H464 0.930 . S
C474 C472 1.419 1_565 S
C474 C475 1.362 . S
C475 H465 0.930 . S
C475 C468 1.409 1_556 S
C475 C474 1.362 . S
H476 C482 0.930 . S
H477 C485 0.930 . S
H478 C486 0.930 . S
H479 C487 0.930 . S
H480 C490 0.930 . S
H481 C491 0.930 . S
C482 H476 0.930 . S
C482 C483 1.355 . S
C482 C484 1.415 . S
C483 C482 1.355 . S
C483 C485 1.419 1_554 S
C484 C482 1.415 . S
C484 C489 1.425 1_554 S
C484 C491 1.409 . S
C485 H477 0.930 . S
C485 C483 1.419 1_556 S
C485 C486 1.362 . S
C486 H478 0.930 . S
C486 C485 1.362 . S
C486 C489 1.409 . S
C487 H479 0.930 . S
C487 C488 1.355 . S
C487 C489 1.415 . S
C488 C487 1.355 . S
C488 C490 1.419 . S
C489 C484 1.425 1_556 S
C489 C486 1.409 . S
C489 C487 1.415 . S
C490 H480 0.930 . S
C490 C488 1.419 . S
C490 C491 1.362 1_556 S
C491 H481 0.930 . S
C491 C484 1.409 . S
C491 C490 1.362 1_554 S
H492 C498 0.930 1_556 S
H493 C501 0.930 . S
H494 C502 0.930 . S
H495 C503 0.930 1_554 S
H496 C506 0.930 . S
H497 C507 0.930 . S
C498 H492 0.930 1_554 S
C498 C499 1.355 . S
C498 C500 1.415 1_554 S
C499 C498 1.355 . S
C499 C501 1.419 . S
C500 C498 1.415 1_556 S
C500 C505 1.425 1_556 S
C500 C507 1.409 . S
C501 H493 0.930 . S
C501 C499 1.419 . S
C501 C502 1.362 . S
C502 H494 0.930 . S
C502 C501 1.362 . S
C502 C505 1.409 . S
C503 H495 0.930 1_556 S
C503 C504 1.355 . S
C503 C505 1.415 1_556 S
C504 C503 1.355 . S
C504 C506 1.419 . S
C505 C500 1.425 1_554 S
C505 C502 1.409 . S
C505 C503 1.415 1_554 S
C506 H496 0.930 . S
C506 C504 1.419 . S
C506 C507 1.362 . S
C507 H497 0.930 . S
C507 C500 1.409 . S
C507 C506 1.362 . S
H508 C514 0.930 . S
H509 C517 0.930 . S
H510 C518 0.930 . S
H511 C519 0.930 . S
H512 C522 0.930 . S
H513 C523 0.930 . S
C514 H508 0.930 . S
C514 C515 1.326 1_655 S
C514 C516 1.415 . S
C515 C514 1.326 1_455 S
C515 C517 1.449 . S
C516 C514 1.415 . S
C516 C521 1.425 1_655 S
C516 C523 1.409 . S
C517 H509 0.930 . S
C517 C515 1.449 . S
C517 C518 1.362 . S
C518 H510 0.930 . S
C518 C517 1.362 . S
C518 C521 1.409 . S
C519 H511 0.930 . S
C519 C520 1.355 1_455 S
C519 C521 1.415 . S
C520 C519 1.355 1_655 S
C520 C522 1.419 . S
C521 C516 1.425 1_455 S
C521 C518 1.409 . S
C521 C519 1.415 . S
C522 H512 0.930 . S
C522 C520 1.419 . S
C522 C523 1.362 . S
C523 H513 0.930 . S
C523 C516 1.409 . S
C523 C522 1.362 . S
H524 C530 0.930 . S
H525 C533 0.930 . S
H526 C534 0.930 . S
H527 C535 0.930 . S
H528 C538 0.930 . S
H529 C539 0.930 . S
C530 H524 0.930 . S
C530 C531 1.355 1_545 S
C530 C532 1.420 . S
C531 C530 1.355 1_565 S
C531 C533 1.419 . S
C532 C530 1.420 . S
C532 C537 1.412 1_545 S
C532 C539 1.417 . S
C533 H525 0.930 . S
C533 C531 1.419 . S
C533 C534 1.362 . S
C534 H526 0.930 . S
C534 C533 1.362 . S
C534 C537 1.409 . S
C535 H527 0.930 . S
C535 C536 1.355 . S
C535 C537 1.415 . S
C536 C535 1.355 . S
C536 C538 1.419 1_565 S
C537 C532 1.412 1_565 S
C537 C534 1.409 . S
C537 C535 1.415 . S
C538 H528 0.930 . S
C538 C536 1.419 1_545 S
C538 C539 1.362 . S
C539 H529 0.930 . S
C539 C532 1.417 . S
C539 C538 1.362 . S
H540 C546 0.930 . S
H541 C549 0.930 . S
H542 C550 0.930 . S
H543 C551 0.930 . S
H544 C554 0.930 . S
H545 C555 0.930 . S
C546 H540 0.930 . S
C546 C547 1.355 . S
C546 C548 1.415 . S
C547 C546 1.355 . S
C547 C549 1.419 . S
C548 C546 1.415 . S
C548 C553 1.425 . S
C548 C555 1.409 . S
C549 H541 0.930 . S
C549 C547 1.419 . S
C549 C550 1.362 . S
C550 H542 0.930 . S
C550 C549 1.362 . S
C550 C553 1.409 . S
C551 H543 0.930 . S
C551 C552 1.355 . S
C551 C553 1.415 . S
C552 C551 1.355 . S
C552 C554 1.419 . S
C553 C548 1.425 . S
C553 C550 1.409 . S
C553 C551 1.415 . S
C554 H544 0.930 . S
C554 C552 1.419 . S
C554 C555 1.362 . S
C555 H545 0.930 . S
C555 C548 1.409 . S
C555 C554 1.362 . S
H556 C562 0.930 . S
H557 C565 0.930 . S
H558 C566 0.930 . S
H559 C567 0.930 . S
H560 C570 0.930 . S
H561 C571 0.930 . S
C562 H556 0.930 . S
C562 C563 1.355 . S
C562 C564 1.415 . S
C563 C562 1.355 . S
C563 C565 1.419 . S
C564 C562 1.415 . S
C564 C569 1.425 . S
C564 C571 1.409 . S
C565 H557 0.930 . S
C565 C563 1.419 . S
C565 C566 1.362 . S
C566 H558 0.930 . S
C566 C565 1.362 . S
C566 C569 1.409 . S
C567 H559 0.930 . S
C567 C568 1.355 . S
C567 C569 1.415 . S
C568 C567 1.355 . S
C568 C570 1.419 . S
C569 C564 1.425 . S
C569 C566 1.409 . S
C569 C567 1.415 . S
C570 H560 0.930 . S
C570 C568 1.419 . S
C570 C571 1.362 . S
C571 H561 0.930 . S
C571 C564 1.409 . S
C571 C570 1.362 . S
C195 C76 1.588 . S
C200 C112 1.621 . S
C216 C135 1.612 . S
C211 C88 1.559 . S
C232 C158 1.613 . S
C227 C52 1.560 . S
C248 C185 1.514 . S
C243 C64 1.565 . S
C264 C113 1.575 . S
C259 C28 1.557 1_556 S
C275 C40 1.471 . S
C280 C136 1.512 . S
C291 C4 1.437 . S
C296 C159 1.485 . S
C307 C16 1.590 . S
C312 C184 1.606 . S
C328 C114 0.584 . S
C323 C69 0.570 . S
C344 C137 0.505 . S
C339 C81 0.535 . S
C360 C160 0.613 . S
C355 C93 0.552 . S
C371 C57 0.777 . S
C376 C186 0.789 . S
C387 C21 0.868 . S
C392 C117 0.799 . S
C408 C140 0.777 . S
C403 C33 0.744 1_556 S
C424 C163 0.689 . S
C419 C45 0.779 . S
C435 C9 0.509 . S
C440 C183 0.572 . S
C451 C66 1.586 . S
C456 C115 1.579 . S
C467 C78 1.494 . S
C472 C138 1.512 . S
C488 C161 1.575 . S
C483 C90 1.566 . S
C504 C182 1.403 . S
C499 C54 1.332 . S
C515 C18 1.616 . S
C520 C116 1.586 . S
C536 C139 1.499 . S
C531 C30 1.604 1_565 S
C552 C162 1.504 . S
C547 C42 1.590 . S
C563 C6 1.693 . S
C568 C181 1.726 . S
