# Generated by pormake.
# Topology pyr, (3,6)-cn, num edge types: 1
# Building blocks:
#     Node 0, Type 0, BuildingBlock: MIDCAF_clean_linker_0, # of connection points: 3
#     Node 1, Type 0, BuildingBlock: MIDCAF_clean_linker_0, # of connection points: 3
#     Node 2, Type 0, BuildingBlock: MIDCAF_clean_linker_0, # of connection points: 3
#     Node 3, Type 0, BuildingBlock: MIDCAF_clean_linker_0, # of connection points: 3
#     Node 4, Type 0, BuildingBlock: MIDCAF_clean_linker_0, # of connection points: 3
#     Node 5, Type 0, BuildingBlock: MIDCAF_clean_linker_0, # of connection points: 3
#     Node 6, Type 0, BuildingBlock: MIDCAF_clean_linker_0, # of connection points: 3
#     Node 7, Type 0, BuildingBlock: MIDCAF_clean_linker_0, # of connection points: 3
#     Node 8, Type 1, BuildingBlock: MIDCAF_clean_sbu_0, # of connection points: 6
#     Node 9, Type 1, BuildingBlock: MIDCAF_clean_sbu_0, # of connection points: 6
#     Node 10, Type 1, BuildingBlock: MIDCAF_clean_sbu_0, # of connection points: 6
#     Node 11, Type 1, BuildingBlock: MIDCAF_clean_sbu_0, # of connection points: 6
#     Edge 12, Type (0, 1), BuildingBlock: UVAHIK_clean_linker_0, # of connection points: 2
#     Edge 13, Type (0, 1), BuildingBlock: UVAHIK_clean_linker_0, # of connection points: 2
#     Edge 14, Type (0, 1), BuildingBlock: UVAHIK_clean_linker_0, # of connection points: 2
#     Edge 15, Type (0, 1), BuildingBlock: UVAHIK_clean_linker_0, # of connection points: 2
#     Edge 16, Type (0, 1), BuildingBlock: UVAHIK_clean_linker_0, # of connection points: 2
#     Edge 17, Type (0, 1), BuildingBlock: UVAHIK_clean_linker_0, # of connection points: 2
#     Edge 18, Type (0, 1), BuildingBlock: UVAHIK_clean_linker_0, # of connection points: 2
#     Edge 19, Type (0, 1), BuildingBlock: UVAHIK_clean_linker_0, # of connection points: 2
#     Edge 20, Type (0, 1), BuildingBlock: UVAHIK_clean_linker_0, # of connection points: 2
#     Edge 21, Type (0, 1), BuildingBlock: UVAHIK_clean_linker_0, # of connection points: 2
#     Edge 22, Type (0, 1), BuildingBlock: UVAHIK_clean_linker_0, # of connection points: 2
#     Edge 23, Type (0, 1), BuildingBlock: UVAHIK_clean_linker_0, # of connection points: 2
#     Edge 24, Type (0, 1), BuildingBlock: UVAHIK_clean_linker_0, # of connection points: 2
#     Edge 25, Type (0, 1), BuildingBlock: UVAHIK_clean_linker_0, # of connection points: 2
#     Edge 26, Type (0, 1), BuildingBlock: UVAHIK_clean_linker_0, # of connection points: 2
#     Edge 27, Type (0, 1), BuildingBlock: UVAHIK_clean_linker_0, # of connection points: 2
#     Edge 28, Type (0, 1), BuildingBlock: UVAHIK_clean_linker_0, # of connection points: 2
#     Edge 29, Type (0, 1), BuildingBlock: UVAHIK_clean_linker_0, # of connection points: 2
#     Edge 30, Type (0, 1), BuildingBlock: UVAHIK_clean_linker_0, # of connection points: 2
#     Edge 31, Type (0, 1), BuildingBlock: UVAHIK_clean_linker_0, # of connection points: 2
#     Edge 32, Type (0, 1), BuildingBlock: UVAHIK_clean_linker_0, # of connection points: 2
#     Edge 33, Type (0, 1), BuildingBlock: UVAHIK_clean_linker_0, # of connection points: 2
#     Edge 34, Type (0, 1), BuildingBlock: UVAHIK_clean_linker_0, # of connection points: 2
#     Edge 35, Type (0, 1), BuildingBlock: UVAHIK_clean_linker_0, # of connection points: 2
# Relax obj value: 0.019
# Max RMSD: 0.062
# Mean RMSD: 0.023
data_MOF--net-pyr--node1-MIDCAF_clean_sbu_0--node2-MIDCAF_clean_linker_0--edge1-UVAHIK_clean_linker_0
_symmetry_space_group_name_H-M    P1
_symmetry_Int_Tables_number       1
_symmetry_cell_setting            triclinic
loop_
_symmetry_equiv_pos_as_xyz
'x, y, z'
_cell_length_a     53.978621
_cell_length_b     54.083357
_cell_length_c     54.069212
_cell_angle_alpha  89.883028
_cell_angle_beta   90.158341
_cell_angle_gamma 90.212528
loop_
_atom_site_label
_atom_site_type_symbol
_atom_site_fract_x
_atom_site_fract_y
_atom_site_fract_z
_atom_type_partial_charge
C0 C 0.16512 0.21053 0.29407 0.0
C1 C 0.17734 0.19722 0.31285 0.0
C2 C 0.20297 0.19304 0.31046 0.0
C3 C 0.21585 0.20135 0.28961 0.0
H4 H 0.27457 0.18014 0.24285 0.0
H5 H 0.31134 0.15855 0.22817 0.0
H6 H 0.31181 0.20426 0.16256 0.0
H7 H 0.27565 0.22612 0.17731 0.0
H8 H 0.22915 0.261 0.16574 0.0
H9 H 0.21289 0.29571 0.14174 0.0
H10 H 0.17345 0.32154 0.20596 0.0
H11 H 0.1894 0.28674 0.22999 0.0
H12 H 0.16803 0.2292 0.25926 0.0
H13 H 0.14536 0.21377 0.2949 0.0
H14 H 0.21323 0.1834 0.32472 0.0
H15 H 0.23551 0.19765 0.28829 0.0
N16 N 0.23778 0.21105 0.24097 0.0
N17 N 0.24063 0.23762 0.20675 0.0
N18 N 0.20828 0.24234 0.23514 0.0
C19 C 0.24968 0.21824 0.21999 0.0
C20 C 0.22006 0.24985 0.21426 0.0
C21 C 0.217 0.22296 0.24857 0.0
C22 C 0.2721 0.20498 0.21134 0.0
C23 C 0.28256 0.18565 0.22532 0.0
C24 C 0.30359 0.17317 0.21687 0.0
C25 C 0.31465 0.17975 0.19426 0.0
C26 C 0.30412 0.19901 0.1803 0.0
C27 C 0.28319 0.21148 0.18873 0.0
C28 C 0.21052 0.27106 0.19977 0.0
C29 C 0.21707 0.27411 0.17479 0.0
C30 C 0.20771 0.2939 0.16101 0.0
C31 C 0.19198 0.31129 0.17204 0.0
C32 C 0.18571 0.30849 0.19708 0.0
C33 C 0.19472 0.28847 0.21076 0.0
C34 C 0.20354 0.21453 0.27089 0.0
C35 C 0.17811 0.21927 0.27348 0.0
C36 C 0.22948 0.86257 0.7218 0.0
C37 C 0.22361 0.86399 0.69653 0.0
C38 C 0.23776 0.85049 0.67952 0.0
C39 C 0.25764 0.83606 0.68759 0.0
H40 H 0.29457 0.7677 0.67467 0.0
H41 H 0.31027 0.73301 0.65084 0.0
H42 H 0.37761 0.73385 0.69425 0.0
H43 H 0.36166 0.768 0.71855 0.0
H44 H 0.3684 0.81118 0.76058 0.0
H45 H 0.39046 0.82697 0.7966 0.0
H46 H 0.32144 0.85421 0.82629 0.0
H47 H 0.29974 0.83957 0.78967 0.0
H48 H 0.25409 0.84817 0.74939 0.0
H49 H 0.21889 0.8729 0.73523 0.0
H50 H 0.23348 0.8512 0.65995 0.0
H51 H 0.26838 0.82614 0.67397 0.0
N52 N 0.2958 0.80308 0.70691 0.0
N53 N 0.32856 0.79808 0.73506 0.0
N54 N 0.29802 0.82791 0.74236 0.0
C55 C 0.31683 0.79115 0.71387 0.0
C56 C 0.31921 0.81638 0.74944 0.0
C57 C 0.2863 0.82148 0.72105 0.0
C58 C 0.32677 0.77063 0.69867 0.0
C59 C 0.31276 0.76055 0.67913 0.0
C60 C 0.32182 0.74068 0.66535 0.0
C61 C 0.34517 0.73049 0.67067 0.0
C62 C 0.35933 0.74087 0.68994 0.0
C63 C 0.35022 0.7606 0.70381 0.0
C64 C 0.33235 0.82431 0.77217 0.0
C65 C 0.35795 0.82044 0.77488 0.0
C66 C 0.37059 0.8294 0.79566 0.0
C67 C 0.35785 0.84209 0.81443 0.0
C68 C 0.33206 0.84514 0.81201 0.0
C69 C 0.31953 0.83658 0.79105 0.0
C70 C 0.26407 0.83523 0.71279 0.0
C71 C 0.24968 0.84852 0.72983 0.0
C72 C 0.72048 0.22909 0.86359 0.0
C73 C 0.69813 0.21756 0.85667 0.0
C74 C 0.68457 0.2275 0.83677 0.0
C75 C 0.69307 0.24843 0.82414 0.0
H76 H 0.67921 0.29152 0.76172 0.0
H77 H 0.65689 0.30818 0.72604 0.0
H78 H 0.70289 0.37369 0.72824 0.0
H79 H 0.72546 0.35697 0.76319 0.0
H80 H 0.76776 0.36209 0.80021 0.0
H81 H 0.80371 0.38505 0.81481 0.0
H82 H 0.8233 0.32434 0.8629 0.0
H83 H 0.78725 0.30108 0.84824 0.0
H84 H 0.74627 0.25848 0.85687 0.0
H85 H 0.73152 0.22179 0.87866 0.0
H86 H 0.66706 0.2194 0.83119 0.0
H87 H 0.68195 0.25558 0.80906 0.0
N88 N 0.71098 0.29175 0.7984 0.0
N89 N 0.73898 0.32473 0.79488 0.0
N90 N 0.74463 0.29495 0.82588 0.0
C91 C 0.7184 0.31276 0.78669 0.0
C92 C 0.75225 0.316 0.81436 0.0
C93 C 0.72397 0.28272 0.81805 0.0
C94 C 0.70429 0.32279 0.76531 0.0
C95 C 0.68458 0.30946 0.75455 0.0
C96 C 0.6717 0.31905 0.73415 0.0
C97 C 0.67823 0.34218 0.72408 0.0
C98 C 0.69771 0.35557 0.73509 0.0
C99 C 0.71059 0.346 0.75533 0.0
C100 C 0.77449 0.3297 0.82308 0.0
C101 C 0.7797 0.35349 0.81384 0.0
C102 C 0.80027 0.36676 0.82228 0.0
C103 C 0.81628 0.35653 0.84003 0.0
C104 C 0.81138 0.33261 0.84904 0.0
C105 C 0.79063 0.31937 0.84075 0.0
C106 C 0.71534 0.26008 0.83113 0.0
C107 C 0.72899 0.25009 0.85098 0.0
C108 C 0.73291 0.69799 0.35244 0.0
C109 C 0.72317 0.67787 0.3391 0.0
C110 C 0.73549 0.67014 0.31759 0.0
C111 C 0.75709 0.68219 0.30971 0.0
H112 H 0.81391 0.67771 0.25886 0.0
H113 H 0.83772 0.66236 0.22395 0.0
H114 H 0.89085 0.72147 0.23388 0.0
H115 H 0.86745 0.73654 0.26906 0.0
H116 H 0.86809 0.76372 0.32158 0.0
H117 H 0.88516 0.79711 0.34666 0.0
H118 H 0.81389 0.8075 0.38103 0.0
H119 H 0.79665 0.77393 0.35602 0.0
H120 H 0.76137 0.7253 0.35552 0.0
H121 H 0.7242 0.70418 0.36934 0.0
H122 H 0.72838 0.65485 0.30676 0.0
H123 H 0.76612 0.67568 0.2931 0.0
N124 N 0.80299 0.70647 0.2954 0.0
N125 N 0.83344 0.73679 0.30205 0.0
N126 N 0.79924 0.73416 0.32851 0.0
C127 C 0.82463 0.71748 0.28858 0.0
C128 C 0.82086 0.74529 0.322 0.0
C129 C 0.79017 0.71471 0.31536 0.0
C130 C 0.83874 0.70835 0.26691 0.0
C131 C 0.83065 0.68749 0.25361 0.0
C132 C 0.84423 0.67875 0.23347 0.0
C133 C 0.86622 0.69067 0.2261 0.0
C134 C 0.8742 0.71163 0.23926 0.0
C135 C 0.86066 0.72036 0.2594 0.0
C136 C 0.83099 0.76606 0.33681 0.0
C137 C 0.85597 0.77313 0.33439 0.0
C138 C 0.86581 0.79217 0.34885 0.0
C139 C 0.85086 0.80482 0.36583 0.0
C140 C 0.82579 0.79813 0.36798 0.0
C141 C 0.81599 0.77882 0.35375 0.0
C142 C 0.76688 0.70224 0.32317 0.0
C143 C 0.75441 0.71004 0.34457 0.0
C144 C 0.84767 0.98408 0.93206 0.0
C145 C 0.836 0.97789 0.95443 0.0
C146 C 0.84705 0.96019 0.96996 0.0
C147 C 0.86904 0.94857 0.96307 0.0
H148 H 0.9062 0.88226 0.97352 0.0
H149 H 0.9179 0.84302 0.99258 0.0
H150 H 0.98493 0.84219 0.94916 0.0
H151 H 0.97353 0.88135 0.93035 0.0
H152 H 0.97175 0.91126 0.87882 0.0
H153 H 0.99203 0.92368 0.84048 0.0
H154 H 0.95215 0.99271 0.84139 0.0
H155 H 0.93187 0.98047 0.87974 0.0
H156 H 0.87816 0.97766 0.90776 0.0
H157 H 0.83967 0.99778 0.91981 0.0
H158 H 0.83835 0.95481 0.98719 0.0
H159 H 0.87681 0.93477 0.97536 0.0
N160 N 0.91089 0.92069 0.94501 0.0
N161 N 0.9439 0.91614 0.91733 0.0
N162 N 0.91628 0.94916 0.91266 0.0
C163 C 0.9312 0.90802 0.93745 0.0
C164 C 0.93662 0.9367 0.90486 0.0
C165 C 0.90333 0.94132 0.93274 0.0
C166 C 0.93885 0.88497 0.95027 0.0
C167 C 0.92356 0.87385 0.9682 0.0
C168 C 0.93018 0.85129 0.97906 0.0
C169 C 0.95233 0.8395 0.9724 0.0
C170 C 0.96789 0.85094 0.95496 0.0
C171 C 0.96123 0.87336 0.94401 0.0
C172 C 0.95005 0.94481 0.88235 0.0
C173 C 0.96742 0.92919 0.871 0.0
C174 C 0.97898 0.93622 0.84896 0.0
C175 C 0.97365 0.95913 0.83794 0.0
C176 C 0.95681 0.97504 0.8496 0.0
C177 C 0.94506 0.96792 0.87149 0.0
C178 C 0.8806 0.95449 0.94054 0.0
C179 C 0.8698 0.97261 0.92525 0.0
C180 C 0.58214 0.07337 0.34453 0.0
C181 C 0.56481 0.08936 0.33355 0.0
C182 C 0.56037 0.11241 0.34455 0.0
C183 C 0.57333 0.11953 0.36582 0.0
H184 H 0.57249 0.1689 0.42362 0.0
H185 H 0.56238 0.20811 0.44271 0.0
H186 H 0.63301 0.20846 0.48048 0.0
H187 H 0.64303 0.16869 0.46177 0.0
H188 H 0.6825 0.12652 0.44689 0.0
H189 H 0.72138 0.10539 0.45578 0.0
H190 H 0.69216 0.03831 0.42376 0.0
H191 H 0.65319 0.05948 0.41445 0.0
H192 H 0.60883 0.06795 0.37333 0.0
H193 H 0.58614 0.05557 0.33634 0.0
H194 H 0.54697 0.12502 0.33662 0.0
H195 H 0.56969 0.13759 0.37357 0.0
N196 N 0.60058 0.13345 0.40977 0.0
N197 N 0.63571 0.12937 0.435 0.0
N198 N 0.62691 0.0995 0.40476 0.0
C199 C 0.61504 0.14211 0.42848 0.0
C200 C 0.64169 0.10797 0.42332 0.0
C201 C 0.60635 0.1122 0.3978 0.0
C202 C 0.60868 0.16565 0.44097 0.0
C203 C 0.58592 0.17722 0.43601 0.0
C204 C 0.58015 0.19984 0.44688 0.0
C205 C 0.59702 0.21161 0.46289 0.0
C206 C 0.61955 0.19982 0.46834 0.0
C207 C 0.62532 0.17706 0.45751 0.0
C208 C 0.66476 0.09471 0.42988 0.0
C209 C 0.68424 0.10723 0.44185 0.0
C210 C 0.70656 0.0952 0.44682 0.0
C211 C 0.70974 0.0703 0.44032 0.0
C212 C 0.6901 0.05752 0.42898 0.0
C213 C 0.66788 0.06968 0.42358 0.0
C214 C 0.59123 0.10384 0.37641 0.0
C215 C 0.59526 0.08055 0.36566 0.0
C216 C 0.34312 0.56077 0.11296 0.0
C217 C 0.3348 0.56083 0.08824 0.0
C218 C 0.34958 0.57265 0.07028 0.0
C219 C 0.37138 0.585 0.07701 0.0
H220 H 0.40456 0.65506 0.06362 0.0
H221 H 0.41215 0.69574 0.04546 0.0
H222 H 0.47114 0.70834 0.09808 0.0
H223 H 0.46352 0.66801 0.11644 0.0
H224 H 0.4694 0.63361 0.16234 0.0
H225 H 0.49142 0.6221 0.2001 0.0
H226 H 0.45329 0.55179 0.20076 0.0
H227 H 0.43139 0.56306 0.16303 0.0
H228 H 0.37079 0.57263 0.13883 0.0
H229 H 0.3322 0.55234 0.12748 0.0
H230 H 0.34429 0.5726 0.05096 0.0
H231 H 0.38203 0.59435 0.06282 0.0
N232 N 0.4079 0.62043 0.09664 0.0
N233 N 0.44047 0.62744 0.12457 0.0
N234 N 0.41474 0.5928 0.12947 0.0
C235 C 0.42736 0.63453 0.10427 0.0
C236 C 0.43441 0.60654 0.13718 0.0
C237 C 0.40149 0.59957 0.10917 0.0
C238 C 0.43324 0.65827 0.0917 0.0
C239 C 0.41927 0.66641 0.07124 0.0
C240 C 0.42367 0.68969 0.06072 0.0
C241 C 0.44204 0.70535 0.07052 0.0
C242 C 0.45653 0.69688 0.09041 0.0
C243 C 0.45222 0.67365 0.10085 0.0
C244 C 0.44852 0.5993 0.15962 0.0
C245 C 0.4658 0.61562 0.17041 0.0
C246 C 0.47836 0.6091 0.19212 0.0
C247 C 0.47412 0.58604 0.20337 0.0
C248 C 0.45719 0.56957 0.19236 0.0
C249 C 0.44449 0.57614 0.1708 0.0
C250 C 0.3793 0.58526 0.10174 0.0
C251 C 0.36524 0.57259 0.11956 0.0
C252 C 0.10618 0.35107 0.54835 0.0
C253 C 0.08358 0.33931 0.55375 0.0
C254 C 0.06777 0.35 0.57133 0.0
C255 C 0.07479 0.37146 0.5839 0.0
H256 H 0.05924 0.40988 0.64858 0.0
H257 H 0.04158 0.41617 0.6897 0.0
H258 H 0.10392 0.46241 0.70931 0.0
H259 H 0.12163 0.45625 0.66851 0.0
H260 H 0.17048 0.45472 0.63319 0.0
H261 H 0.20923 0.47482 0.62226 0.0
H262 H 0.18995 0.46885 0.54471 0.0
H263 H 0.15201 0.44711 0.55587 0.0
H264 H 0.13092 0.38097 0.55653 0.0
H265 H 0.11864 0.34335 0.53475 0.0
H266 H 0.05033 0.34124 0.57607 0.0
H267 H 0.06242 0.37879 0.59778 0.0
N268 N 0.09482 0.40943 0.61591 0.0
N269 N 0.12416 0.44043 0.62399 0.0
N270 N 0.12656 0.41741 0.58737 0.0
C271 C 0.10364 0.42759 0.63091 0.0
C272 C 0.13555 0.43563 0.60219 0.0
C273 C 0.10621 0.40417 0.59414 0.0
C274 C 0.09197 0.43241 0.65524 0.0
C275 C 0.06914 0.42149 0.66161 0.0
C276 C 0.05893 0.42517 0.68509 0.0
C277 C 0.0715 0.43959 0.70273 0.0
C278 C 0.094 0.45092 0.69618 0.0
C279 C 0.10406 0.44747 0.67271 0.0
C280 C 0.15833 0.44922 0.59537 0.0
C281 C 0.17454 0.4578 0.61381 0.0
C282 C 0.19673 0.46955 0.60748 0.0
C283 C 0.203 0.47358 0.58252 0.0
C284 C 0.18624 0.46561 0.56411 0.0
C285 C 0.16434 0.45328 0.57046 0.0
C286 C 0.09773 0.38286 0.57906 0.0
C287 C 0.11312 0.3727 0.56075 0.0
Zn288 Zn 0.97572 0.05964 0.55551 0.0
Zn289 Zn 0.04066 0.00484 0.50643 0.0
Zn290 Zn 0.00813 0.03228 0.53022 0.0
C291 C 0.04767 0.05315 0.49004 0.0
C292 C 0.99347 0.98657 0.49468 0.0
O293 O 0.01293 0.02512 0.57045 0.0
O294 O 0.9874 0.05106 0.58917 0.0
C295 C 0.00509 0.09212 0.52778 0.0
O296 O 0.03124 0.05715 0.50683 0.0
O297 O 0.0544 0.03135 0.48524 0.0
O298 O 0.01607 0.98094 0.49284 0.0
O299 O 0.98697 0.00601 0.50677 0.0
O300 O 0.98609 0.09184 0.54134 0.0
O301 O 0.01602 0.07177 0.52198 0.0
O302 O 0.97008 0.02256 0.51789 0.0
O303 O 0.94519 0.04392 0.54237 0.0
C304 C 0.94816 0.02865 0.52504 0.0
O305 O 0.03115 0.01174 0.55773 0.0
O306 O 0.06081 0.9948 0.53525 0.0
C307 C 0.0037 0.03444 0.59033 0.0
C308 C 0.0514 0.99925 0.55608 0.0
Zn309 Zn 0.50234 0.03683 0.00168 0.0
Zn310 Zn 0.55537 0.97716 0.05965 0.0
Zn311 Zn 0.52901 0.00686 0.031 0.0
C312 C 0.58915 0.00536 0.03302 0.0
C313 C 0.52567 0.94672 0.03105 0.0
O314 O 0.50692 0.03186 0.05468 0.0
O315 O 0.48887 0.05786 0.02863 0.0
C316 C 0.55213 0.04316 0.98894 0.0
O317 O 0.56888 0.01278 0.02279 0.0
O318 O 0.58853 0.99038 0.05094 0.0
O319 O 0.54415 0.94533 0.04533 0.0
O320 O 0.51732 0.96801 0.02425 0.0
O321 O 0.5307 0.04923 0.98184 0.0
O322 O 0.55502 0.02817 0.00729 0.0
O323 O 0.50475 0.98365 0.00729 0.0
O324 O 0.48125 0.01041 0.98701 0.0
C325 C 0.48725 0.98833 0.99169 0.0
O326 O 0.52118 0.01657 0.07007 0.0
O327 O 0.54049 0.98745 0.09145 0.0
C328 C 0.49298 0.05072 0.05051 0.0
C329 C 0.52677 0.0063 0.09087 0.0
Zn330 Zn 0.53654 0.53982 0.53537 0.0
Zn331 Zn 0.48172 0.4783 0.4806 0.0
Zn332 Zn 0.50837 0.50916 0.50756 0.0
C333 C 0.51007 0.44914 0.51159 0.0
C334 C 0.51012 0.5057 0.44766 0.0
O335 O 0.48332 0.53267 0.52964 0.0
O336 O 0.50837 0.55383 0.5544 0.0
C337 C 0.5509 0.49159 0.54671 0.0
O338 O 0.519 0.4706 0.51702 0.0
O339 O 0.49202 0.44718 0.49685 0.0
O340 O 0.49631 0.48681 0.448 0.0
O341 O 0.51588 0.51679 0.46797 0.0
O342 O 0.55751 0.51366 0.55069 0.0
O343 O 0.53283 0.48682 0.53182 0.0
O344 O 0.53053 0.5327 0.48234 0.0
O345 O 0.54979 0.55926 0.50699 0.0
C346 C 0.54498 0.55146 0.4855 0.0
O347 O 0.46866 0.51552 0.51623 0.0
O348 O 0.44889 0.49187 0.48922 0.0
C349 C 0.48675 0.54854 0.5471 0.0
C350 C 0.44831 0.50739 0.50662 0.0
Zn351 Zn 0.06354 0.55453 0.97689 0.0
Zn352 Zn 0.99809 0.50379 0.02884 0.0
Zn353 Zn 0.03143 0.53075 0.00299 0.0
C354 C 0.04617 0.48811 0.04196 0.0
C355 C 0.98855 0.49498 0.97941 0.0
O356 O 0.02218 0.57063 0.00635 0.0
O357 O 0.04472 0.5859 0.9758 0.0
C358 C 0.09005 0.5341 0.01486 0.0
O359 O 0.05227 0.50696 0.02869 0.0
O360 O 0.02374 0.48157 0.04381 0.0
O361 O 0.97855 0.4917 1.00022 0.0
O362 O 0.00864 0.50781 0.97738 0.0
O363 O 0.09227 0.5517 0.99968 0.0
O364 O 0.06918 0.52274 0.01725 0.0
O365 O 0.02776 0.51873 0.96395 0.0
O366 O 0.06245 0.53283 0.94731 0.0
C367 C 0.04288 0.52009 0.94558 0.0
O368 O 0.0089 0.55714 0.02438 0.0
O369 O 0.98532 0.53267 0.04755 0.0
C370 C 0.02836 0.58883 0.99217 0.0
C371 C 0.99257 0.55405 0.04148 0.0
C372 C 0.17008 0.16441 0.34518 0.0
C373 C 0.16332 0.18716 0.33446 0.0
C374 C 0.15685 0.15471 0.36513 0.0
C375 C 0.09624 0.15222 0.39279 0.0
H376 H 0.13138 0.12737 0.45028 0.0
C377 C 0.04667 0.09462 0.46883 0.0
C378 C 0.05981 0.07364 0.47663 0.0
C379 C 0.05844 0.11299 0.45472 0.0
C380 C 0.12125 0.13411 0.43433 0.0
H381 H 0.13723 0.21759 0.33688 0.0
H382 H 0.11349 0.1999 0.37108 0.0
H383 H 0.15382 0.15063 0.41877 0.0
H384 H 0.09539 0.05527 0.47576 0.0
H385 H 0.11563 0.08656 0.45076 0.0
H386 H 0.06396 0.13445 0.40753 0.0
C387 C 0.12926 0.18985 0.36398 0.0
C388 C 0.13412 0.14751 0.41637 0.0
C389 C 0.1428 0.19984 0.34427 0.0
C390 C 0.08484 0.07136 0.47016 0.0
C391 C 0.09653 0.0895 0.45604 0.0
C392 C 0.08339 0.13846 0.41063 0.0
C393 C 0.13625 0.16724 0.37463 0.0
C394 C 0.12188 0.15612 0.39513 0.0
C395 C 0.08351 0.11051 0.44797 0.0
C396 C 0.09593 0.12858 0.43124 0.0
H397 H 0.1853 0.15372 0.33788 0.0
H398 H 0.16237 0.13703 0.37278 0.0
H399 H 0.08641 0.15863 0.37652 0.0
H400 H 0.02716 0.09646 0.47301 0.0
H401 H 0.04786 0.12895 0.44887 0.0
C402 C 0.36381 0.8755 0.84624 0.0
C403 C 0.37144 0.85288 0.83597 0.0
C404 C 0.37662 0.88597 0.86611 0.0
C405 C 0.43732 0.88998 0.89455 0.0
H406 H 0.40136 0.9167 0.95037 0.0
C407 C 0.48684 0.94698 0.97071 0.0
C408 C 0.47423 0.96826 0.97844 0.0
C409 C 0.47468 0.92902 0.95646 0.0
C410 C 0.4117 0.90949 0.93486 0.0
H411 H 0.39864 0.82351 0.83904 0.0
H412 H 0.42154 0.84243 0.87323 0.0
H413 H 0.37929 0.89281 0.91904 0.0
H414 H 0.43923 0.98765 0.97716 0.0
H415 H 0.41828 0.95699 0.9518 0.0
H416 H 0.4695 0.90769 0.90957 0.0
C417 C 0.40545 0.85183 0.86582 0.0
C418 C 0.39905 0.89572 0.91699 0.0
C419 C 0.39238 0.8411 0.84614 0.0
C420 C 0.44932 0.97128 0.97168 0.0
C421 C 0.43725 0.95352 0.95733 0.0
C422 C 0.44996 0.90404 0.91229 0.0
C423 C 0.39762 0.87433 0.87602 0.0
C424 C 0.41162 0.8863 0.89639 0.0
C425 C 0.44978 0.93223 0.94934 0.0
C426 C 0.43718 0.9145 0.93235 0.0
H427 H 0.34823 0.88552 0.83862 0.0
H428 H 0.37044 0.90356 0.87333 0.0
H429 H 0.44742 0.88302 0.87876 0.0
H430 H 0.50624 0.94451 0.97515 0.0
H431 H 0.48488 0.9128 0.95079 0.0
C432 C 0.63893 0.3506 0.70012 0.0
C433 C 0.66485 0.35265 0.70234 0.0
C434 C 0.62637 0.36243 0.68073 0.0
C435 C 0.63277 0.4166 0.64121 0.0
H436 H 0.58066 0.38775 0.60093 0.0
C437 C 0.58966 0.47293 0.56297 0.0
C438 C 0.56392 0.47156 0.55986 0.0
C439 C 0.60199 0.45577 0.57779 0.0
C440 C 0.595 0.39615 0.61219 0.0
H441 H 0.69796 0.36731 0.68485 0.0
H442 H 0.67602 0.38828 0.65152 0.0
H443 H 0.60177 0.36238 0.63209 0.0
H444 H 0.53078 0.45103 0.56931 0.0
H445 H 0.55218 0.42124 0.59589 0.0
H446 H 0.62573 0.45047 0.62234 0.0
C447 C 0.66541 0.37781 0.66495 0.0
C448 C 0.6071 0.38159 0.62996 0.0
C449 C 0.67795 0.36588 0.68413 0.0
C450 C 0.55072 0.45225 0.57122 0.0
C451 C 0.56302 0.43519 0.5864 0.0
C452 C 0.62056 0.43116 0.62377 0.0
C453 C 0.63947 0.37664 0.66332 0.0
C454 C 0.62625 0.39167 0.64449 0.0
C455 C 0.58876 0.43715 0.59039 0.0
C456 C 0.60165 0.42114 0.60883 0.0
H457 H 0.62824 0.34069 0.71388 0.0
H458 H 0.60634 0.36133 0.67998 0.0
H459 H 0.6471 0.42501 0.6525 0.0
H460 H 0.60025 0.48758 0.55422 0.0
H461 H 0.62189 0.45746 0.57979 0.0
C462 C 0.907 0.68037 0.20635 0.0
C463 C 0.88098 0.68104 0.20503 0.0
C464 C 0.92086 0.67065 0.18689 0.0
C465 C 0.91733 0.65319 0.12056 0.0
H466 H 0.9708 0.6087 0.13793 0.0
C467 C 0.95732 0.58056 0.05379 0.0
C468 C 0.98263 0.57511 0.05526 0.0
C469 C 0.94678 0.59758 0.07004 0.0
C470 C 0.95626 0.62144 0.13269 0.0
H471 H 0.84922 0.67262 0.18184 0.0
H472 H 0.87335 0.65511 0.14815 0.0
H473 H 0.9487 0.63037 0.17041 0.0
H474 H 0.01695 0.58288 0.07448 0.0
H475 H 0.99868 0.61302 0.10281 0.0
H476 H 0.92456 0.64367 0.08281 0.0
C477 C 0.88307 0.66237 0.16413 0.0
C478 C 0.94354 0.63386 0.15135 0.0
C479 C 0.8692 0.6721 0.1836 0.0
C480 C 0.99744 0.58722 0.07283 0.0
C481 C 0.98692 0.60424 0.08912 0.0
C482 C 0.93006 0.64073 0.10187 0.0
C483 C 0.90906 0.66133 0.16562 0.0
C484 C 0.92369 0.64961 0.14556 0.0
C485 C 0.96134 0.60916 0.08831 0.0
C486 C 0.94944 0.62443 0.10775 0.0
H487 H 0.91667 0.68689 0.22267 0.0
H488 H 0.94086 0.67036 0.18854 0.0
H489 H 0.9024 0.66551 0.11543 0.0
H490 H 0.94553 0.57096 0.04068 0.0
H491 H 0.92698 0.60064 0.06914 0.0
C492 C 0.35572 0.1796 0.17258 0.0
C493 C 0.33684 0.16649 0.18485 0.0
C494 C 0.37542 0.1671 0.16162 0.0
C495 C 0.4097 0.10834 0.15909 0.0
H496 H 0.42117 0.12773 0.09102 0.0
C497 C 0.46838 0.05095 0.08969 0.0
C498 C 0.48081 0.06392 0.07092 0.0
C499 C 0.45351 0.06362 0.10664 0.0
C500 C 0.41869 0.12234 0.11015 0.0
H501 H 0.32454 0.12993 0.19611 0.0
H502 H 0.35923 0.10811 0.17711 0.0
H503 H 0.39051 0.14947 0.11525 0.0
H504 H 0.48889 0.10017 0.05595 0.0
H505 H 0.46391 0.1224 0.08595 0.0
H506 H 0.43808 0.08117 0.1539 0.0
C507 C 0.35868 0.1281 0.17606 0.0
C508 C 0.40096 0.13479 0.12402 0.0
C509 C 0.33883 0.14062 0.18694 0.0
C510 C 0.47929 0.08977 0.07017 0.0
C511 C 0.4648 0.10244 0.08725 0.0
C512 C 0.42774 0.09597 0.14523 0.0
C513 C 0.37685 0.1412 0.16278 0.0
C514 C 0.39623 0.12797 0.14862 0.0
C515 C 0.45093 0.08949 0.10512 0.0
C516 C 0.43246 0.10285 0.12055 0.0
H517 H 0.35513 0.19956 0.17114 0.0
H518 H 0.38939 0.17772 0.15188 0.0
H519 H 0.40648 0.10275 0.17806 0.0
H520 H 0.46911 0.03094 0.09045 0.0
H521 H 0.44305 0.05299 0.12005 0.0
C522 C 0.17948 0.87845 0.69778 0.0
C523 C 0.2034 0.88025 0.68773 0.0
C524 C 0.16037 0.89349 0.68884 0.0
C525 C 0.14825 0.95193 0.65678 0.0
H526 H 0.08989 0.91986 0.62965 0.0
C527 C 0.09004 0.99643 0.58059 0.0
C528 C 0.0648 0.99075 0.57821 0.0
C529 C 0.10423 0.98558 0.59923 0.0
C530 C 0.10569 0.9293 0.63767 0.0
H531 H 0.22637 0.89954 0.66111 0.0
H532 H 0.19314 0.92615 0.64584 0.0
H533 H 0.12013 0.89557 0.65276 0.0
H534 H 0.03462 0.969 0.59288 0.0
H535 H 0.05902 0.95088 0.6266 0.0
H536 H 0.13412 0.98561 0.64169 0.0
C537 C 0.18911 0.91302 0.66046 0.0
C538 C 0.12308 0.9153 0.65081 0.0
C539 C 0.20803 0.89769 0.66903 0.0
C540 C 0.05378 0.97447 0.59513 0.0
C541 C 0.06794 0.9637 0.61402 0.0
C542 C 0.13073 0.966 0.644 0.0
C543 C 0.16506 0.91095 0.67013 0.0
C544 C 0.14489 0.92635 0.65975 0.0
C545 C 0.09353 0.96869 0.61595 0.0
C546 C 0.10966 0.95472 0.63346 0.0
H547 H 0.17548 0.86508 0.71219 0.0
H548 H 0.14197 0.89156 0.69656 0.0
H549 H 0.16478 0.96093 0.66384 0.0
H550 H 0.09901 0.00863 0.56742 0.0
H551 H 0.12391 0.98952 0.59964 0.0
C552 C 0.83451 0.39604 0.85605 0.0
C553 C 0.83762 0.37113 0.84953 0.0
C554 C 0.85435 0.40983 0.86536 0.0
C555 C 0.91526 0.40264 0.89602 0.0
H556 H 0.91937 0.4732 0.88359 0.0
C557 C 0.98777 0.46463 0.94476 0.0
C558 C 0.97655 0.48408 0.95762 0.0
C559 C 0.97444 0.45164 0.92667 0.0
C560 C 0.91854 0.45348 0.88708 0.0
H561 H 0.86413 0.34125 0.84714 0.0
H562 H 0.899 0.36544 0.86304 0.0
H563 H 0.88903 0.44825 0.86113 0.0
H564 H 0.94332 0.50591 0.96149 0.0
H565 H 0.92015 0.48366 0.9296 0.0
H566 H 0.94461 0.40806 0.92222 0.0
C567 C 0.88108 0.37423 0.86141 0.0
C568 C 0.90106 0.43919 0.87437 0.0
C569 C 0.86112 0.36035 0.85228 0.0
C570 C 0.95233 0.4911 0.95153 0.0
C571 C 0.93917 0.47843 0.93326 0.0
C572 C 0.93293 0.41691 0.90852 0.0
C573 C 0.87792 0.39913 0.86819 0.0
C574 C 0.89865 0.41371 0.87924 0.0
C575 C 0.94983 0.45816 0.9211 0.0
C576 C 0.93425 0.44257 0.9047 0.0
H577 H 0.81653 0.40476 0.85449 0.0
H578 H 0.85099 0.42874 0.87092 0.0
H579 H 0.91384 0.38316 0.90047 0.0
H580 H 0.00641 0.45885 0.94942 0.0
H581 H 0.9831 0.43614 0.9175 0.0
C582 C 0.68106 0.67811 0.35874 0.0
C583 C 0.70064 0.66474 0.34815 0.0
C584 C 0.66105 0.66583 0.36958 0.0
C585 C 0.62765 0.6064 0.3747 0.0
H586 H 0.61403 0.62913 0.4412 0.0
C587 C 0.56958 0.55058 0.44636 0.0
C588 C 0.55667 0.56401 0.46434 0.0
C589 C 0.58413 0.56296 0.42878 0.0
C590 C 0.61708 0.62279 0.42248 0.0
H591 H 0.71386 0.62787 0.33971 0.0
H592 H 0.67864 0.60642 0.35848 0.0
H593 H 0.64467 0.65054 0.41641 0.0
H594 H 0.54726 0.60061 0.47723 0.0
H595 H 0.57157 0.62226 0.44606 0.0
H596 H 0.59988 0.57858 0.38086 0.0
C597 C 0.67888 0.62645 0.35829 0.0
C598 C 0.6348 0.63506 0.40829 0.0
C599 C 0.69904 0.63876 0.34754 0.0
C600 C 0.55727 0.58989 0.46363 0.0
C601 C 0.57139 0.60224 0.44589 0.0
C602 C 0.6096 0.59421 0.38886 0.0
C603 C 0.66 0.63987 0.36997 0.0
C604 C 0.64036 0.62701 0.3843 0.0
C605 C 0.58584 0.58897 0.42888 0.0
C606 C 0.60413 0.60225 0.41299 0.0
H607 H 0.68138 0.69813 0.35901 0.0
H608 H 0.64655 0.67666 0.37808 0.0
H609 H 0.63153 0.59986 0.35619 0.0
H610 H 0.56948 0.53055 0.44672 0.0
H611 H 0.59503 0.55209 0.41606 0.0
C612 C 0.16996 0.32721 0.13454 0.0
C613 C 0.18156 0.33192 0.15731 0.0
C614 C 0.15905 0.34641 0.12113 0.0
C615 C 0.13485 0.41023 0.12887 0.0
H616 H 0.13005 0.40683 0.05738 0.0
C617 C 0.0845 0.48359 0.06777 0.0
C618 C 0.06538 0.47285 0.05376 0.0
C619 C 0.10212 0.46863 0.07952 0.0
C620 C 0.13144 0.40807 0.07733 0.0
H621 H 0.19163 0.36042 0.18358 0.0
H622 H 0.17338 0.39421 0.15978 0.0
H623 H 0.15529 0.37673 0.07959 0.0
H624 H 0.04967 0.4384 0.0406 0.0
H625 H 0.08072 0.41228 0.06064 0.0
H626 H 0.11103 0.44182 0.1263 0.0
C627 C 0.17198 0.3756 0.15255 0.0
C628 C 0.14568 0.39071 0.09013 0.0
C629 C 0.18255 0.35629 0.16616 0.0
C630 C 0.06428 0.44706 0.05134 0.0
C631 C 0.08209 0.43218 0.06262 0.0
C632 C 0.12097 0.42787 0.11599 0.0
C633 C 0.15981 0.3709 0.12996 0.0
C634 C 0.14702 0.3911 0.11615 0.0
C635 C 0.10103 0.44279 0.07698 0.0
C636 C 0.11864 0.42653 0.09019 0.0
H637 H 0.1687 0.30853 0.12745 0.0
H638 H 0.1494 0.34185 0.10415 0.0
H639 H 0.13511 0.41105 0.14887 0.0
H640 H 0.08544 0.50345 0.07012 0.0
H641 H 0.11656 0.47719 0.09056 0.0
C642 C 0.69022 0.1942 0.89631 0.0
C643 C 0.68857 0.19558 0.87035 0.0
C644 C 0.67938 0.17446 0.90919 0.0
C645 C 0.62807 0.13088 0.90276 0.0
H646 H 0.6573 0.09646 0.95861 0.0
C647 C 0.57361 0.05407 0.94999 0.0
C648 C 0.57351 0.05392 0.9759 0.0
C649 C 0.59123 0.06784 0.93708 0.0
C650 C 0.64882 0.10603 0.94317 0.0
H651 H 0.6756 0.17638 0.83756 0.0
H652 H 0.65642 0.14226 0.86002 0.0
H653 H 0.68153 0.12773 0.93626 0.0
H654 H 0.59221 0.06701 0.00882 0.0
H655 H 0.62274 0.09197 0.98627 0.0
H656 H 0.59517 0.11027 0.90992 0.0
C657 C 0.6658 0.15663 0.87042 0.0
C658 C 0.66271 0.12388 0.93036 0.0
C659 C 0.67671 0.17624 0.85756 0.0
C660 C 0.59209 0.06679 0.98878 0.0
C661 C 0.60957 0.081 0.97583 0.0
C662 C 0.61418 0.11333 0.91563 0.0
C663 C 0.66657 0.15576 0.89639 0.0
C664 C 0.65246 0.13641 0.90995 0.0
C665 C 0.60875 0.0824 0.9498 0.0
C666 C 0.62433 0.10054 0.93594 0.0
H667 H 0.69903 0.20886 0.90677 0.0
H668 H 0.68011 0.17438 0.92921 0.0
H669 H 0.61944 0.1406 0.88749 0.0
H670 H 0.55952 0.0441 0.9397 0.0
H671 H 0.5905 0.06778 0.91707 0.0
C672 C 0.88414 0.82061 0.394 0.0
C673 C 0.86164 0.82459 0.38153 0.0
C674 C 0.89469 0.83925 0.40846 0.0
C675 C 0.89813 0.90615 0.41512 0.0
H676 H 0.92644 0.89044 0.47922 0.0
C677 C 0.95314 0.97848 0.47276 0.0
C678 C 0.9748 0.96962 0.48401 0.0
C679 C 0.93594 0.96201 0.46235 0.0
C680 C 0.91877 0.89513 0.46129 0.0
H681 H 0.83252 0.85115 0.37439 0.0
H682 H 0.85126 0.88403 0.39952 0.0
H683 H 0.90275 0.85912 0.45694 0.0
H684 H 0.99588 0.93673 0.49279 0.0
H685 H 0.96654 0.90812 0.47412 0.0
H686 H 0.91501 0.94184 0.41896 0.0
C687 C 0.86059 0.86639 0.39814 0.0
C688 C 0.90514 0.87719 0.44858 0.0
C689 C 0.84982 0.84757 0.38392 0.0
C690 C 0.97919 0.94407 0.4844 0.0
C691 C 0.96219 0.92765 0.47394 0.0
C692 C 0.91199 0.92408 0.42775 0.0
C693 C 0.88313 0.86239 0.41056 0.0
C694 C 0.89514 0.88233 0.42514 0.0
C695 C 0.94032 0.93635 0.46279 0.0
C696 C 0.92299 0.91857 0.45073 0.0
H697 H 0.89354 0.803 0.39264 0.0
H698 H 0.91221 0.83571 0.41761 0.0
H699 H 0.89073 0.91057 0.39701 0.0
H700 H 0.94997 0.99811 0.47127 0.0
H701 H 0.91934 0.96939 0.45386 0.0
C702 C 0.3681 0.6902 0.66837 0.0
C703 C 0.35471 0.70901 0.65639 0.0
C704 C 0.37773 0.67038 0.655 0.0
C705 C 0.39631 0.65267 0.59174 0.0
H706 H 0.40224 0.58778 0.62181 0.0
C707 C 0.44716 0.57217 0.54339 0.0
C708 C 0.46577 0.56175 0.55827 0.0
C709 C 0.42912 0.58743 0.55389 0.0
C710 C 0.40061 0.60578 0.61315 0.0
H711 H 0.3407 0.72142 0.62084 0.0
H712 H 0.35689 0.68645 0.59762 0.0
H713 H 0.37879 0.61996 0.64283 0.0
H714 H 0.47991 0.55841 0.59561 0.0
H715 H 0.44832 0.58474 0.61401 0.0
H716 H 0.41843 0.63844 0.5622 0.0
C717 C 0.36029 0.68726 0.61735 0.0
C718 C 0.38732 0.62428 0.62523 0.0
C719 C 0.35076 0.70719 0.63072 0.0
C720 C 0.46562 0.56613 0.58382 0.0
C721 C 0.44747 0.58107 0.59434 0.0
C722 C 0.40942 0.63407 0.57955 0.0
C723 C 0.37407 0.66869 0.62929 0.0
C724 C 0.38558 0.64818 0.61503 0.0
C725 C 0.42935 0.59231 0.57943 0.0
C726 C 0.41225 0.61065 0.59045 0.0
H727 H 0.37118 0.69074 0.68816 0.0
H728 H 0.38854 0.65668 0.66483 0.0
H729 H 0.39562 0.67087 0.58341 0.0
H730 H 0.44709 0.56923 0.52358 0.0
H731 H 0.4153 0.5958 0.542 0.0
C732 C 0.99377 0.99002 0.80964 0.0
C733 C 0.98464 0.96602 0.81375 0.0
C734 C 0.00219 0.99707 0.78623 0.0
C735 C 0.01942 0.97278 0.724 0.0
H736 H 0.99687 0.03719 0.70211 0.0
C737 C 0.00573 0.00079 0.62161 0.0
C738 C 0.01094 0.02527 0.61486 0.0
C739 C 0.00849 0.99314 0.64619 0.0
C740 C 0.00376 0.01934 0.70802 0.0
H741 H 0.97768 0.93041 0.79673 0.0
H742 H 0.99185 0.94279 0.7558 0.0
H743 H 0.99048 0.02471 0.74474 0.0
H744 H 0.02325 0.06102 0.62797 0.0
H745 H 0.02824 0.04775 0.671 0.0
H746 H 0.03176 0.96718 0.68674 0.0
C747 C 0.99306 0.95607 0.77072 0.0
C748 C 1.00011 0.01216 0.73253 0.0
C749 C 0.98485 0.94897 0.79418 0.0
C750 C 0.01948 0.04192 0.63281 0.0
C751 C 0.02218 0.03435 0.65738 0.0
C752 C 0.02295 0.97993 0.69936 0.0
C753 C 0.00143 0.98035 0.76633 0.0
C754 C 0.00756 0.98866 0.74079 0.0
C755 C 0.01606 0.01006 0.66447 0.0
C756 C 0.01485 0.00318 0.69104 0.0
H757 H 0.99417 0.00344 0.82448 0.0
H758 H 0.00897 0.01577 0.78366 0.0
H759 H 0.02574 0.95469 0.72981 0.0
H760 H 0.99817 0.98797 0.60818 0.0
H761 H 0.00323 0.97443 0.6511 0.0
C762 C 0.54311 0.05833 0.30661 0.0
C763 C 0.55238 0.08238 0.31003 0.0
C764 C 0.53361 0.05106 0.28369 0.0
C765 C 0.51327 0.07392 0.22174 0.0
H766 H 0.53728 0.00997 0.20052 0.0
C767 C 0.52108 0.0422 0.11937 0.0
C768 C 0.51867 0.01681 0.1146 0.0
C769 C 0.51882 0.05112 0.14358 0.0
C770 C 0.52991 0.02766 0.20623 0.0
H771 H 0.55818 0.11793 0.29233 0.0
H772 H 0.54197 0.10514 0.25217 0.0
H773 H 0.54533 0.02366 0.24235 0.0
H774 H 0.50996 0.98113 0.13062 0.0
H775 H 0.50529 0.99665 0.17261 0.0
H776 H 0.49851 0.07804 0.18503 0.0
C777 C 0.54162 0.09199 0.26731 0.0
C778 C 0.53456 0.03553 0.23031 0.0
C779 C 0.55099 0.09932 0.29031 0.0
C780 C 0.51208 0.00078 0.13393 0.0
C781 C 0.50958 0.00967 0.15797 0.0
C782 C 0.5086 0.066 0.19748 0.0
C783 C 0.53335 0.0676 0.26356 0.0
C784 C 0.52651 0.05883 0.23837 0.0
C785 C 0.51412 0.03471 0.1633 0.0
C786 C 0.51704 0.04281 0.18942 0.0
H787 H 0.54354 0.04501 0.3216 0.0
H788 H 0.5269 0.03228 0.2816 0.0
H789 H 0.50662 0.09189 0.22742 0.0
H790 H 0.52638 0.05486 0.10475 0.0
H791 H 0.52247 0.0705 0.14704 0.0
C792 C 0.48767 0.5964 0.24661 0.0
C793 C 0.4865 0.57939 0.22701 0.0
C794 C 0.49691 0.58924 0.26973 0.0
C795 C 0.5033 0.53305 0.30717 0.0
H796 H 0.53963 0.57552 0.35233 0.0
C797 C 0.52396 0.49902 0.40446 0.0
C798 C 0.51799 0.51551 0.42349 0.0
C799 C 0.52669 0.50748 0.38024 0.0
C800 C 0.52945 0.56349 0.33992 0.0
H801 H 0.4957 0.54211 0.21574 0.0
H802 H 0.51201 0.52966 0.25596 0.0
H803 H 0.53203 0.58922 0.30976 0.0
H804 H 0.51137 0.55388 0.43256 0.0
H805 H 0.51567 0.56876 0.39002 0.0
H806 H 0.49986 0.5077 0.33718 0.0
C807 C 0.50525 0.54836 0.25368 0.0
C808 C 0.52509 0.57132 0.31557 0.0
C809 C 0.49592 0.55548 0.23064 0.0
C810 C 0.51625 0.54086 0.41819 0.0
C811 C 0.51873 0.54934 0.39382 0.0
C812 C 0.50759 0.52528 0.33138 0.0
C813 C 0.50524 0.56494 0.27369 0.0
C814 C 0.51177 0.55625 0.29899 0.0
C815 C 0.52298 0.53255 0.37443 0.0
C816 C 0.52053 0.54043 0.34815 0.0
H817 H 0.48038 0.61491 0.24442 0.0
H818 H 0.4964 0.60239 0.28479 0.0
H819 H 0.49248 0.5212 0.29513 0.0
H820 H 0.52555 0.47939 0.40817 0.0
H821 H 0.53061 0.49415 0.36586 0.0
C822 C 0.07787 0.43909 0.74846 0.0
C823 C 0.06184 0.44224 0.72822 0.0
C824 C 0.06944 0.44262 0.77253 0.0
C825 C 0.02388 0.47712 0.80779 0.0
H826 H 0.04892 0.43672 0.86162 0.0
C827 C 0.01534 0.506 0.91087 0.0
C828 C 0.03848 0.50592 0.92279 0.0
C829 C 0.0123 0.49404 0.88807 0.0
C830 C 0.0416 0.44807 0.84679 0.0
H831 H 0.02425 0.45108 0.71728 0.0
H832 H 0.00943 0.45754 0.75968 0.0
H833 H 0.05435 0.42309 0.819 0.0
H834 H 0.07636 0.49311 0.92079 0.0
H835 H 0.07115 0.47221 0.8813 0.0
H836 H 0.01217 0.50266 0.83566 0.0
C837 C 0.02855 0.45228 0.75678 0.0
C838 C 0.04475 0.44031 0.82241 0.0
C839 C 0.03697 0.44848 0.73259 0.0
C840 C 0.05831 0.49332 0.91196 0.0
C841 C 0.05524 0.48118 0.88947 0.0
C842 C 0.02071 0.4849 0.83226 0.0
C843 C 0.04477 0.44951 0.77699 0.0
C844 C 0.03686 0.45524 0.80262 0.0
C845 C 0.03233 0.48166 0.87708 0.0
C846 C 0.03048 0.47093 0.85192 0.0
H847 H 0.09706 0.43402 0.74566 0.0
H848 H 0.08251 0.44069 0.78764 0.0
H849 H 0.01767 0.48907 0.79294 0.0
H850 H 0.99989 0.51592 0.9188 0.0
H851 H 0.99445 0.4947 0.8789 0.0
C852 C 0.79258 0.99074 0.94381 0.0
C853 C 0.81187 0.98902 0.96126 0.0
C854 C 0.76903 0.9987 0.95094 0.0
C855 C 0.73022 1.00016 0.00645 0.0
H856 H 0.68509 0.0383 0.96563 0.0
C857 C 0.6326 0.01829 0.0406 0.0
C858 C 0.61351 0.01328 0.02369 0.0
C859 C 0.6569 0.02135 0.03246 0.0
C860 C 0.69749 0.02758 0.97718 0.0
H861 H 0.82209 0.99596 0.9994 0.0
H862 H 0.78113 0.01008 0.01182 0.0
H863 H 0.72804 0.03246 0.95228 0.0
H864 H 0.60443 0.00861 0.98497 0.0
H865 H 0.64717 0.01353 0.9706 0.0
H866 H 0.69987 0.99455 0.03095 0.0
C867 C 0.784 0.0047 0.99276 0.0
C868 C 0.72205 0.02423 0.96955 0.0
C869 C 0.80747 0.99663 0.98567 0.0
C870 C 0.61886 0.01274 0.99831 0.0
C871 C 0.64332 0.01557 0.99013 0.0
C872 C 0.70582 0.00346 0.01401 0.0
C873 C 0.76432 0.00519 0.97565 0.0
C874 C 0.73865 0.01035 0.98408 0.0
C875 C 0.66274 0.01894 0.00726 0.0
C876 C 0.68908 0.01711 0.99947 0.0
H877 H 0.79538 0.98484 0.92489 0.0
H878 H 0.75425 0.99864 0.93735 0.0
H879 H 0.74227 0.98886 0.01781 0.0
H880 H 0.62886 0.01895 0.06027 0.0
H881 H 0.6713 0.02457 0.04608 0.0
C882 C 0.75586 0.06927 0.4371 0.0
C883 C 0.73377 0.05799 0.44496 0.0
C884 C 0.7787 0.05844 0.44236 0.0
C885 C 0.80914 0.02101 0.4885 0.0
H886 H 0.86265 0.01913 0.44085 0.0
C887 C 0.90904 0.0044 0.52096 0.0
C888 C 0.92618 0.02113 0.51095 0.0
C889 C 0.88576 0.00133 0.50987 0.0
C890 C 0.84794 0.01954 0.45441 0.0
H891 H 0.7181 0.02642 0.46412 0.0
H892 H 0.75833 0.00768 0.47394 0.0
H893 H 0.82067 0.02875 0.42703 0.0
H894 H 0.93308 0.04749 0.48167 0.0
H895 H 0.89253 0.04266 0.46251 0.0
H896 H 0.83643 0.01352 0.51616 0.0
C897 C 0.75785 0.02477 0.46348 0.0
C898 C 0.8239 0.02496 0.44646 0.0
C899 C 0.7349 0.03542 0.45782 0.0
C900 C 0.92021 0.03411 0.48934 0.0
C901 C 0.89698 0.0312 0.47834 0.0
C902 C 0.83323 0.01591 0.49652 0.0
C903 C 0.77996 0.03628 0.4559 0.0
C904 C 0.80442 0.02646 0.46354 0.0
C905 C 0.87914 0.01533 0.48887 0.0
C906 C 0.85309 0.01592 0.47969 0.0
H907 H 0.75544 0.08659 0.42701 0.0
H908 H 0.79545 0.06787 0.43656 0.0
H909 H 0.79448 0.02222 0.50209 0.0
H910 H 0.91327 0.9945 0.53788 0.0
H911 H 0.87262 0.98872 0.51829 0.0
C912 C 0.30052 0.52937 0.09454 0.0
C913 C 0.31025 0.54982 0.08151 0.0
C914 C 0.27667 0.52046 0.08942 0.0
C915 C 0.22846 0.51777 0.04216 0.0
H916 H 0.1805 0.52288 0.0952 0.0
C917 C 0.12249 0.54389 0.04576 0.0
C918 C 0.11183 0.52685 0.02937 0.0
C919 C 0.14579 0.53942 0.05603 0.0
C920 C 0.19377 0.5209 0.08036 0.0
H921 H 0.3021 0.57655 0.05251 0.0
H922 H 0.26127 0.56017 0.04292 0.0
H923 H 0.22474 0.52858 0.10414 0.0
H924 H 0.11629 0.49147 0.01138 0.0
H925 H 0.15773 0.4839 0.02882 0.0
H926 H 0.19753 0.511 0.0182 0.0
C927 C 0.27218 0.5512 0.05717 0.0
C928 C 0.21901 0.52409 0.08546 0.0
C929 C 0.29573 0.56047 0.06263 0.0
C930 C 0.12421 0.50471 0.02419 0.0
C931 C 0.14782 0.50045 0.03407 0.0
C932 C 0.20331 0.5141 0.03715 0.0
C933 C 0.2623 0.53138 0.07075 0.0
C934 C 0.23644 0.52342 0.06623 0.0
C935 C 0.15907 0.51811 0.04955 0.0
C936 C 0.18567 0.51648 0.05604 0.0
H937 H 0.31121 0.52027 0.10884 0.0
H938 H 0.26941 0.50508 0.10007 0.0
H939 H 0.2416 0.51714 0.02706 0.0
H940 H 0.11325 0.56118 0.04974 0.0
H941 H 0.15415 0.55346 0.06766 0.0
C942 C 0.23969 0.47786 0.55406 0.0
C943 C 0.22729 0.48507 0.57576 0.0
C944 C 0.26294 0.48763 0.54827 0.0
C945 C 0.31967 0.50532 0.57433 0.0
H946 H 0.33313 0.54022 0.5131 0.0
C947 C 0.4201 0.51929 0.54144 0.0
C948 C 0.42387 0.51487 0.51617 0.0
C949 C 0.39614 0.52294 0.55061 0.0
C950 C 0.32978 0.53037 0.53022 0.0
H951 H 0.22978 0.50909 0.60792 0.0
H952 H 0.27115 0.52487 0.59836 0.0
H953 H 0.29036 0.53178 0.52514 0.0
H954 H 0.4057 0.51119 0.4806 0.0
H955 H 0.36417 0.51627 0.49644 0.0
H956 H 0.35883 0.50187 0.57861 0.0
C957 C 0.26241 0.51188 0.58582 0.0
C958 C 0.30528 0.52577 0.53715 0.0
C959 C 0.23883 0.50258 0.59135 0.0
C960 C 0.40337 0.51474 0.50017 0.0
C961 C 0.37949 0.51797 0.5093 0.0
C962 C 0.34421 0.5094 0.56714 0.0
C963 C 0.2746 0.5044 0.56427 0.0
C964 C 0.30009 0.51272 0.55895 0.0
C965 C 0.37542 0.52161 0.53473 0.0
C966 C 0.34962 0.52132 0.54458 0.0
H967 H 0.23189 0.46406 0.54181 0.0
H968 H 0.27224 0.4814 0.53169 0.0
H969 H 0.31599 0.49506 0.59116 0.0
H970 H 0.4355 0.51882 0.55429 0.0
H971 H 0.39383 0.52601 0.57024 0.0
C972 C 0.94078 0.7959 0.98377 0.0
C973 C 0.95876 0.81473 0.98244 0.0
C974 C 0.94753 0.77173 0.99004 0.0
C975 C 0.00141 0.73148 0.98516 0.0
H976 H 0.96153 0.68454 0.02222 0.0
C977 C 0.01401 0.62787 0.97274 0.0
C978 C 0.01665 0.61338 0.99416 0.0
C979 C 0.00571 0.65217 0.97426 0.0
C980 C 0.97292 0.69752 0.012 0.0
H981 H 0.99754 0.8234 0.98856 0.0
H982 H 0.00931 0.78126 0.9995 0.0
H983 H 0.94992 0.7284 0.02144 0.0
H984 H 0.0128 0.61303 0.03384 0.0
H985 H 0.99739 0.65559 0.03664 0.0
H986 H 0.02418 0.70081 0.97538 0.0
C987 C 0.99008 0.78506 0.99521 0.0
C988 C 0.96621 0.72254 0.01142 0.0
C989 C 0.98335 0.80918 0.98893 0.0
C990 C 0.01005 0.62348 0.01708 0.0
C991 C 0.00155 0.6479 0.01865 0.0
C992 C 0.00796 0.70659 0.98558 0.0
C993 C 0.97239 0.76591 0.99511 0.0
C994 C 0.98028 0.73974 0.99776 0.0
C995 C 0.9999 0.66265 0.99725 0.0
C996 C 0.99358 0.68927 0.99864 0.0
H997 H 0.92171 0.79954 0.97871 0.0
H998 H 0.9335 0.75736 0.98959 0.0
H999 H 0.01249 0.74413 0.97421 0.0
H1000 H 0.01885 0.62055 0.95476 0.0
H1001 H 0.00423 0.66295 0.95741 0.0
C1002 C 0.44885 0.75061 0.07728 0.0
C1003 C 0.44558 0.73082 0.06079 0.0
C1004 C 0.45279 0.77455 0.06848 0.0
C1005 C 0.44934 0.82544 0.04585 0.0
H1006 H 0.49931 0.8345 0.99526 0.0
C1007 C 0.48684 0.92233 0.02391 0.0
C1008 C 0.51282 0.92361 0.02422 0.0
C1009 C 0.47479 0.89948 0.02168 0.0
C1010 C 0.48519 0.83229 0.00929 0.0
H1011 H 0.44351 0.7207 0.02207 0.0
H1012 H 0.45039 0.76278 0.00658 0.0
H1013 H 0.48497 0.79288 0.00551 0.0
H1014 H 0.54658 0.90232 0.02152 0.0
H1015 H 0.52576 0.86251 0.01807 0.0
H1016 H 0.45058 0.8646 0.05076 0.0
C1017 C 0.44999 0.75964 0.02637 0.0
C1018 C 0.47681 0.80845 0.01501 0.0
C1019 C 0.4459 0.73561 0.03522 0.0
C1020 C 0.52652 0.90184 0.02119 0.0
C1021 C 0.51454 0.87904 0.019 0.0
C1022 C 0.45771 0.84924 0.04016 0.0
C1023 C 0.45357 0.77936 0.04293 0.0
C1024 C 0.45942 0.80471 0.03396 0.0
C1025 C 0.48855 0.87748 0.01998 0.0
C1026 C 0.47634 0.85288 0.0224 0.0
H1027 H 0.44836 0.7476 0.09709 0.0
H1028 H 0.45585 0.78922 0.08176 0.0
H1029 H 0.43558 0.82321 0.06025 0.0
H1030 H 0.47586 0.93884 0.02656 0.0
H1031 H 0.45475 0.89894 0.02224 0.0
C1032 C 0.05276 0.31054 0.53414 0.0
C1033 C 0.07703 0.31519 0.54236 0.0
C1034 C 0.04583 0.28694 0.52618 0.0
C1035 C 0.06963 0.22472 0.50872 0.0
H1036 H 0.0071 0.20297 0.53646 0.0
C1037 C 0.04025 0.12184 0.52169 0.0
C1038 C 0.01488 0.11633 0.51989 0.0
C1039 C 0.04861 0.14623 0.51875 0.0
C1040 C 0.02438 0.20879 0.52811 0.0
H1041 H 0.11334 0.29901 0.54777 0.0
H1042 H 0.10116 0.2577 0.53422 0.0
H1043 H 0.02009 0.24553 0.54162 0.0
H1044 H 0.9786 0.13131 0.5119 0.0
H1045 H 0.99313 0.17362 0.50616 0.0
H1046 H 0.07406 0.18746 0.49584 0.0
C1047 C 0.08756 0.27236 0.53353 0.0
C1048 C 0.03185 0.23329 0.53107 0.0
C1049 C 0.09454 0.29603 0.54135 0.0
C1050 C 0.99824 0.13518 0.51356 0.0
C1051 C 0.00657 0.1594 0.51042 0.0
C1052 C 0.06212 0.20006 0.50574 0.0
C1053 C 0.06295 0.26738 0.52647 0.0
C1054 C 0.05461 0.24159 0.52157 0.0
C1055 C 0.03167 0.16543 0.51402 0.0
C1056 C 0.03943 0.1918 0.51553 0.0
H1057 H 0.03899 0.32505 0.53432 0.0
H1058 H 0.02686 0.28389 0.52034 0.0
H1059 H 0.08721 0.23057 0.50102 0.0
H1060 H 0.05339 0.10758 0.52672 0.0
H1061 H 0.06806 0.15025 0.5217 0.0
C1062 C 0.59657 0.24229 0.49805 0.0
C1063 C 0.5911 0.23634 0.47328 0.0
C1064 C 0.58961 0.2652 0.50786 0.0
C1065 C 0.54335 0.3135 0.49807 0.0
H1066 H 0.58669 0.35689 0.53559 0.0
C1067 C 0.54733 0.42259 0.51747 0.0
C1068 C 0.52179 0.42626 0.52046 0.0
C1069 C 0.55724 0.39874 0.51916 0.0
C1070 C 0.57436 0.34488 0.52526 0.0
H1071 H 0.57543 0.25043 0.43906 0.0
H1072 H 0.56305 0.28998 0.4562 0.0
H1073 H 0.60171 0.31626 0.52214 0.0
H1074 H 0.48703 0.40879 0.53018 0.0
H1075 H 0.50436 0.36741 0.53409 0.0
H1076 H 0.51636 0.34199 0.50008 0.0
C1077 C 0.57228 0.27681 0.46817 0.0
C1078 C 0.5829 0.32162 0.5177 0.0
C1079 C 0.57932 0.2541 0.45838 0.0
C1080 C 0.50677 0.40631 0.52761 0.0
C1081 C 0.51669 0.38263 0.52966 0.0
C1082 C 0.53483 0.33651 0.50566 0.0
C1083 C 0.57695 0.28246 0.4931 0.0
C1084 C 0.56762 0.306 0.5035 0.0
C1085 C 0.5417 0.37832 0.52396 0.0
C1086 C 0.5503 0.35271 0.51899 0.0
H1087 H 0.60556 0.22898 0.51004 0.0
H1088 H 0.59339 0.2691 0.52715 0.0
H1089 H 0.53105 0.30171 0.48744 0.0
H1090 H 0.55922 0.43775 0.51181 0.0
H1091 H 0.57659 0.3961 0.51467 0.0
loop_
_geom_bond_atom_site_label_1
_geom_bond_atom_site_label_2
_geom_bond_distance
_geom_bond_site_symmetry_2
_ccdc_geom_bond_type
C0 C1 1.384 . S
C0 H13 0.947 . S
C0 C35 1.382 . S
C1 C0 1.384 . S
C1 C2 1.378 . S
C2 C1 1.378 . S
C2 C3 1.378 . S
C2 H14 0.952 . S
C3 C2 1.378 . S
C3 H15 0.950 . S
C3 C34 1.383 . S
H4 C23 0.947 . S
H5 C24 0.946 . S
H6 C26 0.953 . S
H7 C27 0.945 . S
H8 C29 0.952 . S
H9 C30 0.949 . S
H10 C32 0.950 . S
H11 C33 0.948 . S
H12 C35 0.951 . S
H13 C0 0.947 . S
H14 C2 0.952 . S
H15 C3 0.950 . S
N16 C19 1.382 . S
N16 C21 1.363 . S
N17 C19 1.371 . S
N17 C20 1.372 . S
N18 C20 1.361 . S
N18 C21 1.377 . S
C19 N16 1.382 . S
C19 N17 1.371 . S
C19 C22 1.480 . S
C20 N17 1.372 . S
C20 N18 1.361 . S
C20 C28 1.457 . S
C21 N16 1.363 . S
C21 N18 1.377 . S
C21 C34 1.479 . S
C22 C19 1.480 . S
C22 C23 1.383 . S
C22 C27 1.385 . S
C23 H4 0.947 . S
C23 C22 1.383 . S
C23 C24 1.388 . S
C24 H5 0.946 . S
C24 C23 1.388 . S
C24 C25 1.384 . S
C25 C24 1.384 . S
C25 C26 1.377 . S
C26 H6 0.953 . S
C26 C25 1.377 . S
C26 C27 1.369 . S
C27 H7 0.945 . S
C27 C22 1.385 . S
C27 C26 1.369 . S
C28 C20 1.457 . S
C28 C29 1.372 . S
C28 C33 1.364 . S
C29 H8 0.952 . S
C29 C28 1.372 . S
C29 C30 1.389 . S
C30 H9 0.949 . S
C30 C29 1.389 . S
C30 C31 1.387 . S
C31 C30 1.387 . S
C31 C32 1.372 . S
C32 H10 0.950 . S
C32 C31 1.372 . S
C32 C33 1.379 . S
C33 H11 0.948 . S
C33 C28 1.364 . S
C33 C32 1.379 . S
C34 C3 1.383 . S
C34 C21 1.479 . S
C34 C35 1.398 . S
C35 C0 1.382 . S
C35 H12 0.951 . S
C35 C34 1.398 . S
C36 C37 1.384 . S
C36 H49 0.947 . S
C36 C71 1.382 . S
C37 C36 1.384 . S
C37 C38 1.378 . S
C38 C37 1.378 . S
C38 C39 1.378 . S
C38 H50 0.952 . S
C39 C38 1.378 . S
C39 H51 0.950 . S
C39 C70 1.383 . S
H40 C59 0.947 . S
H41 C60 0.946 . S
H42 C62 0.953 . S
H43 C63 0.945 . S
H44 C65 0.952 . S
H45 C66 0.949 . S
H46 C68 0.950 . S
H47 C69 0.948 . S
H48 C71 0.951 . S
H49 C36 0.947 . S
H50 C38 0.952 . S
H51 C39 0.950 . S
N52 C55 1.382 . S
N52 C57 1.363 . S
N53 C55 1.371 . S
N53 C56 1.372 . S
N54 C56 1.361 . S
N54 C57 1.377 . S
C55 N52 1.382 . S
C55 N53 1.371 . S
C55 C58 1.480 . S
C56 N53 1.372 . S
C56 N54 1.361 . S
C56 C64 1.457 . S
C57 N52 1.363 . S
C57 N54 1.377 . S
C57 C70 1.479 . S
C58 C55 1.480 . S
C58 C59 1.383 . S
C58 C63 1.385 . S
C59 H40 0.947 . S
C59 C58 1.383 . S
C59 C60 1.388 . S
C60 H41 0.946 . S
C60 C59 1.388 . S
C60 C61 1.384 . S
C61 C60 1.384 . S
C61 C62 1.377 . S
C62 H42 0.953 . S
C62 C61 1.377 . S
C62 C63 1.369 . S
C63 H43 0.945 . S
C63 C58 1.385 . S
C63 C62 1.369 . S
C64 C56 1.457 . S
C64 C65 1.372 . S
C64 C69 1.364 . S
C65 H44 0.952 . S
C65 C64 1.372 . S
C65 C66 1.389 . S
C66 H45 0.949 . S
C66 C65 1.389 . S
C66 C67 1.387 . S
C67 C66 1.387 . S
C67 C68 1.372 . S
C68 H46 0.950 . S
C68 C67 1.372 . S
C68 C69 1.379 . S
C69 H47 0.948 . S
C69 C64 1.364 . S
C69 C68 1.379 . S
C70 C39 1.383 . S
C70 C57 1.479 . S
C70 C71 1.398 . S
C71 C36 1.382 . S
C71 H48 0.951 . S
C71 C70 1.398 . S
C72 C73 1.384 . S
C72 H85 0.947 . S
C72 C107 1.382 . S
C73 C72 1.384 . S
C73 C74 1.378 . S
C74 C73 1.378 . S
C74 C75 1.378 . S
C74 H86 0.952 . S
C75 C74 1.378 . S
C75 H87 0.950 . S
C75 C106 1.383 . S
H76 C95 0.947 . S
H77 C96 0.946 . S
H78 C98 0.953 . S
H79 C99 0.945 . S
H80 C101 0.952 . S
H81 C102 0.949 . S
H82 C104 0.950 . S
H83 C105 0.948 . S
H84 C107 0.951 . S
H85 C72 0.947 . S
H86 C74 0.952 . S
H87 C75 0.950 . S
N88 C91 1.382 . S
N88 C93 1.363 . S
N89 C91 1.371 . S
N89 C92 1.372 . S
N90 C92 1.361 . S
N90 C93 1.377 . S
C91 N88 1.382 . S
C91 N89 1.371 . S
C91 C94 1.480 . S
C92 N89 1.372 . S
C92 N90 1.361 . S
C92 C100 1.457 . S
C93 N88 1.363 . S
C93 N90 1.377 . S
C93 C106 1.479 . S
C94 C91 1.480 . S
C94 C95 1.383 . S
C94 C99 1.385 . S
C95 H76 0.947 . S
C95 C94 1.383 . S
C95 C96 1.388 . S
C96 H77 0.946 . S
C96 C95 1.388 . S
C96 C97 1.384 . S
C97 C96 1.384 . S
C97 C98 1.377 . S
C98 H78 0.953 . S
C98 C97 1.377 . S
C98 C99 1.369 . S
C99 H79 0.945 . S
C99 C94 1.385 . S
C99 C98 1.369 . S
C100 C92 1.457 . S
C100 C101 1.372 . S
C100 C105 1.364 . S
C101 H80 0.952 . S
C101 C100 1.372 . S
C101 C102 1.389 . S
C102 H81 0.949 . S
C102 C101 1.389 . S
C102 C103 1.387 . S
C103 C102 1.387 . S
C103 C104 1.372 . S
C104 H82 0.950 . S
C104 C103 1.372 . S
C104 C105 1.379 . S
C105 H83 0.948 . S
C105 C100 1.364 . S
C105 C104 1.379 . S
C106 C75 1.383 . S
C106 C93 1.479 . S
C106 C107 1.398 . S
C107 C72 1.382 . S
C107 H84 0.951 . S
C107 C106 1.398 . S
C108 C109 1.384 . S
C108 H121 0.947 . S
C108 C143 1.382 . S
C109 C108 1.384 . S
C109 C110 1.378 . S
C110 C109 1.378 . S
C110 C111 1.378 . S
C110 H122 0.952 . S
C111 C110 1.378 . S
C111 H123 0.950 . S
C111 C142 1.383 . S
H112 C131 0.947 . S
H113 C132 0.946 . S
H114 C134 0.953 . S
H115 C135 0.945 . S
H116 C137 0.952 . S
H117 C138 0.949 . S
H118 C140 0.950 . S
H119 C141 0.948 . S
H120 C143 0.951 . S
H121 C108 0.947 . S
H122 C110 0.952 . S
H123 C111 0.950 . S
N124 C127 1.382 . S
N124 C129 1.363 . S
N125 C127 1.371 . S
N125 C128 1.372 . S
N126 C128 1.361 . S
N126 C129 1.377 . S
C127 N124 1.382 . S
C127 N125 1.371 . S
C127 C130 1.480 . S
C128 N125 1.372 . S
C128 N126 1.361 . S
C128 C136 1.457 . S
C129 N124 1.363 . S
C129 N126 1.377 . S
C129 C142 1.479 . S
C130 C127 1.480 . S
C130 C131 1.383 . S
C130 C135 1.385 . S
C131 H112 0.947 . S
C131 C130 1.383 . S
C131 C132 1.388 . S
C132 H113 0.946 . S
C132 C131 1.388 . S
C132 C133 1.384 . S
C133 C132 1.384 . S
C133 C134 1.377 . S
C134 H114 0.953 . S
C134 C133 1.377 . S
C134 C135 1.369 . S
C135 H115 0.945 . S
C135 C130 1.385 . S
C135 C134 1.369 . S
C136 C128 1.457 . S
C136 C137 1.372 . S
C136 C141 1.364 . S
C137 H116 0.952 . S
C137 C136 1.372 . S
C137 C138 1.389 . S
C138 H117 0.949 . S
C138 C137 1.389 . S
C138 C139 1.387 . S
C139 C138 1.387 . S
C139 C140 1.372 . S
C140 H118 0.950 . S
C140 C139 1.372 . S
C140 C141 1.379 . S
C141 H119 0.948 . S
C141 C136 1.364 . S
C141 C140 1.379 . S
C142 C111 1.383 . S
C142 C129 1.479 . S
C142 C143 1.398 . S
C143 C108 1.382 . S
C143 H120 0.951 . S
C143 C142 1.398 . S
C144 C145 1.384 . S
C144 H157 0.947 . S
C144 C179 1.382 . S
C145 C144 1.384 . S
C145 C146 1.378 . S
C146 C145 1.378 . S
C146 C147 1.378 . S
C146 H158 0.952 1_556 S
C147 C146 1.378 . S
C147 H159 0.950 . S
C147 C178 1.383 . S
H148 C167 0.947 . S
H149 C168 0.946 . S
H150 C170 0.953 1_455 S
H151 C171 0.945 . S
H152 C173 0.952 . S
H153 C174 0.949 . S
H154 C176 0.950 1_545 S
H155 C177 0.948 . S
H156 C179 0.951 . S
H157 C144 0.947 . S
H158 C146 0.952 1_554 S
H159 C147 0.950 . S
N160 C163 1.382 . S
N160 C165 1.363 . S
N161 C163 1.371 . S
N161 C164 1.372 . S
N162 C164 1.361 . S
N162 C165 1.377 . S
C163 N160 1.382 . S
C163 N161 1.371 . S
C163 C166 1.480 . S
C164 N161 1.372 . S
C164 N162 1.361 . S
C164 C172 1.457 . S
C165 N160 1.363 . S
C165 N162 1.377 . S
C165 C178 1.479 . S
C166 C163 1.480 . S
C166 C167 1.383 . S
C166 C171 1.385 . S
C167 H148 0.947 . S
C167 C166 1.383 . S
C167 C168 1.388 . S
C168 H149 0.946 . S
C168 C167 1.388 . S
C168 C169 1.384 . S
C169 C168 1.384 . S
C169 C170 1.377 . S
C170 H150 0.953 1_655 S
C170 C169 1.377 . S
C170 C171 1.369 . S
C171 H151 0.945 . S
C171 C166 1.385 . S
C171 C170 1.369 . S
C172 C164 1.457 . S
C172 C173 1.372 . S
C172 C177 1.364 . S
C173 H152 0.952 . S
C173 C172 1.372 . S
C173 C174 1.389 . S
C174 H153 0.949 . S
C174 C173 1.389 . S
C174 C175 1.387 . S
C175 C174 1.387 . S
C175 C176 1.372 . S
C176 H154 0.950 1_565 S
C176 C175 1.372 . S
C176 C177 1.379 . S
C177 H155 0.948 . S
C177 C172 1.364 . S
C177 C176 1.379 . S
C178 C147 1.383 . S
C178 C165 1.479 . S
C178 C179 1.398 . S
C179 C144 1.382 . S
C179 H156 0.951 . S
C179 C178 1.398 . S
C180 C181 1.384 . S
C180 H193 0.947 . S
C180 C215 1.382 . S
C181 C180 1.384 . S
C181 C182 1.378 . S
C182 C181 1.378 . S
C182 C183 1.378 . S
C182 H194 0.952 . S
C183 C182 1.378 . S
C183 H195 0.950 . S
C183 C214 1.383 . S
H184 C203 0.947 . S
H185 C204 0.946 . S
H186 C206 0.953 . S
H187 C207 0.945 . S
H188 C209 0.952 . S
H189 C210 0.949 . S
H190 C212 0.950 . S
H191 C213 0.948 . S
H192 C215 0.951 . S
H193 C180 0.947 . S
H194 C182 0.952 . S
H195 C183 0.950 . S
N196 C199 1.382 . S
N196 C201 1.363 . S
N197 C199 1.371 . S
N197 C200 1.372 . S
N198 C200 1.361 . S
N198 C201 1.377 . S
C199 N196 1.382 . S
C199 N197 1.371 . S
C199 C202 1.480 . S
C200 N197 1.372 . S
C200 N198 1.361 . S
C200 C208 1.457 . S
C201 N196 1.363 . S
C201 N198 1.377 . S
C201 C214 1.479 . S
C202 C199 1.480 . S
C202 C203 1.383 . S
C202 C207 1.385 . S
C203 H184 0.947 . S
C203 C202 1.383 . S
C203 C204 1.388 . S
C204 H185 0.946 . S
C204 C203 1.388 . S
C204 C205 1.384 . S
C205 C204 1.384 . S
C205 C206 1.377 . S
C206 H186 0.953 . S
C206 C205 1.377 . S
C206 C207 1.369 . S
C207 H187 0.945 . S
C207 C202 1.385 . S
C207 C206 1.369 . S
C208 C200 1.457 . S
C208 C209 1.372 . S
C208 C213 1.364 . S
C209 H188 0.952 . S
C209 C208 1.372 . S
C209 C210 1.389 . S
C210 H189 0.949 . S
C210 C209 1.389 . S
C210 C211 1.387 . S
C211 C210 1.387 . S
C211 C212 1.372 . S
C212 H190 0.950 . S
C212 C211 1.372 . S
C212 C213 1.379 . S
C213 H191 0.948 . S
C213 C208 1.364 . S
C213 C212 1.379 . S
C214 C183 1.383 . S
C214 C201 1.479 . S
C214 C215 1.398 . S
C215 C180 1.382 . S
C215 H192 0.951 . S
C215 C214 1.398 . S
C216 C217 1.384 . S
C216 H229 0.947 . S
C216 C251 1.382 . S
C217 C216 1.384 . S
C217 C218 1.378 . S
C218 C217 1.378 . S
C218 C219 1.378 . S
C218 H230 0.952 . S
C219 C218 1.378 . S
C219 H231 0.950 . S
C219 C250 1.383 . S
H220 C239 0.947 . S
H221 C240 0.946 . S
H222 C242 0.953 . S
H223 C243 0.945 . S
H224 C245 0.952 . S
H225 C246 0.949 . S
H226 C248 0.950 . S
H227 C249 0.948 . S
H228 C251 0.951 . S
H229 C216 0.947 . S
H230 C218 0.952 . S
H231 C219 0.950 . S
N232 C235 1.382 . S
N232 C237 1.363 . S
N233 C235 1.371 . S
N233 C236 1.372 . S
N234 C236 1.361 . S
N234 C237 1.377 . S
C235 N232 1.382 . S
C235 N233 1.371 . S
C235 C238 1.480 . S
C236 N233 1.372 . S
C236 N234 1.361 . S
C236 C244 1.457 . S
C237 N232 1.363 . S
C237 N234 1.377 . S
C237 C250 1.479 . S
C238 C235 1.480 . S
C238 C239 1.383 . S
C238 C243 1.385 . S
C239 H220 0.947 . S
C239 C238 1.383 . S
C239 C240 1.388 . S
C240 H221 0.946 . S
C240 C239 1.388 . S
C240 C241 1.384 . S
C241 C240 1.384 . S
C241 C242 1.377 . S
C242 H222 0.953 . S
C242 C241 1.377 . S
C242 C243 1.369 . S
C243 H223 0.945 . S
C243 C238 1.385 . S
C243 C242 1.369 . S
C244 C236 1.457 . S
C244 C245 1.372 . S
C244 C249 1.364 . S
C245 H224 0.952 . S
C245 C244 1.372 . S
C245 C246 1.389 . S
C246 H225 0.949 . S
C246 C245 1.389 . S
C246 C247 1.387 . S
C247 C246 1.387 . S
C247 C248 1.372 . S
C248 H226 0.950 . S
C248 C247 1.372 . S
C248 C249 1.379 . S
C249 H227 0.948 . S
C249 C244 1.364 . S
C249 C248 1.379 . S
C250 C219 1.383 . S
C250 C237 1.479 . S
C250 C251 1.398 . S
C251 C216 1.382 . S
C251 H228 0.951 . S
C251 C250 1.398 . S
C252 C253 1.384 . S
C252 H265 0.947 . S
C252 C287 1.382 . S
C253 C252 1.384 . S
C253 C254 1.378 . S
C254 C253 1.378 . S
C254 C255 1.378 . S
C254 H266 0.952 . S
C255 C254 1.378 . S
C255 H267 0.950 . S
C255 C286 1.383 . S
H256 C275 0.947 . S
H257 C276 0.946 . S
H258 C278 0.953 . S
H259 C279 0.945 . S
H260 C281 0.952 . S
H261 C282 0.949 . S
H262 C284 0.950 . S
H263 C285 0.948 . S
H264 C287 0.951 . S
H265 C252 0.947 . S
H266 C254 0.952 . S
H267 C255 0.950 . S
N268 C271 1.382 . S
N268 C273 1.363 . S
N269 C271 1.371 . S
N269 C272 1.372 . S
N270 C272 1.361 . S
N270 C273 1.377 . S
C271 N268 1.382 . S
C271 N269 1.371 . S
C271 C274 1.480 . S
C272 N269 1.372 . S
C272 N270 1.361 . S
C272 C280 1.457 . S
C273 N268 1.363 . S
C273 N270 1.377 . S
C273 C286 1.479 . S
C274 C271 1.480 . S
C274 C275 1.383 . S
C274 C279 1.385 . S
C275 H256 0.947 . S
C275 C274 1.383 . S
C275 C276 1.388 . S
C276 H257 0.946 . S
C276 C275 1.388 . S
C276 C277 1.384 . S
C277 C276 1.384 . S
C277 C278 1.377 . S
C278 H258 0.953 . S
C278 C277 1.377 . S
C278 C279 1.369 . S
C279 H259 0.945 . S
C279 C274 1.385 . S
C279 C278 1.369 . S
C280 C272 1.457 . S
C280 C281 1.372 . S
C280 C285 1.364 . S
C281 H260 0.952 . S
C281 C280 1.372 . S
C281 C282 1.389 . S
C282 H261 0.949 . S
C282 C281 1.389 . S
C282 C283 1.387 . S
C283 C282 1.387 . S
C283 C284 1.372 . S
C284 H262 0.950 . S
C284 C283 1.372 . S
C284 C285 1.379 . S
C285 H263 0.948 . S
C285 C280 1.364 . S
C285 C284 1.379 . S
C286 C255 1.383 . S
C286 C273 1.479 . S
C286 C287 1.398 . S
C287 C252 1.382 . S
C287 H264 0.951 . S
C287 C286 1.398 . S
Zn288 O294 1.920 . S
Zn288 O300 1.898 . S
Zn288 O303 1.905 . S
Zn289 O297 1.905 1_565 S
Zn289 O298 1.898 . S
Zn289 O306 1.920 . S
Zn290 O293 2.080 1_455 S
Zn290 O296 2.114 . S
Zn290 O299 2.120 1_445 S
Zn290 O301 2.120 . S
Zn290 O302 2.114 1_455 S
Zn290 O305 2.080 . S
C291 O296 1.166 . S
C291 O297 1.182 . S
C292 O298 1.167 1_655 S
C292 O299 1.299 . S
O293 Zn290 2.080 1_655 S
O293 C307 1.305 . S
O294 Zn288 1.920 . S
O294 C307 1.234 . S
C295 O300 1.167 1_455 S
C295 O301 1.299 . S
O296 Zn290 2.114 . S
O296 C291 1.166 . S
O297 Zn289 1.905 1_545 S
O297 C291 1.182 . S
O298 Zn289 1.898 . S
O298 C292 1.167 1_455 S
O299 Zn290 2.120 1_665 S
O299 C292 1.299 . S
O300 Zn288 1.898 . S
O300 C295 1.167 1_655 S
O301 Zn290 2.120 . S
O301 C295 1.299 . S
O302 Zn290 2.114 1_655 S
O302 C304 1.166 . S
O303 Zn288 1.905 . S
O303 C304 1.182 . S
C304 O302 1.166 . S
C304 O303 1.182 . S
O305 Zn290 2.080 . S
O305 C308 1.310 . S
O306 Zn289 1.920 . S
O306 C308 1.230 1_565 S
C307 O293 1.305 . S
C307 O294 1.234 . S
C308 O305 1.310 . S
C308 O306 1.230 1_545 S
Zn309 O315 1.920 1_556 S
Zn309 O321 1.898 . S
Zn309 O324 1.905 . S
Zn310 O318 1.905 . S
Zn310 O319 1.898 . S
Zn310 O327 1.920 . S
Zn311 O314 2.080 . S
Zn311 O317 2.114 1_545 S
Zn311 O320 2.120 1_545 S
Zn311 O322 2.120 . S
Zn311 O323 2.114 1_544 S
Zn311 O326 2.080 . S
C312 O317 1.166 . S
C312 O318 1.182 . S
C313 O319 1.167 . S
C313 O320 1.299 . S
O314 Zn311 2.080 . S
O314 C328 1.305 . S
O315 Zn309 1.920 1_554 S
O315 C328 1.234 . S
C316 O321 1.167 . S
C316 O322 1.299 1_556 S
O317 Zn311 2.114 1_565 S
O317 C312 1.166 . S
O318 Zn310 1.905 . S
O318 C312 1.182 . S
O319 Zn310 1.898 . S
O319 C313 1.167 . S
O320 Zn311 2.120 1_565 S
O320 C313 1.299 . S
O321 Zn309 1.898 . S
O321 C316 1.167 . S
O322 Zn311 2.120 . S
O322 C316 1.299 1_554 S
O323 Zn311 2.114 1_566 S
O323 C325 1.166 . S
O324 Zn309 1.905 . S
O324 C325 1.182 1_545 S
C325 O323 1.166 . S
C325 O324 1.182 1_565 S
O326 Zn311 2.080 . S
O326 C329 1.305 . S
O327 Zn310 1.920 . S
O327 C329 1.234 1_565 S
C328 O314 1.305 . S
C328 O315 1.234 . S
C329 O326 1.305 . S
C329 O327 1.234 1_545 S
Zn330 O336 1.920 . S
Zn330 O342 1.898 . S
Zn330 O345 1.905 . S
Zn331 O339 1.905 . S
Zn331 O340 1.898 . S
Zn331 O348 1.920 . S
Zn332 O335 2.080 . S
Zn332 O338 2.114 . S
Zn332 O341 2.120 . S
Zn332 O343 2.120 . S
Zn332 O344 2.114 . S
Zn332 O347 2.080 . S
C333 O338 1.166 . S
C333 O339 1.182 . S
C334 O340 1.167 . S
C334 O341 1.299 . S
O335 Zn332 2.080 . S
O335 C349 1.305 . S
O336 Zn330 1.920 . S
O336 C349 1.234 . S
C337 O342 1.167 . S
C337 O343 1.299 . S
O338 Zn332 2.114 . S
O338 C333 1.166 . S
O339 Zn331 1.905 . S
O339 C333 1.182 . S
O340 Zn331 1.898 . S
O340 C334 1.167 . S
O341 Zn332 2.120 . S
O341 C334 1.299 . S
O342 Zn330 1.898 . S
O342 C337 1.167 . S
O343 Zn332 2.120 . S
O343 C337 1.299 . S
O344 Zn332 2.114 . S
O344 C346 1.166 . S
O345 Zn330 1.905 . S
O345 C346 1.182 . S
C346 O344 1.166 . S
C346 O345 1.182 . S
O347 Zn332 2.080 . S
O347 C350 1.305 . S
O348 Zn331 1.920 . S
O348 C350 1.234 . S
C349 O335 1.305 . S
C349 O336 1.234 . S
C350 O347 1.305 . S
C350 O348 1.234 . S
Zn351 O357 1.920 . S
Zn351 O363 1.898 . S
Zn351 O366 1.905 . S
Zn352 O360 1.905 1_655 S
Zn352 O361 1.898 . S
Zn352 O369 1.920 . S
Zn353 O356 2.080 1_554 S
Zn353 O359 2.114 . S
Zn353 O362 2.120 1_454 S
Zn353 O364 2.120 . S
Zn353 O365 2.114 1_554 S
Zn353 O368 2.080 . S
C354 O359 1.166 . S
C354 O360 1.182 . S
C355 O361 1.167 1_556 S
C355 O362 1.299 . S
O356 Zn353 2.080 1_556 S
O356 C370 1.305 . S
O357 Zn351 1.920 . S
O357 C370 1.234 . S
C358 O363 1.167 1_554 S
C358 O364 1.299 . S
O359 Zn353 2.114 . S
O359 C354 1.166 . S
O360 Zn352 1.905 1_455 S
O360 C354 1.182 . S
O361 Zn352 1.898 . S
O361 C355 1.167 1_554 S
O362 Zn353 2.120 1_656 S
O362 C355 1.299 . S
O363 Zn351 1.898 . S
O363 C358 1.167 1_556 S
O364 Zn353 2.120 . S
O364 C358 1.299 . S
O365 Zn353 2.114 1_556 S
O365 C367 1.166 . S
O366 Zn351 1.905 . S
O366 C367 1.182 . S
C367 O365 1.166 . S
C367 O366 1.182 . S
O368 Zn353 2.080 . S
O368 C371 1.292 1_455 S
O369 Zn352 1.920 . S
O369 C371 1.243 . S
C370 O356 1.305 . S
C370 O357 1.234 . S
C371 O368 1.292 1_655 S
C371 O369 1.243 . S
C372 C373 1.349 . S
C372 C374 1.327 . S
C372 H397 0.950 . S
C373 C372 1.349 . S
C373 C389 1.349 . S
C374 C372 1.327 . S
C374 C393 1.429 . S
C374 H398 0.950 . S
C375 C392 1.574 . S
C375 C394 1.368 . S
C375 H399 0.949 . S
H376 C380 0.949 . S
C377 C378 1.349 . S
C377 C379 1.327 . S
C377 H400 0.950 . S
C378 C377 1.349 . S
C378 C390 1.349 . S
C379 C377 1.327 . S
C379 C395 1.429 . S
C379 H401 0.950 . S
C380 H376 0.949 . S
C380 C388 1.574 . S
C380 C396 1.368 . S
H381 C389 0.950 . S
H382 C387 0.950 . S
H383 C388 0.949 . S
H384 C390 0.950 . S
H385 C391 0.950 . S
H386 C392 0.949 . S
C387 H382 0.950 . S
C387 C389 1.327 . S
C387 C393 1.429 . S
C388 C380 1.574 . S
C388 H383 0.949 . S
C388 C394 1.368 . S
C389 C373 1.349 . S
C389 H381 0.950 . S
C389 C387 1.327 . S
C390 C378 1.349 . S
C390 H384 0.950 . S
C390 C391 1.327 . S
C391 H385 0.950 . S
C391 C390 1.327 . S
C391 C395 1.429 . S
C392 C375 1.574 . S
C392 H386 0.949 . S
C392 C396 1.368 . S
C393 C374 1.429 . S
C393 C387 1.429 . S
C393 C394 1.523 . S
C394 C375 1.368 . S
C394 C388 1.368 . S
C394 C393 1.523 . S
C395 C379 1.429 . S
C395 C391 1.429 . S
C395 C396 1.523 . S
C396 C380 1.368 . S
C396 C392 1.368 . S
C396 C395 1.523 . S
H397 C372 0.950 . S
H398 C374 0.950 . S
H399 C375 0.949 . S
H400 C377 0.950 . S
H401 C379 0.950 . S
C402 C403 1.349 . S
C402 C404 1.327 . S
C402 H427 0.950 . S
C403 C402 1.349 . S
C403 C419 1.349 . S
C404 C402 1.327 . S
C404 C423 1.429 . S
C404 H428 0.950 . S
C405 C422 1.574 . S
C405 C424 1.368 . S
C405 H429 0.949 . S
H406 C410 0.949 . S
C407 C408 1.349 . S
C407 C409 1.327 . S
C407 H430 0.950 . S
C408 C407 1.349 . S
C408 C420 1.349 . S
C409 C407 1.327 . S
C409 C425 1.429 . S
C409 H431 0.950 . S
C410 H406 0.949 . S
C410 C418 1.574 . S
C410 C426 1.368 . S
H411 C419 0.950 . S
H412 C417 0.950 . S
H413 C418 0.949 . S
H414 C420 0.950 1_545 S
H415 C421 0.950 . S
H416 C422 0.949 . S
C417 H412 0.950 . S
C417 C419 1.327 . S
C417 C423 1.429 . S
C418 C410 1.574 . S
C418 H413 0.949 . S
C418 C424 1.368 . S
C419 C403 1.349 . S
C419 H411 0.950 . S
C419 C417 1.327 . S
C420 C408 1.349 . S
C420 H414 0.950 1_565 S
C420 C421 1.327 . S
C421 H415 0.950 . S
C421 C420 1.327 . S
C421 C425 1.429 . S
C422 C405 1.574 . S
C422 H416 0.949 . S
C422 C426 1.368 . S
C423 C404 1.429 . S
C423 C417 1.429 . S
C423 C424 1.523 . S
C424 C405 1.368 . S
C424 C418 1.368 . S
C424 C423 1.523 . S
C425 C409 1.429 . S
C425 C421 1.429 . S
C425 C426 1.523 . S
C426 C410 1.368 . S
C426 C422 1.368 . S
C426 C425 1.523 . S
H427 C402 0.950 . S
H428 C404 0.950 . S
H429 C405 0.949 . S
H430 C407 0.950 . S
H431 C409 0.950 . S
C432 C433 1.349 . S
C432 C434 1.327 . S
C432 H457 0.950 . S
C433 C432 1.349 . S
C433 C449 1.349 . S
C434 C432 1.327 . S
C434 C453 1.429 . S
C434 H458 0.950 . S
C435 C452 1.574 . S
C435 C454 1.368 . S
C435 H459 0.949 . S
H436 C440 0.949 . S
C437 C438 1.349 . S
C437 C439 1.327 . S
C437 H460 0.950 . S
C438 C437 1.349 . S
C438 C450 1.349 . S
C439 C437 1.327 . S
C439 C455 1.429 . S
C439 H461 0.950 . S
C440 H436 0.949 . S
C440 C448 1.574 . S
C440 C456 1.368 . S
H441 C449 0.950 . S
H442 C447 0.950 . S
H443 C448 0.949 . S
H444 C450 0.950 . S
H445 C451 0.950 . S
H446 C452 0.949 . S
C447 H442 0.950 . S
C447 C449 1.327 . S
C447 C453 1.429 . S
C448 C440 1.574 . S
C448 H443 0.949 . S
C448 C454 1.368 . S
C449 C433 1.349 . S
C449 H441 0.950 . S
C449 C447 1.327 . S
C450 C438 1.349 . S
C450 H444 0.950 . S
C450 C451 1.327 . S
C451 H445 0.950 . S
C451 C450 1.327 . S
C451 C455 1.429 . S
C452 C435 1.574 . S
C452 H446 0.949 . S
C452 C456 1.368 . S
C453 C434 1.429 . S
C453 C447 1.429 . S
C453 C454 1.523 . S
C454 C435 1.368 . S
C454 C448 1.368 . S
C454 C453 1.523 . S
C455 C439 1.429 . S
C455 C451 1.429 . S
C455 C456 1.523 . S
C456 C440 1.368 . S
C456 C452 1.368 . S
C456 C455 1.523 . S
H457 C432 0.950 . S
H458 C434 0.950 . S
H459 C435 0.949 . S
H460 C437 0.950 . S
H461 C439 0.950 . S
C462 C463 1.349 . S
C462 C464 1.327 . S
C462 H487 0.950 . S
C463 C462 1.349 . S
C463 C479 1.349 . S
C464 C462 1.327 . S
C464 C483 1.429 . S
C464 H488 0.950 . S
C465 C482 1.574 . S
C465 C484 1.368 . S
C465 H489 0.949 . S
H466 C470 0.949 . S
C467 C468 1.349 . S
C467 C469 1.327 . S
C467 H490 0.950 . S
C468 C467 1.349 . S
C468 C480 1.349 . S
C469 C467 1.327 . S
C469 C485 1.429 . S
C469 H491 0.950 . S
C470 H466 0.949 . S
C470 C478 1.574 . S
C470 C486 1.368 . S
H471 C479 0.950 . S
H472 C477 0.950 . S
H473 C478 0.949 . S
H474 C480 0.950 1_455 S
H475 C481 0.950 . S
H476 C482 0.949 . S
C477 H472 0.950 . S
C477 C479 1.327 . S
C477 C483 1.429 . S
C478 C470 1.574 . S
C478 H473 0.949 . S
C478 C484 1.368 . S
C479 C463 1.349 . S
C479 H471 0.950 . S
C479 C477 1.327 . S
C480 C468 1.349 . S
C480 H474 0.950 1_655 S
C480 C481 1.327 . S
C481 H475 0.950 . S
C481 C480 1.327 . S
C481 C485 1.429 . S
C482 C465 1.574 . S
C482 H476 0.949 . S
C482 C486 1.368 . S
C483 C464 1.429 . S
C483 C477 1.429 . S
C483 C484 1.523 . S
C484 C465 1.368 . S
C484 C478 1.368 . S
C484 C483 1.523 . S
C485 C469 1.429 . S
C485 C481 1.429 . S
C485 C486 1.523 . S
C486 C470 1.368 . S
C486 C482 1.368 . S
C486 C485 1.523 . S
H487 C462 0.950 . S
H488 C464 0.950 . S
H489 C465 0.949 . S
H490 C467 0.950 . S
H491 C469 0.950 . S
C492 C493 1.349 . S
C492 C494 1.327 . S
C492 H517 0.950 . S
C493 C492 1.349 . S
C493 C509 1.349 . S
C494 C492 1.327 . S
C494 C513 1.429 . S
C494 H518 0.950 . S
C495 C512 1.574 . S
C495 C514 1.368 . S
C495 H519 0.949 . S
H496 C500 0.949 . S
C497 C498 1.349 . S
C497 C499 1.327 . S
C497 H520 0.950 . S
C498 C497 1.349 . S
C498 C510 1.349 . S
C499 C497 1.327 . S
C499 C515 1.429 . S
C499 H521 0.950 . S
C500 H496 0.949 . S
C500 C508 1.574 . S
C500 C516 1.368 . S
H501 C509 0.950 . S
H502 C507 0.950 . S
H503 C508 0.949 . S
H504 C510 0.950 . S
H505 C511 0.950 . S
H506 C512 0.949 . S
C507 H502 0.950 . S
C507 C509 1.327 . S
C507 C513 1.429 . S
C508 C500 1.574 . S
C508 H503 0.949 . S
C508 C514 1.368 . S
C509 C493 1.349 . S
C509 H501 0.950 . S
C509 C507 1.327 . S
C510 C498 1.349 . S
C510 H504 0.950 . S
C510 C511 1.327 . S
C511 H505 0.950 . S
C511 C510 1.327 . S
C511 C515 1.429 . S
C512 C495 1.574 . S
C512 H506 0.949 . S
C512 C516 1.368 . S
C513 C494 1.429 . S
C513 C507 1.429 . S
C513 C514 1.523 . S
C514 C495 1.368 . S
C514 C508 1.368 . S
C514 C513 1.523 . S
C515 C499 1.429 . S
C515 C511 1.429 . S
C515 C516 1.523 . S
C516 C500 1.368 . S
C516 C512 1.368 . S
C516 C515 1.523 . S
H517 C492 0.950 . S
H518 C494 0.950 . S
H519 C495 0.949 . S
H520 C497 0.950 . S
H521 C499 0.950 . S
C522 C523 1.349 . S
C522 C524 1.327 . S
C522 H547 0.950 . S
C523 C522 1.349 . S
C523 C539 1.349 . S
C524 C522 1.327 . S
C524 C543 1.429 . S
C524 H548 0.950 . S
C525 C542 1.574 . S
C525 C544 1.368 . S
C525 H549 0.949 . S
H526 C530 0.949 . S
C527 C528 1.349 . S
C527 C529 1.327 . S
C527 H550 0.950 1_565 S
C528 C527 1.349 . S
C528 C540 1.349 . S
C529 C527 1.327 . S
C529 C545 1.429 . S
C529 H551 0.950 . S
C530 H526 0.949 . S
C530 C538 1.574 . S
C530 C546 1.368 . S
H531 C539 0.950 . S
H532 C537 0.950 . S
H533 C538 0.949 . S
H534 C540 0.950 . S
H535 C541 0.950 . S
H536 C542 0.949 . S
C537 H532 0.950 . S
C537 C539 1.327 . S
C537 C543 1.429 . S
C538 C530 1.574 . S
C538 H533 0.949 . S
C538 C544 1.368 . S
C539 C523 1.349 . S
C539 H531 0.950 . S
C539 C537 1.327 . S
C540 C528 1.349 . S
C540 H534 0.950 . S
C540 C541 1.327 . S
C541 H535 0.950 . S
C541 C540 1.327 . S
C541 C545 1.429 . S
C542 C525 1.574 . S
C542 H536 0.949 . S
C542 C546 1.368 . S
C543 C524 1.429 . S
C543 C537 1.429 . S
C543 C544 1.523 . S
C544 C525 1.368 . S
C544 C538 1.368 . S
C544 C543 1.523 . S
C545 C529 1.429 . S
C545 C541 1.429 . S
C545 C546 1.523 . S
C546 C530 1.368 . S
C546 C542 1.368 . S
C546 C545 1.523 . S
H547 C522 0.950 . S
H548 C524 0.950 . S
H549 C525 0.949 . S
H550 C527 0.950 1_545 S
H551 C529 0.950 . S
C552 C553 1.349 . S
C552 C554 1.327 . S
C552 H577 0.950 . S
C553 C552 1.349 . S
C553 C569 1.349 . S
C554 C552 1.327 . S
C554 C573 1.429 . S
C554 H578 0.950 . S
C555 C572 1.574 . S
C555 C574 1.368 . S
C555 H579 0.949 . S
H556 C560 0.949 . S
C557 C558 1.349 . S
C557 C559 1.327 . S
C557 H580 0.950 . S
C558 C557 1.349 . S
C558 C570 1.349 . S
C559 C557 1.327 . S
C559 C575 1.429 . S
C559 H581 0.950 . S
C560 H556 0.949 . S
C560 C568 1.574 . S
C560 C576 1.368 . S
H561 C569 0.950 . S
H562 C567 0.950 . S
H563 C568 0.949 . S
H564 C570 0.950 . S
H565 C571 0.950 . S
H566 C572 0.949 . S
C567 H562 0.950 . S
C567 C569 1.327 . S
C567 C573 1.429 . S
C568 C560 1.574 . S
C568 H563 0.949 . S
C568 C574 1.368 . S
C569 C553 1.349 . S
C569 H561 0.950 . S
C569 C567 1.327 . S
C570 C558 1.349 . S
C570 H564 0.950 . S
C570 C571 1.327 . S
C571 H565 0.950 . S
C571 C570 1.327 . S
C571 C575 1.429 . S
C572 C555 1.574 . S
C572 H566 0.949 . S
C572 C576 1.368 . S
C573 C554 1.429 . S
C573 C567 1.429 . S
C573 C574 1.523 . S
C574 C555 1.368 . S
C574 C568 1.368 . S
C574 C573 1.523 . S
C575 C559 1.429 . S
C575 C571 1.429 . S
C575 C576 1.523 . S
C576 C560 1.368 . S
C576 C572 1.368 . S
C576 C575 1.523 . S
H577 C552 0.950 . S
H578 C554 0.950 . S
H579 C555 0.949 . S
H580 C557 0.950 . S
H581 C559 0.950 . S
C582 C583 1.349 . S
C582 C584 1.327 . S
C582 H607 0.950 . S
C583 C582 1.349 . S
C583 C599 1.349 . S
C584 C582 1.327 . S
C584 C603 1.429 . S
C584 H608 0.950 . S
C585 C602 1.574 . S
C585 C604 1.368 . S
C585 H609 0.949 . S
H586 C590 0.949 . S
C587 C588 1.349 . S
C587 C589 1.327 . S
C587 H610 0.950 . S
C588 C587 1.349 . S
C588 C600 1.349 . S
C589 C587 1.327 . S
C589 C605 1.429 . S
C589 H611 0.950 . S
C590 H586 0.949 . S
C590 C598 1.574 . S
C590 C606 1.368 . S
H591 C599 0.950 . S
H592 C597 0.950 . S
H593 C598 0.949 . S
H594 C600 0.950 . S
H595 C601 0.950 . S
H596 C602 0.949 . S
C597 H592 0.950 . S
C597 C599 1.327 . S
C597 C603 1.429 . S
C598 C590 1.574 . S
C598 H593 0.949 . S
C598 C604 1.368 . S
C599 C583 1.349 . S
C599 H591 0.950 . S
C599 C597 1.327 . S
C600 C588 1.349 . S
C600 H594 0.950 . S
C600 C601 1.327 . S
C601 H595 0.950 . S
C601 C600 1.327 . S
C601 C605 1.429 . S
C602 C585 1.574 . S
C602 H596 0.949 . S
C602 C606 1.368 . S
C603 C584 1.429 . S
C603 C597 1.429 . S
C603 C604 1.523 . S
C604 C585 1.368 . S
C604 C598 1.368 . S
C604 C603 1.523 . S
C605 C589 1.429 . S
C605 C601 1.429 . S
C605 C606 1.523 . S
C606 C590 1.368 . S
C606 C602 1.368 . S
C606 C605 1.523 . S
H607 C582 0.950 . S
H608 C584 0.950 . S
H609 C585 0.949 . S
H610 C587 0.950 . S
H611 C589 0.950 . S
C612 C613 1.349 . S
C612 C614 1.327 . S
C612 H637 0.950 . S
C613 C612 1.349 . S
C613 C629 1.349 . S
C614 C612 1.327 . S
C614 C633 1.429 . S
C614 H638 0.950 . S
C615 C632 1.574 . S
C615 C634 1.368 . S
C615 H639 0.949 . S
H616 C620 0.949 . S
C617 C618 1.349 . S
C617 C619 1.327 . S
C617 H640 0.950 . S
C618 C617 1.349 . S
C618 C630 1.349 . S
C619 C617 1.327 . S
C619 C635 1.429 . S
C619 H641 0.950 . S
C620 H616 0.949 . S
C620 C628 1.574 . S
C620 C636 1.368 . S
H621 C629 0.950 . S
H622 C627 0.950 . S
H623 C628 0.949 . S
H624 C630 0.950 . S
H625 C631 0.950 . S
H626 C632 0.949 . S
C627 H622 0.950 . S
C627 C629 1.327 . S
C627 C633 1.429 . S
C628 C620 1.574 . S
C628 H623 0.949 . S
C628 C634 1.368 . S
C629 C613 1.349 . S
C629 H621 0.950 . S
C629 C627 1.327 . S
C630 C618 1.349 . S
C630 H624 0.950 . S
C630 C631 1.327 . S
C631 H625 0.950 . S
C631 C630 1.327 . S
C631 C635 1.429 . S
C632 C615 1.574 . S
C632 H626 0.949 . S
C632 C636 1.368 . S
C633 C614 1.429 . S
C633 C627 1.429 . S
C633 C634 1.523 . S
C634 C615 1.368 . S
C634 C628 1.368 . S
C634 C633 1.523 . S
C635 C619 1.429 . S
C635 C631 1.429 . S
C635 C636 1.523 . S
C636 C620 1.368 . S
C636 C632 1.368 . S
C636 C635 1.523 . S
H637 C612 0.950 . S
H638 C614 0.950 . S
H639 C615 0.949 . S
H640 C617 0.950 . S
H641 C619 0.950 . S
C642 C643 1.349 . S
C642 C644 1.327 . S
C642 H667 0.950 . S
C643 C642 1.349 . S
C643 C659 1.349 . S
C644 C642 1.327 . S
C644 C663 1.429 . S
C644 H668 0.950 . S
C645 C662 1.574 . S
C645 C664 1.368 . S
C645 H669 0.949 . S
H646 C650 0.949 . S
C647 C648 1.349 . S
C647 C649 1.327 . S
C647 H670 0.950 . S
C648 C647 1.349 . S
C648 C660 1.349 1_556 S
C649 C647 1.327 . S
C649 C665 1.429 . S
C649 H671 0.950 . S
C650 H646 0.949 . S
C650 C658 1.574 . S
C650 C666 1.368 . S
H651 C659 0.950 . S
H652 C657 0.950 . S
H653 C658 0.949 . S
H654 C660 0.950 . S
H655 C661 0.928 1_554 S
H656 C662 0.949 . S
C657 H652 0.950 . S
C657 C659 1.327 . S
C657 C663 1.429 . S
C658 C650 1.574 . S
C658 H653 0.949 . S
C658 C664 1.368 . S
C659 C643 1.349 . S
C659 H651 0.950 . S
C659 C657 1.327 . S
C660 C648 1.349 1_554 S
C660 H654 0.950 . S
C660 C661 1.327 1_554 S
C661 H655 0.928 1_556 S
C661 C660 1.327 1_556 S
C661 C665 1.429 . S
C662 C645 1.574 . S
C662 H656 0.949 . S
C662 C666 1.368 . S
C663 C644 1.429 . S
C663 C657 1.429 . S
C663 C664 1.523 . S
C664 C645 1.368 . S
C664 C658 1.368 . S
C664 C663 1.523 . S
C665 C649 1.429 . S
C665 C661 1.429 . S
C665 C666 1.523 . S
C666 C650 1.368 . S
C666 C662 1.368 . S
C666 C665 1.523 . S
H667 C642 0.950 . S
H668 C644 0.950 . S
H669 C645 0.949 . S
H670 C647 0.950 . S
H671 C649 0.950 . S
C672 C673 1.349 . S
C672 C674 1.327 . S
C672 H697 0.950 . S
C673 C672 1.349 . S
C673 C689 1.349 . S
C674 C672 1.327 . S
C674 C693 1.429 . S
C674 H698 0.950 . S
C675 C692 1.574 . S
C675 C694 1.368 . S
C675 H699 0.949 . S
H676 C680 0.949 . S
C677 C678 1.349 . S
C677 C679 1.327 . S
C677 H700 0.950 . S
C678 C677 1.349 . S
C678 C690 1.349 . S
C679 C677 1.327 . S
C679 C695 1.429 . S
C679 H701 0.950 . S
C680 H676 0.949 . S
C680 C688 1.574 . S
C680 C696 1.368 . S
H681 C689 0.950 . S
H682 C687 0.950 . S
H683 C688 0.949 . S
H684 C690 0.977 . S
H685 C691 0.950 . S
H686 C692 0.949 . S
C687 H682 0.950 . S
C687 C689 1.327 . S
C687 C693 1.429 . S
C688 C680 1.574 . S
C688 H683 0.949 . S
C688 C694 1.368 . S
C689 C673 1.349 . S
C689 H681 0.950 . S
C689 C687 1.327 . S
C690 C678 1.349 . S
C690 H684 0.977 . S
C690 C691 1.327 . S
C691 H685 0.950 . S
C691 C690 1.327 . S
C691 C695 1.429 . S
C692 C675 1.574 . S
C692 H686 0.949 . S
C692 C696 1.368 . S
C693 C674 1.429 . S
C693 C687 1.429 . S
C693 C694 1.523 . S
C694 C675 1.368 . S
C694 C688 1.368 . S
C694 C693 1.523 . S
C695 C679 1.429 . S
C695 C691 1.429 . S
C695 C696 1.523 . S
C696 C680 1.368 . S
C696 C692 1.368 . S
C696 C695 1.523 . S
H697 C672 0.950 . S
H698 C674 0.950 . S
H699 C675 0.949 . S
H700 C677 0.950 . S
H701 C679 0.950 . S
C702 C703 1.349 . S
C702 C704 1.327 . S
C702 H727 0.950 . S
C703 C702 1.349 . S
C703 C719 1.349 . S
C704 C702 1.327 . S
C704 C723 1.429 . S
C704 H728 0.950 . S
C705 C722 1.574 . S
C705 C724 1.368 . S
C705 H729 0.949 . S
H706 C710 0.949 . S
C707 C708 1.349 . S
C707 C709 1.327 . S
C707 H730 0.950 . S
C708 C707 1.349 . S
C708 C720 1.349 . S
C709 C707 1.327 . S
C709 C725 1.429 . S
C709 H731 0.950 . S
C710 H706 0.949 . S
C710 C718 1.574 . S
C710 C726 1.368 . S
H711 C719 0.950 . S
H712 C717 0.950 . S
H713 C718 0.949 . S
H714 C720 0.950 . S
H715 C721 0.950 . S
H716 C722 0.949 . S
C717 H712 0.950 . S
C717 C719 1.327 . S
C717 C723 1.429 . S
C718 C710 1.574 . S
C718 H713 0.949 . S
C718 C724 1.368 . S
C719 C703 1.349 . S
C719 H711 0.950 . S
C719 C717 1.327 . S
C720 C708 1.349 . S
C720 H714 0.950 . S
C720 C721 1.327 . S
C721 H715 0.950 . S
C721 C720 1.327 . S
C721 C725 1.429 . S
C722 C705 1.574 . S
C722 H716 0.949 . S
C722 C726 1.368 . S
C723 C704 1.429 . S
C723 C717 1.429 . S
C723 C724 1.523 . S
C724 C705 1.368 . S
C724 C718 1.368 . S
C724 C723 1.523 . S
C725 C709 1.429 . S
C725 C721 1.429 . S
C725 C726 1.523 . S
C726 C710 1.368 . S
C726 C722 1.368 . S
C726 C725 1.523 . S
H727 C702 0.950 . S
H728 C704 0.950 . S
H729 C705 0.949 . S
H730 C707 0.950 . S
H731 C709 0.950 . S
C732 C733 1.349 1_545 S
C732 C734 1.327 . S
C732 H757 0.950 . S
C733 C732 1.349 1_565 S
C733 C749 1.349 . S
C734 C732 1.327 . S
C734 C753 1.429 1_545 S
C734 H758 0.950 . S
C735 C752 1.574 . S
C735 C754 1.368 . S
C735 H759 0.949 . S
H736 C740 0.949 1_455 S
C737 C738 1.349 1_565 S
C737 C739 1.327 . S
C737 H760 0.950 . S
C738 C737 1.349 1_545 S
C738 C750 1.349 1_655 S
C739 C737 1.327 . S
C739 C755 1.429 1_565 S
C739 H761 0.950 . S
C740 H736 0.949 1_655 S
C740 C748 1.574 . S
C740 C756 1.368 . S
H741 C749 0.950 . S
H742 C747 0.950 . S
H743 C748 0.958 . S
H744 C750 0.950 . S
H745 C751 0.947 1_455 S
H746 C752 0.949 . S
C747 H742 0.950 . S
C747 C749 1.327 . S
C747 C753 1.429 . S
C748 C740 1.574 . S
C748 H743 0.958 . S
C748 C754 1.368 1_545 S
C749 C733 1.349 . S
C749 H741 0.950 . S
C749 C747 1.327 . S
C750 C738 1.349 1_455 S
C750 H744 0.950 . S
C750 C751 1.327 1_455 S
C751 H745 0.947 1_655 S
C751 C750 1.327 1_655 S
C751 C755 1.432 . S
C752 C735 1.574 . S
C752 H746 0.949 . S
C752 C756 1.368 1_565 S
C753 C734 1.429 1_565 S
C753 C747 1.429 . S
C753 C754 1.523 . S
C754 C735 1.368 . S
C754 C748 1.368 1_565 S
C754 C753 1.523 . S
C755 C739 1.429 1_545 S
C755 C751 1.432 . S
C755 C756 1.523 . S
C756 C740 1.368 . S
C756 C752 1.368 1_545 S
C756 C755 1.523 . S
H757 C732 0.950 . S
H758 C734 0.950 . S
H759 C735 0.949 . S
H760 C737 0.950 . S
H761 C739 0.950 . S
C762 C763 1.349 . S
C762 C764 1.327 . S
C762 H787 0.950 . S
C763 C762 1.349 . S
C763 C779 1.349 . S
C764 C762 1.327 . S
C764 C783 1.429 . S
C764 H788 0.950 . S
C765 C782 1.574 . S
C765 C784 1.368 . S
C765 H789 0.949 . S
H766 C770 0.949 1_565 S
C767 C768 1.349 . S
C767 C769 1.327 . S
C767 H790 0.950 . S
C768 C767 1.349 . S
C768 C780 1.349 . S
C769 C767 1.327 . S
C769 C785 1.429 . S
C769 H791 0.950 . S
C770 H766 0.949 1_545 S
C770 C778 1.574 . S
C770 C786 1.368 . S
H771 C779 0.950 . S
H772 C777 0.950 . S
H773 C778 0.949 . S
H774 C780 0.950 1_565 S
H775 C781 0.950 1_565 S
H776 C782 0.949 . S
C777 H772 0.950 . S
C777 C779 1.327 . S
C777 C783 1.429 . S
C778 C770 1.574 . S
C778 H773 0.949 . S
C778 C784 1.368 . S
C779 C763 1.349 . S
C779 H771 0.950 . S
C779 C777 1.327 . S
C780 C768 1.349 . S
C780 H774 0.950 1_545 S
C780 C781 1.327 . S
C781 H775 0.950 1_545 S
C781 C780 1.327 . S
C781 C785 1.429 . S
C782 C765 1.574 . S
C782 H776 0.949 . S
C782 C786 1.368 . S
C783 C764 1.429 . S
C783 C777 1.429 . S
C783 C784 1.523 . S
C784 C765 1.368 . S
C784 C778 1.368 . S
C784 C783 1.523 . S
C785 C769 1.429 . S
C785 C781 1.429 . S
C785 C786 1.523 . S
C786 C770 1.368 . S
C786 C782 1.368 . S
C786 C785 1.523 . S
H787 C762 0.950 . S
H788 C764 0.950 . S
H789 C765 0.949 . S
H790 C767 0.950 . S
H791 C769 0.950 . S
C792 C793 1.349 . S
C792 C794 1.327 . S
C792 H817 0.950 . S
C793 C792 1.349 . S
C793 C809 1.349 . S
C794 C792 1.327 . S
C794 C813 1.429 . S
C794 H818 0.950 . S
C795 C812 1.574 . S
C795 C814 1.368 . S
C795 H819 0.949 . S
H796 C800 0.949 . S
C797 C798 1.349 . S
C797 C799 1.327 . S
C797 H820 0.950 . S
C798 C797 1.349 . S
C798 C810 1.349 . S
C799 C797 1.327 . S
C799 C815 1.429 . S
C799 H821 0.950 . S
C800 H796 0.949 . S
C800 C808 1.574 . S
C800 C816 1.368 . S
H801 C809 0.950 . S
H802 C807 0.950 . S
H803 C808 0.949 . S
H804 C810 0.950 . S
H805 C811 0.950 . S
H806 C812 0.949 . S
C807 H802 0.950 . S
C807 C809 1.327 . S
C807 C813 1.429 . S
C808 C800 1.574 . S
C808 H803 0.949 . S
C808 C814 1.368 . S
C809 C793 1.349 . S
C809 H801 0.950 . S
C809 C807 1.327 . S
C810 C798 1.349 . S
C810 H804 0.950 . S
C810 C811 1.327 . S
C811 H805 0.950 . S
C811 C810 1.327 . S
C811 C815 1.429 . S
C812 C795 1.574 . S
C812 H806 0.949 . S
C812 C816 1.368 . S
C813 C794 1.429 . S
C813 C807 1.429 . S
C813 C814 1.523 . S
C814 C795 1.368 . S
C814 C808 1.368 . S
C814 C813 1.523 . S
C815 C799 1.429 . S
C815 C811 1.429 . S
C815 C816 1.523 . S
C816 C800 1.368 . S
C816 C812 1.368 . S
C816 C815 1.523 . S
H817 C792 0.950 . S
H818 C794 0.950 . S
H819 C795 0.949 . S
H820 C797 0.950 . S
H821 C799 0.950 . S
C822 C823 1.349 . S
C822 C824 1.327 . S
C822 H847 0.950 . S
C823 C822 1.349 . S
C823 C839 1.349 . S
C824 C822 1.327 . S
C824 C843 1.429 . S
C824 H848 0.950 . S
C825 C842 1.574 . S
C825 C844 1.368 . S
C825 H849 0.949 . S
H826 C830 0.949 . S
C827 C828 1.349 . S
C827 C829 1.327 . S
C827 H850 0.950 . S
C828 C827 1.349 . S
C828 C840 1.349 . S
C829 C827 1.327 . S
C829 C845 1.429 . S
C829 H851 0.950 . S
C830 H826 0.949 . S
C830 C838 1.574 . S
C830 C846 1.368 . S
H831 C839 0.950 . S
H832 C837 0.950 . S
H833 C838 0.949 . S
H834 C840 0.950 . S
H835 C841 0.950 . S
H836 C842 0.949 . S
C837 H832 0.950 . S
C837 C839 1.327 . S
C837 C843 1.429 . S
C838 C830 1.574 . S
C838 H833 0.949 . S
C838 C844 1.368 . S
C839 C823 1.349 . S
C839 H831 0.950 . S
C839 C837 1.327 . S
C840 C828 1.349 . S
C840 H834 0.950 . S
C840 C841 1.327 . S
C841 H835 0.950 . S
C841 C840 1.327 . S
C841 C845 1.429 . S
C842 C825 1.574 . S
C842 H836 0.949 . S
C842 C846 1.368 . S
C843 C824 1.429 . S
C843 C837 1.429 . S
C843 C844 1.523 . S
C844 C825 1.368 . S
C844 C838 1.368 . S
C844 C843 1.523 . S
C845 C829 1.429 . S
C845 C841 1.429 . S
C845 C846 1.523 . S
C846 C830 1.368 . S
C846 C842 1.368 . S
C846 C845 1.523 . S
H847 C822 0.950 . S
H848 C824 0.950 . S
H849 C825 0.949 . S
H850 C827 0.950 . S
H851 C829 0.950 . S
C852 C853 1.349 . S
C852 C854 1.327 . S
C852 H877 0.950 . S
C853 C852 1.349 . S
C853 C869 1.349 1_556 S
C854 C852 1.327 . S
C854 C873 1.429 . S
C854 H878 0.950 . S
C855 C872 1.574 . S
C855 C874 1.368 1_554 S
C855 H879 0.949 . S
H856 C860 0.949 1_545 S
C857 C858 1.349 . S
C857 C859 1.327 . S
C857 H880 0.950 . S
C858 C857 1.349 . S
C858 C870 1.349 1_564 S
C859 C857 1.327 . S
C859 C875 1.429 . S
C859 H881 0.950 . S
C860 H856 0.949 1_565 S
C860 C868 1.574 . S
C860 C876 1.368 1_556 S
H861 C869 0.950 . S
H862 C867 0.950 . S
H863 C868 0.957 . S
H864 C870 0.950 . S
H865 C871 0.949 . S
H866 C872 0.949 . S
C867 H862 0.950 . S
C867 C869 1.327 . S
C867 C873 1.429 1_554 S
C868 C860 1.574 . S
C868 H863 0.957 . S
C868 C874 1.368 . S
C869 C853 1.349 1_554 S
C869 H861 0.950 . S
C869 C867 1.327 . S
C870 C858 1.349 1_546 S
C870 H864 0.950 . S
C870 C871 1.327 . S
C871 H865 0.949 . S
C871 C870 1.327 . S
C871 C875 1.429 1_546 S
C872 C855 1.574 . S
C872 H866 0.949 . S
C872 C876 1.368 . S
C873 C854 1.429 . S
C873 C867 1.429 1_556 S
C873 C874 1.523 . S
C874 C855 1.368 1_556 S
C874 C868 1.368 . S
C874 C873 1.523 . S
C875 C859 1.429 . S
C875 C871 1.429 1_564 S
C875 C876 1.523 . S
C876 C860 1.368 1_554 S
C876 C872 1.368 . S
C876 C875 1.523 . S
H877 C852 0.950 . S
H878 C854 0.950 . S
H879 C855 0.949 . S
H880 C857 0.950 . S
H881 C859 0.950 . S
C882 C883 1.349 . S
C882 C884 1.327 . S
C882 H907 0.950 . S
C883 C882 1.349 . S
C883 C899 1.349 . S
C884 C882 1.327 . S
C884 C903 1.429 . S
C884 H908 0.950 . S
C885 C902 1.574 . S
C885 C904 1.368 . S
C885 H909 0.949 . S
H886 C890 0.949 . S
C887 C888 1.349 . S
C887 C889 1.327 . S
C887 H910 0.950 . S
C888 C887 1.349 . S
C888 C900 1.349 . S
C889 C887 1.327 . S
C889 C905 1.429 . S
C889 H911 0.950 . S
C890 H886 0.949 . S
C890 C898 1.574 . S
C890 C906 1.368 . S
H891 C899 0.950 . S
H892 C897 0.950 . S
H893 C898 0.949 . S
H894 C900 0.950 . S
H895 C901 0.950 . S
H896 C902 0.949 . S
C897 H892 0.950 . S
C897 C899 1.327 . S
C897 C903 1.429 . S
C898 C890 1.574 . S
C898 H893 0.949 . S
C898 C904 1.368 . S
C899 C883 1.349 . S
C899 H891 0.950 . S
C899 C897 1.327 . S
C900 C888 1.349 . S
C900 H894 0.950 . S
C900 C901 1.327 . S
C901 H895 0.950 . S
C901 C900 1.327 . S
C901 C905 1.429 . S
C902 C885 1.574 . S
C902 H896 0.949 . S
C902 C906 1.368 . S
C903 C884 1.429 . S
C903 C897 1.429 . S
C903 C904 1.523 . S
C904 C885 1.368 . S
C904 C898 1.368 . S
C904 C903 1.523 . S
C905 C889 1.429 . S
C905 C901 1.429 . S
C905 C906 1.523 . S
C906 C890 1.368 . S
C906 C902 1.368 . S
C906 C905 1.523 . S
H907 C882 0.950 . S
H908 C884 0.950 . S
H909 C885 0.949 . S
H910 C887 0.950 . S
H911 C889 0.950 . S
C912 C913 1.349 . S
C912 C914 1.327 . S
C912 H937 0.950 . S
C913 C912 1.349 . S
C913 C929 1.349 . S
C914 C912 1.327 . S
C914 C933 1.429 . S
C914 H938 0.950 . S
C915 C932 1.574 . S
C915 C934 1.368 . S
C915 H939 0.949 . S
H916 C920 0.949 . S
C917 C918 1.349 . S
C917 C919 1.327 . S
C917 H940 0.950 1_554 S
C918 C917 1.349 . S
C918 C930 1.349 . S
C919 C917 1.327 . S
C919 C935 1.429 . S
C919 H941 0.950 1_554 S
C920 H916 0.949 . S
C920 C928 1.574 . S
C920 C936 1.368 . S
H921 C929 0.950 . S
H922 C927 0.950 . S
H923 C928 0.949 . S
H924 C930 0.950 . S
H925 C931 0.950 . S
H926 C932 0.949 . S
C927 H922 0.950 . S
C927 C929 1.327 . S
C927 C933 1.429 . S
C928 C920 1.574 . S
C928 H923 0.949 . S
C928 C934 1.368 . S
C929 C913 1.349 . S
C929 H921 0.950 . S
C929 C927 1.327 . S
C930 C918 1.349 . S
C930 H924 0.950 . S
C930 C931 1.327 . S
C931 H925 0.950 . S
C931 C930 1.327 . S
C931 C935 1.429 . S
C932 C915 1.574 . S
C932 H926 0.949 . S
C932 C936 1.368 . S
C933 C914 1.429 . S
C933 C927 1.429 . S
C933 C934 1.523 . S
C934 C915 1.368 . S
C934 C928 1.368 . S
C934 C933 1.523 . S
C935 C919 1.429 . S
C935 C931 1.429 . S
C935 C936 1.523 . S
C936 C920 1.368 . S
C936 C932 1.368 . S
C936 C935 1.523 . S
H937 C912 0.950 . S
H938 C914 0.950 . S
H939 C915 0.949 . S
H940 C917 0.950 1_556 S
H941 C919 0.950 1_556 S
C942 C943 1.349 . S
C942 C944 1.327 . S
C942 H967 0.950 . S
C943 C942 1.349 . S
C943 C959 1.349 . S
C944 C942 1.327 . S
C944 C963 1.429 . S
C944 H968 0.950 . S
C945 C962 1.574 . S
C945 C964 1.368 . S
C945 H969 0.949 . S
H946 C950 0.949 . S
C947 C948 1.349 . S
C947 C949 1.327 . S
C947 H970 0.950 . S
C948 C947 1.349 . S
C948 C960 1.349 . S
C949 C947 1.327 . S
C949 C965 1.429 . S
C949 H971 0.950 . S
C950 H946 0.949 . S
C950 C958 1.574 . S
C950 C966 1.368 . S
H951 C959 0.950 . S
H952 C957 0.950 . S
H953 C958 0.949 . S
H954 C960 0.950 . S
H955 C961 0.950 . S
H956 C962 0.949 . S
C957 H952 0.950 . S
C957 C959 1.327 . S
C957 C963 1.429 . S
C958 C950 1.574 . S
C958 H953 0.949 . S
C958 C964 1.368 . S
C959 C943 1.349 . S
C959 H951 0.950 . S
C959 C957 1.327 . S
C960 C948 1.349 . S
C960 H954 0.950 . S
C960 C961 1.327 . S
C961 H955 0.950 . S
C961 C960 1.327 . S
C961 C965 1.429 . S
C962 C945 1.574 . S
C962 H956 0.949 . S
C962 C966 1.368 . S
C963 C944 1.429 . S
C963 C957 1.429 . S
C963 C964 1.523 . S
C964 C945 1.368 . S
C964 C958 1.368 . S
C964 C963 1.523 . S
C965 C949 1.429 . S
C965 C961 1.429 . S
C965 C966 1.523 . S
C966 C950 1.368 . S
C966 C962 1.368 . S
C966 C965 1.523 . S
H967 C942 0.950 . S
H968 C944 0.950 . S
H969 C945 0.949 . S
H970 C947 0.950 . S
H971 C949 0.950 . S
C972 C973 1.349 . S
C972 C974 1.327 . S
C972 H997 0.950 . S
C973 C972 1.349 . S
C973 C989 1.349 1_655 S
C974 C972 1.327 . S
C974 C993 1.429 . S
C974 H998 0.933 1_556 S
C975 C992 1.574 . S
C975 C994 1.368 1_455 S
C975 H999 0.949 . S
H976 C980 0.949 1_554 S
C977 C978 1.349 . S
C977 C979 1.327 . S
C977 H1000 0.950 . S
C978 C977 1.349 . S
C978 C990 1.349 1_456 S
C979 C977 1.327 . S
C979 C995 1.429 . S
C979 H1001 0.950 . S
C980 H976 0.949 1_556 S
C980 C988 1.574 . S
C980 C996 1.368 1_655 S
H981 C989 0.950 . S
H982 C987 0.950 . S
H983 C988 0.949 1_554 S
H984 C990 0.950 . S
H985 C991 0.950 . S
H986 C992 0.949 . S
C987 H982 0.950 . S
C987 C989 1.327 . S
C987 C993 1.429 1_455 S
C988 C980 1.574 . S
C988 H983 0.949 1_556 S
C988 C994 1.368 . S
C989 C973 1.349 1_455 S
C989 H981 0.950 . S
C989 C987 1.327 . S
C990 C978 1.349 1_654 S
C990 H984 0.950 . S
C990 C991 1.327 . S
C991 H985 0.950 . S
C991 C990 1.327 . S
C991 C995 1.429 1_654 S
C992 C975 1.574 . S
C992 H986 0.949 . S
C992 C996 1.368 . S
C993 C974 1.429 . S
C993 C987 1.429 1_655 S
C993 C994 1.523 . S
C994 C975 1.368 1_655 S
C994 C988 1.368 . S
C994 C993 1.523 . S
C995 C979 1.429 . S
C995 C991 1.429 1_456 S
C995 C996 1.523 . S
C996 C980 1.368 1_455 S
C996 C992 1.368 . S
C996 C995 1.523 . S
H997 C972 0.950 . S
H998 C974 0.933 1_554 S
H999 C975 0.949 . S
H1000 C977 0.950 . S
H1001 C979 0.950 . S
C1002 C1003 1.349 . S
C1002 C1004 1.327 . S
C1002 H1027 0.950 . S
C1003 C1002 1.349 . S
C1003 C1019 1.349 . S
C1004 C1002 1.327 . S
C1004 C1023 1.429 . S
C1004 H1028 0.950 . S
C1005 C1022 1.574 . S
C1005 C1024 1.368 . S
C1005 H1029 0.949 . S
H1006 C1010 0.949 . S
C1007 C1008 1.349 . S
C1007 C1009 1.327 . S
C1007 H1030 0.950 . S
C1008 C1007 1.349 . S
C1008 C1020 1.349 . S
C1009 C1007 1.327 . S
C1009 C1025 1.429 . S
C1009 H1031 0.950 . S
C1010 H1006 0.949 . S
C1010 C1018 1.574 . S
C1010 C1026 1.368 . S
H1011 C1019 0.950 . S
H1012 C1017 0.950 . S
H1013 C1018 0.949 . S
H1014 C1020 0.950 . S
H1015 C1021 0.950 . S
H1016 C1022 0.949 . S
C1017 H1012 0.950 . S
C1017 C1019 1.327 . S
C1017 C1023 1.429 . S
C1018 C1010 1.574 . S
C1018 H1013 0.949 . S
C1018 C1024 1.368 . S
C1019 C1003 1.349 . S
C1019 H1011 0.950 . S
C1019 C1017 1.327 . S
C1020 C1008 1.349 . S
C1020 H1014 0.950 . S
C1020 C1021 1.327 . S
C1021 H1015 0.950 . S
C1021 C1020 1.327 . S
C1021 C1025 1.429 . S
C1022 C1005 1.574 . S
C1022 H1016 0.949 . S
C1022 C1026 1.368 . S
C1023 C1004 1.429 . S
C1023 C1017 1.429 . S
C1023 C1024 1.523 . S
C1024 C1005 1.368 . S
C1024 C1018 1.368 . S
C1024 C1023 1.523 . S
C1025 C1009 1.429 . S
C1025 C1021 1.429 . S
C1025 C1026 1.523 . S
C1026 C1010 1.368 . S
C1026 C1022 1.368 . S
C1026 C1025 1.523 . S
H1027 C1002 0.950 . S
H1028 C1004 0.950 . S
H1029 C1005 0.949 . S
H1030 C1007 0.950 . S
H1031 C1009 0.950 . S
C1032 C1033 1.349 . S
C1032 C1034 1.327 . S
C1032 H1057 0.950 . S
C1033 C1032 1.349 . S
C1033 C1049 1.349 . S
C1034 C1032 1.327 . S
C1034 C1053 1.429 . S
C1034 H1058 0.950 . S
C1035 C1052 1.574 . S
C1035 C1054 1.368 . S
C1035 H1059 0.949 . S
H1036 C1040 0.949 1_655 S
C1037 C1038 1.349 . S
C1037 C1039 1.327 . S
C1037 H1060 0.950 . S
C1038 C1037 1.349 . S
C1038 C1050 1.349 . S
C1039 C1037 1.327 . S
C1039 C1055 1.429 . S
C1039 H1061 0.950 . S
C1040 H1036 0.949 1_455 S
C1040 C1048 1.574 . S
C1040 C1056 1.368 . S
H1041 C1049 0.950 . S
H1042 C1047 0.950 . S
H1043 C1048 0.949 . S
H1044 C1050 0.950 1_655 S
H1045 C1051 0.950 1_655 S
H1046 C1052 0.949 . S
C1047 H1042 0.950 . S
C1047 C1049 1.327 . S
C1047 C1053 1.429 . S
C1048 C1040 1.574 . S
C1048 H1043 0.949 . S
C1048 C1054 1.368 . S
C1049 C1033 1.349 . S
C1049 H1041 0.950 . S
C1049 C1047 1.327 . S
C1050 C1038 1.349 . S
C1050 H1044 0.950 1_455 S
C1050 C1051 1.327 . S
C1051 H1045 0.950 1_455 S
C1051 C1050 1.327 . S
C1051 C1055 1.429 . S
C1052 C1035 1.574 . S
C1052 H1046 0.949 . S
C1052 C1056 1.368 . S
C1053 C1034 1.429 . S
C1053 C1047 1.429 . S
C1053 C1054 1.523 . S
C1054 C1035 1.368 . S
C1054 C1048 1.368 . S
C1054 C1053 1.523 . S
C1055 C1039 1.429 . S
C1055 C1051 1.429 . S
C1055 C1056 1.523 . S
C1056 C1040 1.368 . S
C1056 C1052 1.368 . S
C1056 C1055 1.523 . S
H1057 C1032 0.950 . S
H1058 C1034 0.950 . S
H1059 C1035 0.949 . S
H1060 C1037 0.950 . S
H1061 C1039 0.950 . S
C1062 C1063 1.349 . S
C1062 C1064 1.327 . S
C1062 H1087 0.950 . S
C1063 C1062 1.349 . S
C1063 C1079 1.349 . S
C1064 C1062 1.327 . S
C1064 C1083 1.429 . S
C1064 H1088 0.950 . S
C1065 C1082 1.574 . S
C1065 C1084 1.368 . S
C1065 H1089 0.949 . S
H1066 C1070 0.949 . S
C1067 C1068 1.349 . S
C1067 C1069 1.327 . S
C1067 H1090 0.950 . S
C1068 C1067 1.349 . S
C1068 C1080 1.349 . S
C1069 C1067 1.327 . S
C1069 C1085 1.429 . S
C1069 H1091 0.950 . S
C1070 H1066 0.949 . S
C1070 C1078 1.574 . S
C1070 C1086 1.368 . S
H1071 C1079 0.950 . S
H1072 C1077 0.950 . S
H1073 C1078 0.949 . S
H1074 C1080 0.950 . S
H1075 C1081 0.950 . S
H1076 C1082 0.949 . S
C1077 H1072 0.950 . S
C1077 C1079 1.327 . S
C1077 C1083 1.429 . S
C1078 C1070 1.574 . S
C1078 H1073 0.949 . S
C1078 C1084 1.368 . S
C1079 C1063 1.349 . S
C1079 H1071 0.950 . S
C1079 C1077 1.327 . S
C1080 C1068 1.349 . S
C1080 H1074 0.950 . S
C1080 C1081 1.327 . S
C1081 H1075 0.950 . S
C1081 C1080 1.327 . S
C1081 C1085 1.429 . S
C1082 C1065 1.574 . S
C1082 H1076 0.949 . S
C1082 C1086 1.368 . S
C1083 C1064 1.429 . S
C1083 C1077 1.429 . S
C1083 C1084 1.523 . S
C1084 C1065 1.368 . S
C1084 C1078 1.368 . S
C1084 C1083 1.523 . S
C1085 C1069 1.429 . S
C1085 C1081 1.429 . S
C1085 C1086 1.523 . S
C1086 C1070 1.368 . S
C1086 C1082 1.368 . S
C1086 C1085 1.523 . S
H1087 C1062 0.950 . S
H1088 C1064 0.950 . S
H1089 C1065 0.949 . S
H1090 C1067 0.950 . S
H1091 C1069 0.950 . S
C373 C1 1.536 . S
C378 C291 1.431 . S
C403 C67 1.518 . S
C408 C325 1.414 . S
C438 C337 1.382 . S
C433 C97 1.487 . S
C463 C133 1.516 . S
C468 C371 1.418 . S
C498 C328 1.425 . S
C493 C25 1.531 . S
C528 C308 1.400 1_565 S
C523 C37 1.508 . S
C558 C355 1.389 . S
C553 C103 1.495 . S
C588 C346 1.407 . S
C583 C109 1.509 . S
C613 C31 1.537 . S
C618 C354 1.432 . S
C648 C316 1.387 . S
C643 C73 1.494 . S
C673 C139 1.520 . S
C678 C292 1.407 . S
C703 C61 1.511 . S
C708 C349 1.406 . S
C738 C307 1.614 . S
C733 C175 1.731 . S
C763 C181 1.665 . S
C768 C329 1.593 . S
C793 C247 1.748 . S
C798 C334 1.626 . S
C823 C277 1.745 . S
C828 C367 1.632 . S
C853 C145 1.724 . S
C858 C312 1.617 . S
C888 C304 1.632 . S
C883 C211 1.695 . S
C918 C358 1.612 . S
C913 C217 1.728 . S
C948 C350 1.615 . S
C943 C283 1.732 . S
C973 C169 1.704 . S
C978 C370 1.589 . S
C1008 C313 1.616 . S
C1003 C241 1.739 . S
C1038 C295 1.598 . S
C1033 C253 1.715 . S
C1063 C205 1.674 . S
C1068 C333 1.617 . S
