# Generated by pormake.
# Topology pth, (4,4)-cn, num edge types: 1
# Building blocks:
#     Node 0, Type 0, BuildingBlock: KUFVIS_clean_sbu_0, # of connection points: 4
#     Node 1, Type 0, BuildingBlock: KUFVIS_clean_sbu_0, # of connection points: 4
#     Node 2, Type 0, BuildingBlock: KUFVIS_clean_sbu_0, # of connection points: 4
#     Node 3, Type 1, BuildingBlock: NAWXER_clean_linker_0, # of connection points: 4
#     Node 4, Type 1, BuildingBlock: NAWXER_clean_linker_0, # of connection points: 4
#     Node 5, Type 1, BuildingBlock: NAWXER_clean_linker_0, # of connection points: 4
#     Edge 6, Type (0, 1), BuildingBlock: AJUNOK_clean_linker_0, # of connection points: 2
#     Edge 7, Type (0, 1), BuildingBlock: AJUNOK_clean_linker_0, # of connection points: 2
#     Edge 8, Type (0, 1), BuildingBlock: AJUNOK_clean_linker_0, # of connection points: 2
#     Edge 9, Type (0, 1), BuildingBlock: AJUNOK_clean_linker_0, # of connection points: 2
#     Edge 10, Type (0, 1), BuildingBlock: AJUNOK_clean_linker_0, # of connection points: 2
#     Edge 11, Type (0, 1), BuildingBlock: AJUNOK_clean_linker_0, # of connection points: 2
#     Edge 12, Type (0, 1), BuildingBlock: AJUNOK_clean_linker_0, # of connection points: 2
#     Edge 13, Type (0, 1), BuildingBlock: AJUNOK_clean_linker_0, # of connection points: 2
#     Edge 14, Type (0, 1), BuildingBlock: AJUNOK_clean_linker_0, # of connection points: 2
#     Edge 15, Type (0, 1), BuildingBlock: AJUNOK_clean_linker_0, # of connection points: 2
#     Edge 16, Type (0, 1), BuildingBlock: AJUNOK_clean_linker_0, # of connection points: 2
#     Edge 17, Type (0, 1), BuildingBlock: AJUNOK_clean_linker_0, # of connection points: 2
# Relax obj value: 0.011
# Max RMSD: 0.077
# Mean RMSD: 0.050
data_MOF--net-pth--node1-KUFVIS_clean_sbu_0--node2-NAWXER_clean_linker_0--edge1-AJUNOK_clean_linker_0
_symmetry_space_group_name_H-M    P1
_symmetry_Int_Tables_number       1
_symmetry_cell_setting            triclinic
loop_
_symmetry_equiv_pos_as_xyz
'x, y, z'
_cell_length_a     22.185399
_cell_length_b     22.22566
_cell_length_c     51.241801
_cell_angle_alpha  90.34492
_cell_angle_beta   91.872158
_cell_angle_gamma 120.04716
loop_
_atom_site_label
_atom_site_type_symbol
_atom_site_fract_x
_atom_site_fract_y
_atom_site_fract_z
_atom_type_partial_charge
Mn0 Mn 0.04003 0.07809 0.05195 0.0
Mn1 Mn 0.9566 0.14294 0.0158 0.0
C2 C 0.96953 0.01586 0.01618 0.0
C3 C 0.04173 0.01254 0.08717 0.0
C4 C 0.10864 0.18767 0.01006 0.0
O5 O 0.04749 0.15506 0.07591 0.0
O6 O 0.99234 0.1948 0.04979 0.0
C7 C 0.83806 0.09883 0.05044 0.0
N8 N 0.86229 0.09808 0.02643 0.0
C9 C 0.74597 0.02218 0.00875 0.0
C10 C 0.71979 0.02252 0.03326 0.0
C11 C 0.76607 0.06094 0.05419 0.0
C12 C 0.81822 0.06087 0.0062 0.0
H13 H 0.87337 0.12787 0.06666 0.0
C14 C 0.02525 0.19696 0.07111 0.0
O15 O 0.0991 0.05838 0.07683 0.0
O16 O 0.98435 0.00679 0.07753 0.0
N17 N 0.91797 0.09808 0.9825 0.0
C18 C 0.95122 0.10587 0.95983 0.0
C19 C 0.91242 0.07133 0.93691 0.0
C20 C 0.83957 0.03045 0.93738 0.0
C21 C 0.80614 0.02556 0.96068 0.0
C22 C 0.84764 0.06158 0.98286 0.0
H23 H 1.00682 0.13867 0.95921 0.0
O24 O 0.01695 1.00298 0.02532 0.0
O25 O 0.96381 0.06392 0.02851 0.0
O26 O 0.11302 0.15078 0.02825 0.0
O27 O 0.0529 0.18849 1.00348 0.0
C28 C 0.73329 0.98651 0.96276 0.0
C29 C 0.70325 0.98456 0.98682 0.0
H30 H 0.66431 0.99328 0.03624 0.0
H31 H 0.74629 0.06122 0.0732 0.0
H32 H 0.93859 0.07642 0.91891 0.0
H33 H 0.80981 1.00382 0.91967 0.0
H34 H 0.69989 0.95766 0.94601 0.0
H35 H 0.64719 0.95407 0.98822 0.0
Mn36 Mn 0.02515 0.07303 0.3847 0.0
Mn37 Mn 0.12346 0.2228 0.41884 0.0
C38 C 0.095 0.07636 0.41983 0.0
C39 C 0.01375 1.00117 0.34926 0.0
C40 C 0.96689 0.13139 0.42418 0.0
O41 O 0.02379 0.14621 0.36114 0.0
O42 O 0.10323 0.24414 0.38291 0.0
C43 C 0.25154 0.27438 0.38901 0.0
N44 N 0.21961 0.25792 0.41223 0.0
C45 C 0.32742 0.28776 0.43545 0.0
C46 C 0.36203 0.30836 0.41193 0.0
C47 C 0.32374 0.30084 0.38856 0.0
C48 C 0.25547 0.26239 0.43468 0.0
H49 H 0.22181 0.26583 0.37098 0.0
C50 C 0.06227 0.21228 0.36307 0.0
O51 O 0.95933 0.99575 0.36027 0.0
O52 O 0.07407 0.04977 0.35832 0.0
N53 N 0.14771 0.21031 0.45383 0.0
C54 C 0.10603 0.18509 0.47463 0.0
C55 C 0.13565 0.18525 0.4993 0.0
C56 C 0.20783 0.21193 0.5024 0.0
C57 C 0.24982 0.23848 0.4808 0.0
C58 C 0.21744 0.23745 0.45674 0.0
H59 H 0.05058 0.16487 0.47246 0.0
O60 O 0.0439 0.01736 0.411 0.0
O61 O 0.10425 0.13087 0.40742 0.0
O62 O 0.95886 0.08152 0.40924 0.0
O63 O 0.025 0.18826 0.42763 0.0
C64 C 0.32245 0.26544 0.48216 0.0
C65 C 0.36116 0.28973 0.45947 0.0
H66 H 0.41761 0.32811 0.41149 0.0
H67 H 0.34965 0.31452 0.37021 0.0
H68 H 0.1029 0.16479 0.51588 0.0
H69 H 0.2304 0.21153 0.52141 0.0
H70 H 0.34899 0.26714 0.5005 0.0
H71 H 0.41677 0.30916 0.46067 0.0
Mn72 Mn 0.05103 0.07916 0.7185 0.0
Mn73 Mn 0.99908 0.1754 0.7519 0.0
C74 C 0.11872 0.15035 0.75319 0.0
C75 C 0.11174 0.0662 0.68479 0.0
C76 C 0.94157 0.02235 0.76078 0.0
O77 O 0.97695 0.07739 0.69353 0.0
O78 O 0.94346 0.13828 0.71848 0.0
C79 C 0.04724 0.28996 0.71447 0.0
N80 N 0.04815 0.26784 0.73914 0.0
C81 C 0.12664 0.38482 0.75486 0.0
C82 C 0.12621 0.40887 0.72966 0.0
C83 C 0.08655 0.36118 0.70936 0.0
C84 C 0.08684 0.3132 0.75873 0.0
H85 H 0.01679 0.25357 0.69879 0.0
C86 C 0.93801 0.10315 0.69773 0.0
O87 O 0.06201 0.01226 0.69564 0.0
O88 O 0.12431 0.12691 0.69278 0.0
N89 N 0.04825 0.21582 0.78451 0.0
C90 C 0.04302 0.18434 0.80773 0.0
C91 C 0.07968 0.22482 0.83005 0.0
C92 C 0.12073 0.29734 0.82834 0.0
C93 C 0.12426 0.32875 0.80436 0.0
C94 C 0.08637 0.28574 0.78281 0.0
H95 H 0.01194 0.12871 0.80913 0.0
O96 O 0.12519 0.09807 0.7458 0.0
O97 O 0.07308 0.15966 0.74004 0.0
O98 O 0.97488 0.01289 0.7428 0.0
O99 O 0.9482 0.08153 0.76648 0.0
C100 C 0.16376 0.40107 0.80102 0.0
C101 C 0.16538 0.42906 0.77625 0.0
H102 H 0.15639 0.46377 0.72566 0.0
H103 H 0.08617 0.37929 0.68983 0.0
H104 H 0.07657 0.20015 0.84849 0.0
H105 H 0.14931 0.32838 0.84555 0.0
H106 H 0.19336 0.43563 0.81735 0.0
H107 H 0.19657 0.48469 0.77386 0.0
C108 C 1.00007 0.36432 0.26059 0.0
C109 C 0.04281 0.38921 0.28354 0.0
C110 C 0.994 0.41049 0.2436 0.0
C111 C 0.03211 0.48268 0.24887 0.0
C112 C 0.07804 0.46102 0.28928 0.0
C113 C 0.0735 0.50699 0.27207 0.0
C114 C 0.02626 0.53407 0.23204 0.0
C115 C 0.08061 0.41473 0.17268 0.0
C116 C 0.03086 0.38476 0.15187 0.0
C117 C 0.07719 0.46088 0.19057 0.0
C118 C 0.02327 0.47659 0.18808 0.0
C119 C 0.97593 0.39894 0.15002 0.0
C120 C 0.97248 0.4447 0.16781 0.0
C121 C 0.02272 0.53149 0.20436 0.0
C122 C 0.08131 0.81898 0.17847 0.0
C123 C 0.03319 0.80433 0.15752 0.0
C124 C 0.07764 0.76519 0.19363 0.0
C125 C 0.02572 0.69584 0.18809 0.0
C126 C 0.98244 0.7348 0.15161 0.0
C127 C 0.97901 0.68103 0.16667 0.0
C128 C 0.02141 0.63846 0.20398 0.0
C129 C 0.96453 0.76403 0.256 0.0
C130 C 0.0104 0.79547 0.27778 0.0
C131 C 0.96791 0.71324 0.2409 0.0
C132 C 0.0179 0.69373 0.24711 0.0
C133 C 0.05965 0.77516 0.28414 0.0
C134 C 0.06307 0.72452 0.26905 0.0
C135 C 0.02195 0.63963 0.23149 0.0
H136 H 0.97126 0.30918 0.25577 0.0
H137 H 0.95864 0.38936 0.22667 0.0
H138 H 0.10869 0.48201 0.30734 0.0
H139 H 0.10227 0.56204 0.27712 0.0
H140 H 0.12348 0.40459 0.17448 0.0
H141 H 0.11776 0.48594 0.20576 0.0
H142 H 0.93622 0.37555 0.13444 0.0
H143 H 0.93061 0.45624 0.16545 0.0
H144 H 0.12125 0.87207 0.18328 0.0
H145 H 0.11554 0.77775 0.20961 0.0
H146 H 0.94571 0.72199 0.13519 0.0
H147 H 0.93929 0.62788 0.16179 0.0
H148 H 0.92645 0.77908 0.25053 0.0
H149 H 0.93119 0.68896 0.22448 0.0
H150 H 0.09519 0.79808 0.30097 0.0
H151 H 0.10152 0.70983 0.27439 0.0
N152 N 0.02532 0.58806 0.24435 0.0
N153 N 0.02056 0.58389 0.19153 0.0
C154 C 0.75851 0.14501 0.51096 0.0
C155 C 0.74163 0.10098 0.48881 0.0
C156 C 0.70634 0.13978 0.52701 0.0
C157 C 0.63614 0.08937 0.52157 0.0
C158 C 0.67121 0.05205 0.48296 0.0
C159 C 0.61917 0.04625 0.49919 0.0
C160 C 0.57949 0.08443 0.53777 0.0
C161 C 0.71322 0.04423 0.59674 0.0
C162 C 0.74075 0.09287 0.61769 0.0
C163 C 0.66385 0.04415 0.57893 0.0
C164 C 0.64198 0.09322 0.5817 0.0
C165 C 0.72075 0.14346 0.61973 0.0
C166 C 0.67142 0.14319 0.60208 0.0
C167 C 0.58368 0.08906 0.56538 0.0
C168 C 0.29682 0.01506 0.59596 0.0
C169 C 0.31306 0.06767 0.61489 0.0
C170 C 0.34796 0.01943 0.57947 0.0
C171 C 0.4161 0.07654 0.58164 0.0
C172 C 0.38092 0.12559 0.61642 0.0
C173 C 0.43209 0.12941 0.60025 0.0
C174 C 0.47196 0.08056 0.56546 0.0
C175 C 0.32727 0.11352 0.51198 0.0
C176 C 0.303 0.07102 0.48935 0.0
C177 C 0.38075 0.11559 0.52784 0.0
C178 C 0.40886 0.07288 0.52193 0.0
C179 C 0.33143 0.02902 0.48318 0.0
C180 C 0.38376 0.02982 0.49936 0.0
C181 C 0.46755 0.07613 0.53789 0.0
H182 H 0.81219 0.1836 0.51592 0.0
H183 H 0.72102 0.17602 0.5434 0.0
H184 H 0.65609 0.01884 0.46561 0.0
H185 H 0.56539 0.008 0.49416 0.0
H186 H 0.72781 1.00469 0.59475 0.0
H187 H 0.64095 1.0043 0.56362 0.0
H188 H 0.74235 0.18258 0.63532 0.0
H189 H 0.65537 0.18151 0.6046 0.0
H190 H 0.24506 0.96983 0.59431 0.0
H191 H 0.33472 0.97766 0.56539 0.0
H192 H 0.39461 0.16814 0.63016 0.0
H193 H 0.48421 0.17408 0.60213 0.0
H194 H 0.30635 0.1467 0.51694 0.0
H195 H 0.40107 0.15193 0.54431 0.0
H196 H 0.31329 0.99582 0.46577 0.0
H197 H 0.40497 0.99702 0.49414 0.0
N198 N 0.52134 0.07781 0.52521 0.0
N199 N 0.52995 0.08732 0.57802 0.0
C200 C 0.37265 0.35087 0.83974 0.0
C201 C 0.33165 0.36522 0.82212 0.0
C202 C 0.42292 0.40324 0.85645 0.0
C203 C 0.43338 0.47085 0.85563 0.0
C204 C 0.34119 0.43276 0.82209 0.0
C205 C 0.39235 0.48526 0.83833 0.0
C206 C 0.4894 0.52792 0.87162 0.0
C207 C 0.31682 0.39904 0.92492 0.0
C208 C 0.33627 0.37521 0.94716 0.0
C209 C 0.36747 0.44882 0.90932 0.0
C210 C 0.4387 0.47431 0.91519 0.0
C211 C 0.40726 0.40209 0.9536 0.0
C212 C 0.45804 0.45105 0.9377 0.0
C213 C 0.49334 0.52861 0.89919 0.0
C214 C 0.72523 0.82013 0.92573 0.0
C215 C 0.75771 0.80576 0.94673 0.0
C216 C 0.67333 0.76574 0.9102 0.0
C217 C 0.6546 0.69642 0.91513 0.0
C218 C 0.73783 0.73671 0.95215 0.0
C219 C 0.68662 0.68242 0.93647 0.0
C220 C 0.59959 0.63788 0.89907 0.0
C221 C 0.76978 0.77053 0.84483 0.0
C222 C 0.74764 0.79289 0.82289 0.0
C223 C 0.72092 0.71895 0.86051 0.0
C224 C 0.64908 0.69096 0.85504 0.0
C225 C 0.67619 0.76317 0.81678 0.0
C226 C 0.62736 0.71277 0.83274 0.0
C227 C 0.59579 0.63661 0.87141 0.0
H228 H 0.36699 0.29959 0.84022 0.0
H229 H 0.45473 0.39144 0.86954 0.0
H230 H 0.30934 0.44544 0.80948 0.0
H231 H 0.39959 0.53718 0.83754 0.0
H232 H 0.26231 0.38024 0.91996 0.0
H233 H 0.35063 0.46836 0.89305 0.0
H234 H 0.42336 0.38479 0.97081 0.0
H235 H 0.51253 0.47073 0.94298 0.0
H236 H 0.73948 0.8732 0.92154 0.0
H237 H 0.64771 0.77784 0.89445 0.0
H238 H 0.76222 0.7249 0.96844 0.0
H239 H 0.67236 0.6294 0.94088 0.0
H240 H 0.82485 0.79266 0.84971 0.0
H241 H 0.73942 0.7011 0.87685 0.0
H242 H 0.65821 0.78 0.79995 0.0
H243 H 0.57241 0.6914 0.82782 0.0
N244 N 0.54042 0.58183 0.85889 0.0
N245 N 0.54858 0.58353 0.91179 0.0
C246 C 0.04015 0.23662 0.11819 0.0
C247 C 0.03458 0.24906 0.09151 0.0
C248 C 0.04134 0.2819 0.13776 0.0
C249 C 0.03702 0.34108 0.13129 0.0
H250 H 0.04098 0.19027 0.12404 0.0
H251 H 0.04309 0.2692 0.15804 0.0
S252 S 0.03279 0.403 0.06458 0.0
N253 N 0.03241 0.32928 0.05986 0.0
N254 N 0.03489 0.41391 0.09655 0.0
C255 C 0.03529 0.35605 0.10478 0.0
C256 C 0.034 0.31019 0.08492 0.0
C257 C 0.90436 0.18035 0.44869 0.0
C258 C 0.90701 0.12197 0.43944 0.0
C259 C 0.85051 0.17305 0.46437 0.0
C260 C 0.79736 0.10711 0.47166 0.0
H261 H 0.94423 0.23227 0.44377 0.0
H262 H 0.85044 0.21956 0.47076 0.0
S263 S 0.78258 0.93779 0.45412 0.0
N264 N 0.85259 0.99586 0.43945 0.0
N265 N 0.75254 0.98242 0.46935 0.0
C266 C 0.79954 0.04828 0.46268 0.0
C267 C 0.854 0.05563 0.4465 0.0
C268 C 0.88155 0.97285 0.80234 0.0
C269 C 0.89329 0.96214 0.77629 0.0
C270 C 0.8358 0.91739 0.81749 0.0
C271 C 0.79879 0.84943 0.80696 0.0
H272 H 0.90787 0.02443 0.81123 0.0
H273 H 0.82814 0.92793 0.83741 0.0
S274 S 0.80835 0.79284 0.73986 0.0
N275 N 0.86332 0.87756 0.74072 0.0
N276 N 0.77556 0.77368 0.76913 0.0
C277 C 0.8093 0.83763 0.78101 0.0
C278 C 0.85704 0.89388 0.7657 0.0
C279 C 0.10071 0.9602 0.11342 0.0
C280 C 0.0406 0.96453 0.10744 0.0
C281 C 0.09852 0.90951 0.13024 0.0
C282 C 0.03611 0.86121 0.14158 0.0
H283 H 0.14934 0.9947 0.10442 0.0
H284 H 0.14543 0.9066 0.13367 0.0
S285 S 0.86646 0.85557 0.13503 0.0
N286 N 0.91827 0.91965 0.11625 0.0
N287 N 0.91465 0.82483 0.14773 0.0
C288 C 0.97655 0.86692 0.13675 0.0
C289 C 0.97869 0.91849 0.11974 0.0
C290 C 0.13265 0.05342 0.46327 0.0
C291 C 0.14857 0.0774 0.43773 0.0
C292 C 0.18335 0.05258 0.48015 0.0
C293 C 0.25031 0.07291 0.47155 0.0
H294 H 0.08117 0.03635 0.47032 0.0
H295 H 0.16994 0.03511 0.49992 0.0
S296 S 0.31439 0.13154 0.40539 0.0
N297 N 0.23366 0.11701 0.40401 0.0
N298 N 0.32849 0.11397 0.4355 0.0
C299 C 0.26579 0.09456 0.44575 0.0
C300 C 0.21483 0.0968 0.42882 0.0
C301 C 0.18583 0.18955 0.79586 0.0
C302 C 0.17292 0.20479 0.77048 0.0
C303 C 0.23719 0.24167 0.81248 0.0
C304 C 0.27913 0.31008 0.80387 0.0
H305 H 0.15439 0.13767 0.80318 0.0
H306 H 0.24297 0.22849 0.83235 0.0
S307 S 0.27519 0.37081 0.73674 0.0
N308 N 0.21098 0.2893 0.73619 0.0
N309 N 0.31029 0.38651 0.76668 0.0
C310 C 0.2695 0.32418 0.77776 0.0
C311 C 0.21602 0.27158 0.76118 0.0
C312 C 0.89534 0.08957 0.65081 0.0
C313 C 0.88453 0.09411 0.67751 0.0
C314 C 0.84786 0.08748 0.63145 0.0
C315 C 0.78796 0.08965 0.63817 0.0
H316 H 0.94191 0.09001 0.64479 0.0
H317 H 0.85918 0.08632 0.61111 0.0
S318 S 0.73025 0.09053 0.70524 0.0
N319 N 0.80571 0.09344 0.70958 0.0
N320 N 0.71656 0.08863 0.67332 0.0
C321 C 0.77488 0.09057 0.66478 0.0
C322 C 0.82312 0.09303 0.68441 0.0
C323 C 0.84645 0.92813 1.00475 0.0
C324 C 0.91595 0.96663 0.99734 0.0
C325 C 0.79503 0.87669 0.98801 0.0
C326 C 0.81176 0.86249 0.9634 0.0
H327 H 0.83202 0.93721 0.02375 0.0
H328 H 0.74201 0.84755 0.99437 0.0
S329 S 0.98623 0.94753 0.93526 0.0
N330 N 0.99932 0.9857 0.96433 0.0
N331 N 0.90203 0.89006 0.93245 0.0
C332 C 0.88095 0.90046 0.95579 0.0
C333 C 0.93343 0.95203 0.97299 0.0
C334 C 0.07033 0.96168 0.31747 0.0
C335 C 1.00892 0.95124 0.3288 0.0
C336 C 0.06979 0.91191 0.30046 0.0
C337 C 1.00782 0.84966 0.29399 0.0
H338 H 0.11986 0.008 0.32224 0.0
H339 H 0.1186 0.9218 0.2926 0.0
S340 S 0.83224 0.79767 0.31738 0.0
N341 N 0.8837 0.87469 0.33146 0.0
N342 N 0.88297 0.78082 0.29956 0.0
C343 C 0.94554 0.83938 0.30438 0.0
C344 C 0.94602 0.89021 0.32177 0.0
C345 C 0.14264 0.04224 0.64084 0.0
C346 C 0.16004 0.06033 0.66742 0.0
C347 C 0.19191 0.04326 0.62396 0.0
C348 C 0.25991 0.06229 0.63323 0.0
H349 H 0.0915 0.02918 0.63295 0.0
H350 H 0.17733 0.03105 0.60342 0.0
S351 S 0.32741 0.10712 0.70207 0.0
N352 N 0.24733 0.09395 0.70264 0.0
N353 N 0.33912 0.09363 0.6714 0.0
C354 C 0.27644 0.0778 0.6601 0.0
C355 C 0.22667 0.07742 0.67707 0.0
C356 C 0.22422 0.29467 1.00555 0.0
C357 C 0.17073 0.23085 0.99506 0.0
C358 C 0.27938 0.34034 0.99019 0.0
C359 C 0.28204 0.32367 0.96387 0.0
H360 H 0.22216 0.31029 0.02542 0.0
H361 H 0.31872 0.39006 0.99864 0.0
S362 S 0.15878 0.1591 0.92842 0.0
N363 N 0.12744 0.15018 0.95784 0.0
N364 N 0.2296 0.23675 0.92871 0.0
C365 C 0.23021 0.25878 0.95357 0.0
C366 C 0.17484 0.21212 0.96927 0.0
C367 C 0.99531 0.2359 0.3281 0.0
C368 C 0.05906 0.25495 0.34146 0.0
C369 C 0.99051 0.27847 0.3089 0.0
C370 C 0.04958 0.34105 0.30202 0.0
H371 H 0.94827 0.18905 0.33317 0.0
H372 H 0.93975 0.26328 0.30003 0.0
S373 S 0.2307 0.40851 0.3283 0.0
N374 N 0.18331 0.33785 0.34494 0.0
N375 N 0.17531 0.41499 0.30787 0.0
C376 C 0.11427 0.35835 0.31419 0.0
C377 C 0.11874 0.31612 0.33415 0.0
loop_
_geom_bond_atom_site_label_1
_geom_bond_atom_site_label_2
_geom_bond_distance
_geom_bond_site_symmetry_2
_ccdc_geom_bond_type
Mn0 O5 2.095 . S
Mn0 O15 2.162 . S
Mn0 O16 2.295 1_445 S
Mn0 O24 2.386 1_545 S
Mn0 O25 2.209 1_455 S
Mn0 O26 2.094 . S
Mn1 O6 2.121 . S
Mn1 N8 2.257 . S
Mn1 N17 2.282 1_554 S
Mn1 O25 2.215 . S
Mn1 O27 2.117 1_655 S
C2 O24 1.229 1_655 S
C2 O25 1.283 1_565 S
C3 O15 1.281 1_565 S
C3 O16 1.228 1_455 S
C4 O26 1.240 . S
C4 O27 1.264 . S
O5 Mn0 2.095 . S
O5 C14 1.250 . S
O6 Mn1 2.121 . S
O6 C14 1.258 1_655 S
C7 N8 1.326 . S
C7 C11 1.460 . S
C7 H13 0.929 . S
N8 Mn1 2.257 . S
N8 C7 1.326 . S
N8 C12 1.362 1_554 S
C9 C10 1.258 . S
C9 C12 1.431 . S
C9 C29 1.449 . S
C10 C9 1.258 . S
C10 C11 1.477 1_556 S
C10 H30 0.931 . S
C11 C7 1.460 . S
C11 C10 1.477 1_554 S
C11 H31 0.930 . S
C12 N8 1.362 1_556 S
C12 C9 1.431 . S
C12 C22 1.476 . S
H13 C7 0.929 . S
C14 O5 1.250 . S
C14 O6 1.258 1_455 S
O15 Mn0 2.162 . S
O15 C3 1.281 1_545 S
O16 Mn0 2.295 1_665 S
O16 C3 1.228 1_655 S
N17 Mn1 2.282 1_556 S
N17 C18 1.328 . S
N17 C22 1.318 . S
C18 N17 1.328 . S
C18 C19 1.457 . S
C18 H23 0.929 1_655 S
C19 C18 1.457 . S
C19 C20 1.291 . S
C19 H32 0.931 . S
C20 C19 1.291 . S
C20 C21 1.373 . S
C20 H33 0.929 . S
C21 C20 1.373 . S
C21 C22 1.396 . S
C21 C28 1.403 . S
C22 C12 1.476 . S
C22 N17 1.318 . S
C22 C21 1.396 . S
H23 C18 0.929 1_455 S
O24 Mn0 2.386 1_565 S
O24 C2 1.229 1_455 S
O25 Mn0 2.209 1_655 S
O25 Mn1 2.215 . S
O25 C2 1.283 1_545 S
O26 Mn0 2.094 . S
O26 C4 1.240 . S
O27 Mn1 2.117 1_455 S
O27 C4 1.264 . S
C28 C21 1.403 . S
C28 C29 1.399 . S
C28 H34 0.929 . S
C29 C9 1.449 . S
C29 C28 1.399 . S
C29 H35 0.930 . S
H30 C10 0.931 . S
H31 C11 0.930 . S
H32 C19 0.931 . S
H33 C20 0.929 . S
H34 C28 0.929 . S
H35 C29 0.930 . S
Mn36 O41 2.095 . S
Mn36 O51 2.162 1_545 S
Mn36 O52 2.297 1_655 S
Mn36 O60 2.385 1_655 S
Mn36 O61 2.209 1_655 S
Mn36 O62 2.094 . S
Mn37 O42 2.121 . S
Mn37 N44 2.257 . S
Mn37 N53 2.282 . S
Mn37 O61 2.215 . S
Mn37 O63 2.117 1_455 S
C38 O60 1.234 . S
C38 O61 1.283 . S
C39 O51 1.281 1_455 S
C39 O52 1.236 1_565 S
C40 O62 1.240 . S
C40 O63 1.264 . S
O41 Mn36 2.095 . S
O41 C50 1.250 1_655 S
O42 Mn37 2.121 . S
O42 C50 1.258 . S
C43 N44 1.326 . S
C43 C47 1.460 . S
C43 H49 0.929 . S
N44 Mn37 2.257 . S
N44 C43 1.326 . S
N44 C48 1.362 . S
C45 C46 1.258 . S
C45 C48 1.431 . S
C45 C65 1.449 . S
C46 C45 1.258 . S
C46 C47 1.477 . S
C46 H66 0.931 . S
C47 C43 1.460 . S
C47 C46 1.477 . S
C47 H67 0.930 . S
C48 N44 1.362 . S
C48 C45 1.431 . S
C48 C58 1.476 . S
H49 C43 0.929 . S
C50 O41 1.250 1_455 S
C50 O42 1.258 . S
O51 Mn36 2.162 1_565 S
O51 C39 1.281 1_655 S
O52 Mn36 2.297 1_455 S
O52 C39 1.236 1_545 S
N53 Mn37 2.282 . S
N53 C54 1.328 . S
N53 C58 1.318 . S
C54 N53 1.328 . S
C54 C55 1.457 . S
C54 H59 0.929 . S
C55 C54 1.457 . S
C55 C56 1.291 . S
C55 H68 0.931 . S
C56 C55 1.291 . S
C56 C57 1.373 . S
C56 H69 0.929 . S
C57 C56 1.373 . S
C57 C58 1.396 . S
C57 C64 1.403 . S
C58 C48 1.476 . S
C58 N53 1.318 . S
C58 C57 1.396 . S
H59 C54 0.929 . S
O60 Mn36 2.385 1_455 S
O60 C38 1.234 . S
O61 Mn36 2.209 1_455 S
O61 Mn37 2.215 . S
O61 C38 1.283 . S
O62 Mn36 2.094 . S
O62 C40 1.240 . S
O63 Mn37 2.117 1_655 S
O63 C40 1.264 . S
C64 C57 1.403 . S
C64 C65 1.399 . S
C64 H70 0.929 . S
C65 C45 1.449 . S
C65 C64 1.399 . S
C65 H71 0.930 . S
H66 C46 0.931 . S
H67 C47 0.930 . S
H68 C55 0.931 . S
H69 C56 0.929 . S
H70 C64 0.929 . S
H71 C65 0.930 . S
Mn72 O77 2.095 1_455 S
Mn72 O87 2.162 . S
Mn72 O88 2.297 . S
Mn72 O96 2.385 . S
Mn72 O97 2.209 . S
Mn72 O98 2.094 1_445 S
Mn73 O78 2.121 . S
Mn73 N80 2.257 . S
Mn73 N89 2.282 . S
Mn73 O97 2.215 1_655 S
Mn73 O99 2.117 . S
C74 O96 1.234 . S
C74 O97 1.283 . S
C75 O87 1.281 . S
C75 O88 1.236 . S
C76 O98 1.240 . S
C76 O99 1.264 1_565 S
O77 Mn72 2.095 1_655 S
O77 C86 1.250 . S
O78 Mn73 2.121 . S
O78 C86 1.258 . S
C79 N80 1.326 . S
C79 C83 1.460 . S
C79 H85 0.929 . S
N80 Mn73 2.257 . S
N80 C79 1.326 . S
N80 C84 1.362 1_655 S
C81 C82 1.258 . S
C81 C84 1.431 . S
C81 C101 1.449 . S
C82 C81 1.258 . S
C82 C83 1.477 1_455 S
C82 H102 0.931 . S
C83 C79 1.460 . S
C83 C82 1.477 1_655 S
C83 H103 0.930 . S
C84 N80 1.362 1_455 S
C84 C81 1.431 . S
C84 C94 1.476 . S
H85 C79 0.929 . S
C86 O77 1.250 . S
C86 O78 1.258 . S
O87 Mn72 2.162 . S
O87 C75 1.281 . S
O88 Mn72 2.297 . S
O88 C75 1.236 . S
N89 Mn73 2.282 . S
N89 C90 1.328 1_655 S
N89 C94 1.318 1_655 S
C90 N89 1.328 1_455 S
C90 C91 1.457 . S
C90 H95 0.929 1_455 S
C91 C90 1.457 . S
C91 C92 1.291 . S
C91 H104 0.931 . S
C92 C91 1.291 . S
C92 C93 1.373 . S
C92 H105 0.929 . S
C93 C92 1.373 . S
C93 C94 1.396 . S
C93 C100 1.403 . S
C94 C84 1.476 . S
C94 N89 1.318 1_455 S
C94 C93 1.396 . S
H95 C90 0.929 1_655 S
O96 Mn72 2.385 . S
O96 C74 1.234 . S
O97 Mn72 2.209 . S
O97 Mn73 2.215 1_455 S
O97 C74 1.283 . S
O98 Mn72 2.094 1_665 S
O98 C76 1.240 . S
O99 Mn73 2.117 . S
O99 C76 1.264 1_545 S
C100 C93 1.403 . S
C100 C101 1.399 . S
C100 H106 0.929 . S
C101 C81 1.449 . S
C101 C100 1.399 . S
C101 H107 0.930 . S
H102 C82 0.931 . S
H103 C83 0.930 . S
H104 C91 0.931 . S
H105 C92 0.929 . S
H106 C100 0.929 . S
H107 C101 0.930 . S
C108 C109 1.384 1_655 S
C108 C110 1.384 . S
C108 H136 0.931 . S
C109 C108 1.384 1_455 S
C109 C112 1.382 . S
C110 C108 1.384 . S
C110 C111 1.381 1_655 S
C110 H137 0.930 . S
C111 C110 1.381 1_455 S
C111 C113 1.381 . S
C111 C114 1.487 . S
C112 C109 1.382 . S
C112 C113 1.387 . S
C112 H138 0.930 . S
C113 C111 1.381 . S
C113 C112 1.387 . S
C113 H139 0.931 . S
C114 C111 1.487 . S
C114 C121 1.399 . S
C114 N152 1.343 . S
C115 C116 1.384 . S
C115 C117 1.384 . S
C115 H140 0.931 . S
C116 C115 1.384 . S
C116 C119 1.382 1_455 S
C117 C115 1.384 . S
C117 C118 1.381 . S
C117 H141 0.930 . S
C118 C117 1.381 . S
C118 C120 1.381 1_455 S
C118 C121 1.487 . S
C119 C116 1.382 1_655 S
C119 C120 1.387 . S
C119 H142 0.930 . S
C120 C118 1.381 1_655 S
C120 C119 1.387 . S
C120 H143 0.931 . S
C121 C114 1.399 . S
C121 C118 1.487 . S
C121 N153 1.343 . S
C122 C123 1.384 . S
C122 C124 1.384 . S
C122 H144 0.931 . S
C123 C122 1.384 . S
C123 C126 1.382 1_455 S
C124 C122 1.384 . S
C124 C125 1.381 . S
C124 H145 0.930 . S
C125 C124 1.381 . S
C125 C127 1.381 1_455 S
C125 C128 1.487 . S
C126 C123 1.382 1_655 S
C126 C127 1.387 . S
C126 H146 0.930 . S
C127 C125 1.381 1_655 S
C127 C126 1.387 . S
C127 H147 0.931 . S
C128 C125 1.487 . S
C128 C135 1.399 . S
C128 N153 1.343 . S
C129 C130 1.384 1_655 S
C129 C131 1.384 . S
C129 H148 0.931 . S
C130 C129 1.384 1_455 S
C130 C133 1.382 . S
C131 C129 1.384 . S
C131 C132 1.381 1_655 S
C131 H149 0.930 . S
C132 C131 1.381 1_455 S
C132 C134 1.381 . S
C132 C135 1.487 . S
C133 C130 1.382 . S
C133 C134 1.387 . S
C133 H150 0.930 . S
C134 C132 1.381 . S
C134 C133 1.387 . S
C134 H151 0.931 . S
C135 C128 1.399 . S
C135 C132 1.487 . S
C135 N152 1.343 . S
H136 C108 0.931 . S
H137 C110 0.930 . S
H138 C112 0.930 . S
H139 C113 0.931 . S
H140 C115 0.931 . S
H141 C117 0.930 . S
H142 C119 0.930 . S
H143 C120 0.931 . S
H144 C122 0.931 . S
H145 C124 0.930 . S
H146 C126 0.930 . S
H147 C127 0.931 . S
H148 C129 0.931 . S
H149 C131 0.930 . S
H150 C133 0.930 . S
H151 C134 0.931 . S
N152 C114 1.343 . S
N152 C135 1.343 . S
N153 C121 1.343 . S
N153 C128 1.343 . S
C154 C155 1.384 . S
C154 C156 1.384 . S
C154 H182 0.931 . S
C155 C154 1.384 . S
C155 C158 1.382 . S
C156 C154 1.384 . S
C156 C157 1.381 . S
C156 H183 0.930 . S
C157 C156 1.381 . S
C157 C159 1.381 . S
C157 C160 1.487 . S
C158 C155 1.382 . S
C158 C159 1.387 . S
C158 H184 0.930 . S
C159 C157 1.381 . S
C159 C158 1.387 . S
C159 H185 0.931 . S
C160 C157 1.487 . S
C160 C167 1.399 . S
C160 N198 1.343 . S
C161 C162 1.384 . S
C161 C163 1.384 . S
C161 H186 0.931 . S
C162 C161 1.384 . S
C162 C165 1.382 . S
C163 C161 1.384 . S
C163 C164 1.381 . S
C163 H187 0.930 . S
C164 C163 1.381 . S
C164 C166 1.381 . S
C164 C167 1.487 . S
C165 C162 1.382 . S
C165 C166 1.387 . S
C165 H188 0.930 . S
C166 C164 1.381 . S
C166 C165 1.387 . S
C166 H189 0.931 . S
C167 C160 1.399 . S
C167 C164 1.487 . S
C167 N199 1.343 . S
C168 C169 1.384 . S
C168 C170 1.384 . S
C168 H190 0.931 . S
C169 C168 1.384 . S
C169 C172 1.382 . S
C170 C168 1.384 . S
C170 C171 1.381 . S
C170 H191 0.930 . S
C171 C170 1.381 . S
C171 C173 1.381 . S
C171 C174 1.487 . S
C172 C169 1.382 . S
C172 C173 1.387 . S
C172 H192 0.930 . S
C173 C171 1.381 . S
C173 C172 1.387 . S
C173 H193 0.931 . S
C174 C171 1.487 . S
C174 C181 1.399 . S
C174 N199 1.343 . S
C175 C176 1.384 . S
C175 C177 1.384 . S
C175 H194 0.931 . S
C176 C175 1.384 . S
C176 C179 1.382 . S
C177 C175 1.384 . S
C177 C178 1.381 . S
C177 H195 0.930 . S
C178 C177 1.381 . S
C178 C180 1.381 . S
C178 C181 1.487 . S
C179 C176 1.382 . S
C179 C180 1.387 . S
C179 H196 0.930 . S
C180 C178 1.381 . S
C180 C179 1.387 . S
C180 H197 0.931 . S
C181 C174 1.399 . S
C181 C178 1.487 . S
C181 N198 1.343 . S
H182 C154 0.931 . S
H183 C156 0.930 . S
H184 C158 0.930 . S
H185 C159 0.931 . S
H186 C161 0.931 . S
H187 C163 0.930 . S
H188 C165 0.930 . S
H189 C166 0.931 . S
H190 C168 0.931 . S
H191 C170 0.930 . S
H192 C172 0.930 . S
H193 C173 0.931 . S
H194 C175 0.931 . S
H195 C177 0.930 . S
H196 C179 0.930 . S
H197 C180 0.931 . S
N198 C160 1.343 . S
N198 C181 1.343 . S
N199 C167 1.343 . S
N199 C174 1.343 . S
C200 C201 1.384 . S
C200 C202 1.384 . S
C200 H228 0.931 . S
C201 C200 1.384 . S
C201 C204 1.382 . S
C202 C200 1.384 . S
C202 C203 1.381 . S
C202 H229 0.930 . S
C203 C202 1.381 . S
C203 C205 1.381 . S
C203 C206 1.487 . S
C204 C201 1.382 . S
C204 C205 1.387 . S
C204 H230 0.930 . S
C205 C203 1.381 . S
C205 C204 1.387 . S
C205 H231 0.931 . S
C206 C203 1.487 . S
C206 C213 1.399 . S
C206 N244 1.343 . S
C207 C208 1.384 . S
C207 C209 1.384 . S
C207 H232 0.931 . S
C208 C207 1.384 . S
C208 C211 1.382 . S
C209 C207 1.384 . S
C209 C210 1.381 . S
C209 H233 0.930 . S
C210 C209 1.381 . S
C210 C212 1.381 . S
C210 C213 1.487 . S
C211 C208 1.382 . S
C211 C212 1.387 . S
C211 H234 0.930 . S
C212 C210 1.381 . S
C212 C211 1.387 . S
C212 H235 0.931 . S
C213 C206 1.399 . S
C213 C210 1.487 . S
C213 N245 1.343 . S
C214 C215 1.384 . S
C214 C216 1.384 . S
C214 H236 0.931 . S
C215 C214 1.384 . S
C215 C218 1.382 . S
C216 C214 1.384 . S
C216 C217 1.381 . S
C216 H237 0.930 . S
C217 C216 1.381 . S
C217 C219 1.381 . S
C217 C220 1.487 . S
C218 C215 1.382 . S
C218 C219 1.387 . S
C218 H238 0.930 . S
C219 C217 1.381 . S
C219 C218 1.387 . S
C219 H239 0.931 . S
C220 C217 1.487 . S
C220 C227 1.399 . S
C220 N245 1.343 . S
C221 C222 1.384 . S
C221 C223 1.384 . S
C221 H240 0.931 . S
C222 C221 1.384 . S
C222 C225 1.382 . S
C223 C221 1.384 . S
C223 C224 1.381 . S
C223 H241 0.930 . S
C224 C223 1.381 . S
C224 C226 1.381 . S
C224 C227 1.487 . S
C225 C222 1.382 . S
C225 C226 1.387 . S
C225 H242 0.930 . S
C226 C224 1.381 . S
C226 C225 1.387 . S
C226 H243 0.931 . S
C227 C220 1.399 . S
C227 C224 1.487 . S
C227 N244 1.343 . S
H228 C200 0.931 . S
H229 C202 0.930 . S
H230 C204 0.930 . S
H231 C205 0.931 . S
H232 C207 0.931 . S
H233 C209 0.930 . S
H234 C211 0.930 . S
H235 C212 0.931 . S
H236 C214 0.931 . S
H237 C216 0.930 . S
H238 C218 0.930 . S
H239 C219 0.931 . S
H240 C221 0.931 . S
H241 C223 0.930 . S
H242 C225 0.930 . S
H243 C226 0.931 . S
N244 C206 1.343 . S
N244 C227 1.343 . S
N245 C213 1.343 . S
N245 C220 1.343 . S
C246 C247 1.369 . S
C246 C248 1.419 . S
C246 H250 0.930 . S
C247 C246 1.369 . S
C247 C256 1.429 . S
C248 C246 1.419 . S
C248 C249 1.363 . S
C248 H251 0.929 . S
C249 C248 1.363 . S
C249 C255 1.428 . S
H250 C246 0.930 . S
H251 C248 0.929 . S
S252 N253 1.613 . S
S252 N254 1.610 . S
N253 S252 1.613 . S
N253 C256 1.350 1_655 S
N254 S252 1.610 . S
N254 C255 1.351 1_655 S
C255 C249 1.428 . S
C255 N254 1.351 1_455 S
C255 C256 1.434 . S
C256 C247 1.429 . S
C256 N253 1.350 1_455 S
C256 C255 1.434 . S
C257 C258 1.369 . S
C257 C259 1.419 . S
C257 H261 0.930 . S
C258 C257 1.369 . S
C258 C267 1.429 . S
C259 C257 1.419 . S
C259 C260 1.363 . S
C259 H262 0.929 . S
C260 C259 1.363 . S
C260 C266 1.428 . S
H261 C257 0.930 . S
H262 C259 0.929 . S
S263 N264 1.613 1_565 S
S263 N265 1.610 1_565 S
N264 S263 1.613 1_545 S
N264 C267 1.350 . S
N265 S263 1.610 1_545 S
N265 C266 1.351 . S
C266 C260 1.428 . S
C266 N265 1.351 . S
C266 C267 1.434 . S
C267 C258 1.429 . S
C267 N264 1.350 . S
C267 C266 1.434 . S
C268 C269 1.369 . S
C268 C270 1.419 . S
C268 H272 0.930 . S
C269 C268 1.369 . S
C269 C278 1.429 . S
C270 C268 1.419 . S
C270 C271 1.363 . S
C270 H273 0.929 . S
C271 C270 1.363 . S
C271 C277 1.428 . S
H272 C268 0.930 . S
H273 C270 0.929 . S
S274 N275 1.613 . S
S274 N276 1.610 . S
N275 S274 1.613 . S
N275 C278 1.350 . S
N276 S274 1.610 . S
N276 C277 1.351 . S
C277 C271 1.428 . S
C277 N276 1.351 . S
C277 C278 1.434 . S
C278 C269 1.429 . S
C278 N275 1.350 . S
C278 C277 1.434 . S
C279 C280 1.369 . S
C279 C281 1.419 . S
C279 H283 0.930 . S
C280 C279 1.369 . S
C280 C289 1.429 . S
C281 C279 1.419 . S
C281 C282 1.363 . S
C281 H284 0.929 . S
C282 C281 1.363 . S
C282 C288 1.428 . S
H283 C279 0.930 . S
H284 C281 0.929 . S
S285 N286 1.613 . S
S285 N287 1.610 . S
N286 S285 1.613 . S
N286 C289 1.350 . S
N287 S285 1.610 . S
N287 C288 1.351 . S
C288 C282 1.428 . S
C288 N287 1.351 . S
C288 C289 1.434 . S
C289 C280 1.429 . S
C289 N286 1.350 . S
C289 C288 1.434 . S
C290 C291 1.369 . S
C290 C292 1.419 . S
C290 H294 0.930 1_545 S
C291 C290 1.369 . S
C291 C300 1.429 . S
C292 C290 1.419 . S
C292 C293 1.363 . S
C292 H295 0.929 1_545 S
C293 C292 1.363 . S
C293 C299 1.428 . S
H294 C290 0.930 1_565 S
H295 C292 0.929 1_565 S
S296 N297 1.613 . S
S296 N298 1.610 . S
N297 S296 1.613 . S
N297 C300 1.350 . S
N298 S296 1.610 . S
N298 C299 1.351 . S
C299 C293 1.428 . S
C299 N298 1.351 . S
C299 C300 1.434 . S
C300 C291 1.429 . S
C300 N297 1.350 . S
C300 C299 1.434 . S
C301 C302 1.369 . S
C301 C303 1.419 . S
C301 H305 0.930 . S
C302 C301 1.369 . S
C302 C311 1.429 . S
C303 C301 1.419 . S
C303 C304 1.363 . S
C303 H306 0.929 . S
C304 C303 1.363 . S
C304 C310 1.428 . S
H305 C301 0.930 . S
H306 C303 0.929 . S
S307 N308 1.613 . S
S307 N309 1.610 . S
N308 S307 1.613 . S
N308 C311 1.350 . S
N309 S307 1.610 . S
N309 C310 1.351 . S
C310 C304 1.428 . S
C310 N309 1.351 . S
C310 C311 1.434 . S
C311 C302 1.429 . S
C311 N308 1.350 . S
C311 C310 1.434 . S
C312 C313 1.369 . S
C312 C314 1.419 . S
C312 H316 0.930 . S
C313 C312 1.369 . S
C313 C322 1.429 . S
C314 C312 1.419 . S
C314 C315 1.363 . S
C314 H317 0.929 . S
C315 C314 1.363 . S
C315 C321 1.428 . S
H316 C312 0.930 . S
H317 C314 0.929 . S
S318 N319 1.613 1_565 S
S318 N320 1.610 1_565 S
N319 S318 1.613 1_545 S
N319 C322 1.350 . S
N320 S318 1.610 1_545 S
N320 C321 1.351 . S
C321 C315 1.428 . S
C321 N320 1.351 . S
C321 C322 1.434 . S
C322 C313 1.429 . S
C322 N319 1.350 . S
C322 C321 1.434 . S
C323 C324 1.369 1_554 S
C323 C325 1.419 1_554 S
C323 H327 0.930 . S
C324 C323 1.369 1_556 S
C324 C333 1.429 . S
C325 C323 1.419 1_556 S
C325 C326 1.363 . S
C325 H328 0.929 . S
C326 C325 1.363 . S
C326 C332 1.428 . S
H327 C323 0.930 . S
H328 C325 0.929 . S
S329 N330 1.613 . S
S329 N331 1.610 1_545 S
N330 S329 1.613 . S
N330 C333 1.350 1_545 S
N331 S329 1.610 1_565 S
N331 C332 1.351 . S
C332 C326 1.428 . S
C332 N331 1.351 . S
C332 C333 1.434 . S
C333 C324 1.429 . S
C333 N330 1.350 1_565 S
C333 C332 1.434 . S
C334 C335 1.369 . S
C334 C336 1.419 . S
C334 H338 0.930 . S
C335 C334 1.369 . S
C335 C344 1.429 1_455 S
C336 C334 1.419 . S
C336 C337 1.363 . S
C336 H339 0.929 . S
C337 C336 1.363 . S
C337 C343 1.428 1_455 S
H338 C334 0.930 . S
H339 C336 0.929 . S
S340 N341 1.613 . S
S340 N342 1.610 . S
N341 S340 1.613 . S
N341 C344 1.350 . S
N342 S340 1.610 . S
N342 C343 1.351 . S
C343 C337 1.428 1_655 S
C343 N342 1.351 . S
C343 C344 1.434 . S
C344 C335 1.429 1_655 S
C344 N341 1.350 . S
C344 C343 1.434 . S
C345 C346 1.369 . S
C345 C347 1.419 . S
C345 H349 0.930 . S
C346 C345 1.369 . S
C346 C355 1.429 . S
C347 C345 1.419 . S
C347 C348 1.363 . S
C347 H350 0.929 . S
C348 C347 1.363 . S
C348 C354 1.428 . S
H349 C345 0.930 . S
H350 C347 0.929 . S
S351 N352 1.613 . S
S351 N353 1.610 . S
N352 S351 1.613 . S
N352 C355 1.350 . S
N353 S351 1.610 . S
N353 C354 1.351 . S
C354 C348 1.428 . S
C354 N353 1.351 . S
C354 C355 1.434 . S
C355 C346 1.429 . S
C355 N352 1.350 . S
C355 C354 1.434 . S
C356 C357 1.361 1_554 S
C356 C358 1.399 1_554 S
C356 H360 0.959 . S
C357 C356 1.361 1_556 S
C357 C366 1.429 . S
C358 C356 1.399 1_556 S
C358 C359 1.363 . S
C358 H361 0.929 . S
C359 C358 1.363 . S
C359 C365 1.428 . S
H360 C356 0.959 . S
H361 C358 0.929 . S
S362 N363 1.613 . S
S362 N364 1.610 . S
N363 S362 1.613 . S
N363 C366 1.350 . S
N364 S362 1.610 . S
N364 C365 1.351 . S
C365 C359 1.428 . S
C365 N364 1.351 . S
C365 C366 1.434 . S
C366 C357 1.429 . S
C366 N363 1.350 . S
C366 C365 1.434 . S
C367 C368 1.369 1_655 S
C367 C369 1.419 . S
C367 H371 0.930 . S
C368 C367 1.369 1_455 S
C368 C377 1.429 . S
C369 C367 1.419 . S
C369 C370 1.363 1_655 S
C369 H372 0.929 . S
C370 C369 1.363 1_455 S
C370 C376 1.428 . S
H371 C367 0.930 . S
H372 C369 0.929 . S
S373 N374 1.613 . S
S373 N375 1.610 . S
N374 S373 1.613 . S
N374 C377 1.350 . S
N375 S373 1.610 . S
N375 C376 1.351 . S
C376 C370 1.428 . S
C376 N375 1.351 . S
C376 C377 1.434 . S
C377 C368 1.429 . S
C377 N374 1.350 . S
C377 C376 1.434 . S
C249 C116 1.489 . S
C247 C14 1.442 . S
C258 C40 1.493 . S
C260 C155 1.507 . S
C269 C76 1.476 . S
C271 C222 1.495 . S
C280 C3 1.472 . S
C282 C123 1.473 . S
C293 C176 1.504 . S
C291 C38 1.492 . S
C302 C74 1.470 . S
C304 C201 1.485 . S
C315 C162 1.465 . S
C313 C86 1.419 . S
C324 C2 1.469 1_556 S
C326 C215 1.485 . S
C337 C130 1.474 . S
C335 C39 1.473 . S
C348 C169 1.484 . S
C346 C75 1.482 . S
C359 C208 1.492 . S
C357 C4 1.476 1_556 S
C368 C50 1.444 . S
C370 C109 1.489 . S
