# Generated by pormake.
# Topology eea, (3,6)-cn, num edge types: 1
# Building blocks:
#     Node 0, Type 0, BuildingBlock: BELTOD_clean_linker_0, # of connection points: 3
#     Node 1, Type 0, BuildingBlock: BELTOD_clean_linker_0, # of connection points: 3
#     Node 2, Type 0, BuildingBlock: BELTOD_clean_linker_0, # of connection points: 3
#     Node 3, Type 0, BuildingBlock: BELTOD_clean_linker_0, # of connection points: 3
#     Node 4, Type 0, BuildingBlock: BELTOD_clean_linker_0, # of connection points: 3
#     Node 5, Type 0, BuildingBlock: BELTOD_clean_linker_0, # of connection points: 3
#     Node 6, Type 0, BuildingBlock: BELTOD_clean_linker_0, # of connection points: 3
#     Node 7, Type 0, BuildingBlock: BELTOD_clean_linker_0, # of connection points: 3
#     Node 8, Type 0, BuildingBlock: BELTOD_clean_linker_0, # of connection points: 3
#     Node 9, Type 0, BuildingBlock: BELTOD_clean_linker_0, # of connection points: 3
#     Node 10, Type 0, BuildingBlock: BELTOD_clean_linker_0, # of connection points: 3
#     Node 11, Type 0, BuildingBlock: BELTOD_clean_linker_0, # of connection points: 3
#     Node 12, Type 0, BuildingBlock: BELTOD_clean_linker_0, # of connection points: 3
#     Node 13, Type 0, BuildingBlock: BELTOD_clean_linker_0, # of connection points: 3
#     Node 14, Type 0, BuildingBlock: BELTOD_clean_linker_0, # of connection points: 3
#     Node 15, Type 0, BuildingBlock: BELTOD_clean_linker_0, # of connection points: 3
#     Node 16, Type 0, BuildingBlock: BELTOD_clean_linker_0, # of connection points: 3
#     Node 17, Type 0, BuildingBlock: BELTOD_clean_linker_0, # of connection points: 3
#     Node 18, Type 1, BuildingBlock: KUMBUR_clean_sbu_0, # of connection points: 6
#     Node 19, Type 1, BuildingBlock: KUMBUR_clean_sbu_0, # of connection points: 6
#     Node 20, Type 1, BuildingBlock: KUMBUR_clean_sbu_0, # of connection points: 6
#     Node 21, Type 1, BuildingBlock: KUMBUR_clean_sbu_0, # of connection points: 6
#     Node 22, Type 1, BuildingBlock: KUMBUR_clean_sbu_0, # of connection points: 6
#     Node 23, Type 1, BuildingBlock: KUMBUR_clean_sbu_0, # of connection points: 6
#     Node 24, Type 1, BuildingBlock: KUMBUR_clean_sbu_0, # of connection points: 6
#     Node 25, Type 1, BuildingBlock: KUMBUR_clean_sbu_0, # of connection points: 6
#     Node 26, Type 1, BuildingBlock: KUMBUR_clean_sbu_0, # of connection points: 6
#     Edge 27, Type (0, 1), BuildingBlock: CIFDUS_clean_linker_0, # of connection points: 2
#     Edge 28, Type (0, 1), BuildingBlock: CIFDUS_clean_linker_0, # of connection points: 2
#     Edge 29, Type (0, 1), BuildingBlock: CIFDUS_clean_linker_0, # of connection points: 2
#     Edge 30, Type (0, 1), BuildingBlock: CIFDUS_clean_linker_0, # of connection points: 2
#     Edge 31, Type (0, 1), BuildingBlock: CIFDUS_clean_linker_0, # of connection points: 2
#     Edge 32, Type (0, 1), BuildingBlock: CIFDUS_clean_linker_0, # of connection points: 2
#     Edge 33, Type (0, 1), BuildingBlock: CIFDUS_clean_linker_0, # of connection points: 2
#     Edge 34, Type (0, 1), BuildingBlock: CIFDUS_clean_linker_0, # of connection points: 2
#     Edge 35, Type (0, 1), BuildingBlock: CIFDUS_clean_linker_0, # of connection points: 2
#     Edge 36, Type (0, 1), BuildingBlock: CIFDUS_clean_linker_0, # of connection points: 2
#     Edge 37, Type (0, 1), BuildingBlock: CIFDUS_clean_linker_0, # of connection points: 2
#     Edge 38, Type (0, 1), BuildingBlock: CIFDUS_clean_linker_0, # of connection points: 2
#     Edge 39, Type (0, 1), BuildingBlock: CIFDUS_clean_linker_0, # of connection points: 2
#     Edge 40, Type (0, 1), BuildingBlock: CIFDUS_clean_linker_0, # of connection points: 2
#     Edge 41, Type (0, 1), BuildingBlock: CIFDUS_clean_linker_0, # of connection points: 2
#     Edge 42, Type (0, 1), BuildingBlock: CIFDUS_clean_linker_0, # of connection points: 2
#     Edge 43, Type (0, 1), BuildingBlock: CIFDUS_clean_linker_0, # of connection points: 2
#     Edge 44, Type (0, 1), BuildingBlock: CIFDUS_clean_linker_0, # of connection points: 2
#     Edge 45, Type (0, 1), BuildingBlock: CIFDUS_clean_linker_0, # of connection points: 2
#     Edge 46, Type (0, 1), BuildingBlock: CIFDUS_clean_linker_0, # of connection points: 2
#     Edge 47, Type (0, 1), BuildingBlock: CIFDUS_clean_linker_0, # of connection points: 2
#     Edge 48, Type (0, 1), BuildingBlock: CIFDUS_clean_linker_0, # of connection points: 2
#     Edge 49, Type (0, 1), BuildingBlock: CIFDUS_clean_linker_0, # of connection points: 2
#     Edge 50, Type (0, 1), BuildingBlock: CIFDUS_clean_linker_0, # of connection points: 2
#     Edge 51, Type (0, 1), BuildingBlock: CIFDUS_clean_linker_0, # of connection points: 2
#     Edge 52, Type (0, 1), BuildingBlock: CIFDUS_clean_linker_0, # of connection points: 2
#     Edge 53, Type (0, 1), BuildingBlock: CIFDUS_clean_linker_0, # of connection points: 2
#     Edge 54, Type (0, 1), BuildingBlock: CIFDUS_clean_linker_0, # of connection points: 2
#     Edge 55, Type (0, 1), BuildingBlock: CIFDUS_clean_linker_0, # of connection points: 2
#     Edge 56, Type (0, 1), BuildingBlock: CIFDUS_clean_linker_0, # of connection points: 2
#     Edge 57, Type (0, 1), BuildingBlock: CIFDUS_clean_linker_0, # of connection points: 2
#     Edge 58, Type (0, 1), BuildingBlock: CIFDUS_clean_linker_0, # of connection points: 2
#     Edge 59, Type (0, 1), BuildingBlock: CIFDUS_clean_linker_0, # of connection points: 2
#     Edge 60, Type (0, 1), BuildingBlock: CIFDUS_clean_linker_0, # of connection points: 2
#     Edge 61, Type (0, 1), BuildingBlock: CIFDUS_clean_linker_0, # of connection points: 2
#     Edge 62, Type (0, 1), BuildingBlock: CIFDUS_clean_linker_0, # of connection points: 2
#     Edge 63, Type (0, 1), BuildingBlock: CIFDUS_clean_linker_0, # of connection points: 2
#     Edge 64, Type (0, 1), BuildingBlock: CIFDUS_clean_linker_0, # of connection points: 2
#     Edge 65, Type (0, 1), BuildingBlock: CIFDUS_clean_linker_0, # of connection points: 2
#     Edge 66, Type (0, 1), BuildingBlock: CIFDUS_clean_linker_0, # of connection points: 2
#     Edge 67, Type (0, 1), BuildingBlock: CIFDUS_clean_linker_0, # of connection points: 2
#     Edge 68, Type (0, 1), BuildingBlock: CIFDUS_clean_linker_0, # of connection points: 2
#     Edge 69, Type (0, 1), BuildingBlock: CIFDUS_clean_linker_0, # of connection points: 2
#     Edge 70, Type (0, 1), BuildingBlock: CIFDUS_clean_linker_0, # of connection points: 2
#     Edge 71, Type (0, 1), BuildingBlock: CIFDUS_clean_linker_0, # of connection points: 2
#     Edge 72, Type (0, 1), BuildingBlock: CIFDUS_clean_linker_0, # of connection points: 2
#     Edge 73, Type (0, 1), BuildingBlock: CIFDUS_clean_linker_0, # of connection points: 2
#     Edge 74, Type (0, 1), BuildingBlock: CIFDUS_clean_linker_0, # of connection points: 2
#     Edge 75, Type (0, 1), BuildingBlock: CIFDUS_clean_linker_0, # of connection points: 2
#     Edge 76, Type (0, 1), BuildingBlock: CIFDUS_clean_linker_0, # of connection points: 2
#     Edge 77, Type (0, 1), BuildingBlock: CIFDUS_clean_linker_0, # of connection points: 2
#     Edge 78, Type (0, 1), BuildingBlock: CIFDUS_clean_linker_0, # of connection points: 2
#     Edge 79, Type (0, 1), BuildingBlock: CIFDUS_clean_linker_0, # of connection points: 2
#     Edge 80, Type (0, 1), BuildingBlock: CIFDUS_clean_linker_0, # of connection points: 2
# Relax obj value: 0.007
# Max RMSD: 0.084
# Mean RMSD: 0.072
data_MOF--net-eea--node1-KUMBUR_clean_sbu_0--node2-BELTOD_clean_linker_0--edge1-CIFDUS_clean_linker_0
_symmetry_space_group_name_H-M    P1
_symmetry_Int_Tables_number       1
_symmetry_cell_setting            triclinic
loop_
_symmetry_equiv_pos_as_xyz
'x, y, z'
_cell_length_a     51.90876
_cell_length_b     52.884444
_cell_length_c     74.137477
_cell_angle_alpha  90.52967
_cell_angle_beta   90.031785
_cell_angle_gamma 120.04662
loop_
_atom_site_label
_atom_site_type_symbol
_atom_site_fract_x
_atom_site_fract_y
_atom_site_fract_z
_atom_type_partial_charge
P0 P 0.30083 0.15109 0.40661 0.0
H1 H 0.30804 0.11576 0.37868 0.0
H2 H 0.28091 0.0639 0.3715 0.0
H3 H 0.21708 0.05056 0.41314 0.0
H4 H 0.24564 0.10247 0.42099 0.0
H5 H 0.31893 0.20009 0.38224 0.0
H6 H 0.29333 0.224 0.36982 0.0
H7 H 0.21631 0.16952 0.40211 0.0
H8 H 0.2418 0.14484 0.41429 0.0
H9 H 0.35004 0.15143 0.42499 0.0
H10 H 0.27188 0.15506 0.44047 0.0
O11 O 0.33293 0.16495 0.39543 0.0
H12 H 0.36267 0.15133 0.45647 0.0
H13 H 0.28393 0.15393 0.47235 0.0
C14 C 0.27894 0.11303 0.40042 0.0
C15 C 0.28819 0.10175 0.38628 0.0
C16 C 0.27238 0.07196 0.38203 0.0
C17 C 0.24664 0.05282 0.39168 0.0
C18 C 0.23701 0.06446 0.40557 0.0
C19 C 0.25314 0.09426 0.40997 0.0
C20 C 0.28248 0.17071 0.39938 0.0
C21 C 0.29662 0.19323 0.38682 0.0
C22 C 0.28189 0.20683 0.37959 0.0
C23 C 0.25278 0.19846 0.3849 0.0
C24 C 0.23881 0.17643 0.39783 0.0
C25 C 0.25345 0.16243 0.40487 0.0
C26 C 0.31028 0.15378 0.43026 0.0
C27 C 0.33565 0.15247 0.43517 0.0
C28 C 0.34267 0.15202 0.45327 0.0
C29 C 0.32416 0.1523 0.46702 0.0
C30 C 0.2988 0.15392 0.46212 0.0
C31 C 0.29183 0.1545 0.44386 0.0
P32 P 0.91703 0.10558 0.43965 0.0
H33 H 0.9163 0.05927 0.41813 0.0
H34 H 0.87896 0.02027 0.39942 0.0
H35 H 0.81823 0.05232 0.40948 0.0
H36 H 0.85574 0.09092 0.42902 0.0
H37 H 0.98169 0.14132 0.43866 0.0
H38 H 0.01591 0.18293 0.42064 0.0
H39 H 0.94152 0.18291 0.39454 0.0
H40 H 0.90699 0.1406 0.41265 0.0
H41 H 0.91661 0.09224 0.4778 0.0
H42 H 0.88559 0.13885 0.44511 0.0
O43 O 0.93749 0.0915 0.44718 0.0
H44 H 0.89989 0.10601 0.50488 0.0
H45 H 0.86791 0.15208 0.47247 0.0
C46 C 0.88871 0.07775 0.42528 0.0
C47 C 0.89492 0.05791 0.41644 0.0
C48 C 0.87353 0.03569 0.40551 0.0
C49 C 0.84544 0.03304 0.4028 0.0
C50 C 0.83942 0.05338 0.41144 0.0
C51 C 0.86093 0.0756 0.42256 0.0
C52 C 0.94172 0.13754 0.42685 0.0
C53 C 0.97258 0.15005 0.42903 0.0
C54 C 0.9922 0.17383 0.41863 0.0
C55 C 0.98145 0.18595 0.40596 0.0
C56 C 0.95047 0.17397 0.40416 0.0
C57 C 0.93073 0.14983 0.41448 0.0
C58 C 0.90254 0.11462 0.45934 0.0
C59 C 0.90608 0.10535 0.47637 0.0
C60 C 0.89654 0.11326 0.49192 0.0
C61 C 0.88277 0.13025 0.4908 0.0
C62 C 0.87841 0.13889 0.4737 0.0
C63 C 0.88849 0.13135 0.45808 0.0
P64 P 0.87116 0.74528 0.41973 0.0
H65 H 0.809 0.72525 0.42627 0.0
H66 H 0.77321 0.73664 0.41296 0.0
H67 H 0.84268 0.80269 0.38017 0.0
H68 H 0.87888 0.79165 0.39413 0.0
H69 H 0.89781 0.73127 0.38937 0.0
H70 H 0.94859 0.75318 0.37806 0.0
H71 H 0.9772 0.82262 0.41766 0.0
H72 H 0.926 0.80029 0.42908 0.0
H73 H 0.84686 0.76573 0.4492 0.0
H74 H 0.8981 0.72232 0.4441 0.0
O75 O 0.85543 0.71042 0.41307 0.0
H76 H 0.84118 0.75545 0.48151 0.0
H77 H 0.89288 0.71236 0.47643 0.0
C78 C 0.8467 0.75778 0.41141 0.0
C79 C 0.81674 0.74262 0.4165 0.0
C80 C 0.79619 0.74896 0.40868 0.0
C81 C 0.8049 0.77031 0.39525 0.0
C82 C 0.83521 0.78621 0.39052 0.0
C83 C 0.85594 0.77989 0.39848 0.0
C84 C 0.90818 0.76389 0.41027 0.0
C85 C 0.91491 0.75126 0.39563 0.0
C86 C 0.94402 0.76375 0.38919 0.0
C87 C 0.96703 0.78944 0.3971 0.0
C88 C 0.95996 0.80283 0.41127 0.0
C89 C 0.93076 0.7901 0.41783 0.0
C90 C 0.87255 0.74439 0.44411 0.0
C91 C 0.85721 0.7543 0.455 0.0
C92 C 0.85393 0.74837 0.47352 0.0
C93 C 0.86627 0.73277 0.48155 0.0
C94 C 0.88321 0.72454 0.47076 0.0
C95 C 0.8862 0.73021 0.45223 0.0
P96 P 0.13563 0.26068 0.61172 0.0
H97 H 0.09067 0.27763 0.60843 0.0
H98 H 0.04085 0.25831 0.62038 0.0
H99 H 0.04683 0.18756 0.64493 0.0
H100 H 0.09646 0.20635 0.63185 0.0
H101 H 0.17203 0.27757 0.64445 0.0
H102 H 0.20794 0.26478 0.65607 0.0
H103 H 0.18221 0.19893 0.61429 0.0
H104 H 0.14591 0.21181 0.60271 0.0
H105 H 0.09856 0.25882 0.58058 0.0
H106 H 0.1859 0.27021 0.58937 0.0
O107 O 0.15082 0.29536 0.61868 0.0
H108 H 0.11163 0.27457 0.5495 0.0
H109 H 0.19832 0.28385 0.55807 0.0
C110 C 0.09724 0.24328 0.61896 0.0
C111 C 0.08104 0.25754 0.61599 0.0
C112 C 0.05262 0.2467 0.62319 0.0
C113 C 0.03978 0.22159 0.634 0.0
C114 C 0.05582 0.20686 0.63664 0.0
C115 C 0.0843 0.21761 0.62917 0.0
C116 C 0.15683 0.24618 0.62241 0.0
C117 C 0.17372 0.26008 0.63789 0.0
C118 C 0.19437 0.25282 0.64451 0.0
C119 C 0.19841 0.23127 0.63587 0.0
C120 C 0.1797 0.21568 0.62122 0.0
C121 C 0.159 0.22306 0.61456 0.0
C122 C 0.14108 0.26299 0.58749 0.0
C123 C 0.1202 0.26375 0.57577 0.0
C124 C 0.12769 0.27266 0.55783 0.0
C125 C 0.15627 0.281 0.5512 0.0
C126 C 0.17635 0.27832 0.56271 0.0
C127 C 0.16902 0.26992 0.58065 0.0
P128 P 0.79674 0.89909 0.58247 0.0
H129 H 0.84111 0.96097 0.58615 0.0
H130 H 0.84155 0.00148 0.60242 0.0
H131 H 0.75325 0.94301 0.62235 0.0
H132 H 0.75309 0.90223 0.60619 0.0
H133 H 0.7746 0.83787 0.57387 0.0
H134 H 0.771 0.79751 0.59143 0.0
H135 H 0.79963 0.85275 0.63911 0.0
H136 H 0.80398 0.89334 0.62125 0.0
H137 H 0.80268 0.90619 0.54339 0.0
H138 H 0.73151 0.86761 0.58209 0.0
O139 O 0.83034 0.9108 0.57358 0.0
H140 H 0.76623 0.89076 0.5189 0.0
H141 H 0.69485 0.85272 0.55756 0.0
C142 C 0.79709 0.92856 0.595 0.0
C143 C 0.82188 0.95672 0.59409 0.0
C144 C 0.82214 0.97988 0.60341 0.0
C145 C 0.79744 0.97534 0.61366 0.0
C146 C 0.77247 0.94712 0.61443 0.0
C147 C 0.77238 0.92385 0.60523 0.0
C148 C 0.78893 0.8684 0.59634 0.0
C149 C 0.77943 0.8411 0.5882 0.0
C150 C 0.77732 0.81799 0.59828 0.0
C151 C 0.78497 0.82184 0.61671 0.0
C152 C 0.79381 0.84912 0.62492 0.0
C153 C 0.79601 0.87227 0.61477 0.0
C154 C 0.76978 0.88801 0.56455 0.0
C155 C 0.77923 0.89444 0.54664 0.0
C156 C 0.7584 0.88557 0.53265 0.0
C157 C 0.72778 0.87049 0.53638 0.0
C158 C 0.71835 0.86447 0.55437 0.0
C159 C 0.73924 0.873 0.56836 0.0
P160 P 0.1286 0.85646 0.60213 0.0
H161 H 0.1422 0.88013 0.63863 0.0
H162 H 0.16768 0.93006 0.65092 0.0
H163 H 0.17513 0.96383 0.59726 0.0
H164 H 0.14837 0.91386 0.58507 0.0
H165 H 0.08951 0.79383 0.59808 0.0
H166 H 0.04193 0.75925 0.61116 0.0
H167 H 0.03977 0.83022 0.6393 0.0
H168 H 0.08613 0.86489 0.62475 0.0
H169 H 0.17966 0.88654 0.57857 0.0
H170 H 0.08638 0.82366 0.57215 0.0
O171 O 0.14989 0.84413 0.61074 0.0
H172 H 0.18756 0.88191 0.54668 0.0
H173 H 0.09447 0.8166 0.54067 0.0
C174 C 0.14363 0.8932 0.61092 0.0
C175 C 0.14878 0.89824 0.62954 0.0
C176 C 0.16329 0.92672 0.63655 0.0
C177 C 0.17347 0.95069 0.62499 0.0
C178 C 0.16762 0.94565 0.6064 0.0
C179 C 0.15242 0.91708 0.59944 0.0
C180 C 0.09141 0.83202 0.61024 0.0
C181 C 0.07843 0.80203 0.60672 0.0
C182 C 0.05135 0.78216 0.61456 0.0
C183 C 0.03698 0.79164 0.62672 0.0
C184 C 0.04983 0.8219 0.62995 0.0
C185 C 0.07665 0.84188 0.6217 0.0
C186 C 0.13247 0.85546 0.57788 0.0
C187 C 0.16079 0.87175 0.57027 0.0
C188 C 0.16535 0.86866 0.55198 0.0
C189 C 0.14185 0.84833 0.5409 0.0
C190 C 0.11321 0.83267 0.54853 0.0
C191 C 0.10855 0.83642 0.56675 0.0
P192 P 0.95269 0.47884 0.74432 0.0
H193 H 0.95783 0.45089 0.71176 0.0
H194 H 0.93047 0.40084 0.70021 0.0
H195 H 0.87063 0.37621 0.74547 0.0
H196 H 0.89838 0.42673 0.75711 0.0
H197 H 0.98014 0.53748 0.72964 0.0
H198 H 0.9604 0.56877 0.72084 0.0
H199 H 0.87182 0.50079 0.73487 0.0
H200 H 0.89182 0.46927 0.74355 0.0
H201 H 0.95576 0.43927 0.77058 0.0
H202 H 0.96185 0.52368 0.77094 0.0
O203 O 0.98687 0.49271 0.73585 0.0
H204 H 0.97086 0.44605 0.80238 0.0
H205 H 0.97703 0.53056 0.80259 0.0
C206 C 0.93064 0.44225 0.73555 0.0
C207 C 0.93884 0.4348 0.71923 0.0
C208 C 0.92314 0.40623 0.7126 0.0
C209 C 0.89868 0.38464 0.72206 0.0
C210 C 0.88941 0.39248 0.73792 0.0
C211 C 0.90535 0.42119 0.74464 0.0
C212 C 0.93738 0.50091 0.73698 0.0
C213 C 0.95643 0.52912 0.73066 0.0
C214 C 0.94514 0.5471 0.72577 0.0
C215 C 0.91456 0.53726 0.72722 0.0
C216 C 0.89542 0.50883 0.73344 0.0
C217 C 0.90682 0.49084 0.73842 0.0
C218 C 0.95697 0.48064 0.76847 0.0
C219 C 0.9594 0.45883 0.77763 0.0
C220 C 0.96811 0.46275 0.79579 0.0
C221 C 0.97518 0.48887 0.80493 0.0
C222 C 0.97186 0.51028 0.79585 0.0
C223 C 0.96292 0.50623 0.77778 0.0
P224 P 0.58326 0.43322 0.76644 0.0
H225 H 0.57349 0.37392 0.76205 0.0
H226 H 0.53718 0.33121 0.74494 0.0
H227 H 0.49647 0.37992 0.72571 0.0
H228 H 0.5334 0.42306 0.74282 0.0
H229 H 0.61111 0.43315 0.73255 0.0
H230 H 0.64817 0.47195 0.71383 0.0
H231 H 0.64419 0.53624 0.74837 0.0
H232 H 0.60572 0.49728 0.76616 0.0
H233 H 0.52127 0.40795 0.77932 0.0
H234 H 0.60835 0.47798 0.79483 0.0
O235 O 0.60653 0.42442 0.77637 0.0
H236 H 0.50007 0.4174 0.80614 0.0
H237 H 0.58688 0.48803 0.82146 0.0
C238 C 0.55609 0.40168 0.75377 0.0
C239 C 0.55687 0.37557 0.75415 0.0
C240 C 0.53613 0.35114 0.74429 0.0
C241 C 0.514 0.35222 0.73396 0.0
C242 C 0.51316 0.3784 0.73365 0.0
C243 C 0.53425 0.40303 0.74335 0.0
C244 C 0.60568 0.46214 0.7509 0.0
C245 C 0.61764 0.45559 0.73581 0.0
C246 C 0.6392 0.47791 0.72523 0.0
C247 C 0.64978 0.50744 0.7297 0.0
C248 C 0.63662 0.51386 0.74435 0.0
C249 C 0.6147 0.49144 0.75477 0.0
C250 C 0.56639 0.44294 0.78459 0.0
C251 C 0.5358 0.42591 0.78813 0.0
C252 C 0.52365 0.43113 0.8036 0.0
C253 C 0.5418 0.45356 0.81582 0.0
C254 C 0.5723 0.4709 0.81213 0.0
C255 C 0.58452 0.4653 0.79682 0.0
P256 P 0.53975 0.07544 0.75043 0.0
H257 H 0.51508 0.06926 0.71425 0.0
H258 H 0.48619 0.08854 0.69992 0.0
H259 H 0.49814 0.14166 0.74719 0.0
H260 H 0.52701 0.12197 0.76163 0.0
H261 H 0.58516 0.06573 0.7666 0.0
H262 H 0.63481 0.07768 0.75682 0.0
H263 H 0.63017 0.12962 0.71371 0.0
H264 H 0.58052 0.11801 0.72385 0.0
H265 H 0.48407 0.03562 0.7675 0.0
H266 H 0.57154 0.10158 0.78523 0.0
O267 O 0.52463 0.04216 0.74109 0.0
H268 H 0.46878 0.02295 0.79864 0.0
H269 H 0.55617 0.08934 0.81684 0.0
C270 C 0.52274 0.09373 0.73916 0.0
C271 C 0.51174 0.08523 0.72153 0.0
C272 C 0.49517 0.09624 0.71333 0.0
C273 C 0.48954 0.11636 0.72249 0.0
C274 C 0.50213 0.12623 0.73977 0.0
C275 C 0.51855 0.11493 0.74806 0.0
C276 C 0.57924 0.09148 0.74628 0.0
C277 C 0.59519 0.08058 0.75546 0.0
C278 C 0.62348 0.08708 0.74965 0.0
C279 C 0.63641 0.10434 0.73432 0.0
C280 C 0.62102 0.11646 0.72564 0.0
C281 C 0.59259 0.10987 0.73148 0.0
C282 C 0.52906 0.06922 0.77397 0.0
C283 C 0.49998 0.0476 0.77816 0.0
C284 C 0.49119 0.0405 0.79608 0.0
C285 C 0.51118 0.05508 0.81041 0.0
C286 C 0.54027 0.07736 0.80619 0.0
C287 C 0.54907 0.0845 0.78811 0.0
P288 P 0.80381 0.60368 0.94476 0.0
H289 H 0.78393 0.61846 0.97779 0.0
H290 H 0.73472 0.60397 0.98973 0.0
H291 H 0.69434 0.5389 0.94746 0.0
H292 H 0.74409 0.55361 0.93546 0.0
H293 H 0.84473 0.62204 0.9752 0.0
H294 H 0.88114 0.60891 0.98527 0.0
H295 H 0.84963 0.54074 0.94464 0.0
H296 H 0.81282 0.55412 0.93451 0.0
H297 H 0.7622 0.60735 0.91986 0.0
H298 H 0.84375 0.60479 0.91612 0.0
O299 O 0.82126 0.63911 0.95033 0.0
H300 H 0.76621 0.62047 0.88814 0.0
H301 H 0.84791 0.61807 0.88433 0.0
C302 C 0.76768 0.58771 0.95542 0.0
C303 C 0.7646 0.60078 0.97119 0.0
C304 C 0.7364 0.59251 0.97801 0.0
C305 C 0.7106 0.57068 0.96935 0.0
C306 C 0.7138 0.55584 0.95441 0.0
C307 C 0.7422 0.5643 0.9475 0.0
C308 C 0.82662 0.58966 0.95373 0.0
C309 C 0.84538 0.60411 0.96848 0.0
C310 C 0.86629 0.59662 0.97423 0.0
C311 C 0.86872 0.57419 0.96552 0.0
C312 C 0.84839 0.55821 0.95157 0.0
C313 C 0.82743 0.56589 0.94573 0.0
C314 C 0.80204 0.60393 0.92037 0.0
C315 C 0.7803 0.60832 0.91208 0.0
C316 C 0.78284 0.61627 0.89394 0.0
C317 C 0.80744 0.62042 0.88369 0.0
C318 C 0.82847 0.61462 0.89174 0.0
C319 C 0.82598 0.60682 0.90997 0.0
P320 P 0.48269 0.23705 0.91272 0.0
H321 H 0.53148 0.28768 0.93042 0.0
H322 H 0.53384 0.32594 0.95005 0.0
H323 H 0.43786 0.28443 0.94833 0.0
H324 H 0.43585 0.24678 0.92806 0.0
H325 H 0.51487 0.20489 0.91332 0.0
H326 H 0.50978 0.16437 0.93156 0.0
H327 H 0.43468 0.16069 0.95892 0.0
H328 H 0.44058 0.20227 0.9412 0.0
H329 H 0.48556 0.24978 0.87431 0.0
H330 H 0.41736 0.1985 0.91288 0.0
O331 O 0.51567 0.25153 0.9025 0.0
H332 H 0.44849 0.23201 0.85031 0.0
H333 H 0.37981 0.18168 0.88907 0.0
C334 C 0.48356 0.26476 0.9274 0.0
C335 C 0.51094 0.28691 0.93414 0.0
C336 C 0.51222 0.30862 0.94559 0.0
C337 C 0.48605 0.30839 0.95078 0.0
C338 C 0.45851 0.28562 0.94436 0.0
C339 C 0.45729 0.26398 0.93278 0.0
C340 C 0.4781 0.20664 0.92588 0.0
C341 C 0.49736 0.19556 0.92326 0.0
C342 C 0.49446 0.17241 0.93365 0.0
C343 C 0.47184 0.15957 0.94653 0.0
C344 C 0.45217 0.17025 0.94895 0.0
C345 C 0.45551 0.19389 0.93881 0.0
C346 C 0.4544 0.22525 0.89542 0.0
C347 C 0.46255 0.2349 0.87769 0.0
C348 C 0.44117 0.2249 0.86394 0.0
C349 C 0.41102 0.20533 0.86767 0.0
C350 C 0.40284 0.19632 0.8856 0.0
C351 C 0.42435 0.20611 0.89931 0.0
P352 P 0.79815 0.1924 0.94487 0.0
H353 H 0.80927 0.21772 0.98097 0.0
H354 H 0.83155 0.26809 0.99224 0.0
H355 H 0.8377 0.29832 0.9377 0.0
H356 H 0.81444 0.24786 0.92649 0.0
H357 H 0.76192 0.12962 0.93993 0.0
H358 H 0.71406 0.093 0.95177 0.0
H359 H 0.70704 0.16075 0.98071 0.0
H360 H 0.75361 0.19735 0.96744 0.0
H361 H 0.8499 0.21901 0.92155 0.0
H362 H 0.75518 0.1624 0.91486 0.0
O363 O 0.82117 0.18265 0.95406 0.0
H364 H 0.85715 0.21265 0.88952 0.0
H365 H 0.76253 0.15512 0.88303 0.0
C366 C 0.81035 0.22902 0.9529 0.0
C367 C 0.81478 0.23512 0.97147 0.0
C368 C 0.82738 0.26384 0.9779 0.0
C369 C 0.83633 0.28699 0.96582 0.0
C370 C 0.831 0.28078 0.94727 0.0
C371 C 0.81781 0.25195 0.94086 0.0
C372 C 0.76136 0.16627 0.95265 0.0
C373 C 0.74977 0.13661 0.94856 0.0
C374 C 0.72251 0.11559 0.95564 0.0
C375 C 0.70657 0.12362 0.96752 0.0
C376 C 0.71827 0.15354 0.97149 0.0
C377 C 0.74524 0.17464 0.96399 0.0
C378 C 0.80209 0.19084 0.92071 0.0
C379 C 0.83064 0.20547 0.91316 0.0
C380 C 0.83476 0.2019 0.89487 0.0
C381 C 0.81042 0.18321 0.88386 0.0
C382 C 0.78169 0.16944 0.89128 0.0
C383 C 0.77752 0.17352 0.90951 0.0
P384 P 0.61851 0.80796 0.0779 0.0
H385 H 0.60543 0.77815 0.04294 0.0
H386 H 0.58364 0.72669 0.03416 0.0
H387 H 0.5687 0.70226 0.09018 0.0
H388 H 0.58953 0.75344 0.09893 0.0
H389 H 0.61315 0.85297 0.09833 0.0
H390 H 0.58986 0.88162 0.09139 0.0
H391 H 0.55544 0.83293 0.04153 0.0
H392 H 0.57699 0.80276 0.04931 0.0
H393 H 0.67682 0.82282 0.09231 0.0
H394 H 0.59095 0.80122 0.11354 0.0
O395 O 0.64764 0.82503 0.06419 0.0
H396 H 0.6961 0.82733 0.12287 0.0
H397 H 0.61001 0.80524 0.14432 0.0
C398 C 0.59926 0.7698 0.07159 0.0
C399 C 0.59691 0.76171 0.05333 0.0
C400 C 0.58451 0.73233 0.04832 0.0
C401 C 0.57471 0.71062 0.06152 0.0
C402 C 0.57636 0.71866 0.07977 0.0
C403 C 0.58826 0.74799 0.08475 0.0
C404 C 0.59625 0.82503 0.07461 0.0
C405 C 0.59959 0.84751 0.08627 0.0
C406 C 0.58667 0.86439 0.08207 0.0
C407 C 0.57108 0.86001 0.06572 0.0
C408 C 0.56692 0.8368 0.05433 0.0
C409 C 0.57938 0.8195 0.05876 0.0
C410 C 0.63264 0.81233 0.10065 0.0
C411 C 0.66213 0.81924 0.10356 0.0
C412 C 0.67307 0.82154 0.12107 0.0
C413 C 0.65461 0.81667 0.13605 0.0
C414 C 0.62493 0.80956 0.13308 0.0
C415 C 0.61401 0.80724 0.11552 0.0
P416 P 0.24237 0.76978 0.1025 0.0
H417 H 0.22456 0.75721 0.06391 0.0
H418 H 0.18097 0.71717 0.04917 0.0
H419 H 0.14106 0.68511 0.10114 0.0
H420 H 0.18512 0.72478 0.11594 0.0
H421 H 0.2757 0.76768 0.07152 0.0
H422 H 0.3148 0.80512 0.05309 0.0
H423 H 0.31022 0.8719 0.08472 0.0
H424 H 0.26976 0.83418 0.10222 0.0
H425 H 0.25958 0.77501 0.14064 0.0
H426 H 0.20492 0.79624 0.10747 0.0
O427 O 0.25782 0.75055 0.10965 0.0
H428 H 0.24391 0.79064 0.16754 0.0
H429 H 0.18899 0.81187 0.13442 0.0
C430 C 0.20826 0.74411 0.0911 0.0
C431 C 0.20649 0.74184 0.07222 0.0
C432 C 0.18148 0.71891 0.06376 0.0
C433 C 0.15768 0.698 0.07402 0.0
C434 C 0.15893 0.70106 0.09289 0.0
C435 C 0.18413 0.72374 0.10134 0.0
C436 C 0.26942 0.798 0.0881 0.0
C437 C 0.28266 0.7904 0.0742 0.0
C438 C 0.30538 0.81194 0.0638 0.0
C439 C 0.31605 0.84178 0.06738 0.0
C440 C 0.30239 0.84927 0.08124 0.0
C441 C 0.27924 0.82761 0.09143 0.0
C442 C 0.23322 0.78426 0.12206 0.0
C443 C 0.2443 0.78318 0.13912 0.0
C444 C 0.2352 0.79198 0.15452 0.0
C445 C 0.21499 0.80225 0.15315 0.0
C446 C 0.2047 0.80422 0.13593 0.0
C447 C 0.21371 0.79523 0.12053 0.0
P448 P 0.19844 0.40427 0.07913 0.0
H449 H 0.21348 0.45064 0.05228 0.0
H450 H 0.18443 0.47194 0.0404 0.0
H451 H 0.11752 0.42629 0.08083 0.0
H452 H 0.14649 0.40523 0.09262 0.0
H453 H 0.21622 0.38701 0.04613 0.0
H454 H 0.2643 0.39873 0.03365 0.0
H455 H 0.30888 0.4607 0.07696 0.0
H456 H 0.26012 0.44838 0.0898 0.0
H457 H 0.19036 0.35366 0.09891 0.0
H458 H 0.20488 0.43941 0.11214 0.0
O459 O 0.17512 0.37191 0.06967 0.0
H460 H 0.18051 0.33992 0.13061 0.0
H461 H 0.1955 0.4257 0.14422 0.0
C462 C 0.18247 0.42676 0.0736 0.0
C463 C 0.19307 0.44599 0.05897 0.0
C464 C 0.17639 0.45808 0.05213 0.0
C465 C 0.14856 0.45054 0.05957 0.0
C466 C 0.13874 0.43229 0.0747 0.0
C467 C 0.15548 0.42051 0.0816 0.0
C468 C 0.23452 0.4163 0.06917 0.0
C469 C 0.23621 0.40321 0.05301 0.0
C470 C 0.26374 0.40998 0.0458 0.0
C471 C 0.2903 0.43044 0.0544 0.0
C472 C 0.28871 0.44489 0.07005 0.0
C473 C 0.26094 0.43777 0.07743 0.0
C474 C 0.19775 0.39736 0.10307 0.0
C475 C 0.19199 0.36976 0.10868 0.0
C476 C 0.18642 0.3619 0.1268 0.0
C477 C 0.18711 0.3817 0.1398 0.0
C478 C 0.19495 0.4101 0.13444 0.0
C479 C 0.20022 0.4179 0.11614 0.0
P480 P 0.46539 0.93454 0.27868 0.0
H481 H 0.42468 0.87623 0.2941 0.0
H482 H 0.37375 0.85448 0.30592 0.0
H483 H 0.37117 0.9319 0.29092 0.0
H484 H 0.42168 0.95329 0.2792 0.0
H485 H 0.49725 0.94567 0.3128 0.0
H486 H 0.53402 0.93341 0.32379 0.0
H487 H 0.51849 0.87868 0.27683 0.0
H488 H 0.48177 0.89139 0.26569 0.0
H489 H 0.51637 0.96962 0.25622 0.0
H490 H 0.42368 0.90642 0.24784 0.0
O491 O 0.48057 0.96885 0.28638 0.0
H492 H 0.52254 0.97906 0.22401 0.0
H493 H 0.4298 0.91492 0.21526 0.0
C494 C 0.42707 0.91651 0.28595 0.0
C495 C 0.41304 0.88839 0.29328 0.0
C496 C 0.38395 0.876 0.30003 0.0
C497 C 0.36855 0.89166 0.29964 0.0
C498 C 0.38257 0.91951 0.29182 0.0
C499 C 0.4114 0.93168 0.28498 0.0
C500 C 0.4872 0.91992 0.28825 0.0
C501 C 0.50137 0.93069 0.30495 0.0
C502 C 0.52243 0.92371 0.31123 0.0
C503 C 0.52941 0.90541 0.30105 0.0
C504 C 0.51354 0.89284 0.28495 0.0
C505 C 0.49263 0.90014 0.27856 0.0
C506 C 0.46956 0.93754 0.25446 0.0
C507 C 0.49741 0.95737 0.24735 0.0
C508 C 0.50094 0.96258 0.22882 0.0
C509 C 0.47668 0.94781 0.21686 0.0
C510 C 0.44891 0.92707 0.22403 0.0
C511 C 0.44539 0.922 0.24267 0.0
P512 P 0.12793 0.56716 0.25325 0.0
H513 H 0.17342 0.61811 0.27303 0.0
H514 H 0.17138 0.65538 0.29161 0.0
H515 H 0.07546 0.60867 0.28673 0.0
H516 H 0.07783 0.57168 0.26778 0.0
H517 H 0.12814 0.51562 0.2395 0.0
H518 H 0.12663 0.47364 0.25418 0.0
H519 H 0.11824 0.50668 0.30601 0.0
H520 H 0.11941 0.54845 0.29125 0.0
H521 H 0.12243 0.60431 0.22696 0.0
H522 H 0.07494 0.51272 0.24007 0.0
O523 O 0.1617 0.5837 0.24401 0.0
H524 H 0.08869 0.59466 0.20145 0.0
H525 H 0.04161 0.50289 0.2143 0.0
C526 C 0.12583 0.59251 0.26874 0.0
C527 C 0.15194 0.61578 0.27605 0.0
C528 C 0.1507 0.63698 0.28681 0.0
C529 C 0.12325 0.63517 0.29056 0.0
C530 C 0.09699 0.611 0.28384 0.0
C531 C 0.09828 0.58979 0.27308 0.0
C532 C 0.12347 0.53494 0.26422 0.0
C533 C 0.12542 0.51353 0.25399 0.0
C534 C 0.1245 0.48955 0.26239 0.0
C535 C 0.12225 0.48686 0.28124 0.0
C536 C 0.1201 0.50826 0.29146 0.0
C537 C 0.12062 0.53208 0.28301 0.0
C538 C 0.10156 0.55922 0.23522 0.0
C539 C 0.10473 0.58213 0.22435 0.0
C540 C 0.08538 0.57662 0.20985 0.0
C541 C 0.06265 0.548 0.20586 0.0
C542 C 0.05918 0.52511 0.21697 0.0
C543 C 0.07831 0.53072 0.23167 0.0
P544 P 0.46736 0.53118 0.27374 0.0
H545 H 0.51591 0.56174 0.29982 0.0
H546 H 0.54236 0.61192 0.3111 0.0
H547 H 0.4823 0.63061 0.28147 0.0
H548 H 0.45586 0.57999 0.26993 0.0
H549 H 0.42843 0.46858 0.26976 0.0
H550 H 0.3811 0.4339 0.2829 0.0
H551 H 0.37864 0.50445 0.31129 0.0
H552 H 0.42522 0.53943 0.29686 0.0
H553 H 0.51209 0.57635 0.25092 0.0
H554 H 0.43255 0.49278 0.24288 0.0
O555 O 0.48764 0.51626 0.28003 0.0
H556 H 0.52438 0.57709 0.21925 0.0
H557 H 0.44575 0.4925 0.21142 0.0
C558 C 0.48393 0.56712 0.28397 0.0
C559 C 0.50815 0.57642 0.29582 0.0
C560 C 0.52338 0.60519 0.30222 0.0
C561 C 0.51456 0.62522 0.29703 0.0
C562 C 0.48951 0.61558 0.28573 0.0
C563 C 0.47443 0.58675 0.27914 0.0
C564 C 0.43017 0.50677 0.28185 0.0
C565 C 0.41726 0.4768 0.27827 0.0
C566 C 0.39037 0.45683 0.28621 0.0
C567 C 0.37609 0.46616 0.29852 0.0
C568 C 0.38876 0.49637 0.30182 0.0
C569 C 0.41555 0.51649 0.29354 0.0
C570 C 0.47126 0.53457 0.24948 0.0
C571 C 0.49684 0.55837 0.24232 0.0
C572 C 0.50415 0.55856 0.22416 0.0
C573 C 0.48644 0.53456 0.21276 0.0
C574 C 0.45991 0.51144 0.21971 0.0
C575 C 0.45241 0.51147 0.23788 0.0
Tb576 Tb 0.48295 0.98115 0.99391 0.0
C577 C 0.55519 0.08801 0.04278 0.0
C578 C 0.60604 0.09859 0.04043 0.0
C579 C 0.59577 0.13809 0.04585 0.0
C580 C 0.57519 0.07858 0.0399 0.0
C581 C 0.56513 0.11778 0.04613 0.0
C582 C 0.61622 0.12849 0.043 0.0
C583 C 0.51396 0.10472 0.05107 0.0
N584 N 0.52587 0.06763 0.04305 0.0
C585 C 0.50525 0.07541 0.04776 0.0
C586 C 0.544 0.12606 0.05005 0.0
Tb587 Tb 0.51347 0.02036 0.0364 0.0
N588 N 0.56436 0.0495 0.03766 0.0
C589 C 0.58348 0.03878 0.03725 0.0
C590 C 0.62567 0.08782 0.03891 0.0
C591 C 0.61431 0.05773 0.03762 0.0
H592 H 0.48194 0.05916 0.04844 0.0
H593 H 0.62927 0.04908 0.03678 0.0
H594 H 0.63983 0.14426 0.04326 0.0
H595 H 0.49748 0.11082 0.05438 0.0
H596 H 0.57528 0.01569 0.03602 0.0
H597 H 0.36817 0.95579 0.99513 0.0
H598 H 0.64954 0.10244 0.03919 0.0
H599 H 0.51195 0.94124 0.97974 0.0
H600 H 0.42237 0.98802 0.99502 0.0
H601 H 0.49479 0.88931 0.97325 0.0
H602 H 0.60389 0.16112 0.04823 0.0
H603 H 0.34638 0.9022 0.99286 0.0
H604 H 0.35438 0.85937 0.98829 0.0
H605 H 0.5507 0.14872 0.05268 0.0
H606 H 0.38895 0.84118 0.98212 0.0
N607 N 0.43191 0.95324 0.99309 0.0
C608 C 0.4135 0.96479 0.99389 0.0
C609 C 0.37034 0.9163 0.99276 0.0
C610 C 0.3892 0.90472 0.99075 0.0
C611 C 0.38256 0.94652 0.99399 0.0
C612 C 0.42019 0.92406 0.99078 0.0
H613 H 0.44142 0.8523 0.9761 0.0
N614 N 0.46881 0.93372 0.98652 0.0
C615 C 0.47896 0.89591 0.97726 0.0
C616 C 0.4394 0.9139 0.98731 0.0
C617 C 0.48858 0.92535 0.98087 0.0
C618 C 0.44884 0.87507 0.97895 0.0
C619 C 0.42854 0.88402 0.98375 0.0
O620 O 0.5024 0.98599 0.96823 0.0
O621 O 0.52051 0.01497 0.00838 0.0
O622 O 0.51256 0.05082 0.01723 0.0
O623 O 0.47494 0.01826 0.99781 0.0
O624 O 0.52946 0.99307 0.98908 0.0
O625 O 0.46969 0.9988 0.97298 0.0
O626 O 0.49429 0.01585 0.0621 0.0
O627 O 0.47606 0.98582 0.02209 0.0
O628 O 0.48687 0.95093 0.01229 0.0
O629 O 0.52255 0.98418 0.0326 0.0
O630 O 0.46678 0.00805 0.04091 0.0
O631 O 0.52782 0.00401 0.05753 0.0
C632 C 0.54159 0.01396 1.00072 0.0
C633 C 0.47313 0.98435 0.94324 0.0
C634 C 0.47262 0.99004 0.91045 0.0
C635 C 0.48633 1.00043 0.92747 0.0
C636 C 0.44581 0.96316 0.9095 0.0
C637 C 0.44653 0.95754 0.94186 0.0
C638 C 0.43302 0.94703 0.92506 0.0
C639 C 0.49249 0.04498 1.00445 0.0
C640 C 0.48671 0.9963 0.96105 0.0
C641 C 0.39778 0.8643 0.98462 0.0
C642 C 0.37811 0.87465 0.98813 0.0
C643 C 0.4548 0.98668 0.02959 0.0
C644 C 0.52524 0.02041 0.0868 0.0
C645 C 0.51638 0.00401 0.10279 0.0
C646 C 0.53126 0.01653 0.1192 0.0
C647 C 0.55464 0.04567 0.11946 0.0
C648 C 0.54847 0.04952 0.08744 0.0
C649 C 0.563 0.06207 0.1037 0.0
C650 C 0.50712 0.9577 0.02519 0.0
C651 C 0.5109 0.00672 0.06946 0.0
H652 H 0.50682 0.02125 0.9285 0.0
H653 H 0.43489 0.9544 0.89663 0.0
H654 H 0.43608 0.94487 0.95378 0.0
H655 H 0.41245 0.92632 0.92411 0.0
H656 H 0.49856 0.98143 0.10239 0.0
H657 H 0.56638 0.05579 0.13192 0.0
H658 H 0.55556 0.06247 0.07539 0.0
H659 H 0.58099 0.08452 0.10406 0.0
Tb660 Tb 0.02524 0.50576 0.98884 0.0
C661 C 0.91051 0.46813 0.03222 0.0
C662 C 0.90084 0.50799 0.02869 0.0
C663 C 0.8597 0.45882 0.03352 0.0
C664 C 0.92077 0.4972 0.02915 0.0
C665 C 0.87995 0.44864 0.03496 0.0
C666 C 0.87015 0.4885 0.03037 0.0
C667 C 0.89224 0.41151 0.04229 0.0
N668 N 0.93086 0.45941 0.03377 0.0
C669 C 0.92232 0.43176 0.03947 0.0
C670 C 0.87088 0.41984 0.03972 0.0
Tb671 Tb 0.97961 0.49369 0.02859 0.0
N672 N 0.95058 0.51522 0.02785 0.0
C673 C 0.96206 0.54484 0.02756 0.0
C674 C 0.91244 0.5381 0.02721 0.0
C675 C 0.94322 0.55664 0.02697 0.0
H676 H 0.9386 0.42498 0.04133 0.0
H677 H 0.9525 0.58004 0.02621 0.0
H678 H 0.85443 0.49629 0.02982 0.0
H679 H 0.88556 0.38947 0.04634 0.0
H680 H 0.98574 0.55963 0.02723 0.0
H681 H 0.05802 0.42338 0.98948 0.0
H682 H 0.89791 0.5473 0.02674 0.0
H683 H 0.06394 0.57615 0.97881 0.0
H684 H 0.02263 0.44134 0.98868 0.0
H685 H 0.11657 0.61389 0.975 0.0
H686 H 0.83608 0.44414 0.03537 0.0
H687 H 0.1122 0.4583 0.98969 0.0
H688 H 0.15395 0.51038 0.98774 0.0
H689 H 0.84761 0.40416 0.04196 0.0
H690 H 0.16996 0.56236 0.98357 0.0
N691 N 0.05618 0.48639 0.989 0.0
C692 C 0.04612 0.45701 0.98871 0.0
C693 C 0.09673 0.46639 0.98934 0.0
C694 C 0.10691 0.49633 0.98846 0.0
C695 C 0.06618 0.44663 0.98917 0.0
C696 C 0.0858 0.50568 0.98814 0.0
H697 H 0.15612 0.60112 0.97841 0.0
N698 N 0.07346 0.54229 0.98468 0.0
C699 C 0.11076 0.59171 0.97811 0.0
C700 C 0.09479 0.53472 0.98581 0.0
C701 C 0.08091 0.5702 0.98023 0.0
C702 C 0.13303 0.58444 0.98009 0.0
C703 C 0.12515 0.55554 0.98374 0.0
O704 O 0.0218 0.52046 0.96317 0.0
O705 O 0.98741 0.50587 1.00074 0.0
O706 O 0.95177 0.45948 0.00877 0.0
O707 O 0.98893 0.46015 0.99055 0.0
O708 O 0.01164 0.53827 0.98314 0.0
O709 O 0.0142 0.47688 0.96675 0.0
O710 O 0.98233 0.47891 0.05444 0.0
O711 O 0.01657 0.49213 0.01653 0.0
O712 O 0.05351 0.53646 0.00965 0.0
O713 O 0.01754 0.53921 0.02695 0.0
O714 O 0.99145 0.46024 0.03447 0.0
O715 O 0.99352 0.52352 0.0503 0.0
C716 C 0.98832 0.52738 0.99305 0.0
C717 C 0.03274 0.49898 0.93861 0.0
C718 C 0.03357 0.49662 0.90575 0.0
C719 C 0.01792 0.49283 0.92191 0.0
C720 C 0.0642 0.50635 0.90653 0.0
C721 C 0.06324 0.50842 0.93913 0.0
C722 C 0.07886 0.51205 0.92315 0.0
C723 C 0.96092 0.44778 0.99612 0.0
C724 C 0.01612 0.49614 0.95521 0.0
C725 C 0.14647 0.54666 0.98492 0.0
C726 C 0.13736 0.51708 0.9873 0.0
C727 C 0.01439 0.47002 0.02429 0.0
C728 C 0.97482 0.50337 0.07883 0.0
C729 C 0.98876 0.5052 0.09539 0.0
C730 C 0.97534 0.50586 0.11172 0.0
C731 C 0.94756 0.50442 0.11126 0.0
C732 C 0.94702 0.50175 0.07859 0.0
C733 C 0.93346 0.50222 0.09476 0.0
C734 C 0.04561 0.54965 0.02186 0.0
C735 C 0.99019 0.50401 0.06207 0.0
H736 H 0.99437 0.48573 0.92149 0.0
H737 H 0.07673 0.50929 0.89428 0.0
H738 H 0.075 0.51312 0.95182 0.0
H739 H 0.10242 0.51941 0.92364 0.0
H740 H 0.01043 0.5068 0.09552 0.0
H741 H 0.93667 0.50477 0.12364 0.0
H742 H 0.93596 0.50039 0.06597 0.0
H743 H 0.91203 0.50102 0.09451 0.0
Tb744 Tb 0.51095 0.49121 0.02845 0.0
C745 C 0.44851 0.53734 0.97917 0.0
C746 C 0.39626 0.50158 0.98177 0.0
C747 C 0.41143 0.5521 0.97524 0.0
C748 C 0.42644 0.50914 0.98242 0.0
C749 C 0.44134 0.55906 0.97505 0.0
C750 C 0.3889 0.52338 0.97863 0.0
C751 C 0.49345 0.59197 0.96923 0.0
N752 N 0.47702 0.54302 0.97897 0.0
C753 C 0.4994 0.56964 0.97342 0.0
C754 C 0.46434 0.5868 0.9703 0.0
Tb755 Tb 0.48474 0.50529 0.98633 0.0
N756 N 0.43455 0.48875 0.98505 0.0
C757 C 0.41326 0.4598 0.98566 0.0
C758 C 0.37444 0.47223 0.98365 0.0
C759 C 0.383 0.4512 0.9853 0.0
H760 H 0.52201 0.574 0.9726 0.0
H761 H 0.36631 0.42833 0.98635 0.0
H762 H 0.36586 0.51808 0.97825 0.0
H763 H 0.51134 0.61317 0.96523 0.0
H764 H 0.41934 0.44318 0.987 0.0
H765 H 0.62828 0.57191 0.03167 0.0
H766 H 0.351 0.4655 0.9833 0.0
H767 H 0.47566 0.42115 0.0393 0.0
H768 H 0.57484 0.55496 0.03011 0.0
H769 H 0.48817 0.38254 0.04464 0.0
H770 H 0.40544 0.56853 0.97229 0.0
H771 H 0.64571 0.5362 0.03334 0.0
H772 H 0.63296 0.48376 0.03601 0.0
H773 H 0.45979 0.60411 0.96701 0.0
H774 H 0.59472 0.43203 0.03958 0.0
N775 N 0.56144 0.50967 0.03047 0.0
C776 C 0.58179 0.53893 0.03093 0.0
C777 C 0.62207 0.52853 0.03269 0.0
C778 C 0.60115 0.49871 0.03331 0.0
C779 C 0.61231 0.54874 0.03181 0.0
C780 C 0.57068 0.48995 0.03232 0.0
H781 H 0.54059 0.39409 0.04313 0.0
N782 N 0.52047 0.45416 0.03436 0.0
C783 C 0.50562 0.40454 0.04168 0.0
C784 C 0.54937 0.46108 0.03433 0.0
C785 C 0.49862 0.42651 0.0387 0.0
C786 C 0.53521 0.41111 0.04076 0.0
C787 C 0.55761 0.4398 0.03736 0.0
O788 O 0.48933 0.47638 0.05337 0.0
O789 O 0.47562 0.49306 0.0143 0.0
O790 O 0.49018 0.53955 1.00513 0.0
O791 O 0.52292 0.53759 0.02604 0.0
O792 O 0.46347 0.45991 0.03203 0.0
O793 O 0.52657 0.51995 0.05078 0.0
O794 O 0.50769 0.5165 0.96165 0.0
O795 O 0.52004 0.50377 1.00071 0.0
O796 O 0.50652 0.45824 0.00865 0.0
O797 O 0.47143 0.45889 0.98936 0.0
O798 O 0.53247 0.53621 0.98251 0.0
O799 O 0.46591 0.47658 0.96409 0.0
C800 C 0.45323 0.47175 0.02131 0.0
C801 C 0.5191 0.49774 0.07926 0.0
C802 C 0.51941 0.50089 0.11224 0.0
C803 C 0.50856 0.5036 0.09534 0.0
C804 C 0.54084 0.49199 0.11269 0.0
C805 C 0.54057 0.48912 0.08008 0.0
C806 C 0.55131 0.48622 0.09672 0.0
C807 C 0.50952 0.55088 0.01864 0.0
C808 C 0.50741 0.50064 0.06179 0.0
C809 C 0.58789 0.44807 0.03746 0.0
C810 C 0.60966 0.47752 0.03542 0.0
C811 C 0.54257 0.5249 0.99375 0.0
C812 C 0.47829 0.49894 0.93543 0.0
C813 C 0.49069 0.4943 0.91976 0.0
C814 C 0.4843 0.50137 0.9027 0.0
C815 C 0.46512 0.51284 0.9015 0.0
C816 C 0.45882 0.50998 0.93393 0.0
C817 C 0.45228 0.51687 0.91702 0.0
C818 C 0.48626 0.44641 0.99563 0.0
C819 C 0.48714 0.49358 0.95322 0.0
H820 H 0.49221 0.5106 0.09465 0.0
H821 H 0.54928 0.48911 0.1254 0.0
H822 H 0.549 0.4846 0.06792 0.0
H823 H 0.56777 0.47939 0.09726 0.0
H824 H 0.50587 0.4859 0.92086 0.0
H825 H 0.45985 0.51843 0.88852 0.0
H826 H 0.44886 0.51347 0.94577 0.0
H827 H 0.43736 0.52553 0.91596 0.0
Tb828 Tb 0.15722 0.31747 0.325 0.0
C829 C 0.21607 0.4233 0.3762 0.0
C830 C 0.2684 0.43851 0.37558 0.0
C831 C 0.25301 0.47439 0.38114 0.0
C832 C 0.23828 0.41657 0.3739 0.0
C833 C 0.22305 0.45212 0.38029 0.0
C834 C 0.27567 0.46759 0.37876 0.0
C835 C 0.17044 0.43421 0.38389 0.0
N836 N 0.18748 0.40112 0.37541 0.0
C837 C 0.16468 0.40595 0.37982 0.0
C838 C 0.19973 0.45748 0.3839 0.0
Tb839 Tb 0.18019 0.35574 0.36827 0.0
N840 N 0.23024 0.38816 0.37118 0.0
C841 C 0.25137 0.37993 0.37148 0.0
C842 C 0.29021 0.4304 0.37466 0.0
C843 C 0.2816 0.40091 0.3729 0.0
H844 H 0.14196 0.38814 0.37973 0.0
H845 H 0.29825 0.3943 0.37258 0.0
H846 H 0.2987 0.48482 0.37992 0.0
H847 H 0.15228 0.43803 0.38698 0.0
H848 H 0.24526 0.35729 0.37005 0.0
H849 H 0.03933 0.28083 0.32589 0.0
H850 H 0.31362 0.44658 0.37582 0.0
H851 H 0.19201 0.28413 0.30904 0.0
H852 H 0.09263 0.31712 0.32602 0.0
H853 H 0.1801 0.2338 0.30159 0.0
H854 H 0.25888 0.49676 0.38408 0.0
H855 H 0.0226 0.22819 0.32293 0.0
H856 H 0.03601 0.18905 0.31762 0.0
H857 H 0.20413 0.47932 0.38711 0.0
H858 H 0.07453 0.17612 0.31094 0.0
N859 N 0.1067 0.28558 0.32376 0.0
C860 C 0.08598 0.29435 0.32467 0.0
C861 C 0.04618 0.24407 0.32302 0.0
C862 C 0.06737 0.23537 0.32083 0.0
C863 C 0.05554 0.27376 0.32462 0.0
C864 C 0.09775 0.25696 0.32114 0.0
H865 H 0.12843 0.19279 0.30457 0.0
N866 N 0.14779 0.27165 0.31686 0.0
C867 C 0.16274 0.23792 0.30618 0.0
C868 C 0.11918 0.24969 0.31756 0.0
C869 C 0.16939 0.26642 0.31038 0.0
C870 C 0.13359 0.21482 0.30795 0.0
C871 C 0.11122 0.22064 0.31333 0.0
O872 O 0.18054 0.32783 0.30036 0.0
O873 O 0.19133 0.35326 0.34056 0.0
O874 O 0.1773 0.38531 0.34918 0.0
O875 O 0.14462 0.35166 0.328 0.0
O876 O 0.20487 0.33342 0.32223 0.0
O877 O 0.14058 0.32994 0.30295 0.0
O878 O 0.15669 0.34712 0.39271 0.0
O879 O 0.14679 0.31926 0.35293 0.0
O880 O 0.16628 0.28954 0.34252 0.0
O881 O 0.1933 0.32216 0.36617 0.0
O882 O 0.13203 0.33844 0.37062 0.0
O883 O 0.19605 0.34345 0.39075 0.0
C884 C 0.2142 0.3542 0.33399 0.0
C885 C 0.15139 0.31849 0.27404 0.0
C886 C 0.15263 0.32206 0.241 0.0
C887 C 0.16197 0.3353 0.25825 0.0
C888 C 0.13291 0.29167 0.24 0.0
C889 C 0.13141 0.28842 0.27254 0.0
C890 C 0.12236 0.27512 0.25562 0.0
C891 C 0.15856 0.37821 0.33544 0.0
C892 C 0.16128 0.33242 0.292 0.0
C893 C 0.08113 0.19867 0.31393 0.0
C894 C 0.05921 0.20603 0.31772 0.0
C895 C 0.12334 0.31674 0.3596 0.0
C896 C 0.18488 0.35554 0.41937 0.0
C897 C 0.1756 0.33807 0.43491 0.0
C898 C 0.18438 0.35084 0.45227 0.0
C899 C 0.20236 0.38145 0.4537 0.0
C900 C 0.20303 0.38587 0.42123 0.0
C901 C 0.21162 0.39871 0.4383 0.0
C902 C 0.18317 0.29699 0.35728 0.0
C903 C 0.1753 0.34186 0.40138 0.0
H904 H 0.17709 0.35863 0.25943 0.0
H905 H 0.12582 0.28048 0.22709 0.0
H906 H 0.12279 0.27519 0.28443 0.0
H907 H 0.10714 0.25182 0.25461 0.0
H908 H 0.16189 0.31457 0.43342 0.0
H909 H 0.20902 0.39218 0.46676 0.0
H910 H 0.21049 0.39964 0.40952 0.0
H911 H 0.22546 0.42219 0.43962 0.0
Tb912 Tb 0.69662 0.85018 0.32149 0.0
C913 C 0.57806 0.79578 0.36227 0.0
C914 C 0.56188 0.83135 0.3609 0.0
C915 C 0.52523 0.77965 0.36262 0.0
C916 C 0.58478 0.82436 0.3609 0.0
C917 C 0.54827 0.77306 0.36353 0.0
C918 C 0.53204 0.80879 0.36131 0.0
C919 C 0.56644 0.73955 0.3682 0.0
N920 N 0.60097 0.79046 0.36331 0.0
C921 C 0.59563 0.76292 0.36702 0.0
C922 C 0.54262 0.74457 0.36621 0.0
Tb923 Tb 0.648 0.82987 0.36038 0.0
N924 N 0.61387 0.84543 0.36062 0.0
C925 C 0.62159 0.87423 0.36178 0.0
C926 C 0.56971 0.86079 0.36102 0.0
C927 C 0.5997 0.8823 0.36178 0.0
H928 H 0.61383 0.75872 0.36846 0.0
H929 H 0.60602 0.90516 0.36222 0.0
H930 H 0.51412 0.81368 0.36111 0.0
H931 H 0.56234 0.71769 0.37062 0.0
H932 H 0.64461 0.89125 0.36224 0.0
H933 H 0.74217 0.77786 0.32232 0.0
H934 H 0.55282 0.86711 0.36097 0.0
H935 H 0.72876 0.92063 0.31174 0.0
H936 H 0.70244 0.79017 0.32104 0.0
H937 H 0.77959 0.96243 0.30863 0.0
H938 H 0.50216 0.76249 0.3634 0.0
H939 H 0.79491 0.81713 0.32356 0.0
H940 H 0.83235 0.87089 0.32233 0.0
H941 H 0.52003 0.72646 0.3672 0.0
H942 H 0.8426 0.92131 0.31839 0.0
N943 N 0.732 0.83621 0.32211 0.0
C944 C 0.72523 0.80767 0.32149 0.0
C945 C 0.7775 0.82272 0.32302 0.0
C946 C 0.78439 0.85187 0.32241 0.0
C947 C 0.74778 0.80051 0.32225 0.0
C948 C 0.76084 0.85789 0.32182 0.0
H949 H 0.82302 0.95561 0.31285 0.0
N950 N 0.74305 0.8903 0.31799 0.0
C951 C 0.77626 0.94106 0.31178 0.0
C952 C 0.7666 0.88602 0.31956 0.0
C953 C 0.74743 0.91723 0.31352 0.0
C954 C 0.80072 0.93715 0.31422 0.0
C955 C 0.79607 0.90927 0.3179 0.0
O956 O 0.6925 0.86469 0.29586 0.0
O957 O 0.65647 0.84528 0.33319 0.0
O958 O 0.62364 0.79821 0.33884 0.0
O959 O 0.6637 0.80286 0.32198 0.0
O960 O 0.67857 0.87932 0.31626 0.0
O961 O 0.68876 0.82252 0.29911 0.0
O962 O 0.65261 0.81383 0.38528 0.0
O963 O 0.68846 0.83494 0.34885 0.0
O964 O 0.7212 0.8821 0.34285 0.0
O965 O 0.68184 0.87708 0.36067 0.0
O966 O 0.66504 0.79992 0.36502 0.0
O967 O 0.65488 0.85562 0.38361 0.0
C968 C 0.65529 0.86617 0.32609 0.0
C969 C 0.70766 0.84643 0.27149 0.0
C970 C 0.71115 0.84687 0.23864 0.0
C971 C 0.69445 0.84265 0.25442 0.0
C972 C 0.74138 0.85512 0.24025 0.0
C973 C 0.73779 0.8546 0.2728 0.0
C974 C 0.75455 0.85896 0.25723 0.0
C975 C 0.63526 0.78814 0.32682 0.0
C976 C 0.68953 0.84147 0.2877 0.0
C977 C 0.81976 0.90372 0.31943 0.0
C978 C 0.81393 0.87503 0.3217 0.0
C979 C 0.68896 0.81349 0.35575 0.0
C980 C 0.63805 0.8298 0.41092 0.0
C981 C 0.65277 0.83217 0.42719 0.0
C982 C 0.63747 0.82555 0.44366 0.0
C983 C 0.60703 0.81679 0.44359 0.0
C984 C 0.60769 0.82091 0.41099 0.0
C985 C 0.59228 0.81449 0.42732 0.0
C986 C 0.71027 0.89151 0.35575 0.0
C987 C 0.65514 0.83625 0.3942 0.0
H988 H 0.67104 0.83598 0.25345 0.0
H989 H 0.75493 0.85891 0.22837 0.0
H990 H 0.74834 0.8575 0.28578 0.0
H991 H 0.77783 0.86535 0.25834 0.0
H992 H 0.67638 0.83951 0.42698 0.0
H993 H 0.59459 0.81139 0.45605 0.0
H994 H 0.59596 0.81895 0.39853 0.0
H995 H 0.56882 0.8076 0.42735 0.0
Tb996 Tb 0.1849 0.83251 0.37235 0.0
C997 C 0.11502 0.86635 0.32212 0.0
C998 C 0.06362 0.83382 0.32975 0.0
C999 C 0.07905 0.88278 0.31937 0.0
C1000 C 0.09332 0.83997 0.32849 0.0
C1001 C 0.10805 0.88779 0.31684 0.0
C1002 C 0.05681 0.85577 0.32583 0.0
C1003 C 0.15739 0.91516 0.30442 0.0
N1004 N 0.14246 0.86987 0.31955 0.0
C1005 C 0.16302 0.89305 0.30974 0.0
C1006 C 0.13 0.91284 0.30834 0.0
Tb1007 Tb 0.15055 0.83339 0.32975 0.0
N1008 N 0.10087 0.81936 0.33175 0.0
C1009 C 0.07901 0.79109 0.33461 0.0
C1010 C 0.04151 0.80543 0.33398 0.0
C1011 C 0.04917 0.7838 0.33596 0.0
H1012 H 0.18414 0.89506 0.30633 0.0
H1013 H 0.03214 0.76153 0.33868 0.0
H1014 H 0.03422 0.85165 0.32701 0.0
H1015 H 0.17415 0.93389 0.2972 0.0
H1016 H 0.08436 0.774 0.33626 0.0
H1017 H 0.21656 0.91712 0.42311 0.0
H1018 H 0.01842 0.79975 0.33508 0.0
H1019 H 0.2247 0.80327 0.35631 0.0
H1020 H 0.18192 0.87359 0.40541 0.0
H1021 H 0.2769 0.81633 0.3543 0.0
H1022 H 0.07332 0.89913 0.31564 0.0
H1023 H 0.27092 0.93926 0.41896 0.0
H1024 H 0.31331 0.93599 0.40474 0.0
H1025 H 0.12558 0.92984 0.30404 0.0
H1026 H 0.32982 0.90808 0.38599 0.0
N1027 N 0.21603 0.87189 0.39035 0.0
C1028 C 0.20551 0.88308 0.40325 0.0
C1029 C 0.25575 0.92027 0.41099 0.0
C1030 C 0.26641 0.90711 0.399 0.0
C1031 C 0.22512 0.90779 0.4134 0.0
C1032 C 0.24565 0.88247 0.38897 0.0
H1033 H 0.3163 0.86287 0.36752 0.0
N1034 N 0.23346 0.84231 0.37036 0.0
C1035 C 0.27103 0.83093 0.36111 0.0
C1036 C 0.25476 0.86697 0.37857 0.0
C1037 C 0.24118 0.82365 0.36229 0.0
C1038 C 0.29321 0.85723 0.36852 0.0
C1039 C 0.28517 0.87538 0.37772 0.0
O1040 O 0.18639 0.79718 0.38403 0.0
O1041 O 0.14381 0.82068 0.35771 0.0
O1042 O 0.1635 0.87478 0.34417 0.0
O1043 O 0.19758 0.87804 0.36662 0.0
O1044 O 0.14924 0.83876 0.3829 0.0
O1045 O 0.16222 0.81508 0.39682 0.0
O1046 O 0.17104 0.83192 0.30538 0.0
O1047 O 0.18889 0.83626 0.34356 0.0
O1048 O 0.17616 0.79506 0.35495 0.0
O1049 O 0.13591 0.78857 0.33822 0.0
O1050 O 0.19667 0.86381 0.32237 0.0
O1051 O 0.12482 0.80304 0.30942 0.0
C1052 C 0.1316 0.82892 0.36932 0.0
C1053 C 0.18521 0.79604 0.41597 0.0
C1054 C 0.19284 0.80614 0.44854 0.0
C1055 C 0.18131 0.8088 0.43183 0.0
C1056 C 0.20804 0.79033 0.44907 0.0
C1057 C 0.20059 0.78053 0.41705 0.0
C1058 C 0.21196 0.77781 0.43347 0.0
C1059 C 0.18423 0.88919 0.35678 0.0
C1060 C 0.17213 0.79709 0.39839 0.0
C1061 C 0.30632 0.90099 0.38668 0.0
C1062 C 0.29693 0.91688 0.39734 0.0
C1063 C 0.20931 0.85685 0.33465 0.0
C1064 C 0.14035 0.81889 0.27968 0.0
C1065 C 0.15354 0.81335 0.26473 0.0
C1066 C 0.14797 0.81917 0.24705 0.0
C1067 C 0.12901 0.83078 0.24468 0.0
C1068 C 0.12167 0.83061 0.27695 0.0
C1069 C 0.1161 0.83652 0.25953 0.0
C1070 C 0.15294 0.77865 0.34449 0.0
C1071 C 0.14642 0.81243 0.29798 0.0
H1072 H 0.16949 0.82081 0.43118 0.0
H1073 H 0.21653 0.78711 0.46167 0.0
H1074 H 0.20357 0.77015 0.40519 0.0
H1075 H 0.22359 0.76563 0.43414 0.0
H1076 H 0.16834 0.80475 0.26695 0.0
H1077 H 0.1237 0.83501 0.23132 0.0
H1078 H 0.11126 0.83504 0.28823 0.0
H1079 H 0.10152 0.84539 0.25751 0.0
Tb1080 Tb 0.81623 0.65057 0.65874 0.0
C1081 C 0.88631 0.75852 0.70756 0.0
C1082 C 0.93771 0.771 0.70473 0.0
C1083 C 0.92564 0.80911 0.71087 0.0
C1084 C 0.90708 0.75016 0.70434 0.0
C1085 C 0.89525 0.78798 0.71124 0.0
C1086 C 0.94686 0.80063 0.70761 0.0
C1087 C 0.84371 0.77302 0.71669 0.0
N1088 N 0.85726 0.73738 0.7079 0.0
C1089 C 0.83599 0.74406 0.71303 0.0
C1090 C 0.87344 0.79515 0.71559 0.0
Tb1091 Tb 0.84657 0.69074 0.70089 0.0
N1092 N 0.89725 0.72131 0.70183 0.0
C1093 C 0.91722 0.71162 0.70102 0.0
C1094 C 0.95817 0.76131 0.70278 0.0
C1095 C 0.94786 0.73143 0.70121 0.0
H1096 H 0.81293 0.72721 0.71383 0.0
H1097 H 0.96348 0.72362 0.70004 0.0
H1098 H 0.97028 0.81702 0.7078 0.0
H1099 H 0.82672 0.77825 0.72034 0.0
H1100 H 0.9098 0.68868 0.69964 0.0
H1101 H 0.70021 0.62104 0.66047 0.0
H1102 H 0.9819 0.7766 0.70294 0.0
H1103 H 0.8472 0.61251 0.64432 0.0
H1104 H 0.75414 0.65479 0.66007 0.0
H1105 H 0.83175 0.56097 0.63789 0.0
H1106 H 0.933 0.83193 0.7135 0.0
H1107 H 0.68023 0.56769 0.65848 0.0
H1108 H 0.69015 0.52604 0.65407 0.0
H1109 H 0.87936 0.81754 0.71848 0.0
H1110 H 0.72609 0.50959 0.64776 0.0
N1111 N 0.76532 0.62113 0.65825 0.0
C1112 C 0.74606 0.63168 0.65905 0.0
C1113 C 0.70407 0.58245 0.65825 0.0
C1114 C 0.72378 0.57187 0.65624 0.0
C1115 C 0.71527 0.61254 0.65932 0.0
C1116 C 0.75458 0.59206 0.65611 0.0
H1117 H 0.77899 0.52257 0.64127 0.0
N1118 N 0.80371 0.60344 0.6516 0.0
C1119 C 0.81543 0.5668 0.64211 0.0
C1120 C 0.77457 0.58284 0.65263 0.0
C1121 C 0.82408 0.59602 0.6457 0.0
C1122 C 0.78565 0.54518 0.64409 0.0
C1123 C 0.76468 0.55313 0.64912 0.0
O1124 O 0.83559 0.65606 0.63302 0.0
O1125 O 0.85356 0.68569 0.67275 0.0
O1126 O 0.8436 0.72045 0.68198 0.0
O1127 O 0.80667 0.68667 0.66261 0.0
O1128 O 0.86288 0.66358 0.65372 0.0
O1129 O 0.80091 0.6662 0.63771 0.0
O1130 O 0.82571 0.68302 0.7262 0.0
O1131 O 0.80956 0.6552 0.68692 0.0
O1132 O 0.82155 0.62132 0.67718 0.0
O1133 O 0.85714 0.6556 0.69706 0.0
O1134 O 0.79961 0.67715 0.70564 0.0
O1135 O 0.86385 0.67781 0.72238 0.0
C1136 C 0.87479 0.68495 0.66504 0.0
C1137 C 0.80441 0.65071 0.60834 0.0
C1138 C 0.79979 0.65446 0.57573 0.0
C1139 C 0.81396 0.66701 0.59233 0.0
C1140 C 0.77639 0.62528 0.57539 0.0
C1141 C 0.78109 0.62166 0.60761 0.0
C1142 C 0.76726 0.60902 0.5912 0.0
C1143 C 0.82299 0.71353 0.66938 0.0
C1144 C 0.81831 0.66443 0.62575 0.0
C1145 C 0.73416 0.5326 0.65019 0.0
C1146 C 0.71371 0.54196 0.65377 0.0
C1147 C 0.78802 0.65548 0.69451 0.0
C1148 C 0.85606 0.69081 0.75167 0.0
C1149 C 0.84633 0.67375 0.76736 0.0
C1150 C 0.85587 0.68684 0.78456 0.0
C1151 C 0.87556 0.71715 0.78576 0.0
C1152 C 0.87585 0.72094 0.75322 0.0
C1153 C 0.88556 0.73398 0.77018 0.0
C1154 C 0.84216 0.62891 0.68993 0.0
C1155 C 0.84454 0.67704 0.7339 0.0
H1156 H 0.83183 0.68956 0.59285 0.0
H1157 H 0.76525 0.61496 0.56283 0.0
H1158 H 0.77343 0.60882 0.61971 0.0
H1159 H 0.74925 0.58658 0.59076 0.0
H1160 H 0.83087 0.65047 0.7662 0.0
H1161 H 0.8835 0.72779 0.79876 0.0
H1162 H 0.88365 0.73437 0.74136 0.0
H1163 H 0.90081 0.75727 0.77128 0.0
Tb1164 Tb 0.36132 0.17016 0.65406 0.0
C1165 C 0.24453 0.11845 0.6977 0.0
C1166 C 0.22994 0.1552 0.6969 0.0
C1167 C 0.19222 0.10404 0.69975 0.0
C1168 C 0.25208 0.14721 0.69622 0.0
C1169 C 0.21461 0.0965 0.69996 0.0
C1170 C 0.19988 0.13339 0.69821 0.0
C1171 C 0.23155 0.06196 0.70421 0.0
N1172 N 0.26687 0.11225 0.69804 0.0
C1173 C 0.2609 0.08456 0.70194 0.0
C1174 C 0.20824 0.06786 0.70295 0.0
Tb1175 Tb 0.31428 0.15045 0.69377 0.0
N1176 N 0.28135 0.1675 0.69513 0.0
C1177 C 0.2901 0.19657 0.69619 0.0
C1178 C 0.23875 0.18488 0.69682 0.0
C1179 C 0.269 0.20566 0.69677 0.0
H1180 H 0.27862 0.07958 0.70282 0.0
H1181 H 0.27613 0.22871 0.69707 0.0
H1182 H 0.18251 0.13905 0.69855 0.0
H1183 H 0.22694 0.03999 0.70686 0.0
H1184 H 0.31331 0.21306 0.69603 0.0
H1185 H 0.3993 0.09195 0.64867 0.0
H1186 H 0.22246 0.19197 0.69726 0.0
H1187 H 0.39791 0.24182 0.64784 0.0
H1188 H 0.36214 0.10776 0.64908 0.0
H1189 H 0.45017 0.28181 0.64688 0.0
H1190 H 0.16904 0.08747 0.70127 0.0
H1191 H 0.45286 0.12836 0.65175 0.0
H1192 H 0.49301 0.18127 0.65367 0.0
H1193 H 0.18554 0.05034 0.70474 0.0
H1194 H 0.50696 0.23317 0.65295 0.0
N1195 N 0.39405 0.15294 0.65275 0.0
C1196 C 0.38535 0.12407 0.65031 0.0
C1197 C 0.43661 0.13551 0.65189 0.0
C1198 C 0.44551 0.16517 0.65315 0.0
C1199 C 0.40641 0.11492 0.65009 0.0
C1200 C 0.42341 0.17323 0.65332 0.0
H1201 H 0.4911 0.27092 0.65005 0.0
N1202 N 0.40908 0.20861 0.65183 0.0
C1203 C 0.44516 0.2595 0.64859 0.0
C1204 C 0.43125 0.20219 0.65274 0.0
C1205 C 0.41556 0.23676 0.64905 0.0
C1206 C 0.4682 0.25328 0.65043 0.0
C1207 C 0.4614 0.22426 0.65224 0.0
O1208 O 0.36001 0.1888 0.62932 0.0
O1209 O 0.32216 0.16638 0.66662 0.0
O1210 O 0.28804 0.11882 0.67249 0.0
O1211 O 0.32627 0.12357 0.65354 0.0
O1212 O 0.34518 0.20122 0.65035 0.0
O1213 O 0.35055 0.14426 0.63057 0.0
O1214 O 0.31954 0.13466 0.71862 0.0
O1215 O 0.35288 0.15312 0.68097 0.0
O1216 O 0.38736 0.19917 0.6763 0.0
O1217 O 0.34899 0.19727 0.69349 0.0
O1218 O 0.32917 0.11862 0.69746 0.0
O1219 O 0.32561 0.17794 0.71663 0.0
C1220 C 0.32176 0.18803 0.66009 0.0
C1221 C 0.37125 0.16959 0.60359 0.0
C1222 C 0.37392 0.17073 0.57068 0.0
C1223 C 0.35822 0.16813 0.58668 0.0
C1224 C 0.40298 0.17524 0.57185 0.0
C1225 C 0.40031 0.17428 0.60445 0.0
C1226 C 0.41608 0.17715 0.58864 0.0
C1227 C 0.29817 0.10934 0.65911 0.0
C1228 C 0.35392 0.16535 0.6201 0.0
C1229 C 0.48362 0.21654 0.65311 0.0
C1230 C 0.47568 0.187 0.65355 0.0
C1231 C 0.35216 0.13076 0.68733 0.0
C1232 C 0.30989 0.15446 0.74465 0.0
C1233 C 0.32716 0.16733 0.76016 0.0
C1234 C 0.31373 0.1631 0.77717 0.0
C1235 C 0.28262 0.14593 0.77843 0.0
C1236 C 0.27884 0.13765 0.74606 0.0
C1237 C 0.2653 0.13346 0.76291 0.0
C1238 C 0.37747 0.21004 0.68887 0.0
C1239 C 0.32506 0.15833 0.72734 0.0
H1240 H 0.33568 0.16431 0.58598 0.0
H1241 H 0.41566 0.17755 0.55976 0.0
H1242 H 0.41072 0.17551 0.61728 0.0
H1243 H 0.43849 0.18072 0.5894 0.0
H1244 H 0.3512 0.18008 0.75905 0.0
H1245 H 0.27172 0.14237 0.79137 0.0
H1246 H 0.26515 0.12759 0.73423 0.0
H1247 H 0.24134 0.12038 0.76397 0.0
Tb1248 Tb 0.85493 0.16332 0.70127 0.0
C1249 C 0.78363 0.20419 0.65612 0.0
C1250 C 0.73249 0.16578 0.65933 0.0
C1251 C 0.74391 0.21577 0.65459 0.0
C1252 C 0.76317 0.17529 0.65896 0.0
C1253 C 0.77432 0.22476 0.65348 0.0
C1254 C 0.723 0.18629 0.65752 0.0
C1255 C 0.82543 0.26072 0.64721 0.0
N1256 N 0.81264 0.21178 0.65494 0.0
C1257 C 0.83346 0.23938 0.64978 0.0
C1258 C 0.79577 0.25348 0.64929 0.0
Tb1259 Tb 0.82403 0.17583 0.66029 0.0
N1260 N 0.77333 0.15628 0.66055 0.0
C1261 C 0.75363 0.12691 0.66123 0.0
C1262 C 0.71233 0.13591 0.66106 0.0
C1263 C 0.72295 0.11635 0.66176 0.0
H1264 H 0.85647 0.24522 0.64825 0.0
H1265 H 0.70754 0.09314 0.66279 0.0
H1266 H 0.69955 0.17949 0.65795 0.0
H1267 H 0.84212 0.28272 0.64363 0.0
H1268 H 0.76136 0.11144 0.6619 0.0
H1269 H 0.97332 0.24003 0.70424 0.0
H1270 H 0.68858 0.12769 0.66148 0.0
H1271 H 0.817 0.09199 0.70996 0.0
H1272 H 0.92029 0.22517 0.70362 0.0
H1273 H 0.82751 0.05189 0.71371 0.0
H1274 H 0.73628 0.23127 0.65277 0.0
H1275 H 0.98859 0.20259 0.7044 0.0
H1276 H 0.97361 0.14945 0.70594 0.0
H1277 H 0.78957 0.26998 0.64719 0.0
H1278 H 0.93385 0.09815 0.70882 0.0
N1279 N 0.90508 0.17958 0.7028 0.0
C1280 C 0.92638 0.20849 0.70366 0.0
C1281 C 0.96516 0.1959 0.70411 0.0
C1282 C 0.94329 0.16636 0.70442 0.0
C1283 C 0.95663 0.21707 0.70406 0.0
C1284 C 0.91313 0.1589 0.70394 0.0
H1285 H 0.87927 0.06159 0.71203 0.0
N1286 N 0.86241 0.1245 0.7059 0.0
C1287 C 0.84559 0.07385 0.7114 0.0
C1288 C 0.89098 0.13028 0.70567 0.0
C1289 C 0.83975 0.09678 0.70934 0.0
C1290 C 0.87482 0.07939 0.71041 0.0
C1291 C 0.89803 0.10796 0.70774 0.0
O1292 O 0.83385 0.15005 0.72639 0.0
O1293 O 0.81801 0.16426 0.68835 0.0
O1294 O 0.83198 0.21057 0.67974 0.0
O1295 O 0.86828 0.20971 0.69812 0.0
O1296 O 0.80772 0.13175 0.70611 0.0
O1297 O 0.8733 0.19208 0.72356 0.0
O1298 O 0.84313 0.18925 0.63463 0.0
O1299 O 0.86138 0.17704 0.67365 0.0
O1300 O 0.85309 0.1333 0.68041 0.0
O1301 O 0.81433 0.13009 0.66288 0.0
O1302 O 0.87079 0.20702 0.65394 0.0
O1303 O 0.80605 0.14596 0.63854 0.0
C1304 C 0.79631 0.14303 0.69585 0.0
C1305 C 0.86447 0.1692 0.752 0.0
C1306 C 0.86377 0.17031 0.78491 0.0
C1307 C 0.85592 0.17695 0.76818 0.0
C1308 C 0.88061 0.15623 0.78529 0.0
C1309 C 0.88161 0.15549 0.75264 0.0
C1310 C 0.88969 0.14912 0.76922 0.0
C1311 C 0.85419 0.22286 0.69158 0.0
C1312 C 0.85355 0.17369 0.7347 0.0
C1313 C 0.92795 0.115 0.70741 0.0
C1314 C 0.95058 0.14419 0.70575 0.0
C1315 C 0.88258 0.19753 0.66528 0.0
C1316 C 0.81133 0.16681 0.6097 0.0
C1317 C 0.82012 0.15945 0.59345 0.0
C1318 C 0.80888 0.16232 0.5767 0.0
C1319 C 0.78861 0.17269 0.57665 0.0
C1320 C 0.79096 0.17684 0.60926 0.0
C1321 C 0.7797 0.17975 0.5928 0.0
C1322 C 0.83195 0.11997 0.66809 0.0
C1323 C 0.82427 0.16463 0.62688 0.0
H1324 H 0.84247 0.18736 0.76777 0.0
H1325 H 0.88691 0.15093 0.79803 0.0
H1326 H 0.88838 0.14935 0.74037 0.0
H1327 H 0.90278 0.13838 0.76962 0.0
H1328 H 0.83555 0.1513 0.59392 0.0
H1329 H 0.77991 0.17578 0.56411 0.0
H1330 H 0.78391 0.18256 0.62157 0.0
H1331 H 0.76413 0.18772 0.59255 0.0
H1332 H 0.32707 0.8962 0.05744 0.0
H1333 H 0.36488 0.8397 0.05498 0.0
H1334 H 0.40928 0.8782 0.04075 0.0
H1335 H 0.43983 0.92953 0.03204 0.0
H1336 H 0.40428 0.98742 0.03698 0.0
H1337 H 0.35691 0.94702 0.04757 0.0
C1338 C 0.34502 0.89224 0.05392 0.0
C1339 C 0.34235 0.86488 0.05746 0.0
C1340 C 0.37114 0.9149 0.04629 0.0
C1341 C 0.36579 0.86021 0.05228 0.0
C1342 C 0.39148 0.88239 0.04427 0.0
C1343 C 0.42149 0.93312 0.035 0.0
C1344 C 0.42527 0.96124 0.0334 0.0
C1345 C 0.39468 0.91 0.04157 0.0
C1346 C 0.40165 0.96581 0.03792 0.0
C1347 C 0.37465 0.94277 0.04402 0.0
H1348 H 0.09091 0.4156 0.05038 0.0
H1349 H 0.16141 0.50537 0.04889 0.0
H1350 H 0.12674 0.51969 0.03637 0.0
H1351 H 0.07492 0.50672 0.02821 0.0
H1352 H 0.0055 0.41638 0.02954 0.0
H1353 H 0.04105 0.40224 0.03993 0.0
C1354 C 0.09869 0.43833 0.04735 0.0
C1355 C 0.1285 0.45947 0.05089 0.0
C1356 C 0.07875 0.44627 0.04018 0.0
C1357 C 0.13848 0.48872 0.04642 0.0
C1358 C 0.11864 0.4969 0.03933 0.0
C1359 C 0.06785 0.48392 0.03035 0.0
C1360 C 0.03774 0.46248 0.0278 0.0
C1361 C 0.08854 0.4759 0.03644 0.0
C1362 C 0.02864 0.43313 0.0312 0.0
C1363 C 0.04892 0.42506 0.03719 0.0
H1364 H 0.53224 0.67751 0.03678 0.0
H1365 H 0.59408 0.67517 0.0746 0.0
H1366 H 0.57921 0.62534 0.06487 0.0
H1367 H 0.5499 0.58322 0.04489 0.0
H1368 H 0.48557 0.58442 0.00848 0.0
H1369 H 0.50031 0.63391 0.01824 0.0
C1370 C 0.54235 0.66598 0.04287 0.0
C1371 C 0.56426 0.6799 0.05629 0.0
C1372 C 0.53347 0.63728 0.03735 0.0
C1373 C 0.57702 0.66474 0.0643 0.0
C1374 C 0.56864 0.63635 0.05869 0.0
C1375 C 0.53902 0.59421 0.03908 0.0
C1376 C 0.51727 0.58029 0.02551 0.0
C1377 C 0.54705 0.62249 0.04512 0.0
C1378 C 0.50308 0.59483 0.01846 0.0
C1379 C 0.51131 0.62312 0.02417 0.0
H1380 H 0.89048 0.32739 0.95434 0.0
H1381 H 0.82245 0.31442 0.99245 0.0
H1382 H 0.85419 0.36407 1.00458 0.0
H1383 H 0.90221 0.41057 1.00475 0.0
H1384 H 0.97133 0.42033 0.96818 0.0
H1385 H 0.93806 0.37301 0.95479 0.0
C1386 C 0.88247 0.33564 0.96513 0.0
C1387 C 0.85416 0.31756 0.97238 0.0
C1388 C 0.9011 0.36364 0.97234 0.0
C1389 C 0.8442 0.32813 0.98663 0.0
C1390 C 0.86234 0.35643 0.99356 0.0
C1391 C 0.91014 0.40224 0.99405 0.0
C1392 C 0.93956 0.41906 0.98784 0.0
C1393 C 0.89104 0.37429 0.98665 0.0
C1394 C 0.94901 0.40804 0.9735 0.0
C1395 C 0.92996 0.38083 0.96574 0.0
H1396 H 0.65893 0.5189 0.9759 0.0
H1397 H 0.69548 0.61226 0.97479 0.0
H1398 H 0.64723 0.60626 0.9828 0.0
H1399 H 0.59417 0.57469 0.98919 0.0
H1400 H 0.55689 0.48145 0.99103 0.0
H1401 H 0.60554 0.48705 0.98381 0.0
C1402 C 0.65624 0.53786 0.97744 0.0
C1403 C 0.68086 0.56601 0.97477 0.0
C1404 C 0.62827 0.53428 0.98224 0.0
C1405 C 0.67706 0.59039 0.97695 0.0
C1406 C 0.64941 0.58699 0.98145 0.0
C1407 C 0.59685 0.55565 0.98817 0.0
C1408 C 0.5722 0.5278 0.99105 0.0
C1409 C 0.62484 0.55909 0.98403 0.0
C1410 C 0.57572 0.5032 0.98938 0.0
C1411 C 0.60351 0.5064 0.98509 0.0
H1412 H 0.5124 0.16193 0.97012 0.0
H1413 H 0.42584 0.10353 0.94749 0.0
H1414 H 0.42386 0.06253 0.96397 0.0
H1415 H 0.44821 0.04317 0.9836 0.0
H1416 H 0.53415 0.10269 1.00707 0.0
H1417 H 0.53477 0.14342 0.99169 0.0
C1418 C 0.49306 0.14021 0.96896 0.0
C1419 C 0.4694 0.13546 0.95761 0.0
C1420 C 0.492 0.11703 0.9786 0.0
C1421 C 0.44426 0.10747 0.95623 0.0
C1422 C 0.44319 0.08411 0.96558 0.0
C1423 C 0.46697 0.06507 0.98544 0.0
C1424 C 0.49118 0.06976 0.99636 0.0
C1425 C 0.46714 0.08858 0.97662 0.0
C1426 C 0.51517 0.09837 0.99876 0.0
C1427 C 0.51565 0.12173 0.98991 0.0
H1428 H 0.65736 0.12764 0.97667 0.0
H1429 H 0.69144 0.06794 0.97743 0.0
H1430 H 0.64382 0.02931 0.98825 0.0
H1431 H 0.59146 0.01144 0.99598 0.0
H1432 H 0.55848 0.07167 0.99728 0.0
H1433 H 0.60696 0.11131 0.98788 0.0
C1434 C 0.65477 0.10643 0.97952 0.0
C1435 C 0.67807 0.10081 0.97572 0.0
C1436 C 0.62747 0.08434 0.98629 0.0
C1437 C 0.67378 0.07288 0.97949 0.0
C1438 C 0.64657 0.05072 0.9859 0.0
C1439 C 0.59516 0.0334 0.99446 0.0
C1440 C 0.57169 0.0388 0.99764 0.0
C1441 C 0.62311 0.05605 0.98904 0.0
C1442 C 0.57643 0.06715 0.99543 0.0
C1443 C 0.6041 0.08976 0.98984 0.0
H1444 H 0.86725 0.52242 0.97225 0.0
H1445 H 0.92697 0.61544 0.96925 0.0
H1446 H 0.96891 0.6091 0.97731 0.0
H1447 H 0.989 0.57734 0.98537 0.0
H1448 H 0.92982 0.4845 0.98903 0.0
H1449 H 0.88758 0.4904 0.98055 0.0
C1450 C 0.88948 0.54123 0.97328 0.0
C1451 C 0.89389 0.56938 0.97021 0.0
C1452 C 0.91366 0.53746 0.97811 0.0
C1453 C 0.92284 0.59357 0.97174 0.0
C1454 C 0.94692 0.58997 0.97628 0.0
C1455 C 0.9668 0.55846 0.98433 0.0
C1456 C 0.96241 0.53066 0.9883 0.0
C1457 C 0.94262 0.56208 0.97954 0.0
C1458 C 0.93367 0.50625 0.98659 0.0
C1459 C 0.90951 0.5096 0.9816 0.0
H1460 H 0.4529 0.33498 0.9478 0.0
H1461 H 0.52315 0.33609 0.97961 0.0
H1462 H 0.52886 0.37833 0.99667 0.0
H1463 H 0.51572 0.4165 1.00141 0.0
H1464 H 0.44406 0.41393 0.97026 0.0
H1465 H 0.43698 0.37051 0.95427 0.0
C1466 C 0.46908 0.34404 0.95869 0.0
C1467 C 0.48772 0.33243 0.96226 0.0
C1468 C 0.47214 0.36819 0.96854 0.0
C1469 C 0.50888 0.34487 0.97629 0.0
C1470 C 0.51207 0.36896 0.98613 0.0
C1471 C 0.4982 0.4062 0.99136 0.0
C1472 C 0.48051 0.4186 0.9871 0.0
C1473 C 0.49411 0.38107 0.98219 0.0
C1474 C 0.45816 0.40505 0.97383 0.0
C1475 C 0.45405 0.38014 0.96463 0.0
H1476 H 0.16197 0.66192 0.04978 0.0
H1477 H 0.09774 0.67496 0.07899 0.0
H1478 H 0.05705 0.63042 0.06524 0.0
H1479 H 0.03995 0.58734 0.04508 0.0
H1480 H 0.10546 0.57353 0.01778 0.0
H1481 H 0.1452 0.61883 0.03037 0.0
C1482 C 0.13903 0.65519 0.05295 0.0
C1483 C 0.13281 0.67181 0.0652 0.0
C1484 C 0.11593 0.62939 0.04529 0.0
C1485 C 0.10303 0.66249 0.06955 0.0
C1486 C 0.0798 0.63706 0.06169 0.0
C1487 C 0.0629 0.59425 0.04186 0.0
C1488 C 0.06949 0.5772 0.0301 0.0
C1489 C 0.08599 0.62021 0.04959 0.0
C1490 C 0.09948 0.58643 0.02632 0.0
C1491 C 0.12238 0.61234 0.03366 0.0
H1492 H 0.34085 0.48111 0.04487 0.0
H1493 H 0.30407 0.38802 0.0491 0.0
H1494 H 0.35063 0.39257 0.03838 0.0
H1495 H 0.40225 0.42291 0.02863 0.0
H1496 H 0.43969 0.51585 0.02363 0.0
H1497 H 0.39259 0.51158 0.03346 0.0
C1498 C 0.34318 0.46192 0.04344 0.0
C1499 C 0.31911 0.43426 0.04784 0.0
C1500 C 0.37005 0.46465 0.03697 0.0
C1501 C 0.32224 0.4095 0.04575 0.0
C1502 C 0.34885 0.41208 0.03963 0.0
C1503 C 0.39992 0.44216 0.02952 0.0
C1504 C 0.42418 0.46954 0.02514 0.0
C1505 C 0.37291 0.4395 0.03528 0.0
C1506 C 0.42112 0.49443 0.02654 0.0
C1507 C 0.39425 0.492 0.03234 0.0
H1508 H 0.52099 0.84933 0.04658 0.0
H1509 H 0.60092 0.91902 0.07124 0.0
H1510 H 0.5874 0.95448 0.06151 0.0
H1511 H 0.5542 0.9663 0.04549 0.0
H1512 H 0.4753 0.89823 0.01922 0.0
H1513 H 0.48754 0.86169 0.02976 0.0
C1514 C 0.53555 0.87227 0.04975 0.0
C1515 C 0.56178 0.88123 0.05991 0.0
C1516 C 0.52803 0.89294 0.04367 0.0
C1517 C 0.58018 0.91115 0.06394 0.0
C1518 C 0.57266 0.93162 0.05819 0.0
C1519 C 0.53956 0.94352 0.042 0.0
C1520 C 0.51398 0.93515 0.03143 0.0
C1521 C 0.54676 0.92279 0.04802 0.0
C1522 C 0.49536 0.9054 0.02714 0.0
C1523 C 0.50228 0.88446 0.03324 0.0
H1524 H 0.02979 0.19207 0.38797 0.0
H1525 H 0.98123 0.23674 0.39943 0.0
H1526 H 0.01969 0.2805 0.38443 0.0
H1527 H 0.06961 0.30753 0.3706 0.0
H1528 H 0.1182 0.26262 0.36011 0.0
H1529 H 0.07736 0.21762 0.37193 0.0
C1530 C 0.02756 0.21135 0.38709 0.0
C1531 C 1.00287 0.21127 0.39501 0.0
C1532 C 0.04985 0.23645 0.3786 0.0
C1533 C 0.99998 0.23621 0.39344 0.0
C1534 C 0.02207 0.26129 0.38496 0.0
C1535 C 0.07096 0.28771 0.37067 0.0
C1536 C 0.09682 0.28841 0.36425 0.0
C1537 C 0.04744 0.26188 0.37785 0.0
C1538 C 0.09847 0.2627 0.36461 0.0
C1539 C 0.07513 0.23692 0.37153 0.0
H1540 H 0.80752 0.82166 0.38515 0.0
H1541 H 0.75032 0.72794 0.38361 0.0
H1542 H 0.71039 0.73332 0.37053 0.0
H1543 H 0.69033 0.76429 0.36112 0.0
H1544 H 0.74641 0.85786 0.36222 0.0
H1545 H 0.78814 0.85298 0.37349 0.0
C1546 C 0.78645 0.80244 0.38174 0.0
C1547 C 0.78185 0.77443 0.38577 0.0
C1548 C 0.76331 0.80565 0.3741 0.0
C1549 C 0.75433 0.74978 0.38119 0.0
C1550 C 0.73145 0.75279 0.37357 0.0
C1551 C 0.71184 0.78358 0.36364 0.0
C1552 C 0.71547 0.81132 0.36055 0.0
C1553 C 0.73548 0.78056 0.37028 0.0
C1554 C 0.74326 0.83623 0.3641 0.0
C1555 C 0.76705 0.83342 0.37069 0.0
H1556 H 0.23787 0.02546 0.35886 0.0
H1557 H 0.2199 0.00776 0.41565 0.0
H1558 H 0.19667 0.95553 0.40951 0.0
H1559 H 0.18342 0.91487 0.38822 0.0
H1560 H 0.20683 0.93285 0.33228 0.0
H1561 H 0.22551 0.98489 0.33774 0.0
C1562 C 0.22912 0.01028 0.36996 0.0
C1563 C 0.23081 0.02079 0.38772 0.0
C1564 C 0.21661 0.98024 0.36644 0.0
C1565 C 0.2186 1.00051 0.4018 0.0
C1566 C 0.20551 0.97055 0.39835 0.0
C1567 C 0.19305 0.93028 0.37733 0.0
C1568 C 0.19383 0.92018 0.3599 0.0
C1569 C 0.20478 0.96022 0.38077 0.0
C1570 C 0.20534 0.94011 0.34571 0.0
C1571 C 0.21638 0.96989 0.3489 0.0
H1572 H 0.57419 0.65997 0.29478 0.0
H1573 H 0.495 0.66014 0.31201 0.0
H1574 H 0.52527 0.71093 0.32251 0.0
H1575 H 0.57453 0.75492 0.32725 0.0
H1576 H 0.65331 0.7541 0.30941 0.0
H1577 H 0.62289 0.70407 0.29855 0.0
C1578 C 0.56358 0.67112 0.30089 0.0
C1579 C 0.53248 0.65631 0.30279 0.0
C1580 C 0.58104 0.70022 0.30673 0.0
C1581 C 0.51892 0.67115 0.31039 0.0
C1582 C 0.53622 0.70012 0.31643 0.0
C1583 C 0.58505 0.74376 0.32105 0.0
C1584 C 0.61627 0.75824 0.31939 0.0
C1585 C 0.56735 0.71483 0.31475 0.0
C1586 C 0.62942 0.7436 0.31096 0.0
C1587 C 0.61203 0.71489 0.30476 0.0
H1588 H 0.34693 0.919 0.32097 0.0
H1589 H 0.32123 0.83627 0.29508 0.0
H1590 H 0.26991 0.81714 0.30512 0.0
H1591 H 0.23139 0.82533 0.31919 0.0
H1592 H 0.25707 0.90816 0.34464 0.0
H1593 H 0.30924 0.92601 0.33681 0.0
C1594 C 0.3301 0.89675 0.31755 0.0
C1595 C 0.3379 0.87921 0.3071 0.0
C1596 C 0.30061 0.88597 0.32329 0.0
C1597 C 0.31591 0.85024 0.30312 0.0
C1598 C 0.2865 0.83934 0.30877 0.0
C1599 C 0.24864 0.84699 0.32339 0.0
C1600 C 0.2408 0.86511 0.33308 0.0
C1601 C 0.27848 0.85716 0.3186 0.0
C1602 C 0.26292 0.89359 0.33774 0.0
C1603 C 0.29264 0.90383 0.33312 0.0
H1604 H 0.15665 0.49088 0.30984 0.0
H1605 H 0.09178 0.42869 0.27243 0.0
H1606 H 0.09642 0.38926 0.28624 0.0
H1607 H 0.11995 0.37279 0.30851 0.0
H1608 H 0.18699 0.43611 0.34465 0.0
H1609 H 0.18004 0.47451 0.33203 0.0
C1610 C 0.14324 0.46862 0.30489 0.0
C1611 C 0.1238 0.46267 0.29021 0.0
C1612 C 0.14636 0.44621 0.3127 0.0
C1613 C 0.10699 0.43382 0.28368 0.0
C1614 C 0.10961 0.41128 0.29159 0.0
C1615 C 0.13297 0.39494 0.3137 0.0
C1616 C 0.15362 0.40129 0.32778 0.0
C1617 C 0.12942 0.41726 0.30602 0.0
C1618 C 0.17044 0.43028 0.33415 0.0
C1619 C 0.16667 0.45242 0.32682 0.0
H1620 H 0.32688 0.46984 0.30874 0.0
H1621 H 0.36403 0.41277 0.31078 0.0
H1622 H 0.31795 0.37416 0.32322 0.0
H1623 H 0.26565 0.35482 0.331 0.0
H1624 H 0.22841 0.41152 0.33075 0.0
H1625 H 0.27616 0.45226 0.32076 0.0
C1626 C 0.32516 0.44918 0.31219 0.0
C1627 C 0.34879 0.4441 0.30815 0.0
C1628 C 0.29856 0.42696 0.31977 0.0
C1629 C 0.34595 0.41709 0.31292 0.0
C1630 C 0.31965 0.39498 0.32026 0.0
C1631 C 0.26826 0.37631 0.3291 0.0
C1632 C 0.24378 0.38031 0.33172 0.0
C1633 C 0.29559 0.3994 0.32329 0.0
C1634 C 0.24715 0.40808 0.32912 0.0
C1635 C 0.27438 0.43127 0.32323 0.0
H1636 H 0.53159 0.85491 0.30487 0.0
H1637 H 0.58525 0.94871 0.30907 0.0
H1638 H 0.6287 0.94479 0.31711 0.0
H1639 H 0.65192 0.9149 0.32254 0.0
H1640 H 0.59852 0.82112 0.31968 0.0
H1641 H 0.5547 0.82466 0.31156 0.0
C1642 C 0.55283 0.87441 0.30756 0.0
C1643 C 0.55519 0.90207 0.30638 0.0
C1644 C 0.57779 0.87199 0.31244 0.0
C1645 C 0.58279 0.92718 0.31004 0.0
C1646 C 0.60769 0.92497 0.31456 0.0
C1647 C 0.63059 0.89529 0.32023 0.0
C1648 C 0.62824 0.86782 0.32214 0.0
C1649 C 0.6055 0.89754 0.31575 0.0
C1650 C 0.60068 0.84251 0.31882 0.0
C1651 C 0.57567 0.84455 0.31403 0.0
H1652 H 0.15582 0.66547 0.32016 0.0
H1653 H 0.08883 0.65949 0.28307 0.0
H1654 H 0.09026 0.70182 0.29749 0.0
H1655 H 0.11315 0.74272 0.31909 0.0
H1656 H 0.18146 0.7498 0.35553 0.0
H1657 H 0.17695 0.70503 0.34284 0.0
C1658 C 0.14152 0.67341 0.31524 0.0
C1659 C 0.12234 0.65932 0.30049 0.0
C1660 C 0.1428 0.69811 0.3234 0.0
C1661 C 0.10358 0.66964 0.29451 0.0
C1662 C 0.10454 0.69402 0.30266 0.0
C1663 C 0.12685 0.73434 0.32442 0.0
C1664 C 0.1478 0.74982 0.33816 0.0
C1665 C 0.12441 0.70872 0.31692 0.0
C1666 C 0.1653 0.73853 0.34488 0.0
C1667 C 0.16276 0.71289 0.33762 0.0
H1668 H 0.78487 1.00048 0.40754 0.0
H1669 H 0.85491 0.01117 0.37148 0.0
H1670 H 0.81951 0.9686 0.35405 0.0
H1671 H 0.76957 0.92694 0.34997 0.0
H1672 H 0.69819 0.91768 0.38417 0.0
H1673 H 0.73329 0.96107 0.40139 0.0
C1674 C 0.79235 0.99387 0.39569 0.0
C1675 C 0.8228 0.00887 0.39113 0.0
C1676 C 0.77168 0.96947 0.38544 0.0
C1677 C 0.83189 0.99969 0.37572 0.0
C1678 C 0.8116 0.9754 0.36562 0.0
C1679 C 0.76139 0.93464 0.36088 0.0
C1680 C 0.7311 0.91898 0.36556 0.0
C1681 C 0.78156 0.95987 0.37052 0.0
C1682 C 0.72131 0.92918 0.38015 0.0
C1683 C 0.74141 0.95406 0.39004 0.0
H1684 H 0.99628 0.75963 0.39072 0.0
H1685 H 0.00819 0.84636 0.38974 0.0
H1686 H 0.05977 0.86608 0.37994 0.0
H1687 H 0.10213 0.85876 0.37249 0.0
H1688 H 0.09042 0.7723 0.37457 0.0
H1689 H 0.0382 0.75228 0.38316 0.0
C1690 C 0.01008 0.78282 0.38821 0.0
C1691 C 0.99834 0.80148 0.39093 0.0
C1692 C 0.03977 0.79401 0.38279 0.0
C1693 C 0.01672 0.83155 0.3879 0.0
C1694 C 0.04618 0.84282 0.38224 0.0
C1695 C 0.08785 0.83549 0.37452 0.0
C1696 C 0.09949 0.81674 0.37217 0.0
C1697 C 0.05801 0.82428 0.37973 0.0
C1698 C 0.08142 0.78684 0.37565 0.0
C1699 C 0.05172 0.77549 0.38069 0.0
H1700 H 0.22471 0.22317 0.40234 0.0
H1701 H 0.2467 0.20625 0.34922 0.0
H1702 H 0.22479 0.23325 0.33569 0.0
H1703 H 0.20262 0.26472 0.33918 0.0
H1704 H 0.18314 0.28378 0.3924 0.0
H1705 H 0.20076 0.25303 0.40571 0.0
C1706 C 0.22429 0.22509 0.3878 0.0
C1707 C 0.23731 0.21283 0.37679 0.0
C1708 C 0.21229 0.24122 0.38016 0.0
C1709 C 0.237 0.21575 0.35797 0.0
C1710 C 0.22446 0.23114 0.35023 0.0
C1711 C 0.20162 0.26156 0.35362 0.0
C1712 C 0.19141 0.27625 0.36478 0.0
C1713 C 0.21246 0.24437 0.36121 0.0
C1714 C 0.19104 0.27271 0.38356 0.0
C1715 C 0.20108 0.25513 0.39117 0.0
H1716 H 0.66038 0.56237 0.72144 0.0
H1717 H 0.69869 0.50655 0.71647 0.0
H1718 H 0.74337 0.54639 0.70331 0.0
H1719 H 0.77386 0.59842 0.69619 0.0
H1720 H 0.73726 0.65519 0.70278 0.0
H1721 H 0.69004 0.61392 0.71282 0.0
C1722 C 0.67848 0.55885 0.71755 0.0
C1723 C 0.67592 0.5313 0.72011 0.0
C1724 C 0.70469 0.5822 0.71047 0.0
C1725 C 0.69956 0.52722 0.71452 0.0
C1726 C 0.7254 0.55015 0.70715 0.0
C1727 C 0.75535 0.60162 0.6994 0.0
C1728 C 0.75877 0.62966 0.69839 0.0
C1729 C 0.72849 0.57789 0.70543 0.0
C1730 C 0.73491 0.63366 0.70326 0.0
C1731 C 0.70798 0.61011 0.70901 0.0
H1732 H 0.43536 0.08077 0.70763 0.0
H1733 H 0.49668 0.17141 0.71983 0.0
H1734 H 0.46095 0.18476 0.70796 0.0
H1735 H 0.41043 0.16988 0.69599 0.0
H1736 H 0.34853 0.07851 0.68635 0.0
H1737 H 0.38627 0.06621 0.69511 0.0
C1738 C 0.44111 0.10351 0.70747 0.0
C1739 C 0.4687 0.12506 0.71456 0.0
C1740 C 0.42023 0.11086 0.70106 0.0
C1741 C 0.47552 0.15438 0.71455 0.0
C1742 C 0.45511 0.16201 0.70773 0.0
C1743 C 0.40558 0.14742 0.69543 0.0
C1744 C 0.37704 0.12513 0.69006 0.0
C1745 C 0.42717 0.14037 0.70117 0.0
C1746 C 0.37054 0.09599 0.69011 0.0
C1747 C 0.39205 0.08895 0.6952 0.0
H1748 H 0.92701 0.35523 0.7143 0.0
H1749 H 0.83934 0.34492 0.7168 0.0
H1750 H 0.8174 0.29382 0.70664 0.0
H1751 H 0.82364 0.25185 0.69734 0.0
H1752 H 0.91196 0.2633 0.69645 0.0
H1753 H 0.93322 0.31421 0.70547 0.0
C1754 C 0.9031 0.34184 0.71247 0.0
C1755 C 0.8848 0.35375 0.71609 0.0
C1756 C 0.89081 0.31269 0.70694 0.0
C1757 C 0.85382 0.33608 0.71408 0.0
C1758 C 0.84133 0.30697 0.70823 0.0
C1759 C 0.84751 0.26563 0.69911 0.0
C1760 C 0.86622 0.25381 0.69649 0.0
C1761 C 0.85965 0.295 0.70465 0.0
C1762 C 0.89708 0.27174 0.69878 0.0
C1763 C 0.9093 0.30092 0.70384 0.0
H1764 H 0.22919 0.99059 0.61503 0.0
H1765 H 0.1592 0.97753 0.65158 0.0
H1766 H 0.19098 0.02636 0.66472 0.0
H1767 H 0.23909 0.07222 0.66607 0.0
H1768 H 0.31049 0.0828 0.6313 0.0
H1769 H 0.27757 0.03592 0.61691 0.0
C1770 C 0.22086 0.99865 0.62574 0.0
C1771 C 0.19191 0.98077 0.63225 0.0
C1772 C 0.23952 0.02627 0.63354 0.0
C1773 C 0.18144 0.99108 0.64635 0.0
C1774 C 0.19959 0.01892 0.65384 0.0
C1775 C 0.24766 0.06415 0.65557 0.0
C1776 C 0.27752 0.081 0.65011 0.0
C1777 C 0.2288 0.0366 0.64766 0.0
C1778 C 0.28777 0.07039 0.63599 0.0
C1779 C 0.26893 0.04348 0.6277 0.0
H1780 H 0.01827 0.25521 0.64797 0.0
H1781 H 0.99419 0.16511 0.63969 0.0
H1782 H 0.94435 0.14929 0.65138 0.0
H1783 H 0.90566 0.16136 0.66067 0.0
H1784 H 0.92944 0.25175 0.66565 0.0
H1785 H 0.98105 0.26714 0.65827 0.0
C1786 C 1.00215 0.23206 0.64852 0.0
C1787 C 0.01006 0.21149 0.64255 0.0
C1788 C 0.97327 0.22316 0.65464 0.0
C1789 C 0.98895 0.18157 0.64413 0.0
C1790 C 0.96028 0.17247 0.6507 0.0
C1791 C 0.9224 0.18435 0.66059 0.0
C1792 C 0.91408 0.20548 0.66417 0.0
C1793 C 0.95193 0.19309 0.65559 0.0
C1794 C 0.9356 0.23521 0.66331 0.0
C1795 C 0.96503 0.24399 0.65899 0.0
H1796 H 0.82698 0.82726 0.64083 0.0
H1797 H 0.74509 0.76304 0.61518 0.0
H1798 H 0.74924 0.72385 0.62955 0.0
H1799 H 0.77726 0.70781 0.64834 0.0
H1800 H 0.85896 0.77234 0.67411 0.0
H1801 H 0.85329 0.81137 0.66107 0.0
C1802 C 0.80968 0.80474 0.63866 0.0
C1803 C 0.78582 0.79815 0.62687 0.0
C1804 C 0.81218 0.78232 0.64696 0.0
C1805 C 0.76392 0.76875 0.62399 0.0
C1806 C 0.76622 0.74631 0.63224 0.0
C1807 C 0.79377 0.7304 0.65118 0.0
C1808 C 0.8185 0.73705 0.6622 0.0
C1809 C 0.79049 0.75283 0.64354 0.0
C1810 C 0.83958 0.76649 0.6658 0.0
C1811 C 0.83645 0.7889 0.65827 0.0
H1812 H 0.98916 0.79724 0.63768 0.0
H1813 H 0.02226 0.73672 0.63787 0.0
H1814 H 0.97571 0.69928 0.65052 0.0
H1815 H 0.92426 0.68228 0.65965 0.0
H1816 H 0.89183 0.74292 0.66173 0.0
H1817 H 0.93976 0.78195 0.65075 0.0
C1818 C 0.98656 0.7761 0.64076 0.0
C1819 C 0.00921 0.76983 0.63617 0.0
C1820 C 0.95982 0.75463 0.64861 0.0
C1821 C 0.00501 0.74209 0.64041 0.0
C1822 C 0.97843 0.72061 0.6479 0.0
C1823 C 0.92797 0.70422 0.65799 0.0
C1824 C 0.90479 0.70985 0.66165 0.0
C1825 C 0.95549 0.72643 0.65169 0.0
C1826 C 0.90957 0.73822 0.65934 0.0
C1827 C 0.9369 0.76045 0.65288 0.0
H1828 H 0.19885 0.18006 0.64099 0.0
H1829 H 0.25551 0.27378 0.64235 0.0
H1830 H 0.29822 0.26859 0.65014 0.0
H1831 H 0.32009 0.23762 0.65596 0.0
H1832 H 0.26403 0.14402 0.65502 0.0
H1833 H 0.22074 0.14884 0.64766 0.0
C1834 C 0.22056 0.19929 0.64299 0.0
C1835 C 0.22387 0.22727 0.64115 0.0
C1836 C 0.24522 0.19618 0.64755 0.0
C1837 C 0.25217 0.25199 0.64392 0.0
C1838 C 0.27671 0.24907 0.64826 0.0
C1839 C 0.29831 0.21833 0.65422 0.0
C1840 C 0.29511 0.19057 0.65645 0.0
C1841 C 0.27355 0.22131 0.65004 0.0
C1842 C 0.26694 0.16566 0.65388 0.0
C1843 C 0.2422 0.16843 0.64953 0.0
H1844 H 0.84155 0.01478 0.63518 0.0
H1845 H 0.75473 0.99122 0.61437 0.0
H1846 H 0.75732 0.0338 0.62958 0.0
H1847 H 0.78523 0.07869 0.64808 0.0
H1848 H 0.87207 0.10128 0.66878 0.0
H1849 H 0.86847 0.05821 0.65435 0.0
C1850 C 0.82324 0.01903 0.63396 0.0
C1851 C 0.79812 1.00011 0.62359 0.0
C1852 C 0.82489 0.0434 0.64271 0.0
C1853 C 0.77427 0.00549 0.62236 0.0
C1854 C 0.77581 0.02988 0.63097 0.0
C1855 C 0.80332 0.07413 0.64943 0.0
C1856 C 0.82882 0.0932 0.65954 0.0
C1857 C 0.80115 0.04915 0.64107 0.0
C1858 C 0.85202 0.0869 0.66124 0.0
C1859 C 0.85009 0.06229 0.65292 0.0
H1860 H 0.45367 0.32808 0.73284 0.0
H1861 H 0.52519 0.31737 0.71193 0.0
H1862 H 0.48936 0.27281 0.69595 0.0
H1863 H 0.43782 0.23611 0.68875 0.0
H1864 H 0.36589 0.24607 0.70987 0.0
H1865 H 0.40172 0.29149 0.72506 0.0
C1866 C 0.46137 0.31611 0.72463 0.0
C1867 C 0.49203 0.32598 0.72359 0.0
C1868 C 0.44058 0.29026 0.71564 0.0
C1869 C 0.50169 0.31007 0.71308 0.0
C1870 C 0.48123 0.28463 0.70392 0.0
C1871 C 0.42992 0.24834 0.69649 0.0
C1872 C 0.39916 0.23774 0.698 0.0
C1873 C 0.45062 0.27438 0.70523 0.0
C1874 C 0.38941 0.25366 0.70843 0.0
C1875 C 0.40991 0.27971 0.71711 0.0
H1876 H 0.68504 0.15346 0.72083 0.0
H1877 H 0.65064 0.06163 0.73016 0.0
H1878 H 0.69618 0.06541 0.71833 0.0
H1879 H 0.74648 0.09479 0.70613 0.0
H1880 H 0.78233 0.18684 0.69772 0.0
H1881 H 0.73568 0.18297 0.70799 0.0
C1882 C 0.68747 0.13427 0.72017 0.0
C1883 C 0.66447 0.10737 0.72665 0.0
C1884 C 0.714 0.13659 0.71337 0.0
C1885 C 0.66812 0.08275 0.72569 0.0
C1886 C 0.69413 0.08482 0.71879 0.0
C1887 C 0.74392 0.11393 0.7064 0.0
C1888 C 0.76752 0.14086 0.70067 0.0
C1889 C 0.7173 0.11163 0.71275 0.0
C1890 C 0.76421 0.16566 0.70149 0.0
C1891 C 0.73758 0.16349 0.70755 0.0
H1892 H 0.86508 0.52483 0.70742 0.0
H1893 H 0.93845 0.5943 0.73697 0.0
H1894 H 0.92203 0.62833 0.72832 0.0
H1895 H 0.88818 0.63879 0.71177 0.0
H1896 H 0.81394 0.56995 0.6824 0.0
H1897 H 0.82932 0.53516 0.69165 0.0
C1898 C 0.87724 0.54735 0.71209 0.0
C1899 C 0.90313 0.55711 0.72266 0.0
C1900 C 0.86768 0.56692 0.70702 0.0
C1901 C 0.91878 0.58638 0.72856 0.0
C1902 C 0.90934 0.60583 0.72369 0.0
C1903 C 0.87521 0.61621 0.70735 0.0
C1904 C 0.85026 0.6072 0.69607 0.0
C1905 C 0.88406 0.59641 0.71277 0.0
C1906 C 0.83366 0.57768 0.69073 0.0
C1907 C 0.84233 0.55772 0.69611 0.0
H1908 H 0.52472 0.96171 0.19532 0.0
H1909 H 0.43678 0.95133 0.19404 0.0
H1910 H 0.44454 0.96845 0.16299 0.0
H1911 H 0.47822 0.99095 0.13697 0.0
H1912 H 0.56734 0.00489 0.13954 0.0
H1913 H 0.55739 0.98222 0.16924 0.0
C1914 C 0.50722 0.96326 0.18833 0.0
C1915 C 0.48027 0.95539 0.19724 0.0
C1916 C 0.51216 0.97402 0.17063 0.0
C1917 C 0.45766 0.95689 0.18762 0.0
C1918 C 0.46218 0.96697 0.16985 0.0
C1919 C 0.4952 0.98853 0.14397 0.0
C1920 C 0.52345 0.9995 0.13613 0.0
C1921 C 0.48956 0.97617 0.16132 0.0
C1922 C 0.54546 0.99661 0.14536 0.0
C1923 C 0.53979 0.98372 0.16234 0.0
H1924 H 0.0491 0.50679 0.17981 0.0
H1925 H 0.03337 0.57646 0.19584 0.0
H1926 H 1.00378 0.5687 0.16849 0.0
H1927 H 0.98405 0.54334 0.13943 0.0
H1928 H 1.00137 0.47489 0.1229 0.0
H1929 H 0.02863 0.48085 0.15101 0.0
C1930 C 0.03886 0.51999 0.17739 0.0
C1931 C 0.04331 0.5421 0.18981 0.0
C1932 C 0.02233 0.51572 0.16151 0.0
C1933 C 0.03036 0.55941 0.1864 0.0
C1934 C 0.01342 0.55495 0.1708 0.0
C1935 C 0.99351 0.52952 0.14211 0.0
C1936 C 0.9907 0.5087 0.12914 0.0
C1937 C 0.00949 0.53336 0.15818 0.0
C1938 C 1.00345 0.49123 0.13263 0.0
C1939 C 0.01895 0.49456 0.14871 0.0
H1940 H 0.45373 0.51179 0.18153 0.0
H1941 H 0.54347 0.55209 0.20259 0.0
H1942 H 0.56148 0.54695 0.17334 0.0
H1943 H 0.55194 0.5293 0.14212 0.0
H1944 H 0.46225 0.48645 0.12105 0.0
H1945 H 0.44423 0.49444 0.14983 0.0
C1946 C 0.47722 0.5194 0.17975 0.0
C1947 C 0.49713 0.53252 0.19437 0.0
C1948 C 0.48753 0.51587 0.16284 0.0
C1949 C 0.52757 0.5425 0.19162 0.0
C1950 C 0.53795 0.53931 0.17488 0.0
C1951 C 0.52839 0.5215 0.14382 0.0
C1952 C 0.5085 0.50708 0.12942 0.0
C1953 C 0.51812 0.52577 0.16046 0.0
C1954 C 0.47816 0.49781 0.13181 0.0
C1955 C 0.46779 0.5022 0.14833 0.0
H1956 H 0.956 0.45336 0.83428 0.0
H1957 H 0.02468 0.53802 0.81658 0.0
H1958 H 0.04859 0.54795 0.84617 0.0
H1959 H 0.05074 0.53226 0.87688 0.0
H1960 H 0.98175 0.44828 0.89517 0.0
H1961 H 0.95715 0.43836 0.86563 0.0
C1962 C 0.97618 0.47395 0.83696 0.0
C1963 C 0.98853 0.49493 0.82328 0.0
C1964 C 0.98978 0.4796 0.85408 0.0
C1965 C 0.01455 0.52166 0.82695 0.0
C1966 C 0.02834 0.52729 0.84383 0.0
C1967 C 0.03037 0.51176 0.87435 0.0
C1968 C 0.01817 0.49093 0.88807 0.0
C1969 C 0.01627 0.50638 0.85745 0.0
C1970 C 0.99149 0.46466 0.88477 0.0
C1971 C 0.97749 0.45896 0.86789 0.0
H1972 H 0.54748 0.50424 0.82918 0.0
H1973 H 0.508 0.41247 0.8405 0.0
H1974 H 0.48778 0.41924 0.86877 0.0
H1975 H 0.48093 0.45133 0.89025 0.0
H1976 H 0.51777 0.54246 0.87801 0.0
H1977 H 0.53955 0.53606 0.85025 0.0
C1978 C 0.5345 0.4858 0.83789 0.0
C1979 C 0.52923 0.45791 0.83279 0.0
C1980 C 0.52253 0.48979 0.85398 0.0
C1981 C 0.51213 0.4341 0.84408 0.0
C1982 C 0.50068 0.43798 0.86028 0.0
C1983 C 0.49389 0.46974 0.88151 0.0
C1984 C 0.49794 0.49734 0.88615 0.0
C1985 C 0.5057 0.46572 0.86537 0.0
C1986 C 0.51439 0.52102 0.87465 0.0
C1987 C 0.52682 0.51736 0.85881 0.0
H1988 H 0.54272 0.05037 0.83889 0.0
H1989 H 0.45724 0.04039 0.82515 0.0
H1990 H 0.43837 0.02056 0.85484 0.0
H1991 H 0.44483 0.00318 0.88415 0.0
H1992 H 0.53026 0.01426 0.89878 0.0
H1993 H 0.55055 0.03706 0.86961 0.0
C1994 C 0.52013 0.04434 0.84248 0.0
C1995 C 0.50133 0.04641 0.8295 0.0
C1996 C 0.50931 0.03303 0.85979 0.0
C1997 C 0.47207 0.03836 0.83454 0.0
C1998 C 0.46123 0.02713 0.85162 0.0
C1999 C 0.46795 0.01072 0.88099 0.0
C2000 C 0.48591 0.00674 0.89357 0.0
C2001 C 0.47942 0.02379 0.86422 0.0
C2002 C 0.51596 0.0171 0.88937 0.0
C2003 C 0.52751 0.03 0.87263 0.0
H2004 H 0.12411 0.26817 0.51941 0.0
H2005 H 0.21094 0.32643 0.5423 0.0
H2006 H 0.22752 0.35123 0.51368 0.0
H2007 H 0.21732 0.35812 0.48253 0.0
H2008 H 0.13 0.30261 0.45965 0.0
H2009 H 0.11393 0.27508 0.48773 0.0
C2010 C 0.14663 0.28633 0.51818 0.0
C2011 C 0.16621 0.29505 0.53314 0.0
C2012 C 0.15604 0.30114 0.50162 0.0
C2013 C 0.19543 0.31855 0.53107 0.0
C2014 C 0.20495 0.33306 0.51468 0.0
C2015 C 0.19467 0.34014 0.48366 0.0
C2016 C 0.1749 0.33273 0.46895 0.0
C2017 C 0.18541 0.32476 0.49993 0.0
C2018 C 0.14586 0.30879 0.47064 0.0
C2019 C 0.13656 0.29312 0.48677 0.0
H2020 H 0.72618 0.84049 0.50635 0.0
H2021 H 0.68055 0.87939 0.53305 0.0
H2022 H 0.64694 0.86715 0.50709 0.0
H2023 H 0.63317 0.84859 0.47587 0.0
H2024 H 0.67842 0.80862 0.44975 0.0
H2025 H 0.70967 0.81823 0.47637 0.0
C2026 C 0.70879 0.84618 0.50646 0.0
C2027 C 0.70595 0.86106 0.52141 0.0
C2028 C 0.68966 0.83907 0.49157 0.0
C2029 C 0.68306 0.8679 0.52163 0.0
C2030 C 0.66397 0.86101 0.50678 0.0
C2031 C 0.64949 0.84151 0.47614 0.0
C2032 C 0.65376 0.82834 0.46072 0.0
C2033 C 0.66737 0.84699 0.49156 0.0
C2034 C 0.67513 0.81942 0.46127 0.0
C2035 C 0.69294 0.82478 0.47651 0.0
H2036 H 0.19231 0.85104 0.52745 0.0
H2037 H 0.10427 0.83168 0.5112 0.0
H2038 H 0.11239 0.81786 0.48116 0.0
H2039 H 0.14374 0.80889 0.45984 0.0
H2040 H 0.2332 0.83282 0.47583 0.0
H2041 H 0.22534 0.84793 0.50541 0.0
C2042 C 0.17501 0.84459 0.51733 0.0
C2043 C 0.14755 0.84231 0.52192 0.0
C2044 C 0.18004 0.83734 0.49991 0.0
C2045 C 0.12541 0.83309 0.50842 0.0
C2046 C 0.13011 0.82538 0.4911 0.0
C2047 C 0.16172 0.81792 0.46966 0.0
C2048 C 0.18883 0.81903 0.46562 0.0
C2049 C 0.15723 0.82705 0.48674 0.0
C2050 C 0.21179 0.83083 0.47864 0.0
C2051 C 0.2074 0.83966 0.49559 0.0
H2052 H 0.64542 0.84203 0.1657 0.0
H2053 H 0.69023 0.79603 0.14816 0.0
H2054 H 0.71142 0.80117 0.17826 0.0
H2055 H 0.71769 0.81909 0.20948 0.0
H2056 H 0.67302 0.86509 0.22719 0.0
H2057 H 0.65077 0.85897 0.19725 0.0
C2058 C 0.65955 0.83285 0.16852 0.0
C2059 C 0.66637 0.81884 0.15464 0.0
C2060 C 0.67164 0.83581 0.18591 0.0
C2061 C 0.685 0.80735 0.1585 0.0
C2062 C 0.69702 0.81014 0.17574 0.0
C2063 C 0.70324 0.82795 0.20676 0.0
C2064 C 0.69714 0.84263 0.22054 0.0
C2065 C 0.69068 0.82451 0.1895 0.0
C2066 C 0.6779 0.85349 0.21687 0.0
C2067 C 0.66529 0.85014 0.19973 0.0
H2068 H 0.19712 0.77237 0.18466 0.0
H2069 H 0.20823 0.84983 0.15866 0.0
H2070 H 0.18929 0.86226 0.18549 0.0
H2071 H 0.16939 0.85102 0.21625 0.0
H2072 H 0.15658 0.77251 0.24179 0.0
H2073 H 0.17722 0.76115 0.21545 0.0
C2074 C 0.19569 0.79214 0.18493 0.0
C2075 C 0.20412 0.81015 0.16966 0.0
C2076 C 0.18464 0.79907 0.20037 0.0
C2077 C 0.20164 0.83544 0.17015 0.0
C2078 C 0.19093 0.84262 0.18552 0.0
C2079 C 0.17083 0.83126 0.21604 0.0
C2080 C 0.16136 0.8127 0.23109 0.0
C2081 C 0.18221 0.82452 0.20067 0.0
C2082 C 0.16405 0.7875 0.2306 0.0
C2083 C 0.17564 0.78082 0.21545 0.0
H2084 H 0.21836 0.39732 0.17179 0.0
H2085 H 0.13117 0.34183 0.14894 0.0
H2086 H 0.11226 0.32027 0.17842 0.0
H2087 H 0.12088 0.31523 0.21021 0.0
H2088 H 0.20859 0.3679 0.23326 0.0
H2089 H 0.22669 0.39294 0.20449 0.0
C2090 C 0.19518 0.38075 0.17341 0.0
C2091 C 0.17611 0.37112 0.15826 0.0
C2092 C 0.18456 0.36791 0.19044 0.0
C2093 C 0.14619 0.34949 0.16043 0.0
C2094 C 0.1354 0.33715 0.17727 0.0
C2095 C 0.14405 0.33205 0.20899 0.0
C2096 C 0.16334 0.3393 0.22396 0.0
C2097 C 0.15447 0.34581 0.1923 0.0
C2098 C 0.19308 0.36185 0.2221 0.0
C2099 C 0.20354 0.37607 0.20556 0.0
H2100 H 0.82502 0.60478 0.85258 0.0
H2101 H 0.80284 0.6675 0.87419 0.0
H2102 H 0.81473 0.69273 0.84543 0.0
H2103 H 0.83344 0.69848 0.8145 0.0
H2104 H 0.85488 0.63577 0.79221 0.0
H2105 H 0.84115 0.60901 0.82069 0.0
C2106 C 0.82269 0.62389 0.85093 0.0
C2107 C 0.81295 0.63414 0.86555 0.0
C2108 C 0.82952 0.63838 0.83422 0.0
C2109 C 0.80987 0.65885 0.86314 0.0
C2110 C 0.81687 0.67346 0.84671 0.0
C2111 C 0.83506 0.67892 0.81588 0.0
C2112 C 0.84541 0.66927 0.80132 0.0
C2113 C 0.82699 0.66362 0.83222 0.0
C2114 C 0.8469 0.6436 0.8032 0.0
C2115 C 0.83919 0.62839 0.81952 0.0
H2116 H 0.40799 0.23433 0.83816 0.0
H2117 H 0.36332 0.14992 0.8636 0.0
H2118 H 0.32795 0.13014 0.83858 0.0
H2119 H 0.31149 0.13588 0.80851 0.0
H2120 H 0.3582 0.21932 0.78225 0.0
H2121 H 0.39133 0.24022 0.80837 0.0
C2122 C 0.39068 0.21154 0.83822 0.0
C2123 C 0.38851 0.19371 0.85281 0.0
C2124 C 0.37086 0.20004 0.82354 0.0
C2125 C 0.36541 0.16437 0.85274 0.0
C2126 C 0.34527 0.15291 0.83833 0.0
C2127 C 0.3287 0.15873 0.80864 0.0
C2128 C 0.33244 0.17606 0.79352 0.0
C2129 C 0.34798 0.17044 0.82357 0.0
C2130 C 0.35506 0.20553 0.79371 0.0
C2131 C 0.37395 0.21748 0.80864 0.0
H2132 H 0.8413 0.22119 0.85692 0.0
H2133 H 0.79089 0.12944 0.86916 0.0
H2134 H 0.80242 0.11722 0.83948 0.0
H2135 H 0.82895 0.13274 0.81057 0.0
H2136 H 0.87715 0.22412 0.79744 0.0
H2137 H 0.86441 0.23651 0.82683 0.0
C2138 C 0.83272 0.19855 0.85297 0.0
C2139 C 0.81537 0.17623 0.86519 0.0
C2140 C 0.83916 0.19168 0.83578 0.0
C2141 C 0.80412 0.14696 0.85992 0.0
C2142 C 0.81084 0.13997 0.84301 0.0
C2143 C 0.83646 0.15532 0.81417 0.0
C2144 C 0.85413 0.17755 0.80204 0.0
C2145 C 0.82864 0.16215 0.83092 0.0
C2146 C 0.86351 0.20672 0.80665 0.0
C2147 C 0.85631 0.21377 0.82344 0.0
H2148 H 0.31998 0.18181 0.49654 0.0
H2149 H 0.34438 0.11779 0.48084 0.0
H2150 H 0.36117 0.11745 0.51144 0.0
H2151 H 0.37127 0.13687 0.54235 0.0
H2152 H 0.34572 0.19954 0.55882 0.0
H2153 H 0.32651 0.19844 0.52841 0.0
C2154 C 0.32856 0.16748 0.49987 0.0
C2155 C 0.33143 0.15031 0.48624 0.0
C2156 C 0.33804 0.16717 0.51766 0.0
C2157 C 0.34265 0.13187 0.49088 0.0
C2158 C 0.35212 0.13149 0.50843 0.0
C2159 C 0.36144 0.15024 0.53926 0.0
C2160 C 0.36019 0.16848 0.55271 0.0
C2161 C 0.35042 0.14942 0.52184 0.0
C2162 C 0.3469 0.1853 0.54867 0.0
C2163 C 0.33603 0.18475 0.53127 0.0
H2164 H 0.82858 0.12394 0.4988 0.0
H2165 H 0.91677 0.15637 0.52056 0.0
H2166 H 0.90199 0.16937 0.54889 0.0
H2167 H 0.86397 0.17128 0.56759 0.0
H2168 H 0.77479 0.13611 0.54653 0.0
H2169 H 0.79007 0.12489 0.51788 0.0
C2170 C 0.84456 0.13407 0.50972 0.0
C2171 C 0.87372 0.13924 0.50759 0.0
C2172 C 0.83574 0.14102 0.52614 0.0
C2173 C 0.89414 0.15205 0.52192 0.0
C2174 C 0.88571 0.15951 0.53812 0.0
C2175 C 0.84772 0.16083 0.55685 0.0
C2176 C 0.81824 0.15474 0.55934 0.0
C2177 C 0.85651 0.1539 0.54044 0.0
C2178 C 0.79776 0.14161 0.54502 0.0
C2179 C 0.80642 0.13498 0.5286 0.0
H2180 H 0.81292 0.70914 0.49858 0.0
H2181 H 0.90476 0.73399 0.50742 0.0
H2182 H 0.89287 0.7139 0.53787 0.0
H2183 H 0.85553 0.68639 0.56142 0.0
H2184 H 0.76355 0.66022 0.55174 0.0
H2185 H 0.77633 0.68396 0.5224 0.0
C2186 C 0.83046 0.71066 0.50728 0.0
C2187 C 0.8597 0.72311 0.50069 0.0
C2188 C 0.82336 0.69864 0.52465 0.0
C2189 C 0.88202 0.72434 0.51207 0.0
C2190 C 0.87523 0.71289 0.52952 0.0
C2191 C 0.83842 0.68629 0.55296 0.0
C2192 C 0.80861 0.67146 0.55872 0.0
C2193 C 0.84588 0.69956 0.53587 0.0
C2194 C 0.7866 0.67125 0.54755 0.0
C2195 C 0.7939 0.68485 0.53077 0.0
loop_
_geom_bond_atom_site_label_1
_geom_bond_atom_site_label_2
_geom_bond_distance
_geom_bond_site_symmetry_2
_ccdc_geom_bond_type
P0 O11 1.490 . S
P0 C14 1.812 . S
P0 C20 1.803 . S
P0 C26 1.819 . S
H1 C15 0.941 . S
H2 C16 0.939 . S
H3 C18 0.940 . S
H4 C19 0.940 . S
H5 C21 0.939 . S
H6 C22 0.942 . S
H7 C24 0.940 . S
H8 C25 0.939 . S
H9 C27 0.941 . S
H10 C31 0.939 . S
O11 P0 1.490 . S
H12 C28 0.939 . S
H13 C30 0.940 . S
C14 P0 1.812 . S
C14 C15 1.389 . S
C14 C19 1.391 . S
C15 H1 0.941 . S
C15 C14 1.389 . S
C15 C16 1.397 . S
C16 H2 0.939 . S
C16 C15 1.397 . S
C16 C17 1.378 . S
C17 C16 1.378 . S
C17 C18 1.378 . S
C18 H3 0.940 . S
C18 C17 1.378 . S
C18 C19 1.396 . S
C19 H4 0.940 . S
C19 C14 1.391 . S
C19 C18 1.396 . S
C20 P0 1.803 . S
C20 C21 1.378 . S
C20 C25 1.400 . S
C21 H5 0.939 . S
C21 C20 1.378 . S
C21 C22 1.361 . S
C22 H6 0.942 . S
C22 C21 1.361 . S
C22 C23 1.369 . S
C23 C22 1.369 . S
C23 C24 1.404 . S
C24 H7 0.940 . S
C24 C23 1.404 . S
C24 C25 1.389 . S
C25 H8 0.939 . S
C25 C20 1.400 . S
C25 C24 1.389 . S
C26 P0 1.819 . S
C26 C27 1.391 . S
C26 C31 1.391 . S
C27 H9 0.941 . S
C27 C26 1.391 . S
C27 C28 1.396 . S
C28 H12 0.939 . S
C28 C27 1.396 . S
C28 C29 1.397 . S
C29 C28 1.397 . S
C29 C30 1.385 . S
C30 H13 0.940 . S
C30 C29 1.385 . S
C30 C31 1.388 . S
C31 H10 0.939 . S
C31 C26 1.391 . S
C31 C30 1.388 . S
P32 O43 1.490 . S
P32 C46 1.812 . S
P32 C52 1.803 . S
P32 C58 1.819 . S
H33 C47 0.941 . S
H34 C48 0.939 . S
H35 C50 0.940 . S
H36 C51 0.940 . S
H37 C53 0.939 . S
H38 C54 0.923 1_455 S
H39 C56 0.940 . S
H40 C57 0.939 . S
H41 C59 0.941 . S
H42 C63 0.939 . S
O43 P32 1.490 . S
H44 C60 0.939 . S
H45 C62 0.940 . S
C46 P32 1.812 . S
C46 C47 1.389 . S
C46 C51 1.391 . S
C47 H33 0.941 . S
C47 C46 1.389 . S
C47 C48 1.397 . S
C48 H34 0.939 . S
C48 C47 1.397 . S
C48 C49 1.378 . S
C49 C48 1.378 . S
C49 C50 1.378 . S
C50 H35 0.940 . S
C50 C49 1.378 . S
C50 C51 1.396 . S
C51 H36 0.940 . S
C51 C46 1.391 . S
C51 C50 1.396 . S
C52 P32 1.803 . S
C52 C53 1.378 . S
C52 C57 1.400 . S
C53 H37 0.939 . S
C53 C52 1.378 . S
C53 C54 1.361 . S
C54 H38 0.923 1_655 S
C54 C53 1.361 . S
C54 C55 1.369 . S
C55 C54 1.369 . S
C55 C56 1.404 . S
C56 H39 0.940 . S
C56 C55 1.404 . S
C56 C57 1.389 . S
C57 H40 0.939 . S
C57 C52 1.400 . S
C57 C56 1.389 . S
C58 P32 1.819 . S
C58 C59 1.391 . S
C58 C63 1.391 . S
C59 H41 0.941 . S
C59 C58 1.391 . S
C59 C60 1.396 . S
C60 H44 0.939 . S
C60 C59 1.396 . S
C60 C61 1.397 . S
C61 C60 1.397 . S
C61 C62 1.385 . S
C62 H45 0.940 . S
C62 C61 1.385 . S
C62 C63 1.388 . S
C63 H42 0.939 . S
C63 C58 1.391 . S
C63 C62 1.388 . S
P64 O75 1.490 . S
P64 C78 1.812 . S
P64 C84 1.803 . S
P64 C90 1.819 . S
H65 C79 0.941 . S
H66 C80 0.939 . S
H67 C82 0.940 . S
H68 C83 0.940 . S
H69 C85 0.939 . S
H70 C86 0.942 . S
H71 C88 0.940 . S
H72 C89 0.939 . S
H73 C91 0.941 . S
H74 C95 0.939 . S
O75 P64 1.490 . S
H76 C92 0.939 . S
H77 C94 0.940 . S
C78 P64 1.812 . S
C78 C79 1.389 . S
C78 C83 1.391 . S
C79 H65 0.941 . S
C79 C78 1.389 . S
C79 C80 1.397 . S
C80 H66 0.939 . S
C80 C79 1.397 . S
C80 C81 1.378 . S
C81 C80 1.378 . S
C81 C82 1.378 . S
C82 H67 0.940 . S
C82 C81 1.378 . S
C82 C83 1.396 . S
C83 H68 0.940 . S
C83 C78 1.391 . S
C83 C82 1.396 . S
C84 P64 1.803 . S
C84 C85 1.378 . S
C84 C89 1.400 . S
C85 H69 0.939 . S
C85 C84 1.378 . S
C85 C86 1.361 . S
C86 H70 0.942 . S
C86 C85 1.361 . S
C86 C87 1.369 . S
C87 C86 1.369 . S
C87 C88 1.404 . S
C88 H71 0.940 . S
C88 C87 1.404 . S
C88 C89 1.389 . S
C89 H72 0.939 . S
C89 C84 1.400 . S
C89 C88 1.389 . S
C90 P64 1.819 . S
C90 C91 1.391 . S
C90 C95 1.391 . S
C91 H73 0.941 . S
C91 C90 1.391 . S
C91 C92 1.396 . S
C92 H76 0.939 . S
C92 C91 1.396 . S
C92 C93 1.397 . S
C93 C92 1.397 . S
C93 C94 1.385 . S
C94 H77 0.940 . S
C94 C93 1.385 . S
C94 C95 1.388 . S
C95 H74 0.939 . S
C95 C90 1.391 . S
C95 C94 1.388 . S
P96 O107 1.490 . S
P96 C110 1.812 . S
P96 C116 1.803 . S
P96 C122 1.819 . S
H97 C111 0.941 . S
H98 C112 0.939 . S
H99 C114 0.940 . S
H100 C115 0.940 . S
H101 C117 0.939 . S
H102 C118 0.942 . S
H103 C120 0.940 . S
H104 C121 0.939 . S
H105 C123 0.941 . S
H106 C127 0.939 . S
O107 P96 1.490 . S
H108 C124 0.939 . S
H109 C126 0.940 . S
C110 P96 1.812 . S
C110 C111 1.389 . S
C110 C115 1.391 . S
C111 H97 0.941 . S
C111 C110 1.389 . S
C111 C112 1.397 . S
C112 H98 0.939 . S
C112 C111 1.397 . S
C112 C113 1.378 . S
C113 C112 1.378 . S
C113 C114 1.378 . S
C114 H99 0.940 . S
C114 C113 1.378 . S
C114 C115 1.396 . S
C115 H100 0.940 . S
C115 C110 1.391 . S
C115 C114 1.396 . S
C116 P96 1.803 . S
C116 C117 1.378 . S
C116 C121 1.400 . S
C117 H101 0.939 . S
C117 C116 1.378 . S
C117 C118 1.361 . S
C118 H102 0.942 . S
C118 C117 1.361 . S
C118 C119 1.369 . S
C119 C118 1.369 . S
C119 C120 1.404 . S
C120 H103 0.940 . S
C120 C119 1.404 . S
C120 C121 1.389 . S
C121 H104 0.939 . S
C121 C116 1.400 . S
C121 C120 1.389 . S
C122 P96 1.819 . S
C122 C123 1.391 . S
C122 C127 1.391 . S
C123 H105 0.941 . S
C123 C122 1.391 . S
C123 C124 1.396 . S
C124 H108 0.939 . S
C124 C123 1.396 . S
C124 C125 1.397 . S
C125 C124 1.397 . S
C125 C126 1.385 . S
C126 H109 0.940 . S
C126 C125 1.385 . S
C126 C127 1.388 . S
C127 H106 0.939 . S
C127 C122 1.391 . S
C127 C126 1.388 . S
P128 O139 1.490 . S
P128 C142 1.812 . S
P128 C148 1.803 . S
P128 C154 1.819 . S
H129 C143 0.941 . S
H130 C144 0.939 . S
H131 C146 0.940 . S
H132 C147 0.940 . S
H133 C149 0.939 . S
H134 C150 0.942 . S
H135 C152 0.940 . S
H136 C153 0.939 . S
H137 C155 0.941 . S
H138 C159 0.939 . S
O139 P128 1.490 . S
H140 C156 0.939 . S
H141 C158 0.940 . S
C142 P128 1.812 . S
C142 C143 1.389 . S
C142 C147 1.391 . S
C143 H129 0.941 . S
C143 C142 1.389 . S
C143 C144 1.397 . S
C144 H130 0.939 . S
C144 C143 1.397 . S
C144 C145 1.378 . S
C145 C144 1.378 . S
C145 C146 1.378 . S
C146 H131 0.940 . S
C146 C145 1.378 . S
C146 C147 1.396 . S
C147 H132 0.940 . S
C147 C142 1.391 . S
C147 C146 1.396 . S
C148 P128 1.803 . S
C148 C149 1.378 . S
C148 C153 1.400 . S
C149 H133 0.939 . S
C149 C148 1.378 . S
C149 C150 1.361 . S
C150 H134 0.942 . S
C150 C149 1.361 . S
C150 C151 1.369 . S
C151 C150 1.369 . S
C151 C152 1.404 . S
C152 H135 0.940 . S
C152 C151 1.404 . S
C152 C153 1.389 . S
C153 H136 0.939 . S
C153 C148 1.400 . S
C153 C152 1.389 . S
C154 P128 1.819 . S
C154 C155 1.391 . S
C154 C159 1.391 . S
C155 H137 0.941 . S
C155 C154 1.391 . S
C155 C156 1.396 . S
C156 H140 0.939 . S
C156 C155 1.396 . S
C156 C157 1.397 . S
C157 C156 1.397 . S
C157 C158 1.385 . S
C158 H141 0.940 . S
C158 C157 1.385 . S
C158 C159 1.388 . S
C159 H138 0.939 . S
C159 C154 1.391 . S
C159 C158 1.388 . S
P160 O171 1.490 . S
P160 C174 1.812 . S
P160 C180 1.803 . S
P160 C186 1.819 . S
H161 C175 0.941 . S
H162 C176 0.939 . S
H163 C178 0.940 . S
H164 C179 0.940 . S
H165 C181 0.939 . S
H166 C182 0.942 . S
H167 C184 0.940 . S
H168 C185 0.939 . S
H169 C187 0.941 . S
H170 C191 0.939 . S
O171 P160 1.490 . S
H172 C188 0.939 . S
H173 C190 0.940 . S
C174 P160 1.812 . S
C174 C175 1.389 . S
C174 C179 1.391 . S
C175 H161 0.941 . S
C175 C174 1.389 . S
C175 C176 1.397 . S
C176 H162 0.939 . S
C176 C175 1.397 . S
C176 C177 1.378 . S
C177 C176 1.378 . S
C177 C178 1.378 . S
C178 H163 0.940 . S
C178 C177 1.378 . S
C178 C179 1.396 . S
C179 H164 0.940 . S
C179 C174 1.391 . S
C179 C178 1.396 . S
C180 P160 1.803 . S
C180 C181 1.378 . S
C180 C185 1.400 . S
C181 H165 0.939 . S
C181 C180 1.378 . S
C181 C182 1.361 . S
C182 H166 0.942 . S
C182 C181 1.361 . S
C182 C183 1.369 . S
C183 C182 1.369 . S
C183 C184 1.404 . S
C184 H167 0.940 . S
C184 C183 1.404 . S
C184 C185 1.389 . S
C185 H168 0.939 . S
C185 C180 1.400 . S
C185 C184 1.389 . S
C186 P160 1.819 . S
C186 C187 1.391 . S
C186 C191 1.391 . S
C187 H169 0.941 . S
C187 C186 1.391 . S
C187 C188 1.396 . S
C188 H172 0.939 . S
C188 C187 1.396 . S
C188 C189 1.397 . S
C189 C188 1.397 . S
C189 C190 1.385 . S
C190 H173 0.940 . S
C190 C189 1.385 . S
C190 C191 1.388 . S
C191 H170 0.939 . S
C191 C186 1.391 . S
C191 C190 1.388 . S
P192 O203 1.490 . S
P192 C206 1.812 . S
P192 C212 1.803 . S
P192 C218 1.819 . S
H193 C207 0.941 . S
H194 C208 0.939 . S
H195 C210 0.940 . S
H196 C211 0.940 . S
H197 C213 0.939 . S
H198 C214 0.942 . S
H199 C216 0.940 . S
H200 C217 0.939 . S
H201 C219 0.941 . S
H202 C223 0.939 . S
O203 P192 1.490 . S
H204 C220 0.939 . S
H205 C222 0.940 . S
C206 P192 1.812 . S
C206 C207 1.389 . S
C206 C211 1.391 . S
C207 H193 0.941 . S
C207 C206 1.389 . S
C207 C208 1.397 . S
C208 H194 0.939 . S
C208 C207 1.397 . S
C208 C209 1.378 . S
C209 C208 1.378 . S
C209 C210 1.378 . S
C210 H195 0.940 . S
C210 C209 1.378 . S
C210 C211 1.396 . S
C211 H196 0.940 . S
C211 C206 1.391 . S
C211 C210 1.396 . S
C212 P192 1.803 . S
C212 C213 1.378 . S
C212 C217 1.400 . S
C213 H197 0.939 . S
C213 C212 1.378 . S
C213 C214 1.361 . S
C214 H198 0.942 . S
C214 C213 1.361 . S
C214 C215 1.369 . S
C215 C214 1.369 . S
C215 C216 1.404 . S
C216 H199 0.940 . S
C216 C215 1.404 . S
C216 C217 1.389 . S
C217 H200 0.939 . S
C217 C212 1.400 . S
C217 C216 1.389 . S
C218 P192 1.819 . S
C218 C219 1.391 . S
C218 C223 1.391 . S
C219 H201 0.941 . S
C219 C218 1.391 . S
C219 C220 1.396 . S
C220 H204 0.939 . S
C220 C219 1.396 . S
C220 C221 1.397 . S
C221 C220 1.397 . S
C221 C222 1.385 . S
C222 H205 0.940 . S
C222 C221 1.385 . S
C222 C223 1.388 . S
C223 H202 0.939 . S
C223 C218 1.391 . S
C223 C222 1.388 . S
P224 O235 1.490 . S
P224 C238 1.812 . S
P224 C244 1.803 . S
P224 C250 1.819 . S
H225 C239 0.941 . S
H226 C240 0.939 . S
H227 C242 0.940 . S
H228 C243 0.940 . S
H229 C245 0.939 . S
H230 C246 0.942 . S
H231 C248 0.940 . S
H232 C249 0.939 . S
H233 C251 0.941 . S
H234 C255 0.939 . S
O235 P224 1.490 . S
H236 C252 0.939 . S
H237 C254 0.940 . S
C238 P224 1.812 . S
C238 C239 1.389 . S
C238 C243 1.391 . S
C239 H225 0.941 . S
C239 C238 1.389 . S
C239 C240 1.397 . S
C240 H226 0.939 . S
C240 C239 1.397 . S
C240 C241 1.378 . S
C241 C240 1.378 . S
C241 C242 1.378 . S
C242 H227 0.940 . S
C242 C241 1.378 . S
C242 C243 1.396 . S
C243 H228 0.940 . S
C243 C238 1.391 . S
C243 C242 1.396 . S
C244 P224 1.803 . S
C244 C245 1.378 . S
C244 C249 1.400 . S
C245 H229 0.939 . S
C245 C244 1.378 . S
C245 C246 1.361 . S
C246 H230 0.942 . S
C246 C245 1.361 . S
C246 C247 1.369 . S
C247 C246 1.369 . S
C247 C248 1.404 . S
C248 H231 0.940 . S
C248 C247 1.404 . S
C248 C249 1.389 . S
C249 H232 0.939 . S
C249 C244 1.400 . S
C249 C248 1.389 . S
C250 P224 1.819 . S
C250 C251 1.391 . S
C250 C255 1.391 . S
C251 H233 0.941 . S
C251 C250 1.391 . S
C251 C252 1.396 . S
C252 H236 0.939 . S
C252 C251 1.396 . S
C252 C253 1.397 . S
C253 C252 1.397 . S
C253 C254 1.385 . S
C254 H237 0.940 . S
C254 C253 1.385 . S
C254 C255 1.388 . S
C255 H234 0.939 . S
C255 C250 1.391 . S
C255 C254 1.388 . S
P256 O267 1.490 . S
P256 C270 1.812 . S
P256 C276 1.803 . S
P256 C282 1.819 . S
H257 C271 0.941 . S
H258 C272 0.939 . S
H259 C274 0.940 . S
H260 C275 0.940 . S
H261 C277 0.939 . S
H262 C278 0.942 . S
H263 C280 0.940 . S
H264 C281 0.939 . S
H265 C283 0.941 . S
H266 C287 0.939 . S
O267 P256 1.490 . S
H268 C284 0.939 . S
H269 C286 0.940 . S
C270 P256 1.812 . S
C270 C271 1.389 . S
C270 C275 1.391 . S
C271 H257 0.941 . S
C271 C270 1.389 . S
C271 C272 1.397 . S
C272 H258 0.939 . S
C272 C271 1.397 . S
C272 C273 1.378 . S
C273 C272 1.378 . S
C273 C274 1.378 . S
C274 H259 0.940 . S
C274 C273 1.378 . S
C274 C275 1.396 . S
C275 H260 0.940 . S
C275 C270 1.391 . S
C275 C274 1.396 . S
C276 P256 1.803 . S
C276 C277 1.378 . S
C276 C281 1.400 . S
C277 H261 0.939 . S
C277 C276 1.378 . S
C277 C278 1.361 . S
C278 H262 0.942 . S
C278 C277 1.361 . S
C278 C279 1.369 . S
C279 C278 1.369 . S
C279 C280 1.404 . S
C280 H263 0.940 . S
C280 C279 1.404 . S
C280 C281 1.389 . S
C281 H264 0.939 . S
C281 C276 1.400 . S
C281 C280 1.389 . S
C282 P256 1.819 . S
C282 C283 1.391 . S
C282 C287 1.391 . S
C283 H265 0.941 . S
C283 C282 1.391 . S
C283 C284 1.396 . S
C284 H268 0.939 . S
C284 C283 1.396 . S
C284 C285 1.397 . S
C285 C284 1.397 . S
C285 C286 1.385 . S
C286 H269 0.940 . S
C286 C285 1.385 . S
C286 C287 1.388 . S
C287 H266 0.939 . S
C287 C282 1.391 . S
C287 C286 1.388 . S
P288 O299 1.490 . S
P288 C302 1.812 . S
P288 C308 1.803 . S
P288 C314 1.819 . S
H289 C303 0.941 . S
H290 C304 0.939 . S
H291 C306 0.940 . S
H292 C307 0.940 . S
H293 C309 0.939 . S
H294 C310 0.942 . S
H295 C312 0.940 . S
H296 C313 0.939 . S
H297 C315 0.941 . S
H298 C319 0.939 . S
O299 P288 1.490 . S
H300 C316 0.939 . S
H301 C318 0.940 . S
C302 P288 1.812 . S
C302 C303 1.389 . S
C302 C307 1.391 . S
C303 H289 0.941 . S
C303 C302 1.389 . S
C303 C304 1.397 . S
C304 H290 0.939 . S
C304 C303 1.397 . S
C304 C305 1.378 . S
C305 C304 1.378 . S
C305 C306 1.378 . S
C306 H291 0.940 . S
C306 C305 1.378 . S
C306 C307 1.396 . S
C307 H292 0.940 . S
C307 C302 1.391 . S
C307 C306 1.396 . S
C308 P288 1.803 . S
C308 C309 1.378 . S
C308 C313 1.400 . S
C309 H293 0.939 . S
C309 C308 1.378 . S
C309 C310 1.361 . S
C310 H294 0.942 . S
C310 C309 1.361 . S
C310 C311 1.369 . S
C311 C310 1.369 . S
C311 C312 1.404 . S
C312 H295 0.940 . S
C312 C311 1.404 . S
C312 C313 1.389 . S
C313 H296 0.939 . S
C313 C308 1.400 . S
C313 C312 1.389 . S
C314 P288 1.819 . S
C314 C315 1.391 . S
C314 C319 1.391 . S
C315 H297 0.941 . S
C315 C314 1.391 . S
C315 C316 1.396 . S
C316 H300 0.939 . S
C316 C315 1.396 . S
C316 C317 1.397 . S
C317 C316 1.397 . S
C317 C318 1.385 . S
C318 H301 0.940 . S
C318 C317 1.385 . S
C318 C319 1.388 . S
C319 H298 0.939 . S
C319 C314 1.391 . S
C319 C318 1.388 . S
P320 O331 1.490 . S
P320 C334 1.812 . S
P320 C340 1.803 . S
P320 C346 1.819 . S
H321 C335 0.941 . S
H322 C336 0.939 . S
H323 C338 0.940 . S
H324 C339 0.940 . S
H325 C341 0.939 . S
H326 C342 0.942 . S
H327 C344 0.940 . S
H328 C345 0.939 . S
H329 C347 0.941 . S
H330 C351 0.939 . S
O331 P320 1.490 . S
H332 C348 0.939 . S
H333 C350 0.940 . S
C334 P320 1.812 . S
C334 C335 1.389 . S
C334 C339 1.391 . S
C335 H321 0.941 . S
C335 C334 1.389 . S
C335 C336 1.397 . S
C336 H322 0.939 . S
C336 C335 1.397 . S
C336 C337 1.378 . S
C337 C336 1.378 . S
C337 C338 1.378 . S
C338 H323 0.940 . S
C338 C337 1.378 . S
C338 C339 1.396 . S
C339 H324 0.940 . S
C339 C334 1.391 . S
C339 C338 1.396 . S
C340 P320 1.803 . S
C340 C341 1.378 . S
C340 C345 1.400 . S
C341 H325 0.939 . S
C341 C340 1.378 . S
C341 C342 1.361 . S
C342 H326 0.942 . S
C342 C341 1.361 . S
C342 C343 1.369 . S
C343 C342 1.369 . S
C343 C344 1.404 . S
C344 H327 0.940 . S
C344 C343 1.404 . S
C344 C345 1.389 . S
C345 H328 0.939 . S
C345 C340 1.400 . S
C345 C344 1.389 . S
C346 P320 1.819 . S
C346 C347 1.391 . S
C346 C351 1.391 . S
C347 H329 0.941 . S
C347 C346 1.391 . S
C347 C348 1.396 . S
C348 H332 0.939 . S
C348 C347 1.396 . S
C348 C349 1.397 . S
C349 C348 1.397 . S
C349 C350 1.385 . S
C350 H333 0.940 . S
C350 C349 1.385 . S
C350 C351 1.388 . S
C351 H330 0.939 . S
C351 C346 1.391 . S
C351 C350 1.388 . S
P352 O363 1.490 . S
P352 C366 1.812 . S
P352 C372 1.803 . S
P352 C378 1.819 . S
H353 C367 0.941 . S
H354 C368 0.939 . S
H355 C370 0.940 . S
H356 C371 0.940 . S
H357 C373 0.939 . S
H358 C374 0.942 . S
H359 C376 0.940 . S
H360 C377 0.939 . S
H361 C379 0.941 . S
H362 C383 0.939 . S
O363 P352 1.490 . S
H364 C380 0.939 . S
H365 C382 0.940 . S
C366 P352 1.812 . S
C366 C367 1.389 . S
C366 C371 1.391 . S
C367 H353 0.941 . S
C367 C366 1.389 . S
C367 C368 1.397 . S
C368 H354 0.939 . S
C368 C367 1.397 . S
C368 C369 1.378 . S
C369 C368 1.378 . S
C369 C370 1.378 . S
C370 H355 0.940 . S
C370 C369 1.378 . S
C370 C371 1.396 . S
C371 H356 0.940 . S
C371 C366 1.391 . S
C371 C370 1.396 . S
C372 P352 1.803 . S
C372 C373 1.378 . S
C372 C377 1.400 . S
C373 H357 0.939 . S
C373 C372 1.378 . S
C373 C374 1.361 . S
C374 H358 0.942 . S
C374 C373 1.361 . S
C374 C375 1.369 . S
C375 C374 1.369 . S
C375 C376 1.404 . S
C376 H359 0.940 . S
C376 C375 1.404 . S
C376 C377 1.389 . S
C377 H360 0.939 . S
C377 C372 1.400 . S
C377 C376 1.389 . S
C378 P352 1.819 . S
C378 C379 1.391 . S
C378 C383 1.391 . S
C379 H361 0.941 . S
C379 C378 1.391 . S
C379 C380 1.396 . S
C380 H364 0.939 . S
C380 C379 1.396 . S
C380 C381 1.397 . S
C381 C380 1.397 . S
C381 C382 1.385 . S
C382 H365 0.940 . S
C382 C381 1.385 . S
C382 C383 1.388 . S
C383 H362 0.939 . S
C383 C378 1.391 . S
C383 C382 1.388 . S
P384 O395 1.490 . S
P384 C398 1.812 . S
P384 C404 1.803 . S
P384 C410 1.819 . S
H385 C399 0.941 . S
H386 C400 0.939 . S
H387 C402 0.940 . S
H388 C403 0.940 . S
H389 C405 0.939 . S
H390 C406 0.942 . S
H391 C408 0.940 . S
H392 C409 0.939 . S
H393 C411 0.941 . S
H394 C415 0.939 . S
O395 P384 1.490 . S
H396 C412 0.939 . S
H397 C414 0.940 . S
C398 P384 1.812 . S
C398 C399 1.389 . S
C398 C403 1.391 . S
C399 H385 0.941 . S
C399 C398 1.389 . S
C399 C400 1.397 . S
C400 H386 0.939 . S
C400 C399 1.397 . S
C400 C401 1.378 . S
C401 C400 1.378 . S
C401 C402 1.378 . S
C402 H387 0.940 . S
C402 C401 1.378 . S
C402 C403 1.396 . S
C403 H388 0.940 . S
C403 C398 1.391 . S
C403 C402 1.396 . S
C404 P384 1.803 . S
C404 C405 1.378 . S
C404 C409 1.400 . S
C405 H389 0.939 . S
C405 C404 1.378 . S
C405 C406 1.361 . S
C406 H390 0.942 . S
C406 C405 1.361 . S
C406 C407 1.369 . S
C407 C406 1.369 . S
C407 C408 1.404 . S
C408 H391 0.940 . S
C408 C407 1.404 . S
C408 C409 1.389 . S
C409 H392 0.939 . S
C409 C404 1.400 . S
C409 C408 1.389 . S
C410 P384 1.819 . S
C410 C411 1.391 . S
C410 C415 1.391 . S
C411 H393 0.941 . S
C411 C410 1.391 . S
C411 C412 1.396 . S
C412 H396 0.939 . S
C412 C411 1.396 . S
C412 C413 1.397 . S
C413 C412 1.397 . S
C413 C414 1.385 . S
C414 H397 0.940 . S
C414 C413 1.385 . S
C414 C415 1.388 . S
C415 H394 0.939 . S
C415 C410 1.391 . S
C415 C414 1.388 . S
P416 O427 1.490 . S
P416 C430 1.812 . S
P416 C436 1.803 . S
P416 C442 1.819 . S
H417 C431 0.941 . S
H418 C432 0.939 . S
H419 C434 0.940 . S
H420 C435 0.940 . S
H421 C437 0.939 . S
H422 C438 0.942 . S
H423 C440 0.940 . S
H424 C441 0.939 . S
H425 C443 0.941 . S
H426 C447 0.939 . S
O427 P416 1.490 . S
H428 C444 0.939 . S
H429 C446 0.940 . S
C430 P416 1.812 . S
C430 C431 1.389 . S
C430 C435 1.391 . S
C431 H417 0.941 . S
C431 C430 1.389 . S
C431 C432 1.397 . S
C432 H418 0.939 . S
C432 C431 1.397 . S
C432 C433 1.378 . S
C433 C432 1.378 . S
C433 C434 1.378 . S
C434 H419 0.940 . S
C434 C433 1.378 . S
C434 C435 1.396 . S
C435 H420 0.940 . S
C435 C430 1.391 . S
C435 C434 1.396 . S
C436 P416 1.803 . S
C436 C437 1.378 . S
C436 C441 1.400 . S
C437 H421 0.939 . S
C437 C436 1.378 . S
C437 C438 1.361 . S
C438 H422 0.942 . S
C438 C437 1.361 . S
C438 C439 1.369 . S
C439 C438 1.369 . S
C439 C440 1.404 . S
C440 H423 0.940 . S
C440 C439 1.404 . S
C440 C441 1.389 . S
C441 H424 0.939 . S
C441 C436 1.400 . S
C441 C440 1.389 . S
C442 P416 1.819 . S
C442 C443 1.391 . S
C442 C447 1.391 . S
C443 H425 0.941 . S
C443 C442 1.391 . S
C443 C444 1.396 . S
C444 H428 0.939 . S
C444 C443 1.396 . S
C444 C445 1.397 . S
C445 C444 1.397 . S
C445 C446 1.385 . S
C446 H429 0.940 . S
C446 C445 1.385 . S
C446 C447 1.388 . S
C447 H426 0.939 . S
C447 C442 1.391 . S
C447 C446 1.388 . S
P448 O459 1.490 . S
P448 C462 1.812 . S
P448 C468 1.803 . S
P448 C474 1.819 . S
H449 C463 0.941 . S
H450 C464 0.939 . S
H451 C466 0.940 . S
H452 C467 0.940 . S
H453 C469 0.939 . S
H454 C470 0.942 . S
H455 C472 0.940 . S
H456 C473 0.939 . S
H457 C475 0.941 . S
H458 C479 0.939 . S
O459 P448 1.490 . S
H460 C476 0.939 . S
H461 C478 0.940 . S
C462 P448 1.812 . S
C462 C463 1.389 . S
C462 C467 1.391 . S
C463 H449 0.941 . S
C463 C462 1.389 . S
C463 C464 1.397 . S
C464 H450 0.939 . S
C464 C463 1.397 . S
C464 C465 1.378 . S
C465 C464 1.378 . S
C465 C466 1.378 . S
C466 H451 0.940 . S
C466 C465 1.378 . S
C466 C467 1.396 . S
C467 H452 0.940 . S
C467 C462 1.391 . S
C467 C466 1.396 . S
C468 P448 1.803 . S
C468 C469 1.378 . S
C468 C473 1.400 . S
C469 H453 0.939 . S
C469 C468 1.378 . S
C469 C470 1.361 . S
C470 H454 0.942 . S
C470 C469 1.361 . S
C470 C471 1.369 . S
C471 C470 1.369 . S
C471 C472 1.404 . S
C472 H455 0.940 . S
C472 C471 1.404 . S
C472 C473 1.389 . S
C473 H456 0.939 . S
C473 C468 1.400 . S
C473 C472 1.389 . S
C474 P448 1.819 . S
C474 C475 1.391 . S
C474 C479 1.391 . S
C475 H457 0.941 . S
C475 C474 1.391 . S
C475 C476 1.396 . S
C476 H460 0.939 . S
C476 C475 1.396 . S
C476 C477 1.397 . S
C477 C476 1.397 . S
C477 C478 1.385 . S
C478 H461 0.940 . S
C478 C477 1.385 . S
C478 C479 1.388 . S
C479 H458 0.939 . S
C479 C474 1.391 . S
C479 C478 1.388 . S
P480 O491 1.490 . S
P480 C494 1.812 . S
P480 C500 1.803 . S
P480 C506 1.819 . S
H481 C495 0.941 . S
H482 C496 0.939 . S
H483 C498 0.940 . S
H484 C499 0.940 . S
H485 C501 0.939 . S
H486 C502 0.942 . S
H487 C504 0.940 . S
H488 C505 0.939 . S
H489 C507 0.941 . S
H490 C511 0.939 . S
O491 P480 1.490 . S
H492 C508 0.939 . S
H493 C510 0.940 . S
C494 P480 1.812 . S
C494 C495 1.389 . S
C494 C499 1.391 . S
C495 H481 0.941 . S
C495 C494 1.389 . S
C495 C496 1.397 . S
C496 H482 0.939 . S
C496 C495 1.397 . S
C496 C497 1.378 . S
C497 C496 1.378 . S
C497 C498 1.378 . S
C498 H483 0.940 . S
C498 C497 1.378 . S
C498 C499 1.396 . S
C499 H484 0.940 . S
C499 C494 1.391 . S
C499 C498 1.396 . S
C500 P480 1.803 . S
C500 C501 1.378 . S
C500 C505 1.400 . S
C501 H485 0.939 . S
C501 C500 1.378 . S
C501 C502 1.361 . S
C502 H486 0.942 . S
C502 C501 1.361 . S
C502 C503 1.369 . S
C503 C502 1.369 . S
C503 C504 1.404 . S
C504 H487 0.940 . S
C504 C503 1.404 . S
C504 C505 1.389 . S
C505 H488 0.939 . S
C505 C500 1.400 . S
C505 C504 1.389 . S
C506 P480 1.819 . S
C506 C507 1.391 . S
C506 C511 1.391 . S
C507 H489 0.941 . S
C507 C506 1.391 . S
C507 C508 1.396 . S
C508 H492 0.939 . S
C508 C507 1.396 . S
C508 C509 1.397 . S
C509 C508 1.397 . S
C509 C510 1.385 . S
C510 H493 0.940 . S
C510 C509 1.385 . S
C510 C511 1.388 . S
C511 H490 0.939 . S
C511 C506 1.391 . S
C511 C510 1.388 . S
P512 O523 1.490 . S
P512 C526 1.812 . S
P512 C532 1.803 . S
P512 C538 1.819 . S
H513 C527 0.941 . S
H514 C528 0.939 . S
H515 C530 0.940 . S
H516 C531 0.940 . S
H517 C533 0.939 . S
H518 C534 0.942 . S
H519 C536 0.940 . S
H520 C537 0.939 . S
H521 C539 0.941 . S
H522 C543 0.939 . S
O523 P512 1.490 . S
H524 C540 0.939 . S
H525 C542 0.940 . S
C526 P512 1.812 . S
C526 C527 1.389 . S
C526 C531 1.391 . S
C527 H513 0.941 . S
C527 C526 1.389 . S
C527 C528 1.397 . S
C528 H514 0.939 . S
C528 C527 1.397 . S
C528 C529 1.378 . S
C529 C528 1.378 . S
C529 C530 1.378 . S
C530 H515 0.940 . S
C530 C529 1.378 . S
C530 C531 1.396 . S
C531 H516 0.940 . S
C531 C526 1.391 . S
C531 C530 1.396 . S
C532 P512 1.803 . S
C532 C533 1.378 . S
C532 C537 1.400 . S
C533 H517 0.939 . S
C533 C532 1.378 . S
C533 C534 1.361 . S
C534 H518 0.942 . S
C534 C533 1.361 . S
C534 C535 1.369 . S
C535 C534 1.369 . S
C535 C536 1.404 . S
C536 H519 0.940 . S
C536 C535 1.404 . S
C536 C537 1.389 . S
C537 H520 0.939 . S
C537 C532 1.400 . S
C537 C536 1.389 . S
C538 P512 1.819 . S
C538 C539 1.391 . S
C538 C543 1.391 . S
C539 H521 0.941 . S
C539 C538 1.391 . S
C539 C540 1.396 . S
C540 H524 0.939 . S
C540 C539 1.396 . S
C540 C541 1.397 . S
C541 C540 1.397 . S
C541 C542 1.385 . S
C542 H525 0.940 . S
C542 C541 1.385 . S
C542 C543 1.388 . S
C543 H522 0.939 . S
C543 C538 1.391 . S
C543 C542 1.388 . S
P544 O555 1.490 . S
P544 C558 1.812 . S
P544 C564 1.803 . S
P544 C570 1.819 . S
H545 C559 0.941 . S
H546 C560 0.939 . S
H547 C562 0.940 . S
H548 C563 0.940 . S
H549 C565 0.939 . S
H550 C566 0.942 . S
H551 C568 0.940 . S
H552 C569 0.939 . S
H553 C571 0.941 . S
H554 C575 0.939 . S
O555 P544 1.490 . S
H556 C572 0.939 . S
H557 C574 0.940 . S
C558 P544 1.812 . S
C558 C559 1.389 . S
C558 C563 1.391 . S
C559 H545 0.941 . S
C559 C558 1.389 . S
C559 C560 1.397 . S
C560 H546 0.939 . S
C560 C559 1.397 . S
C560 C561 1.378 . S
C561 C560 1.378 . S
C561 C562 1.378 . S
C562 H547 0.940 . S
C562 C561 1.378 . S
C562 C563 1.396 . S
C563 H548 0.940 . S
C563 C558 1.391 . S
C563 C562 1.396 . S
C564 P544 1.803 . S
C564 C565 1.378 . S
C564 C569 1.400 . S
C565 H549 0.939 . S
C565 C564 1.378 . S
C565 C566 1.361 . S
C566 H550 0.942 . S
C566 C565 1.361 . S
C566 C567 1.369 . S
C567 C566 1.369 . S
C567 C568 1.404 . S
C568 H551 0.940 . S
C568 C567 1.404 . S
C568 C569 1.389 . S
C569 H552 0.939 . S
C569 C564 1.400 . S
C569 C568 1.389 . S
C570 P544 1.819 . S
C570 C571 1.391 . S
C570 C575 1.391 . S
C571 H553 0.941 . S
C571 C570 1.391 . S
C571 C572 1.396 . S
C572 H556 0.939 . S
C572 C571 1.396 . S
C572 C573 1.397 . S
C573 C572 1.397 . S
C573 C574 1.385 . S
C574 H557 0.940 . S
C574 C573 1.385 . S
C574 C575 1.388 . S
C575 H554 0.939 . S
C575 C570 1.391 . S
C575 C574 1.388 . S
Tb576 N607 2.660 . S
Tb576 N614 2.600 . S
Tb576 O620 2.546 . S
Tb576 O621 2.610 1_565 S
Tb576 O623 2.320 1_565 S
Tb576 O624 2.552 1_565 S
Tb576 O625 2.413 . S
Tb576 O627 2.362 1_556 S
Tb576 O628 2.421 . S
Tb576 C640 2.833 . S
C577 C580 1.432 . S
C577 C581 1.414 . S
C577 N584 1.359 . S
C578 C580 1.417 . S
C578 C582 1.432 . S
C578 C590 1.410 . S
C579 C581 1.444 . S
C579 C582 1.317 . S
C579 H602 0.929 . S
C580 C577 1.432 . S
C580 C578 1.417 . S
C580 N588 1.360 . S
C581 C577 1.414 . S
C581 C579 1.444 . S
C581 C586 1.385 . S
C582 C578 1.432 . S
C582 C579 1.317 . S
C582 H594 0.930 . S
C583 C585 1.392 . S
C583 C586 1.370 . S
C583 H595 0.931 . S
N584 C577 1.359 . S
N584 C585 1.327 . S
N584 Tb587 2.600 . S
C585 C583 1.392 . S
C585 N584 1.327 . S
C585 H592 0.930 . S
C586 C581 1.385 . S
C586 C583 1.370 . S
C586 H605 0.930 . S
Tb587 N584 2.600 . S
Tb587 N588 2.660 . S
Tb587 O621 2.362 1_554 S
Tb587 O622 2.421 . S
Tb587 O626 2.546 . S
Tb587 O627 2.610 1_545 S
Tb587 O629 2.320 1_545 S
Tb587 O630 2.552 1_545 S
Tb587 O631 2.413 . S
Tb587 C651 2.833 . S
N588 C580 1.360 . S
N588 Tb587 2.660 . S
N588 C589 1.305 . S
C589 N588 1.305 . S
C589 C591 1.407 . S
C589 H596 0.930 . S
C590 C578 1.410 . S
C590 C591 1.345 . S
C590 H598 0.930 . S
C591 C589 1.407 . S
C591 C590 1.345 . S
C591 H593 0.930 . S
H592 C585 0.930 . S
H593 C591 0.930 . S
H594 C582 0.930 . S
H595 C583 0.931 . S
H596 C589 0.930 . S
H597 C611 0.930 . S
H598 C590 0.930 . S
H599 C617 0.930 . S
H600 C608 0.930 . S
H601 C615 0.931 . S
H602 C579 0.929 . S
H603 C609 0.930 . S
H604 C642 0.930 . S
H605 C586 0.930 . S
H606 C641 0.929 . S
N607 Tb576 2.660 . S
N607 C608 1.305 . S
N607 C612 1.360 . S
C608 H600 0.930 . S
C608 N607 1.305 . S
C608 C611 1.407 . S
C609 H603 0.930 . S
C609 C610 1.410 . S
C609 C611 1.345 . S
C610 C609 1.410 . S
C610 C612 1.417 . S
C610 C642 1.432 . S
C611 H597 0.930 . S
C611 C608 1.407 . S
C611 C609 1.345 . S
C612 N607 1.360 . S
C612 C610 1.417 . S
C612 C616 1.432 . S
H613 C618 0.930 . S
N614 Tb576 2.600 . S
N614 C616 1.359 . S
N614 C617 1.327 . S
C615 H601 0.931 . S
C615 C617 1.392 . S
C615 C618 1.370 . S
C616 C612 1.432 . S
C616 N614 1.359 . S
C616 C619 1.414 . S
C617 H599 0.930 . S
C617 N614 1.327 . S
C617 C615 1.392 . S
C618 H613 0.930 . S
C618 C615 1.370 . S
C618 C619 1.385 . S
C619 C616 1.414 . S
C619 C618 1.385 . S
C619 C641 1.444 . S
O620 Tb576 2.546 . S
O620 C640 1.251 . S
O621 Tb576 2.610 1_545 S
O621 Tb587 2.362 1_556 S
O621 C632 1.283 . S
O622 Tb587 2.421 . S
O622 C639 1.262 1_554 S
O623 Tb576 2.320 1_545 S
O623 C639 1.260 . S
O624 Tb576 2.552 1_545 S
O624 C632 1.243 . S
O625 Tb576 2.413 . S
O625 C640 1.256 . S
O626 Tb587 2.546 . S
O626 C651 1.251 . S
O627 Tb576 2.362 1_554 S
O627 Tb587 2.610 1_565 S
O627 C643 1.283 . S
O628 Tb576 2.421 . S
O628 C650 1.262 1_556 S
O629 Tb587 2.320 1_565 S
O629 C650 1.260 . S
O630 Tb587 2.552 1_565 S
O630 C643 1.243 . S
O631 Tb587 2.413 . S
O631 C651 1.256 . S
C632 O621 1.283 . S
C632 O624 1.243 . S
C633 C635 1.382 1_565 S
C633 C637 1.393 . S
C633 C640 1.500 . S
C634 C635 1.400 . S
C634 C636 1.384 1_545 S
C635 C633 1.382 1_545 S
C635 C634 1.400 . S
C635 H652 0.930 . S
C636 C634 1.384 1_565 S
C636 C638 1.392 . S
C636 H653 0.931 . S
C637 C633 1.393 . S
C637 C638 1.401 . S
C637 H654 0.930 . S
C638 C636 1.392 . S
C638 C637 1.401 . S
C638 H655 0.930 . S
C639 O622 1.262 1_556 S
C639 O623 1.260 . S
C640 Tb576 2.833 . S
C640 O620 1.251 . S
C640 O625 1.256 . S
C640 C633 1.500 . S
C641 H606 0.929 . S
C641 C619 1.444 . S
C641 C642 1.317 . S
C642 H604 0.930 . S
C642 C610 1.432 . S
C642 C641 1.317 . S
C643 O627 1.283 . S
C643 O630 1.243 . S
C644 C645 1.382 1_545 S
C644 C648 1.393 . S
C644 C651 1.500 . S
C645 C644 1.382 1_565 S
C645 C646 1.400 . S
C645 H656 0.930 . S
C646 C645 1.400 . S
C646 C647 1.384 1_565 S
C647 C646 1.384 1_545 S
C647 C649 1.392 . S
C647 H657 0.931 . S
C648 C644 1.393 . S
C648 C649 1.401 . S
C648 H658 0.930 . S
C649 C647 1.392 . S
C649 C648 1.401 . S
C649 H659 0.930 . S
C650 O628 1.262 1_554 S
C650 O629 1.260 . S
C651 Tb587 2.833 . S
C651 O626 1.251 . S
C651 O631 1.256 . S
C651 C644 1.500 . S
H652 C635 0.930 . S
H653 C636 0.931 . S
H654 C637 0.930 . S
H655 C638 0.930 . S
H656 C645 0.930 . S
H657 C647 0.931 . S
H658 C648 0.930 . S
H659 C649 0.930 . S
Tb660 N691 2.660 . S
Tb660 N698 2.600 . S
Tb660 O704 2.546 . S
Tb660 O705 2.610 1_455 S
Tb660 O707 2.320 1_455 S
Tb660 O708 2.552 1_455 S
Tb660 O709 2.413 . S
Tb660 O711 2.362 1_556 S
Tb660 O712 2.421 . S
Tb660 C724 2.833 . S
C661 C664 1.432 . S
C661 C665 1.414 . S
C661 N668 1.359 . S
C662 C664 1.417 . S
C662 C666 1.432 . S
C662 C674 1.410 . S
C663 C665 1.444 . S
C663 C666 1.317 . S
C663 H686 0.929 . S
C664 C661 1.432 . S
C664 C662 1.417 . S
C664 N672 1.360 . S
C665 C661 1.414 . S
C665 C663 1.444 . S
C665 C670 1.385 . S
C666 C662 1.432 . S
C666 C663 1.317 . S
C666 H678 0.930 . S
C667 C669 1.392 . S
C667 C670 1.370 . S
C667 H679 0.931 . S
N668 C661 1.359 . S
N668 C669 1.327 . S
N668 Tb671 2.600 . S
C669 C667 1.392 . S
C669 N668 1.327 . S
C669 H676 0.930 . S
C670 C665 1.385 . S
C670 C667 1.370 . S
C670 H689 0.930 . S
Tb671 N668 2.600 . S
Tb671 N672 2.660 . S
Tb671 O705 2.362 1_554 S
Tb671 O706 2.421 . S
Tb671 O710 2.546 . S
Tb671 O711 2.610 1_655 S
Tb671 O713 2.320 1_655 S
Tb671 O714 2.552 1_655 S
Tb671 O715 2.413 . S
Tb671 C735 2.833 . S
N672 C664 1.360 . S
N672 Tb671 2.660 . S
N672 C673 1.305 . S
C673 N672 1.305 . S
C673 C675 1.407 . S
C673 H680 0.930 . S
C674 C662 1.410 . S
C674 C675 1.345 . S
C674 H682 0.930 . S
C675 C673 1.407 . S
C675 C674 1.345 . S
C675 H677 0.930 . S
H676 C669 0.930 . S
H677 C675 0.930 . S
H678 C666 0.930 . S
H679 C667 0.931 . S
H680 C673 0.930 . S
H681 C695 0.930 . S
H682 C674 0.930 . S
H683 C701 0.930 . S
H684 C692 0.930 . S
H685 C699 0.931 . S
H686 C663 0.929 . S
H687 C693 0.930 . S
H688 C726 0.930 . S
H689 C670 0.930 . S
H690 C725 0.929 . S
N691 Tb660 2.660 . S
N691 C692 1.305 . S
N691 C696 1.360 . S
C692 H684 0.930 . S
C692 N691 1.305 . S
C692 C695 1.407 . S
C693 H687 0.930 . S
C693 C694 1.410 . S
C693 C695 1.345 . S
C694 C693 1.410 . S
C694 C696 1.417 . S
C694 C726 1.432 . S
C695 H681 0.930 . S
C695 C692 1.407 . S
C695 C693 1.345 . S
C696 N691 1.360 . S
C696 C694 1.417 . S
C696 C700 1.432 . S
H697 C702 0.930 . S
N698 Tb660 2.600 . S
N698 C700 1.359 . S
N698 C701 1.327 . S
C699 H685 0.931 . S
C699 C701 1.392 . S
C699 C702 1.370 . S
C700 C696 1.432 . S
C700 N698 1.359 . S
C700 C703 1.414 . S
C701 H683 0.930 . S
C701 N698 1.327 . S
C701 C699 1.392 . S
C702 H697 0.930 . S
C702 C699 1.370 . S
C702 C703 1.385 . S
C703 C700 1.414 . S
C703 C702 1.385 . S
C703 C725 1.444 . S
O704 Tb660 2.546 . S
O704 C724 1.251 . S
O705 Tb660 2.610 1_655 S
O705 Tb671 2.362 1_556 S
O705 C716 1.283 . S
O706 Tb671 2.421 . S
O706 C723 1.262 1_554 S
O707 Tb660 2.320 1_655 S
O707 C723 1.260 . S
O708 Tb660 2.552 1_655 S
O708 C716 1.243 . S
O709 Tb660 2.413 . S
O709 C724 1.256 . S
O710 Tb671 2.546 . S
O710 C735 1.251 . S
O711 Tb660 2.362 1_554 S
O711 Tb671 2.610 1_455 S
O711 C727 1.283 . S
O712 Tb660 2.421 . S
O712 C734 1.262 1_556 S
O713 Tb671 2.320 1_455 S
O713 C734 1.260 . S
O714 Tb671 2.552 1_455 S
O714 C727 1.243 . S
O715 Tb671 2.413 . S
O715 C735 1.256 . S
C716 O705 1.283 . S
C716 O708 1.243 . S
C717 C719 1.382 1_455 S
C717 C721 1.393 . S
C717 C724 1.500 . S
C718 C719 1.400 . S
C718 C720 1.384 1_655 S
C719 C717 1.382 1_655 S
C719 C718 1.400 . S
C719 H736 0.930 . S
C720 C718 1.384 1_455 S
C720 C722 1.392 . S
C720 H737 0.931 . S
C721 C717 1.393 . S
C721 C722 1.401 . S
C721 H738 0.930 . S
C722 C720 1.392 . S
C722 C721 1.401 . S
C722 H739 0.930 . S
C723 O706 1.262 1_556 S
C723 O707 1.260 . S
C724 Tb660 2.833 . S
C724 O704 1.251 . S
C724 O709 1.256 . S
C724 C717 1.500 . S
C725 H690 0.929 . S
C725 C703 1.444 . S
C725 C726 1.317 . S
C726 H688 0.930 . S
C726 C694 1.432 . S
C726 C725 1.317 . S
C727 O711 1.283 . S
C727 O714 1.243 . S
C728 C729 1.382 1_655 S
C728 C732 1.393 . S
C728 C735 1.500 . S
C729 C728 1.382 1_455 S
C729 C730 1.400 . S
C729 H740 0.930 . S
C730 C729 1.400 . S
C730 C731 1.384 1_455 S
C731 C730 1.384 1_655 S
C731 C733 1.392 . S
C731 H741 0.931 . S
C732 C728 1.393 . S
C732 C733 1.401 . S
C732 H742 0.930 . S
C733 C731 1.392 . S
C733 C732 1.401 . S
C733 H743 0.930 . S
C734 O712 1.262 1_554 S
C734 O713 1.260 . S
C735 Tb671 2.833 . S
C735 O710 1.251 . S
C735 O715 1.256 . S
C735 C728 1.500 . S
H736 C719 0.930 . S
H737 C720 0.931 . S
H738 C721 0.930 . S
H739 C722 0.930 . S
H740 C729 0.930 . S
H741 C731 0.931 . S
H742 C732 0.930 . S
H743 C733 0.930 . S
Tb744 N775 2.660 . S
Tb744 N782 2.600 . S
Tb744 O788 2.546 . S
Tb744 O789 2.610 . S
Tb744 O791 2.320 . S
Tb744 O792 2.552 . S
Tb744 O793 2.413 . S
Tb744 O795 2.362 1_554 S
Tb744 O796 2.421 . S
Tb744 C808 2.833 . S
C745 C748 1.432 . S
C745 C749 1.414 . S
C745 N752 1.359 . S
C746 C748 1.417 . S
C746 C750 1.432 . S
C746 C758 1.410 . S
C747 C749 1.444 . S
C747 C750 1.317 . S
C747 H770 0.929 . S
C748 C745 1.432 . S
C748 C746 1.417 . S
C748 N756 1.360 . S
C749 C745 1.414 . S
C749 C747 1.444 . S
C749 C754 1.385 . S
C750 C746 1.432 . S
C750 C747 1.317 . S
C750 H762 0.930 . S
C751 C753 1.392 . S
C751 C754 1.370 . S
C751 H763 0.931 . S
N752 C745 1.359 . S
N752 C753 1.327 . S
N752 Tb755 2.600 . S
C753 C751 1.392 . S
C753 N752 1.327 . S
C753 H760 0.930 . S
C754 C749 1.385 . S
C754 C751 1.370 . S
C754 H773 0.930 . S
Tb755 N752 2.600 . S
Tb755 N756 2.660 . S
Tb755 O789 2.362 1_556 S
Tb755 O790 2.421 . S
Tb755 O794 2.546 . S
Tb755 O795 2.610 . S
Tb755 O797 2.320 . S
Tb755 O798 2.552 . S
Tb755 O799 2.413 . S
Tb755 C819 2.833 . S
N756 C748 1.360 . S
N756 Tb755 2.660 . S
N756 C757 1.305 . S
C757 N756 1.305 . S
C757 C759 1.407 . S
C757 H764 0.930 . S
C758 C746 1.410 . S
C758 C759 1.345 . S
C758 H766 0.930 . S
C759 C757 1.407 . S
C759 C758 1.345 . S
C759 H761 0.930 . S
H760 C753 0.930 . S
H761 C759 0.930 . S
H762 C750 0.930 . S
H763 C751 0.931 . S
H764 C757 0.930 . S
H765 C779 0.930 . S
H766 C758 0.930 . S
H767 C785 0.930 . S
H768 C776 0.930 . S
H769 C783 0.931 . S
H770 C747 0.929 . S
H771 C777 0.930 . S
H772 C810 0.930 . S
H773 C754 0.930 . S
H774 C809 0.929 . S
N775 Tb744 2.660 . S
N775 C776 1.305 . S
N775 C780 1.360 . S
C776 H768 0.930 . S
C776 N775 1.305 . S
C776 C779 1.407 . S
C777 H771 0.930 . S
C777 C778 1.410 . S
C777 C779 1.345 . S
C778 C777 1.410 . S
C778 C780 1.417 . S
C778 C810 1.432 . S
C779 H765 0.930 . S
C779 C776 1.407 . S
C779 C777 1.345 . S
C780 N775 1.360 . S
C780 C778 1.417 . S
C780 C784 1.432 . S
H781 C786 0.930 . S
N782 Tb744 2.600 . S
N782 C784 1.359 . S
N782 C785 1.327 . S
C783 H769 0.931 . S
C783 C785 1.392 . S
C783 C786 1.370 . S
C784 C780 1.432 . S
C784 N782 1.359 . S
C784 C787 1.414 . S
C785 H767 0.930 . S
C785 N782 1.327 . S
C785 C783 1.392 . S
C786 H781 0.930 . S
C786 C783 1.370 . S
C786 C787 1.385 . S
C787 C784 1.414 . S
C787 C786 1.385 . S
C787 C809 1.444 . S
O788 Tb744 2.546 . S
O788 C808 1.251 . S
O789 Tb744 2.610 . S
O789 Tb755 2.362 1_554 S
O789 C800 1.283 . S
O790 Tb755 2.421 . S
O790 C807 1.262 1_556 S
O791 Tb744 2.320 . S
O791 C807 1.260 . S
O792 Tb744 2.552 . S
O792 C800 1.243 . S
O793 Tb744 2.413 . S
O793 C808 1.256 . S
O794 Tb755 2.546 . S
O794 C819 1.251 . S
O795 Tb744 2.362 1_556 S
O795 Tb755 2.610 . S
O795 C811 1.283 . S
O796 Tb744 2.421 . S
O796 C818 1.262 1_554 S
O797 Tb755 2.320 . S
O797 C818 1.260 . S
O798 Tb755 2.552 . S
O798 C811 1.243 . S
O799 Tb755 2.413 . S
O799 C819 1.256 . S
C800 O789 1.283 . S
C800 O792 1.243 . S
C801 C803 1.382 . S
C801 C805 1.393 . S
C801 C808 1.500 . S
C802 C803 1.400 . S
C802 C804 1.384 . S
C803 C801 1.382 . S
C803 C802 1.400 . S
C803 H820 0.930 . S
C804 C802 1.384 . S
C804 C806 1.392 . S
C804 H821 0.931 . S
C805 C801 1.393 . S
C805 C806 1.401 . S
C805 H822 0.930 . S
C806 C804 1.392 . S
C806 C805 1.401 . S
C806 H823 0.930 . S
C807 O790 1.262 1_554 S
C807 O791 1.260 . S
C808 Tb744 2.833 . S
C808 O788 1.251 . S
C808 O793 1.256 . S
C808 C801 1.500 . S
C809 H774 0.929 . S
C809 C787 1.444 . S
C809 C810 1.317 . S
C810 H772 0.930 . S
C810 C778 1.432 . S
C810 C809 1.317 . S
C811 O795 1.283 . S
C811 O798 1.243 . S
C812 C813 1.382 . S
C812 C816 1.393 . S
C812 C819 1.500 . S
C813 C812 1.382 . S
C813 C814 1.400 . S
C813 H824 0.930 . S
C814 C813 1.400 . S
C814 C815 1.384 . S
C815 C814 1.384 . S
C815 C817 1.392 . S
C815 H825 0.931 . S
C816 C812 1.393 . S
C816 C817 1.401 . S
C816 H826 0.930 . S
C817 C815 1.392 . S
C817 C816 1.401 . S
C817 H827 0.930 . S
C818 O796 1.262 1_556 S
C818 O797 1.260 . S
C819 Tb755 2.833 . S
C819 O794 1.251 . S
C819 O799 1.256 . S
C819 C812 1.500 . S
H820 C803 0.930 . S
H821 C804 0.931 . S
H822 C805 0.930 . S
H823 C806 0.930 . S
H824 C813 0.930 . S
H825 C815 0.931 . S
H826 C816 0.930 . S
H827 C817 0.930 . S
Tb828 N859 2.660 . S
Tb828 N866 2.600 . S
Tb828 O872 2.546 . S
Tb828 O873 2.610 . S
Tb828 O875 2.320 . S
Tb828 O876 2.552 . S
Tb828 O877 2.413 . S
Tb828 O879 2.362 . S
Tb828 O880 2.421 . S
Tb828 C892 2.833 . S
C829 C832 1.432 . S
C829 C833 1.414 . S
C829 N836 1.359 . S
C830 C832 1.417 . S
C830 C834 1.432 . S
C830 C842 1.410 . S
C831 C833 1.444 . S
C831 C834 1.317 . S
C831 H854 0.929 . S
C832 C829 1.432 . S
C832 C830 1.417 . S
C832 N840 1.360 . S
C833 C829 1.414 . S
C833 C831 1.444 . S
C833 C838 1.385 . S
C834 C830 1.432 . S
C834 C831 1.317 . S
C834 H846 0.930 . S
C835 C837 1.392 . S
C835 C838 1.370 . S
C835 H847 0.931 . S
N836 C829 1.359 . S
N836 C837 1.327 . S
N836 Tb839 2.600 . S
C837 C835 1.392 . S
C837 N836 1.327 . S
C837 H844 0.930 . S
C838 C833 1.385 . S
C838 C835 1.370 . S
C838 H857 0.930 . S
Tb839 N836 2.600 . S
Tb839 N840 2.660 . S
Tb839 O873 2.362 . S
Tb839 O874 2.421 . S
Tb839 O878 2.546 . S
Tb839 O879 2.610 . S
Tb839 O881 2.320 . S
Tb839 O882 2.552 . S
Tb839 O883 2.413 . S
Tb839 C903 2.833 . S
N840 C832 1.360 . S
N840 Tb839 2.660 . S
N840 C841 1.305 . S
C841 N840 1.305 . S
C841 C843 1.407 . S
C841 H848 0.930 . S
C842 C830 1.410 . S
C842 C843 1.345 . S
C842 H850 0.930 . S
C843 C841 1.407 . S
C843 C842 1.345 . S
C843 H845 0.930 . S
H844 C837 0.930 . S
H845 C843 0.930 . S
H846 C834 0.930 . S
H847 C835 0.931 . S
H848 C841 0.930 . S
H849 C863 0.930 . S
H850 C842 0.930 . S
H851 C869 0.930 . S
H852 C860 0.930 . S
H853 C867 0.931 . S
H854 C831 0.929 . S
H855 C861 0.930 . S
H856 C894 0.930 . S
H857 C838 0.930 . S
H858 C893 0.929 . S
N859 Tb828 2.660 . S
N859 C860 1.305 . S
N859 C864 1.360 . S
C860 H852 0.930 . S
C860 N859 1.305 . S
C860 C863 1.407 . S
C861 H855 0.930 . S
C861 C862 1.410 . S
C861 C863 1.345 . S
C862 C861 1.410 . S
C862 C864 1.417 . S
C862 C894 1.432 . S
C863 H849 0.930 . S
C863 C860 1.407 . S
C863 C861 1.345 . S
C864 N859 1.360 . S
C864 C862 1.417 . S
C864 C868 1.432 . S
H865 C870 0.930 . S
N866 Tb828 2.600 . S
N866 C868 1.359 . S
N866 C869 1.327 . S
C867 H853 0.931 . S
C867 C869 1.392 . S
C867 C870 1.370 . S
C868 C864 1.432 . S
C868 N866 1.359 . S
C868 C871 1.414 . S
C869 H851 0.930 . S
C869 N866 1.327 . S
C869 C867 1.392 . S
C870 H865 0.930 . S
C870 C867 1.370 . S
C870 C871 1.385 . S
C871 C868 1.414 . S
C871 C870 1.385 . S
C871 C893 1.444 . S
O872 Tb828 2.546 . S
O872 C892 1.251 . S
O873 Tb828 2.610 . S
O873 Tb839 2.362 . S
O873 C884 1.283 . S
O874 Tb839 2.421 . S
O874 C891 1.262 . S
O875 Tb828 2.320 . S
O875 C891 1.260 . S
O876 Tb828 2.552 . S
O876 C884 1.243 . S
O877 Tb828 2.413 . S
O877 C892 1.256 . S
O878 Tb839 2.546 . S
O878 C903 1.251 . S
O879 Tb828 2.362 . S
O879 Tb839 2.610 . S
O879 C895 1.283 . S
O880 Tb828 2.421 . S
O880 C902 1.262 . S
O881 Tb839 2.320 . S
O881 C902 1.260 . S
O882 Tb839 2.552 . S
O882 C895 1.243 . S
O883 Tb839 2.413 . S
O883 C903 1.256 . S
C884 O873 1.283 . S
C884 O876 1.243 . S
C885 C887 1.382 . S
C885 C889 1.393 . S
C885 C892 1.500 . S
C886 C887 1.400 . S
C886 C888 1.384 . S
C887 C885 1.382 . S
C887 C886 1.400 . S
C887 H904 0.930 . S
C888 C886 1.384 . S
C888 C890 1.392 . S
C888 H905 0.931 . S
C889 C885 1.393 . S
C889 C890 1.401 . S
C889 H906 0.930 . S
C890 C888 1.392 . S
C890 C889 1.401 . S
C890 H907 0.930 . S
C891 O874 1.262 . S
C891 O875 1.260 . S
C892 Tb828 2.833 . S
C892 O872 1.251 . S
C892 O877 1.256 . S
C892 C885 1.500 . S
C893 H858 0.929 . S
C893 C871 1.444 . S
C893 C894 1.317 . S
C894 H856 0.930 . S
C894 C862 1.432 . S
C894 C893 1.317 . S
C895 O879 1.283 . S
C895 O882 1.243 . S
C896 C897 1.382 . S
C896 C900 1.393 . S
C896 C903 1.500 . S
C897 C896 1.382 . S
C897 C898 1.400 . S
C897 H908 0.930 . S
C898 C897 1.400 . S
C898 C899 1.384 . S
C899 C898 1.384 . S
C899 C901 1.392 . S
C899 H909 0.931 . S
C900 C896 1.393 . S
C900 C901 1.401 . S
C900 H910 0.930 . S
C901 C899 1.392 . S
C901 C900 1.401 . S
C901 H911 0.930 . S
C902 O880 1.262 . S
C902 O881 1.260 . S
C903 Tb839 2.833 . S
C903 O878 1.251 . S
C903 O883 1.256 . S
C903 C896 1.500 . S
H904 C887 0.930 . S
H905 C888 0.931 . S
H906 C889 0.930 . S
H907 C890 0.930 . S
H908 C897 0.930 . S
H909 C899 0.931 . S
H910 C900 0.930 . S
H911 C901 0.930 . S
Tb912 N943 2.660 . S
Tb912 N950 2.600 . S
Tb912 O956 2.546 . S
Tb912 O957 2.610 . S
Tb912 O959 2.320 . S
Tb912 O960 2.552 . S
Tb912 O961 2.413 . S
Tb912 O963 2.362 . S
Tb912 O964 2.421 . S
Tb912 C976 2.833 . S
C913 C916 1.432 . S
C913 C917 1.414 . S
C913 N920 1.359 . S
C914 C916 1.417 . S
C914 C918 1.432 . S
C914 C926 1.410 . S
C915 C917 1.444 . S
C915 C918 1.317 . S
C915 H938 0.929 . S
C916 C913 1.432 . S
C916 C914 1.417 . S
C916 N924 1.360 . S
C917 C913 1.414 . S
C917 C915 1.444 . S
C917 C922 1.385 . S
C918 C914 1.432 . S
C918 C915 1.317 . S
C918 H930 0.930 . S
C919 C921 1.392 . S
C919 C922 1.370 . S
C919 H931 0.931 . S
N920 C913 1.359 . S
N920 C921 1.327 . S
N920 Tb923 2.600 . S
C921 C919 1.392 . S
C921 N920 1.327 . S
C921 H928 0.930 . S
C922 C917 1.385 . S
C922 C919 1.370 . S
C922 H941 0.930 . S
Tb923 N920 2.600 . S
Tb923 N924 2.660 . S
Tb923 O957 2.362 . S
Tb923 O958 2.421 . S
Tb923 O962 2.546 . S
Tb923 O963 2.610 . S
Tb923 O965 2.320 . S
Tb923 O966 2.552 . S
Tb923 O967 2.413 . S
Tb923 C987 2.833 . S
N924 C916 1.360 . S
N924 Tb923 2.660 . S
N924 C925 1.305 . S
C925 N924 1.305 . S
C925 C927 1.407 . S
C925 H932 0.930 . S
C926 C914 1.410 . S
C926 C927 1.345 . S
C926 H934 0.930 . S
C927 C925 1.407 . S
C927 C926 1.345 . S
C927 H929 0.930 . S
H928 C921 0.930 . S
H929 C927 0.930 . S
H930 C918 0.930 . S
H931 C919 0.931 . S
H932 C925 0.930 . S
H933 C947 0.930 . S
H934 C926 0.930 . S
H935 C953 0.930 . S
H936 C944 0.930 . S
H937 C951 0.931 . S
H938 C915 0.929 . S
H939 C945 0.930 . S
H940 C978 0.930 . S
H941 C922 0.930 . S
H942 C977 0.929 . S
N943 Tb912 2.660 . S
N943 C944 1.305 . S
N943 C948 1.360 . S
C944 H936 0.930 . S
C944 N943 1.305 . S
C944 C947 1.407 . S
C945 H939 0.930 . S
C945 C946 1.410 . S
C945 C947 1.345 . S
C946 C945 1.410 . S
C946 C948 1.417 . S
C946 C978 1.432 . S
C947 H933 0.930 . S
C947 C944 1.407 . S
C947 C945 1.345 . S
C948 N943 1.360 . S
C948 C946 1.417 . S
C948 C952 1.432 . S
H949 C954 0.930 . S
N950 Tb912 2.600 . S
N950 C952 1.359 . S
N950 C953 1.327 . S
C951 H937 0.931 . S
C951 C953 1.392 . S
C951 C954 1.370 . S
C952 C948 1.432 . S
C952 N950 1.359 . S
C952 C955 1.414 . S
C953 H935 0.930 . S
C953 N950 1.327 . S
C953 C951 1.392 . S
C954 H949 0.930 . S
C954 C951 1.370 . S
C954 C955 1.385 . S
C955 C952 1.414 . S
C955 C954 1.385 . S
C955 C977 1.444 . S
O956 Tb912 2.546 . S
O956 C976 1.251 . S
O957 Tb912 2.610 . S
O957 Tb923 2.362 . S
O957 C968 1.283 . S
O958 Tb923 2.421 . S
O958 C975 1.262 . S
O959 Tb912 2.320 . S
O959 C975 1.260 . S
O960 Tb912 2.552 . S
O960 C968 1.243 . S
O961 Tb912 2.413 . S
O961 C976 1.256 . S
O962 Tb923 2.546 . S
O962 C987 1.251 . S
O963 Tb912 2.362 . S
O963 Tb923 2.610 . S
O963 C979 1.283 . S
O964 Tb912 2.421 . S
O964 C986 1.262 . S
O965 Tb923 2.320 . S
O965 C986 1.260 . S
O966 Tb923 2.552 . S
O966 C979 1.243 . S
O967 Tb923 2.413 . S
O967 C987 1.256 . S
C968 O957 1.283 . S
C968 O960 1.243 . S
C969 C971 1.382 . S
C969 C973 1.393 . S
C969 C976 1.500 . S
C970 C971 1.400 . S
C970 C972 1.384 . S
C971 C969 1.382 . S
C971 C970 1.400 . S
C971 H988 0.930 . S
C972 C970 1.384 . S
C972 C974 1.392 . S
C972 H989 0.931 . S
C973 C969 1.393 . S
C973 C974 1.401 . S
C973 H990 0.930 . S
C974 C972 1.392 . S
C974 C973 1.401 . S
C974 H991 0.930 . S
C975 O958 1.262 . S
C975 O959 1.260 . S
C976 Tb912 2.833 . S
C976 O956 1.251 . S
C976 O961 1.256 . S
C976 C969 1.500 . S
C977 H942 0.929 . S
C977 C955 1.444 . S
C977 C978 1.317 . S
C978 H940 0.930 . S
C978 C946 1.432 . S
C978 C977 1.317 . S
C979 O963 1.283 . S
C979 O966 1.243 . S
C980 C981 1.382 . S
C980 C984 1.393 . S
C980 C987 1.500 . S
C981 C980 1.382 . S
C981 C982 1.400 . S
C981 H992 0.930 . S
C982 C981 1.400 . S
C982 C983 1.384 . S
C983 C982 1.384 . S
C983 C985 1.392 . S
C983 H993 0.931 . S
C984 C980 1.393 . S
C984 C985 1.401 . S
C984 H994 0.930 . S
C985 C983 1.392 . S
C985 C984 1.401 . S
C985 H995 0.930 . S
C986 O964 1.262 . S
C986 O965 1.260 . S
C987 Tb923 2.833 . S
C987 O962 1.251 . S
C987 O967 1.256 . S
C987 C980 1.500 . S
H988 C971 0.930 . S
H989 C972 0.931 . S
H990 C973 0.930 . S
H991 C974 0.930 . S
H992 C981 0.930 . S
H993 C983 0.931 . S
H994 C984 0.930 . S
H995 C985 0.930 . S
Tb996 N1027 2.660 . S
Tb996 N1034 2.600 . S
Tb996 O1040 2.546 . S
Tb996 O1041 2.610 . S
Tb996 O1043 2.320 . S
Tb996 O1044 2.552 . S
Tb996 O1045 2.413 . S
Tb996 O1047 2.362 . S
Tb996 O1048 2.421 . S
Tb996 C1060 2.833 . S
C997 C1000 1.432 . S
C997 C1001 1.414 . S
C997 N1004 1.359 . S
C998 C1000 1.417 . S
C998 C1002 1.432 . S
C998 C1010 1.410 . S
C999 C1001 1.444 . S
C999 C1002 1.317 . S
C999 H1022 0.929 . S
C1000 C997 1.432 . S
C1000 C998 1.417 . S
C1000 N1008 1.360 . S
C1001 C997 1.414 . S
C1001 C999 1.444 . S
C1001 C1006 1.385 . S
C1002 C998 1.432 . S
C1002 C999 1.317 . S
C1002 H1014 0.930 . S
C1003 C1005 1.392 . S
C1003 C1006 1.370 . S
C1003 H1015 0.931 . S
N1004 C997 1.359 . S
N1004 C1005 1.327 . S
N1004 Tb1007 2.600 . S
C1005 C1003 1.392 . S
C1005 N1004 1.327 . S
C1005 H1012 0.930 . S
C1006 C1001 1.385 . S
C1006 C1003 1.370 . S
C1006 H1025 0.930 . S
Tb1007 N1004 2.600 . S
Tb1007 N1008 2.660 . S
Tb1007 O1041 2.362 . S
Tb1007 O1042 2.421 . S
Tb1007 O1046 2.546 . S
Tb1007 O1047 2.610 . S
Tb1007 O1049 2.320 . S
Tb1007 O1050 2.552 . S
Tb1007 O1051 2.413 . S
Tb1007 C1071 2.833 . S
N1008 C1000 1.360 . S
N1008 Tb1007 2.660 . S
N1008 C1009 1.305 . S
C1009 N1008 1.305 . S
C1009 C1011 1.407 . S
C1009 H1016 0.930 . S
C1010 C998 1.410 . S
C1010 C1011 1.345 . S
C1010 H1018 0.930 . S
C1011 C1009 1.407 . S
C1011 C1010 1.345 . S
C1011 H1013 0.930 . S
H1012 C1005 0.930 . S
H1013 C1011 0.930 . S
H1014 C1002 0.930 . S
H1015 C1003 0.931 . S
H1016 C1009 0.930 . S
H1017 C1031 0.930 . S
H1018 C1010 0.930 . S
H1019 C1037 0.930 . S
H1020 C1028 0.930 . S
H1021 C1035 0.931 . S
H1022 C999 0.929 . S
H1023 C1029 0.930 . S
H1024 C1062 0.930 . S
H1025 C1006 0.930 . S
H1026 C1061 0.929 . S
N1027 Tb996 2.660 . S
N1027 C1028 1.305 . S
N1027 C1032 1.360 . S
C1028 H1020 0.930 . S
C1028 N1027 1.305 . S
C1028 C1031 1.407 . S
C1029 H1023 0.930 . S
C1029 C1030 1.410 . S
C1029 C1031 1.345 . S
C1030 C1029 1.410 . S
C1030 C1032 1.417 . S
C1030 C1062 1.432 . S
C1031 H1017 0.930 . S
C1031 C1028 1.407 . S
C1031 C1029 1.345 . S
C1032 N1027 1.360 . S
C1032 C1030 1.417 . S
C1032 C1036 1.432 . S
H1033 C1038 0.930 . S
N1034 Tb996 2.600 . S
N1034 C1036 1.359 . S
N1034 C1037 1.327 . S
C1035 H1021 0.931 . S
C1035 C1037 1.392 . S
C1035 C1038 1.370 . S
C1036 C1032 1.432 . S
C1036 N1034 1.359 . S
C1036 C1039 1.414 . S
C1037 H1019 0.930 . S
C1037 N1034 1.327 . S
C1037 C1035 1.392 . S
C1038 H1033 0.930 . S
C1038 C1035 1.370 . S
C1038 C1039 1.385 . S
C1039 C1036 1.414 . S
C1039 C1038 1.385 . S
C1039 C1061 1.444 . S
O1040 Tb996 2.546 . S
O1040 C1060 1.251 . S
O1041 Tb996 2.610 . S
O1041 Tb1007 2.362 . S
O1041 C1052 1.283 . S
O1042 Tb1007 2.421 . S
O1042 C1059 1.262 . S
O1043 Tb996 2.320 . S
O1043 C1059 1.260 . S
O1044 Tb996 2.552 . S
O1044 C1052 1.243 . S
O1045 Tb996 2.413 . S
O1045 C1060 1.256 . S
O1046 Tb1007 2.546 . S
O1046 C1071 1.251 . S
O1047 Tb996 2.362 . S
O1047 Tb1007 2.610 . S
O1047 C1063 1.283 . S
O1048 Tb996 2.421 . S
O1048 C1070 1.262 . S
O1049 Tb1007 2.320 . S
O1049 C1070 1.260 . S
O1050 Tb1007 2.552 . S
O1050 C1063 1.243 . S
O1051 Tb1007 2.413 . S
O1051 C1071 1.256 . S
C1052 O1041 1.283 . S
C1052 O1044 1.243 . S
C1053 C1055 1.382 . S
C1053 C1057 1.393 . S
C1053 C1060 1.500 . S
C1054 C1055 1.400 . S
C1054 C1056 1.384 . S
C1055 C1053 1.382 . S
C1055 C1054 1.400 . S
C1055 H1072 0.930 . S
C1056 C1054 1.384 . S
C1056 C1058 1.392 . S
C1056 H1073 0.931 . S
C1057 C1053 1.393 . S
C1057 C1058 1.401 . S
C1057 H1074 0.930 . S
C1058 C1056 1.392 . S
C1058 C1057 1.401 . S
C1058 H1075 0.930 . S
C1059 O1042 1.262 . S
C1059 O1043 1.260 . S
C1060 Tb996 2.833 . S
C1060 O1040 1.251 . S
C1060 O1045 1.256 . S
C1060 C1053 1.500 . S
C1061 H1026 0.929 . S
C1061 C1039 1.444 . S
C1061 C1062 1.317 . S
C1062 H1024 0.930 . S
C1062 C1030 1.432 . S
C1062 C1061 1.317 . S
C1063 O1047 1.283 . S
C1063 O1050 1.243 . S
C1064 C1065 1.382 . S
C1064 C1068 1.393 . S
C1064 C1071 1.500 . S
C1065 C1064 1.382 . S
C1065 C1066 1.400 . S
C1065 H1076 0.930 . S
C1066 C1065 1.400 . S
C1066 C1067 1.384 . S
C1067 C1066 1.384 . S
C1067 C1069 1.392 . S
C1067 H1077 0.931 . S
C1068 C1064 1.393 . S
C1068 C1069 1.401 . S
C1068 H1078 0.930 . S
C1069 C1067 1.392 . S
C1069 C1068 1.401 . S
C1069 H1079 0.930 . S
C1070 O1048 1.262 . S
C1070 O1049 1.260 . S
C1071 Tb1007 2.833 . S
C1071 O1046 1.251 . S
C1071 O1051 1.256 . S
C1071 C1064 1.500 . S
H1072 C1055 0.930 . S
H1073 C1056 0.931 . S
H1074 C1057 0.930 . S
H1075 C1058 0.930 . S
H1076 C1065 0.930 . S
H1077 C1067 0.931 . S
H1078 C1068 0.930 . S
H1079 C1069 0.930 . S
Tb1080 N1111 2.660 . S
Tb1080 N1118 2.600 . S
Tb1080 O1124 2.546 . S
Tb1080 O1125 2.610 . S
Tb1080 O1127 2.320 . S
Tb1080 O1128 2.552 . S
Tb1080 O1129 2.413 . S
Tb1080 O1131 2.362 . S
Tb1080 O1132 2.421 . S
Tb1080 C1144 2.833 . S
C1081 C1084 1.432 . S
C1081 C1085 1.414 . S
C1081 N1088 1.359 . S
C1082 C1084 1.417 . S
C1082 C1086 1.432 . S
C1082 C1094 1.410 . S
C1083 C1085 1.444 . S
C1083 C1086 1.317 . S
C1083 H1106 0.929 . S
C1084 C1081 1.432 . S
C1084 C1082 1.417 . S
C1084 N1092 1.360 . S
C1085 C1081 1.414 . S
C1085 C1083 1.444 . S
C1085 C1090 1.385 . S
C1086 C1082 1.432 . S
C1086 C1083 1.317 . S
C1086 H1098 0.930 . S
C1087 C1089 1.392 . S
C1087 C1090 1.370 . S
C1087 H1099 0.931 . S
N1088 C1081 1.359 . S
N1088 C1089 1.327 . S
N1088 Tb1091 2.600 . S
C1089 C1087 1.392 . S
C1089 N1088 1.327 . S
C1089 H1096 0.930 . S
C1090 C1085 1.385 . S
C1090 C1087 1.370 . S
C1090 H1109 0.930 . S
Tb1091 N1088 2.600 . S
Tb1091 N1092 2.660 . S
Tb1091 O1125 2.362 . S
Tb1091 O1126 2.421 . S
Tb1091 O1130 2.546 . S
Tb1091 O1131 2.610 . S
Tb1091 O1133 2.320 . S
Tb1091 O1134 2.552 . S
Tb1091 O1135 2.413 . S
Tb1091 C1155 2.833 . S
N1092 C1084 1.360 . S
N1092 Tb1091 2.660 . S
N1092 C1093 1.305 . S
C1093 N1092 1.305 . S
C1093 C1095 1.407 . S
C1093 H1100 0.930 . S
C1094 C1082 1.410 . S
C1094 C1095 1.345 . S
C1094 H1102 0.930 . S
C1095 C1093 1.407 . S
C1095 C1094 1.345 . S
C1095 H1097 0.930 . S
H1096 C1089 0.930 . S
H1097 C1095 0.930 . S
H1098 C1086 0.930 . S
H1099 C1087 0.931 . S
H1100 C1093 0.930 . S
H1101 C1115 0.930 . S
H1102 C1094 0.930 . S
H1103 C1121 0.930 . S
H1104 C1112 0.930 . S
H1105 C1119 0.931 . S
H1106 C1083 0.929 . S
H1107 C1113 0.930 . S
H1108 C1146 0.930 . S
H1109 C1090 0.930 . S
H1110 C1145 0.929 . S
N1111 Tb1080 2.660 . S
N1111 C1112 1.305 . S
N1111 C1116 1.360 . S
C1112 H1104 0.930 . S
C1112 N1111 1.305 . S
C1112 C1115 1.407 . S
C1113 H1107 0.930 . S
C1113 C1114 1.410 . S
C1113 C1115 1.345 . S
C1114 C1113 1.410 . S
C1114 C1116 1.417 . S
C1114 C1146 1.432 . S
C1115 H1101 0.930 . S
C1115 C1112 1.407 . S
C1115 C1113 1.345 . S
C1116 N1111 1.360 . S
C1116 C1114 1.417 . S
C1116 C1120 1.432 . S
H1117 C1122 0.930 . S
N1118 Tb1080 2.600 . S
N1118 C1120 1.359 . S
N1118 C1121 1.327 . S
C1119 H1105 0.931 . S
C1119 C1121 1.392 . S
C1119 C1122 1.370 . S
C1120 C1116 1.432 . S
C1120 N1118 1.359 . S
C1120 C1123 1.414 . S
C1121 H1103 0.930 . S
C1121 N1118 1.327 . S
C1121 C1119 1.392 . S
C1122 H1117 0.930 . S
C1122 C1119 1.370 . S
C1122 C1123 1.385 . S
C1123 C1120 1.414 . S
C1123 C1122 1.385 . S
C1123 C1145 1.444 . S
O1124 Tb1080 2.546 . S
O1124 C1144 1.251 . S
O1125 Tb1080 2.610 . S
O1125 Tb1091 2.362 . S
O1125 C1136 1.283 . S
O1126 Tb1091 2.421 . S
O1126 C1143 1.262 . S
O1127 Tb1080 2.320 . S
O1127 C1143 1.260 . S
O1128 Tb1080 2.552 . S
O1128 C1136 1.243 . S
O1129 Tb1080 2.413 . S
O1129 C1144 1.256 . S
O1130 Tb1091 2.546 . S
O1130 C1155 1.251 . S
O1131 Tb1080 2.362 . S
O1131 Tb1091 2.610 . S
O1131 C1147 1.283 . S
O1132 Tb1080 2.421 . S
O1132 C1154 1.262 . S
O1133 Tb1091 2.320 . S
O1133 C1154 1.260 . S
O1134 Tb1091 2.552 . S
O1134 C1147 1.243 . S
O1135 Tb1091 2.413 . S
O1135 C1155 1.256 . S
C1136 O1125 1.283 . S
C1136 O1128 1.243 . S
C1137 C1139 1.382 . S
C1137 C1141 1.393 . S
C1137 C1144 1.500 . S
C1138 C1139 1.400 . S
C1138 C1140 1.384 . S
C1139 C1137 1.382 . S
C1139 C1138 1.400 . S
C1139 H1156 0.930 . S
C1140 C1138 1.384 . S
C1140 C1142 1.392 . S
C1140 H1157 0.931 . S
C1141 C1137 1.393 . S
C1141 C1142 1.401 . S
C1141 H1158 0.930 . S
C1142 C1140 1.392 . S
C1142 C1141 1.401 . S
C1142 H1159 0.930 . S
C1143 O1126 1.262 . S
C1143 O1127 1.260 . S
C1144 Tb1080 2.833 . S
C1144 O1124 1.251 . S
C1144 O1129 1.256 . S
C1144 C1137 1.500 . S
C1145 H1110 0.929 . S
C1145 C1123 1.444 . S
C1145 C1146 1.317 . S
C1146 H1108 0.930 . S
C1146 C1114 1.432 . S
C1146 C1145 1.317 . S
C1147 O1131 1.283 . S
C1147 O1134 1.243 . S
C1148 C1149 1.382 . S
C1148 C1152 1.393 . S
C1148 C1155 1.500 . S
C1149 C1148 1.382 . S
C1149 C1150 1.400 . S
C1149 H1160 0.930 . S
C1150 C1149 1.400 . S
C1150 C1151 1.384 . S
C1151 C1150 1.384 . S
C1151 C1153 1.392 . S
C1151 H1161 0.931 . S
C1152 C1148 1.393 . S
C1152 C1153 1.401 . S
C1152 H1162 0.930 . S
C1153 C1151 1.392 . S
C1153 C1152 1.401 . S
C1153 H1163 0.930 . S
C1154 O1132 1.262 . S
C1154 O1133 1.260 . S
C1155 Tb1091 2.833 . S
C1155 O1130 1.251 . S
C1155 O1135 1.256 . S
C1155 C1148 1.500 . S
H1156 C1139 0.930 . S
H1157 C1140 0.931 . S
H1158 C1141 0.930 . S
H1159 C1142 0.930 . S
H1160 C1149 0.930 . S
H1161 C1151 0.931 . S
H1162 C1152 0.930 . S
H1163 C1153 0.930 . S
Tb1164 N1195 2.660 . S
Tb1164 N1202 2.600 . S
Tb1164 O1208 2.546 . S
Tb1164 O1209 2.610 . S
Tb1164 O1211 2.320 . S
Tb1164 O1212 2.552 . S
Tb1164 O1213 2.413 . S
Tb1164 O1215 2.362 . S
Tb1164 O1216 2.421 . S
Tb1164 C1228 2.833 . S
C1165 C1168 1.432 . S
C1165 C1169 1.414 . S
C1165 N1172 1.359 . S
C1166 C1168 1.417 . S
C1166 C1170 1.432 . S
C1166 C1178 1.410 . S
C1167 C1169 1.444 . S
C1167 C1170 1.317 . S
C1167 H1190 0.929 . S
C1168 C1165 1.432 . S
C1168 C1166 1.417 . S
C1168 N1176 1.360 . S
C1169 C1165 1.414 . S
C1169 C1167 1.444 . S
C1169 C1174 1.385 . S
C1170 C1166 1.432 . S
C1170 C1167 1.317 . S
C1170 H1182 0.930 . S
C1171 C1173 1.392 . S
C1171 C1174 1.370 . S
C1171 H1183 0.931 . S
N1172 C1165 1.359 . S
N1172 C1173 1.327 . S
N1172 Tb1175 2.600 . S
C1173 C1171 1.392 . S
C1173 N1172 1.327 . S
C1173 H1180 0.930 . S
C1174 C1169 1.385 . S
C1174 C1171 1.370 . S
C1174 H1193 0.930 . S
Tb1175 N1172 2.600 . S
Tb1175 N1176 2.660 . S
Tb1175 O1209 2.362 . S
Tb1175 O1210 2.421 . S
Tb1175 O1214 2.546 . S
Tb1175 O1215 2.610 . S
Tb1175 O1217 2.320 . S
Tb1175 O1218 2.552 . S
Tb1175 O1219 2.413 . S
Tb1175 C1239 2.833 . S
N1176 C1168 1.360 . S
N1176 Tb1175 2.660 . S
N1176 C1177 1.305 . S
C1177 N1176 1.305 . S
C1177 C1179 1.407 . S
C1177 H1184 0.930 . S
C1178 C1166 1.410 . S
C1178 C1179 1.345 . S
C1178 H1186 0.930 . S
C1179 C1177 1.407 . S
C1179 C1178 1.345 . S
C1179 H1181 0.930 . S
H1180 C1173 0.930 . S
H1181 C1179 0.930 . S
H1182 C1170 0.930 . S
H1183 C1171 0.931 . S
H1184 C1177 0.930 . S
H1185 C1199 0.930 . S
H1186 C1178 0.930 . S
H1187 C1205 0.930 . S
H1188 C1196 0.930 . S
H1189 C1203 0.931 . S
H1190 C1167 0.929 . S
H1191 C1197 0.930 . S
H1192 C1230 0.930 . S
H1193 C1174 0.930 . S
H1194 C1229 0.929 . S
N1195 Tb1164 2.660 . S
N1195 C1196 1.305 . S
N1195 C1200 1.360 . S
C1196 H1188 0.930 . S
C1196 N1195 1.305 . S
C1196 C1199 1.407 . S
C1197 H1191 0.930 . S
C1197 C1198 1.410 . S
C1197 C1199 1.345 . S
C1198 C1197 1.410 . S
C1198 C1200 1.417 . S
C1198 C1230 1.432 . S
C1199 H1185 0.930 . S
C1199 C1196 1.407 . S
C1199 C1197 1.345 . S
C1200 N1195 1.360 . S
C1200 C1198 1.417 . S
C1200 C1204 1.432 . S
H1201 C1206 0.930 . S
N1202 Tb1164 2.600 . S
N1202 C1204 1.359 . S
N1202 C1205 1.327 . S
C1203 H1189 0.931 . S
C1203 C1205 1.392 . S
C1203 C1206 1.370 . S
C1204 C1200 1.432 . S
C1204 N1202 1.359 . S
C1204 C1207 1.414 . S
C1205 H1187 0.930 . S
C1205 N1202 1.327 . S
C1205 C1203 1.392 . S
C1206 H1201 0.930 . S
C1206 C1203 1.370 . S
C1206 C1207 1.385 . S
C1207 C1204 1.414 . S
C1207 C1206 1.385 . S
C1207 C1229 1.444 . S
O1208 Tb1164 2.546 . S
O1208 C1228 1.251 . S
O1209 Tb1164 2.610 . S
O1209 Tb1175 2.362 . S
O1209 C1220 1.283 . S
O1210 Tb1175 2.421 . S
O1210 C1227 1.262 . S
O1211 Tb1164 2.320 . S
O1211 C1227 1.260 . S
O1212 Tb1164 2.552 . S
O1212 C1220 1.243 . S
O1213 Tb1164 2.413 . S
O1213 C1228 1.256 . S
O1214 Tb1175 2.546 . S
O1214 C1239 1.251 . S
O1215 Tb1164 2.362 . S
O1215 Tb1175 2.610 . S
O1215 C1231 1.283 . S
O1216 Tb1164 2.421 . S
O1216 C1238 1.262 . S
O1217 Tb1175 2.320 . S
O1217 C1238 1.260 . S
O1218 Tb1175 2.552 . S
O1218 C1231 1.243 . S
O1219 Tb1175 2.413 . S
O1219 C1239 1.256 . S
C1220 O1209 1.283 . S
C1220 O1212 1.243 . S
C1221 C1223 1.382 . S
C1221 C1225 1.393 . S
C1221 C1228 1.500 . S
C1222 C1223 1.400 . S
C1222 C1224 1.384 . S
C1223 C1221 1.382 . S
C1223 C1222 1.400 . S
C1223 H1240 0.930 . S
C1224 C1222 1.384 . S
C1224 C1226 1.392 . S
C1224 H1241 0.931 . S
C1225 C1221 1.393 . S
C1225 C1226 1.401 . S
C1225 H1242 0.930 . S
C1226 C1224 1.392 . S
C1226 C1225 1.401 . S
C1226 H1243 0.930 . S
C1227 O1210 1.262 . S
C1227 O1211 1.260 . S
C1228 Tb1164 2.833 . S
C1228 O1208 1.251 . S
C1228 O1213 1.256 . S
C1228 C1221 1.500 . S
C1229 H1194 0.929 . S
C1229 C1207 1.444 . S
C1229 C1230 1.317 . S
C1230 H1192 0.930 . S
C1230 C1198 1.432 . S
C1230 C1229 1.317 . S
C1231 O1215 1.283 . S
C1231 O1218 1.243 . S
C1232 C1233 1.382 . S
C1232 C1236 1.393 . S
C1232 C1239 1.500 . S
C1233 C1232 1.382 . S
C1233 C1234 1.400 . S
C1233 H1244 0.930 . S
C1234 C1233 1.400 . S
C1234 C1235 1.384 . S
C1235 C1234 1.384 . S
C1235 C1237 1.392 . S
C1235 H1245 0.931 . S
C1236 C1232 1.393 . S
C1236 C1237 1.401 . S
C1236 H1246 0.930 . S
C1237 C1235 1.392 . S
C1237 C1236 1.401 . S
C1237 H1247 0.930 . S
C1238 O1216 1.262 . S
C1238 O1217 1.260 . S
C1239 Tb1175 2.833 . S
C1239 O1214 1.251 . S
C1239 O1219 1.256 . S
C1239 C1232 1.500 . S
H1240 C1223 0.930 . S
H1241 C1224 0.931 . S
H1242 C1225 0.930 . S
H1243 C1226 0.930 . S
H1244 C1233 0.930 . S
H1245 C1235 0.931 . S
H1246 C1236 0.930 . S
H1247 C1237 0.930 . S
Tb1248 N1279 2.660 . S
Tb1248 N1286 2.600 . S
Tb1248 O1292 2.546 . S
Tb1248 O1293 2.610 . S
Tb1248 O1295 2.320 . S
Tb1248 O1296 2.552 . S
Tb1248 O1297 2.413 . S
Tb1248 O1299 2.362 . S
Tb1248 O1300 2.421 . S
Tb1248 C1312 2.833 . S
C1249 C1252 1.432 . S
C1249 C1253 1.414 . S
C1249 N1256 1.359 . S
C1250 C1252 1.417 . S
C1250 C1254 1.432 . S
C1250 C1262 1.410 . S
C1251 C1253 1.444 . S
C1251 C1254 1.317 . S
C1251 H1274 0.929 . S
C1252 C1249 1.432 . S
C1252 C1250 1.417 . S
C1252 N1260 1.360 . S
C1253 C1249 1.414 . S
C1253 C1251 1.444 . S
C1253 C1258 1.385 . S
C1254 C1250 1.432 . S
C1254 C1251 1.317 . S
C1254 H1266 0.930 . S
C1255 C1257 1.392 . S
C1255 C1258 1.370 . S
C1255 H1267 0.931 . S
N1256 C1249 1.359 . S
N1256 C1257 1.327 . S
N1256 Tb1259 2.600 . S
C1257 C1255 1.392 . S
C1257 N1256 1.327 . S
C1257 H1264 0.930 . S
C1258 C1253 1.385 . S
C1258 C1255 1.370 . S
C1258 H1277 0.930 . S
Tb1259 N1256 2.600 . S
Tb1259 N1260 2.660 . S
Tb1259 O1293 2.362 . S
Tb1259 O1294 2.421 . S
Tb1259 O1298 2.546 . S
Tb1259 O1299 2.610 . S
Tb1259 O1301 2.320 . S
Tb1259 O1302 2.552 . S
Tb1259 O1303 2.413 . S
Tb1259 C1323 2.833 . S
N1260 C1252 1.360 . S
N1260 Tb1259 2.660 . S
N1260 C1261 1.305 . S
C1261 N1260 1.305 . S
C1261 C1263 1.407 . S
C1261 H1268 0.930 . S
C1262 C1250 1.410 . S
C1262 C1263 1.345 . S
C1262 H1270 0.930 . S
C1263 C1261 1.407 . S
C1263 C1262 1.345 . S
C1263 H1265 0.930 . S
H1264 C1257 0.930 . S
H1265 C1263 0.930 . S
H1266 C1254 0.930 . S
H1267 C1255 0.931 . S
H1268 C1261 0.930 . S
H1269 C1283 0.930 . S
H1270 C1262 0.930 . S
H1271 C1289 0.930 . S
H1272 C1280 0.930 . S
H1273 C1287 0.931 . S
H1274 C1251 0.929 . S
H1275 C1281 0.930 . S
H1276 C1314 0.930 . S
H1277 C1258 0.930 . S
H1278 C1313 0.929 . S
N1279 Tb1248 2.660 . S
N1279 C1280 1.305 . S
N1279 C1284 1.360 . S
C1280 H1272 0.930 . S
C1280 N1279 1.305 . S
C1280 C1283 1.407 . S
C1281 H1275 0.930 . S
C1281 C1282 1.410 . S
C1281 C1283 1.345 . S
C1282 C1281 1.410 . S
C1282 C1284 1.417 . S
C1282 C1314 1.432 . S
C1283 H1269 0.930 . S
C1283 C1280 1.407 . S
C1283 C1281 1.345 . S
C1284 N1279 1.360 . S
C1284 C1282 1.417 . S
C1284 C1288 1.432 . S
H1285 C1290 0.930 . S
N1286 Tb1248 2.600 . S
N1286 C1288 1.359 . S
N1286 C1289 1.327 . S
C1287 H1273 0.931 . S
C1287 C1289 1.392 . S
C1287 C1290 1.370 . S
C1288 C1284 1.432 . S
C1288 N1286 1.359 . S
C1288 C1291 1.414 . S
C1289 H1271 0.930 . S
C1289 N1286 1.327 . S
C1289 C1287 1.392 . S
C1290 H1285 0.930 . S
C1290 C1287 1.370 . S
C1290 C1291 1.385 . S
C1291 C1288 1.414 . S
C1291 C1290 1.385 . S
C1291 C1313 1.444 . S
O1292 Tb1248 2.546 . S
O1292 C1312 1.251 . S
O1293 Tb1248 2.610 . S
O1293 Tb1259 2.362 . S
O1293 C1304 1.283 . S
O1294 Tb1259 2.421 . S
O1294 C1311 1.262 . S
O1295 Tb1248 2.320 . S
O1295 C1311 1.260 . S
O1296 Tb1248 2.552 . S
O1296 C1304 1.243 . S
O1297 Tb1248 2.413 . S
O1297 C1312 1.256 . S
O1298 Tb1259 2.546 . S
O1298 C1323 1.251 . S
O1299 Tb1248 2.362 . S
O1299 Tb1259 2.610 . S
O1299 C1315 1.283 . S
O1300 Tb1248 2.421 . S
O1300 C1322 1.262 . S
O1301 Tb1259 2.320 . S
O1301 C1322 1.260 . S
O1302 Tb1259 2.552 . S
O1302 C1315 1.243 . S
O1303 Tb1259 2.413 . S
O1303 C1323 1.256 . S
C1304 O1293 1.283 . S
C1304 O1296 1.243 . S
C1305 C1307 1.382 . S
C1305 C1309 1.393 . S
C1305 C1312 1.500 . S
C1306 C1307 1.400 . S
C1306 C1308 1.384 . S
C1307 C1305 1.382 . S
C1307 C1306 1.400 . S
C1307 H1324 0.930 . S
C1308 C1306 1.384 . S
C1308 C1310 1.392 . S
C1308 H1325 0.931 . S
C1309 C1305 1.393 . S
C1309 C1310 1.401 . S
C1309 H1326 0.930 . S
C1310 C1308 1.392 . S
C1310 C1309 1.401 . S
C1310 H1327 0.930 . S
C1311 O1294 1.262 . S
C1311 O1295 1.260 . S
C1312 Tb1248 2.833 . S
C1312 O1292 1.251 . S
C1312 O1297 1.256 . S
C1312 C1305 1.500 . S
C1313 H1278 0.929 . S
C1313 C1291 1.444 . S
C1313 C1314 1.317 . S
C1314 H1276 0.930 . S
C1314 C1282 1.432 . S
C1314 C1313 1.317 . S
C1315 O1299 1.283 . S
C1315 O1302 1.243 . S
C1316 C1317 1.382 . S
C1316 C1320 1.393 . S
C1316 C1323 1.500 . S
C1317 C1316 1.382 . S
C1317 C1318 1.400 . S
C1317 H1328 0.930 . S
C1318 C1317 1.400 . S
C1318 C1319 1.384 . S
C1319 C1318 1.384 . S
C1319 C1321 1.392 . S
C1319 H1329 0.931 . S
C1320 C1316 1.393 . S
C1320 C1321 1.401 . S
C1320 H1330 0.930 . S
C1321 C1319 1.392 . S
C1321 C1320 1.401 . S
C1321 H1331 0.930 . S
C1322 O1300 1.262 . S
C1322 O1301 1.260 . S
C1323 Tb1259 2.833 . S
C1323 O1298 1.251 . S
C1323 O1303 1.256 . S
C1323 C1316 1.500 . S
H1324 C1307 0.930 . S
H1325 C1308 0.931 . S
H1326 C1309 0.930 . S
H1327 C1310 0.930 . S
H1328 C1317 0.930 . S
H1329 C1319 0.931 . S
H1330 C1320 0.930 . S
H1331 C1321 0.930 . S
H1332 C1338 0.930 . S
H1333 C1341 0.930 . S
H1334 C1342 0.930 . S
H1335 C1343 0.930 . S
H1336 C1346 0.930 . S
H1337 C1347 0.930 . S
C1338 H1332 0.930 . S
C1338 C1339 1.355 . S
C1338 C1340 1.415 . S
C1339 C1338 1.355 . S
C1339 C1341 1.419 . S
C1340 C1338 1.415 . S
C1340 C1345 1.425 . S
C1340 C1347 1.409 . S
C1341 H1333 0.930 . S
C1341 C1339 1.419 . S
C1341 C1342 1.362 . S
C1342 H1334 0.930 . S
C1342 C1341 1.362 . S
C1342 C1345 1.409 . S
C1343 H1335 0.930 . S
C1343 C1344 1.355 . S
C1343 C1345 1.415 . S
C1344 C1343 1.355 . S
C1344 C1346 1.419 . S
C1345 C1340 1.425 . S
C1345 C1342 1.409 . S
C1345 C1343 1.415 . S
C1346 H1336 0.930 . S
C1346 C1344 1.419 . S
C1346 C1347 1.362 . S
C1347 H1337 0.930 . S
C1347 C1340 1.409 . S
C1347 C1346 1.362 . S
H1348 C1354 0.930 . S
H1349 C1357 0.930 . S
H1350 C1358 0.930 . S
H1351 C1359 0.930 . S
H1352 C1362 0.930 . S
H1353 C1363 0.930 . S
C1354 H1348 0.930 . S
C1354 C1355 1.355 . S
C1354 C1356 1.415 . S
C1355 C1354 1.355 . S
C1355 C1357 1.419 . S
C1356 C1354 1.415 . S
C1356 C1361 1.425 . S
C1356 C1363 1.409 . S
C1357 H1349 0.930 . S
C1357 C1355 1.419 . S
C1357 C1358 1.362 . S
C1358 H1350 0.930 . S
C1358 C1357 1.362 . S
C1358 C1361 1.409 . S
C1359 H1351 0.930 . S
C1359 C1360 1.355 . S
C1359 C1361 1.415 . S
C1360 C1359 1.355 . S
C1360 C1362 1.419 . S
C1361 C1356 1.425 . S
C1361 C1358 1.409 . S
C1361 C1359 1.415 . S
C1362 H1352 0.930 . S
C1362 C1360 1.419 . S
C1362 C1363 1.362 . S
C1363 H1353 0.930 . S
C1363 C1356 1.409 . S
C1363 C1362 1.362 . S
H1364 C1370 0.930 . S
H1365 C1373 0.930 . S
H1366 C1374 0.930 . S
H1367 C1375 0.930 . S
H1368 C1378 0.930 1_556 S
H1369 C1379 0.930 . S
C1370 H1364 0.930 . S
C1370 C1371 1.355 . S
C1370 C1372 1.415 . S
C1371 C1370 1.355 . S
C1371 C1373 1.419 . S
C1372 C1370 1.415 . S
C1372 C1377 1.425 . S
C1372 C1379 1.409 . S
C1373 H1365 0.930 . S
C1373 C1371 1.419 . S
C1373 C1374 1.362 . S
C1374 H1366 0.930 . S
C1374 C1373 1.362 . S
C1374 C1377 1.409 . S
C1375 H1367 0.930 . S
C1375 C1376 1.355 . S
C1375 C1377 1.415 . S
C1376 C1375 1.355 . S
C1376 C1378 1.419 . S
C1377 C1372 1.425 . S
C1377 C1374 1.409 . S
C1377 C1375 1.415 . S
C1378 H1368 0.930 1_554 S
C1378 C1376 1.419 . S
C1378 C1379 1.362 . S
C1379 H1369 0.930 . S
C1379 C1372 1.409 . S
C1379 C1378 1.362 . S
H1380 C1386 0.930 . S
H1381 C1389 0.930 . S
H1382 C1390 0.930 1_554 S
H1383 C1391 0.930 1_554 S
H1384 C1394 0.930 . S
H1385 C1395 0.930 . S
C1386 H1380 0.930 . S
C1386 C1387 1.355 . S
C1386 C1388 1.415 . S
C1387 C1386 1.355 . S
C1387 C1389 1.419 . S
C1388 C1386 1.415 . S
C1388 C1393 1.425 . S
C1388 C1395 1.409 . S
C1389 H1381 0.930 . S
C1389 C1387 1.419 . S
C1389 C1390 1.362 . S
C1390 H1382 0.930 1_556 S
C1390 C1389 1.362 . S
C1390 C1393 1.409 . S
C1391 H1383 0.930 1_556 S
C1391 C1392 1.355 . S
C1391 C1393 1.415 . S
C1392 C1391 1.355 . S
C1392 C1394 1.419 . S
C1393 C1388 1.425 . S
C1393 C1390 1.409 . S
C1393 C1391 1.415 . S
C1394 H1384 0.930 . S
C1394 C1392 1.419 . S
C1394 C1395 1.362 . S
C1395 H1385 0.930 . S
C1395 C1388 1.409 . S
C1395 C1394 1.362 . S
H1396 C1402 0.930 . S
H1397 C1405 0.930 . S
H1398 C1406 0.930 . S
H1399 C1407 0.930 . S
H1400 C1410 0.930 . S
H1401 C1411 0.930 . S
C1402 H1396 0.930 . S
C1402 C1403 1.355 . S
C1402 C1404 1.415 . S
C1403 C1402 1.355 . S
C1403 C1405 1.419 . S
C1404 C1402 1.415 . S
C1404 C1409 1.425 . S
C1404 C1411 1.409 . S
C1405 H1397 0.930 . S
C1405 C1403 1.419 . S
C1405 C1406 1.362 . S
C1406 H1398 0.930 . S
C1406 C1405 1.362 . S
C1406 C1409 1.409 . S
C1407 H1399 0.930 . S
C1407 C1408 1.355 . S
C1407 C1409 1.415 . S
C1408 C1407 1.355 . S
C1408 C1410 1.419 . S
C1409 C1404 1.425 . S
C1409 C1406 1.409 . S
C1409 C1407 1.415 . S
C1410 H1400 0.930 . S
C1410 C1408 1.419 . S
C1410 C1411 1.362 . S
C1411 H1401 0.930 . S
C1411 C1404 1.409 . S
C1411 C1410 1.362 . S
H1412 C1418 0.930 . S
H1413 C1421 0.930 . S
H1414 C1422 0.930 . S
H1415 C1423 0.930 . S
H1416 C1426 0.930 . S
H1417 C1427 0.930 . S
C1418 H1412 0.930 . S
C1418 C1419 1.355 . S
C1418 C1420 1.415 . S
C1419 C1418 1.355 . S
C1419 C1421 1.419 . S
C1420 C1418 1.415 . S
C1420 C1425 1.425 . S
C1420 C1427 1.409 . S
C1421 H1413 0.930 . S
C1421 C1419 1.419 . S
C1421 C1422 1.362 . S
C1422 H1414 0.930 . S
C1422 C1421 1.362 . S
C1422 C1425 1.409 . S
C1423 H1415 0.930 . S
C1423 C1424 1.355 . S
C1423 C1425 1.415 . S
C1424 C1423 1.355 . S
C1424 C1426 1.419 . S
C1425 C1420 1.425 . S
C1425 C1422 1.409 . S
C1425 C1423 1.415 . S
C1426 H1416 0.930 . S
C1426 C1424 1.419 . S
C1426 C1427 1.362 . S
C1427 H1417 0.930 . S
C1427 C1420 1.409 . S
C1427 C1426 1.362 . S
H1428 C1434 0.930 . S
H1429 C1437 0.930 . S
H1430 C1438 0.911 1_554 S
H1431 C1439 0.930 1_554 S
H1432 C1442 0.930 . S
H1433 C1443 0.930 . S
C1434 H1428 0.930 . S
C1434 C1435 1.355 . S
C1434 C1436 1.415 . S
C1435 C1434 1.355 . S
C1435 C1437 1.419 . S
C1436 C1434 1.415 . S
C1436 C1441 1.425 . S
C1436 C1443 1.409 . S
C1437 H1429 0.930 . S
C1437 C1435 1.419 . S
C1437 C1438 1.362 . S
C1438 H1430 0.911 1_556 S
C1438 C1437 1.362 . S
C1438 C1441 1.409 . S
C1439 H1431 0.930 1_556 S
C1439 C1440 1.355 . S
C1439 C1441 1.415 . S
C1440 C1439 1.355 . S
C1440 C1442 1.419 . S
C1441 C1436 1.425 . S
C1441 C1438 1.409 . S
C1441 C1439 1.415 . S
C1442 H1432 0.930 . S
C1442 C1440 1.419 . S
C1442 C1443 1.362 . S
C1443 H1433 0.930 . S
C1443 C1436 1.409 . S
C1443 C1442 1.362 . S
H1444 C1450 0.930 . S
H1445 C1453 0.930 . S
H1446 C1454 0.930 . S
H1447 C1455 0.930 . S
H1448 C1458 0.887 1_554 S
H1449 C1459 0.930 1_554 S
C1450 H1444 0.930 . S
C1450 C1451 1.355 . S
C1450 C1452 1.415 . S
C1451 C1450 1.355 . S
C1451 C1453 1.419 . S
C1452 C1450 1.415 . S
C1452 C1457 1.425 . S
C1452 C1459 1.409 . S
C1453 H1445 0.930 . S
C1453 C1451 1.419 . S
C1453 C1454 1.362 . S
C1454 H1446 0.930 . S
C1454 C1453 1.362 . S
C1454 C1457 1.409 . S
C1455 H1447 0.930 . S
C1455 C1456 1.355 . S
C1455 C1457 1.415 . S
C1456 C1455 1.355 . S
C1456 C1458 1.454 . S
C1457 C1452 1.425 . S
C1457 C1454 1.409 . S
C1457 C1455 1.415 . S
C1458 H1448 0.887 1_556 S
C1458 C1456 1.454 . S
C1458 C1459 1.372 . S
C1459 H1449 0.930 1_556 S
C1459 C1452 1.409 . S
C1459 C1458 1.372 . S
H1460 C1466 0.930 . S
H1461 C1469 0.930 . S
H1462 C1470 0.930 . S
H1463 C1471 0.930 . S
H1464 C1474 0.930 . S
H1465 C1475 0.930 . S
C1466 H1460 0.930 . S
C1466 C1467 1.355 . S
C1466 C1468 1.415 . S
C1467 C1466 1.355 . S
C1467 C1469 1.419 . S
C1468 C1466 1.415 . S
C1468 C1473 1.425 . S
C1468 C1475 1.409 . S
C1469 H1461 0.930 . S
C1469 C1467 1.419 . S
C1469 C1470 1.362 . S
C1470 H1462 0.930 . S
C1470 C1469 1.362 . S
C1470 C1473 1.409 . S
C1471 H1463 0.930 . S
C1471 C1472 1.355 . S
C1471 C1473 1.415 . S
C1472 C1471 1.355 . S
C1472 C1474 1.419 . S
C1473 C1468 1.425 . S
C1473 C1470 1.409 . S
C1473 C1471 1.415 . S
C1474 H1464 0.930 . S
C1474 C1472 1.419 . S
C1474 C1475 1.362 . S
C1475 H1465 0.930 . S
C1475 C1468 1.409 . S
C1475 C1474 1.362 . S
H1476 C1482 0.930 . S
H1477 C1485 0.930 . S
H1478 C1486 0.930 . S
H1479 C1487 0.930 . S
H1480 C1490 0.930 . S
H1481 C1491 0.930 . S
C1482 H1476 0.930 . S
C1482 C1483 1.355 . S
C1482 C1484 1.415 . S
C1483 C1482 1.355 . S
C1483 C1485 1.419 . S
C1484 C1482 1.415 . S
C1484 C1489 1.425 . S
C1484 C1491 1.409 . S
C1485 H1477 0.930 . S
C1485 C1483 1.419 . S
C1485 C1486 1.362 . S
C1486 H1478 0.930 . S
C1486 C1485 1.362 . S
C1486 C1489 1.409 . S
C1487 H1479 0.930 . S
C1487 C1488 1.355 . S
C1487 C1489 1.415 . S
C1488 C1487 1.355 . S
C1488 C1490 1.419 . S
C1489 C1484 1.425 . S
C1489 C1486 1.409 . S
C1489 C1487 1.415 . S
C1490 H1480 0.930 . S
C1490 C1488 1.419 . S
C1490 C1491 1.362 . S
C1491 H1481 0.930 . S
C1491 C1484 1.409 . S
C1491 C1490 1.362 . S
H1492 C1498 0.930 . S
H1493 C1501 0.930 . S
H1494 C1502 0.930 . S
H1495 C1503 0.930 . S
H1496 C1506 0.888 1_556 S
H1497 C1507 0.930 . S
C1498 H1492 0.930 . S
C1498 C1499 1.355 . S
C1498 C1500 1.415 . S
C1499 C1498 1.355 . S
C1499 C1501 1.419 . S
C1500 C1498 1.415 . S
C1500 C1505 1.425 . S
C1500 C1507 1.409 . S
C1501 H1493 0.930 . S
C1501 C1499 1.419 . S
C1501 C1502 1.362 . S
C1502 H1494 0.930 . S
C1502 C1501 1.362 . S
C1502 C1505 1.409 . S
C1503 H1495 0.930 . S
C1503 C1504 1.355 . S
C1503 C1505 1.415 . S
C1504 C1503 1.355 . S
C1504 C1506 1.419 . S
C1505 C1500 1.425 . S
C1505 C1502 1.409 . S
C1505 C1503 1.415 . S
C1506 H1496 0.888 1_554 S
C1506 C1504 1.419 . S
C1506 C1507 1.362 . S
C1507 H1497 0.930 . S
C1507 C1500 1.409 . S
C1507 C1506 1.362 . S
H1508 C1514 0.930 . S
H1509 C1517 0.930 . S
H1510 C1518 0.930 . S
H1511 C1519 0.930 . S
H1512 C1522 0.930 . S
H1513 C1523 0.930 . S
C1514 H1508 0.930 . S
C1514 C1515 1.355 . S
C1514 C1516 1.415 . S
C1515 C1514 1.355 . S
C1515 C1517 1.419 . S
C1516 C1514 1.415 . S
C1516 C1521 1.425 . S
C1516 C1523 1.409 . S
C1517 H1509 0.930 . S
C1517 C1515 1.419 . S
C1517 C1518 1.362 . S
C1518 H1510 0.930 . S
C1518 C1517 1.362 . S
C1518 C1521 1.409 . S
C1519 H1511 0.930 . S
C1519 C1520 1.355 . S
C1519 C1521 1.415 . S
C1520 C1519 1.355 . S
C1520 C1522 1.419 . S
C1521 C1516 1.425 . S
C1521 C1518 1.409 . S
C1521 C1519 1.415 . S
C1522 H1512 0.930 . S
C1522 C1520 1.419 . S
C1522 C1523 1.362 . S
C1523 H1513 0.930 . S
C1523 C1516 1.409 . S
C1523 C1522 1.362 . S
H1524 C1530 0.930 . S
H1525 C1533 0.930 . S
H1526 C1534 0.930 . S
H1527 C1535 0.930 . S
H1528 C1538 0.930 . S
H1529 C1539 0.930 . S
C1530 H1524 0.930 . S
C1530 C1531 1.355 1_455 S
C1530 C1532 1.415 . S
C1531 C1530 1.355 1_655 S
C1531 C1533 1.419 . S
C1532 C1530 1.415 . S
C1532 C1537 1.425 . S
C1532 C1539 1.409 . S
C1533 H1525 0.930 . S
C1533 C1531 1.419 . S
C1533 C1534 1.362 1_655 S
C1534 H1526 0.930 . S
C1534 C1533 1.362 1_455 S
C1534 C1537 1.409 . S
C1535 H1527 0.930 . S
C1535 C1536 1.355 . S
C1535 C1537 1.415 . S
C1536 C1535 1.355 . S
C1536 C1538 1.419 . S
C1537 C1532 1.425 . S
C1537 C1534 1.409 . S
C1537 C1535 1.415 . S
C1538 H1528 0.930 . S
C1538 C1536 1.419 . S
C1538 C1539 1.362 . S
C1539 H1529 0.930 . S
C1539 C1532 1.409 . S
C1539 C1538 1.362 . S
H1540 C1546 0.930 . S
H1541 C1549 0.930 . S
H1542 C1550 0.930 . S
H1543 C1551 0.930 . S
H1544 C1554 0.930 . S
H1545 C1555 0.930 . S
C1546 H1540 0.930 . S
C1546 C1547 1.355 . S
C1546 C1548 1.415 . S
C1547 C1546 1.355 . S
C1547 C1549 1.419 . S
C1548 C1546 1.415 . S
C1548 C1553 1.425 . S
C1548 C1555 1.409 . S
C1549 H1541 0.930 . S
C1549 C1547 1.419 . S
C1549 C1550 1.362 . S
C1550 H1542 0.930 . S
C1550 C1549 1.362 . S
C1550 C1553 1.409 . S
C1551 H1543 0.930 . S
C1551 C1552 1.355 . S
C1551 C1553 1.415 . S
C1552 C1551 1.355 . S
C1552 C1554 1.419 . S
C1553 C1548 1.425 . S
C1553 C1550 1.409 . S
C1553 C1551 1.415 . S
C1554 H1544 0.930 . S
C1554 C1552 1.419 . S
C1554 C1555 1.362 . S
C1555 H1545 0.930 . S
C1555 C1548 1.409 . S
C1555 C1554 1.362 . S
H1556 C1562 0.913 1_545 S
H1557 C1565 0.930 . S
H1558 C1566 0.930 . S
H1559 C1567 0.930 . S
H1560 C1570 0.930 . S
H1561 C1571 0.930 . S
C1562 H1556 0.913 1_565 S
C1562 C1563 1.349 1_565 S
C1562 C1564 1.437 . S
C1563 C1562 1.349 1_545 S
C1563 C1565 1.419 . S
C1564 C1562 1.437 . S
C1564 C1569 1.425 . S
C1564 C1571 1.409 . S
C1565 H1557 0.930 . S
C1565 C1563 1.419 . S
C1565 C1566 1.362 1_545 S
C1566 H1558 0.930 . S
C1566 C1565 1.362 1_565 S
C1566 C1569 1.409 . S
C1567 H1559 0.930 . S
C1567 C1568 1.355 . S
C1567 C1569 1.415 . S
C1568 C1567 1.355 . S
C1568 C1570 1.419 . S
C1569 C1564 1.425 . S
C1569 C1566 1.409 . S
C1569 C1567 1.415 . S
C1570 H1560 0.930 . S
C1570 C1568 1.419 . S
C1570 C1571 1.362 . S
C1571 H1561 0.930 . S
C1571 C1564 1.409 . S
C1571 C1570 1.362 . S
H1572 C1578 0.930 . S
H1573 C1581 0.930 . S
H1574 C1582 0.930 . S
H1575 C1583 0.930 . S
H1576 C1586 0.930 . S
H1577 C1587 0.930 . S
C1578 H1572 0.930 . S
C1578 C1579 1.355 . S
C1578 C1580 1.415 . S
C1579 C1578 1.355 . S
C1579 C1581 1.419 . S
C1580 C1578 1.415 . S
C1580 C1585 1.425 . S
C1580 C1587 1.409 . S
C1581 H1573 0.930 . S
C1581 C1579 1.419 . S
C1581 C1582 1.362 . S
C1582 H1574 0.930 . S
C1582 C1581 1.362 . S
C1582 C1585 1.409 . S
C1583 H1575 0.930 . S
C1583 C1584 1.355 . S
C1583 C1585 1.415 . S
C1584 C1583 1.355 . S
C1584 C1586 1.419 . S
C1585 C1580 1.425 . S
C1585 C1582 1.409 . S
C1585 C1583 1.415 . S
C1586 H1576 0.930 . S
C1586 C1584 1.419 . S
C1586 C1587 1.362 . S
C1587 H1577 0.930 . S
C1587 C1580 1.409 . S
C1587 C1586 1.362 . S
H1588 C1594 0.930 . S
H1589 C1597 0.930 . S
H1590 C1598 0.930 . S
H1591 C1599 0.930 . S
H1592 C1602 0.930 . S
H1593 C1603 0.930 . S
C1594 H1588 0.930 . S
C1594 C1595 1.355 . S
C1594 C1596 1.415 . S
C1595 C1594 1.355 . S
C1595 C1597 1.419 . S
C1596 C1594 1.415 . S
C1596 C1601 1.425 . S
C1596 C1603 1.409 . S
C1597 H1589 0.930 . S
C1597 C1595 1.419 . S
C1597 C1598 1.362 . S
C1598 H1590 0.930 . S
C1598 C1597 1.362 . S
C1598 C1601 1.409 . S
C1599 H1591 0.930 . S
C1599 C1600 1.355 . S
C1599 C1601 1.415 . S
C1600 C1599 1.355 . S
C1600 C1602 1.419 . S
C1601 C1596 1.425 . S
C1601 C1598 1.409 . S
C1601 C1599 1.415 . S
C1602 H1592 0.930 . S
C1602 C1600 1.419 . S
C1602 C1603 1.362 . S
C1603 H1593 0.930 . S
C1603 C1596 1.409 . S
C1603 C1602 1.362 . S
H1604 C1610 0.930 . S
H1605 C1613 0.930 . S
H1606 C1614 0.930 . S
H1607 C1615 0.930 . S
H1608 C1618 0.930 . S
H1609 C1619 0.930 . S
C1610 H1604 0.930 . S
C1610 C1611 1.355 . S
C1610 C1612 1.415 . S
C1611 C1610 1.355 . S
C1611 C1613 1.419 . S
C1612 C1610 1.415 . S
C1612 C1617 1.425 . S
C1612 C1619 1.409 . S
C1613 H1605 0.930 . S
C1613 C1611 1.419 . S
C1613 C1614 1.362 . S
C1614 H1606 0.930 . S
C1614 C1613 1.362 . S
C1614 C1617 1.409 . S
C1615 H1607 0.930 . S
C1615 C1616 1.355 . S
C1615 C1617 1.415 . S
C1616 C1615 1.355 . S
C1616 C1618 1.419 . S
C1617 C1612 1.425 . S
C1617 C1614 1.409 . S
C1617 C1615 1.415 . S
C1618 H1608 0.930 . S
C1618 C1616 1.419 . S
C1618 C1619 1.362 . S
C1619 H1609 0.930 . S
C1619 C1612 1.409 . S
C1619 C1618 1.362 . S
H1620 C1626 0.930 . S
H1621 C1629 0.930 . S
H1622 C1630 0.930 . S
H1623 C1631 0.930 . S
H1624 C1634 0.930 . S
H1625 C1635 0.930 . S
C1626 H1620 0.930 . S
C1626 C1627 1.355 . S
C1626 C1628 1.415 . S
C1627 C1626 1.355 . S
C1627 C1629 1.419 . S
C1628 C1626 1.415 . S
C1628 C1633 1.425 . S
C1628 C1635 1.409 . S
C1629 H1621 0.930 . S
C1629 C1627 1.419 . S
C1629 C1630 1.362 . S
C1630 H1622 0.930 . S
C1630 C1629 1.362 . S
C1630 C1633 1.409 . S
C1631 H1623 0.930 . S
C1631 C1632 1.355 . S
C1631 C1633 1.415 . S
C1632 C1631 1.355 . S
C1632 C1634 1.419 . S
C1633 C1628 1.425 . S
C1633 C1630 1.409 . S
C1633 C1631 1.415 . S
C1634 H1624 0.930 . S
C1634 C1632 1.419 . S
C1634 C1635 1.362 . S
C1635 H1625 0.930 . S
C1635 C1628 1.409 . S
C1635 C1634 1.362 . S
H1636 C1642 0.930 . S
H1637 C1645 0.930 . S
H1638 C1646 0.930 . S
H1639 C1647 0.930 . S
H1640 C1650 0.930 . S
H1641 C1651 0.930 . S
C1642 H1636 0.930 . S
C1642 C1643 1.355 . S
C1642 C1644 1.415 . S
C1643 C1642 1.355 . S
C1643 C1645 1.419 . S
C1644 C1642 1.415 . S
C1644 C1649 1.425 . S
C1644 C1651 1.409 . S
C1645 H1637 0.930 . S
C1645 C1643 1.419 . S
C1645 C1646 1.362 . S
C1646 H1638 0.930 . S
C1646 C1645 1.362 . S
C1646 C1649 1.409 . S
C1647 H1639 0.930 . S
C1647 C1648 1.355 . S
C1647 C1649 1.415 . S
C1648 C1647 1.355 . S
C1648 C1650 1.419 . S
C1649 C1644 1.425 . S
C1649 C1646 1.409 . S
C1649 C1647 1.415 . S
C1650 H1640 0.930 . S
C1650 C1648 1.419 . S
C1650 C1651 1.362 . S
C1651 H1641 0.930 . S
C1651 C1644 1.409 . S
C1651 C1650 1.362 . S
H1652 C1658 0.930 . S
H1653 C1661 0.930 . S
H1654 C1662 0.930 . S
H1655 C1663 0.930 . S
H1656 C1666 0.930 . S
H1657 C1667 0.930 . S
C1658 H1652 0.930 . S
C1658 C1659 1.355 . S
C1658 C1660 1.415 . S
C1659 C1658 1.355 . S
C1659 C1661 1.419 . S
C1660 C1658 1.415 . S
C1660 C1665 1.425 . S
C1660 C1667 1.409 . S
C1661 H1653 0.930 . S
C1661 C1659 1.419 . S
C1661 C1662 1.362 . S
C1662 H1654 0.930 . S
C1662 C1661 1.362 . S
C1662 C1665 1.409 . S
C1663 H1655 0.930 . S
C1663 C1664 1.355 . S
C1663 C1665 1.415 . S
C1664 C1663 1.355 . S
C1664 C1666 1.419 . S
C1665 C1660 1.425 . S
C1665 C1662 1.409 . S
C1665 C1663 1.415 . S
C1666 H1656 0.930 . S
C1666 C1664 1.419 . S
C1666 C1667 1.362 . S
C1667 H1657 0.930 . S
C1667 C1660 1.409 . S
C1667 C1666 1.362 . S
H1668 C1674 0.910 1_545 S
H1669 C1677 0.930 . S
H1670 C1678 0.930 . S
H1671 C1679 0.930 . S
H1672 C1682 0.930 . S
H1673 C1683 0.930 . S
C1674 H1668 0.910 1_565 S
C1674 C1675 1.355 1_565 S
C1674 C1676 1.415 . S
C1675 C1674 1.355 1_545 S
C1675 C1677 1.419 . S
C1676 C1674 1.415 . S
C1676 C1681 1.425 . S
C1676 C1683 1.409 . S
C1677 H1669 0.930 . S
C1677 C1675 1.419 . S
C1677 C1678 1.362 1_545 S
C1678 H1670 0.930 . S
C1678 C1677 1.362 1_565 S
C1678 C1681 1.409 . S
C1679 H1671 0.930 . S
C1679 C1680 1.355 . S
C1679 C1681 1.415 . S
C1680 C1679 1.355 . S
C1680 C1682 1.419 . S
C1681 C1676 1.425 . S
C1681 C1678 1.409 . S
C1681 C1679 1.415 . S
C1682 H1672 0.930 . S
C1682 C1680 1.419 . S
C1682 C1683 1.362 . S
C1683 H1673 0.930 . S
C1683 C1676 1.409 . S
C1683 C1682 1.362 . S
H1684 C1690 0.930 . S
H1685 C1693 0.930 1_655 S
H1686 C1694 0.930 . S
H1687 C1695 0.930 . S
H1688 C1698 0.930 . S
H1689 C1699 0.930 . S
C1690 H1684 0.930 . S
C1690 C1691 1.355 1_455 S
C1690 C1692 1.415 . S
C1691 C1690 1.355 1_655 S
C1691 C1693 1.419 1_655 S
C1692 C1690 1.415 . S
C1692 C1697 1.425 . S
C1692 C1699 1.409 . S
C1693 H1685 0.930 1_455 S
C1693 C1691 1.419 1_455 S
C1693 C1694 1.362 . S
C1694 H1686 0.930 . S
C1694 C1693 1.362 . S
C1694 C1697 1.409 . S
C1695 H1687 0.930 . S
C1695 C1696 1.355 . S
C1695 C1697 1.415 . S
C1696 C1695 1.355 . S
C1696 C1698 1.419 . S
C1697 C1692 1.425 . S
C1697 C1694 1.409 . S
C1697 C1695 1.415 . S
C1698 H1688 0.930 . S
C1698 C1696 1.419 . S
C1698 C1699 1.362 . S
C1699 H1689 0.930 . S
C1699 C1692 1.409 . S
C1699 C1698 1.362 . S
H1700 C1706 0.930 . S
H1701 C1709 0.930 . S
H1702 C1710 0.930 . S
H1703 C1711 0.930 . S
H1704 C1714 0.930 . S
H1705 C1715 0.930 . S
C1706 H1700 0.930 . S
C1706 C1707 1.355 . S
C1706 C1708 1.415 . S
C1707 C1706 1.355 . S
C1707 C1709 1.419 . S
C1708 C1706 1.415 . S
C1708 C1713 1.425 . S
C1708 C1715 1.409 . S
C1709 H1701 0.930 . S
C1709 C1707 1.419 . S
C1709 C1710 1.362 . S
C1710 H1702 0.930 . S
C1710 C1709 1.362 . S
C1710 C1713 1.409 . S
C1711 H1703 0.930 . S
C1711 C1712 1.355 . S
C1711 C1713 1.415 . S
C1712 C1711 1.355 . S
C1712 C1714 1.419 . S
C1713 C1708 1.425 . S
C1713 C1710 1.409 . S
C1713 C1711 1.415 . S
C1714 H1704 0.930 . S
C1714 C1712 1.419 . S
C1714 C1715 1.362 . S
C1715 H1705 0.930 . S
C1715 C1708 1.409 . S
C1715 C1714 1.362 . S
H1716 C1722 0.930 . S
H1717 C1725 0.930 . S
H1718 C1726 0.930 . S
H1719 C1727 0.930 . S
H1720 C1730 0.930 . S
H1721 C1731 0.930 . S
C1722 H1716 0.930 . S
C1722 C1723 1.355 . S
C1722 C1724 1.415 . S
C1723 C1722 1.355 . S
C1723 C1725 1.419 . S
C1724 C1722 1.415 . S
C1724 C1729 1.425 . S
C1724 C1731 1.409 . S
C1725 H1717 0.930 . S
C1725 C1723 1.419 . S
C1725 C1726 1.362 . S
C1726 H1718 0.930 . S
C1726 C1725 1.362 . S
C1726 C1729 1.409 . S
C1727 H1719 0.930 . S
C1727 C1728 1.355 . S
C1727 C1729 1.415 . S
C1728 C1727 1.355 . S
C1728 C1730 1.419 . S
C1729 C1724 1.425 . S
C1729 C1726 1.409 . S
C1729 C1727 1.415 . S
C1730 H1720 0.930 . S
C1730 C1728 1.419 . S
C1730 C1731 1.362 . S
C1731 H1721 0.930 . S
C1731 C1724 1.409 . S
C1731 C1730 1.362 . S
H1732 C1738 0.930 . S
H1733 C1741 0.930 . S
H1734 C1742 0.930 . S
H1735 C1743 0.930 . S
H1736 C1746 0.930 . S
H1737 C1747 0.930 . S
C1738 H1732 0.930 . S
C1738 C1739 1.355 . S
C1738 C1740 1.415 . S
C1739 C1738 1.355 . S
C1739 C1741 1.419 . S
C1740 C1738 1.415 . S
C1740 C1745 1.425 . S
C1740 C1747 1.409 . S
C1741 H1733 0.930 . S
C1741 C1739 1.419 . S
C1741 C1742 1.362 . S
C1742 H1734 0.930 . S
C1742 C1741 1.362 . S
C1742 C1745 1.409 . S
C1743 H1735 0.930 . S
C1743 C1744 1.355 . S
C1743 C1745 1.415 . S
C1744 C1743 1.355 . S
C1744 C1746 1.419 . S
C1745 C1740 1.425 . S
C1745 C1742 1.409 . S
C1745 C1743 1.415 . S
C1746 H1736 0.930 . S
C1746 C1744 1.419 . S
C1746 C1747 1.362 . S
C1747 H1737 0.930 . S
C1747 C1740 1.409 . S
C1747 C1746 1.362 . S
H1748 C1754 0.930 . S
H1749 C1757 0.930 . S
H1750 C1758 0.930 . S
H1751 C1759 0.930 . S
H1752 C1762 0.930 . S
H1753 C1763 0.930 . S
C1754 H1748 0.930 . S
C1754 C1755 1.355 . S
C1754 C1756 1.415 . S
C1755 C1754 1.355 . S
C1755 C1757 1.419 . S
C1756 C1754 1.415 . S
C1756 C1761 1.425 . S
C1756 C1763 1.409 . S
C1757 H1749 0.930 . S
C1757 C1755 1.419 . S
C1757 C1758 1.362 . S
C1758 H1750 0.930 . S
C1758 C1757 1.362 . S
C1758 C1761 1.409 . S
C1759 H1751 0.930 . S
C1759 C1760 1.355 . S
C1759 C1761 1.415 . S
C1760 C1759 1.355 . S
C1760 C1762 1.419 . S
C1761 C1756 1.425 . S
C1761 C1758 1.409 . S
C1761 C1759 1.415 . S
C1762 H1752 0.930 . S
C1762 C1760 1.419 . S
C1762 C1763 1.362 . S
C1763 H1753 0.930 . S
C1763 C1756 1.409 . S
C1763 C1762 1.362 . S
H1764 C1770 0.930 1_565 S
H1765 C1773 0.930 . S
H1766 C1774 0.930 . S
H1767 C1775 0.930 . S
H1768 C1778 0.930 . S
H1769 C1779 0.930 . S
C1770 H1764 0.930 1_545 S
C1770 C1771 1.355 1_545 S
C1770 C1772 1.415 . S
C1771 C1770 1.355 1_565 S
C1771 C1773 1.419 . S
C1772 C1770 1.415 . S
C1772 C1777 1.425 . S
C1772 C1779 1.409 . S
C1773 H1765 0.930 . S
C1773 C1771 1.419 . S
C1773 C1774 1.362 1_565 S
C1774 H1766 0.930 . S
C1774 C1773 1.362 1_545 S
C1774 C1777 1.409 . S
C1775 H1767 0.930 . S
C1775 C1776 1.355 . S
C1775 C1777 1.415 . S
C1776 C1775 1.355 . S
C1776 C1778 1.419 . S
C1777 C1772 1.425 . S
C1777 C1774 1.409 . S
C1777 C1775 1.415 . S
C1778 H1768 0.930 . S
C1778 C1776 1.419 . S
C1778 C1779 1.362 . S
C1779 H1769 0.930 . S
C1779 C1772 1.409 . S
C1779 C1778 1.362 . S
H1780 C1786 0.921 1_455 S
H1781 C1789 0.930 . S
H1782 C1790 0.930 . S
H1783 C1791 0.930 . S
H1784 C1794 0.930 . S
H1785 C1795 0.930 . S
C1786 H1780 0.921 1_655 S
C1786 C1787 1.350 1_655 S
C1786 C1788 1.428 . S
C1787 C1786 1.350 1_455 S
C1787 C1789 1.419 1_455 S
C1788 C1786 1.428 . S
C1788 C1793 1.425 . S
C1788 C1795 1.409 . S
C1789 H1781 0.930 . S
C1789 C1787 1.419 1_655 S
C1789 C1790 1.362 . S
C1790 H1782 0.930 . S
C1790 C1789 1.362 . S
C1790 C1793 1.409 . S
C1791 H1783 0.930 . S
C1791 C1792 1.355 . S
C1791 C1793 1.415 . S
C1792 C1791 1.355 . S
C1792 C1794 1.419 . S
C1793 C1788 1.425 . S
C1793 C1790 1.409 . S
C1793 C1791 1.415 . S
C1794 H1784 0.930 . S
C1794 C1792 1.419 . S
C1794 C1795 1.362 . S
C1795 H1785 0.930 . S
C1795 C1788 1.409 . S
C1795 C1794 1.362 . S
H1796 C1802 0.930 . S
H1797 C1805 0.930 . S
H1798 C1806 0.930 . S
H1799 C1807 0.930 . S
H1800 C1810 0.930 . S
H1801 C1811 0.930 . S
C1802 H1796 0.930 . S
C1802 C1803 1.355 . S
C1802 C1804 1.415 . S
C1803 C1802 1.355 . S
C1803 C1805 1.419 . S
C1804 C1802 1.415 . S
C1804 C1809 1.425 . S
C1804 C1811 1.409 . S
C1805 H1797 0.930 . S
C1805 C1803 1.419 . S
C1805 C1806 1.362 . S
C1806 H1798 0.930 . S
C1806 C1805 1.362 . S
C1806 C1809 1.409 . S
C1807 H1799 0.930 . S
C1807 C1808 1.355 . S
C1807 C1809 1.415 . S
C1808 C1807 1.355 . S
C1808 C1810 1.419 . S
C1809 C1804 1.425 . S
C1809 C1806 1.409 . S
C1809 C1807 1.415 . S
C1810 H1800 0.930 . S
C1810 C1808 1.419 . S
C1810 C1811 1.362 . S
C1811 H1801 0.930 . S
C1811 C1804 1.409 . S
C1811 C1810 1.362 . S
H1812 C1818 0.930 . S
H1813 C1821 0.930 . S
H1814 C1822 0.930 . S
H1815 C1823 0.930 . S
H1816 C1826 0.930 . S
H1817 C1827 0.930 . S
C1818 H1812 0.930 . S
C1818 C1819 1.355 1_655 S
C1818 C1820 1.415 . S
C1819 C1818 1.355 1_455 S
C1819 C1821 1.419 . S
C1820 C1818 1.415 . S
C1820 C1825 1.425 . S
C1820 C1827 1.409 . S
C1821 H1813 0.930 . S
C1821 C1819 1.419 . S
C1821 C1822 1.362 1_455 S
C1822 H1814 0.930 . S
C1822 C1821 1.362 1_655 S
C1822 C1825 1.409 . S
C1823 H1815 0.930 . S
C1823 C1824 1.355 . S
C1823 C1825 1.415 . S
C1824 C1823 1.355 . S
C1824 C1826 1.419 . S
C1825 C1820 1.425 . S
C1825 C1822 1.409 . S
C1825 C1823 1.415 . S
C1826 H1816 0.930 . S
C1826 C1824 1.419 . S
C1826 C1827 1.362 . S
C1827 H1817 0.930 . S
C1827 C1820 1.409 . S
C1827 C1826 1.362 . S
H1828 C1834 0.930 . S
H1829 C1837 0.930 . S
H1830 C1838 0.930 . S
H1831 C1839 0.930 . S
H1832 C1842 0.930 . S
H1833 C1843 0.930 . S
C1834 H1828 0.930 . S
C1834 C1835 1.355 . S
C1834 C1836 1.415 . S
C1835 C1834 1.355 . S
C1835 C1837 1.419 . S
C1836 C1834 1.415 . S
C1836 C1841 1.425 . S
C1836 C1843 1.409 . S
C1837 H1829 0.930 . S
C1837 C1835 1.419 . S
C1837 C1838 1.362 . S
C1838 H1830 0.930 . S
C1838 C1837 1.362 . S
C1838 C1841 1.409 . S
C1839 H1831 0.930 . S
C1839 C1840 1.355 . S
C1839 C1841 1.415 . S
C1840 C1839 1.355 . S
C1840 C1842 1.419 . S
C1841 C1836 1.425 . S
C1841 C1838 1.409 . S
C1841 C1839 1.415 . S
C1842 H1832 0.930 . S
C1842 C1840 1.419 . S
C1842 C1843 1.362 . S
C1843 H1833 0.930 . S
C1843 C1836 1.409 . S
C1843 C1842 1.362 . S
H1844 C1850 0.930 . S
H1845 C1853 0.930 1_565 S
H1846 C1854 0.930 . S
H1847 C1855 0.930 . S
H1848 C1858 0.930 . S
H1849 C1859 0.930 . S
C1850 H1844 0.930 . S
C1850 C1851 1.355 . S
C1850 C1852 1.415 1_565 S
C1851 C1850 1.355 . S
C1851 C1853 1.419 1_565 S
C1852 C1850 1.415 1_545 S
C1852 C1857 1.425 . S
C1852 C1859 1.409 . S
C1853 H1845 0.930 1_545 S
C1853 C1851 1.419 1_545 S
C1853 C1854 1.362 . S
C1854 H1846 0.930 . S
C1854 C1853 1.362 . S
C1854 C1857 1.409 . S
C1855 H1847 0.930 . S
C1855 C1856 1.355 . S
C1855 C1857 1.415 . S
C1856 C1855 1.355 . S
C1856 C1858 1.419 . S
C1857 C1852 1.425 . S
C1857 C1854 1.409 . S
C1857 C1855 1.415 . S
C1858 H1848 0.930 . S
C1858 C1856 1.419 . S
C1858 C1859 1.362 . S
C1859 H1849 0.930 . S
C1859 C1852 1.409 . S
C1859 C1858 1.362 . S
H1860 C1866 0.930 . S
H1861 C1869 0.930 . S
H1862 C1870 0.930 . S
H1863 C1871 0.930 . S
H1864 C1874 0.930 . S
H1865 C1875 0.930 . S
C1866 H1860 0.930 . S
C1866 C1867 1.355 . S
C1866 C1868 1.415 . S
C1867 C1866 1.355 . S
C1867 C1869 1.419 . S
C1868 C1866 1.415 . S
C1868 C1873 1.425 . S
C1868 C1875 1.409 . S
C1869 H1861 0.930 . S
C1869 C1867 1.419 . S
C1869 C1870 1.362 . S
C1870 H1862 0.930 . S
C1870 C1869 1.362 . S
C1870 C1873 1.409 . S
C1871 H1863 0.930 . S
C1871 C1872 1.355 . S
C1871 C1873 1.415 . S
C1872 C1871 1.355 . S
C1872 C1874 1.419 . S
C1873 C1868 1.425 . S
C1873 C1870 1.409 . S
C1873 C1871 1.415 . S
C1874 H1864 0.930 . S
C1874 C1872 1.419 . S
C1874 C1875 1.362 . S
C1875 H1865 0.930 . S
C1875 C1868 1.409 . S
C1875 C1874 1.362 . S
H1876 C1882 0.930 . S
H1877 C1885 0.930 . S
H1878 C1886 0.930 . S
H1879 C1887 0.930 . S
H1880 C1890 0.930 . S
H1881 C1891 0.930 . S
C1882 H1876 0.930 . S
C1882 C1883 1.355 . S
C1882 C1884 1.415 . S
C1883 C1882 1.355 . S
C1883 C1885 1.419 . S
C1884 C1882 1.415 . S
C1884 C1889 1.425 . S
C1884 C1891 1.409 . S
C1885 H1877 0.930 . S
C1885 C1883 1.419 . S
C1885 C1886 1.362 . S
C1886 H1878 0.930 . S
C1886 C1885 1.362 . S
C1886 C1889 1.409 . S
C1887 H1879 0.930 . S
C1887 C1888 1.355 . S
C1887 C1889 1.415 . S
C1888 C1887 1.355 . S
C1888 C1890 1.419 . S
C1889 C1884 1.425 . S
C1889 C1886 1.409 . S
C1889 C1887 1.415 . S
C1890 H1880 0.930 . S
C1890 C1888 1.419 . S
C1890 C1891 1.362 . S
C1891 H1881 0.930 . S
C1891 C1884 1.409 . S
C1891 C1890 1.362 . S
H1892 C1898 0.930 . S
H1893 C1901 0.930 . S
H1894 C1902 0.930 . S
H1895 C1903 0.930 . S
H1896 C1906 0.930 . S
H1897 C1907 0.930 . S
C1898 H1892 0.930 . S
C1898 C1899 1.355 . S
C1898 C1900 1.415 . S
C1899 C1898 1.355 . S
C1899 C1901 1.419 . S
C1900 C1898 1.415 . S
C1900 C1905 1.425 . S
C1900 C1907 1.409 . S
C1901 H1893 0.930 . S
C1901 C1899 1.419 . S
C1901 C1902 1.362 . S
C1902 H1894 0.930 . S
C1902 C1901 1.362 . S
C1902 C1905 1.409 . S
C1903 H1895 0.930 . S
C1903 C1904 1.355 . S
C1903 C1905 1.415 . S
C1904 C1903 1.355 . S
C1904 C1906 1.419 . S
C1905 C1900 1.425 . S
C1905 C1902 1.409 . S
C1905 C1903 1.415 . S
C1906 H1896 0.930 . S
C1906 C1904 1.419 . S
C1906 C1907 1.362 . S
C1907 H1897 0.930 . S
C1907 C1900 1.409 . S
C1907 C1906 1.362 . S
H1908 C1914 0.930 . S
H1909 C1917 0.930 . S
H1910 C1918 0.930 . S
H1911 C1919 0.930 . S
H1912 C1922 0.930 1_545 S
H1913 C1923 0.930 1_545 S
C1914 H1908 0.930 . S
C1914 C1915 1.355 . S
C1914 C1916 1.415 . S
C1915 C1914 1.355 . S
C1915 C1917 1.419 . S
C1916 C1914 1.415 . S
C1916 C1921 1.425 . S
C1916 C1923 1.409 . S
C1917 H1909 0.930 . S
C1917 C1915 1.419 . S
C1917 C1918 1.362 . S
C1918 H1910 0.930 . S
C1918 C1917 1.362 . S
C1918 C1921 1.409 . S
C1919 H1911 0.930 . S
C1919 C1920 1.355 . S
C1919 C1921 1.415 . S
C1920 C1919 1.355 . S
C1920 C1922 1.419 . S
C1921 C1916 1.425 . S
C1921 C1918 1.409 . S
C1921 C1919 1.415 . S
C1922 H1912 0.930 1_565 S
C1922 C1920 1.419 . S
C1922 C1923 1.362 . S
C1923 H1913 0.930 1_565 S
C1923 C1916 1.409 . S
C1923 C1922 1.362 . S
H1924 C1930 0.930 . S
H1925 C1933 0.930 . S
H1926 C1934 0.930 . S
H1927 C1935 0.930 . S
H1928 C1938 0.930 . S
H1929 C1939 0.930 . S
C1930 H1924 0.930 . S
C1930 C1931 1.355 . S
C1930 C1932 1.415 . S
C1931 C1930 1.355 . S
C1931 C1933 1.419 . S
C1932 C1930 1.415 . S
C1932 C1937 1.425 . S
C1932 C1939 1.409 . S
C1933 H1925 0.930 . S
C1933 C1931 1.419 . S
C1933 C1934 1.362 . S
C1934 H1926 0.930 . S
C1934 C1933 1.362 . S
C1934 C1937 1.409 . S
C1935 H1927 0.930 . S
C1935 C1936 1.355 . S
C1935 C1937 1.415 . S
C1936 C1935 1.355 . S
C1936 C1938 1.419 . S
C1937 C1932 1.425 . S
C1937 C1934 1.409 . S
C1937 C1935 1.415 . S
C1938 H1928 0.930 . S
C1938 C1936 1.419 . S
C1938 C1939 1.362 . S
C1939 H1929 0.930 . S
C1939 C1932 1.409 . S
C1939 C1938 1.362 . S
H1940 C1946 0.930 . S
H1941 C1949 0.930 . S
H1942 C1950 0.930 . S
H1943 C1951 0.930 . S
H1944 C1954 0.930 . S
H1945 C1955 0.930 . S
C1946 H1940 0.930 . S
C1946 C1947 1.355 . S
C1946 C1948 1.415 . S
C1947 C1946 1.355 . S
C1947 C1949 1.419 . S
C1948 C1946 1.415 . S
C1948 C1953 1.425 . S
C1948 C1955 1.409 . S
C1949 H1941 0.930 . S
C1949 C1947 1.419 . S
C1949 C1950 1.362 . S
C1950 H1942 0.930 . S
C1950 C1949 1.362 . S
C1950 C1953 1.409 . S
C1951 H1943 0.930 . S
C1951 C1952 1.355 . S
C1951 C1953 1.415 . S
C1952 C1951 1.355 . S
C1952 C1954 1.419 . S
C1953 C1948 1.425 . S
C1953 C1950 1.409 . S
C1953 C1951 1.415 . S
C1954 H1944 0.930 . S
C1954 C1952 1.419 . S
C1954 C1955 1.362 . S
C1955 H1945 0.930 . S
C1955 C1948 1.409 . S
C1955 C1954 1.362 . S
H1956 C1962 0.930 . S
H1957 C1965 0.930 . S
H1958 C1966 0.930 . S
H1959 C1967 0.930 . S
H1960 C1970 0.930 . S
H1961 C1971 0.930 . S
C1962 H1956 0.930 . S
C1962 C1963 1.355 . S
C1962 C1964 1.415 . S
C1963 C1962 1.355 . S
C1963 C1965 1.419 . S
C1964 C1962 1.415 . S
C1964 C1969 1.425 . S
C1964 C1971 1.409 . S
C1965 H1957 0.930 . S
C1965 C1963 1.419 . S
C1965 C1966 1.362 . S
C1966 H1958 0.930 . S
C1966 C1965 1.362 . S
C1966 C1969 1.409 . S
C1967 H1959 0.930 . S
C1967 C1968 1.355 . S
C1967 C1969 1.415 . S
C1968 C1967 1.355 . S
C1968 C1970 1.419 . S
C1969 C1964 1.425 . S
C1969 C1966 1.409 . S
C1969 C1967 1.415 . S
C1970 H1960 0.930 . S
C1970 C1968 1.419 . S
C1970 C1971 1.362 . S
C1971 H1961 0.930 . S
C1971 C1964 1.409 . S
C1971 C1970 1.362 . S
H1972 C1978 0.930 . S
H1973 C1981 0.930 . S
H1974 C1982 0.930 . S
H1975 C1983 0.930 . S
H1976 C1986 0.930 . S
H1977 C1987 0.930 . S
C1978 H1972 0.930 . S
C1978 C1979 1.355 . S
C1978 C1980 1.415 . S
C1979 C1978 1.355 . S
C1979 C1981 1.419 . S
C1980 C1978 1.415 . S
C1980 C1985 1.425 . S
C1980 C1987 1.409 . S
C1981 H1973 0.930 . S
C1981 C1979 1.419 . S
C1981 C1982 1.362 . S
C1982 H1974 0.930 . S
C1982 C1981 1.362 . S
C1982 C1985 1.409 . S
C1983 H1975 0.930 . S
C1983 C1984 1.355 . S
C1983 C1985 1.415 . S
C1984 C1983 1.355 . S
C1984 C1986 1.419 . S
C1985 C1980 1.425 . S
C1985 C1982 1.409 . S
C1985 C1983 1.415 . S
C1986 H1976 0.930 . S
C1986 C1984 1.419 . S
C1986 C1987 1.362 . S
C1987 H1977 0.930 . S
C1987 C1980 1.409 . S
C1987 C1986 1.362 . S
H1988 C1994 0.930 . S
H1989 C1997 0.930 . S
H1990 C1998 0.930 . S
H1991 C1999 0.930 . S
H1992 C2002 0.930 . S
H1993 C2003 0.930 . S
C1994 H1988 0.930 . S
C1994 C1995 1.355 . S
C1994 C1996 1.415 . S
C1995 C1994 1.355 . S
C1995 C1997 1.419 . S
C1996 C1994 1.415 . S
C1996 C2001 1.425 . S
C1996 C2003 1.409 . S
C1997 H1989 0.930 . S
C1997 C1995 1.419 . S
C1997 C1998 1.362 . S
C1998 H1990 0.930 . S
C1998 C1997 1.362 . S
C1998 C2001 1.409 . S
C1999 H1991 0.930 . S
C1999 C2000 1.355 . S
C1999 C2001 1.415 . S
C2000 C1999 1.355 . S
C2000 C2002 1.419 . S
C2001 C1996 1.425 . S
C2001 C1998 1.409 . S
C2001 C1999 1.415 . S
C2002 H1992 0.930 . S
C2002 C2000 1.419 . S
C2002 C2003 1.362 . S
C2003 H1993 0.930 . S
C2003 C1996 1.409 . S
C2003 C2002 1.362 . S
H2004 C2010 0.930 . S
H2005 C2013 0.930 . S
H2006 C2014 0.930 . S
H2007 C2015 0.930 . S
H2008 C2018 0.930 . S
H2009 C2019 0.930 . S
C2010 H2004 0.930 . S
C2010 C2011 1.355 . S
C2010 C2012 1.415 . S
C2011 C2010 1.355 . S
C2011 C2013 1.419 . S
C2012 C2010 1.415 . S
C2012 C2017 1.425 . S
C2012 C2019 1.409 . S
C2013 H2005 0.930 . S
C2013 C2011 1.419 . S
C2013 C2014 1.362 . S
C2014 H2006 0.930 . S
C2014 C2013 1.362 . S
C2014 C2017 1.409 . S
C2015 H2007 0.930 . S
C2015 C2016 1.355 . S
C2015 C2017 1.415 . S
C2016 C2015 1.355 . S
C2016 C2018 1.419 . S
C2017 C2012 1.425 . S
C2017 C2014 1.409 . S
C2017 C2015 1.415 . S
C2018 H2008 0.930 . S
C2018 C2016 1.419 . S
C2018 C2019 1.362 . S
C2019 H2009 0.930 . S
C2019 C2012 1.409 . S
C2019 C2018 1.362 . S
H2020 C2026 0.930 . S
H2021 C2029 0.930 . S
H2022 C2030 0.930 . S
H2023 C2031 0.930 . S
H2024 C2034 0.930 . S
H2025 C2035 0.930 . S
C2026 H2020 0.930 . S
C2026 C2027 1.355 . S
C2026 C2028 1.415 . S
C2027 C2026 1.355 . S
C2027 C2029 1.419 . S
C2028 C2026 1.415 . S
C2028 C2033 1.425 . S
C2028 C2035 1.409 . S
C2029 H2021 0.930 . S
C2029 C2027 1.419 . S
C2029 C2030 1.362 . S
C2030 H2022 0.930 . S
C2030 C2029 1.362 . S
C2030 C2033 1.409 . S
C2031 H2023 0.930 . S
C2031 C2032 1.355 . S
C2031 C2033 1.415 . S
C2032 C2031 1.355 . S
C2032 C2034 1.419 . S
C2033 C2028 1.425 . S
C2033 C2030 1.409 . S
C2033 C2031 1.415 . S
C2034 H2024 0.930 . S
C2034 C2032 1.419 . S
C2034 C2035 1.362 . S
C2035 H2025 0.930 . S
C2035 C2028 1.409 . S
C2035 C2034 1.362 . S
H2036 C2042 0.930 . S
H2037 C2045 0.930 . S
H2038 C2046 0.930 . S
H2039 C2047 0.930 . S
H2040 C2050 0.930 . S
H2041 C2051 0.930 . S
C2042 H2036 0.930 . S
C2042 C2043 1.355 . S
C2042 C2044 1.415 . S
C2043 C2042 1.355 . S
C2043 C2045 1.419 . S
C2044 C2042 1.415 . S
C2044 C2049 1.425 . S
C2044 C2051 1.409 . S
C2045 H2037 0.930 . S
C2045 C2043 1.419 . S
C2045 C2046 1.362 . S
C2046 H2038 0.930 . S
C2046 C2045 1.362 . S
C2046 C2049 1.409 . S
C2047 H2039 0.930 . S
C2047 C2048 1.355 . S
C2047 C2049 1.415 . S
C2048 C2047 1.355 . S
C2048 C2050 1.419 . S
C2049 C2044 1.425 . S
C2049 C2046 1.409 . S
C2049 C2047 1.415 . S
C2050 H2040 0.930 . S
C2050 C2048 1.419 . S
C2050 C2051 1.362 . S
C2051 H2041 0.930 . S
C2051 C2044 1.409 . S
C2051 C2050 1.362 . S
H2052 C2058 0.930 . S
H2053 C2061 0.930 . S
H2054 C2062 0.930 . S
H2055 C2063 0.930 . S
H2056 C2066 0.930 . S
H2057 C2067 0.930 . S
C2058 H2052 0.930 . S
C2058 C2059 1.355 . S
C2058 C2060 1.415 . S
C2059 C2058 1.355 . S
C2059 C2061 1.419 . S
C2060 C2058 1.415 . S
C2060 C2065 1.425 . S
C2060 C2067 1.409 . S
C2061 H2053 0.930 . S
C2061 C2059 1.419 . S
C2061 C2062 1.362 . S
C2062 H2054 0.930 . S
C2062 C2061 1.362 . S
C2062 C2065 1.409 . S
C2063 H2055 0.930 . S
C2063 C2064 1.355 . S
C2063 C2065 1.415 . S
C2064 C2063 1.355 . S
C2064 C2066 1.419 . S
C2065 C2060 1.425 . S
C2065 C2062 1.409 . S
C2065 C2063 1.415 . S
C2066 H2056 0.930 . S
C2066 C2064 1.419 . S
C2066 C2067 1.362 . S
C2067 H2057 0.930 . S
C2067 C2060 1.409 . S
C2067 C2066 1.362 . S
H2068 C2074 0.930 . S
H2069 C2077 0.930 . S
H2070 C2078 0.930 . S
H2071 C2079 0.930 . S
H2072 C2082 0.930 . S
H2073 C2083 0.930 . S
C2074 H2068 0.930 . S
C2074 C2075 1.355 . S
C2074 C2076 1.415 . S
C2075 C2074 1.355 . S
C2075 C2077 1.419 . S
C2076 C2074 1.415 . S
C2076 C2081 1.425 . S
C2076 C2083 1.409 . S
C2077 H2069 0.930 . S
C2077 C2075 1.419 . S
C2077 C2078 1.362 . S
C2078 H2070 0.930 . S
C2078 C2077 1.362 . S
C2078 C2081 1.409 . S
C2079 H2071 0.930 . S
C2079 C2080 1.355 . S
C2079 C2081 1.415 . S
C2080 C2079 1.355 . S
C2080 C2082 1.419 . S
C2081 C2076 1.425 . S
C2081 C2078 1.409 . S
C2081 C2079 1.415 . S
C2082 H2072 0.930 . S
C2082 C2080 1.419 . S
C2082 C2083 1.362 . S
C2083 H2073 0.930 . S
C2083 C2076 1.409 . S
C2083 C2082 1.362 . S
H2084 C2090 0.930 . S
H2085 C2093 0.930 . S
H2086 C2094 0.930 . S
H2087 C2095 0.930 . S
H2088 C2098 0.930 . S
H2089 C2099 0.930 . S
C2090 H2084 0.930 . S
C2090 C2091 1.355 . S
C2090 C2092 1.415 . S
C2091 C2090 1.355 . S
C2091 C2093 1.419 . S
C2092 C2090 1.415 . S
C2092 C2097 1.425 . S
C2092 C2099 1.409 . S
C2093 H2085 0.930 . S
C2093 C2091 1.419 . S
C2093 C2094 1.362 . S
C2094 H2086 0.930 . S
C2094 C2093 1.362 . S
C2094 C2097 1.409 . S
C2095 H2087 0.930 . S
C2095 C2096 1.355 . S
C2095 C2097 1.415 . S
C2096 C2095 1.355 . S
C2096 C2098 1.419 . S
C2097 C2092 1.425 . S
C2097 C2094 1.409 . S
C2097 C2095 1.415 . S
C2098 H2088 0.930 . S
C2098 C2096 1.419 . S
C2098 C2099 1.362 . S
C2099 H2089 0.930 . S
C2099 C2092 1.409 . S
C2099 C2098 1.362 . S
H2100 C2106 0.930 . S
H2101 C2109 0.930 . S
H2102 C2110 0.930 . S
H2103 C2111 0.930 . S
H2104 C2114 0.930 . S
H2105 C2115 0.930 . S
C2106 H2100 0.930 . S
C2106 C2107 1.355 . S
C2106 C2108 1.415 . S
C2107 C2106 1.355 . S
C2107 C2109 1.419 . S
C2108 C2106 1.415 . S
C2108 C2113 1.425 . S
C2108 C2115 1.409 . S
C2109 H2101 0.930 . S
C2109 C2107 1.419 . S
C2109 C2110 1.362 . S
C2110 H2102 0.930 . S
C2110 C2109 1.362 . S
C2110 C2113 1.409 . S
C2111 H2103 0.930 . S
C2111 C2112 1.355 . S
C2111 C2113 1.415 . S
C2112 C2111 1.355 . S
C2112 C2114 1.419 . S
C2113 C2108 1.425 . S
C2113 C2110 1.409 . S
C2113 C2111 1.415 . S
C2114 H2104 0.930 . S
C2114 C2112 1.419 . S
C2114 C2115 1.362 . S
C2115 H2105 0.930 . S
C2115 C2108 1.409 . S
C2115 C2114 1.362 . S
H2116 C2122 0.930 . S
H2117 C2125 0.930 . S
H2118 C2126 0.930 . S
H2119 C2127 0.930 . S
H2120 C2130 0.930 . S
H2121 C2131 0.930 . S
C2122 H2116 0.930 . S
C2122 C2123 1.355 . S
C2122 C2124 1.415 . S
C2123 C2122 1.355 . S
C2123 C2125 1.419 . S
C2124 C2122 1.415 . S
C2124 C2129 1.425 . S
C2124 C2131 1.409 . S
C2125 H2117 0.930 . S
C2125 C2123 1.419 . S
C2125 C2126 1.362 . S
C2126 H2118 0.930 . S
C2126 C2125 1.362 . S
C2126 C2129 1.409 . S
C2127 H2119 0.930 . S
C2127 C2128 1.355 . S
C2127 C2129 1.415 . S
C2128 C2127 1.355 . S
C2128 C2130 1.419 . S
C2129 C2124 1.425 . S
C2129 C2126 1.409 . S
C2129 C2127 1.415 . S
C2130 H2120 0.930 . S
C2130 C2128 1.419 . S
C2130 C2131 1.362 . S
C2131 H2121 0.930 . S
C2131 C2124 1.409 . S
C2131 C2130 1.362 . S
H2132 C2138 0.930 . S
H2133 C2141 0.930 . S
H2134 C2142 0.930 . S
H2135 C2143 0.930 . S
H2136 C2146 0.930 . S
H2137 C2147 0.930 . S
C2138 H2132 0.930 . S
C2138 C2139 1.355 . S
C2138 C2140 1.415 . S
C2139 C2138 1.355 . S
C2139 C2141 1.419 . S
C2140 C2138 1.415 . S
C2140 C2145 1.425 . S
C2140 C2147 1.409 . S
C2141 H2133 0.930 . S
C2141 C2139 1.419 . S
C2141 C2142 1.362 . S
C2142 H2134 0.930 . S
C2142 C2141 1.362 . S
C2142 C2145 1.409 . S
C2143 H2135 0.930 . S
C2143 C2144 1.355 . S
C2143 C2145 1.415 . S
C2144 C2143 1.355 . S
C2144 C2146 1.419 . S
C2145 C2140 1.425 . S
C2145 C2142 1.409 . S
C2145 C2143 1.415 . S
C2146 H2136 0.930 . S
C2146 C2144 1.419 . S
C2146 C2147 1.362 . S
C2147 H2137 0.930 . S
C2147 C2140 1.409 . S
C2147 C2146 1.362 . S
H2148 C2154 0.930 . S
H2149 C2157 0.930 . S
H2150 C2158 0.930 . S
H2151 C2159 0.930 . S
H2152 C2162 0.930 . S
H2153 C2163 0.930 . S
C2154 H2148 0.930 . S
C2154 C2155 1.355 . S
C2154 C2156 1.415 . S
C2155 C2154 1.355 . S
C2155 C2157 1.419 . S
C2156 C2154 1.415 . S
C2156 C2161 1.425 . S
C2156 C2163 1.409 . S
C2157 H2149 0.930 . S
C2157 C2155 1.419 . S
C2157 C2158 1.362 . S
C2158 H2150 0.930 . S
C2158 C2157 1.362 . S
C2158 C2161 1.409 . S
C2159 H2151 0.930 . S
C2159 C2160 1.355 . S
C2159 C2161 1.415 . S
C2160 C2159 1.355 . S
C2160 C2162 1.419 . S
C2161 C2156 1.425 . S
C2161 C2158 1.409 . S
C2161 C2159 1.415 . S
C2162 H2152 0.930 . S
C2162 C2160 1.419 . S
C2162 C2163 1.362 . S
C2163 H2153 0.930 . S
C2163 C2156 1.409 . S
C2163 C2162 1.362 . S
H2164 C2170 0.930 . S
H2165 C2173 0.930 . S
H2166 C2174 0.930 . S
H2167 C2175 0.930 . S
H2168 C2178 0.930 . S
H2169 C2179 0.930 . S
C2170 H2164 0.930 . S
C2170 C2171 1.355 . S
C2170 C2172 1.415 . S
C2171 C2170 1.355 . S
C2171 C2173 1.419 . S
C2172 C2170 1.415 . S
C2172 C2177 1.425 . S
C2172 C2179 1.409 . S
C2173 H2165 0.930 . S
C2173 C2171 1.419 . S
C2173 C2174 1.362 . S
C2174 H2166 0.930 . S
C2174 C2173 1.362 . S
C2174 C2177 1.409 . S
C2175 H2167 0.930 . S
C2175 C2176 1.355 . S
C2175 C2177 1.415 . S
C2176 C2175 1.355 . S
C2176 C2178 1.419 . S
C2177 C2172 1.425 . S
C2177 C2174 1.409 . S
C2177 C2175 1.415 . S
C2178 H2168 0.930 . S
C2178 C2176 1.419 . S
C2178 C2179 1.362 . S
C2179 H2169 0.930 . S
C2179 C2172 1.409 . S
C2179 C2178 1.362 . S
H2180 C2186 0.930 . S
H2181 C2189 0.930 . S
H2182 C2190 0.930 . S
H2183 C2191 0.930 . S
H2184 C2194 0.930 . S
H2185 C2195 0.930 . S
C2186 H2180 0.930 . S
C2186 C2187 1.355 . S
C2186 C2188 1.415 . S
C2187 C2186 1.355 . S
C2187 C2189 1.419 . S
C2188 C2186 1.415 . S
C2188 C2193 1.425 . S
C2188 C2195 1.409 . S
C2189 H2181 0.930 . S
C2189 C2187 1.419 . S
C2189 C2190 1.362 . S
C2190 H2182 0.930 . S
C2190 C2189 1.362 . S
C2190 C2193 1.409 . S
C2191 H2183 0.930 . S
C2191 C2192 1.355 . S
C2191 C2193 1.415 . S
C2192 C2191 1.355 . S
C2192 C2194 1.419 . S
C2193 C2188 1.425 . S
C2193 C2190 1.409 . S
C2193 C2191 1.415 . S
C2194 H2184 0.930 . S
C2194 C2192 1.419 . S
C2194 C2195 1.362 . S
C2195 H2185 0.930 . S
C2195 C2188 1.409 . S
C2195 C2194 1.362 . S
C1339 C439 1.325 . S
C1344 C643 1.333 . S
C1355 C465 1.502 . S
C1360 C727 1.411 . S
C1371 C401 1.491 . S
C1376 C807 1.397 . S
C1387 C369 1.428 . S
C1392 C723 1.427 . S
C1408 C811 1.429 . S
C1403 C305 1.456 . S
C1419 C343 1.364 . S
C1424 C639 1.374 . S
C1440 C632 1.340 . S
C1435 C375 1.441 . S
C1456 C716 1.456 . S
C1451 C311 1.482 . S
C1467 C337 1.394 . S
C1472 C818 1.405 . S
C1483 C433 1.428 . S
C1488 C734 1.432 . S
C1499 C471 1.422 . S
C1504 C800 1.402 . S
C1520 C650 1.416 . S
C1515 C407 1.418 . S
C1536 C895 1.372 . S
C1531 C55 1.401 . S
C1547 C81 1.497 . S
C1552 C979 1.430 . S
C1563 C17 1.480 . S
C1568 C1059 1.447 . S
C1579 C561 1.451 . S
C1584 C975 1.365 . S
C1595 C497 1.445 . S
C1600 C1063 1.353 . S
C1611 C535 1.310 . S
C1616 C891 1.326 . S
C1627 C567 1.436 . S
C1632 C884 1.363 . S
C1643 C503 1.476 . S
C1648 C968 1.458 . S
C1664 C1070 1.465 . S
C1659 C529 1.461 . S
C1675 C49 1.366 . S
C1680 C986 1.372 . S
C1696 C1052 1.320 . S
C1691 C87 1.439 . S
C1707 C23 1.423 . S
C1712 C902 1.399 . S
C1728 C1147 1.345 . S
C1723 C247 1.328 . S
C1739 C273 1.525 . S
C1744 C1231 1.440 . S
C1760 C1311 1.400 . S
C1755 C209 1.489 . S
C1776 C1227 1.389 . S
C1771 C177 1.441 . S
C1792 C1315 1.403 . S
C1787 C113 1.472 . S
C1803 C151 1.296 . S
C1808 C1143 1.313 . S
C1819 C183 1.436 . S
C1824 C1136 1.375 . S
C1835 C119 1.466 . S
C1840 C1220 1.433 . S
C1856 C1322 1.422 . S
C1851 C145 1.418 . S
C1867 C241 1.373 . S
C1872 C1238 1.380 . S
C1883 C279 1.417 . S
C1888 C1304 1.325 . S
C1899 C215 1.419 . S
C1904 C1154 1.413 . S
C1915 C509 1.479 . S
C1920 C646 1.327 . S
C1936 C730 1.304 . S
C1931 C541 1.440 . S
C1947 C573 1.434 . S
C1952 C802 1.403 . S
C1963 C221 1.483 . S
C1968 C718 1.381 . S
C1979 C253 1.404 . S
C1984 C814 1.275 . S
C2000 C634 1.341 . S
C1995 C285 1.460 . S
C2011 C125 1.436 . S
C2016 C898 1.361 . S
C2027 C157 1.467 . S
C2032 C982 1.353 . S
C2043 C189 1.482 . S
C2048 C1054 1.293 . S
C2059 C413 1.479 . S
C2064 C970 1.386 . S
C2080 C1066 1.382 . S
C2075 C445 1.443 . S
C2091 C477 1.427 . S
C2096 C886 1.398 . S
C2107 C317 1.419 . S
C2112 C1150 1.419 . S
C2123 C349 1.458 . S
C2128 C1234 1.391 . S
C2144 C1306 1.377 . S
C2139 C381 1.449 . S
C2155 C29 1.473 . S
C2160 C1222 1.401 . S
C2171 C61 1.402 . S
C2176 C1318 1.295 . S
C2187 C93 1.477 . S
C2192 C1138 1.315 . S
