# Generated by pormake.
# Topology zzz, (3,6)-cn, num edge types: 1
# Building blocks:
#     Node 0, Type 0, BuildingBlock: MIDCAF_clean_linker_0, # of connection points: 3
#     Node 1, Type 0, BuildingBlock: MIDCAF_clean_linker_0, # of connection points: 3
#     Node 2, Type 0, BuildingBlock: MIDCAF_clean_linker_0, # of connection points: 3
#     Node 3, Type 0, BuildingBlock: MIDCAF_clean_linker_0, # of connection points: 3
#     Node 4, Type 0, BuildingBlock: MIDCAF_clean_linker_0, # of connection points: 3
#     Node 5, Type 0, BuildingBlock: MIDCAF_clean_linker_0, # of connection points: 3
#     Node 6, Type 0, BuildingBlock: MIDCAF_clean_linker_0, # of connection points: 3
#     Node 7, Type 0, BuildingBlock: MIDCAF_clean_linker_0, # of connection points: 3
#     Node 8, Type 1, BuildingBlock: JUFBIX_clean_sbu_0, # of connection points: 6
#     Node 9, Type 1, BuildingBlock: JUFBIX_clean_sbu_0, # of connection points: 6
#     Node 10, Type 1, BuildingBlock: JUFBIX_clean_sbu_0, # of connection points: 6
#     Node 11, Type 1, BuildingBlock: JUFBIX_clean_sbu_0, # of connection points: 6
#     Edge 12, Type (0, 1), BuildingBlock: AJUNOK_clean_linker_0, # of connection points: 2
#     Edge 13, Type (0, 1), BuildingBlock: AJUNOK_clean_linker_0, # of connection points: 2
#     Edge 14, Type (0, 1), BuildingBlock: AJUNOK_clean_linker_0, # of connection points: 2
#     Edge 15, Type (0, 1), BuildingBlock: AJUNOK_clean_linker_0, # of connection points: 2
#     Edge 16, Type (0, 1), BuildingBlock: AJUNOK_clean_linker_0, # of connection points: 2
#     Edge 17, Type (0, 1), BuildingBlock: AJUNOK_clean_linker_0, # of connection points: 2
#     Edge 18, Type (0, 1), BuildingBlock: AJUNOK_clean_linker_0, # of connection points: 2
#     Edge 19, Type (0, 1), BuildingBlock: AJUNOK_clean_linker_0, # of connection points: 2
#     Edge 20, Type (0, 1), BuildingBlock: AJUNOK_clean_linker_0, # of connection points: 2
#     Edge 21, Type (0, 1), BuildingBlock: AJUNOK_clean_linker_0, # of connection points: 2
#     Edge 22, Type (0, 1), BuildingBlock: AJUNOK_clean_linker_0, # of connection points: 2
#     Edge 23, Type (0, 1), BuildingBlock: AJUNOK_clean_linker_0, # of connection points: 2
#     Edge 24, Type (0, 1), BuildingBlock: AJUNOK_clean_linker_0, # of connection points: 2
#     Edge 25, Type (0, 1), BuildingBlock: AJUNOK_clean_linker_0, # of connection points: 2
#     Edge 26, Type (0, 1), BuildingBlock: AJUNOK_clean_linker_0, # of connection points: 2
#     Edge 27, Type (0, 1), BuildingBlock: AJUNOK_clean_linker_0, # of connection points: 2
#     Edge 28, Type (0, 1), BuildingBlock: AJUNOK_clean_linker_0, # of connection points: 2
#     Edge 29, Type (0, 1), BuildingBlock: AJUNOK_clean_linker_0, # of connection points: 2
#     Edge 30, Type (0, 1), BuildingBlock: AJUNOK_clean_linker_0, # of connection points: 2
#     Edge 31, Type (0, 1), BuildingBlock: AJUNOK_clean_linker_0, # of connection points: 2
#     Edge 32, Type (0, 1), BuildingBlock: AJUNOK_clean_linker_0, # of connection points: 2
#     Edge 33, Type (0, 1), BuildingBlock: AJUNOK_clean_linker_0, # of connection points: 2
#     Edge 34, Type (0, 1), BuildingBlock: AJUNOK_clean_linker_0, # of connection points: 2
#     Edge 35, Type (0, 1), BuildingBlock: AJUNOK_clean_linker_0, # of connection points: 2
# Relax obj value: 0.284
# Max RMSD: 0.231
# Mean RMSD: 0.187
data_MOF--net-zzz--node1-JUFBIX_clean_sbu_0--node2-MIDCAF_clean_linker_0--edge1-AJUNOK_clean_linker_0
_symmetry_space_group_name_H-M    P1
_symmetry_Int_Tables_number       1
_symmetry_cell_setting            triclinic
loop_
_symmetry_equiv_pos_as_xyz
'x, y, z'
_cell_length_a     45.46796
_cell_length_b     46.459062
_cell_length_c     18.102553
_cell_angle_alpha  80.899942
_cell_angle_beta   90.227224
_cell_angle_gamma 86.025861
loop_
_atom_site_label
_atom_site_type_symbol
_atom_site_fract_x
_atom_site_fract_y
_atom_site_fract_z
_atom_type_partial_charge
C0 C 0.84611 0.5498 0.47243 0.0
C1 C 0.8443 0.53268 0.54331 0.0
C2 C 0.82276 0.51214 0.55494 0.0
C3 C 0.80546 0.50679 0.49502 0.0
H4 H 0.74411 0.45944 0.19234 0.0
H5 H 0.70012 0.46747 0.11248 0.0
H6 H 0.6826 0.55275 0.17523 0.0
H7 H 0.72689 0.54463 0.25631 0.0
H8 H 0.81957 0.47272 0.11779 0.0
H9 H 0.8631 0.46596 0.04299 0.0
H10 H 0.91849 0.45872 0.24022 0.0
H11 H 0.87501 0.4663 0.31523 0.0
H12 H 0.83294 0.55574 0.35698 0.0
H13 H 0.86282 0.56539 0.46129 0.0
H14 H 0.82097 0.49861 0.60903 0.0
H15 H 0.79111 0.48893 0.50373 0.0
N16 N 0.77384 0.51067 0.3289 0.0
N17 N 0.79095 0.48436 0.23461 0.0
N18 N 0.82393 0.49467 0.32431 0.0
C19 C 0.76837 0.49823 0.26718 0.0
C20 C 0.81877 0.48242 0.26296 0.0
C21 C 0.80178 0.50857 0.3577 0.0
C22 C 0.73893 0.50142 0.23052 0.0
C23 C 0.73054 0.47966 0.19052 0.0
C24 C 0.70527 0.48417 0.14507 0.0
C25 C 0.68793 0.51067 0.13796 0.0
C26 C 0.69561 0.53209 0.18005 0.0
C27 C 0.72077 0.52737 0.22671 0.0
C28 C 0.84389 0.47091 0.22205 0.0
C29 C 0.84091 0.46893 0.14576 0.0
C30 C 0.86586 0.4649 0.10285 0.0
C31 C 0.89416 0.46257 0.1356 0.0
C32 C 0.89693 0.46124 0.21335 0.0
C33 C 0.87202 0.46555 0.25618 0.0
C34 C 0.80955 0.52188 0.42283 0.0
C35 C 0.82897 0.54432 0.41264 0.0
C36 C 0.97293 0.83188 0.44782 0.0
C37 C 0.99285 0.83684 0.50335 0.0
C38 C 0.0195 0.81935 0.51417 0.0
C39 C 0.02757 0.79991 0.46484 0.0
H40 H 0.98276 0.7236 0.26418 0.0
H41 H 0.97261 0.68362 0.19554 0.0
H42 H 0.05653 0.69189 0.08669 0.0
H43 H 0.06664 0.73143 0.15443 0.0
H44 H 0.07918 0.80294 0.0969 0.0
H45 H 0.08778 0.84502 0.00208 0.0
H46 H 0.0543 0.90296 0.15168 0.0
H47 H 0.04764 0.86153 0.24727 0.0
H48 H 0.96659 0.81121 0.35148 0.0
H49 H 0.95224 0.84501 0.43811 0.0
H50 H 0.03504 0.82224 0.55746 0.0
H51 H 0.04953 0.78906 0.46958 0.0
N52 N 0.01788 0.76321 0.31176 0.0
N53 N 0.04592 0.77853 0.20524 0.0
N54 N 0.03808 0.80898 0.29504 0.0
C55 C 0.03028 0.75779 0.24608 0.0
C56 C 0.04978 0.80424 0.22918 0.0
C57 C 0.02245 0.78879 0.33678 0.0
C58 C 0.02547 0.73076 0.21467 0.0
C59 C 0.99929 0.71638 0.22692 0.0
C60 C 0.99341 0.69364 0.18736 0.0
C61 C 0.01387 0.68448 0.13612 0.0
C62 C 0.04054 0.69804 0.12663 0.0
C63 C 0.04622 0.7209 0.16514 0.0
C64 C 0.06183 0.8288 0.17882 0.0
C65 C 0.07446 0.8247 0.11018 0.0
C66 C 0.07917 0.84881 0.05566 0.0
C67 C 0.07055 0.8773 0.06821 0.0
C68 C 0.06101 0.88136 0.13975 0.0
C69 C 0.05694 0.85742 0.19462 0.0
C70 C 0.00895 0.79719 0.40469 0.0
C71 C 0.98097 0.81226 0.39872 0.0
C72 C 0.71328 0.99106 0.44123 0.0
C73 C 0.69603 0.01232 0.47238 0.0
C74 C 0.69962 0.04198 0.44656 0.0
C75 C 0.71773 0.05018 0.38579 0.0
H76 H 0.82763 0.02495 0.23566 0.0
H77 H 0.87485 0.01586 0.17443 0.0
H78 H 0.82839 0.01584 0.96613 0.0
H79 H 0.78183 0.02444 0.02621 0.0
H80 H 0.71748 0.04656 0.0029 0.0
H81 H 0.67228 0.05231 0.92864 0.0
H82 H 0.62589 0.08903 0.10369 0.0
H83 H 0.67102 0.08224 0.17965 0.0
H84 H 0.74271 0.98252 0.35351 0.0
H85 H 0.71089 0.96804 0.46016 0.0
H86 H 0.68636 0.05885 0.46866 0.0
H87 H 0.7178 0.07312 0.36222 0.0
N88 N 0.76761 0.02864 0.24423 0.0
N89 N 0.7498 0.04605 0.1219 0.0
N90 N 0.7191 0.04958 0.22338 0.0
C91 C 0.77225 0.03375 0.16884 0.0
C92 C 0.72324 0.0541 0.14869 0.0
C93 C 0.74092 0.03695 0.2714 0.0
C94 C 0.80092 0.02553 0.13592 0.0
C95 C 0.82755 0.0225 0.17716 0.0
C96 C 0.85454 0.01745 0.14211 0.0
C97 C 0.85526 0.01482 0.0657 0.0
C98 C 0.82857 0.01715 0.02535 0.0
C99 C 0.80183 0.02239 0.05988 0.0
C100 C 0.69777 0.06361 0.09756 0.0
C101 C 0.69788 0.0566 0.02487 0.0
C102 C 0.67194 0.06009 0.98196 0.0
C103 C 0.64548 0.07119 0.01027 0.0
C104 C 0.64589 0.08018 0.08075 0.0
C105 C 0.67175 0.07634 0.12409 0.0
C106 C 0.73289 0.02892 0.35032 0.0
C107 C 0.73178 0.99932 0.38094 0.0
C108 C 0.45085 0.65656 0.10441 0.0
C109 C 0.46269 0.65853 0.03272 0.0
C110 C 0.47339 0.68492 0.99842 0.0
C111 C 0.47384 0.70862 0.03724 0.0
H112 H 0.48463 0.79645 0.02161 0.0
H113 H 0.49078 0.84593 0.96039 0.0
H114 H 0.49987 0.87372 0.17522 0.0
H115 H 0.49335 0.82374 0.23778 0.0
H116 H 0.44602 0.73363 0.39271 0.0
H117 H 0.45113 0.69565 0.5033 0.0
H118 H 0.54056 0.67352 0.44213 0.0
H119 H 0.53557 0.71211 0.33319 0.0
H120 H 0.44376 0.67746 0.20054 0.0
H121 H 0.44267 0.63627 0.13174 0.0
H122 H 0.48277 0.68665 0.9431 0.0
H123 H 0.48365 0.7282 0.01104 0.0
N124 N 0.47515 0.75594 0.12786 0.0
N125 N 0.48831 0.76643 0.24633 0.0
N126 N 0.47495 0.71956 0.23268 0.0
C127 C 0.48366 0.77545 0.17121 0.0
C128 C 0.48379 0.73833 0.27683 0.0
C129 C 0.47053 0.72806 0.15841 0.0
C130 C 0.48835 0.80591 0.13505 0.0
C131 C 0.48789 0.81293 0.05642 0.0
C132 C 0.49158 0.84137 0.02098 0.0
C133 C 0.49569 0.86378 0.06283 0.0
C134 C 0.49637 0.85695 0.14145 0.0
C135 C 0.49283 0.82828 0.17723 0.0
C136 C 0.49058 0.72611 0.35543 0.0
C137 C 0.46725 0.72173 0.40545 0.0
C138 C 0.47001 0.69956 0.46773 0.0
C139 C 0.49596 0.68099 0.48006 0.0
C140 C 0.52027 0.68737 0.43411 0.0
C141 C 0.51755 0.70969 0.37217 0.0
C142 C 0.46411 0.70595 0.1114 0.0
C143 C 0.45165 0.68007 0.14364 0.0
C144 C 0.15977 0.4816 0.09042 0.0
C145 C 0.16231 0.49998 0.02163 0.0
C146 C 0.18587 0.51833 0.01217 0.0
C147 C 0.20365 0.52142 0.07354 0.0
H148 H 0.25633 0.57945 0.35978 0.0
H149 H 0.29874 0.57705 0.44379 0.0
H150 H 0.32424 0.49001 0.40089 0.0
H151 H 0.28214 0.49291 0.31442 0.0
H152 H 0.17859 0.58638 0.39262 0.0
H153 H 0.13659 0.5971 0.47049 0.0
H154 H 0.09246 0.52605 0.40107 0.0
H155 H 0.13308 0.51695 0.32 0.0
H156 H 0.17273 0.47267 0.20588 0.0
H157 H 0.14198 0.46715 0.09958 0.0
H158 H 0.18884 0.5322 0.95912 0.0
H159 H 0.21921 0.53825 0.06711 0.0
N160 N 0.23262 0.52182 0.23561 0.0
N161 N 0.21268 0.54561 0.33194 0.0
N162 N 0.1813 0.52883 0.24851 0.0
C163 C 0.23656 0.53529 0.29651 0.0
C164 C 0.18502 0.54234 0.30826 0.0
C165 C 0.20469 0.51886 0.21146 0.0
C166 C 0.26595 0.53635 0.3307 0.0
C167 C 0.27154 0.56018 0.36643 0.0
C168 C 0.2957 0.55871 0.41496 0.0
C169 C 0.31467 0.53324 0.42973 0.0
C170 C 0.31027 0.51011 0.39002 0.0
C171 C 0.28619 0.51175 0.34042 0.0
C172 C 0.15916 0.55069 0.35094 0.0
C173 C 0.15965 0.57342 0.39351 0.0
C174 C 0.13571 0.57939 0.43839 0.0
C175 C 0.11138 0.56205 0.44327 0.0
C176 C 0.11061 0.54009 0.39821 0.0
C177 C 0.13406 0.5347 0.35204 0.0
C178 C 0.19817 0.50598 0.1446 0.0
C179 C 0.17752 0.48463 0.15137 0.0
C180 C 0.02319 0.20987 0.12495 0.0
C181 C 0.00285 0.20265 0.07319 0.0
C182 C 0.97505 0.21813 0.06497 0.0
C183 C 0.96661 0.23792 0.11305 0.0
H184 H 0.93098 0.31216 0.41583 0.0
H185 H 0.94237 0.35091 0.48454 0.0
H186 H 0.02721 0.35603 0.37911 0.0
H187 H 0.01583 0.3165 0.30996 0.0
H188 H 0.92358 0.24023 0.48613 0.0
H189 H 0.91624 0.19786 0.5807 0.0
H190 H 0.9316 0.14127 0.41496 0.0
H191 H 0.93749 0.18322 0.32035 0.0
H192 H 0.02975 0.23274 0.21741 0.0
H193 H 0.04479 0.19833 0.13252 0.0
H194 H 0.95912 0.21351 0.02453 0.0
H195 H 0.94406 0.24731 0.1103 0.0
N196 N 0.97895 0.27782 0.26152 0.0
N197 N 0.95025 0.26435 0.36794 0.0
N198 N 0.95636 0.23324 0.27925 0.0
C199 C 0.96682 0.28413 0.32676 0.0
C200 C 0.94503 0.23881 0.34484 0.0
C201 C 0.97303 0.2524 0.23719 0.0
C202 C 0.97255 0.31111 0.35748 0.0
C203 C 0.9519 0.32183 0.40601 0.0
C204 C 0.95831 0.3443 0.44506 0.0
C205 C 0.98559 0.35678 0.43691 0.0
C206 C 0.00595 0.34687 0.38635 0.0
C207 C 0.99938 0.32441 0.34642 0.0
C208 C 0.93206 0.21509 0.3961 0.0
C209 C 0.92428 0.21885 0.46924 0.0
C210 C 0.92009 0.19457 0.5235 0.0
C211 C 0.92378 0.16617 0.50565 0.0
C212 C 0.92822 0.16277 0.43071 0.0
C213 C 0.93202 0.18699 0.37637 0.0
C214 C 0.98592 0.24304 0.16952 0.0
C215 C 0.01474 0.22985 0.17295 0.0
C216 C 0.28841 0.05597 0.12808 0.0
C217 C 0.30803 0.03538 0.10099 0.0
C218 C 0.30583 1.00557 0.12776 0.0
C219 C 0.28711 0.99679 0.1868 0.0
H220 H 0.17624 0.03074 0.32904 0.0
H221 H 0.12853 0.03938 0.38809 0.0
H222 H 0.17036 0.01686 0.60601 0.0
H223 H 0.21736 0.00916 0.54859 0.0
H224 H 0.28641 0.00854 0.56006 0.0
H225 H 0.33194 1.00511 0.63238 0.0
H226 H 0.37597 0.95705 0.47378 0.0
H227 H 0.33061 0.96214 0.39862 0.0
H228 H 0.25685 0.06361 0.21212 0.0
H229 H 0.2893 0.07908 0.10749 0.0
H230 H 0.32059 0.9892 0.10802 0.0
H231 H 0.28818 0.97392 0.21162 0.0
N232 N 0.23474 0.0173 0.32531 0.0
N233 N 0.25269 1.00099 0.44796 0.0
N234 N 0.28387 0.99818 0.34719 0.0
C235 C 0.22995 0.01221 0.40073 0.0
C236 C 0.27958 0.99388 0.42173 0.0
C237 C 0.26183 0.00981 0.29866 0.0
C238 C 0.20079 0.01906 0.43368 0.0
C239 C 0.17522 0.02788 0.38948 0.0
C240 C 0.14787 0.03261 0.42331 0.0
C241 C 0.14562 0.02861 0.50187 0.0
C242 C 0.17128 0.02041 0.54547 0.0
C243 C 0.19835 0.01577 0.51209 0.0
C244 C 0.30511 0.98599 0.47316 0.0
C245 C 0.30563 0.99676 0.54128 0.0
C246 C 0.33178 0.99475 0.58283 0.0
C247 C 0.35781 0.98144 0.55784 0.0
C248 C 0.35658 0.9684 0.49304 0.0
C249 C 0.33055 0.971 0.4505 0.0
C250 C 0.26999 0.01758 0.21967 0.0
C251 C 0.26945 0.04711 0.18704 0.0
C252 C 0.55592 0.3911 0.48499 0.0
C253 C 0.54072 0.3895 0.55243 0.0
C254 C 0.52867 0.36327 0.58302 0.0
C255 C 0.52969 0.33972 0.54354 0.0
H256 H 0.50738 0.256 0.54697 0.0
H257 H 0.50051 0.20649 0.60651 0.0
H258 H 0.51164 0.17618 0.39432 0.0
H259 H 0.51916 0.22629 0.3338 0.0
H260 H 0.48096 0.31481 0.20277 0.0
H261 H 0.47186 0.35147 0.08988 0.0
H262 H 0.55959 0.37984 0.11164 0.0
H263 H 0.56886 0.34264 0.22039 0.0
H264 H 0.56706 0.37017 0.39091 0.0
H265 H 0.56542 0.41113 0.46066 0.0
H266 H 0.51706 0.36161 0.63552 0.0
H267 H 0.5186 0.32043 0.56617 0.0
N268 N 0.52935 0.29372 0.44943 0.0
N269 N 0.52028 0.285 0.32675 0.0
N270 N 0.53656 0.32997 0.34788 0.0
C271 C 0.52136 0.27535 0.40237 0.0
C272 C 0.52814 0.31252 0.29968 0.0
C273 C 0.53714 0.32096 0.42244 0.0
C274 C 0.51414 0.24525 0.43539 0.0
C275 C 0.5083 0.23895 0.5124 0.0
C276 C 0.50416 0.21049 0.54676 0.0
C277 C 0.50579 0.18731 0.50545 0.0
C278 C 0.51072 0.19353 0.42792 0.0
C279 C 0.51475 0.22226 0.39314 0.0
C280 C 0.52566 0.32583 0.22002 0.0
C281 C 0.49865 0.328 0.18091 0.0
C282 C 0.49324 0.34953 0.11744 0.0
C283 C 0.51466 0.36933 0.09278 0.0
C284 C 0.5425 0.36514 0.12847 0.0
C285 C 0.54792 0.34366 0.1909 0.0
C286 C 0.54247 0.34228 0.47253 0.0
C287 C 0.5567 0.3677 0.44514 0.0
Co288 Co 0.01025 0.03621 0.8155 0.0
C289 C 0.95883 0.01477 0.87801 0.0
Co290 Co 0.9894 1.0068 0.74886 0.0
C291 C 0.01216 0.08538 0.89483 0.0
C292 C 0.05506 0.06416 0.88728 0.0
N293 N 0.02654 0.0627 0.86855 0.0
N294 N 0.03048 0.10089 0.92956 0.0
C295 C 0.05756 0.08762 0.92451 0.0
H296 H 0.9887 0.09077 0.88691 0.0
H297 H 0.07291 0.04922 0.87431 0.0
C298 C 0.04079 0.0282 0.68601 0.0
N299 N 0.97303 0.98028 0.69606 0.0
C300 C 0.98705 0.95679 0.67265 0.0
C301 C 0.94459 0.97941 0.67579 0.0
N302 N 0.96858 0.94124 0.63846 0.0
C303 C 0.94179 0.95548 0.64058 0.0
C304 C 0.96905 0.06389 0.70735 0.0
O305 O 0.04086 0.04094 0.74337 0.0
O306 O 0.01996 0.01206 0.67739 0.0
O307 O 0.96632 0.03834 0.6927 0.0
O308 O 0.98722 0.0674 0.75818 0.0
O309 O 0.95903 1.00183 0.82107 0.0
H310 H 0.92697 0.99499 0.68667 0.0
H311 H 0.0103 0.95085 0.68261 0.0
O312 O 0.97943 0.03117 0.88659 0.0
O313 O 0.0332 1.00433 0.87254 0.0
O314 O 0.01247 0.9758 0.80545 0.0
C315 C 0.0304 0.97887 0.85704 0.0
H316 H 0.07771 0.09423 0.9468 0.0
H317 H 0.92157 0.94916 0.61793 0.0
Co318 Co 0.48509 0.0358 0.82036 0.0
C319 C 0.50271 0.97897 0.88212 0.0
Co320 Co 0.51835 0.01572 0.75125 0.0
C321 C 0.43176 0.04172 0.90542 0.0
C322 C 0.45385 0.08135 0.88562 0.0
N323 N 0.45601 0.05338 0.87367 0.0
N324 N 0.41463 0.06125 0.93704 0.0
C325 C 0.42845 0.08628 0.92424 0.0
H326 H 0.42678 0.01926 0.90535 0.0
H327 H 0.4695 0.0973 0.8663 0.0
C328 C 0.50082 0.07246 0.6892 0.0
N329 N 0.54742 0.9981 0.69813 0.0
C330 C 0.57267 0.00912 0.67098 0.0
C331 C 0.54853 0.97077 0.6815 0.0
N332 N 0.58961 0.98967 0.63857 0.0
C333 C 0.57432 0.96559 0.64462 0.0
C334 C 0.46168 1.00646 0.71383 0.0
O335 O 0.48451 0.07056 0.74661 0.0
O336 O 0.51761 0.05038 0.67946 0.0
O337 O 0.48838 1.00151 0.6963 0.0
O338 O 0.45564 0.0211 0.76605 0.0
O339 O 0.51881 0.98095 0.82435 0.0
H340 H 0.53178 0.95549 0.69596 0.0
H341 H 0.57828 0.03115 0.6742 0.0
O342 O 0.48605 1.00107 0.89242 0.0
O343 O 0.51503 0.05025 0.87508 0.0
O344 O 0.54776 0.03036 0.80576 0.0
C345 C 0.54169 0.04537 0.8572 0.0
H346 H 0.42047 0.10693 0.93985 0.0
H347 H 0.58143 0.94553 0.62455 0.0
Co348 Co 0.52355 0.5266 0.79739 0.0
C349 C 0.49903 0.47921 0.8858 0.0
Co350 Co 0.47607 0.5236 0.77774 0.0
C351 C 0.57409 0.52455 0.89321 0.0
C352 C 0.58536 0.53703 0.77847 0.0
N353 N 0.5626 0.52933 0.82309 0.0
N354 N 0.60312 0.52877 0.89431 0.0
C355 C 0.61031 0.53683 0.82222 0.0
H356 H 0.5612 0.51861 0.94274 0.0
H357 H 0.58387 0.54249 0.71817 0.0
C358 C 0.50075 0.57068 0.68808 0.0
N359 N 0.43702 0.52074 0.7521 0.0
C360 C 0.42559 0.52417 0.682 0.0
C361 C 0.41415 0.51434 0.79738 0.0
N362 N 0.39648 0.52008 0.68141 0.0
C363 C 0.38919 0.51402 0.75412 0.0
C364 C 0.48548 0.55852 0.88153 0.0
O365 O 0.52442 0.56094 0.72384 0.0
O366 O 0.47759 0.55709 0.70218 0.0
O367 O 0.46481 0.54872 0.84739 0.0
O368 O 0.51201 0.55052 0.86891 0.0
O369 O 0.47488 0.48993 0.8538 0.0
H370 H 0.41556 0.51014 0.85784 0.0
H371 H 0.43841 0.53011 0.63244 0.0
O372 O 0.52241 0.49223 0.86993 0.0
O373 O 0.53482 0.50252 0.72565 0.0
O374 O 0.48765 0.49862 0.70874 0.0
C375 C 0.51422 0.49147 0.69438 0.0
H376 H 0.63212 0.5418 0.80258 0.0
H377 H 0.3674 0.50948 0.77464 0.0
Co378 Co 0.99766 0.54127 0.80594 0.0
C379 C 0.0522 0.51252 0.85194 0.0
Co380 Co 0.00532 0.4976 0.77133 0.0
C381 C 0.99828 0.58356 0.90812 0.0
C382 C 0.97931 0.60218 0.80138 0.0
N383 N 0.99146 0.57698 0.84012 0.0
N384 N 0.99098 0.61192 0.91323 0.0
C385 C 0.97891 0.62359 0.84607 0.0
H386 H 0.00812 0.56767 0.95315 0.0
H387 H 0.97147 0.60488 0.74403 0.0
C388 C 0.95105 0.52642 0.72393 0.0
N389 N 0.01137 0.46192 0.73688 0.0
C390 C 0.00419 0.45568 0.66879 0.0
C391 C 0.02334 0.4365 0.77491 0.0
N392 N 0.011 0.42731 0.66293 0.0
C393 C 0.02322 0.41528 0.72966 0.0
C394 C 0.97814 0.49503 0.90686 0.0
O395 O 0.95981 0.54675 0.75636 0.0
O396 O 0.96778 0.50334 0.72426 0.0
O397 O 0.98784 0.47907 0.86008 0.0
O398 O 0.98029 0.52247 0.893 0.0
O399 O 0.04331 0.49228 0.81943 0.0
H400 H 0.03135 0.43353 0.83215 0.0
H401 H 0.99438 0.47181 0.62423 0.0
O402 O 0.03523 0.53531 0.8538 0.0
O403 O 0.01556 0.5597 0.71887 0.0
O404 O 0.02255 0.51661 0.68343 0.0
C405 C 0.0252 0.544 0.67169 0.0
H406 H 0.97094 0.64622 0.82977 0.0
H407 H 0.0309 0.39253 0.74533 0.0
C408 C 0.11505 0.0467 0.60239 0.0
C409 C 0.11688 0.03184 0.54032 0.0
C410 C 0.09 0.04626 0.64734 0.0
C411 C 0.0656 0.03091 0.63231 0.0
H412 H 0.13356 0.05815 0.6177 0.0
H413 H 0.09023 0.05735 0.69564 0.0
S414 S 0.05804 0.99079 0.47189 0.0
N415 N 0.09133 1.00291 0.46323 0.0
N416 N 0.04398 1.00241 0.54671 0.0
C417 C 0.06648 0.01722 0.568 0.0
C418 C 0.09211 0.01767 0.52221 0.0
C419 C 0.48068 0.15095 0.59726 0.0
C420 C 0.50324 0.15686 0.54507 0.0
C421 C 0.47967 0.12346 0.64198 0.0
C422 C 0.50115 0.10058 0.6365 0.0
H423 H 0.4639 0.16795 0.60459 0.0
H424 H 0.46211 0.12032 0.68211 0.0
S425 S 0.56492 0.10466 0.5083 0.0
N426 N 0.54755 0.13747 0.49026 0.0
N427 N 0.54555 0.08572 0.57337 0.0
C428 C 0.52343 0.10595 0.58304 0.0
C429 C 0.52447 0.13404 0.53757 0.0
C430 C 0.32778 0.53742 0.56176 0.0
C431 C 0.33662 0.52989 0.49239 0.0
C432 C 0.34741 0.53408 0.62281 0.0
C433 C 0.37679 0.52313 0.61732 0.0
H434 H 0.3053 0.54565 0.56937 0.0
H435 H 0.33953 0.54045 0.67463 0.0
S436 S 0.41105 0.49985 0.44835 0.0
N437 N 0.37683 0.51105 0.4216 0.0
N438 N 0.41365 0.50417 0.53689 0.0
C439 C 0.38599 0.51542 0.54832 0.0
C440 C 0.36591 0.51884 0.48591 0.0
C441 C 0.01965 0.37251 0.53007 0.0
C442 C 0.99348 0.37786 0.48684 0.0
C443 C 0.02554 0.38927 0.5859 0.0
C444 C 0.00564 0.41225 0.6005 0.0
H445 H 0.03515 0.35439 0.523 0.0
H446 H 0.04565 0.38386 0.61886 0.0
S447 S 0.93486 0.43658 0.49914 0.0
N448 N 0.94835 0.40903 0.45909 0.0
N449 N 0.95913 0.44016 0.56459 0.0
C450 C 0.97993 0.41861 0.55556 0.0
C451 C 0.97391 0.40149 0.49879 0.0
C452 C 0.90524 0.03155 0.02929 0.0
C453 C 0.88356 0.01162 0.02576 0.0
C454 C 0.93002 0.03177 0.98314 0.0
C455 C 0.93405 0.01208 0.93159 0.0
H456 H 0.90238 0.04797 0.0655 0.0
H457 H 0.94555 0.04824 0.98609 0.0
S458 S 0.88558 0.95286 0.90852 0.0
N459 N 0.86921 0.96975 0.97251 0.0
N460 N 0.91551 0.9702 0.88549 0.0
C461 C 0.91326 0.99104 0.93052 0.0
C462 C 0.88812 0.9908 0.97761 0.0
C463 C 0.51873 0.89861 0.96325 0.0
C464 C 0.49906 0.89404 0.02313 0.0
C465 C 0.52036 0.92626 0.91977 0.0
C466 C 0.50228 0.95061 0.93394 0.0
H467 H 0.53273 0.8805 0.94908 0.0
H468 H 0.53553 0.92832 0.87355 0.0
S469 S 0.44739 0.95039 0.08566 0.0
N470 N 0.46148 0.91625 0.09543 0.0
N471 N 0.46453 0.96827 0.01428 0.0
C472 C 0.48304 0.9465 0.99513 0.0
C473 C 0.48147 0.91826 0.03956 0.0
C474 C 0.66431 0.54096 0.02383 0.0
C475 C 0.66376 0.5167 0.08108 0.0
C476 C 0.6442 0.54496 0.96344 0.0
C477 C 0.62255 0.52509 0.95871 0.0
H478 H 0.68115 0.55634 0.0242 0.0
H479 H 0.64571 0.5636 0.91974 0.0
S480 S 0.61098 0.45874 0.09596 0.0
N481 N 0.63917 0.47312 0.1307 0.0
N482 N 0.60135 0.48066 0.01737 0.0
C483 C 0.62117 0.50126 0.01681 0.0
C484 C 0.64181 0.49704 0.07788 0.0
C485 C 0.98062 0.66761 0.0432 0.0
C486 C 0.00662 0.66291 0.0871 0.0
C487 C 0.97532 0.65029 0.98826 0.0
C488 C 0.99563 0.62736 0.97534 0.0
H489 H 0.96484 0.68565 0.04904 0.0
H490 H 0.95533 0.65523 0.9546 0.0
S491 S 0.06595 0.60447 0.08004 0.0
N492 N 0.05195 0.63242 0.11775 0.0
N493 N 0.04215 0.60002 0.01433 0.0
C494 C 0.02109 0.62157 0.02131 0.0
C495 C 0.02656 0.63934 0.07702 0.0
C496 C 0.94964 0.14268 0.62336 0.0
C497 C 0.9295 0.1406 0.56558 0.0
C498 C 0.96109 0.11783 0.67114 0.0
C499 C 0.95309 0.08979 0.66282 0.0
H500 H 0.95819 0.16343 0.62893 0.0
H501 H 0.97751 0.12064 0.71248 0.0
S502 S 0.89708 0.07302 0.52901 0.0
N503 N 0.89885 0.1088 0.50935 0.0
N504 N 0.92084 0.06176 0.59855 0.0
C505 C 0.93134 0.08754 0.60888 0.0
C506 C 0.91946 0.11301 0.5604 0.0
C507 C 0.38754 0.97994 0.67516 0.0
C508 C 0.38629 0.98354 0.5965 0.0
C509 C 0.41253 0.98646 0.71283 0.0
C510 C 0.43745 0.99615 0.67337 0.0
H511 H 0.36868 0.97293 0.70786 0.0
H512 H 0.41214 0.98447 0.77329 0.0
S513 S 0.44619 0.00843 0.4678 0.0
N514 N 0.41261 0.99732 0.48059 0.0
N515 N 0.46012 0.00811 0.55231 0.0
C516 C 0.43726 0.99842 0.59524 0.0
C517 C 0.41155 0.99242 0.55654 0.0
C518 C 0.55669 0.43187 0.60887 0.0
C519 C 0.53401 0.41622 0.58541 0.0
C520 C 0.55019 0.45702 0.64137 0.0
C521 C 0.52079 0.46753 0.65038 0.0
H522 H 0.57953 0.42421 0.60369 0.0
H523 H 0.56833 0.46783 0.6612 0.0
S524 S 0.45369 0.43572 0.58909 0.0
N525 N 0.48138 0.41389 0.5674 0.0
N526 N 0.4689 0.46119 0.62725 0.0
C527 C 0.498 0.45265 0.62354 0.0
C528 C 0.50468 0.42696 0.59145 0.0
C529 C 0.05853 0.56044 0.48158 0.0
C530 C 0.08803 0.56444 0.49969 0.0
C531 C 0.03734 0.55565 0.53729 0.0
C532 C 0.04472 0.55585 0.61235 0.0
H533 H 0.05213 0.55937 0.42443 0.0
H534 H 0.01545 0.55053 0.52206 0.0
S535 S 0.11763 0.56724 0.68996 0.0
N536 N 0.12287 0.56918 0.59915 0.0
N537 N 0.08235 0.56204 0.70253 0.0
C538 C 0.07329 0.562 0.63088 0.0
C539 C 0.09514 0.56601 0.57475 0.0
C540 C 0.07306 0.93046 0.01595 0.0
C541 C 0.06652 0.90216 0.00542 0.0
C542 C 0.06277 0.95521 0.96543 0.0
C543 C 0.04564 0.95259 0.90226 0.0
H544 H 0.08497 0.9336 0.06568 0.0
H545 H 0.06709 0.97657 0.97803 0.0
S546 S 0.02564 0.88318 0.84361 0.0
N547 N 0.04387 0.87293 0.92341 0.0
N548 N 0.02565 0.91911 0.82726 0.0
C549 C 0.04107 0.92427 0.88779 0.0
C550 C 0.05126 0.89914 0.93957 0.0
C551 C 0.59334 0.0572 0.01111 0.0
C552 C 0.61709 0.06963 0.97088 0.0
C553 C 0.56799 0.05093 0.97415 0.0
C554 C 0.56584 0.05646 0.89587 0.0
H555 H 0.59493 0.05083 0.07126 0.0
H556 H 0.55077 0.04017 0.00668 0.0
S557 S 0.61901 0.09353 0.76558 0.0
N558 N 0.63465 0.0911 0.84908 0.0
N559 N 0.58743 0.07813 0.77959 0.0
C560 C 0.58847 0.0704 0.85523 0.0
C561 C 0.61402 0.07729 0.89278 0.0
C562 C 0.44492 0.61942 0.9666 0.0
C563 C 0.46806 0.63195 0.99861 0.0
C564 C 0.45047 0.59475 0.93148 0.0
C565 C 0.4793 0.58175 0.92804 0.0
H566 H 0.4226 0.62919 0.9671 0.0
H567 H 0.43217 0.58639 0.90503 0.0
S568 S 0.54678 0.60508 0.01196 0.0
N569 N 0.52016 0.62884 0.03012 0.0
N570 N 0.53083 0.58232 0.9658 0.0
C571 C 0.50234 0.5935 0.96345 0.0
C572 C 0.49665 0.61868 0.99825 0.0
C573 C 0.92406 0.45094 0.02661 0.0
C574 C 0.92015 0.46655 0.08686 0.0
C575 C 0.94473 0.45878 0.97096 0.0
C576 C 0.96177 0.48276 0.97333 0.0
H577 H 0.91009 0.43346 0.02067 0.0
H578 H 0.94591 0.44723 0.92341 0.0
S579 S 0.96214 0.52879 0.12305 0.0
N580 N 0.93674 0.50562 0.14839 0.0
N581 N 0.97562 0.52009 0.04439 0.0
C582 C 0.95948 0.49723 0.03582 0.0
C583 C 0.93865 0.48918 0.09252 0.0
C584 C 0.03588 0.17353 0.99598 0.0
C585 C 0.0093 0.17692 0.03427 0.0
C586 C 0.04255 0.1488 0.96152 0.0
C587 C 0.02298 0.1264 0.96429 0.0
H588 H 0.05157 0.19019 0.99234 0.0
H589 H 0.06312 0.14729 0.93202 0.0
S590 S 0.95192 0.12327 0.06439 0.0
N591 N 0.9642 0.15478 0.07704 0.0
N592 N 0.97682 0.10845 0.013 0.0
C593 C 0.99656 0.12934 0.00342 0.0
C594 C 0.98973 0.1545 0.03825 0.0
C595 C 0.34118 0.03166 0.99128 0.0
C596 C 0.33368 0.04469 0.05442 0.0
C597 C 0.36742 0.03744 0.95262 0.0
C598 C 0.38724 0.05637 0.9758 0.0
H599 H 0.32685 0.01655 0.97231 0.0
H600 H 0.3723 0.02694 0.90436 0.0
S601 S 0.37895 0.09425 0.14112 0.0
N602 N 0.34884 0.07641 0.1401 0.0
N603 N 0.39804 0.08708 0.06801 0.0
C604 C 0.37994 0.06956 0.03876 0.0
C605 C 0.35322 0.06377 0.07787 0.0
C606 C 0.52996 0.40491 0.98277 0.0
C607 C 0.5081 0.39571 0.03446 0.0
C608 C 0.52663 0.43183 0.93516 0.0
C609 C 0.501 0.45056 0.93572 0.0
H610 H 0.55024 0.39144 0.9801 0.0
H611 H 0.54438 0.43804 0.89748 0.0
S612 S 0.43659 0.43697 0.0578 0.0
N613 N 0.45959 0.40789 0.08252 0.0
N614 N 0.45286 0.45784 0.9899 0.0
C615 C 0.47836 0.4413 0.98446 0.0
C616 C 0.48198 0.41404 0.0344 0.0
C617 C 0.12403 0.47923 0.94827 0.0
C618 C 0.13719 0.50374 0.96703 0.0
C619 C 0.09705 0.48225 0.90864 0.0
C620 C 0.08198 0.50985 0.88741 0.0
H621 H 0.13422 0.45747 0.96645 0.0
H622 H 0.08741 0.4627 0.89721 0.0
S623 S 0.10806 0.58115 0.9178 0.0
N624 N 0.13373 0.5567 0.95754 0.0
N625 N 0.08336 0.56236 0.88313 0.0
C626 C 0.09553 0.53462 0.90299 0.0
C627 C 0.12305 0.53157 0.94263 0.0
C628 C 0.96035 0.86831 0.57577 0.0
C629 C 0.9876 0.86267 0.54246 0.0
C630 C 0.95449 0.89374 0.60789 0.0
C631 C 0.97554 0.9147 0.60748 0.0
H632 H 0.94339 0.85299 0.57681 0.0
H633 H 0.93327 0.89698 0.63333 0.0
S634 S 0.04959 0.91117 0.52216 0.0
N635 N 0.0354 0.8807 0.50828 0.0
N636 N 0.02434 0.9284 0.56759 0.0
C637 C 0.00285 0.90929 0.57405 0.0
C638 C 0.00886 0.88336 0.54178 0.0
C639 C 0.64991 0.98641 0.49776 0.0
C640 C 0.67087 1.00402 0.52159 0.0
C641 C 0.62374 0.98146 0.53698 0.0
C642 C 0.61743 0.99394 0.60159 0.0
H643 H 0.65317 0.97734 0.44658 0.0
H644 H 0.60785 0.96856 0.51505 0.0
S645 S 0.66698 0.03842 0.69289 0.0
N646 N 0.68482 0.03185 0.61735 0.0
N647 N 0.63577 0.02226 0.69183 0.0
C648 C 0.63877 0.01059 0.62784 0.0
C649 C 0.66543 0.01568 0.58769 0.0
C650 C 0.52072 0.64454 0.58362 0.0
C651 C 0.49659 0.65316 0.53419 0.0
C652 C 0.52215 0.6177 0.6324 0.0
C653 C 0.49953 0.59835 0.63353 0.0
H654 H 0.53856 0.65875 0.58493 0.0
H655 H 0.54098 0.61226 0.67009 0.0
S656 S 0.43289 0.60939 0.51005 0.0
N657 N 0.45058 0.63921 0.48583 0.0
N658 N 0.45299 0.58922 0.57769 0.0
C659 C 0.47553 0.60653 0.58338 0.0
C660 C 0.47413 0.63378 0.53377 0.0
C661 C 0.88426 0.50503 0.625 0.0
C662 C 0.86864 0.53192 0.5988 0.0
C663 C 0.91034 0.50361 0.667 0.0
C664 C 0.92191 0.52899 0.68521 0.0
H665 H 0.87707 0.48496 0.60984 0.0
H666 H 0.92188 0.48236 0.68383 0.0
S667 S 0.88809 0.60467 0.63525 0.0
N668 N 0.86557 0.58442 0.59757 0.0
N669 N 0.91465 0.58178 0.67743 0.0
C670 C 0.90583 0.55596 0.66232 0.0
C671 C 0.87926 0.55742 0.61874 0.0
loop_
_geom_bond_atom_site_label_1
_geom_bond_atom_site_label_2
_geom_bond_distance
_geom_bond_site_symmetry_2
_ccdc_geom_bond_type
C0 C1 1.384 . S
C0 H13 0.947 . S
C0 C35 1.382 . S
C1 C0 1.384 . S
C1 C2 1.378 . S
C2 C1 1.378 . S
C2 C3 1.378 . S
C2 H14 0.952 . S
C3 C2 1.378 . S
C3 H15 0.950 . S
C3 C34 1.383 . S
H4 C23 0.947 . S
H5 C24 0.946 . S
H6 C26 0.953 1_556 S
H7 C27 0.945 1_556 S
H8 C29 0.952 . S
H9 C30 0.949 . S
H10 C32 0.950 1_554 S
H11 C33 0.948 . S
H12 C35 0.951 . S
H13 C0 0.947 . S
H14 C2 0.952 . S
H15 C3 0.950 . S
N16 C19 1.382 . S
N16 C21 1.363 . S
N17 C19 1.371 . S
N17 C20 1.372 . S
N18 C20 1.361 . S
N18 C21 1.377 . S
C19 N16 1.382 . S
C19 N17 1.371 . S
C19 C22 1.480 . S
C20 N17 1.372 . S
C20 N18 1.361 . S
C20 C28 1.457 . S
C21 N16 1.363 . S
C21 N18 1.377 . S
C21 C34 1.479 . S
C22 C19 1.480 . S
C22 C23 1.383 . S
C22 C27 1.385 . S
C23 H4 0.947 . S
C23 C22 1.383 . S
C23 C24 1.388 . S
C24 H5 0.946 . S
C24 C23 1.388 . S
C24 C25 1.384 . S
C25 C24 1.384 . S
C25 C26 1.377 . S
C26 H6 0.953 1_554 S
C26 C25 1.377 . S
C26 C27 1.369 . S
C27 H7 0.945 1_554 S
C27 C22 1.385 . S
C27 C26 1.369 . S
C28 C20 1.457 . S
C28 C29 1.372 1_554 S
C28 C33 1.364 . S
C29 H8 0.952 . S
C29 C28 1.372 1_556 S
C29 C30 1.389 . S
C30 H9 0.949 . S
C30 C29 1.389 . S
C30 C31 1.387 . S
C31 C30 1.387 . S
C31 C32 1.372 . S
C32 H10 0.950 1_556 S
C32 C31 1.372 . S
C32 C33 1.379 1_556 S
C33 H11 0.948 . S
C33 C28 1.364 . S
C33 C32 1.379 1_554 S
C34 C3 1.383 . S
C34 C21 1.479 . S
C34 C35 1.398 . S
C35 C0 1.382 . S
C35 H12 0.951 . S
C35 C34 1.398 . S
C36 C37 1.384 1_655 S
C36 H49 0.947 . S
C36 C71 1.382 1_655 S
C37 C36 1.384 1_455 S
C37 C38 1.378 . S
C38 C37 1.378 . S
C38 C39 1.378 . S
C38 H50 0.952 . S
C39 C38 1.378 . S
C39 H51 0.950 . S
C39 C70 1.383 . S
H40 C59 0.947 . S
H41 C60 0.953 . S
H42 C62 0.953 1_556 S
H43 C63 0.945 1_556 S
H44 C65 0.947 1_655 S
H45 C66 0.949 . S
H46 C68 0.950 . S
H47 C69 0.948 . S
H48 C71 0.951 1_655 S
H49 C36 0.947 . S
H50 C38 0.952 . S
H51 C39 0.950 . S
N52 C55 1.382 . S
N52 C57 1.363 . S
N53 C55 1.371 . S
N53 C56 1.372 . S
N54 C56 1.361 . S
N54 C57 1.377 . S
C55 N52 1.382 . S
C55 N53 1.371 . S
C55 C58 1.480 . S
C56 N53 1.372 . S
C56 N54 1.361 . S
C56 C64 1.462 . S
C57 N52 1.363 . S
C57 N54 1.377 . S
C57 C70 1.479 . S
C58 C55 1.480 . S
C58 C59 1.383 . S
C58 C63 1.385 . S
C59 H40 0.947 . S
C59 C58 1.383 . S
C59 C60 1.384 1_455 S
C60 H41 0.953 . S
C60 C59 1.384 1_655 S
C60 C61 1.382 1_655 S
C61 C60 1.382 1_455 S
C61 C62 1.377 . S
C62 H42 0.953 1_554 S
C62 C61 1.377 . S
C62 C63 1.369 . S
C63 H43 0.945 1_554 S
C63 C58 1.385 . S
C63 C62 1.369 . S
C64 C56 1.462 . S
C64 C65 1.369 1_554 S
C64 C69 1.367 . S
C65 H44 0.947 1_455 S
C65 C64 1.369 1_556 S
C65 C66 1.389 1_455 S
C66 H45 0.949 . S
C66 C65 1.389 1_655 S
C66 C67 1.387 1_655 S
C67 C66 1.387 1_455 S
C67 C68 1.372 . S
C68 H46 0.950 . S
C68 C67 1.372 . S
C68 C69 1.379 1_556 S
C69 H47 0.948 . S
C69 C64 1.367 . S
C69 C68 1.379 1_554 S
C70 C39 1.383 . S
C70 C57 1.479 . S
C70 C71 1.398 . S
C71 C36 1.382 1_455 S
C71 H48 0.951 1_455 S
C71 C70 1.398 . S
C72 C73 1.384 . S
C72 H85 0.947 . S
C72 C107 1.382 . S
C73 C72 1.384 . S
C73 C74 1.378 . S
C74 C73 1.378 . S
C74 C75 1.378 . S
C74 H86 0.952 . S
C75 C74 1.378 . S
C75 H87 0.950 . S
C75 C106 1.383 . S
H76 C95 0.947 . S
H77 C96 0.946 . S
H78 C98 0.953 . S
H79 C99 0.945 . S
H80 C101 0.952 . S
H81 C102 0.949 . S
H82 C104 0.950 . S
H83 C105 0.948 . S
H84 C107 0.951 . S
H85 C72 0.947 . S
H86 C74 0.952 . S
H87 C75 0.950 . S
N88 C91 1.382 . S
N88 C93 1.363 . S
N89 C91 1.371 . S
N89 C92 1.372 . S
N90 C92 1.361 . S
N90 C93 1.377 . S
C91 N88 1.382 . S
C91 N89 1.371 . S
C91 C94 1.480 . S
C92 N89 1.372 . S
C92 N90 1.361 . S
C92 C100 1.457 1_554 S
C93 N88 1.363 . S
C93 N90 1.377 . S
C93 C106 1.479 . S
C94 C91 1.480 . S
C94 C95 1.383 . S
C94 C99 1.385 1_554 S
C95 H76 0.947 . S
C95 C94 1.383 . S
C95 C96 1.388 . S
C96 H77 0.946 . S
C96 C95 1.388 . S
C96 C97 1.384 . S
C97 C96 1.384 . S
C97 C98 1.377 1_554 S
C98 H78 0.953 . S
C98 C97 1.377 1_556 S
C98 C99 1.369 . S
C99 H79 0.945 . S
C99 C94 1.385 1_556 S
C99 C98 1.369 . S
C100 C92 1.457 1_556 S
C100 C101 1.372 . S
C100 C105 1.364 1_556 S
C101 H80 0.952 . S
C101 C100 1.372 . S
C101 C102 1.389 . S
C102 H81 0.949 . S
C102 C101 1.389 . S
C102 C103 1.387 . S
C103 C102 1.387 . S
C103 C104 1.372 . S
C104 H82 0.950 . S
C104 C103 1.372 . S
C104 C105 1.379 1_556 S
C105 H83 0.948 . S
C105 C100 1.364 1_554 S
C105 C104 1.379 1_554 S
C106 C75 1.383 . S
C106 C93 1.479 . S
C106 C107 1.398 . S
C107 C72 1.382 . S
C107 H84 0.951 . S
C107 C106 1.398 . S
C108 C109 1.384 . S
C108 H121 0.947 1_556 S
C108 C143 1.382 1_556 S
C109 C108 1.384 . S
C109 C110 1.378 . S
C110 C109 1.378 . S
C110 C111 1.378 . S
C110 H122 0.952 . S
C111 C110 1.378 . S
C111 H123 0.950 . S
C111 C142 1.383 1_556 S
H112 C131 0.947 1_556 S
H113 C132 0.946 . S
H114 C134 0.953 . S
H115 C135 0.945 . S
H116 C137 0.952 . S
H117 C138 0.949 . S
H118 C140 0.950 . S
H119 C141 0.948 . S
H120 C143 0.951 . S
H121 C108 0.947 1_554 S
H122 C110 0.952 . S
H123 C111 0.950 . S
N124 C127 1.382 . S
N124 C129 1.363 . S
N125 C127 1.371 . S
N125 C128 1.372 . S
N126 C128 1.361 . S
N126 C129 1.377 . S
C127 N124 1.382 . S
C127 N125 1.371 . S
C127 C130 1.480 . S
C128 N125 1.372 . S
C128 N126 1.361 . S
C128 C136 1.457 . S
C129 N124 1.363 . S
C129 N126 1.377 . S
C129 C142 1.479 . S
C130 C127 1.480 . S
C130 C131 1.383 . S
C130 C135 1.385 . S
C131 H112 0.947 1_554 S
C131 C130 1.383 . S
C131 C132 1.388 1_554 S
C132 H113 0.946 . S
C132 C131 1.388 1_556 S
C132 C133 1.384 1_556 S
C133 C132 1.384 1_554 S
C133 C134 1.377 . S
C134 H114 0.953 . S
C134 C133 1.377 . S
C134 C135 1.369 . S
C135 H115 0.945 . S
C135 C130 1.385 . S
C135 C134 1.369 . S
C136 C128 1.457 . S
C136 C137 1.372 . S
C136 C141 1.364 . S
C137 H116 0.952 . S
C137 C136 1.372 . S
C137 C138 1.389 . S
C138 H117 0.949 . S
C138 C137 1.389 . S
C138 C139 1.387 . S
C139 C138 1.387 . S
C139 C140 1.372 . S
C140 H118 0.950 . S
C140 C139 1.372 . S
C140 C141 1.379 . S
C141 H119 0.948 . S
C141 C136 1.364 . S
C141 C140 1.379 . S
C142 C111 1.383 1_554 S
C142 C129 1.479 . S
C142 C143 1.398 . S
C143 C108 1.382 1_554 S
C143 H120 0.951 . S
C143 C142 1.398 . S
C144 C145 1.384 . S
C144 H157 0.947 . S
C144 C179 1.382 . S
C145 C144 1.384 . S
C145 C146 1.378 . S
C146 C145 1.378 . S
C146 C147 1.378 . S
C146 H158 0.952 . S
C147 C146 1.378 . S
C147 H159 0.950 . S
C147 C178 1.383 . S
H148 C167 0.947 . S
H149 C168 0.946 . S
H150 C170 0.953 . S
H151 C171 0.945 . S
H152 C173 0.952 . S
H153 C174 0.949 . S
H154 C176 0.950 . S
H155 C177 0.948 . S
H156 C179 0.951 . S
H157 C144 0.947 . S
H158 C146 0.952 . S
H159 C147 0.950 . S
N160 C163 1.382 . S
N160 C165 1.363 . S
N161 C163 1.371 . S
N161 C164 1.372 . S
N162 C164 1.361 . S
N162 C165 1.377 . S
C163 N160 1.382 . S
C163 N161 1.371 . S
C163 C166 1.480 . S
C164 N161 1.372 . S
C164 N162 1.361 . S
C164 C172 1.457 . S
C165 N160 1.363 . S
C165 N162 1.377 . S
C165 C178 1.479 . S
C166 C163 1.480 . S
C166 C167 1.383 . S
C166 C171 1.385 . S
C167 H148 0.947 . S
C167 C166 1.383 . S
C167 C168 1.388 . S
C168 H149 0.946 . S
C168 C167 1.388 . S
C168 C169 1.384 . S
C169 C168 1.384 . S
C169 C170 1.377 . S
C170 H150 0.953 . S
C170 C169 1.377 . S
C170 C171 1.369 . S
C171 H151 0.945 . S
C171 C166 1.385 . S
C171 C170 1.369 . S
C172 C164 1.457 . S
C172 C173 1.372 . S
C172 C177 1.364 . S
C173 H152 0.952 . S
C173 C172 1.372 . S
C173 C174 1.389 . S
C174 H153 0.949 . S
C174 C173 1.389 . S
C174 C175 1.387 . S
C175 C174 1.387 . S
C175 C176 1.372 . S
C176 H154 0.950 . S
C176 C175 1.372 . S
C176 C177 1.379 . S
C177 H155 0.948 . S
C177 C172 1.364 . S
C177 C176 1.379 . S
C178 C147 1.383 . S
C178 C165 1.479 . S
C178 C179 1.398 . S
C179 C144 1.382 . S
C179 H156 0.951 . S
C179 C178 1.398 . S
C180 C181 1.384 1_655 S
C180 H193 0.947 . S
C180 C215 1.382 1_655 S
C181 C180 1.384 1_455 S
C181 C182 1.378 . S
C182 C181 1.378 . S
C182 C183 1.378 . S
C182 H194 0.952 . S
C183 C182 1.378 . S
C183 H195 0.950 . S
C183 C214 1.383 . S
H184 C203 0.947 . S
H185 C204 0.949 . S
H186 C206 0.953 . S
H187 C207 0.945 . S
H188 C209 0.950 1_655 S
H189 C210 0.954 . S
H190 C212 0.950 . S
H191 C213 0.948 . S
H192 C215 0.950 1_655 S
H193 C180 0.947 . S
H194 C182 0.952 . S
H195 C183 0.950 . S
N196 C199 1.382 . S
N196 C201 1.363 . S
N197 C199 1.371 . S
N197 C200 1.372 . S
N198 C200 1.361 . S
N198 C201 1.377 . S
C199 N196 1.382 . S
C199 N197 1.371 . S
C199 C202 1.480 . S
C200 N197 1.372 . S
C200 N198 1.361 . S
C200 C208 1.457 . S
C201 N196 1.363 . S
C201 N198 1.377 . S
C201 C214 1.479 . S
C202 C199 1.480 . S
C202 C203 1.383 . S
C202 C207 1.385 . S
C203 H184 0.947 . S
C203 C202 1.383 . S
C203 C204 1.388 1_455 S
C204 H185 0.949 . S
C204 C203 1.388 1_655 S
C204 C205 1.382 1_655 S
C205 C204 1.382 1_455 S
C205 C206 1.377 . S
C206 H186 0.953 . S
C206 C205 1.377 . S
C206 C207 1.369 . S
C207 H187 0.945 . S
C207 C202 1.385 . S
C207 C206 1.369 . S
C208 C200 1.457 . S
C208 C209 1.378 . S
C208 C213 1.364 . S
C209 H188 0.950 1_455 S
C209 C208 1.378 . S
C209 C210 1.383 1_455 S
C210 H189 0.954 . S
C210 C209 1.383 1_655 S
C210 C211 1.386 1_655 S
C211 C210 1.386 1_455 S
C211 C212 1.372 . S
C212 H190 0.950 . S
C212 C211 1.372 . S
C212 C213 1.379 . S
C213 H191 0.948 . S
C213 C208 1.364 . S
C213 C212 1.379 . S
C214 C183 1.383 . S
C214 C201 1.479 . S
C214 C215 1.400 . S
C215 C180 1.382 1_455 S
C215 H192 0.950 1_455 S
C215 C214 1.400 . S
C216 C217 1.384 . S
C216 H229 0.947 . S
C216 C251 1.382 . S
C217 C216 1.384 . S
C217 C218 1.378 . S
C218 C217 1.378 . S
C218 C219 1.378 . S
C218 H230 0.952 . S
C219 C218 1.378 . S
C219 H231 0.950 . S
C219 C250 1.383 . S
H220 C239 0.947 . S
H221 C240 0.946 . S
H222 C242 0.953 . S
H223 C243 0.945 . S
H224 C245 0.952 . S
H225 C246 0.949 . S
H226 C248 0.950 . S
H227 C249 0.948 . S
H228 C251 0.951 . S
H229 C216 0.947 . S
H230 C218 0.952 . S
H231 C219 0.950 . S
N232 C235 1.382 . S
N232 C237 1.363 . S
N233 C235 1.371 . S
N233 C236 1.372 . S
N234 C236 1.361 . S
N234 C237 1.377 . S
C235 N232 1.382 . S
C235 N233 1.371 . S
C235 C238 1.480 . S
C236 N233 1.372 . S
C236 N234 1.361 . S
C236 C244 1.457 . S
C237 N232 1.363 . S
C237 N234 1.377 . S
C237 C250 1.479 . S
C238 C235 1.480 . S
C238 C239 1.383 . S
C238 C243 1.385 . S
C239 H220 0.947 . S
C239 C238 1.383 . S
C239 C240 1.388 . S
C240 H221 0.946 . S
C240 C239 1.388 . S
C240 C241 1.384 . S
C241 C240 1.384 . S
C241 C242 1.377 . S
C242 H222 0.953 . S
C242 C241 1.377 . S
C242 C243 1.369 . S
C243 H223 0.945 . S
C243 C238 1.385 . S
C243 C242 1.369 . S
C244 C236 1.457 . S
C244 C245 1.372 . S
C244 C249 1.364 . S
C245 H224 0.952 . S
C245 C244 1.372 . S
C245 C246 1.389 . S
C246 H225 0.949 . S
C246 C245 1.389 . S
C246 C247 1.387 . S
C247 C246 1.387 . S
C247 C248 1.372 . S
C248 H226 0.950 . S
C248 C247 1.372 . S
C248 C249 1.379 . S
C249 H227 0.948 . S
C249 C244 1.364 . S
C249 C248 1.379 . S
C250 C219 1.383 . S
C250 C237 1.479 . S
C250 C251 1.398 . S
C251 C216 1.382 . S
C251 H228 0.951 . S
C251 C250 1.398 . S
C252 C253 1.384 . S
C252 H265 0.947 . S
C252 C287 1.382 . S
C253 C252 1.384 . S
C253 C254 1.378 . S
C254 C253 1.378 . S
C254 C255 1.378 . S
C254 H266 0.952 . S
C255 C254 1.378 . S
C255 H267 0.950 . S
C255 C286 1.383 . S
H256 C275 0.947 . S
H257 C276 0.946 . S
H258 C278 0.953 . S
H259 C279 0.945 . S
H260 C281 0.952 . S
H261 C282 0.949 . S
H262 C284 0.950 . S
H263 C285 0.948 . S
H264 C287 0.951 . S
H265 C252 0.947 . S
H266 C254 0.952 . S
H267 C255 0.950 . S
N268 C271 1.382 . S
N268 C273 1.363 . S
N269 C271 1.371 . S
N269 C272 1.372 . S
N270 C272 1.361 . S
N270 C273 1.377 . S
C271 N268 1.382 . S
C271 N269 1.371 . S
C271 C274 1.480 . S
C272 N269 1.372 . S
C272 N270 1.361 . S
C272 C280 1.457 . S
C273 N268 1.363 . S
C273 N270 1.377 . S
C273 C286 1.479 . S
C274 C271 1.480 . S
C274 C275 1.383 . S
C274 C279 1.385 . S
C275 H256 0.947 . S
C275 C274 1.383 . S
C275 C276 1.388 . S
C276 H257 0.946 . S
C276 C275 1.388 . S
C276 C277 1.384 . S
C277 C276 1.384 . S
C277 C278 1.377 . S
C278 H258 0.953 . S
C278 C277 1.377 . S
C278 C279 1.369 . S
C279 H259 0.945 . S
C279 C274 1.385 . S
C279 C278 1.369 . S
C280 C272 1.457 . S
C280 C281 1.372 . S
C280 C285 1.364 . S
C281 H260 0.952 . S
C281 C280 1.372 . S
C281 C282 1.389 . S
C282 H261 0.949 . S
C282 C281 1.389 . S
C282 C283 1.387 . S
C283 C282 1.387 . S
C283 C284 1.372 . S
C284 H262 0.950 . S
C284 C283 1.372 . S
C284 C285 1.379 . S
C285 H263 0.948 . S
C285 C280 1.364 . S
C285 C284 1.379 . S
C286 C255 1.383 . S
C286 C273 1.479 . S
C286 C287 1.398 . S
C287 C252 1.382 . S
C287 H264 0.951 . S
C287 C286 1.398 . S
Co288 N293 2.057 . S
Co288 O305 2.021 . S
Co288 O308 2.062 1_455 S
Co288 O312 2.117 1_455 S
Co288 O313 2.020 1_545 S
C289 O309 1.259 1_545 S
C289 O312 1.258 . S
Co290 N299 2.061 1_545 S
Co290 O306 2.117 1_655 S
Co290 O307 2.020 . S
Co290 O309 2.021 1_545 S
Co290 O314 2.062 1_645 S
C291 N293 1.316 . S
C291 N294 1.347 1_556 S
C291 H296 0.931 . S
C292 N293 1.375 1_655 S
C292 C295 1.350 1_556 S
C292 H297 0.930 . S
N293 Co288 2.057 . S
N293 C291 1.316 . S
N293 C292 1.375 1_455 S
N294 C291 1.347 1_554 S
N294 C295 1.373 1_455 S
C295 C292 1.350 1_554 S
C295 N294 1.373 1_655 S
C295 H316 0.931 . S
H296 C291 0.931 . S
H297 C292 0.930 . S
C298 O305 1.259 . S
C298 O306 1.258 . S
N299 Co290 2.061 1_565 S
N299 C300 1.343 . S
N299 C301 1.343 1_655 S
C300 N299 1.343 . S
C300 N302 1.347 . S
C300 H311 0.931 . S
C301 N299 1.343 1_455 S
C301 C303 1.350 . S
C301 H310 0.930 . S
N302 C300 1.347 . S
N302 C303 1.373 1_655 S
C303 C301 1.350 . S
C303 N302 1.373 1_455 S
C303 H317 0.931 . S
C304 O307 1.256 . S
C304 O308 1.255 . S
O305 Co288 2.021 . S
O305 C298 1.259 . S
O306 Co290 2.117 1_455 S
O306 C298 1.258 . S
O307 Co290 2.020 . S
O307 C304 1.256 . S
O308 Co288 2.062 1_655 S
O308 C304 1.255 . S
O309 C289 1.259 1_565 S
O309 Co290 2.021 1_565 S
H310 C301 0.930 . S
H311 C300 0.931 . S
O312 Co288 2.117 1_655 S
O312 C289 1.258 . S
O313 Co288 2.020 1_565 S
O313 C315 1.256 . S
O314 Co290 2.062 1_465 S
O314 C315 1.255 . S
C315 O313 1.256 . S
C315 O314 1.255 . S
H316 C295 0.931 . S
H317 C303 0.931 . S
Co318 N323 2.057 . S
Co318 O335 2.021 . S
Co318 O338 2.062 . S
Co318 O342 2.117 1_545 S
Co318 O343 2.020 . S
C319 O339 1.259 . S
C319 O342 1.258 . S
Co320 N329 2.057 . S
Co320 O336 2.117 . S
Co320 O337 2.020 . S
Co320 O339 2.021 1_545 S
Co320 O344 2.062 1_545 S
C321 N323 1.316 . S
C321 N324 1.347 1_556 S
C321 H326 0.931 . S
C322 N323 1.375 . S
C322 C325 1.350 1_556 S
C322 H327 0.930 1_545 S
N323 Co318 2.057 . S
N323 C321 1.316 . S
N323 C322 1.375 . S
N324 C321 1.347 1_554 S
N324 C325 1.373 . S
C325 C322 1.350 1_554 S
C325 N324 1.373 . S
C325 H346 0.931 . S
H326 C321 0.931 . S
H327 C322 0.930 1_565 S
C328 O335 1.259 . S
C328 O336 1.258 . S
N329 Co320 2.057 . S
N329 C330 1.316 1_545 S
N329 C331 1.375 . S
C330 N329 1.316 1_565 S
C330 N332 1.347 . S
C330 H341 0.931 . S
C331 N329 1.375 . S
C331 C333 1.350 . S
C331 H340 0.930 . S
N332 C330 1.347 . S
N332 C333 1.373 1_565 S
C333 C331 1.350 . S
C333 N332 1.373 1_545 S
C333 H347 0.931 . S
C334 O337 1.256 . S
C334 O338 1.255 . S
O335 Co318 2.021 . S
O335 C328 1.259 . S
O336 Co320 2.117 . S
O336 C328 1.258 . S
O337 Co320 2.020 . S
O337 C334 1.256 . S
O338 Co318 2.062 . S
O338 C334 1.255 . S
O339 C319 1.259 . S
O339 Co320 2.021 1_565 S
H340 C331 0.930 . S
H341 C330 0.931 . S
O342 Co318 2.117 1_565 S
O342 C319 1.258 . S
O343 Co318 2.020 . S
O343 C345 1.256 . S
O344 Co320 2.062 1_565 S
O344 C345 1.255 1_565 S
C345 O343 1.256 . S
C345 O344 1.255 1_545 S
H346 C325 0.931 . S
H347 C333 0.931 . S
Co348 N353 2.057 . S
Co348 O365 2.021 . S
Co348 O368 2.062 . S
Co348 O372 2.117 . S
Co348 O373 2.020 . S
C349 O369 1.259 . S
C349 O372 1.258 . S
Co350 N359 2.057 . S
Co350 O366 2.117 . S
Co350 O367 2.020 . S
Co350 O369 2.021 . S
Co350 O374 2.062 . S
C351 N353 1.316 . S
C351 N354 1.347 . S
C351 H356 0.931 . S
C352 N353 1.375 . S
C352 C355 1.350 . S
C352 H357 0.930 . S
N353 Co348 2.057 . S
N353 C351 1.316 . S
N353 C352 1.375 . S
N354 C351 1.347 . S
N354 C355 1.373 . S
C355 C352 1.350 . S
C355 N354 1.373 . S
C355 H376 0.931 . S
H356 C351 0.931 . S
H357 C352 0.930 . S
C358 O365 1.259 . S
C358 O366 1.258 . S
N359 Co350 2.057 . S
N359 C360 1.316 . S
N359 C361 1.375 . S
C360 N359 1.316 . S
C360 N362 1.347 . S
C360 H371 0.931 . S
C361 N359 1.375 . S
C361 C363 1.350 . S
C361 H370 0.930 . S
N362 C360 1.347 . S
N362 C363 1.373 . S
C363 C361 1.350 . S
C363 N362 1.373 . S
C363 H377 0.931 . S
C364 O367 1.256 . S
C364 O368 1.255 . S
O365 Co348 2.021 . S
O365 C358 1.259 . S
O366 Co350 2.117 . S
O366 C358 1.258 . S
O367 Co350 2.020 . S
O367 C364 1.256 . S
O368 Co348 2.062 . S
O368 C364 1.255 . S
O369 C349 1.259 . S
O369 Co350 2.021 . S
H370 C361 0.930 . S
H371 C360 0.931 . S
O372 Co348 2.117 . S
O372 C349 1.258 . S
O373 Co348 2.020 . S
O373 C375 1.256 . S
O374 Co350 2.062 . S
O374 C375 1.255 . S
C375 O373 1.256 . S
C375 O374 1.255 . S
H376 C355 0.931 . S
H377 C363 0.931 . S
Co378 N383 2.057 . S
Co378 O395 2.021 1_455 S
Co378 O398 2.062 1_455 S
Co378 O402 2.117 . S
Co378 O403 2.020 . S
C379 O399 1.259 . S
C379 O402 1.258 . S
Co380 N389 2.057 . S
Co380 O396 2.117 . S
Co380 O397 2.020 . S
Co380 O399 2.021 1_655 S
Co380 O404 2.062 1_655 S
C381 N383 1.316 . S
C381 N384 1.347 . S
C381 H386 0.931 1_455 S
C382 N383 1.375 . S
C382 C385 1.350 . S
C382 H387 0.930 . S
N383 Co378 2.057 . S
N383 C381 1.316 . S
N383 C382 1.375 . S
N384 C381 1.347 . S
N384 C385 1.373 . S
C385 C382 1.350 . S
C385 N384 1.373 . S
C385 H406 0.931 . S
H386 C381 0.931 1_655 S
H387 C382 0.930 . S
C388 O395 1.259 . S
C388 O396 1.258 . S
N389 Co380 2.057 . S
N389 C390 1.316 . S
N389 C391 1.375 . S
C390 N389 1.316 . S
C390 N392 1.347 . S
C390 H401 0.931 1_655 S
C391 N389 1.375 . S
C391 C393 1.350 . S
C391 H400 0.930 . S
N392 C390 1.347 . S
N392 C393 1.373 . S
C393 C391 1.350 . S
C393 N392 1.373 . S
C393 H407 0.931 . S
C394 O397 1.256 . S
C394 O398 1.255 . S
O395 Co378 2.021 1_655 S
O395 C388 1.259 . S
O396 Co380 2.117 . S
O396 C388 1.258 . S
O397 Co380 2.020 . S
O397 C394 1.256 . S
O398 Co378 2.062 1_655 S
O398 C394 1.255 . S
O399 C379 1.259 . S
O399 Co380 2.021 1_455 S
H400 C391 0.930 . S
H401 C390 0.931 1_455 S
O402 Co378 2.117 . S
O402 C379 1.258 . S
O403 Co378 2.020 . S
O403 C405 1.256 . S
O404 Co380 2.062 1_455 S
O404 C405 1.255 . S
C405 O403 1.256 . S
C405 O404 1.255 . S
H406 C385 0.931 . S
H407 C393 0.931 . S
C408 C409 1.369 . S
C408 C410 1.419 . S
C408 H412 0.930 . S
C409 C408 1.369 . S
C409 C418 1.429 . S
C410 C408 1.419 . S
C410 C411 1.363 . S
C410 H413 0.929 . S
C411 C410 1.363 . S
C411 C417 1.428 . S
H412 C408 0.930 . S
H413 C410 0.929 . S
S414 N415 1.617 1_565 S
S414 N416 1.611 1_565 S
N415 S414 1.617 1_545 S
N415 C418 1.350 . S
N416 S414 1.611 1_545 S
N416 C417 1.351 . S
C417 C411 1.428 . S
C417 N416 1.351 . S
C417 C418 1.434 . S
C418 C409 1.429 . S
C418 N415 1.350 . S
C418 C417 1.434 . S
C419 C420 1.369 . S
C419 C421 1.419 . S
C419 H423 0.930 . S
C420 C419 1.369 . S
C420 C429 1.429 . S
C421 C419 1.419 . S
C421 C422 1.363 . S
C421 H424 0.929 . S
C422 C421 1.363 . S
C422 C428 1.428 . S
H423 C419 0.930 . S
H424 C421 0.929 . S
S425 N426 1.613 . S
S425 N427 1.610 . S
N426 S425 1.613 . S
N426 C429 1.350 . S
N427 S425 1.610 . S
N427 C428 1.351 . S
C428 C422 1.428 . S
C428 N427 1.351 . S
C428 C429 1.434 . S
C429 C420 1.429 . S
C429 N426 1.350 . S
C429 C428 1.434 . S
C430 C431 1.369 . S
C430 C432 1.419 . S
C430 H434 0.930 . S
C431 C430 1.369 . S
C431 C440 1.429 . S
C432 C430 1.419 . S
C432 C433 1.363 . S
C432 H435 0.929 . S
C433 C432 1.363 . S
C433 C439 1.428 . S
H434 C430 0.930 . S
H435 C432 0.929 . S
S436 N437 1.613 . S
S436 N438 1.610 . S
N437 S436 1.613 . S
N437 C440 1.350 . S
N438 S436 1.610 . S
N438 C439 1.351 . S
C439 C433 1.428 . S
C439 N438 1.351 . S
C439 C440 1.434 . S
C440 C431 1.429 . S
C440 N437 1.350 . S
C440 C439 1.434 . S
C441 C442 1.369 . S
C441 C443 1.419 . S
C441 H445 0.930 . S
C442 C441 1.369 . S
C442 C451 1.429 . S
C443 C441 1.419 . S
C443 C444 1.363 . S
C443 H446 0.929 . S
C444 C443 1.363 . S
C444 C450 1.428 . S
H445 C441 0.930 . S
H446 C443 0.929 . S
S447 N448 1.613 . S
S447 N449 1.610 1_455 S
N448 S447 1.613 . S
N448 C451 1.350 1_455 S
N449 S447 1.610 1_655 S
N449 C450 1.351 . S
C450 C444 1.428 . S
C450 N449 1.351 . S
C450 C451 1.434 . S
C451 C442 1.429 . S
C451 N448 1.350 1_655 S
C451 C450 1.434 . S
C452 C453 1.369 . S
C452 C454 1.419 . S
C452 H456 0.930 1_556 S
C453 C452 1.369 . S
C453 C462 1.429 . S
C454 C452 1.419 . S
C454 C455 1.363 . S
C454 H457 0.929 1_565 S
C455 C454 1.363 . S
C455 C461 1.428 . S
H456 C452 0.930 1_554 S
H457 C454 0.929 1_545 S
S458 N459 1.613 . S
S458 N460 1.610 . S
N459 S458 1.613 . S
N459 C462 1.350 . S
N460 S458 1.610 . S
N460 C461 1.351 . S
C461 C455 1.428 . S
C461 N460 1.351 . S
C461 C462 1.434 . S
C462 C453 1.429 . S
C462 N459 1.350 . S
C462 C461 1.434 . S
C463 C464 1.369 . S
C463 C465 1.419 . S
C463 H467 0.930 . S
C464 C463 1.369 . S
C464 C473 1.429 1_556 S
C465 C463 1.419 . S
C465 C466 1.363 . S
C465 H468 0.929 . S
C466 C465 1.363 . S
C466 C472 1.428 . S
H467 C463 0.930 . S
H468 C465 0.929 . S
S469 N470 1.613 . S
S469 N471 1.610 1_554 S
N470 S469 1.613 . S
N470 C473 1.350 . S
N471 S469 1.610 1_556 S
N471 C472 1.351 . S
C472 C466 1.428 . S
C472 N471 1.351 . S
C472 C473 1.434 1_556 S
C473 C464 1.429 1_554 S
C473 N470 1.350 . S
C473 C472 1.434 1_554 S
C474 C475 1.369 1_556 S
C474 C476 1.419 . S
C474 H478 0.930 . S
C475 C474 1.369 1_554 S
C475 C484 1.429 . S
C476 C474 1.419 . S
C476 C477 1.363 . S
C476 H479 0.929 . S
C477 C476 1.363 . S
C477 C483 1.428 . S
H478 C474 0.930 . S
H479 C476 0.929 . S
S480 N481 1.613 . S
S480 N482 1.610 1_554 S
N481 S480 1.613 . S
N481 C484 1.350 . S
N482 S480 1.610 1_556 S
N482 C483 1.351 . S
C483 C477 1.428 . S
C483 N482 1.351 . S
C483 C484 1.434 1_556 S
C484 C475 1.429 . S
C484 N481 1.350 . S
C484 C483 1.434 1_554 S
C485 C486 1.369 1_656 S
C485 C487 1.419 . S
C485 H489 0.930 . S
C486 C485 1.369 1_454 S
C486 C495 1.428 1_554 S
C487 C485 1.419 . S
C487 C488 1.363 1_655 S
C487 H490 0.929 . S
C488 C487 1.363 1_455 S
C488 C494 1.428 . S
H489 C485 0.930 . S
H490 C487 0.929 . S
S491 N492 1.613 1_556 S
S491 N493 1.610 . S
N492 S491 1.613 1_554 S
N492 C495 1.348 1_554 S
N493 S491 1.610 . S
N493 C494 1.351 . S
C494 C488 1.428 . S
C494 N493 1.351 . S
C494 C495 1.437 . S
C495 C486 1.428 1_556 S
C495 N492 1.348 1_556 S
C495 C494 1.437 . S
C496 C497 1.369 . S
C496 C498 1.419 1_455 S
C496 H500 0.930 . S
C497 C496 1.369 . S
C497 C506 1.429 1_455 S
C498 C496 1.419 1_655 S
C498 C499 1.363 . S
C498 H501 0.929 . S
C499 C498 1.363 . S
C499 C505 1.428 . S
H500 C496 0.930 . S
H501 C498 0.929 . S
S502 N503 1.613 . S
S502 N504 1.610 . S
N503 S502 1.613 . S
N503 C506 1.350 . S
N504 S502 1.610 . S
N504 C505 1.351 . S
C505 C499 1.428 . S
C505 N504 1.351 . S
C505 C506 1.434 . S
C506 C497 1.429 1_655 S
C506 N503 1.350 . S
C506 C505 1.434 . S
C507 C508 1.369 . S
C507 C509 1.419 . S
C507 H511 0.930 . S
C508 C507 1.369 . S
C508 C517 1.429 . S
C509 C507 1.419 . S
C509 C510 1.363 . S
C509 H512 0.929 . S
C510 C509 1.363 . S
C510 C516 1.428 . S
H511 C507 0.930 . S
H512 C509 0.929 . S
S513 N514 1.613 . S
S513 N515 1.610 . S
N514 S513 1.613 . S
N514 C517 1.350 . S
N515 S513 1.610 . S
N515 C516 1.351 . S
C516 C510 1.428 . S
C516 N515 1.351 . S
C516 C517 1.434 . S
C517 C508 1.429 . S
C517 N514 1.350 . S
C517 C516 1.434 . S
C518 C519 1.369 . S
C518 C520 1.419 . S
C518 H522 0.930 . S
C519 C518 1.369 . S
C519 C528 1.429 . S
C520 C518 1.419 . S
C520 C521 1.363 . S
C520 H523 0.929 . S
C521 C520 1.363 . S
C521 C527 1.428 . S
H522 C518 0.930 . S
H523 C520 0.929 . S
S524 N525 1.613 . S
S524 N526 1.610 . S
N525 S524 1.613 . S
N525 C528 1.350 . S
N526 S524 1.610 . S
N526 C527 1.351 . S
C527 C521 1.428 . S
C527 N526 1.351 . S
C527 C528 1.434 . S
C528 C519 1.429 . S
C528 N525 1.350 . S
C528 C527 1.434 . S
C529 C530 1.369 . S
C529 C531 1.419 . S
C529 H533 0.930 . S
C530 C529 1.369 . S
C530 C539 1.429 . S
C531 C529 1.419 . S
C531 C532 1.363 . S
C531 H534 0.929 . S
C532 C531 1.363 . S
C532 C538 1.428 . S
H533 C529 0.930 . S
H534 C531 0.929 . S
S535 N536 1.613 . S
S535 N537 1.610 . S
N536 S535 1.613 . S
N536 C539 1.350 . S
N537 S535 1.610 . S
N537 C538 1.351 . S
C538 C532 1.428 . S
C538 N537 1.351 . S
C538 C539 1.434 . S
C539 C530 1.429 . S
C539 N536 1.350 . S
C539 C538 1.434 . S
C540 C541 1.369 1_455 S
C540 C542 1.419 . S
C540 H544 0.930 . S
C541 C540 1.369 1_655 S
C541 C550 1.429 . S
C542 C540 1.419 . S
C542 C543 1.363 . S
C542 H545 0.929 . S
C543 C542 1.363 . S
C543 C549 1.428 . S
H544 C540 0.930 . S
H545 C542 0.929 . S
S546 N547 1.613 . S
S546 N548 1.623 . S
N547 S546 1.613 . S
N547 C550 1.350 . S
N548 S546 1.623 . S
N548 C549 1.349 1_655 S
C549 C543 1.428 . S
C549 N548 1.349 1_455 S
C549 C550 1.434 1_455 S
C550 C541 1.429 . S
C550 N547 1.350 . S
C550 C549 1.434 1_655 S
C551 C552 1.369 . S
C551 C553 1.419 . S
C551 H555 0.930 . S
C552 C551 1.369 . S
C552 C561 1.429 . S
C553 C551 1.419 . S
C553 C554 1.363 . S
C553 H556 0.929 . S
C554 C553 1.363 . S
C554 C560 1.428 . S
H555 C551 0.930 . S
H556 C553 0.929 . S
S557 N558 1.613 1_545 S
S557 N559 1.610 . S
N558 S557 1.613 1_565 S
N558 C561 1.350 . S
N559 S557 1.610 . S
N559 C560 1.351 1_545 S
C560 C554 1.428 . S
C560 N559 1.351 1_565 S
C560 C561 1.434 . S
C561 C552 1.429 . S
C561 N558 1.350 . S
C561 C560 1.434 . S
C562 C563 1.369 . S
C562 C564 1.419 . S
C562 H566 0.930 . S
C563 C562 1.369 . S
C563 C572 1.429 . S
C564 C562 1.419 . S
C564 C565 1.363 . S
C564 H567 0.929 . S
C565 C564 1.363 . S
C565 C571 1.428 . S
H566 C562 0.930 . S
H567 C564 0.929 . S
S568 N569 1.613 . S
S568 N570 1.610 . S
N569 S568 1.613 . S
N569 C572 1.350 . S
N570 S568 1.610 . S
N570 C571 1.351 . S
C571 C565 1.428 . S
C571 N570 1.351 . S
C571 C572 1.434 . S
C572 C563 1.429 . S
C572 N569 1.350 . S
C572 C571 1.434 . S
C573 C574 1.369 . S
C573 C575 1.419 . S
C573 H577 0.930 . S
C574 C573 1.369 . S
C574 C583 1.429 . S
C575 C573 1.419 . S
C575 C576 1.363 . S
C575 H578 0.929 . S
C576 C575 1.363 . S
C576 C582 1.428 . S
H577 C573 0.930 . S
H578 C575 0.929 . S
S579 N580 1.613 . S
S579 N581 1.610 . S
N580 S579 1.613 . S
N580 C583 1.350 . S
N581 S579 1.610 . S
N581 C582 1.351 . S
C582 C576 1.428 . S
C582 N581 1.351 . S
C582 C583 1.434 . S
C583 C574 1.429 . S
C583 N580 1.350 . S
C583 C582 1.434 . S
C584 C585 1.369 . S
C584 C586 1.419 . S
C584 H588 0.930 1_554 S
C585 C584 1.369 . S
C585 C594 1.429 1_455 S
C586 C584 1.419 . S
C586 C587 1.363 . S
C586 H589 0.929 1_554 S
C587 C586 1.363 . S
C587 C593 1.437 . S
H588 C584 0.930 1_556 S
H589 C586 0.929 1_556 S
S590 N591 1.613 . S
S590 N592 1.610 . S
N591 S590 1.613 . S
N591 C594 1.350 . S
N592 S590 1.610 . S
N592 C593 1.345 1_655 S
C593 C587 1.437 . S
C593 N592 1.345 1_455 S
C593 C594 1.433 1_455 S
C594 C585 1.429 1_655 S
C594 N591 1.350 . S
C594 C593 1.433 1_655 S
C595 C596 1.369 . S
C595 C597 1.419 . S
C595 H599 0.930 . S
C596 C595 1.369 . S
C596 C605 1.429 . S
C597 C595 1.419 . S
C597 C598 1.363 . S
C597 H600 0.929 . S
C598 C597 1.363 . S
C598 C604 1.428 . S
H599 C595 0.930 . S
H600 C597 0.929 . S
S601 N602 1.613 . S
S601 N603 1.610 . S
N602 S601 1.613 . S
N602 C605 1.350 . S
N603 S601 1.610 . S
N603 C604 1.351 . S
C604 C598 1.428 . S
C604 N603 1.351 . S
C604 C605 1.434 . S
C605 C596 1.429 . S
C605 N602 1.350 . S
C605 C604 1.434 . S
C606 C607 1.369 . S
C606 C608 1.419 . S
C606 H610 0.930 . S
C607 C606 1.369 . S
C607 C616 1.429 . S
C608 C606 1.419 . S
C608 C609 1.363 1_554 S
C608 H611 0.929 1_554 S
C609 C608 1.363 1_556 S
C609 C615 1.428 . S
H610 C606 0.930 . S
H611 C608 0.929 1_556 S
S612 N613 1.613 1_556 S
S612 N614 1.610 . S
N613 S612 1.613 1_554 S
N613 C616 1.350 . S
N614 S612 1.610 . S
N614 C615 1.351 . S
C615 C609 1.428 . S
C615 N614 1.351 . S
C615 C616 1.434 1_556 S
C616 C607 1.429 . S
C616 N613 1.350 . S
C616 C615 1.434 1_554 S
C617 C618 1.369 . S
C617 C619 1.419 . S
C617 H621 0.930 . S
C618 C617 1.369 . S
C618 C627 1.429 1_554 S
C619 C617 1.419 . S
C619 C620 1.363 1_554 S
C619 H622 0.929 . S
C620 C619 1.363 1_556 S
C620 C626 1.428 . S
H621 C617 0.930 . S
H622 C619 0.929 . S
S623 N624 1.613 . S
S623 N625 1.610 . S
N624 S623 1.613 . S
N624 C627 1.350 . S
N625 S623 1.610 . S
N625 C626 1.351 . S
C626 C620 1.428 . S
C626 N625 1.351 . S
C626 C627 1.434 . S
C627 C618 1.429 1_556 S
C627 N624 1.350 . S
C627 C626 1.434 . S
C628 C629 1.369 . S
C628 C630 1.419 . S
C628 H632 0.930 . S
C629 C628 1.369 . S
C629 C638 1.429 1_655 S
C630 C628 1.419 . S
C630 C631 1.363 . S
C630 H633 0.929 . S
C631 C630 1.363 . S
C631 C637 1.428 1_655 S
H632 C628 0.930 . S
H633 C630 0.929 . S
S634 N635 1.613 . S
S634 N636 1.610 . S
N635 S634 1.613 . S
N635 C638 1.350 . S
N636 S634 1.610 . S
N636 C637 1.351 . S
C637 C631 1.428 1_455 S
C637 N636 1.351 . S
C637 C638 1.434 . S
C638 C629 1.429 1_455 S
C638 N635 1.350 . S
C638 C637 1.434 . S
C639 C640 1.369 . S
C639 C641 1.419 . S
C639 H643 0.930 . S
C640 C639 1.369 . S
C640 C649 1.429 . S
C641 C639 1.419 . S
C641 C642 1.363 . S
C641 H644 0.929 . S
C642 C641 1.363 . S
C642 C648 1.428 . S
H643 C639 0.930 . S
H644 C641 0.929 . S
S645 N646 1.613 . S
S645 N647 1.610 . S
N646 S645 1.613 . S
N646 C649 1.350 . S
N647 S645 1.610 . S
N647 C648 1.351 . S
C648 C642 1.428 . S
C648 N647 1.351 . S
C648 C649 1.434 . S
C649 C640 1.429 . S
C649 N646 1.350 . S
C649 C648 1.434 . S
C650 C651 1.369 . S
C650 C652 1.419 . S
C650 H654 0.930 . S
C651 C650 1.369 . S
C651 C660 1.429 . S
C652 C650 1.419 . S
C652 C653 1.363 . S
C652 H655 0.929 . S
C653 C652 1.363 . S
C653 C659 1.428 . S
H654 C650 0.930 . S
H655 C652 0.929 . S
S656 N657 1.613 . S
S656 N658 1.610 . S
N657 S656 1.613 . S
N657 C660 1.350 . S
N658 S656 1.610 . S
N658 C659 1.351 . S
C659 C653 1.428 . S
C659 N658 1.351 . S
C659 C660 1.434 . S
C660 C651 1.429 . S
C660 N657 1.350 . S
C660 C659 1.434 . S
C661 C662 1.369 . S
C661 C663 1.419 . S
C661 H665 0.930 . S
C662 C661 1.369 . S
C662 C671 1.429 . S
C663 C661 1.419 . S
C663 C664 1.363 . S
C663 H666 0.929 . S
C664 C663 1.363 . S
C664 C670 1.428 . S
H665 C661 0.930 . S
H666 C663 0.929 . S
S667 N668 1.613 . S
S667 N669 1.610 . S
N668 S667 1.613 . S
N668 C671 1.350 . S
N669 S667 1.610 . S
N669 C670 1.351 . S
C670 C664 1.428 . S
C670 N669 1.351 . S
C670 C671 1.434 . S
C671 C662 1.429 . S
C671 N668 1.350 . S
C671 C670 1.434 . S
C409 C241 1.936 . S
C411 C298 1.962 . S
C422 C328 1.814 . S
C420 C277 1.804 . S
C433 N362 1.877 . S
C431 C169 1.824 . S
C444 N392 1.483 . S
C442 C205 1.541 1_655 S
C455 C289 1.961 1_565 S
C453 C97 1.865 1_556 S
C464 C133 1.785 1_556 S
C466 C319 1.814 . S
C475 C25 1.755 . S
C477 N354 1.870 . S
C486 C61 1.510 . S
C488 N384 1.489 . S
C499 C304 0.660 . S
C497 C211 0.689 . S
C510 C334 1.197 . S
C508 C247 1.107 . S
C521 C375 0.936 . S
C519 C253 0.940 . S
C530 C175 1.086 . S
C532 C405 1.075 . S
C541 C67 0.754 1_655 S
C543 C315 0.631 . S
C554 C345 1.203 1_565 S
C552 C103 1.018 . S
C565 C364 0.936 . S
C563 C109 0.937 . S
C574 C31 0.992 . S
C576 C394 1.079 . S
C585 C181 1.697 . S
C587 N294 1.806 . S
C596 C217 1.847 . S
C598 N324 1.952 . S
C609 C349 2.007 . S
C607 C283 1.889 . S
C620 C379 2.206 . S
C618 C145 2.098 . S
C629 C37 1.713 1_655 S
C631 N302 1.805 . S
C642 N332 1.953 . S
C640 C73 1.824 . S
C653 C358 2.006 . S
C651 C139 1.857 . S
C662 C1 2.050 . S
C664 C388 2.208 . S
