# Generated by pormake.
# Topology zzz, (3,6)-cn, num edge types: 1
# Building blocks:
#     Node 0, Type 0, BuildingBlock: CUQRIR_clean_linker_1, # of connection points: 3
#     Node 1, Type 0, BuildingBlock: CUQRIR_clean_linker_1, # of connection points: 3
#     Node 2, Type 0, BuildingBlock: CUQRIR_clean_linker_1, # of connection points: 3
#     Node 3, Type 0, BuildingBlock: CUQRIR_clean_linker_1, # of connection points: 3
#     Node 4, Type 0, BuildingBlock: CUQRIR_clean_linker_1, # of connection points: 3
#     Node 5, Type 0, BuildingBlock: CUQRIR_clean_linker_1, # of connection points: 3
#     Node 6, Type 0, BuildingBlock: CUQRIR_clean_linker_1, # of connection points: 3
#     Node 7, Type 0, BuildingBlock: CUQRIR_clean_linker_1, # of connection points: 3
#     Node 8, Type 1, BuildingBlock: HISSIN_clean_sbu_0, # of connection points: 6
#     Node 9, Type 1, BuildingBlock: HISSIN_clean_sbu_0, # of connection points: 6
#     Node 10, Type 1, BuildingBlock: HISSIN_clean_sbu_0, # of connection points: 6
#     Node 11, Type 1, BuildingBlock: HISSIN_clean_sbu_0, # of connection points: 6
#     Edge 12, Type (0, 1), BuildingBlock: CIFDUS_clean_linker_0, # of connection points: 2
#     Edge 13, Type (0, 1), BuildingBlock: CIFDUS_clean_linker_0, # of connection points: 2
#     Edge 14, Type (0, 1), BuildingBlock: CIFDUS_clean_linker_0, # of connection points: 2
#     Edge 15, Type (0, 1), BuildingBlock: CIFDUS_clean_linker_0, # of connection points: 2
#     Edge 16, Type (0, 1), BuildingBlock: CIFDUS_clean_linker_0, # of connection points: 2
#     Edge 17, Type (0, 1), BuildingBlock: CIFDUS_clean_linker_0, # of connection points: 2
#     Edge 18, Type (0, 1), BuildingBlock: CIFDUS_clean_linker_0, # of connection points: 2
#     Edge 19, Type (0, 1), BuildingBlock: CIFDUS_clean_linker_0, # of connection points: 2
#     Edge 20, Type (0, 1), BuildingBlock: CIFDUS_clean_linker_0, # of connection points: 2
#     Edge 21, Type (0, 1), BuildingBlock: CIFDUS_clean_linker_0, # of connection points: 2
#     Edge 22, Type (0, 1), BuildingBlock: CIFDUS_clean_linker_0, # of connection points: 2
#     Edge 23, Type (0, 1), BuildingBlock: CIFDUS_clean_linker_0, # of connection points: 2
#     Edge 24, Type (0, 1), BuildingBlock: CIFDUS_clean_linker_0, # of connection points: 2
#     Edge 25, Type (0, 1), BuildingBlock: CIFDUS_clean_linker_0, # of connection points: 2
#     Edge 26, Type (0, 1), BuildingBlock: CIFDUS_clean_linker_0, # of connection points: 2
#     Edge 27, Type (0, 1), BuildingBlock: CIFDUS_clean_linker_0, # of connection points: 2
#     Edge 28, Type (0, 1), BuildingBlock: CIFDUS_clean_linker_0, # of connection points: 2
#     Edge 29, Type (0, 1), BuildingBlock: CIFDUS_clean_linker_0, # of connection points: 2
#     Edge 30, Type (0, 1), BuildingBlock: CIFDUS_clean_linker_0, # of connection points: 2
#     Edge 31, Type (0, 1), BuildingBlock: CIFDUS_clean_linker_0, # of connection points: 2
#     Edge 32, Type (0, 1), BuildingBlock: CIFDUS_clean_linker_0, # of connection points: 2
#     Edge 33, Type (0, 1), BuildingBlock: CIFDUS_clean_linker_0, # of connection points: 2
#     Edge 34, Type (0, 1), BuildingBlock: CIFDUS_clean_linker_0, # of connection points: 2
#     Edge 35, Type (0, 1), BuildingBlock: CIFDUS_clean_linker_0, # of connection points: 2
# Relax obj value: 0.366
# Max RMSD: 0.212
# Mean RMSD: 0.111
data_MOF--net-zzz--node1-HISSIN_clean_sbu_0--node2-CUQRIR_clean_linker_1--edge1-CIFDUS_clean_linker_0
_symmetry_space_group_name_H-M    P1
_symmetry_Int_Tables_number       1
_symmetry_cell_setting            triclinic
loop_
_symmetry_equiv_pos_as_xyz
'x, y, z'
_cell_length_a     40.070656
_cell_length_b     39.732794
_cell_length_c     12.709136
_cell_angle_alpha  89.709996
_cell_angle_beta   91.283261
_cell_angle_gamma 90.684057
loop_
_atom_site_label
_atom_site_type_symbol
_atom_site_fract_x
_atom_site_fract_y
_atom_site_fract_z
_atom_type_partial_charge
C0 C 0.7663 0.55081 0.41399 0.0
N1 N 0.79917 0.54292 0.42869 0.0
N2 N 0.75506 0.54242 0.31446 0.0
C3 C 0.74533 0.56614 0.49681 0.0
C4 C 0.78285 0.53014 0.26947 0.0
N5 N 0.80884 0.53 0.33874 0.0
C6 C 0.78568 0.52098 0.15506 0.0
H7 H 0.71921 0.5567 0.48979 0.0
H8 H 0.74532 0.59386 0.48591 0.0
H9 H 0.75571 0.56044 0.57654 0.0
H10 H 0.76786 0.53547 0.10508 0.0
H11 H 0.78026 0.49371 0.14559 0.0
H12 H 0.81127 0.52578 0.12677 0.0
C13 C 0.03357 0.77198 0.38583 0.0
N14 N 1.01739 0.80057 0.41278 0.0
N15 N 1.0141 0.75195 0.32186 0.0
C16 C 0.06938 0.76514 0.41392 0.0
C17 C 0.98578 0.77006 0.30946 0.0
N18 N 0.98792 0.79985 0.3618 0.0
C19 C 0.95718 0.75983 0.23737 0.0
H20 H 0.08553 0.779 0.35819 0.0
H21 H 0.07466 0.73787 0.4084 0.0
H22 H 0.07546 0.77429 0.49454 0.0
H23 H 0.94971 0.73341 0.25423 0.0
H24 H 0.96536 0.76094 0.15456 0.0
H25 H 0.93531 0.7763 0.24697 0.0
C26 C 0.79618 0.03754 0.35027 0.0
N27 N 0.76585 0.05222 0.36477 0.0
N28 N 0.80882 0.04571 0.25349 0.0
C29 C 0.81411 1.01697 0.43237 0.0
C30 C 0.78439 0.06501 0.21 0.0
N31 N 0.7595 0.07003 0.27809 0.0
C32 C 0.78203 0.07474 0.09505 0.0
H33 H 0.80493 1.0226 0.51204 0.0
H34 H 0.84141 1.02183 0.42988 0.0
H35 H 0.80943 0.9899 0.41603 0.0
H36 H 0.75554 0.07539 0.0676 0.0
H37 H 0.79551 0.05664 0.04574 0.0
H38 H 0.79294 0.10024 0.08353 0.0
C39 C 0.54589 0.8149 0.43134 0.0
N40 N 0.54287 0.78071 0.42061 0.0
N41 N 0.54654 0.83074 0.33504 0.0
C42 C 0.54743 0.8327 0.53477 0.0
C43 C 0.54348 0.80482 0.26682 0.0
N44 N 0.54079 0.77505 0.31786 0.0
C45 C 0.53822 0.80901 0.14956 0.0
H46 H 0.52189 0.83406 0.56612 0.0
H47 H 0.55777 0.85855 0.52566 0.0
H48 H 0.56297 0.81828 0.59218 0.0
H49 H 0.54836 0.83346 0.12137 0.0
H50 H 0.51107 0.80777 0.13047 0.0
H51 H 0.55046 0.78845 0.10685 0.0
C52 C 0.3189 0.52723 0.12727 0.0
N53 N 0.28636 0.53655 0.11411 0.0
N54 N 0.33043 0.53374 0.22759 0.0
C55 C 0.33975 0.51347 0.04141 0.0
C56 C 0.30332 0.54662 0.27462 0.0
N57 N 0.27704 0.54845 0.20635 0.0
C58 C 0.30136 0.55442 0.39021 0.0
H59 H 0.33893 0.48557 0.04547 0.0
H60 H 0.36612 0.52192 0.0516 0.0
H61 H 0.3299 0.52143 0.96297 0.0
H62 H 0.30897 0.58101 0.40361 0.0
H63 H 0.31817 0.53795 0.43747 0.0
H64 H 0.27547 0.55101 0.41797 0.0
C65 C 0.04135 0.31766 0.1644 0.0
N66 N 0.05615 0.28777 0.14371 0.0
N67 N 0.06109 0.33741 0.22857 0.0
C68 C 1.00656 0.32631 0.12902 0.0
C69 C 0.08815 0.31783 0.24727 0.0
N70 N 0.08494 0.28751 0.19842 0.0
C71 C 0.11634 0.32723 0.32213 0.0
H72 H 1.00251 0.35385 0.13307 0.0
H73 H 0.98859 0.31334 0.18109 0.0
H74 H 1.00174 0.3173 0.04751 0.0
H75 H 0.10671 0.32912 0.40307 0.0
H76 H 0.12666 0.35226 0.30042 0.0
H77 H 0.13676 0.30863 0.32083 0.0
C78 C 0.2696 0.04488 0.22292 0.0
N79 N 0.29995 0.03016 0.20945 0.0
N80 N 0.25699 0.0373 0.32015 0.0
C81 C 0.25165 0.06493 0.1396 0.0
C82 C 0.28141 1.01826 0.36487 0.0
N83 N 0.30635 1.01298 0.29731 0.0
C84 C 0.28354 1.00876 0.48001 0.0
H85 H 0.2564 0.0921 0.1541 0.0
H86 H 0.22434 0.06017 0.14264 0.0
H87 H 0.26076 0.05873 0.06027 0.0
H88 H 0.27004 1.02703 0.5287 0.0
H89 H 0.30997 1.00804 0.50792 0.0
H90 H 0.27249 0.98334 0.49178 0.0
C91 C 0.53703 0.25164 0.15154 0.0
N92 N 0.55472 0.28073 0.13366 0.0
N93 N 0.54895 0.23511 0.23936 0.0
C94 C 0.50951 0.23875 0.08046 0.0
C95 C 0.57405 0.25553 0.27403 0.0
N96 N 0.57835 0.28226 0.20896 0.0
C97 C 0.59245 0.2505 0.37776 0.0
H98 H 0.50034 0.21365 0.10632 0.0
H99 H 0.51862 0.23728 0.9988 0.0
H100 H 0.48863 0.25685 0.08 0.0
H101 H 0.61513 0.23542 0.36527 0.0
H102 H 0.57656 0.2366 0.43416 0.0
H103 H 0.59999 0.27498 0.41311 0.0
Eu104 Eu 1.01669 0.05415 0.67785 0.0
Eu105 Eu 0.04977 0.03179 0.89643 0.0
C106 C 0.03534 0.1116 0.84465 0.0
C107 C 1.01347 0.07281 0.39795 0.0
C108 C 0.04712 0.06296 0.40122 0.0
C109 C 1.026 0.11143 0.25643 0.0
C110 C 0.07052 0.07946 0.33898 0.0
C111 C 1.0027 0.09565 0.32083 0.0
C112 C 0.06027 0.10516 0.27036 0.0
C113 C 0.99279 0.06605 0.48975 0.0
O114 O 0.99534 1.02257 0.93014 0.0
O115 O 0.97381 0.05463 0.79567 0.0
C116 C 0.97032 0.03875 0.88666 0.0
O117 O 0.03202 0.99911 0.65722 0.0
O118 O 0.07179 0.05059 0.04421 0.0
O119 O 0.07069 0.99722 1.01378 0.0
O120 O 0.03376 0.98123 0.82767 0.0
C121 C 0.03298 0.97441 0.72653 0.0
O122 O 0.07115 0.06269 0.64348 0.0
O123 O 0.0928 0.0313 0.77952 0.0
O124 O 0.0349 0.08714 0.91482 0.0
O125 O 0.9947 0.03583 0.52946 0.0
O126 O 0.99533 0.08906 0.56227 0.0
O127 O 0.0348 0.10431 0.74394 0.0
C128 C 0.05262 1.01437 0.17719 0.0
C129 C 1.01896 1.02418 0.17294 0.0
C130 C 0.03989 0.97631 0.31986 0.0
C131 C 0.99546 1.00785 0.23529 0.0
C132 C 0.0633 0.99189 0.25544 0.0
C133 C 1.00562 0.98236 0.30488 0.0
C134 C 0.0734 1.02054 0.08526 0.0
C135 C 0.09618 0.04671 0.68776 0.0
H136 H 0.05585 0.04463 0.45839 0.0
H137 H 1.0177 0.1316 0.20561 0.0
H138 H 0.09682 0.07438 0.35148 0.0
H139 H 0.97695 0.1037 0.31728 0.0
H140 H 1.01031 0.04223 0.11476 0.0
H141 H 0.04811 0.95628 0.37117 0.0
H142 H 0.96917 1.01278 0.22195 0.0
H143 H 0.08904 0.98387 0.25977 0.0
Eu144 Eu 0.54827 0.06841 0.86488 0.0
Eu145 Eu 0.52117 1.00562 0.72954 0.0
C146 C 0.54412 0.9945 0.975 0.0
C147 C 0.58429 0.15331 0.94864 0.0
C148 C 0.58095 0.18185 1.01147 0.0
C149 C 0.64125 0.16969 0.91429 0.0
C150 C 0.609 0.202 0.03449 0.0
C151 C 0.61337 0.14946 0.89078 0.0
C152 C 0.64032 0.19157 1.00077 0.0
C153 C 0.56118 0.12487 0.96181 0.0
O154 O 0.47277 1.01663 0.81272 0.0
O155 O 0.4931 0.06192 0.9065 0.0
C156 C 0.46838 0.04099 0.8808 0.0
O157 O 0.5469 0.08661 0.69581 0.0
O158 O 0.52992 0.95227 0.70151 0.0
O159 O 0.4961 0.98016 0.59875 0.0
O160 O 0.50667 0.05133 0.62875 0.0
C161 C 0.52444 0.07932 0.62289 0.0
O162 O 0.59656 0.05739 0.78095 0.0
O163 O 0.57585 1.01321 0.68321 0.0
O164 O 0.52361 0.9858 0.89757 0.0
O165 O 0.53762 0.12148 0.89025 0.0
O166 O 0.57491 0.09622 0.98798 0.0
O167 O 0.5606 1.02344 0.97206 0.0
C168 C 0.48497 0.92264 0.62108 0.0
C169 C 0.48762 0.89833 0.54256 0.0
C170 C 0.42768 0.90563 0.64706 0.0
C171 C 0.45943 0.87972 0.51089 0.0
C172 C 0.45595 0.92387 0.6804 0.0
C173 C 0.42834 0.88783 0.55179 0.0
C174 C 0.50867 0.95083 0.62259 0.0
C175 C 0.60062 0.03397 0.70954 0.0
H176 H 0.55811 0.1859 0.05302 0.0
H177 H 0.665 0.16245 0.88269 0.0
H178 H 0.6075 0.22064 0.09594 0.0
H179 H 0.61595 0.12825 0.83843 0.0
H180 H 0.51005 0.89684 0.49703 0.0
H181 H 0.40405 0.91139 0.68233 0.0
H182 H 0.46048 0.86487 0.4401 0.0
H183 H 0.45378 0.94209 0.74297 0.0
Eu184 Eu 0.51545 0.54167 0.86844 0.0
Eu185 Eu 0.5657 0.51736 0.69242 0.0
C186 C 0.59236 0.53007 0.93399 0.0
C187 C 0.44256 0.57392 1.02601 0.0
C188 C 0.43194 0.57761 0.12938 0.0
C189 C 0.42248 0.62941 0.98277 0.0
C190 C 0.41986 0.60855 0.16166 0.0
C191 C 0.43476 0.59855 0.95038 0.0
C192 C 0.4197 0.63576 0.09089 0.0
C193 C 0.46904 0.55009 1.0065 0.0
O194 O 0.55491 0.4656 0.76249 0.0
O195 O 0.52061 0.48457 0.89066 0.0
C196 C 0.53622 0.45973 0.84461 0.0
O197 O 0.48679 0.54798 0.71376 0.0
O198 O 0.61652 0.52745 0.64099 0.0
O199 O 0.58292 0.49551 0.54767 0.0
O200 O 0.51544 0.51382 0.60402 0.0
C201 C 0.4891 0.53205 0.62383 0.0
O202 O 0.52497 0.59356 0.7933 0.0
O203 O 0.5612 0.57421 0.67116 0.0
O204 O 0.59352 0.51167 0.84861 0.0
O205 O 0.46524 0.53107 0.92378 0.0
O206 O 0.49928 0.56256 1.01626 0.0
O207 O 0.56628 0.5489 0.95103 0.0
C208 C 0.64026 0.48464 0.54004 0.0
C209 C 0.63869 0.45156 0.57866 0.0
C210 C 0.67999 0.4676 0.41139 0.0
C211 C 0.65505 0.42615 0.52558 0.0
C212 C 0.66348 0.49313 0.46333 0.0
C213 C 0.67169 0.43396 0.43221 0.0
C214 C 0.61315 0.5079 0.55941 0.0
C215 C 0.54476 0.59919 0.71317 0.0
H216 H 0.43744 0.55848 0.18808 0.0
H217 H 0.42189 0.65005 0.92671 0.0
H218 H 0.4173 0.61282 0.24522 0.0
H219 H 0.44248 0.5958 0.86971 0.0
H220 H 0.62144 0.44476 0.63995 0.0
H221 H 0.69378 0.47368 0.34214 0.0
H222 H 0.64897 0.40023 0.54499 0.0
H223 H 0.6656 0.51875 0.43432 0.0
Eu224 Eu 0.04761 0.57741 0.68825 0.0
Eu225 Eu 0.04185 0.51512 0.85147 0.0
C226 C 0.11253 0.55051 0.81154 0.0
C227 C 0.05519 0.62196 0.43123 0.0
C228 C 0.05179 0.59015 0.38503 0.0
C229 C 0.08818 0.64077 0.28517 0.0
C230 C 0.06998 0.58263 0.29642 0.0
C231 C 0.07096 0.64801 0.37642 0.0
C232 C 0.09152 0.60707 0.25313 0.0
C233 C 0.0518 0.62457 0.54495 0.0
O234 O 0.03363 0.56118 0.95607 0.0
O235 O 0.03702 0.60531 0.83837 0.0
C236 C 0.03315 0.5938 0.93459 0.0
O237 O 0.99283 0.56235 0.67541 0.0
O238 O 0.06852 0.48987 0.97993 0.0
O239 O 1.02265 0.46806 0.91732 0.0
O240 O 0.9868 0.52337 0.80824 0.0
C241 C 0.97398 0.54213 0.73153 0.0
O242 O 0.06136 0.53062 0.59274 0.0
O243 O 0.03856 0.48886 0.69424 0.0
O244 O 0.09668 0.52145 0.80989 0.0
O245 O 1.02363 0.61396 0.58279 0.0
O246 O 0.07736 0.61298 0.59832 0.0
O247 O 0.09592 0.57776 0.78608 0.0
C248 C 0.03283 0.46256 0.09877 0.0
C249 C 0.0367 0.48845 0.173 0.0
C250 C 0.99038 0.43651 0.20539 0.0
C251 C 1.01584 0.48952 0.25894 0.0
C252 C 1.01156 0.43525 0.12001 0.0
C253 C 0.99039 0.46522 0.26958 0.0
C254 C 0.04545 0.46689 0.99206 0.0
C255 C 0.05116 0.49907 0.60503 0.0
H256 H 0.03905 0.56985 0.42554 0.0
H257 H 0.10253 0.66078 0.24891 0.0
H258 H 0.07082 0.55651 0.27351 0.0
H259 H 0.07304 0.67299 0.40987 0.0
H260 H 0.05345 0.50952 0.15956 0.0
H261 H 0.97124 0.4172 0.21233 0.0
H262 H 1.0168 0.5115 0.30913 0.0
H263 H 1.00873 0.41477 0.06445 0.0
H264 H 0.21834 0.99377 0.42891 0.0
H265 H 0.22184 0.09643 0.31938 0.0
H266 H 0.17131 0.10852 0.41864 0.0
H267 H 0.12795 0.09041 0.54886 0.0
H268 H 0.1329 0.99009 0.67937 0.0
H269 H 0.17921 0.97724 0.56551 0.0
C270 C 0.20867 1.01909 0.42818 0.0
C271 C 0.22469 0.0442 0.36728 0.0
C272 C 0.18137 1.0265 0.49221 0.0
C273 C 0.21031 0.07638 0.36414 0.0
C274 C 0.18159 0.08343 0.42261 0.0
C275 C 0.13949 0.06589 0.55332 0.0
C276 C 0.12694 0.04136 0.62442 0.0
C277 C 0.16727 0.05887 0.48912 0.0
C278 C 0.14219 1.00968 0.62775 0.0
C279 C 0.16856 1.00217 0.56154 0.0
H280 H 0.49404 0.20665 0.33233 0.0
H281 H 0.59487 0.18704 0.24345 0.0
H282 H 0.59513 0.13519 0.34473 0.0
H283 H 0.56999 0.09922 0.48016 0.0
H284 H 0.46889 0.11622 0.57131 0.0
H285 H 0.4653 0.16461 0.45012 0.0
C286 C 0.51549 0.19031 0.33211 0.0
C287 C 0.54423 0.20064 0.27716 0.0
C288 C 0.51571 0.16023 0.39398 0.0
C289 C 0.5721 0.17937 0.28093 0.0
C290 C 0.57249 0.14986 0.34103 0.0
C291 C 0.54686 0.11299 0.4714 0.0
C292 C 0.51971 0.10395 0.53447 0.0
C293 C 0.54493 0.14057 0.40078 0.0
C294 C 0.49003 0.12231 0.52283 0.0
C295 C 0.48809 0.15022 0.45388 0.0
H296 H 0.36576 0.57951 0.34082 0.0
H297 H 0.36962 0.47791 0.22717 0.0
H298 H 0.42108 0.46856 0.33216 0.0
H299 H 0.46259 0.48814 0.47121 0.0
H300 H 0.45387 0.58884 0.59244 0.0
H301 H 0.40695 0.59934 0.4724 0.0
C302 C 0.37779 0.55525 0.33915 0.0
C303 C 0.36345 0.52939 0.27656 0.0
C304 C 0.40652 0.54972 0.40306 0.0
C305 C 0.38007 0.49841 0.27353 0.0
C306 C 0.40938 0.49297 0.33478 0.0
C307 C 0.45058 0.51244 0.47054 0.0
C308 C 0.46191 0.53758 0.54214 0.0
C309 C 0.42253 0.51822 0.40205 0.0
C310 C 0.44572 0.56884 0.53983 0.0
C311 C 0.41878 0.57496 0.47076 0.0
H312 H 0.09166 0.39905 0.23691 0.0
H313 H 1.01067 0.341 0.36484 0.0
H314 H 0.99977 0.38603 0.49023 0.0
H315 H 1.01554 0.44045 0.57223 0.0
H316 H 0.09548 0.49986 0.44203 0.0
H317 H 0.1047 0.45607 0.31075 0.0
C318 C 0.07147 0.39646 0.29176 0.0
C319 C 0.05193 0.3665 0.29105 0.0
C320 C 0.06554 0.42259 0.36483 0.0
C321 C 1.02574 0.36377 0.36244 0.0
C322 C 1.01977 0.38945 0.43506 0.0
C323 C 0.03498 0.44395 0.51507 0.0
C324 C 0.05508 0.47352 0.51879 0.0
C325 C 0.03986 0.41873 0.43847 0.0
C326 C 0.0797 0.47753 0.44223 0.0
C327 C 0.08507 0.45232 0.36705 0.0
H328 H 0.84712 0.08977 0.14506 0.0
H329 H 0.84461 0.98688 0.25282 0.0
H330 H 0.89541 0.97558 0.15398 0.0
H331 H 0.93882 0.99445 1.02471 0.0
H332 H 0.93283 0.0949 0.89564 0.0
H333 H 0.88617 0.10695 1.00896 0.0
C334 C 0.85701 0.06454 0.14539 0.0
C335 C 0.84118 0.03917 0.20585 0.0
C336 C 0.88449 0.05756 0.08153 0.0
C337 C 0.85594 1.00715 0.2085 0.0
C338 C 0.88483 1.00054 0.15024 0.0
C339 C 0.92699 1.01882 1.02044 0.0
C340 C 0.9394 0.04364 0.94993 0.0
C341 C 0.89899 1.02538 0.08432 0.0
C342 C 0.92373 0.07511 0.94686 0.0
C343 C 0.89713 0.08216 1.01276 0.0
H344 H 0.59186 0.88115 0.30069 0.0
H345 H 0.48723 0.85648 0.28363 0.0
H346 H 0.4764 0.90671 0.17734 0.0
H347 H 0.49779 0.95316 0.06654 0.0
H348 H 0.60227 0.97968 0.08413 0.0
H349 H 0.61218 0.93375 0.21068 0.0
C350 C 0.56656 0.8877 0.27768 0.0
C351 C 0.5401 0.86553 0.30445 0.0
C352 C 0.56069 0.91654 0.21293 0.0
C353 C 0.50765 0.87386 0.26956 0.0
C354 C 0.50164 0.90221 0.20606 0.0
C355 C 0.52268 0.94928 0.09933 0.0
C356 C 0.5493 0.96986 0.06437 0.0
C357 C 0.52808 0.92309 0.1739 0.0
C358 C 0.58126 0.96445 0.10907 0.0
C359 C 0.58696 0.93798 0.18146 0.0
H360 H 0.72345 0.49511 0.19735 0.0
H361 H 0.71171 0.59546 0.31513 0.0
H362 H 0.6587 0.60036 0.21495 0.0
H363 H 0.61716 0.57688 0.08135 0.0
H364 H 0.63238 0.47652 0.96416 0.0
H365 H 0.682 0.471 0.07577 0.0
C366 C 0.70942 0.51818 0.20128 0.0
C367 C 0.72191 0.5448 0.26438 0.0
C368 C 0.67932 0.52086 0.14242 0.0
C369 C 0.70274 0.57421 0.26925 0.0
C370 C 0.67245 0.57711 0.21085 0.0
C371 C 0.63117 0.55372 0.08112 0.0
C372 C 0.62089 0.52729 1.01259 0.0
C373 C 0.66061 0.55072 0.14552 0.0
C374 C 0.63962 0.49752 1.01406 0.0
C375 C 0.66817 0.49425 0.07825 0.0
H376 H 0.99186 0.68686 0.3197 0.0
H377 H 0.05777 0.75643 0.16467 0.0
H378 H 0.06932 0.71409 0.03085 0.0
H379 H 0.05878 0.6579 0.95243 0.0
H380 H 0.99646 0.58623 0.11411 0.0
H381 H 0.98543 0.62823 0.24956 0.0
C382 C 1.00906 0.69249 0.25724 0.0
C383 C 1.02417 0.72484 0.25278 0.0
C384 C 1.01578 0.66767 0.18045 0.0
C385 C 0.0463 0.73171 0.17098 0.0
C386 C 0.05262 0.70753 0.09383 0.0
C387 C 0.04276 0.6514 1.01726 0.0
C388 C 1.02804 0.61887 1.02135 0.0
C389 C 0.03721 0.67554 0.09675 0.0
C390 C 1.00797 0.61094 0.10778 0.0
C391 C 1.00155 0.63511 0.18538 0.0
H392 H 0.1113 0.23848 0.07979 0.0
H393 H 0.09184 0.26637 0.39938 0.0
H394 H 0.09532 0.20804 0.45478 0.0
H395 H 0.0848 0.15003 0.40404 0.0
H396 H 0.08565 0.12225 0.0774 0.0
H397 H 0.10772 0.17825 0.0313 0.0
C398 C 0.1083 0.2316 0.16158 0.0
C399 C 0.10024 0.25662 0.23444 0.0
C400 C 0.10578 0.19747 0.19043 0.0
C401 C 0.09812 0.24779 0.34136 0.0
C402 C 0.09937 0.21422 0.37282 0.0
C403 C 0.09114 0.15596 0.32333 0.0
C404 C 0.08379 0.13246 0.24401 0.0
C405 C 0.10033 0.1889 0.29681 0.0
C406 C 0.09138 0.14014 0.13941 0.0
C407 C 0.10365 0.17222 0.11329 0.0
H408 H 0.29909 0.94895 0.35848 0.0
H409 H 0.37258 1.02396 0.2756 0.0
H410 H 0.41722 0.98449 0.3147 0.0
H411 H 0.43513 0.93389 0.40377 0.0
H412 H 0.36285 0.86571 0.53691 0.0
H413 H 0.31754 0.89674 0.4474 0.0
C414 C 0.32495 0.95644 0.34907 0.0
C415 C 0.33266 0.98907 0.31287 0.0
C416 C 0.35045 0.93473 0.38157 0.0
C417 C 0.36605 0.99868 0.29971 0.0
C418 C 0.39154 0.97624 0.32362 0.0
C419 C 0.40951 0.92499 0.40981 0.0
C420 C 0.40212 0.89728 0.47484 0.0
C421 C 0.38399 0.94478 0.3681 0.0
C422 C 0.36892 0.8866 0.48542 0.0
C423 C 0.34317 0.90465 0.43572 0.0
H424 H 0.57244 0.34962 0.19199 0.0
H425 H 0.64413 0.27122 0.24729 0.0
H426 H 0.6849 0.313 0.31235 0.0
H427 H 0.69419 0.37102 0.38353 0.0
H428 H 0.62677 0.44921 0.28186 0.0
H429 H 0.59116 0.40814 0.19262 0.0
C430 C 0.59749 0.34151 0.21073 0.0
C431 C 0.60469 0.30721 0.21868 0.0
C432 C 0.62166 0.36566 0.23807 0.0
C433 C 0.63742 0.29751 0.24644 0.0
C434 C 0.66088 0.32136 0.28204 0.0
C435 C 0.67274 0.37915 0.3369 0.0
C436 C 0.66254 0.41272 0.34153 0.0
C437 C 0.65254 0.35547 0.28313 0.0
C438 C 0.63492 0.42331 0.27997 0.0
C439 C 0.6142 0.39982 0.23024 0.0
H440 H 0.2164 0.52022 0.17266 0.0
H441 H 0.26666 0.61043 0.28053 0.0
H442 H 0.21304 0.63886 0.29223 0.0
H443 H 0.15286 0.63712 0.27405 0.0
H444 H 0.10317 0.551 0.13059 0.0
H445 H 0.15664 0.52257 0.12146 0.0
C446 C 0.21552 0.54626 0.19707 0.0
C447 C 0.24523 0.56336 0.22555 0.0
C448 C 0.18516 0.5633 0.19379 0.0
C449 C 0.24393 0.59676 0.25994 0.0
C450 C 0.21346 0.61314 0.26437 0.0
C451 C 0.1533 0.61268 0.23686 0.0
C452 C 0.12339 0.5958 0.20729 0.0
C453 C 0.18401 0.5967 0.23039 0.0
C454 C 0.12544 0.56415 0.1585 0.0
C455 C 0.15599 0.54774 0.1538 0.0
H456 H 0.96029 0.84638 0.4876 0.0
H457 H 0.97777 0.8225 0.1635 0.0
H458 H 0.97098 0.881 0.11395 0.0
H459 H 0.97985 0.9388 0.16905 0.0
H460 H 0.98214 0.96321 0.49854 0.0
H461 H 0.96221 0.90619 0.54152 0.0
C462 C 0.96229 0.85415 0.40624 0.0
C463 C 0.97077 0.83025 0.3303 0.0
C464 C 0.96307 0.8886 0.38038 0.0
C465 C 0.97127 0.84016 0.22397 0.0
C466 C 0.96812 0.87389 0.19577 0.0
C467 C 0.97458 0.93192 0.24986 0.0
C468 C 0.98229 0.9548 0.33067 0.0
C469 C 0.96694 0.89841 0.27423 0.0
C470 C 0.9761 0.94584 0.43535 0.0
C471 C 0.96514 0.91315 0.45968 0.0
H472 H 0.76705 0.13418 0.2187 0.0
H473 H 0.69313 0.0595 0.30068 0.0
H474 H 0.64866 0.09838 0.25314 0.0
H475 H 0.63158 0.14735 0.15322 0.0
H476 H 0.70507 0.21508 1.02479 0.0
H477 H 0.74933 0.18561 0.12436 0.0
C478 C 0.74113 0.12667 0.22647 0.0
C479 C 0.73327 0.09414 0.26346 0.0
C480 C 0.71586 0.14796 0.18935 0.0
C481 C 0.69978 0.0846 0.27507 0.0
C482 C 0.6744 0.1067 0.24637 0.0
C483 C 0.65713 0.15667 0.15101 0.0
C484 C 0.6652 0.18371 0.08392 0.0
C485 C 0.68223 0.13773 0.19923 0.0
C486 C 0.69842 0.19475 0.07769 0.0
C487 C 0.7236 0.17756 0.13323 0.0
H488 H 0.47767 0.75812 0.34981 0.0
H489 H 0.56547 0.73026 0.18392 0.0
H490 H 0.5334 0.68674 0.0879 0.0
H491 H 0.48094 0.65727 0.05351 0.0
H492 H 0.39323 0.68154 0.22682 0.0
H493 H 0.42447 0.72699 0.31777 0.0
C494 C 0.48958 0.74195 0.29369 0.0
C495 C 0.52357 0.74669 0.27314 0.0
C496 C 0.47093 0.71742 0.23931 0.0
C497 C 0.53928 0.72642 0.20015 0.0
C498 C 0.52094 0.70199 0.14522 0.0
C499 C 0.46836 0.6732 0.10893 0.0
C500 C 0.4346 0.6672 0.13111 0.0
C501 C 0.48675 0.69764 0.16351 0.0
C502 C 0.41891 0.68668 0.20666 0.0
C503 C 0.43688 0.71215 0.25932 0.0
H504 H 0.84089 0.47438 0.39633 0.0
H505 H 0.85221 0.57017 0.24181 0.0
H506 H 0.91222 0.5608 0.22419 0.0
H507 H 0.95967 0.52406 0.24388 0.0
H508 H 0.94943 0.42718 0.3956 0.0
H509 H 0.89051 0.4387 0.42838 0.0
C510 C 0.85675 0.49276 0.35785 0.0
C511 C 0.84276 0.52238 0.31739 0.0
C512 C 0.89107 0.48738 0.35058 0.0
C513 C 0.86293 0.54683 0.27013 0.0
C514 C 0.89702 0.54167 0.26178 0.0
C515 C 0.94498 0.50584 0.28746 0.0
C516 C 0.95882 0.47486 0.31789 0.0
C517 C 0.91123 0.51198 0.30134 0.0
C518 C 0.93919 0.45124 0.37193 0.0
C519 C 0.90553 0.45764 0.3893 0.0
H520 H 0.0664 0.26649 0.94499 0.0
H521 H 1.01497 0.24117 0.22814 0.0
H522 H 1.0013 0.18515 0.15809 0.0
H523 H 1.01061 0.14012 1.02447 0.0
H524 H 0.06359 0.16545 0.74337 0.0
H525 H 0.07061 0.22354 0.80385 0.0
C526 C 0.0514 0.24892 0.98981 0.0
C527 C 0.0414 0.25824 0.09157 0.0
C528 C 0.04502 0.21596 0.95047 0.0
C529 C 1.02257 0.23488 0.14948 0.0
C530 C 1.01536 0.2025 0.10992 0.0
C531 C 1.02369 0.15838 0.97663 0.0
C532 C 0.0371 0.14788 0.88004 0.0
C533 C 1.02752 0.1922 1.01211 0.0
C534 C 0.05315 0.17237 0.81799 0.0
C535 C 0.0572 0.20579 0.85276 0.0
H536 H 0.34369 0.07995 0.16046 0.0
H537 H 0.30981 0.98142 0.06674 0.0
H538 H 0.35772 0.97617 0.95081 0.0
H539 H 0.41304 0.99739 0.88938 0.0
H540 H 0.44804 0.09499 0.99443 0.0
H541 H 0.39692 0.10259 0.09105 0.0
C542 C 0.34616 0.05794 0.11138 0.0
C543 C 0.32249 0.03146 0.1205 0.0
C544 C 0.37485 0.0545 0.04832 0.0
C545 C 0.327 1.00249 0.05935 0.0
C546 C 0.35481 0.99931 0.99423 0.0
C547 C 0.40939 1.02051 0.93231 0.0
C548 C 0.43507 0.04546 0.93372 0.0
C549 C 0.37955 1.02475 0.99004 0.0
C550 C 0.42935 0.07507 0.99125 0.0
C551 C 0.39983 0.07958 0.04689 0.0
H552 H 0.50555 0.32677 0.11412 0.0
H553 H 0.59599 0.29411 0.97318 0.0
H554 H 0.59763 0.3454 0.86448 0.0
H555 H 0.57644 0.40308 0.82266 0.0
H556 H 0.48778 0.43666 0.97533 0.0
H557 H 0.48254 0.38256 0.06472 0.0
C558 C 0.52486 0.33034 0.05662 0.0
C559 C 0.55028 0.30606 0.05061 0.0
C560 C 0.52648 0.3609 0.99772 0.0
C561 C 0.57581 0.31188 0.97811 0.0
C562 C 0.57698 0.34158 0.91698 0.0
C563 C 0.55569 0.39846 0.87427 0.0
C564 C 0.53258 0.4246 0.89127 0.0
C565 C 0.55298 0.36688 0.92803 0.0
C566 C 0.50617 0.41764 0.96005 0.0
C567 C 0.50303 0.38641 1.01158 0.0
H568 H 0.25612 0.58689 1.0067 0.0
H569 H 0.26303 0.47917 1.02397 0.0
H570 H 0.2101 0.47338 0.924 0.0
H571 H 0.15726 0.49922 0.85665 0.0
H572 H 0.1498 0.60747 0.84967 0.0
H573 H 0.2065 0.61273 0.92196 0.0
C574 C 0.24672 0.56218 0.98441 0.0
C575 C 0.26375 0.53347 1.02282 0.0
C576 C 0.21524 0.55915 0.93187 0.0
C577 C 0.25088 0.50162 0.99449 0.0
C578 C 0.22011 0.49838 0.93919 0.0
C579 C 0.16815 0.524 0.86939 0.0
C580 C 0.1487 0.55292 0.84745 0.0
C581 C 0.20126 0.52696 0.91165 0.0
C582 C 0.1637 0.5847 0.86516 0.0
C583 C 0.19637 0.58778 0.90656 0.0
H584 H 1.00626 0.81973 0.61313 0.0
H585 H 0.0576 0.84901 0.33334 0.0
H586 H 0.07022 0.90446 0.40941 0.0
H587 H 0.05961 0.94795 0.54707 0.0
H588 H 1.00593 0.91898 0.82335 0.0
H589 H 1.00061 0.86125 0.75791 0.0
C590 C 1.02088 0.8381 0.57016 0.0
C591 C 0.03115 0.83008 0.46755 0.0
C592 C 1.02644 0.87078 0.61273 0.0
C593 C 0.04966 0.85436 0.41233 0.0
C594 C 0.05624 0.88641 0.45536 0.0
C595 C 0.04662 0.92899 0.59247 0.0
C596 C 0.03249 0.93833 0.68916 0.0
C597 C 0.0436 0.89549 0.55376 0.0
C598 C 1.01684 0.91294 0.74867 0.0
C599 C 1.01376 0.87975 0.711 0.0
H600 H 0.72288 1.00136 0.41118 0.0
H601 H 0.75519 0.09986 0.51057 0.0
H602 H 0.70833 0.10274 0.6316 0.0
H603 H 0.65456 0.07921 0.6982 0.0
H604 H 0.62099 0.98168 0.58831 0.0
H605 H 0.67097 0.97661 0.48422 0.0
C606 C 0.72027 1.0229 0.46219 0.0
C607 C 0.74325 0.05002 0.45354 0.0
C608 C 0.69222 1.02491 0.52877 0.0
C609 C 0.73854 0.07833 0.5174 0.0
C610 C 0.71135 0.08013 0.58567 0.0
C611 C 0.6583 0.05663 0.65265 0.0
C612 C 0.63339 0.03089 0.65235 0.0
C613 C 0.68743 0.05391 0.59051 0.0
C614 C 0.63914 1.00209 0.59103 0.0
C615 C 0.668 0.99907 0.53099 0.0
H616 H 0.58114 0.72597 0.42497 0.0
H617 H 0.50119 0.77233 0.5883 0.0
H618 H 0.49463 0.72127 0.69784 0.0
H619 H 0.5098 0.66058 0.73949 0.0
H620 H 0.59077 0.61699 0.56915 0.0
H621 H 0.59835 0.66882 0.47229 0.0
C622 C 0.5627 0.72518 0.48611 0.0
C623 C 0.54218 0.75345 0.49905 0.0
C624 C 0.55884 0.69554 0.54749 0.0
C625 C 0.518 0.75155 0.57779 0.0
C626 C 0.514 0.72199 0.63972 0.0
C627 C 0.52933 0.66249 0.68209 0.0
C628 C 0.54941 0.63387 0.66271 0.0
C629 C 0.53398 0.69337 0.62449 0.0
C630 C 0.57448 0.63765 0.58692 0.0
C631 C 0.57905 0.66766 0.53065 0.0
H632 H 0.82637 0.50171 0.57686 0.0
H633 H 0.82905 0.60305 0.45785 0.0
H634 H 0.88348 0.61264 0.54533 0.0
H635 H 0.93387 0.58964 0.63583 0.0
H636 H 0.93128 0.48809 0.75664 0.0
H637 H 0.87395 0.481 0.68837 0.0
C638 C 0.8382 0.52636 0.57442 0.0
C639 C 0.82305 0.55194 0.51249 0.0
C640 C 0.87024 0.53125 0.62269 0.0
C641 C 0.83943 0.58336 0.5074 0.0
C642 C 0.87101 0.58854 0.55566 0.0
C643 C 0.92065 0.56607 0.64881 0.0
C644 C 0.93735 0.53937 0.70142 0.0
C645 C 0.88725 0.5623 0.61035 0.0
C646 C 0.91938 0.50917 0.71733 0.0
C647 C 0.88645 0.50507 0.67786 0.0
loop_
_geom_bond_atom_site_label_1
_geom_bond_atom_site_label_2
_geom_bond_distance
_geom_bond_site_symmetry_2
_ccdc_geom_bond_type
C0 N1 1.317 . S
C0 N2 1.348 . S
C0 C3 1.485 . S
N1 C0 1.317 . S
N1 N5 1.370 . S
N2 C0 1.348 . S
N2 C4 1.346 . S
C3 C0 1.485 . S
C3 H7 0.960 . S
C3 H8 0.961 . S
C3 H9 0.960 . S
C4 N2 1.346 . S
C4 N5 1.307 . S
C4 C6 1.486 . S
N5 N1 1.370 . S
N5 C4 1.307 . S
C6 C4 1.486 . S
C6 H10 0.960 . S
C6 H11 0.960 . S
C6 H12 0.959 . S
H7 C3 0.960 . S
H8 C3 0.961 . S
H9 C3 0.960 . S
H10 C6 0.960 . S
H11 C6 0.960 . S
H12 C6 0.959 . S
C13 N14 1.317 . S
C13 N15 1.348 . S
C13 C16 1.485 . S
N14 C13 1.317 . S
N14 N18 1.370 . S
N15 C13 1.348 . S
N15 C17 1.346 . S
C16 C13 1.485 . S
C16 H20 0.960 . S
C16 H21 0.961 . S
C16 H22 0.960 . S
C17 N15 1.346 . S
C17 N18 1.307 . S
C17 C19 1.486 . S
N18 N14 1.370 . S
N18 C17 1.307 . S
C19 C17 1.486 . S
C19 H23 0.960 . S
C19 H24 0.960 . S
C19 H25 0.959 . S
H20 C16 0.960 . S
H21 C16 0.961 . S
H22 C16 0.960 . S
H23 C19 0.960 . S
H24 C19 0.960 . S
H25 C19 0.959 . S
C26 N27 1.317 . S
C26 N28 1.348 . S
C26 C29 1.485 . S
N27 C26 1.317 . S
N27 N31 1.370 . S
N28 C26 1.348 . S
N28 C30 1.346 . S
C29 C26 1.485 . S
C29 H33 0.960 1_565 S
C29 H34 0.961 . S
C29 H35 0.960 . S
C30 N28 1.346 . S
C30 N31 1.307 . S
C30 C32 1.486 . S
N31 N27 1.370 . S
N31 C30 1.307 . S
C32 C30 1.486 . S
C32 H36 0.960 . S
C32 H37 0.960 1_565 S
C32 H38 0.959 . S
H33 C29 0.960 1_545 S
H34 C29 0.961 . S
H35 C29 0.960 . S
H36 C32 0.960 . S
H37 C32 0.960 1_545 S
H38 C32 0.959 . S
C39 N40 1.317 . S
C39 N41 1.348 . S
C39 C42 1.485 . S
N40 C39 1.317 . S
N40 N44 1.370 . S
N41 C39 1.348 . S
N41 C43 1.346 . S
C42 C39 1.485 . S
C42 H46 0.960 . S
C42 H47 0.961 . S
C42 H48 0.960 . S
C43 N41 1.346 . S
C43 N44 1.307 . S
C43 C45 1.486 . S
N44 N40 1.370 . S
N44 C43 1.307 . S
C45 C43 1.486 . S
C45 H49 0.960 . S
C45 H50 0.960 . S
C45 H51 0.959 . S
H46 C42 0.960 . S
H47 C42 0.961 . S
H48 C42 0.960 . S
H49 C45 0.960 . S
H50 C45 0.960 . S
H51 C45 0.959 . S
C52 N53 1.317 . S
C52 N54 1.348 . S
C52 C55 1.485 1_554 S
N53 C52 1.317 . S
N53 N57 1.370 . S
N54 C52 1.348 . S
N54 C56 1.346 . S
C55 C52 1.485 1_556 S
C55 H59 0.960 . S
C55 H60 0.961 . S
C55 H61 0.960 . S
C56 N54 1.346 . S
C56 N57 1.307 . S
C56 C58 1.486 . S
N57 N53 1.370 . S
N57 C56 1.307 . S
C58 C56 1.486 . S
C58 H62 0.960 . S
C58 H63 0.960 . S
C58 H64 0.959 . S
H59 C55 0.960 . S
H60 C55 0.961 . S
H61 C55 0.960 . S
H62 C58 0.960 . S
H63 C58 0.960 . S
H64 C58 0.959 . S
C65 N66 1.317 1_556 S
C65 N67 1.348 1_556 S
C65 C68 1.485 . S
N66 C65 1.317 1_554 S
N66 N70 1.370 . S
N67 C65 1.348 1_554 S
N67 C69 1.346 . S
C68 C65 1.485 . S
C68 H72 0.960 . S
C68 H73 0.961 . S
C68 H74 0.960 . S
C69 N67 1.346 . S
C69 N70 1.307 . S
C69 C71 1.486 . S
N70 N66 1.370 . S
N70 C69 1.307 . S
C71 C69 1.486 . S
C71 H75 0.960 . S
C71 H76 0.960 . S
C71 H77 0.959 . S
H72 C68 0.960 . S
H73 C68 0.961 . S
H74 C68 0.960 . S
H75 C71 0.960 . S
H76 C71 0.960 . S
H77 C71 0.959 . S
C78 N79 1.317 . S
C78 N80 1.348 1_556 S
C78 C81 1.485 . S
N79 C78 1.317 . S
N79 N83 1.370 1_556 S
N80 C78 1.348 1_554 S
N80 C82 1.346 . S
C81 C78 1.485 . S
C81 H85 0.960 . S
C81 H86 0.961 . S
C81 H87 0.960 . S
C82 N80 1.346 . S
C82 N83 1.307 . S
C82 C84 1.486 . S
N83 N79 1.370 1_554 S
N83 C82 1.307 . S
C84 C82 1.486 . S
C84 H88 0.960 . S
C84 H89 0.960 . S
C84 H90 0.959 . S
H85 C81 0.960 . S
H86 C81 0.961 . S
H87 C81 0.960 . S
H88 C84 0.960 . S
H89 C84 0.960 . S
H90 C84 0.959 . S
C91 N92 1.317 . S
C91 N93 1.348 . S
C91 C94 1.485 1_554 S
N92 C91 1.317 . S
N92 N96 1.370 . S
N93 C91 1.348 . S
N93 C95 1.346 . S
C94 C91 1.485 1_556 S
C94 H98 0.960 . S
C94 H99 0.961 . S
C94 H100 0.960 . S
C95 N93 1.346 . S
C95 N96 1.307 . S
C95 C97 1.486 . S
N96 N92 1.370 . S
N96 C95 1.307 . S
C97 C95 1.486 . S
C97 H101 0.960 . S
C97 H102 0.960 . S
C97 H103 0.959 . S
H98 C94 0.960 . S
H99 C94 0.961 . S
H100 C94 0.960 . S
H101 C97 0.960 . S
H102 C97 0.960 . S
H103 C97 0.959 . S
Eu104 C113 2.828 . S
Eu104 O115 2.392 . S
Eu104 O117 2.418 1_545 S
Eu104 O122 2.373 1_655 S
Eu104 O125 2.488 . S
Eu104 O126 2.471 . S
Eu104 O127 2.349 1_655 S
Eu105 O114 2.373 1_455 S
Eu105 O118 2.488 1_556 S
Eu105 O119 2.471 . S
Eu105 O120 2.349 . S
Eu105 O123 2.392 1_565 S
Eu105 O124 2.418 1_565 S
Eu105 C134 2.828 1_556 S
C106 O124 1.244 . S
C106 O127 1.265 . S
C107 C108 1.379 1_655 S
C107 C111 1.373 . S
C107 C113 1.505 . S
C108 C107 1.379 1_455 S
C108 C110 1.369 . S
C108 H136 0.930 . S
C109 C111 1.383 . S
C109 C112 1.386 . S
C109 H137 0.930 . S
C110 C108 1.369 . S
C110 C112 1.389 1_455 S
C110 H138 0.930 . S
C111 C107 1.373 . S
C111 C109 1.383 . S
C111 H139 0.931 . S
C112 C109 1.386 . S
C112 C110 1.389 1_655 S
C113 Eu104 2.828 . S
C113 C107 1.505 . S
C113 O125 1.249 . S
C113 O126 1.244 . S
O114 Eu105 2.373 1_655 S
O114 C116 1.252 1_565 S
O115 Eu104 2.392 . S
O115 C116 1.254 . S
C116 O114 1.252 1_545 S
C116 O115 1.254 . S
O117 Eu104 2.418 1_565 S
O117 C121 1.244 . S
O118 Eu105 2.488 1_554 S
O118 C134 1.249 . S
O119 Eu105 2.471 . S
O119 C134 1.244 1_556 S
O120 Eu105 2.349 . S
O120 C121 1.265 1_455 S
C121 O117 1.244 . S
C121 O120 1.265 1_655 S
O122 Eu104 2.373 1_455 S
O122 C135 1.258 . S
O123 Eu105 2.392 1_545 S
O123 C135 1.242 . S
O124 Eu105 2.418 1_545 S
O124 C106 1.244 . S
O125 Eu104 2.488 . S
O125 C113 1.249 . S
O126 Eu104 2.471 . S
O126 C113 1.244 . S
O127 Eu104 2.349 1_455 S
O127 C106 1.265 . S
C128 C129 1.379 . S
C128 C132 1.373 . S
C128 C134 1.505 . S
C129 C128 1.379 . S
C129 C131 1.369 . S
C129 H140 0.930 . S
C130 C132 1.383 . S
C130 C133 1.382 . S
C130 H141 0.930 . S
C131 C129 1.369 . S
C131 C133 1.392 . S
C131 H142 0.930 1_455 S
C132 C128 1.373 . S
C132 C130 1.383 . S
C132 H143 0.931 . S
C133 C130 1.382 . S
C133 C131 1.392 . S
C134 Eu105 2.828 1_554 S
C134 O118 1.249 . S
C134 O119 1.244 1_554 S
C134 C128 1.505 . S
C135 O122 1.258 . S
C135 O123 1.242 . S
H136 C108 0.930 . S
H137 C109 0.930 . S
H138 C110 0.930 . S
H139 C111 0.931 . S
H140 C129 0.930 . S
H141 C130 0.930 . S
H142 C131 0.930 1_655 S
H143 C132 0.931 . S
Eu144 C153 2.828 . S
Eu144 O155 2.392 . S
Eu144 O157 2.418 . S
Eu144 O162 2.373 . S
Eu144 O165 2.488 . S
Eu144 O166 2.471 . S
Eu144 O167 2.349 1_545 S
Eu145 O154 2.373 1_565 S
Eu145 O158 2.488 . S
Eu145 O159 2.471 1_565 S
Eu145 O160 2.349 1_565 S
Eu145 O163 2.392 . S
Eu145 O164 2.418 . S
Eu145 C174 2.828 . S
C146 O164 1.244 . S
C146 O167 1.265 . S
C147 C148 1.379 . S
C147 C151 1.373 . S
C147 C153 1.505 1_554 S
C148 C147 1.379 . S
C148 C150 1.369 . S
C148 H176 0.930 1_545 S
C149 C151 1.383 . S
C149 C152 1.382 . S
C149 H177 0.930 . S
C150 C148 1.369 . S
C150 C152 1.392 . S
C150 H178 0.930 1_545 S
C151 C147 1.373 . S
C151 C149 1.383 . S
C151 H179 0.931 . S
C152 C149 1.382 . S
C152 C150 1.392 . S
C153 Eu144 2.828 . S
C153 C147 1.505 1_556 S
C153 O165 1.249 . S
C153 O166 1.244 . S
O154 Eu145 2.373 1_545 S
O154 C156 1.258 . S
O155 Eu144 2.392 . S
O155 C156 1.242 . S
C156 O154 1.258 . S
C156 O155 1.242 . S
O157 Eu144 2.418 . S
O157 C161 1.244 . S
O158 Eu145 2.488 . S
O158 C174 1.249 . S
O159 Eu145 2.471 1_545 S
O159 C174 1.244 1_545 S
O160 Eu145 2.349 1_545 S
O160 C161 1.265 . S
C161 O157 1.244 . S
C161 O160 1.265 . S
O162 Eu144 2.373 . S
O162 C175 1.258 1_545 S
O163 Eu145 2.392 . S
O163 C175 1.242 . S
O164 Eu145 2.418 . S
O164 C146 1.244 . S
O165 Eu144 2.488 . S
O165 C153 1.249 . S
O166 Eu144 2.471 . S
O166 C153 1.244 . S
O167 Eu144 2.349 1_565 S
O167 C146 1.265 . S
C168 C169 1.379 1_565 S
C168 C172 1.373 . S
C168 C174 1.505 . S
C169 C168 1.379 1_545 S
C169 C171 1.369 . S
C169 H180 0.930 . S
C170 C172 1.383 . S
C170 C173 1.382 . S
C170 H181 0.930 . S
C171 C169 1.369 . S
C171 C173 1.392 1_545 S
C171 H182 0.930 . S
C172 C168 1.373 . S
C172 C170 1.383 . S
C172 H183 0.931 . S
C173 C170 1.382 . S
C173 C171 1.392 1_565 S
C174 Eu145 2.828 . S
C174 O158 1.249 . S
C174 O159 1.244 1_565 S
C174 C168 1.505 . S
C175 O162 1.258 1_565 S
C175 O163 1.242 . S
H176 C148 0.930 1_565 S
H177 C149 0.930 . S
H178 C150 0.930 1_565 S
H179 C151 0.931 . S
H180 C169 0.930 . S
H181 C170 0.930 . S
H182 C171 0.930 . S
H183 C172 0.931 . S
Eu184 C193 2.828 . S
Eu184 O195 2.392 . S
Eu184 O197 2.418 . S
Eu184 O202 2.373 . S
Eu184 O205 2.488 . S
Eu184 O206 2.471 . S
Eu184 O207 2.349 . S
Eu185 O194 2.373 . S
Eu185 O198 2.488 . S
Eu185 O199 2.471 . S
Eu185 O200 2.349 . S
Eu185 O203 2.392 . S
Eu185 O204 2.418 . S
Eu185 C214 2.828 . S
C186 O204 1.244 . S
C186 O207 1.265 . S
C187 C188 1.379 . S
C187 C191 1.373 . S
C187 C193 1.505 1_554 S
C188 C187 1.379 . S
C188 C190 1.369 . S
C188 H216 0.930 . S
C189 C191 1.383 . S
C189 C192 1.382 . S
C189 H217 0.930 . S
C190 C188 1.369 . S
C190 C192 1.392 . S
C190 H218 0.930 . S
C191 C187 1.373 . S
C191 C189 1.383 . S
C191 H219 0.930 . S
C192 C189 1.382 . S
C192 C190 1.392 . S
C193 Eu184 2.828 . S
C193 C187 1.505 1_556 S
C193 O205 1.249 . S
C193 O206 1.244 . S
O194 Eu185 2.373 . S
O194 C196 1.258 . S
O195 Eu184 2.392 . S
O195 C196 1.242 . S
C196 O194 1.258 . S
C196 O195 1.242 . S
O197 Eu184 2.418 . S
O197 C201 1.244 . S
O198 Eu185 2.488 . S
O198 C214 1.249 . S
O199 Eu185 2.471 . S
O199 C214 1.244 . S
O200 Eu185 2.349 . S
O200 C201 1.265 . S
C201 O197 1.244 . S
C201 O200 1.265 . S
O202 Eu184 2.373 . S
O202 C215 1.258 . S
O203 Eu185 2.392 . S
O203 C215 1.242 . S
O204 Eu185 2.418 . S
O204 C186 1.244 . S
O205 Eu184 2.488 . S
O205 C193 1.249 . S
O206 Eu184 2.471 . S
O206 C193 1.244 . S
O207 Eu184 2.349 . S
O207 C186 1.265 . S
C208 C209 1.379 . S
C208 C212 1.373 . S
C208 C214 1.505 . S
C209 C208 1.379 . S
C209 C211 1.369 . S
C209 H220 0.930 . S
C210 C212 1.383 . S
C210 C213 1.382 . S
C210 H221 0.930 . S
C211 C209 1.369 . S
C211 C213 1.392 . S
C211 H222 0.930 . S
C212 C208 1.373 . S
C212 C210 1.383 . S
C212 H223 0.931 . S
C213 C210 1.382 . S
C213 C211 1.392 . S
C214 Eu185 2.828 . S
C214 O198 1.249 . S
C214 O199 1.244 . S
C214 C208 1.505 . S
C215 O202 1.258 . S
C215 O203 1.242 . S
H216 C188 0.930 . S
H217 C189 0.930 . S
H218 C190 0.930 . S
H219 C191 0.930 . S
H220 C209 0.930 . S
H221 C210 0.930 . S
H222 C211 0.930 . S
H223 C212 0.931 . S
Eu224 C233 2.828 . S
Eu224 O235 2.392 . S
Eu224 O237 2.418 1_455 S
Eu224 O242 2.373 . S
Eu224 O245 2.488 . S
Eu224 O246 2.471 . S
Eu224 O247 2.349 . S
Eu225 O234 2.373 . S
Eu225 O238 2.488 1_556 S
Eu225 O239 2.471 . S
Eu225 O240 2.349 . S
Eu225 O243 2.392 1_655 S
Eu225 O244 2.418 1_655 S
Eu225 C254 2.828 1_556 S
C226 O244 1.244 . S
C226 O247 1.265 . S
C227 C228 1.379 . S
C227 C231 1.373 . S
C227 C233 1.505 . S
C228 C227 1.379 . S
C228 C230 1.369 . S
C228 H256 0.930 . S
C229 C231 1.383 . S
C229 C232 1.382 . S
C229 H257 0.930 . S
C230 C228 1.369 . S
C230 C232 1.392 . S
C230 H258 0.930 . S
C231 C227 1.373 . S
C231 C229 1.383 . S
C231 H259 0.931 . S
C232 C229 1.382 . S
C232 C230 1.392 . S
C233 Eu224 2.828 . S
C233 C227 1.505 . S
C233 O245 1.249 . S
C233 O246 1.244 . S
O234 Eu225 2.373 . S
O234 C236 1.257 1_655 S
O235 Eu224 2.392 . S
O235 C236 1.245 . S
C236 O234 1.257 1_455 S
C236 O235 1.245 . S
O237 Eu224 2.418 1_655 S
O237 C241 1.244 . S
O238 Eu225 2.488 1_554 S
O238 C254 1.249 . S
O239 Eu225 2.471 . S
O239 C254 1.244 1_556 S
O240 Eu225 2.349 . S
O240 C241 1.265 . S
C241 O237 1.244 . S
C241 O240 1.265 . S
O242 Eu224 2.373 . S
O242 C255 1.258 . S
O243 Eu225 2.392 1_455 S
O243 C255 1.242 . S
O244 Eu225 2.418 1_455 S
O244 C226 1.244 . S
O245 Eu224 2.488 . S
O245 C233 1.249 . S
O246 Eu224 2.471 . S
O246 C233 1.244 . S
O247 Eu224 2.349 . S
O247 C226 1.265 . S
C248 C249 1.379 . S
C248 C252 1.373 . S
C248 C254 1.505 . S
C249 C248 1.379 . S
C249 C251 1.369 . S
C249 H260 0.930 . S
C250 C252 1.383 . S
C250 C253 1.382 . S
C250 H261 0.930 . S
C251 C249 1.369 . S
C251 C253 1.392 . S
C251 H262 0.930 . S
C252 C248 1.373 . S
C252 C250 1.383 . S
C252 H263 0.931 . S
C253 C250 1.382 . S
C253 C251 1.392 . S
C254 Eu225 2.828 1_554 S
C254 O238 1.249 . S
C254 O239 1.244 1_554 S
C254 C248 1.505 . S
C255 O242 1.258 . S
C255 O243 1.242 . S
H256 C228 0.930 . S
H257 C229 0.930 . S
H258 C230 0.930 . S
H259 C231 0.931 . S
H260 C249 0.930 . S
H261 C250 0.930 . S
H262 C251 0.930 . S
H263 C252 0.931 . S
H264 C270 0.930 . S
H265 C273 0.930 . S
H266 C274 0.930 . S
H267 C275 0.930 . S
H268 C278 0.930 . S
H269 C279 0.930 . S
C270 H264 0.930 . S
C270 C271 1.355 . S
C270 C272 1.415 . S
C271 C270 1.355 . S
C271 C273 1.419 . S
C272 C270 1.415 . S
C272 C277 1.425 . S
C272 C279 1.409 . S
C273 H265 0.930 . S
C273 C271 1.419 . S
C273 C274 1.362 . S
C274 H266 0.930 . S
C274 C273 1.362 . S
C274 C277 1.409 . S
C275 H267 0.930 . S
C275 C276 1.355 . S
C275 C277 1.415 . S
C276 C275 1.355 . S
C276 C278 1.419 . S
C277 C272 1.425 . S
C277 C274 1.409 . S
C277 C275 1.415 . S
C278 H268 0.930 . S
C278 C276 1.419 . S
C278 C279 1.362 . S
C279 H269 0.930 . S
C279 C272 1.409 . S
C279 C278 1.362 . S
H280 C286 0.930 . S
H281 C289 0.930 . S
H282 C290 0.930 . S
H283 C291 0.930 . S
H284 C294 0.930 . S
H285 C295 0.930 . S
C286 H280 0.930 . S
C286 C287 1.355 . S
C286 C288 1.415 . S
C287 C286 1.355 . S
C287 C289 1.419 . S
C288 C286 1.415 . S
C288 C293 1.425 . S
C288 C295 1.409 . S
C289 H281 0.930 . S
C289 C287 1.419 . S
C289 C290 1.362 . S
C290 H282 0.930 . S
C290 C289 1.362 . S
C290 C293 1.409 . S
C291 H283 0.930 . S
C291 C292 1.355 . S
C291 C293 1.415 . S
C292 C291 1.355 . S
C292 C294 1.419 . S
C293 C288 1.425 . S
C293 C290 1.409 . S
C293 C291 1.415 . S
C294 H284 0.930 . S
C294 C292 1.419 . S
C294 C295 1.362 . S
C295 H285 0.930 . S
C295 C288 1.409 . S
C295 C294 1.362 . S
H296 C302 0.930 . S
H297 C305 0.930 . S
H298 C306 0.930 . S
H299 C307 0.930 . S
H300 C310 0.930 . S
H301 C311 0.930 . S
C302 H296 0.930 . S
C302 C303 1.355 . S
C302 C304 1.415 . S
C303 C302 1.355 . S
C303 C305 1.419 . S
C304 C302 1.415 . S
C304 C309 1.425 . S
C304 C311 1.409 . S
C305 H297 0.930 . S
C305 C303 1.419 . S
C305 C306 1.362 . S
C306 H298 0.930 . S
C306 C305 1.362 . S
C306 C309 1.409 . S
C307 H299 0.930 . S
C307 C308 1.355 . S
C307 C309 1.415 . S
C308 C307 1.355 . S
C308 C310 1.419 . S
C309 C304 1.425 . S
C309 C306 1.409 . S
C309 C307 1.415 . S
C310 H300 0.930 . S
C310 C308 1.419 . S
C310 C311 1.362 . S
C311 H301 0.930 . S
C311 C304 1.409 . S
C311 C310 1.362 . S
H312 C318 0.930 . S
H313 C321 0.930 . S
H314 C322 0.930 . S
H315 C323 0.930 . S
H316 C326 0.930 . S
H317 C327 0.930 . S
C318 H312 0.930 . S
C318 C319 1.355 . S
C318 C320 1.415 . S
C319 C318 1.355 . S
C319 C321 1.419 . S
C320 C318 1.415 . S
C320 C325 1.425 . S
C320 C327 1.409 . S
C321 H313 0.930 . S
C321 C319 1.419 . S
C321 C322 1.362 . S
C322 H314 0.930 . S
C322 C321 1.362 . S
C322 C325 1.409 . S
C323 H315 0.930 . S
C323 C324 1.355 . S
C323 C325 1.415 . S
C324 C323 1.355 . S
C324 C326 1.419 . S
C325 C320 1.425 . S
C325 C322 1.409 . S
C325 C323 1.415 . S
C326 H316 0.930 . S
C326 C324 1.419 . S
C326 C327 1.362 . S
C327 H317 0.930 . S
C327 C320 1.409 . S
C327 C326 1.362 . S
H328 C334 0.930 . S
H329 C337 0.930 . S
H330 C338 0.930 . S
H331 C339 0.930 1_556 S
H332 C342 0.926 1_545 S
H333 C343 0.930 . S
C334 H328 0.930 . S
C334 C335 1.355 . S
C334 C336 1.415 . S
C335 C334 1.355 . S
C335 C337 1.419 . S
C336 C334 1.415 . S
C336 C341 1.425 . S
C336 C343 1.409 . S
C337 H329 0.930 . S
C337 C335 1.419 . S
C337 C338 1.362 . S
C338 H330 0.930 . S
C338 C337 1.362 . S
C338 C341 1.409 . S
C339 H331 0.930 1_554 S
C339 C340 1.355 . S
C339 C341 1.415 . S
C340 C339 1.355 . S
C340 C342 1.419 . S
C341 C336 1.425 . S
C341 C338 1.409 . S
C341 C339 1.415 . S
C342 H332 0.926 1_565 S
C342 C340 1.419 . S
C342 C343 1.362 . S
C343 H333 0.930 . S
C343 C336 1.409 . S
C343 C342 1.362 . S
H344 C350 0.930 . S
H345 C353 0.930 . S
H346 C354 0.930 . S
H347 C355 0.930 1_556 S
H348 C358 0.930 . S
H349 C359 0.930 . S
C350 H344 0.930 . S
C350 C351 1.355 . S
C350 C352 1.415 . S
C351 C350 1.355 . S
C351 C353 1.419 . S
C352 C350 1.415 . S
C352 C357 1.425 . S
C352 C359 1.409 . S
C353 H345 0.930 . S
C353 C351 1.419 . S
C353 C354 1.362 . S
C354 H346 0.930 . S
C354 C353 1.362 . S
C354 C357 1.409 . S
C355 H347 0.930 1_554 S
C355 C356 1.355 1_554 S
C355 C357 1.415 . S
C356 C355 1.355 1_556 S
C356 C358 1.419 1_556 S
C357 C352 1.425 . S
C357 C354 1.409 . S
C357 C355 1.415 . S
C358 H348 0.930 . S
C358 C356 1.419 1_554 S
C358 C359 1.362 . S
C359 H349 0.930 . S
C359 C352 1.409 . S
C359 C358 1.362 . S
H360 C366 0.930 . S
H361 C369 0.930 . S
H362 C370 0.930 . S
H363 C371 0.930 . S
H364 C374 0.930 . S
H365 C375 0.930 . S
C366 H360 0.930 . S
C366 C367 1.355 . S
C366 C368 1.415 . S
C367 C366 1.355 . S
C367 C369 1.419 . S
C368 C366 1.415 . S
C368 C373 1.425 . S
C368 C375 1.409 . S
C369 H361 0.930 . S
C369 C367 1.419 . S
C369 C370 1.362 . S
C370 H362 0.930 . S
C370 C369 1.362 . S
C370 C373 1.409 . S
C371 H363 0.930 . S
C371 C372 1.355 . S
C371 C373 1.415 1_556 S
C372 C371 1.355 . S
C372 C374 1.419 1_556 S
C373 C368 1.425 . S
C373 C370 1.409 . S
C373 C371 1.415 1_554 S
C374 H364 0.930 . S
C374 C372 1.419 1_554 S
C374 C375 1.362 . S
C375 H365 0.930 . S
C375 C368 1.409 . S
C375 C374 1.362 . S
H376 C382 0.930 . S
H377 C385 0.929 1_455 S
H378 C386 0.930 . S
H379 C387 0.930 1_456 S
H380 C390 0.930 . S
H381 C391 0.930 . S
C382 H376 0.930 . S
C382 C383 1.355 . S
C382 C384 1.415 . S
C383 C382 1.355 . S
C383 C385 1.419 . S
C384 C382 1.415 . S
C384 C389 1.425 . S
C384 C391 1.409 . S
C385 H377 0.929 1_655 S
C385 C383 1.419 . S
C385 C386 1.362 1_655 S
C386 H378 0.930 . S
C386 C385 1.362 1_455 S
C386 C389 1.409 1_455 S
C387 H379 0.930 1_654 S
C387 C388 1.355 . S
C387 C389 1.415 . S
C388 C387 1.355 . S
C388 C390 1.419 . S
C389 C384 1.425 . S
C389 C386 1.409 1_655 S
C389 C387 1.415 . S
C390 H380 0.930 . S
C390 C388 1.419 . S
C390 C391 1.362 . S
C391 H381 0.930 . S
C391 C384 1.409 . S
C391 C390 1.362 . S
H392 C398 0.930 . S
H393 C401 0.930 . S
H394 C402 0.930 . S
H395 C403 0.930 1_655 S
H396 C406 0.930 . S
H397 C407 0.930 . S
C398 H392 0.930 . S
C398 C399 1.355 . S
C398 C400 1.415 . S
C399 C398 1.355 . S
C399 C401 1.419 . S
C400 C398 1.415 . S
C400 C405 1.425 . S
C400 C407 1.409 . S
C401 H393 0.930 . S
C401 C399 1.419 . S
C401 C402 1.362 . S
C402 H394 0.930 . S
C402 C401 1.362 . S
C402 C405 1.409 . S
C403 H395 0.930 1_455 S
C403 C404 1.355 . S
C403 C405 1.415 . S
C404 C403 1.355 . S
C404 C406 1.419 . S
C405 C400 1.425 . S
C405 C402 1.409 . S
C405 C403 1.415 . S
C406 H396 0.930 . S
C406 C404 1.419 . S
C406 C407 1.362 . S
C407 H397 0.930 . S
C407 C400 1.409 . S
C407 C406 1.362 . S
H408 C414 0.930 . S
H409 C417 0.930 . S
H410 C418 0.930 . S
H411 C419 0.932 . S
H412 C422 0.930 . S
H413 C423 0.930 . S
C414 H408 0.930 . S
C414 C415 1.355 . S
C414 C416 1.415 . S
C415 C414 1.355 . S
C415 C417 1.419 . S
C416 C414 1.415 . S
C416 C421 1.425 . S
C416 C423 1.409 1_545 S
C417 H409 0.930 . S
C417 C415 1.419 . S
C417 C418 1.362 . S
C418 H410 0.930 . S
C418 C417 1.362 . S
C418 C421 1.409 . S
C419 H411 0.932 . S
C419 C420 1.355 . S
C419 C421 1.415 1_565 S
C420 C419 1.355 . S
C420 C422 1.419 . S
C421 C416 1.425 . S
C421 C418 1.409 . S
C421 C419 1.415 1_545 S
C422 H412 0.930 . S
C422 C420 1.419 . S
C422 C423 1.362 . S
C423 H413 0.930 . S
C423 C416 1.409 1_565 S
C423 C422 1.362 . S
H424 C430 0.930 . S
H425 C433 0.930 . S
H426 C434 0.930 . S
H427 C435 0.930 . S
H428 C438 0.930 . S
H429 C439 0.930 . S
C430 H424 0.930 . S
C430 C431 1.355 . S
C430 C432 1.415 . S
C431 C430 1.355 . S
C431 C433 1.419 . S
C432 C430 1.415 . S
C432 C437 1.425 . S
C432 C439 1.409 . S
C433 H425 0.930 . S
C433 C431 1.419 . S
C433 C434 1.362 . S
C434 H426 0.930 . S
C434 C433 1.362 . S
C434 C437 1.409 . S
C435 H427 0.930 . S
C435 C436 1.355 . S
C435 C437 1.415 . S
C436 C435 1.355 . S
C436 C438 1.419 . S
C437 C432 1.425 . S
C437 C434 1.409 . S
C437 C435 1.415 . S
C438 H428 0.930 . S
C438 C436 1.419 . S
C438 C439 1.362 . S
C439 H429 0.930 . S
C439 C432 1.409 . S
C439 C438 1.362 . S
H440 C446 0.930 . S
H441 C449 0.930 . S
H442 C450 0.930 . S
H443 C451 0.930 . S
H444 C454 0.930 . S
H445 C455 0.930 . S
C446 H440 0.930 . S
C446 C447 1.355 . S
C446 C448 1.415 . S
C447 C446 1.355 . S
C447 C449 1.419 . S
C448 C446 1.415 . S
C448 C453 1.425 . S
C448 C455 1.409 . S
C449 H441 0.930 . S
C449 C447 1.419 . S
C449 C450 1.362 . S
C450 H442 0.930 . S
C450 C449 1.362 . S
C450 C453 1.409 . S
C451 H443 0.930 . S
C451 C452 1.355 . S
C451 C453 1.415 . S
C452 C451 1.355 . S
C452 C454 1.419 . S
C453 C448 1.425 . S
C453 C450 1.409 . S
C453 C451 1.415 . S
C454 H444 0.930 . S
C454 C452 1.419 . S
C454 C455 1.362 . S
C455 H445 0.930 . S
C455 C448 1.409 . S
C455 C454 1.362 . S
H456 C462 0.930 . S
H457 C465 0.930 . S
H458 C466 0.930 . S
H459 C467 0.930 . S
H460 C470 0.930 . S
H461 C471 0.930 . S
C462 H456 0.930 . S
C462 C463 1.355 . S
C462 C464 1.415 . S
C463 C462 1.355 . S
C463 C465 1.419 1_655 S
C464 C462 1.415 . S
C464 C469 1.425 1_655 S
C464 C471 1.409 . S
C465 H457 0.930 . S
C465 C463 1.419 1_455 S
C465 C466 1.362 . S
C466 H458 0.930 . S
C466 C465 1.362 . S
C466 C469 1.409 . S
C467 H459 0.930 . S
C467 C468 1.355 . S
C467 C469 1.415 . S
C468 C467 1.355 . S
C468 C470 1.419 1_455 S
C469 C464 1.425 1_455 S
C469 C466 1.409 . S
C469 C467 1.415 . S
C470 H460 0.930 . S
C470 C468 1.419 1_655 S
C470 C471 1.362 . S
C471 H461 0.930 . S
C471 C464 1.409 . S
C471 C470 1.362 . S
H472 C478 0.930 . S
H473 C481 0.930 . S
H474 C482 0.930 . S
H475 C483 0.930 1_565 S
H476 C486 0.930 . S
H477 C487 0.930 . S
C478 H472 0.930 . S
C478 C479 1.355 1_545 S
C478 C480 1.415 . S
C479 C478 1.355 1_565 S
C479 C481 1.419 . S
C480 C478 1.415 . S
C480 C485 1.441 . S
C480 C487 1.409 . S
C481 H473 0.930 . S
C481 C479 1.419 . S
C481 C482 1.362 . S
C482 H474 0.930 . S
C482 C481 1.362 . S
C482 C485 1.387 1_565 S
C483 H475 0.930 1_545 S
C483 C484 1.355 . S
C483 C485 1.422 . S
C484 C483 1.355 . S
C484 C486 1.419 . S
C485 C480 1.441 . S
C485 C482 1.387 1_545 S
C485 C483 1.422 . S
C486 H476 0.930 . S
C486 C484 1.419 . S
C486 C487 1.362 . S
C487 H477 0.930 . S
C487 C480 1.409 . S
C487 C486 1.362 . S
H488 C494 0.930 . S
H489 C497 0.930 . S
H490 C498 0.930 . S
H491 C499 0.930 . S
H492 C502 0.930 . S
H493 C503 0.930 . S
C494 H488 0.930 . S
C494 C495 1.355 . S
C494 C496 1.415 . S
C495 C494 1.355 . S
C495 C497 1.419 . S
C496 C494 1.415 . S
C496 C501 1.425 . S
C496 C503 1.409 . S
C497 H489 0.930 . S
C497 C495 1.419 . S
C497 C498 1.362 . S
C498 H490 0.930 . S
C498 C497 1.362 . S
C498 C501 1.409 . S
C499 H491 0.930 . S
C499 C500 1.355 . S
C499 C501 1.415 . S
C500 C499 1.355 . S
C500 C502 1.419 . S
C501 C496 1.425 . S
C501 C498 1.409 . S
C501 C499 1.415 . S
C502 H492 0.930 . S
C502 C500 1.419 . S
C502 C503 1.362 . S
C503 H493 0.930 . S
C503 C496 1.409 . S
C503 C502 1.362 . S
H504 C510 0.930 . S
H505 C513 0.930 . S
H506 C514 0.930 . S
H507 C515 0.930 . S
H508 C518 0.930 . S
H509 C519 0.930 . S
C510 H504 0.930 . S
C510 C511 1.355 . S
C510 C512 1.415 . S
C511 C510 1.355 . S
C511 C513 1.419 . S
C512 C510 1.415 . S
C512 C517 1.425 . S
C512 C519 1.409 . S
C513 H505 0.930 . S
C513 C511 1.419 . S
C513 C514 1.362 . S
C514 H506 0.930 . S
C514 C513 1.362 . S
C514 C517 1.409 . S
C515 H507 0.930 . S
C515 C516 1.355 . S
C515 C517 1.415 . S
C516 C515 1.355 . S
C516 C518 1.419 . S
C517 C512 1.425 . S
C517 C514 1.409 . S
C517 C515 1.415 . S
C518 H508 0.930 . S
C518 C516 1.419 . S
C518 C519 1.362 . S
C519 H509 0.930 . S
C519 C512 1.409 . S
C519 C518 1.362 . S
H520 C526 0.930 . S
H521 C529 0.930 . S
H522 C530 0.930 . S
H523 C531 0.930 1_554 S
H524 C534 0.930 . S
H525 C535 0.930 . S
C526 H520 0.930 . S
C526 C527 1.355 . S
C526 C528 1.415 . S
C527 C526 1.355 . S
C527 C529 1.419 1_556 S
C528 C526 1.415 . S
C528 C533 1.425 . S
C528 C535 1.409 . S
C529 H521 0.930 . S
C529 C527 1.419 1_554 S
C529 C530 1.362 . S
C530 H522 0.930 . S
C530 C529 1.362 . S
C530 C533 1.409 1_554 S
C531 H523 0.930 1_556 S
C531 C532 1.355 . S
C531 C533 1.415 . S
C532 C531 1.355 . S
C532 C534 1.419 . S
C533 C528 1.425 . S
C533 C530 1.409 1_556 S
C533 C531 1.415 . S
C534 H524 0.930 . S
C534 C532 1.419 . S
C534 C535 1.362 . S
C535 H525 0.930 . S
C535 C528 1.409 . S
C535 C534 1.362 . S
H536 C542 0.930 . S
H537 C545 0.930 1_554 S
H538 C546 0.930 1_554 S
H539 C547 0.930 . S
H540 C550 0.930 . S
H541 C551 0.930 . S
C542 H536 0.930 . S
C542 C543 1.355 . S
C542 C544 1.415 . S
C543 C542 1.355 . S
C543 C545 1.419 . S
C544 C542 1.415 . S
C544 C549 1.425 . S
C544 C551 1.409 . S
C545 H537 0.930 1_556 S
C545 C543 1.419 . S
C545 C546 1.362 . S
C546 H538 0.930 1_556 S
C546 C545 1.362 . S
C546 C549 1.409 . S
C547 H539 0.930 . S
C547 C548 1.355 . S
C547 C549 1.415 . S
C548 C547 1.355 . S
C548 C550 1.419 . S
C549 C544 1.425 . S
C549 C546 1.409 . S
C549 C547 1.415 . S
C550 H540 0.930 . S
C550 C548 1.419 . S
C550 C551 1.362 . S
C551 H541 0.930 . S
C551 C544 1.409 . S
C551 C550 1.362 . S
H552 C558 0.930 1_554 S
H553 C561 0.930 . S
H554 C562 0.930 . S
H555 C563 0.930 . S
H556 C566 0.930 . S
H557 C567 0.930 1_554 S
C558 H552 0.930 1_556 S
C558 C559 1.355 . S
C558 C560 1.415 . S
C559 C558 1.355 . S
C559 C561 1.419 . S
C560 C558 1.415 . S
C560 C565 1.425 . S
C560 C567 1.409 . S
C561 H553 0.930 . S
C561 C559 1.419 . S
C561 C562 1.362 . S
C562 H554 0.930 . S
C562 C561 1.362 . S
C562 C565 1.409 . S
C563 H555 0.930 . S
C563 C564 1.355 . S
C563 C565 1.415 . S
C564 C563 1.355 . S
C564 C566 1.419 . S
C565 C560 1.425 . S
C565 C562 1.409 . S
C565 C563 1.415 . S
C566 H556 0.930 . S
C566 C564 1.419 . S
C566 C567 1.362 . S
C567 H557 0.930 1_556 S
C567 C560 1.409 . S
C567 C566 1.362 . S
H568 C574 0.930 . S
H569 C577 0.930 . S
H570 C578 0.930 . S
H571 C579 0.930 . S
H572 C582 0.930 1_554 S
H573 C583 0.930 . S
C574 H568 0.930 . S
C574 C575 1.355 1_554 S
C574 C576 1.415 1_554 S
C575 C574 1.355 1_556 S
C575 C577 1.419 . S
C576 C574 1.415 1_556 S
C576 C581 1.425 . S
C576 C583 1.409 1_556 S
C577 H569 0.930 . S
C577 C575 1.419 . S
C577 C578 1.362 . S
C578 H570 0.930 . S
C578 C577 1.362 . S
C578 C581 1.409 . S
C579 H571 0.930 . S
C579 C580 1.355 . S
C579 C581 1.415 . S
C580 C579 1.355 . S
C580 C582 1.419 . S
C581 C576 1.425 . S
C581 C578 1.409 . S
C581 C579 1.415 . S
C582 H572 0.930 1_556 S
C582 C580 1.419 . S
C582 C583 1.362 1_556 S
C583 H573 0.930 . S
C583 C576 1.409 1_554 S
C583 C582 1.362 1_554 S
H584 C590 0.930 . S
H585 C593 0.930 . S
H586 C594 0.930 . S
H587 C595 0.930 . S
H588 C598 0.930 . S
H589 C599 0.930 . S
C590 H584 0.930 . S
C590 C591 1.355 . S
C590 C592 1.415 . S
C591 C590 1.355 . S
C591 C593 1.419 1_655 S
C592 C590 1.415 . S
C592 C597 1.425 . S
C592 C599 1.409 . S
C593 H585 0.930 . S
C593 C591 1.419 1_455 S
C593 C594 1.362 . S
C594 H586 0.930 . S
C594 C593 1.362 . S
C594 C597 1.409 1_455 S
C595 H587 0.930 . S
C595 C596 1.355 1_455 S
C595 C597 1.415 1_455 S
C596 C595 1.355 1_655 S
C596 C598 1.419 . S
C597 C592 1.425 . S
C597 C594 1.409 1_655 S
C597 C595 1.415 1_655 S
C598 H588 0.930 . S
C598 C596 1.419 . S
C598 C599 1.362 . S
C599 H589 0.930 . S
C599 C592 1.409 . S
C599 C598 1.362 . S
H600 C606 0.930 . S
H601 C609 0.930 . S
H602 C610 0.930 . S
H603 C611 0.930 1_545 S
H604 C614 0.930 . S
H605 C615 0.930 . S
C606 H600 0.930 . S
C606 C607 1.355 . S
C606 C608 1.415 . S
C607 C606 1.355 . S
C607 C609 1.419 1_565 S
C608 C606 1.415 . S
C608 C613 1.425 . S
C608 C615 1.409 . S
C609 H601 0.930 . S
C609 C607 1.419 1_545 S
C609 C610 1.362 . S
C610 H602 0.930 . S
C610 C609 1.362 . S
C610 C613 1.409 1_545 S
C611 H603 0.930 1_565 S
C611 C612 1.355 . S
C611 C613 1.415 . S
C612 C611 1.355 . S
C612 C614 1.419 . S
C613 C608 1.425 . S
C613 C610 1.409 1_565 S
C613 C611 1.415 . S
C614 H604 0.930 . S
C614 C612 1.419 . S
C614 C615 1.362 . S
C615 H605 0.930 . S
C615 C608 1.409 . S
C615 C614 1.362 . S
H616 C622 0.930 . S
H617 C625 0.930 . S
H618 C626 0.930 . S
H619 C627 0.930 . S
H620 C630 0.930 . S
H621 C631 0.930 . S
C622 H616 0.930 . S
C622 C623 1.355 . S
C622 C624 1.415 . S
C623 C622 1.355 . S
C623 C625 1.419 . S
C624 C622 1.415 . S
C624 C629 1.425 . S
C624 C631 1.409 . S
C625 H617 0.930 . S
C625 C623 1.419 . S
C625 C626 1.362 . S
C626 H618 0.930 . S
C626 C625 1.362 . S
C626 C629 1.409 . S
C627 H619 0.930 . S
C627 C628 1.355 . S
C627 C629 1.415 . S
C628 C627 1.355 . S
C628 C630 1.419 . S
C629 C624 1.425 . S
C629 C626 1.409 . S
C629 C627 1.415 . S
C630 H620 0.930 . S
C630 C628 1.419 . S
C630 C631 1.362 . S
C631 H621 0.930 . S
C631 C624 1.409 . S
C631 C630 1.362 . S
H632 C638 0.930 . S
H633 C641 0.930 . S
H634 C642 0.930 . S
H635 C643 0.930 . S
H636 C646 0.930 . S
H637 C647 0.930 . S
C638 H632 0.930 . S
C638 C639 1.355 . S
C638 C640 1.415 . S
C639 C638 1.355 . S
C639 C641 1.419 . S
C640 C638 1.415 . S
C640 C645 1.425 . S
C640 C647 1.409 . S
C641 H633 0.930 . S
C641 C639 1.419 . S
C641 C642 1.362 . S
C642 H634 0.930 . S
C642 C641 1.362 . S
C642 C645 1.409 . S
C643 H635 0.930 . S
C643 C644 1.355 . S
C643 C645 1.415 . S
C644 C643 1.355 . S
C644 C646 1.419 . S
C645 C640 1.425 . S
C645 C642 1.409 . S
C645 C643 1.415 . S
C646 H636 0.930 . S
C646 C644 1.419 . S
C646 C647 1.362 . S
C647 H637 0.930 . S
C647 C640 1.409 . S
C647 C646 1.362 . S
C271 N80 2.173 . S
C276 C135 2.316 . S
C292 C161 2.005 . S
C287 N93 1.853 . S
C308 C201 2.033 . S
C303 N54 1.914 . S
C324 C255 2.349 . S
C319 N67 2.217 . S
C340 C116 2.314 1_564 S
C335 N28 2.169 . S
C351 N41 1.863 . S
C356 C146 2.007 . S
C367 N2 1.896 . S
C372 C186 2.040 . S
C383 N15 2.227 . S
C388 C236 2.353 1_654 S
C404 C112 0.722 1_455 S
C399 N70 0.638 . S
C420 C173 0.655 . S
C415 N83 0.649 . S
C436 C213 0.533 . S
C431 N96 0.530 . S
C447 N57 0.506 . S
C452 C232 0.538 . S
C463 N18 0.634 . S
C468 C133 0.718 . S
C484 C152 0.774 . S
C479 N31 0.778 . S
C500 C192 0.646 . S
C495 N44 0.620 . S
C511 N5 0.545 . S
C516 C253 0.509 . S
C527 N66 2.052 1_556 S
C532 C106 2.203 . S
C543 N79 2.479 . S
C548 C156 2.598 . S
C564 C196 2.426 . S
C559 N92 2.364 1_556 S
C580 C226 2.022 . S
C575 N53 1.937 1_556 S
C591 N14 2.072 . S
C596 C121 2.203 . S
C612 C175 2.599 . S
C607 N27 2.518 . S
C628 C215 2.424 . S
C623 N40 2.353 . S
C639 N1 1.942 . S
C644 C241 2.020 . S
