# Generated by pormake.
# Topology wbl, (4,4)-cn, num edge types: 1
# Building blocks:
#     Node 0, Type 0, BuildingBlock: NAWXER_clean_linker_0, # of connection points: 4
#     Node 1, Type 0, BuildingBlock: NAWXER_clean_linker_0, # of connection points: 4
#     Node 2, Type 0, BuildingBlock: NAWXER_clean_linker_0, # of connection points: 4
#     Node 3, Type 0, BuildingBlock: NAWXER_clean_linker_0, # of connection points: 4
#     Node 4, Type 0, BuildingBlock: NAWXER_clean_linker_0, # of connection points: 4
#     Node 5, Type 0, BuildingBlock: NAWXER_clean_linker_0, # of connection points: 4
#     Node 6, Type 0, BuildingBlock: NAWXER_clean_linker_0, # of connection points: 4
#     Node 7, Type 0, BuildingBlock: NAWXER_clean_linker_0, # of connection points: 4
#     Node 8, Type 1, BuildingBlock: CEKHIL_clean_sbu_0, # of connection points: 4
#     Node 9, Type 1, BuildingBlock: CEKHIL_clean_sbu_0, # of connection points: 4
#     Node 10, Type 1, BuildingBlock: CEKHIL_clean_sbu_0, # of connection points: 4
#     Node 11, Type 1, BuildingBlock: CEKHIL_clean_sbu_0, # of connection points: 4
#     Node 12, Type 1, BuildingBlock: CEKHIL_clean_sbu_0, # of connection points: 4
#     Node 13, Type 1, BuildingBlock: CEKHIL_clean_sbu_0, # of connection points: 4
#     Node 14, Type 1, BuildingBlock: CEKHIL_clean_sbu_0, # of connection points: 4
#     Node 15, Type 1, BuildingBlock: CEKHIL_clean_sbu_0, # of connection points: 4
#     Edge 16, Type (0, 1), BuildingBlock: XIVTED_clean_linker_0, # of connection points: 2
#     Edge 17, Type (0, 1), BuildingBlock: XIVTED_clean_linker_0, # of connection points: 2
#     Edge 18, Type (0, 1), BuildingBlock: XIVTED_clean_linker_0, # of connection points: 2
#     Edge 19, Type (0, 1), BuildingBlock: XIVTED_clean_linker_0, # of connection points: 2
#     Edge 20, Type (0, 1), BuildingBlock: XIVTED_clean_linker_0, # of connection points: 2
#     Edge 21, Type (0, 1), BuildingBlock: XIVTED_clean_linker_0, # of connection points: 2
#     Edge 22, Type (0, 1), BuildingBlock: XIVTED_clean_linker_0, # of connection points: 2
#     Edge 23, Type (0, 1), BuildingBlock: XIVTED_clean_linker_0, # of connection points: 2
#     Edge 24, Type (0, 1), BuildingBlock: XIVTED_clean_linker_0, # of connection points: 2
#     Edge 25, Type (0, 1), BuildingBlock: XIVTED_clean_linker_0, # of connection points: 2
#     Edge 26, Type (0, 1), BuildingBlock: XIVTED_clean_linker_0, # of connection points: 2
#     Edge 27, Type (0, 1), BuildingBlock: XIVTED_clean_linker_0, # of connection points: 2
#     Edge 28, Type (0, 1), BuildingBlock: XIVTED_clean_linker_0, # of connection points: 2
#     Edge 29, Type (0, 1), BuildingBlock: XIVTED_clean_linker_0, # of connection points: 2
#     Edge 30, Type (0, 1), BuildingBlock: XIVTED_clean_linker_0, # of connection points: 2
#     Edge 31, Type (0, 1), BuildingBlock: XIVTED_clean_linker_0, # of connection points: 2
#     Edge 32, Type (0, 1), BuildingBlock: XIVTED_clean_linker_0, # of connection points: 2
#     Edge 33, Type (0, 1), BuildingBlock: XIVTED_clean_linker_0, # of connection points: 2
#     Edge 34, Type (0, 1), BuildingBlock: XIVTED_clean_linker_0, # of connection points: 2
#     Edge 35, Type (0, 1), BuildingBlock: XIVTED_clean_linker_0, # of connection points: 2
#     Edge 36, Type (0, 1), BuildingBlock: XIVTED_clean_linker_0, # of connection points: 2
#     Edge 37, Type (0, 1), BuildingBlock: XIVTED_clean_linker_0, # of connection points: 2
#     Edge 38, Type (0, 1), BuildingBlock: XIVTED_clean_linker_0, # of connection points: 2
#     Edge 39, Type (0, 1), BuildingBlock: XIVTED_clean_linker_0, # of connection points: 2
#     Edge 40, Type (0, 1), BuildingBlock: XIVTED_clean_linker_0, # of connection points: 2
#     Edge 41, Type (0, 1), BuildingBlock: XIVTED_clean_linker_0, # of connection points: 2
#     Edge 42, Type (0, 1), BuildingBlock: XIVTED_clean_linker_0, # of connection points: 2
#     Edge 43, Type (0, 1), BuildingBlock: XIVTED_clean_linker_0, # of connection points: 2
#     Edge 44, Type (0, 1), BuildingBlock: XIVTED_clean_linker_0, # of connection points: 2
#     Edge 45, Type (0, 1), BuildingBlock: XIVTED_clean_linker_0, # of connection points: 2
#     Edge 46, Type (0, 1), BuildingBlock: XIVTED_clean_linker_0, # of connection points: 2
#     Edge 47, Type (0, 1), BuildingBlock: XIVTED_clean_linker_0, # of connection points: 2
# Relax obj value: 0.169
# Max RMSD: 0.172
# Mean RMSD: 0.145
data_MOF--net-wbl--node1-CEKHIL_clean_sbu_0--node2-NAWXER_clean_linker_0--edge1-XIVTED_clean_linker_0
_symmetry_space_group_name_H-M    P1
_symmetry_Int_Tables_number       1
_symmetry_cell_setting            triclinic
loop_
_symmetry_equiv_pos_as_xyz
'x, y, z'
_cell_length_a     44.810796
_cell_length_b     45.008389
_cell_length_c     78.643587
_cell_angle_alpha  90.289787
_cell_angle_beta   90.109584
_cell_angle_gamma 90.004206
loop_
_atom_site_label
_atom_site_type_symbol
_atom_site_fract_x
_atom_site_fract_y
_atom_site_fract_z
_atom_type_partial_charge
C0 C 0.10785 0.96945 0.35887 0.0
C1 C 0.12712 0.98559 0.36966 0.0
C2 C 0.09051 0.98411 0.34672 0.0
C3 C 0.09204 0.01512 0.34519 0.0
C4 C 0.12973 0.01648 0.36736 0.0
C5 C 0.11207 0.03111 0.35541 0.0
C6 C 0.07075 0.03131 0.33431 0.0
C7 C 0.13767 0.99322 0.29859 0.0
C8 C 0.12708 0.96744 0.29047 0.0
C9 C 0.11809 0.01201 0.30715 0.0
C10 C 0.08755 0.00548 0.30762 0.0
C11 C 0.09647 0.96078 0.29097 0.0
C12 C 0.07671 0.97998 0.29934 0.0
C13 C 0.06729 0.02554 0.31682 0.0
C14 C 0.98571 0.12602 0.29613 0.0
C15 C 0.96532 0.11071 0.28569 0.0
C16 C 0.00716 0.11043 0.30541 0.0
C17 C 0.00837 0.07926 0.30452 0.0
C18 C 0.96777 0.07963 0.28413 0.0
C19 C 0.98922 0.0641 0.29338 0.0
C20 C 0.02914 0.06227 0.31532 0.0
C21 C 0.96298 0.10078 0.35321 0.0
C22 C 0.97589 0.11788 0.36627 0.0
C23 C 0.98113 0.08543 0.34167 0.0
C24 C 0.0124 0.08747 0.34287 0.0
C25 C 0.00705 0.12106 0.36688 0.0
C26 C 0.02511 0.10596 0.35532 0.0
C27 C 0.03208 0.06749 0.33298 0.0
H28 H 0.10494 0.94574 0.36039 0.0
H29 H 0.07482 0.9714 0.33911 0.0
H30 H 0.14482 0.02955 0.37513 0.0
H31 H 0.11362 0.05506 0.35437 0.0
H32 H 0.16123 0.99863 0.29852 0.0
H33 H 0.12677 0.03172 0.31339 0.0
H34 H 0.0879 0.941 0.28476 0.0
H35 H 0.05312 0.97473 0.2996 0.0
H36 H 0.98473 0.14997 0.29738 0.0
H37 H 0.02241 0.12266 0.31353 0.0
H38 H 0.9522 0.06704 0.2764 0.0
H39 H 0.98998 0.04009 0.2924 0.0
H40 H 0.93902 0.09774 0.35262 0.0
H41 H 0.97075 0.07072 0.33247 0.0
H42 H 0.01751 0.1343 0.37678 0.0
H43 H 0.04914 0.1078 0.35653 0.0
N44 N 0.053 0.05198 0.34173 0.0
N45 N 0.0467 0.04124 0.30789 0.0
C46 C 0.93236 0.47653 0.60818 0.0
C47 C 0.94818 0.45958 0.62016 0.0
C48 C 0.94764 0.49427 0.59653 0.0
C49 C 0.97897 0.49512 0.59659 0.0
C50 C 0.97956 0.45975 0.61975 0.0
C51 C 0.99477 0.47753 0.60817 0.0
C52 C 0.99548 0.51585 0.58555 0.0
C53 C 0.95388 0.4468 0.5535 0.0
C54 C 0.9324 0.45721 0.54201 0.0
C55 C 0.97353 0.4665 0.56136 0.0
C56 C 0.97138 0.49718 0.55837 0.0
C57 C 0.93125 0.48761 0.53817 0.0
C58 C 0.95058 0.50754 0.54638 0.0
C59 C 0.99073 0.5182 0.56784 0.0
C60 C 0.08726 0.60642 0.549 0.0
C61 C 0.07097 0.62617 0.53874 0.0
C62 C 0.07283 0.58341 0.55751 0.0
C63 C 0.04174 0.5801 0.55627 0.0
C64 C 0.04015 0.6214 0.53656 0.0
C65 C 0.02569 0.59856 0.54525 0.0
C66 C 0.02576 0.55813 0.56679 0.0
C67 C 0.06603 0.6231 0.60524 0.0
C68 C 0.08612 0.60967 0.61664 0.0
C69 C 0.04861 0.60567 0.59425 0.0
C70 C 0.05114 0.57454 0.59442 0.0
C71 C 0.08894 0.57853 0.61644 0.0
C72 C 0.07158 0.56122 0.60552 0.0
C73 C 0.03075 0.55534 0.58446 0.0
H74 H 0.9082 0.47721 0.60832 0.0
H75 H 0.93498 0.50811 0.5879 0.0
H76 H 0.99238 0.44662 0.62866 0.0
H77 H 0.01895 0.47784 0.60841 0.0
H78 H 0.95564 0.4233 0.55626 0.0
H79 H 0.99027 0.45771 0.56992 0.0
H80 H 0.91508 0.49592 0.52911 0.0
H81 H 0.94888 0.53105 0.54366 0.0
H82 H 0.11097 0.60936 0.55104 0.0
H83 H 0.08589 0.56875 0.56548 0.0
H84 H 0.02704 0.63568 0.5284 0.0
H85 H 0.00176 0.59602 0.54384 0.0
H86 H 0.06336 0.64701 0.60506 0.0
H87 H 0.03253 0.61642 0.58603 0.0
H88 H 0.10364 0.56732 0.62527 0.0
H89 H 0.07365 0.53725 0.60601 0.0
N90 N 0.01546 0.53428 0.59309 0.0
N91 N 0.00581 0.53951 0.55913 0.0
C92 C 0.54378 0.4216 0.86024 0.0
C93 C 0.56409 0.43268 0.87232 0.0
C94 C 0.52906 0.44096 0.84923 0.0
C95 C 0.53419 0.47168 0.8503 0.0
C96 C 0.56948 0.46339 0.87322 0.0
C97 C 0.55433 0.48279 0.86242 0.0
C98 C 0.51796 0.49234 0.83912 0.0
C99 C 0.5876 0.44702 0.80847 0.0
C100 C 0.57712 0.43038 0.79456 0.0
C101 C 0.56877 0.46672 0.81693 0.0
C102 C 0.53873 0.46947 0.81204 0.0
C103 C 0.5474 0.43378 0.78923 0.0
C104 C 0.52829 0.45311 0.79797 0.0
C105 C 0.51859 0.49014 0.8212 0.0
C106 C 0.4458 0.59735 0.80107 0.0
C107 C 0.4244 0.58443 0.7902 0.0
C108 C 0.46558 0.57949 0.8102 0.0
C109 C 0.46442 0.54845 0.80855 0.0
C110 C 0.42439 0.55334 0.78801 0.0
C111 C 0.4444 0.53557 0.79699 0.0
C112 C 0.48293 0.52925 0.81942 0.0
C113 C 0.41128 0.56442 0.85488 0.0
C114 C 0.42246 0.58401 0.86731 0.0
C115 C 0.43083 0.54823 0.84456 0.0
C116 C 0.46183 0.55121 0.84662 0.0
C117 C 0.4535 0.5877 0.86892 0.0
C118 C 0.47301 0.57118 0.85878 0.0
C119 C 0.48253 0.53152 0.83731 0.0
H120 H 0.53921 0.398 0.8594 0.0
H121 H 0.51332 0.43204 0.84006 0.0
H122 H 0.58473 0.47244 0.88261 0.0
H123 H 0.55841 0.50646 0.86347 0.0
H124 H 0.6107 0.44548 0.81247 0.0
H125 H 0.57792 0.48013 0.82714 0.0
H126 H 0.539 0.42144 0.77837 0.0
H127 H 0.50533 0.4552 0.7938 0.0
H128 H 0.4469 0.6212 0.8028 0.0
H129 H 0.48137 0.58987 0.81882 0.0
H130 H 0.408 0.54248 0.77998 0.0
H131 H 0.44326 0.51164 0.79553 0.0
H132 H 0.38746 0.56113 0.85344 0.0
H133 H 0.42175 0.53253 0.83543 0.0
H134 H 0.46272 0.60229 0.87858 0.0
H135 H 0.49685 0.57355 0.86065 0.0
N136 N 0.50013 0.51305 0.84651 0.0
N137 N 0.50082 0.50856 0.81199 0.0
C138 C 0.4729 0.90865 0.05452 0.0
C139 C 0.45602 0.921 0.04133 0.0
C140 C 0.49326 0.92604 0.06352 0.0
C141 C 0.49639 0.95639 0.05984 0.0
C142 C 0.4597 0.951 0.03715 0.0
C143 C 0.47973 0.96866 0.04642 0.0
C144 C 0.51798 0.97493 0.06942 0.0
C145 C 0.45202 0.94768 0.11028 0.0
C146 C 0.46398 0.92611 0.12118 0.0
C147 C 0.47043 0.96245 0.09875 0.0
C148 C 0.5011 0.95618 0.09823 0.0
C149 C 0.49448 0.91922 0.12025 0.0
C150 C 0.513 0.93447 0.10902 0.0
C151 C 0.52115 0.97352 0.08726 0.0
C152 C 0.59858 0.07676 0.10486 0.0
C153 C 0.61666 0.06387 0.11745 0.0
C154 C 0.58094 0.05889 0.09427 0.0
C155 C 0.58126 0.02782 0.09603 0.0
C156 C 0.61719 0.03273 0.11896 0.0
C157 C 0.59957 0.01494 0.10841 0.0
C158 C 0.5607 0.00874 0.08614 0.0
C159 C 0.62502 0.05037 0.0506 0.0
C160 C 0.6113 0.07035 0.03936 0.0
C161 C 0.60787 0.02981 0.05956 0.0
C162 C 0.57669 0.02926 0.05762 0.0
C163 C 0.58028 0.06845 0.03673 0.0
C164 C 0.56319 0.04801 0.04571 0.0
C165 C 0.55777 0.01005 0.06828 0.0
H166 H 0.47083 0.8853 0.0576 0.0
H167 H 0.50688 0.91554 0.07314 0.0
H168 H 0.4471 0.96069 0.0268 0.0
H169 H 0.48216 0.99189 0.04316 0.0
H170 H 0.42858 0.95345 0.11092 0.0
H171 H 0.46096 0.9794 0.09063 0.0
H172 H 0.5042 0.90296 0.12873 0.0
H173 H 0.53666 0.92952 0.10883 0.0
H174 H 0.59769 0.10066 0.10339 0.0
H175 H 0.56642 0.06938 0.08505 0.0
H176 H 0.63033 0.02208 0.12876 0.0
H177 H 0.59984 0.99107 0.11013 0.0
H178 H 0.64892 0.05098 0.05268 0.0
H179 H 0.61887 0.01485 0.06831 0.0
H180 H 0.56892 0.08374 0.02833 0.0
H181 H 0.5392 0.04778 0.04392 0.0
N182 N 0.53635 0.99329 0.0606 0.0
N183 N 0.54243 0.99034 0.09492 0.0
C184 C 0.07005 0.60596 0.90004 0.0
C185 C 0.08245 0.59237 0.88552 0.0
C186 C 0.05001 0.59045 0.91035 0.0
C187 C 0.04248 0.56082 0.90656 0.0
C188 C 0.07477 0.56272 0.88182 0.0
C189 C 0.05513 0.54718 0.89222 0.0
C190 C 0.01997 0.54425 0.91654 0.0
C191 C 0.09382 0.56302 0.95357 0.0
C192 C 0.08631 0.58619 0.9648 0.0
C193 C 0.0719 0.5493 0.94371 0.0
C194 C 0.04208 0.55838 0.94503 0.0
C195 C 0.05644 0.59528 0.96614 0.0
C196 C 0.03434 0.58112 0.95646 0.0
C197 C 0.01912 0.54387 0.93451 0.0
C198 C 0.93288 0.44283 0.9449 0.0
C199 C 0.91267 0.45477 0.95668 0.0
C200 C 0.95549 0.46049 0.93823 0.0
C201 C 0.95769 0.49058 0.94289 0.0
C202 C 0.9166 0.48405 0.96255 0.0
C203 C 0.93904 0.5019 0.95567 0.0
C204 C 0.97796 0.51051 0.93356 0.0
C205 C 0.90482 0.48513 0.89686 0.0
C206 C 0.91476 0.46618 0.88379 0.0
C207 C 0.92536 0.49973 0.90737 0.0
C208 C 0.95616 0.49571 0.90493 0.0
C209 C 0.94559 0.46199 0.88151 0.0
C210 C 0.96609 0.47684 0.89189 0.0
C211 C 0.97816 0.51161 0.91564 0.0
H212 H 0.07549 0.6287 0.90335 0.0
H213 H 0.03985 0.60196 0.92097 0.0
H214 H 0.08311 0.55164 0.87054 0.0
H215 H 0.04946 0.52447 0.88888 0.0
H216 H 0.11678 0.55581 0.95224 0.0
H217 H 0.07818 0.5316 0.93504 0.0
H218 H 0.05021 0.61306 0.97476 0.0
H219 H 0.01134 0.58825 0.95765 0.0
H220 H 0.93044 0.42018 0.94037 0.0
H221 H 0.97037 0.45103 0.92881 0.0
H222 H 0.90118 0.49368 0.97163 0.0
H223 H 0.94069 0.52495 0.95959 0.0
H224 H 0.88119 0.48881 0.89884 0.0
H225 H 0.91723 0.51451 0.91724 0.0
H226 H 0.95389 0.44795 0.87134 0.0
H227 H 0.98975 0.47357 0.88975 0.0
N228 N -0.00066 0.52812 0.90782 0.0
N229 N 0.99818 0.52699 0.94239 0.0
C230 C 0.43619 0.56491 0.14071 0.0
C231 C 0.45437 0.58322 0.13061 0.0
C232 C 0.44897 0.54514 0.15231 0.0
C233 C 0.4801 0.54343 0.15403 0.0
C234 C 0.4855 0.58201 0.13281 0.0
C235 C 0.49821 0.56212 0.14427 0.0
C236 C 0.49423 0.52107 0.16512 0.0
C237 C 0.45074 0.58768 0.19878 0.0
C238 C 0.4294 0.57634 0.20999 0.0
C239 C 0.46962 0.56858 0.18995 0.0
C240 C 0.46685 0.53769 0.19175 0.0
C241 C 0.42701 0.54559 0.2123 0.0
C242 C 0.44563 0.52631 0.20315 0.0
C243 C 0.48719 0.51745 0.1825 0.0
C244 C 0.58413 0.43169 0.20355 0.0
C245 C 0.56782 0.41086 0.21303 0.0
C246 C 0.56952 0.45442 0.1949 0.0
C247 C 0.53826 0.45635 0.19518 0.0
C248 C 0.53667 0.41435 0.21437 0.0
C249 C 0.52204 0.43692 0.20552 0.0
C250 C 0.52243 0.47785 0.18428 0.0
C251 C 0.56697 0.41315 0.14812 0.0
C252 C 0.58736 0.42628 0.13684 0.0
C253 C 0.54832 0.43084 0.1582 0.0
C254 C 0.55009 0.46198 0.15739 0.0
C255 C 0.58923 0.45748 0.13626 0.0
C256 C 0.57079 0.47507 0.1464 0.0
C257 C 0.52904 0.48123 0.16684 0.0
H258 H 0.41218 0.56493 0.13918 0.0
H259 H 0.4346 0.53057 0.15955 0.0
H260 H 0.50014 0.59615 0.12547 0.0
H261 H 0.52229 0.56119 0.14545 0.0
H262 H 0.45335 0.61146 0.19722 0.0
H263 H 0.48673 0.57809 0.18194 0.0
H264 H 0.41096 0.53659 0.22117 0.0
H265 H 0.44351 0.50256 0.20499 0.0
H266 H 0.60808 0.42975 0.20216 0.0
H267 H 0.58261 0.46984 0.18746 0.0
H268 H 0.52349 0.39921 0.22193 0.0
H269 H 0.49794 0.43843 0.2062 0.0
H270 H 0.56499 0.38922 0.14892 0.0
H271 H 0.53201 0.42017 0.16627 0.0
H272 H 0.60409 0.46846 0.12746 0.0
H273 H 0.57232 0.49903 0.14542 0.0
N274 N 0.51488 0.50287 0.15802 0.0
N275 N 0.50151 0.49587 0.19142 0.0
C276 C 0.47584 0.92051 0.4014 0.0
C277 C 0.45903 0.93259 0.38798 0.0
C278 C 0.49343 0.93881 0.41175 0.0
C279 C 0.49413 0.96965 0.40909 0.0
C280 C 0.45962 0.96351 0.38546 0.0
C281 C 0.47707 0.9818 0.39587 0.0
C282 C 0.51381 0.98922 0.41933 0.0
C283 C 0.4455 0.95126 0.45323 0.0
C284 C 0.45676 0.93302 0.46613 0.0
C285 C 0.46443 0.96997 0.44428 0.0
C286 C 0.4952 0.97001 0.44765 0.0
C287 C 0.48722 0.93407 0.47021 0.0
C288 C 0.50642 0.95241 0.46093 0.0
C289 C 0.5155 0.98838 0.43729 0.0
C290 C 0.60114 0.09096 0.44993 0.0
C291 C 0.62081 0.07771 0.46152 0.0
C292 C 0.57793 0.07446 0.44275 0.0
C293 C 0.57476 0.04414 0.44657 0.0
C294 C 0.61592 0.04825 0.46659 0.0
C295 C 0.59304 0.03153 0.45913 0.0
C296 C 0.55379 0.02515 0.43683 0.0
C297 C 0.62196 0.05527 0.39802 0.0
C298 C 0.60991 0.07537 0.38625 0.0
C299 C 0.60322 0.03965 0.409 0.0
C300 C 0.57219 0.04377 0.40825 0.0
C301 C 0.57888 0.07984 0.38578 0.0
C302 C 0.56016 0.06392 0.39657 0.0
C303 C 0.55202 0.0259 0.4189 0.0
H304 H 0.47581 0.89683 0.40375 0.0
H305 H 0.50692 0.92878 0.42161 0.0
H306 H 0.44749 0.97354 0.37504 0.0
H307 H 0.47749 0.00549 0.39348 0.0
H308 H 0.42187 0.95135 0.45026 0.0
H309 H 0.455 0.98426 0.43462 0.0
H310 H 0.49611 0.92052 0.48037 0.0
H311 H 0.53003 0.9525 0.46391 0.0
H312 H 0.60438 0.11377 0.446 0.0
H313 H 0.56328 0.08508 0.43366 0.0
H314 H 0.63094 0.03763 0.4755 0.0
H315 H 0.5907 0.00832 0.46247 0.0
H316 H 0.6458 0.05142 0.39858 0.0
H317 H 0.61287 0.02388 0.4178 0.0
H318 H 0.56902 0.09487 0.37663 0.0
H319 H 0.53624 0.06718 0.39574 0.0
N320 N 0.53202 0.0081 0.41086 0.0
N321 N 0.53559 0.00622 0.44538 0.0
C322 C 0.09658 0.97601 0.64926 0.0
C323 C 0.08495 0.96178 0.63473 0.0
C324 C 0.07813 0.99296 0.65978 0.0
C325 C 0.0475 0.99552 0.65624 0.0
C326 C 0.05424 0.96431 0.63124 0.0
C327 C 0.03573 0.98113 0.64186 0.0
C328 C 0.02811 0.01455 0.66695 0.0
C329 C 0.0591 0.93875 0.69729 0.0
C330 C 0.07822 0.94626 0.71076 0.0
C331 C 0.04191 0.96051 0.68945 0.0
C332 C 0.04436 0.99039 0.69451 0.0
C333 C 0.07934 0.97573 0.71662 0.0
C334 C 0.06256 0.99774 0.70848 0.0
C335 C 0.02858 0.01388 0.68492 0.0
C336 C 0.94015 0.11177 0.70222 0.0
C337 C 0.95771 0.12881 0.71345 0.0
C338 C 0.95236 0.08728 0.69376 0.0
C339 C 0.98245 0.07967 0.6962 0.0
C340 C 0.98721 0.11981 0.71675 0.0
C341 C -0.00058 0.09541 0.70822 0.0
C342 C 0.99693 0.05643 0.68574 0.0
C343 C 0.97247 0.12909 0.64795 0.0
C344 C 0.95091 0.1196 0.63609 0.0
C345 C 0.98622 0.10863 0.65877 0.0
C346 C 0.9787 0.07837 0.65783 0.0
C347 C 0.94282 0.08942 0.63559 0.0
C348 C 0.95681 0.06898 0.64625 0.0
C349 C 0.99519 0.05603 0.6678 0.0
H350 H 0.12008 0.97443 0.65237 0.0
H351 H 0.08796 0.00448 0.67054 0.0
H352 H 0.04464 0.95415 0.61998 0.0
H353 H 0.01225 0.9831 0.63877 0.0
H354 H 0.05745 0.91597 0.69286 0.0
H355 H 0.02713 0.95403 0.67916 0.0
H356 H 0.09376 0.98181 0.72715 0.0
H357 H 0.06447 0.02058 0.71276 0.0
H358 H 0.91738 0.11808 0.69936 0.0
H359 H 0.93855 0.07488 0.68491 0.0
H360 H 0.00111 0.13206 0.72561 0.0
H361 H 0.02256 0.08964 0.71049 0.0
H362 H 0.97916 0.15219 0.64858 0.0
H363 H 0.0034 0.11625 0.66747 0.0
H364 H 0.92669 0.08136 0.62639 0.0
H365 H 0.95092 0.04568 0.64524 0.0
N366 N 0.01097 0.03522 0.6591 0.0
N367 N 0.01346 0.03523 0.69366 0.0
Co368 Co 0.32526 0.68411 0.00753 0.0
O369 O 0.29709 0.65223 0.00897 0.0
O370 O 0.28575 0.69869 0.00227 0.0
C371 C 0.3494 0.67372 0.03195 0.0
O372 O 0.34808 0.72295 0.00561 0.0
Co373 Co 0.39312 0.67029 0.00443 0.0
O374 O 0.39755 0.71404 0.00587 0.0
C375 C 0.35299 0.65868 0.97566 0.0
C376 C 0.27687 0.67156 0.00487 0.0
C377 C 0.37538 0.73179 0.00554 0.0
O378 O 0.33243 0.67435 0.98274 0.0
O379 O 0.37742 0.65164 0.98304 0.0
O380 O 0.32468 0.68883 0.03231 0.0
O381 O 0.357 0.66341 0.01726 0.0
Co382 Co 0.35059 0.8322 0.25064 0.0
O383 O 0.32894 0.8688 0.25218 0.0
O384 O 0.31031 0.82445 0.25817 0.0
C385 C 0.3703 0.84232 0.22495 0.0
O386 O 0.3651 0.78942 0.24972 0.0
Co387 Co 0.41947 0.83058 0.24807 0.0
O388 O 0.41449 0.78735 0.24486 0.0
C389 C 0.39087 0.8419 0.28131 0.0
C390 C 0.3062 0.85295 0.25679 0.0
C391 C 0.38932 0.77486 0.24703 0.0
O392 O 0.36479 0.83722 0.27492 0.0
O393 O 0.41485 0.842 0.2725 0.0
O394 O 0.34374 0.83095 0.22609 0.0
O395 O 0.38341 0.84846 0.23916 0.0
Co396 Co 0.19773 0.85717 0.49985 0.0
O397 O 0.15955 0.8376 0.50019 0.0
O398 O 0.20266 0.81663 0.50707 0.0
C399 C 0.19182 0.87875 0.47423 0.0
O400 O 0.24153 0.86914 0.50046 0.0
Co401 Co 0.20332 0.92608 0.49865 0.0
O402 O 0.24664 0.91856 0.49729 0.0
C403 C 0.18704 0.89659 0.53078 0.0
C404 C 0.17395 0.81414 0.50517 0.0
C405 C 0.2576 0.89268 0.49913 0.0
O406 O 0.19156 0.87075 0.52416 0.0
O407 O 0.18865 0.92083 0.5224 0.0
O408 O 0.20044 0.85123 0.47521 0.0
O409 O 0.18499 0.89132 0.48847 0.0
Co410 Co 0.17691 0.71062 0.75892 0.0
O411 O 0.14434 0.73824 0.75747 0.0
O412 O 0.19123 0.74819 0.75049 0.0
C413 C 0.16584 0.69356 0.78502 0.0
O414 O 0.21667 0.6887 0.7596 0.0
Co415 Co 0.16545 0.64255 0.76192 0.0
O416 O 0.20914 0.64014 0.76493 0.0
C417 C 0.16026 0.67153 0.72849 0.0
C418 C 0.16384 0.75731 0.75207 0.0
C419 C 0.22629 0.66226 0.76248 0.0
O420 O 0.16892 0.69649 0.73486 0.0
O421 O 0.15603 0.64808 0.73728 0.0
O422 O 0.18023 0.71843 0.78334 0.0
O423 O 0.15633 0.68146 0.77112 0.0
Co424 Co 0.85875 0.21735 0.49436 0.0
O425 O 0.88461 0.25125 0.49491 0.0
O426 O 0.83643 0.25212 0.50137 0.0
C427 C 0.87488 0.19996 0.46908 0.0
O428 O 0.82491 0.18719 0.49422 0.0
Co429 Co 0.88496 0.15318 0.49368 0.0
O430 O 0.84387 0.143 0.48614 0.0
C431 C 0.88779 0.18928 0.52502 0.0
C432 C 0.86141 0.26648 0.49953 0.0
C433 C 0.82182 0.16021 0.48902 0.0
O434 O 0.86903 0.20802 0.51883 0.0
O435 O 0.89907 0.16782 0.51644 0.0
O436 O 0.85502 0.22102 0.46955 0.0
O437 O 0.88566 0.19219 0.48358 0.0
Co438 Co 0.81671 0.36449 0.74476 0.0
O439 O 0.78154 0.38878 0.74458 0.0
O440 O 0.78247 0.34074 0.7508 0.0
C441 C 0.83566 0.38117 0.72009 0.0
O442 O 0.84817 0.33199 0.74531 0.0
Co443 Co 0.88005 0.39296 0.7462 0.0
O444 O 0.89369 0.35182 0.74134 0.0
C445 C 0.84117 0.39443 0.77624 0.0
C446 C 0.76708 0.365 0.74889 0.0
C447 C 0.87642 0.32945 0.74276 0.0
O448 O 0.82393 0.37473 0.76951 0.0
O449 O 0.86259 0.40692 0.76827 0.0
O450 O 0.81504 0.36082 0.71987 0.0
O451 O 0.84179 0.39227 0.73482 0.0
Co452 Co 0.67431 0.31877 0.99674 0.0
O453 O 0.64735 0.28648 0.0005 0.0
O454 O 0.69637 0.28445 0.00444 0.0
C455 C 0.65439 0.33129 0.97153 0.0
O456 O 0.70947 0.34665 0.99329 0.0
Co457 Co 0.65322 0.38384 0.99266 0.0
O458 O 0.69247 0.38867 0.98147 0.0
C459 C 0.65949 0.35793 0.02708 0.0
C460 C 0.67071 0.27096 0.0045 0.0
C461 C 0.7137 0.37119 0.98537 0.0
O462 O 0.66887 0.33315 0.02087 0.0
O463 O 0.6515 0.38012 0.01802 0.0
O464 O 0.67406 0.31014 0.97237 0.0
O465 O 0.64636 0.34305 0.98581 0.0
Co466 Co 0.6981 0.18362 0.25584 0.0
O467 O 0.65978 0.20235 0.2537 0.0
O468 O 0.70294 0.22297 0.24664 0.0
C469 C 0.69105 0.16655 0.28241 0.0
O470 O 0.74195 0.1719 0.2568 0.0
Co471 Co 0.70312 0.11515 0.26071 0.0
O472 O 0.74632 0.12311 0.26261 0.0
C473 C 0.69094 0.13946 0.2266 0.0
C474 C 0.67409 0.22525 0.24793 0.0
C475 C 0.75763 0.14852 0.25968 0.0
O476 O 0.69384 0.16622 0.23222 0.0
O477 O 0.69207 0.11648 0.23609 0.0
O478 O 0.69935 0.19385 0.27999 0.0
O479 O 0.68486 0.15144 0.26886 0.0
H480 H 0.16778 0.98287 0.26665 0.0
H481 H 0.2556 0.82833 0.27066 0.0
H482 H 0.13524 0.90762 0.29479 0.0
H483 H 0.29026 0.90955 0.24943 0.0
H484 H 0.20789 0.85367 0.27598 0.0
H485 H 0.20868 0.95251 0.25587 0.0
C486 C 0.16916 0.95976 0.27038 0.0
C487 C 0.14851 0.94774 0.28176 0.0
C488 C 0.22594 0.86579 0.27007 0.0
C489 C 0.19548 0.91294 0.26977 0.0
C490 C 0.25313 0.8514 0.26707 0.0
C491 C 0.27698 0.86701 0.25979 0.0
C492 C 0.22272 0.89582 0.26561 0.0
C493 C 0.27261 0.89676 0.25526 0.0
C494 C 0.19251 0.94244 0.26428 0.0
C495 C 0.15089 0.91762 0.28605 0.0
N496 N 0.24608 0.91017 0.25829 0.0
N497 N 0.17432 0.90126 0.28024 0.0
H498 H 0.12769 0.63088 0.52549 0.0
H499 H 0.11384 0.80471 0.50659 0.0
H500 H 0.04812 0.68232 0.53534 0.0
H501 H 0.19838 0.75952 0.51143 0.0
H502 H 0.08821 0.75813 0.51287 0.0
H503 H 0.15275 0.67616 0.51607 0.0
C504 C 0.11542 0.65161 0.52564 0.0
C505 C 0.08573 0.65272 0.53134 0.0
C506 C 0.11236 0.75841 0.51252 0.0
C507 C 0.11422 0.70449 0.52034 0.0
C508 C 0.12701 0.78496 0.50892 0.0
C509 C 0.15828 0.78599 0.5086 0.0
C510 C 0.12909 0.73264 0.51568 0.0
C511 C 0.17422 0.75972 0.51168 0.0
C512 C 0.12974 0.67741 0.52021 0.0
C513 C 0.07085 0.68018 0.53088 0.0
N514 N 0.15944 0.73407 0.51509 0.0
N515 N 0.08527 0.70494 0.52554 0.0
H516 H 0.39786 0.57754 0.75883 0.0
H517 H 0.2702 0.69789 0.77574 0.0
H518 H 0.39588 0.63311 0.80379 0.0
H519 H 0.25558 0.61403 0.75028 0.0
H520 H 0.32315 0.68459 0.77939 0.0
H521 H 0.35233 0.6018 0.74886 0.0
C522 C 0.38813 0.59502 0.76653 0.0
C523 C 0.40043 0.60274 0.78239 0.0
C524 C 0.30834 0.66942 0.77277 0.0
C525 C 0.34883 0.63101 0.77079 0.0
C526 C 0.2783 0.67699 0.77066 0.0
C527 C 0.25863 0.65678 0.76292 0.0
C528 C 0.31863 0.64186 0.76673 0.0
C529 C 0.27004 0.62997 0.75655 0.0
C530 C 0.36227 0.60894 0.76076 0.0
C531 C 0.38732 0.62633 0.7915 0.0
N532 N 0.2993 0.62324 0.75862 0.0
N533 N 0.36201 0.63942 0.78565 0.0
H534 H 0.40283 0.89829 0.05132 0.0
H535 H 0.42427 0.76031 0.99311 0.0
H536 H 0.46536 0.89824 0.00981 0.0
H537 H 0.34082 0.77628 0.01887 0.0
H538 H 0.43769 0.81236 0.99738 0.0
H539 H 0.37679 0.85613 0.03817 0.0
C540 C 0.41041 0.88987 0.03914 0.0
C541 C 0.43607 0.90149 0.03154 0.0
C542 C 0.41619 0.80466 0.00183 0.0
C543 C 0.40735 0.85295 0.01679 0.0
C544 C 0.40862 0.77491 -0.00051 0.0
C545 C 0.38162 0.76394 0.00589 0.0
C546 C 0.39696 0.82339 0.01101 0.0
C547 C 0.36196 0.78386 0.01385 0.0
C548 C 0.39567 0.86585 0.03166 0.0
C549 C 0.44549 0.88979 0.01593 0.0
N550 N 0.3703 0.81255 0.01652 0.0
N551 N 0.43148 0.86568 0.00921 0.0
H552 H 0.12719 0.55981 0.98525 0.0
H553 H 0.23016 0.70368 0.9916 0.0
H554 H 0.09938 0.6455 0.96682 0.0
H555 H 0.25232 0.61835 0.01302 0.0
H556 H 0.17982 0.68511 0.98528 0.0
H557 H 0.17059 0.58296 -0.00143 0.0
C558 C 0.13018 0.58362 0.98419 0.0
C559 C 0.11003 0.60079 0.97482 0.0
C560 C 0.19563 0.67062 0.99154 0.0
C561 C 0.15982 0.62749 0.98975 0.0
C562 C 0.22432 0.68119 0.99515 0.0
C563 C 0.24554 0.66235 0.00259 0.0
C564 C 0.1883 0.64105 0.99542 0.0
C565 C 0.23682 0.63351 0.00702 0.0
C566 C 0.1549 0.59687 0.99179 0.0
C567 C 0.11457 0.63157 0.97395 0.0
N568 N 0.209 0.62369 0.00323 0.0
N569 N 0.13931 0.64395 0.98111 0.0
H570 H 0.38195 0.60897 0.19946 0.0
H571 H 0.43116 0.73617 0.25841 0.0
H572 H 0.43881 0.59296 0.24265 0.0
H573 H 0.34494 0.73963 0.23403 0.0
H574 H 0.43208 0.68245 0.25414 0.0
H575 H 0.36403 0.65471 0.2131 0.0
C576 C 0.38971 0.61461 0.21213 0.0
C577 C 0.41173 0.59747 0.22005 0.0
C578 C 0.41266 0.69481 0.25 0.0
C579 C 0.39252 0.64991 0.23532 0.0
C580 C 0.41227 0.72547 0.2523 0.0
C581 C 0.38815 0.74223 0.24631 0.0
C582 C 0.38917 0.68094 0.24119 0.0
C583 C 0.36403 0.72737 0.23871 0.0
C584 C 0.37963 0.64068 0.21988 0.0
C585 C 0.42166 0.60571 0.23627 0.0
N586 N 0.36544 0.69754 0.23598 0.0
N587 N 0.41251 0.63181 0.24323 0.0
H588 H 0.42448 0.88617 0.45442 0.0
H589 H 0.29694 0.93045 0.51405 0.0
H590 H 0.44016 0.93967 0.4991 0.0
H591 H 0.29234 0.8489 0.48516 0.0
H592 H 0.3511 0.93023 0.51109 0.0
H593 H 0.37895 0.86674 0.46743 0.0
C594 C 0.41877 0.89294 0.46725 0.0
C595 C 0.43568 0.91461 0.47573 0.0
C596 C 0.3384 0.912 0.50568 0.0
C597 C 0.38342 0.89351 0.49038 0.0
C598 C 0.30748 0.91228 0.50726 0.0
C599 C 0.29029 0.88996 0.49955 0.0
C600 C 0.35212 0.88975 0.49587 0.0
C601 C 0.30493 0.86664 0.49114 0.0
C602 C 0.39282 0.88195 0.47466 0.0
C603 C 0.42751 0.92298 0.49223 0.0
N604 N 0.33506 0.86752 0.48913 0.0
N605 N 0.40144 0.91299 0.49888 0.0
H606 H 0.12101 0.91293 0.69547 0.0
H607 H 0.11591 0.78776 0.76412 0.0
H608 H 0.07646 0.92633 0.7434 0.0
H609 H 0.19161 0.79632 0.73069 0.0
H610 H 0.0996 0.83756 0.75601 0.0
H611 H 0.14647 0.86942 0.70731 0.0
C612 C 0.11702 0.90685 0.70858 0.0
C613 C 0.0967 0.92293 0.71853 0.0
C614 C 0.11995 0.82867 0.75059 0.0
C615 C 0.12497 0.87318 0.73197 0.0
C616 C 0.12914 0.80021 0.75511 0.0
C617 C 0.15498 0.78793 0.74794 0.0
C618 C 0.13634 0.84463 0.73851 0.0
C619 C 0.1715 0.80505 0.73646 0.0
C620 C 0.13153 0.88217 0.71533 0.0
C621 C 0.09209 0.91439 0.73541 0.0
N622 N 0.16163 0.83244 0.73187 0.0
N623 N 0.10575 0.88969 0.74155 0.0
H624 H 0.58904 0.43132 0.7606 0.0
H625 H 0.73425 0.32955 0.76997 0.0
H626 H 0.61362 0.38718 0.80709 0.0
H627 H 0.72685 0.40364 0.73564 0.0
H628 H 0.68218 0.33762 0.77862 0.0
H629 H 0.63147 0.40752 0.74632 0.0
C630 C 0.6029 0.41596 0.76765 0.0
C631 C 0.59823 0.41142 0.78505 0.0
C632 C 0.69188 0.35169 0.76896 0.0
C633 C 0.64652 0.3844 0.76894 0.0
C634 C 0.72146 0.34707 0.76401 0.0
C635 C 0.73483 0.36629 0.7523 0.0
C636 C 0.67565 0.37531 0.76189 0.0
C637 C 0.71741 0.38866 0.74492 0.0
C638 C 0.62714 0.40258 0.75955 0.0
C639 C 0.61685 0.39149 0.79369 0.0
N640 N 0.68873 0.39269 0.74992 0.0
N641 N 0.64044 0.3789 0.78558 0.0
H642 H 0.60651 0.09189 0.00696 0.0
H643 H 0.70714 0.23559 0.02398 0.0
H644 H 0.65483 0.10498 0.05396 0.0
H645 H 0.628 0.23386 0.99265 0.0
H646 H 0.6994 0.18256 0.03037 0.0
H647 H 0.62695 0.1386 0.99643 0.0
C648 C 0.62173 0.10438 0.01498 0.0
C649 C 0.62841 0.09489 0.03151 0.0
C650 C 0.68401 0.19387 0.02197 0.0
C651 C 0.652 0.14811 0.01949 0.0
C652 C 0.68837 0.22397 0.01835 0.0
C653 C 0.6679 0.23903 0.008 0.0
C654 C 0.65948 0.17889 0.01481 0.0
C655 C 0.64401 0.22312 0.00092 0.0
C656 C 0.63341 0.13096 0.00895 0.0
C657 C 0.64897 0.11152 0.04116 0.0
N658 N 0.64047 0.19392 0.00445 0.0
N659 N 0.65975 0.13763 0.03509 0.0
H660 H 0.93129 0.15548 0.29934 0.0
H661 H 0.79525 0.11004 0.24437 0.0
H662 H 0.9405 0.10134 0.25417 0.0
H663 H 0.7939 0.19117 0.27372 0.0
H664 H 0.84952 0.10912 0.24642 0.0
H665 H 0.88306 0.17281 0.28892 0.0
C666 C 0.92361 0.14783 0.28701 0.0
C667 C 0.93967 0.12633 0.2778 0.0
C668 C 0.83752 0.12746 0.25218 0.0
C669 C 0.88416 0.14557 0.26606 0.0
C670 C 0.80656 0.12785 0.2511 0.0
C671 C 0.7903 0.15047 0.2591 0.0
C672 C 0.85226 0.14937 0.26178 0.0
C673 C 0.80583 0.17327 0.26748 0.0
C674 C 0.89596 0.15768 0.28111 0.0
C675 C 0.92843 0.11716 0.26196 0.0
N676 N 0.83607 0.1718 0.26896 0.0
N677 N 0.90107 0.12634 0.25676 0.0
H678 H 0.89189 0.42139 0.55734 0.0
H679 H 0.89945 0.30493 0.48446 0.0
H680 H 0.92829 0.44343 0.50834 0.0
H681 H 0.82971 0.30071 0.52208 0.0
H682 H 0.90872 0.35662 0.4924 0.0
H683 H 0.8665 0.37853 0.54452 0.0
C684 C 0.89387 0.4175 0.54378 0.0
C685 C 0.91218 0.43565 0.53382 0.0
C686 C 0.89102 0.34462 0.49873 0.0
C687 C 0.88405 0.38655 0.51922 0.0
C688 C 0.88586 0.31509 0.49428 0.0
C689 C 0.86404 0.29858 0.50279 0.0
C690 C 0.87481 0.35747 0.51212 0.0
C691 C 0.84681 0.31276 0.51528 0.0
C692 C 0.87941 0.39314 0.53648 0.0
C693 C 0.91428 0.42984 0.51636 0.0
N694 N 0.853 0.34131 0.51985 0.0
N695 N 0.90088 0.40535 0.50965 0.0
H696 H 0.64103 0.09123 0.49362 0.0
H697 H 0.80528 0.12136 0.46429 0.0
H698 H 0.66367 0.09813 0.44053 0.0
H699 H 0.76977 0.17335 0.50582 0.0
H700 H 0.75493 0.10338 0.45796 0.0
H701 H 0.68977 0.11347 0.50101 0.0
C702 C 0.65619 0.09768 0.48359 0.0
C703 C 0.64852 0.09313 0.46648 0.0
C704 C 0.75823 0.1187 0.46846 0.0
C705 C 0.70388 0.11743 0.47475 0.0
C706 C 0.78688 0.12879 0.47215 0.0
C707 C 0.79157 0.14882 0.48559 0.0
C708 C 0.73424 0.12812 0.47854 0.0
C709 C 0.76694 0.15799 0.49531 0.0
C710 C 0.68377 0.11034 0.48778 0.0
C711 C 0.66879 0.1016 0.45386 0.0
N712 N 0.73921 0.14729 0.4917 0.0
N713 N 0.69576 0.11297 0.45825 0.0
H714 H 0.90148 0.14084 0.72575 0.0
H715 H 0.93495 0.31435 0.73755 0.0
H716 H 0.98737 0.18152 0.71715 0.0
H717 H 0.84739 0.27569 0.7437 0.0
H718 H 0.95531 0.26487 0.73274 0.0
H719 H 0.88201 0.18912 0.73492 0.0
C720 C 0.91628 0.15986 0.72587 0.0
C721 C 0.94609 0.1571 0.72062 0.0
C722 C 0.93166 0.26717 0.73523 0.0
C723 C 0.92401 0.21235 0.73115 0.0
C724 C 0.91998 0.29547 0.73799 0.0
C725 C 0.88932 0.29931 0.74092 0.0
C726 C 0.9126 0.2424 0.73534 0.0
C727 C 0.87113 0.27388 0.74141 0.0
C728 C 0.90518 0.18739 0.73116 0.0
C729 C 0.96436 0.18244 0.72128 0.0
N730 N 0.88302 0.24653 0.73854 0.0
N731 N 0.95298 0.20898 0.72633 0.0
H732 H 0.87285 0.43039 0.9348 0.0
H733 H 0.76458 0.36102 0.0037 0.0
H734 H 0.89054 0.44214 0.98835 0.0
H735 H 0.73225 0.40179 0.95766 0.0
H736 H 0.81519 0.37859 0.99692 0.0
H737 H 0.82522 0.40682 0.94176 0.0
C738 C 0.86685 0.42752 0.94804 0.0
C739 C 0.88546 0.43812 0.96106 0.0
C740 C 0.79693 0.38349 0.98833 0.0
C741 C 0.83135 0.41128 0.96903 0.0
C742 C 0.76823 0.37342 0.99211 0.0
C743 C 0.74435 0.38019 0.98123 0.0
C744 C 0.80168 0.39961 0.97337 0.0
C745 C 0.75008 0.39639 0.96643 0.0
C746 C 0.83969 0.41431 0.95197 0.0
C747 C 0.87661 0.43428 0.978 0.0
N748 N 0.77825 0.40541 0.96286 0.0
N749 N 0.85007 0.42103 0.98155 0.0
H750 H 0.62369 0.4074 0.22764 0.0
H751 H 0.61406 0.23299 0.24471 0.0
H752 H 0.54679 0.3538 0.21483 0.0
H753 H 0.69772 0.28009 0.24119 0.0
H754 H 0.58765 0.2788 0.23776 0.0
H755 H 0.64976 0.36247 0.23676 0.0
C756 C 0.61222 0.38627 0.22677 0.0
C757 C 0.58298 0.38447 0.22035 0.0
C758 C 0.61179 0.27911 0.23849 0.0
C759 C 0.6126 0.3331 0.23099 0.0
C760 C 0.62688 0.25299 0.24246 0.0
C761 C 0.65813 0.25275 0.24343 0.0
C762 C 0.62803 0.30526 0.23565 0.0
C763 C 0.67361 0.2793 0.24045 0.0
C764 C 0.62712 0.36067 0.23202 0.0
C765 C 0.5691 0.35648 0.2199 0.0
N766 N 0.65838 0.30458 0.23672 0.0
N767 N 0.58405 0.33194 0.22511 0.0
H768 H 0.13603 0.00804 0.40164 0.0
H769 H 0.19501 0.85622 0.44169 0.0
H770 H 0.15186 0.92933 0.37131 0.0
H771 H 0.1806 0.93749 0.46985 0.0
H772 H 0.18381 0.88291 0.41525 0.0
H773 H 0.15709 0.9831 0.42609 0.0
C774 C 0.14441 0.98565 0.39999 0.0
C775 C 0.14216 0.97088 0.38427 0.0
C776 C 0.18341 0.8949 0.42722 0.0
C777 C 0.16567 0.94162 0.41265 0.0
C778 C 0.18985 0.87971 0.44228 0.0
C779 C 0.18843 0.89462 0.45797 0.0
C780 C 0.17557 0.92513 0.42795 0.0
C781 C 0.18167 0.92503 0.45806 0.0
C782 C 0.15623 0.97126 0.41408 0.0
C783 C 0.15275 0.9415 0.3832 0.0
N784 N 0.17533 0.93917 0.44331 0.0
N785 N 0.16386 0.92775 0.39723 0.0
H786 H 0.06538 0.65693 0.63551 0.0
H787 H 0.18009 0.62752 0.70802 0.0
H788 H 0.14356 0.60241 0.62798 0.0
H789 H 0.12974 0.7091 0.70722 0.0
H790 H 0.16744 0.61906 0.67821 0.0
H791 H 0.08883 0.67861 0.66082 0.0
C792 C 0.08775 0.65002 0.63891 0.0
C793 C 0.10226 0.62731 0.62979 0.0
C794 C 0.1595 0.63909 0.68441 0.0
C795 C 0.12881 0.65158 0.65892 0.0
C796 C 0.1666 0.64382 0.70143 0.0
C797 C 0.15571 0.66889 0.71001 0.0
C798 C 0.14062 0.65914 0.67601 0.0
C799 C 0.1385 0.68949 0.70095 0.0
C800 C 0.10106 0.66235 0.65341 0.0
C801 C 0.13115 0.61919 0.6349 0.0
N802 N 0.1309 0.68385 0.68446 0.0
N803 N 0.14322 0.63088 0.64929 0.0
H804 H 0.42148 0.64216 0.87773 0.0
H805 H 0.3455 0.6028 0.96363 0.0
H806 H 0.37824 0.55778 0.88567 0.0
H807 H 0.35558 0.69361 0.94765 0.0
H808 H 0.35317 0.58632 0.93426 0.0
H809 H 0.39421 0.66263 0.90208 0.0
C810 C 0.40582 0.62814 0.88444 0.0
C811 C 0.40229 0.5982 0.87983 0.0
C812 C 0.35291 0.60991 0.93703 0.0
C813 C 0.37142 0.62122 0.90776 0.0
C814 C 0.34844 0.61926 0.95376 0.0
C815 C 0.34976 0.6495 0.95787 0.0
C816 C 0.35977 0.63098 0.9245 0.0
C817 C 0.35415 0.67008 0.94482 0.0
C818 C 0.39017 0.63982 0.89827 0.0
C819 C 0.38158 0.58099 0.88882 0.0
N820 N 0.35965 0.66041 0.92871 0.0
N821 N 0.36736 0.59258 0.90258 0.0
H822 H 0.4342 0.95549 0.14601 0.0
H823 H 0.36079 0.81943 0.19291 0.0
H824 H 0.45296 0.86725 0.12731 0.0
H825 H 0.40783 0.88853 0.22014 0.0
H826 H 0.38113 0.839 0.16601 0.0
H827 H 0.40918 0.93377 0.17073 0.0
C828 C 0.43247 0.93155 0.14698 0.0
C829 C 0.44559 0.91303 0.13474 0.0
C830 C 0.38689 0.84967 0.17795 0.0
C831 C 0.41702 0.88826 0.16269 0.0
C832 C 0.37537 0.83862 0.1932 0.0
C833 C 0.38288 0.85233 0.20869 0.0
C834 C 0.40501 0.87509 0.17833 0.0
C835 C 0.40176 0.87716 0.20848 0.0
C836 C 0.41843 0.91924 0.16106 0.0
C837 C 0.44311 0.88213 0.13659 0.0
N838 N 0.41189 0.88798 0.19351 0.0
N839 N 0.42899 0.87059 0.15037 0.0
H840 H 0.13024 0.57207 0.86686 0.0
H841 H 0.158 0.7217 0.81556 0.0
H842 H 0.07875 0.6515 0.8767 0.0
H843 H 0.16026 0.63484 0.79219 0.0
H844 H 0.14292 0.69856 0.84254 0.0
H845 H 0.15578 0.59792 0.84386 0.0
C846 C 0.12437 0.59496 0.86431 0.0
C847 C 0.10167 0.60931 0.87354 0.0
C848 C 0.14714 0.68468 0.83151 0.0
C849 C 0.13166 0.63918 0.84759 0.0
C850 C 0.15581 0.69776 0.81621 0.0
C851 C 0.16005 0.68007 0.80169 0.0
C852 C 0.14358 0.65373 0.83228 0.0
C853 C 0.15685 0.64922 0.80309 0.0
C854 C 0.13914 0.60969 0.85126 0.0
C855 C 0.09601 0.63942 0.87001 0.0
N856 N 0.14885 0.63699 0.81814 0.0
N857 N 0.11075 0.65331 0.85721 0.0
H858 H 0.47627 0.5925 0.09866 0.0
H859 H 0.33347 0.68166 0.06538 0.0
H860 H 0.40222 0.61586 0.13116 0.0
H861 H 0.40484 0.64945 0.03347 0.0
H862 H 0.36095 0.66413 0.09045 0.0
H863 H 0.4532 0.61994 0.07562 0.0
C864 C 0.45534 0.60377 0.10107 0.0
C865 C 0.44118 0.60176 0.11693 0.0
C866 C 0.37066 0.66119 0.07796 0.0
C867 C 0.41413 0.6328 0.09028 0.0
C868 C 0.35506 0.67126 0.06368 0.0
C869 C 0.36679 0.66668 0.04734 0.0
C870 C 0.39816 0.64663 0.07581 0.0
C871 C 0.39482 0.65314 0.04582 0.0
C872 C 0.44202 0.61928 0.08781 0.0
C873 C 0.41373 0.61642 0.11908 0.0
N874 N 0.40944 0.64346 0.05984 0.0
N875 N 0.40099 0.63118 0.10586 0.0
H876 H 0.47757 0.87901 0.37524 0.0
H877 H 0.35323 0.87324 0.30238 0.0
H878 H 0.40462 0.94149 0.37236 0.0
H879 H 0.43625 0.82478 0.30176 0.0
H880 H 0.36471 0.89023 0.33148 0.0
H881 H 0.45519 0.85055 0.35217 0.0
C882 C 0.45651 0.88648 0.37001 0.0
C883 C 0.44321 0.91298 0.37565 0.0
C884 C 0.38012 0.87547 0.32503 0.0
C885 C 0.41777 0.88073 0.34879 0.0
C886 C 0.3735 0.86568 0.30852 0.0
C887 C 0.39409 0.84803 0.29964 0.0
C888 C 0.40728 0.86716 0.33265 0.0
C889 C 0.42005 0.83883 0.30808 0.0
C890 C 0.44385 0.87031 0.3567 0.0
C891 C 0.41605 0.92159 0.36816 0.0
N892 N 0.426 0.84868 0.32403 0.0
N893 N 0.4044 0.90572 0.35496 0.0
H894 H 0.1406 0.97914 0.62461 0.0
H895 H 0.15188 0.8592 0.54965 0.0
H896 H 0.07524 0.90987 0.61682 0.0
H897 H 0.20287 0.94033 0.55274 0.0
H898 H 0.13115 0.86998 0.57798 0.0
H899 H 0.17111 0.95732 0.60228 0.0
C900 C 0.13286 0.95901 0.61843 0.0
C901 C 0.1051 0.94652 0.62251 0.0
C902 C 0.14726 0.88511 0.57253 0.0
C903 C 0.1398 0.92173 0.59655 0.0
C904 C 0.1592 0.87888 0.55647 0.0
C905 C 0.1787 0.89918 0.54883 0.0
C906 C 0.15528 0.91158 0.58096 0.0
C907 C 0.18748 0.92438 0.5581 0.0
C908 C 0.15025 0.94666 0.60556 0.0
C909 C 0.09619 0.9206 0.61384 0.0
N910 N 0.17555 0.92997 0.5736 0.0
N911 N 0.11335 0.90921 0.60113 0.0
H912 H 0.53631 0.39313 0.89294 0.0
H913 H 0.68188 0.33497 0.94049 0.0
H914 H 0.62336 0.42718 0.88019 0.0
H915 H 0.59859 0.35183 0.96617 0.0
H916 H 0.66037 0.3561 0.91428 0.0
H917 H 0.55893 0.36406 0.91587 0.0
C918 C 0.56026 0.39403 0.8948 0.0
C919 C 0.57806 0.41262 0.88481 0.0
C920 C 0.64687 0.35484 0.92567 0.0
C921 C 0.60391 0.37949 0.91079 0.0
C922 C 0.65901 0.34276 0.94051 0.0
C923 C 0.64191 0.3419 0.9554 0.0
C924 C 0.61731 0.36517 0.92577 0.0
C925 C 0.61249 0.35238 0.95493 0.0
C926 C 0.57307 0.37763 0.90789 0.0
C927 C 0.60895 0.41324 0.88778 0.0
N928 N 0.60103 0.36345 0.94031 0.0
N929 N 0.62099 0.39688 0.90056 0.0
H930 H 0.59764 0.11481 0.13346 0.0
H931 H 0.713 0.09431 0.20757 0.0
H932 H 0.67287 0.05518 0.13022 0.0
H933 H 0.6582 0.17282 0.20412 0.0
H934 H 0.70051 0.08195 0.17824 0.0
H935 H 0.62119 0.13942 0.15781 0.0
C936 C 0.61943 0.10732 0.1376 0.0
C937 C 0.63304 0.08248 0.13 0.0
C938 C 0.69148 0.10213 0.18375 0.0
C939 C 0.65975 0.11017 0.15804 0.0
C940 C 0.69849 0.10909 0.20053 0.0
C941 C 0.68626 0.13438 0.20828 0.0
C942 C 0.67147 0.12018 0.17474 0.0
C943 C 0.66795 0.15304 0.19856 0.0
C944 C 0.63279 0.12132 0.15156 0.0
C945 C 0.66118 0.07369 0.13599 0.0
N946 N 0.66058 0.14524 0.18233 0.0
N947 N 0.67335 0.08719 0.14982 0.0
H948 H 0.92437 0.15144 0.36516 0.0
H949 H 0.90986 0.15116 0.46646 0.0
H950 H 0.98569 0.10917 0.39976 0.0
H951 H 0.86299 0.21539 0.4358 0.0
H952 H 0.93081 0.12942 0.4409 0.0
H953 H 0.89555 0.16989 0.38978 0.0
C954 C 0.93166 0.14605 0.37791 0.0
C955 C 0.95762 0.1292 0.38052 0.0
C956 C 0.9159 0.14822 0.43967 0.0
C957 C 0.92486 0.14957 0.40843 0.0
C958 C 0.90382 0.16065 0.4543 0.0
C959 C 0.88496 0.18539 0.45327 0.0
C960 C 0.90929 0.16064 0.42379 0.0
C961 C 0.87766 0.19643 0.43711 0.0
C962 C 0.91533 0.15657 0.39189 0.0
C963 C 0.96614 0.1226 0.39722 0.0
N964 N 0.89009 0.18411 0.42293 0.0
N965 N 0.94983 0.13276 0.41049 0.0
H966 H 0.89629 0.42662 0.61851 0.0
H967 H 0.88466 0.41634 0.71936 0.0
H968 H 0.96348 0.4581 0.65365 0.0
H969 H 0.82564 0.36658 0.68642 0.0
H970 H 0.91266 0.43241 0.69479 0.0
H971 H 0.869 0.40486 0.6425 0.0
C972 C 0.90537 0.4288 0.63122 0.0
C973 C 0.93224 0.44416 0.63407 0.0
C974 C 0.89372 0.41785 0.69284 0.0
C975 C 0.90125 0.41949 0.66143 0.0
C976 C 0.87761 0.40867 0.70692 0.0
C977 C 0.85275 0.39007 0.70494 0.0
C978 C 0.88484 0.4087 0.67652 0.0
C979 C 0.84472 0.38092 0.68847 0.0
C980 C 0.88988 0.41627 0.64487 0.0
C981 C 0.94313 0.44612 0.65077 0.0
N982 N 0.86065 0.39052 0.6748 0.0
N983 N 0.92752 0.43412 0.66377 0.0
H984 H 0.6517 0.04953 0.36583 0.0
H985 H 0.68357 0.19669 0.31235 0.0
H986 H 0.61129 0.13415 0.37755 0.0
H987 H 0.68813 0.10816 0.29121 0.0
H988 H 0.66979 0.17538 0.33992 0.0
H989 H 0.6782 0.07261 0.34209 0.0
C990 C 0.64891 0.0731 0.3636 0.0
C991 C 0.62914 0.08997 0.37352 0.0
C992 C 0.6742 0.16069 0.32927 0.0
C993 C 0.65921 0.11636 0.34649 0.0
C994 C 0.68216 0.17277 0.3136 0.0
C995 C 0.68662 0.15411 0.2995 0.0
C996 C 0.67123 0.12978 0.33083 0.0
C997 C 0.68451 0.12331 0.30175 0.0
C998 C 0.66384 0.08618 0.35002 0.0
C999 C 0.62609 0.12036 0.37004 0.0
N1000 N 0.67686 0.11207 0.31712 0.0
N1001 N 0.64086 0.1326 0.35673 0.0
H1002 H 0.89304 0.12638 0.62526 0.0
H1003 H 0.94369 0.18961 0.5379 0.0
H1004 H 0.98233 0.15884 0.61678 0.0
H1005 H 0.85125 0.19175 0.55282 0.0
H1006 H 0.95799 0.18201 0.56754 0.0
H1007 H 0.87624 0.15324 0.59996 0.0
C1008 C 0.90897 0.13961 0.61824 0.0
C1009 C 0.93918 0.14012 0.62299 0.0
C1010 C 0.9346 0.18479 0.56446 0.0
C1011 C 0.92024 0.17055 0.59401 0.0
C1012 C 0.92648 0.18912 0.54756 0.0
C1013 C 0.89633 0.19122 0.54304 0.0
C1014 C 0.91232 0.18154 0.57685 0.0
C1015 C 0.87477 0.19034 0.55591 0.0
C1016 C 0.89936 0.15503 0.60386 0.0
C1017 C 0.95884 0.15784 0.61358 0.0
N1018 N 0.88314 0.18487 0.57225 0.0
N1019 N 0.94915 0.17187 0.59935 0.0
H1020 H 0.86852 0.49325 0.86738 0.0
H1021 H 0.84339 0.35707 0.80339 0.0
H1022 H 0.91288 0.40865 0.87225 0.0
H1023 H 0.83412 0.44925 0.78985 0.0
H1024 H 0.85236 0.37215 0.8331 0.0
H1025 H 0.83943 0.47314 0.84358 0.0
C1026 C 0.8716 0.47022 0.86371 0.0
C1027 C 0.89343 0.45268 0.87159 0.0
C1028 C 0.8475 0.38896 0.82368 0.0
C1029 C 0.86037 0.42968 0.84442 0.0
C1030 C 0.84215 0.38037 0.80683 0.0
C1031 C 0.83816 0.40205 0.79431 0.0
C1032 C 0.84841 0.41933 0.8279 0.0
C1033 C 0.83722 0.43198 0.79923 0.0
C1034 C 0.85511 0.45883 0.85009 0.0
C1035 C 0.89662 0.42303 0.86627 0.0
N1036 N 0.84257 0.43979 0.81564 0.0
N1037 N 0.8805 0.41252 0.85288 0.0
H1038 H 0.56934 0.37601 0.11966 0.0
H1039 H 0.67869 0.40475 0.04575 0.0
H1040 H 0.64472 0.435 0.1256 0.0
H1041 H 0.63503 0.31983 0.05023 0.0
H1042 H 0.66805 0.41491 0.07565 0.0
H1043 H 0.59416 0.35266 0.09545 0.0
C1044 C 0.59142 0.38361 0.11619 0.0
C1045 C 0.60463 0.40804 0.12449 0.0
C1046 C 0.6613 0.39377 0.07024 0.0
C1047 C 0.63273 0.38181 0.0965 0.0
C1048 C 0.66726 0.38806 0.05318 0.0
C1049 C 0.65748 0.36156 0.04561 0.0
C1050 C 0.64459 0.37324 0.07964 0.0
C1051 C 0.64288 0.34053 0.05571 0.0
C1052 C 0.60552 0.37029 0.1023 0.0
C1053 C 0.63321 0.41692 0.11926 0.0
N1054 N 0.6362 0.34711 0.07218 0.0
N1055 N 0.64601 0.40425 0.10538 0.0
loop_
_geom_bond_atom_site_label_1
_geom_bond_atom_site_label_2
_geom_bond_distance
_geom_bond_site_symmetry_2
_ccdc_geom_bond_type
C0 C1 1.384 . S
C0 C2 1.384 . S
C0 H28 0.931 . S
C1 C0 1.384 . S
C1 C4 1.383 . S
C2 C0 1.384 . S
C2 C3 1.420 . S
C2 H29 0.930 . S
C3 C2 1.420 . S
C3 C5 1.362 1_565 S
C3 C6 1.469 1_565 S
C4 C1 1.383 . S
C4 C5 1.387 1_565 S
C4 H30 0.930 1_565 S
C5 C3 1.362 1_545 S
C5 C4 1.387 1_545 S
C5 H31 0.931 . S
C6 C3 1.469 1_545 S
C6 C13 1.399 . S
C6 N44 1.343 . S
C7 C8 1.384 . S
C7 C9 1.384 . S
C7 H32 0.931 . S
C8 C7 1.384 . S
C8 C11 1.382 . S
C9 C7 1.384 . S
C9 C10 1.381 . S
C9 H33 0.930 1_565 S
C10 C9 1.381 . S
C10 C12 1.381 . S
C10 C13 1.487 1_565 S
C11 C8 1.382 . S
C11 C12 1.387 . S
C11 H34 0.930 . S
C12 C10 1.381 . S
C12 C11 1.387 . S
C12 H35 0.931 . S
C13 C6 1.399 . S
C13 C10 1.487 1_545 S
C13 N45 1.343 . S
C14 C15 1.384 . S
C14 C16 1.384 . S
C14 H36 0.931 . S
C15 C14 1.384 . S
C15 C18 1.382 . S
C16 C14 1.384 . S
C16 C17 1.381 . S
C16 H37 0.930 . S
C17 C16 1.381 . S
C17 C19 1.381 . S
C17 C20 1.487 1_655 S
C18 C15 1.382 . S
C18 C19 1.387 . S
C18 H38 0.930 . S
C19 C17 1.381 . S
C19 C18 1.387 . S
C19 H39 0.931 . S
C20 C17 1.487 1_455 S
C20 C27 1.399 . S
C20 N45 1.343 . S
C21 C22 1.384 . S
C21 C23 1.384 . S
C21 H40 0.931 . S
C22 C21 1.384 . S
C22 C25 1.382 . S
C23 C21 1.384 . S
C23 C24 1.381 . S
C23 H41 0.930 . S
C24 C23 1.381 . S
C24 C26 1.381 1_655 S
C24 C27 1.487 1_655 S
C25 C22 1.382 . S
C25 C26 1.387 1_655 S
C25 H42 0.930 . S
C26 C24 1.381 1_455 S
C26 C25 1.387 1_455 S
C26 H43 0.931 . S
C27 C20 1.399 . S
C27 C24 1.487 1_455 S
C27 N44 1.343 . S
H28 C0 0.931 . S
H29 C2 0.930 . S
H30 C4 0.930 1_545 S
H31 C5 0.931 . S
H32 C7 0.931 . S
H33 C9 0.930 1_545 S
H34 C11 0.930 . S
H35 C12 0.931 . S
H36 C14 0.931 . S
H37 C16 0.930 . S
H38 C18 0.930 . S
H39 C19 0.931 . S
H40 C21 0.931 . S
H41 C23 0.930 . S
H42 C25 0.930 . S
H43 C26 0.931 . S
N44 C6 1.343 . S
N44 C27 1.343 . S
N45 C13 1.343 . S
N45 C20 1.343 . S
C46 C47 1.384 . S
C46 C48 1.384 . S
C46 H74 0.931 . S
C47 C46 1.384 . S
C47 C50 1.382 . S
C48 C46 1.384 . S
C48 C49 1.381 . S
C48 H75 0.930 . S
C49 C48 1.381 . S
C49 C51 1.381 . S
C49 C52 1.487 . S
C50 C47 1.382 . S
C50 C51 1.387 . S
C50 H76 0.930 . S
C51 C49 1.381 . S
C51 C50 1.387 . S
C51 H77 0.931 1_655 S
C52 C49 1.487 . S
C52 C59 1.399 . S
C52 N90 1.343 1_655 S
C53 C54 1.384 . S
C53 C55 1.384 . S
C53 H78 0.931 . S
C54 C53 1.384 . S
C54 C57 1.382 . S
C55 C53 1.384 . S
C55 C56 1.381 . S
C55 H79 0.930 . S
C56 C55 1.381 . S
C56 C58 1.381 . S
C56 C59 1.487 . S
C57 C54 1.382 . S
C57 C58 1.387 . S
C57 H80 0.930 . S
C58 C56 1.381 . S
C58 C57 1.387 . S
C58 H81 0.931 . S
C59 C52 1.399 . S
C59 C56 1.487 . S
C59 N91 1.343 1_655 S
C60 C61 1.384 . S
C60 C62 1.384 . S
C60 H82 0.931 . S
C61 C60 1.384 . S
C61 C64 1.382 . S
C62 C60 1.384 . S
C62 C63 1.381 . S
C62 H83 0.930 . S
C63 C62 1.381 . S
C63 C65 1.381 . S
C63 C66 1.487 . S
C64 C61 1.382 . S
C64 C65 1.387 . S
C64 H84 0.930 . S
C65 C63 1.381 . S
C65 C64 1.387 . S
C65 H85 0.931 . S
C66 C63 1.487 . S
C66 C73 1.399 . S
C66 N91 1.343 . S
C67 C68 1.384 . S
C67 C69 1.384 . S
C67 H86 0.931 . S
C68 C67 1.384 . S
C68 C71 1.382 . S
C69 C67 1.384 . S
C69 C70 1.381 . S
C69 H87 0.930 . S
C70 C69 1.381 . S
C70 C72 1.381 . S
C70 C73 1.487 . S
C71 C68 1.382 . S
C71 C72 1.387 . S
C71 H88 0.930 . S
C72 C70 1.381 . S
C72 C71 1.387 . S
C72 H89 0.931 . S
C73 C66 1.399 . S
C73 C70 1.487 . S
C73 N90 1.343 . S
H74 C46 0.931 . S
H75 C48 0.930 . S
H76 C50 0.930 . S
H77 C51 0.931 1_455 S
H78 C53 0.931 . S
H79 C55 0.930 . S
H80 C57 0.930 . S
H81 C58 0.931 . S
H82 C60 0.931 . S
H83 C62 0.930 . S
H84 C64 0.930 . S
H85 C65 0.931 . S
H86 C67 0.931 . S
H87 C69 0.930 . S
H88 C71 0.930 . S
H89 C72 0.931 . S
N90 C52 1.343 1_455 S
N90 C73 1.343 . S
N91 C59 1.343 1_455 S
N91 C66 1.343 . S
C92 C93 1.384 . S
C92 C94 1.384 . S
C92 H120 0.931 . S
C93 C92 1.384 . S
C93 C96 1.382 . S
C94 C92 1.384 . S
C94 C95 1.381 . S
C94 H121 0.930 . S
C95 C94 1.381 . S
C95 C97 1.381 . S
C95 C98 1.487 . S
C96 C93 1.382 . S
C96 C97 1.387 . S
C96 H122 0.930 . S
C97 C95 1.381 . S
C97 C96 1.387 . S
C97 H123 0.931 . S
C98 C95 1.487 . S
C98 C105 1.399 . S
C98 N136 1.343 . S
C99 C100 1.384 . S
C99 C101 1.384 . S
C99 H124 0.931 . S
C100 C99 1.384 . S
C100 C103 1.382 . S
C101 C99 1.384 . S
C101 C102 1.381 . S
C101 H125 0.930 . S
C102 C101 1.381 . S
C102 C104 1.381 . S
C102 C105 1.487 . S
C103 C100 1.382 . S
C103 C104 1.387 . S
C103 H126 0.930 . S
C104 C102 1.381 . S
C104 C103 1.387 . S
C104 H127 0.931 . S
C105 C98 1.399 . S
C105 C102 1.487 . S
C105 N137 1.343 . S
C106 C107 1.384 . S
C106 C108 1.384 . S
C106 H128 0.931 . S
C107 C106 1.384 . S
C107 C110 1.382 . S
C108 C106 1.384 . S
C108 C109 1.381 . S
C108 H129 0.930 . S
C109 C108 1.381 . S
C109 C111 1.381 . S
C109 C112 1.487 . S
C110 C107 1.382 . S
C110 C111 1.387 . S
C110 H130 0.930 . S
C111 C109 1.381 . S
C111 C110 1.387 . S
C111 H131 0.931 . S
C112 C109 1.487 . S
C112 C119 1.399 . S
C112 N137 1.343 . S
C113 C114 1.384 . S
C113 C115 1.384 . S
C113 H132 0.931 . S
C114 C113 1.384 . S
C114 C117 1.382 . S
C115 C113 1.384 . S
C115 C116 1.381 . S
C115 H133 0.930 . S
C116 C115 1.381 . S
C116 C118 1.381 . S
C116 C119 1.487 . S
C117 C114 1.382 . S
C117 C118 1.387 . S
C117 H134 0.930 . S
C118 C116 1.381 . S
C118 C117 1.387 . S
C118 H135 0.931 . S
C119 C112 1.399 . S
C119 C116 1.487 . S
C119 N136 1.343 . S
H120 C92 0.931 . S
H121 C94 0.930 . S
H122 C96 0.930 . S
H123 C97 0.931 . S
H124 C99 0.931 . S
H125 C101 0.930 . S
H126 C103 0.930 . S
H127 C104 0.931 . S
H128 C106 0.931 . S
H129 C108 0.930 . S
H130 C110 0.930 . S
H131 C111 0.931 . S
H132 C113 0.931 . S
H133 C115 0.930 . S
H134 C117 0.930 . S
H135 C118 0.931 . S
N136 C98 1.343 . S
N136 C119 1.343 . S
N137 C105 1.343 . S
N137 C112 1.343 . S
C138 C139 1.384 . S
C138 C140 1.384 . S
C138 H166 0.931 . S
C139 C138 1.384 . S
C139 C142 1.382 . S
C140 C138 1.384 . S
C140 C141 1.381 . S
C140 H167 0.930 . S
C141 C140 1.381 . S
C141 C143 1.381 . S
C141 C144 1.487 . S
C142 C139 1.382 . S
C142 C143 1.387 . S
C142 H168 0.930 . S
C143 C141 1.381 . S
C143 C142 1.387 . S
C143 H169 0.931 . S
C144 C141 1.487 . S
C144 C151 1.399 . S
C144 N182 1.343 1_565 S
C145 C146 1.384 . S
C145 C147 1.384 . S
C145 H170 0.931 . S
C146 C145 1.384 . S
C146 C149 1.382 . S
C147 C145 1.384 . S
C147 C148 1.381 . S
C147 H171 0.930 . S
C148 C147 1.381 . S
C148 C150 1.381 . S
C148 C151 1.487 . S
C149 C146 1.382 . S
C149 C150 1.387 . S
C149 H172 0.930 . S
C150 C148 1.381 . S
C150 C149 1.387 . S
C150 H173 0.931 . S
C151 C144 1.399 . S
C151 C148 1.487 . S
C151 N183 1.343 . S
C152 C153 1.384 . S
C152 C154 1.384 . S
C152 H174 0.931 . S
C153 C152 1.384 . S
C153 C156 1.382 . S
C154 C152 1.384 . S
C154 C155 1.381 . S
C154 H175 0.930 . S
C155 C154 1.381 . S
C155 C157 1.381 . S
C155 C158 1.487 . S
C156 C153 1.382 . S
C156 C157 1.387 . S
C156 H176 0.930 . S
C157 C155 1.381 . S
C157 C156 1.387 . S
C157 H177 0.931 . S
C158 C155 1.487 . S
C158 C165 1.399 . S
C158 N183 1.343 1_545 S
C159 C160 1.384 . S
C159 C161 1.384 . S
C159 H178 0.931 . S
C160 C159 1.384 . S
C160 C163 1.382 . S
C161 C159 1.384 . S
C161 C162 1.381 . S
C161 H179 0.930 . S
C162 C161 1.381 . S
C162 C164 1.381 . S
C162 C165 1.487 . S
C163 C160 1.382 . S
C163 C164 1.387 . S
C163 H180 0.930 . S
C164 C162 1.381 . S
C164 C163 1.387 . S
C164 H181 0.931 . S
C165 C158 1.399 . S
C165 C162 1.487 . S
C165 N182 1.343 . S
H166 C138 0.931 . S
H167 C140 0.930 . S
H168 C142 0.930 . S
H169 C143 0.931 . S
H170 C145 0.931 . S
H171 C147 0.930 . S
H172 C149 0.930 . S
H173 C150 0.931 . S
H174 C152 0.931 . S
H175 C154 0.930 . S
H176 C156 0.930 . S
H177 C157 0.931 . S
H178 C159 0.931 . S
H179 C161 0.930 . S
H180 C163 0.930 . S
H181 C164 0.931 . S
N182 C144 1.343 1_545 S
N182 C165 1.343 . S
N183 C151 1.343 . S
N183 C158 1.343 1_565 S
C184 C185 1.384 . S
C184 C186 1.384 . S
C184 H212 0.931 . S
C185 C184 1.384 . S
C185 C188 1.382 . S
C186 C184 1.384 . S
C186 C187 1.381 . S
C186 H213 0.930 . S
C187 C186 1.381 . S
C187 C189 1.381 . S
C187 C190 1.487 . S
C188 C185 1.382 . S
C188 C189 1.387 . S
C188 H214 0.930 . S
C189 C187 1.381 . S
C189 C188 1.387 . S
C189 H215 0.931 . S
C190 C187 1.487 . S
C190 C197 1.399 . S
C190 N228 1.343 . S
C191 C192 1.384 . S
C191 C193 1.384 . S
C191 H216 0.931 . S
C192 C191 1.384 . S
C192 C195 1.382 . S
C193 C191 1.384 . S
C193 C194 1.381 . S
C193 H217 0.930 . S
C194 C193 1.381 . S
C194 C196 1.381 . S
C194 C197 1.487 . S
C195 C192 1.382 . S
C195 C196 1.387 . S
C195 H218 0.930 . S
C196 C194 1.381 . S
C196 C195 1.387 . S
C196 H219 0.931 . S
C197 C190 1.399 . S
C197 C194 1.487 . S
C197 N229 1.344 1_455 S
C198 C199 1.384 . S
C198 C200 1.384 . S
C198 H220 0.931 . S
C199 C198 1.384 . S
C199 C202 1.382 . S
C200 C198 1.384 . S
C200 C201 1.381 . S
C200 H221 0.930 . S
C201 C200 1.381 . S
C201 C203 1.381 . S
C201 C204 1.487 . S
C202 C199 1.382 . S
C202 C203 1.387 . S
C202 H222 0.930 . S
C203 C201 1.381 . S
C203 C202 1.387 . S
C203 H223 0.931 . S
C204 C201 1.487 . S
C204 C211 1.399 . S
C204 N229 1.342 . S
C205 C206 1.384 . S
C205 C207 1.384 . S
C205 H224 0.931 . S
C206 C205 1.384 . S
C206 C209 1.382 . S
C207 C205 1.384 . S
C207 C208 1.381 . S
C207 H225 0.930 . S
C208 C207 1.381 . S
C208 C210 1.381 . S
C208 C211 1.487 . S
C209 C206 1.382 . S
C209 C210 1.387 . S
C209 H226 0.930 . S
C210 C208 1.381 . S
C210 C209 1.387 . S
C210 H227 0.931 . S
C211 C204 1.399 . S
C211 C208 1.487 . S
C211 N228 1.343 1_655 S
H212 C184 0.931 . S
H213 C186 0.930 . S
H214 C188 0.930 . S
H215 C189 0.931 . S
H216 C191 0.931 . S
H217 C193 0.930 . S
H218 C195 0.930 . S
H219 C196 0.931 . S
H220 C198 0.931 . S
H221 C200 0.930 . S
H222 C202 0.930 . S
H223 C203 0.931 . S
H224 C205 0.931 . S
H225 C207 0.930 . S
H226 C209 0.930 . S
H227 C210 0.931 . S
N228 C190 1.343 . S
N228 C211 1.343 1_455 S
N229 C197 1.344 1_655 S
N229 C204 1.342 . S
C230 C231 1.384 . S
C230 C232 1.384 . S
C230 H258 0.931 . S
C231 C230 1.384 . S
C231 C234 1.382 . S
C232 C230 1.384 . S
C232 C233 1.381 . S
C232 H259 0.930 . S
C233 C232 1.381 . S
C233 C235 1.381 . S
C233 C236 1.487 . S
C234 C231 1.382 . S
C234 C235 1.387 . S
C234 H260 0.930 . S
C235 C233 1.381 . S
C235 C234 1.387 . S
C235 H261 0.931 . S
C236 C233 1.487 . S
C236 C243 1.399 . S
C236 N274 1.343 . S
C237 C238 1.384 . S
C237 C239 1.384 . S
C237 H262 0.931 . S
C238 C237 1.384 . S
C238 C241 1.382 . S
C239 C237 1.384 . S
C239 C240 1.381 . S
C239 H263 0.930 . S
C240 C239 1.381 . S
C240 C242 1.381 . S
C240 C243 1.487 . S
C241 C238 1.382 . S
C241 C242 1.387 . S
C241 H264 0.930 . S
C242 C240 1.381 . S
C242 C241 1.387 . S
C242 H265 0.931 . S
C243 C236 1.399 . S
C243 C240 1.487 . S
C243 N275 1.343 . S
C244 C245 1.384 . S
C244 C246 1.384 . S
C244 H266 0.931 . S
C245 C244 1.384 . S
C245 C248 1.382 . S
C246 C244 1.384 . S
C246 C247 1.381 . S
C246 H267 0.930 . S
C247 C246 1.381 . S
C247 C249 1.381 . S
C247 C250 1.487 . S
C248 C245 1.382 . S
C248 C249 1.387 . S
C248 H268 0.930 . S
C249 C247 1.381 . S
C249 C248 1.387 . S
C249 H269 0.931 . S
C250 C247 1.487 . S
C250 C257 1.399 . S
C250 N275 1.343 . S
C251 C252 1.384 . S
C251 C253 1.384 . S
C251 H270 0.931 . S
C252 C251 1.384 . S
C252 C255 1.382 . S
C253 C251 1.384 . S
C253 C254 1.381 . S
C253 H271 0.930 . S
C254 C253 1.381 . S
C254 C256 1.381 . S
C254 C257 1.487 . S
C255 C252 1.382 . S
C255 C256 1.387 . S
C255 H272 0.930 . S
C256 C254 1.381 . S
C256 C255 1.387 . S
C256 H273 0.931 . S
C257 C250 1.399 . S
C257 C254 1.487 . S
C257 N274 1.343 . S
H258 C230 0.931 . S
H259 C232 0.930 . S
H260 C234 0.930 . S
H261 C235 0.931 . S
H262 C237 0.931 . S
H263 C239 0.930 . S
H264 C241 0.930 . S
H265 C242 0.931 . S
H266 C244 0.931 . S
H267 C246 0.930 . S
H268 C248 0.930 . S
H269 C249 0.931 . S
H270 C251 0.931 . S
H271 C253 0.930 . S
H272 C255 0.930 . S
H273 C256 0.931 . S
N274 C236 1.343 . S
N274 C257 1.343 . S
N275 C243 1.343 . S
N275 C250 1.343 . S
C276 C277 1.384 . S
C276 C278 1.384 . S
C276 H304 0.931 . S
C277 C276 1.384 . S
C277 C280 1.382 . S
C278 C276 1.384 . S
C278 C279 1.381 . S
C278 H305 0.930 . S
C279 C278 1.381 . S
C279 C281 1.381 . S
C279 C282 1.487 . S
C280 C277 1.382 . S
C280 C281 1.387 . S
C280 H306 0.930 . S
C281 C279 1.381 . S
C281 C280 1.387 . S
C281 H307 0.931 1_565 S
C282 C279 1.487 . S
C282 C289 1.399 . S
C282 N320 1.343 1_565 S
C283 C284 1.384 . S
C283 C285 1.384 . S
C283 H308 0.931 . S
C284 C283 1.384 . S
C284 C287 1.382 . S
C285 C283 1.384 . S
C285 C286 1.381 . S
C285 H309 0.930 . S
C286 C285 1.381 . S
C286 C288 1.381 . S
C286 C289 1.487 . S
C287 C284 1.382 . S
C287 C288 1.387 . S
C287 H310 0.930 . S
C288 C286 1.381 . S
C288 C287 1.387 . S
C288 H311 0.931 . S
C289 C282 1.399 . S
C289 C286 1.487 . S
C289 N321 1.343 1_565 S
C290 C291 1.384 . S
C290 C292 1.384 . S
C290 H312 0.931 . S
C291 C290 1.384 . S
C291 C294 1.382 . S
C292 C290 1.384 . S
C292 C293 1.381 . S
C292 H313 0.930 . S
C293 C292 1.381 . S
C293 C295 1.381 . S
C293 C296 1.487 . S
C294 C291 1.382 . S
C294 C295 1.387 . S
C294 H314 0.930 . S
C295 C293 1.381 . S
C295 C294 1.387 . S
C295 H315 0.931 . S
C296 C293 1.487 . S
C296 C303 1.399 . S
C296 N321 1.343 . S
C297 C298 1.384 . S
C297 C299 1.384 . S
C297 H316 0.931 . S
C298 C297 1.384 . S
C298 C301 1.382 . S
C299 C297 1.384 . S
C299 C300 1.381 . S
C299 H317 0.930 . S
C300 C299 1.381 . S
C300 C302 1.381 . S
C300 C303 1.487 . S
C301 C298 1.382 . S
C301 C302 1.387 . S
C301 H318 0.930 . S
C302 C300 1.381 . S
C302 C301 1.387 . S
C302 H319 0.931 . S
C303 C296 1.399 . S
C303 C300 1.487 . S
C303 N320 1.343 . S
H304 C276 0.931 . S
H305 C278 0.930 . S
H306 C280 0.930 . S
H307 C281 0.931 1_545 S
H308 C283 0.931 . S
H309 C285 0.930 . S
H310 C287 0.930 . S
H311 C288 0.931 . S
H312 C290 0.931 . S
H313 C292 0.930 . S
H314 C294 0.930 . S
H315 C295 0.931 . S
H316 C297 0.931 . S
H317 C299 0.930 . S
H318 C301 0.930 . S
H319 C302 0.931 . S
N320 C282 1.343 1_545 S
N320 C303 1.343 . S
N321 C289 1.343 1_545 S
N321 C296 1.343 . S
C322 C323 1.384 . S
C322 C324 1.384 . S
C322 H350 0.931 . S
C323 C322 1.384 . S
C323 C326 1.382 . S
C324 C322 1.384 . S
C324 C325 1.381 . S
C324 H351 0.923 1_565 S
C325 C324 1.381 . S
C325 C327 1.381 . S
C325 C328 1.487 1_565 S
C326 C323 1.382 . S
C326 C327 1.387 . S
C326 H352 0.930 . S
C327 C325 1.381 . S
C327 C326 1.387 . S
C327 H353 0.931 . S
C328 C325 1.487 1_545 S
C328 C335 1.399 . S
C328 N366 1.343 . S
C329 C330 1.384 . S
C329 C331 1.384 . S
C329 H354 0.931 . S
C330 C329 1.384 . S
C330 C333 1.382 . S
C331 C329 1.384 . S
C331 C332 1.381 . S
C331 H355 0.930 . S
C332 C331 1.381 . S
C332 C334 1.381 1_565 S
C332 C335 1.487 1_565 S
C333 C330 1.382 . S
C333 C334 1.387 1_565 S
C333 H356 0.930 . S
C334 C332 1.381 1_545 S
C334 C333 1.387 1_545 S
C334 H357 0.931 . S
C335 C328 1.399 . S
C335 C332 1.487 1_545 S
C335 N367 1.343 . S
C336 C337 1.384 . S
C336 C338 1.384 . S
C336 H358 0.931 . S
C337 C336 1.384 . S
C337 C340 1.394 . S
C338 C336 1.384 . S
C338 C339 1.381 1_655 S
C338 H359 0.930 . S
C339 C338 1.381 1_455 S
C339 C341 1.381 . S
C339 C342 1.487 . S
C340 C337 1.394 . S
C340 C341 1.381 1_655 S
C340 H360 0.925 1_655 S
C341 C339 1.381 . S
C341 C340 1.381 1_455 S
C341 H361 0.931 . S
C342 C339 1.487 . S
C342 C349 1.399 . S
C342 N367 1.343 . S
C343 C344 1.384 . S
C343 C345 1.384 1_655 S
C343 H362 0.931 . S
C344 C343 1.384 . S
C344 C347 1.382 . S
C345 C343 1.384 1_455 S
C345 C346 1.381 . S
C345 H363 0.930 . S
C346 C345 1.381 . S
C346 C348 1.381 1_455 S
C346 C349 1.487 . S
C347 C344 1.382 . S
C347 C348 1.387 . S
C347 H364 0.930 . S
C348 C346 1.381 1_655 S
C348 C347 1.387 . S
C348 H365 0.931 . S
C349 C342 1.399 . S
C349 C346 1.487 . S
C349 N366 1.343 . S
H350 C322 0.931 . S
H351 C324 0.923 1_545 S
H352 C326 0.930 . S
H353 C327 0.931 . S
H354 C329 0.931 . S
H355 C331 0.930 . S
H356 C333 0.930 . S
H357 C334 0.931 . S
H358 C336 0.931 . S
H359 C338 0.930 . S
H360 C340 0.925 1_455 S
H361 C341 0.931 . S
H362 C343 0.931 . S
H363 C345 0.930 . S
H364 C347 0.930 . S
H365 C348 0.931 . S
N366 C328 1.343 . S
N366 C349 1.343 . S
N367 C335 1.343 . S
N367 C342 1.343 . S
Co368 O369 2.216 . S
Co368 O370 2.091 . S
Co368 O372 2.004 . S
Co368 O378 2.021 1_554 S
Co368 O380 2.137 . S
Co368 O381 2.244 . S
O369 Co368 2.216 . S
O369 C376 1.248 . S
O370 Co368 2.091 . S
O370 C376 1.263 . S
C371 O380 1.247 . S
C371 O381 1.272 . S
O372 Co368 2.004 . S
O372 C377 1.259 . S
Co373 O374 2.061 . S
Co373 O379 2.052 1_554 S
Co373 O381 2.135 . S
O374 Co373 2.061 . S
O374 C377 1.235 . S
C375 O378 1.238 . S
C375 O379 1.241 . S
C376 O369 1.248 . S
C376 O370 1.263 . S
C377 O372 1.259 . S
C377 O374 1.235 . S
O378 Co368 2.021 1_556 S
O378 C375 1.238 . S
O379 Co373 2.052 1_556 S
O379 C375 1.241 . S
O380 Co368 2.137 . S
O380 C371 1.247 . S
O381 Co368 2.244 . S
O381 C371 1.272 . S
O381 Co373 2.135 . S
Co382 O383 2.216 . S
Co382 O384 2.091 . S
Co382 O386 2.004 . S
Co382 O392 2.021 . S
Co382 O394 2.137 . S
Co382 O395 2.244 . S
O383 Co382 2.216 . S
O383 C390 1.247 . S
O384 Co382 2.091 . S
O384 C390 1.261 . S
C385 O394 1.247 . S
C385 O395 1.272 . S
O386 Co382 2.004 . S
O386 C391 1.259 . S
Co387 O388 2.061 . S
Co387 O393 2.052 . S
Co387 O395 2.135 . S
O388 Co387 2.061 . S
O388 C391 1.235 . S
C389 O392 1.238 . S
C389 O393 1.241 . S
C390 O383 1.247 . S
C390 O384 1.261 . S
C391 O386 1.259 . S
C391 O388 1.235 . S
O392 Co382 2.021 . S
O392 C389 1.238 . S
O393 Co387 2.052 . S
O393 C389 1.241 . S
O394 Co382 2.137 . S
O394 C385 1.247 . S
O395 Co382 2.244 . S
O395 C385 1.272 . S
O395 Co387 2.135 . S
Co396 O397 2.216 . S
Co396 O398 2.091 . S
Co396 O400 2.004 . S
Co396 O406 2.021 . S
Co396 O408 2.137 . S
Co396 O409 2.244 . S
O397 Co396 2.216 . S
O397 C404 1.247 . S
O398 Co396 2.091 . S
O398 C404 1.261 . S
C399 O408 1.247 . S
C399 O409 1.272 . S
O400 Co396 2.004 . S
O400 C405 1.259 . S
Co401 O402 2.061 . S
Co401 O407 2.052 . S
Co401 O409 2.135 . S
O402 Co401 2.061 . S
O402 C405 1.235 . S
C403 O406 1.238 . S
C403 O407 1.241 . S
C404 O397 1.247 . S
C404 O398 1.261 . S
C405 O400 1.259 . S
C405 O402 1.235 . S
O406 Co396 2.021 . S
O406 C403 1.238 . S
O407 Co401 2.052 . S
O407 C403 1.241 . S
O408 Co396 2.137 . S
O408 C399 1.247 . S
O409 Co396 2.244 . S
O409 C399 1.272 . S
O409 Co401 2.135 . S
Co410 O411 2.216 . S
Co410 O412 2.091 . S
Co410 O414 2.004 . S
Co410 O420 2.021 . S
Co410 O422 2.137 . S
Co410 O423 2.244 . S
O411 Co410 2.216 . S
O411 C418 1.247 . S
O412 Co410 2.091 . S
O412 C418 1.261 . S
C413 O422 1.247 . S
C413 O423 1.272 . S
O414 Co410 2.004 . S
O414 C419 1.259 . S
Co415 O416 2.061 . S
Co415 O421 2.052 . S
Co415 O423 2.135 . S
O416 Co415 2.061 . S
O416 C419 1.235 . S
C417 O420 1.238 . S
C417 O421 1.241 . S
C418 O411 1.247 . S
C418 O412 1.261 . S
C419 O414 1.259 . S
C419 O416 1.235 . S
O420 Co410 2.021 . S
O420 C417 1.238 . S
O421 Co415 2.052 . S
O421 C417 1.241 . S
O422 Co410 2.137 . S
O422 C413 1.247 . S
O423 Co410 2.244 . S
O423 C413 1.272 . S
O423 Co415 2.135 . S
Co424 O425 2.216 . S
Co424 O426 2.091 . S
Co424 O428 2.004 . S
Co424 O434 2.021 . S
Co424 O436 2.137 . S
Co424 O437 2.244 . S
O425 Co424 2.216 . S
O425 C432 1.247 . S
O426 Co424 2.091 . S
O426 C432 1.261 . S
C427 O436 1.247 . S
C427 O437 1.272 . S
O428 Co424 2.004 . S
O428 C433 1.259 . S
Co429 O430 2.061 . S
Co429 O435 2.052 . S
Co429 O437 2.135 . S
O430 Co429 2.061 . S
O430 C433 1.235 . S
C431 O434 1.238 . S
C431 O435 1.241 . S
C432 O425 1.247 . S
C432 O426 1.261 . S
C433 O428 1.259 . S
C433 O430 1.235 . S
O434 Co424 2.021 . S
O434 C431 1.238 . S
O435 Co429 2.052 . S
O435 C431 1.241 . S
O436 Co424 2.137 . S
O436 C427 1.247 . S
O437 Co424 2.244 . S
O437 C427 1.272 . S
O437 Co429 2.135 . S
Co438 O439 2.216 . S
Co438 O440 2.091 . S
Co438 O442 2.004 . S
Co438 O448 2.021 . S
Co438 O450 2.137 . S
Co438 O451 2.244 . S
O439 Co438 2.216 . S
O439 C446 1.247 . S
O440 Co438 2.091 . S
O440 C446 1.261 . S
C441 O450 1.247 . S
C441 O451 1.272 . S
O442 Co438 2.004 . S
O442 C447 1.259 . S
Co443 O444 2.061 . S
Co443 O449 2.052 . S
Co443 O451 2.135 . S
O444 Co443 2.061 . S
O444 C447 1.235 . S
C445 O448 1.238 . S
C445 O449 1.241 . S
C446 O439 1.247 . S
C446 O440 1.261 . S
C447 O442 1.259 . S
C447 O444 1.235 . S
O448 Co438 2.021 . S
O448 C445 1.238 . S
O449 Co443 2.052 . S
O449 C445 1.241 . S
O450 Co438 2.137 . S
O450 C441 1.247 . S
O451 Co438 2.244 . S
O451 C441 1.272 . S
O451 Co443 2.135 . S
Co452 O453 2.216 1_556 S
Co452 O454 2.091 1_556 S
Co452 O456 2.004 . S
Co452 O462 2.021 1_556 S
Co452 O464 2.137 . S
Co452 O465 2.244 . S
O453 Co452 2.216 1_554 S
O453 C460 1.247 . S
O454 Co452 2.091 1_554 S
O454 C460 1.261 . S
C455 O464 1.247 . S
C455 O465 1.272 . S
O456 Co452 2.004 . S
O456 C461 1.259 . S
Co457 O458 2.061 . S
Co457 O463 2.052 1_556 S
Co457 O465 2.135 . S
O458 Co457 2.061 . S
O458 C461 1.235 . S
C459 O462 1.238 . S
C459 O463 1.241 . S
C460 O453 1.247 . S
C460 O454 1.261 . S
C461 O456 1.259 . S
C461 O458 1.235 . S
O462 Co452 2.021 1_554 S
O462 C459 1.238 . S
O463 Co457 2.052 1_554 S
O463 C459 1.241 . S
O464 Co452 2.137 . S
O464 C455 1.247 . S
O465 Co452 2.244 . S
O465 C455 1.272 . S
O465 Co457 2.135 . S
Co466 O467 2.216 . S
Co466 O468 2.091 . S
Co466 O470 2.004 . S
Co466 O476 2.021 . S
Co466 O478 2.137 . S
Co466 O479 2.244 . S
O467 Co466 2.216 . S
O467 C474 1.247 . S
O468 Co466 2.091 . S
O468 C474 1.261 . S
C469 O478 1.247 . S
C469 O479 1.272 . S
O470 Co466 2.004 . S
O470 C475 1.259 . S
Co471 O472 2.061 . S
Co471 O477 2.052 . S
Co471 O479 2.135 . S
O472 Co471 2.061 . S
O472 C475 1.235 . S
C473 O476 1.238 . S
C473 O477 1.241 . S
C474 O467 1.247 . S
C474 O468 1.261 . S
C475 O470 1.259 . S
C475 O472 1.235 . S
O476 Co466 2.021 . S
O476 C473 1.238 . S
O477 Co471 2.052 . S
O477 C473 1.241 . S
O478 Co466 2.137 . S
O478 C469 1.247 . S
O479 Co466 2.244 . S
O479 C469 1.272 . S
O479 Co471 2.135 . S
H480 C486 0.930 . S
H481 C490 0.930 . S
H482 C495 0.929 . S
H483 C493 0.929 . S
H484 C488 0.929 . S
H485 C494 0.929 . S
C486 H480 0.930 . S
C486 C487 1.367 . S
C486 C494 1.378 . S
C487 C486 1.367 . S
C487 C495 1.433 . S
C488 H484 0.929 . S
C488 C490 1.378 . S
C488 C492 1.350 . S
C489 C492 1.463 . S
C489 C494 1.350 . S
C489 N497 1.427 . S
C490 H481 0.930 . S
C490 C488 1.378 . S
C490 C491 1.367 . S
C491 C490 1.367 . S
C491 C493 1.433 . S
C492 C488 1.350 . S
C492 C489 1.463 . S
C492 N496 1.427 . S
C493 H483 0.929 . S
C493 C491 1.433 . S
C493 N496 1.384 . S
C494 H485 0.929 . S
C494 C486 1.378 . S
C494 C489 1.350 . S
C495 H482 0.929 . S
C495 C487 1.433 . S
C495 N497 1.384 . S
N496 C492 1.427 . S
N496 C493 1.384 . S
N497 C489 1.427 . S
N497 C495 1.384 . S
H498 C504 0.930 . S
H499 C508 0.930 . S
H500 C513 0.929 . S
H501 C511 0.929 . S
H502 C506 0.929 . S
H503 C512 0.929 . S
C504 H498 0.930 . S
C504 C505 1.367 . S
C504 C512 1.378 . S
C505 C504 1.367 . S
C505 C513 1.433 . S
C506 H502 0.929 . S
C506 C508 1.378 . S
C506 C510 1.350 . S
C507 C510 1.463 . S
C507 C512 1.350 . S
C507 N515 1.427 . S
C508 H499 0.930 . S
C508 C506 1.378 . S
C508 C509 1.367 . S
C509 C508 1.367 . S
C509 C511 1.433 . S
C510 C506 1.350 . S
C510 C507 1.463 . S
C510 N514 1.427 . S
C511 H501 0.929 . S
C511 C509 1.433 . S
C511 N514 1.384 . S
C512 H503 0.929 . S
C512 C504 1.378 . S
C512 C507 1.350 . S
C513 H500 0.929 . S
C513 C505 1.433 . S
C513 N515 1.384 . S
N514 C510 1.427 . S
N514 C511 1.384 . S
N515 C507 1.427 . S
N515 C513 1.384 . S
H516 C522 0.930 . S
H517 C526 0.930 . S
H518 C531 0.929 . S
H519 C529 0.929 . S
H520 C524 0.929 . S
H521 C530 0.929 . S
C522 H516 0.930 . S
C522 C523 1.367 . S
C522 C530 1.378 . S
C523 C522 1.367 . S
C523 C531 1.433 . S
C524 H520 0.929 . S
C524 C526 1.378 . S
C524 C528 1.350 . S
C525 C528 1.463 . S
C525 C530 1.350 . S
C525 N533 1.427 . S
C526 H517 0.930 . S
C526 C524 1.378 . S
C526 C527 1.367 . S
C527 C526 1.367 . S
C527 C529 1.433 . S
C528 C524 1.350 . S
C528 C525 1.463 . S
C528 N532 1.427 . S
C529 H519 0.929 . S
C529 C527 1.433 . S
C529 N532 1.384 . S
C530 H521 0.929 . S
C530 C522 1.378 . S
C530 C525 1.350 . S
C531 H518 0.929 . S
C531 C523 1.433 . S
C531 N533 1.384 . S
N532 C528 1.427 . S
N532 C529 1.384 . S
N533 C525 1.427 . S
N533 C531 1.384 . S
H534 C540 0.930 . S
H535 C544 0.930 1_556 S
H536 C549 0.929 . S
H537 C547 0.929 . S
H538 C542 0.929 1_556 S
H539 C548 0.929 . S
C540 H534 0.930 . S
C540 C541 1.367 . S
C540 C548 1.378 . S
C541 C540 1.367 . S
C541 C549 1.433 . S
C542 H538 0.929 1_554 S
C542 C544 1.378 . S
C542 C546 1.350 . S
C543 C546 1.463 . S
C543 C548 1.350 . S
C543 N551 1.427 . S
C544 H535 0.930 1_554 S
C544 C542 1.378 . S
C544 C545 1.367 . S
C545 C544 1.367 . S
C545 C547 1.433 . S
C546 C542 1.350 . S
C546 C543 1.463 . S
C546 N550 1.427 . S
C547 H537 0.929 . S
C547 C545 1.433 . S
C547 N550 1.384 . S
C548 H539 0.929 . S
C548 C540 1.378 . S
C548 C543 1.350 . S
C549 H536 0.929 . S
C549 C541 1.433 . S
C549 N551 1.384 . S
N550 C546 1.427 . S
N550 C547 1.384 . S
N551 C543 1.427 . S
N551 C549 1.384 . S
H552 C558 0.930 . S
H553 C562 0.930 . S
H554 C567 0.929 . S
H555 C565 0.929 . S
H556 C560 0.929 . S
H557 C566 0.931 . S
C558 H552 0.930 . S
C558 C559 1.367 . S
C558 C566 1.378 . S
C559 C558 1.367 . S
C559 C567 1.433 . S
C560 H556 0.929 . S
C560 C562 1.378 . S
C560 C564 1.350 . S
C561 C564 1.463 . S
C561 C566 1.350 . S
C561 N569 1.427 . S
C562 H553 0.930 . S
C562 C560 1.378 . S
C562 C563 1.367 . S
C563 C562 1.367 . S
C563 C565 1.433 1_556 S
C564 C560 1.350 . S
C564 C561 1.463 . S
C564 N568 1.418 1_556 S
C565 H555 0.929 . S
C565 C563 1.433 1_554 S
C565 N568 1.387 . S
C566 H557 0.931 . S
C566 C558 1.378 . S
C566 C561 1.350 . S
C567 H554 0.929 . S
C567 C559 1.433 . S
C567 N569 1.384 . S
N568 C564 1.418 1_554 S
N568 C565 1.387 . S
N569 C561 1.427 . S
N569 C567 1.384 . S
H570 C576 0.930 . S
H571 C580 0.930 . S
H572 C585 0.929 . S
H573 C583 0.929 . S
H574 C578 0.929 . S
H575 C584 0.929 . S
C576 H570 0.930 . S
C576 C577 1.367 . S
C576 C584 1.378 . S
C577 C576 1.367 . S
C577 C585 1.433 . S
C578 H574 0.929 . S
C578 C580 1.378 . S
C578 C582 1.350 . S
C579 C582 1.463 . S
C579 C584 1.350 . S
C579 N587 1.427 . S
C580 H571 0.930 . S
C580 C578 1.378 . S
C580 C581 1.367 . S
C581 C580 1.367 . S
C581 C583 1.433 . S
C582 C578 1.350 . S
C582 C579 1.463 . S
C582 N586 1.427 . S
C583 H573 0.929 . S
C583 C581 1.433 . S
C583 N586 1.384 . S
C584 H575 0.929 . S
C584 C576 1.378 . S
C584 C579 1.350 . S
C585 H572 0.929 . S
C585 C577 1.433 . S
C585 N587 1.384 . S
N586 C582 1.427 . S
N586 C583 1.384 . S
N587 C579 1.427 . S
N587 C585 1.384 . S
H588 C594 0.930 . S
H589 C598 0.930 . S
H590 C603 0.929 . S
H591 C601 0.929 . S
H592 C596 0.929 . S
H593 C602 0.929 . S
C594 H588 0.930 . S
C594 C595 1.367 . S
C594 C602 1.378 . S
C595 C594 1.367 . S
C595 C603 1.433 . S
C596 H592 0.929 . S
C596 C598 1.378 . S
C596 C600 1.350 . S
C597 C600 1.463 . S
C597 C602 1.350 . S
C597 N605 1.427 . S
C598 H589 0.930 . S
C598 C596 1.378 . S
C598 C599 1.367 . S
C599 C598 1.367 . S
C599 C601 1.433 . S
C600 C596 1.350 . S
C600 C597 1.463 . S
C600 N604 1.427 . S
C601 H591 0.929 . S
C601 C599 1.433 . S
C601 N604 1.384 . S
C602 H593 0.929 . S
C602 C594 1.378 . S
C602 C597 1.350 . S
C603 H590 0.929 . S
C603 C595 1.433 . S
C603 N605 1.384 . S
N604 C600 1.427 . S
N604 C601 1.384 . S
N605 C597 1.427 . S
N605 C603 1.384 . S
H606 C612 0.930 . S
H607 C616 0.930 . S
H608 C621 0.929 . S
H609 C619 0.929 . S
H610 C614 0.929 . S
H611 C620 0.929 . S
C612 H606 0.930 . S
C612 C613 1.367 . S
C612 C620 1.378 . S
C613 C612 1.367 . S
C613 C621 1.433 . S
C614 H610 0.929 . S
C614 C616 1.378 . S
C614 C618 1.350 . S
C615 C618 1.463 . S
C615 C620 1.350 . S
C615 N623 1.427 . S
C616 H607 0.930 . S
C616 C614 1.378 . S
C616 C617 1.367 . S
C617 C616 1.367 . S
C617 C619 1.433 . S
C618 C614 1.350 . S
C618 C615 1.463 . S
C618 N622 1.427 . S
C619 H609 0.929 . S
C619 C617 1.433 . S
C619 N622 1.384 . S
C620 H611 0.929 . S
C620 C612 1.378 . S
C620 C615 1.350 . S
C621 H608 0.929 . S
C621 C613 1.433 . S
C621 N623 1.384 . S
N622 C618 1.427 . S
N622 C619 1.384 . S
N623 C615 1.427 . S
N623 C621 1.384 . S
H624 C630 0.930 . S
H625 C634 0.930 . S
H626 C639 0.929 . S
H627 C637 0.929 . S
H628 C632 0.929 . S
H629 C638 0.929 . S
C630 H624 0.930 . S
C630 C631 1.367 . S
C630 C638 1.378 . S
C631 C630 1.367 . S
C631 C639 1.433 . S
C632 H628 0.929 . S
C632 C634 1.378 . S
C632 C636 1.350 . S
C633 C636 1.463 . S
C633 C638 1.350 . S
C633 N641 1.427 . S
C634 H625 0.930 . S
C634 C632 1.378 . S
C634 C635 1.367 . S
C635 C634 1.367 . S
C635 C637 1.433 . S
C636 C632 1.350 . S
C636 C633 1.463 . S
C636 N640 1.427 . S
C637 H627 0.929 . S
C637 C635 1.433 . S
C637 N640 1.384 . S
C638 H629 0.929 . S
C638 C630 1.378 . S
C638 C633 1.350 . S
C639 H626 0.929 . S
C639 C631 1.433 . S
C639 N641 1.384 . S
N640 C636 1.427 . S
N640 C637 1.384 . S
N641 C633 1.427 . S
N641 C639 1.384 . S
H642 C648 0.930 . S
H643 C652 0.930 . S
H644 C657 0.929 . S
H645 C655 0.929 . S
H646 C650 0.929 . S
H647 C656 0.989 . S
C648 H642 0.930 . S
C648 C649 1.367 . S
C648 C656 1.378 . S
C649 C648 1.367 . S
C649 C657 1.433 . S
C650 H646 0.929 . S
C650 C652 1.378 . S
C650 C654 1.350 . S
C651 C654 1.463 . S
C651 C656 1.350 . S
C651 N659 1.427 . S
C652 H643 0.930 . S
C652 C650 1.378 . S
C652 C653 1.367 . S
C653 C652 1.367 . S
C653 C655 1.433 1_554 S
C654 C650 1.350 . S
C654 C651 1.463 . S
C654 N658 1.427 . S
C655 H645 0.929 . S
C655 C653 1.433 1_556 S
C655 N658 1.384 1_556 S
C656 H647 0.989 . S
C656 C648 1.378 . S
C656 C651 1.350 . S
C657 H644 0.929 . S
C657 C649 1.433 . S
C657 N659 1.384 . S
N658 C654 1.427 . S
N658 C655 1.384 1_554 S
N659 C651 1.427 . S
N659 C657 1.384 . S
H660 C666 0.930 . S
H661 C670 0.930 . S
H662 C675 0.929 . S
H663 C673 0.929 . S
H664 C668 0.929 . S
H665 C674 0.929 . S
C666 H660 0.930 . S
C666 C667 1.367 . S
C666 C674 1.378 . S
C667 C666 1.367 . S
C667 C675 1.433 . S
C668 H664 0.929 . S
C668 C670 1.378 . S
C668 C672 1.350 . S
C669 C672 1.463 . S
C669 C674 1.350 . S
C669 N677 1.427 . S
C670 H661 0.930 . S
C670 C668 1.378 . S
C670 C671 1.367 . S
C671 C670 1.367 . S
C671 C673 1.433 . S
C672 C668 1.350 . S
C672 C669 1.463 . S
C672 N676 1.427 . S
C673 H663 0.929 . S
C673 C671 1.433 . S
C673 N676 1.384 . S
C674 H665 0.929 . S
C674 C666 1.378 . S
C674 C669 1.350 . S
C675 H662 0.929 . S
C675 C667 1.433 . S
C675 N677 1.384 . S
N676 C672 1.427 . S
N676 C673 1.384 . S
N677 C669 1.427 . S
N677 C675 1.384 . S
H678 C684 0.930 . S
H679 C688 0.930 . S
H680 C693 0.929 . S
H681 C691 0.929 . S
H682 C686 0.929 . S
H683 C692 0.929 . S
C684 H678 0.930 . S
C684 C685 1.367 . S
C684 C692 1.378 . S
C685 C684 1.367 . S
C685 C693 1.433 . S
C686 H682 0.929 . S
C686 C688 1.378 . S
C686 C690 1.350 . S
C687 C690 1.463 . S
C687 C692 1.350 . S
C687 N695 1.427 . S
C688 H679 0.930 . S
C688 C686 1.378 . S
C688 C689 1.367 . S
C689 C688 1.367 . S
C689 C691 1.433 . S
C690 C686 1.350 . S
C690 C687 1.463 . S
C690 N694 1.427 . S
C691 H681 0.929 . S
C691 C689 1.433 . S
C691 N694 1.384 . S
C692 H683 0.929 . S
C692 C684 1.378 . S
C692 C687 1.350 . S
C693 H680 0.929 . S
C693 C685 1.433 . S
C693 N695 1.384 . S
N694 C690 1.427 . S
N694 C691 1.384 . S
N695 C687 1.427 . S
N695 C693 1.384 . S
H696 C702 0.930 . S
H697 C706 0.930 . S
H698 C711 0.929 . S
H699 C709 0.929 . S
H700 C704 0.929 . S
H701 C710 0.929 . S
C702 H696 0.930 . S
C702 C703 1.367 . S
C702 C710 1.378 . S
C703 C702 1.367 . S
C703 C711 1.433 . S
C704 H700 0.929 . S
C704 C706 1.378 . S
C704 C708 1.350 . S
C705 C708 1.463 . S
C705 C710 1.350 . S
C705 N713 1.427 . S
C706 H697 0.930 . S
C706 C704 1.378 . S
C706 C707 1.367 . S
C707 C706 1.367 . S
C707 C709 1.433 . S
C708 C704 1.350 . S
C708 C705 1.463 . S
C708 N712 1.427 . S
C709 H699 0.929 . S
C709 C707 1.433 . S
C709 N712 1.384 . S
C710 H701 0.929 . S
C710 C702 1.378 . S
C710 C705 1.350 . S
C711 H698 0.929 . S
C711 C703 1.433 . S
C711 N713 1.384 . S
N712 C708 1.427 . S
N712 C709 1.384 . S
N713 C705 1.427 . S
N713 C711 1.384 . S
H714 C720 0.930 . S
H715 C724 0.930 . S
H716 C729 0.929 . S
H717 C727 0.929 . S
H718 C722 0.929 . S
H719 C728 0.929 . S
C720 H714 0.930 . S
C720 C721 1.367 . S
C720 C728 1.378 . S
C721 C720 1.367 . S
C721 C729 1.433 . S
C722 H718 0.929 . S
C722 C724 1.378 . S
C722 C726 1.350 . S
C723 C726 1.463 . S
C723 C728 1.350 . S
C723 N731 1.427 . S
C724 H715 0.930 . S
C724 C722 1.378 . S
C724 C725 1.367 . S
C725 C724 1.367 . S
C725 C727 1.433 . S
C726 C722 1.350 . S
C726 C723 1.463 . S
C726 N730 1.427 . S
C727 H717 0.929 . S
C727 C725 1.433 . S
C727 N730 1.384 . S
C728 H719 0.929 . S
C728 C720 1.378 . S
C728 C723 1.350 . S
C729 H716 0.929 . S
C729 C721 1.433 . S
C729 N731 1.384 . S
N730 C726 1.427 . S
N730 C727 1.384 . S
N731 C723 1.427 . S
N731 C729 1.384 . S
H732 C738 0.930 . S
H733 C742 0.930 . S
H734 C747 0.929 . S
H735 C745 0.929 . S
H736 C740 0.906 1_554 S
H737 C746 0.929 . S
C738 H732 0.930 . S
C738 C739 1.367 . S
C738 C746 1.378 . S
C739 C738 1.367 . S
C739 C747 1.433 . S
C740 H736 0.906 1_556 S
C740 C742 1.371 1_556 S
C740 C744 1.380 . S
C741 C744 1.463 . S
C741 C746 1.350 . S
C741 N749 1.427 . S
C742 H733 0.930 . S
C742 C740 1.371 1_554 S
C742 C743 1.367 1_554 S
C743 C742 1.367 1_556 S
C743 C745 1.433 . S
C744 C740 1.380 . S
C744 C741 1.463 . S
C744 N748 1.427 . S
C745 H735 0.929 . S
C745 C743 1.433 . S
C745 N748 1.384 . S
C746 H737 0.929 . S
C746 C738 1.378 . S
C746 C741 1.350 . S
C747 H734 0.929 . S
C747 C739 1.433 . S
C747 N749 1.384 . S
N748 C744 1.427 . S
N748 C745 1.384 . S
N749 C741 1.427 . S
N749 C747 1.384 . S
H750 C756 0.930 . S
H751 C760 0.930 . S
H752 C765 0.929 . S
H753 C763 0.929 . S
H754 C758 0.929 . S
H755 C764 0.929 . S
C756 H750 0.930 . S
C756 C757 1.367 . S
C756 C764 1.378 . S
C757 C756 1.367 . S
C757 C765 1.433 . S
C758 H754 0.929 . S
C758 C760 1.378 . S
C758 C762 1.350 . S
C759 C762 1.463 . S
C759 C764 1.350 . S
C759 N767 1.427 . S
C760 H751 0.930 . S
C760 C758 1.378 . S
C760 C761 1.367 . S
C761 C760 1.367 . S
C761 C763 1.433 . S
C762 C758 1.350 . S
C762 C759 1.463 . S
C762 N766 1.427 . S
C763 H753 0.929 . S
C763 C761 1.433 . S
C763 N766 1.384 . S
C764 H755 0.929 . S
C764 C756 1.378 . S
C764 C759 1.350 . S
C765 H752 0.929 . S
C765 C757 1.433 . S
C765 N767 1.384 . S
N766 C762 1.427 . S
N766 C763 1.384 . S
N767 C759 1.427 . S
N767 C765 1.384 . S
H768 C774 0.930 . S
H769 C778 0.930 . S
H770 C783 0.929 . S
H771 C781 0.929 . S
H772 C776 0.929 . S
H773 C782 0.929 . S
C774 H768 0.930 . S
C774 C775 1.367 . S
C774 C782 1.378 . S
C775 C774 1.367 . S
C775 C783 1.433 . S
C776 H772 0.929 . S
C776 C778 1.378 . S
C776 C780 1.350 . S
C777 C780 1.463 . S
C777 C782 1.350 . S
C777 N785 1.427 . S
C778 H769 0.930 . S
C778 C776 1.378 . S
C778 C779 1.367 . S
C779 C778 1.367 . S
C779 C781 1.433 . S
C780 C776 1.350 . S
C780 C777 1.463 . S
C780 N784 1.427 . S
C781 H771 0.929 . S
C781 C779 1.433 . S
C781 N784 1.384 . S
C782 H773 0.929 . S
C782 C774 1.378 . S
C782 C777 1.350 . S
C783 H770 0.929 . S
C783 C775 1.433 . S
C783 N785 1.384 . S
N784 C780 1.427 . S
N784 C781 1.384 . S
N785 C777 1.427 . S
N785 C783 1.384 . S
H786 C792 0.930 . S
H787 C796 0.930 . S
H788 C801 0.929 . S
H789 C799 0.929 . S
H790 C794 0.929 . S
H791 C800 0.929 . S
C792 H786 0.930 . S
C792 C793 1.367 . S
C792 C800 1.378 . S
C793 C792 1.367 . S
C793 C801 1.433 . S
C794 H790 0.929 . S
C794 C796 1.378 . S
C794 C798 1.350 . S
C795 C798 1.463 . S
C795 C800 1.350 . S
C795 N803 1.427 . S
C796 H787 0.930 . S
C796 C794 1.378 . S
C796 C797 1.367 . S
C797 C796 1.367 . S
C797 C799 1.433 . S
C798 C794 1.350 . S
C798 C795 1.463 . S
C798 N802 1.427 . S
C799 H789 0.929 . S
C799 C797 1.433 . S
C799 N802 1.384 . S
C800 H791 0.929 . S
C800 C792 1.378 . S
C800 C795 1.350 . S
C801 H788 0.929 . S
C801 C793 1.433 . S
C801 N803 1.384 . S
N802 C798 1.427 . S
N802 C799 1.384 . S
N803 C795 1.427 . S
N803 C801 1.384 . S
H804 C810 0.930 . S
H805 C814 0.930 . S
H806 C819 0.929 . S
H807 C817 0.929 . S
H808 C812 0.929 . S
H809 C818 0.929 . S
C810 H804 0.930 . S
C810 C811 1.367 . S
C810 C818 1.378 . S
C811 C810 1.367 . S
C811 C819 1.433 . S
C812 H808 0.929 . S
C812 C814 1.378 . S
C812 C816 1.350 . S
C813 C816 1.463 . S
C813 C818 1.350 . S
C813 N821 1.427 . S
C814 H805 0.930 . S
C814 C812 1.378 . S
C814 C815 1.367 . S
C815 C814 1.367 . S
C815 C817 1.433 . S
C816 C812 1.350 . S
C816 C813 1.463 . S
C816 N820 1.427 . S
C817 H807 0.929 . S
C817 C815 1.433 . S
C817 N820 1.384 . S
C818 H809 0.929 . S
C818 C810 1.378 . S
C818 C813 1.350 . S
C819 H806 0.929 . S
C819 C811 1.433 . S
C819 N821 1.384 . S
N820 C816 1.427 . S
N820 C817 1.384 . S
N821 C813 1.427 . S
N821 C819 1.384 . S
H822 C828 0.930 . S
H823 C832 0.930 . S
H824 C837 0.929 . S
H825 C835 0.929 . S
H826 C830 0.929 . S
H827 C836 0.929 . S
C828 H822 0.930 . S
C828 C829 1.367 . S
C828 C836 1.378 . S
C829 C828 1.367 . S
C829 C837 1.433 . S
C830 H826 0.929 . S
C830 C832 1.378 . S
C830 C834 1.350 . S
C831 C834 1.463 . S
C831 C836 1.350 . S
C831 N839 1.427 . S
C832 H823 0.930 . S
C832 C830 1.378 . S
C832 C833 1.367 . S
C833 C832 1.367 . S
C833 C835 1.433 . S
C834 C830 1.350 . S
C834 C831 1.463 . S
C834 N838 1.427 . S
C835 H825 0.929 . S
C835 C833 1.433 . S
C835 N838 1.384 . S
C836 H827 0.929 . S
C836 C828 1.378 . S
C836 C831 1.350 . S
C837 H824 0.929 . S
C837 C829 1.433 . S
C837 N839 1.384 . S
N838 C834 1.427 . S
N838 C835 1.384 . S
N839 C831 1.427 . S
N839 C837 1.384 . S
H840 C846 0.930 . S
H841 C850 0.930 . S
H842 C855 0.929 . S
H843 C853 0.929 . S
H844 C848 0.929 . S
H845 C854 0.929 . S
C846 H840 0.930 . S
C846 C847 1.367 . S
C846 C854 1.378 . S
C847 C846 1.367 . S
C847 C855 1.433 . S
C848 H844 0.929 . S
C848 C850 1.378 . S
C848 C852 1.350 . S
C849 C852 1.463 . S
C849 C854 1.350 . S
C849 N857 1.427 . S
C850 H841 0.930 . S
C850 C848 1.378 . S
C850 C851 1.367 . S
C851 C850 1.367 . S
C851 C853 1.433 . S
C852 C848 1.350 . S
C852 C849 1.463 . S
C852 N856 1.427 . S
C853 H843 0.929 . S
C853 C851 1.433 . S
C853 N856 1.384 . S
C854 H845 0.929 . S
C854 C846 1.378 . S
C854 C849 1.350 . S
C855 H842 0.929 . S
C855 C847 1.433 . S
C855 N857 1.384 . S
N856 C852 1.427 . S
N856 C853 1.384 . S
N857 C849 1.427 . S
N857 C855 1.384 . S
H858 C864 0.930 . S
H859 C868 0.930 . S
H860 C873 0.929 . S
H861 C871 0.929 . S
H862 C866 0.929 . S
H863 C872 0.929 . S
C864 H858 0.930 . S
C864 C865 1.367 . S
C864 C872 1.378 . S
C865 C864 1.367 . S
C865 C873 1.433 . S
C866 H862 0.929 . S
C866 C868 1.378 . S
C866 C870 1.350 . S
C867 C870 1.463 . S
C867 C872 1.350 . S
C867 N875 1.427 . S
C868 H859 0.930 . S
C868 C866 1.378 . S
C868 C869 1.367 . S
C869 C868 1.367 . S
C869 C871 1.433 . S
C870 C866 1.350 . S
C870 C867 1.463 . S
C870 N874 1.427 . S
C871 H861 0.929 . S
C871 C869 1.433 . S
C871 N874 1.384 . S
C872 H863 0.929 . S
C872 C864 1.378 . S
C872 C867 1.350 . S
C873 H860 0.929 . S
C873 C865 1.433 . S
C873 N875 1.384 . S
N874 C870 1.427 . S
N874 C871 1.384 . S
N875 C867 1.427 . S
N875 C873 1.384 . S
H876 C882 0.930 . S
H877 C886 0.930 . S
H878 C891 0.929 . S
H879 C889 0.929 . S
H880 C884 0.929 . S
H881 C890 0.929 . S
C882 H876 0.930 . S
C882 C883 1.367 . S
C882 C890 1.378 . S
C883 C882 1.367 . S
C883 C891 1.433 . S
C884 H880 0.929 . S
C884 C886 1.378 . S
C884 C888 1.350 . S
C885 C888 1.463 . S
C885 C890 1.350 . S
C885 N893 1.427 . S
C886 H877 0.930 . S
C886 C884 1.378 . S
C886 C887 1.367 . S
C887 C886 1.367 . S
C887 C889 1.433 . S
C888 C884 1.350 . S
C888 C885 1.463 . S
C888 N892 1.427 . S
C889 H879 0.929 . S
C889 C887 1.433 . S
C889 N892 1.384 . S
C890 H881 0.929 . S
C890 C882 1.378 . S
C890 C885 1.350 . S
C891 H878 0.929 . S
C891 C883 1.433 . S
C891 N893 1.384 . S
N892 C888 1.427 . S
N892 C889 1.384 . S
N893 C885 1.427 . S
N893 C891 1.384 . S
H894 C900 0.930 . S
H895 C904 0.930 . S
H896 C909 0.929 . S
H897 C907 0.929 . S
H898 C902 0.929 . S
H899 C908 0.929 . S
C900 H894 0.930 . S
C900 C901 1.367 . S
C900 C908 1.378 . S
C901 C900 1.367 . S
C901 C909 1.433 . S
C902 H898 0.929 . S
C902 C904 1.378 . S
C902 C906 1.350 . S
C903 C906 1.463 . S
C903 C908 1.350 . S
C903 N911 1.427 . S
C904 H895 0.930 . S
C904 C902 1.378 . S
C904 C905 1.367 . S
C905 C904 1.367 . S
C905 C907 1.433 . S
C906 C902 1.350 . S
C906 C903 1.463 . S
C906 N910 1.427 . S
C907 H897 0.929 . S
C907 C905 1.433 . S
C907 N910 1.384 . S
C908 H899 0.929 . S
C908 C900 1.378 . S
C908 C903 1.350 . S
C909 H896 0.929 . S
C909 C901 1.433 . S
C909 N911 1.384 . S
N910 C906 1.427 . S
N910 C907 1.384 . S
N911 C903 1.427 . S
N911 C909 1.384 . S
H912 C918 0.930 . S
H913 C922 0.930 . S
H914 C927 0.929 . S
H915 C925 0.929 . S
H916 C920 0.929 . S
H917 C926 0.929 . S
C918 H912 0.930 . S
C918 C919 1.367 . S
C918 C926 1.378 . S
C919 C918 1.367 . S
C919 C927 1.433 . S
C920 H916 0.929 . S
C920 C922 1.378 . S
C920 C924 1.350 . S
C921 C924 1.463 . S
C921 C926 1.350 . S
C921 N929 1.427 . S
C922 H913 0.930 . S
C922 C920 1.378 . S
C922 C923 1.367 . S
C923 C922 1.367 . S
C923 C925 1.433 . S
C924 C920 1.350 . S
C924 C921 1.463 . S
C924 N928 1.427 . S
C925 H915 0.929 . S
C925 C923 1.433 . S
C925 N928 1.384 . S
C926 H917 0.929 . S
C926 C918 1.378 . S
C926 C921 1.350 . S
C927 H914 0.929 . S
C927 C919 1.433 . S
C927 N929 1.384 . S
N928 C924 1.427 . S
N928 C925 1.384 . S
N929 C921 1.427 . S
N929 C927 1.384 . S
H930 C936 0.930 . S
H931 C940 0.930 . S
H932 C945 0.929 . S
H933 C943 0.929 . S
H934 C938 0.929 . S
H935 C944 0.929 . S
C936 H930 0.930 . S
C936 C937 1.367 . S
C936 C944 1.378 . S
C937 C936 1.367 . S
C937 C945 1.433 . S
C938 H934 0.929 . S
C938 C940 1.378 . S
C938 C942 1.350 . S
C939 C942 1.463 . S
C939 C944 1.350 . S
C939 N947 1.427 . S
C940 H931 0.930 . S
C940 C938 1.378 . S
C940 C941 1.367 . S
C941 C940 1.367 . S
C941 C943 1.433 . S
C942 C938 1.350 . S
C942 C939 1.463 . S
C942 N946 1.427 . S
C943 H933 0.929 . S
C943 C941 1.433 . S
C943 N946 1.384 . S
C944 H935 0.929 . S
C944 C936 1.378 . S
C944 C939 1.350 . S
C945 H932 0.929 . S
C945 C937 1.433 . S
C945 N947 1.384 . S
N946 C942 1.427 . S
N946 C943 1.384 . S
N947 C939 1.427 . S
N947 C945 1.384 . S
H948 C954 0.930 . S
H949 C958 0.930 . S
H950 C963 0.929 . S
H951 C961 0.929 . S
H952 C956 0.929 . S
H953 C962 0.929 . S
C954 H948 0.930 . S
C954 C955 1.367 . S
C954 C962 1.378 . S
C955 C954 1.367 . S
C955 C963 1.433 . S
C956 H952 0.929 . S
C956 C958 1.378 . S
C956 C960 1.350 . S
C957 C960 1.463 . S
C957 C962 1.350 . S
C957 N965 1.427 . S
C958 H949 0.930 . S
C958 C956 1.378 . S
C958 C959 1.367 . S
C959 C958 1.367 . S
C959 C961 1.433 . S
C960 C956 1.350 . S
C960 C957 1.463 . S
C960 N964 1.427 . S
C961 H951 0.929 . S
C961 C959 1.433 . S
C961 N964 1.384 . S
C962 H953 0.929 . S
C962 C954 1.378 . S
C962 C957 1.350 . S
C963 H950 0.929 . S
C963 C955 1.433 . S
C963 N965 1.384 . S
N964 C960 1.427 . S
N964 C961 1.384 . S
N965 C957 1.427 . S
N965 C963 1.384 . S
H966 C972 0.930 . S
H967 C976 0.930 . S
H968 C981 0.929 . S
H969 C979 0.929 . S
H970 C974 0.929 . S
H971 C980 0.929 . S
C972 H966 0.930 . S
C972 C973 1.367 . S
C972 C980 1.378 . S
C973 C972 1.367 . S
C973 C981 1.433 . S
C974 H970 0.929 . S
C974 C976 1.378 . S
C974 C978 1.350 . S
C975 C978 1.463 . S
C975 C980 1.350 . S
C975 N983 1.427 . S
C976 H967 0.930 . S
C976 C974 1.378 . S
C976 C977 1.367 . S
C977 C976 1.367 . S
C977 C979 1.433 . S
C978 C974 1.350 . S
C978 C975 1.463 . S
C978 N982 1.427 . S
C979 H969 0.929 . S
C979 C977 1.433 . S
C979 N982 1.384 . S
C980 H971 0.929 . S
C980 C972 1.378 . S
C980 C975 1.350 . S
C981 H968 0.929 . S
C981 C973 1.433 . S
C981 N983 1.384 . S
N982 C978 1.427 . S
N982 C979 1.384 . S
N983 C975 1.427 . S
N983 C981 1.384 . S
H984 C990 0.930 . S
H985 C994 0.930 . S
H986 C999 0.929 . S
H987 C997 0.929 . S
H988 C992 0.929 . S
H989 C998 0.929 . S
C990 H984 0.930 . S
C990 C991 1.367 . S
C990 C998 1.378 . S
C991 C990 1.367 . S
C991 C999 1.433 . S
C992 H988 0.929 . S
C992 C994 1.378 . S
C992 C996 1.350 . S
C993 C996 1.463 . S
C993 C998 1.350 . S
C993 N1001 1.427 . S
C994 H985 0.930 . S
C994 C992 1.378 . S
C994 C995 1.367 . S
C995 C994 1.367 . S
C995 C997 1.433 . S
C996 C992 1.350 . S
C996 C993 1.463 . S
C996 N1000 1.427 . S
C997 H987 0.929 . S
C997 C995 1.433 . S
C997 N1000 1.384 . S
C998 H989 0.929 . S
C998 C990 1.378 . S
C998 C993 1.350 . S
C999 H986 0.929 . S
C999 C991 1.433 . S
C999 N1001 1.384 . S
N1000 C996 1.427 . S
N1000 C997 1.384 . S
N1001 C993 1.427 . S
N1001 C999 1.384 . S
H1002 C1008 0.930 . S
H1003 C1012 0.930 . S
H1004 C1017 0.929 . S
H1005 C1015 0.929 . S
H1006 C1010 0.929 . S
H1007 C1016 0.929 . S
C1008 H1002 0.930 . S
C1008 C1009 1.367 . S
C1008 C1016 1.378 . S
C1009 C1008 1.367 . S
C1009 C1017 1.433 . S
C1010 H1006 0.929 . S
C1010 C1012 1.378 . S
C1010 C1014 1.350 . S
C1011 C1014 1.463 . S
C1011 C1016 1.350 . S
C1011 N1019 1.427 . S
C1012 H1003 0.930 . S
C1012 C1010 1.378 . S
C1012 C1013 1.367 . S
C1013 C1012 1.367 . S
C1013 C1015 1.433 . S
C1014 C1010 1.350 . S
C1014 C1011 1.463 . S
C1014 N1018 1.427 . S
C1015 H1005 0.929 . S
C1015 C1013 1.433 . S
C1015 N1018 1.384 . S
C1016 H1007 0.929 . S
C1016 C1008 1.378 . S
C1016 C1011 1.350 . S
C1017 H1004 0.929 . S
C1017 C1009 1.433 . S
C1017 N1019 1.384 . S
N1018 C1014 1.427 . S
N1018 C1015 1.384 . S
N1019 C1011 1.427 . S
N1019 C1017 1.384 . S
H1020 C1026 0.930 . S
H1021 C1030 0.930 . S
H1022 C1035 0.929 . S
H1023 C1033 0.929 . S
H1024 C1028 0.929 . S
H1025 C1034 0.929 . S
C1026 H1020 0.930 . S
C1026 C1027 1.367 . S
C1026 C1034 1.378 . S
C1027 C1026 1.367 . S
C1027 C1035 1.433 . S
C1028 H1024 0.929 . S
C1028 C1030 1.378 . S
C1028 C1032 1.350 . S
C1029 C1032 1.463 . S
C1029 C1034 1.350 . S
C1029 N1037 1.427 . S
C1030 H1021 0.930 . S
C1030 C1028 1.378 . S
C1030 C1031 1.367 . S
C1031 C1030 1.367 . S
C1031 C1033 1.433 . S
C1032 C1028 1.350 . S
C1032 C1029 1.463 . S
C1032 N1036 1.427 . S
C1033 H1023 0.929 . S
C1033 C1031 1.433 . S
C1033 N1036 1.384 . S
C1034 H1025 0.929 . S
C1034 C1026 1.378 . S
C1034 C1029 1.350 . S
C1035 H1022 0.929 . S
C1035 C1027 1.433 . S
C1035 N1037 1.384 . S
N1036 C1032 1.427 . S
N1036 C1033 1.384 . S
N1037 C1029 1.427 . S
N1037 C1035 1.384 . S
H1038 C1044 0.930 . S
H1039 C1048 0.930 . S
H1040 C1053 0.929 . S
H1041 C1051 0.929 . S
H1042 C1046 0.929 . S
H1043 C1052 0.929 . S
C1044 H1038 0.930 . S
C1044 C1045 1.367 . S
C1044 C1052 1.378 . S
C1045 C1044 1.367 . S
C1045 C1053 1.433 . S
C1046 H1042 0.929 . S
C1046 C1048 1.378 . S
C1046 C1050 1.350 . S
C1047 C1050 1.463 . S
C1047 C1052 1.350 . S
C1047 N1055 1.427 . S
C1048 H1039 0.930 . S
C1048 C1046 1.378 . S
C1048 C1049 1.367 . S
C1049 C1048 1.367 . S
C1049 C1051 1.433 . S
C1050 C1046 1.350 . S
C1050 C1047 1.463 . S
C1050 N1054 1.427 . S
C1051 H1041 0.929 . S
C1051 C1049 1.433 . S
C1051 N1054 1.384 . S
C1052 H1043 0.929 . S
C1052 C1044 1.378 . S
C1052 C1047 1.350 . S
C1053 H1040 0.929 . S
C1053 C1045 1.433 . S
C1053 N1055 1.384 . S
N1054 C1050 1.427 . S
N1054 C1051 1.384 . S
N1055 C1047 1.427 . S
N1055 C1053 1.384 . S
C491 C390 1.328 . S
C487 C8 1.292 . S
C509 C404 1.329 . S
C505 C61 1.305 . S
C527 C419 1.313 . S
C523 C107 1.324 . S
C541 C139 1.293 . S
C545 C377 1.297 . S
C559 C192 1.264 . S
C563 C376 1.291 1_556 S
C577 C238 1.250 . S
C581 C391 1.265 . S
C599 C405 1.317 . S
C595 C284 1.302 . S
C617 C418 1.327 . S
C613 C330 1.285 . S
C631 C100 1.258 . S
C635 C446 1.299 . S
C653 C460 1.340 . S
C649 C160 1.303 . S
C667 C15 1.255 . S
C671 C475 1.266 . S
C689 C432 1.272 . S
C685 C54 1.233 . S
C703 C291 1.314 . S
C707 C433 1.300 . S
C721 C337 1.324 . S
C725 C447 1.307 . S
C743 C461 1.314 . S
C739 C199 1.307 . S
C757 C245 1.320 . S
C761 C474 1.348 . S
C779 C399 1.717 . S
C775 C1 1.713 . S
C797 C417 1.683 . S
C793 C68 1.706 . S
C811 C114 1.713 . S
C815 C375 1.687 . S
C829 C146 1.727 . S
C833 C385 1.731 . S
C847 C185 1.647 . S
C851 C413 1.645 . S
C869 C371 1.650 . S
C865 C231 1.651 . S
C887 C389 1.608 . S
C883 C277 1.649 . S
C905 C403 1.616 . S
C901 C323 1.647 . S
C923 C455 1.640 . S
C919 C93 1.644 . S
C941 C473 1.605 . S
C937 C153 1.643 . S
C955 C22 1.643 . S
C959 C427 1.641 . S
C977 C441 1.639 . S
C973 C47 1.646 . S
C995 C469 1.734 . S
C991 C298 1.720 . S
C1009 C344 1.721 . S
C1013 C431 1.695 . S
C1031 C445 1.699 . S
C1027 C206 1.709 . S
C1049 C459 1.679 . S
C1045 C252 1.708 . S
