# Generated by pormake.
# Topology pts, (4,4)-cn, num edge types: 1
# Building blocks:
#     Node 0, Type 0, BuildingBlock: NAHDIM_clean_linker_0, # of connection points: 4
#     Node 1, Type 0, BuildingBlock: NAHDIM_clean_linker_0, # of connection points: 4
#     Node 2, Type 1, BuildingBlock: AZAVOO_clean_sbu_0, # of connection points: 4
#     Node 3, Type 1, BuildingBlock: AZAVOO_clean_sbu_0, # of connection points: 4
#     Edge 4, Type (0, 1), BuildingBlock: XUDNAN_clean_linker_2, # of connection points: 2
#     Edge 5, Type (0, 1), BuildingBlock: XUDNAN_clean_linker_2, # of connection points: 2
#     Edge 6, Type (0, 1), BuildingBlock: XUDNAN_clean_linker_2, # of connection points: 2
#     Edge 7, Type (0, 1), BuildingBlock: XUDNAN_clean_linker_2, # of connection points: 2
#     Edge 8, Type (0, 1), BuildingBlock: XUDNAN_clean_linker_2, # of connection points: 2
#     Edge 9, Type (0, 1), BuildingBlock: XUDNAN_clean_linker_2, # of connection points: 2
#     Edge 10, Type (0, 1), BuildingBlock: XUDNAN_clean_linker_2, # of connection points: 2
#     Edge 11, Type (0, 1), BuildingBlock: XUDNAN_clean_linker_2, # of connection points: 2
# Relax obj value: 0.016
# Max RMSD: 0.067
# Mean RMSD: 0.062
data_MOF--net-pts--node1-AZAVOO_clean_sbu_0--node2-NAHDIM_clean_linker_0--edge1-XUDNAN_clean_linker_2
_symmetry_space_group_name_H-M    P1
_symmetry_Int_Tables_number       1
_symmetry_cell_setting            triclinic
loop_
_symmetry_equiv_pos_as_xyz
'x, y, z'
_cell_length_a     31.792503
_cell_length_b     32.500943
_cell_length_c     53.007849
_cell_angle_alpha  90.418813
_cell_angle_beta   95.840188
_cell_angle_gamma 89.917048
loop_
_atom_site_label
_atom_site_type_symbol
_atom_site_fract_x
_atom_site_fract_y
_atom_site_fract_z
_atom_type_partial_charge
C0 C 0.75081 0.10419 0.14686 0.0
C1 C 0.74222 0.05767 0.14704 0.0
C2 C 0.70669 0.03291 0.10723 0.0
C3 C 0.69829 0.99264 0.09881 0.0
C4 C 0.66099 0.98311 0.08332 0.0
C5 C 0.63201 0.0149 0.07579 0.0
C6 C 0.64121 0.05593 0.08355 0.0
C7 C 0.67853 0.06446 0.09916 0.0
C8 C 0.65221 0.93911 0.07526 0.0
C9 C 0.61149 0.09074 0.07545 0.0
C10 C 0.39612 0.94773 0.163 0.0
C11 C 0.37388 0.97194 0.14084 0.0
C12 C 0.41383 0.96214 0.10438 0.0
C13 C 0.42407 0.00289 0.09896 0.0
C14 C 0.45774 0.01155 0.08467 0.0
C15 C 0.4814 0.97874 0.07552 0.0
C16 C 0.47062 0.93761 0.08056 0.0
C17 C 0.43654 0.92985 0.09471 0.0
C18 C 0.46791 0.05574 0.0792 0.0
C19 C 0.49513 0.90197 0.07099 0.0
C20 C 0.37189 0.98402 0.91255 0.0
C21 C 0.3807 0.02108 0.9259 0.0
C22 C 0.42098 0.02856 0.9386 0.0
C23 C 0.45268 0.99788 0.93865 0.0
C24 C 0.44394 0.96069 0.9251 0.0
C25 C 0.40381 0.95455 0.91198 0.0
C26 C 0.42946 0.06914 0.95221 0.0
C27 C 0.47676 0.92715 0.92479 0.0
C28 C 0.77287 0.06792 0.94004 0.0
C29 C 0.75495 0.04739 0.91515 0.0
C30 C 0.67871 0.05221 0.91662 0.0
C31 C 0.65043 0.08295 0.92243 0.0
C32 C 0.61363 0.07326 0.93371 0.0
C33 C 0.6047 0.03167 0.93877 0.0
C34 C 0.63181 0.00022 0.93138 0.0
C35 C 0.66858 0.01081 0.92037 0.0
C36 C 0.58508 0.10748 0.94105 0.0
C37 C 0.62244 0.95547 0.93575 0.0
C38 C 0.59143 0.00528 0.06047 0.0
C39 C 0.55688 0.99473 0.07341 0.0
C40 C 0.51707 0.98758 0.0604 0.0
C41 C 0.51136 0.99065 0.03369 0.0
C42 C 0.47177 0.9834 0.02003 0.0
C43 C 0.46628 0.98718 0.99378 0.0
C44 C 0.50002 -0.00103 0.98018 0.0
C45 C 0.49445 0.00407 0.95354 0.0
C46 C 0.52894 0.01507 0.9406 0.0
C47 C 0.56902 0.02121 0.95356 0.0
C48 C 0.57501 0.01689 0.98023 0.0
C49 C 0.6148 0.02344 0.99389 0.0
C50 C 0.62036 0.01935 0.02013 0.0
C51 C 0.58634 0.00865 0.03374 0.0
C52 C 0.54607 0.0015 0.02033 0.0
C53 C 0.54037 0.00575 0.99355 0.0
C54 C 0.27727 0.98414 0.92625 0.0
C55 C 0.29534 0.99545 0.9015 0.0
O56 O 0.74225 0.04079 0.12293 0.0
O57 O 0.71531 0.06348 0.90741 0.0
O58 O 0.33346 0.97519 0.89995 0.0
O59 O 0.38153 0.95298 0.11823 0.0
H60 H 0.71057 0.05337 0.154 0.0
H61 H 0.72223 0.1212 0.13911 0.0
H62 H 0.77702 0.11136 0.13527 0.0
H63 H 0.75913 0.11589 0.16649 0.0
H64 H 0.72055 0.96855 0.10493 0.0
H65 H 0.68577 0.09585 0.10476 0.0
H66 H 0.62323 0.92825 0.08321 0.0
H67 H 0.6788 0.91823 0.0817 0.0
H68 H 0.64624 0.93715 0.05427 0.0
H69 H 0.62289 0.12087 0.08347 0.0
H70 H 0.57976 0.08455 0.08158 0.0
H71 H 0.60782 0.09286 0.05445 0.0
H72 H 0.38672 0.00377 0.142 0.0
H73 H 0.43072 0.94709 0.16154 0.0
H74 H 0.38431 0.91554 0.16279 0.0
H75 H 0.39062 0.96253 0.18135 0.0
H76 H 0.40534 0.02795 0.10543 0.0
H77 H 0.42793 0.89849 0.09871 0.0
H78 H 0.46627 0.0604 0.05839 0.0
H79 H 0.5007 0.0629 0.08728 0.0
H80 H 0.44597 0.07772 0.08725 0.0
H81 H 0.48345 0.8718 0.07708 0.0
H82 H 0.52911 0.90502 0.07802 0.0
H83 H 0.49275 0.9025 0.04995 0.0
H84 H 0.30014 0.02927 0.90085 0.0
H85 H 0.35659 0.04442 0.92653 0.0
H86 H 0.39683 0.92614 0.90155 0.0
H87 H 0.43126 0.06426 0.97299 0.0
H88 H 0.40425 0.09212 0.94694 0.0
H89 H 0.46026 0.08198 0.94789 0.0
H90 H 0.46379 0.89865 0.91527 0.0
H91 H 0.48966 0.91958 0.94447 0.0
H92 H 0.50343 0.93814 0.91464 0.0
H93 H 0.75287 0.01385 0.9187 0.0
H94 H 0.80503 0.05588 0.94608 0.0
H95 H 0.75224 0.0611 0.95519 0.0
H96 H 0.77454 0.10184 0.93788 0.0
H97 H 0.65813 0.11476 0.91899 0.0
H98 H 0.68915 0.98666 0.91467 0.0
H99 H 0.5842 0.10774 0.96195 0.0
H100 H 0.55232 0.10202 0.93228 0.0
H101 H 0.5957 0.13815 0.93511 0.0
H102 H 0.64455 0.93455 0.92696 0.0
H103 H 0.58958 0.94809 0.92789 0.0
H104 H 0.62493 0.94946 0.95644 0.0
H105 H 0.56084 0.99281 0.09395 0.0
H106 H 0.44452 0.9747 0.02948 0.0
H107 H 0.43511 0.98101 0.98432 0.0
H108 H 0.52459 0.0187 0.92017 0.0
H109 H 0.64213 0.03199 0.98449 0.0
H110 H 0.65165 0.02484 0.02963 0.0
H111 H 0.24685 0.00039 0.92777 0.0
H112 H 0.2996 0.99336 0.94279 0.0
H113 H 0.2719 0.95041 0.92707 0.0
C114 C 0.08619 0.40407 0.66103 0.0
C115 C 0.07104 0.3696 0.64249 0.0
C116 C 0.08127 0.3964 0.60085 0.0
C117 C 0.03978 0.39731 0.58902 0.0
C118 C 0.02821 0.42516 0.56943 0.0
C119 C 0.05878 0.45265 0.56162 0.0
C120 C 0.10119 0.45014 0.57258 0.0
C121 C 0.11201 0.42149 0.59186 0.0
C122 C 0.98292 0.42637 0.55775 0.0
C123 C 0.13456 0.47907 0.56482 0.0
C124 C 0.9958 0.7563 0.62875 0.0
C125 C 0.01149 0.72657 0.61056 0.0
C126 C 0.99247 0.66151 0.58908 0.0
C127 C 0.02833 0.66005 0.57559 0.0
C128 C 0.03549 0.62643 0.55987 0.0
C129 C 0.00538 0.59424 0.55678 0.0
C130 C 0.96831 0.5965 0.56943 0.0
C131 C 0.96258 0.62999 0.58562 0.0
C132 C 0.07605 0.62485 0.54728 0.0
C133 C 0.93522 0.56313 0.56632 0.0
C134 C 0.97108 0.65789 0.39139 0.0
C135 C 0.00924 0.66277 0.40688 0.0
C136 C 0.02751 0.62959 0.42083 0.0
C137 C 0.00622 0.59123 0.41994 0.0
C138 C 0.96834 0.58605 0.40371 0.0
C139 C 0.9517 0.61937 0.38926 0.0
C140 C 0.0692 0.63579 0.43674 0.0
C141 C 0.9449 0.54561 0.40205 0.0
C142 C 0.1966 0.31132 0.40969 0.0
C143 C 0.15283 0.32742 0.39972 0.0
C144 C 0.13137 0.39861 0.40395 0.0
C145 C 0.15036 0.43574 0.41202 0.0
C146 C 0.12746 0.46623 0.42357 0.0
C147 C 0.08419 0.45965 0.42641 0.0
C148 C 0.06422 0.42295 0.41704 0.0
C149 C 0.08815 0.39261 0.40604 0.0
C150 C 0.14968 0.50517 0.43316 0.0
C151 C 0.01779 0.41568 0.41889 0.0
C152 C 0.04499 0.48758 0.54488 0.0
C153 C 0.0295 0.52231 0.55654 0.0
C154 C 0.01504 0.55654 0.54247 0.0
C155 C 0.01445 0.55571 0.51579 0.0
C156 C 0.99706 0.58826 0.50086 0.0
C157 C 0.9986 0.5881 0.47472 0.0
C158 C 0.01872 0.55597 0.46264 0.0
C159 C 0.02296 0.5568 0.43632 0.0
C160 C 0.04383 0.52469 0.4251 0.0
C161 C 0.06009 0.49119 0.43933 0.0
C162 C 0.0552 0.48922 0.46554 0.0
C163 C 0.07023 0.45547 0.48035 0.0
C164 C 0.06588 0.45426 0.50623 0.0
C165 C 0.04769 0.48737 0.51841 0.0
C166 C 0.03214 0.52159 0.50381 0.0
C167 C 0.03513 0.52214 0.47728 0.0
C168 C 0.90307 0.7448 0.3811 0.0
C169 C 0.94776 0.72886 0.38885 0.0
O170 O 0.09245 0.3718 0.62099 0.0
O171 O 0.15563 0.36897 0.39456 0.0
O172 O 0.95197 0.68994 0.37861 0.0
O173 O 0.98604 0.69221 0.60584 0.0
H174 H 0.03646 0.37365 0.63746 0.0
H175 H 0.07931 0.43446 0.65207 0.0
H176 H 0.12081 0.40169 0.66642 0.0
H177 H 0.06949 0.40245 0.67842 0.0
H178 H 0.01636 0.37653 0.59521 0.0
H179 H 0.14414 0.41993 0.60086 0.0
H180 H 0.96758 0.45489 0.56396 0.0
H181 H 0.96446 0.39951 0.56333 0.0
H182 H 0.98175 0.42709 0.53674 0.0
H183 H 0.16631 0.47249 0.57475 0.0
H184 H 0.12581 0.51128 0.5691 0.0
H185 H 0.13637 0.47671 0.54406 0.0
H186 H 0.04586 0.71931 0.61425 0.0
H187 H 0.02086 0.75682 0.6454 0.0
H188 H 0.97208 0.73929 0.63921 0.0
H189 H 0.97966 0.80926 0.60622 0.0
H190 H 0.05147 0.6845 0.57764 0.0
H191 H 0.93482 0.6315 0.59589 0.0
H192 H 0.06882 0.629 0.52654 0.0
H193 H 0.0917 0.59448 0.55037 0.0
H194 H 0.09869 0.64924 0.5545 0.0
H195 H 0.90511 0.57298 0.57348 0.0
H196 H 0.94709 0.53557 0.57706 0.0
H197 H 0.92881 0.55403 0.54605 0.0
H198 H 0.95117 0.7272 0.40998 0.0
H199 H 0.02482 0.69243 0.40797 0.0
H200 H 0.9225 0.61595 0.37697 0.0
H201 H 0.06359 0.63871 0.45699 0.0
H202 H 0.0856 0.66406 0.43132 0.0
H203 H 0.09036 0.60896 0.43487 0.0
H204 H 0.91379 0.54788 0.39053 0.0
H205 H 0.93976 0.53486 0.42134 0.0
H206 H 0.96419 0.52199 0.39329 0.0
H207 H 0.13236 0.32239 0.4153 0.0
H208 H 0.19513 0.27784 0.41361 0.0
H209 H 0.20779 0.32751 0.42765 0.0
H210 H 0.21991 0.31669 0.39581 0.0
H211 H 0.18364 0.44016 0.41002 0.0
H212 H 0.07314 0.36428 0.39903 0.0
H213 H 0.14602 0.50964 0.45361 0.0
H214 H 0.13494 0.53202 0.42287 0.0
H215 H 0.18393 0.50468 0.4306 0.0
H216 H 0.00632 0.38693 0.40903 0.0
H217 H 0.99904 0.44202 0.41056 0.0
H218 H 0.01196 0.41364 0.43914 0.0
H219 H 0.0296 0.52306 0.57702 0.0
H220 H 0.98208 0.61419 0.50928 0.0
H221 H 0.98457 0.61395 0.46419 0.0
H222 H 0.04781 0.52595 0.40503 0.0
H223 H 0.08543 0.42955 0.47209 0.0
H224 H 0.07783 0.42749 0.51671 0.0
H225 H 0.89665 0.74623 0.36012 0.0
H226 H 0.89898 0.77601 0.38922 0.0
H227 H 0.87957 0.72391 0.38841 0.0
Mg228 Mg 0.09485 0.00513 0.273 0.0
O229 O 0.02492 0.00094 0.25656 0.0
O230 O 0.98682 -0.00039 0.28978 0.0
Mg231 Mg 0.03047 0.00655 0.32648 0.0
C232 C 0.9895 -0.00152 0.26592 0.0
C233 C 0.11119 0.98928 0.21672 0.0
O234 O 0.08684 0.95761 0.22019 0.0
O235 O 0.08729 0.07391 0.28104 0.0
O236 O 0.05005 0.07091 0.31457 0.0
O237 O 0.09758 0.93626 0.27762 0.0
O238 O 0.08158 0.98022 0.30713 0.0
C239 C 0.06915 0.09147 0.29871 0.0
C240 C 0.08632 0.9428 0.30009 0.0
O241 O 0.11699 0.01636 0.23414 0.0
Mg242 Mg 0.9878 0.02761 0.7321 0.0
O243 O 0.04616 0.0044 0.75755 0.0
O244 O 0.09342 0.98168 0.7321 0.0
Mg245 Mg 0.06747 0.99316 0.69105 0.0
C246 C 0.0818 0.98813 0.75414 0.0
C247 C 0.9515 0.03005 0.78358 0.0
O248 O 0.96288 0.99138 0.78157 0.0
O249 O 0.02321 0.08644 0.72441 0.0
O250 O 0.06973 0.06298 0.69869 0.0
O251 O 0.95924 0.96464 0.72823 0.0
O252 O 0.00332 0.98969 0.70263 0.0
C253 C 0.0533 0.0923 0.71059 0.0
C254 C 0.98092 0.95932 0.7091 0.0
O255 O 0.95951 0.05506 0.76637 0.0
H256 H 0.33139 0.02966 0.16615 0.0
H257 H 0.31151 0.91648 0.12287 0.0
H258 H 0.23662 0.91611 0.13148 0.0
H259 H 0.27501 0.00126 0.21457 0.0
H260 H 0.25322 0.05132 0.22026 0.0
H261 H 0.30236 0.04713 0.20647 0.0
H262 H 0.27141 0.09065 0.1682 0.0
H263 H 0.22192 0.0949 0.18189 0.0
H264 H 0.22294 0.07474 0.15019 0.0
H265 H 0.16725 0.92283 0.14953 0.0
H266 H 0.11107 0.93326 0.1778 0.0
H267 H 0.1763 0.04178 0.20982 0.0
C268 C 0.3108 0.00564 0.15775 0.0
C269 C 0.32687 0.97387 0.14317 0.0
C270 C 0.29956 0.94181 0.13344 0.0
C271 C 0.25696 0.94139 0.13822 0.0
C272 C 0.24219 0.9731 0.15285 0.0
C273 C 0.26834 0.00466 0.16247 0.0
C274 C 0.2464 0.03207 0.18028 0.0
C275 C 0.27068 0.03295 0.20696 0.0
C276 C 0.2403 0.07568 0.16949 0.0
C277 C 0.20453 0.00991 0.18013 0.0
C278 C 0.20231 0.97653 0.16374 0.0
C279 C 0.1683 0.94929 0.1621 0.0
C280 C 0.1365 0.95546 0.17826 0.0
C281 C 0.13921 0.98835 0.19604 0.0
C282 C 0.17294 0.01668 0.19622 0.0
H283 H 0.01459 0.32247 0.66565 0.0
H284 H 0.145 0.32445 0.64836 0.0
H285 H 0.15677 0.25634 0.66836 0.0
H286 H 0.0348 0.27033 0.72721 0.0
H287 H 0.98656 0.24095 0.72252 0.0
H288 H 0.98924 0.29114 0.70853 0.0
H289 H 0.96597 0.26008 0.66413 0.0
H290 H 0.9629 0.20998 0.678 0.0
H291 H 0.9955 0.21777 0.65255 0.0
H292 H 0.15218 0.18552 0.68607 0.0
H293 H 0.13179 0.11703 0.70065 0.0
H294 H 0.00532 0.16228 0.70842 0.0
C295 C 0.04565 0.30857 0.6662 0.0
C296 C 0.07865 0.32819 0.65498 0.0
C297 C 0.11909 0.30947 0.6564 0.0
C298 C 0.12612 0.27101 0.66788 0.0
C299 C 0.09265 0.25211 0.67831 0.0
C300 C 0.05328 0.27036 0.67775 0.0
C301 C 0.02215 0.24274 0.68931 0.0
C302 C 0.00733 0.26248 0.71332 0.0
C303 C 0.98443 0.23201 0.66983 0.0
C304 C 0.0498 0.20553 0.69573 0.0
C305 C 0.09045 0.21171 0.6894 0.0
C306 C 0.12071 0.18056 0.69154 0.0
C307 C 0.10885 0.14179 0.69979 0.0
C308 C 0.0672 0.13463 0.70597 0.0
C309 C 0.03769 0.16724 0.70449 0.0
H310 H 0.82928 0.05896 0.14694 0.0
H311 H 0.72975 0.00819 0.18752 0.0
H312 H 0.7835 0.97971 0.21962 0.0
H313 H 0.90935 0.9766 0.16218 0.0
H314 H 0.95219 0.01312 0.16603 0.0
H315 H 0.90635 0.02344 0.14407 0.0
H316 H 0.89582 0.09306 0.16673 0.0
H317 H 0.94139 0.0829 0.18878 0.0
H318 H 0.8911 0.09373 0.20033 0.0
H319 H 0.84663 0.96537 0.25012 0.0
H320 H 0.91493 0.965 0.27671 0.0
H321 H 0.97417 0.02576 0.21685 0.0
C322 C 0.81887 0.04121 0.16235 0.0
C323 C 0.77532 0.03613 0.1649 0.0
C324 C 0.76291 0.01267 0.18529 0.0
C325 C 0.79322 0.99628 0.20356 0.0
C326 C 0.83582 0.00339 0.20108 0.0
C327 C 0.84871 0.02508 0.18091 0.0
C328 C 0.89614 0.03189 0.184 0.0
C329 C 0.91725 0.00994 0.16281 0.0
C330 C 0.90671 0.07813 0.18503 0.0
C331 C 0.90776 0.01167 0.20943 0.0
C332 C 0.87252 0.99504 0.21879 0.0
C333 C 0.87455 0.97767 0.24282 0.0
C334 C 0.91345 0.97782 0.25783 0.0
C335 C 0.94987 0.99519 0.2488 0.0
C336 C 0.94704 0.01159 0.22407 0.0
H337 H 0.07246 0.7968 0.60352 0.0
H338 H 0.91892 0.74373 0.58643 0.0
H339 H 0.89764 0.79666 0.62787 0.0
H340 H 0.06872 0.81432 0.679 0.0
H341 H 0.09677 0.86254 0.68016 0.0
H342 H 0.10491 0.82517 0.65583 0.0
H343 H 0.08445 0.87968 0.62111 0.0
H344 H 0.07725 0.91696 0.64556 0.0
H345 H 0.0348 0.9066 0.62117 0.0
H346 H 0.9051 0.85047 0.6695 0.0
H347 H 0.91265 0.90922 0.6995 0.0
H348 H 0.04344 0.92316 0.68532 0.0
C349 C 0.03973 0.79723 0.60744 0.0
C350 C 1.00029 0.75857 0.59376 0.0
C351 C 0.94214 0.7638 0.59648 0.0
C352 C 0.92986 0.79468 0.62313 0.0
C353 C 0.97071 0.82335 0.64116 0.0
C354 C 0.02263 0.82611 0.63334 0.0
C355 C 0.04477 0.85836 0.64986 0.0
C356 C 0.08093 0.83894 0.66724 0.0
C357 C 0.06126 0.89241 0.63346 0.0
C358 C 0.00924 0.87405 0.66519 0.0
C359 C 0.96976 0.85421 0.66069 0.0
C360 C 0.93522 0.86598 0.67324 0.0
C361 C 0.93983 0.89915 0.69032 0.0
C362 C 0.97849 0.92071 0.69431 0.0
C363 C 0.01345 0.9074 0.6821 0.0
H364 H 0.22456 0.03795 0.88278 0.0
H365 H 0.29447 0.92614 0.8701 0.0
H366 H 0.24441 0.90997 0.83274 0.0
H367 H 0.11939 0.99353 0.86406 0.0
H368 H 0.09918 0.04049 0.84953 0.0
H369 H 0.1396 0.04251 0.87595 0.0
H370 H 0.18733 0.08521 0.84917 0.0
H371 H 0.14709 0.0834 0.82274 0.0
H372 H 0.19975 0.06537 0.81895 0.0
H373 H 0.19141 0.90974 0.79431 0.0
H374 H 0.13603 0.92312 0.75909 0.0
H375 H 0.09674 0.03181 0.79846 0.0
C376 C 0.22915 0.00998 0.87217 0.0
C377 C 0.26408 0.98396 0.879 0.0
C378 C 0.26862 0.94716 0.86496 0.0
C379 C 0.24016 0.93753 0.84377 0.0
C380 C 0.20667 0.96437 0.83725 0.0
C381 C 0.20063 -0.00047 0.85124 0.0
C382 C 0.16234 0.02344 0.84001 0.0
C383 C 0.1281 0.02507 0.85849 0.0
C384 C 0.1749 0.06692 0.83225 0.0
C385 C 0.14855 0.99689 0.81705 0.0
C386 C 0.17458 0.96296 0.81583 0.0
C387 C 0.1703 0.93572 0.79531 0.0
C388 C 0.13889 0.9436 0.77539 0.0
C389 C 0.11184 0.97809 0.77631 0.0
C390 C 0.11634 0.00464 0.79762 0.0
H391 H 0.08519 0.27493 0.3945 0.0
H392 H 0.18259 0.32587 0.3525 0.0
H393 H 0.16161 0.27806 0.31689 0.0
H394 H 0.10014 0.17605 0.38097 0.0
H395 H 0.04547 0.1604 0.37778 0.0
H396 H 0.06174 0.20427 0.39703 0.0
H397 H 0.00639 0.2495 0.37075 0.0
H398 H 0.98981 0.2055 0.35133 0.0
H399 H 0.0065 0.25186 0.33679 0.0
H400 H 0.13982 0.21572 0.29028 0.0
H401 H 0.11906 0.14578 0.27528 0.0
H402 H 0.03354 0.138 0.33388 0.0
C403 C 0.1011 0.27695 0.37743 0.0
C404 C 0.13552 0.30389 0.37621 0.0
C405 C 0.15608 0.30537 0.35374 0.0
C406 C 0.14421 0.27851 0.3334 0.0
C407 C 0.1111 0.25108 0.33562 0.0
C408 C 0.08932 0.25071 0.35694 0.0
C409 C 0.05823 0.21546 0.35603 0.0
C410 C 0.06697 0.18741 0.37931 0.0
C411 C 0.01252 0.23155 0.35357 0.0
C412 C 0.06822 0.19414 0.3319 0.0
C413 C 0.09799 0.21558 0.31999 0.0
C414 C 0.11569 0.1992 0.29905 0.0
C415 C 0.10372 0.15937 0.29066 0.0
C416 C 0.0747 0.13627 0.30341 0.0
C417 C 0.05555 0.15485 0.32355 0.0
H418 H 0.80709 0.99095 0.89514 0.0
H419 H 0.7693 0.11909 0.88975 0.0
H420 H 0.81858 0.13002 0.85708 0.0
H421 H 0.91734 0.00609 0.88706 0.0
H422 H 0.92104 0.95991 0.86837 0.0
H423 H 0.88377 0.96273 0.89175 0.0
H424 H 0.82263 0.94439 0.85737 0.0
H425 H 0.85972 0.94122 0.83394 0.0
H426 H 0.81468 0.97502 0.82906 0.0
H427 H 0.87092 0.12603 0.82412 0.0
H428 H 0.92003 0.10703 0.79262 0.0
H429 H 0.92297 0.98144 0.82012 0.0
C430 C 0.80917 0.0213 0.88706 0.0
C431 C 0.78423 0.05414 0.89479 0.0
C432 C 0.788 0.0935 0.88391 0.0
C433 C 0.81595 0.09998 0.86545 0.0
C434 C 0.83999 0.06683 0.8582 0.0
C435 C 0.83676 0.02825 0.86863 0.0
C436 C 0.86511 0.99745 0.85712 0.0
C437 C 0.89881 0.98057 0.87728 0.0
C438 C 0.83897 0.96247 0.84357 0.0
C439 C 0.88465 0.02461 0.83842 0.0
C440 C 0.86999 0.06458 0.83938 0.0
C441 C 0.88276 0.09486 0.82329 0.0
C442 C 0.9107 0.08379 0.80549 0.0
C443 C 0.92544 0.04278 0.80391 0.0
C444 C 0.91257 0.01312 0.82091 0.0
H445 H 0.96817 0.74205 0.34004 0.0
H446 H 0.9984 0.78275 0.41785 0.0
H447 H 0.04487 0.83663 0.40348 0.0
H448 H 0.07424 0.76515 0.31787 0.0
H449 H 0.05071 0.78255 0.28744 0.0
H450 H 0.02516 0.74304 0.30407 0.0
H451 H 0.95663 0.7868 0.30141 0.0
H452 H 0.98201 0.82641 0.28493 0.0
H453 H 0.95886 0.83871 0.31372 0.0
H454 H 0.07857 0.89154 0.38085 0.0
H455 H 0.09996 0.94365 0.35113 0.0
H456 H 0.0503 0.86754 0.28747 0.0
C457 C 0.9856 0.76162 0.35403 0.0
C458 C 0.98022 0.75801 0.38008 0.0
C459 C 0.00254 0.78476 0.39787 0.0
C460 C 0.02903 0.81535 0.38988 0.0
C461 C 0.03296 0.8187 0.36405 0.0
C462 C 0.01221 0.79241 0.34635 0.0
C463 C 0.01895 0.80511 0.31957 0.0
C464 C 0.04375 0.77198 0.30647 0.0
C465 C 0.9766 0.81484 0.30401 0.0
C466 C 0.04526 0.84361 0.32498 0.0
C467 C 0.05327 0.85053 0.35081 0.0
C468 C 0.07338 0.88603 0.36061 0.0
C469 C 0.08519 0.91551 0.34361 0.0
C470 C 0.07715 0.90921 0.31713 0.0
C471 C 0.05769 0.87248 0.30766 0.0
loop_
_geom_bond_atom_site_label_1
_geom_bond_atom_site_label_2
_geom_bond_distance
_geom_bond_site_symmetry_2
_ccdc_geom_bond_type
C0 C1 1.560 . S
C0 H61 0.959 . S
C0 H62 0.959 . S
C0 H63 0.960 . S
C1 C0 1.560 . S
C1 O56 1.426 . S
C1 H60 0.980 . S
C2 C3 1.407 1_545 S
C2 C7 1.418 . S
C2 O56 1.334 . S
C3 C2 1.407 1_565 S
C3 C4 1.360 . S
C3 H64 0.929 . S
C4 C3 1.360 . S
C4 C5 1.401 1_565 S
C4 C8 1.527 . S
C5 C4 1.401 1_545 S
C5 C6 1.405 . S
C5 C38 1.587 1_545 S
C6 C5 1.405 . S
C6 C7 1.332 . S
C6 C9 1.496 . S
C7 C2 1.418 . S
C7 C6 1.332 . S
C7 H65 0.929 . S
C8 C4 1.527 . S
C8 H66 0.959 . S
C8 H67 0.961 . S
C8 H68 0.961 . S
C9 C6 1.496 . S
C9 H69 0.960 . S
C9 H70 0.960 . S
C9 H71 0.961 . S
C10 C11 1.517 . S
C10 H73 0.946 1_565 S
C10 H74 0.960 . S
C10 H75 0.959 . S
C11 C10 1.517 . S
C11 O59 1.468 . S
C11 H72 0.980 1_565 S
C12 C13 1.340 1_565 S
C12 C17 1.367 . S
C12 O59 1.408 . S
C13 C12 1.340 1_545 S
C13 C14 1.409 . S
C13 H76 0.938 . S
C14 C13 1.409 . S
C14 C15 1.449 1_545 S
C14 C18 1.535 . S
C15 C14 1.449 1_565 S
C15 C16 1.384 . S
C15 C40 1.553 . S
C16 C15 1.384 . S
C16 C17 1.364 . S
C16 C19 1.450 . S
C17 C12 1.367 . S
C17 C16 1.364 . S
C17 H77 0.931 . S
C18 C14 1.535 . S
C18 H78 0.959 . S
C18 H79 0.961 . S
C18 H80 0.959 . S
C19 C16 1.450 . S
C19 H81 0.960 . S
C19 H82 0.960 . S
C19 H83 0.960 . S
C20 C21 1.309 1_565 S
C20 C25 1.304 . S
C20 O58 1.435 . S
C21 C20 1.309 1_545 S
C21 C22 1.476 . S
C21 H85 0.930 . S
C22 C21 1.476 . S
C22 C23 1.400 1_545 S
C22 C26 1.567 . S
C23 C22 1.400 1_565 S
C23 C24 1.373 . S
C23 C45 1.432 . S
C24 C23 1.373 . S
C24 C25 1.339 . S
C24 C27 1.530 . S
C25 C20 1.304 . S
C25 C24 1.339 . S
C25 H86 0.930 . S
C26 C22 1.567 . S
C26 H87 0.961 . S
C26 H88 0.960 . S
C26 H89 0.958 . S
C27 C24 1.530 . S
C27 H90 0.961 . S
C27 H91 0.960 . S
C27 H92 0.960 . S
C28 C29 1.530 . S
C28 H94 0.961 . S
C28 H95 0.961 . S
C28 H96 0.959 . S
C29 C28 1.530 . S
C29 O57 1.412 . S
C29 H93 0.980 . S
C30 C31 1.288 . S
C30 C35 1.377 1_545 S
C30 O57 1.393 . S
C31 C30 1.288 . S
C31 C32 1.369 . S
C31 H97 0.932 . S
C32 C31 1.369 . S
C32 C33 1.398 . S
C32 C36 1.527 . S
C33 C32 1.398 . S
C33 C34 1.380 1_545 S
C33 C47 1.497 . S
C34 C33 1.380 1_565 S
C34 C35 1.383 . S
C34 C37 1.603 . S
C35 C30 1.377 1_565 S
C35 C34 1.383 . S
C35 H98 0.929 . S
C36 C32 1.527 . S
C36 H99 0.961 . S
C36 H100 0.959 . S
C36 H101 0.959 . S
C37 C34 1.603 . S
C37 H102 0.960 . S
C37 H103 0.962 . S
C37 H104 0.961 . S
C38 C5 1.587 1_565 S
C38 C39 1.360 . S
C38 C51 1.412 . S
C39 C38 1.360 . S
C39 C40 1.365 . S
C39 H105 0.929 . S
C40 C15 1.553 . S
C40 C39 1.365 . S
C40 C41 1.404 . S
C41 C40 1.404 . S
C41 C42 1.395 . S
C41 C52 1.451 . S
C42 C41 1.395 . S
C42 C43 1.322 1_554 S
C42 H106 0.930 . S
C43 C42 1.322 1_556 S
C43 C44 1.459 . S
C43 H107 0.929 . S
C44 C43 1.459 . S
C44 C45 1.445 . S
C44 C53 1.395 . S
C45 C23 1.432 . S
C45 C44 1.445 . S
C45 C46 1.370 . S
C46 C45 1.370 . S
C46 C47 1.438 1_565 S
C46 H108 0.930 . S
C47 C33 1.497 . S
C47 C46 1.438 1_545 S
C47 C48 1.360 1_545 S
C48 C47 1.360 1_565 S
C48 C49 1.401 1_565 S
C48 C53 1.446 . S
C49 C48 1.401 1_545 S
C49 C50 1.347 1_556 S
C49 H109 0.929 . S
C50 C49 1.347 1_554 S
C50 C51 1.455 1_545 S
C50 H110 0.930 . S
C51 C38 1.412 . S
C51 C50 1.455 1_565 S
C51 C52 1.331 . S
C52 C41 1.451 . S
C52 C51 1.331 . S
C52 C53 1.497 1_554 S
C53 C44 1.395 . S
C53 C48 1.446 . S
C53 C52 1.497 1_556 S
C54 C55 1.578 1_565 S
C54 H111 0.962 . S
C54 H112 0.959 . S
C54 H113 0.958 . S
C55 C54 1.578 1_545 S
C55 O58 1.453 1_545 S
C55 H84 0.982 . S
O56 C1 1.426 . S
O56 C2 1.334 . S
O57 C29 1.412 . S
O57 C30 1.393 . S
O58 C20 1.435 . S
O58 C55 1.453 1_565 S
O59 C11 1.468 . S
O59 C12 1.408 . S
H60 C1 0.980 . S
H61 C0 0.959 . S
H62 C0 0.959 . S
H63 C0 0.960 . S
H64 C3 0.929 . S
H65 C7 0.929 . S
H66 C8 0.959 . S
H67 C8 0.961 . S
H68 C8 0.961 . S
H69 C9 0.960 . S
H70 C9 0.960 . S
H71 C9 0.961 . S
H72 C11 0.980 1_545 S
H73 C10 0.946 1_545 S
H74 C10 0.960 . S
H75 C10 0.959 . S
H76 C13 0.938 . S
H77 C17 0.931 . S
H78 C18 0.959 . S
H79 C18 0.961 . S
H80 C18 0.959 . S
H81 C19 0.960 . S
H82 C19 0.960 . S
H83 C19 0.960 . S
H84 C55 0.982 . S
H85 C21 0.930 . S
H86 C25 0.930 . S
H87 C26 0.961 . S
H88 C26 0.960 . S
H89 C26 0.958 . S
H90 C27 0.961 . S
H91 C27 0.960 . S
H92 C27 0.960 . S
H93 C29 0.980 . S
H94 C28 0.961 . S
H95 C28 0.961 . S
H96 C28 0.959 . S
H97 C31 0.932 . S
H98 C35 0.929 . S
H99 C36 0.961 . S
H100 C36 0.959 . S
H101 C36 0.959 . S
H102 C37 0.960 . S
H103 C37 0.962 . S
H104 C37 0.961 . S
H105 C39 0.929 . S
H106 C42 0.930 . S
H107 C43 0.929 . S
H108 C46 0.930 . S
H109 C49 0.929 . S
H110 C50 0.930 . S
H111 C54 0.962 . S
H112 C54 0.959 . S
H113 C54 0.958 . S
C114 C115 1.560 . S
C114 H175 0.959 . S
C114 H176 0.959 . S
C114 H177 0.960 . S
C115 C114 1.560 . S
C115 O170 1.426 . S
C115 H174 0.980 . S
C116 C117 1.407 . S
C116 C121 1.418 . S
C116 O170 1.334 . S
C117 C116 1.407 . S
C117 C118 1.360 . S
C117 H178 0.929 1_455 S
C118 C117 1.360 . S
C118 C119 1.401 . S
C118 C122 1.527 1_455 S
C119 C118 1.401 . S
C119 C120 1.405 . S
C119 C152 1.587 . S
C120 C119 1.405 . S
C120 C121 1.332 . S
C120 C123 1.496 . S
C121 C116 1.418 . S
C121 C120 1.332 . S
C121 H179 0.929 . S
C122 C118 1.527 1_655 S
C122 H180 0.959 . S
C122 H181 0.961 . S
C122 H182 0.961 . S
C123 C120 1.496 . S
C123 H183 0.960 . S
C123 H184 0.960 . S
C123 H185 0.961 . S
C124 C125 1.517 1_655 S
C124 H187 0.961 1_655 S
C124 H188 0.960 . S
C124 H189 0.959 . S
C125 C124 1.517 1_455 S
C125 O173 1.468 1_455 S
C125 H186 0.980 . S
C126 C127 1.349 1_655 S
C126 C131 1.367 . S
C126 O173 1.408 . S
C127 C126 1.349 1_455 S
C127 C128 1.407 . S
C127 H190 0.930 . S
C128 C127 1.407 . S
C128 C129 1.449 1_455 S
C128 C132 1.535 . S
C129 C128 1.449 1_655 S
C129 C130 1.384 . S
C129 C154 1.553 1_655 S
C130 C129 1.384 . S
C130 C131 1.364 . S
C130 C133 1.450 . S
C131 C126 1.367 . S
C131 C130 1.364 . S
C131 H191 0.931 . S
C132 C128 1.535 . S
C132 H192 0.959 . S
C132 H193 0.961 . S
C132 H194 0.959 . S
C133 C130 1.450 . S
C133 H195 0.960 . S
C133 H196 0.960 . S
C133 H197 0.960 . S
C134 C135 1.309 . S
C134 C139 1.304 1_455 S
C134 O172 1.435 . S
C135 C134 1.309 . S
C135 C136 1.476 . S
C135 H199 0.930 . S
C136 C135 1.476 . S
C136 C137 1.400 . S
C136 C140 1.567 . S
C137 C136 1.400 . S
C137 C138 1.373 1_455 S
C137 C159 1.432 . S
C138 C137 1.373 1_655 S
C138 C139 1.339 . S
C138 C141 1.530 . S
C139 C134 1.304 1_655 S
C139 C138 1.339 . S
C139 H200 0.930 . S
C140 C136 1.567 . S
C140 H201 0.961 . S
C140 H202 0.960 . S
C140 H203 0.958 . S
C141 C138 1.530 . S
C141 H204 0.961 . S
C141 H205 0.960 . S
C141 H206 0.960 . S
C142 C143 1.530 . S
C142 H208 0.961 . S
C142 H209 0.961 . S
C142 H210 0.959 . S
C143 C142 1.530 . S
C143 O171 1.412 . S
C143 H207 0.980 . S
C144 C145 1.288 . S
C144 C149 1.377 . S
C144 O171 1.393 . S
C145 C144 1.288 . S
C145 C146 1.369 . S
C145 H211 0.932 . S
C146 C145 1.369 . S
C146 C147 1.398 . S
C146 C150 1.527 . S
C147 C146 1.398 . S
C147 C148 1.380 . S
C147 C161 1.497 . S
C148 C147 1.380 . S
C148 C149 1.383 . S
C148 C151 1.603 1_455 S
C149 C144 1.377 . S
C149 C148 1.383 . S
C149 H212 0.929 . S
C150 C146 1.527 . S
C150 H213 0.961 . S
C150 H214 0.959 . S
C150 H215 0.959 . S
C151 C148 1.603 1_655 S
C151 H216 0.960 . S
C151 H217 0.962 . S
C151 H218 0.961 . S
C152 C119 1.587 . S
C152 C153 1.360 . S
C152 C165 1.412 . S
C153 C152 1.360 . S
C153 C154 1.365 . S
C153 H219 0.929 . S
C154 C129 1.553 1_455 S
C154 C153 1.365 . S
C154 C155 1.404 . S
C155 C154 1.404 . S
C155 C156 1.395 . S
C155 C166 1.451 . S
C156 C155 1.395 . S
C156 C157 1.322 . S
C156 H220 0.930 . S
C157 C156 1.322 . S
C157 C158 1.459 . S
C157 H221 0.929 . S
C158 C157 1.459 . S
C158 C159 1.445 . S
C158 C167 1.395 . S
C159 C137 1.432 . S
C159 C158 1.445 . S
C159 C160 1.370 . S
C160 C159 1.370 . S
C160 C161 1.438 . S
C160 H222 0.930 . S
C161 C147 1.497 . S
C161 C160 1.438 . S
C161 C162 1.360 . S
C162 C161 1.360 . S
C162 C163 1.401 . S
C162 C167 1.446 . S
C163 C162 1.401 . S
C163 C164 1.347 . S
C163 H223 0.929 . S
C164 C163 1.347 . S
C164 C165 1.455 . S
C164 H224 0.930 . S
C165 C152 1.412 . S
C165 C164 1.455 . S
C165 C166 1.331 . S
C166 C155 1.451 . S
C166 C165 1.331 . S
C166 C167 1.497 . S
C167 C158 1.395 . S
C167 C162 1.446 . S
C167 C166 1.497 . S
C168 C169 1.582 . S
C168 H225 0.962 . S
C168 H226 0.959 . S
C168 H227 0.958 . S
C169 C168 1.582 . S
C169 O172 1.458 . S
C169 H198 0.980 . S
O170 C115 1.426 . S
O170 C116 1.334 . S
O171 C143 1.412 . S
O171 C144 1.393 . S
O172 C134 1.435 . S
O172 C169 1.458 . S
O173 C125 1.468 1_655 S
O173 C126 1.408 . S
H174 C115 0.980 . S
H175 C114 0.959 . S
H176 C114 0.959 . S
H177 C114 0.960 . S
H178 C117 0.929 1_655 S
H179 C121 0.929 . S
H180 C122 0.959 . S
H181 C122 0.961 . S
H182 C122 0.961 . S
H183 C123 0.960 . S
H184 C123 0.960 . S
H185 C123 0.961 . S
H186 C125 0.980 . S
H187 C124 0.961 1_455 S
H188 C124 0.960 . S
H189 C124 0.959 . S
H190 C127 0.930 . S
H191 C131 0.931 . S
H192 C132 0.959 . S
H193 C132 0.961 . S
H194 C132 0.959 . S
H195 C133 0.960 . S
H196 C133 0.960 . S
H197 C133 0.960 . S
H198 C169 0.980 . S
H199 C135 0.930 . S
H200 C139 0.930 . S
H201 C140 0.961 . S
H202 C140 0.960 . S
H203 C140 0.958 . S
H204 C141 0.961 . S
H205 C141 0.960 . S
H206 C141 0.960 . S
H207 C143 0.980 . S
H208 C142 0.961 . S
H209 C142 0.961 . S
H210 C142 0.959 . S
H211 C145 0.932 . S
H212 C149 0.929 . S
H213 C150 0.961 . S
H214 C150 0.959 . S
H215 C150 0.959 . S
H216 C151 0.960 . S
H217 C151 0.962 . S
H218 C151 0.961 . S
H219 C153 0.929 . S
H220 C156 0.930 . S
H221 C157 0.929 . S
H222 C160 0.930 . S
H223 C163 0.929 . S
H224 C164 0.930 . S
H225 C168 0.962 . S
H226 C168 0.959 . S
H227 C168 0.958 . S
Mg228 O229 2.028 . S
Mg228 O235 1.986 . S
Mg228 O237 2.114 1_545 S
Mg228 O238 2.251 1_545 S
Mg228 O241 2.010 . S
O229 Mg228 2.028 . S
O229 C232 1.250 . S
O230 Mg231 2.028 . S
O230 C232 1.248 1_655 S
Mg231 O230 2.028 . S
Mg231 O236 2.032 1_655 S
Mg231 O238 2.079 1_645 S
C232 O229 1.250 . S
C232 O230 1.248 1_455 S
C233 O234 1.264 . S
C233 O241 1.249 . S
O234 C233 1.264 . S
O235 Mg228 1.986 . S
O235 C239 1.246 . S
O236 Mg231 2.032 1_455 S
O236 C239 1.259 . S
O237 Mg228 2.114 1_565 S
O237 C240 1.252 . S
O238 Mg228 2.251 1_565 S
O238 Mg231 2.079 1_465 S
O238 C240 1.273 . S
C239 O235 1.246 . S
C239 O236 1.259 . S
C240 O237 1.252 . S
C240 O238 1.273 . S
O241 Mg228 2.010 . S
O241 C233 1.249 . S
Mg242 O243 2.028 1_655 S
Mg242 O249 1.986 . S
Mg242 O251 2.114 1_545 S
Mg242 O252 2.251 1_645 S
Mg242 O255 2.010 . S
O243 Mg242 2.028 1_455 S
O243 C246 1.250 . S
O244 Mg245 2.028 . S
O244 C246 1.248 . S
Mg245 O244 2.028 . S
Mg245 O250 2.032 . S
Mg245 O252 2.079 1_545 S
C246 O243 1.250 . S
C246 O244 1.248 . S
C247 O248 1.264 . S
C247 O255 1.249 . S
O248 C247 1.264 . S
O249 Mg242 1.986 . S
O249 C253 1.246 1_655 S
O250 Mg245 2.032 . S
O250 C253 1.259 . S
O251 Mg242 2.114 1_565 S
O251 C254 1.252 1_655 S
O252 Mg242 2.251 1_465 S
O252 Mg245 2.079 1_565 S
O252 C254 1.273 . S
C253 O249 1.246 1_455 S
C253 O250 1.259 . S
C254 O251 1.252 1_455 S
C254 O252 1.273 . S
O255 Mg242 2.010 . S
O255 C247 1.249 . S
H256 C268 0.930 . S
H257 C270 0.930 . S
H258 C271 0.930 . S
H259 C275 0.959 . S
H260 C275 0.959 . S
H261 C275 0.961 . S
H262 C276 0.960 . S
H263 C276 0.961 . S
H264 C276 0.959 . S
H265 C279 0.929 . S
H266 C280 0.931 . S
H267 C282 0.930 . S
C268 H256 0.930 . S
C268 C269 1.399 . S
C268 C273 1.399 . S
C269 C268 1.399 . S
C269 C270 1.376 1_545 S
C270 H257 0.930 . S
C270 C269 1.376 1_565 S
C270 C271 1.388 . S
C271 H258 0.930 . S
C271 C270 1.388 . S
C271 C272 1.390 . S
C272 C271 1.390 . S
C272 C273 1.394 1_565 S
C272 C278 1.464 1_565 S
C273 C268 1.399 . S
C273 C272 1.394 1_545 S
C273 C274 1.516 . S
C274 C273 1.516 . S
C274 C275 1.502 . S
C274 C276 1.561 . S
C274 C277 1.526 . S
C275 H259 0.959 . S
C275 H260 0.959 . S
C275 H261 0.961 . S
C275 C274 1.502 . S
C276 H262 0.960 . S
C276 H263 0.961 . S
C276 H264 0.959 . S
C276 C274 1.561 . S
C277 C274 1.526 . S
C277 C278 1.411 . S
C277 C282 1.390 . S
C278 C272 1.464 1_545 S
C278 C277 1.411 . S
C278 C279 1.388 1_545 S
C279 H265 0.929 . S
C279 C278 1.388 1_565 S
C279 C280 1.385 . S
C280 H266 0.931 . S
C280 C279 1.385 . S
C280 C281 1.389 1_565 S
C281 C280 1.389 1_545 S
C281 C282 1.387 . S
C282 H267 0.930 . S
C282 C277 1.390 . S
C282 C281 1.387 . S
H283 C295 0.930 1_655 S
H284 C297 0.930 . S
H285 C298 0.930 . S
H286 C302 0.959 . S
H287 C302 0.959 . S
H288 C302 0.961 . S
H289 C303 0.960 . S
H290 C303 0.961 . S
H291 C303 0.959 1_455 S
H292 C306 0.929 . S
H293 C307 0.931 . S
H294 C309 0.930 . S
C295 H283 0.930 1_455 S
C295 C296 1.399 . S
C295 C300 1.399 . S
C296 C295 1.399 . S
C296 C297 1.376 . S
C297 H284 0.930 . S
C297 C296 1.376 . S
C297 C298 1.388 . S
C298 H285 0.930 . S
C298 C297 1.388 . S
C298 C299 1.390 . S
C299 C298 1.390 . S
C299 C300 1.394 . S
C299 C305 1.465 . S
C300 C295 1.399 . S
C300 C299 1.394 . S
C300 C301 1.516 1_455 S
C301 C300 1.516 1_655 S
C301 C302 1.502 . S
C301 C303 1.561 . S
C301 C304 1.526 1_655 S
C302 H286 0.959 . S
C302 H287 0.959 . S
C302 H288 0.961 . S
C302 C301 1.502 . S
C303 H289 0.960 . S
C303 H290 0.961 . S
C303 H291 0.959 1_655 S
C303 C301 1.561 . S
C304 C301 1.526 1_455 S
C304 C305 1.396 . S
C304 C309 1.390 1_455 S
C305 C299 1.465 . S
C305 C304 1.396 . S
C305 C306 1.399 . S
C306 H292 0.929 . S
C306 C305 1.399 . S
C306 C307 1.385 . S
C307 H293 0.931 . S
C307 C306 1.385 . S
C307 C308 1.389 . S
C308 C307 1.389 . S
C308 C309 1.387 1_455 S
C309 H294 0.930 . S
C309 C304 1.390 1_655 S
C309 C308 1.387 1_655 S
H310 C322 0.930 . S
H311 C324 0.930 . S
H312 C325 0.930 . S
H313 C329 0.959 . S
H314 C329 0.959 . S
H315 C329 0.961 . S
H316 C330 0.960 . S
H317 C330 0.961 . S
H318 C330 0.959 . S
H319 C333 0.929 . S
H320 C334 0.931 . S
H321 C336 0.930 . S
C322 H310 0.930 . S
C322 C323 1.399 . S
C322 C327 1.399 . S
C323 C322 1.399 . S
C323 C324 1.376 1_545 S
C324 H311 0.930 . S
C324 C323 1.376 1_565 S
C324 C325 1.388 . S
C325 H312 0.930 . S
C325 C324 1.388 . S
C325 C326 1.390 1_565 S
C326 C325 1.390 1_545 S
C326 C327 1.394 . S
C326 C332 1.465 . S
C327 C322 1.399 . S
C327 C326 1.394 . S
C327 C328 1.516 . S
C328 C327 1.516 . S
C328 C329 1.502 . S
C328 C330 1.561 . S
C328 C331 1.526 . S
C329 H313 0.959 . S
C329 H314 0.959 . S
C329 H315 0.961 . S
C329 C328 1.502 . S
C330 H316 0.960 . S
C330 H317 0.961 . S
C330 H318 0.959 . S
C330 C328 1.561 . S
C331 C328 1.526 . S
C331 C332 1.396 . S
C331 C336 1.390 . S
C332 C326 1.465 . S
C332 C331 1.396 . S
C332 C333 1.399 1_545 S
C333 H319 0.929 . S
C333 C332 1.399 1_565 S
C333 C334 1.385 . S
C334 H320 0.931 . S
C334 C333 1.385 . S
C334 C335 1.389 1_565 S
C335 C334 1.389 1_545 S
C335 C336 1.387 . S
C336 H321 0.930 . S
C336 C331 1.390 . S
C336 C335 1.387 . S
H337 C349 0.930 . S
H338 C351 0.930 . S
H339 C352 0.930 . S
H340 C356 0.959 . S
H341 C356 0.959 . S
H342 C356 0.961 . S
H343 C357 0.960 . S
H344 C357 0.961 . S
H345 C357 0.959 . S
H346 C360 0.929 . S
H347 C361 0.931 . S
H348 C363 0.930 . S
C349 H337 0.930 . S
C349 C350 1.399 . S
C349 C354 1.399 . S
C350 C349 1.399 . S
C350 C351 1.376 1_455 S
C351 H338 0.930 . S
C351 C350 1.376 1_655 S
C351 C352 1.388 . S
C352 H339 0.930 . S
C352 C351 1.388 . S
C352 C353 1.383 1_655 S
C353 C352 1.383 1_455 S
C353 C354 1.404 . S
C353 C359 1.463 1_455 S
C354 C349 1.399 . S
C354 C353 1.404 . S
C354 C355 1.516 . S
C355 C354 1.516 . S
C355 C356 1.502 . S
C355 C357 1.561 . S
C355 C358 1.526 . S
C356 H340 0.959 . S
C356 H341 0.959 . S
C356 H342 0.961 . S
C356 C355 1.502 . S
C357 H343 0.960 . S
C357 H344 0.961 . S
C357 H345 0.959 . S
C357 C355 1.561 . S
C358 C355 1.526 . S
C358 C359 1.380 1_455 S
C358 C363 1.390 . S
C359 C353 1.463 1_655 S
C359 C358 1.380 1_655 S
C359 C360 1.413 . S
C360 H346 0.929 . S
C360 C359 1.413 . S
C360 C361 1.385 . S
C361 H347 0.931 . S
C361 C360 1.385 . S
C361 C362 1.389 1_655 S
C362 C361 1.389 1_455 S
C362 C363 1.387 . S
C363 H348 0.930 . S
C363 C358 1.390 . S
C363 C362 1.387 . S
H364 C376 0.930 . S
H365 C378 0.930 . S
H366 C379 0.930 . S
H367 C383 0.959 . S
H368 C383 0.959 . S
H369 C383 0.961 . S
H370 C384 0.960 . S
H371 C384 0.961 . S
H372 C384 0.959 . S
H373 C387 0.929 . S
H374 C388 0.931 . S
H375 C390 0.930 . S
C376 H364 0.930 . S
C376 C377 1.399 . S
C376 C381 1.399 . S
C377 C376 1.399 . S
C377 C378 1.376 1_545 S
C378 H365 0.930 . S
C378 C377 1.376 1_565 S
C378 C379 1.388 . S
C379 H366 0.930 . S
C379 C378 1.388 . S
C379 C380 1.390 1_565 S
C380 C379 1.390 1_545 S
C380 C381 1.394 . S
C380 C386 1.465 . S
C381 C376 1.399 . S
C381 C380 1.394 . S
C381 C382 1.516 . S
C382 C381 1.516 . S
C382 C383 1.502 . S
C382 C384 1.561 . S
C382 C385 1.526 . S
C383 H367 0.959 . S
C383 H368 0.959 . S
C383 H369 0.961 . S
C383 C382 1.502 . S
C384 H370 0.960 . S
C384 H371 0.961 . S
C384 H372 0.959 . S
C384 C382 1.561 . S
C385 C382 1.526 . S
C385 C386 1.396 . S
C385 C390 1.390 . S
C386 C380 1.465 . S
C386 C385 1.396 . S
C386 C387 1.399 1_545 S
C387 H373 0.929 . S
C387 C386 1.399 1_565 S
C387 C388 1.385 . S
C388 H374 0.931 . S
C388 C387 1.385 . S
C388 C389 1.389 1_565 S
C389 C388 1.389 1_545 S
C389 C390 1.387 . S
C390 H375 0.930 . S
C390 C385 1.390 . S
C390 C389 1.387 . S
H391 C403 0.930 . S
H392 C405 0.930 . S
H393 C406 0.930 . S
H394 C410 0.959 . S
H395 C410 0.959 . S
H396 C410 0.961 . S
H397 C411 0.960 . S
H398 C411 0.961 . S
H399 C411 0.959 . S
H400 C414 0.929 . S
H401 C415 0.931 . S
H402 C417 0.930 . S
C403 H391 0.930 . S
C403 C404 1.399 . S
C403 C408 1.399 . S
C404 C403 1.399 . S
C404 C405 1.376 . S
C405 H392 0.930 . S
C405 C404 1.376 . S
C405 C406 1.388 . S
C406 H393 0.930 . S
C406 C405 1.388 . S
C406 C407 1.390 . S
C407 C406 1.390 . S
C407 C408 1.394 . S
C407 C413 1.465 . S
C408 C403 1.399 . S
C408 C407 1.394 . S
C408 C409 1.516 . S
C409 C408 1.516 . S
C409 C410 1.502 . S
C409 C411 1.561 1_455 S
C409 C412 1.526 . S
C410 H394 0.959 . S
C410 H395 0.959 . S
C410 H396 0.961 . S
C410 C409 1.502 . S
C411 H397 0.960 . S
C411 H398 0.961 . S
C411 H399 0.959 . S
C411 C409 1.561 1_655 S
C412 C409 1.526 . S
C412 C413 1.396 . S
C412 C417 1.390 . S
C413 C407 1.465 . S
C413 C412 1.396 . S
C413 C414 1.399 . S
C414 H400 0.929 . S
C414 C413 1.399 . S
C414 C415 1.385 . S
C415 H401 0.931 . S
C415 C414 1.385 . S
C415 C416 1.389 . S
C416 C415 1.389 . S
C416 C417 1.387 . S
C417 H402 0.930 . S
C417 C412 1.390 . S
C417 C416 1.387 . S
H418 C430 0.930 . S
H419 C432 0.930 . S
H420 C433 0.930 . S
H421 C437 0.959 . S
H422 C437 0.959 . S
H423 C437 0.961 . S
H424 C438 0.960 . S
H425 C438 0.961 . S
H426 C438 0.959 . S
H427 C441 0.929 . S
H428 C442 0.931 . S
H429 C444 0.930 . S
C430 H418 0.930 . S
C430 C431 1.399 1_565 S
C430 C435 1.399 . S
C431 C430 1.399 1_545 S
C431 C432 1.376 . S
C432 H419 0.930 . S
C432 C431 1.376 . S
C432 C433 1.388 . S
C433 H420 0.930 . S
C433 C432 1.388 . S
C433 C434 1.390 . S
C434 C433 1.390 . S
C434 C435 1.394 1_545 S
C434 C440 1.465 . S
C435 C430 1.399 . S
C435 C434 1.394 1_565 S
C435 C436 1.516 . S
C436 C435 1.516 . S
C436 C437 1.502 . S
C436 C438 1.561 . S
C436 C439 1.526 . S
C437 H421 0.959 . S
C437 H422 0.959 . S
C437 H423 0.961 . S
C437 C436 1.502 . S
C438 H424 0.960 . S
C438 H425 0.961 . S
C438 H426 0.959 . S
C438 C436 1.561 . S
C439 C436 1.526 . S
C439 C440 1.396 1_565 S
C439 C444 1.390 . S
C440 C434 1.465 . S
C440 C439 1.396 1_545 S
C440 C441 1.399 . S
C441 H427 0.929 . S
C441 C440 1.399 . S
C441 C442 1.385 . S
C442 H428 0.931 . S
C442 C441 1.385 . S
C442 C443 1.389 . S
C443 C442 1.389 . S
C443 C444 1.387 1_545 S
C444 H429 0.930 . S
C444 C439 1.390 . S
C444 C443 1.387 1_565 S
H445 C457 0.930 . S
H446 C459 0.930 . S
H447 C460 0.930 . S
H448 C464 0.959 . S
H449 C464 0.959 . S
H450 C464 0.961 . S
H451 C465 0.960 . S
H452 C465 0.961 . S
H453 C465 0.959 . S
H454 C468 0.929 . S
H455 C469 0.931 . S
H456 C471 0.930 . S
C457 H445 0.930 . S
C457 C458 1.399 . S
C457 C462 1.399 . S
C458 C457 1.399 . S
C458 C459 1.376 . S
C459 H446 0.930 . S
C459 C458 1.376 . S
C459 C460 1.388 . S
C460 H447 0.930 . S
C460 C459 1.388 . S
C460 C461 1.390 . S
C461 C460 1.390 . S
C461 C462 1.394 . S
C461 C467 1.465 . S
C462 C457 1.399 . S
C462 C461 1.394 . S
C462 C463 1.516 . S
C463 C462 1.516 . S
C463 C464 1.502 . S
C463 C465 1.561 . S
C463 C466 1.526 . S
C464 H448 0.959 . S
C464 H449 0.959 . S
C464 H450 0.961 . S
C464 C463 1.502 . S
C465 H451 0.960 . S
C465 H452 0.961 . S
C465 H453 0.959 . S
C465 C463 1.561 . S
C466 C463 1.526 . S
C466 C467 1.396 . S
C466 C471 1.390 . S
C467 C461 1.465 . S
C467 C466 1.396 . S
C467 C468 1.399 . S
C468 H454 0.929 . S
C468 C467 1.399 . S
C468 C469 1.385 . S
C469 H455 0.931 . S
C469 C468 1.385 . S
C469 C470 1.389 . S
C470 C469 1.389 . S
C470 C471 1.387 . S
C471 H456 0.930 . S
C471 C466 1.390 . S
C471 C470 1.387 . S
C281 C233 1.312 . S
C269 C11 0.958 1_545 S
C308 C253 1.286 . S
C296 C115 1.035 . S
C335 C232 1.289 1_655 S
C323 C1 1.040 . S
C362 C254 1.489 . S
C350 C125 0.856 . S
C389 C246 1.529 . S
C377 C55 1.164 . S
C416 C239 1.417 . S
C404 C143 1.198 . S
C443 C247 1.167 . S
C431 C29 1.115 . S
C458 C169 1.049 . S
C470 C240 1.577 . S
