# Generated by pormake.
# Topology sit, (3,6)-cn, num edge types: 1
# Building blocks:
#     Node 0, Type 0, BuildingBlock: KAKCAD_clean_linker_0, # of connection points: 3
#     Node 1, Type 0, BuildingBlock: KAKCAD_clean_linker_0, # of connection points: 3
#     Node 2, Type 0, BuildingBlock: KAKCAD_clean_linker_0, # of connection points: 3
#     Node 3, Type 0, BuildingBlock: KAKCAD_clean_linker_0, # of connection points: 3
#     Node 4, Type 1, BuildingBlock: MIDCAF_clean_sbu_0, # of connection points: 6
#     Node 5, Type 1, BuildingBlock: MIDCAF_clean_sbu_0, # of connection points: 6
#     Edge 6, Type (0, 1), BuildingBlock: OJICUG_clean_linker_0, # of connection points: 2
#     Edge 7, Type (0, 1), BuildingBlock: OJICUG_clean_linker_0, # of connection points: 2
#     Edge 8, Type (0, 1), BuildingBlock: OJICUG_clean_linker_0, # of connection points: 2
#     Edge 9, Type (0, 1), BuildingBlock: OJICUG_clean_linker_0, # of connection points: 2
#     Edge 10, Type (0, 1), BuildingBlock: OJICUG_clean_linker_0, # of connection points: 2
#     Edge 11, Type (0, 1), BuildingBlock: OJICUG_clean_linker_0, # of connection points: 2
#     Edge 12, Type (0, 1), BuildingBlock: OJICUG_clean_linker_0, # of connection points: 2
#     Edge 13, Type (0, 1), BuildingBlock: OJICUG_clean_linker_0, # of connection points: 2
#     Edge 14, Type (0, 1), BuildingBlock: OJICUG_clean_linker_0, # of connection points: 2
#     Edge 15, Type (0, 1), BuildingBlock: OJICUG_clean_linker_0, # of connection points: 2
#     Edge 16, Type (0, 1), BuildingBlock: OJICUG_clean_linker_0, # of connection points: 2
#     Edge 17, Type (0, 1), BuildingBlock: OJICUG_clean_linker_0, # of connection points: 2
# Relax obj value: 0.110
# Max RMSD: 0.193
# Mean RMSD: 0.106
data_MOF--net-sit--node1-MIDCAF_clean_sbu_0--node2-KAKCAD_clean_linker_0--edge1-OJICUG_clean_linker_0
_symmetry_space_group_name_H-M    P1
_symmetry_Int_Tables_number       1
_symmetry_cell_setting            triclinic
loop_
_symmetry_equiv_pos_as_xyz
'x, y, z'
_cell_length_a     23.408172
_cell_length_b     28.150096
_cell_length_c     34.7137
_cell_angle_alpha  90.549253
_cell_angle_beta   89.249936
_cell_angle_gamma 82.722289
loop_
_atom_site_label
_atom_site_type_symbol
_atom_site_fract_x
_atom_site_fract_y
_atom_site_fract_z
_atom_type_partial_charge
C0 C 0.26052 0.38787 0.97943 0.0
C1 C 0.25929 0.43684 0.97158 0.0
C2 C 0.2124 0.37043 -0.0047 0.0
C3 C 0.16207 0.40165 0.00394 0.0
C4 C 0.16191 0.45107 -0.0022 0.0
C5 C 0.20993 0.46845 -0.01854 0.0
C6 C 0.10848 0.38201 0.01544 0.0
C7 C 0.11019 0.34177 0.03936 0.0
C8 C 0.06042 0.31962 0.04622 0.0
C9 C 0.00849 0.33892 0.02933 0.0
C10 C 0.00587 0.37979 0.00638 0.0
C11 C 0.05583 0.40107 -0.00046 0.0
C12 C 0.95191 0.39838 -0.01289 0.0
C13 C 0.92091 0.36682 0.96703 0.0
C14 C 0.93245 0.44774 -0.01279 0.0
C15 C 0.88302 0.46526 0.9671 0.0
C16 C 0.85299 0.43367 0.94625 0.0
C17 C 0.06236 0.27645 0.07087 0.0
C18 C 0.11117 0.24159 0.07083 0.0
C19 C 0.01541 0.27014 0.09519 0.0
C20 C 0.01772 0.23082 0.11947 0.0
C21 C 0.06734 0.19721 0.12053 0.0
C22 C 0.11383 0.20259 0.09571 0.0
C23 C 0.87199 0.38432 0.94673 0.0
H24 H 0.29781 0.36261 0.97162 0.0
H25 H 0.21382 0.33214 -0.00105 0.0
H26 H 0.12416 0.47621 0.00476 0.0
H27 H 0.20823 0.50645 0.97607 0.0
H28 H 0.15035 0.32785 0.05269 0.0
H29 H 0.05413 0.43095 0.97996 0.0
H30 H -0.03006 0.32188 0.03357 0.0
H31 H 0.93533 0.3287 0.9662 0.0
H32 H 0.95562 0.4727 0.00268 0.0
H33 H 0.86904 0.50344 0.9671 0.0
H34 H 0.14763 0.24463 0.05191 0.0
H35 H -0.02248 0.29652 0.09664 0.0
H36 H 0.84902 0.3592 0.93126 0.0
H37 H 0.15265 0.17717 0.09615 0.0
H38 H -0.0182 0.22816 0.13899 0.0
C39 C 0.78858 0.71429 0.97464 0.0
C40 C 0.79037 0.66474 0.96826 0.0
C41 C 0.83697 0.73332 -0.01204 0.0
C42 C 0.88809 0.70315 -0.00471 0.0
C43 C 0.88872 0.65331 -0.00894 0.0
C44 C 0.84041 0.63431 0.97749 0.0
C45 C 0.94195 0.72394 0.00326 0.0
C46 C 0.94175 0.76458 0.02718 0.0
C47 C -0.00793 0.7866 0.03183 0.0
C48 C 0.04266 0.76727 0.01212 0.0
C49 C 0.04369 0.7261 -0.01102 0.0
C50 C -0.00663 0.70473 -0.01536 0.0
C51 C 0.09702 0.70599 0.9684 0.0
C52 C 0.1288 0.73605 0.94722 0.0
C53 C 0.11601 0.65661 0.9694 0.0
C54 C 0.1662 0.63765 0.94963 0.0
C55 C 0.19769 0.66774 0.92821 0.0
C56 C -0.0075 0.82869 0.05808 0.0
C57 C 0.94403 0.86361 0.06193 0.0
C58 C 0.041 0.83326 0.0807 0.0
C59 C 0.04033 0.87064 0.10741 0.0
C60 C -0.00911 0.90397 0.1126 0.0
C61 C 0.94308 0.90067 0.08915 0.0
C62 C 0.17858 0.71707 0.9272 0.0
H63 H 0.75079 0.73869 0.96736 0.0
H64 H 0.83523 0.77186 -0.00954 0.0
H65 H 0.92717 0.62905 -0.00281 0.0
H66 H 0.84259 0.59593 0.97337 0.0
H67 H 0.90258 0.77849 0.04261 0.0
H68 H -0.00617 0.67421 0.9653 0.0
H69 H 0.08159 0.78408 0.01481 0.0
H70 H 0.11475 0.77416 0.94576 0.0
H71 H 0.09227 0.63278 -0.01425 0.0
H72 H 0.18008 0.59948 0.95075 0.0
H73 H 0.90639 0.86188 0.04443 0.0
H74 H 0.07875 0.80674 0.07916 0.0
H75 H 0.20255 0.7411 0.91126 0.0
H76 H 0.90441 0.92597 0.09267 0.0
H77 H 0.07732 0.87168 0.12569 0.0
C78 C 0.75856 0.88734 0.47913 0.0
C79 C 0.75399 0.93688 0.47269 0.0
C80 C 0.71076 0.8663 0.49143 0.0
C81 C 0.65742 0.89441 0.49778 0.0
C82 C 0.65378 0.9444 0.49341 0.0
C83 C 0.70149 0.96538 0.48069 0.0
C84 C 0.60486 0.87125 0.50531 0.0
C85 C 0.60638 0.83066 0.52882 0.0
C86 C 0.55732 0.80696 0.53352 0.0
C87 C 0.50655 0.82446 0.51441 0.0
C88 C 0.50419 0.86533 0.49148 0.0
C89 C 0.55338 0.88834 0.48695 0.0
C90 C 0.4506 0.88363 0.47157 0.0
C91 C 0.41985 0.85209 0.45123 0.0
C92 C 0.43025 0.9328 0.47247 0.0
C93 C 0.37988 0.9501 0.45338 0.0
C94 C 0.34938 0.91855 0.4328 0.0
C95 C 0.55822 0.76487 0.55916 0.0
C96 C 0.60693 0.73011 0.56079 0.0
C97 C 0.51039 0.75982 0.58299 0.0
C98 C 0.51168 0.72178 0.60848 0.0
C99 C 0.561 0.68796 0.61109 0.0
C100 C 0.60838 0.69212 0.58662 0.0
C101 C 0.36977 0.86941 0.43194 0.0
H102 H 0.79835 0.8644 0.47271 0.0
H103 H 0.71497 0.8277 0.494 0.0
H104 H 0.6136 0.96722 0.49885 0.0
H105 H 0.69708 1.00373 0.47636 0.0
H106 H 0.64546 0.81807 0.54399 0.0
H107 H 0.552 0.91863 0.46779 0.0
H108 H 0.46854 0.8064 0.51746 0.0
H109 H 0.43491 0.81409 0.44983 0.0
H110 H 0.45307 0.95779 0.4882 0.0
H111 H 0.36514 0.98817 0.45433 0.0
H112 H 0.64412 0.73249 0.54236 0.0
H113 H 0.47256 0.78631 0.58307 0.0
H114 H 0.34664 0.84424 0.41666 0.0
H115 H 0.64694 0.66652 0.58799 0.0
H116 H 0.47501 0.72034 0.6276 0.0
C117 C 0.27741 0.21375 0.48092 0.0
C118 C 0.283 0.1638 0.4753 0.0
C119 C 0.3255 0.23648 0.48934 0.0
C120 C 0.37997 0.20964 0.49223 0.0
C121 C 0.38461 0.15937 0.48991 0.0
C122 C 0.3366 0.13666 0.48139 0.0
C123 C 0.43244 0.23403 0.49215 0.0
C124 C 0.43682 0.2742 0.51583 0.0
C125 C 0.48602 0.29845 0.51382 0.0
C126 C 0.52987 0.28216 0.48689 0.0
C127 C 0.52715 0.24071 0.46469 0.0
C128 C 0.47802 0.21743 0.46697 0.0
C129 C 0.57788 0.21926 0.44188 0.0
C130 C 0.60983 0.24802 0.41949 0.0
C131 C 0.5971 0.17008 0.44487 0.0
C132 C 0.64846 0.15037 0.42703 0.0
C133 C 0.6815 0.17946 0.40579 0.0
C134 C 0.49458 0.33735 0.5421 0.0
C135 C 0.44756 0.36635 0.55949 0.0
C136 C 0.55049 0.34351 0.55408 0.0
C137 C 0.55895 0.37553 0.58359 0.0
C138 C 0.51188 0.40085 0.60346 0.0
C139 C 0.45606 0.39735 0.59013 0.0
C140 C 0.66116 0.22828 0.40155 0.0
H141 H 0.23673 0.2357 0.47611 0.0
H142 H 0.32072 0.27524 0.4908 0.0
H143 H 0.42599 0.13773 0.49283 0.0
H144 H 0.34191 0.09805 0.47788 0.0
H145 H 0.40272 0.28512 0.53662 0.0
H146 H 0.47512 0.18648 0.44861 0.0
H147 H 0.56767 0.30039 0.48414 0.0
H148 H 0.59572 0.28595 0.4165 0.0
H149 H 0.5736 0.14713 0.46229 0.0
H150 H 0.6629 0.11255 0.43044 0.0
H151 H 0.40392 0.36404 0.55047 0.0
H152 H 0.5883 0.32187 0.54241 0.0
H153 H 0.68603 0.25163 0.3856 0.0
H154 H 0.41868 0.41641 0.60466 0.0
H155 H 0.60268 0.3783 0.59231 0.0
Zn156 Zn 0.02013 0.13165 0.33528 0.0
Zn157 Zn 0.03052 0.96054 0.33467 0.0
Zn158 Zn 0.02437 0.04663 0.33459 0.0
C159 C 0.00145 0.98528 0.26141 0.0
C160 C 0.94588 0.98918 0.38656 0.0
O161 O 0.09561 0.06731 0.36993 0.0
O162 O 0.05712 0.14068 0.38539 0.0
C163 C 0.05829 0.10596 0.26349 0.0
O164 O 0.02169 1.02292 0.27381 0.0
O165 O -0.00724 0.95263 0.28457 0.0
O166 O -0.01564 0.95387 0.38209 0.0
O167 O 0.94877 1.02762 0.36717 0.0
O168 O 0.0669 0.13779 0.28779 0.0
O169 O 0.03436 0.06952 0.2744 0.0
O170 O 0.94032 0.07669 0.35893 0.0
O171 O 0.9353 0.14814 0.33266 0.0
C172 C 0.91131 0.11717 0.35065 0.0
O173 O 0.1043 1.01732 0.36323 0.0
O174 O 0.11521 0.94426 0.3383 0.0
C175 C 0.09578 0.10587 0.39022 0.0
C176 C 0.13493 0.97645 0.35773 0.0
Zn177 Zn 0.51836 0.63042 0.82901 0.0
Zn178 Zn 0.54711 0.45176 0.8346 0.0
Zn179 Zn 0.53074 0.54234 0.8309 0.0
C180 C 0.53047 0.47091 0.75794 0.0
C181 C 0.45115 0.4799 0.87986 0.0
O182 O 0.60073 0.56984 0.86368 0.0
O183 O 0.56303 0.64479 0.87463 0.0
C184 C 0.5514 0.60165 0.756 0.0
O185 O 0.5319 0.51382 0.77084 0.0
O186 O 0.53255 0.43627 0.78085 0.0
O187 O 0.48815 0.44378 0.87426 0.0
O188 O 0.45715 0.52001 0.8637 0.0
O189 O 0.55487 0.63699 0.77803 0.0
O190 O 0.53584 0.56277 0.76956 0.0
O191 O 0.44665 0.56965 0.85731 0.0
O192 O 0.43352 0.64276 0.8337 0.0
C193 C 0.41444 0.60963 0.85217 0.0
O194 O 0.61248 0.51988 0.86115 0.0
O195 O 0.62768 0.44174 0.85016 0.0
C196 C 0.60211 0.61066 0.8806 0.0
C197 C 0.64441 0.47926 0.86355 0.0
C198 C 0.11919 0.16049 0.17699 0.0
C199 C 0.07297 0.16139 0.15157 0.0
H200 H 0.15062 0.14139 0.23305 0.0
C201 C 0.02769 0.13465 0.16023 0.0
H202 H 0.15443 0.18101 0.17111 0.0
C203 C 0.02603 0.11122 0.19552 0.0
C204 C 0.06909 0.11518 0.22266 0.0
H205 H -0.00829 0.13468 0.14091 0.0
H206 H -0.01148 0.0941 0.20297 0.0
C207 C 0.11697 0.13795 0.21244 0.0
C208 C 0.0325 0.96217 0.15612 0.0
C209 C -0.01334 0.93664 0.14644 0.0
H210 H 0.07232 0.99939 0.2007 0.0
C211 C 0.94086 0.93562 0.17277 0.0
H212 H 0.06821 0.96355 0.13617 0.0
C213 C 0.94367 0.95537 0.20953 0.0
C214 C -0.00829 0.97729 0.22031 0.0
H215 H 0.90526 0.91591 0.16622 0.0
H216 H 0.91 0.95079 0.2304 0.0
C217 C 0.03474 0.98284 0.19283 0.0
C218 C 0.51708 0.63008 0.65346 0.0
C219 C 0.56499 0.65287 0.64283 0.0
H220 H 0.47541 0.59526 0.69853 0.0
C221 C 0.61319 0.64867 0.66683 0.0
H222 H 0.47949 0.63251 0.63536 0.0
C223 C 0.61096 0.62682 0.70262 0.0
C224 C 0.56096 0.60821 0.7147 0.0
H225 H 0.65052 0.66615 0.65966 0.0
H226 H 0.64653 0.62791 0.72215 0.0
C227 C 0.51504 0.60798 0.68926 0.0
C228 C 0.56261 0.40213 0.66606 0.0
C229 C 0.52107 0.42451 0.64098 0.0
H230 H 0.59846 0.40032 0.72223 0.0
C231 C 0.48595 0.46622 0.65377 0.0
H232 H 0.58954 0.36935 0.65789 0.0
C233 C 0.49084 0.48371 0.69144 0.0
C234 C 0.53089 0.45973 0.71655 0.0
H235 H 0.45362 0.48439 0.63517 0.0
H236 H 0.46116 0.51396 0.70161 0.0
C237 C 0.56749 0.41959 0.70322 0.0
C238 C 0.29906 0.48248 0.91803 0.0
C239 C 0.30831 0.4538 0.95089 0.0
H240 H 0.33768 0.5125 0.86896 0.0
C241 C 0.36489 0.43746 0.96167 0.0
H242 H 0.25576 0.49503 0.90886 0.0
C243 C 0.4113 0.44779 0.93915 0.0
C244 C 0.40205 0.47483 0.90555 0.0
H245 H 0.37316 0.4156 -0.013 0.0
H246 H 0.45454 0.43368 0.94752 0.0
C247 C 0.34571 0.49254 0.89528 0.0
C248 C 0.68476 0.66297 0.95934 0.0
C249 C 0.74186 0.64574 0.94897 0.0
H250 H 0.59557 0.66466 0.94583 0.0
C251 C 0.75238 0.61366 0.91761 0.0
H252 H 0.67543 0.68744 -0.01647 0.0
C253 C 0.70669 0.60085 0.89596 0.0
C254 C 0.64985 0.61923 0.90575 0.0
H255 H 0.79601 0.60036 0.90861 0.0
H256 H 0.71594 0.57809 0.87074 0.0
C257 C 0.63919 0.64992 0.93785 0.0
C258 C 0.79762 0.43453 0.88565 0.0
C259 C 0.8022 0.4515 0.92347 0.0
H260 H 0.74358 0.43099 0.83681 0.0
C261 C 0.75636 0.48234 0.94005 0.0
H262 H 0.83272 0.4112 0.87211 0.0
C263 C 0.70527 0.49356 0.9198 0.0
C264 C 0.70016 0.47484 0.88261 0.0
H265 H 0.75894 0.49564 0.96928 0.0
H266 H 0.66902 0.51502 0.93377 0.0
C267 C 0.74693 0.44597 0.86545 0.0
C268 C 0.26069 0.6627 0.86947 0.0
C269 C 0.25099 0.64828 0.90734 0.0
H270 H 0.32028 0.66085 0.82205 0.0
C271 C 0.29396 0.61775 0.92588 0.0
H272 H 0.22798 0.68587 0.85446 0.0
C273 C 0.34682 0.60368 0.90739 0.0
C274 C 0.35685 0.61908 0.86989 0.0
H275 H 0.28769 0.60656 0.95524 0.0
H276 H 0.38056 0.5823 0.92292 0.0
C277 C 0.31324 0.6483 0.85094 0.0
C278 C 0.85911 0.94368 0.46678 0.0
C279 C 0.80262 0.95757 0.45455 0.0
H280 H 0.949 0.94381 0.45487 0.0
C281 C 0.7935 0.98696 0.42209 0.0
H282 H 0.86727 0.92136 0.49187 0.0
C283 C 0.8403 0.99959 0.40082 0.0
C284 C 0.89671 0.98375 0.41214 0.0
H285 H 0.75037 0.99764 0.41173 0.0
H286 H 0.83243 1.01929 0.37437 0.0
C287 C 0.90573 0.95659 0.44572 0.0
C288 C 0.24586 0.10998 0.42644 0.0
C289 C 0.23514 0.14137 0.45826 0.0
H290 H 0.20959 0.0747 0.37942 0.0
C291 C 0.17799 0.1558 0.47019 0.0
H292 H 0.28943 0.09883 0.41617 0.0
C293 C 0.13244 0.14159 0.44927 0.0
C294 C 0.14324 0.11254 0.41621 0.0
H295 H 0.1685 0.17965 0.49475 0.0
H296 H 0.08869 0.15493 0.45803 0.0
C297 C 0.20024 0.09602 0.40542 0.0
C298 C 0.28662 0.91994 0.37514 0.0
C299 C 0.29601 0.93647 0.41254 0.0
H300 H 0.22811 0.92039 0.32826 0.0
C301 C 0.25309 0.96846 0.431 0.0
H302 H 0.31927 0.89565 0.36014 0.0
C303 C 0.20092 0.98244 0.41278 0.0
C304 C 0.19143 0.96539 0.37563 0.0
H305 H 0.25898 0.98123 0.46004 0.0
H306 H 0.16734 1.00527 0.42823 0.0
C307 C 0.2347 0.9342 0.35689 0.0
C308 C 0.77744 0.13041 0.41307 0.0
C309 C 0.73874 0.1598 0.39018 0.0
H310 H 0.86334 0.09472 0.4186 0.0
C311 C 0.75647 0.17272 0.35337 0.0
H312 H 0.76527 0.1206 0.44185 0.0
C313 C 0.81233 0.15759 0.3401 0.0
C314 C 0.85119 0.12906 0.36331 0.0
H315 H 0.72737 0.19501 0.33503 0.0
H316 H 0.8254 0.16867 0.31186 0.0
C317 C 0.83339 0.11545 0.3998 0.0
loop_
_geom_bond_atom_site_label_1
_geom_bond_atom_site_label_2
_geom_bond_distance
_geom_bond_site_symmetry_2
_ccdc_geom_bond_type
C0 C1 1.386 . S
C0 C2 1.397 . S
C0 H24 0.931 . S
C1 C0 1.386 . S
C1 C5 1.397 . S
C2 C0 1.397 . S
C2 C3 1.384 . S
C2 H25 0.930 . S
C3 C2 1.384 . S
C3 C4 1.377 . S
C3 C6 1.481 1_556 S
C4 C3 1.377 . S
C4 C5 1.389 . S
C4 H26 0.929 . S
C5 C1 1.397 . S
C5 C4 1.389 . S
C5 H27 0.931 . S
C6 C3 1.481 1_554 S
C6 C7 1.387 . S
C6 C11 1.390 1_554 S
C7 C6 1.387 . S
C7 C8 1.401 . S
C7 H28 0.930 . S
C8 C7 1.401 . S
C8 C9 1.376 . S
C8 C17 1.511 . S
C9 C8 1.376 . S
C9 C10 1.398 . S
C9 H30 0.931 . S
C10 C9 1.398 . S
C10 C11 1.359 1_554 S
C10 C12 1.496 1_554 S
C11 C6 1.390 1_556 S
C11 C10 1.359 1_556 S
C11 H29 0.931 . S
C12 C10 1.496 1_556 S
C12 C13 1.371 1_455 S
C12 C14 1.365 . S
C13 C12 1.371 1_655 S
C13 C23 1.386 . S
C13 H31 0.931 . S
C14 C12 1.365 . S
C14 C15 1.409 1_455 S
C14 H32 0.929 . S
C15 C14 1.409 1_655 S
C15 C16 1.380 . S
C15 H33 0.930 . S
C16 C15 1.380 . S
C16 C23 1.357 . S
C17 C8 1.511 . S
C17 C18 1.341 . S
C17 C19 1.371 . S
C18 C17 1.341 . S
C18 C22 1.394 . S
C18 H34 0.930 . S
C19 C17 1.371 . S
C19 C20 1.392 . S
C19 H35 0.931 . S
C20 C19 1.392 . S
C20 C21 1.331 . S
C20 H38 0.932 . S
C21 C20 1.331 . S
C21 C22 1.336 . S
C22 C18 1.394 . S
C22 C21 1.336 . S
C22 H37 0.929 . S
C23 C13 1.386 . S
C23 C16 1.357 . S
C23 H36 0.928 . S
H24 C0 0.931 . S
H25 C2 0.930 . S
H26 C4 0.929 . S
H27 C5 0.931 . S
H28 C7 0.930 . S
H29 C11 0.931 . S
H30 C9 0.931 . S
H31 C13 0.931 . S
H32 C14 0.929 . S
H33 C15 0.930 . S
H34 C18 0.930 . S
H35 C19 0.931 . S
H36 C23 0.928 . S
H37 C22 0.929 . S
H38 C20 0.932 . S
C39 C40 1.386 . S
C39 C41 1.397 . S
C39 H63 0.931 . S
C40 C39 1.386 . S
C40 C44 1.397 . S
C41 C39 1.397 . S
C41 C42 1.384 . S
C41 H64 0.930 . S
C42 C41 1.384 . S
C42 C43 1.377 . S
C42 C45 1.481 1_556 S
C43 C42 1.377 . S
C43 C44 1.389 . S
C43 H65 0.929 . S
C44 C40 1.397 . S
C44 C43 1.389 . S
C44 H66 0.931 . S
C45 C42 1.481 1_554 S
C45 C46 1.387 . S
C45 C50 1.390 1_654 S
C46 C45 1.387 . S
C46 C47 1.401 1_655 S
C46 H67 0.930 . S
C47 C46 1.401 1_455 S
C47 C48 1.376 . S
C47 C56 1.511 . S
C48 C47 1.376 . S
C48 C49 1.392 . S
C48 H69 0.931 . S
C49 C48 1.392 . S
C49 C50 1.361 1_554 S
C49 C51 1.500 1_554 S
C50 C45 1.390 1_456 S
C50 C49 1.361 1_556 S
C50 H68 0.931 . S
C51 C49 1.500 1_556 S
C51 C52 1.371 . S
C51 C53 1.365 . S
C52 C51 1.371 . S
C52 C62 1.386 . S
C52 H70 0.931 . S
C53 C51 1.365 . S
C53 C54 1.409 . S
C53 H71 0.929 . S
C54 C53 1.409 . S
C54 C55 1.380 . S
C54 H72 0.930 . S
C55 C54 1.380 . S
C55 C62 1.357 . S
C56 C47 1.511 . S
C56 C57 1.341 1_455 S
C56 C58 1.371 . S
C57 C56 1.341 1_655 S
C57 C61 1.394 . S
C57 H73 0.930 . S
C58 C56 1.371 . S
C58 C59 1.392 . S
C58 H74 0.931 . S
C59 C58 1.392 . S
C59 C60 1.331 1_455 S
C59 H77 0.932 . S
C60 C59 1.331 1_655 S
C60 C61 1.336 . S
C61 C57 1.394 . S
C61 C60 1.336 . S
C61 H76 0.929 . S
C62 C52 1.386 . S
C62 C55 1.357 . S
C62 H75 0.928 . S
H63 C39 0.931 . S
H64 C41 0.930 . S
H65 C43 0.929 . S
H66 C44 0.931 . S
H67 C46 0.930 . S
H68 C50 0.931 . S
H69 C48 0.931 . S
H70 C52 0.931 . S
H71 C53 0.929 . S
H72 C54 0.930 . S
H73 C57 0.930 . S
H74 C58 0.931 . S
H75 C62 0.928 . S
H76 C61 0.929 . S
H77 C59 0.932 . S
C78 C79 1.386 . S
C78 C80 1.397 . S
C78 H102 0.931 . S
C79 C78 1.386 . S
C79 C83 1.397 . S
C80 C78 1.397 . S
C80 C81 1.384 . S
C80 H103 0.930 . S
C81 C80 1.384 . S
C81 C82 1.377 . S
C81 C84 1.481 . S
C82 C81 1.377 . S
C82 C83 1.389 . S
C82 H104 0.929 . S
C83 C79 1.397 . S
C83 C82 1.389 . S
C83 H105 0.931 . S
C84 C81 1.481 . S
C84 C85 1.387 . S
C84 C89 1.390 . S
C85 C84 1.387 . S
C85 C86 1.401 . S
C85 H106 0.930 . S
C86 C85 1.401 . S
C86 C87 1.376 . S
C86 C95 1.511 . S
C87 C86 1.376 . S
C87 C88 1.392 . S
C87 H108 0.931 . S
C88 C87 1.392 . S
C88 C89 1.361 . S
C88 C90 1.500 . S
C89 C84 1.390 . S
C89 C88 1.361 . S
C89 H107 0.931 . S
C90 C88 1.500 . S
C90 C91 1.371 . S
C90 C92 1.365 . S
C91 C90 1.371 . S
C91 C101 1.386 . S
C91 H109 0.931 . S
C92 C90 1.365 . S
C92 C93 1.409 . S
C92 H110 0.929 . S
C93 C92 1.409 . S
C93 C94 1.380 . S
C93 H111 0.930 . S
C94 C93 1.380 . S
C94 C101 1.357 . S
C95 C86 1.511 . S
C95 C96 1.341 . S
C95 C97 1.371 . S
C96 C95 1.341 . S
C96 C100 1.394 . S
C96 H112 0.930 . S
C97 C95 1.371 . S
C97 C98 1.392 . S
C97 H113 0.931 . S
C98 C97 1.392 . S
C98 C99 1.331 . S
C98 H116 0.932 . S
C99 C98 1.331 . S
C99 C100 1.336 . S
C100 C96 1.394 . S
C100 C99 1.336 . S
C100 H115 0.929 . S
C101 C91 1.386 . S
C101 C94 1.357 . S
C101 H114 0.928 . S
H102 C78 0.931 . S
H103 C80 0.930 . S
H104 C82 0.929 . S
H105 C83 0.931 . S
H106 C85 0.930 . S
H107 C89 0.931 . S
H108 C87 0.931 . S
H109 C91 0.931 . S
H110 C92 0.929 . S
H111 C93 0.930 . S
H112 C96 0.930 . S
H113 C97 0.931 . S
H114 C101 0.928 . S
H115 C100 0.929 . S
H116 C98 0.932 . S
C117 C118 1.386 . S
C117 C119 1.397 . S
C117 H141 0.931 . S
C118 C117 1.386 . S
C118 C122 1.397 . S
C119 C117 1.397 . S
C119 C120 1.384 . S
C119 H142 0.930 . S
C120 C119 1.384 . S
C120 C121 1.377 . S
C120 C123 1.481 . S
C121 C120 1.377 . S
C121 C122 1.389 . S
C121 H143 0.929 . S
C122 C118 1.397 . S
C122 C121 1.389 . S
C122 H144 0.931 . S
C123 C120 1.481 . S
C123 C124 1.387 . S
C123 C128 1.390 . S
C124 C123 1.387 . S
C124 C125 1.401 . S
C124 H145 0.930 . S
C125 C124 1.401 . S
C125 C126 1.376 . S
C125 C134 1.511 . S
C126 C125 1.376 . S
C126 C127 1.392 . S
C126 H147 0.931 . S
C127 C126 1.392 . S
C127 C128 1.361 . S
C127 C129 1.500 . S
C128 C123 1.390 . S
C128 C127 1.361 . S
C128 H146 0.931 . S
C129 C127 1.500 . S
C129 C130 1.371 . S
C129 C131 1.365 . S
C130 C129 1.371 . S
C130 C140 1.386 . S
C130 H148 0.931 . S
C131 C129 1.365 . S
C131 C132 1.409 . S
C131 H149 0.929 . S
C132 C131 1.409 . S
C132 C133 1.380 . S
C132 H150 0.930 . S
C133 C132 1.380 . S
C133 C140 1.357 . S
C134 C125 1.511 . S
C134 C135 1.341 . S
C134 C136 1.371 . S
C135 C134 1.341 . S
C135 C139 1.394 . S
C135 H151 0.930 . S
C136 C134 1.371 . S
C136 C137 1.392 . S
C136 H152 0.931 . S
C137 C136 1.392 . S
C137 C138 1.331 . S
C137 H155 0.932 . S
C138 C137 1.331 . S
C138 C139 1.336 . S
C139 C135 1.394 . S
C139 C138 1.336 . S
C139 H154 0.929 . S
C140 C130 1.386 . S
C140 C133 1.357 . S
C140 H153 0.928 . S
H141 C117 0.931 . S
H142 C119 0.930 . S
H143 C121 0.929 . S
H144 C122 0.931 . S
H145 C124 0.930 . S
H146 C128 0.931 . S
H147 C126 0.931 . S
H148 C130 0.931 . S
H149 C131 0.929 . S
H150 C132 0.930 . S
H151 C135 0.930 . S
H152 C136 0.931 . S
H153 C140 0.928 . S
H154 C139 0.929 . S
H155 C137 0.932 . S
Zn156 O162 1.920 . S
Zn156 O168 1.898 . S
Zn156 O171 1.905 1_455 S
Zn157 O165 1.905 . S
Zn157 O166 1.898 . S
Zn157 O174 1.920 . S
Zn158 O161 2.080 . S
Zn158 O164 2.114 1_545 S
Zn158 O167 2.120 1_545 S
Zn158 O169 2.120 . S
Zn158 O170 2.114 1_455 S
Zn158 O173 2.080 1_545 S
C159 O164 1.166 . S
C159 O165 1.182 . S
C160 O166 1.167 . S
C160 O167 1.299 . S
O161 Zn158 2.080 . S
O161 C175 1.305 . S
O162 Zn156 1.920 . S
O162 C175 1.234 . S
C163 O168 1.167 . S
C163 O169 1.299 . S
O164 Zn158 2.114 1_565 S
O164 C159 1.166 . S
O165 Zn157 1.905 . S
O165 C159 1.182 . S
O166 Zn157 1.898 . S
O166 C160 1.167 . S
O167 Zn158 2.120 1_565 S
O167 C160 1.299 . S
O168 Zn156 1.898 . S
O168 C163 1.167 . S
O169 Zn158 2.120 . S
O169 C163 1.299 . S
O170 Zn158 2.114 1_655 S
O170 C172 1.166 . S
O171 Zn156 1.905 1_655 S
O171 C172 1.182 . S
C172 O170 1.166 . S
C172 O171 1.182 . S
O173 Zn158 2.080 1_565 S
O173 C176 1.305 . S
O174 Zn157 1.920 . S
O174 C176 1.234 . S
C175 O161 1.305 . S
C175 O162 1.234 . S
C176 O173 1.305 . S
C176 O174 1.234 . S
Zn177 O183 1.920 . S
Zn177 O189 1.898 . S
Zn177 O192 1.905 . S
Zn178 O186 1.905 . S
Zn178 O187 1.898 . S
Zn178 O195 1.920 . S
Zn179 O182 2.080 . S
Zn179 O185 2.114 . S
Zn179 O188 2.120 . S
Zn179 O190 2.120 . S
Zn179 O191 2.114 . S
Zn179 O194 2.080 . S
C180 O185 1.166 . S
C180 O186 1.182 . S
C181 O187 1.167 . S
C181 O188 1.299 . S
O182 Zn179 2.080 . S
O182 C196 1.305 . S
O183 Zn177 1.920 . S
O183 C196 1.234 . S
C184 O189 1.167 . S
C184 O190 1.299 . S
O185 Zn179 2.114 . S
O185 C180 1.166 . S
O186 Zn178 1.905 . S
O186 C180 1.182 . S
O187 Zn178 1.898 . S
O187 C181 1.167 . S
O188 Zn179 2.120 . S
O188 C181 1.299 . S
O189 Zn177 1.898 . S
O189 C184 1.167 . S
O190 Zn179 2.120 . S
O190 C184 1.299 . S
O191 Zn179 2.114 . S
O191 C193 1.166 . S
O192 Zn177 1.905 . S
O192 C193 1.182 . S
C193 O191 1.166 . S
C193 O192 1.182 . S
O194 Zn179 2.080 . S
O194 C197 1.305 . S
O195 Zn178 1.920 . S
O195 C197 1.234 . S
C196 O182 1.305 . S
C196 O183 1.234 . S
C197 O194 1.305 . S
C197 O195 1.234 . S
C198 C199 1.387 . S
C198 H202 0.950 . S
C198 C207 1.390 . S
C199 C198 1.387 . S
C199 C201 1.387 . S
H200 C207 0.950 . S
C201 C199 1.387 . S
C201 C203 1.390 . S
C201 H205 0.950 . S
H202 C198 0.950 . S
C203 C201 1.390 . S
C203 C204 1.387 . S
C203 H206 0.950 . S
C204 C203 1.387 . S
C204 C207 1.387 . S
H205 C201 0.950 . S
H206 C203 0.950 . S
C207 C198 1.390 . S
C207 H200 0.950 . S
C207 C204 1.387 . S
C208 C209 1.387 1_655 S
C208 H212 0.950 . S
C208 C217 1.390 1_655 S
C209 C208 1.387 1_455 S
C209 C211 1.387 . S
H210 C217 0.950 . S
C211 C209 1.387 . S
C211 C213 1.390 . S
C211 H215 0.950 . S
H212 C208 0.950 . S
C213 C211 1.390 . S
C213 C214 1.387 . S
C213 H216 0.950 . S
C214 C213 1.387 . S
C214 C217 1.387 . S
H215 C211 0.950 . S
H216 C213 0.950 . S
C217 C208 1.390 1_455 S
C217 H210 0.950 . S
C217 C214 1.387 . S
C218 C219 1.387 . S
C218 H222 0.950 . S
C218 C227 1.390 . S
C219 C218 1.387 . S
C219 C221 1.387 . S
H220 C227 0.950 . S
C221 C219 1.387 . S
C221 C223 1.390 . S
C221 H225 0.950 . S
H222 C218 0.950 . S
C223 C221 1.390 . S
C223 C224 1.387 . S
C223 H226 0.950 . S
C224 C223 1.387 . S
C224 C227 1.387 . S
H225 C221 0.950 . S
H226 C223 0.950 . S
C227 C218 1.390 . S
C227 H220 0.950 . S
C227 C224 1.387 . S
C228 C229 1.387 . S
C228 H232 0.950 . S
C228 C237 1.390 . S
C229 C228 1.387 . S
C229 C231 1.387 . S
H230 C237 0.950 . S
C231 C229 1.387 . S
C231 C233 1.390 . S
C231 H235 0.950 . S
H232 C228 0.950 . S
C233 C231 1.390 . S
C233 C234 1.387 . S
C233 H236 0.950 . S
C234 C233 1.387 . S
C234 C237 1.387 . S
H235 C231 0.950 . S
H236 C233 0.950 . S
C237 C228 1.390 . S
C237 H230 0.950 . S
C237 C234 1.387 . S
C238 C239 1.387 . S
C238 H242 0.950 . S
C238 C247 1.390 . S
C239 C238 1.387 . S
C239 C241 1.387 . S
H240 C247 0.950 . S
C241 C239 1.387 . S
C241 C243 1.390 . S
C241 H245 0.950 1_556 S
H242 C238 0.950 . S
C243 C241 1.390 . S
C243 C244 1.387 . S
C243 H246 0.950 . S
C244 C243 1.387 . S
C244 C247 1.387 . S
H245 C241 0.950 1_554 S
H246 C243 0.950 . S
C247 C238 1.390 . S
C247 H240 0.950 . S
C247 C244 1.387 . S
C248 C249 1.387 . S
C248 H252 0.950 1_556 S
C248 C257 1.390 . S
C249 C248 1.387 . S
C249 C251 1.387 . S
H250 C257 0.950 . S
C251 C249 1.387 . S
C251 C253 1.390 . S
C251 H255 0.950 . S
H252 C248 0.950 1_554 S
C253 C251 1.390 . S
C253 C254 1.387 . S
C253 H256 0.950 . S
C254 C253 1.387 . S
C254 C257 1.387 . S
H255 C251 0.950 . S
H256 C253 0.950 . S
C257 C248 1.390 . S
C257 H250 0.950 . S
C257 C254 1.387 . S
C258 C259 1.387 . S
C258 H262 0.950 . S
C258 C267 1.390 . S
C259 C258 1.387 . S
C259 C261 1.387 . S
H260 C267 0.950 . S
C261 C259 1.387 . S
C261 C263 1.390 . S
C261 H265 0.950 . S
H262 C258 0.950 . S
C263 C261 1.390 . S
C263 C264 1.387 . S
C263 H266 0.950 . S
C264 C263 1.387 . S
C264 C267 1.387 . S
H265 C261 0.950 . S
H266 C263 0.950 . S
C267 C258 1.390 . S
C267 H260 0.950 . S
C267 C264 1.387 . S
C268 C269 1.387 . S
C268 H272 0.950 . S
C268 C277 1.390 . S
C269 C268 1.387 . S
C269 C271 1.387 . S
H270 C277 0.950 . S
C271 C269 1.387 . S
C271 C273 1.390 . S
C271 H275 0.950 . S
H272 C268 0.950 . S
C273 C271 1.390 . S
C273 C274 1.387 . S
C273 H276 0.950 . S
C274 C273 1.387 . S
C274 C277 1.387 . S
H275 C271 0.950 . S
H276 C273 0.950 . S
C277 C268 1.390 . S
C277 H270 0.950 . S
C277 C274 1.387 . S
C278 C279 1.387 . S
C278 H282 0.950 . S
C278 C287 1.390 . S
C279 C278 1.387 . S
C279 C281 1.387 . S
H280 C287 0.950 . S
C281 C279 1.387 . S
C281 C283 1.390 . S
C281 H285 0.950 . S
H282 C278 0.950 . S
C283 C281 1.390 . S
C283 C284 1.387 . S
C283 H286 0.950 . S
C284 C283 1.387 . S
C284 C287 1.387 . S
H285 C281 0.950 . S
H286 C283 0.950 . S
C287 C278 1.390 . S
C287 H280 0.950 . S
C287 C284 1.387 . S
C288 C289 1.387 . S
C288 H292 0.950 . S
C288 C297 1.390 . S
C289 C288 1.387 . S
C289 C291 1.387 . S
H290 C297 0.950 . S
C291 C289 1.387 . S
C291 C293 1.390 . S
C291 H295 0.950 . S
H292 C288 0.950 . S
C293 C291 1.390 . S
C293 C294 1.387 . S
C293 H296 0.950 . S
C294 C293 1.387 . S
C294 C297 1.387 . S
H295 C291 0.950 . S
H296 C293 0.950 . S
C297 C288 1.390 . S
C297 H290 0.950 . S
C297 C294 1.387 . S
C298 C299 1.387 . S
C298 H302 0.950 . S
C298 C307 1.390 . S
C299 C298 1.387 . S
C299 C301 1.387 . S
H300 C307 0.950 . S
C301 C299 1.387 . S
C301 C303 1.390 . S
C301 H305 0.950 . S
H302 C298 0.950 . S
C303 C301 1.390 . S
C303 C304 1.387 . S
C303 H306 0.950 . S
C304 C303 1.387 . S
C304 C307 1.387 . S
H305 C301 0.950 . S
H306 C303 0.950 . S
C307 C298 1.390 . S
C307 H300 0.950 . S
C307 C304 1.387 . S
C308 C309 1.387 . S
C308 H312 0.950 . S
C308 C317 1.390 . S
C309 C308 1.387 . S
C309 C311 1.387 . S
H310 C317 0.950 . S
C311 C309 1.387 . S
C311 C313 1.390 . S
C311 H315 0.950 . S
H312 C308 0.950 . S
C313 C311 1.390 . S
C313 C314 1.387 . S
C313 H316 0.950 . S
C314 C313 1.387 . S
C314 C317 1.387 . S
H315 C311 0.950 . S
H316 C313 0.950 . S
C317 C308 1.390 . S
C317 H310 0.950 . S
C317 C314 1.387 . S
C204 C163 1.501 . S
C199 C21 1.555 . S
C214 C159 1.509 . S
C209 C60 1.554 1_455 S
C224 C184 1.503 . S
C219 C99 1.553 . S
C229 C138 1.554 . S
C234 C180 1.510 . S
C239 C1 1.370 . S
C244 C181 1.153 . S
C254 C196 1.171 . S
C249 C40 1.385 . S
C259 C16 1.679 . S
C264 C197 1.516 . S
C274 C193 1.534 . S
C269 C55 1.687 . S
C284 C160 1.148 1_655 S
C279 C79 1.368 . S
C289 C118 1.388 . S
C294 C175 1.177 . S
C304 C176 1.516 . S
C299 C94 1.679 . S
C314 C172 1.538 . S
C309 C133 1.688 . S
