# Generated by pormake.
# Topology nom, (4,4)-cn, num edge types: 1
# Building blocks:
#     Node 0, Type 0, BuildingBlock: GIZVER_clean_linker_0, # of connection points: 4
#     Node 1, Type 0, BuildingBlock: GIZVER_clean_linker_0, # of connection points: 4
#     Node 2, Type 0, BuildingBlock: GIZVER_clean_linker_0, # of connection points: 4
#     Node 3, Type 0, BuildingBlock: GIZVER_clean_linker_0, # of connection points: 4
#     Node 4, Type 0, BuildingBlock: GIZVER_clean_linker_0, # of connection points: 4
#     Node 5, Type 0, BuildingBlock: GIZVER_clean_linker_0, # of connection points: 4
#     Node 6, Type 1, BuildingBlock: TATPOV_clean_sbu_0, # of connection points: 4
#     Node 7, Type 1, BuildingBlock: TATPOV_clean_sbu_0, # of connection points: 4
#     Node 8, Type 1, BuildingBlock: TATPOV_clean_sbu_0, # of connection points: 4
#     Node 9, Type 1, BuildingBlock: TATPOV_clean_sbu_0, # of connection points: 4
#     Node 10, Type 1, BuildingBlock: TATPOV_clean_sbu_0, # of connection points: 4
#     Node 11, Type 1, BuildingBlock: TATPOV_clean_sbu_0, # of connection points: 4
#     Edge 12, Type (0, 1), BuildingBlock: KIFKEQ_clean_linker_1, # of connection points: 2
#     Edge 13, Type (0, 1), BuildingBlock: KIFKEQ_clean_linker_1, # of connection points: 2
#     Edge 14, Type (0, 1), BuildingBlock: KIFKEQ_clean_linker_1, # of connection points: 2
#     Edge 15, Type (0, 1), BuildingBlock: KIFKEQ_clean_linker_1, # of connection points: 2
#     Edge 16, Type (0, 1), BuildingBlock: KIFKEQ_clean_linker_1, # of connection points: 2
#     Edge 17, Type (0, 1), BuildingBlock: KIFKEQ_clean_linker_1, # of connection points: 2
#     Edge 18, Type (0, 1), BuildingBlock: KIFKEQ_clean_linker_1, # of connection points: 2
#     Edge 19, Type (0, 1), BuildingBlock: KIFKEQ_clean_linker_1, # of connection points: 2
#     Edge 20, Type (0, 1), BuildingBlock: KIFKEQ_clean_linker_1, # of connection points: 2
#     Edge 21, Type (0, 1), BuildingBlock: KIFKEQ_clean_linker_1, # of connection points: 2
#     Edge 22, Type (0, 1), BuildingBlock: KIFKEQ_clean_linker_1, # of connection points: 2
#     Edge 23, Type (0, 1), BuildingBlock: KIFKEQ_clean_linker_1, # of connection points: 2
#     Edge 24, Type (0, 1), BuildingBlock: KIFKEQ_clean_linker_1, # of connection points: 2
#     Edge 25, Type (0, 1), BuildingBlock: KIFKEQ_clean_linker_1, # of connection points: 2
#     Edge 26, Type (0, 1), BuildingBlock: KIFKEQ_clean_linker_1, # of connection points: 2
#     Edge 27, Type (0, 1), BuildingBlock: KIFKEQ_clean_linker_1, # of connection points: 2
#     Edge 28, Type (0, 1), BuildingBlock: KIFKEQ_clean_linker_1, # of connection points: 2
#     Edge 29, Type (0, 1), BuildingBlock: KIFKEQ_clean_linker_1, # of connection points: 2
#     Edge 30, Type (0, 1), BuildingBlock: KIFKEQ_clean_linker_1, # of connection points: 2
#     Edge 31, Type (0, 1), BuildingBlock: KIFKEQ_clean_linker_1, # of connection points: 2
#     Edge 32, Type (0, 1), BuildingBlock: KIFKEQ_clean_linker_1, # of connection points: 2
#     Edge 33, Type (0, 1), BuildingBlock: KIFKEQ_clean_linker_1, # of connection points: 2
#     Edge 34, Type (0, 1), BuildingBlock: KIFKEQ_clean_linker_1, # of connection points: 2
#     Edge 35, Type (0, 1), BuildingBlock: KIFKEQ_clean_linker_1, # of connection points: 2
# Relax obj value: 0.020
# Max RMSD: 0.119
# Mean RMSD: 0.091
data_MOF--net-nom--node1-TATPOV_clean_sbu_0--node2-GIZVER_clean_linker_0--edge1-KIFKEQ_clean_linker_1
_symmetry_space_group_name_H-M    P1
_symmetry_Int_Tables_number       1
_symmetry_cell_setting            triclinic
loop_
_symmetry_equiv_pos_as_xyz
'x, y, z'
_cell_length_a     45.47735
_cell_length_b     45.982503
_cell_length_c     48.914017
_cell_angle_alpha  90.655401
_cell_angle_beta   90.990898
_cell_angle_gamma 120.00331
loop_
_atom_site_label
_atom_site_type_symbol
_atom_site_fract_x
_atom_site_fract_y
_atom_site_fract_z
_atom_type_partial_charge
H0 H 1.00262 0.54844 0.32597 0.0
H1 H 1.00805 0.52372 0.24221 0.0
H2 H 0.92509 0.45433 0.29073 0.0
H3 H 0.03655 0.5919 0.29402 0.0
H4 H 0.03661 0.58174 0.2588 0.0
H5 H 0.06884 0.57588 0.3283 0.0
H6 H 0.16591 0.59836 0.29821 0.0
H7 H 0.08512 0.58219 0.24193 0.0
C8 C 0.99287 0.53031 0.30909 0.0
C9 C 0.96198 0.50006 0.31159 0.0
C10 C 1.00975 0.53866 0.28416 0.0
C11 C 0.9961 0.51605 0.26183 0.0
C12 C 0.96535 0.48557 0.26391 0.0
C13 C 0.94928 0.47728 0.28921 0.0
C14 C 0.03854 0.57385 0.27988 0.0
C15 C 0.07276 0.57675 0.28458 0.0
C16 C 0.08499 0.5784 0.31141 0.0
C17 C 0.11869 0.58627 0.31651 0.0
C18 C 0.13973 0.59148 0.29423 0.0
C19 C 0.12843 0.59115 0.26722 0.0
C20 C 0.09436 0.58251 0.26256 0.0
H21 H 0.45526 1.01143 0.47931 0.0
H22 H 0.49329 1.01981 0.39839 0.0
H23 H 0.47686 0.9366 0.44812 0.0
H24 H 0.45454 0.05168 0.44804 0.0
H25 H 0.4645 0.05059 0.41294 0.0
H26 H 0.50853 0.07291 0.48234 0.0
H27 H 0.59021 0.16729 0.45593 0.0
H28 H 0.51033 0.10249 0.39908 0.0
C29 C 0.46516 1.00238 0.46339 0.0
C30 C 0.46531 0.97214 0.46679 0.0
C31 C 0.47636 1.02022 0.43899 0.0
C32 C 0.487 1.00714 0.41776 0.0
C33 C 0.4867 0.97659 0.42062 0.0
C34 C 0.47739 0.96025 0.44573 0.0
C35 C 0.47358 0.05123 0.43433 0.0
C36 C 0.50722 0.08295 0.43965 0.0
C37 C 0.52171 0.09028 0.46619 0.0
C38 C 0.55149 0.12083 0.47237 0.0
C39 C 0.56734 0.14356 0.45132 0.0
C40 C 0.55238 0.13759 0.42503 0.0
C41 C 0.52237 0.10704 0.4192 0.0
H42 H 0.42581 0.50162 0.58354 0.0
H43 H 0.4542 0.48423 0.66351 0.0
H44 H 0.4409 0.56931 0.65016 0.0
H45 H 0.42544 0.45037 0.59121 0.0
H46 H 0.41672 0.4365 0.6255 0.0
H47 H 0.48481 0.47663 0.57452 0.0
H48 H 0.54797 0.44452 0.61444 0.0
H49 H 0.4588 0.43234 0.65391 0.0
C50 C 0.43338 0.50956 0.60468 0.0
C51 C 0.43446 0.53884 0.61466 0.0
C52 C 0.44095 0.48994 0.62225 0.0
C53 C 0.44926 0.4998 0.64992 0.0
C54 C 0.44943 0.5285 0.66035 0.0
C55 C 0.44261 0.54808 0.64232 0.0
C56 C 0.43597 0.45642 0.61254 0.0
C57 C 0.46852 0.45514 0.61425 0.0
C58 C 0.49066 0.46624 0.59221 0.0
C59 C 0.51969 0.46296 0.59255 0.0
C60 C 0.52665 0.44884 0.6152 0.0
C61 C 0.50512 0.43773 0.63761 0.0
C62 C 0.47604 0.44118 0.63703 0.0
H63 H 0.95979 0.4251 0.73524 0.0
H64 H 0.99168 0.43873 0.82034 0.0
H65 H 0.89318 0.42297 0.79722 0.0
H66 H 1.01126 0.42573 0.74798 0.0
H67 H 1.01652 0.41757 0.78268 0.0
H68 H 0.04386 0.48201 0.73033 0.0
H69 H 0.12872 0.5548 0.77936 0.0
H70 H 0.05308 0.46386 0.81547 0.0
C71 C 0.95532 0.42795 0.75654 0.0
C72 C 0.92393 0.42421 0.76396 0.0
C73 C 0.98048 0.43429 0.77682 0.0
C74 C 0.97332 0.43575 0.80455 0.0
C75 C 0.94164 0.43113 0.81199 0.0
C76 C 0.91771 0.4265 0.79154 0.0
C77 C 1.013 0.43511 0.76936 0.0
C78 C 0.04386 0.46983 0.77288 0.0
C79 C 0.05677 0.49058 0.7501 0.0
C80 C 0.08779 0.52093 0.75229 0.0
C81 C 0.1046 0.53152 0.77781 0.0
C82 C 0.09246 0.51125 0.80072 0.0
C83 C 0.06197 0.4803 0.79815 0.0
H84 H 0.65729 0.0631 -0.01368 0.0
H85 H 0.61988 0.04304 0.90256 0.0
H86 H 0.64242 0.13561 0.94312 0.0
H87 H 0.65351 1.01524 0.96111 0.0
H88 H 0.64573 1.01169 0.92488 0.0
H89 H 0.59857 1.0032 -0.0099 0.0
H90 H 0.51228 0.90952 0.96363 0.0
H91 H 0.59649 0.96054 0.9105 0.0
C92 C 0.64895 0.07031 0.96804 0.0
C93 C 0.65046 0.10159 0.96749 0.0
C94 C 0.63695 0.04855 0.94479 0.0
C95 C 0.62773 0.05903 0.92079 0.0
C96 C 0.63042 0.09079 0.91991 0.0
C97 C 0.64064 0.1112 0.9436 0.0
C98 C 0.63625 1.01528 0.94473 0.0
C99 C 0.60087 0.98623 0.9492 0.0
C100 C 0.58535 0.98397 -0.02567 0.0
C101 C 0.55322 0.95655 -0.02056 0.0
C102 C 0.53652 0.93143 0.95925 0.0
C103 C 0.5519 0.93246 0.93449 0.0
C104 C 0.58421 0.95994 0.92944 0.0
H105 H 0.64151 0.58803 0.09304 0.0
H106 H 0.62352 0.59942 0.17747 0.0
H107 H 0.62811 0.51258 0.1505 0.0
H108 H 0.65091 0.64128 0.10974 0.0
H109 H 0.65502 0.64906 0.14579 0.0
H110 H 0.593 0.6155 0.08658 0.0
H111 H 0.52443 0.64147 0.1245 0.0
H112 H 0.61161 0.6536 0.16988 0.0
C113 C 0.63552 0.578 0.11342 0.0
C114 C 0.63394 0.54729 0.11901 0.0
C115 C 0.63131 0.59673 0.1344 0.0
C116 C 0.62534 0.5844 0.16106 0.0
C117 C 0.62387 0.55388 0.16694 0.0
C118 C 0.6273 0.53513 0.1457 0.0
C119 C 0.63771 0.63174 0.12934 0.0
C120 C 0.60512 0.63291 0.12868 0.0
C121 C 0.58511 0.62377 0.10443 0.0
C122 C 0.55637 0.62754 0.10266 0.0
C123 C 0.54665 0.63855 0.12579 0.0
C124 C 0.56635 0.64805 0.14999 0.0
C125 C 0.59575 0.64535 0.15143 0.0
Zn126 Zn 0.71939 0.50849 0.39859 0.0
Zn127 Zn 0.68059 0.44193 0.38882 0.0
O128 O 0.72986 0.45066 0.39085 0.0
O129 O 0.76163 0.5048 0.40012 0.0
O130 O 0.65229 0.39124 0.38467 0.0
O131 O 0.69481 0.50591 0.43267 0.0
O132 O 0.66153 0.45189 0.42365 0.0
C133 C 0.75899 0.47641 0.39565 0.0
C134 C 0.67931 0.49042 0.34777 0.0
O135 O 0.66961 0.46027 0.3544 0.0
O136 O 0.70024 0.51481 0.36299 0.0
C137 C 0.66072 0.374 0.36959 0.0
O138 O 0.68831 0.38955 0.35519 0.0
C139 C 0.66951 0.47794 0.43849 0.0
Zn140 Zn 0.22973 0.71262 0.55261 0.0
Zn141 Zn 0.27057 0.68514 0.5508 0.0
O142 O 0.30449 0.73623 0.55099 0.0
O143 O 0.2718 0.75881 0.55379 0.0
O144 O 0.29983 0.66337 0.55079 0.0
O145 O 0.20896 0.68839 0.58716 0.0
O146 O 0.24101 0.66511 0.5846 0.0
C147 C 0.30112 0.76213 0.55233 0.0
C148 C 0.21896 0.67073 0.50446 0.0
O149 O 0.24308 0.66777 0.51504 0.0
O150 O 0.20854 0.68837 0.5164 0.0
C151 C 0.32395 0.67217 0.56829 0.0
O152 O 0.33023 0.69632 0.58612 0.0
C153 C 0.21791 0.66829 0.59635 0.0
Zn154 Zn 0.54564 0.20276 0.71461 0.0
Zn155 Zn 0.61276 0.24978 0.71221 0.0
O156 O 0.58983 0.27892 0.71377 0.0
O157 O 0.53538 0.24075 0.7135 0.0
O158 O 0.66333 0.28225 0.70978 0.0
O159 O 0.55461 0.18644 0.75011 0.0
O160 O 0.60921 0.22242 0.7462 0.0
C161 C 0.5587 0.27128 0.71351 0.0
C162 C 0.57729 0.19595 0.66666 0.0
O163 O 0.60282 0.2224 0.67665 0.0
O164 O 0.54959 0.18195 0.67923 0.0
C165 C 0.67936 0.30958 0.7236 0.0
O166 O 0.66252 0.31816 0.74032 0.0
C167 C 0.58499 0.19852 0.75876 0.0
Zn168 Zn 0.35539 0.55342 0.89669 0.0
Zn169 Zn 0.38701 0.61986 0.88748 0.0
O170 O 0.33544 0.60512 0.8873 0.0
O171 O 0.31082 0.5521 0.89913 0.0
O172 O 0.41271 0.67052 0.88249 0.0
O173 O 0.38425 0.56079 0.93031 0.0
O174 O 0.40866 0.6151 0.9233 0.0
C175 C 0.30869 0.57765 0.89298 0.0
C176 C 0.39164 0.57197 0.84627 0.0
O177 O 0.40051 0.60173 0.85441 0.0
O178 O 0.37149 0.54697 0.86009 0.0
C179 C 0.40465 0.68984 0.89499 0.0
O180 O 0.37806 0.6765 0.91065 0.0
C181 C 0.40583 0.59068 0.93737 0.0
Zn182 Zn 0.83601 0.46988 0.03854 0.0
Zn183 Zn 0.79406 0.40283 0.03931 0.0
O184 O 0.76102 0.42181 0.04164 0.0
O185 O 0.79554 0.47644 0.03874 0.0
O186 O 0.76363 0.35198 0.03712 0.0
O187 O 0.85548 0.46716 0.00316 0.0
O188 O 0.82212 0.41228 0.00414 0.0
C189 C 0.76582 0.45163 0.04065 0.0
C190 C 0.84801 0.43816 0.08468 0.0
O191 O 0.82296 0.41152 0.07439 0.0
O192 O 0.85821 0.46612 0.07334 0.0
C193 C 0.77471 0.33261 0.04437 0.0
O194 O 0.80598 0.34591 0.05419 0.0
C195 C 0.84518 0.43833 -0.00737 0.0
Zn196 Zn 0.38728 0.84217 0.1958 0.0
Zn197 Zn 0.41913 0.80612 0.19789 0.0
O198 O 0.36809 0.77016 0.19717 0.0
O199 O 0.342 0.79958 0.19707 0.0
O200 O 0.44197 0.77793 0.1981 0.0
O201 O 0.40855 0.86145 0.16014 0.0
O202 O 0.43711 0.83451 0.16328 0.0
C203 C 0.3407 0.77143 0.1972 0.0
C204 C 0.43247 0.85851 0.24268 0.0
O205 O 0.43643 0.83474 0.23338 0.0
O206 O 0.41306 0.86661 0.23025 0.0
C207 C 0.47032 0.78639 0.21004 0.0
O208 O 0.48675 0.81545 0.22323 0.0
C209 C 0.43051 0.85496 0.15092 0.0
H210 H 0.12961 0.63103 0.22533 0.0
H211 H 0.18606 0.58667 0.25941 0.0
H212 H 0.17826 0.66856 0.19918 0.0
H213 H 0.23597 0.62683 0.23554 0.0
H214 H 0.32588 0.70569 0.19255 0.0
H215 H 0.27112 0.65514 0.19944 0.0
H216 H 0.22605 0.7172 0.21425 0.0
H217 H 0.2797 0.76684 0.2061 0.0
C218 C 0.15204 0.62858 0.22686 0.0
C219 C 0.15407 0.60642 0.24539 0.0
C220 C 0.18037 0.65076 0.21219 0.0
C221 C 0.21171 0.65202 0.2162 0.0
C222 C 0.21255 0.62713 0.2321 0.0
C223 C 0.1839 0.60428 0.2462 0.0
C224 C 0.30404 0.70834 0.19685 0.0
C225 C 0.30726 0.74033 0.19899 0.0
C226 C 0.27264 0.67936 0.2009 0.0
C227 C 0.2439 0.68181 0.20748 0.0
C228 C 0.24713 0.71389 0.20862 0.0
C229 C 0.27823 0.74264 0.20425 0.0
H230 H 0.61798 0.17765 0.40981 0.0
H231 H 0.51695 0.16254 0.39834 0.0
H232 H 0.64174 0.23301 0.38983 0.0
H233 H 0.54061 0.21776 0.37783 0.0
H234 H 0.60101 0.33399 0.39502 0.0
H235 H 0.57257 0.27343 0.40035 0.0
H236 H 0.64795 0.26877 0.35092 0.0
H237 H 0.67673 0.32961 0.34579 0.0
C238 C 0.60081 0.18576 0.40213 0.0
C239 C 0.56566 0.16591 0.40582 0.0
C240 C 0.61439 0.21746 0.39061 0.0
C241 C 0.5931 0.23006 0.38264 0.0
C242 C 0.55771 0.20898 0.38418 0.0
C243 C 0.54412 0.17717 0.39559 0.0
C244 C 0.61132 0.32006 0.38497 0.0
C245 C 0.64137 0.33675 0.37022 0.0
C246 C 0.59481 0.28522 0.38782 0.0
C247 C 0.60799 0.26621 0.37608 0.0
C248 C 0.6373 0.28272 0.3604 0.0
C249 C 0.65373 0.31759 0.35742 0.0
H250 H 0.4689 0.60587 0.60538 0.0
H251 H 0.37357 0.51548 0.58765 0.0
H252 H 0.44508 0.6397 0.58853 0.0
H253 H 0.34916 0.54918 0.57151 0.0
H254 H 0.31626 0.61949 0.53586 0.0
H255 H 0.3465 0.58822 0.54016 0.0
H256 H 0.40534 0.65267 0.60858 0.0
H257 H 0.37586 0.68419 0.6039 0.0
C258 C 0.44307 0.59327 0.59719 0.0
C259 C 0.42302 0.55814 0.59785 0.0
C260 C 0.42926 0.6126 0.58783 0.0
C261 C 0.39494 0.59724 0.57924 0.0
C262 C 0.3757 0.5619 0.57787 0.0
C263 C 0.38967 0.54252 0.58703 0.0
C264 C 0.33592 0.62717 0.55163 0.0
C265 C 0.34353 0.65429 0.56962 0.0
C266 C 0.35316 0.60916 0.55415 0.0
C267 C 0.37845 0.6179 0.57467 0.0
C268 C 0.3865 0.64553 0.59219 0.0
C269 C 0.36933 0.66349 0.58967 0.0
H270 H 0.89294 0.4591 0.74866 0.0
H271 H 0.88813 0.36367 0.73795 0.0
H272 H 0.83438 0.43439 0.73147 0.0
H273 H 0.82922 0.33837 0.72173 0.0
H274 H 0.72205 0.29943 0.69095 0.0
H275 H 0.78405 0.33126 0.69135 0.0
H276 H 0.78343 0.39784 0.75414 0.0
H277 H 0.72178 0.36672 0.75318 0.0
C278 C 0.8797 0.43313 0.74152 0.0
C279 C 0.89498 0.41329 0.74441 0.0
C280 C 0.84597 0.41877 0.73214 0.0
C281 C 0.82668 0.38414 0.7259 0.0
C282 C 0.84319 0.36511 0.72624 0.0
C283 C 0.87708 0.37961 0.73537 0.0
C284 C 0.73518 0.32114 0.70459 0.0
C285 C 0.7169 0.33036 0.7222 0.0
C286 C 0.77076 0.33934 0.70487 0.0
C287 C 0.78892 0.36718 0.72277 0.0
C288 C 0.77047 0.37697 0.73969 0.0
C289 C 0.73498 0.35887 0.73935 0.0
H290 H 0.57418 0.88932 0.92089 0.0
H291 H 0.48991 0.90638 0.90927 0.0
H292 H 0.5384 0.83097 0.90516 0.0
H293 H 0.45423 0.84844 0.89282 0.0
H294 H 0.39253 0.73739 0.91726 0.0
H295 H 0.42964 0.79791 0.91876 0.0
H296 H 0.5031 0.78755 0.87107 0.0
H297 H 0.46592 0.72649 0.86994 0.0
C298 C 0.54846 0.88098 0.91369 0.0
C299 C 0.53478 0.90228 0.91623 0.0
C300 C 0.52783 0.84747 0.90481 0.0
C301 C 0.49315 0.83473 0.89829 0.0
C302 C 0.48056 0.85715 0.89831 0.0
C303 C 0.50109 0.89047 0.90733 0.0
C304 C 0.41641 0.74793 0.90683 0.0
C305 C 0.42625 0.72696 0.89362 0.0
C306 C 0.43766 0.78279 0.90747 0.0
C307 C 0.46942 0.79778 0.89492 0.0
C308 C 0.47894 0.77688 0.88109 0.0
C309 C 0.45755 0.74188 0.88036 0.0
H310 H 0.60386 0.48021 0.10545 0.0
H311 H 0.69017 0.57675 0.08805 0.0
H312 H 0.62877 0.45237 0.07965 0.0
H313 H 0.71564 0.54939 0.06329 0.0
H314 H 0.75749 0.49911 0.01512 0.0
H315 H 0.71819 0.5185 0.02662 0.0
H316 H 0.67316 0.44089 0.08674 0.0
H317 H 0.7113 0.4204 0.07381 0.0
C318 C 0.62788 0.49547 0.09566 0.0
C319 C 0.64507 0.53066 0.09877 0.0
C320 C 0.64233 0.47954 0.08108 0.0
C321 C 0.6745 0.49846 0.06955 0.0
C322 C 0.69062 0.53378 0.07138 0.0
C323 C 0.67601 0.54964 0.08566 0.0
C324 C 0.73853 0.48569 0.03028 0.0
C325 C 0.73758 0.45846 0.04377 0.0
C326 C 0.71618 0.49699 0.03709 0.0
C327 C 0.69294 0.48192 0.05816 0.0
C328 C 0.69047 0.45311 0.0703 0.0
C329 C 0.7124 0.44133 0.06298 0.0
H330 H 0.48677 0.93751 0.49898 0.0
H331 H 0.40248 0.9542 0.48496 0.0
H332 H 0.45145 0.89005 0.5278 0.0
H333 H 0.36698 0.90657 0.51289 0.0
H334 H 0.30632 0.82223 0.56626 0.0
H335 H 0.35106 0.8781 0.5543 0.0
H336 H 0.40689 0.83471 0.51811 0.0
H337 H 0.36284 0.77912 0.53121 0.0
C338 C 0.4609 0.93147 0.5026 0.0
C339 C 0.44733 0.94946 0.48961 0.0
C340 C 0.44055 0.90411 0.5189 0.0
C341 C 0.40609 0.89395 0.52236 0.0
C342 C 0.39342 0.91367 0.51104 0.0
C343 C 0.41383 0.94116 0.49497 0.0
C344 C 0.32852 0.82474 0.55625 0.0
C345 C 0.33083 0.7962 0.54934 0.0
C346 C 0.35411 0.85679 0.54924 0.0
C347 C 0.38241 0.86105 0.53475 0.0
C348 C 0.38571 0.83263 0.52946 0.0
C349 C 0.36031 0.8006 0.53684 0.0
H350 H 0.56652 0.45098 0.65984 0.0
H351 H 0.45874 0.38219 0.66527 0.0
H352 H 0.57822 0.41236 0.68415 0.0
H353 H 0.47032 0.3451 0.69252 0.0
H354 H 0.49935 0.26342 0.69293 0.0
H355 H 0.48544 0.30632 0.68249 0.0
H356 H 0.5817 0.38185 0.71874 0.0
H357 H 0.59655 0.3385 0.72726 0.0
C358 C 0.54521 0.42791 0.66686 0.0
C359 C 0.51167 0.41916 0.65952 0.0
C360 C 0.55196 0.4058 0.68132 0.0
C361 C 0.52527 0.3747 0.6897 0.0
C362 C 0.49167 0.36801 0.6854 0.0
C363 C 0.48493 0.38973 0.67019 0.0
C364 C 0.51744 0.28915 0.69895 0.0
C365 C 0.54922 0.2976 0.71064 0.0
C366 C 0.50929 0.31397 0.69321 0.0
C367 C 0.53236 0.34802 0.69959 0.0
C368 C 0.56348 0.35617 0.71281 0.0
C369 C 0.57201 0.3313 0.71791 0.0
H370 H 0.12631 0.57222 0.82764 0.0
H371 H 0.11164 0.47198 0.82817 0.0
H372 H 0.17612 0.59185 0.85808 0.0
H373 H 0.16132 0.49141 0.85828 0.0
H374 H 0.24966 0.52932 0.91431 0.0
H375 H 0.19209 0.51479 0.90068 0.0
H376 H 0.2323 0.60113 0.84882 0.0
H377 H 0.28994 0.61612 0.86304 0.0
C378 C 0.13318 0.55419 0.83494 0.0
C379 C 0.11528 0.52062 0.82531 0.0
C380 C 0.16185 0.56548 0.85218 0.0
C381 C 0.17318 0.54341 0.86023 0.0
C382 C 0.1533 0.50915 0.85268 0.0
C383 C 0.12463 0.49788 0.83545 0.0
C384 C 0.2462 0.54566 0.90048 0.0
C385 C 0.27439 0.57359 0.88939 0.0
C386 C 0.21316 0.53722 0.89258 0.0
C387 C 0.20748 0.55636 0.87325 0.0
C388 C 0.23564 0.58587 0.86387 0.0
C389 C 0.26877 0.59447 0.87195 0.0
H390 H 0.7161 0.13411 -0.01415 0.0
H391 H 0.6195 0.12791 -0.00223 0.0
H392 H 0.74478 0.18829 0.01022 0.0
H393 H 0.64775 0.18153 0.02304 0.0
H394 H 0.71239 0.29711 0.01851 0.0
H395 H 0.68074 0.2373 0.00737 0.0
H396 H 0.75743 0.2242 0.04962 0.0
H397 H 0.78963 0.28436 0.06008 0.0
C398 C 0.70091 0.14362 -0.00508 0.0
C399 C 0.66566 0.12687 -0.00992 0.0
C400 C 0.7173 0.17481 0.00878 0.0
C401 C 0.69867 0.18975 0.01814 0.0
C402 C 0.66301 0.17125 0.01552 0.0
C403 C 0.64672 0.14027 0.00147 0.0
C404 C 0.72235 0.28145 0.02569 0.0
C405 C 0.75372 0.29565 0.03997 0.0
C406 C 0.70402 0.24698 0.0195 0.0
C407 C 0.71646 0.22571 0.02757 0.0
C408 C 0.74726 0.23979 0.04275 0.0
C409 C 0.76568 0.27432 0.04884 0.0
H410 H 0.50839 0.62197 0.17878 0.0
H411 H 0.60357 0.71301 0.16756 0.0
H412 H 0.4857 0.65423 0.20082 0.0
H413 H 0.58078 0.74564 0.18879 0.0
H414 H 0.53137 0.79738 0.23137 0.0
H415 H 0.55674 0.76174 0.22602 0.0
H416 H 0.46818 0.68977 0.17883 0.0
H417 H 0.44272 0.72482 0.1846 0.0
C418 C 0.52485 0.64878 0.18205 0.0
C419 C 0.55768 0.66507 0.17155 0.0
C420 C 0.51175 0.66735 0.19427 0.0
C421 C 0.53109 0.70263 0.1959 0.0
C422 C 0.56517 0.71853 0.18793 0.0
C423 C 0.57837 0.69985 0.17589 0.0
C424 C 0.51719 0.77377 0.2201 0.0
C425 C 0.48509 0.76408 0.20825 0.0
C426 C 0.53178 0.75338 0.21701 0.0
C427 C 0.51451 0.7228 0.20209 0.0
C428 C 0.48201 0.71279 0.19092 0.0
C429 C 0.46749 0.73312 0.19398 0.0
H430 H 0.95099 0.5473 0.33576 0.0
H431 H 0.92013 0.44197 0.33874 0.0
H432 H 0.90447 0.53787 0.36433 0.0
H433 H 0.87288 0.43238 0.36765 0.0
H434 H 0.76687 0.42825 0.36892 0.0
H435 H 0.82033 0.43169 0.3571 0.0
H436 H 0.87527 0.52286 0.40625 0.0
H437 H 0.82188 0.52005 0.41716 0.0
C438 C 0.93512 0.5223 0.34342 0.0
C439 C 0.93924 0.49535 0.33469 0.0
C440 C 0.90818 0.51682 0.35987 0.0
C441 C 0.88457 0.48425 0.36808 0.0
C442 C 0.89024 0.45768 0.36126 0.0
C443 C 0.91736 0.46319 0.34477 0.0
C444 C 0.79032 0.44859 0.37769 0.0
C445 C 0.79025 0.47428 0.39344 0.0
C446 C 0.82103 0.45048 0.37106 0.0
C447 C 0.85221 0.47793 0.38032 0.0
C448 C 0.85179 0.50185 0.39821 0.0
C449 C 0.82118 0.50019 0.40453 0.0
H450 H 0.18207 0.63587 0.33361 0.0
H451 H 0.08834 0.55484 0.36411 0.0
H452 H 0.20532 0.65055 0.37987 0.0
H453 H 0.11147 0.57132 0.41094 0.0
H454 H 0.15653 0.65503 0.48382 0.0
H455 H 0.13122 0.62914 0.43925 0.0
H456 H 0.22007 0.62224 0.421 0.0
H457 H 0.24529 0.64761 0.46577 0.0
C458 C 0.16658 0.62059 0.35002 0.0
C459 C 0.13334 0.59374 0.34491 0.0
C460 C 0.17995 0.6293 0.3766 0.0
C461 C 0.16021 0.61195 0.39882 0.0
C462 C 0.1271 0.58504 0.39401 0.0
C463 C 0.11388 0.57579 0.36725 0.0
C464 C 0.17054 0.64773 0.47039 0.0
C465 C 0.20301 0.6536 0.47814 0.0
C466 C 0.15591 0.63265 0.44506 0.0
C467 C 0.17374 0.62372 0.42688 0.0
C468 C 0.20589 0.62894 0.43478 0.0
C469 C 0.22027 0.64345 0.46032 0.0
H470 H 0.57619 0.1831 0.49601 0.0
H471 H 0.55201 0.08182 0.51459 0.0
H472 H 0.58914 0.19912 0.54382 0.0
H473 H 0.56373 0.09797 0.56316 0.0
H474 H 0.53147 0.13566 0.64275 0.0
H475 H 0.53206 0.11581 0.59644 0.0
H476 H 0.62854 0.20508 0.58358 0.0
H477 H 0.62811 0.22511 0.62992 0.0
C478 C 0.57455 0.16439 0.5101 0.0
C479 C 0.56317 0.13111 0.50127 0.0
C480 C 0.58187 0.17365 0.53763 0.0
C481 C 0.57749 0.1498 0.55713 0.0
C482 C 0.56716 0.11677 0.54844 0.0
C483 C 0.56031 0.10755 0.52071 0.0
C484 C 0.55305 0.15086 0.6302 0.0
C485 C 0.57948 0.18221 0.63983 0.0
C486 C 0.55353 0.1393 0.6038 0.0
C487 C 0.58028 0.159 0.58648 0.0
C488 C 0.60753 0.18954 0.59654 0.0
C489 C 0.60723 0.20097 0.62303 0.0
H490 H 0.47816 0.58992 0.68722 0.0
H491 H 0.42523 0.48323 0.70189 0.0
H492 H 0.46764 0.60061 0.73358 0.0
H493 H 0.41827 0.49421 0.74907 0.0
H494 H 0.361 0.51692 0.81273 0.0
H495 H 0.38142 0.50697 0.77024 0.0
H496 H 0.47384 0.6031 0.78051 0.0
H497 H 0.45193 0.61381 0.82234 0.0
C498 C 0.46495 0.56874 0.70048 0.0
C499 C 0.45156 0.53562 0.69035 0.0
C500 C 0.45937 0.57495 0.72736 0.0
C501 C 0.44112 0.5482 0.74504 0.0
C502 C 0.4312 0.51539 0.73579 0.0
C503 C 0.43591 0.50912 0.70871 0.0
C504 C 0.3857 0.5359 0.80588 0.0
C505 C 0.40479 0.5662 0.82068 0.0
C506 C 0.39772 0.53005 0.78163 0.0
C507 C 0.4296 0.55403 0.77186 0.0
C508 C 0.44899 0.5842 0.78707 0.0
C509 C 0.43652 0.59037 0.81108 0.0
H510 H 0.97772 0.47344 0.85511 0.0
H511 H 0.88337 0.38318 0.83404 0.0
H512 H 0.95728 0.47298 0.90121 0.0
H513 H 0.86241 0.3834 0.87929 0.0
H514 H 0.83848 0.38118 0.96834 0.0
H515 H 0.86634 0.3772 0.92737 0.0
H516 H 0.91539 0.48488 0.91914 0.0
H517 H 0.88852 0.48895 0.96027 0.0
C518 C 0.95285 0.45332 0.86048 0.0
C519 C 0.93187 0.42874 0.84094 0.0
C520 C 0.94098 0.45319 0.88672 0.0
C521 C 0.90799 0.42842 0.8938 0.0
C522 C 0.88796 0.40274 0.87466 0.0
C523 C 0.89983 0.40284 0.8486 0.0
C524 C 0.85524 0.40396 0.95776 0.0
C525 C 0.86112 0.43533 0.96747 0.0
C526 C 0.87124 0.40171 0.93431 0.0
C527 C 0.89324 0.43076 0.92003 0.0
C528 C 0.89921 0.46209 0.92992 0.0
C529 C 0.88343 0.46435 0.95338 0.0
H530 H 0.48859 0.94008 -0.00864 0.0
H531 H 0.5836 0.9595 0.02869 0.0
H532 H 0.46014 0.91831 0.03431 0.0
H533 H 0.55531 0.93838 0.07203 0.0
H534 H 0.48185 0.85048 0.12627 0.0
H535 H 0.51389 0.8812 0.08673 0.0
H536 H 0.45516 0.93136 0.08178 0.0
H537 H 0.42275 0.90035 0.12081 0.0
C538 C 0.50351 0.9405 0.00903 0.0
C539 C 0.53819 0.95128 0.00675 0.0
C540 C 0.48728 0.92812 0.03364 0.0
C541 C 0.50543 0.92622 0.05644 0.0
C542 C 0.5406 0.93904 0.05464 0.0
C543 C 0.55688 0.95158 0.03 0.0
C544 C 0.47573 0.86799 0.1167 0.0
C545 C 0.44959 0.87276 0.12658 0.0
C546 C 0.49434 0.88588 0.09425 0.0
C547 C 0.48714 0.90883 0.08126 0.0
C548 C 0.46112 0.91367 0.09124 0.0
C549 C 0.44256 0.89585 0.11362 0.0
H550 H 0.66504 0.59388 0.20845 0.0
H551 H 0.58628 0.49201 0.18958 0.0
H552 H 0.67431 0.57702 0.25303 0.0
H553 H 0.59465 0.475 0.23493 0.0
H554 H 0.65358 0.45135 0.3011 0.0
H555 H 0.63519 0.46591 0.25874 0.0
H556 H 0.65396 0.55931 0.29665 0.0
H557 H 0.67391 0.54551 0.33815 0.0
C558 C 0.6489 0.56803 0.21424 0.0
C559 C 0.62484 0.54429 0.19561 0.0
C560 C 0.65421 0.55827 0.23987 0.0
C561 C 0.63529 0.52455 0.24768 0.0
C562 C 0.6101 0.50104 0.22945 0.0
C563 C 0.60506 0.51079 0.20359 0.0
C564 C 0.6536 0.4749 0.30029 0.0
C565 C 0.66572 0.49755 0.32271 0.0
C566 C 0.64281 0.48317 0.27611 0.0
C567 C 0.6434 0.51401 0.2741 0.0
C568 C 0.654 0.53579 0.29712 0.0
C569 C 0.66535 0.52783 0.32099 0.0
H570 H 0.52936 1.00394 0.37722 0.0
H571 H 0.45115 0.90921 0.40804 0.0
H572 H 0.52559 0.97608 0.33333 0.0
H573 H 0.44891 0.88169 0.36506 0.0
H574 H 0.45661 0.83722 0.28512 0.0
H575 H 0.4805 0.8667 0.3291 0.0
H576 H 0.47315 0.95142 0.30056 0.0
H577 H 0.44904 0.92208 0.2571 0.0
C578 C 0.512 0.97718 0.37496 0.0
C579 C 0.49034 0.95905 0.39622 0.0
C580 C 0.51008 0.96124 0.34993 0.0
C581 C 0.48692 0.9268 0.34588 0.0
C582 C 0.46736 0.90817 0.36776 0.0
C583 C 0.46881 0.92411 0.39255 0.0
C584 C 0.46066 0.86235 0.28817 0.0
C585 C 0.45048 0.87717 0.26795 0.0
C586 C 0.47436 0.87918 0.31323 0.0
C587 C 0.47874 0.91133 0.31811 0.0
C588 C 0.47048 0.92686 0.29722 0.0
C589 C 0.45627 0.90987 0.27248 0.0
H590 H 0.58863 0.49917 0.59185 0.0
H591 H 0.49972 0.44339 0.53937 0.0
H592 H 0.62484 0.50332 0.5542 0.0
H593 H 0.53604 0.44819 0.50131 0.0
H594 H 0.60917 0.42446 0.45417 0.0
H595 H 0.57245 0.42391 0.49029 0.0
H596 H 0.64402 0.52814 0.50979 0.0
H597 H 0.68091 0.52861 0.47427 0.0
C598 C 0.57694 0.48842 0.57204 0.0
C599 C 0.54144 0.47092 0.56847 0.0
C600 C 0.59763 0.49084 0.55047 0.0
C601 C 0.58325 0.47577 0.52487 0.0
C602 C 0.54778 0.45959 0.52095 0.0
C603 C 0.52704 0.45728 0.54256 0.0
C604 C 0.61717 0.44716 0.46631 0.0
C605 C 0.64803 0.47652 0.46139 0.0
C606 C 0.59596 0.44696 0.48678 0.0
C607 C 0.60526 0.47606 0.50274 0.0
C608 C 0.63626 0.50525 0.49798 0.0
C609 C 0.65739 0.50549 0.47757 0.0
H610 H 0.15342 0.54394 0.73934 0.0
H611 H 0.06169 0.54053 0.70982 0.0
H612 H 0.18443 0.57906 0.70161 0.0
H613 H 0.09266 0.57498 0.67104 0.0
H614 H 0.1695 0.67056 0.62717 0.0
H615 H 0.13666 0.63294 0.66331 0.0
H616 H 0.19043 0.57838 0.65305 0.0
H617 H 0.2239 0.6165 0.61733 0.0
C618 C 0.13985 0.55067 0.72465 0.0
C619 C 0.10525 0.54001 0.72777 0.0
C620 C 0.15756 0.57048 0.70281 0.0
C621 C 0.14109 0.57996 0.68335 0.0
C622 C 0.10618 0.56848 0.68595 0.0
C623 C 0.08836 0.54854 0.70794 0.0
C624 C 0.17449 0.65066 0.63272 0.0
C625 C 0.19949 0.64666 0.61944 0.0
C626 C 0.15537 0.62887 0.65324 0.0
C627 C 0.16075 0.60253 0.66096 0.0
C628 C 0.18588 0.59863 0.64778 0.0
C629 C 0.20509 0.6205 0.6273 0.0
H630 H 0.57835 0.05942 0.88167 0.0
H631 H 0.67074 0.15291 0.89995 0.0
H632 H 0.56805 0.08447 0.84131 0.0
H633 H 0.65976 0.17831 0.86087 0.0
H634 H 0.64661 0.20779 0.77599 0.0
H635 H 0.65812 0.17912 0.81256 0.0
H636 H 0.55149 0.12558 0.83137 0.0
H637 H 0.53983 0.15339 0.79416 0.0
C638 C 0.5965 0.08519 0.87696 0.0
C639 C 0.62505 0.10434 0.89414 0.0
C640 C 0.59045 0.09968 0.85408 0.0
C641 C 0.61293 0.13353 0.84798 0.0
C642 C 0.64205 0.15215 0.86472 0.0
C643 C 0.64813 0.13769 0.88737 0.0
C644 C 0.62565 0.19004 0.78802 0.0
C645 C 0.59234 0.18299 0.78224 0.0
C646 C 0.63223 0.17358 0.80901 0.0
C647 C 0.6057 0.14995 0.82489 0.0
C648 C 0.57242 0.14313 0.81923 0.0
C649 C 0.5658 0.15938 0.79808 0.0
H650 H 0.53756 0.66998 0.08094 0.0
H651 H 0.53384 0.57562 0.06494 0.0
H652 H 0.50245 0.66124 0.04035 0.0
H653 H 0.49958 0.56738 0.02326 0.0
H654 H 0.40285 0.54511 -0.02588 0.0
H655 H 0.442 0.55459 0.01218 0.0
H656 H 0.50142 0.65923 -0.00853 0.0
H657 H 0.46169 0.64996 0.95381 0.0
C658 C 0.52934 0.64739 0.06857 0.0
C659 C 0.53787 0.62314 0.07634 0.0
C660 C 0.50957 0.6426 0.04509 0.0
C661 C 0.49805 0.61354 0.02862 0.0
C662 C 0.50765 0.5898 0.03579 0.0
C663 C 0.52749 0.59461 0.05945 0.0
C664 C 0.42421 0.57019 -0.02228 0.0
C665 C 0.42902 0.59685 0.96104 0.0
C666 C 0.44686 0.57552 -0.00062 0.0
C667 C 0.47493 0.60761 0.00479 0.0
C668 C 0.47982 0.63426 -0.01197 0.0
C669 C 0.45705 0.62897 0.96645 0.0
H670 H 0.99176 0.4725 0.21819 0.0
H671 H 0.8972 0.45566 0.25174 0.0
H672 H 0.96335 0.45274 0.17338 0.0
H673 H 0.86905 0.43477 0.20762 0.0
H674 H 0.8239 0.39036 0.12413 0.0
H675 H 0.85236 0.39183 0.16763 0.0
H676 H 0.94066 0.48426 0.14469 0.0
H677 H 0.91237 0.48309 0.10171 0.0
C678 C 0.96485 0.46383 0.21626 0.0
C679 C 0.947 0.46612 0.23862 0.0
C680 C 0.9486 0.45236 0.19067 0.0
C681 C 0.9141 0.44244 0.18709 0.0
C682 C 0.89557 0.44187 0.20988 0.0
C683 C 0.91185 0.4538 0.23531 0.0
C684 C 0.84955 0.41069 0.1283 0.0
C685 C 0.86575 0.43687 0.10977 0.0
C686 C 0.8658 0.41148 0.15309 0.0
C687 C 0.89873 0.43806 0.15939 0.0
C688 C 0.91548 0.46323 0.1402 0.0
C689 C 0.89909 0.46276 0.11574 0.0
loop_
_geom_bond_atom_site_label_1
_geom_bond_atom_site_label_2
_geom_bond_distance
_geom_bond_site_symmetry_2
_ccdc_geom_bond_type
H0 C8 0.930 . S
H1 C11 0.930 . S
H2 C13 0.930 . S
H3 C14 0.971 1_655 S
H4 C14 0.970 . S
H5 C16 0.930 . S
H6 C18 0.930 . S
H7 C20 0.930 . S
C8 H0 0.930 . S
C8 C9 1.382 . S
C8 C10 1.426 . S
C9 C8 1.382 . S
C9 C13 1.389 . S
C10 C8 1.426 . S
C10 C11 1.375 . S
C10 C14 1.532 1_655 S
C11 H1 0.930 . S
C11 C10 1.375 . S
C11 C12 1.416 . S
C12 C11 1.416 . S
C12 C13 1.371 . S
C13 H2 0.930 . S
C13 C9 1.389 . S
C13 C12 1.371 . S
C14 H3 0.971 1_455 S
C14 H4 0.970 . S
C14 C10 1.532 1_455 S
C14 C15 1.499 . S
C15 C14 1.499 . S
C15 C16 1.370 . S
C15 C20 1.415 . S
C16 H5 0.930 . S
C16 C15 1.370 . S
C16 C17 1.407 . S
C17 C16 1.407 . S
C17 C18 1.365 . S
C18 H6 0.930 . S
C18 C17 1.365 . S
C18 C19 1.393 . S
C19 C18 1.393 . S
C19 C20 1.387 . S
C20 H7 0.930 . S
C20 C15 1.415 . S
C20 C19 1.387 . S
H21 C29 0.930 . S
H22 C32 0.930 . S
H23 C34 0.930 . S
H24 C35 0.970 . S
H25 C35 0.970 . S
H26 C37 0.930 . S
H27 C39 0.930 . S
H28 C41 0.930 . S
C29 H21 0.930 . S
C29 C30 1.382 . S
C29 C31 1.426 . S
C30 C29 1.382 . S
C30 C34 1.389 . S
C31 C29 1.426 . S
C31 C32 1.375 . S
C31 C35 1.532 1_565 S
C32 H22 0.930 . S
C32 C31 1.375 . S
C32 C33 1.416 . S
C33 C32 1.416 . S
C33 C34 1.371 . S
C34 H23 0.930 . S
C34 C30 1.389 . S
C34 C33 1.371 . S
C35 H24 0.970 . S
C35 H25 0.970 . S
C35 C31 1.532 1_545 S
C35 C36 1.499 . S
C36 C35 1.499 . S
C36 C37 1.370 . S
C36 C41 1.415 . S
C37 H26 0.930 . S
C37 C36 1.370 . S
C37 C38 1.407 . S
C38 C37 1.407 . S
C38 C39 1.365 . S
C39 H27 0.930 . S
C39 C38 1.365 . S
C39 C40 1.393 . S
C40 C39 1.393 . S
C40 C41 1.387 . S
C41 H28 0.930 . S
C41 C36 1.415 . S
C41 C40 1.387 . S
H42 C50 0.930 . S
H43 C53 0.930 . S
H44 C55 0.930 . S
H45 C56 0.970 . S
H46 C56 0.970 . S
H47 C58 0.930 . S
H48 C60 0.930 . S
H49 C62 0.930 . S
C50 H42 0.930 . S
C50 C51 1.382 . S
C50 C52 1.426 . S
C51 C50 1.382 . S
C51 C55 1.389 . S
C52 C50 1.426 . S
C52 C53 1.375 . S
C52 C56 1.532 . S
C53 H43 0.930 . S
C53 C52 1.375 . S
C53 C54 1.416 . S
C54 C53 1.416 . S
C54 C55 1.371 . S
C55 H44 0.930 . S
C55 C51 1.389 . S
C55 C54 1.371 . S
C56 H45 0.970 . S
C56 H46 0.970 . S
C56 C52 1.532 . S
C56 C57 1.499 . S
C57 C56 1.499 . S
C57 C58 1.370 . S
C57 C62 1.415 . S
C58 H47 0.930 . S
C58 C57 1.370 . S
C58 C59 1.407 . S
C59 C58 1.407 . S
C59 C60 1.365 . S
C60 H48 0.930 . S
C60 C59 1.365 . S
C60 C61 1.393 . S
C61 C60 1.393 . S
C61 C62 1.387 . S
C62 H49 0.930 . S
C62 C57 1.415 . S
C62 C61 1.387 . S
H63 C71 0.930 . S
H64 C74 0.930 . S
H65 C76 0.930 . S
H66 C77 0.970 . S
H67 C77 0.970 . S
H68 C79 0.930 . S
H69 C81 0.930 . S
H70 C83 0.930 . S
C71 H63 0.930 . S
C71 C72 1.382 . S
C71 C73 1.426 . S
C72 C71 1.382 . S
C72 C76 1.389 . S
C73 C71 1.426 . S
C73 C74 1.375 . S
C73 C77 1.532 1_655 S
C74 H64 0.930 . S
C74 C73 1.375 . S
C74 C75 1.416 . S
C75 C74 1.416 . S
C75 C76 1.371 . S
C76 H65 0.930 . S
C76 C72 1.389 . S
C76 C75 1.371 . S
C77 H66 0.970 . S
C77 H67 0.970 . S
C77 C73 1.532 1_455 S
C77 C78 1.499 . S
C78 C77 1.499 . S
C78 C79 1.370 . S
C78 C83 1.415 . S
C79 H68 0.930 . S
C79 C78 1.370 . S
C79 C80 1.407 . S
C80 C79 1.407 . S
C80 C81 1.365 . S
C81 H69 0.930 . S
C81 C80 1.365 . S
C81 C82 1.393 . S
C82 C81 1.393 . S
C82 C83 1.387 . S
C83 H70 0.930 . S
C83 C78 1.415 . S
C83 C82 1.387 . S
H84 C92 0.930 . S
H85 C95 0.930 . S
H86 C97 0.930 . S
H87 C98 0.970 1_554 S
H88 C98 0.970 . S
H89 C100 0.930 . S
H90 C102 0.930 . S
H91 C104 0.930 . S
C92 H84 0.930 . S
C92 C93 1.382 1_554 S
C92 C94 1.426 1_554 S
C93 C92 1.382 1_556 S
C93 C97 1.389 . S
C94 C92 1.426 1_556 S
C94 C95 1.375 . S
C94 C98 1.532 . S
C95 H85 0.930 . S
C95 C94 1.375 . S
C95 C96 1.416 . S
C96 C95 1.416 . S
C96 C97 1.371 . S
C97 H86 0.930 . S
C97 C93 1.389 . S
C97 C96 1.371 . S
C98 H87 0.970 1_556 S
C98 H88 0.970 . S
C98 C94 1.532 . S
C98 C99 1.499 1_545 S
C99 C98 1.499 1_565 S
C99 C100 1.370 1_556 S
C99 C104 1.415 . S
C100 H89 0.930 . S
C100 C99 1.370 1_554 S
C100 C101 1.407 . S
C101 C100 1.407 . S
C101 C102 1.365 . S
C102 H90 0.930 . S
C102 C101 1.365 . S
C102 C103 1.393 1_554 S
C103 C102 1.393 1_556 S
C103 C104 1.387 . S
C104 H91 0.930 . S
C104 C99 1.415 . S
C104 C103 1.387 . S
H105 C113 0.930 . S
H106 C116 0.930 . S
H107 C118 0.930 . S
H108 C119 0.970 . S
H109 C119 0.970 . S
H110 C121 0.930 . S
H111 C123 0.930 . S
H112 C125 0.930 . S
C113 H105 0.930 . S
C113 C114 1.382 . S
C113 C115 1.426 . S
C114 C113 1.382 . S
C114 C118 1.389 . S
C115 C113 1.426 . S
C115 C116 1.375 . S
C115 C119 1.532 . S
C116 H106 0.930 . S
C116 C115 1.375 . S
C116 C117 1.416 . S
C117 C116 1.416 . S
C117 C118 1.371 . S
C118 H107 0.930 . S
C118 C114 1.389 . S
C118 C117 1.371 . S
C119 H108 0.970 . S
C119 H109 0.970 . S
C119 C115 1.532 . S
C119 C120 1.499 . S
C120 C119 1.499 . S
C120 C121 1.370 . S
C120 C125 1.415 . S
C121 H110 0.930 . S
C121 C120 1.370 . S
C121 C122 1.407 . S
C122 C121 1.407 . S
C122 C123 1.365 . S
C123 H111 0.930 . S
C123 C122 1.365 . S
C123 C124 1.393 . S
C124 C123 1.393 . S
C124 C125 1.387 . S
C125 H112 0.930 . S
C125 C120 1.415 . S
C125 C124 1.387 . S
Zn126 O129 2.031 . S
Zn126 O131 2.049 . S
Zn126 O136 2.067 . S
Zn127 O128 1.962 . S
Zn127 O130 1.986 . S
Zn127 O132 1.996 . S
Zn127 O135 1.943 . S
O128 Zn127 1.962 . S
O128 C133 1.254 . S
O129 Zn126 2.031 . S
O129 C133 1.269 . S
O130 Zn127 1.986 . S
O130 C137 1.262 . S
O131 Zn126 2.049 . S
O131 C139 1.260 . S
O132 Zn127 1.996 . S
O132 C139 1.257 . S
C133 O128 1.254 . S
C133 O129 1.269 . S
C134 O135 1.249 . S
C134 O136 1.270 . S
O135 Zn127 1.943 . S
O135 C134 1.249 . S
O136 Zn126 2.067 . S
O136 C134 1.270 . S
C137 O130 1.262 . S
C137 O138 1.232 . S
O138 C137 1.232 . S
C139 O131 1.260 . S
C139 O132 1.257 . S
Zn140 O143 2.031 . S
Zn140 O145 2.049 . S
Zn140 O150 2.067 . S
Zn141 O142 1.962 . S
Zn141 O144 1.986 . S
Zn141 O146 1.996 . S
Zn141 O149 1.943 . S
O142 Zn141 1.962 . S
O142 C147 1.254 . S
O143 Zn140 2.031 . S
O143 C147 1.269 . S
O144 Zn141 1.986 . S
O144 C151 1.262 . S
O145 Zn140 2.049 . S
O145 C153 1.260 . S
O146 Zn141 1.996 . S
O146 C153 1.257 . S
C147 O142 1.254 . S
C147 O143 1.269 . S
C148 O149 1.249 . S
C148 O150 1.270 . S
O149 Zn141 1.943 . S
O149 C148 1.249 . S
O150 Zn140 2.067 . S
O150 C148 1.270 . S
C151 O144 1.262 . S
C151 O152 1.232 . S
O152 C151 1.232 . S
C153 O145 1.260 . S
C153 O146 1.257 . S
Zn154 O157 2.031 . S
Zn154 O159 2.049 . S
Zn154 O164 2.067 . S
Zn155 O156 1.962 . S
Zn155 O158 1.986 . S
Zn155 O160 1.996 . S
Zn155 O163 1.943 . S
O156 Zn155 1.962 . S
O156 C161 1.254 . S
O157 Zn154 2.031 . S
O157 C161 1.269 . S
O158 Zn155 1.986 . S
O158 C165 1.262 . S
O159 Zn154 2.049 . S
O159 C167 1.260 . S
O160 Zn155 1.996 . S
O160 C167 1.257 . S
C161 O156 1.254 . S
C161 O157 1.269 . S
C162 O163 1.249 . S
C162 O164 1.270 . S
O163 Zn155 1.943 . S
O163 C162 1.249 . S
O164 Zn154 2.067 . S
O164 C162 1.270 . S
C165 O158 1.262 . S
C165 O166 1.232 . S
O166 C165 1.232 . S
C167 O159 1.260 . S
C167 O160 1.257 . S
Zn168 O171 2.031 . S
Zn168 O173 2.049 . S
Zn168 O178 2.067 . S
Zn169 O170 1.962 . S
Zn169 O172 1.986 . S
Zn169 O174 1.996 . S
Zn169 O177 1.943 . S
O170 Zn169 1.962 . S
O170 C175 1.254 . S
O171 Zn168 2.031 . S
O171 C175 1.269 . S
O172 Zn169 1.986 . S
O172 C179 1.262 . S
O173 Zn168 2.049 . S
O173 C181 1.260 . S
O174 Zn169 1.996 . S
O174 C181 1.257 . S
C175 O170 1.254 . S
C175 O171 1.269 . S
C176 O177 1.249 . S
C176 O178 1.270 . S
O177 Zn169 1.943 . S
O177 C176 1.249 . S
O178 Zn168 2.067 . S
O178 C176 1.270 . S
C179 O172 1.262 . S
C179 O180 1.232 . S
O180 C179 1.232 . S
C181 O173 1.260 . S
C181 O174 1.257 . S
Zn182 O185 2.031 . S
Zn182 O187 2.049 . S
Zn182 O192 2.067 . S
Zn183 O184 1.962 . S
Zn183 O186 1.986 . S
Zn183 O188 1.996 . S
Zn183 O191 1.943 . S
O184 Zn183 1.962 . S
O184 C189 1.254 . S
O185 Zn182 2.031 . S
O185 C189 1.269 . S
O186 Zn183 1.986 . S
O186 C193 1.262 . S
O187 Zn182 2.049 . S
O187 C195 1.260 . S
O188 Zn183 1.996 . S
O188 C195 1.257 . S
C189 O184 1.254 . S
C189 O185 1.269 . S
C190 O191 1.249 . S
C190 O192 1.270 . S
O191 Zn183 1.943 . S
O191 C190 1.249 . S
O192 Zn182 2.067 . S
O192 C190 1.270 . S
C193 O186 1.262 . S
C193 O194 1.232 . S
O194 C193 1.232 . S
C195 O187 1.260 . S
C195 O188 1.257 . S
Zn196 O199 2.031 . S
Zn196 O201 2.049 . S
Zn196 O206 2.067 . S
Zn197 O198 1.962 . S
Zn197 O200 1.986 . S
Zn197 O202 1.996 . S
Zn197 O205 1.943 . S
O198 Zn197 1.962 . S
O198 C203 1.254 . S
O199 Zn196 2.031 . S
O199 C203 1.269 . S
O200 Zn197 1.986 . S
O200 C207 1.262 . S
O201 Zn196 2.049 . S
O201 C209 1.260 . S
O202 Zn197 1.996 . S
O202 C209 1.257 . S
C203 O198 1.254 . S
C203 O199 1.269 . S
C204 O205 1.249 . S
C204 O206 1.270 . S
O205 Zn197 1.943 . S
O205 C204 1.249 . S
O206 Zn196 2.067 . S
O206 C204 1.270 . S
C207 O200 1.262 . S
C207 O208 1.232 . S
O208 C207 1.232 . S
C209 O201 1.260 . S
C209 O202 1.257 . S
H210 C218 0.950 . S
H211 C223 0.950 . S
H212 C220 0.950 . S
H213 C222 0.950 . S
H214 C224 0.950 . S
H215 C226 0.950 . S
H216 C228 0.950 . S
H217 C229 0.950 . S
C218 H210 0.950 . S
C218 C219 1.386 . S
C218 C220 1.391 . S
C219 C218 1.386 . S
C219 C223 1.393 . S
C220 H212 0.950 . S
C220 C218 1.391 . S
C220 C221 1.400 . S
C221 C220 1.400 . S
C221 C222 1.398 . S
C221 C227 1.491 . S
C222 H213 0.950 . S
C222 C221 1.398 . S
C222 C223 1.391 . S
C223 H211 0.950 . S
C223 C219 1.393 . S
C223 C222 1.391 . S
C224 H214 0.950 . S
C224 C225 1.386 . S
C224 C226 1.391 . S
C225 C224 1.386 . S
C225 C229 1.393 . S
C226 H215 0.950 . S
C226 C224 1.391 . S
C226 C227 1.400 . S
C227 C221 1.491 . S
C227 C226 1.400 . S
C227 C228 1.398 . S
C228 H216 0.950 . S
C228 C227 1.398 . S
C228 C229 1.391 . S
C229 H217 0.950 . S
C229 C225 1.393 . S
C229 C228 1.391 . S
H230 C238 0.950 . S
H231 C243 0.950 . S
H232 C240 0.950 . S
H233 C242 0.950 . S
H234 C244 0.950 . S
H235 C246 0.950 . S
H236 C248 0.950 . S
H237 C249 0.950 . S
C238 H230 0.950 . S
C238 C239 1.386 . S
C238 C240 1.391 . S
C239 C238 1.386 . S
C239 C243 1.393 . S
C240 H232 0.950 . S
C240 C238 1.391 . S
C240 C241 1.400 . S
C241 C240 1.400 . S
C241 C242 1.398 . S
C241 C247 1.491 . S
C242 H233 0.950 . S
C242 C241 1.398 . S
C242 C243 1.391 . S
C243 H231 0.950 . S
C243 C239 1.393 . S
C243 C242 1.391 . S
C244 H234 0.950 . S
C244 C245 1.386 . S
C244 C246 1.391 . S
C245 C244 1.386 . S
C245 C249 1.393 . S
C246 H235 0.950 . S
C246 C244 1.391 . S
C246 C247 1.400 . S
C247 C241 1.491 . S
C247 C246 1.400 . S
C247 C248 1.398 . S
C248 H236 0.950 . S
C248 C247 1.398 . S
C248 C249 1.391 . S
C249 H237 0.950 . S
C249 C245 1.393 . S
C249 C248 1.391 . S
H250 C258 0.950 . S
H251 C263 0.950 . S
H252 C260 0.950 . S
H253 C262 0.950 . S
H254 C264 0.950 . S
H255 C266 0.950 . S
H256 C268 0.950 . S
H257 C269 0.950 . S
C258 H250 0.950 . S
C258 C259 1.386 . S
C258 C260 1.391 . S
C259 C258 1.386 . S
C259 C263 1.393 . S
C260 H252 0.950 . S
C260 C258 1.391 . S
C260 C261 1.400 . S
C261 C260 1.400 . S
C261 C262 1.398 . S
C261 C267 1.491 . S
C262 H253 0.950 . S
C262 C261 1.398 . S
C262 C263 1.391 . S
C263 H251 0.950 . S
C263 C259 1.393 . S
C263 C262 1.391 . S
C264 H254 0.950 . S
C264 C265 1.386 . S
C264 C266 1.391 . S
C265 C264 1.386 . S
C265 C269 1.393 . S
C266 H255 0.950 . S
C266 C264 1.391 . S
C266 C267 1.400 . S
C267 C261 1.491 . S
C267 C266 1.400 . S
C267 C268 1.398 . S
C268 H256 0.950 . S
C268 C267 1.398 . S
C268 C269 1.391 . S
C269 H257 0.950 . S
C269 C265 1.393 . S
C269 C268 1.391 . S
H270 C278 0.950 . S
H271 C283 0.950 . S
H272 C280 0.950 . S
H273 C282 0.950 . S
H274 C284 0.950 . S
H275 C286 0.950 . S
H276 C288 0.950 . S
H277 C289 0.950 . S
C278 H270 0.950 . S
C278 C279 1.386 . S
C278 C280 1.391 . S
C279 C278 1.386 . S
C279 C283 1.393 . S
C280 H272 0.950 . S
C280 C278 1.391 . S
C280 C281 1.400 . S
C281 C280 1.400 . S
C281 C282 1.398 . S
C281 C287 1.491 . S
C282 H273 0.950 . S
C282 C281 1.398 . S
C282 C283 1.391 . S
C283 H271 0.950 . S
C283 C279 1.393 . S
C283 C282 1.391 . S
C284 H274 0.950 . S
C284 C285 1.386 . S
C284 C286 1.391 . S
C285 C284 1.386 . S
C285 C289 1.393 . S
C286 H275 0.950 . S
C286 C284 1.391 . S
C286 C287 1.400 . S
C287 C281 1.491 . S
C287 C286 1.400 . S
C287 C288 1.398 . S
C288 H276 0.950 . S
C288 C287 1.398 . S
C288 C289 1.391 . S
C289 H277 0.950 . S
C289 C285 1.393 . S
C289 C288 1.391 . S
H290 C298 0.950 . S
H291 C303 0.950 . S
H292 C300 0.950 . S
H293 C302 0.950 . S
H294 C304 0.950 . S
H295 C306 0.950 . S
H296 C308 0.950 . S
H297 C309 0.950 . S
C298 H290 0.950 . S
C298 C299 1.386 . S
C298 C300 1.391 . S
C299 C298 1.386 . S
C299 C303 1.393 . S
C300 H292 0.950 . S
C300 C298 1.391 . S
C300 C301 1.400 . S
C301 C300 1.400 . S
C301 C302 1.398 . S
C301 C307 1.491 . S
C302 H293 0.950 . S
C302 C301 1.398 . S
C302 C303 1.391 . S
C303 H291 0.950 . S
C303 C299 1.393 . S
C303 C302 1.391 . S
C304 H294 0.950 . S
C304 C305 1.386 . S
C304 C306 1.391 . S
C305 C304 1.386 . S
C305 C309 1.393 . S
C306 H295 0.950 . S
C306 C304 1.391 . S
C306 C307 1.400 . S
C307 C301 1.491 . S
C307 C306 1.400 . S
C307 C308 1.398 . S
C308 H296 0.950 . S
C308 C307 1.398 . S
C308 C309 1.391 . S
C309 H297 0.950 . S
C309 C305 1.393 . S
C309 C308 1.391 . S
H310 C318 0.950 . S
H311 C323 0.950 . S
H312 C320 0.950 . S
H313 C322 0.950 . S
H314 C324 0.950 . S
H315 C326 0.950 . S
H316 C328 0.950 . S
H317 C329 0.950 . S
C318 H310 0.950 . S
C318 C319 1.386 . S
C318 C320 1.391 . S
C319 C318 1.386 . S
C319 C323 1.393 . S
C320 H312 0.950 . S
C320 C318 1.391 . S
C320 C321 1.400 . S
C321 C320 1.400 . S
C321 C322 1.398 . S
C321 C327 1.491 . S
C322 H313 0.950 . S
C322 C321 1.398 . S
C322 C323 1.391 . S
C323 H311 0.950 . S
C323 C319 1.393 . S
C323 C322 1.391 . S
C324 H314 0.950 . S
C324 C325 1.386 . S
C324 C326 1.391 . S
C325 C324 1.386 . S
C325 C329 1.393 . S
C326 H315 0.950 . S
C326 C324 1.391 . S
C326 C327 1.400 . S
C327 C321 1.491 . S
C327 C326 1.400 . S
C327 C328 1.398 . S
C328 H316 0.950 . S
C328 C327 1.398 . S
C328 C329 1.391 . S
C329 H317 0.950 . S
C329 C325 1.393 . S
C329 C328 1.391 . S
H330 C338 0.950 . S
H331 C343 0.950 . S
H332 C340 0.950 . S
H333 C342 0.950 . S
H334 C344 0.950 . S
H335 C346 0.950 . S
H336 C348 0.950 . S
H337 C349 0.950 . S
C338 H330 0.950 . S
C338 C339 1.386 . S
C338 C340 1.391 . S
C339 C338 1.386 . S
C339 C343 1.393 . S
C340 H332 0.950 . S
C340 C338 1.391 . S
C340 C341 1.400 . S
C341 C340 1.400 . S
C341 C342 1.398 . S
C341 C347 1.491 . S
C342 H333 0.950 . S
C342 C341 1.398 . S
C342 C343 1.391 . S
C343 H331 0.950 . S
C343 C339 1.393 . S
C343 C342 1.391 . S
C344 H334 0.950 . S
C344 C345 1.386 . S
C344 C346 1.391 . S
C345 C344 1.386 . S
C345 C349 1.393 . S
C346 H335 0.950 . S
C346 C344 1.391 . S
C346 C347 1.400 . S
C347 C341 1.491 . S
C347 C346 1.400 . S
C347 C348 1.398 . S
C348 H336 0.950 . S
C348 C347 1.398 . S
C348 C349 1.391 . S
C349 H337 0.950 . S
C349 C345 1.393 . S
C349 C348 1.391 . S
H350 C358 0.950 . S
H351 C363 0.950 . S
H352 C360 0.950 . S
H353 C362 0.950 . S
H354 C364 0.950 . S
H355 C366 0.950 . S
H356 C368 0.950 . S
H357 C369 0.950 . S
C358 H350 0.950 . S
C358 C359 1.386 . S
C358 C360 1.391 . S
C359 C358 1.386 . S
C359 C363 1.393 . S
C360 H352 0.950 . S
C360 C358 1.391 . S
C360 C361 1.400 . S
C361 C360 1.400 . S
C361 C362 1.398 . S
C361 C367 1.491 . S
C362 H353 0.950 . S
C362 C361 1.398 . S
C362 C363 1.391 . S
C363 H351 0.950 . S
C363 C359 1.393 . S
C363 C362 1.391 . S
C364 H354 0.950 . S
C364 C365 1.386 . S
C364 C366 1.391 . S
C365 C364 1.386 . S
C365 C369 1.393 . S
C366 H355 0.950 . S
C366 C364 1.391 . S
C366 C367 1.400 . S
C367 C361 1.491 . S
C367 C366 1.400 . S
C367 C368 1.398 . S
C368 H356 0.950 . S
C368 C367 1.398 . S
C368 C369 1.391 . S
C369 H357 0.950 . S
C369 C365 1.393 . S
C369 C368 1.391 . S
H370 C378 0.950 . S
H371 C383 0.950 . S
H372 C380 0.950 . S
H373 C382 0.950 . S
H374 C384 0.950 . S
H375 C386 0.950 . S
H376 C388 0.950 . S
H377 C389 0.950 . S
C378 H370 0.950 . S
C378 C379 1.386 . S
C378 C380 1.391 . S
C379 C378 1.386 . S
C379 C383 1.393 . S
C380 H372 0.950 . S
C380 C378 1.391 . S
C380 C381 1.400 . S
C381 C380 1.400 . S
C381 C382 1.398 . S
C381 C387 1.491 . S
C382 H373 0.950 . S
C382 C381 1.398 . S
C382 C383 1.391 . S
C383 H371 0.950 . S
C383 C379 1.393 . S
C383 C382 1.391 . S
C384 H374 0.950 . S
C384 C385 1.386 . S
C384 C386 1.391 . S
C385 C384 1.386 . S
C385 C389 1.393 . S
C386 H375 0.950 . S
C386 C384 1.391 . S
C386 C387 1.400 . S
C387 C381 1.491 . S
C387 C386 1.400 . S
C387 C388 1.398 . S
C388 H376 0.950 . S
C388 C387 1.398 . S
C388 C389 1.391 . S
C389 H377 0.950 . S
C389 C385 1.393 . S
C389 C388 1.391 . S
H390 C398 0.950 . S
H391 C403 0.950 . S
H392 C400 0.950 . S
H393 C402 0.950 1_556 S
H394 C404 0.950 . S
H395 C406 0.950 . S
H396 C408 0.950 . S
H397 C409 0.950 . S
C398 H390 0.950 . S
C398 C399 1.386 . S
C398 C400 1.391 . S
C399 C398 1.386 . S
C399 C403 1.393 1_554 S
C400 H392 0.950 . S
C400 C398 1.391 . S
C400 C401 1.400 . S
C401 C400 1.400 . S
C401 C402 1.398 . S
C401 C407 1.491 . S
C402 H393 0.950 1_554 S
C402 C401 1.398 . S
C402 C403 1.391 1_554 S
C403 H391 0.950 . S
C403 C399 1.393 1_556 S
C403 C402 1.391 1_556 S
C404 H394 0.950 . S
C404 C405 1.386 . S
C404 C406 1.391 . S
C405 C404 1.386 . S
C405 C409 1.393 . S
C406 H395 0.950 . S
C406 C404 1.391 . S
C406 C407 1.400 . S
C407 C401 1.491 . S
C407 C406 1.400 . S
C407 C408 1.398 . S
C408 H396 0.950 . S
C408 C407 1.398 . S
C408 C409 1.391 . S
C409 H397 0.950 . S
C409 C405 1.393 . S
C409 C408 1.391 . S
H410 C418 0.950 . S
H411 C423 0.950 . S
H412 C420 0.950 . S
H413 C422 0.950 . S
H414 C424 0.950 . S
H415 C426 0.950 . S
H416 C428 0.950 . S
H417 C429 0.950 . S
C418 H410 0.950 . S
C418 C419 1.386 . S
C418 C420 1.391 . S
C419 C418 1.386 . S
C419 C423 1.393 . S
C420 H412 0.950 . S
C420 C418 1.391 . S
C420 C421 1.400 . S
C421 C420 1.400 . S
C421 C422 1.398 . S
C421 C427 1.491 . S
C422 H413 0.950 . S
C422 C421 1.398 . S
C422 C423 1.391 . S
C423 H411 0.950 . S
C423 C419 1.393 . S
C423 C422 1.391 . S
C424 H414 0.950 . S
C424 C425 1.386 . S
C424 C426 1.391 . S
C425 C424 1.386 . S
C425 C429 1.393 . S
C426 H415 0.950 . S
C426 C424 1.391 . S
C426 C427 1.400 . S
C427 C421 1.491 . S
C427 C426 1.400 . S
C427 C428 1.398 . S
C428 H416 0.950 . S
C428 C427 1.398 . S
C428 C429 1.391 . S
C429 H417 0.950 . S
C429 C425 1.393 . S
C429 C428 1.391 . S
H430 C438 0.950 . S
H431 C443 0.950 . S
H432 C440 0.950 . S
H433 C442 0.950 . S
H434 C444 0.950 . S
H435 C446 0.950 . S
H436 C448 0.950 . S
H437 C449 0.950 . S
C438 H430 0.950 . S
C438 C439 1.386 . S
C438 C440 1.391 . S
C439 C438 1.386 . S
C439 C443 1.393 . S
C440 H432 0.950 . S
C440 C438 1.391 . S
C440 C441 1.400 . S
C441 C440 1.400 . S
C441 C442 1.398 . S
C441 C447 1.491 . S
C442 H433 0.950 . S
C442 C441 1.398 . S
C442 C443 1.391 . S
C443 H431 0.950 . S
C443 C439 1.393 . S
C443 C442 1.391 . S
C444 H434 0.950 . S
C444 C445 1.386 . S
C444 C446 1.391 . S
C445 C444 1.386 . S
C445 C449 1.393 . S
C446 H435 0.950 . S
C446 C444 1.391 . S
C446 C447 1.400 . S
C447 C441 1.491 . S
C447 C446 1.400 . S
C447 C448 1.398 . S
C448 H436 0.950 . S
C448 C447 1.398 . S
C448 C449 1.391 . S
C449 H437 0.950 . S
C449 C445 1.393 . S
C449 C448 1.391 . S
H450 C458 0.950 . S
H451 C463 0.950 . S
H452 C460 0.950 . S
H453 C462 0.950 . S
H454 C464 0.950 . S
H455 C466 0.950 . S
H456 C468 0.950 . S
H457 C469 0.950 . S
C458 H450 0.950 . S
C458 C459 1.386 . S
C458 C460 1.391 . S
C459 C458 1.386 . S
C459 C463 1.393 . S
C460 H452 0.950 . S
C460 C458 1.391 . S
C460 C461 1.400 . S
C461 C460 1.400 . S
C461 C462 1.398 . S
C461 C467 1.491 . S
C462 H453 0.950 . S
C462 C461 1.398 . S
C462 C463 1.391 . S
C463 H451 0.950 . S
C463 C459 1.393 . S
C463 C462 1.391 . S
C464 H454 0.950 . S
C464 C465 1.386 . S
C464 C466 1.391 . S
C465 C464 1.386 . S
C465 C469 1.393 . S
C466 H455 0.950 . S
C466 C464 1.391 . S
C466 C467 1.400 . S
C467 C461 1.491 . S
C467 C466 1.400 . S
C467 C468 1.398 . S
C468 H456 0.950 . S
C468 C467 1.398 . S
C468 C469 1.391 . S
C469 H457 0.950 . S
C469 C465 1.393 . S
C469 C468 1.391 . S
H470 C478 0.950 . S
H471 C483 0.950 . S
H472 C480 0.950 . S
H473 C482 0.950 . S
H474 C484 0.950 . S
H475 C486 0.950 . S
H476 C488 0.950 . S
H477 C489 0.950 . S
C478 H470 0.950 . S
C478 C479 1.386 . S
C478 C480 1.391 . S
C479 C478 1.386 . S
C479 C483 1.393 . S
C480 H472 0.950 . S
C480 C478 1.391 . S
C480 C481 1.400 . S
C481 C480 1.400 . S
C481 C482 1.398 . S
C481 C487 1.491 . S
C482 H473 0.950 . S
C482 C481 1.398 . S
C482 C483 1.391 . S
C483 H471 0.950 . S
C483 C479 1.393 . S
C483 C482 1.391 . S
C484 H474 0.950 . S
C484 C485 1.386 . S
C484 C486 1.391 . S
C485 C484 1.386 . S
C485 C489 1.393 . S
C486 H475 0.950 . S
C486 C484 1.391 . S
C486 C487 1.400 . S
C487 C481 1.491 . S
C487 C486 1.400 . S
C487 C488 1.398 . S
C488 H476 0.950 . S
C488 C487 1.398 . S
C488 C489 1.391 . S
C489 H477 0.950 . S
C489 C485 1.393 . S
C489 C488 1.391 . S
H490 C498 0.950 . S
H491 C503 0.950 . S
H492 C500 0.950 . S
H493 C502 0.950 . S
H494 C504 0.950 . S
H495 C506 0.950 . S
H496 C508 0.950 . S
H497 C509 0.950 . S
C498 H490 0.950 . S
C498 C499 1.386 . S
C498 C500 1.391 . S
C499 C498 1.386 . S
C499 C503 1.393 . S
C500 H492 0.950 . S
C500 C498 1.391 . S
C500 C501 1.400 . S
C501 C500 1.400 . S
C501 C502 1.398 . S
C501 C507 1.491 . S
C502 H493 0.950 . S
C502 C501 1.398 . S
C502 C503 1.391 . S
C503 H491 0.950 . S
C503 C499 1.393 . S
C503 C502 1.391 . S
C504 H494 0.950 . S
C504 C505 1.386 . S
C504 C506 1.391 . S
C505 C504 1.386 . S
C505 C509 1.393 . S
C506 H495 0.950 . S
C506 C504 1.391 . S
C506 C507 1.400 . S
C507 C501 1.491 . S
C507 C506 1.400 . S
C507 C508 1.398 . S
C508 H496 0.950 . S
C508 C507 1.398 . S
C508 C509 1.391 . S
C509 H497 0.950 . S
C509 C505 1.393 . S
C509 C508 1.391 . S
H510 C518 0.950 . S
H511 C523 0.950 . S
H512 C520 0.950 . S
H513 C522 0.950 . S
H514 C524 0.950 . S
H515 C526 0.950 . S
H516 C528 0.950 . S
H517 C529 0.950 . S
C518 H510 0.950 . S
C518 C519 1.386 . S
C518 C520 1.391 . S
C519 C518 1.386 . S
C519 C523 1.393 . S
C520 H512 0.950 . S
C520 C518 1.391 . S
C520 C521 1.400 . S
C521 C520 1.400 . S
C521 C522 1.398 . S
C521 C527 1.491 . S
C522 H513 0.950 . S
C522 C521 1.398 . S
C522 C523 1.391 . S
C523 H511 0.950 . S
C523 C519 1.393 . S
C523 C522 1.391 . S
C524 H514 0.950 . S
C524 C525 1.386 . S
C524 C526 1.391 1_554 S
C525 C524 1.386 . S
C525 C529 1.393 1_554 S
C526 H515 0.950 . S
C526 C524 1.391 1_556 S
C526 C527 1.400 . S
C527 C521 1.491 . S
C527 C526 1.400 . S
C527 C528 1.398 . S
C528 H516 0.950 . S
C528 C527 1.398 . S
C528 C529 1.391 . S
C529 H517 0.950 . S
C529 C525 1.393 1_556 S
C529 C528 1.391 . S
H530 C538 0.950 . S
H531 C543 0.950 . S
H532 C540 0.950 . S
H533 C542 0.950 . S
H534 C544 0.950 . S
H535 C546 0.950 . S
H536 C548 0.950 . S
H537 C549 0.950 . S
C538 H530 0.950 . S
C538 C539 1.386 . S
C538 C540 1.391 . S
C539 C538 1.386 . S
C539 C543 1.393 . S
C540 H532 0.950 . S
C540 C538 1.391 . S
C540 C541 1.400 . S
C541 C540 1.400 . S
C541 C542 1.398 . S
C541 C547 1.491 . S
C542 H533 0.950 . S
C542 C541 1.398 . S
C542 C543 1.391 . S
C543 H531 0.950 . S
C543 C539 1.393 . S
C543 C542 1.391 . S
C544 H534 0.950 . S
C544 C545 1.386 . S
C544 C546 1.391 . S
C545 C544 1.386 . S
C545 C549 1.393 . S
C546 H535 0.950 . S
C546 C544 1.391 . S
C546 C547 1.400 . S
C547 C541 1.491 . S
C547 C546 1.400 . S
C547 C548 1.398 . S
C548 H536 0.950 . S
C548 C547 1.398 . S
C548 C549 1.391 . S
C549 H537 0.950 . S
C549 C545 1.393 . S
C549 C548 1.391 . S
H550 C558 0.950 . S
H551 C563 0.950 . S
H552 C560 0.950 . S
H553 C562 0.950 . S
H554 C564 0.950 . S
H555 C566 0.950 . S
H556 C568 0.950 . S
H557 C569 0.950 . S
C558 H550 0.950 . S
C558 C559 1.386 . S
C558 C560 1.391 . S
C559 C558 1.386 . S
C559 C563 1.393 . S
C560 H552 0.950 . S
C560 C558 1.391 . S
C560 C561 1.400 . S
C561 C560 1.400 . S
C561 C562 1.398 . S
C561 C567 1.491 . S
C562 H553 0.950 . S
C562 C561 1.398 . S
C562 C563 1.391 . S
C563 H551 0.950 . S
C563 C559 1.393 . S
C563 C562 1.391 . S
C564 H554 0.950 . S
C564 C565 1.386 . S
C564 C566 1.391 . S
C565 C564 1.386 . S
C565 C569 1.393 . S
C566 H555 0.950 . S
C566 C564 1.391 . S
C566 C567 1.400 . S
C567 C561 1.491 . S
C567 C566 1.400 . S
C567 C568 1.398 . S
C568 H556 0.950 . S
C568 C567 1.398 . S
C568 C569 1.391 . S
C569 H557 0.950 . S
C569 C565 1.393 . S
C569 C568 1.391 . S
H570 C578 0.950 . S
H571 C583 0.950 . S
H572 C580 0.950 . S
H573 C582 0.950 . S
H574 C584 0.950 . S
H575 C586 0.950 . S
H576 C588 0.950 . S
H577 C589 0.950 . S
C578 H570 0.950 . S
C578 C579 1.386 . S
C578 C580 1.391 . S
C579 C578 1.386 . S
C579 C583 1.393 . S
C580 H572 0.950 . S
C580 C578 1.391 . S
C580 C581 1.400 . S
C581 C580 1.400 . S
C581 C582 1.398 . S
C581 C587 1.491 . S
C582 H573 0.950 . S
C582 C581 1.398 . S
C582 C583 1.391 . S
C583 H571 0.950 . S
C583 C579 1.393 . S
C583 C582 1.391 . S
C584 H574 0.950 . S
C584 C585 1.386 . S
C584 C586 1.391 . S
C585 C584 1.386 . S
C585 C589 1.393 . S
C586 H575 0.950 . S
C586 C584 1.391 . S
C586 C587 1.400 . S
C587 C581 1.491 . S
C587 C586 1.400 . S
C587 C588 1.398 . S
C588 H576 0.950 . S
C588 C587 1.398 . S
C588 C589 1.391 . S
C589 H577 0.950 . S
C589 C585 1.393 . S
C589 C588 1.391 . S
H590 C598 0.950 . S
H591 C603 0.950 . S
H592 C600 0.950 . S
H593 C602 0.950 . S
H594 C604 0.950 . S
H595 C606 0.950 . S
H596 C608 0.950 . S
H597 C609 0.950 . S
C598 H590 0.950 . S
C598 C599 1.386 . S
C598 C600 1.391 . S
C599 C598 1.386 . S
C599 C603 1.393 . S
C600 H592 0.950 . S
C600 C598 1.391 . S
C600 C601 1.400 . S
C601 C600 1.400 . S
C601 C602 1.398 . S
C601 C607 1.491 . S
C602 H593 0.950 . S
C602 C601 1.398 . S
C602 C603 1.391 . S
C603 H591 0.950 . S
C603 C599 1.393 . S
C603 C602 1.391 . S
C604 H594 0.950 . S
C604 C605 1.386 . S
C604 C606 1.391 . S
C605 C604 1.386 . S
C605 C609 1.393 . S
C606 H595 0.950 . S
C606 C604 1.391 . S
C606 C607 1.400 . S
C607 C601 1.491 . S
C607 C606 1.400 . S
C607 C608 1.398 . S
C608 H596 0.950 . S
C608 C607 1.398 . S
C608 C609 1.391 . S
C609 H597 0.950 . S
C609 C605 1.393 . S
C609 C608 1.391 . S
H610 C618 0.950 . S
H611 C623 0.950 . S
H612 C620 0.950 . S
H613 C622 0.950 . S
H614 C624 0.950 . S
H615 C626 0.950 . S
H616 C628 0.950 . S
H617 C629 0.950 . S
C618 H610 0.950 . S
C618 C619 1.386 . S
C618 C620 1.391 . S
C619 C618 1.386 . S
C619 C623 1.393 . S
C620 H612 0.950 . S
C620 C618 1.391 . S
C620 C621 1.400 . S
C621 C620 1.400 . S
C621 C622 1.398 . S
C621 C627 1.491 . S
C622 H613 0.950 . S
C622 C621 1.398 . S
C622 C623 1.391 . S
C623 H611 0.950 . S
C623 C619 1.393 . S
C623 C622 1.391 . S
C624 H614 0.950 . S
C624 C625 1.386 . S
C624 C626 1.391 . S
C625 C624 1.386 . S
C625 C629 1.393 . S
C626 H615 0.950 . S
C626 C624 1.391 . S
C626 C627 1.400 . S
C627 C621 1.491 . S
C627 C626 1.400 . S
C627 C628 1.398 . S
C628 H616 0.950 . S
C628 C627 1.398 . S
C628 C629 1.391 . S
C629 H617 0.950 . S
C629 C625 1.393 . S
C629 C628 1.391 . S
H630 C638 0.950 . S
H631 C643 0.950 . S
H632 C640 0.950 . S
H633 C642 0.950 . S
H634 C644 0.950 . S
H635 C646 0.950 . S
H636 C648 0.950 . S
H637 C649 0.950 . S
C638 H630 0.950 . S
C638 C639 1.386 . S
C638 C640 1.391 . S
C639 C638 1.386 . S
C639 C643 1.393 . S
C640 H632 0.950 . S
C640 C638 1.391 . S
C640 C641 1.400 . S
C641 C640 1.400 . S
C641 C642 1.398 . S
C641 C647 1.491 . S
C642 H633 0.950 . S
C642 C641 1.398 . S
C642 C643 1.391 . S
C643 H631 0.950 . S
C643 C639 1.393 . S
C643 C642 1.391 . S
C644 H634 0.950 . S
C644 C645 1.386 . S
C644 C646 1.391 . S
C645 C644 1.386 . S
C645 C649 1.393 . S
C646 H635 0.950 . S
C646 C644 1.391 . S
C646 C647 1.400 . S
C647 C641 1.491 . S
C647 C646 1.400 . S
C647 C648 1.398 . S
C648 H636 0.950 . S
C648 C647 1.398 . S
C648 C649 1.391 . S
C649 H637 0.950 . S
C649 C645 1.393 . S
C649 C648 1.391 . S
H650 C658 0.950 . S
H651 C663 0.950 . S
H652 C660 0.950 . S
H653 C662 0.950 . S
H654 C664 0.950 . S
H655 C666 0.950 . S
H656 C668 0.950 . S
H657 C669 0.950 . S
C658 H650 0.950 . S
C658 C659 1.386 . S
C658 C660 1.391 . S
C659 C658 1.386 . S
C659 C663 1.393 . S
C660 H652 0.950 . S
C660 C658 1.391 . S
C660 C661 1.400 . S
C661 C660 1.400 . S
C661 C662 1.398 . S
C661 C667 1.491 . S
C662 H653 0.950 . S
C662 C661 1.398 . S
C662 C663 1.391 . S
C663 H651 0.950 . S
C663 C659 1.393 . S
C663 C662 1.391 . S
C664 H654 0.950 . S
C664 C665 1.386 . S
C664 C666 1.391 1_556 S
C665 C664 1.386 . S
C665 C669 1.393 . S
C666 H655 0.950 . S
C666 C664 1.391 1_554 S
C666 C667 1.400 . S
C667 C661 1.491 . S
C667 C666 1.400 . S
C667 C668 1.398 . S
C668 H656 0.950 . S
C668 C667 1.398 . S
C668 C669 1.391 1_554 S
C669 H657 0.950 . S
C669 C665 1.393 . S
C669 C668 1.391 1_556 S
H670 C678 0.950 . S
H671 C683 0.950 . S
H672 C680 0.950 . S
H673 C682 0.950 . S
H674 C684 0.950 . S
H675 C686 0.950 . S
H676 C688 0.950 . S
H677 C689 0.950 . S
C678 H670 0.950 . S
C678 C679 1.386 . S
C678 C680 1.391 . S
C679 C678 1.386 . S
C679 C683 1.393 . S
C680 H672 0.950 . S
C680 C678 1.391 . S
C680 C681 1.400 . S
C681 C680 1.400 . S
C681 C682 1.398 . S
C681 C687 1.491 . S
C682 H673 0.950 . S
C682 C681 1.398 . S
C682 C683 1.391 . S
C683 H671 0.950 . S
C683 C679 1.393 . S
C683 C682 1.391 . S
C684 H674 0.950 . S
C684 C685 1.386 . S
C684 C686 1.391 . S
C685 C684 1.386 . S
C685 C689 1.393 . S
C686 H675 0.950 . S
C686 C684 1.391 . S
C686 C687 1.400 . S
C687 C681 1.491 . S
C687 C686 1.400 . S
C687 C688 1.398 . S
C688 H676 0.950 . S
C688 C687 1.398 . S
C688 C689 1.391 . S
C689 H677 0.950 . S
C689 C685 1.393 . S
C689 C688 1.391 . S
C225 C203 1.565 . S
C219 C19 1.489 . S
C239 C40 1.411 . S
C245 C137 1.467 . S
C259 C51 1.355 . S
C265 C151 1.416 . S
C279 C72 1.358 . S
C285 C165 1.458 . S
C305 C179 1.479 . S
C299 C103 1.390 . S
C319 C114 1.438 . S
C325 C189 1.520 . S
C339 C30 1.492 . S
C345 C147 1.574 . S
C359 C61 1.527 . S
C365 C161 1.627 . S
C379 C82 1.475 . S
C385 C175 1.558 . S
C405 C193 1.466 . S
C399 C93 1.359 1_554 S
C425 C207 1.513 . S
C419 C124 1.451 . S
C445 C133 1.554 . S
C439 C9 1.450 . S
C459 C17 1.446 . S
C465 C148 1.471 . S
C479 C38 1.508 . S
C485 C162 1.540 . S
C505 C176 1.520 . S
C499 C54 1.490 . S
C519 C75 1.399 . S
C525 C195 1.413 . S
C545 C209 1.398 . S
C539 C101 1.379 . S
C565 C134 1.448 . S
C559 C117 1.436 . S
C585 C204 1.432 . S
C579 C33 1.426 . S
C599 C59 1.318 . S
C605 C139 1.340 . S
C625 C153 1.372 . S
C619 C80 1.359 . S
C639 C96 1.374 . S
C645 C167 1.400 . S
C659 C122 1.430 . S
C665 C181 1.437 . S
C679 C12 1.450 . S
C685 C190 1.452 . S
