# Generated by pormake.
# Topology rtl, (3,6)-cn, num edge types: 1
# Building blocks:
#     Node 0, Type 0, BuildingBlock: BELTOD_clean_linker_0, # of connection points: 3
#     Node 1, Type 0, BuildingBlock: BELTOD_clean_linker_0, # of connection points: 3
#     Node 2, Type 0, BuildingBlock: BELTOD_clean_linker_0, # of connection points: 3
#     Node 3, Type 0, BuildingBlock: BELTOD_clean_linker_0, # of connection points: 3
#     Node 4, Type 1, BuildingBlock: KUMBUR_clean_sbu_1, # of connection points: 6
#     Node 5, Type 1, BuildingBlock: KUMBUR_clean_sbu_1, # of connection points: 6
#     Edge 6, Type (0, 1), BuildingBlock: MIFKUJ_clean_linker_0, # of connection points: 2
#     Edge 7, Type (0, 1), BuildingBlock: MIFKUJ_clean_linker_0, # of connection points: 2
#     Edge 8, Type (0, 1), BuildingBlock: MIFKUJ_clean_linker_0, # of connection points: 2
#     Edge 9, Type (0, 1), BuildingBlock: MIFKUJ_clean_linker_0, # of connection points: 2
#     Edge 10, Type (0, 1), BuildingBlock: MIFKUJ_clean_linker_0, # of connection points: 2
#     Edge 11, Type (0, 1), BuildingBlock: MIFKUJ_clean_linker_0, # of connection points: 2
#     Edge 12, Type (0, 1), BuildingBlock: MIFKUJ_clean_linker_0, # of connection points: 2
#     Edge 13, Type (0, 1), BuildingBlock: MIFKUJ_clean_linker_0, # of connection points: 2
#     Edge 14, Type (0, 1), BuildingBlock: MIFKUJ_clean_linker_0, # of connection points: 2
#     Edge 15, Type (0, 1), BuildingBlock: MIFKUJ_clean_linker_0, # of connection points: 2
#     Edge 16, Type (0, 1), BuildingBlock: MIFKUJ_clean_linker_0, # of connection points: 2
#     Edge 17, Type (0, 1), BuildingBlock: MIFKUJ_clean_linker_0, # of connection points: 2
# Relax obj value: 0.018
# Max RMSD: 0.085
# Mean RMSD: 0.057
data_MOF--net-rtl--node1-KUMBUR_clean_sbu_1--node2-BELTOD_clean_linker_0--edge1-MIFKUJ_clean_linker_0
_symmetry_space_group_name_H-M    P1
_symmetry_Int_Tables_number       1
_symmetry_cell_setting            triclinic
loop_
_symmetry_equiv_pos_as_xyz
'x, y, z'
_cell_length_a     46.950111
_cell_length_b     47.352227
_cell_length_c     40.3471
_cell_angle_alpha  80.845012
_cell_angle_beta   99.762762
_cell_angle_gamma 90.278567
loop_
_atom_site_label
_atom_site_type_symbol
_atom_site_fract_x
_atom_site_fract_y
_atom_site_fract_z
_atom_type_partial_charge
P0 P 0.25213 0.88776 0.02409 0.0
H1 H 0.26852 0.91568 0.0838 0.0
H2 H 0.24464 0.92143 0.13152 0.0
H3 H 0.17443 0.8697 0.09287 0.0
H4 H 0.19822 0.86481 0.04447 0.0
H5 H 0.30592 0.87433 0.00261 0.0
H6 H 0.33313 0.82974 0.00657 0.0
H7 H 0.27147 0.78408 0.06198 0.0
H8 H 0.24415 0.82889 0.05776 0.0
H9 H 0.19757 0.92035 0.9997 0.0
H10 H 0.25139 0.8643 0.96086 0.0
O11 O 0.27444 0.91515 0.01986 0.0
H12 H 0.16594 0.92941 0.94404 0.0
H13 H 0.22007 0.87339 0.90543 0.0
C14 C 0.23488 0.89026 0.06027 0.0
C15 C 0.24796 0.9056 0.08554 0.0
C16 C 0.23436 0.90867 0.11304 0.0
C17 C 0.20748 0.89617 0.11606 0.0
C18 C 0.19483 0.88008 0.09107 0.0
C19 C 0.20846 0.87711 0.06347 0.0
C20 C 0.27326 0.85505 0.03037 0.0
C21 C 0.29843 0.85482 0.01603 0.0
C22 C 0.31384 0.82928 0.01805 0.0
C23 C 0.30442 0.80342 0.03457 0.0
C24 C 0.27941 0.80374 0.04941 0.0
C25 C 0.26378 0.82934 0.04701 0.0
C26 C 0.2265 0.89108 0.98483 0.0
C27 C 0.20224 0.90946 0.97952 0.0
C28 C 0.1842 0.91468 0.94767 0.0
C29 C 0.19054 0.90211 0.92037 0.0
C30 C 0.21472 0.88352 0.92591 0.0
C31 C 0.23255 0.87813 0.95778 0.0
P32 P 0.69879 0.67997 0.6007 0.0
H33 H 0.7183 0.66186 0.54241 0.0
H34 H 0.69279 0.65144 0.48794 0.0
H35 H 0.61227 0.67924 0.51209 0.0
H36 H 0.63806 0.68933 0.56691 0.0
H37 H 0.74843 0.70015 0.64342 0.0
H38 H 0.77523 0.74446 0.6386 0.0
H39 H 0.71199 0.78056 0.5515 0.0
H40 H 0.68557 0.73578 0.5562 0.0
H41 H 0.65882 0.63413 0.6129 0.0
H42 H 0.68886 0.70744 0.65883 0.0
O43 O 0.72548 0.65536 0.6115 0.0
H44 H 0.63096 0.61953 0.65832 0.0
H45 H 0.66166 0.69251 0.70507 0.0
C46 C 0.67996 0.67563 0.55903 0.0
C47 C 0.69518 0.66587 0.5359 0.0
C48 C 0.68057 0.66015 0.5046 0.0
C49 C 0.6504 0.66426 0.49572 0.0
C50 C 0.63541 0.67536 0.51839 0.0
C51 C 0.65012 0.68119 0.5497 0.0
C52 C 0.71532 0.71449 0.59984 0.0
C53 C 0.74015 0.71772 0.62352 0.0
C54 C 0.75536 0.74321 0.62086 0.0
C55 C 0.74595 0.76608 0.59446 0.0
C56 C 0.72014 0.76322 0.57177 0.0
C57 C 0.70491 0.73766 0.57451 0.0
C58 C 0.67554 0.67212 0.63212 0.0
C59 C 0.65911 0.64731 0.63256 0.0
C60 C 0.64344 0.6388 0.65881 0.0
C61 C 0.6442 0.65471 0.68555 0.0
C62 C 0.66031 0.67992 0.6847 0.0
C63 C 0.67596 0.68847 0.65827 0.0
P64 P 0.82067 0.19242 0.01583 0.0
H65 H 0.81757 0.20882 0.94296 0.0
H66 H 0.82023 0.18142 0.89724 0.0
H67 H 0.81664 0.10283 0.96737 0.0
H68 H 0.81448 0.13055 0.0132 0.0
H69 H 0.81422 0.24552 0.04116 0.0
H70 H 0.77311 0.27764 0.03831 0.0
H71 H 0.71714 0.22091 0.98456 0.0
H72 H 0.75861 0.18851 0.98799 0.0
H73 H 0.8713 0.15643 0.04526 0.0
H74 H 0.79286 0.18039 0.07701 0.0
O75 O 0.84823 0.21406 0.01032 0.0
H76 H 0.88841 0.13008 0.10232 0.0
H77 H 0.81011 0.15468 0.13442 0.0
C78 C 0.81639 0.17174 0.98154 0.0
C79 C 0.81683 0.1857 0.94834 0.0
C80 C 0.81814 0.16995 0.92213 0.0
C81 C 0.81891 0.13984 0.92863 0.0
C82 C 0.81657 0.12596 0.9616 0.0
C83 C 0.81526 0.1418 0.98784 0.0
C84 C 0.78954 0.21499 0.01417 0.0
C85 C 0.79312 0.24003 0.02865 0.0
C86 C 0.7696 0.25844 0.02685 0.0
C87 C 0.7419 0.25209 0.01069 0.0
C88 C 0.73819 0.22642 0.99713 0.0
C89 C 0.76188 0.20797 0.99891 0.0
C90 C 0.83095 0.1705 0.05695 0.0
C91 C 0.8577 0.15587 0.06452 0.0
C92 C 0.86753 0.14101 0.09722 0.0
C93 C 0.85081 0.14056 0.12312 0.0
C94 C 0.82348 0.15445 0.11507 0.0
C95 C 0.81363 0.16931 0.08223 0.0
P96 P 0.37059 0.26902 0.4724 0.0
H97 H 0.39828 0.25035 0.54287 0.0
H98 H 0.40737 0.27417 0.59282 0.0
H99 H 0.36293 0.35029 0.53356 0.0
H100 H 0.35489 0.32645 0.48328 0.0
H101 H 0.35003 0.22043 0.4398 0.0
H102 H 0.3055 0.19343 0.43784 0.0
H103 H 0.27051 0.25254 0.49271 0.0
H104 H 0.31545 0.27908 0.49515 0.0
H105 H 0.41969 0.30134 0.45405 0.0
H106 H 0.33157 0.29019 0.40752 0.0
O107 O 0.39634 0.24368 0.47815 0.0
H108 H 0.42849 0.33091 0.40162 0.0
H109 H 0.33992 0.32039 0.35508 0.0
C110 C 0.37637 0.28681 0.50925 0.0
C111 C 0.39064 0.27223 0.54057 0.0
C112 C 0.39558 0.28584 0.56927 0.0
C113 C 0.38599 0.31426 0.56736 0.0
C114 C 0.37114 0.32861 0.53591 0.0
C115 C 0.36637 0.31498 0.50714 0.0
C116 C 0.3363 0.2514 0.46821 0.0
C117 C 0.33271 0.22765 0.45127 0.0
C118 C 0.30709 0.21235 0.44994 0.0
C119 C 0.28442 0.22063 0.46537 0.0
C120 C 0.28771 0.24523 0.48113 0.0
C121 C 0.31339 0.26053 0.48243 0.0
C122 C 0.37508 0.29346 0.43464 0.0
C123 C 0.4021 0.30563 0.43263 0.0
C124 C 0.40704 0.3227 0.40263 0.0
C125 C 0.38495 0.32803 0.37394 0.0
C126 C 0.35756 0.31638 0.37644 0.0
C127 C 0.35268 0.29924 0.40654 0.0
Tb128 Tb 0.02091 0.9696 0.50522 0.0
C129 C 0.96338 0.0908 0.49826 0.0
N130 N 0.9901 0.08026 0.51339 0.0
C131 C 0.01131 0.12413 0.49203 0.0
C132 C 0.95965 0.11843 0.47877 0.0
C133 C 0.01393 0.09657 0.51096 0.0
C134 C 0.98408 0.13507 0.47567 0.0
C135 C 0.91177 0.08359 0.48613 0.0
C136 C 0.93985 0.07338 0.50156 0.0
C137 C 0.90792 0.11114 0.46678 0.0
C138 C 0.93179 0.12844 0.46295 0.0
Tb139 Tb 0.9918 0.03541 0.54431 0.0
N140 N 0.94445 0.04674 0.52041 0.0
C141 C 0.88835 0.06609 0.4913 0.0
C142 C 0.92134 0.03068 0.52767 0.0
C143 C 0.89314 0.0397 0.51256 0.0
H144 H 0.03484 0.08871 0.52449 0.0
H145 H 0.87504 0.02657 0.51802 0.0
H146 H 0.98334 0.91534 0.53591 0.0
H147 H 0.13641 0.98808 0.52212 0.0
H148 H 0.92401 0.01145 0.54612 0.0
H149 H 0.86644 0.07315 0.47998 0.0
H150 H 0.08619 0.99583 0.49338 0.0
H151 H 0.03027 0.13701 0.49041 0.0
H152 H 0.88652 0.11945 0.45507 0.0
H153 H 0.92845 0.14962 0.4479 0.0
H154 H 0.99285 0.87071 0.5776 0.0
H155 H 0.98212 0.15641 0.46096 0.0
H156 H 0.14932 0.94792 0.5696 0.0
N157 N 0.02716 0.92805 0.54329 0.0
C158 C 0.05476 0.92119 0.5591 0.0
C159 C 0.01041 0.88482 0.57276 0.0
C160 C 0.06116 0.8961 0.58318 0.0
C161 C 0.00506 0.91011 0.5493 0.0
C162 C 0.03855 0.8778 0.58982 0.0
N163 N 0.06926 0.96394 0.52798 0.0
C164 C 0.09076 0.97987 0.51584 0.0
C165 C 0.10526 0.93372 0.56771 0.0
C166 C 0.07638 0.94004 0.55169 0.0
C167 C 0.12688 0.952 0.55792 0.0
C168 C 0.11965 0.97482 0.53134 0.0
H169 H 0.04257 0.85813 0.60784 0.0
H170 H 0.09527 0.87091 0.61819 0.0
H171 H 0.1338 0.90385 0.6048 0.0
O172 O 0.03949 0.96403 0.46178 0.0
O173 O 0.02107 0.96556 0.5604 0.0
O174 O 0.0307 0.01094 0.57086 0.0
O175 O 0.00773 0.93498 0.48039 0.0
O176 O 0.03838 0.01249 0.49115 0.0
O177 O 0.03722 0.03371 0.53863 0.0
O178 O 0.9739 0.03428 0.58991 0.0
O179 O 0.9866 0.04061 0.48828 0.0
O180 O 0.98359 0.99471 0.4753 0.0
O181 O 0.00354 0.0672 0.57399 0.0
O182 O 0.97195 0.99323 0.55469 0.0
O183 O 0.97487 0.97093 0.50811 0.0
C184 C 0.03207 0.98323 0.58071 0.0
C185 C 0.0253 0.92377 0.43089 0.0
C186 C 0.0432 0.91371 0.38033 0.0
C187 C 0.02432 0.89064 0.37886 0.0
C188 C 0.00672 0.9005 0.42877 0.0
C189 C 0.00631 0.88408 0.40297 0.0
C190 C 0.04381 0.93016 0.40669 0.0
C191 C 0.0473 0.03191 0.5105 0.0
C192 C 0.02442 0.9413 0.45798 0.0
C193 C 0.08979 0.89014 0.59974 0.0
C194 C 0.11175 0.90895 0.59213 0.0
C195 C 0.97931 0.02254 0.46679 0.0
C196 C 0.98788 0.07063 0.62705 0.0
C197 C 0.96811 0.07677 0.67766 0.0
C198 C 0.9907 0.09519 0.68636 0.0
C199 C 0.01014 0.08936 0.63616 0.0
C200 C 0.9666 0.06455 0.64781 0.0
C201 C 0.01148 0.10154 0.6656 0.0
C202 C 0.96294 0.97439 0.53452 0.0
C203 C 0.98804 0.05702 0.5966 0.0
H204 H 0.02371 0.87742 0.35917 0.0
H205 H 0.99228 0.89501 0.44699 0.0
H206 H 0.99192 0.86621 0.40162 0.0
H207 H 0.05819 0.94808 0.40795 0.0
H208 H 0.9921 0.10486 0.70918 0.0
H209 H 0.02684 0.09436 0.62074 0.0
H210 H 0.94929 0.05017 0.64114 0.0
H211 H 0.02877 0.11584 0.67244 0.0
Tb212 Tb 0.46412 0.49281 0.99084 0.0
C213 C 0.58923 0.53726 0.04045 0.0
N214 N 0.57638 0.51282 0.05231 0.0
C215 C 0.6206 0.48621 0.05693 0.0
C216 C 0.61836 0.53706 0.03601 0.0
C217 C 0.59171 0.48754 0.06116 0.0
C218 C 0.63397 0.51105 0.04418 0.0
C219 C 0.58551 0.58841 0.02033 0.0
C220 C 0.5729 0.56255 0.03228 0.0
C221 C 0.61457 0.58836 0.01597 0.0
C222 C 0.6309 0.56273 0.0236 0.0
Tb223 Tb 0.52924 0.51784 0.05796 0.0
N224 N 0.54449 0.56158 0.03557 0.0
C225 C 0.56859 0.61357 0.01345 0.0
C226 C 0.52826 0.58626 0.03001 0.0
C227 C 0.5399 0.61249 0.01845 0.0
H228 H 0.58196 0.46855 0.07244 0.0
H229 H 0.52687 0.63196 0.01401 0.0
H230 H 0.40845 0.53056 0.00223 0.0
H231 H 0.48497 0.37835 0.00793 0.0
H232 H 0.5067 0.58623 0.03547 0.0
H233 H 0.57763 0.63399 0.00508 0.0
H234 H 0.49261 0.42858 0.98623 0.0
H235 H 0.63263 0.46609 0.06387 0.0
H236 H 0.62464 0.60802 0.00677 0.0
H237 H 0.65326 0.56302 0.02001 0.0
H238 H 0.36313 0.52116 0.02519 0.0
H239 H 0.6564 0.50998 0.04107 0.0
H240 H 0.44331 0.36505 0.0367 0.0
N241 N 0.42189 0.48677 0.01164 0.0
C242 C 0.41517 0.45929 0.02257 0.0
C243 C 0.37765 0.50359 0.02474 0.0
C244 C 0.38958 0.45294 0.03585 0.0
C245 C 0.40339 0.50888 0.01196 0.0
C246 C 0.37077 0.47552 0.03689 0.0
N247 N 0.45907 0.44474 0.0082 0.0
C248 C 0.47596 0.42364 1.00142 0.0
C249 C 0.42838 0.40888 0.03249 0.0
C250 C 0.43464 0.43766 0.02138 0.0
C251 C 0.44736 0.38743 0.02869 0.0
C252 C 0.47099 0.39484 0.01258 0.0
H253 H 0.35088 0.47152 0.04692 0.0
H254 H 0.36421 0.41905 0.05826 0.0
H255 H 0.39781 0.38046 0.05466 0.0
O256 O 0.45984 0.47572 0.94431 0.0
O257 O 0.46034 0.49008 0.04509 0.0
O258 O 0.50618 0.47922 0.07442 0.0
O259 O 0.42906 0.50695 0.95244 0.0
O260 O 0.50824 0.47558 0.99356 0.0
O261 O 0.52895 0.47323 0.05017 0.0
O262 O 0.52258 0.53949 0.09783 0.0
O263 O 0.5341 0.52637 0.00391 0.0
O264 O 0.48819 0.52972 0.97146 0.0
O265 O 0.55939 0.51127 0.10351 0.0
O266 O 0.48638 0.53851 0.05183 0.0
O267 O 0.46291 0.53786 0.99649 0.0
C268 C 0.47802 0.47721 0.07194 0.0
C269 C 0.41927 0.49135 0.89744 0.0
C270 C 0.40992 0.47464 0.84232 0.0
C271 C 0.38703 0.49481 0.83154 0.0
C272 C 0.39616 0.51122 0.88593 0.0
C273 C 0.38018 0.51286 0.85326 0.0
C274 C 0.42594 0.4728 0.87556 0.0
C275 C 0.52734 0.46466 0.02044 0.0
C276 C 0.43645 0.49108 0.93182 0.0
C277 C 0.38372 0.42439 0.04784 0.0
C278 C 0.403 0.40242 0.04603 0.0
C279 C 0.51613 0.53423 0.97512 0.0
C280 C 0.54105 0.51601 0.15325 0.0
C281 C 0.54327 0.52281 0.21245 0.0
C282 C 0.53454 0.49437 0.2203 0.0
C283 C 0.5327 0.48771 0.16171 0.0
C284 C 0.54613 0.53351 0.17854 0.0
C285 C 0.52921 0.47704 0.19503 0.0
C286 C 0.46691 0.54863 0.02502 0.0
C287 C 0.54519 0.52753 0.1184 0.0
H288 H 0.37414 0.4964 0.80632 0.0
H289 H 0.39049 0.52576 0.90209 0.0
H290 H 0.36245 0.52825 0.84469 0.0
H291 H 0.44372 0.45741 0.88404 0.0
H292 H 0.53251 0.48522 0.24613 0.0
H293 H 0.52929 0.47387 0.14264 0.0
H294 H 0.55238 0.55546 0.17171 0.0
H295 H 0.5228 0.45513 0.20142 0.0
H296 H 0.25499 0.20679 0.5186 0.0
H297 H 0.21415 0.17501 0.52199 0.0
H298 H 0.21417 0.16117 0.41892 0.0
H299 H 0.25453 0.1938 0.41488 0.0
H300 H 0.1592 0.1666 0.43121 0.0
H301 H 0.24498 0.11191 0.48486 0.0
H302 H 0.29105 0.10162 0.52471 0.0
H303 H 0.24695 0.10229 0.60953 0.0
H304 H 0.20066 0.11299 0.57016 0.0
H305 H 0.06729 0.04544 0.44973 0.0
H306 H 0.10758 0.07653 0.43803 0.0
H307 H 0.12198 0.09186 0.54213 0.0
H308 H 0.08301 0.05996 0.55426 0.0
H309 H 0.17112 0.08366 0.52491 0.0
H310 H 0.08565 0.14139 0.4711 0.0
H311 H 0.03968 0.15225 0.43106 0.0
H312 H 0.08283 0.14572 0.34686 0.0
H313 H 0.12902 0.13464 0.38634 0.0
C314 C 0.24603 0.19745 0.49639 0.0
C315 C 0.25821 0.2028 0.46651 0.0
C316 C 0.22283 0.17901 0.4985 0.0
C317 C 0.21138 0.1653 0.4709 0.0
C318 C 0.22276 0.17136 0.4406 0.0
C319 C 0.24599 0.18984 0.43845 0.0
C320 C 0.18822 0.14398 0.47423 0.0
C321 C 0.1619 0.14824 0.45142 0.0
C322 C 0.19162 0.12016 0.50077 0.0
C323 C 0.21939 0.11348 0.52453 0.0
C324 C 0.24514 0.11005 0.512 0.0
C325 C 0.27128 0.10412 0.5345 0.0
C326 C 0.27193 0.10136 0.56962 0.0
C327 C 0.24642 0.10445 0.58232 0.0
C328 C 0.22022 0.11042 0.55992 0.0
C329 C 0.0792 0.05535 0.4701 0.0
C330 C 0.07177 0.0504 0.50283 0.0
C331 C 0.10207 0.07331 0.46334 0.0
C332 C 0.11761 0.08699 0.48905 0.0
C333 C 0.11037 0.08168 0.52179 0.0
C334 C 0.08789 0.06352 0.52865 0.0
C335 C 0.14166 0.10663 0.48248 0.0
C336 C 0.16833 0.10196 0.50461 0.0
C337 C 0.13848 0.13007 0.45538 0.0
C338 C 0.11073 0.13691 0.4317 0.0
C339 C 0.0853 0.14209 0.44407 0.0
C340 C 0.05921 0.1483 0.42149 0.0
C341 C 0.05832 0.14954 0.3865 0.0
C342 C 0.08354 0.1447 0.37398 0.0
C343 C 0.10968 0.1385 0.39643 0.0
H344 H 0.0381 0.15432 0.36909 0.0
H345 H 0.2922 0.09677 0.58701 0.0
H346 H 0.32348 0.78446 0.98165 0.0
H347 H 0.34991 0.73987 0.98254 0.0
H348 H 0.34758 0.71617 0.08974 0.0
H349 H 0.32105 0.76092 0.08902 0.0
H350 H 0.40286 0.70838 0.07164 0.0
H351 H 0.30392 0.68414 0.03766 0.0
H352 H 0.25513 0.69055 0.00304 0.0
H353 H 0.29043 0.68424 0.91296 0.0
H354 H 0.33952 0.67821 0.94699 0.0
H355 H 0.45467 0.56628 0.08236 0.0
H356 H 0.42567 0.60801 0.086 0.0
H357 H 0.41008 0.62958 0.97632 0.0
H358 H 0.43814 0.5872 0.97252 0.0
H359 H 0.36278 0.63777 0.9985 0.0
H360 H 0.46147 0.66367 0.03043 0.0
H361 H 0.51085 0.658 0.06364 0.0
H362 H 0.47753 0.66277 0.15538 0.0
H363 H 0.42786 0.66797 0.12281 0.0
C364 C 0.32871 0.76981 0.00545 0.0
C365 C 0.32024 0.77618 0.03529 0.0
C366 C 0.34366 0.74429 0.00588 0.0
C367 C 0.35057 0.72467 0.03617 0.0
C368 C 0.34241 0.73104 0.06611 0.0
C369 C 0.32713 0.75647 0.06562 0.0
C370 C 0.36632 0.69754 0.03633 0.0
C371 C 0.39398 0.69268 0.05608 0.0
C372 C 0.35495 0.67749 0.01536 0.0
C373 C 0.32543 0.68099 0.99485 0.0
C374 C 0.30132 0.68436 0.01043 0.0
C375 C 0.2736 0.68788 0.99092 0.0
C376 C 0.26969 0.68788 0.95581 0.0
C377 C 0.29349 0.68428 0.94015 0.0
C378 C 0.32127 0.68078 0.95955 0.0
C379 C 0.44503 0.57991 0.05902 0.0
C380 C 0.44881 0.57356 0.02715 0.0
C381 C 0.42854 0.60385 0.06113 0.0
C382 C 0.4161 0.62233 0.03147 0.0
C383 C 0.41948 0.61571 0.99959 0.0
C384 C 0.43557 0.5915 0.99744 0.0
C385 C 0.39962 0.64858 0.03355 0.0
C386 C 0.37175 0.65334 0.0142 0.0
C387 C 0.41097 0.66868 0.05463 0.0
C388 C 0.44089 0.66594 0.0742 0.0
C389 C 0.46464 0.66332 0.05772 0.0
C390 C 0.49269 0.66019 0.07643 0.0
C391 C 0.49731 0.65995 0.11161 0.0
C392 C 0.4739 0.66292 0.12814 0.0
C393 C 0.4458 0.66596 0.10956 0.0
H394 H 0.51904 0.65753 0.12606 0.0
H395 H 0.24821 0.6906 0.94074 0.0
H396 H 0.75734 0.7954 0.53414 0.0
H397 H 0.79129 0.834 0.52577 0.0
H398 H 0.81107 0.83284 0.63431 0.0
H399 H 0.77633 0.79473 0.6429 0.0
H400 H 0.80912 0.88792 0.59857 0.0
H401 H 0.85464 0.79762 0.59711 0.0
H402 H 0.859 0.75099 0.57835 0.0
H403 H 0.85843 0.79326 0.47585 0.0
H404 H 0.85362 0.84015 0.49392 0.0
H405 H 0.94451 0.95876 0.59565 0.0
H406 H 0.90565 0.92599 0.60772 0.0
H407 H 0.88725 0.91589 0.5018 0.0
H408 H 0.9265 0.94779 0.48993 0.0
H409 H 0.88875 0.86624 0.53926 0.0
H410 H 0.84377 0.95715 0.54089 0.0
H411 H 0.83969 0.00364 0.5601 0.0
H412 H 0.83952 0.96085 0.66221 0.0
H413 H 0.84407 0.91409 0.64374 0.0
C414 C 0.76834 0.80376 0.55624 0.0
C415 C 0.7642 0.79175 0.58924 0.0
C416 C 0.78798 0.8257 0.55141 0.0
C417 C 0.8041 0.836 0.57945 0.0
C418 C 0.79899 0.82513 0.61231 0.0
C419 C 0.7793 0.80316 0.61718 0.0
C420 C 0.82756 0.85667 0.57452 0.0
C421 C 0.82672 0.88314 0.58592 0.0
C422 C 0.85036 0.85054 0.5577 0.0
C423 C 0.8535 0.82238 0.54682 0.0
C424 C 0.85523 0.79696 0.57053 0.0
C425 C 0.85782 0.77048 0.56002 0.0
C426 C 0.85892 0.76916 0.52591 0.0
C427 C 0.85753 0.79432 0.50226 0.0
C428 C 0.8549 0.82085 0.51262 0.0
C429 C 0.93199 0.94969 0.57494 0.0
C430 C 0.93856 0.95581 0.54186 0.0
C431 C 0.9097 0.93104 0.58182 0.0
C432 C 0.89323 0.91862 0.5556 0.0
C433 C 0.89963 0.92509 0.5225 0.0
C434 C 0.92208 0.94337 0.51573 0.0
C435 C 0.87012 0.89794 0.56258 0.0
C436 C 0.87114 0.87125 0.55178 0.0
C437 C 0.84755 0.90398 0.57992 0.0
C438 C 0.84455 0.9321 0.59098 0.0
C439 C 0.84308 0.95765 0.5675 0.0
C440 C 0.84067 0.98406 0.57825 0.0
C441 C 0.83944 0.9852 0.61238 0.0
C442 C 0.84053 0.95993 0.6358 0.0
C443 C 0.84301 0.93347 0.6252 0.0
H444 H 0.83757 0.00566 0.62066 0.0
H445 H 0.86092 0.74864 0.51783 0.0
H446 H 0.74163 0.31034 0.99457 0.0
H447 H 0.70252 0.34418 0.99437 0.0
H448 H 0.64714 0.27408 0.02022 0.0
H449 H 0.68637 0.23994 0.02059 0.0
H450 H 0.61777 0.31688 0.97293 0.0
H451 H 0.68018 0.30866 0.08148 0.0
H452 H 0.72683 0.30895 0.12017 0.0
H453 H 0.73808 0.39671 0.07841 0.0
H454 H 0.69167 0.39681 0.03911 0.0
H455 H 0.55199 0.42296 0.07163 0.0
H456 H 0.58529 0.38443 0.06831 0.0
H457 H 0.57912 0.41318 0.96031 0.0
H458 H 0.54574 0.45196 0.96353 0.0
H459 H 0.6376 0.38845 0.05095 0.0
H460 H 0.58844 0.35521 0.92199 0.0
H461 H 0.54068 0.35245 0.8862 0.0
H462 H 0.50028 0.34319 0.975 0.0
H463 H 0.54777 0.34595 0.01134 0.0
C464 C 0.72116 0.30207 1.00028 0.0
C465 C 0.71725 0.27243 0.00807 0.0
C466 C 0.69878 0.32146 1.00003 0.0
C467 C 0.67205 0.31168 0.00778 0.0
C468 C 0.66762 0.2821 0.0142 0.0
C469 C 0.69004 0.26262 0.01438 0.0
C470 C 0.64932 0.33243 0.0107 0.0
C471 C 0.62208 0.33254 0.98996 0.0
C472 C 0.65477 0.35258 0.03333 0.0
C473 C 0.68257 0.35265 0.05715 0.0
C474 C 0.69269 0.32796 0.08039 0.0
C475 C 0.71908 0.32806 0.10244 0.0
C476 C 0.73544 0.35281 0.10169 0.0
C477 C 0.7254 0.37754 0.07894 0.0
C478 C 0.69904 0.37754 0.05679 0.0
C479 C 0.55777 0.42112 0.04716 0.0
C480 C 0.54657 0.44069 0.0179 0.0
C481 C 0.57673 0.39904 0.04529 0.0
C482 C 0.58467 0.39585 0.01407 0.0
C483 C 0.57306 0.41502 0.98462 0.0
C484 C 0.55408 0.43721 0.9865 0.0
C485 C 0.60612 0.37325 0.01281 0.0
C486 C 0.63322 0.37282 0.03387 0.0
C487 C 0.60033 0.3526 0.99087 0.0
C488 C 0.57165 0.35104 0.9693 0.0
C489 C 0.56936 0.35259 0.93387 0.0
C490 C 0.54233 0.3511 0.91349 0.0
C491 C 0.51744 0.34783 0.92832 0.0
C492 C 0.51954 0.346 0.96355 0.0
C493 C 0.5465 0.34761 0.98403 0.0
H494 H 0.49655 0.34661 0.91251 0.0
H495 H 0.75586 0.35285 0.11879 0.0
H496 H 0.14953 0.90526 0.11424 0.0
H497 H 0.12514 0.91297 0.16096 0.0
H498 H 0.20701 0.90591 0.22927 0.0
H499 H 0.23144 0.89685 0.18297 0.0
H500 H 0.1679 0.87756 0.25959 0.0
H501 H 0.17231 0.9715 0.19801 0.0
H502 H 0.16626 0.0095 0.14776 0.0
H503 H 0.07445 0.99803 0.13194 0.0
H504 H 0.07998 0.95965 0.18182 0.0
H505 H 0.10173 0.92163 0.39016 0.0
H506 H 0.13338 0.92458 0.34709 0.0
H507 H 0.05882 0.9219 0.26885 0.0
H508 H 0.02729 0.9192 0.31157 0.0
H509 H 0.09908 0.95933 0.24689 0.0
H510 H 0.09658 0.86161 0.30519 0.0
H511 H 0.10319 0.82398 0.35587 0.0
H512 H 0.19299 0.84403 0.37842 0.0
H513 H 0.18679 0.88208 0.32809 0.0
C514 C 0.16236 0.90499 0.13926 0.0
C515 C 0.19251 0.90047 0.14473 0.0
C516 C 0.14841 0.90981 0.1659 0.0
C517 C 0.16427 0.91057 0.19857 0.0
C518 C 0.1943 0.90566 0.20426 0.0
C519 C 0.20828 0.90069 0.17766 0.0
C520 C 0.14937 0.91581 0.22687 0.0
C521 C 0.1533 0.89577 0.25701 0.0
C522 C 0.13005 0.9394 0.22352 0.0
C523 C 0.1266 0.96252 0.19352 0.0
C524 C 0.15085 0.97693 0.18367 0.0
C525 C 0.14751 0.99856 0.15527 0.0
C526 C 0.12 0.00613 0.13662 0.0
C527 C 0.09575 0.99212 0.14639 0.0
C528 C 0.09897 0.97044 0.17475 0.0
C529 C 0.09214 0.92231 0.36365 0.0
C530 C 0.06211 0.91992 0.3542 0.0
C531 C 0.11021 0.9238 0.33913 0.0
C532 C 0.09847 0.92305 0.30482 0.0
C533 C 0.06837 0.92241 0.29515 0.0
C534 C 0.05039 0.92073 0.31959 0.0
C535 C 0.11731 0.92085 0.27918 0.0
C536 C 0.11407 0.94141 0.24955 0.0
C537 C 0.13739 0.89786 0.28306 0.0
C538 C 0.14115 0.87489 0.31314 0.0
C539 C 0.11768 0.85814 0.32111 0.0
C540 C 0.12135 0.83671 0.34974 0.0
C541 C 0.14847 0.83167 0.37041 0.0
C542 C 0.17199 0.848 0.36243 0.0
C543 C 0.16841 0.86948 0.33386 0.0
H544 H 0.15128 0.81507 0.39256 0.0
H545 H 0.11746 0.02289 0.11465 0.0
H546 H 0.64118 0.59965 0.71784 0.0
H547 H 0.61661 0.58236 0.76555 0.0
H548 H 0.58912 0.66866 0.76798 0.0
H549 H 0.61353 0.68619 0.71986 0.0
H550 H 0.60906 0.64143 0.83096 0.0
H551 H 0.54147 0.62167 0.73543 0.0
H552 H 0.52487 0.60244 0.6823 0.0
H553 H 0.54778 0.51723 0.73445 0.0
H554 H 0.56492 0.536 0.7878 0.0
H555 H 0.48584 0.56084 0.91407 0.0
H556 H 0.50513 0.58486 0.86464 0.0
H557 H 0.59199 0.56631 0.91895 0.0
H558 H 0.57297 0.54183 0.96817 0.0
H559 H 0.53789 0.56378 0.82564 0.0
H560 H 0.63555 0.61982 0.89401 0.0
H561 H 0.64871 0.64384 0.94427 0.0
H562 H 0.55912 0.66277 0.9428 0.0
H563 H 0.54543 0.6389 0.89257 0.0
C564 C 0.62959 0.61497 0.72816 0.0
C565 C 0.62915 0.64433 0.71475 0.0
C566 C 0.6156 0.60503 0.75554 0.0
C567 C 0.60069 0.62414 0.77011 0.0
C568 C 0.60046 0.6535 0.75713 0.0
C569 C 0.6145 0.6635 0.72968 0.0
C570 C 0.58581 0.61343 0.79926 0.0
C571 C 0.59349 0.62447 0.82976 0.0
C572 C 0.56504 0.59167 0.79758 0.0
C573 C 0.55471 0.58028 0.76555 0.0
C574 C 0.54318 0.59886 0.73551 0.0
C575 C 0.53364 0.58803 0.70536 0.0
C576 C 0.53533 0.55864 0.70498 0.0
C577 C 0.54651 0.54 0.73477 0.0
C578 C 0.55612 0.55072 0.76498 0.0
C579 C 0.50906 0.56194 0.91564 0.0
C580 C 0.52782 0.54963 0.94542 0.0
C581 C 0.52005 0.5757 0.88729 0.0
C582 C 0.55 0.57768 0.88816 0.0
C583 C 0.56879 0.56553 0.91785 0.0
C584 C 0.55783 0.55159 0.94611 0.0
C585 C 0.56164 0.59135 0.85755 0.0
C586 C 0.55342 0.58079 0.8268 0.0
C587 C 0.58152 0.61387 0.85882 0.0
C588 C 0.58949 0.62742 0.88968 0.0
C589 C 0.61867 0.62909 0.90445 0.0
C590 C 0.62622 0.64268 0.93292 0.0
C591 C 0.60478 0.65489 0.94665 0.0
C592 C 0.57571 0.65331 0.93213 0.0
C593 C 0.56803 0.63962 0.90378 0.0
H594 H 0.61068 0.6655 0.9686 0.0
H595 H 0.52793 0.5503 0.68161 0.0
H596 H 0.90583 0.14246 0.15806 0.0
H597 H 0.92514 0.11992 0.21617 0.0
H598 H 0.84155 0.08515 0.22717 0.0
H599 H 0.82202 0.1076 0.16875 0.0
H600 H 0.86484 0.10656 0.28283 0.0
H601 H 0.89561 0.04253 0.21534 0.0
H602 H 0.91811 0.02799 0.16954 0.0
H603 H 1.00005 0.05798 0.21389 0.0
H604 H 0.97794 0.07309 0.25971 0.0
H605 H 0.95546 0.99144 0.41783 0.0
H606 H 0.93117 0.00924 0.3599 0.0
H607 H 0.94437 0.09605 0.37789 0.0
H608 H 0.96985 0.07847 0.43544 0.0
H609 H 0.95279 0.04389 0.30783 0.0
H610 H 0.88017 0.13388 0.33523 0.0
H611 H 0.85342 0.14353 0.38002 0.0
H612 H 0.84988 0.05339 0.41558 0.0
H613 H 0.87608 0.04317 0.37067 0.0
C614 C 0.89159 0.12973 0.17263 0.0
C615 C 0.86241 0.12664 0.15859 0.0
C616 C 0.90266 0.11691 0.20593 0.0
C617 C 0.8849 0.10054 0.22593 0.0
C618 C 0.85567 0.09768 0.21221 0.0
C619 C 0.84453 0.11056 0.17884 0.0
C620 C 0.89694 0.08665 0.2612 0.0
C621 C 0.88408 0.09289 0.28828 0.0
C622 C 0.92165 0.06823 0.26832 0.0
C623 C 0.93505 0.05918 0.2408 0.0
C624 C 0.91838 0.04624 0.21518 0.0
C625 C 0.93107 0.03786 0.18923 0.0
C626 C 0.96048 0.04212 0.18876 0.0
C627 C 0.97726 0.05472 0.21427 0.0
C628 C 0.96467 0.06318 0.24025 0.0
C629 C 0.95326 0.01435 0.40961 0.0
C630 C 0.96422 0.03355 0.43172 0.0
C631 C 0.93935 0.02445 0.37641 0.0
C632 C 0.93571 0.05392 0.36474 0.0
C633 C 0.94658 0.07319 0.3866 0.0
C634 C 0.96094 0.0631 0.41966 0.0
C635 C 0.92119 0.06452 0.32937 0.0
C636 C 0.9336 0.05764 0.30232 0.0
C637 C 0.89573 0.08181 0.32228 0.0
C638 C 0.88035 0.0878 0.34974 0.0
C639 C 0.87363 0.11612 0.35256 0.0
C640 C 0.85849 0.12168 0.37791 0.0
C641 C 0.84985 0.09908 0.40051 0.0
C642 C 0.85653 0.07087 0.398 0.0
C643 C 0.87159 0.06519 0.37265 0.0
H644 H 0.83807 0.10343 0.42007 0.0
H645 H 0.97027 0.03561 0.16866 0.0
H646 H 0.40011 0.37031 0.57025 0.0
H647 H 0.4092 0.39402 0.62034 0.0
H648 H 0.39526 0.31484 0.68427 0.0
H649 H 0.38461 0.29133 0.63407 0.0
H650 H 0.36936 0.35639 0.7031 0.0
H651 H 0.46436 0.34219 0.68102 0.0
H652 H 0.50346 0.3442 0.64698 0.0
H653 H 0.49704 0.43597 0.62835 0.0
H654 H 0.4576 0.43451 0.66189 0.0
H655 H 0.41582 0.41618 0.85375 0.0
H656 H 0.41811 0.385 0.81097 0.0
H657 H 0.41976 0.45934 0.73416 0.0
H658 H 0.41765 0.49038 0.77669 0.0
H659 H 0.45564 0.41571 0.72636 0.0
H660 H 0.35703 0.42844 0.74374 0.0
H661 H 0.31834 0.42592 0.77846 0.0
H662 H 0.33301 0.3352 0.80705 0.0
H663 H 0.37209 0.33727 0.77285 0.0
C664 C 0.39865 0.35796 0.59488 0.0
C665 C 0.39165 0.32882 0.59798 0.0
C666 C 0.40429 0.37148 0.62365 0.0
C667 C 0.40348 0.35613 0.65628 0.0
C668 C 0.39626 0.32713 0.65945 0.0
C669 C 0.39041 0.31364 0.63067 0.0
C670 C 0.40924 0.37058 0.68691 0.0
C671 C 0.38854 0.36888 0.70849 0.0
C672 C 0.43407 0.38723 0.6939 0.0
C673 C 0.45784 0.38822 0.67375 0.0
C674 C 0.47113 0.3628 0.66946 0.0
C675 C 0.49339 0.36384 0.65028 0.0
C676 C 0.50269 0.3902 0.63545 0.0
C677 C 0.4898 0.41557 0.63983 0.0
C678 C 0.46751 0.41465 0.65895 0.0
C679 C 0.41737 0.42577 0.82791 0.0
C680 C 0.41629 0.45566 0.81842 0.0
C681 C 0.41849 0.40799 0.80347 0.0
C682 C 0.41869 0.41988 0.76926 0.0
C683 C 0.41954 0.44969 0.76033 0.0
C684 C 0.4182 0.4674 0.78461 0.0
C685 C 0.41563 0.40169 0.74208 0.0
C686 C 0.43675 0.4028 0.72114 0.0
C687 C 0.3913 0.38434 0.73577 0.0
C688 C 0.36768 0.38306 0.75608 0.0
C689 C 0.35214 0.408 0.75765 0.0
C690 C 0.33013 0.40664 0.77719 0.0
C691 C 0.32328 0.38043 0.79503 0.0
C692 C 0.33837 0.3555 0.79327 0.0
C693 C 0.36045 0.35674 0.77381 0.0
H694 H 0.30622 0.37942 0.81015 0.0
H695 H 0.51993 0.39096 0.62062 0.0
H696 H 0.59933 0.636 0.48735 0.0
H697 H 0.57625 0.61652 0.43714 0.0
H698 H 0.64313 0.65143 0.38247 0.0
H699 H 0.66595 0.67172 0.43234 0.0
H700 H 0.58976 0.65591 0.34111 0.0
H701 H 0.64812 0.58324 0.42018 0.0
H702 H 0.6645 0.55342 0.47607 0.0
H703 H 0.57951 0.51927 0.47497 0.0
H704 H 0.56251 0.54924 0.41924 0.0
H705 H 0.5869 0.56126 0.22002 0.0
H706 H 0.59961 0.5894 0.26585 0.0
H707 H 0.5294 0.55279 0.31343 0.0
H708 H 0.5159 0.52513 0.26709 0.0
H709 H 0.58098 0.55029 0.3582 0.0
H710 H 0.52375 0.62031 0.27614 0.0
H711 H 0.50836 0.6492 0.21947 0.0
H712 H 0.59163 0.68778 0.2252 0.0
H713 H 0.60771 0.65875 0.28172 0.0
C714 C 0.6088 0.64013 0.46442 0.0
C715 C 0.63465 0.65524 0.46399 0.0
C716 C 0.59569 0.62877 0.43581 0.0
C717 C 0.60821 0.63215 0.40622 0.0
C718 C 0.63316 0.64846 0.40507 0.0
C719 C 0.64631 0.65982 0.4337 0.0
C720 C 0.59651 0.61697 0.37747 0.0
C721 C 0.58804 0.63281 0.34475 0.0
C722 C 0.59377 0.58686 0.38234 0.0
C723 C 0.60397 0.56871 0.41574 0.0
C724 C 0.63287 0.56954 0.43199 0.0
C725 C 0.64228 0.55259 0.46361 0.0
C726 C 0.62304 0.53452 0.47911 0.0
C727 C 0.59437 0.53332 0.46296 0.0
C728 C 0.58484 0.55027 0.43135 0.0
C729 C 0.57372 0.55957 0.23979 0.0
C730 C 0.55031 0.54087 0.23973 0.0
C731 C 0.58113 0.57563 0.26609 0.0
C732 C 0.56535 0.57332 0.29295 0.0
C733 C 0.54189 0.55485 0.29295 0.0
C734 C 0.53431 0.53894 0.26652 0.0
C735 C 0.57426 0.58918 0.3218 0.0
C736 C 0.58237 0.57343 0.35456 0.0
C737 C 0.57672 0.61932 0.31687 0.0
C738 C 0.56703 0.63714 0.28307 0.0
C739 C 0.53887 0.63479 0.26522 0.0
C740 C 0.53 0.65121 0.23313 0.0
C741 C 0.54902 0.67026 0.2187 0.0
C742 C 0.57692 0.67299 0.2364 0.0
C743 C 0.58592 0.65657 0.26849 0.0
H744 H 0.54212 0.68293 0.19383 0.0
H745 H 0.63036 0.52141 0.5036 0.0
H746 H 0.85504 0.09312 0.93746 0.0
H747 H 0.87291 0.07195 0.89346 0.0
H748 H 0.81695 0.12875 0.81564 0.0
H749 H 0.79817 0.14959 0.85966 0.0
H750 H 0.82551 0.07319 0.79755 0.0
H751 H 0.88078 0.15067 0.83946 0.0
H752 H 0.90701 0.17526 0.88455 0.0
H753 H 0.9663 0.1036 0.91783 0.0
H754 H 0.94009 0.07838 0.87325 0.0
H755 H 0.91128 0.09324 0.66423 0.0
H756 H 0.87922 0.09384 0.70625 0.0
H757 H 0.94479 0.04841 0.78431 0.0
H758 H 0.97703 0.04878 0.74254 0.0
H759 H 0.92957 0.09482 0.80309 0.0
H760 H 0.87787 0.01908 0.75677 0.0
H761 H 0.85203 0.99467 0.71132 0.0
H762 H 0.7868 0.06147 0.68572 0.0
H763 H 0.81251 0.08657 0.73066 0.0
C764 C 0.84569 0.10048 0.91108 0.0
C765 C 0.82542 0.12337 0.90214 0.0
C766 C 0.85607 0.0884 0.88591 0.0
C767 C 0.84656 0.09906 0.85129 0.0
C768 C 0.82461 0.12025 0.84221 0.0
C769 C 0.81416 0.13235 0.86741 0.0
C770 C 0.86256 0.09128 0.82519 0.0
C771 C 0.84822 0.07798 0.79852 0.0
C772 C 0.89227 0.09722 0.82681 0.0
C773 C 0.90831 0.11253 0.85328 0.0
C774 C 0.89929 0.14008 0.85655 0.0
C775 C 0.91416 0.15413 0.882 0.0
C776 C 0.93827 0.14097 0.9041 0.0
C777 C 0.9476 0.11375 0.90073 0.0
C778 C 0.93275 0.09957 0.87538 0.0
C779 C 0.91834 0.08261 0.69015 0.0
C780 C 0.94646 0.07092 0.70033 0.0
C781 C 0.90005 0.08291 0.71416 0.0
C782 C 0.90955 0.07116 0.74855 0.0
C783 C 0.93699 0.05771 0.75803 0.0
C784 C 0.95534 0.05777 0.73419 0.0
C785 C 0.89281 0.0762 0.77534 0.0
C786 C 0.90698 0.08944 0.80213 0.0
C787 C 0.86306 0.07008 0.77368 0.0
C788 C 0.84728 0.05485 0.74693 0.0
C789 C 0.85812 0.02869 0.7413 0.0
C790 C 0.84349 0.0147 0.71564 0.0
C791 C 0.81783 0.02654 0.69559 0.0
C792 C 0.8067 0.05234 0.70125 0.0
C793 C 0.82128 0.06644 0.72684 0.0
H794 H 0.80655 0.01569 0.67571 0.0
H795 H 0.94975 0.15188 0.92378 0.0
H796 H 0.41813 0.37571 0.36492 0.0
H797 H 0.43075 0.40066 0.31179 0.0
H798 H 0.37744 0.34377 0.25565 0.0
H799 H 0.36575 0.31787 0.30886 0.0
H800 H 0.42682 0.34967 0.23394 0.0
H801 H 0.35635 0.41429 0.25432 0.0
H802 H 0.33372 0.44487 0.28714 0.0
H803 H 0.40941 0.49626 0.2958 0.0
H804 H 0.43266 0.46575 0.26341 0.0
H805 H 0.42469 0.48357 0.08882 0.0
H806 H 0.40518 0.45687 0.13664 0.0
H807 H 0.486 0.40946 0.17 0.0
H808 H 0.50444 0.4342 0.12044 0.0
H809 H 0.41853 0.4551 0.20042 0.0
H810 H 0.47916 0.34688 0.21613 0.0
H811 H 0.49794 0.31557 0.18102 0.0
H812 H 0.43378 0.34983 0.09529 0.0
H813 H 0.4147 0.38159 0.12973 0.0
C814 C 0.40914 0.3684 0.34131 0.0
C815 C 0.39092 0.34469 0.34129 0.0
C816 C 0.41615 0.38292 0.31085 0.0
C817 C 0.40485 0.37432 0.27957 0.0
C818 C 0.3864 0.35088 0.27941 0.0
C819 C 0.37948 0.33626 0.30988 0.0
C820 C 0.41307 0.38911 0.24722 0.0
C821 C 0.42488 0.37273 0.22655 0.0
C822 C 0.41025 0.41916 0.23722 0.0
C823 C 0.39634 0.43757 0.25669 0.0
C824 C 0.36826 0.43198 0.26344 0.0
C825 C 0.3553 0.44933 0.28193 0.0
C826 C 0.37014 0.47245 0.29361 0.0
C827 C 0.39795 0.47832 0.28676 0.0
C828 C 0.41102 0.46103 0.26831 0.0
C829 C 0.43799 0.46692 0.10585 0.0
C830 C 0.46605 0.46092 0.10075 0.0
C831 C 0.42696 0.45189 0.13348 0.0
C832 C 0.44392 0.43081 0.15694 0.0
C833 C 0.4721 0.42503 0.15197 0.0
C834 C 0.48284 0.43955 0.12387 0.0
C835 C 0.43252 0.41569 0.18718 0.0
C836 C 0.42026 0.43203 0.2076 0.0
C837 C 0.43438 0.38553 0.19659 0.0
C838 C 0.44565 0.36671 0.17548 0.0
C839 C 0.46905 0.34773 0.18977 0.0
C840 C 0.4798 0.33001 0.16994 0.0
C841 C 0.46716 0.33089 0.13585 0.0
C842 C 0.44371 0.34947 0.12155 0.0
C843 C 0.43296 0.36738 0.14118 0.0
H844 H 0.47545 0.31711 0.12054 0.0
H845 H 0.36007 0.48586 0.30792 0.0
H846 H 0.20986 0.91638 0.85998 0.0
H847 H 0.18114 0.92891 0.80299 0.0
H848 H 0.10275 0.91713 0.84538 0.0
H849 H 0.13147 0.90444 0.9027 0.0
H850 H 0.10262 0.89129 0.78653 0.0
H851 H 0.12192 0.98229 0.82267 0.0
H852 H 0.15264 0.01942 0.84574 0.0
H853 H 0.19959 0.02485 0.7625 0.0
H854 H 0.16942 0.98742 0.73918 0.0
H855 H 0.01016 0.95292 0.63308 0.0
H856 H 0.03536 0.93766 0.69149 0.0
H857 H 0.11501 0.97062 0.66206 0.0
H858 H 0.08898 0.98806 0.60455 0.0
H859 H 0.11243 0.98595 0.71701 0.0
H860 H 0.09877 0.89095 0.68489 0.0
H861 H 0.0715 0.85062 0.66424 0.0
H862 H 0.01591 0.85197 0.73811 0.0
H863 H 0.04343 0.89161 0.76004 0.0
C864 C 0.18651 0.91625 0.85716 0.0
C865 C 0.1729 0.90937 0.8858 0.0
C866 C 0.17014 0.9236 0.82462 0.0
C867 C 0.13983 0.92412 0.82001 0.0
C868 C 0.12612 0.9169 0.84844 0.0
C869 C 0.14252 0.90982 0.88113 0.0
C870 C 0.12261 0.93231 0.7854 0.0
C871 C 0.10445 0.9121 0.77137 0.0
C872 C 0.1255 0.95922 0.76548 0.0
C873 C 0.14357 0.98186 0.77935 0.0
C874 C 0.13895 0.99123 0.80943 0.0
C875 C 0.15624 0.01236 0.82252 0.0
C876 C 0.1781 0.02444 0.80564 0.0
C877 C 0.18267 0.01546 0.77557 0.0
C878 C 0.16546 0.9943 0.76238 0.0
C879 C 0.03309 0.95667 0.6393 0.0
C880 C 0.04776 0.97168 0.61476 0.0
C881 C 0.04763 0.94765 0.67256 0.0
C882 C 0.07738 0.95248 0.68143 0.0
C883 C 0.0921 0.96672 0.6562 0.0
C884 C 0.07732 0.97661 0.62333 0.0
C885 C 0.09285 0.94457 0.71728 0.0
C886 C 0.11059 0.965 0.73182 0.0
C887 C 0.08983 0.9177 0.73752 0.0
C888 C 0.07292 0.89439 0.72382 0.0
C889 C 0.08061 0.88275 0.69656 0.0
C890 C 0.06517 0.85999 0.68468 0.0
C891 C 0.04177 0.84904 0.69948 0.0
C892 C 0.03397 0.86055 0.72655 0.0
C893 C 0.0496 0.883 0.7389 0.0
H894 H 0.0298 0.8315 0.69012 0.0
H895 H 0.19146 0.0408 0.81582 0.0
loop_
_geom_bond_atom_site_label_1
_geom_bond_atom_site_label_2
_geom_bond_distance
_geom_bond_site_symmetry_2
_ccdc_geom_bond_type
P0 O11 1.490 . S
P0 C14 1.812 . S
P0 C20 1.803 . S
P0 C26 1.819 1_554 S
H1 C15 0.941 . S
H2 C16 0.939 . S
H3 C18 0.940 . S
H4 C19 0.940 . S
H5 C21 0.939 . S
H6 C22 0.942 . S
H7 C24 0.940 . S
H8 C25 0.939 . S
H9 C27 0.941 . S
H10 C31 0.939 . S
O11 P0 1.490 . S
H12 C28 0.939 . S
H13 C30 0.940 . S
C14 P0 1.812 . S
C14 C15 1.389 . S
C14 C19 1.391 . S
C15 H1 0.941 . S
C15 C14 1.389 . S
C15 C16 1.397 . S
C16 H2 0.939 . S
C16 C15 1.397 . S
C16 C17 1.378 . S
C17 C16 1.378 . S
C17 C18 1.378 . S
C18 H3 0.940 . S
C18 C17 1.378 . S
C18 C19 1.396 . S
C19 H4 0.940 . S
C19 C14 1.391 . S
C19 C18 1.396 . S
C20 P0 1.803 . S
C20 C21 1.378 . S
C20 C25 1.400 . S
C21 H5 0.939 . S
C21 C20 1.378 . S
C21 C22 1.361 . S
C22 H6 0.942 . S
C22 C21 1.361 . S
C22 C23 1.369 . S
C23 C22 1.369 . S
C23 C24 1.404 . S
C24 H7 0.940 . S
C24 C23 1.404 . S
C24 C25 1.389 . S
C25 H8 0.939 . S
C25 C20 1.400 . S
C25 C24 1.389 . S
C26 P0 1.819 1_556 S
C26 C27 1.391 . S
C26 C31 1.391 . S
C27 H9 0.941 . S
C27 C26 1.391 . S
C27 C28 1.396 . S
C28 H12 0.939 . S
C28 C27 1.396 . S
C28 C29 1.397 . S
C29 C28 1.397 . S
C29 C30 1.385 . S
C30 H13 0.940 . S
C30 C29 1.385 . S
C30 C31 1.388 . S
C31 H10 0.939 . S
C31 C26 1.391 . S
C31 C30 1.388 . S
P32 O43 1.490 . S
P32 C46 1.812 . S
P32 C52 1.803 . S
P32 C58 1.819 . S
H33 C47 0.941 . S
H34 C48 0.939 . S
H35 C50 0.940 . S
H36 C51 0.940 . S
H37 C53 0.939 . S
H38 C54 0.942 . S
H39 C56 0.940 . S
H40 C57 0.939 . S
H41 C59 0.941 . S
H42 C63 0.939 . S
O43 P32 1.490 . S
H44 C60 0.939 . S
H45 C62 0.940 . S
C46 P32 1.812 . S
C46 C47 1.389 . S
C46 C51 1.391 . S
C47 H33 0.941 . S
C47 C46 1.389 . S
C47 C48 1.397 . S
C48 H34 0.939 . S
C48 C47 1.397 . S
C48 C49 1.378 . S
C49 C48 1.378 . S
C49 C50 1.378 . S
C50 H35 0.940 . S
C50 C49 1.378 . S
C50 C51 1.396 . S
C51 H36 0.940 . S
C51 C46 1.391 . S
C51 C50 1.396 . S
C52 P32 1.803 . S
C52 C53 1.378 . S
C52 C57 1.400 . S
C53 H37 0.939 . S
C53 C52 1.378 . S
C53 C54 1.361 . S
C54 H38 0.942 . S
C54 C53 1.361 . S
C54 C55 1.369 . S
C55 C54 1.369 . S
C55 C56 1.404 . S
C56 H39 0.940 . S
C56 C55 1.404 . S
C56 C57 1.389 . S
C57 H40 0.939 . S
C57 C52 1.400 . S
C57 C56 1.389 . S
C58 P32 1.819 . S
C58 C59 1.391 . S
C58 C63 1.391 . S
C59 H41 0.941 . S
C59 C58 1.391 . S
C59 C60 1.396 . S
C60 H44 0.939 . S
C60 C59 1.396 . S
C60 C61 1.397 . S
C61 C60 1.397 . S
C61 C62 1.385 . S
C62 H45 0.940 . S
C62 C61 1.385 . S
C62 C63 1.388 . S
C63 H42 0.939 . S
C63 C58 1.391 . S
C63 C62 1.388 . S
P64 O75 1.490 . S
P64 C78 1.812 1_554 S
P64 C84 1.803 . S
P64 C90 1.819 . S
H65 C79 0.941 . S
H66 C80 0.939 . S
H67 C82 0.940 . S
H68 C83 0.940 1_554 S
H69 C85 0.939 . S
H70 C86 0.942 . S
H71 C88 0.940 1_556 S
H72 C89 0.948 . S
H73 C91 0.941 . S
H74 C95 0.939 . S
O75 P64 1.490 . S
H76 C92 0.939 . S
H77 C94 0.940 . S
C78 P64 1.812 1_556 S
C78 C79 1.389 . S
C78 C83 1.391 . S
C79 H65 0.941 . S
C79 C78 1.389 . S
C79 C80 1.397 . S
C80 H66 0.939 . S
C80 C79 1.397 . S
C80 C81 1.378 . S
C81 C80 1.378 . S
C81 C82 1.378 . S
C82 H67 0.940 . S
C82 C81 1.378 . S
C82 C83 1.396 . S
C83 H68 0.940 1_556 S
C83 C78 1.391 . S
C83 C82 1.396 . S
C84 P64 1.803 . S
C84 C85 1.378 . S
C84 C89 1.400 . S
C85 H69 0.939 . S
C85 C84 1.378 . S
C85 C86 1.361 . S
C86 H70 0.942 . S
C86 C85 1.361 . S
C86 C87 1.369 . S
C87 C86 1.369 . S
C87 C88 1.404 . S
C88 H71 0.940 1_554 S
C88 C87 1.404 . S
C88 C89 1.389 . S
C89 H72 0.948 . S
C89 C84 1.400 . S
C89 C88 1.389 . S
C90 P64 1.819 . S
C90 C91 1.391 . S
C90 C95 1.391 . S
C91 H73 0.941 . S
C91 C90 1.391 . S
C91 C92 1.396 . S
C92 H76 0.939 . S
C92 C91 1.396 . S
C92 C93 1.397 . S
C93 C92 1.397 . S
C93 C94 1.385 . S
C94 H77 0.940 . S
C94 C93 1.385 . S
C94 C95 1.388 . S
C95 H74 0.939 . S
C95 C90 1.391 . S
C95 C94 1.388 . S
P96 O107 1.490 . S
P96 C110 1.812 . S
P96 C116 1.803 . S
P96 C122 1.819 . S
H97 C111 0.941 . S
H98 C112 0.939 . S
H99 C114 0.940 . S
H100 C115 0.940 . S
H101 C117 0.939 . S
H102 C118 0.942 . S
H103 C120 0.940 . S
H104 C121 0.939 . S
H105 C123 0.941 . S
H106 C127 0.939 . S
O107 P96 1.490 . S
H108 C124 0.939 . S
H109 C126 0.940 . S
C110 P96 1.812 . S
C110 C111 1.389 . S
C110 C115 1.391 . S
C111 H97 0.941 . S
C111 C110 1.389 . S
C111 C112 1.397 . S
C112 H98 0.939 . S
C112 C111 1.397 . S
C112 C113 1.378 . S
C113 C112 1.378 . S
C113 C114 1.378 . S
C114 H99 0.940 . S
C114 C113 1.378 . S
C114 C115 1.396 . S
C115 H100 0.940 . S
C115 C110 1.391 . S
C115 C114 1.396 . S
C116 P96 1.803 . S
C116 C117 1.378 . S
C116 C121 1.400 . S
C117 H101 0.939 . S
C117 C116 1.378 . S
C117 C118 1.361 . S
C118 H102 0.942 . S
C118 C117 1.361 . S
C118 C119 1.369 . S
C119 C118 1.369 . S
C119 C120 1.404 . S
C120 H103 0.940 . S
C120 C119 1.404 . S
C120 C121 1.389 . S
C121 H104 0.939 . S
C121 C116 1.400 . S
C121 C120 1.389 . S
C122 P96 1.819 . S
C122 C123 1.391 . S
C122 C127 1.391 . S
C123 H105 0.941 . S
C123 C122 1.391 . S
C123 C124 1.396 . S
C124 H108 0.939 . S
C124 C123 1.396 . S
C124 C125 1.397 . S
C125 C124 1.397 . S
C125 C126 1.385 . S
C126 H109 0.940 . S
C126 C125 1.385 . S
C126 C127 1.388 . S
C127 H106 0.939 . S
C127 C122 1.391 . S
C127 C126 1.388 . S
Tb128 N157 2.617 . S
Tb128 N163 2.572 . S
Tb128 O172 2.465 . S
Tb128 O173 2.387 . S
Tb128 O175 2.428 . S
Tb128 O176 2.308 1_565 S
Tb128 O180 2.348 1_455 S
Tb128 O183 2.393 1_455 S
Tb128 C192 2.802 . S
C129 N130 1.379 . S
C129 C132 1.416 . S
C129 C136 1.424 . S
N130 C129 1.379 . S
N130 C133 1.334 1_655 S
N130 Tb139 2.617 . S
C131 C133 1.390 1_655 S
C131 C134 1.347 . S
C131 H151 0.922 1_655 S
C132 C129 1.416 . S
C132 C134 1.416 . S
C132 C138 1.448 . S
C133 N130 1.334 1_455 S
C133 C131 1.390 1_455 S
C133 H144 0.930 . S
C134 C131 1.347 . S
C134 C132 1.416 . S
C134 H155 0.930 . S
C135 C136 1.413 . S
C135 C137 1.427 . S
C135 C141 1.416 . S
C136 C129 1.424 . S
C136 C135 1.413 . S
C136 N140 1.361 . S
C137 C135 1.427 . S
C137 C138 1.328 . S
C137 H152 0.929 . S
C138 C132 1.448 . S
C138 C137 1.328 . S
C138 H153 0.930 . S
Tb139 N130 2.617 . S
Tb139 N140 2.572 . S
Tb139 O174 2.349 1_655 S
Tb139 O177 2.393 1_655 S
Tb139 O178 2.465 . S
Tb139 O179 2.387 . S
Tb139 O181 2.428 . S
Tb139 O182 2.308 1_545 S
Tb139 C203 2.802 . S
N140 C136 1.361 . S
N140 Tb139 2.572 . S
N140 C142 1.340 . S
C141 C135 1.416 . S
C141 C143 1.332 . S
C141 H149 0.931 . S
C142 N140 1.340 . S
C142 C143 1.407 . S
C142 H148 0.930 . S
C143 C141 1.332 . S
C143 C142 1.407 . S
C143 H145 0.929 . S
H144 C133 0.930 . S
H145 C143 0.929 . S
H146 C161 0.930 1_655 S
H147 C168 0.929 . S
H148 C142 0.930 . S
H149 C141 0.931 . S
H150 C164 0.930 . S
H151 C131 0.922 1_455 S
H152 C137 0.929 . S
H153 C138 0.930 . S
H154 C159 0.930 1_655 S
H155 C134 0.930 . S
H156 C167 0.931 . S
N157 Tb128 2.617 . S
N157 C158 1.379 . S
N157 C161 1.334 . S
C158 N157 1.379 . S
C158 C160 1.416 . S
C158 C166 1.424 . S
C159 H154 0.930 1_455 S
C159 C161 1.390 . S
C159 C162 1.339 . S
C160 C158 1.416 . S
C160 C162 1.416 . S
C160 C193 1.448 . S
C161 H146 0.930 1_455 S
C161 N157 1.334 . S
C161 C159 1.390 . S
C162 C159 1.339 . S
C162 C160 1.416 . S
C162 H169 0.930 . S
N163 Tb128 2.572 . S
N163 C164 1.340 . S
N163 C166 1.361 . S
C164 H150 0.930 . S
C164 N163 1.340 . S
C164 C168 1.407 . S
C165 C166 1.413 . S
C165 C167 1.416 . S
C165 C194 1.427 . S
C166 C158 1.424 . S
C166 N163 1.361 . S
C166 C165 1.413 . S
C167 H156 0.931 . S
C167 C165 1.416 . S
C167 C168 1.332 . S
C168 H147 0.929 . S
C168 C164 1.407 . S
C168 C167 1.332 . S
H169 C162 0.930 . S
H170 C193 0.930 . S
H171 C194 0.929 . S
O172 Tb128 2.465 . S
O172 C192 1.264 . S
O173 Tb128 2.387 . S
O173 C184 1.264 . S
O174 Tb139 2.349 1_455 S
O174 C184 1.243 1_545 S
O175 Tb128 2.428 . S
O175 C192 1.256 . S
O176 Tb128 2.308 1_545 S
O176 C191 1.266 . S
O177 Tb139 2.393 1_455 S
O177 C191 1.248 . S
O178 Tb139 2.465 . S
O178 C203 1.264 . S
O179 Tb139 2.387 . S
O179 C195 1.264 . S
O180 Tb128 2.348 1_655 S
O180 C195 1.245 1_565 S
O181 Tb139 2.428 . S
O181 C203 1.256 . S
O182 Tb139 2.308 1_565 S
O182 C202 1.266 . S
O183 Tb128 2.393 1_655 S
O183 C202 1.248 . S
C184 O173 1.264 . S
C184 O174 1.243 1_565 S
C185 C188 1.399 . S
C185 C190 1.383 . S
C185 C192 1.496 . S
C186 C187 1.399 . S
C186 C190 1.389 . S
C187 C186 1.399 . S
C187 C189 1.380 . S
C187 H204 0.929 . S
C188 C185 1.399 . S
C188 C189 1.392 . S
C188 H205 0.929 . S
C189 C187 1.380 . S
C189 C188 1.392 . S
C189 H206 0.929 . S
C190 C185 1.383 . S
C190 C186 1.389 . S
C190 H207 0.931 . S
C191 O176 1.266 . S
C191 O177 1.248 . S
C192 Tb128 2.802 . S
C192 O172 1.264 . S
C192 O175 1.256 . S
C192 C185 1.496 . S
C193 C160 1.448 . S
C193 H170 0.930 . S
C193 C194 1.328 . S
C194 C165 1.427 . S
C194 H171 0.929 . S
C194 C193 1.328 . S
C195 O179 1.264 . S
C195 O180 1.245 1_545 S
C196 C199 1.399 . S
C196 C200 1.383 . S
C196 C203 1.496 . S
C197 C198 1.399 . S
C197 C200 1.389 . S
C198 C197 1.399 . S
C198 C201 1.380 . S
C198 H208 0.929 . S
C199 C196 1.399 . S
C199 C201 1.392 . S
C199 H209 0.929 . S
C200 C196 1.383 . S
C200 C197 1.389 . S
C200 H210 0.931 . S
C201 C198 1.380 . S
C201 C199 1.392 . S
C201 H211 0.929 . S
C202 O182 1.266 . S
C202 O183 1.248 . S
C203 Tb139 2.802 . S
C203 O178 1.264 . S
C203 O181 1.256 . S
C203 C196 1.496 . S
H204 C187 0.929 . S
H205 C188 0.929 . S
H206 C189 0.929 . S
H207 C190 0.931 . S
H208 C198 0.929 . S
H209 C199 0.929 . S
H210 C200 0.931 . S
H211 C201 0.929 . S
Tb212 N241 2.617 . S
Tb212 N247 2.572 1_556 S
Tb212 O256 2.465 . S
Tb212 O257 2.387 1_556 S
Tb212 O259 2.428 . S
Tb212 O260 2.308 1_556 S
Tb212 O264 2.349 . S
Tb212 O267 2.393 . S
Tb212 C276 2.802 . S
C213 N214 1.379 . S
C213 C216 1.416 . S
C213 C220 1.424 . S
N214 C213 1.379 . S
N214 C217 1.334 . S
N214 Tb223 2.617 . S
C215 C217 1.390 . S
C215 C218 1.339 . S
C215 H235 0.930 . S
C216 C213 1.416 . S
C216 C218 1.416 . S
C216 C222 1.448 . S
C217 N214 1.334 . S
C217 C215 1.390 . S
C217 H228 0.930 . S
C218 C215 1.339 . S
C218 C216 1.416 . S
C218 H239 0.930 . S
C219 C220 1.413 . S
C219 C221 1.427 . S
C219 C225 1.416 . S
C220 C213 1.424 . S
C220 C219 1.413 . S
C220 N224 1.361 . S
C221 C219 1.427 . S
C221 C222 1.328 . S
C221 H236 0.929 . S
C222 C216 1.448 . S
C222 C221 1.328 . S
C222 H237 0.930 . S
Tb223 N214 2.617 . S
Tb223 N224 2.572 . S
Tb223 O258 2.349 . S
Tb223 O261 2.393 . S
Tb223 O262 2.465 . S
Tb223 O263 2.387 1_554 S
Tb223 O265 2.428 . S
Tb223 O266 2.308 . S
Tb223 C287 2.802 . S
N224 C220 1.361 . S
N224 Tb223 2.572 . S
N224 C226 1.340 . S
C225 C219 1.416 . S
C225 C227 1.332 . S
C225 H233 0.931 . S
C226 N224 1.340 . S
C226 C227 1.407 . S
C226 H232 0.930 . S
C227 C225 1.332 . S
C227 C226 1.407 . S
C227 H229 0.929 . S
H228 C217 0.930 . S
H229 C227 0.929 . S
H230 C245 0.930 . S
H231 C252 0.929 . S
H232 C226 0.930 . S
H233 C225 0.931 . S
H234 C248 0.930 . S
H235 C215 0.930 . S
H236 C221 0.929 . S
H237 C222 0.930 . S
H238 C243 0.930 . S
H239 C218 0.930 . S
H240 C251 0.931 . S
N241 Tb212 2.617 . S
N241 C242 1.379 1_556 S
N241 C245 1.334 . S
C242 N241 1.379 1_554 S
C242 C244 1.416 . S
C242 C250 1.424 . S
C243 H238 0.930 . S
C243 C245 1.390 . S
C243 C246 1.339 1_556 S
C244 C242 1.416 . S
C244 C246 1.416 . S
C244 C277 1.448 . S
C245 H230 0.930 . S
C245 N241 1.334 . S
C245 C243 1.390 . S
C246 C243 1.339 1_554 S
C246 C244 1.416 . S
C246 H253 0.930 . S
N247 Tb212 2.572 1_554 S
N247 C248 1.340 . S
N247 C250 1.361 . S
C248 H234 0.930 . S
C248 N247 1.340 . S
C248 C252 1.407 . S
C249 C250 1.413 . S
C249 C251 1.416 . S
C249 C278 1.427 . S
C250 C242 1.424 . S
C250 N247 1.361 . S
C250 C249 1.413 . S
C251 H240 0.931 . S
C251 C249 1.416 . S
C251 C252 1.332 . S
C252 H231 0.929 . S
C252 C248 1.407 . S
C252 C251 1.332 . S
H253 C246 0.930 . S
H254 C277 0.930 . S
H255 C278 0.929 . S
O256 Tb212 2.465 . S
O256 C276 1.264 . S
O257 Tb212 2.387 1_554 S
O257 C268 1.264 . S
O258 Tb223 2.349 . S
O258 C268 1.243 . S
O259 Tb212 2.428 . S
O259 C276 1.256 . S
O260 Tb212 2.308 1_554 S
O260 C275 1.266 . S
O261 Tb223 2.393 . S
O261 C275 1.248 . S
O262 Tb223 2.465 . S
O262 C287 1.264 . S
O263 Tb223 2.387 1_556 S
O263 C279 1.264 . S
O264 Tb212 2.349 . S
O264 C279 1.243 . S
O265 Tb223 2.428 . S
O265 C287 1.256 . S
O266 Tb223 2.308 . S
O266 C286 1.266 . S
O267 Tb212 2.393 . S
O267 C286 1.248 1_556 S
C268 O257 1.264 . S
C268 O258 1.243 . S
C269 C272 1.399 . S
C269 C274 1.383 . S
C269 C276 1.496 . S
C270 C271 1.399 . S
C270 C274 1.389 . S
C271 C270 1.399 . S
C271 C273 1.380 . S
C271 H288 0.929 . S
C272 C269 1.399 . S
C272 C273 1.392 . S
C272 H289 0.929 . S
C273 C271 1.380 . S
C273 C272 1.392 . S
C273 H290 0.929 . S
C274 C269 1.383 . S
C274 C270 1.389 . S
C274 H291 0.931 . S
C275 O260 1.266 . S
C275 O261 1.248 . S
C276 Tb212 2.802 . S
C276 O256 1.264 . S
C276 O259 1.256 . S
C276 C269 1.496 . S
C277 C244 1.448 . S
C277 H254 0.930 . S
C277 C278 1.328 . S
C278 C249 1.427 . S
C278 H255 0.929 . S
C278 C277 1.328 . S
C279 O263 1.264 . S
C279 O264 1.243 . S
C280 C283 1.399 . S
C280 C284 1.383 . S
C280 C287 1.496 . S
C281 C282 1.399 . S
C281 C284 1.389 . S
C282 C281 1.399 . S
C282 C285 1.380 . S
C282 H292 0.929 . S
C283 C280 1.399 . S
C283 C285 1.392 . S
C283 H293 0.929 . S
C284 C280 1.383 . S
C284 C281 1.389 . S
C284 H294 0.931 . S
C285 C282 1.380 . S
C285 C283 1.392 . S
C285 H295 0.929 . S
C286 O266 1.266 . S
C286 O267 1.248 1_554 S
C287 Tb223 2.802 . S
C287 O262 1.264 . S
C287 O265 1.256 . S
C287 C280 1.496 . S
H288 C271 0.929 . S
H289 C272 0.929 . S
H290 C273 0.929 . S
H291 C274 0.931 . S
H292 C282 0.929 . S
H293 C283 0.929 . S
H294 C284 0.931 . S
H295 C285 0.929 . S
H296 C314 0.951 . S
H297 C316 0.951 . S
H298 C318 0.950 . S
H299 C319 0.950 . S
H300 C321 0.950 . S
H301 C324 0.950 . S
H302 C325 0.950 . S
H303 C327 0.950 . S
H304 C328 0.950 . S
H305 C329 0.951 . S
H306 C331 0.951 . S
H307 C333 0.950 . S
H308 C334 0.950 . S
H309 C336 0.950 . S
H310 C339 0.950 . S
H311 C340 0.950 . S
H312 C342 0.950 . S
H313 C343 0.950 . S
C314 H296 0.951 . S
C314 C315 1.366 . S
C314 C316 1.388 . S
C315 C314 1.366 . S
C315 C319 1.385 . S
C316 H297 0.951 . S
C316 C314 1.388 . S
C316 C317 1.366 . S
C317 C316 1.366 . S
C317 C318 1.414 . S
C317 C320 1.499 . S
C318 H298 0.950 . S
C318 C317 1.414 . S
C318 C319 1.374 . S
C319 H299 0.950 . S
C319 C315 1.385 . S
C319 C318 1.374 . S
C320 C317 1.499 . S
C320 C321 1.373 . S
C320 C322 1.389 . S
C321 H300 0.950 . S
C321 C320 1.373 . S
C321 C337 1.377 . S
C322 C320 1.389 . S
C322 C323 1.524 . S
C322 C336 1.377 . S
C323 C322 1.524 . S
C323 C324 1.397 . S
C323 C328 1.363 . S
C324 H301 0.950 . S
C324 C323 1.397 . S
C324 C325 1.334 . S
C325 H302 0.950 . S
C325 C324 1.334 . S
C325 C326 1.287 . S
C326 C325 1.287 . S
C326 C327 1.524 . S
C326 H345 0.913 . S
C327 H303 0.950 . S
C327 C326 1.524 . S
C327 C328 1.415 . S
C328 H304 0.950 . S
C328 C323 1.363 . S
C328 C327 1.415 . S
C329 H305 0.951 . S
C329 C330 1.366 . S
C329 C331 1.388 . S
C330 C329 1.366 . S
C330 C334 1.385 . S
C331 H306 0.951 . S
C331 C329 1.388 . S
C331 C332 1.366 . S
C332 C331 1.366 . S
C332 C333 1.414 . S
C332 C335 1.499 . S
C333 H307 0.950 . S
C333 C332 1.414 . S
C333 C334 1.374 . S
C334 H308 0.950 . S
C334 C330 1.385 . S
C334 C333 1.374 . S
C335 C332 1.499 . S
C335 C336 1.373 . S
C335 C337 1.389 . S
C336 H309 0.950 . S
C336 C322 1.377 . S
C336 C335 1.373 . S
C337 C321 1.377 . S
C337 C335 1.389 . S
C337 C338 1.524 . S
C338 C337 1.524 . S
C338 C339 1.397 . S
C338 C343 1.363 . S
C339 H310 0.950 . S
C339 C338 1.397 . S
C339 C340 1.334 . S
C340 H311 0.950 . S
C340 C339 1.334 . S
C340 C341 1.287 . S
C341 C340 1.287 . S
C341 C342 1.524 . S
C341 H344 0.999 . S
C342 H312 0.950 . S
C342 C341 1.524 . S
C342 C343 1.415 . S
C343 H313 0.950 . S
C343 C338 1.363 . S
C343 C342 1.415 . S
H344 C341 0.999 . S
H345 C326 0.913 . S
H346 C364 0.951 1_556 S
H347 C366 0.930 1_556 S
H348 C368 0.950 . S
H349 C369 0.950 . S
H350 C371 0.950 . S
H351 C374 0.950 . S
H352 C375 0.950 1_554 S
H353 C377 0.950 . S
H354 C378 0.950 . S
H355 C379 0.951 . S
H356 C381 0.951 . S
H357 C383 0.950 . S
H358 C384 0.950 . S
H359 C386 0.950 1_556 S
H360 C389 0.950 . S
H361 C390 0.950 . S
H362 C392 0.950 . S
H363 C393 0.950 . S
C364 H346 0.951 1_554 S
C364 C365 1.366 . S
C364 C366 1.393 . S
C365 C364 1.366 . S
C365 C369 1.385 . S
C366 H347 0.930 1_554 S
C366 C364 1.393 . S
C366 C367 1.381 . S
C367 C366 1.381 . S
C367 C368 1.414 . S
C367 C370 1.499 . S
C368 H348 0.950 . S
C368 C367 1.414 . S
C368 C369 1.374 . S
C369 H349 0.950 . S
C369 C365 1.385 . S
C369 C368 1.374 . S
C370 C367 1.499 . S
C370 C371 1.373 . S
C370 C372 1.389 . S
C371 H350 0.950 . S
C371 C370 1.373 . S
C371 C387 1.377 . S
C372 C370 1.389 . S
C372 C373 1.524 1_554 S
C372 C386 1.377 . S
C373 C372 1.524 1_556 S
C373 C374 1.397 1_556 S
C373 C378 1.363 . S
C374 H351 0.950 . S
C374 C373 1.397 1_554 S
C374 C375 1.334 1_554 S
C375 H352 0.950 1_556 S
C375 C374 1.334 1_556 S
C375 C376 1.287 . S
C376 C375 1.287 . S
C376 C377 1.524 . S
C376 H395 0.913 . S
C377 H353 0.950 . S
C377 C376 1.524 . S
C377 C378 1.415 . S
C378 H354 0.950 . S
C378 C373 1.363 . S
C378 C377 1.415 . S
C379 H355 0.951 . S
C379 C380 1.366 . S
C379 C381 1.388 . S
C380 C379 1.366 . S
C380 C384 1.385 1_554 S
C381 H356 0.951 . S
C381 C379 1.388 . S
C381 C382 1.366 . S
C382 C381 1.366 . S
C382 C383 1.414 1_554 S
C382 C385 1.499 . S
C383 H357 0.950 . S
C383 C382 1.414 1_556 S
C383 C384 1.374 . S
C384 H358 0.950 . S
C384 C380 1.385 1_556 S
C384 C383 1.374 . S
C385 C382 1.499 . S
C385 C386 1.373 . S
C385 C387 1.389 . S
C386 H359 0.950 1_554 S
C386 C372 1.377 . S
C386 C385 1.373 . S
C387 C371 1.377 . S
C387 C385 1.389 . S
C387 C388 1.524 . S
C388 C387 1.524 . S
C388 C389 1.397 . S
C388 C393 1.363 . S
C389 H360 0.950 . S
C389 C388 1.397 . S
C389 C390 1.334 . S
C390 H361 0.950 . S
C390 C389 1.334 . S
C390 C391 1.287 . S
C391 C390 1.287 . S
C391 C392 1.524 . S
C391 H394 0.999 . S
C392 H362 0.950 . S
C392 C391 1.524 . S
C392 C393 1.415 . S
C393 H363 0.950 . S
C393 C388 1.363 . S
C393 C392 1.415 . S
H394 C391 0.999 . S
H395 C376 0.913 . S
H396 C414 0.951 . S
H397 C416 0.951 . S
H398 C418 0.950 . S
H399 C419 0.950 . S
H400 C421 0.950 . S
H401 C424 0.950 . S
H402 C425 0.950 . S
H403 C427 0.950 . S
H404 C428 0.950 . S
H405 C429 0.951 . S
H406 C431 0.951 . S
H407 C433 0.950 . S
H408 C434 0.950 . S
H409 C436 0.950 . S
H410 C439 0.950 . S
H411 C440 0.950 . S
H412 C442 0.950 . S
H413 C443 0.950 . S
C414 H396 0.951 . S
C414 C415 1.366 . S
C414 C416 1.388 . S
C415 C414 1.366 . S
C415 C419 1.385 . S
C416 H397 0.951 . S
C416 C414 1.388 . S
C416 C417 1.366 . S
C417 C416 1.366 . S
C417 C418 1.414 . S
C417 C420 1.499 . S
C418 H398 0.950 . S
C418 C417 1.414 . S
C418 C419 1.374 . S
C419 H399 0.950 . S
C419 C415 1.385 . S
C419 C418 1.374 . S
C420 C417 1.499 . S
C420 C421 1.373 . S
C420 C422 1.389 . S
C421 H400 0.950 . S
C421 C420 1.373 . S
C421 C437 1.377 . S
C422 C420 1.389 . S
C422 C423 1.524 . S
C422 C436 1.377 . S
C423 C422 1.524 . S
C423 C424 1.397 . S
C423 C428 1.363 . S
C424 H401 0.950 . S
C424 C423 1.397 . S
C424 C425 1.334 . S
C425 H402 0.950 . S
C425 C424 1.334 . S
C425 C426 1.287 . S
C426 C425 1.287 . S
C426 C427 1.524 . S
C426 H445 0.913 . S
C427 H403 0.950 . S
C427 C426 1.524 . S
C427 C428 1.415 . S
C428 H404 0.950 . S
C428 C423 1.363 . S
C428 C427 1.415 . S
C429 H405 0.951 . S
C429 C430 1.366 . S
C429 C431 1.388 . S
C430 C429 1.366 . S
C430 C434 1.385 . S
C431 H406 0.951 . S
C431 C429 1.388 . S
C431 C432 1.366 . S
C432 C431 1.366 . S
C432 C433 1.414 . S
C432 C435 1.499 . S
C433 H407 0.950 . S
C433 C432 1.414 . S
C433 C434 1.374 . S
C434 H408 0.950 . S
C434 C430 1.385 . S
C434 C433 1.374 . S
C435 C432 1.499 . S
C435 C436 1.373 . S
C435 C437 1.389 . S
C436 H409 0.950 . S
C436 C422 1.377 . S
C436 C435 1.373 . S
C437 C421 1.377 . S
C437 C435 1.389 . S
C437 C438 1.524 . S
C438 C437 1.524 . S
C438 C439 1.397 . S
C438 C443 1.363 . S
C439 H410 0.950 . S
C439 C438 1.397 . S
C439 C440 1.334 . S
C440 H411 0.950 . S
C440 C439 1.334 . S
C440 C441 1.287 . S
C441 C440 1.287 . S
C441 C442 1.524 . S
C441 H444 0.999 . S
C442 H412 0.950 . S
C442 C441 1.524 . S
C442 C443 1.415 . S
C443 H413 0.950 . S
C443 C438 1.363 . S
C443 C442 1.415 . S
H444 C441 0.999 . S
H445 C426 0.913 . S
H446 C464 0.966 . S
H447 C466 0.942 1_556 S
H448 C468 0.950 . S
H449 C469 0.950 . S
H450 C471 0.950 . S
H451 C474 0.950 . S
H452 C475 0.950 . S
H453 C477 0.950 . S
H454 C478 0.950 . S
H455 C479 0.951 . S
H456 C481 0.951 . S
H457 C483 0.950 1_556 S
H458 C484 0.950 1_556 S
H459 C486 0.950 . S
H460 C489 0.950 . S
H461 C490 0.950 . S
H462 C492 0.950 1_554 S
H463 C493 0.950 . S
C464 H446 0.966 . S
C464 C465 1.357 1_556 S
C464 C466 1.376 1_556 S
C465 C464 1.357 1_554 S
C465 C469 1.385 . S
C466 H447 0.942 1_554 S
C466 C464 1.376 1_554 S
C466 C467 1.381 . S
C467 C466 1.381 . S
C467 C468 1.414 . S
C467 C470 1.499 . S
C468 H448 0.950 . S
C468 C467 1.414 . S
C468 C469 1.374 . S
C469 H449 0.950 . S
C469 C465 1.385 . S
C469 C468 1.374 . S
C470 C467 1.499 . S
C470 C471 1.373 . S
C470 C472 1.389 . S
C471 H450 0.950 . S
C471 C470 1.373 . S
C471 C487 1.377 . S
C472 C470 1.389 . S
C472 C473 1.524 . S
C472 C486 1.377 . S
C473 C472 1.524 . S
C473 C474 1.397 . S
C473 C478 1.363 . S
C474 H451 0.950 . S
C474 C473 1.397 . S
C474 C475 1.334 . S
C475 H452 0.950 . S
C475 C474 1.334 . S
C475 C476 1.287 . S
C476 C475 1.287 . S
C476 C477 1.524 . S
C476 H495 0.913 . S
C477 H453 0.950 . S
C477 C476 1.524 . S
C477 C478 1.415 . S
C478 H454 0.950 . S
C478 C473 1.363 . S
C478 C477 1.415 . S
C479 H455 0.951 . S
C479 C480 1.366 . S
C479 C481 1.388 . S
C480 C479 1.366 . S
C480 C484 1.385 . S
C481 H456 0.951 . S
C481 C479 1.388 . S
C481 C482 1.366 . S
C482 C481 1.366 . S
C482 C483 1.414 . S
C482 C485 1.499 . S
C483 H457 0.950 1_554 S
C483 C482 1.414 . S
C483 C484 1.374 . S
C484 H458 0.950 1_554 S
C484 C480 1.385 . S
C484 C483 1.374 . S
C485 C482 1.499 . S
C485 C486 1.373 . S
C485 C487 1.389 . S
C486 H459 0.950 . S
C486 C472 1.377 . S
C486 C485 1.373 . S
C487 C471 1.377 . S
C487 C485 1.389 . S
C487 C488 1.524 1_554 S
C488 C487 1.524 1_556 S
C488 C489 1.397 . S
C488 C493 1.363 1_556 S
C489 H460 0.950 . S
C489 C488 1.397 . S
C489 C490 1.334 . S
C490 H461 0.950 . S
C490 C489 1.334 . S
C490 C491 1.287 . S
C491 C490 1.287 . S
C491 C492 1.524 . S
C491 H494 0.999 . S
C492 H462 0.950 1_556 S
C492 C491 1.524 . S
C492 C493 1.415 1_556 S
C493 H463 0.950 . S
C493 C488 1.363 1_554 S
C493 C492 1.415 1_554 S
H494 C491 0.999 . S
H495 C476 0.913 . S
H496 C514 0.951 . S
H497 C516 0.951 . S
H498 C518 0.950 . S
H499 C519 0.950 . S
H500 C521 0.950 . S
H501 C524 0.950 . S
H502 C525 0.950 . S
H503 C527 0.950 . S
H504 C528 0.950 . S
H505 C529 0.951 . S
H506 C531 0.951 . S
H507 C533 0.950 . S
H508 C534 0.950 . S
H509 C536 0.950 . S
H510 C539 0.950 . S
H511 C540 0.950 . S
H512 C542 0.950 . S
H513 C543 0.950 . S
C514 H496 0.951 . S
C514 C515 1.366 . S
C514 C516 1.388 . S
C515 C514 1.366 . S
C515 C519 1.385 . S
C516 H497 0.951 . S
C516 C514 1.388 . S
C516 C517 1.366 . S
C517 C516 1.366 . S
C517 C518 1.414 . S
C517 C520 1.499 . S
C518 H498 0.950 . S
C518 C517 1.414 . S
C518 C519 1.374 . S
C519 H499 0.950 . S
C519 C515 1.385 . S
C519 C518 1.374 . S
C520 C517 1.499 . S
C520 C521 1.373 . S
C520 C522 1.389 . S
C521 H500 0.950 . S
C521 C520 1.373 . S
C521 C537 1.377 . S
C522 C520 1.389 . S
C522 C523 1.524 . S
C522 C536 1.377 . S
C523 C522 1.524 . S
C523 C524 1.397 . S
C523 C528 1.363 . S
C524 H501 0.950 . S
C524 C523 1.397 . S
C524 C525 1.334 1_565 S
C525 H502 0.950 . S
C525 C524 1.334 1_545 S
C525 C526 1.287 . S
C526 C525 1.287 . S
C526 C527 1.524 1_545 S
C526 H545 0.913 . S
C527 H503 0.950 . S
C527 C526 1.524 1_565 S
C527 C528 1.415 . S
C528 H504 0.950 . S
C528 C523 1.363 . S
C528 C527 1.415 . S
C529 H505 0.951 . S
C529 C530 1.366 . S
C529 C531 1.388 . S
C530 C529 1.366 . S
C530 C534 1.385 . S
C531 H506 0.951 . S
C531 C529 1.388 . S
C531 C532 1.366 . S
C532 C531 1.366 . S
C532 C533 1.414 . S
C532 C535 1.499 . S
C533 H507 0.950 . S
C533 C532 1.414 . S
C533 C534 1.374 . S
C534 H508 0.950 . S
C534 C530 1.385 . S
C534 C533 1.374 . S
C535 C532 1.499 . S
C535 C536 1.373 . S
C535 C537 1.389 . S
C536 H509 0.950 . S
C536 C522 1.377 . S
C536 C535 1.373 . S
C537 C521 1.377 . S
C537 C535 1.389 . S
C537 C538 1.524 . S
C538 C537 1.524 . S
C538 C539 1.397 . S
C538 C543 1.363 . S
C539 H510 0.950 . S
C539 C538 1.397 . S
C539 C540 1.334 . S
C540 H511 0.950 . S
C540 C539 1.334 . S
C540 C541 1.287 . S
C541 C540 1.287 . S
C541 C542 1.524 . S
C541 H544 0.999 . S
C542 H512 0.950 . S
C542 C541 1.524 . S
C542 C543 1.415 . S
C543 H513 0.950 . S
C543 C538 1.363 . S
C543 C542 1.415 . S
H544 C541 0.999 . S
H545 C526 0.913 . S
H546 C564 0.951 . S
H547 C566 0.951 . S
H548 C568 0.950 . S
H549 C569 0.950 . S
H550 C571 0.950 . S
H551 C574 0.950 . S
H552 C575 0.950 . S
H553 C577 0.950 . S
H554 C578 0.950 . S
H555 C579 0.951 . S
H556 C581 0.951 . S
H557 C583 0.950 . S
H558 C584 0.950 . S
H559 C586 0.950 . S
H560 C589 0.950 . S
H561 C590 0.950 . S
H562 C592 0.950 . S
H563 C593 0.950 . S
C564 H546 0.951 . S
C564 C565 1.366 . S
C564 C566 1.388 . S
C565 C564 1.366 . S
C565 C569 1.385 . S
C566 H547 0.951 . S
C566 C564 1.388 . S
C566 C567 1.366 . S
C567 C566 1.366 . S
C567 C568 1.414 . S
C567 C570 1.499 . S
C568 H548 0.950 . S
C568 C567 1.414 . S
C568 C569 1.374 . S
C569 H549 0.950 . S
C569 C565 1.385 . S
C569 C568 1.374 . S
C570 C567 1.499 . S
C570 C571 1.373 . S
C570 C572 1.389 . S
C571 H550 0.950 . S
C571 C570 1.373 . S
C571 C587 1.377 . S
C572 C570 1.389 . S
C572 C573 1.524 . S
C572 C586 1.377 . S
C573 C572 1.524 . S
C573 C574 1.397 . S
C573 C578 1.363 . S
C574 H551 0.950 . S
C574 C573 1.397 . S
C574 C575 1.334 . S
C575 H552 0.950 . S
C575 C574 1.334 . S
C575 C576 1.287 . S
C576 C575 1.287 . S
C576 C577 1.524 . S
C576 H595 0.913 . S
C577 H553 0.950 . S
C577 C576 1.524 . S
C577 C578 1.415 . S
C578 H554 0.950 . S
C578 C573 1.363 . S
C578 C577 1.415 . S
C579 H555 0.951 . S
C579 C580 1.366 . S
C579 C581 1.388 . S
C580 C579 1.366 . S
C580 C584 1.385 . S
C581 H556 0.951 . S
C581 C579 1.388 . S
C581 C582 1.366 . S
C582 C581 1.366 . S
C582 C583 1.414 . S
C582 C585 1.499 . S
C583 H557 0.950 . S
C583 C582 1.414 . S
C583 C584 1.374 . S
C584 H558 0.950 . S
C584 C580 1.385 . S
C584 C583 1.374 . S
C585 C582 1.499 . S
C585 C586 1.373 . S
C585 C587 1.389 . S
C586 H559 0.950 . S
C586 C572 1.377 . S
C586 C585 1.373 . S
C587 C571 1.377 . S
C587 C585 1.389 . S
C587 C588 1.524 . S
C588 C587 1.524 . S
C588 C589 1.397 . S
C588 C593 1.363 . S
C589 H560 0.950 . S
C589 C588 1.397 . S
C589 C590 1.334 . S
C590 H561 0.950 . S
C590 C589 1.334 . S
C590 C591 1.287 . S
C591 C590 1.287 . S
C591 C592 1.524 . S
C591 H594 0.999 . S
C592 H562 0.950 . S
C592 C591 1.524 . S
C592 C593 1.415 . S
C593 H563 0.950 . S
C593 C588 1.363 . S
C593 C592 1.415 . S
H594 C591 0.999 . S
H595 C576 0.913 . S
H596 C614 0.951 . S
H597 C616 0.951 . S
H598 C618 0.950 . S
H599 C619 0.950 . S
H600 C621 0.950 . S
H601 C624 0.950 . S
H602 C625 0.950 . S
H603 C627 0.950 . S
H604 C628 0.950 . S
H605 C629 0.951 . S
H606 C631 0.951 . S
H607 C633 0.950 . S
H608 C634 0.950 . S
H609 C636 0.950 . S
H610 C639 0.950 . S
H611 C640 0.950 . S
H612 C642 0.950 . S
H613 C643 0.950 . S
C614 H596 0.951 . S
C614 C615 1.366 . S
C614 C616 1.388 . S
C615 C614 1.366 . S
C615 C619 1.385 . S
C616 H597 0.951 . S
C616 C614 1.388 . S
C616 C617 1.366 . S
C617 C616 1.366 . S
C617 C618 1.414 . S
C617 C620 1.499 . S
C618 H598 0.950 . S
C618 C617 1.414 . S
C618 C619 1.374 . S
C619 H599 0.950 . S
C619 C615 1.385 . S
C619 C618 1.374 . S
C620 C617 1.499 . S
C620 C621 1.373 . S
C620 C622 1.389 . S
C621 H600 0.950 . S
C621 C620 1.373 . S
C621 C637 1.377 . S
C622 C620 1.389 . S
C622 C623 1.524 . S
C622 C636 1.377 . S
C623 C622 1.524 . S
C623 C624 1.397 . S
C623 C628 1.363 . S
C624 H601 0.950 . S
C624 C623 1.397 . S
C624 C625 1.334 . S
C625 H602 0.950 . S
C625 C624 1.334 . S
C625 C626 1.287 . S
C626 C625 1.287 . S
C626 C627 1.524 . S
C626 H645 0.913 . S
C627 H603 0.950 . S
C627 C626 1.524 . S
C627 C628 1.415 . S
C628 H604 0.950 . S
C628 C623 1.363 . S
C628 C627 1.415 . S
C629 H605 0.951 . S
C629 C630 1.366 . S
C629 C631 1.388 . S
C630 C629 1.366 . S
C630 C634 1.385 . S
C631 H606 0.951 . S
C631 C629 1.388 . S
C631 C632 1.366 . S
C632 C631 1.366 . S
C632 C633 1.414 . S
C632 C635 1.499 . S
C633 H607 0.950 . S
C633 C632 1.414 . S
C633 C634 1.374 . S
C634 H608 0.950 . S
C634 C630 1.385 . S
C634 C633 1.374 . S
C635 C632 1.499 . S
C635 C636 1.373 . S
C635 C637 1.389 . S
C636 H609 0.950 . S
C636 C622 1.377 . S
C636 C635 1.373 . S
C637 C621 1.377 . S
C637 C635 1.389 . S
C637 C638 1.524 . S
C638 C637 1.524 . S
C638 C639 1.397 . S
C638 C643 1.363 . S
C639 H610 0.950 . S
C639 C638 1.397 . S
C639 C640 1.334 . S
C640 H611 0.950 . S
C640 C639 1.334 . S
C640 C641 1.287 . S
C641 C640 1.287 . S
C641 C642 1.524 . S
C641 H644 0.999 . S
C642 H612 0.950 . S
C642 C641 1.524 . S
C642 C643 1.415 . S
C643 H613 0.950 . S
C643 C638 1.363 . S
C643 C642 1.415 . S
H644 C641 0.999 . S
H645 C626 0.913 . S
H646 C664 0.951 . S
H647 C666 0.951 . S
H648 C668 0.950 . S
H649 C669 0.950 . S
H650 C671 0.950 . S
H651 C674 0.950 . S
H652 C675 0.950 . S
H653 C677 0.950 . S
H654 C678 0.950 . S
H655 C679 0.951 . S
H656 C681 0.951 . S
H657 C683 0.950 . S
H658 C684 0.950 . S
H659 C686 0.950 . S
H660 C689 0.950 . S
H661 C690 0.950 . S
H662 C692 0.950 . S
H663 C693 0.950 . S
C664 H646 0.951 . S
C664 C665 1.366 . S
C664 C666 1.388 . S
C665 C664 1.366 . S
C665 C669 1.385 . S
C666 H647 0.951 . S
C666 C664 1.388 . S
C666 C667 1.366 . S
C667 C666 1.366 . S
C667 C668 1.414 . S
C667 C670 1.499 . S
C668 H648 0.950 . S
C668 C667 1.414 . S
C668 C669 1.374 . S
C669 H649 0.950 . S
C669 C665 1.385 . S
C669 C668 1.374 . S
C670 C667 1.499 . S
C670 C671 1.373 . S
C670 C672 1.389 . S
C671 H650 0.950 . S
C671 C670 1.373 . S
C671 C687 1.377 . S
C672 C670 1.389 . S
C672 C673 1.524 . S
C672 C686 1.377 . S
C673 C672 1.524 . S
C673 C674 1.397 . S
C673 C678 1.363 . S
C674 H651 0.950 . S
C674 C673 1.397 . S
C674 C675 1.334 . S
C675 H652 0.950 . S
C675 C674 1.334 . S
C675 C676 1.287 . S
C676 C675 1.287 . S
C676 C677 1.524 . S
C676 H695 0.913 . S
C677 H653 0.950 . S
C677 C676 1.524 . S
C677 C678 1.415 . S
C678 H654 0.950 . S
C678 C673 1.363 . S
C678 C677 1.415 . S
C679 H655 0.951 . S
C679 C680 1.366 . S
C679 C681 1.388 . S
C680 C679 1.366 . S
C680 C684 1.385 . S
C681 H656 0.951 . S
C681 C679 1.388 . S
C681 C682 1.366 . S
C682 C681 1.366 . S
C682 C683 1.414 . S
C682 C685 1.499 . S
C683 H657 0.950 . S
C683 C682 1.414 . S
C683 C684 1.374 . S
C684 H658 0.950 . S
C684 C680 1.385 . S
C684 C683 1.374 . S
C685 C682 1.499 . S
C685 C686 1.373 . S
C685 C687 1.389 . S
C686 H659 0.950 . S
C686 C672 1.377 . S
C686 C685 1.373 . S
C687 C671 1.377 . S
C687 C685 1.389 . S
C687 C688 1.524 . S
C688 C687 1.524 . S
C688 C689 1.397 . S
C688 C693 1.363 . S
C689 H660 0.950 . S
C689 C688 1.397 . S
C689 C690 1.334 . S
C690 H661 0.950 . S
C690 C689 1.334 . S
C690 C691 1.287 . S
C691 C690 1.287 . S
C691 C692 1.524 . S
C691 H694 0.999 . S
C692 H662 0.950 . S
C692 C691 1.524 . S
C692 C693 1.415 . S
C693 H663 0.950 . S
C693 C688 1.363 . S
C693 C692 1.415 . S
H694 C691 0.999 . S
H695 C676 0.913 . S
H696 C714 0.951 . S
H697 C716 0.951 . S
H698 C718 0.950 . S
H699 C719 0.950 . S
H700 C721 0.950 . S
H701 C724 0.950 . S
H702 C725 0.950 . S
H703 C727 0.950 . S
H704 C728 0.950 . S
H705 C729 0.951 . S
H706 C731 0.951 . S
H707 C733 0.950 . S
H708 C734 0.950 . S
H709 C736 0.950 . S
H710 C739 0.950 . S
H711 C740 0.950 . S
H712 C742 0.950 . S
H713 C743 0.950 . S
C714 H696 0.951 . S
C714 C715 1.366 . S
C714 C716 1.388 . S
C715 C714 1.366 . S
C715 C719 1.385 . S
C716 H697 0.951 . S
C716 C714 1.388 . S
C716 C717 1.366 . S
C717 C716 1.366 . S
C717 C718 1.414 . S
C717 C720 1.499 . S
C718 H698 0.950 . S
C718 C717 1.414 . S
C718 C719 1.374 . S
C719 H699 0.950 . S
C719 C715 1.385 . S
C719 C718 1.374 . S
C720 C717 1.499 . S
C720 C721 1.373 . S
C720 C722 1.389 . S
C721 H700 0.950 . S
C721 C720 1.373 . S
C721 C737 1.377 . S
C722 C720 1.389 . S
C722 C723 1.524 . S
C722 C736 1.377 . S
C723 C722 1.524 . S
C723 C724 1.397 . S
C723 C728 1.363 . S
C724 H701 0.950 . S
C724 C723 1.397 . S
C724 C725 1.334 . S
C725 H702 0.950 . S
C725 C724 1.334 . S
C725 C726 1.287 . S
C726 C725 1.287 . S
C726 C727 1.524 . S
C726 H745 0.913 . S
C727 H703 0.950 . S
C727 C726 1.524 . S
C727 C728 1.415 . S
C728 H704 0.950 . S
C728 C723 1.363 . S
C728 C727 1.415 . S
C729 H705 0.951 . S
C729 C730 1.366 . S
C729 C731 1.388 . S
C730 C729 1.366 . S
C730 C734 1.385 . S
C731 H706 0.951 . S
C731 C729 1.388 . S
C731 C732 1.366 . S
C732 C731 1.366 . S
C732 C733 1.414 . S
C732 C735 1.499 . S
C733 H707 0.950 . S
C733 C732 1.414 . S
C733 C734 1.374 . S
C734 H708 0.950 . S
C734 C730 1.385 . S
C734 C733 1.374 . S
C735 C732 1.499 . S
C735 C736 1.373 . S
C735 C737 1.389 . S
C736 H709 0.950 . S
C736 C722 1.377 . S
C736 C735 1.373 . S
C737 C721 1.377 . S
C737 C735 1.389 . S
C737 C738 1.524 . S
C738 C737 1.524 . S
C738 C739 1.397 . S
C738 C743 1.363 . S
C739 H710 0.950 . S
C739 C738 1.397 . S
C739 C740 1.334 . S
C740 H711 0.950 . S
C740 C739 1.334 . S
C740 C741 1.287 . S
C741 C740 1.287 . S
C741 C742 1.524 . S
C741 H744 0.999 . S
C742 H712 0.950 . S
C742 C741 1.524 . S
C742 C743 1.415 . S
C743 H713 0.950 . S
C743 C738 1.363 . S
C743 C742 1.415 . S
H744 C741 0.999 . S
H745 C726 0.913 . S
H746 C764 0.951 . S
H747 C766 0.951 . S
H748 C768 0.950 . S
H749 C769 0.950 . S
H750 C771 0.950 . S
H751 C774 0.950 . S
H752 C775 0.950 . S
H753 C777 0.950 . S
H754 C778 0.950 . S
H755 C779 0.951 . S
H756 C781 0.951 . S
H757 C783 0.950 . S
H758 C784 0.950 . S
H759 C786 0.950 . S
H760 C789 0.950 . S
H761 C790 0.950 1_565 S
H762 C792 0.950 . S
H763 C793 0.950 . S
C764 H746 0.951 . S
C764 C765 1.366 . S
C764 C766 1.388 . S
C765 C764 1.366 . S
C765 C769 1.385 . S
C766 H747 0.951 . S
C766 C764 1.388 . S
C766 C767 1.366 . S
C767 C766 1.366 . S
C767 C768 1.414 . S
C767 C770 1.499 . S
C768 H748 0.950 . S
C768 C767 1.414 . S
C768 C769 1.374 . S
C769 H749 0.950 . S
C769 C765 1.385 . S
C769 C768 1.374 . S
C770 C767 1.499 . S
C770 C771 1.373 . S
C770 C772 1.389 . S
C771 H750 0.950 . S
C771 C770 1.373 . S
C771 C787 1.377 . S
C772 C770 1.389 . S
C772 C773 1.524 . S
C772 C786 1.377 . S
C773 C772 1.524 . S
C773 C774 1.397 . S
C773 C778 1.363 . S
C774 H751 0.950 . S
C774 C773 1.397 . S
C774 C775 1.334 . S
C775 H752 0.950 . S
C775 C774 1.334 . S
C775 C776 1.287 . S
C776 C775 1.287 . S
C776 C777 1.524 . S
C776 H795 0.913 . S
C777 H753 0.950 . S
C777 C776 1.524 . S
C777 C778 1.415 . S
C778 H754 0.950 . S
C778 C773 1.363 . S
C778 C777 1.415 . S
C779 H755 0.951 . S
C779 C780 1.366 . S
C779 C781 1.388 . S
C780 C779 1.366 . S
C780 C784 1.385 . S
C781 H756 0.951 . S
C781 C779 1.388 . S
C781 C782 1.366 . S
C782 C781 1.366 . S
C782 C783 1.414 . S
C782 C785 1.499 . S
C783 H757 0.950 . S
C783 C782 1.414 . S
C783 C784 1.374 . S
C784 H758 0.950 . S
C784 C780 1.385 . S
C784 C783 1.374 . S
C785 C782 1.499 . S
C785 C786 1.373 . S
C785 C787 1.389 . S
C786 H759 0.950 . S
C786 C772 1.377 . S
C786 C785 1.373 . S
C787 C771 1.377 . S
C787 C785 1.389 . S
C787 C788 1.524 . S
C788 C787 1.524 . S
C788 C789 1.397 . S
C788 C793 1.363 . S
C789 H760 0.950 . S
C789 C788 1.397 . S
C789 C790 1.334 . S
C790 H761 0.950 1_545 S
C790 C789 1.334 . S
C790 C791 1.287 . S
C791 C790 1.287 . S
C791 C792 1.524 . S
C791 H794 0.999 . S
C792 H762 0.950 . S
C792 C791 1.524 . S
C792 C793 1.415 . S
C793 H763 0.950 . S
C793 C788 1.363 . S
C793 C792 1.415 . S
H794 C791 0.999 . S
H795 C776 0.913 . S
H796 C814 0.951 . S
H797 C816 0.951 . S
H798 C818 0.950 . S
H799 C819 0.950 . S
H800 C821 0.950 . S
H801 C824 0.950 . S
H802 C825 0.950 . S
H803 C827 0.950 . S
H804 C828 0.950 . S
H805 C829 0.951 . S
H806 C831 0.951 . S
H807 C833 0.950 . S
H808 C834 0.950 . S
H809 C836 0.950 . S
H810 C839 0.950 . S
H811 C840 0.950 . S
H812 C842 0.950 . S
H813 C843 0.950 . S
C814 H796 0.951 . S
C814 C815 1.366 . S
C814 C816 1.388 . S
C815 C814 1.366 . S
C815 C819 1.385 . S
C816 H797 0.951 . S
C816 C814 1.388 . S
C816 C817 1.366 . S
C817 C816 1.366 . S
C817 C818 1.414 . S
C817 C820 1.499 . S
C818 H798 0.950 . S
C818 C817 1.414 . S
C818 C819 1.374 . S
C819 H799 0.950 . S
C819 C815 1.385 . S
C819 C818 1.374 . S
C820 C817 1.499 . S
C820 C821 1.373 . S
C820 C822 1.389 . S
C821 H800 0.950 . S
C821 C820 1.373 . S
C821 C837 1.377 . S
C822 C820 1.389 . S
C822 C823 1.524 . S
C822 C836 1.377 . S
C823 C822 1.524 . S
C823 C824 1.397 . S
C823 C828 1.363 . S
C824 H801 0.950 . S
C824 C823 1.397 . S
C824 C825 1.334 . S
C825 H802 0.950 . S
C825 C824 1.334 . S
C825 C826 1.287 . S
C826 C825 1.287 . S
C826 C827 1.524 . S
C826 H845 0.913 . S
C827 H803 0.950 . S
C827 C826 1.524 . S
C827 C828 1.415 . S
C828 H804 0.950 . S
C828 C823 1.363 . S
C828 C827 1.415 . S
C829 H805 0.951 . S
C829 C830 1.366 . S
C829 C831 1.388 . S
C830 C829 1.366 . S
C830 C834 1.385 . S
C831 H806 0.951 . S
C831 C829 1.388 . S
C831 C832 1.366 . S
C832 C831 1.366 . S
C832 C833 1.414 . S
C832 C835 1.499 . S
C833 H807 0.950 . S
C833 C832 1.414 . S
C833 C834 1.374 . S
C834 H808 0.950 . S
C834 C830 1.385 . S
C834 C833 1.374 . S
C835 C832 1.499 . S
C835 C836 1.373 . S
C835 C837 1.389 . S
C836 H809 0.950 . S
C836 C822 1.377 . S
C836 C835 1.373 . S
C837 C821 1.377 . S
C837 C835 1.389 . S
C837 C838 1.524 . S
C838 C837 1.524 . S
C838 C839 1.397 . S
C838 C843 1.363 . S
C839 H810 0.950 . S
C839 C838 1.397 . S
C839 C840 1.334 . S
C840 H811 0.950 . S
C840 C839 1.334 . S
C840 C841 1.287 . S
C841 C840 1.287 . S
C841 C842 1.524 . S
C841 H844 0.999 . S
C842 H812 0.950 . S
C842 C841 1.524 . S
C842 C843 1.415 . S
C843 H813 0.950 . S
C843 C838 1.363 . S
C843 C842 1.415 . S
H844 C841 0.999 . S
H845 C826 0.913 . S
H846 C864 0.951 . S
H847 C866 0.951 . S
H848 C868 0.950 . S
H849 C869 0.950 . S
H850 C871 0.950 . S
H851 C874 0.950 1_565 S
H852 C875 0.950 . S
H853 C877 0.950 . S
H854 C878 0.950 1_565 S
H855 C879 0.951 . S
H856 C881 0.951 . S
H857 C883 0.950 . S
H858 C884 0.950 . S
H859 C886 0.950 . S
H860 C889 0.950 . S
H861 C890 0.950 . S
H862 C892 0.950 . S
H863 C893 0.950 . S
C864 H846 0.951 . S
C864 C865 1.366 . S
C864 C866 1.388 . S
C865 C864 1.366 . S
C865 C869 1.385 . S
C866 H847 0.951 . S
C866 C864 1.388 . S
C866 C867 1.366 . S
C867 C866 1.366 . S
C867 C868 1.414 . S
C867 C870 1.499 . S
C868 H848 0.950 . S
C868 C867 1.414 . S
C868 C869 1.374 . S
C869 H849 0.950 . S
C869 C865 1.385 . S
C869 C868 1.374 . S
C870 C867 1.499 . S
C870 C871 1.373 . S
C870 C872 1.389 . S
C871 H850 0.950 . S
C871 C870 1.373 . S
C871 C887 1.377 . S
C872 C870 1.389 . S
C872 C873 1.524 . S
C872 C886 1.377 . S
C873 C872 1.524 . S
C873 C874 1.397 1_565 S
C873 C878 1.363 1_565 S
C874 H851 0.950 1_545 S
C874 C873 1.397 1_545 S
C874 C875 1.334 . S
C875 H852 0.950 . S
C875 C874 1.334 . S
C875 C876 1.287 . S
C876 C875 1.287 . S
C876 C877 1.524 . S
C876 H895 0.913 . S
C877 H853 0.950 . S
C877 C876 1.524 . S
C877 C878 1.415 . S
C878 H854 0.950 1_545 S
C878 C873 1.363 1_545 S
C878 C877 1.415 . S
C879 H855 0.951 . S
C879 C880 1.366 . S
C879 C881 1.388 . S
C880 C879 1.366 . S
C880 C884 1.385 . S
C881 H856 0.951 . S
C881 C879 1.388 . S
C881 C882 1.366 . S
C882 C881 1.366 . S
C882 C883 1.414 . S
C882 C885 1.499 . S
C883 H857 0.950 . S
C883 C882 1.414 . S
C883 C884 1.374 . S
C884 H858 0.950 . S
C884 C880 1.385 . S
C884 C883 1.374 . S
C885 C882 1.499 . S
C885 C886 1.373 . S
C885 C887 1.389 . S
C886 H859 0.950 . S
C886 C872 1.377 . S
C886 C885 1.373 . S
C887 C871 1.377 . S
C887 C885 1.389 . S
C887 C888 1.524 . S
C888 C887 1.524 . S
C888 C889 1.397 . S
C888 C893 1.363 . S
C889 H860 0.950 . S
C889 C888 1.397 . S
C889 C890 1.334 . S
C890 H861 0.950 . S
C890 C889 1.334 . S
C890 C891 1.287 . S
C891 C890 1.287 . S
C891 C892 1.524 . S
C891 H894 0.999 . S
C892 H862 0.950 . S
C892 C891 1.524 . S
C892 C893 1.415 . S
C893 H863 0.950 . S
C893 C888 1.363 . S
C893 C892 1.415 . S
H894 C891 0.999 . S
H895 C876 0.913 . S
C330 C191 1.613 . S
C315 C119 1.615 . S
C365 C23 1.605 . S
C380 C286 1.587 . S
C415 C55 1.568 . S
C430 C202 1.613 . S
C465 C87 1.539 . S
C480 C275 1.587 . S
C530 C186 1.400 . S
C515 C17 1.549 . S
C580 C279 1.605 . S
C565 C61 1.542 . S
C615 C93 1.502 . S
C630 C195 1.587 . S
C665 C113 1.530 . S
C680 C270 1.400 . S
C730 C281 1.398 . S
C715 C49 1.501 . S
C780 C197 1.399 . S
C765 C81 1.509 . S
C830 C268 1.605 . S
C815 C125 1.594 . S
C865 C29 1.578 . S
C880 C184 1.587 . S
