# Generated by pormake.
# Topology apo, (3,6)-cn, num edge types: 1
# Building blocks:
#     Node 0, Type 0, BuildingBlock: BETDAH_clean_linker_0, # of connection points: 3
#     Node 1, Type 0, BuildingBlock: BETDAH_clean_linker_0, # of connection points: 3
#     Node 2, Type 0, BuildingBlock: BETDAH_clean_linker_0, # of connection points: 3
#     Node 3, Type 0, BuildingBlock: BETDAH_clean_linker_0, # of connection points: 3
#     Node 4, Type 0, BuildingBlock: BETDAH_clean_linker_0, # of connection points: 3
#     Node 5, Type 0, BuildingBlock: BETDAH_clean_linker_0, # of connection points: 3
#     Node 6, Type 0, BuildingBlock: BETDAH_clean_linker_0, # of connection points: 3
#     Node 7, Type 0, BuildingBlock: BETDAH_clean_linker_0, # of connection points: 3
#     Node 8, Type 1, BuildingBlock: KUMJIN_clean_sbu_1, # of connection points: 6
#     Node 9, Type 1, BuildingBlock: KUMJIN_clean_sbu_1, # of connection points: 6
#     Node 10, Type 1, BuildingBlock: KUMJIN_clean_sbu_1, # of connection points: 6
#     Node 11, Type 1, BuildingBlock: KUMJIN_clean_sbu_1, # of connection points: 6
#     Edge 12, Type (0, 1), BuildingBlock: CIFDUS_clean_linker_0, # of connection points: 2
#     Edge 13, Type (0, 1), BuildingBlock: CIFDUS_clean_linker_0, # of connection points: 2
#     Edge 14, Type (0, 1), BuildingBlock: CIFDUS_clean_linker_0, # of connection points: 2
#     Edge 15, Type (0, 1), BuildingBlock: CIFDUS_clean_linker_0, # of connection points: 2
#     Edge 16, Type (0, 1), BuildingBlock: CIFDUS_clean_linker_0, # of connection points: 2
#     Edge 17, Type (0, 1), BuildingBlock: CIFDUS_clean_linker_0, # of connection points: 2
#     Edge 18, Type (0, 1), BuildingBlock: CIFDUS_clean_linker_0, # of connection points: 2
#     Edge 19, Type (0, 1), BuildingBlock: CIFDUS_clean_linker_0, # of connection points: 2
#     Edge 20, Type (0, 1), BuildingBlock: CIFDUS_clean_linker_0, # of connection points: 2
#     Edge 21, Type (0, 1), BuildingBlock: CIFDUS_clean_linker_0, # of connection points: 2
#     Edge 22, Type (0, 1), BuildingBlock: CIFDUS_clean_linker_0, # of connection points: 2
#     Edge 23, Type (0, 1), BuildingBlock: CIFDUS_clean_linker_0, # of connection points: 2
#     Edge 24, Type (0, 1), BuildingBlock: CIFDUS_clean_linker_0, # of connection points: 2
#     Edge 25, Type (0, 1), BuildingBlock: CIFDUS_clean_linker_0, # of connection points: 2
#     Edge 26, Type (0, 1), BuildingBlock: CIFDUS_clean_linker_0, # of connection points: 2
#     Edge 27, Type (0, 1), BuildingBlock: CIFDUS_clean_linker_0, # of connection points: 2
#     Edge 28, Type (0, 1), BuildingBlock: CIFDUS_clean_linker_0, # of connection points: 2
#     Edge 29, Type (0, 1), BuildingBlock: CIFDUS_clean_linker_0, # of connection points: 2
#     Edge 30, Type (0, 1), BuildingBlock: CIFDUS_clean_linker_0, # of connection points: 2
#     Edge 31, Type (0, 1), BuildingBlock: CIFDUS_clean_linker_0, # of connection points: 2
#     Edge 32, Type (0, 1), BuildingBlock: CIFDUS_clean_linker_0, # of connection points: 2
#     Edge 33, Type (0, 1), BuildingBlock: CIFDUS_clean_linker_0, # of connection points: 2
#     Edge 34, Type (0, 1), BuildingBlock: CIFDUS_clean_linker_0, # of connection points: 2
#     Edge 35, Type (0, 1), BuildingBlock: CIFDUS_clean_linker_0, # of connection points: 2
# Relax obj value: 0.036
# Max RMSD: 0.228
# Mean RMSD: 0.160
data_MOF--net-apo--node1-KUMJIN_clean_sbu_1--node2-BETDAH_clean_linker_0--edge1-CIFDUS_clean_linker_0
_symmetry_space_group_name_H-M    P1
_symmetry_Int_Tables_number       1
_symmetry_cell_setting            triclinic
loop_
_symmetry_equiv_pos_as_xyz
'x, y, z'
_cell_length_a     24.21117
_cell_length_b     36.575722
_cell_length_c     46.27918
_cell_angle_alpha  89.275925
_cell_angle_beta   89.88855
_cell_angle_gamma 90.396235
loop_
_atom_site_label
_atom_site_type_symbol
_atom_site_fract_x
_atom_site_fract_y
_atom_site_fract_z
_atom_type_partial_charge
H0 H 0.36192 0.45119 0.42538 0.0
H1 H 0.29807 0.37399 0.36375 0.0
H2 H 0.28183 0.3527 0.45482 0.0
C3 C 0.34137 0.42565 0.42048 0.0
C4 C 0.3239 0.40303 0.4435 0.0
C5 C 0.3334 0.4155 0.39145 0.0
C6 C 0.30452 0.38261 0.38578 0.0
C7 C 0.28556 0.36017 0.40878 0.0
C8 C 0.29623 0.3703 0.43731 0.0
N9 N 0.25679 0.32667 0.40455 0.0
C10 C 0.23405 0.3143 0.37885 0.0
H11 H 0.13034 0.07009 0.92071 0.0
H12 H 0.24328 0.1317 0.86664 0.0
H13 H 0.23697 0.15123 0.95804 0.0
C14 C 0.16135 0.09145 0.91828 0.0
C15 C 0.18022 0.10996 0.94284 0.0
C16 C 0.18402 0.09883 0.89077 0.0
C17 C 0.22537 0.12598 0.8877 0.0
C18 C 0.24412 0.1451 0.91209 0.0
C19 C 0.22202 0.13649 0.93942 0.0
N20 N 0.2868 0.17198 0.91059 0.0
C21 C 0.30115 0.19331 0.88653 0.0
H22 H 0.86351 0.08546 0.59815 0.0
H23 H 0.74476 0.13134 0.65702 0.0
H24 H 0.74077 0.16015 0.56695 0.0
C25 C 0.82901 0.10335 0.6024 0.0
C26 C 0.80564 0.123 0.57933 0.0
C27 C 0.80727 0.10566 0.63061 0.0
C28 C 0.76332 0.12991 0.63575 0.0
C29 C 0.73996 0.14989 0.61269 0.0
C30 C 0.76096 0.14607 0.58474 0.0
N31 N 0.69016 0.16945 0.61603 0.0
C32 C 0.68268 0.19743 0.63561 0.0
H33 H 0.65703 0.43468 0.09435 0.0
H34 H 0.77429 0.40399 0.16039 0.0
H35 H 0.80328 0.37527 0.07219 0.0
C36 C 0.69446 0.42086 0.10094 0.0
C37 C 0.72702 0.40404 0.0798 0.0
C38 C 0.71096 0.42135 0.13017 0.0
C39 C 0.76069 0.40404 0.13811 0.0
C40 C 0.79398 0.38777 0.117 0.0
C41 C 0.77729 0.38824 0.0881 0.0
N42 N 0.84643 0.37304 0.12375 0.0
C43 C 0.85603 0.34853 0.14634 0.0
H44 H 0.66736 0.55778 0.59719 0.0
H45 H 0.74308 0.63225 0.6566 0.0
H46 H 0.74014 0.65877 0.56598 0.0
C47 C 0.68831 0.58356 0.60091 0.0
C48 C 0.70188 0.60691 0.57747 0.0
C49 C 0.7024 0.5927 0.6294 0.0
C50 C 0.73167 0.62535 0.63471 0.0
C51 C 0.74586 0.64888 0.61146 0.0
C52 C 0.73024 0.63967 0.58333 0.0
N53 N 0.77615 0.682 0.61482 0.0
C54 C 0.79326 0.69786 0.64049 0.0
H55 H 0.90033 0.9351 0.09746 0.0
H56 H 0.78815 0.84751 0.07787 0.0
H57 H 0.77879 0.90026 0.16026 0.0
C58 C 0.86758 0.91643 0.10416 0.0
C59 C 0.84222 0.92093 0.13116 0.0
C60 C 0.84871 0.89004 0.08483 0.0
C61 C 0.80462 0.86708 0.09306 0.0
C62 C 0.78078 0.86959 0.12063 0.0
C63 C 0.79973 0.89657 0.1398 0.0
N64 N 0.73156 0.84955 0.12636 0.0
C65 C 0.72522 0.82354 0.14835 0.0
H66 H 0.15634 0.93111 0.42138 0.0
H67 H 0.19087 0.85914 0.35034 0.0
H68 H 0.17734 0.81618 0.43658 0.0
C69 C 0.16548 0.90426 0.41307 0.0
C70 C 0.16631 0.87449 0.43249 0.0
C71 C 0.17328 0.89939 0.38313 0.0
C72 C 0.18677 0.8642 0.37325 0.0
C73 C 0.18969 0.83446 0.39272 0.0
C74 C 0.17889 0.8397 0.4221 0.0
N75 N 0.19271 0.79825 0.38247 0.0
C76 C 0.23965 0.78362 0.36993 0.0
H77 H 0.37432 0.58803 0.92014 0.0
H78 H 0.25955 0.66907 0.94721 0.0
H79 H 0.25457 0.63208 0.85982 0.0
C80 C 0.34134 0.6066 0.91457 0.0
C81 C 0.31772 0.60663 0.88661 0.0
C82 C 0.3218 0.62968 0.93625 0.0
C83 C 0.27583 0.65155 0.93055 0.0
C84 C 0.2518 0.65245 0.90313 0.0
C85 C 0.27336 0.63069 0.88099 0.0
N86 N 0.20407 0.67414 0.89923 0.0
C87 C 0.19139 0.69397 0.87435 0.0
Eu88 Eu 0.07868 0.11595 0.22884 0.0
C89 C 0.83865 0.11496 0.25557 0.0
N90 N 0.87303 0.14364 0.26074 0.0
C91 C 0.81068 0.1841 0.23616 0.0
C92 C 0.79038 0.11942 0.23891 0.0
C93 C 0.85745 0.17827 0.25326 0.0
C94 C 0.77769 0.15438 0.22833 0.0
C95 C 0.81179 0.05234 0.26667 0.0
C96 C 0.84897 0.08191 0.26928 0.0
C97 C 0.76567 0.05586 0.24851 0.0
C98 C 0.75501 0.08936 0.23462 0.0
Eu99 Eu 0.95473 0.13047 0.28716 0.0
N100 N 0.89405 0.07936 0.28655 0.0
C101 C 0.82108 0.02062 0.28318 0.0
C102 C 0.90129 0.04954 0.30422 0.0
C103 C 0.86541 0.01951 0.30247 0.0
H104 H 0.88104 0.20154 0.26054 0.0
H105 H 0.87209 0.99551 0.3159 0.0
H106 H 0.18295 0.07822 0.26513 0.0
H107 H 0.07959 0.24357 0.16524 0.0
H108 H 0.93574 0.04872 0.31896 0.0
H109 H 0.79339 0.99731 0.28183 0.0
H110 H 0.04983 0.18079 0.17779 0.0
H111 H 0.7997 0.21154 0.22942 0.0
H112 H 0.73701 0.03328 0.24586 0.0
H113 H 0.71815 0.09213 0.22155 0.0
H114 H 0.27364 0.09661 0.2853 0.0
H115 H 0.74104 0.15899 0.21543 0.0
H116 H 0.16032 0.271 0.18975 0.0
N117 N 0.16678 0.13068 0.24708 0.0
C118 C 0.18618 0.16493 0.2414 0.0
C119 C 0.24929 0.11614 0.27315 0.0
C120 C 0.23725 0.17674 0.25261 0.0
C121 C 0.19813 0.10579 0.26175 0.0
C122 C 0.26858 0.15195 0.26894 0.0
N123 N 0.10806 0.17449 0.21184 0.0
C124 C 0.08307 0.19316 0.18979 0.0
C125 C 0.17542 0.22297 0.21635 0.0
C126 C 0.1554 0.18773 0.22364 0.0
C127 C 0.14635 0.2438 0.19595 0.0
C128 C 0.1007 0.22846 0.18212 0.0
H129 H 0.30808 0.15996 0.27792 0.0
H130 H 0.29453 0.22234 0.2555 0.0
H131 H 0.24049 0.26281 0.22362 0.0
O132 O 0.12232 0.11173 0.18759 0.0
O133 O 0.09608 0.13776 0.27372 0.0
O134 O 0.02217 0.17407 0.28392 0.0
O135 O 0.10125 0.0627 0.2115 0.0
O136 O 1.00076 0.14621 0.21508 0.0
O137 O 0.97514 0.17718 0.25582 0.0
O138 O 0.96309 0.12878 0.33436 0.0
O139 O 0.96337 0.07814 0.26139 0.0
O140 O 0.99087 0.10053 0.21778 0.0
O141 O 0.89732 0.15953 0.31499 0.0
O142 O 0.02635 0.09606 0.30327 0.0
O143 O 0.07414 0.07106 0.26412 0.0
C144 C 0.07543 0.16747 0.28494 0.0
C145 C 0.09833 0.06013 0.15995 0.0
C146 C 0.1001 0.05726 0.10693 0.0
C147 C 0.05759 0.03082 0.10823 0.0
C148 C 0.05596 0.03366 0.16049 0.0
C149 C 0.0358 0.01922 0.13479 0.0
C150 C 0.12028 0.07171 0.13307 0.0
C151 C 0.97832 0.17469 0.22755 0.0
C152 C 0.11945 0.07627 0.18706 0.0
C153 C 0.25575 0.21255 0.24676 0.0
C154 C 0.22487 0.23564 0.22867 0.0
C155 C 0.96438 0.07591 0.2332 0.0
C156 C 0.87836 0.13013 0.35955 0.0
C157 C 0.84769 0.11876 0.40916 0.0
C158 C 0.805 0.09631 0.39871 0.0
C159 C 0.83435 0.1085 0.3496 0.0
C160 C 0.88455 0.13555 0.3894 0.0
C161 C 0.79832 0.0914 0.3691 0.0
C162 C 0.05849 0.07095 0.2917 0.0
C163 C 0.91793 0.14683 0.33895 0.0
H164 H 0.04168 0.01858 0.08873 0.0
H165 H 0.03827 0.02408 0.18074 0.0
H166 H 0.00326 0.99877 0.13545 0.0
H167 H 0.15255 0.0924 0.13256 0.0
H168 H 0.7758 0.08336 0.41344 0.0
H169 H 0.82746 0.10496 0.32677 0.0
H170 H 0.91795 0.15264 0.39722 0.0
H171 H 0.76473 0.07461 0.36122 0.0
Eu172 Eu 0.44686 0.39454 0.73979 0.0
C173 C 0.7011 0.41644 0.77363 0.0
N174 N 0.66801 0.38702 0.77935 0.0
C175 C 0.7422 0.34638 0.76837 0.0
C176 C 0.75622 0.41178 0.76453 0.0
C177 C 0.68793 0.35232 0.77745 0.0
C178 C 0.77642 0.37622 0.76173 0.0
C179 C 0.71332 0.48242 0.77119 0.0
C180 C 0.67995 0.45141 0.77697 0.0
C181 C 0.76806 0.47783 0.76193 0.0
C182 C 0.78944 0.44263 0.7586 0.0
Eu183 Eu 0.57685 0.40008 0.79389 0.0
N184 N 0.62616 0.4551 0.78497 0.0
C185 C 0.69045 0.51716 0.77461 0.0
C186 C 0.60406 0.48885 0.78897 0.0
C187 C 0.63565 0.52037 0.78365 0.0
H188 H 0.66231 0.32915 0.78343 0.0
H189 H 0.61756 0.5471 0.78626 0.0
H190 H 0.34779 0.45632 0.75037 0.0
H191 H 0.43261 0.24516 0.73811 0.0
H192 H 0.56151 0.49143 0.79509 0.0
H193 H 0.71468 0.54164 0.77026 0.0
H194 H 0.47676 0.30528 0.7304 0.0
H195 H 0.75773 0.31881 0.76673 0.0
H196 H 0.79421 0.50133 0.75725 0.0
H197 H 0.8318 0.43955 0.75149 0.0
H198 H 0.25056 0.45789 0.76695 0.0
H199 H 0.81851 0.37152 0.75477 0.0
H200 H 0.33613 0.24131 0.75564 0.0
N201 N 0.35331 0.39862 0.75346 0.0
C202 C 0.32603 0.36643 0.75792 0.0
C203 C 0.27145 0.432 0.76481 0.0
C204 C 0.27026 0.36589 0.76678 0.0
C205 C 0.32668 0.43113 0.75598 0.0
C206 C 0.24323 0.39924 0.77049 0.0
N207 N 0.40793 0.33528 0.7453 0.0
C208 C 0.4355 0.30405 0.73883 0.0
C209 C 0.32647 0.30004 0.7576 0.0
C210 C 0.35384 0.33387 0.75337 0.0
C211 C 0.3556 0.26783 0.75251 0.0
C212 C 0.41015 0.26988 0.74277 0.0
H213 H 0.20039 0.39998 0.77726 0.0
H214 H 0.20044 0.33129 0.77842 0.0
H215 H 0.24967 0.27368 0.77044 0.0
O216 O 0.45568 0.37801 0.69476 0.0
O217 O 0.43746 0.36778 0.78459 0.0
O218 O 0.52463 0.34824 0.7968 0.0
O219 O 0.39146 0.41566 0.70638 0.0
O220 O 0.53016 0.36957 0.72712 0.0
O221 O 0.56792 0.34779 0.7694 0.0
O222 O 0.56812 0.4189 0.8383 0.0
O223 O 0.58357 0.42978 0.74989 0.0
O224 O 0.49542 0.44742 0.7375 0.0
O225 O 0.63141 0.37999 0.82809 0.0
O226 O 0.49563 0.42613 0.80679 0.0
O227 O 0.4476 0.44667 0.76669 0.0
C228 C 0.47048 0.34537 0.79865 0.0
C229 C 0.42849 0.42112 0.65936 0.0
C230 C 0.42106 0.43095 0.60716 0.0
C231 C 0.45193 0.46348 0.60986 0.0
C232 C 0.45901 0.45362 0.6615 0.0
C233 C 0.47076 0.47465 0.63687 0.0
C234 C 0.4097 0.40976 0.63218 0.0
C235 C 0.56186 0.34637 0.7413 0.0
C236 C 0.41611 0.39899 0.68537 0.0
C237 C 0.24318 0.33224 0.77144 0.0
C238 C 0.27119 0.29942 0.76685 0.0
C239 C 0.54925 0.45128 0.73568 0.0
C240 C 0.58994 0.37514 0.8741 0.0
C241 C 0.58808 0.36547 0.92647 0.0
C242 C 0.5565 0.33349 0.9224 0.0
C243 C 0.55877 0.34306 0.87067 0.0
C244 C 0.60477 0.38626 0.90204 0.0
C245 C 0.54205 0.32242 0.89468 0.0
C246 C 0.46388 0.45025 0.79381 0.0
C247 C 0.60599 0.39723 0.84858 0.0
H248 H 0.46218 0.48008 0.59103 0.0
H249 H 0.47349 0.46263 0.68224 0.0
H250 H 0.4946 0.49966 0.63872 0.0
H251 H 0.38567 0.38474 0.63061 0.0
H252 H 0.54373 0.31662 0.94066 0.0
H253 H 0.54755 0.33395 0.84941 0.0
H254 H 0.62862 0.41117 0.90473 0.0
H255 H 0.51802 0.29767 0.89178 0.0
Eu256 Eu 0.06077 0.90553 0.7287 0.0
C257 C 0.81142 0.8742 0.77281 0.0
N258 N 0.84096 0.90587 0.7745 0.0
C259 C 0.75984 0.94073 0.76404 0.0
C260 C 0.75459 0.87469 0.7662 0.0
C261 C 0.81603 0.93894 0.77078 0.0
C262 C 0.72903 0.90849 0.7616 0.0
C263 C 0.8083 0.80784 0.77646 0.0
C264 C 0.83796 0.84109 0.77784 0.0
C265 C 0.75181 0.80828 0.76967 0.0
C266 C 0.72506 0.84158 0.76452 0.0
Eu267 Eu 0.93522 0.89946 0.78587 0.0
N268 N 0.89316 0.84132 0.7833 0.0
C269 C 0.83647 0.77512 0.78176 0.0
C270 C 0.92033 0.80972 0.78976 0.0
C271 C 0.89262 0.77611 0.78867 0.0
H272 H 0.83922 0.96402 0.77337 0.0
H273 H 0.91452 0.751 0.79323 0.0
H274 H 0.16021 0.84458 0.74514 0.0
H275 H 0.07136 0.05423 0.71854 0.0
H276 H 0.96345 0.81047 0.79546 0.0
H277 H 0.81517 0.74901 0.78081 0.0
H278 H 0.02714 0.99324 0.71629 0.0
H279 H 0.74024 0.96699 0.76093 0.0
H280 H 0.72842 0.78299 0.76833 0.0
H281 H 0.68142 0.84145 0.75937 0.0
H282 H 0.25797 0.84526 0.76006 0.0
H283 H 0.68546 0.91 0.75646 0.0
H284 H 0.16929 0.0598 0.73316 0.0
N285 N 0.15433 0.90252 0.74243 0.0
C286 C 0.18149 0.93515 0.74387 0.0
C287 C 0.23683 0.87073 0.75578 0.0
C288 C 0.23759 0.93674 0.75194 0.0
C289 C 0.18124 0.87047 0.74765 0.0
C290 C 0.26505 0.904 0.75809 0.0
N291 N 0.09852 0.96501 0.73054 0.0
C292 C 0.06957 0.9955 0.723 0.0
C293 C 0.18011 1.00141 0.73879 0.0
C294 C 0.15312 0.96721 0.73732 0.0
C295 C 0.15005 0.03301 0.73221 0.0
C296 C 0.09468 0.03 0.72407 0.0
H297 H 0.30815 0.90408 0.76436 0.0
H298 H 0.30752 0.97254 0.75984 0.0
H299 H 0.25721 0.02908 0.74842 0.0
O300 O 0.05321 0.92404 0.68401 0.0
O301 O 0.06777 0.93993 0.77001 0.0
O302 O 0.979 0.95415 0.78418 0.0
O303 O 0.11175 0.8817 0.69463 0.0
O304 O 0.97345 0.92244 0.71687 0.0
O305 O 0.93234 0.94907 0.75592 0.0
O306 O 0.94704 0.87876 0.82966 0.0
O307 O 0.92675 0.86555 0.74485 0.0
O308 O 0.01476 0.85128 0.72923 0.0
O309 O 0.88787 0.9218 0.8219 0.0
O310 O 0.02309 0.88252 0.79641 0.0
O311 O 0.0633 0.85529 0.75777 0.0
C312 C 0.03256 0.96022 0.78451 0.0
C313 C 0.06798 0.87938 0.64904 0.0
C314 C 0.07525 0.86323 0.5982 0.0
C315 C 0.02479 0.84418 0.60049 0.0
C316 C 0.0176 0.86028 0.65085 0.0
C317 C 0.99643 0.84249 0.62676 0.0
C318 C 0.09714 0.88047 0.62272 0.0
C319 C 0.94237 0.94794 0.72801 0.0
C320 C 0.08791 0.90023 0.67397 0.0
C321 C 0.26449 0.97081 0.75357 0.0
C322 C 0.23586 1.00303 0.74702 0.0
C323 C 0.96107 0.84535 0.72983 0.0
C324 C 0.93231 0.91961 0.86739 0.0
C325 C 0.92935 0.92592 0.91982 0.0
C326 C 0.97397 0.95074 0.91794 0.0
C327 C 0.97735 0.9438 0.86605 0.0
C328 C 0.90841 0.9107 0.89424 0.0
C329 C 0.99769 0.9596 0.89119 0.0
C330 C 0.05119 0.85551 0.78544 0.0
C331 C 0.91247 0.90148 0.84125 0.0
H332 H 0.00732 0.83067 0.58188 0.0
H333 H 0.99413 0.85981 0.67074 0.0
H334 H 0.95749 0.82787 0.62835 0.0
H335 H 0.13561 0.89571 0.62105 0.0
H336 H 0.99045 0.9634 0.93715 0.0
H337 H 0.99716 0.94988 0.84562 0.0
H338 H 0.87462 0.89111 0.89524 0.0
H339 H 0.0323 0.97847 0.88997 0.0
Eu340 Eu 0.45416 0.61148 0.22813 0.0
C341 C 0.6573 0.69325 0.28192 0.0
N342 N 0.65515 0.65681 0.27727 0.0
C343 C 0.74469 0.65915 0.2551 0.0
C344 C 0.70251 0.71459 0.2722 0.0
C345 C 0.69873 0.63925 0.26506 0.0
C346 C 0.74621 0.69711 0.25826 0.0
C347 C 0.61812 0.746 0.30507 0.0
C348 C 0.61575 0.70863 0.29803 0.0
C349 C 0.66103 0.76805 0.29382 0.0
C350 C 0.70323 0.75234 0.27742 0.0
Eu351 Eu 0.57406 0.62529 0.29179 0.0
N352 N 0.57576 0.68629 0.30898 0.0
C353 C 0.57883 0.75961 0.3243 0.0
C354 C 0.54103 0.69861 0.32995 0.0
C355 C 0.5409 0.73559 0.33731 0.0
H356 H 0.69735 0.60998 0.26251 0.0
H357 H 0.51197 0.74544 0.35323 0.0
H358 H 0.37757 0.68829 0.22789 0.0
H359 H 0.37216 0.47295 0.21955 0.0
H360 H 0.51304 0.67997 0.34095 0.0
H361 H 0.57912 0.78816 0.33027 0.0
H362 H 0.4406 0.52318 0.21314 0.0
H363 H 0.77869 0.64526 0.24486 0.0
H364 H 0.6631 0.79694 0.29861 0.0
H365 H 0.73708 0.76937 0.26967 0.0
H366 H 0.28596 0.7083 0.24497 0.0
H367 H 0.7817 0.71251 0.25043 0.0
H368 H 0.28164 0.48544 0.24229 0.0
N369 N 0.36438 0.63262 0.23996 0.0
C370 C 0.32641 0.60691 0.24776 0.0
C371 C 0.29703 0.67971 0.2463 0.0
C372 C 0.27277 0.61674 0.25655 0.0
C373 C 0.34917 0.66837 0.23706 0.0
C374 C 0.25905 0.65385 0.25678 0.0
N375 N 0.3898 0.56285 0.23284 0.0
C376 C 0.40114 0.52862 0.22308 0.0
C377 C 0.29899 0.54313 0.24779 0.0
C378 C 0.33933 0.57071 0.24365 0.0
C379 C 0.31154 0.5074 0.23958 0.0
C380 C 0.36253 0.50025 0.22666 0.0
H381 H 0.21837 0.66259 0.26346 0.0
H382 H 0.19256 0.59622 0.2703 0.0
H383 H 0.21551 0.53159 0.26246 0.0
O384 O 0.49354 0.60668 0.18595 0.0
O385 O 0.46368 0.5661 0.26214 0.0
O386 O 0.49 0.60046 0.30047 0.0
O387 O 0.40623 0.61737 0.18822 0.0
O388 O 0.52458 0.57108 0.22668 0.0
O389 O 0.59701 0.58211 0.25913 0.0
O390 O 0.61326 0.6249 0.33487 0.0
O391 O 0.58958 0.64074 0.24447 0.0
O392 O 0.50638 0.66314 0.2295 0.0
O393 O 0.60357 0.57425 0.31088 0.0
O394 O 0.48532 0.64426 0.29917 0.0
O395 O 0.4577 0.66407 0.25429 0.0
C396 C 0.47353 0.56922 0.28991 0.0
C397 C 0.45428 0.64014 0.14723 0.0
C398 C 0.43328 0.65675 0.09721 0.0
C399 C 0.46821 0.68743 0.09955 0.0
C400 C 0.4884 0.67118 0.14932 0.0
C401 C 0.49524 0.69468 0.12554 0.0
C402 C 0.42632 0.63328 0.12127 0.0
C403 C 0.57386 0.56423 0.23761 0.0
C404 C 0.44888 0.61389 0.17143 0.0
C405 C 0.23374 0.58924 0.26312 0.0
C406 C 0.24678 0.55244 0.25863 0.0
C407 C 0.56055 0.66549 0.23057 0.0
C408 C 0.64557 0.56843 0.35844 0.0
C409 C 0.67305 0.56218 0.40909 0.0
C410 C 0.6828 0.52487 0.40485 0.0
C411 C 0.65617 0.53103 0.3547 0.0
C412 C 0.65494 0.58408 0.38574 0.0
C413 C 0.67487 0.50952 0.37773 0.0
C414 C 0.45688 0.66676 0.28258 0.0
C415 C 0.61971 0.58962 0.33464 0.0
H416 H 0.47406 0.70602 0.08137 0.0
H417 H 0.51011 0.67704 0.16917 0.0
H418 H 0.5218 0.71849 0.12722 0.0
H419 H 0.40014 0.60922 0.1196 0.0
H420 H 0.69685 0.50765 0.42255 0.0
H421 H 0.64907 0.51817 0.33407 0.0
H422 H 0.64641 0.61276 0.38913 0.0
H423 H 0.68256 0.48072 0.37465 0.0
H424 H 0.09517 0.95195 0.38881 0.0
H425 H 0.22124 0.91549 0.32989 0.0
H426 H 0.19627 0.96438 0.29577 0.0
H427 H 0.13796 0.01812 0.28286 0.0
H428 H 0.01986 0.05619 0.34575 0.0
H429 H 0.04379 1.00665 0.3782 0.0
C430 C 0.11869 0.955 0.36897 0.0
C431 C 0.1607 0.93 0.36237 0.0
C432 C 0.10539 0.98366 0.34993 0.0
C433 C 0.18845 0.934 0.33569 0.0
C434 C 0.17438 0.96215 0.31617 0.0
C435 C 0.11767 0.01563 0.30369 0.0
C436 C 0.07653 0.04089 0.31144 0.0
C437 C 0.13274 0.98721 0.32305 0.0
C438 C 0.05116 0.03724 0.33875 0.0
C439 C 0.06486 1.00881 0.35755 0.0
H440 H 0.42169 0.57754 0.88124 0.0
H441 H 0.26116 0.57638 0.84033 0.0
H442 H 0.294 0.53153 0.80605 0.0
H443 H 0.36636 0.48887 0.78992 0.0
H444 H 0.51736 0.48129 0.83887 0.0
H445 H 0.48917 0.53208 0.86836 0.0
C446 C 0.39277 0.5671 0.8655 0.0
C447 C 0.33841 0.58067 0.86411 0.0
C448 C 0.4103 0.53922 0.84718 0.0
C449 C 0.3035 0.56743 0.84212 0.0
C450 C 0.32202 0.5412 0.82256 0.0
C451 C 0.3932 0.49834 0.80684 0.0
C452 C 0.44465 0.4815 0.81143 0.0
C453 C 0.37512 0.5264 0.82518 0.0
C454 C 0.47805 0.49387 0.83422 0.0
C455 C 0.4619 0.52301 0.85129 0.0
H456 H 0.60325 0.58904 0.6561 0.0
H457 H 0.76353 0.53897 0.65461 0.0
H458 H 0.73119 0.49103 0.68839 0.0
H459 H 0.65461 0.4607 0.71496 0.0
H460 H 0.49524 0.51271 0.71773 0.0
H461 H 0.5295 0.56214 0.68661 0.0
C462 C 0.63121 0.56797 0.66368 0.0
C463 C 0.68567 0.56749 0.6532 0.0
C464 C 0.61214 0.54047 0.68285 0.0
C465 C 0.72159 0.53994 0.66275 0.0
C466 C 0.70295 0.51244 0.68184 0.0
C467 C 0.62758 0.4831 0.70912 0.0
C468 C 0.57203 0.48249 0.71832 0.0
C469 C 0.64792 0.51199 0.69156 0.0
C470 C 0.5378 0.51192 0.71052 0.0
C471 C 0.55743 0.54039 0.69281 0.0
H472 H 0.87155 0.92475 0.18828 0.0
H473 H 0.84632 0.99096 0.11173 0.0
H474 H 0.88117 0.04475 0.13649 0.0
H475 H 0.92332 0.07264 0.17899 0.0
H476 H 0.94954 1.00732 0.25581 0.0
H477 H 0.90947 0.95392 0.23219 0.0
C478 C 0.87298 0.9511 0.17728 0.0
C479 C 0.85704 0.95377 0.14814 0.0
C480 C 0.89355 0.98211 0.19165 0.0
C481 C 0.85916 0.98809 0.13406 0.0
C482 C 0.87903 0.0189 0.14818 0.0
C483 C 0.92016 0.04669 0.19052 0.0
C484 C 0.93928 0.04388 0.21904 0.0
C485 C 0.89731 0.01613 0.17678 0.0
C486 C 0.93457 0.01023 0.23388 0.0
C487 C 0.91189 0.97962 0.22034 0.0
H488 H 0.83321 0.03418 0.62488 0.0
H489 H 0.82608 0.11943 0.68832 0.0
H490 H 0.8634 0.07734 0.72496 0.0
H491 H 0.90331 0.0168 0.73809 0.0
H492 H 0.91483 0.93421 0.67254 0.0
H493 H 0.8714 0.97496 0.6376 0.0
C494 C 0.84043 0.04389 0.64661 0.0
C495 C 0.82774 0.08021 0.65362 0.0
C496 C 0.86291 0.01993 0.66723 0.0
C497 C 0.83551 0.09166 0.68225 0.0
C498 C 0.85711 0.06764 0.70318 0.0
C499 C 0.89572 1.00774 0.71622 0.0
C500 C 0.91238 0.97254 0.70794 0.0
C501 C 0.87162 0.03177 0.69583 0.0
C502 C 0.9028 0.96121 0.67947 0.0
C503 C 0.87788 0.98449 0.65942 0.0
H504 H 0.74735 0.4644 0.17441 0.0
H505 H 0.59824 0.42405 0.13447 0.0
H506 H 0.54288 0.46341 0.165 0.0
H507 H 0.53699 0.51225 0.20046 0.0
H508 H 0.68519 0.55109 0.24208 0.0
H509 H 0.74036 0.50875 0.21393 0.0
C510 C 0.7027 0.46357 0.17276 0.0
C511 C 0.67726 0.44163 0.1517 0.0
C512 C 0.67082 0.48618 0.19061 0.0
C513 C 0.61922 0.44126 0.1499 0.0
C514 C 0.58739 0.46367 0.16748 0.0
C515 C 0.58129 0.51138 0.20363 0.0
C516 C 0.60676 0.53547 0.22312 0.0
C517 C 0.61282 0.48683 0.18743 0.0
C518 C 0.66426 0.53328 0.22712 0.0
C519 C 0.69598 0.50903 0.21094 0.0
H520 H 0.42785 0.4571 0.39169 0.0
H521 H 0.29026 0.42824 0.33695 0.0
H522 H 0.3246 0.47047 0.29966 0.0
H523 H 0.39014 0.51905 0.28417 0.0
H524 H 0.51757 0.55396 0.34254 0.0
H525 H 0.4899 0.50671 0.37724 0.0
C526 C 0.40437 0.46032 0.37193 0.0
C527 C 0.35578 0.43955 0.36762 0.0
C528 C 0.42259 0.48602 0.3512 0.0
C529 C 0.32794 0.44338 0.34106 0.0
C530 C 0.34728 0.46788 0.31974 0.0
C531 C 0.41215 0.516 0.30424 0.0
C532 C 0.4567 0.53957 0.31033 0.0
C533 C 0.39411 0.48976 0.32477 0.0
C534 C 0.48389 0.53588 0.33697 0.0
C535 C 0.46784 0.50891 0.35694 0.0
H536 H 0.07945 0.08849 0.87158 0.0
H537 H 0.2479 0.05777 0.85511 0.0
H538 H 0.2165 0.01282 0.81969 0.0
H539 H 0.14018 0.97822 0.79725 0.0
H540 H 0.97203 0.01223 0.81178 0.0
H541 H 0.00421 0.05934 0.84447 0.0
C542 C 0.10925 0.0723 0.85988 0.0
C543 C 0.16583 0.07626 0.86599 0.0
C544 C 0.09089 0.04666 0.83958 0.0
C545 C 0.20415 0.05533 0.85061 0.0
C546 C 0.18615 0.02944 0.83056 0.0
C547 C 0.11059 0.99647 0.80691 0.0
C548 C 0.05362 0.99129 0.802 0.0
C549 C 0.12948 0.02428 0.82535 0.0
C550 C 0.01608 0.01515 0.8152 0.0
C551 C 0.03442 0.04224 0.83396 0.0
H552 H 0.23528 0.10191 0.99411 0.0
H553 H 0.07182 0.0983 0.9572 0.0
H554 H 0.03279 0.08254 1.00447 0.0
H555 H 0.04484 0.06952 0.05624 0.0
H556 H 0.20843 0.07183 0.09312 0.0
H557 H 0.2472 0.08943 0.04618 0.0
C558 C 0.19104 0.09806 0.99645 0.0
C559 C 0.15664 0.10122 0.972 0.0
C560 C 0.16875 0.08897 0.02377 0.0
C561 C 0.09945 0.09559 0.97547 0.0
C562 C 0.07701 0.08676 1.00256 0.0
C563 C 0.08906 0.07356 0.05404 0.0
C564 C 0.12352 0.06922 0.07837 0.0
C565 C 0.11127 0.08317 0.02684 0.0
C566 C 0.18064 0.07538 0.07501 0.0
C567 C 0.20298 0.0852 0.04806 0.0
H568 H 0.36094 0.35922 0.48742 0.0
H569 H 0.3135 0.47035 0.46797 0.0
H570 H 0.33824 0.48848 0.51687 0.0
H571 H 0.37529 0.47319 0.56482 0.0
H572 H 0.42289 0.36219 0.58446 0.0
H573 H 0.39475 0.34343 0.53612 0.0
C574 C 0.35528 0.3873 0.49399 0.0
C575 C 0.33572 0.41341 0.47392 0.0
C576 C 0.3695 0.39756 0.52223 0.0
C577 C 0.3293 0.44979 0.48277 0.0
C578 C 0.34319 0.46016 0.5108 0.0
C579 C 0.37973 0.44491 0.55849 0.0
C580 C 0.40146 0.4192 0.57822 0.0
C581 C 0.36388 0.43438 0.5306 0.0
C582 C 0.40589 0.38251 0.56983 0.0
C583 C 0.39012 0.3718 0.54211 0.0
H584 H 0.62328 0.38997 0.05996 0.0
H585 H 0.78896 0.41422 0.03062 0.0
H586 H 0.76004 0.40645 0.98053 0.0
H587 H 0.68879 0.38924 0.94517 0.0
H588 H 0.52306 0.36567 0.97471 0.0
H589 H 0.55076 0.37718 0.02447 0.0
C590 C 0.6529 0.39419 0.04261 0.0
C591 C 0.70834 0.40238 0.04915 0.0
C592 C 0.63602 0.38964 0.01382 0.0
C593 C 0.74624 0.40727 0.0263 0.0
C594 C 0.72968 0.40301 0.99761 0.0
C595 C 0.65855 0.38723 0.96244 0.0
C596 C 0.60406 0.37629 0.95622 0.0
C597 C 0.67485 0.39366 0.99112 0.0
C598 C 0.5655 0.37347 0.97894 0.0
C599 C 0.58125 0.38015 1.00741 0.0
H600 H 0.82848 0.17366 0.53722 0.0
H601 H 0.82161 0.05738 0.55371 0.0
H602 H 0.83923 0.04571 0.5027 0.0
H603 H 0.84779 0.06853 0.45272 0.0
H604 H 0.85485 0.18463 0.43585 0.0
H605 H 0.84665 0.19649 0.48765 0.0
C606 C 0.83142 0.14581 0.52961 0.0
C607 C 0.82343 0.11644 0.54914 0.0
C608 C 0.84134 0.13929 0.50019 0.0
C609 C 0.82797 0.08045 0.53914 0.0
C610 C 0.83767 0.07375 0.50994 0.0
C611 C 0.84815 0.09639 0.46049 0.0
C612 C 0.85137 0.12568 0.44059 0.0
C613 C 0.84313 0.10294 0.49019 0.0
C614 C 0.85259 0.16166 0.45083 0.0
C615 C 0.8475 0.16844 0.48039 0.0
H616 H 0.7927 0.8932 0.03405 0.0
H617 H 0.95708 0.88762 0.06941 0.0
H618 H 0.99664 0.8967 0.02118 0.0
H619 H 0.98445 0.91022 0.96955 0.0
H620 H 0.82011 0.91822 0.93425 0.0
H621 H 0.78058 0.90366 0.9817 0.0
C622 C 0.83714 0.89317 0.03103 0.0
C623 C 0.87199 0.88968 0.05517 0.0
C624 C 0.85957 0.8992 1.00331 0.0
C625 C 0.92952 0.89031 0.0511 0.0
C626 C 0.95211 0.89563 0.02357 0.0
C627 C 0.93996 0.90893 0.97226 0.0
C628 C 0.90532 0.91564 0.94842 0.0
C629 C 0.91754 0.90093 0.99963 0.0
C630 C 0.84776 0.91302 0.95219 0.0
C631 C 0.8251 0.90484 0.97935 0.0
H632 H 0.75806 0.624 0.52724 0.0
H633 H 0.61132 0.56795 0.55836 0.0
H634 H 0.58932 0.5498 0.50929 0.0
H635 H 0.61268 0.54846 0.45732 0.0
H636 H 0.75395 0.60909 0.42581 0.0
H637 H 0.77591 0.6281 0.47515 0.0
C638 C 0.7205 0.60854 0.52349 0.0
C639 C 0.68697 0.59717 0.54701 0.0
C640 C 0.70678 0.59923 0.49496 0.0
C641 C 0.63913 0.57637 0.54116 0.0
C642 C 0.626 0.56626 0.51293 0.0
C643 C 0.64776 0.56627 0.46136 0.0
C644 C 0.68172 0.57751 0.43818 0.0
C645 C 0.65971 0.57729 0.4897 0.0
C646 C 0.72713 0.60046 0.44342 0.0
C647 C 0.73981 0.61106 0.4716 0.0
H648 H 0.27681 0.6282 0.99042 0.0
H649 H 0.43224 0.63729 0.94512 0.0
H650 H 0.48059 0.64613 0.99083 0.0
H651 H 0.47836 0.65352 0.04359 0.0
H652 H 0.32364 0.64278 0.08923 0.0
H653 H 0.27527 0.63241 0.04359 0.0
C654 C 0.32127 0.63205 0.99062 0.0
C655 C 0.35089 0.63221 0.96442 0.0
C656 C 0.34885 0.63699 0.01703 0.0
C657 C 0.40858 0.63676 0.96501 0.0
C658 C 0.4362 0.64204 0.99112 0.0
C659 C 0.43404 0.64895 0.04346 0.0
C660 C 0.40446 0.64919 0.06963 0.0
C661 C 0.40672 0.64259 0.01722 0.0
C662 C 0.34722 0.64263 0.06932 0.0
C663 C 0.31959 0.63681 0.04325 0.0
H664 H 0.21414 0.85087 0.48289 0.0
H665 H 0.07158 0.90709 0.44925 0.0
H666 H 0.03186 0.90978 0.49765 0.0
H667 H 0.03489 0.89309 0.54917 0.0
H668 H 0.17819 0.83927 0.58393 0.0
H669 H 0.22066 0.83877 0.53568 0.0
C670 C 0.17464 0.86394 0.48631 0.0
C671 C 0.14584 0.87876 0.46255 0.0
C672 C 0.15212 0.86566 0.51436 0.0
C673 C 0.0948 0.89583 0.46722 0.0
C674 C 0.07188 0.89718 0.49487 0.0
C675 C 0.07561 0.88154 0.54611 0.0
C676 C 0.10335 0.86598 0.56981 0.0
C677 C 0.09977 0.88176 0.51851 0.0
C678 C 0.15627 0.8514 0.56586 0.0
C679 C 0.18035 0.851 0.53831 0.0
H680 H 0.25203 0.24547 0.36367 0.0
H681 H 0.14936 0.3386 0.34578 0.0
H682 H 0.09073 0.30137 0.31414 0.0
H683 H 0.06558 0.24083 0.29415 0.0
H684 H 0.16776 0.14777 0.31408 0.0
H685 H 0.2298 0.18621 0.34205 0.0
C686 C 0.21743 0.25767 0.35231 0.0
C687 C 0.20508 0.29458 0.35658 0.0
C688 C 0.18354 0.23593 0.33478 0.0
C689 C 0.15979 0.31022 0.34235 0.0
C690 C 0.12611 0.28887 0.3245 0.0
C691 C 0.10141 0.22908 0.30468 0.0
C692 C 0.11218 0.19151 0.30194 0.0
C693 C 0.13691 0.25145 0.32103 0.0
C694 C 0.15895 0.17667 0.31551 0.0
C695 C 0.19438 0.19862 0.33164 0.0
H696 H 0.4038 0.19868 0.8648 0.0
H697 H 0.24475 0.25058 0.86467 0.0
H698 H 0.28306 0.3028 0.83727 0.0
H699 H 0.36354 0.33547 0.81649 0.0
H700 H 0.52212 0.28232 0.81524 0.0
H701 H 0.48279 0.22938 0.84061 0.0
C702 C 0.37746 0.22116 0.85821 0.0
C703 C 0.32156 0.22085 0.86634 0.0
C704 C 0.40002 0.25121 0.84282 0.0
C705 C 0.28779 0.25021 0.85823 0.0
C706 C 0.30981 0.28015 0.84282 0.0
C707 C 0.38941 0.31216 0.82146 0.0
C708 C 0.44592 0.31317 0.81408 0.0
C709 C 0.36615 0.28128 0.83549 0.0
C710 C 0.47874 0.28269 0.82097 0.0
C711 C 0.45617 0.25218 0.83531 0.0
H712 H 0.66718 0.20149 0.69316 0.0
H713 H 0.66048 0.26358 0.6136 0.0
H714 H 0.62286 0.31611 0.63923 0.0
H715 H 0.58787 0.34331 0.68406 0.0
H716 H 0.59495 0.28102 0.76375 0.0
H717 H 0.63641 0.22989 0.73851 0.0
C718 C 0.65813 0.22678 0.68167 0.0
C719 C 0.66664 0.22911 0.65176 0.0
C720 C 0.63623 0.25672 0.69654 0.0
C721 C 0.65446 0.2616 0.63678 0.0
C722 C 0.63274 0.29149 0.65137 0.0
C723 C 0.59865 0.31857 0.69586 0.0
C724 C 0.58846 0.31605 0.72572 0.0
C725 C 0.62272 0.28921 0.68121 0.0
C726 C 0.60289 0.28386 0.74078 0.0
C727 C 0.62644 0.25449 0.72636 0.0
H728 H 0.86674 0.27794 0.13433 0.0
H729 H 0.88665 0.35643 0.20212 0.0
H730 H 0.92648 0.30909 0.23379 0.0
H731 H 0.95938 0.24585 0.2411 0.0
H732 H 0.93885 0.16763 0.17287 0.0
H733 H 0.89617 0.21434 0.14228 0.0
C734 C 0.87918 0.28439 0.15621 0.0
C735 C 0.8736 0.3202 0.16619 0.0
C736 C 0.90256 0.25722 0.17398 0.0
C737 C 0.89026 0.32875 0.19429 0.0
C738 C 0.91327 0.30179 0.21225 0.0
C739 C 0.94526 0.23904 0.21959 0.0
C740 C 0.95249 0.20336 0.20923 0.0
C741 C 0.92026 0.26602 0.20218 0.0
C742 C 0.93425 0.19496 0.18126 0.0
C743 C 0.90957 0.2216 0.16381 0.0
H744 H 0.89972 0.70678 0.65505 0.0
H745 H 0.73527 0.74462 0.67289 0.0
H746 H 0.77289 0.79395 0.70257 0.0
H747 H 0.85272 0.82928 0.71942 0.0
H748 H 0.01767 0.79039 0.70328 0.0
H749 H 0.9799 0.7392 0.67607 0.0
C750 C 0.87228 0.72536 0.66608 0.0
C751 C 0.81493 0.72203 0.66227 0.0
C752 C 0.89435 0.7539 0.68274 0.0
C753 C 0.77954 0.74651 0.67601 0.0
C754 C 0.80108 0.77486 0.6927 0.0
C755 C 0.88052 0.80913 0.71073 0.0
C756 C 0.93805 0.81362 0.71386 0.0
C757 C 0.85846 0.77927 0.69569 0.0
C758 C 0.97325 0.78775 0.70134 0.0
C759 C 0.95166 0.75833 0.68584 0.0
H760 H 0.63117 0.81915 0.17836 0.0
H761 H 0.77997 0.76049 0.15908 0.0
H762 H 0.7433 0.70597 0.18433 0.0
H763 H 0.6647 0.6735 0.20805 0.0
H764 H 0.51591 0.73304 0.22653 0.0
H765 H 0.55613 0.78839 0.2052 0.0
C766 C 0.6559 0.79461 0.18027 0.0
C767 C 0.70821 0.79368 0.16726 0.0
C768 C 0.63402 0.76333 0.19422 0.0
C769 C 0.73976 0.76175 0.16932 0.0
C770 C 0.71859 0.73055 0.18352 0.0
C771 C 0.64162 0.69878 0.20783 0.0
C772 C 0.58744 0.69912 0.2189 0.0
C773 C 0.66518 0.73075 0.19548 0.0
C774 C 0.55754 0.73192 0.21797 0.0
C775 C 0.58059 0.76368 0.20589 0.0
H776 H 0.29543 0.79329 0.31968 0.0
H777 H 0.28163 0.72431 0.39551 0.0
H778 H 0.34967 0.68222 0.37566 0.0
H779 H 0.40867 0.66316 0.33548 0.0
H780 H 0.42494 0.73254 0.25992 0.0
H781 H 0.36033 0.77621 0.28065 0.0
C782 C 0.3081 0.76926 0.33188 0.0
C783 C 0.28413 0.76168 0.35894 0.0
C784 C 0.34708 0.7451 0.32022 0.0
C785 C 0.30011 0.73053 0.37465 0.0
C786 C 0.33874 0.70645 0.36328 0.0
C787 C 0.39853 0.68804 0.3237 0.0
C788 C 0.42077 0.69432 0.29601 0.0
C789 C 0.36188 0.71316 0.3359 0.0
C790 C 0.40739 0.72672 0.28103 0.0
C791 C 0.37068 0.7518 0.29294 0.0
H792 H 0.14358 0.75648 0.88669 0.0
H793 H 0.19389 0.68963 0.81559 0.0
H794 H 0.15553 0.73456 0.7811 0.0
H795 H 0.10539 0.79246 0.77175 0.0
H796 H 0.05537 0.85812 0.84411 0.0
H797 H 0.09557 0.81406 0.87752 0.0
C798 C 0.14628 0.75196 0.86359 0.0
C799 C 0.17132 0.72021 0.85343 0.0
C800 C 0.12397 0.77761 0.84421 0.0
C801 C 0.17472 0.71416 0.82365 0.0
C802 C 0.15275 0.73977 0.80406 0.0
C803 C 0.10368 0.79722 0.79481 0.0
C804 C 0.07733 0.82865 0.80531 0.0
C805 C 0.12698 0.77157 0.81412 0.0
C806 C 0.07505 0.83419 0.83531 0.0
C807 C 0.09818 0.80901 0.85453 0.0
loop_
_geom_bond_atom_site_label_1
_geom_bond_atom_site_label_2
_geom_bond_distance
_geom_bond_site_symmetry_2
_ccdc_geom_bond_type
H0 C3 0.929 . S
H1 C6 0.929 . S
H2 C8 0.930 . S
C3 H0 0.929 . S
C3 C4 1.398 . S
C3 C5 1.396 . S
C4 C3 1.398 . S
C4 C8 1.407 . S
C5 C3 1.396 . S
C5 C6 1.394 . S
C6 H1 0.929 . S
C6 C5 1.394 . S
C6 C7 1.382 . S
C7 C6 1.382 . S
C7 C8 1.392 . S
C7 N9 1.420 . S
C8 H2 0.930 . S
C8 C4 1.407 . S
C8 C7 1.392 . S
N9 C7 1.420 . S
N9 C10 1.244 . S
C10 N9 1.244 . S
H11 C14 0.929 . S
H12 C17 0.929 . S
H13 C19 0.930 . S
C14 H11 0.929 . S
C14 C15 1.398 . S
C14 C16 1.396 . S
C15 C14 1.398 . S
C15 C19 1.407 . S
C16 C14 1.396 . S
C16 C17 1.394 . S
C17 H12 0.929 . S
C17 C16 1.394 . S
C17 C18 1.382 . S
C18 C17 1.382 . S
C18 C19 1.392 . S
C18 N20 1.420 . S
C19 H13 0.930 . S
C19 C15 1.407 . S
C19 C18 1.392 . S
N20 C18 1.420 . S
N20 C21 1.244 . S
C21 N20 1.244 . S
H22 C25 0.929 . S
H23 C28 0.929 . S
H24 C30 0.930 . S
C25 H22 0.929 . S
C25 C26 1.398 . S
C25 C27 1.396 . S
C26 C25 1.398 . S
C26 C30 1.407 . S
C27 C25 1.396 . S
C27 C28 1.394 . S
C28 H23 0.929 . S
C28 C27 1.394 . S
C28 C29 1.382 . S
C29 C28 1.382 . S
C29 C30 1.392 . S
C29 N31 1.420 . S
C30 H24 0.930 . S
C30 C26 1.407 . S
C30 C29 1.392 . S
N31 C29 1.420 . S
N31 C32 1.244 . S
C32 N31 1.244 . S
H33 C36 0.929 . S
H34 C39 0.929 . S
H35 C41 0.930 . S
C36 H33 0.929 . S
C36 C37 1.398 . S
C36 C38 1.396 . S
C37 C36 1.398 . S
C37 C41 1.407 . S
C38 C36 1.396 . S
C38 C39 1.394 . S
C39 H34 0.929 . S
C39 C38 1.394 . S
C39 C40 1.382 . S
C40 C39 1.382 . S
C40 C41 1.392 . S
C40 N42 1.420 . S
C41 H35 0.930 . S
C41 C37 1.407 . S
C41 C40 1.392 . S
N42 C40 1.420 . S
N42 C43 1.244 . S
C43 N42 1.244 . S
H44 C47 0.929 . S
H45 C50 0.929 . S
H46 C52 0.930 . S
C47 H44 0.929 . S
C47 C48 1.398 . S
C47 C49 1.396 . S
C48 C47 1.398 . S
C48 C52 1.407 . S
C49 C47 1.396 . S
C49 C50 1.394 . S
C50 H45 0.929 . S
C50 C49 1.394 . S
C50 C51 1.382 . S
C51 C50 1.382 . S
C51 C52 1.392 . S
C51 N53 1.420 . S
C52 H46 0.930 . S
C52 C48 1.407 . S
C52 C51 1.392 . S
N53 C51 1.420 . S
N53 C54 1.244 . S
C54 N53 1.244 . S
H55 C58 0.929 . S
H56 C61 0.929 . S
H57 C63 0.930 . S
C58 H55 0.929 . S
C58 C59 1.398 . S
C58 C60 1.396 . S
C59 C58 1.398 . S
C59 C63 1.407 . S
C60 C58 1.396 . S
C60 C61 1.394 . S
C61 H56 0.929 . S
C61 C60 1.394 . S
C61 C62 1.382 . S
C62 C61 1.382 . S
C62 C63 1.392 . S
C62 N64 1.420 . S
C63 H57 0.930 . S
C63 C59 1.407 . S
C63 C62 1.392 . S
N64 C62 1.420 . S
N64 C65 1.244 . S
C65 N64 1.244 . S
H66 C69 0.929 . S
H67 C72 0.929 . S
H68 C74 0.930 . S
C69 H66 0.929 . S
C69 C70 1.398 . S
C69 C71 1.396 . S
C70 C69 1.398 . S
C70 C74 1.407 . S
C71 C69 1.396 . S
C71 C72 1.394 . S
C72 H67 0.929 . S
C72 C71 1.394 . S
C72 C73 1.382 . S
C73 C72 1.382 . S
C73 C74 1.392 . S
C73 N75 1.420 . S
C74 H68 0.930 . S
C74 C70 1.407 . S
C74 C73 1.392 . S
N75 C73 1.420 . S
N75 C76 1.244 . S
C76 N75 1.244 . S
H77 C80 0.929 . S
H78 C83 0.929 . S
H79 C85 0.930 . S
C80 H77 0.929 . S
C80 C81 1.398 . S
C80 C82 1.396 . S
C81 C80 1.398 . S
C81 C85 1.407 . S
C82 C80 1.396 . S
C82 C83 1.394 . S
C83 H78 0.929 . S
C83 C82 1.394 . S
C83 C84 1.382 . S
C84 C83 1.382 . S
C84 C85 1.392 . S
C84 N86 1.420 . S
C85 H79 0.930 . S
C85 C81 1.407 . S
C85 C84 1.392 . S
N86 C84 1.420 . S
N86 C87 1.244 . S
C87 N86 1.244 . S
Eu88 N117 2.600 . S
Eu88 N123 2.562 . S
Eu88 O132 2.462 . S
Eu88 O133 2.373 . S
Eu88 O135 2.432 . S
Eu88 O136 2.291 . S
Eu88 O140 2.335 . S
Eu88 O143 2.372 . S
Eu88 C152 2.787 . S
C89 N90 1.365 . S
C89 C92 1.405 . S
C89 C96 1.448 . S
N90 C89 1.365 . S
N90 C93 1.319 . S
N90 Eu99 2.600 . S
C91 C93 1.397 . S
C91 C94 1.367 . S
C91 H111 0.931 . S
C92 C89 1.405 . S
C92 C94 1.403 . S
C92 C98 1.439 . S
C93 N90 1.319 . S
C93 C91 1.397 . S
C93 H104 0.930 . S
C94 C91 1.367 . S
C94 C92 1.403 . S
C94 H115 0.929 . S
C95 C96 1.430 . S
C95 C97 1.387 . S
C95 C101 1.404 1_545 S
C96 C89 1.448 . S
C96 C95 1.430 . S
C96 N100 1.351 . S
C97 C95 1.387 . S
C97 C98 1.374 . S
C97 H112 0.931 1_545 S
C98 C92 1.439 . S
C98 C97 1.374 . S
C98 H113 0.931 . S
Eu99 N90 2.600 . S
Eu99 N100 2.562 . S
Eu99 O134 2.335 1_655 S
Eu99 O137 2.372 . S
Eu99 O138 2.462 . S
Eu99 O139 2.373 . S
Eu99 O141 2.432 . S
Eu99 O142 2.291 1_655 S
Eu99 C163 2.787 . S
N100 C96 1.351 . S
N100 Eu99 2.562 . S
N100 C102 1.325 . S
C101 C95 1.404 1_565 S
C101 C103 1.366 . S
C101 H109 0.930 . S
C102 N100 1.325 . S
C102 C103 1.416 1_545 S
C102 H108 0.929 . S
C103 C101 1.366 . S
C103 C102 1.416 1_565 S
C103 H105 0.930 . S
H104 C93 0.930 . S
H105 C103 0.930 . S
H106 C121 0.930 . S
H107 C128 0.930 . S
H108 C102 0.929 . S
H109 C101 0.930 . S
H110 C124 0.929 . S
H111 C91 0.931 . S
H112 C97 0.931 1_565 S
H113 C98 0.931 . S
H114 C119 0.931 . S
H115 C94 0.929 . S
H116 C127 0.930 . S
N117 Eu88 2.600 . S
N117 C118 1.365 . S
N117 C121 1.319 . S
C118 N117 1.365 . S
C118 C120 1.405 . S
C118 C126 1.448 . S
C119 H114 0.931 . S
C119 C121 1.397 . S
C119 C122 1.367 . S
C120 C118 1.405 . S
C120 C122 1.403 . S
C120 C153 1.439 . S
C121 H106 0.930 . S
C121 N117 1.319 . S
C121 C119 1.397 . S
C122 C119 1.367 . S
C122 C120 1.403 . S
C122 H129 0.929 . S
N123 Eu88 2.562 . S
N123 C124 1.325 . S
N123 C126 1.351 . S
C124 H110 0.929 . S
C124 N123 1.325 . S
C124 C128 1.416 . S
C125 C126 1.430 . S
C125 C127 1.404 . S
C125 C154 1.387 . S
C126 C118 1.448 . S
C126 N123 1.351 . S
C126 C125 1.430 . S
C127 H116 0.930 . S
C127 C125 1.404 . S
C127 C128 1.366 . S
C128 H107 0.930 . S
C128 C124 1.416 . S
C128 C127 1.366 . S
H129 C122 0.929 . S
H130 C153 0.931 . S
H131 C154 0.931 . S
O132 Eu88 2.462 . S
O132 C152 1.252 . S
O133 Eu88 2.373 . S
O133 C144 1.249 . S
O134 Eu99 2.335 1_455 S
O134 C144 1.264 . S
O135 Eu88 2.432 . S
O135 C152 1.268 . S
O136 Eu88 2.291 . S
O136 C151 1.255 1_455 S
O137 Eu99 2.372 . S
O137 C151 1.257 . S
O138 Eu99 2.462 . S
O138 C163 1.252 . S
O139 Eu99 2.373 . S
O139 C155 1.249 . S
O140 Eu88 2.335 . S
O140 C155 1.264 1_455 S
O141 Eu99 2.432 . S
O141 C163 1.268 . S
O142 Eu99 2.291 1_455 S
O142 C162 1.255 . S
O143 Eu88 2.372 . S
O143 C162 1.257 . S
C144 O133 1.249 . S
C144 O134 1.264 . S
C145 C148 1.382 . S
C145 C150 1.390 . S
C145 C152 1.506 . S
C146 C147 1.398 . S
C146 C150 1.392 . S
C147 C146 1.398 . S
C147 C149 1.372 . S
C147 H164 0.931 . S
C148 C145 1.382 . S
C148 C149 1.390 . S
C148 H165 0.931 . S
C149 C147 1.372 . S
C149 C148 1.390 . S
C149 H166 0.929 . S
C150 C145 1.390 . S
C150 C146 1.392 . S
C150 H167 0.930 . S
C151 O136 1.255 1_655 S
C151 O137 1.257 . S
C152 Eu88 2.787 . S
C152 O132 1.252 . S
C152 O135 1.268 . S
C152 C145 1.506 . S
C153 C120 1.439 . S
C153 H130 0.931 . S
C153 C154 1.374 . S
C154 C125 1.387 . S
C154 H131 0.931 . S
C154 C153 1.374 . S
C155 O139 1.249 . S
C155 O140 1.264 1_655 S
C156 C159 1.382 . S
C156 C160 1.390 . S
C156 C163 1.506 . S
C157 C158 1.398 . S
C157 C160 1.392 . S
C158 C157 1.398 . S
C158 C161 1.372 . S
C158 H168 0.931 . S
C159 C156 1.382 . S
C159 C161 1.390 . S
C159 H169 0.931 . S
C160 C156 1.390 . S
C160 C157 1.392 . S
C160 H170 0.930 . S
C161 C158 1.372 . S
C161 C159 1.390 . S
C161 H171 0.929 . S
C162 O142 1.255 . S
C162 O143 1.257 . S
C163 Eu99 2.787 . S
C163 O138 1.252 . S
C163 O141 1.268 . S
C163 C156 1.506 . S
H164 C147 0.931 . S
H165 C148 0.931 . S
H166 C149 0.929 . S
H167 C150 0.930 . S
H168 C158 0.931 . S
H169 C159 0.931 . S
H170 C160 0.930 . S
H171 C161 0.929 . S
Eu172 N201 2.600 . S
Eu172 N207 2.562 . S
Eu172 O216 2.462 . S
Eu172 O217 2.373 . S
Eu172 O219 2.432 . S
Eu172 O220 2.291 . S
Eu172 O224 2.335 . S
Eu172 O227 2.372 . S
Eu172 C236 2.787 . S
C173 N174 1.365 . S
C173 C176 1.405 . S
C173 C180 1.448 . S
N174 C173 1.365 . S
N174 C177 1.319 . S
N174 Eu183 2.600 . S
C175 C177 1.397 . S
C175 C178 1.367 . S
C175 H195 0.931 . S
C176 C173 1.405 . S
C176 C178 1.403 . S
C176 C182 1.439 . S
C177 N174 1.319 . S
C177 C175 1.397 . S
C177 H188 0.930 . S
C178 C175 1.367 . S
C178 C176 1.403 . S
C178 H199 0.929 . S
C179 C180 1.430 . S
C179 C181 1.387 . S
C179 C185 1.404 . S
C180 C173 1.448 . S
C180 C179 1.430 . S
C180 N184 1.351 . S
C181 C179 1.387 . S
C181 C182 1.374 . S
C181 H196 0.931 . S
C182 C176 1.439 . S
C182 C181 1.374 . S
C182 H197 0.931 . S
Eu183 N174 2.600 . S
Eu183 N184 2.562 . S
Eu183 O218 2.335 . S
Eu183 O221 2.372 . S
Eu183 O222 2.462 . S
Eu183 O223 2.373 . S
Eu183 O225 2.432 . S
Eu183 O226 2.291 . S
Eu183 C247 2.787 . S
N184 C180 1.351 . S
N184 Eu183 2.562 . S
N184 C186 1.325 . S
C185 C179 1.404 . S
C185 C187 1.366 . S
C185 H193 0.930 . S
C186 N184 1.325 . S
C186 C187 1.416 . S
C186 H192 0.929 . S
C187 C185 1.366 . S
C187 C186 1.416 . S
C187 H189 0.930 . S
H188 C177 0.930 . S
H189 C187 0.930 . S
H190 C205 0.930 . S
H191 C212 0.930 . S
H192 C186 0.929 . S
H193 C185 0.930 . S
H194 C208 0.929 . S
H195 C175 0.931 . S
H196 C181 0.931 . S
H197 C182 0.931 . S
H198 C203 0.931 . S
H199 C178 0.929 . S
H200 C211 0.930 . S
N201 Eu172 2.600 . S
N201 C202 1.365 . S
N201 C205 1.319 . S
C202 N201 1.365 . S
C202 C204 1.405 . S
C202 C210 1.448 . S
C203 H198 0.931 . S
C203 C205 1.397 . S
C203 C206 1.367 . S
C204 C202 1.405 . S
C204 C206 1.403 . S
C204 C237 1.439 . S
C205 H190 0.930 . S
C205 N201 1.319 . S
C205 C203 1.397 . S
C206 C203 1.367 . S
C206 C204 1.403 . S
C206 H213 0.929 . S
N207 Eu172 2.562 . S
N207 C208 1.325 . S
N207 C210 1.351 . S
C208 H194 0.929 . S
C208 N207 1.325 . S
C208 C212 1.416 . S
C209 C210 1.430 . S
C209 C211 1.404 . S
C209 C238 1.387 . S
C210 C202 1.448 . S
C210 N207 1.351 . S
C210 C209 1.430 . S
C211 H200 0.930 . S
C211 C209 1.404 . S
C211 C212 1.366 . S
C212 H191 0.930 . S
C212 C208 1.416 . S
C212 C211 1.366 . S
H213 C206 0.929 . S
H214 C237 0.931 . S
H215 C238 0.931 . S
O216 Eu172 2.462 . S
O216 C236 1.252 . S
O217 Eu172 2.373 . S
O217 C228 1.249 . S
O218 Eu183 2.335 . S
O218 C228 1.264 . S
O219 Eu172 2.432 . S
O219 C236 1.268 . S
O220 Eu172 2.291 . S
O220 C235 1.255 . S
O221 Eu183 2.372 . S
O221 C235 1.257 . S
O222 Eu183 2.462 . S
O222 C247 1.252 . S
O223 Eu183 2.373 . S
O223 C239 1.249 . S
O224 Eu172 2.335 . S
O224 C239 1.264 . S
O225 Eu183 2.432 . S
O225 C247 1.268 . S
O226 Eu183 2.291 . S
O226 C246 1.255 . S
O227 Eu172 2.372 . S
O227 C246 1.257 . S
C228 O217 1.249 . S
C228 O218 1.264 . S
C229 C232 1.382 . S
C229 C234 1.390 . S
C229 C236 1.506 . S
C230 C231 1.398 . S
C230 C234 1.392 . S
C231 C230 1.398 . S
C231 C233 1.372 . S
C231 H248 0.931 . S
C232 C229 1.382 . S
C232 C233 1.390 . S
C232 H249 0.931 . S
C233 C231 1.372 . S
C233 C232 1.390 . S
C233 H250 0.929 . S
C234 C229 1.390 . S
C234 C230 1.392 . S
C234 H251 0.930 . S
C235 O220 1.255 . S
C235 O221 1.257 . S
C236 Eu172 2.787 . S
C236 O216 1.252 . S
C236 O219 1.268 . S
C236 C229 1.506 . S
C237 C204 1.439 . S
C237 H214 0.931 . S
C237 C238 1.374 . S
C238 C209 1.387 . S
C238 H215 0.931 . S
C238 C237 1.374 . S
C239 O223 1.249 . S
C239 O224 1.264 . S
C240 C243 1.382 . S
C240 C244 1.390 . S
C240 C247 1.506 . S
C241 C242 1.398 . S
C241 C244 1.392 . S
C242 C241 1.398 . S
C242 C245 1.372 . S
C242 H252 0.931 . S
C243 C240 1.382 . S
C243 C245 1.390 . S
C243 H253 0.931 . S
C244 C240 1.390 . S
C244 C241 1.392 . S
C244 H254 0.930 . S
C245 C242 1.372 . S
C245 C243 1.390 . S
C245 H255 0.929 . S
C246 O226 1.255 . S
C246 O227 1.257 . S
C247 Eu183 2.787 . S
C247 O222 1.252 . S
C247 O225 1.268 . S
C247 C240 1.506 . S
H248 C231 0.931 . S
H249 C232 0.931 . S
H250 C233 0.929 . S
H251 C234 0.930 . S
H252 C242 0.931 . S
H253 C243 0.931 . S
H254 C244 0.930 . S
H255 C245 0.929 . S
Eu256 N285 2.600 . S
Eu256 N291 2.562 . S
Eu256 O300 2.462 . S
Eu256 O301 2.373 . S
Eu256 O303 2.432 . S
Eu256 O304 2.291 1_455 S
Eu256 O308 2.320 1_455 S
Eu256 O311 2.372 . S
Eu256 C320 2.787 . S
C257 N258 1.365 . S
C257 C260 1.405 . S
C257 C264 1.448 . S
N258 C257 1.365 . S
N258 C261 1.319 . S
N258 Eu267 2.600 . S
C259 C261 1.397 . S
C259 C262 1.367 . S
C259 H279 0.931 . S
C260 C257 1.405 . S
C260 C262 1.403 . S
C260 C266 1.439 . S
C261 N258 1.319 . S
C261 C259 1.397 . S
C261 H272 0.930 . S
C262 C259 1.367 . S
C262 C260 1.403 . S
C262 H283 0.929 . S
C263 C264 1.430 . S
C263 C265 1.387 . S
C263 C269 1.404 . S
C264 C257 1.448 . S
C264 C263 1.430 . S
C264 N268 1.351 . S
C265 C263 1.387 . S
C265 C266 1.374 . S
C265 H280 0.931 . S
C266 C260 1.439 . S
C266 C265 1.374 . S
C266 H281 0.931 . S
Eu267 N258 2.600 . S
Eu267 N268 2.562 . S
Eu267 O302 2.335 1_655 S
Eu267 O305 2.372 . S
Eu267 O306 2.462 . S
Eu267 O307 2.373 . S
Eu267 O309 2.432 . S
Eu267 O310 2.291 1_655 S
Eu267 C331 2.787 . S
N268 C264 1.351 . S
N268 Eu267 2.562 . S
N268 C270 1.325 . S
C269 C263 1.404 . S
C269 C271 1.366 . S
C269 H277 0.930 . S
C270 N268 1.325 . S
C270 C271 1.416 . S
C270 H276 0.929 . S
C271 C269 1.366 . S
C271 C270 1.416 . S
C271 H273 0.930 . S
H272 C261 0.930 . S
H273 C271 0.930 . S
H274 C289 0.930 . S
H275 C296 0.930 . S
H276 C270 0.929 . S
H277 C269 0.930 . S
H278 C292 0.929 . S
H279 C259 0.931 . S
H280 C265 0.931 . S
H281 C266 0.931 . S
H282 C287 0.931 . S
H283 C262 0.929 . S
H284 C295 0.930 . S
N285 Eu256 2.600 . S
N285 C286 1.365 . S
N285 C289 1.319 . S
C286 N285 1.365 . S
C286 C288 1.405 . S
C286 C294 1.448 . S
C287 H282 0.931 . S
C287 C289 1.397 . S
C287 C290 1.367 . S
C288 C286 1.405 . S
C288 C290 1.403 . S
C288 C321 1.439 . S
C289 H274 0.930 . S
C289 N285 1.319 . S
C289 C287 1.397 . S
C290 C287 1.367 . S
C290 C288 1.403 . S
C290 H297 0.929 . S
N291 Eu256 2.562 . S
N291 C292 1.325 . S
N291 C294 1.351 . S
C292 H278 0.929 . S
C292 N291 1.325 . S
C292 C296 1.416 1_565 S
C293 C294 1.430 . S
C293 C295 1.404 1_565 S
C293 C322 1.387 . S
C294 C286 1.448 . S
C294 N291 1.351 . S
C294 C293 1.430 . S
C295 H284 0.930 . S
C295 C293 1.404 1_545 S
C295 C296 1.366 . S
C296 H275 0.930 . S
C296 C292 1.416 1_545 S
C296 C295 1.366 . S
H297 C290 0.929 . S
H298 C321 0.931 . S
H299 C322 0.931 1_545 S
O300 Eu256 2.462 . S
O300 C320 1.252 . S
O301 Eu256 2.373 . S
O301 C312 1.249 . S
O302 Eu267 2.335 1_455 S
O302 C312 1.264 . S
O303 Eu256 2.432 . S
O303 C320 1.268 . S
O304 Eu256 2.291 1_655 S
O304 C319 1.255 . S
O305 Eu267 2.372 . S
O305 C319 1.257 . S
O306 Eu267 2.462 . S
O306 C331 1.252 . S
O307 Eu267 2.373 . S
O307 C323 1.249 . S
O308 Eu256 2.320 1_655 S
O308 C323 1.282 . S
O309 Eu267 2.432 . S
O309 C331 1.268 . S
O310 Eu267 2.291 1_455 S
O310 C330 1.255 . S
O311 Eu256 2.372 . S
O311 C330 1.257 . S
C312 O301 1.249 . S
C312 O302 1.264 . S
C313 C316 1.382 . S
C313 C318 1.390 . S
C313 C320 1.506 . S
C314 C315 1.398 . S
C314 C318 1.392 . S
C315 C314 1.398 . S
C315 C317 1.372 . S
C315 H332 0.931 . S
C316 C313 1.382 . S
C316 C317 1.390 . S
C316 H333 0.931 . S
C317 C315 1.372 . S
C317 C316 1.390 . S
C317 H334 0.929 . S
C318 C313 1.390 . S
C318 C314 1.392 . S
C318 H335 0.930 . S
C319 O304 1.255 . S
C319 O305 1.257 . S
C320 Eu256 2.787 . S
C320 O300 1.252 . S
C320 O303 1.268 . S
C320 C313 1.506 . S
C321 C288 1.439 . S
C321 H298 0.931 . S
C321 C322 1.374 . S
C322 C293 1.387 . S
C322 H299 0.931 1_565 S
C322 C321 1.374 . S
C323 O307 1.249 . S
C323 O308 1.282 . S
C324 C327 1.382 . S
C324 C328 1.390 . S
C324 C331 1.506 . S
C325 C326 1.398 . S
C325 C328 1.392 . S
C326 C325 1.398 . S
C326 C329 1.372 . S
C326 H336 0.931 . S
C327 C324 1.382 . S
C327 C329 1.390 . S
C327 H337 0.931 . S
C328 C324 1.390 . S
C328 C325 1.392 . S
C328 H338 0.930 . S
C329 C326 1.372 . S
C329 C327 1.390 . S
C329 H339 0.929 . S
C330 O310 1.255 . S
C330 O311 1.257 . S
C331 Eu267 2.787 . S
C331 O306 1.252 . S
C331 O309 1.268 . S
C331 C324 1.506 . S
H332 C315 0.931 . S
H333 C316 0.931 . S
H334 C317 0.929 . S
H335 C318 0.930 . S
H336 C326 0.931 . S
H337 C327 0.931 . S
H338 C328 0.930 . S
H339 C329 0.929 . S
Eu340 N369 2.600 . S
Eu340 N375 2.562 . S
Eu340 O384 2.462 . S
Eu340 O385 2.373 . S
Eu340 O387 2.432 . S
Eu340 O388 2.291 . S
Eu340 O392 2.335 . S
Eu340 O395 2.372 . S
Eu340 C404 2.787 . S
C341 N342 1.365 . S
C341 C344 1.405 . S
C341 C348 1.448 . S
N342 C341 1.365 . S
N342 C345 1.319 . S
N342 Eu351 2.600 . S
C343 C345 1.397 . S
C343 C346 1.367 . S
C343 H363 0.931 . S
C344 C341 1.405 . S
C344 C346 1.403 . S
C344 C350 1.439 . S
C345 N342 1.319 . S
C345 C343 1.397 . S
C345 H356 0.930 . S
C346 C343 1.367 . S
C346 C344 1.403 . S
C346 H367 0.929 . S
C347 C348 1.430 . S
C347 C349 1.387 . S
C347 C353 1.404 . S
C348 C341 1.448 . S
C348 C347 1.430 . S
C348 N352 1.351 . S
C349 C347 1.387 . S
C349 C350 1.374 . S
C349 H364 0.931 . S
C350 C344 1.439 . S
C350 C349 1.374 . S
C350 H365 0.931 . S
Eu351 N342 2.600 . S
Eu351 N352 2.562 . S
Eu351 O386 2.335 . S
Eu351 O389 2.372 . S
Eu351 O390 2.462 . S
Eu351 O391 2.373 . S
Eu351 O393 2.432 . S
Eu351 O394 2.291 . S
Eu351 C415 2.787 . S
N352 C348 1.351 . S
N352 Eu351 2.562 . S
N352 C354 1.325 . S
C353 C347 1.404 . S
C353 C355 1.366 . S
C353 H361 0.930 . S
C354 N352 1.325 . S
C354 C355 1.416 . S
C354 H360 0.929 . S
C355 C353 1.366 . S
C355 C354 1.416 . S
C355 H357 0.930 . S
H356 C345 0.930 . S
H357 C355 0.930 . S
H358 C373 0.930 . S
H359 C380 0.930 . S
H360 C354 0.929 . S
H361 C353 0.930 . S
H362 C376 0.929 . S
H363 C343 0.931 . S
H364 C349 0.931 . S
H365 C350 0.931 . S
H366 C371 0.931 . S
H367 C346 0.929 . S
H368 C379 0.930 . S
N369 Eu340 2.600 . S
N369 C370 1.365 . S
N369 C373 1.319 . S
C370 N369 1.365 . S
C370 C372 1.405 . S
C370 C378 1.448 . S
C371 H366 0.931 . S
C371 C373 1.397 . S
C371 C374 1.367 . S
C372 C370 1.405 . S
C372 C374 1.403 . S
C372 C405 1.439 . S
C373 H358 0.930 . S
C373 N369 1.319 . S
C373 C371 1.397 . S
C374 C371 1.367 . S
C374 C372 1.403 . S
C374 H381 0.929 . S
N375 Eu340 2.562 . S
N375 C376 1.325 . S
N375 C378 1.351 . S
C376 H362 0.929 . S
C376 N375 1.325 . S
C376 C380 1.416 . S
C377 C378 1.430 . S
C377 C379 1.404 . S
C377 C406 1.387 . S
C378 C370 1.448 . S
C378 N375 1.351 . S
C378 C377 1.430 . S
C379 H368 0.930 . S
C379 C377 1.404 . S
C379 C380 1.366 . S
C380 H359 0.930 . S
C380 C376 1.416 . S
C380 C379 1.366 . S
H381 C374 0.929 . S
H382 C405 0.931 . S
H383 C406 0.931 . S
O384 Eu340 2.462 . S
O384 C404 1.252 . S
O385 Eu340 2.373 . S
O385 C396 1.249 . S
O386 Eu351 2.335 . S
O386 C396 1.264 . S
O387 Eu340 2.432 . S
O387 C404 1.268 . S
O388 Eu340 2.291 . S
O388 C403 1.255 . S
O389 Eu351 2.372 . S
O389 C403 1.257 . S
O390 Eu351 2.462 . S
O390 C415 1.252 . S
O391 Eu351 2.373 . S
O391 C407 1.249 . S
O392 Eu340 2.335 . S
O392 C407 1.264 . S
O393 Eu351 2.432 . S
O393 C415 1.268 . S
O394 Eu351 2.291 . S
O394 C414 1.255 . S
O395 Eu340 2.372 . S
O395 C414 1.257 . S
C396 O385 1.249 . S
C396 O386 1.264 . S
C397 C400 1.382 . S
C397 C402 1.390 . S
C397 C404 1.506 . S
C398 C399 1.398 . S
C398 C402 1.392 . S
C399 C398 1.398 . S
C399 C401 1.372 . S
C399 H416 0.931 . S
C400 C397 1.382 . S
C400 C401 1.390 . S
C400 H417 0.931 . S
C401 C399 1.372 . S
C401 C400 1.390 . S
C401 H418 0.929 . S
C402 C397 1.390 . S
C402 C398 1.392 . S
C402 H419 0.930 . S
C403 O388 1.255 . S
C403 O389 1.257 . S
C404 Eu340 2.787 . S
C404 O384 1.252 . S
C404 O387 1.268 . S
C404 C397 1.506 . S
C405 C372 1.439 . S
C405 H382 0.931 . S
C405 C406 1.374 . S
C406 C377 1.387 . S
C406 H383 0.931 . S
C406 C405 1.374 . S
C407 O391 1.249 . S
C407 O392 1.264 . S
C408 C411 1.382 . S
C408 C412 1.390 . S
C408 C415 1.506 . S
C409 C410 1.398 . S
C409 C412 1.392 . S
C410 C409 1.398 . S
C410 C413 1.372 . S
C410 H420 0.931 . S
C411 C408 1.382 . S
C411 C413 1.390 . S
C411 H421 0.931 . S
C412 C408 1.390 . S
C412 C409 1.392 . S
C412 H422 0.930 . S
C413 C410 1.372 . S
C413 C411 1.390 . S
C413 H423 0.929 . S
C414 O394 1.255 . S
C414 O395 1.257 . S
C415 Eu351 2.787 . S
C415 O390 1.252 . S
C415 O393 1.268 . S
C415 C408 1.506 . S
H416 C399 0.931 . S
H417 C400 0.931 . S
H418 C401 0.929 . S
H419 C402 0.930 . S
H420 C410 0.931 . S
H421 C411 0.931 . S
H422 C412 0.930 . S
H423 C413 0.929 . S
H424 C430 0.930 . S
H425 C433 0.930 . S
H426 C434 0.930 . S
H427 C435 0.930 . S
H428 C438 0.930 . S
H429 C439 0.930 . S
C430 H424 0.930 . S
C430 C431 1.355 . S
C430 C432 1.415 . S
C431 C430 1.355 . S
C431 C433 1.419 . S
C432 C430 1.415 . S
C432 C437 1.425 . S
C432 C439 1.409 . S
C433 H425 0.930 . S
C433 C431 1.419 . S
C433 C434 1.362 . S
C434 H426 0.930 . S
C434 C433 1.362 . S
C434 C437 1.409 . S
C435 H427 0.930 . S
C435 C436 1.355 . S
C435 C437 1.415 1_545 S
C436 C435 1.355 . S
C436 C438 1.419 . S
C437 C432 1.425 . S
C437 C434 1.409 . S
C437 C435 1.415 1_565 S
C438 H428 0.930 . S
C438 C436 1.419 . S
C438 C439 1.362 1_545 S
C439 H429 0.930 . S
C439 C432 1.409 . S
C439 C438 1.362 1_565 S
H440 C446 0.930 . S
H441 C449 0.930 . S
H442 C450 0.930 . S
H443 C451 0.930 . S
H444 C454 0.930 . S
H445 C455 0.930 . S
C446 H440 0.930 . S
C446 C447 1.355 . S
C446 C448 1.415 . S
C447 C446 1.355 . S
C447 C449 1.419 . S
C448 C446 1.415 . S
C448 C453 1.425 . S
C448 C455 1.409 . S
C449 H441 0.930 . S
C449 C447 1.419 . S
C449 C450 1.362 . S
C450 H442 0.930 . S
C450 C449 1.362 . S
C450 C453 1.409 . S
C451 H443 0.930 . S
C451 C452 1.355 . S
C451 C453 1.415 . S
C452 C451 1.355 . S
C452 C454 1.419 . S
C453 C448 1.425 . S
C453 C450 1.409 . S
C453 C451 1.415 . S
C454 H444 0.930 . S
C454 C452 1.419 . S
C454 C455 1.362 . S
C455 H445 0.930 . S
C455 C448 1.409 . S
C455 C454 1.362 . S
H456 C462 0.930 . S
H457 C465 0.930 . S
H458 C466 0.930 . S
H459 C467 0.930 . S
H460 C470 0.930 . S
H461 C471 0.930 . S
C462 H456 0.930 . S
C462 C463 1.355 . S
C462 C464 1.415 . S
C463 C462 1.355 . S
C463 C465 1.419 . S
C464 C462 1.415 . S
C464 C469 1.425 . S
C464 C471 1.409 . S
C465 H457 0.930 . S
C465 C463 1.419 . S
C465 C466 1.362 . S
C466 H458 0.930 . S
C466 C465 1.362 . S
C466 C469 1.409 . S
C467 H459 0.930 . S
C467 C468 1.355 . S
C467 C469 1.415 . S
C468 C467 1.355 . S
C468 C470 1.419 . S
C469 C464 1.425 . S
C469 C466 1.409 . S
C469 C467 1.415 . S
C470 H460 0.930 . S
C470 C468 1.419 . S
C470 C471 1.362 . S
C471 H461 0.930 . S
C471 C464 1.409 . S
C471 C470 1.362 . S
H472 C478 0.930 . S
H473 C481 0.930 . S
H474 C482 0.930 1_545 S
H475 C483 0.930 . S
H476 C486 0.930 . S
H477 C487 0.930 . S
C478 H472 0.930 . S
C478 C479 1.355 . S
C478 C480 1.415 . S
C479 C478 1.355 . S
C479 C481 1.419 . S
C480 C478 1.415 . S
C480 C485 1.425 . S
C480 C487 1.409 . S
C481 H473 0.930 . S
C481 C479 1.419 . S
C481 C482 1.362 . S
C482 H474 0.930 1_565 S
C482 C481 1.362 . S
C482 C485 1.409 . S
C483 H475 0.930 . S
C483 C484 1.355 . S
C483 C485 1.415 1_545 S
C484 C483 1.355 . S
C484 C486 1.419 1_545 S
C485 C480 1.425 . S
C485 C482 1.409 . S
C485 C483 1.415 1_565 S
C486 H476 0.930 . S
C486 C484 1.419 1_565 S
C486 C487 1.362 . S
C487 H477 0.930 . S
C487 C480 1.409 . S
C487 C486 1.362 . S
H488 C494 0.930 . S
H489 C497 0.930 . S
H490 C498 0.930 . S
H491 C499 0.930 . S
H492 C502 0.930 . S
H493 C503 0.930 . S
C494 H488 0.930 . S
C494 C495 1.355 . S
C494 C496 1.415 . S
C495 C494 1.355 . S
C495 C497 1.419 . S
C496 C494 1.415 . S
C496 C501 1.425 . S
C496 C503 1.409 1_545 S
C497 H489 0.930 . S
C497 C495 1.419 . S
C497 C498 1.362 . S
C498 H490 0.930 . S
C498 C497 1.362 . S
C498 C501 1.409 . S
C499 H491 0.930 . S
C499 C500 1.355 1_545 S
C499 C501 1.415 . S
C500 C499 1.355 1_565 S
C500 C502 1.419 . S
C501 C496 1.425 . S
C501 C498 1.409 . S
C501 C499 1.415 . S
C502 H492 0.930 . S
C502 C500 1.419 . S
C502 C503 1.362 . S
C503 H493 0.930 . S
C503 C496 1.409 1_565 S
C503 C502 1.362 . S
H504 C510 0.930 . S
H505 C513 0.930 . S
H506 C514 0.930 . S
H507 C515 0.930 . S
H508 C518 0.930 . S
H509 C519 0.930 . S
C510 H504 0.930 . S
C510 C511 1.355 . S
C510 C512 1.415 . S
C511 C510 1.355 . S
C511 C513 1.419 . S
C512 C510 1.415 . S
C512 C517 1.425 . S
C512 C519 1.409 . S
C513 H505 0.930 . S
C513 C511 1.419 . S
C513 C514 1.362 . S
C514 H506 0.930 . S
C514 C513 1.362 . S
C514 C517 1.409 . S
C515 H507 0.930 . S
C515 C516 1.355 . S
C515 C517 1.415 . S
C516 C515 1.355 . S
C516 C518 1.419 . S
C517 C512 1.425 . S
C517 C514 1.409 . S
C517 C515 1.415 . S
C518 H508 0.930 . S
C518 C516 1.419 . S
C518 C519 1.362 . S
C519 H509 0.930 . S
C519 C512 1.409 . S
C519 C518 1.362 . S
H520 C526 0.930 . S
H521 C529 0.930 . S
H522 C530 0.930 . S
H523 C531 0.930 . S
H524 C534 0.930 . S
H525 C535 0.930 . S
C526 H520 0.930 . S
C526 C527 1.355 . S
C526 C528 1.415 . S
C527 C526 1.355 . S
C527 C529 1.419 . S
C528 C526 1.415 . S
C528 C533 1.425 . S
C528 C535 1.409 . S
C529 H521 0.930 . S
C529 C527 1.419 . S
C529 C530 1.362 . S
C530 H522 0.930 . S
C530 C529 1.362 . S
C530 C533 1.409 . S
C531 H523 0.930 . S
C531 C532 1.355 . S
C531 C533 1.415 . S
C532 C531 1.355 . S
C532 C534 1.419 . S
C533 C528 1.425 . S
C533 C530 1.409 . S
C533 C531 1.415 . S
C534 H524 0.930 . S
C534 C532 1.419 . S
C534 C535 1.362 . S
C535 H525 0.930 . S
C535 C528 1.409 . S
C535 C534 1.362 . S
H536 C542 0.930 . S
H537 C545 0.930 . S
H538 C546 0.930 1_565 S
H539 C547 0.930 . S
H540 C550 0.930 . S
H541 C551 0.930 . S
C542 H536 0.930 . S
C542 C543 1.355 . S
C542 C544 1.415 . S
C543 C542 1.355 . S
C543 C545 1.419 . S
C544 C542 1.415 . S
C544 C549 1.425 . S
C544 C551 1.409 . S
C545 H537 0.930 . S
C545 C543 1.419 . S
C545 C546 1.362 . S
C546 H538 0.930 1_545 S
C546 C545 1.362 . S
C546 C549 1.409 . S
C547 H539 0.930 . S
C547 C548 1.355 . S
C547 C549 1.415 1_565 S
C548 C547 1.355 . S
C548 C550 1.419 1_565 S
C549 C544 1.425 . S
C549 C546 1.409 . S
C549 C547 1.415 1_545 S
C550 H540 0.930 . S
C550 C548 1.419 1_545 S
C550 C551 1.362 . S
C551 H541 0.930 . S
C551 C544 1.409 . S
C551 C550 1.362 . S
H552 C558 0.930 . S
H553 C561 0.930 . S
H554 C562 0.930 . S
H555 C563 0.930 . S
H556 C566 0.930 . S
H557 C567 0.930 . S
C558 H552 0.930 . S
C558 C559 1.355 . S
C558 C560 1.415 1_556 S
C559 C558 1.355 . S
C559 C561 1.419 . S
C560 C558 1.415 1_554 S
C560 C565 1.425 . S
C560 C567 1.409 . S
C561 H553 0.930 . S
C561 C559 1.419 . S
C561 C562 1.362 . S
C562 H554 0.930 . S
C562 C561 1.362 . S
C562 C565 1.409 1_556 S
C563 H555 0.930 . S
C563 C564 1.355 . S
C563 C565 1.415 . S
C564 C563 1.355 . S
C564 C566 1.419 . S
C565 C560 1.425 . S
C565 C562 1.409 1_554 S
C565 C563 1.415 . S
C566 H556 0.930 . S
C566 C564 1.419 . S
C566 C567 1.362 . S
C567 H557 0.930 . S
C567 C560 1.409 . S
C567 C566 1.362 . S
H568 C574 0.930 . S
H569 C577 0.930 . S
H570 C578 0.930 . S
H571 C579 0.930 . S
H572 C582 0.930 . S
H573 C583 0.930 . S
C574 H568 0.930 . S
C574 C575 1.355 . S
C574 C576 1.415 . S
C575 C574 1.355 . S
C575 C577 1.419 . S
C576 C574 1.415 . S
C576 C581 1.425 . S
C576 C583 1.409 . S
C577 H569 0.930 . S
C577 C575 1.419 . S
C577 C578 1.362 . S
C578 H570 0.930 . S
C578 C577 1.362 . S
C578 C581 1.409 . S
C579 H571 0.930 . S
C579 C580 1.355 . S
C579 C581 1.415 . S
C580 C579 1.355 . S
C580 C582 1.419 . S
C581 C576 1.425 . S
C581 C578 1.409 . S
C581 C579 1.415 . S
C582 H572 0.930 . S
C582 C580 1.419 . S
C582 C583 1.362 . S
C583 H573 0.930 . S
C583 C576 1.409 . S
C583 C582 1.362 . S
H584 C590 0.930 . S
H585 C593 0.930 . S
H586 C594 0.930 . S
H587 C595 0.930 . S
H588 C598 0.930 . S
H589 C599 0.930 . S
C590 H584 0.930 . S
C590 C591 1.355 . S
C590 C592 1.415 1_554 S
C591 C590 1.355 . S
C591 C593 1.419 . S
C592 C590 1.415 1_556 S
C592 C597 1.425 . S
C592 C599 1.409 . S
C593 H585 0.930 . S
C593 C591 1.419 . S
C593 C594 1.362 1_554 S
C594 H586 0.930 . S
C594 C593 1.362 1_556 S
C594 C597 1.409 . S
C595 H587 0.930 . S
C595 C596 1.355 . S
C595 C597 1.415 . S
C596 C595 1.355 . S
C596 C598 1.419 . S
C597 C592 1.425 . S
C597 C594 1.409 . S
C597 C595 1.415 . S
C598 H588 0.930 . S
C598 C596 1.419 . S
C598 C599 1.362 . S
C599 H589 0.930 . S
C599 C592 1.409 . S
C599 C598 1.362 . S
H600 C606 0.930 . S
H601 C609 0.930 . S
H602 C610 0.930 . S
H603 C611 0.930 . S
H604 C614 0.930 . S
H605 C615 0.930 . S
C606 H600 0.930 . S
C606 C607 1.355 . S
C606 C608 1.415 . S
C607 C606 1.355 . S
C607 C609 1.419 . S
C608 C606 1.415 . S
C608 C613 1.425 . S
C608 C615 1.409 . S
C609 H601 0.930 . S
C609 C607 1.419 . S
C609 C610 1.362 . S
C610 H602 0.930 . S
C610 C609 1.362 . S
C610 C613 1.409 . S
C611 H603 0.930 . S
C611 C612 1.355 . S
C611 C613 1.415 . S
C612 C611 1.355 . S
C612 C614 1.419 . S
C613 C608 1.425 . S
C613 C610 1.409 . S
C613 C611 1.415 . S
C614 H604 0.930 . S
C614 C612 1.419 . S
C614 C615 1.362 . S
C615 H605 0.930 . S
C615 C608 1.409 . S
C615 C614 1.362 . S
H616 C622 0.930 . S
H617 C625 0.930 . S
H618 C626 0.930 . S
H619 C627 0.930 . S
H620 C630 0.930 . S
H621 C631 0.930 . S
C622 H616 0.930 . S
C622 C623 1.355 . S
C622 C624 1.415 1_554 S
C623 C622 1.355 . S
C623 C625 1.419 . S
C624 C622 1.415 1_556 S
C624 C629 1.425 . S
C624 C631 1.409 . S
C625 H617 0.930 . S
C625 C623 1.419 . S
C625 C626 1.362 . S
C626 H618 0.930 . S
C626 C625 1.362 . S
C626 C629 1.409 1_554 S
C627 H619 0.930 . S
C627 C628 1.355 . S
C627 C629 1.415 . S
C628 C627 1.355 . S
C628 C630 1.419 . S
C629 C624 1.425 . S
C629 C626 1.409 1_556 S
C629 C627 1.415 . S
C630 H620 0.930 . S
C630 C628 1.419 . S
C630 C631 1.362 . S
C631 H621 0.930 . S
C631 C624 1.409 . S
C631 C630 1.362 . S
H632 C638 0.930 . S
H633 C641 0.930 . S
H634 C642 0.930 . S
H635 C643 0.930 . S
H636 C646 0.930 . S
H637 C647 0.930 . S
C638 H632 0.930 . S
C638 C639 1.355 . S
C638 C640 1.415 . S
C639 C638 1.355 . S
C639 C641 1.419 . S
C640 C638 1.415 . S
C640 C645 1.425 . S
C640 C647 1.409 . S
C641 H633 0.930 . S
C641 C639 1.419 . S
C641 C642 1.362 . S
C642 H634 0.930 . S
C642 C641 1.362 . S
C642 C645 1.409 . S
C643 H635 0.930 . S
C643 C644 1.355 . S
C643 C645 1.415 . S
C644 C643 1.355 . S
C644 C646 1.419 . S
C645 C640 1.425 . S
C645 C642 1.409 . S
C645 C643 1.415 . S
C646 H636 0.930 . S
C646 C644 1.419 . S
C646 C647 1.362 . S
C647 H637 0.930 . S
C647 C640 1.409 . S
C647 C646 1.362 . S
H648 C654 0.930 . S
H649 C657 0.930 . S
H650 C658 0.930 . S
H651 C659 0.930 . S
H652 C662 0.930 . S
H653 C663 0.930 . S
C654 H648 0.930 . S
C654 C655 1.355 . S
C654 C656 1.415 1_556 S
C655 C654 1.355 . S
C655 C657 1.419 . S
C656 C654 1.415 1_554 S
C656 C661 1.425 . S
C656 C663 1.409 . S
C657 H649 0.930 . S
C657 C655 1.419 . S
C657 C658 1.362 . S
C658 H650 0.930 . S
C658 C657 1.362 . S
C658 C661 1.409 1_556 S
C659 H651 0.930 . S
C659 C660 1.355 . S
C659 C661 1.415 . S
C660 C659 1.355 . S
C660 C662 1.419 . S
C661 C656 1.425 . S
C661 C658 1.409 1_554 S
C661 C659 1.415 . S
C662 H652 0.930 . S
C662 C660 1.419 . S
C662 C663 1.362 . S
C663 H653 0.930 . S
C663 C656 1.409 . S
C663 C662 1.362 . S
H664 C670 0.930 . S
H665 C673 0.930 . S
H666 C674 0.930 . S
H667 C675 0.930 . S
H668 C678 0.930 . S
H669 C679 0.930 . S
C670 H664 0.930 . S
C670 C671 1.355 . S
C670 C672 1.415 . S
C671 C670 1.355 . S
C671 C673 1.419 . S
C672 C670 1.415 . S
C672 C677 1.425 . S
C672 C679 1.409 . S
C673 H665 0.930 . S
C673 C671 1.419 . S
C673 C674 1.362 . S
C674 H666 0.930 . S
C674 C673 1.362 . S
C674 C677 1.409 . S
C675 H667 0.930 . S
C675 C676 1.355 . S
C675 C677 1.415 . S
C676 C675 1.355 . S
C676 C678 1.419 . S
C677 C672 1.425 . S
C677 C674 1.409 . S
C677 C675 1.415 . S
C678 H668 0.930 . S
C678 C676 1.419 . S
C678 C679 1.362 . S
C679 H669 0.930 . S
C679 C672 1.409 . S
C679 C678 1.362 . S
H680 C686 0.930 . S
H681 C689 0.930 . S
H682 C690 0.930 . S
H683 C691 0.930 . S
H684 C694 0.930 . S
H685 C695 0.930 . S
C686 H680 0.930 . S
C686 C687 1.355 . S
C686 C688 1.415 . S
C687 C686 1.355 . S
C687 C689 1.419 . S
C688 C686 1.415 . S
C688 C693 1.425 . S
C688 C695 1.409 . S
C689 H681 0.930 . S
C689 C687 1.419 . S
C689 C690 1.362 . S
C690 H682 0.930 . S
C690 C689 1.362 . S
C690 C693 1.409 . S
C691 H683 0.930 . S
C691 C692 1.355 . S
C691 C693 1.415 . S
C692 C691 1.355 . S
C692 C694 1.419 . S
C693 C688 1.425 . S
C693 C690 1.409 . S
C693 C691 1.415 . S
C694 H684 0.930 . S
C694 C692 1.419 . S
C694 C695 1.362 . S
C695 H685 0.930 . S
C695 C688 1.409 . S
C695 C694 1.362 . S
H696 C702 0.930 . S
H697 C705 0.930 . S
H698 C706 0.930 . S
H699 C707 0.930 . S
H700 C710 0.930 . S
H701 C711 0.930 . S
C702 H696 0.930 . S
C702 C703 1.355 . S
C702 C704 1.415 . S
C703 C702 1.355 . S
C703 C705 1.419 . S
C704 C702 1.415 . S
C704 C709 1.425 . S
C704 C711 1.409 . S
C705 H697 0.930 . S
C705 C703 1.419 . S
C705 C706 1.362 . S
C706 H698 0.930 . S
C706 C705 1.362 . S
C706 C709 1.409 . S
C707 H699 0.930 . S
C707 C708 1.355 . S
C707 C709 1.415 . S
C708 C707 1.355 . S
C708 C710 1.419 . S
C709 C704 1.425 . S
C709 C706 1.409 . S
C709 C707 1.415 . S
C710 H700 0.930 . S
C710 C708 1.419 . S
C710 C711 1.362 . S
C711 H701 0.930 . S
C711 C704 1.409 . S
C711 C710 1.362 . S
H712 C718 0.930 . S
H713 C721 0.930 . S
H714 C722 0.930 . S
H715 C723 0.930 . S
H716 C726 0.930 . S
H717 C727 0.930 . S
C718 H712 0.930 . S
C718 C719 1.355 . S
C718 C720 1.415 . S
C719 C718 1.355 . S
C719 C721 1.419 . S
C720 C718 1.415 . S
C720 C725 1.425 . S
C720 C727 1.409 . S
C721 H713 0.930 . S
C721 C719 1.419 . S
C721 C722 1.362 . S
C722 H714 0.930 . S
C722 C721 1.362 . S
C722 C725 1.409 . S
C723 H715 0.930 . S
C723 C724 1.355 . S
C723 C725 1.415 . S
C724 C723 1.355 . S
C724 C726 1.419 . S
C725 C720 1.425 . S
C725 C722 1.409 . S
C725 C723 1.415 . S
C726 H716 0.930 . S
C726 C724 1.419 . S
C726 C727 1.362 . S
C727 H717 0.930 . S
C727 C720 1.409 . S
C727 C726 1.362 . S
H728 C734 0.930 . S
H729 C737 0.930 . S
H730 C738 0.930 . S
H731 C739 0.930 . S
H732 C742 0.930 1_455 S
H733 C743 0.930 . S
C734 H728 0.930 . S
C734 C735 1.355 . S
C734 C736 1.415 . S
C735 C734 1.355 . S
C735 C737 1.419 . S
C736 C734 1.415 . S
C736 C741 1.425 . S
C736 C743 1.409 . S
C737 H729 0.930 . S
C737 C735 1.419 . S
C737 C738 1.362 . S
C738 H730 0.930 . S
C738 C737 1.362 . S
C738 C741 1.409 . S
C739 H731 0.930 . S
C739 C740 1.355 . S
C739 C741 1.415 . S
C740 C739 1.355 . S
C740 C742 1.419 . S
C741 C736 1.425 . S
C741 C738 1.409 . S
C741 C739 1.415 . S
C742 H732 0.930 1_655 S
C742 C740 1.419 . S
C742 C743 1.362 . S
C743 H733 0.930 . S
C743 C736 1.409 . S
C743 C742 1.362 . S
H744 C750 0.930 . S
H745 C753 0.930 . S
H746 C754 0.930 . S
H747 C755 0.930 . S
H748 C758 0.930 . S
H749 C759 0.930 . S
C750 H744 0.930 . S
C750 C751 1.355 . S
C750 C752 1.415 . S
C751 C750 1.355 . S
C751 C753 1.419 . S
C752 C750 1.415 . S
C752 C757 1.425 . S
C752 C759 1.409 . S
C753 H745 0.930 . S
C753 C751 1.419 . S
C753 C754 1.362 . S
C754 H746 0.930 . S
C754 C753 1.362 . S
C754 C757 1.409 . S
C755 H747 0.930 . S
C755 C756 1.355 . S
C755 C757 1.415 . S
C756 C755 1.355 . S
C756 C758 1.419 . S
C757 C752 1.425 . S
C757 C754 1.409 . S
C757 C755 1.415 . S
C758 H748 0.930 . S
C758 C756 1.419 . S
C758 C759 1.362 . S
C759 H749 0.930 . S
C759 C752 1.409 . S
C759 C758 1.362 . S
H760 C766 0.930 . S
H761 C769 0.930 . S
H762 C770 0.930 . S
H763 C771 0.930 . S
H764 C774 0.930 . S
H765 C775 0.930 . S
C766 H760 0.930 . S
C766 C767 1.355 . S
C766 C768 1.415 . S
C767 C766 1.355 . S
C767 C769 1.419 . S
C768 C766 1.415 . S
C768 C773 1.425 . S
C768 C775 1.409 . S
C769 H761 0.930 . S
C769 C767 1.419 . S
C769 C770 1.362 . S
C770 H762 0.930 . S
C770 C769 1.362 . S
C770 C773 1.409 . S
C771 H763 0.930 . S
C771 C772 1.355 . S
C771 C773 1.415 . S
C772 C771 1.355 . S
C772 C774 1.419 . S
C773 C768 1.425 . S
C773 C770 1.409 . S
C773 C771 1.415 . S
C774 H764 0.930 . S
C774 C772 1.419 . S
C774 C775 1.362 . S
C775 H765 0.930 . S
C775 C768 1.409 . S
C775 C774 1.362 . S
H776 C782 0.930 . S
H777 C785 0.930 . S
H778 C786 0.930 . S
H779 C787 0.930 . S
H780 C790 0.930 . S
H781 C791 0.930 . S
C782 H776 0.930 . S
C782 C783 1.355 . S
C782 C784 1.415 . S
C783 C782 1.355 . S
C783 C785 1.419 . S
C784 C782 1.415 . S
C784 C789 1.425 . S
C784 C791 1.409 . S
C785 H777 0.930 . S
C785 C783 1.419 . S
C785 C786 1.362 . S
C786 H778 0.930 . S
C786 C785 1.362 . S
C786 C789 1.409 . S
C787 H779 0.930 . S
C787 C788 1.355 . S
C787 C789 1.415 . S
C788 C787 1.355 . S
C788 C790 1.419 . S
C789 C784 1.425 . S
C789 C786 1.409 . S
C789 C787 1.415 . S
C790 H780 0.930 . S
C790 C788 1.419 . S
C790 C791 1.362 . S
C791 H781 0.930 . S
C791 C784 1.409 . S
C791 C790 1.362 . S
H792 C798 0.930 . S
H793 C801 0.930 . S
H794 C802 0.930 . S
H795 C803 0.930 . S
H796 C806 0.930 . S
H797 C807 0.930 . S
C798 H792 0.930 . S
C798 C799 1.355 . S
C798 C800 1.415 . S
C799 C798 1.355 . S
C799 C801 1.419 . S
C800 C798 1.415 . S
C800 C805 1.425 . S
C800 C807 1.409 . S
C801 H793 0.930 . S
C801 C799 1.419 . S
C801 C802 1.362 . S
C802 H794 0.930 . S
C802 C801 1.362 . S
C802 C805 1.409 . S
C803 H795 0.930 . S
C803 C804 1.355 . S
C803 C805 1.415 . S
C804 C803 1.355 . S
C804 C806 1.419 . S
C805 C800 1.425 . S
C805 C802 1.409 . S
C805 C803 1.415 . S
C806 H796 0.930 . S
C806 C804 1.419 . S
C806 C807 1.362 . S
C807 H797 0.930 . S
C807 C800 1.409 . S
C807 C806 1.362 . S
C431 C71 1.665 . S
C436 C162 1.656 . S
C452 C246 1.640 . S
C447 C81 1.627 . S
C468 C239 1.652 . S
C463 C49 1.659 . S
C479 C59 1.639 . S
C484 C155 1.639 . S
C500 C319 1.656 . S
C495 C27 1.651 . S
C516 C403 1.669 . S
C511 C38 1.675 . S
C527 C5 1.660 . S
C532 C396 1.647 . S
C543 C16 1.684 . S
C548 C312 1.698 . S
C564 C146 1.338 . S
C559 C15 1.535 . S
C580 C230 1.468 . S
C575 C4 1.577 . S
C596 C241 1.393 . S
C591 C37 1.569 . S
C612 C157 1.301 . S
C607 C26 1.563 . S
C628 C325 1.403 . S
C623 C60 1.582 . S
C639 C48 1.620 . S
C644 C409 1.409 . S
C660 C398 1.351 . S
C655 C82 1.584 . S
C671 C70 1.621 . S
C676 C314 1.362 . S
C692 C144 1.485 . S
C687 C10 1.492 . S
C708 C228 1.536 . S
C703 C21 1.513 . S
C719 C32 1.484 . S
C724 C235 1.436 . S
C740 C151 1.509 . S
C735 C43 1.507 . S
C756 C323 1.577 . S
C751 C54 1.547 . S
C767 C65 1.523 . S
C772 C407 1.537 . S
C783 C76 1.575 . S
C788 C414 1.530 . S
C799 C87 1.531 . S
C804 C330 1.488 . S
