# Generated by pormake.
# Topology rtl, (3,6)-cn, num edge types: 1
# Building blocks:
#     Node 0, Type 0, BuildingBlock: BETDIP_clean_linker_0, # of connection points: 3
#     Node 1, Type 0, BuildingBlock: BETDIP_clean_linker_0, # of connection points: 3
#     Node 2, Type 0, BuildingBlock: BETDIP_clean_linker_0, # of connection points: 3
#     Node 3, Type 0, BuildingBlock: BETDIP_clean_linker_0, # of connection points: 3
#     Node 4, Type 1, BuildingBlock: VOLQOD_clean_sbu_1, # of connection points: 6
#     Node 5, Type 1, BuildingBlock: VOLQOD_clean_sbu_1, # of connection points: 6
#     Edge 6, Type (0, 1), BuildingBlock: ZUJKAS_clean_linker_0, # of connection points: 2
#     Edge 7, Type (0, 1), BuildingBlock: ZUJKAS_clean_linker_0, # of connection points: 2
#     Edge 8, Type (0, 1), BuildingBlock: ZUJKAS_clean_linker_0, # of connection points: 2
#     Edge 9, Type (0, 1), BuildingBlock: ZUJKAS_clean_linker_0, # of connection points: 2
#     Edge 10, Type (0, 1), BuildingBlock: ZUJKAS_clean_linker_0, # of connection points: 2
#     Edge 11, Type (0, 1), BuildingBlock: ZUJKAS_clean_linker_0, # of connection points: 2
#     Edge 12, Type (0, 1), BuildingBlock: ZUJKAS_clean_linker_0, # of connection points: 2
#     Edge 13, Type (0, 1), BuildingBlock: ZUJKAS_clean_linker_0, # of connection points: 2
#     Edge 14, Type (0, 1), BuildingBlock: ZUJKAS_clean_linker_0, # of connection points: 2
#     Edge 15, Type (0, 1), BuildingBlock: ZUJKAS_clean_linker_0, # of connection points: 2
#     Edge 16, Type (0, 1), BuildingBlock: ZUJKAS_clean_linker_0, # of connection points: 2
#     Edge 17, Type (0, 1), BuildingBlock: ZUJKAS_clean_linker_0, # of connection points: 2
# Relax obj value: 0.041
# Max RMSD: 0.143
# Mean RMSD: 0.098
data_MOF--net-rtl--node1-VOLQOD_clean_sbu_1--node2-BETDIP_clean_linker_0--edge1-ZUJKAS_clean_linker_0
_symmetry_space_group_name_H-M    P1
_symmetry_Int_Tables_number       1
_symmetry_cell_setting            triclinic
loop_
_symmetry_equiv_pos_as_xyz
'x, y, z'
_cell_length_a     48.610369
_cell_length_b     49.395978
_cell_length_c     28.373089
_cell_angle_alpha  90.806575
_cell_angle_beta   91.279802
_cell_angle_gamma 90.029928
loop_
_atom_site_label
_atom_site_type_symbol
_atom_site_fract_x
_atom_site_fract_y
_atom_site_fract_z
_atom_type_partial_charge
H0 H 0.21035 0.78982 0.91686 0.0
H1 H 0.21308 0.80485 0.06689 0.0
H2 H 0.15829 0.85046 0.97861 0.0
H3 H 0.2487 0.77868 0.06871 0.0
C4 C 0.25075 0.76752 0.03583 0.0
C5 C 0.20338 0.80106 0.94742 0.0
C6 C 0.18277 0.82076 0.94225 0.0
C7 C 0.21476 0.79523 0.99197 0.0
C8 C 0.20514 0.80923 0.03199 0.0
C9 C 0.1849 0.82932 0.02717 0.0
C10 C 0.174 0.83502 0.98228 0.0
N11 N 0.23527 0.77476 -0.0052 0.0
H12 H 0.69022 0.71872 0.59787 0.0
H13 H 0.69237 0.71113 0.44631 0.0
H14 H 0.65433 0.64936 0.52679 0.0
H15 H 0.70165 0.75479 0.44885 0.0
C16 C 0.71355 0.7581 0.48123 0.0
C17 C 0.68522 0.70763 0.56556 0.0
C18 C 0.67171 0.68257 0.56747 0.0
C19 C 0.69275 0.71829 0.52212 0.0
C20 C 0.68632 0.70372 0.48021 0.0
C21 C 0.67256 0.67882 0.48185 0.0
C22 C 0.66554 0.66832 0.52552 0.0
N23 N 0.70796 0.74289 0.52209 0.0
H24 H 0.81428 0.21627 0.91724 0.0
H25 H 0.80058 0.21436 0.06681 0.0
H26 H 0.85206 0.15464 0.00258 0.0
H27 H 0.79217 0.25934 0.05565 0.0
C28 C 0.78034 0.25884 0.02271 0.0
C29 C 0.81791 0.20708 0.95127 0.0
C30 C 0.83512 0.18437 0.95518 0.0
C31 C 0.80579 0.21844 0.99135 0.0
C32 C 0.81041 0.20648 0.03564 0.0
C33 C 0.8269 0.18335 0.03947 0.0
C34 C 0.83925 0.17252 -0.00066 0.0
N35 N 0.78802 0.24102 0.98558 0.0
H36 H 0.28207 0.29743 0.42358 0.0
H37 H 0.27213 0.30769 0.57314 0.0
H38 H 0.33126 0.35574 0.50187 0.0
H39 H 0.22937 0.29193 0.55589 0.0
C40 C 0.23277 0.27663 0.52879 0.0
C41 C 0.28757 0.30775 0.45641 0.0
C42 C 0.30843 0.32745 0.4576 0.0
C43 C 0.2739 0.30091 0.49757 0.0
C44 C 0.2817 0.31346 0.54071 0.0
C45 C 0.30231 0.33336 0.5423 0.0
C46 C 0.31531 0.34038 0.50061 0.0
N47 N 0.25329 0.28054 0.49464 0.0
O48 O 0.93638 0.96742 0.4933 0.0
Zn49 Zn 0.95844 0.00163 0.49468 0.0
O50 O -0.00232 0.99408 0.49154 0.0
Zn51 Zn 0.01588 0.00682 0.54997 0.0
Zn52 Zn 0.00308 0.95504 0.4836 0.0
Zn53 Zn 0.0129 0.01294 0.43784 0.0
O54 O 0.04394 0.0356 0.53681 0.0
O55 O 0.04045 0.04111 0.45942 0.0
O56 O 0.94937 0.02223 0.55352 0.0
O57 O 0.98886 0.02417 0.59411 0.0
O58 O 0.03517 0.97619 0.58315 0.0
O59 O 0.02618 0.94037 0.53712 0.0
O60 O 0.02383 0.94668 0.42473 0.0
O61 O 0.94536 0.02394 0.44017 0.0
O62 O 0.03214 0.98694 0.39427 0.0
O63 O 0.98323 0.03206 0.4005 0.0
C64 C 0.94215 0.94256 0.4866 0.0
C65 C 0.05101 0.04755 0.49949 0.0
C66 C 0.03756 0.95101 0.57376 0.0
C67 C 0.96328 0.02944 0.59007 0.0
C68 C 0.03451 0.96126 0.39331 0.0
C69 C 0.95742 0.03469 0.40577 0.0
O70 O 0.96686 0.93476 0.48095 0.0
O71 O 0.55924 0.46832 0.00589 0.0
Zn72 Zn 0.53749 0.50259 0.01107 0.0
O73 O 0.49807 0.49532 0.01079 0.0
Zn74 Zn 0.48039 0.51309 0.95676 0.0
Zn75 Zn 0.49206 0.45617 0.00613 0.0
Zn76 Zn 0.48267 0.50945 0.06933 0.0
O77 O 0.45235 0.54029 0.97816 0.0
O78 O 0.45402 0.53793 0.05621 0.0
O79 O 0.54756 0.52617 0.95722 0.0
O80 O 0.50809 0.53333 0.91862 0.0
O81 O 0.4606 0.48596 0.91442 0.0
O82 O 0.46892 0.44663 0.94882 0.0
O83 O 0.47132 0.44281 0.06176 0.0
O84 O 0.55006 0.52178 0.07046 0.0
O85 O 0.4648 0.47973 0.10566 0.0
O86 O 0.51186 0.52691 0.11097 0.0
C87 C 0.55296 0.44334 0.0029 0.0
C88 C 0.44415 0.54806 0.01845 0.0
C89 C 0.45775 0.46035 0.91593 0.0
C90 C 0.53397 0.53686 0.92346 0.0
C91 C 0.46179 0.45439 0.09828 0.0
C92 C 0.53766 0.53027 0.10679 0.0
O93 O 0.52794 0.4356 0.00261 0.0
H94 H 0.18972 0.26601 0.58454 0.0
H95 H 0.15946 0.22621 0.58164 0.0
H96 H 0.20465 0.19362 0.46473 0.0
H97 H 0.23499 0.23316 0.46753 0.0
H98 H 0.12628 0.20736 0.50358 0.0
H99 H 0.20376 0.13136 0.56127 0.0
H100 H 0.20875 0.16734 0.56998 0.0
H101 H 0.21393 0.15206 0.51305 0.0
C102 C 0.19318 0.25029 0.55832 0.0
C103 C 0.21466 0.25262 0.52636 0.0
C104 C 0.17594 0.22764 0.5567 0.0
C105 C 0.18009 0.20689 0.52337 0.0
C106 C 0.20143 0.20924 0.49121 0.0
H107 H 0.06793 0.08043 0.42886 0.0
H108 H 0.09936 0.11898 0.43552 0.0
C109 C 0.21863 0.23192 0.4927 0.0
C110 C 0.16165 0.18307 0.52147 0.0
H111 H 0.16059 0.11439 0.53325 0.0
C112 C 0.13372 0.18703 0.5102 0.0
C113 C 0.17145 0.15667 0.53064 0.0
C114 C 0.20106 0.1515 0.54483 0.0
C115 C 0.11535 0.16515 0.50692 0.0
C116 C 0.12532 0.13866 0.51467 0.0
C117 C 0.15314 0.13474 0.5269 0.0
C118 C 0.10708 0.11477 0.51043 0.0
C119 C 0.08538 0.17053 0.49565 0.0
C120 C 0.10165 0.09926 0.55016 0.0
C121 C 0.08372 0.07716 0.54654 0.0
C122 C 0.07109 0.07009 0.50297 0.0
C123 C 0.07719 0.08534 0.46299 0.0
C124 C 0.09504 0.10747 0.46672 0.0
H125 H 0.07997 0.19216 0.50131 0.0
H126 H 0.08096 0.16523 0.4581 0.0
H127 H 0.07196 0.15789 0.51763 0.0
H128 H 0.11091 0.10454 0.58414 0.0
H129 H 0.07958 0.06582 0.57799 0.0
H130 H 0.28141 0.74789 0.10856 0.0
H131 H 0.31442 0.71032 0.10683 0.0
H132 H 0.29747 0.69851 0.95812 0.0
H133 H 0.26459 0.73594 0.9595 0.0
H134 H 0.30364 0.65483 0.07598 0.0
H135 H 0.3827 0.70599 0.9701 0.0
H136 H 0.35611 0.72437 0.00041 0.0
H137 H 0.34823 0.70687 0.94585 0.0
C138 C 0.28482 0.73728 0.07553 0.0
C139 C 0.27055 0.74486 0.03421 0.0
C140 C 0.30359 0.71587 0.07461 0.0
C141 C 0.30854 0.70193 0.03225 0.0
C142 C 0.29419 0.70933 0.99099 0.0
H143 H 0.41489 0.57111 0.94596 0.0
H144 H 0.38117 0.60764 0.95082 0.0
C145 C 0.27534 0.73065 0.99191 0.0
C146 C 0.32841 0.67931 0.03126 0.0
H147 H 0.38932 0.65934 0.98457 0.0
C148 C 0.32246 0.65579 0.05623 0.0
C149 C 0.35283 0.68073 0.00532 0.0
C150 C 0.36058 0.7059 0.97916 0.0
C151 C 0.34007 0.63329 0.05508 0.0
C152 C 0.36452 0.63468 0.02907 0.0
C153 C 0.37052 0.65832 0.00437 0.0
C154 C 0.3842 0.61186 0.02677 0.0
C155 C 0.33196 0.60802 0.08065 0.0
C156 C 0.39717 0.6022 0.06788 0.0
C157 C 0.41634 0.5812 0.06529 0.0
C158 C 0.42315 0.56969 0.02143 0.0
C159 C 0.41014 0.57949 0.98031 0.0
C160 C 0.39087 0.60038 0.98299 0.0
H161 H 0.30957 0.60763 0.08765 0.0
H162 H 0.33732 0.58954 0.06011 0.0
H163 H 0.34319 0.6074 0.11509 0.0
H164 H 0.39279 0.6112 0.10192 0.0
H165 H 0.42613 0.5743 0.09762 0.0
H166 H 0.73544 0.78153 0.40511 0.0
H167 H 0.77568 0.81133 0.40293 0.0
H168 H 0.78366 0.8083 0.55456 0.0
H169 H 0.74412 0.77778 0.55671 0.0
H170 H 0.78495 0.86014 0.43885 0.0
H171 H 0.86049 0.78922 0.51759 0.0
H172 H 0.82647 0.77867 0.49844 0.0
H173 H 0.83182 0.79494 0.55512 0.0
C174 C 0.74588 0.78722 0.43791 0.0
C175 C 0.7369 0.7772 0.48096 0.0
C176 C 0.76884 0.80419 0.43665 0.0
C177 C 0.78308 0.81154 0.47848 0.0
C178 C 0.77355 0.80221 0.52171 0.0
H179 H 0.88995 0.94949 0.51769 0.0
H180 H 0.85208 0.91713 0.5138 0.0
C181 C 0.7508 0.78495 0.52293 0.0
C182 C 0.80744 0.82955 0.47695 0.0
H183 H 0.8746 0.83553 0.51337 0.0
C184 C 0.80461 0.85466 0.45482 0.0
C185 C 0.83327 0.82217 0.49689 0.0
C186 C 0.83832 0.79466 0.51787 0.0
C187 C 0.82666 0.87292 0.45328 0.0
C188 C 0.85198 0.86624 0.47585 0.0
C189 C 0.85507 0.84079 0.4967 0.0
C190 C 0.87529 0.88557 0.47901 0.0
C191 C 0.82264 0.89902 0.42695 0.0
C192 C 0.90133 0.87818 0.46263 0.0
C193 C 0.92326 0.89651 0.46565 0.0
C194 C 0.91946 0.92259 0.48491 0.0
C195 C 0.89348 0.9297 0.50204 0.0
C196 C 0.87172 0.91129 0.49954 0.0
H197 H 0.80609 0.89706 0.39946 0.0
H198 H 0.81645 0.91521 0.45206 0.0
H199 H 0.84187 0.9054 0.40984 0.0
H200 H 0.90459 0.85833 0.44702 0.0
H201 H 0.94303 0.89041 0.45219 0.0
H202 H 0.7627 0.29629 0.08559 0.0
H203 H 0.72255 0.32602 0.07822 0.0
H204 H 0.70387 0.29189 0.94041 0.0
H205 H 0.74422 0.2625 0.9472 0.0
H206 H 0.70033 0.34747 0.94274 0.0
H207 H 0.64235 0.30325 0.08907 0.0
H208 H 0.67636 0.31412 0.1065 0.0
H209 H 0.672 0.28691 0.06416 0.0
C210 C 0.75001 0.2952 0.05374 0.0
C211 C 0.75649 0.27709 0.0171 0.0
C212 C 0.727 0.312 0.04971 0.0
C213 C 0.70996 0.31076 0.00915 0.0
C214 C 0.71667 0.293 0.97213 0.0
H215 H 0.54832 0.3881 -0.00602 0.0
H216 H 0.58567 0.35491 0.99135 0.0
C217 C 0.73973 0.27624 0.97607 0.0
C218 C 0.68543 0.32837 0.00501 0.0
H219 H 0.62571 0.34525 0.05914 0.0
C220 C 0.6839 0.34686 0.96795 0.0
C221 C 0.6638 0.32718 0.03745 0.0
C222 C 0.66349 0.30661 0.07626 0.0
C223 C 0.66172 0.36487 0.96341 0.0
C224 C 0.64084 0.36466 -0.00266 0.0
C225 C 0.6419 0.34554 0.03344 0.0
C226 C 0.61824 0.38473 -0.00293 0.0
C227 C 0.66083 0.38388 0.92223 0.0
C228 C 0.62422 0.41242 0.0016 0.0
C229 C 0.603 0.4314 0.003 0.0
C230 C 0.57532 0.42305 0.00036 0.0
C231 C 0.56939 0.39523 -0.00399 0.0
C232 C 0.59069 0.37624 -0.0055 0.0
H233 H 0.67326 0.37609 0.89258 0.0
H234 H 0.63938 0.38711 0.90923 0.0
H235 H 0.66952 0.40376 0.9336 0.0
H236 H 0.64533 0.41936 0.00479 0.0
H237 H 0.60837 0.45262 0.00668 0.0
H238 H 0.16798 0.80773 0.10979 0.0
H239 H 0.14475 0.83135 0.17424 0.0
H240 H 0.15418 0.90717 0.10274 0.0
H241 H 0.17722 0.88368 0.03818 0.0
H242 H 0.16019 0.87501 0.23443 0.0
H243 H 0.07081 0.901 0.11833 0.0
H244 H 0.09648 0.87658 0.10136 0.0
H245 H 0.1034 0.91222 0.09732 0.0
C246 C 0.16548 0.82949 0.10826 0.0
C247 C 0.1741 0.84387 0.06882 0.0
C248 C 0.15214 0.84292 0.14493 0.0
C249 C 0.14725 0.87088 0.14264 0.0
C250 C 0.15717 0.88548 0.10455 0.0
H251 H 0.05872 0.98512 0.31809 0.0
H252 H 0.087 0.96337 0.2582 0.0
C253 C 0.17037 0.87207 0.06783 0.0
C254 C 0.13088 0.88461 0.1792 0.0
H255 H 0.07132 0.91978 0.19557 0.0
C256 C 0.14074 0.88475 0.22604 0.0
C257 C 0.10547 0.89723 0.168 0.0
C258 C 0.09323 0.8966 0.11862 0.0
C259 C 0.12601 0.89758 0.26201 0.0
C260 C 0.10065 0.91021 0.25075 0.0
C261 C 0.09084 0.91014 0.20392 0.0
C262 C 0.08371 0.92327 0.28719 0.0
C263 C 0.13786 0.89788 0.31162 0.0
C264 C 0.07215 0.90776 0.32271 0.0
C265 C 0.05589 0.92006 0.35685 0.0
C266 C 0.05087 0.94811 0.35601 0.0
C267 C 0.06222 0.9635 0.31988 0.0
C268 C 0.0784 0.95114 0.28566 0.0
H269 H 0.16019 0.89308 0.31241 0.0
H270 H 0.13477 0.91793 0.32888 0.0
H271 H 0.12716 0.88245 0.33258 0.0
H272 H 0.07559 0.88612 0.32389 0.0
H273 H 0.04744 0.90756 0.38406 0.0
H274 H 0.6409 0.70703 0.63512 0.0
H275 H 0.61931 0.68504 0.70197 0.0
H276 H 0.66082 0.61041 0.66733 0.0
H277 H 0.68192 0.63215 0.60018 0.0
H278 H 0.60537 0.60433 0.67253 0.0
H279 H 0.64609 0.65944 0.83115 0.0
H280 H 0.63159 0.68079 0.7863 0.0
H281 H 0.66202 0.66145 0.77441 0.0
C282 C 0.64595 0.68616 0.64272 0.0
C283 C 0.66294 0.67119 0.61261 0.0
C284 C 0.63367 0.67363 0.68087 0.0
C285 C 0.63857 0.64612 0.68969 0.0
C286 C 0.65675 0.63164 0.66108 0.0
H287 H 0.58932 0.54613 0.91967 0.0
H288 H 0.61363 0.57375 0.86333 0.0
C289 C 0.66879 0.64404 0.62285 0.0
C290 C 0.62269 0.63152 0.7253 0.0
H291 H 0.60918 0.62879 0.84267 0.0
C292 C 0.60625 0.60964 0.70976 0.0
C293 C 0.62395 0.63848 0.77379 0.0
C294 C 0.64204 0.66117 0.79261 0.0
C295 C 0.59113 0.59439 0.7414 0.0
C296 C 0.59199 0.60161 0.78979 0.0
C297 C 0.6084 0.6235 0.80543 0.0
C298 C 0.57686 0.58589 0.82488 0.0
C299 C 0.57495 0.57025 0.72285 0.0
C300 C 0.54807 0.58384 0.8222 0.0
C301 C 0.53407 0.56789 0.85413 0.0
C302 C 0.54863 0.5539 0.8896 0.0
C303 C 0.57745 0.55652 0.89271 0.0
C304 C 0.5914 0.57238 0.86067 0.0
H305 H 0.5818 0.56362 0.68741 0.0
H306 H 0.57694 0.55291 0.74718 0.0
H307 H 0.55286 0.57575 0.7198 0.0
H308 H 0.53645 0.59452 0.79528 0.0
H309 H 0.51186 0.56654 0.85101 0.0
H310 H 0.81434 0.13172 0.06142 0.0
H311 H 0.82977 0.10697 0.13128 0.0
H312 H 0.86769 0.17984 0.18797 0.0
H313 H 0.85132 0.20481 0.11871 0.0
H314 H 0.8824 0.09933 0.15054 0.0
H315 H 0.83536 0.14904 0.3051 0.0
H316 H 0.82307 0.15461 0.2455 0.0
H317 H 0.8527 0.17268 0.26861 0.0
C318 C 0.82525 0.14254 0.08958 0.0
C319 C 0.83169 0.17006 0.08508 0.0
C320 C 0.83409 0.12845 0.12933 0.0
C321 C 0.84976 0.14157 0.16499 0.0
C322 C 0.85509 0.16943 0.16149 0.0
H323 H 0.97638 0.06536 0.33382 0.0
H324 H 0.94926 0.09135 0.27686 0.0
C325 C 0.84587 0.18366 0.12192 0.0
C326 C 0.86352 0.12536 0.20217 0.0
H327 H 0.87458 0.12072 0.32101 0.0
C328 C 0.88041 0.10385 0.18784 0.0
C329 C 0.86079 0.13112 0.25081 0.0
C330 C 0.84177 0.15295 0.26847 0.0
C331 C 0.89511 0.08831 0.22067 0.0
C332 C 0.8935 0.09494 0.26914 0.0
C333 C 0.87607 0.11596 0.28371 0.0
C334 C 0.90989 0.08024 0.30506 0.0
C335 C 0.91204 0.06478 0.20308 0.0
C336 C 0.89674 0.0661 0.34066 0.0
C337 C 0.91218 0.0514 0.37356 0.0
C338 C 0.94108 0.05062 0.37141 0.0
C339 C 0.95418 0.06527 0.33618 0.0
C340 C 0.93871 0.08007 0.3035 0.0
H341 H 0.9049 0.05774 0.1675 0.0
H342 H 0.93381 0.07125 0.20049 0.0
H343 H 0.91121 0.04747 0.22755 0.0
H344 H 0.8745 0.06609 0.34252 0.0
H345 H 0.90143 0.04043 0.40034 0.0
H346 H 0.31546 0.30824 0.6249 0.0
H347 H 0.33716 0.32872 0.69568 0.0
H348 H 0.3329 0.40725 0.63134 0.0
H349 H 0.31083 0.38702 0.56103 0.0
H350 H 0.38778 0.35609 0.69198 0.0
H351 H 0.30719 0.42267 0.76592 0.0
H352 H 0.2994 0.39521 0.72502 0.0
H353 H 0.31208 0.4269 0.70391 0.0
C354 C 0.31846 0.32997 0.62647 0.0
C355 C 0.31156 0.34606 0.58752 0.0
C356 C 0.33096 0.3416 0.66674 0.0
C357 C 0.3364 0.3695 0.66882 0.0
C358 C 0.32845 0.38575 0.63075 0.0
H359 H 0.43228 0.48208 0.8381 0.0
H360 H 0.40267 0.45881 0.77966 0.0
C361 C 0.31608 0.37415 0.59049 0.0
C362 C 0.35302 0.38125 0.7083 0.0
H363 H 0.35337 0.43084 0.79326 0.0
C364 C 0.38018 0.37218 0.71461 0.0
C365 C 0.34305 0.40238 0.73734 0.0
C366 C 0.31375 0.41223 0.73309 0.0
C367 C 0.39801 0.38431 0.7482 0.0
C368 C 0.38818 0.40572 0.77683 0.0
C369 C 0.36085 0.41447 0.77111 0.0
C370 C 0.40611 0.41962 0.81236 0.0
C371 C 0.42748 0.37478 0.75153 0.0
C372 C 0.41768 0.40529 0.8502 0.0
C373 C 0.43475 0.41844 0.88347 0.0
C374 C 0.44035 0.44629 0.87976 0.0
C375 C 0.42849 0.46063 0.84195 0.0
C376 C 0.4115 0.4474 0.8086 0.0
H377 H 0.43345 0.36315 0.71955 0.0
H378 H 0.44181 0.39215 0.75653 0.0
H379 H 0.43002 0.36132 0.7823 0.0
H380 H 0.41334 0.38394 0.85421 0.0
H381 H 0.44331 0.40681 0.91235 0.0
H382 H 0.64519 0.69884 0.40515 0.0
H383 H 0.62546 0.67298 0.33822 0.0
H384 H 0.66172 0.59985 0.39308 0.0
H385 H 0.68089 0.62553 0.46062 0.0
H386 H 0.64609 0.64056 0.26849 0.0
H387 H 0.58057 0.58106 0.38685 0.0
H388 H 0.59965 0.61049 0.40701 0.0
H389 H 0.61668 0.57837 0.40046 0.0
C390 C 0.64928 0.67733 0.40243 0.0
C391 C 0.66424 0.66406 0.43815 0.0
C392 C 0.63797 0.66258 0.36434 0.0
C393 C 0.6416 0.63442 0.36137 0.0
C394 C 0.65806 0.62145 0.39545 0.0
H395 H 0.59359 0.53413 0.11771 0.0
H396 H 0.61954 0.55914 0.17888 0.0
C397 C 0.66908 0.63611 0.43379 0.0
C398 C 0.62703 0.6185 0.32396 0.0
H399 H 0.57995 0.56791 0.30633 0.0
C400 C 0.63162 0.62466 0.27666 0.0
C401 C 0.60781 0.59811 0.33487 0.0
C402 C 0.60063 0.59175 0.38503 0.0
C403 C 0.61761 0.61082 0.23984 0.0
C404 C 0.59903 0.58987 0.25077 0.0
C405 C 0.59439 0.58381 0.29808 0.0
C406 C 0.58348 0.57446 0.21382 0.0
C407 C 0.62228 0.6193 0.18975 0.0
C408 C 0.55462 0.574 0.21416 0.0
C409 C 0.53973 0.55936 0.17976 0.0
C410 C 0.55344 0.54498 0.14423 0.0
C411 C 0.58239 0.54521 0.14432 0.0
C412 C 0.59727 0.55966 0.17904 0.0
H413 H 0.63091 0.6401 0.18826 0.0
H414 H 0.63721 0.60526 0.17333 0.0
H415 H 0.60284 0.61857 0.16848 0.0
H416 H 0.54359 0.58518 0.24089 0.0
H417 H 0.51746 0.55964 0.18068 0.0
H418 H 0.81218 0.17208 0.86848 0.0
H419 H 0.83383 0.14702 0.80375 0.0
H420 H 0.91022 0.14477 0.8839 0.0
H421 H 0.88879 0.16964 0.94847 0.0
H422 H 0.8821 0.15724 0.7505 0.0
H423 H 0.89181 0.0644 0.85771 0.0
H424 H 0.87021 0.09252 0.8743 0.0
H425 H 0.90676 0.0941 0.88507 0.0
C426 C 0.8337 0.16659 0.87186 0.0
C427 C 0.84874 0.17243 0.91364 0.0
C428 C 0.84598 0.15222 0.83506 0.0
C429 C 0.8734 0.14357 0.83966 0.0
C430 C 0.88884 0.15072 0.88024 0.0
H431 H 0.98563 0.04802 0.674 0.0
H432 H 0.96333 0.07612 0.7337 0.0
C433 C 0.8766 0.16494 0.91698 0.0
C434 C 0.88575 0.12627 0.80287 0.0
H435 H 0.91441 0.06406 0.78441 0.0
C436 C 0.88903 0.13681 0.75771 0.0
C437 C 0.89468 0.09963 0.81257 0.0
C438 C 0.89049 0.08684 0.8599 0.0
C439 C 0.9017 0.12157 0.72217 0.0
C440 C 0.91091 0.09506 0.73209 0.0
C441 C 0.90742 0.08446 0.77712 0.0
C442 C 0.92417 0.07789 0.69613 0.0
C443 C 0.90573 0.13414 0.67465 0.0
C444 C 0.90929 0.06919 0.65585 0.0
C445 C 0.92189 0.05308 0.62178 0.0
C446 C 0.94961 0.04532 0.62748 0.0
C447 C 0.96429 0.05367 0.66843 0.0
C448 C 0.95162 0.06974 0.70255 0.0
H449 H 0.90325 0.15649 0.67605 0.0
H450 H 0.92646 0.1293 0.66118 0.0
H451 H 0.8902 0.12578 0.64915 0.0
H452 H 0.88792 0.07487 0.65078 0.0
H453 H 0.90992 0.04694 0.59079 0.0
H454 H 0.36354 0.33607 0.44925 0.0
H455 H 0.38742 0.35349 0.38142 0.0
H456 H 0.31161 0.35117 0.29945 0.0
H457 H 0.28716 0.33498 0.36825 0.0
H458 H 0.39554 0.33499 0.29281 0.0
H459 H 0.33398 0.42981 0.28955 0.0
H460 H 0.33253 0.40624 0.33736 0.0
H461 H 0.31421 0.39924 0.28279 0.0
C462 C 0.35187 0.33941 0.41689 0.0
C463 C 0.32333 0.33472 0.41444 0.0
C464 C 0.36561 0.34912 0.378 0.0
C465 C 0.35118 0.35417 0.33571 0.0
C466 C 0.323 0.348 0.33214 0.0
H467 H 0.441 0.40324 0.08557 0.0
H468 H 0.41338 0.37752 0.14028 0.0
C469 C 0.30913 0.33847 0.37129 0.0
C470 C 0.36569 0.36709 0.29654 0.0
H471 H 0.36788 0.42487 0.23219 0.0
C472 C 0.38942 0.35456 0.27925 0.0
C473 C 0.35784 0.3928 0.27949 0.0
C474 C 0.33341 0.40798 0.29845 0.0
C475 C 0.40586 0.36728 0.24607 0.0
C476 C 0.39791 0.39293 0.22886 0.0
C477 C 0.37385 0.40517 0.24537 0.0
C478 C 0.41491 0.40816 0.19557 0.0
C479 C 0.43216 0.35365 0.23135 0.0
C480 C 0.42442 0.43418 0.20804 0.0
C481 C 0.43984 0.44911 0.17662 0.0
C482 C 0.44617 0.43824 0.13212 0.0
C483 C 0.43674 0.41209 0.11978 0.0
C484 C 0.42105 0.39729 0.15109 0.0
H485 H 0.43879 0.33785 0.25667 0.0
H486 H 0.42879 0.34369 0.1964 0.0
H487 H 0.44907 0.3686 0.22834 0.0
H488 H 0.41989 0.44298 0.2422 0.0
H489 H 0.4468 0.46916 0.18724 0.0
H490 H 0.1284 0.82862 0.92137 0.0
H491 H 0.10787 0.84395 0.84749 0.0
H492 H 0.18725 0.84054 0.78255 0.0
H493 H 0.20829 0.82637 0.8576 0.0
H494 H 0.16327 0.88761 0.76707 0.0
H495 H 0.08719 0.80768 0.72521 0.0
H496 H 0.08274 0.81984 0.78431 0.0
H497 H 0.11438 0.80323 0.76881 0.0
C498 C 0.14151 0.831 0.89134 0.0
C499 C 0.17003 0.8266 0.89548 0.0
C500 C 0.12965 0.83933 0.84883 0.0
C501 C 0.14591 0.84296 0.80918 0.0
C502 C 0.17427 0.83764 0.81262 0.0
H503 H 0.0557 0.89933 0.55726 0.0
H504 H 0.08505 0.87175 0.60867 0.0
C505 C 0.18624 0.82943 0.85541 0.0
C506 C 0.13358 0.85516 0.76622 0.0
H507 H 0.07655 0.85233 0.69404 0.0
C508 C 0.14463 0.87959 0.75043 0.0
C509 C 0.10957 0.84448 0.74378 0.0
C510 C 0.09801 0.8172 0.75613 0.0
C511 C 0.13127 0.89454 0.71508 0.0
C512 C 0.10578 0.88518 0.69605 0.0
C513 C 0.09576 0.85983 0.70941 0.0
C514 C 0.0885 0.90203 0.66435 0.0
C515 C 0.14445 0.92038 0.699 0.0
C516 C 0.08029 0.92801 0.67896 0.0
C517 C 0.06371 0.94389 0.6496 0.0
C518 C 0.05459 0.93391 0.60533 0.0
C519 C 0.06235 0.90763 0.59118 0.0
C520 C 0.07917 0.89185 0.62044 0.0
H521 H 0.16719 0.91966 0.70387 0.0
H522 H 0.13949 0.9243 0.66132 0.0
H523 H 0.1368 0.93761 0.72052 0.0
H524 H 0.08651 0.93596 0.71334 0.0
H525 H 0.0579 0.96392 0.6618 0.0
loop_
_geom_bond_atom_site_label_1
_geom_bond_atom_site_label_2
_geom_bond_distance
_geom_bond_site_symmetry_2
_ccdc_geom_bond_type
H0 C5 0.930 . S
H1 C8 0.930 . S
H2 C10 0.930 . S
H3 C4 1.016 . S
C4 H3 1.016 . S
C4 N11 1.286 1_554 S
C5 H0 0.930 . S
C5 C6 1.397 . S
C5 C7 1.361 . S
C6 C5 1.397 . S
C6 C10 1.390 1_556 S
C7 C5 1.361 . S
C7 C8 1.393 1_556 S
C7 N11 1.413 . S
C8 H1 0.930 . S
C8 C7 1.393 1_554 S
C8 C9 1.399 . S
C9 C8 1.399 . S
C9 C10 1.381 . S
C10 H2 0.930 . S
C10 C6 1.390 1_554 S
C10 C9 1.381 . S
N11 C4 1.286 1_556 S
N11 C7 1.413 . S
H12 C17 0.930 . S
H13 C20 0.930 . S
H14 C22 0.930 . S
H15 C16 1.016 . S
C16 H15 1.016 . S
C16 N23 1.286 . S
C17 H12 0.930 . S
C17 C18 1.397 . S
C17 C19 1.361 . S
C18 C17 1.397 . S
C18 C22 1.390 . S
C19 C17 1.361 . S
C19 C20 1.393 . S
C19 N23 1.413 . S
C20 H13 0.930 . S
C20 C19 1.393 . S
C20 C21 1.399 . S
C21 C20 1.399 . S
C21 C22 1.381 . S
C22 H14 0.930 . S
C22 C18 1.390 . S
C22 C21 1.381 . S
N23 C16 1.286 . S
N23 C19 1.413 . S
H24 C29 0.930 . S
H25 C32 0.930 . S
H26 C34 0.930 . S
H27 C28 1.016 . S
C28 H27 1.016 . S
C28 N35 1.286 1_554 S
C29 H24 0.930 . S
C29 C30 1.397 . S
C29 C31 1.361 . S
C30 C29 1.397 . S
C30 C34 1.390 1_556 S
C31 C29 1.361 . S
C31 C32 1.393 1_556 S
C31 N35 1.413 . S
C32 H25 0.930 . S
C32 C31 1.393 1_554 S
C32 C33 1.399 . S
C33 C32 1.399 . S
C33 C34 1.381 . S
C34 H26 0.930 . S
C34 C30 1.390 1_554 S
C34 C33 1.381 . S
N35 C28 1.286 1_556 S
N35 C31 1.413 . S
H36 C41 0.930 . S
H37 C44 0.930 . S
H38 C46 0.930 . S
H39 C40 1.016 . S
C40 H39 1.016 . S
C40 N47 1.286 . S
C41 H36 0.930 . S
C41 C42 1.397 . S
C41 C43 1.361 . S
C42 C41 1.397 . S
C42 C46 1.390 . S
C43 C41 1.361 . S
C43 C44 1.393 . S
C43 N47 1.413 . S
C44 H37 0.930 . S
C44 C43 1.393 . S
C44 C45 1.399 . S
C45 C44 1.399 . S
C45 C46 1.381 . S
C46 H38 0.930 . S
C46 C42 1.390 . S
C46 C45 1.381 . S
N47 C40 1.286 . S
N47 C43 1.413 . S
O48 Zn49 1.953 1_565 S
O48 C64 1.225 . S
Zn49 O48 1.953 1_545 S
Zn49 O50 1.907 1_655 S
Zn49 O56 1.919 . S
Zn49 O61 1.924 . S
O50 Zn49 1.907 1_455 S
O50 Zn51 1.946 . S
O50 Zn52 1.957 1_545 S
O50 Zn53 1.957 . S
Zn51 O50 1.946 . S
Zn51 O54 1.933 . S
Zn51 O57 1.941 1_455 S
Zn51 O58 1.965 1_545 S
Zn52 O50 1.957 1_565 S
Zn52 O59 1.938 . S
Zn52 O60 1.906 . S
Zn52 O70 1.953 1_455 S
Zn53 O50 1.957 . S
Zn53 O55 1.932 . S
Zn53 O62 1.964 1_545 S
Zn53 O63 1.910 1_455 S
O54 Zn51 1.933 . S
O54 C65 1.226 . S
O55 Zn53 1.932 . S
O55 C65 1.307 . S
O56 Zn49 1.919 . S
O56 C67 1.253 . S
O57 Zn51 1.941 1_655 S
O57 C67 1.283 . S
O58 Zn51 1.965 1_565 S
O58 C66 1.303 . S
O59 Zn52 1.938 . S
O59 C66 1.247 . S
O60 Zn52 1.906 . S
O60 C68 1.304 . S
O61 Zn49 1.924 . S
O61 C69 1.311 . S
O62 Zn53 1.964 1_565 S
O62 C68 1.289 . S
O63 Zn53 1.910 1_655 S
O63 C69 1.231 . S
C64 O48 1.225 . S
C64 O70 1.298 . S
C65 O54 1.226 . S
C65 O55 1.307 . S
C66 O58 1.303 . S
C66 O59 1.247 . S
C67 O56 1.253 . S
C67 O57 1.283 . S
C68 O60 1.304 . S
C68 O62 1.289 . S
C69 O61 1.311 . S
C69 O63 1.231 . S
O70 Zn52 1.953 1_655 S
O70 C64 1.298 . S
O71 Zn72 1.953 . S
O71 C87 1.225 . S
Zn72 O71 1.953 . S
Zn72 O73 1.949 . S
Zn72 O79 1.919 1_554 S
Zn72 O84 1.924 . S
O73 Zn72 1.949 . S
O73 Zn74 1.923 1_554 S
O73 Zn75 1.950 . S
O73 Zn76 1.945 . S
Zn74 O73 1.923 1_556 S
Zn74 O77 1.933 . S
Zn74 O80 1.941 . S
Zn74 O81 1.965 . S
Zn75 O73 1.950 . S
Zn75 O82 1.938 1_554 S
Zn75 O83 1.906 . S
Zn75 O93 1.953 . S
Zn76 O73 1.945 . S
Zn76 O78 1.932 . S
Zn76 O85 1.977 . S
Zn76 O86 1.910 . S
O77 Zn74 1.933 . S
O77 C88 1.226 1_556 S
O78 Zn76 1.932 . S
O78 C88 1.307 . S
O79 Zn72 1.919 1_556 S
O79 C90 1.253 . S
O80 Zn74 1.941 . S
O80 C90 1.283 . S
O81 Zn74 1.965 . S
O81 C89 1.303 . S
O82 Zn75 1.938 1_556 S
O82 C89 1.247 . S
O83 Zn75 1.906 . S
O83 C91 1.304 . S
O84 Zn72 1.924 . S
O84 C92 1.311 . S
O85 Zn76 1.977 . S
O85 C91 1.272 . S
O86 Zn76 1.910 . S
O86 C92 1.231 . S
C87 O71 1.225 . S
C87 O93 1.298 . S
C88 O77 1.226 1_554 S
C88 O78 1.307 . S
C89 O81 1.303 . S
C89 O82 1.247 . S
C90 O79 1.253 . S
C90 O80 1.283 . S
C91 O83 1.304 . S
C91 O85 1.272 . S
C92 O84 1.311 . S
C92 O86 1.231 . S
O93 Zn75 1.953 . S
O93 C87 1.298 . S
H94 C102 0.929 . S
H95 C104 0.930 . S
H96 C106 0.930 . S
H97 C109 0.929 . S
H98 C112 0.930 . S
H99 C114 0.960 . S
H100 C114 0.960 . S
H101 C114 0.960 . S
C102 H94 0.929 . S
C102 C103 1.377 . S
C102 C104 1.384 . S
C103 C102 1.377 . S
C103 C109 1.390 . S
C104 H95 0.930 . S
C104 C102 1.384 . S
C104 C105 1.372 . S
C105 C104 1.372 . S
C105 C106 1.400 . S
C105 C110 1.490 . S
C106 H96 0.930 . S
C106 C105 1.400 . S
C106 C109 1.386 . S
H107 C123 0.930 . S
H108 C124 0.931 . S
C109 H97 0.929 . S
C109 C103 1.390 . S
C109 C106 1.386 . S
C110 C105 1.490 . S
C110 C112 1.395 . S
C110 C113 1.403 . S
H111 C117 0.930 . S
C112 H98 0.930 . S
C112 C110 1.395 . S
C112 C115 1.403 . S
C113 C110 1.403 . S
C113 C114 1.524 . S
C113 C117 1.400 . S
C114 H99 0.960 . S
C114 H100 0.960 . S
C114 H101 0.960 . S
C114 C113 1.524 . S
C115 C112 1.403 . S
C115 C116 1.392 . S
C115 C119 1.495 . S
C116 C115 1.392 . S
C116 C117 1.385 . S
C116 C118 1.478 . S
C117 H111 0.930 . S
C117 C113 1.400 . S
C117 C116 1.385 . S
C118 C116 1.478 . S
C118 C120 1.381 . S
C118 C124 1.383 . S
C119 C115 1.495 . S
C119 H125 0.959 . S
C119 H126 0.961 . S
C119 H127 0.960 . S
C120 C118 1.381 . S
C120 C121 1.394 . S
C120 H128 0.930 . S
C121 C120 1.394 . S
C121 C122 1.383 . S
C121 H129 0.929 . S
C122 C121 1.383 . S
C122 C123 1.377 . S
C123 H107 0.930 . S
C123 C122 1.377 . S
C123 C124 1.379 . S
C124 H108 0.931 . S
C124 C118 1.383 . S
C124 C123 1.379 . S
H125 C119 0.959 . S
H126 C119 0.961 . S
H127 C119 0.960 . S
H128 C120 0.930 . S
H129 C121 0.929 . S
H130 C138 0.929 . S
H131 C140 0.930 . S
H132 C142 0.923 1_556 S
H133 C145 0.924 1_556 S
H134 C148 0.930 . S
H135 C150 0.960 . S
H136 C150 0.960 . S
H137 C150 0.960 . S
C138 H130 0.929 . S
C138 C139 1.377 . S
C138 C140 1.384 . S
C139 C138 1.377 . S
C139 C145 1.395 . S
C140 H131 0.930 . S
C140 C138 1.384 . S
C140 C141 1.372 . S
C141 C140 1.372 . S
C141 C142 1.407 . S
C141 C146 1.490 . S
C142 H132 0.923 1_554 S
C142 C141 1.407 . S
C142 C145 1.386 . S
H143 C159 0.930 . S
H144 C160 0.931 . S
C145 H133 0.924 1_554 S
C145 C139 1.395 . S
C145 C142 1.386 . S
C146 C141 1.490 . S
C146 C148 1.395 . S
C146 C149 1.403 1_554 S
H147 C153 0.930 . S
C148 H134 0.930 . S
C148 C146 1.395 . S
C148 C151 1.403 . S
C149 C146 1.403 1_556 S
C149 C150 1.524 . S
C149 C153 1.400 . S
C150 H135 0.960 . S
C150 H136 0.960 . S
C150 H137 0.960 . S
C150 C149 1.524 . S
C151 C148 1.403 . S
C151 C152 1.392 . S
C151 C155 1.495 . S
C152 C151 1.392 . S
C152 C153 1.385 1_554 S
C152 C154 1.478 . S
C153 H147 0.930 . S
C153 C149 1.400 . S
C153 C152 1.385 1_556 S
C154 C152 1.478 . S
C154 C156 1.381 . S
C154 C160 1.383 . S
C155 C151 1.495 . S
C155 H161 0.959 . S
C155 H162 0.961 . S
C155 H163 0.960 . S
C156 C154 1.381 . S
C156 C157 1.394 . S
C156 H164 0.930 . S
C157 C156 1.394 . S
C157 C158 1.383 . S
C157 H165 0.929 . S
C158 C157 1.383 . S
C158 C159 1.377 . S
C159 H143 0.930 . S
C159 C158 1.377 . S
C159 C160 1.379 . S
C160 H144 0.931 . S
C160 C154 1.383 . S
C160 C159 1.379 . S
H161 C155 0.959 . S
H162 C155 0.961 . S
H163 C155 0.960 . S
H164 C156 0.930 . S
H165 C157 0.929 . S
H166 C174 0.929 . S
H167 C176 0.930 . S
H168 C178 0.930 . S
H169 C181 0.929 . S
H170 C184 0.930 . S
H171 C186 0.960 . S
H172 C186 0.960 . S
H173 C186 0.960 . S
C174 H166 0.929 . S
C174 C175 1.377 . S
C174 C176 1.384 . S
C175 C174 1.377 . S
C175 C181 1.390 . S
C176 H167 0.930 . S
C176 C174 1.384 . S
C176 C177 1.372 . S
C177 C176 1.372 . S
C177 C178 1.400 . S
C177 C182 1.490 . S
C178 H168 0.930 . S
C178 C177 1.400 . S
C178 C181 1.386 . S
H179 C195 0.930 . S
H180 C196 0.931 . S
C181 H169 0.929 . S
C181 C175 1.390 . S
C181 C178 1.386 . S
C182 C177 1.490 . S
C182 C184 1.395 . S
C182 C185 1.403 . S
H183 C189 0.930 . S
C184 H170 0.930 . S
C184 C182 1.395 . S
C184 C187 1.403 . S
C185 C182 1.403 . S
C185 C186 1.524 . S
C185 C189 1.400 . S
C186 H171 0.960 . S
C186 H172 0.960 . S
C186 H173 0.960 . S
C186 C185 1.524 . S
C187 C184 1.403 . S
C187 C188 1.392 . S
C187 C191 1.495 . S
C188 C187 1.392 . S
C188 C189 1.385 . S
C188 C190 1.478 . S
C189 H183 0.930 . S
C189 C185 1.400 . S
C189 C188 1.385 . S
C190 C188 1.478 . S
C190 C192 1.381 . S
C190 C196 1.383 . S
C191 C187 1.495 . S
C191 H197 0.959 . S
C191 H198 0.961 . S
C191 H199 0.960 . S
C192 C190 1.381 . S
C192 C193 1.394 . S
C192 H200 0.930 . S
C193 C192 1.394 . S
C193 C194 1.383 . S
C193 H201 0.929 . S
C194 C193 1.383 . S
C194 C195 1.377 . S
C195 H179 0.930 . S
C195 C194 1.377 . S
C195 C196 1.379 . S
C196 H180 0.931 . S
C196 C190 1.383 . S
C196 C195 1.379 . S
H197 C191 0.959 . S
H198 C191 0.961 . S
H199 C191 0.960 . S
H200 C192 0.930 . S
H201 C193 0.929 . S
H202 C210 0.929 . S
H203 C212 0.930 . S
H204 C214 0.930 . S
H205 C217 0.929 . S
H206 C220 0.930 . S
H207 C222 0.960 . S
H208 C222 0.960 . S
H209 C222 0.960 1_556 S
C210 H202 0.929 . S
C210 C211 1.377 . S
C210 C212 1.384 . S
C211 C210 1.377 . S
C211 C217 1.390 1_554 S
C212 H203 0.930 . S
C212 C210 1.384 . S
C212 C213 1.372 . S
C213 C212 1.372 . S
C213 C214 1.400 1_554 S
C213 C218 1.490 . S
C214 H204 0.930 . S
C214 C213 1.400 1_556 S
C214 C217 1.386 . S
H215 C231 0.930 . S
H216 C232 0.931 . S
C217 H205 0.929 . S
C217 C211 1.390 1_556 S
C217 C214 1.386 . S
C218 C213 1.490 . S
C218 C220 1.395 . S
C218 C221 1.403 . S
H219 C225 0.930 . S
C220 H206 0.930 . S
C220 C218 1.395 . S
C220 C223 1.403 . S
C221 C218 1.403 . S
C221 C222 1.524 . S
C221 C225 1.400 . S
C222 H207 0.960 . S
C222 H208 0.960 . S
C222 H209 0.960 1_554 S
C222 C221 1.524 . S
C223 C220 1.403 . S
C223 C224 1.392 . S
C223 C227 1.495 . S
C224 C223 1.392 . S
C224 C225 1.385 . S
C224 C226 1.478 . S
C225 H219 0.930 . S
C225 C221 1.400 . S
C225 C224 1.385 . S
C226 C224 1.478 . S
C226 C228 1.381 . S
C226 C232 1.383 1_554 S
C227 C223 1.495 . S
C227 H233 0.959 . S
C227 H234 0.961 1_554 S
C227 H235 0.960 . S
C228 C226 1.381 . S
C228 C229 1.394 . S
C228 H236 0.930 . S
C229 C228 1.394 . S
C229 C230 1.383 . S
C229 H237 0.929 . S
C230 C229 1.383 . S
C230 C231 1.377 1_554 S
C231 H215 0.930 . S
C231 C230 1.377 1_556 S
C231 C232 1.379 . S
C232 H216 0.931 . S
C232 C226 1.383 1_556 S
C232 C231 1.379 . S
H233 C227 0.959 . S
H234 C227 0.961 1_556 S
H235 C227 0.960 . S
H236 C228 0.930 . S
H237 C229 0.929 . S
H238 C246 0.929 . S
H239 C248 0.930 . S
H240 C250 0.930 . S
H241 C253 0.929 . S
H242 C256 0.930 . S
H243 C258 0.960 . S
H244 C258 0.960 . S
H245 C258 0.960 . S
C246 H238 0.929 . S
C246 C247 1.377 . S
C246 C248 1.384 . S
C247 C246 1.377 . S
C247 C253 1.390 . S
C248 H239 0.930 . S
C248 C246 1.384 . S
C248 C249 1.372 . S
C249 C248 1.372 . S
C249 C250 1.400 . S
C249 C254 1.490 . S
C250 H240 0.930 . S
C250 C249 1.400 . S
C250 C253 1.386 . S
H251 C267 0.930 . S
H252 C268 0.931 . S
C253 H241 0.929 . S
C253 C247 1.390 . S
C253 C250 1.386 . S
C254 C249 1.490 . S
C254 C256 1.395 . S
C254 C257 1.403 . S
H255 C261 0.930 . S
C256 H242 0.930 . S
C256 C254 1.395 . S
C256 C259 1.403 . S
C257 C254 1.403 . S
C257 C258 1.524 . S
C257 C261 1.400 . S
C258 H243 0.960 . S
C258 H244 0.960 . S
C258 H245 0.960 . S
C258 C257 1.524 . S
C259 C256 1.403 . S
C259 C260 1.392 . S
C259 C263 1.495 . S
C260 C259 1.392 . S
C260 C261 1.385 . S
C260 C262 1.478 . S
C261 H255 0.930 . S
C261 C257 1.400 . S
C261 C260 1.385 . S
C262 C260 1.478 . S
C262 C264 1.381 . S
C262 C268 1.383 . S
C263 C259 1.495 . S
C263 H269 0.959 . S
C263 H270 0.961 . S
C263 H271 0.960 . S
C264 C262 1.381 . S
C264 C265 1.394 . S
C264 H272 0.930 . S
C265 C264 1.394 . S
C265 C266 1.383 . S
C265 H273 0.929 . S
C266 C265 1.383 . S
C266 C267 1.377 . S
C267 H251 0.930 . S
C267 C266 1.377 . S
C267 C268 1.379 . S
C268 H252 0.931 . S
C268 C262 1.383 . S
C268 C267 1.379 . S
H269 C263 0.959 . S
H270 C263 0.961 . S
H271 C263 0.960 . S
H272 C264 0.930 . S
H273 C265 0.929 . S
H274 C282 0.929 . S
H275 C284 0.930 . S
H276 C286 0.930 . S
H277 C289 0.929 . S
H278 C292 0.930 . S
H279 C294 0.960 . S
H280 C294 0.960 . S
H281 C294 0.960 . S
C282 H274 0.929 . S
C282 C283 1.377 . S
C282 C284 1.384 . S
C283 C282 1.377 . S
C283 C289 1.390 . S
C284 H275 0.930 . S
C284 C282 1.384 . S
C284 C285 1.372 . S
C285 C284 1.372 . S
C285 C286 1.400 . S
C285 C290 1.490 . S
C286 H276 0.930 . S
C286 C285 1.400 . S
C286 C289 1.386 . S
H287 C303 0.930 . S
H288 C304 0.931 . S
C289 H277 0.929 . S
C289 C283 1.390 . S
C289 C286 1.386 . S
C290 C285 1.490 . S
C290 C292 1.395 . S
C290 C293 1.403 . S
H291 C297 0.930 . S
C292 H278 0.930 . S
C292 C290 1.395 . S
C292 C295 1.403 . S
C293 C290 1.403 . S
C293 C294 1.524 . S
C293 C297 1.400 . S
C294 H279 0.960 . S
C294 H280 0.960 . S
C294 H281 0.960 . S
C294 C293 1.524 . S
C295 C292 1.403 . S
C295 C296 1.392 . S
C295 C299 1.495 . S
C296 C295 1.392 . S
C296 C297 1.385 . S
C296 C298 1.478 . S
C297 H291 0.930 . S
C297 C293 1.400 . S
C297 C296 1.385 . S
C298 C296 1.478 . S
C298 C300 1.381 . S
C298 C304 1.383 . S
C299 C295 1.495 . S
C299 H305 0.959 . S
C299 H306 0.961 . S
C299 H307 0.960 . S
C300 C298 1.381 . S
C300 C301 1.394 . S
C300 H308 0.930 . S
C301 C300 1.394 . S
C301 C302 1.383 . S
C301 H309 0.929 . S
C302 C301 1.383 . S
C302 C303 1.377 . S
C303 H287 0.930 . S
C303 C302 1.377 . S
C303 C304 1.379 . S
C304 H288 0.931 . S
C304 C298 1.383 . S
C304 C303 1.379 . S
H305 C299 0.959 . S
H306 C299 0.961 . S
H307 C299 0.960 . S
H308 C300 0.930 . S
H309 C301 0.929 . S
H310 C318 0.929 . S
H311 C320 0.930 . S
H312 C322 0.930 . S
H313 C325 0.929 . S
H314 C328 0.930 . S
H315 C330 0.960 . S
H316 C330 0.960 . S
H317 C330 0.960 . S
C318 H310 0.929 . S
C318 C319 1.377 . S
C318 C320 1.384 . S
C319 C318 1.377 . S
C319 C325 1.390 . S
C320 H311 0.930 . S
C320 C318 1.384 . S
C320 C321 1.372 . S
C321 C320 1.372 . S
C321 C322 1.400 . S
C321 C326 1.490 . S
C322 H312 0.930 . S
C322 C321 1.400 . S
C322 C325 1.386 . S
H323 C339 0.930 . S
H324 C340 0.931 . S
C325 H313 0.929 . S
C325 C319 1.390 . S
C325 C322 1.386 . S
C326 C321 1.490 . S
C326 C328 1.395 . S
C326 C329 1.403 . S
H327 C333 0.930 . S
C328 H314 0.930 . S
C328 C326 1.395 . S
C328 C331 1.403 . S
C329 C326 1.403 . S
C329 C330 1.524 . S
C329 C333 1.400 . S
C330 H315 0.960 . S
C330 H316 0.960 . S
C330 H317 0.960 . S
C330 C329 1.524 . S
C331 C328 1.403 . S
C331 C332 1.392 . S
C331 C335 1.495 . S
C332 C331 1.392 . S
C332 C333 1.385 . S
C332 C334 1.478 . S
C333 H327 0.930 . S
C333 C329 1.400 . S
C333 C332 1.385 . S
C334 C332 1.478 . S
C334 C336 1.381 . S
C334 C340 1.383 . S
C335 C331 1.495 . S
C335 H341 0.959 . S
C335 H342 0.961 . S
C335 H343 0.960 . S
C336 C334 1.381 . S
C336 C337 1.394 . S
C336 H344 0.930 . S
C337 C336 1.394 . S
C337 C338 1.383 . S
C337 H345 0.929 . S
C338 C337 1.383 . S
C338 C339 1.377 . S
C339 H323 0.930 . S
C339 C338 1.377 . S
C339 C340 1.379 . S
C340 H324 0.931 . S
C340 C334 1.383 . S
C340 C339 1.379 . S
H341 C335 0.959 . S
H342 C335 0.961 . S
H343 C335 0.960 . S
H344 C336 0.930 . S
H345 C337 0.929 . S
H346 C354 0.929 . S
H347 C356 0.930 . S
H348 C358 0.930 . S
H349 C361 0.929 . S
H350 C364 0.930 . S
H351 C366 0.960 . S
H352 C366 0.960 . S
H353 C366 0.960 . S
C354 H346 0.929 . S
C354 C355 1.377 . S
C354 C356 1.384 . S
C355 C354 1.377 . S
C355 C361 1.390 . S
C356 H347 0.930 . S
C356 C354 1.384 . S
C356 C357 1.372 . S
C357 C356 1.372 . S
C357 C358 1.400 . S
C357 C362 1.490 . S
C358 H348 0.930 . S
C358 C357 1.400 . S
C358 C361 1.386 . S
H359 C375 0.930 . S
H360 C376 0.931 . S
C361 H349 0.929 . S
C361 C355 1.390 . S
C361 C358 1.386 . S
C362 C357 1.490 . S
C362 C364 1.395 . S
C362 C365 1.403 . S
H363 C369 0.930 . S
C364 H350 0.930 . S
C364 C362 1.395 . S
C364 C367 1.403 . S
C365 C362 1.403 . S
C365 C366 1.524 . S
C365 C369 1.400 . S
C366 H351 0.960 . S
C366 H352 0.960 . S
C366 H353 0.960 . S
C366 C365 1.524 . S
C367 C364 1.403 . S
C367 C368 1.392 . S
C367 C371 1.495 . S
C368 C367 1.392 . S
C368 C369 1.385 . S
C368 C370 1.478 . S
C369 H363 0.930 . S
C369 C365 1.400 . S
C369 C368 1.385 . S
C370 C368 1.478 . S
C370 C372 1.381 . S
C370 C376 1.383 . S
C371 C367 1.495 . S
C371 H377 0.959 . S
C371 H378 0.961 . S
C371 H379 0.960 . S
C372 C370 1.381 . S
C372 C373 1.394 . S
C372 H380 0.930 . S
C373 C372 1.394 . S
C373 C374 1.383 . S
C373 H381 0.929 . S
C374 C373 1.383 . S
C374 C375 1.377 . S
C375 H359 0.930 . S
C375 C374 1.377 . S
C375 C376 1.379 . S
C376 H360 0.931 . S
C376 C370 1.383 . S
C376 C375 1.379 . S
H377 C371 0.959 . S
H378 C371 0.961 . S
H379 C371 0.960 . S
H380 C372 0.930 . S
H381 C373 0.929 . S
H382 C390 0.929 . S
H383 C392 0.930 . S
H384 C394 0.930 . S
H385 C397 0.929 . S
H386 C400 0.930 . S
H387 C402 0.960 . S
H388 C402 0.960 . S
H389 C402 0.960 . S
C390 H382 0.929 . S
C390 C391 1.377 . S
C390 C392 1.384 . S
C391 C390 1.377 . S
C391 C397 1.390 . S
C392 H383 0.930 . S
C392 C390 1.384 . S
C392 C393 1.372 . S
C393 C392 1.372 . S
C393 C394 1.400 . S
C393 C398 1.490 . S
C394 H384 0.930 . S
C394 C393 1.400 . S
C394 C397 1.386 . S
H395 C411 0.930 . S
H396 C412 0.931 . S
C397 H385 0.929 . S
C397 C391 1.390 . S
C397 C394 1.386 . S
C398 C393 1.490 . S
C398 C400 1.395 . S
C398 C401 1.403 . S
H399 C405 0.930 . S
C400 H386 0.930 . S
C400 C398 1.395 . S
C400 C403 1.403 . S
C401 C398 1.403 . S
C401 C402 1.524 . S
C401 C405 1.400 . S
C402 H387 0.960 . S
C402 H388 0.960 . S
C402 H389 0.960 . S
C402 C401 1.524 . S
C403 C400 1.403 . S
C403 C404 1.392 . S
C403 C407 1.495 . S
C404 C403 1.392 . S
C404 C405 1.385 . S
C404 C406 1.478 . S
C405 H399 0.930 . S
C405 C401 1.400 . S
C405 C404 1.385 . S
C406 C404 1.478 . S
C406 C408 1.381 . S
C406 C412 1.383 . S
C407 C403 1.495 . S
C407 H413 0.959 . S
C407 H414 0.961 . S
C407 H415 0.960 . S
C408 C406 1.381 . S
C408 C409 1.394 . S
C408 H416 0.930 . S
C409 C408 1.394 . S
C409 C410 1.383 . S
C409 H417 0.929 . S
C410 C409 1.383 . S
C410 C411 1.377 . S
C411 H395 0.930 . S
C411 C410 1.377 . S
C411 C412 1.379 . S
C412 H396 0.931 . S
C412 C406 1.383 . S
C412 C411 1.379 . S
H413 C407 0.959 . S
H414 C407 0.961 . S
H415 C407 0.960 . S
H416 C408 0.930 . S
H417 C409 0.929 . S
H418 C426 0.929 . S
H419 C428 0.930 . S
H420 C430 0.930 . S
H421 C433 0.929 . S
H422 C436 0.930 . S
H423 C438 0.960 . S
H424 C438 0.960 . S
H425 C438 0.960 . S
C426 H418 0.929 . S
C426 C427 1.377 . S
C426 C428 1.384 . S
C427 C426 1.377 . S
C427 C433 1.390 . S
C428 H419 0.930 . S
C428 C426 1.384 . S
C428 C429 1.372 . S
C429 C428 1.372 . S
C429 C430 1.400 . S
C429 C434 1.490 . S
C430 H420 0.930 . S
C430 C429 1.400 . S
C430 C433 1.386 . S
H431 C447 0.930 . S
H432 C448 0.931 . S
C433 H421 0.929 . S
C433 C427 1.390 . S
C433 C430 1.386 . S
C434 C429 1.490 . S
C434 C436 1.395 . S
C434 C437 1.403 . S
H435 C441 0.930 . S
C436 H422 0.930 . S
C436 C434 1.395 . S
C436 C439 1.403 . S
C437 C434 1.403 . S
C437 C438 1.524 . S
C437 C441 1.400 . S
C438 H423 0.960 . S
C438 H424 0.960 . S
C438 H425 0.960 . S
C438 C437 1.524 . S
C439 C436 1.403 . S
C439 C440 1.392 . S
C439 C443 1.495 . S
C440 C439 1.392 . S
C440 C441 1.385 . S
C440 C442 1.478 . S
C441 H435 0.930 . S
C441 C437 1.400 . S
C441 C440 1.385 . S
C442 C440 1.478 . S
C442 C444 1.381 . S
C442 C448 1.383 . S
C443 C439 1.495 . S
C443 H449 0.959 . S
C443 H450 0.961 . S
C443 H451 0.960 . S
C444 C442 1.381 . S
C444 C445 1.394 . S
C444 H452 0.930 . S
C445 C444 1.394 . S
C445 C446 1.383 . S
C445 H453 0.929 . S
C446 C445 1.383 . S
C446 C447 1.377 . S
C447 H431 0.930 . S
C447 C446 1.377 . S
C447 C448 1.379 . S
C448 H432 0.931 . S
C448 C442 1.383 . S
C448 C447 1.379 . S
H449 C443 0.959 . S
H450 C443 0.961 . S
H451 C443 0.960 . S
H452 C444 0.930 . S
H453 C445 0.929 . S
H454 C462 0.929 . S
H455 C464 0.930 . S
H456 C466 0.930 . S
H457 C469 0.929 . S
H458 C472 0.930 . S
H459 C474 0.960 . S
H460 C474 0.960 . S
H461 C474 0.960 . S
C462 H454 0.929 . S
C462 C463 1.377 . S
C462 C464 1.384 . S
C463 C462 1.377 . S
C463 C469 1.390 . S
C464 H455 0.930 . S
C464 C462 1.384 . S
C464 C465 1.372 . S
C465 C464 1.372 . S
C465 C466 1.400 . S
C465 C470 1.490 . S
C466 H456 0.930 . S
C466 C465 1.400 . S
C466 C469 1.386 . S
H467 C483 0.930 . S
H468 C484 0.931 . S
C469 H457 0.929 . S
C469 C463 1.390 . S
C469 C466 1.386 . S
C470 C465 1.490 . S
C470 C472 1.395 . S
C470 C473 1.403 . S
H471 C477 0.930 . S
C472 H458 0.930 . S
C472 C470 1.395 . S
C472 C475 1.403 . S
C473 C470 1.403 . S
C473 C474 1.524 . S
C473 C477 1.400 . S
C474 H459 0.960 . S
C474 H460 0.960 . S
C474 H461 0.960 . S
C474 C473 1.524 . S
C475 C472 1.403 . S
C475 C476 1.392 . S
C475 C479 1.495 . S
C476 C475 1.392 . S
C476 C477 1.385 . S
C476 C478 1.478 . S
C477 H471 0.930 . S
C477 C473 1.400 . S
C477 C476 1.385 . S
C478 C476 1.478 . S
C478 C480 1.381 . S
C478 C484 1.383 . S
C479 C475 1.495 . S
C479 H485 0.959 . S
C479 H486 0.961 . S
C479 H487 0.960 . S
C480 C478 1.381 . S
C480 C481 1.394 . S
C480 H488 0.930 . S
C481 C480 1.394 . S
C481 C482 1.383 . S
C481 H489 0.929 . S
C482 C481 1.383 . S
C482 C483 1.377 . S
C483 H467 0.930 . S
C483 C482 1.377 . S
C483 C484 1.379 . S
C484 H468 0.931 . S
C484 C478 1.383 . S
C484 C483 1.379 . S
H485 C479 0.959 . S
H486 C479 0.961 . S
H487 C479 0.960 . S
H488 C480 0.930 . S
H489 C481 0.929 . S
H490 C498 0.929 . S
H491 C500 0.930 . S
H492 C502 0.930 . S
H493 C505 0.929 . S
H494 C508 0.930 . S
H495 C510 0.960 . S
H496 C510 0.960 . S
H497 C510 0.960 . S
C498 H490 0.929 . S
C498 C499 1.377 . S
C498 C500 1.384 . S
C499 C498 1.377 . S
C499 C505 1.390 . S
C500 H491 0.930 . S
C500 C498 1.384 . S
C500 C501 1.372 . S
C501 C500 1.372 . S
C501 C502 1.400 . S
C501 C506 1.490 . S
C502 H492 0.930 . S
C502 C501 1.400 . S
C502 C505 1.386 . S
H503 C519 0.930 . S
H504 C520 0.931 . S
C505 H493 0.929 . S
C505 C499 1.390 . S
C505 C502 1.386 . S
C506 C501 1.490 . S
C506 C508 1.395 . S
C506 C509 1.403 . S
H507 C513 0.930 . S
C508 H494 0.930 . S
C508 C506 1.395 . S
C508 C511 1.403 . S
C509 C506 1.403 . S
C509 C510 1.524 . S
C509 C513 1.400 . S
C510 H495 0.960 . S
C510 H496 0.960 . S
C510 H497 0.960 . S
C510 C509 1.524 . S
C511 C508 1.403 . S
C511 C512 1.392 . S
C511 C515 1.495 . S
C512 C511 1.392 . S
C512 C513 1.385 . S
C512 C514 1.478 . S
C513 H507 0.930 . S
C513 C509 1.400 . S
C513 C512 1.385 . S
C514 C512 1.478 . S
C514 C516 1.381 . S
C514 C520 1.383 . S
C515 C511 1.495 . S
C515 H521 0.959 . S
C515 H522 0.961 . S
C515 H523 0.960 . S
C516 C514 1.381 . S
C516 C517 1.394 . S
C516 H524 0.930 . S
C517 C516 1.394 . S
C517 C518 1.383 . S
C517 H525 0.929 . S
C518 C517 1.383 . S
C518 C519 1.377 . S
C519 H503 0.930 . S
C519 C518 1.377 . S
C519 C520 1.379 . S
C520 H504 0.931 . S
C520 C514 1.383 . S
C520 C519 1.379 . S
H521 C515 0.959 . S
H522 C515 0.961 . S
H523 C515 0.960 . S
H524 C516 0.930 . S
H525 C517 0.929 . S
C122 C65 1.484 . S
C103 C40 1.477 . S
C139 C4 1.482 . S
C158 C88 1.483 . S
C175 C16 1.518 . S
C194 C64 1.522 . S
C211 C28 1.518 . S
C230 C87 1.520 . S
C266 C68 1.467 . S
C247 C9 1.476 . S
C302 C90 1.503 . S
C283 C18 1.537 . S
C319 C33 1.497 . S
C338 C69 1.473 . S
C355 C45 1.519 . S
C374 C89 1.501 . S
C410 C92 1.387 . S
C391 C21 1.417 . S
C446 C67 1.443 . S
C427 C30 1.468 . S
C482 C91 1.360 . S
C463 C42 1.416 . S
C499 C6 1.446 . S
C518 C66 1.392 . S
