# Generated by pormake.
# Topology nom, (4,4)-cn, num edge types: 1
# Building blocks:
#     Node 0, Type 0, BuildingBlock: NAWXER_clean_linker_0, # of connection points: 4
#     Node 1, Type 0, BuildingBlock: NAWXER_clean_linker_0, # of connection points: 4
#     Node 2, Type 0, BuildingBlock: NAWXER_clean_linker_0, # of connection points: 4
#     Node 3, Type 0, BuildingBlock: NAWXER_clean_linker_0, # of connection points: 4
#     Node 4, Type 0, BuildingBlock: NAWXER_clean_linker_0, # of connection points: 4
#     Node 5, Type 0, BuildingBlock: NAWXER_clean_linker_0, # of connection points: 4
#     Node 6, Type 1, BuildingBlock: KUFVIS_clean_sbu_0, # of connection points: 4
#     Node 7, Type 1, BuildingBlock: KUFVIS_clean_sbu_0, # of connection points: 4
#     Node 8, Type 1, BuildingBlock: KUFVIS_clean_sbu_0, # of connection points: 4
#     Node 9, Type 1, BuildingBlock: KUFVIS_clean_sbu_0, # of connection points: 4
#     Node 10, Type 1, BuildingBlock: KUFVIS_clean_sbu_0, # of connection points: 4
#     Node 11, Type 1, BuildingBlock: KUFVIS_clean_sbu_0, # of connection points: 4
#     Edge 12, Type (0, 1), None
#     Edge 13, Type (0, 1), None
#     Edge 14, Type (0, 1), None
#     Edge 15, Type (0, 1), None
#     Edge 16, Type (0, 1), None
#     Edge 17, Type (0, 1), None
#     Edge 18, Type (0, 1), None
#     Edge 19, Type (0, 1), None
#     Edge 20, Type (0, 1), None
#     Edge 21, Type (0, 1), None
#     Edge 22, Type (0, 1), None
#     Edge 23, Type (0, 1), None
#     Edge 24, Type (0, 1), None
#     Edge 25, Type (0, 1), None
#     Edge 26, Type (0, 1), None
#     Edge 27, Type (0, 1), None
#     Edge 28, Type (0, 1), None
#     Edge 29, Type (0, 1), None
#     Edge 30, Type (0, 1), None
#     Edge 31, Type (0, 1), None
#     Edge 32, Type (0, 1), None
#     Edge 33, Type (0, 1), None
#     Edge 34, Type (0, 1), None
#     Edge 35, Type (0, 1), None
# Relax obj value: 0.006
# Max RMSD: 0.112
# Mean RMSD: 0.070
data_MOF--net-nom--node1-KUFVIS_clean_sbu_0--node2-NAWXER_clean_linker_0--edge1-none
_symmetry_space_group_name_H-M    P1
_symmetry_Int_Tables_number       1
_symmetry_cell_setting            triclinic
loop_
_symmetry_equiv_pos_as_xyz
'x, y, z'
_cell_length_a     27.9044
_cell_length_b     28.231462
_cell_length_c     30.70138
_cell_angle_alpha  90.786501
_cell_angle_beta   90.997204
_cell_angle_gamma 120.0361
loop_
_atom_site_label
_atom_site_type_symbol
_atom_site_fract_x
_atom_site_fract_y
_atom_site_fract_z
_atom_type_partial_charge
C0 C 0.82067 0.5096 0.34656 0.0
C1 C 0.7918 0.4661 0.37483 0.0
C2 C 0.87235 0.52158 0.33149 0.0
C3 C 0.89656 0.4909 0.34506 0.0
C4 C 0.81481 0.43375 0.38689 0.0
C5 C 0.86739 0.44673 0.3727 0.0
C6 C 0.9547 0.50937 0.33463 0.0
C7 C 0.85628 0.43144 0.21144 0.0
C8 C 0.87445 0.46268 0.17388 0.0
C9 C 0.88829 0.44919 0.24995 0.0
C10 C 0.9379 0.4998 0.2521 0.0
C11 C 0.92312 0.51369 0.17602 0.0
C12 C 0.95487 0.53189 0.21471 0.0
C13 C 0.9744 0.51812 0.29177 0.0
C14 C 0.20097 0.62147 0.25783 0.0
C15 C 0.23662 0.66839 0.28287 0.0
C16 C 0.14682 0.58668 0.27109 0.0
C17 C 0.12695 0.59895 0.309 0.0
C18 C 0.21716 0.6808 0.3207 0.0
C19 C 0.16241 0.64736 0.33292 0.0
C20 C 0.06773 0.56403 0.3201 0.0
C21 C 0.16443 0.57923 0.44346 0.0
C22 C 0.14773 0.59532 0.48102 0.0
C23 C 0.13157 0.56362 0.40533 0.0
C24 C 0.08334 0.56752 0.40321 0.0
C25 C 0.09962 0.59909 0.47917 0.0
C26 C 0.06755 0.58505 0.44068 0.0
C27 C 0.04771 0.5519 0.3631 0.0
H28 H 0.8037 0.53511 0.33685 0.0
H29 H 0.89452 0.55638 0.3108 0.0
H30 H 0.79348 0.40035 0.40899 0.0
H31 H 0.88578 0.42302 0.38392 0.0
H32 H 0.81768 0.39278 0.21079 0.0
H33 H 0.87482 0.42239 0.27744 0.0
H34 H 0.93703 0.53896 0.14758 0.0
H35 H 0.9929 0.57106 0.21531 0.0
H36 H 0.21511 0.61155 0.22827 0.0
H37 H 0.12017 0.55041 0.25135 0.0
H38 H 0.24373 0.71766 0.33987 0.0
H39 H 0.14776 0.6601 0.36063 0.0
H40 H 0.20275 0.57828 0.44371 0.0
H41 H 0.14404 0.5486 0.37764 0.0
H42 H 0.08671 0.61261 0.50754 0.0
H43 H 0.03048 0.58833 0.44013 0.0
N44 N 0.99203 0.52576 0.36838 0.0
N45 N 0.03002 0.5455 0.28641 0.0
C46 C 0.35078 0.81403 0.50033 0.0
C47 C 0.3641 0.79559 0.53839 0.0
C48 C 0.38325 0.8684 0.48802 0.0
C49 C 0.43169 0.90464 0.51209 0.0
C50 C 0.41101 0.83194 0.56353 0.0
C51 C 0.4449 0.88575 0.5502 0.0
C52 C 0.4658 0.96343 0.50086 0.0
C53 C 0.45398 0.86958 0.37782 0.0
C54 C 0.43699 0.88521 0.34005 0.0
C55 C 0.46864 0.90197 0.41589 0.0
C56 C 0.46274 0.94856 0.4178 0.0
C57 C 0.43158 0.9319 0.3416 0.0
C58 C 0.44462 0.96346 0.38006 0.0
C59 C 0.4773 0.98352 0.45793 0.0
C60 C 0.59703 0.20924 0.42635 0.0
C61 C 0.58578 0.24426 0.45136 0.0
C62 C 0.57708 0.15507 0.43871 0.0
C63 C 0.54429 0.13449 0.47569 0.0
C64 C 0.55311 0.22405 0.48818 0.0
C65 C 0.53119 0.16933 0.49946 0.0
C66 C 0.52067 0.0757 0.48658 0.0
C67 C 0.60297 0.16951 0.61117 0.0
C68 C 0.57019 0.15253 0.64816 0.0
C69 C 0.5854 0.13772 0.57276 0.0
C70 C 0.53291 0.09036 0.56976 0.0
C71 C 0.51801 0.10518 0.64547 0.0
C72 C 0.49964 0.07419 0.60666 0.0
C73 C 0.51292 0.0556 0.52949 0.0
H74 H 0.31389 0.7869 0.48103 0.0
H75 H 0.36972 0.88209 0.46009 0.0
H76 H 0.42166 0.81863 0.59325 0.0
H77 H 0.48122 0.91287 0.57006 0.0
H78 H 0.45616 0.83235 0.37783 0.0
H79 H 0.48439 0.89035 0.44376 0.0
H80 H 0.41736 0.94399 0.31306 0.0
H81 H 0.44002 0.99936 0.38039 0.0
H82 H 0.62155 0.22387 0.39745 0.0
H83 H 0.58698 0.12908 0.4191 0.0
H84 H 0.54266 0.25005 0.50723 0.0
H85 H 0.50341 0.1543 0.52646 0.0
H86 H 0.64241 0.20729 0.61206 0.0
H87 H 0.61291 0.15032 0.54553 0.0
H88 H 0.49158 0.09209 0.6734 0.0
H89 H 0.45912 0.03765 0.60544 0.0
N90 N 0.48516 1.00054 0.53454 0.0
N91 N 0.5034 0.03864 0.45283 0.0
C92 C 0.60821 0.46466 0.54497 0.0
C93 C 0.57441 0.44825 0.50703 0.0
C94 C 0.59201 0.4806 0.58268 0.0
C95 C 0.53992 0.47692 0.58407 0.0
C96 C 0.52282 0.44531 0.50801 0.0
C97 C 0.5059 0.45986 0.54606 0.0
C98 C 0.52017 0.49086 0.62435 0.0
C99 C 0.55734 0.35855 0.66506 0.0
C100 C 0.58842 0.36887 0.704 0.0
C101 C 0.53768 0.39331 0.65257 0.0
C102 C 0.5516 0.44089 0.67748 0.0
C103 C 0.60102 0.41519 0.72971 0.0
C104 C 0.58338 0.45126 0.71628 0.0
C105 C 0.52771 0.47626 0.66701 0.0
C106 C 0.41761 0.50469 0.80689 0.0
C107 C 0.42368 0.55665 0.81486 0.0
C108 C 0.43524 0.49291 0.76811 0.0
C109 C 0.45872 0.5324 0.73599 0.0
C110 C 0.44751 0.59644 0.78274 0.0
C111 C 0.46481 0.58438 0.74359 0.0
C112 C 0.47969 0.51934 0.69622 0.0
C113 C 0.40291 0.60742 0.6052 0.0
C114 C 0.34712 0.57255 0.61504 0.0
C115 C 0.44341 0.595 0.61901 0.0
C116 C 0.42884 0.54874 0.64408 0.0
C117 C 0.33291 0.52685 0.64074 0.0
C118 C 0.37346 0.51531 0.65544 0.0
C119 C 0.46935 0.53096 0.65376 0.0
H120 H 0.64726 0.46514 0.54547 0.0
H121 H 0.62003 0.49516 0.61082 0.0
H122 H 0.49559 0.43168 0.47937 0.0
H123 H 0.46562 0.45679 0.54597 0.0
H124 H 0.54622 0.32225 0.64524 0.0
H125 H 0.51054 0.38207 0.62402 0.0
H126 H 0.62467 0.42359 0.76003 0.0
H127 H 0.59375 0.48689 0.73671 0.0
H128 H 0.39965 0.473 0.83081 0.0
H129 H 0.43035 0.45263 0.76318 0.0
H130 H 0.45277 0.63683 0.78778 0.0
H131 H 0.48394 0.616 0.71973 0.0
H132 H 0.41473 0.64261 0.58507 0.0
H133 H 0.48584 0.6208 0.60942 0.0
H134 H 0.29017 0.49937 0.64876 0.0
H135 H 0.36115 0.47881 0.67403 0.0
N136 N 0.49056 0.51698 0.61963 0.0
N137 N 0.50793 0.49209 0.70097 0.0
C138 C 0.82814 0.33939 0.80885 0.0
C139 C 0.7931 0.35128 0.78378 0.0
C140 C 0.87997 0.38135 0.82351 0.0
C141 C 0.898 0.43574 0.81268 0.0
C142 C 0.81011 0.40605 0.77467 0.0
C143 C 0.86272 0.44796 0.78839 0.0
C144 C 0.95634 0.47764 0.82119 0.0
C145 C 0.87067 0.45713 0.94853 0.0
C146 C 0.88808 0.43416 0.98126 0.0
C147 C 0.90016 0.47542 0.91002 0.0
C148 C 0.94775 0.47133 0.90363 0.0
C149 C 0.9359 0.43047 0.9747 0.0
C150 C 0.96551 0.44917 0.93654 0.0
C151 C 0.98042 0.49116 0.86357 0.0
C152 C 0.21531 0.61066 0.88124 0.0
C153 C 0.23274 0.57269 0.87261 0.0
C154 C 0.16307 0.60005 0.86647 0.0
C155 C 0.12872 0.55247 0.84157 0.0
C156 C 0.19875 0.52575 0.84682 0.0
C157 C 0.14734 0.51599 0.83107 0.0
C158 C 0.07024 0.53549 0.83307 0.0
C159 C 0.09176 0.50878 0.67878 0.0
C160 C 0.13955 0.55994 0.67301 0.0
C161 C 0.06185 0.49793 0.71686 0.0
C162 C 0.07914 0.53755 0.75058 0.0
C163 C 0.1565 0.60011 0.70652 0.0
C164 C 0.12662 0.58896 0.745 0.0
C165 C 0.04618 0.52444 0.79069 0.0
H166 H 0.81586 0.29751 0.81639 0.0
H167 H 0.90711 0.37105 0.84153 0.0
H168 H 0.78392 0.41614 0.75511 0.0
H169 H 0.87642 0.48965 0.77918 0.0
H170 H 0.83408 0.46065 0.95249 0.0
H171 H 0.88616 0.49334 0.88552 0.0
H172 H 0.95082 0.41331 0.99917 0.0
H173 H 1.00214 0.44567 0.93254 0.0
H174 H 0.2408 0.64702 0.90126 0.0
H175 H 0.1488 0.62806 0.8755 0.0
H176 H 0.2115 0.49607 0.83958 0.0
H177 H 0.12083 0.47846 0.81264 0.0
H178 H 0.07709 0.47682 0.65373 0.0
H179 H 0.02538 0.45802 0.72017 0.0
H180 H 0.19298 0.63996 0.70317 0.0
H181 H 0.14028 0.62072 0.77012 0.0
N182 N 0.99 0.49532 0.78645 0.0
N183 N 0.03656 0.51909 0.86778 0.0
C184 C 0.46874 0.81764 0.98981 0.0
C185 C 0.43515 0.79502 0.95221 0.0
C186 C 0.48802 0.87209 1.00216 0.0
C187 C 0.47132 0.90401 0.97859 0.0
C188 C 0.41954 0.82682 0.92774 0.0
C189 C 0.43693 0.88071 0.94115 0.0
C190 C 0.49543 0.9634 0.98854 0.0
C191 C 0.4292 0.88023 0.11689 0.0
C192 C 0.47151 0.8943 0.14872 0.0
C193 C 0.43974 0.9105 0.07875 0.0
C194 C 0.49282 0.95522 0.07174 0.0
C195 C 0.52407 0.93991 0.14179 0.0
C196 C 0.53441 0.97002 0.10402 0.0
C197 C 0.5067 0.98713 0.03119 0.0
C198 C 0.62515 0.22176 0.04497 0.0
C199 C 0.68102 0.23913 0.03735 0.0
C200 C 0.58366 0.16906 0.03186 0.0
C201 C 0.59743 0.13397 0.00968 0.0
C202 C 0.69448 0.20414 0.01449 0.0
C203 C 0.65293 0.15215 1.00039 0.0
C204 C 0.55554 0.0762 1.00097 0.0
C205 C 0.60369 0.09774 0.84784 0.0
C206 C 0.59956 0.14482 0.84114 0.0
C207 C 0.58488 0.06832 0.88594 0.0
C208 C 0.56217 0.08551 0.9187 0.0
C209 C 0.57604 0.16169 0.87372 0.0
C210 C 0.55762 0.13235 0.91222 0.0
C211 C 0.54201 0.05284 0.95859 0.0
H212 H 0.48219 0.7939 1.00851 0.0
H213 H 0.51756 0.88939 0.0292 0.0
H214 H 0.39389 0.80999 0.89842 0.0
H215 H 0.42447 0.90464 0.92166 0.0
H216 H 0.38816 0.84562 0.12123 0.0
H217 H 0.40667 0.89876 0.05464 0.0
H218 H 0.55768 0.95254 0.16555 0.0
H219 H 0.57562 1.00439 0.09961 0.0
H220 H 0.61384 0.24789 0.06286 0.0
H221 H 0.54105 0.1553 0.03976 0.0
H222 H 0.73724 0.21665 1.00817 0.0
H223 H 0.66434 0.12522 0.98386 0.0
H224 H 0.62124 0.0832 0.82348 0.0
H225 H 0.58867 0.03226 0.89 0.0
H226 H 0.57212 0.19766 0.86963 0.0
H227 H 0.53916 0.14584 0.93659 0.0
N228 N 0.51288 0.99741 0.95413 0.0
N229 N 0.53701 0.04265 0.03551 0.0
C230 C 0.50901 0.70094 0.18398 0.0
C231 C 0.46198 0.68794 0.20828 0.0
C232 C 0.51944 0.65985 0.16977 0.0
C233 C 0.48366 0.60515 0.18034 0.0
C234 C 0.42517 0.6329 0.21769 0.0
C235 C 0.4365 0.59187 0.20446 0.0
C236 C 0.49841 0.56317 0.16884 0.0
C237 C 0.42368 0.58809 0.04648 0.0
C238 C 0.45553 0.6 1.00909 0.0
C239 C 0.44 0.57309 0.08465 0.0
C240 C 0.48973 0.57189 0.0866 0.0
C241 C 0.506 0.60069 0.01121 0.0
C242 C 0.52273 0.58628 0.04952 0.0
C243 C 0.50594 0.55177 0.12541 0.0
C244 C 0.6194 0.41563 0.14561 0.0
C245 C 0.65464 0.43937 0.11046 0.0
C246 C 0.58422 0.43486 0.15888 0.0
C247 C 0.58516 0.47945 0.13815 0.0
C248 C 0.65373 0.48215 0.08861 0.0
C249 C 0.61982 0.50215 0.10246 0.0
C250 C 0.54979 0.5027 0.15102 0.0
C251 C 0.63439 0.52283 0.28777 0.0
C252 C 0.59979 0.47664 0.31204 0.0
C253 C 0.61539 0.53267 0.2484 0.0
C254 C 0.56122 0.49701 0.23294 0.0
C255 C 0.54593 0.44016 0.2959 0.0
C256 C 0.52643 0.45088 0.25703 0.0
C257 C 0.53936 0.51156 0.19448 0.0
H258 H 0.53802 0.74302 0.1763 0.0
H259 H 0.55642 0.67097 0.15162 0.0
H260 H 0.3889 0.62192 0.23673 0.0
H261 H 0.40869 0.5499 0.21319 0.0
H262 H 0.38546 0.58927 0.04589 0.0
H263 H 0.41258 0.5606 0.11189 0.0
H264 H 0.53181 0.61115 0.98296 0.0
H265 H 0.56135 0.58588 0.04999 0.0
H266 H 0.61891 0.3821 0.16273 0.0
H267 H 0.55608 0.41424 0.1848 0.0
H268 H 0.68064 0.50153 0.06159 0.0
H269 H 0.62152 0.5363 0.08543 0.0
H270 H 0.67616 0.55153 0.29937 0.0
H271 H 0.64246 0.56895 0.23058 0.0
H272 H 0.51831 0.4045 0.31411 0.0
H273 H 0.48414 0.42345 0.24587 0.0
N274 N 0.5147 0.54202 0.20165 0.0
N275 N 0.53154 0.52238 0.11853 0.0
Mn276 Mn 0.62254 0.38804 0.41997 0.0
Mn277 Mn 0.69184 0.52571 0.43445 0.0
C278 C 0.5908 0.42931 0.46807 0.0
C279 C 0.60455 0.30064 0.4379 0.0
C280 C 0.61961 0.4682 0.35465 0.0
O281 O 0.69874 0.41019 0.39632 0.0
O282 O 0.7411 0.5018 0.40808 0.0
C283 C 0.7732 0.53567 0.50233 0.0
N284 N 0.73194 0.54501 0.48896 0.0
C285 C 0.73703 0.59097 0.55695 0.0
C286 C 0.77986 0.58218 0.57135 0.0
C287 C 0.79795 0.55433 0.54393 0.0
C288 C 0.71432 0.57191 0.51501 0.0
H289 H 0.787 0.51404 0.48142 0.0
C290 C 0.74058 0.45844 0.39434 0.0
O291 O 0.59197 0.31052 0.39951 0.0
O292 O 0.62957 0.34173 0.46528 0.0
N293 N 0.64884 0.55404 0.45979 0.0
C294 C 0.60422 0.55519 0.44234 0.0
C295 C 0.57941 0.57945 0.4664 0.0
C296 C 0.6009 0.60249 0.50799 0.0
C297 C 0.64713 0.60119 0.52512 0.0
C298 C 0.67037 0.57683 0.4995 0.0
H299 H 0.58739 0.53725 0.41047 0.0
O300 O 0.55702 0.3814 0.4508 0.0
O301 O 0.64188 0.45213 0.45595 0.0
O302 O 0.60416 0.41951 0.36628 0.0
O303 O 0.65187 0.51067 0.3778 0.0
C304 C 0.67011 0.62173 0.56708 0.0
C305 C 0.71503 0.61663 0.58298 0.0
H306 H 0.79872 0.59607 0.60356 0.0
H307 H 0.83075 0.54711 0.55492 0.0
H308 H 0.54364 0.58014 0.45302 0.0
H309 H 0.58124 0.62058 0.52667 0.0
H310 H 0.6529 0.64062 0.5877 0.0
H311 H 0.73171 0.63173 0.61558 0.0
Mn312 Mn 0.25706 0.65188 0.56987 0.0
Mn313 Mn 0.18574 0.51477 0.55274 0.0
C314 C 0.18308 0.61246 0.52074 0.0
C315 C 0.32701 0.7393 0.55236 0.0
C316 C 0.17098 0.57009 0.63225 0.0
O317 O 0.31111 0.62923 0.59327 0.0
O318 O 0.25863 0.53771 0.58213 0.0
C319 C 0.25899 0.50675 0.48803 0.0
N320 N 0.20789 0.49701 0.49925 0.0
C321 C 0.16838 0.45303 0.42967 0.0
C322 C 0.22052 0.46226 0.4175 0.0
C323 C 0.26602 0.4893 0.44679 0.0
C324 C 0.16377 0.47087 0.47136 0.0
H325 H 0.29412 0.52776 0.51036 0.0
C326 C 0.30301 0.58067 0.59588 0.0
O327 O 0.30587 0.72934 0.59079 0.0
O328 O 0.3096 0.6983 0.52501 0.0
N329 N 0.11477 0.48717 0.52433 0.0
C330 C 0.06842 0.48542 0.53975 0.0
C331 C 0.01974 0.46175 0.51366 0.0
C332 C 0.0191 0.43986 0.47215 0.0
C333 C 0.06717 0.4417 0.45715 0.0
C334 C 0.11436 0.46543 0.48473 0.0
H335 H 0.06879 0.50253 0.5715 0.0
O336 O 0.19792 0.65967 0.53908 0.0
O337 O 0.21096 0.58899 0.53255 0.0
O338 O 0.20774 0.61891 0.62314 0.0
O339 O 0.15908 0.52865 0.60765 0.0
C340 C 0.07057 0.42238 0.41541 0.0
C341 C 0.12114 0.42806 0.40168 0.0
H342 H 0.22623 0.4493 0.38559 0.0
H343 H 0.30645 0.49686 0.43753 0.0
H344 H 0.98287 0.46068 0.52541 0.0
H345 H 0.98167 0.42228 0.4519 0.0
H346 H 0.03482 0.40405 0.3933 0.0
H347 H 0.12348 0.41392 0.36923 0.0
Mn348 Mn 0.62258 0.26004 0.73681 0.0
Mn349 Mn 0.69065 0.19055 0.72229 0.0
C350 C 0.58835 0.18711 0.68798 0.0
C351 C 0.6053 0.32977 0.71818 0.0
C352 C 0.62025 0.17563 0.80037 0.0
O353 O 0.69926 0.31342 0.76143 0.0
O354 O 0.74062 0.26293 0.75159 0.0
C355 C 0.77132 0.26283 0.65822 0.0
N356 N 0.73014 0.21234 0.66928 0.0
C357 C 0.73421 0.17321 0.60024 0.0
C358 C 0.77694 0.22473 0.58825 0.0
C359 C 0.79551 0.26973 0.61735 0.0
C360 C 0.7121 0.1687 0.64159 0.0
H361 H 0.78552 0.29758 0.68039 0.0
C362 C 0.74087 0.30638 0.76484 0.0
O363 O 0.59362 0.30842 0.75646 0.0
O364 O 0.62861 0.31212 0.69145 0.0
N365 N 0.64735 0.12026 0.69402 0.0
C366 C 0.60285 0.07449 0.70914 0.0
C367 C 0.57764 0.02638 0.68311 0.0
C368 C 0.59857 0.02573 0.64197 0.0
C369 C 0.64466 0.07321 0.62725 0.0
C370 C 0.66834 0.11986 0.65476 0.0
H371 H 0.58632 0.07489 0.74059 0.0
O372 O 0.55543 0.20172 0.70521 0.0
O373 O 0.64012 0.2148 0.70064 0.0
O374 O 0.60684 0.21131 0.79023 0.0
O375 O 0.65062 0.16433 0.77682 0.0
C376 C 0.66703 0.07655 0.58586 0.0
C377 C 0.71177 0.12651 0.57237 0.0
H378 H 0.79537 0.23034 0.55661 0.0
H379 H 0.82825 0.30968 0.60823 0.0
H380 H 0.54193 0.98997 0.69462 0.0
H381 H 0.57856 0.98874 0.62176 0.0
H382 H 0.64946 0.04121 0.56383 0.0
H383 H 0.72799 0.12879 0.54019 0.0
Mn384 Mn 0.40289 0.65227 0.92005 0.0
Mn385 Mn 0.33534 0.51608 0.93509 0.0
C386 C 0.43758 0.61531 0.96911 0.0
C387 C 0.41882 0.73904 0.93817 0.0
C388 C 0.40451 0.56823 0.85637 0.0
O389 O 0.32626 0.62846 0.89521 0.0
O390 O 0.2847 0.53758 0.90624 0.0
C391 C 0.25598 0.51099 1.00019 0.0
N392 N 0.29703 0.50096 0.98865 0.0
C393 C 0.29502 0.46132 0.058 0.0
C394 C 0.25245 0.47091 0.07051 0.0
C395 C 0.23292 0.49592 0.0415 0.0
C396 C 0.31608 0.47683 0.01629 0.0
H397 H 0.24107 0.53047 0.97808 0.0
C398 C 0.28459 0.5802 0.89233 0.0
O399 O 0.43106 0.72832 0.90002 0.0
O400 O 0.39606 0.69932 0.96513 0.0
N401 N 0.3794 0.49 0.96283 0.0
C402 C 0.42316 0.48711 0.9469 0.0
C403 C 0.44889 0.46491 0.97254 0.0
C404 C 0.42921 0.44567 0.01414 0.0
C405 C 0.3838 0.44863 0.02968 0.0
C406 C 0.35955 0.47079 1.00252 0.0
H407 H 0.43866 0.50213 0.91504 0.0
O408 O 0.47033 0.66205 0.9519 0.0
O409 O 0.38588 0.59112 0.95627 0.0
O410 O 0.41872 0.61758 0.86683 0.0
O411 O 0.37424 0.52757 0.87997 0.0
C412 C 0.36255 0.43179 0.07148 0.0
C413 C 0.31822 0.43815 0.08563 0.0
H414 H 0.23484 0.45974 0.10247 0.0
H415 H 0.20029 0.50372 0.05102 0.0
H416 H 0.48403 0.46293 0.96037 0.0
H417 H 0.44962 0.42923 0.03405 0.0
H418 H 0.38066 0.41478 0.09328 0.0
H419 H 0.30285 0.42587 0.1181 0.0
Mn420 Mn 0.76827 0.40839 0.08291 0.0
Mn421 Mn 0.84149 0.34464 0.10087 0.0
C422 C 0.84008 0.44383 0.13376 0.0
C423 C 0.69518 0.42284 0.09827 0.0
C424 C 0.85678 0.41353 0.02192 0.0
O425 O 0.71734 0.33239 0.05711 0.0
O426 O 0.76917 0.2931 0.07118 0.0
C427 C 0.76896 0.26506 0.1653 0.0
N428 N 0.81965 0.3066 0.1544 0.0
C429 C 0.85887 0.30572 0.22464 0.0
C430 C 0.80716 0.26266 0.23649 0.0
C431 C 0.76202 0.24231 0.20671 0.0
C432 C 0.86341 0.32643 0.18279 0.0
H433 H 0.73408 0.2495 0.14259 0.0
C434 C 0.72538 0.29171 0.05584 0.0
O435 O 0.71962 0.43601 0.06114 0.0
O436 O 0.71162 0.39912 0.12576 0.0
N437 N 0.9119 0.38969 0.1297 0.0
C438 C 0.9579 0.43377 0.11432 0.0
C439 C 0.00625 0.46025 0.14075 0.0
C440 C 0.00689 0.44101 0.18258 0.0
C441 C 0.9592 0.39529 0.19756 0.0
C442 C 0.91237 0.37028 0.16962 0.0
H443 H 0.95754 0.44895 0.08231 0.0
O444 O 0.82422 0.47526 0.11589 0.0
O445 O 0.81398 0.39272 0.12086 0.0
O446 O 0.8204 0.4265 0.03145 0.0
O447 O 0.86795 0.38345 0.04579 0.0
C448 C 0.95586 0.37445 0.23953 0.0
C449 C 0.90572 0.32971 0.25306 0.0
H450 H 0.80151 0.24529 0.26852 0.0
H451 H 0.72191 0.20929 0.21571 0.0
H452 H 0.04283 0.49561 0.12901 0.0
H453 H 0.04404 0.46195 0.20308 0.0
H454 H 0.99131 0.39313 0.26192 0.0
H455 H 0.90341 0.31462 0.28566 0.0
Mn456 Mn 0.38076 0.77667 0.25161 0.0
Mn457 Mn 0.51942 0.84851 0.26847 0.0
C458 C 0.41991 0.84989 0.30056 0.0
C459 C 0.29317 0.70631 0.26905 0.0
C460 C 0.46207 0.86249 0.18911 0.0
O461 O 0.40463 0.72408 0.22827 0.0
O462 O 0.49709 0.77637 0.2396 0.0
C463 C 0.52936 0.77721 0.33354 0.0
N464 N 0.53827 0.82737 0.3221 0.0
C465 C 0.5828 0.86711 0.39154 0.0
C466 C 0.57445 0.81595 0.40393 0.0
C467 C 0.54754 0.7708 0.37482 0.0
C468 C 0.56428 0.87114 0.34981 0.0
H469 H 0.50844 0.74233 0.31138 0.0
C470 C 0.45381 0.73218 0.22608 0.0
O471 O 0.30265 0.72745 0.23067 0.0
O472 O 0.33476 0.72421 0.29646 0.0
N473 N 0.5466 0.91867 0.29652 0.0
C474 C 0.54754 0.96406 0.28086 0.0
C475 C 0.57092 0.01224 0.30677 0.0
C476 C 0.59336 0.01337 0.34834 0.0
C477 C 0.59238 0.96631 0.36358 0.0
C478 C 0.56889 0.91957 0.33618 0.0
H479 H 0.53003 0.96332 0.24905 0.0
O480 O 0.37181 0.83432 0.28235 0.0
O481 O 0.4443 0.82292 0.28886 0.0
O482 O 0.41295 0.82581 0.19839 0.0
O483 O 0.50437 0.8742 0.21338 0.0
C484 C 0.61234 0.96348 0.40537 0.0
C485 C 0.60755 0.91391 0.41934 0.0
H486 H 0.58797 0.81072 0.43588 0.0
H487 H 0.54066 0.73112 0.38426 0.0
H488 H 0.57135 0.04834 0.29483 0.0
H489 H 0.61072 0.05041 0.36844 0.0
H490 H 0.63052 0.9989 0.42734 0.0
H491 H 0.6222 0.912 0.45181 0.0
loop_
_geom_bond_atom_site_label_1
_geom_bond_atom_site_label_2
_geom_bond_distance
_geom_bond_site_symmetry_2
_ccdc_geom_bond_type
C0 C1 1.384 . S
C0 C2 1.384 . S
C0 H28 0.931 . S
C1 C0 1.384 . S
C1 C4 1.382 . S
C2 C0 1.384 . S
C2 C3 1.381 . S
C2 H29 0.930 . S
C3 C2 1.381 . S
C3 C5 1.381 . S
C3 C6 1.487 . S
C4 C1 1.382 . S
C4 C5 1.387 . S
C4 H30 0.930 . S
C5 C3 1.381 . S
C5 C4 1.387 . S
C5 H31 0.931 . S
C6 C3 1.487 . S
C6 C13 1.399 . S
C6 N44 1.343 . S
C7 C8 1.384 . S
C7 C9 1.384 . S
C7 H32 0.931 . S
C8 C7 1.384 . S
C8 C11 1.382 . S
C9 C7 1.384 . S
C9 C10 1.381 . S
C9 H33 0.930 . S
C10 C9 1.381 . S
C10 C12 1.381 . S
C10 C13 1.487 . S
C11 C8 1.382 . S
C11 C12 1.387 . S
C11 H34 0.930 . S
C12 C10 1.381 . S
C12 C11 1.387 . S
C12 H35 0.931 . S
C13 C6 1.399 . S
C13 C10 1.487 . S
C13 N45 1.343 1_655 S
C14 C15 1.384 . S
C14 C16 1.384 . S
C14 H36 0.931 . S
C15 C14 1.384 . S
C15 C18 1.382 . S
C16 C14 1.384 . S
C16 C17 1.381 . S
C16 H37 0.930 . S
C17 C16 1.381 . S
C17 C19 1.381 . S
C17 C20 1.487 . S
C18 C15 1.382 . S
C18 C19 1.387 . S
C18 H38 0.930 . S
C19 C17 1.381 . S
C19 C18 1.387 . S
C19 H39 0.931 . S
C20 C17 1.487 . S
C20 C27 1.399 . S
C20 N45 1.343 . S
C21 C22 1.384 . S
C21 C23 1.384 . S
C21 H40 0.931 . S
C22 C21 1.384 . S
C22 C25 1.382 . S
C23 C21 1.384 . S
C23 C24 1.381 . S
C23 H41 0.930 . S
C24 C23 1.381 . S
C24 C26 1.381 . S
C24 C27 1.487 . S
C25 C22 1.382 . S
C25 C26 1.387 . S
C25 H42 0.930 . S
C26 C24 1.381 . S
C26 C25 1.387 . S
C26 H43 0.931 . S
C27 C20 1.399 . S
C27 C24 1.487 . S
C27 N44 1.343 1_455 S
H28 C0 0.931 . S
H29 C2 0.930 . S
H30 C4 0.930 . S
H31 C5 0.931 . S
H32 C7 0.931 . S
H33 C9 0.930 . S
H34 C11 0.930 . S
H35 C12 0.931 . S
H36 C14 0.931 . S
H37 C16 0.930 . S
H38 C18 0.930 . S
H39 C19 0.931 . S
H40 C21 0.931 . S
H41 C23 0.930 . S
H42 C25 0.930 . S
H43 C26 0.931 . S
N44 C6 1.343 . S
N44 C27 1.343 1_655 S
N45 C13 1.343 1_455 S
N45 C20 1.343 . S
C46 C47 1.384 . S
C46 C48 1.384 . S
C46 H74 0.931 . S
C47 C46 1.384 . S
C47 C50 1.382 . S
C48 C46 1.384 . S
C48 C49 1.381 . S
C48 H75 0.930 . S
C49 C48 1.381 . S
C49 C51 1.381 . S
C49 C52 1.487 . S
C50 C47 1.382 . S
C50 C51 1.387 . S
C50 H76 0.930 . S
C51 C49 1.381 . S
C51 C50 1.387 . S
C51 H77 0.931 . S
C52 C49 1.487 . S
C52 C59 1.399 . S
C52 N90 1.343 . S
C53 C54 1.384 . S
C53 C55 1.384 . S
C53 H78 0.931 . S
C54 C53 1.384 . S
C54 C57 1.382 . S
C55 C53 1.384 . S
C55 C56 1.381 . S
C55 H79 0.930 . S
C56 C55 1.381 . S
C56 C58 1.381 . S
C56 C59 1.487 . S
C57 C54 1.382 . S
C57 C58 1.387 . S
C57 H80 0.930 . S
C58 C56 1.381 . S
C58 C57 1.387 . S
C58 H81 0.931 . S
C59 C52 1.399 . S
C59 C56 1.487 . S
C59 N91 1.343 1_565 S
C60 C61 1.384 . S
C60 C62 1.384 . S
C60 H82 0.931 . S
C61 C60 1.384 . S
C61 C64 1.382 . S
C62 C60 1.384 . S
C62 C63 1.381 . S
C62 H83 0.930 . S
C63 C62 1.381 . S
C63 C65 1.381 . S
C63 C66 1.487 . S
C64 C61 1.382 . S
C64 C65 1.387 . S
C64 H84 0.930 . S
C65 C63 1.381 . S
C65 C64 1.387 . S
C65 H85 0.931 . S
C66 C63 1.487 . S
C66 C73 1.399 . S
C66 N91 1.343 . S
C67 C68 1.384 . S
C67 C69 1.384 . S
C67 H86 0.931 . S
C68 C67 1.384 . S
C68 C71 1.382 . S
C69 C67 1.384 . S
C69 C70 1.381 . S
C69 H87 0.930 . S
C70 C69 1.381 . S
C70 C72 1.381 . S
C70 C73 1.487 . S
C71 C68 1.382 . S
C71 C72 1.387 . S
C71 H88 0.930 . S
C72 C70 1.381 . S
C72 C71 1.387 . S
C72 H89 0.931 . S
C73 C66 1.399 . S
C73 C70 1.487 . S
C73 N90 1.343 1_545 S
H74 C46 0.931 . S
H75 C48 0.930 . S
H76 C50 0.930 . S
H77 C51 0.931 . S
H78 C53 0.931 . S
H79 C55 0.930 . S
H80 C57 0.930 . S
H81 C58 0.931 . S
H82 C60 0.931 . S
H83 C62 0.930 . S
H84 C64 0.930 . S
H85 C65 0.931 . S
H86 C67 0.931 . S
H87 C69 0.930 . S
H88 C71 0.930 . S
H89 C72 0.931 . S
N90 C52 1.343 . S
N90 C73 1.343 1_565 S
N91 C59 1.343 1_545 S
N91 C66 1.343 . S
C92 C93 1.384 . S
C92 C94 1.384 . S
C92 H120 0.931 . S
C93 C92 1.384 . S
C93 C96 1.382 . S
C94 C92 1.384 . S
C94 C95 1.381 . S
C94 H121 0.930 . S
C95 C94 1.381 . S
C95 C97 1.381 . S
C95 C98 1.487 . S
C96 C93 1.382 . S
C96 C97 1.387 . S
C96 H122 0.930 . S
C97 C95 1.381 . S
C97 C96 1.387 . S
C97 H123 0.931 . S
C98 C95 1.487 . S
C98 C105 1.399 . S
C98 N136 1.343 . S
C99 C100 1.384 . S
C99 C101 1.384 . S
C99 H124 0.931 . S
C100 C99 1.384 . S
C100 C103 1.382 . S
C101 C99 1.384 . S
C101 C102 1.381 . S
C101 H125 0.930 . S
C102 C101 1.381 . S
C102 C104 1.381 . S
C102 C105 1.487 . S
C103 C100 1.382 . S
C103 C104 1.387 . S
C103 H126 0.930 . S
C104 C102 1.381 . S
C104 C103 1.387 . S
C104 H127 0.931 . S
C105 C98 1.399 . S
C105 C102 1.487 . S
C105 N137 1.343 . S
C106 C107 1.384 . S
C106 C108 1.384 . S
C106 H128 0.931 . S
C107 C106 1.384 . S
C107 C110 1.382 . S
C108 C106 1.384 . S
C108 C109 1.381 . S
C108 H129 0.930 . S
C109 C108 1.381 . S
C109 C111 1.381 . S
C109 C112 1.487 . S
C110 C107 1.382 . S
C110 C111 1.387 . S
C110 H130 0.930 . S
C111 C109 1.381 . S
C111 C110 1.387 . S
C111 H131 0.931 . S
C112 C109 1.487 . S
C112 C119 1.399 . S
C112 N137 1.343 . S
C113 C114 1.384 . S
C113 C115 1.384 . S
C113 H132 0.931 . S
C114 C113 1.384 . S
C114 C117 1.382 . S
C115 C113 1.384 . S
C115 C116 1.381 . S
C115 H133 0.930 . S
C116 C115 1.381 . S
C116 C118 1.381 . S
C116 C119 1.487 . S
C117 C114 1.382 . S
C117 C118 1.387 . S
C117 H134 0.930 . S
C118 C116 1.381 . S
C118 C117 1.387 . S
C118 H135 0.931 . S
C119 C112 1.399 . S
C119 C116 1.487 . S
C119 N136 1.343 . S
H120 C92 0.931 . S
H121 C94 0.930 . S
H122 C96 0.930 . S
H123 C97 0.931 . S
H124 C99 0.931 . S
H125 C101 0.930 . S
H126 C103 0.930 . S
H127 C104 0.931 . S
H128 C106 0.931 . S
H129 C108 0.930 . S
H130 C110 0.930 . S
H131 C111 0.931 . S
H132 C113 0.931 . S
H133 C115 0.930 . S
H134 C117 0.930 . S
H135 C118 0.931 . S
N136 C98 1.343 . S
N136 C119 1.343 . S
N137 C105 1.343 . S
N137 C112 1.343 . S
C138 C139 1.384 . S
C138 C140 1.384 . S
C138 H166 0.931 . S
C139 C138 1.384 . S
C139 C142 1.382 . S
C140 C138 1.384 . S
C140 C141 1.381 . S
C140 H167 0.930 . S
C141 C140 1.381 . S
C141 C143 1.381 . S
C141 C144 1.487 . S
C142 C139 1.382 . S
C142 C143 1.387 . S
C142 H168 0.930 . S
C143 C141 1.381 . S
C143 C142 1.387 . S
C143 H169 0.931 . S
C144 C141 1.487 . S
C144 C151 1.399 . S
C144 N182 1.343 . S
C145 C146 1.384 . S
C145 C147 1.384 . S
C145 H170 0.931 . S
C146 C145 1.384 . S
C146 C149 1.382 . S
C147 C145 1.384 . S
C147 C148 1.381 . S
C147 H171 0.930 . S
C148 C147 1.381 . S
C148 C150 1.381 . S
C148 C151 1.487 . S
C149 C146 1.382 . S
C149 C150 1.387 . S
C149 H172 0.930 . S
C150 C148 1.381 . S
C150 C149 1.387 . S
C150 H173 0.931 . S
C151 C144 1.399 . S
C151 C148 1.487 . S
C151 N183 1.343 1_655 S
C152 C153 1.384 . S
C152 C154 1.384 . S
C152 H174 0.931 . S
C153 C152 1.384 . S
C153 C156 1.382 . S
C154 C152 1.384 . S
C154 C155 1.381 . S
C154 H175 0.930 . S
C155 C154 1.381 . S
C155 C157 1.381 . S
C155 C158 1.487 . S
C156 C153 1.382 . S
C156 C157 1.387 . S
C156 H176 0.930 . S
C157 C155 1.381 . S
C157 C156 1.387 . S
C157 H177 0.931 . S
C158 C155 1.487 . S
C158 C165 1.399 . S
C158 N183 1.343 . S
C159 C160 1.384 . S
C159 C161 1.384 . S
C159 H178 0.931 . S
C160 C159 1.384 . S
C160 C163 1.382 . S
C161 C159 1.384 . S
C161 C162 1.381 . S
C161 H179 0.930 . S
C162 C161 1.381 . S
C162 C164 1.381 . S
C162 C165 1.487 . S
C163 C160 1.382 . S
C163 C164 1.387 . S
C163 H180 0.930 . S
C164 C162 1.381 . S
C164 C163 1.387 . S
C164 H181 0.931 . S
C165 C158 1.399 . S
C165 C162 1.487 . S
C165 N182 1.343 1_455 S
H166 C138 0.931 . S
H167 C140 0.930 . S
H168 C142 0.930 . S
H169 C143 0.931 . S
H170 C145 0.931 . S
H171 C147 0.930 . S
H172 C149 0.930 . S
H173 C150 0.931 . S
H174 C152 0.931 . S
H175 C154 0.930 . S
H176 C156 0.930 . S
H177 C157 0.931 . S
H178 C159 0.931 . S
H179 C161 0.930 . S
H180 C163 0.930 . S
H181 C164 0.931 . S
N182 C144 1.343 . S
N182 C165 1.343 1_655 S
N183 C151 1.343 1_455 S
N183 C158 1.343 . S
C184 C185 1.384 . S
C184 C186 1.384 . S
C184 H212 0.931 . S
C185 C184 1.384 . S
C185 C188 1.382 . S
C186 C184 1.384 . S
C186 C187 1.381 . S
C186 H213 0.930 1_556 S
C187 C186 1.381 . S
C187 C189 1.381 . S
C187 C190 1.487 . S
C188 C185 1.382 . S
C188 C189 1.387 . S
C188 H214 0.930 . S
C189 C187 1.381 . S
C189 C188 1.387 . S
C189 H215 0.931 . S
C190 C187 1.487 . S
C190 C197 1.399 1_556 S
C190 N228 1.330 1_565 S
C191 C192 1.384 . S
C191 C193 1.384 . S
C191 H216 0.931 . S
C192 C191 1.384 . S
C192 C195 1.382 . S
C193 C191 1.384 . S
C193 C194 1.381 . S
C193 H217 0.930 . S
C194 C193 1.381 . S
C194 C196 1.381 . S
C194 C197 1.487 . S
C195 C192 1.382 . S
C195 C196 1.387 . S
C195 H218 0.930 . S
C196 C194 1.381 . S
C196 C195 1.387 . S
C196 H219 0.931 . S
C197 C190 1.399 1_554 S
C197 C194 1.487 . S
C197 N229 1.343 1_565 S
C198 C199 1.384 . S
C198 C200 1.378 1_554 S
C198 H220 0.931 . S
C199 C198 1.384 . S
C199 C202 1.382 . S
C200 C198 1.378 1_556 S
C200 C201 1.373 1_556 S
C200 H221 0.945 . S
C201 C200 1.373 1_554 S
C201 C203 1.381 . S
C201 C204 1.487 . S
C202 C199 1.382 . S
C202 C203 1.387 . S
C202 H222 0.930 . S
C203 C201 1.381 . S
C203 C202 1.387 . S
C203 H223 0.931 . S
C204 C201 1.487 . S
C204 C211 1.399 1_554 S
C204 N229 1.343 . S
C205 C206 1.384 . S
C205 C207 1.384 . S
C205 H224 0.931 . S
C206 C205 1.384 . S
C206 C209 1.382 . S
C207 C205 1.384 . S
C207 C208 1.381 . S
C207 H225 0.930 . S
C208 C207 1.381 . S
C208 C210 1.381 . S
C208 C211 1.487 . S
C209 C206 1.382 . S
C209 C210 1.387 . S
C209 H226 0.930 . S
C210 C208 1.381 . S
C210 C209 1.387 . S
C210 H227 0.931 . S
C211 C204 1.399 1_556 S
C211 C208 1.487 . S
C211 N228 1.362 . S
H212 C184 0.931 . S
H213 C186 0.930 1_554 S
H214 C188 0.930 . S
H215 C189 0.931 . S
H216 C191 0.931 . S
H217 C193 0.930 . S
H218 C195 0.930 . S
H219 C196 0.931 . S
H220 C198 0.931 . S
H221 C200 0.945 . S
H222 C202 0.930 . S
H223 C203 0.931 . S
H224 C205 0.931 . S
H225 C207 0.930 . S
H226 C209 0.930 . S
H227 C210 0.931 . S
N228 C190 1.330 1_545 S
N228 C211 1.362 . S
N229 C197 1.343 1_545 S
N229 C204 1.343 . S
C230 C231 1.384 . S
C230 C232 1.384 . S
C230 H258 0.931 . S
C231 C230 1.384 . S
C231 C234 1.382 . S
C232 C230 1.384 . S
C232 C233 1.381 . S
C232 H259 0.930 . S
C233 C232 1.381 . S
C233 C235 1.381 . S
C233 C236 1.487 . S
C234 C231 1.382 . S
C234 C235 1.387 . S
C234 H260 0.930 . S
C235 C233 1.381 . S
C235 C234 1.387 . S
C235 H261 0.931 . S
C236 C233 1.487 . S
C236 C243 1.399 . S
C236 N274 1.343 . S
C237 C238 1.384 . S
C237 C239 1.384 . S
C237 H262 0.931 . S
C238 C237 1.384 . S
C238 C241 1.382 . S
C239 C237 1.384 . S
C239 C240 1.381 . S
C239 H263 0.930 . S
C240 C239 1.381 . S
C240 C242 1.381 . S
C240 C243 1.487 . S
C241 C238 1.382 . S
C241 C242 1.387 . S
C241 H264 0.930 1_554 S
C242 C240 1.381 . S
C242 C241 1.387 . S
C242 H265 0.931 . S
C243 C236 1.399 . S
C243 C240 1.487 . S
C243 N275 1.343 . S
C244 C245 1.384 . S
C244 C246 1.384 . S
C244 H266 0.931 . S
C245 C244 1.384 . S
C245 C248 1.382 . S
C246 C244 1.384 . S
C246 C247 1.381 . S
C246 H267 0.930 . S
C247 C246 1.381 . S
C247 C249 1.381 . S
C247 C250 1.487 . S
C248 C245 1.382 . S
C248 C249 1.387 . S
C248 H268 0.930 . S
C249 C247 1.381 . S
C249 C248 1.387 . S
C249 H269 0.931 . S
C250 C247 1.487 . S
C250 C257 1.399 . S
C250 N275 1.343 . S
C251 C252 1.384 . S
C251 C253 1.384 . S
C251 H270 0.931 . S
C252 C251 1.384 . S
C252 C255 1.382 . S
C253 C251 1.384 . S
C253 C254 1.381 . S
C253 H271 0.930 . S
C254 C253 1.381 . S
C254 C256 1.381 . S
C254 C257 1.487 . S
C255 C252 1.382 . S
C255 C256 1.387 . S
C255 H272 0.930 . S
C256 C254 1.381 . S
C256 C255 1.387 . S
C256 H273 0.931 . S
C257 C250 1.399 . S
C257 C254 1.487 . S
C257 N274 1.343 . S
H258 C230 0.931 . S
H259 C232 0.930 . S
H260 C234 0.930 . S
H261 C235 0.931 . S
H262 C237 0.931 . S
H263 C239 0.930 . S
H264 C241 0.930 1_556 S
H265 C242 0.931 . S
H266 C244 0.931 . S
H267 C246 0.930 . S
H268 C248 0.930 . S
H269 C249 0.931 . S
H270 C251 0.931 . S
H271 C253 0.930 . S
H272 C255 0.930 . S
H273 C256 0.931 . S
N274 C236 1.343 . S
N274 C257 1.343 . S
N275 C243 1.343 . S
N275 C250 1.343 . S
Mn276 O281 2.095 . S
Mn276 O291 2.162 . S
Mn276 O292 2.297 . S
Mn276 O300 2.385 . S
Mn276 O301 2.209 . S
Mn276 O302 2.094 . S
Mn277 O282 2.121 . S
Mn277 N284 2.257 . S
Mn277 N293 2.282 . S
Mn277 O301 2.215 . S
Mn277 O303 2.117 . S
C278 O300 1.234 . S
C278 O301 1.283 . S
C279 O291 1.281 . S
C279 O292 1.236 . S
C280 O302 1.240 . S
C280 O303 1.264 . S
O281 Mn276 2.095 . S
O281 C290 1.250 . S
O282 Mn277 2.121 . S
O282 C290 1.258 . S
C283 N284 1.326 . S
C283 C287 1.460 . S
C283 H289 0.929 . S
N284 Mn277 2.257 . S
N284 C283 1.326 . S
N284 C288 1.362 . S
C285 C286 1.258 . S
C285 C288 1.431 . S
C285 C305 1.449 . S
C286 C285 1.258 . S
C286 C287 1.477 . S
C286 H306 0.931 . S
C287 C283 1.460 . S
C287 C286 1.477 . S
C287 H307 0.930 . S
C288 N284 1.362 . S
C288 C285 1.431 . S
C288 C298 1.476 . S
H289 C283 0.929 . S
C290 O281 1.250 . S
C290 O282 1.258 . S
O291 Mn276 2.162 . S
O291 C279 1.281 . S
O292 Mn276 2.297 . S
O292 C279 1.236 . S
N293 Mn277 2.282 . S
N293 C294 1.328 . S
N293 C298 1.318 . S
C294 N293 1.328 . S
C294 C295 1.457 . S
C294 H299 0.929 . S
C295 C294 1.457 . S
C295 C296 1.291 . S
C295 H308 0.931 . S
C296 C295 1.291 . S
C296 C297 1.373 . S
C296 H309 0.929 . S
C297 C296 1.373 . S
C297 C298 1.396 . S
C297 C304 1.403 . S
C298 C288 1.476 . S
C298 N293 1.318 . S
C298 C297 1.396 . S
H299 C294 0.929 . S
O300 Mn276 2.385 . S
O300 C278 1.234 . S
O301 Mn276 2.209 . S
O301 Mn277 2.215 . S
O301 C278 1.283 . S
O302 Mn276 2.094 . S
O302 C280 1.240 . S
O303 Mn277 2.117 . S
O303 C280 1.264 . S
C304 C297 1.403 . S
C304 C305 1.399 . S
C304 H310 0.929 . S
C305 C285 1.449 . S
C305 C304 1.399 . S
C305 H311 0.930 . S
H306 C286 0.931 . S
H307 C287 0.930 . S
H308 C295 0.931 . S
H309 C296 0.929 . S
H310 C304 0.929 . S
H311 C305 0.930 . S
Mn312 O317 2.095 . S
Mn312 O327 2.162 . S
Mn312 O328 2.297 . S
Mn312 O336 2.385 . S
Mn312 O337 2.209 . S
Mn312 O338 2.094 . S
Mn313 O318 2.121 . S
Mn313 N320 2.257 . S
Mn313 N329 2.282 . S
Mn313 O337 2.215 . S
Mn313 O339 2.117 . S
C314 O336 1.234 . S
C314 O337 1.283 . S
C315 O327 1.281 . S
C315 O328 1.236 . S
C316 O338 1.240 . S
C316 O339 1.264 . S
O317 Mn312 2.095 . S
O317 C326 1.250 . S
O318 Mn313 2.121 . S
O318 C326 1.258 . S
C319 N320 1.326 . S
C319 C323 1.460 . S
C319 H325 0.929 . S
N320 Mn313 2.257 . S
N320 C319 1.326 . S
N320 C324 1.362 . S
C321 C322 1.258 . S
C321 C324 1.431 . S
C321 C341 1.449 . S
C322 C321 1.258 . S
C322 C323 1.477 . S
C322 H342 0.931 . S
C323 C319 1.460 . S
C323 C322 1.477 . S
C323 H343 0.930 . S
C324 N320 1.362 . S
C324 C321 1.431 . S
C324 C334 1.476 . S
H325 C319 0.929 . S
C326 O317 1.250 . S
C326 O318 1.258 . S
O327 Mn312 2.162 . S
O327 C315 1.281 . S
O328 Mn312 2.297 . S
O328 C315 1.236 . S
N329 Mn313 2.282 . S
N329 C330 1.328 . S
N329 C334 1.318 . S
C330 N329 1.328 . S
C330 C331 1.457 . S
C330 H335 0.929 . S
C331 C330 1.457 . S
C331 C332 1.291 1_455 S
C331 H344 0.931 1_455 S
C332 C331 1.291 1_655 S
C332 C333 1.373 1_655 S
C332 H345 0.929 . S
C333 C332 1.373 1_455 S
C333 C334 1.396 . S
C333 C340 1.403 . S
C334 C324 1.476 . S
C334 N329 1.318 . S
C334 C333 1.396 . S
H335 C330 0.929 . S
O336 Mn312 2.385 . S
O336 C314 1.234 . S
O337 Mn312 2.209 . S
O337 Mn313 2.215 . S
O337 C314 1.283 . S
O338 Mn312 2.094 . S
O338 C316 1.240 . S
O339 Mn313 2.117 . S
O339 C316 1.264 . S
C340 C333 1.403 . S
C340 C341 1.399 . S
C340 H346 0.929 1_455 S
C341 C321 1.449 . S
C341 C340 1.399 . S
C341 H347 0.930 . S
H342 C322 0.931 . S
H343 C323 0.930 . S
H344 C331 0.931 1_655 S
H345 C332 0.929 . S
H346 C340 0.929 1_655 S
H347 C341 0.930 . S
Mn348 O353 2.095 . S
Mn348 O363 2.162 . S
Mn348 O364 2.297 . S
Mn348 O372 2.385 . S
Mn348 O373 2.209 . S
Mn348 O374 2.094 . S
Mn349 O354 2.121 . S
Mn349 N356 2.257 . S
Mn349 N365 2.282 . S
Mn349 O373 2.215 . S
Mn349 O375 2.117 . S
C350 O372 1.234 . S
C350 O373 1.283 . S
C351 O363 1.281 . S
C351 O364 1.236 . S
C352 O374 1.240 . S
C352 O375 1.264 . S
O353 Mn348 2.095 . S
O353 C362 1.250 . S
O354 Mn349 2.121 . S
O354 C362 1.258 . S
C355 N356 1.326 . S
C355 C359 1.460 . S
C355 H361 0.929 . S
N356 Mn349 2.257 . S
N356 C355 1.326 . S
N356 C360 1.362 . S
C357 C358 1.258 . S
C357 C360 1.431 . S
C357 C377 1.449 . S
C358 C357 1.258 . S
C358 C359 1.477 . S
C358 H378 0.931 . S
C359 C355 1.460 . S
C359 C358 1.477 . S
C359 H379 0.930 . S
C360 N356 1.362 . S
C360 C357 1.431 . S
C360 C370 1.476 . S
H361 C355 0.929 . S
C362 O353 1.250 . S
C362 O354 1.258 . S
O363 Mn348 2.162 . S
O363 C351 1.281 . S
O364 Mn348 2.297 . S
O364 C351 1.236 . S
N365 Mn349 2.282 . S
N365 C366 1.328 . S
N365 C370 1.318 . S
C366 N365 1.328 . S
C366 C367 1.457 . S
C366 H371 0.929 . S
C367 C366 1.457 . S
C367 C368 1.291 1_545 S
C367 H380 0.931 1_545 S
C368 C367 1.291 1_565 S
C368 C369 1.373 1_565 S
C368 H381 0.929 . S
C369 C368 1.373 1_545 S
C369 C370 1.396 . S
C369 C376 1.403 . S
C370 C360 1.476 . S
C370 N365 1.318 . S
C370 C369 1.396 . S
H371 C366 0.929 . S
O372 Mn348 2.385 . S
O372 C350 1.234 . S
O373 Mn348 2.209 . S
O373 Mn349 2.215 . S
O373 C350 1.283 . S
O374 Mn348 2.094 . S
O374 C352 1.240 . S
O375 Mn349 2.117 . S
O375 C352 1.264 . S
C376 C369 1.403 . S
C376 C377 1.399 . S
C376 H382 0.929 1_545 S
C377 C357 1.449 . S
C377 C376 1.399 . S
C377 H383 0.930 . S
H378 C358 0.931 . S
H379 C359 0.930 . S
H380 C367 0.931 1_565 S
H381 C368 0.929 . S
H382 C376 0.929 1_565 S
H383 C377 0.930 . S
Mn384 O389 2.095 . S
Mn384 O399 2.162 . S
Mn384 O400 2.297 . S
Mn384 O408 2.385 . S
Mn384 O409 2.209 . S
Mn384 O410 2.094 . S
Mn385 O390 2.121 . S
Mn385 N392 2.257 . S
Mn385 N401 2.282 . S
Mn385 O409 2.215 . S
Mn385 O411 2.117 . S
C386 O408 1.234 . S
C386 O409 1.283 . S
C387 O399 1.281 . S
C387 O400 1.236 . S
C388 O410 1.240 . S
C388 O411 1.264 . S
O389 Mn384 2.095 . S
O389 C398 1.250 . S
O390 Mn385 2.121 . S
O390 C398 1.258 . S
C391 N392 1.326 . S
C391 C395 1.460 1_556 S
C391 H397 0.929 . S
N392 Mn385 2.257 . S
N392 C391 1.326 . S
N392 C396 1.362 . S
C393 C394 1.258 . S
C393 C396 1.431 1_554 S
C393 C413 1.449 . S
C394 C393 1.258 . S
C394 C395 1.477 . S
C394 H414 0.931 . S
C395 C391 1.460 1_554 S
C395 C394 1.477 . S
C395 H415 0.930 . S
C396 N392 1.362 . S
C396 C393 1.431 1_556 S
C396 C406 1.476 . S
H397 C391 0.929 . S
C398 O389 1.250 . S
C398 O390 1.258 . S
O399 Mn384 2.162 . S
O399 C387 1.281 . S
O400 Mn384 2.297 . S
O400 C387 1.236 . S
N401 Mn385 2.282 . S
N401 C402 1.328 . S
N401 C406 1.318 . S
C402 N401 1.328 . S
C402 C403 1.457 . S
C402 H407 0.929 . S
C403 C402 1.457 . S
C403 C404 1.291 . S
C403 H416 0.931 . S
C404 C403 1.291 . S
C404 C405 1.373 . S
C404 H417 0.929 . S
C405 C404 1.373 . S
C405 C406 1.396 . S
C405 C412 1.403 1_556 S
C406 C396 1.476 . S
C406 N401 1.318 . S
C406 C405 1.396 . S
H407 C402 0.929 . S
O408 Mn384 2.385 . S
O408 C386 1.234 . S
O409 Mn384 2.209 . S
O409 Mn385 2.215 . S
O409 C386 1.283 . S
O410 Mn384 2.094 . S
O410 C388 1.240 . S
O411 Mn385 2.117 . S
O411 C388 1.264 . S
C412 C405 1.403 1_554 S
C412 C413 1.399 . S
C412 H418 0.929 . S
C413 C393 1.449 . S
C413 C412 1.399 . S
C413 H419 0.930 . S
H414 C394 0.931 . S
H415 C395 0.930 . S
H416 C403 0.931 . S
H417 C404 0.929 . S
H418 C412 0.929 . S
H419 C413 0.930 . S
Mn420 O425 2.095 . S
Mn420 O435 2.162 . S
Mn420 O436 2.297 . S
Mn420 O444 2.385 . S
Mn420 O445 2.209 . S
Mn420 O446 2.094 . S
Mn421 O426 2.121 . S
Mn421 N428 2.257 . S
Mn421 N437 2.282 . S
Mn421 O445 2.215 . S
Mn421 O447 2.117 . S
C422 O444 1.234 . S
C422 O445 1.283 . S
C423 O435 1.281 . S
C423 O436 1.236 . S
C424 O446 1.240 . S
C424 O447 1.264 . S
O425 Mn420 2.095 . S
O425 C434 1.250 . S
O426 Mn421 2.121 . S
O426 C434 1.258 . S
C427 N428 1.326 . S
C427 C431 1.460 . S
C427 H433 0.929 . S
N428 Mn421 2.257 . S
N428 C427 1.326 . S
N428 C432 1.362 . S
C429 C430 1.258 . S
C429 C432 1.431 . S
C429 C449 1.449 . S
C430 C429 1.258 . S
C430 C431 1.477 . S
C430 H450 0.931 . S
C431 C427 1.460 . S
C431 C430 1.477 . S
C431 H451 0.930 . S
C432 N428 1.362 . S
C432 C429 1.431 . S
C432 C442 1.476 . S
H433 C427 0.929 . S
C434 O425 1.250 . S
C434 O426 1.258 . S
O435 Mn420 2.162 . S
O435 C423 1.281 . S
O436 Mn420 2.297 . S
O436 C423 1.236 . S
N437 Mn421 2.282 . S
N437 C438 1.328 . S
N437 C442 1.318 . S
C438 N437 1.328 . S
C438 C439 1.457 1_655 S
C438 H443 0.929 . S
C439 C438 1.457 1_455 S
C439 C440 1.291 . S
C439 H452 0.931 . S
C440 C439 1.291 . S
C440 C441 1.373 1_455 S
C440 H453 0.929 . S
C441 C440 1.373 1_655 S
C441 C442 1.396 . S
C441 C448 1.403 . S
C442 C432 1.476 . S
C442 N437 1.318 . S
C442 C441 1.396 . S
H443 C438 0.929 . S
O444 Mn420 2.385 . S
O444 C422 1.234 . S
O445 Mn420 2.209 . S
O445 Mn421 2.215 . S
O445 C422 1.283 . S
O446 Mn420 2.094 . S
O446 C424 1.240 . S
O447 Mn421 2.117 . S
O447 C424 1.264 . S
C448 C441 1.403 . S
C448 C449 1.399 . S
C448 H454 0.929 1_655 S
C449 C429 1.449 . S
C449 C448 1.399 . S
C449 H455 0.930 . S
H450 C430 0.931 . S
H451 C431 0.930 . S
H452 C439 0.931 . S
H453 C440 0.929 . S
H454 C448 0.929 1_455 S
H455 C449 0.930 . S
Mn456 O461 2.095 . S
Mn456 O471 2.162 . S
Mn456 O472 2.297 . S
Mn456 O480 2.385 . S
Mn456 O481 2.209 . S
Mn456 O482 2.094 . S
Mn457 O462 2.121 . S
Mn457 N464 2.257 . S
Mn457 N473 2.282 . S
Mn457 O481 2.215 . S
Mn457 O483 2.117 . S
C458 O480 1.234 . S
C458 O481 1.283 . S
C459 O471 1.281 . S
C459 O472 1.236 . S
C460 O482 1.240 . S
C460 O483 1.264 . S
O461 Mn456 2.095 . S
O461 C470 1.250 . S
O462 Mn457 2.121 . S
O462 C470 1.258 . S
C463 N464 1.326 . S
C463 C467 1.460 . S
C463 H469 0.929 . S
N464 Mn457 2.257 . S
N464 C463 1.326 . S
N464 C468 1.362 . S
C465 C466 1.258 . S
C465 C468 1.431 . S
C465 C485 1.449 . S
C466 C465 1.258 . S
C466 C467 1.477 . S
C466 H486 0.931 . S
C467 C463 1.460 . S
C467 C466 1.477 . S
C467 H487 0.930 . S
C468 N464 1.362 . S
C468 C465 1.431 . S
C468 C478 1.476 . S
H469 C463 0.929 . S
C470 O461 1.250 . S
C470 O462 1.258 . S
O471 Mn456 2.162 . S
O471 C459 1.281 . S
O472 Mn456 2.297 . S
O472 C459 1.236 . S
N473 Mn457 2.282 . S
N473 C474 1.328 . S
N473 C478 1.318 . S
C474 N473 1.328 . S
C474 C475 1.457 1_565 S
C474 H479 0.929 . S
C475 C474 1.457 1_545 S
C475 C476 1.291 . S
C475 H488 0.931 . S
C476 C475 1.291 . S
C476 C477 1.373 1_545 S
C476 H489 0.929 . S
C477 C476 1.373 1_565 S
C477 C478 1.396 . S
C477 C484 1.403 1_565 S
C478 C468 1.476 . S
C478 N473 1.318 . S
C478 C477 1.396 . S
H479 C474 0.929 . S
O480 Mn456 2.385 . S
O480 C458 1.234 . S
O481 Mn456 2.209 . S
O481 Mn457 2.215 . S
O481 C458 1.283 . S
O482 Mn456 2.094 . S
O482 C460 1.240 . S
O483 Mn457 2.117 . S
O483 C460 1.264 . S
C484 C477 1.403 1_545 S
C484 C485 1.399 1_545 S
C484 H490 0.929 . S
C485 C465 1.449 . S
C485 C484 1.399 1_565 S
C485 H491 0.930 . S
H486 C466 0.931 . S
H487 C467 0.930 . S
H488 C475 0.931 . S
H489 C476 0.929 . S
H490 C484 0.929 . S
H491 C485 0.930 . S
C459 C15 1.899 . S
C61 C279 1.978 . S
C114 C326 2.122 . S
C139 C362 2.026 . S
C387 C185 1.900 . S
C245 C423 1.840 . S
C47 C315 2.000 . S
C100 C351 1.914 . S
C153 C398 1.938 . S
C434 C199 2.084 . S
C470 C231 2.164 . S
C290 C1 2.193 . S
C22 C314 1.455 . S
C68 C350 1.474 . S
C388 C107 1.500 . S
C146 C424 1.502 1_556 S
C460 C192 1.430 . S
C280 C252 1.417 . S
C458 C54 1.443 . S
C93 C278 1.446 . S
C316 C160 1.469 . S
C206 C352 1.493 . S
C238 C386 1.531 1_554 S
C8 C422 1.513 . S
