# Generated by pormake.
# Topology anh, (6,3)-cn, num edge types: 1
# Building blocks:
#     Node 0, Type 0, BuildingBlock: VOLQOD_clean_sbu_1, # of connection points: 6
#     Node 1, Type 0, BuildingBlock: VOLQOD_clean_sbu_1, # of connection points: 6
#     Node 2, Type 0, BuildingBlock: VOLQOD_clean_sbu_1, # of connection points: 6
#     Node 3, Type 1, BuildingBlock: BELTOD_clean_linker_0, # of connection points: 3
#     Node 4, Type 1, BuildingBlock: BELTOD_clean_linker_0, # of connection points: 3
#     Node 5, Type 1, BuildingBlock: BELTOD_clean_linker_0, # of connection points: 3
#     Node 6, Type 1, BuildingBlock: BELTOD_clean_linker_0, # of connection points: 3
#     Node 7, Type 1, BuildingBlock: BELTOD_clean_linker_0, # of connection points: 3
#     Node 8, Type 1, BuildingBlock: BELTOD_clean_linker_0, # of connection points: 3
#     Edge 9, Type (0, 1), BuildingBlock: ZUJKAS_clean_linker_0, # of connection points: 2
#     Edge 10, Type (0, 1), BuildingBlock: ZUJKAS_clean_linker_0, # of connection points: 2
#     Edge 11, Type (0, 1), BuildingBlock: ZUJKAS_clean_linker_0, # of connection points: 2
#     Edge 12, Type (0, 1), BuildingBlock: ZUJKAS_clean_linker_0, # of connection points: 2
#     Edge 13, Type (0, 1), BuildingBlock: ZUJKAS_clean_linker_0, # of connection points: 2
#     Edge 14, Type (0, 1), BuildingBlock: ZUJKAS_clean_linker_0, # of connection points: 2
#     Edge 15, Type (0, 1), BuildingBlock: ZUJKAS_clean_linker_0, # of connection points: 2
#     Edge 16, Type (0, 1), BuildingBlock: ZUJKAS_clean_linker_0, # of connection points: 2
#     Edge 17, Type (0, 1), BuildingBlock: ZUJKAS_clean_linker_0, # of connection points: 2
#     Edge 18, Type (0, 1), BuildingBlock: ZUJKAS_clean_linker_0, # of connection points: 2
#     Edge 19, Type (0, 1), BuildingBlock: ZUJKAS_clean_linker_0, # of connection points: 2
#     Edge 20, Type (0, 1), BuildingBlock: ZUJKAS_clean_linker_0, # of connection points: 2
#     Edge 21, Type (0, 1), BuildingBlock: ZUJKAS_clean_linker_0, # of connection points: 2
#     Edge 22, Type (0, 1), BuildingBlock: ZUJKAS_clean_linker_0, # of connection points: 2
#     Edge 23, Type (0, 1), BuildingBlock: ZUJKAS_clean_linker_0, # of connection points: 2
#     Edge 24, Type (0, 1), BuildingBlock: ZUJKAS_clean_linker_0, # of connection points: 2
#     Edge 25, Type (0, 1), BuildingBlock: ZUJKAS_clean_linker_0, # of connection points: 2
#     Edge 26, Type (0, 1), BuildingBlock: ZUJKAS_clean_linker_0, # of connection points: 2
# Relax obj value: 0.161
# Max RMSD: 0.227
# Mean RMSD: 0.106
data_MOF--net-anh--node1-VOLQOD_clean_sbu_1--node2-BELTOD_clean_linker_0--edge1-ZUJKAS_clean_linker_0
_symmetry_space_group_name_H-M    P1
_symmetry_Int_Tables_number       1
_symmetry_cell_setting            triclinic
loop_
_symmetry_equiv_pos_as_xyz
'x, y, z'
_cell_length_a     40.331156
_cell_length_b     40.266825
_cell_length_c     85.76579
_cell_angle_alpha  90.300657
_cell_angle_beta   89.855184
_cell_angle_gamma 120.13159
loop_
_atom_site_label
_atom_site_type_symbol
_atom_site_fract_x
_atom_site_fract_y
_atom_site_fract_z
_atom_type_partial_charge
O0 O -0.0019 0.56494 0.19848 0.0
Zn1 Zn 0.00184 0.58026 0.17574 0.0
O2 O 0.0085 0.54453 0.16208 0.0
Zn3 Zn 0.96461 0.51711 0.14825 0.0
Zn4 Zn 0.01368 0.50776 0.17493 0.0
Zn5 Zn 0.05422 0.57224 0.14929 0.0
O6 O 0.97975 0.52456 0.12551 0.0
O7 O 0.04166 0.5681 0.12649 0.0
O8 O 0.95395 0.5821 0.16995 0.0
O9 O 0.92963 0.53813 0.15112 0.0
O10 O 0.93425 0.46046 0.15318 0.0
O11 O 0.96883 0.45486 0.17196 0.0
O12 O 0.06126 0.50593 0.16989 0.0
O13 O 0.04838 0.63351 0.17422 0.0
O14 O 0.08952 0.55087 0.15185 0.0
O15 O 0.08333 0.62765 0.15548 0.0
C16 C 0.00604 0.54175 0.20531 0.0
C17 C 0.0113 0.547 0.11872 0.0
C18 C 0.93962 0.44012 0.16307 0.0
C19 C 0.92821 0.56319 0.15975 0.0
C20 C 0.08868 0.52473 0.16041 0.0
C21 C 0.07812 0.64787 0.16558 0.0
O22 O 0.01452 0.51996 0.19759 0.0
O23 O 0.44651 0.01844 0.46595 0.0
Zn24 Zn 0.43392 0.01894 0.48884 0.0
O25 O 0.47101 0.01481 0.50234 0.0
Zn26 Zn 0.49973 0.06119 0.51475 0.0
Zn27 Zn 0.50666 0.00762 0.4894 0.0
Zn28 Zn 0.44454 0.97163 0.51658 0.0
O29 O 0.49785 0.0497 0.53759 0.0
O30 O 0.45385 0.988 0.53914 0.0
O31 O 0.4321 0.06745 0.4937 0.0
O32 O 0.47666 0.09447 0.51214 0.0
O33 O 0.55518 0.09161 0.5082 0.0
O34 O 0.55963 0.05327 0.4907 0.0
O35 O 0.50881 0.96064 0.49554 0.0
O36 O 0.38124 0.97279 0.49196 0.0
O37 O 0.46442 0.9351 0.51401 0.0
O38 O 0.38806 0.94215 0.5121 0.0
C39 C 0.46948 0.01 0.45914 0.0
C40 C 0.47734 0.01974 0.54564 0.0
C41 C 0.5747 0.08447 0.49847 0.0
C42 C 0.45083 0.09427 0.50357 0.0
C43 C 0.48996 0.9344 0.50548 0.0
C44 C 0.36728 0.9453 0.50172 0.0
O45 O 0.49232 0.00328 0.4669 0.0
O46 O 0.45635 0.46708 0.79689 0.0
Zn47 Zn 0.44217 0.45204 0.81954 0.0
O48 O 0.48428 0.48615 0.83364 0.0
Zn49 Zn 0.46778 0.51258 0.84807 0.0
Zn50 Zn 0.52703 0.52403 0.82135 0.0
Zn51 Zn 0.5013 0.4568 0.8458 0.0
O52 O 0.4742 0.50259 0.87059 0.0
O53 O 0.4913 0.45829 0.86866 0.0
O54 O 0.39339 0.4528 0.8247 0.0
O55 O 0.41203 0.49306 0.84488 0.0
O56 O 0.4951 0.5697 0.84414 0.0
O57 O 0.53472 0.57664 0.82482 0.0
O58 O 0.5762 0.52578 0.82674 0.0
O59 O 0.43194 0.39756 0.82122 0.0
O60 O 0.55816 0.47822 0.84363 0.0
O61 O 0.47446 0.40198 0.83875 0.0
C62 C 0.48804 0.49073 0.79044 0.0
C63 C 0.48217 0.47888 0.8769 0.0
C64 C 0.52059 0.59074 0.83425 0.0
C65 C 0.3862 0.47036 0.83541 0.0
C66 C 0.58414 0.50572 0.83574 0.0
C67 C 0.4475 0.38231 0.82915 0.0
O68 O 0.51743 0.51284 0.79855 0.0
P69 P 0.56117 0.96996 0.2469 0.0
H70 H 0.51209 0.89219 0.23475 0.0
H71 H 0.44848 0.86061 0.22285 0.0
H72 H 0.44561 0.96623 0.2264 0.0
H73 H 0.5096 0.9978 0.23824 0.0
H74 H 0.63394 0.0357 0.25669 0.0
H75 H 0.68155 0.09348 0.24313 0.0
H76 H 0.61106 0.05608 0.20167 0.0
H77 H 0.56445 0.99807 0.2151 0.0
H78 H 0.53293 0.92021 0.27383 0.0
H79 H 0.5653 0.03699 0.26275 0.0
O80 O 0.57887 0.94037 0.24713 0.0
H81 H 0.51362 0.9284 0.29997 0.0
H82 H 0.54655 0.04556 0.28902 0.0
C83 C 0.51558 0.94738 0.23719 0.0
C84 C 0.49795 0.90866 0.23285 0.0
C85 C 0.46149 0.89058 0.22616 0.0
C86 C 0.44206 0.91096 0.22375 0.0
C87 C 0.46006 0.94995 0.22798 0.0
C88 C 0.49648 0.96794 0.23476 0.0
C89 C 0.59513 0.01322 0.23707 0.0
C90 C 0.62866 0.04019 0.24472 0.0
C91 C 0.65577 0.07322 0.23697 0.0
C92 C 0.64996 0.07957 0.22134 0.0
C93 C 0.61656 0.052 0.21365 0.0
C94 C 0.58957 0.01899 0.22141 0.0
C95 C 0.55167 0.97834 0.26656 0.0
C96 C 0.53655 0.94784 0.27714 0.0
C97 C 0.52515 0.95242 0.29199 0.0
C98 C 0.52866 0.98764 0.2965 0.0
C99 C 0.54398 0.01827 0.28588 0.0
C100 C 0.55491 0.01347 0.27093 0.0
P101 P 0.61016 0.56462 0.57573 0.0
H102 H 0.62877 0.54014 0.54667 0.0
H103 H 0.59379 0.48253 0.53048 0.0
H104 H 0.50076 0.43649 0.56377 0.0
H105 H 0.53557 0.49431 0.5797 0.0
H106 H 0.65347 0.64832 0.57655 0.0
H107 H 0.64243 0.69731 0.56483 0.0
H108 H 0.53608 0.60801 0.54511 0.0
H109 H 0.54734 0.55945 0.55673 0.0
H110 H 0.63618 0.5401 0.60263 0.0
H111 H 0.54916 0.56925 0.59261 0.0
O112 O 0.65707 0.58019 0.57501 0.0
H113 H 0.61447 0.52675 0.6297 0.0
H114 H 0.52753 0.55639 0.61973 0.0
C115 C 0.58523 0.52099 0.56457 0.0
C116 C 0.60101 0.51743 0.55053 0.0
C117 C 0.58095 0.48459 0.54129 0.0
C118 C 0.54455 0.45493 0.54587 0.0
C119 C 0.52857 0.45899 0.55984 0.0
C120 C 0.5487 0.49182 0.56908 0.0
C121 C 0.6017 0.60035 0.56721 0.0
C122 C 0.62791 0.63939 0.56963 0.0
C123 C 0.62147 0.66729 0.56301 0.0
C124 C 0.58859 0.65645 0.55391 0.0
C125 C 0.56206 0.61722 0.55178 0.0
C126 C 0.56846 0.58942 0.55846 0.0
C127 C 0.59484 0.55647 0.59574 0.0
C128 C 0.61269 0.54406 0.60632 0.0
C129 C 0.60028 0.5365 0.62178 0.0
C130 C 0.56946 0.5408 0.62688 0.0
C131 C 0.55123 0.55265 0.61614 0.0
C132 C 0.5638 0.56037 0.60068 0.0
P133 P 0.08311 0.6493 0.90241 0.0
H134 H 0.12961 0.6668 0.87441 0.0
H135 H 0.15302 0.63075 0.85947 0.0
H136 H 0.10133 0.53871 0.89301 0.0
H137 H 0.0777 0.57461 0.90772 0.0
H138 H 0.04029 0.68978 0.90305 0.0
H139 H 0.97922 0.67588 0.89139 0.0
H140 H 0.96792 0.57288 0.8704 0.0
H141 H 0.02879 0.58703 0.88192 0.0
H142 H 0.12749 0.68146 0.93096 0.0
H143 H 0.01791 0.58514 0.91796 0.0
O144 O 0.11442 0.69631 0.90151 0.0
H145 H 0.1144 0.66251 0.95829 0.0
H146 H 0.00505 0.56514 0.94518 0.0
C147 C 0.1028 0.62384 0.89236 0.0
C148 C 0.12374 0.63905 0.87862 0.0
C149 C 0.13698 0.61839 0.87008 0.0
C150 C 0.12904 0.58191 0.87508 0.0
C151 C 0.10757 0.56656 0.88877 0.0
C152 C 0.09448 0.58733 0.89732 0.0
C153 C 0.03942 0.63991 0.89309 0.0
C154 C 0.02481 0.66447 0.89578 0.0
C155 C 0.98985 0.65636 0.88921 0.0
C156 C 0.96893 0.62342 0.8799 0.0
C157 C 0.98373 0.59886 0.87727 0.0
C158 C 0.01857 0.60692 0.88389 0.0
C159 C 0.07338 0.6351 0.92251 0.0
C160 C 0.1006 0.6562 0.934 0.0
C161 C 0.0932 0.64509 0.94962 0.0
C162 C 0.05859 0.61231 0.95397 0.0
C163 C 0.03165 0.59092 0.9423 0.0
C164 C 0.03901 0.60224 0.92672 0.0
P165 P 0.05108 0.46797 0.41929 0.0
H166 H 0.11214 0.50096 0.44248 0.0
H167 H 0.14195 0.56155 0.45699 0.0
H168 H 0.06635 0.59326 0.43438 0.0
H169 H 0.03682 0.53278 0.4198 0.0
H170 H 0.02159 0.38732 0.42712 0.0
H171 H 0.96354 0.33964 0.44056 0.0
H172 H 0.9283 0.42395 0.44654 0.0
H173 H 0.98679 0.47186 0.43349 0.0
H174 H 0.09381 0.48199 0.39031 0.0
H175 H 0.98657 0.4715 0.40491 0.0
O176 O 0.08212 0.45203 0.41869 0.0
H177 H 0.08195 0.49417 0.3637 0.0
H178 H 0.97532 0.48554 0.37852 0.0
C179 C 0.07279 0.51269 0.42984 0.0
C180 C 0.10214 0.52103 0.44055 0.0
C181 C 0.11912 0.55561 0.44885 0.0
C182 C 0.10655 0.58212 0.44674 0.0
C183 C 0.07645 0.57324 0.43628 0.0
C184 C 0.05977 0.5388 0.42786 0.0
C185 C 0.00858 0.43318 0.42932 0.0
C186 C 0.00159 0.3957 0.43143 0.0
C187 C 0.96852 0.36851 0.43914 0.0
C188 C 0.94162 0.37826 0.44457 0.0
C189 C 0.94859 0.41576 0.44238 0.0
C190 C 0.98199 0.4431 0.43493 0.0
C191 C 0.04083 0.47519 0.39958 0.0
C192 C 0.06763 0.48222 0.38779 0.0
C193 C 0.061 0.48968 0.37258 0.0
C194 C 0.02769 0.49101 0.36891 0.0
C195 C 0.00096 0.48413 0.38083 0.0
C196 C 0.00745 0.47621 0.396 0.0
P197 P 0.60798 0.06673 0.75989 0.0
H198 H 0.62119 0.12722 0.78234 0.0
H199 H 0.57872 0.14768 0.79367 0.0
H200 H 0.48217 0.05401 0.77008 0.0
H201 H 0.52514 0.03452 0.75842 0.0
H202 H 0.65538 0.05222 0.78143 0.0
H203 H 0.64608 0.99388 0.7941 0.0
H204 H 0.53597 0.92864 0.77143 0.0
H205 H 0.54583 0.98691 0.75859 0.0
H206 H 0.58859 0.10964 0.73824 0.0
H207 H 0.60462 0.01152 0.73627 0.0
O208 O 0.65335 0.10198 0.76193 0.0
H209 H 0.57121 0.1011 0.71068 0.0
H210 H 0.58733 0.00286 0.70861 0.0
C211 C 0.57634 0.07969 0.76941 0.0
C212 C 0.59086 0.11098 0.77969 0.0
C213 C 0.56644 0.12241 0.78627 0.0
C214 C 0.52701 0.10251 0.78275 0.0
C215 C 0.51243 0.07024 0.77287 0.0
C216 C 0.53692 0.05892 0.76628 0.0
C217 C 0.6016 0.02369 0.76886 0.0
C218 C 0.62938 0.0253 0.7791 0.0
C219 C 0.62388 0.99201 0.78645 0.0
C220 C 0.59037 0.95663 0.7837 0.0
C221 C 0.56236 0.95534 0.77358 0.0
C222 C 0.56788 0.98864 0.76629 0.0
C223 C 0.59675 0.06054 0.73941 0.0
C224 C 0.58827 0.08617 0.73188 0.0
C225 C 0.57862 0.08144 0.7161 0.0
C226 C 0.57761 0.05111 0.70751 0.0
C227 C 0.58718 0.02606 0.71501 0.0
C228 C 0.59706 0.03098 0.73081 0.0
P229 P 0.4456 0.38333 0.09439 0.0
H230 H 0.47887 0.36817 0.12159 0.0
H231 H 0.53951 0.40652 0.13545 0.0
H232 H 0.57242 0.4982 0.10224 0.0
H233 H 0.51154 0.45986 0.08856 0.0
H234 H 0.36214 0.34036 0.09516 0.0
H235 H 0.31461 0.35341 0.10715 0.0
H236 H 0.40605 0.46036 0.12564 0.0
H237 H 0.45311 0.44708 0.11381 0.0
H238 H 0.4747 0.36092 0.06771 0.0
H239 H 0.4267 0.43379 0.07652 0.0
O240 O 0.43118 0.33672 0.09592 0.0
H241 H 0.48072 0.37722 0.04001 0.0
H242 H 0.43297 0.45053 0.04891 0.0
C243 C 0.49129 0.41077 0.10382 0.0
C244 C 0.49935 0.39636 0.11721 0.0
C245 C 0.53392 0.41833 0.12514 0.0
C246 C 0.56077 0.4553 0.11989 0.0
C247 C 0.55218 0.46994 0.10662 0.0
C248 C 0.51764 0.44784 0.09867 0.0
C249 C 0.41107 0.39231 0.10386 0.0
C250 C 0.37185 0.36638 0.10195 0.0
C251 C 0.34479 0.37399 0.10871 0.0
C252 C 0.35665 0.40778 0.11743 0.0
C253 C 0.39605 0.43373 0.11925 0.0
C254 C 0.42302 0.42617 0.11244 0.0
C255 C 0.4495 0.39545 0.07407 0.0
C256 C 0.46535 0.38032 0.06366 0.0
C257 C 0.46906 0.38993 0.04787 0.0
C258 C 0.45713 0.41503 0.04226 0.0
C259 C 0.4418 0.43061 0.05283 0.0
C260 C 0.43823 0.42107 0.06862 0.0
H261 H 0.09933 0.47436 0.17803 0.0
H262 H 0.14733 0.45498 0.17425 0.0
H263 H 0.19413 0.53203 0.1352 0.0
H264 H 0.14686 0.55219 0.13905 0.0
H265 H 0.15544 0.41996 0.14868 0.0
H266 H 0.28998 0.55689 0.15943 0.0
H267 H 0.24357 0.54961 0.16495 0.0
H268 H 0.26023 0.56175 0.14518 0.0
C269 C 0.12014 0.48758 0.16876 0.0
C270 C 0.11925 0.51485 0.15884 0.0
C271 C 0.14753 0.47645 0.16662 0.0
C272 C 0.17458 0.49245 0.15458 0.0
C273 C 0.1741 0.52001 0.1448 0.0
H274 H 0.29232 0.40007 0.10357 0.0
H275 H 0.24733 0.41819 0.11421 0.0
C276 C 0.14686 0.53131 0.14696 0.0
C277 C 0.20148 0.47832 0.15149 0.0
H278 H 0.29601 0.50807 0.14566 0.0
C279 C 0.18622 0.43912 0.14821 0.0
C280 C 0.24164 0.50326 0.15113 0.0
C281 C 0.25986 0.54514 0.15552 0.0
C282 C 0.20996 0.42446 0.14392 0.0
C283 C 0.24988 0.44986 0.14258 0.0
C284 C 0.26531 0.48874 0.14651 0.0
C285 C 0.276 0.43704 0.13652 0.0
C286 C 0.19205 0.38194 0.14084 0.0
C287 C 0.30736 0.44223 0.14544 0.0
C288 C 0.33321 0.43208 0.13936 0.0
C289 C 0.32818 0.41668 0.12422 0.0
C290 C 0.29654 0.41121 0.11537 0.0
C291 C 0.2708 0.42151 0.12144 0.0
H292 H 0.16412 0.36534 0.14694 0.0
H293 H 0.1867 0.37643 0.12815 0.0
H294 H 0.21125 0.37116 0.14461 0.0
H295 H 0.31192 0.45432 0.15708 0.0
H296 H 0.35718 0.43632 0.14649 0.0
H297 H 0.62319 0.14556 0.51688 0.0
H298 H 0.68888 0.19571 0.5108 0.0
H299 H 0.68199 0.14062 0.46666 0.0
H300 H 0.6173 0.08973 0.47295 0.0
H301 H 0.7494 0.16481 0.47943 0.0
H302 H 0.71602 0.28277 0.48165 0.0
H303 H 0.70706 0.25718 0.49965 0.0
H304 H 0.67929 0.23291 0.48261 0.0
C305 C 0.63583 0.1441 0.50593 0.0
C306 C 0.61501 0.11384 0.49536 0.0
C307 C 0.67324 0.1729 0.50241 0.0
C308 C 0.69005 0.17242 0.48811 0.0
C309 C 0.6696 0.14168 0.47775 0.0
H310 H 0.86873 0.35912 0.43709 0.0
H311 H 0.8092 0.30917 0.44883 0.0
C312 C 0.63257 0.11259 0.48136 0.0
C313 C 0.72866 0.20398 0.48366 0.0
H314 H 0.7805 0.30046 0.47702 0.0
C315 C 0.75626 0.19451 0.47894 0.0
C316 C 0.73739 0.24266 0.48285 0.0
C317 C 0.70829 0.25453 0.48681 0.0
C318 C 0.792 0.2224 0.47308 0.0
C319 C 0.80095 0.26117 0.4725 0.0
C320 C 0.77368 0.27078 0.47757 0.0
C321 C 0.83736 0.29185 0.46574 0.0
C322 C 0.81897 0.20964 0.46693 0.0
C323 C 0.873 0.29908 0.47146 0.0
C324 C 0.90699 0.32713 0.46456 0.0
C325 C 0.90586 0.34907 0.45211 0.0
C326 C 0.87029 0.34266 0.44672 0.0
C327 C 0.83634 0.31417 0.45342 0.0
H328 H 0.80367 0.17841 0.46422 0.0
H329 H 0.83381 0.22557 0.45621 0.0
H330 H 0.84093 0.21521 0.47591 0.0
H331 H 0.87456 0.28304 0.48124 0.0
H332 H 0.93417 0.33198 0.46903 0.0
H333 H 0.49581 0.63165 0.8516 0.0
H334 H 0.51022 0.69762 0.84717 0.0
H335 H 0.58508 0.70824 0.80915 0.0
H336 H 0.5716 0.64293 0.81363 0.0
H337 H 0.61437 0.77393 0.82771 0.0
H338 H 0.46365 0.72262 0.8098 0.0
H339 H 0.46981 0.70893 0.82901 0.0
H340 H 0.48216 0.69045 0.81224 0.0
C341 C 0.51569 0.64818 0.84241 0.0
C342 C 0.53218 0.63181 0.83285 0.0
C343 C 0.52374 0.68579 0.83986 0.0
C344 C 0.54814 0.70747 0.82765 0.0
C345 C 0.56604 0.69189 0.8186 0.0
H346 H 0.56257 0.88585 0.77041 0.0
H347 H 0.55279 0.82707 0.78276 0.0
C348 C 0.55818 0.65446 0.82117 0.0
C349 C 0.55356 0.74554 0.82357 0.0
H350 H 0.50676 0.78901 0.80851 0.0
C351 C 0.59084 0.77742 0.82367 0.0
C352 C 0.52278 0.74974 0.81813 0.0
C353 C 0.48236 0.71614 0.81713 0.0
C354 C 0.59832 0.81328 0.81814 0.0
C355 C 0.56757 0.81734 0.81259 0.0
C356 C 0.53019 0.78572 0.81285 0.0
C357 C 0.57379 0.85331 0.80537 0.0
C358 C 0.63921 0.84603 0.81763 0.0
C359 C 0.5886 0.88745 0.81405 0.0
C360 C 0.59417 0.92113 0.80702 0.0
C361 C 0.58472 0.92108 0.79123 0.0
C362 C 0.56968 0.88671 0.78263 0.0
C363 C 0.56422 0.85316 0.78965 0.0
H364 H 0.66012 0.83609 0.81938 0.0
H365 H 0.6454 0.86127 0.8063 0.0
H366 H 0.64363 0.86693 0.82701 0.0
H367 H 0.59549 0.88795 0.82627 0.0
H368 H 0.60529 0.94704 0.81399 0.0
H369 H 0.90438 0.60183 0.17928 0.0
H370 H 0.84507 0.6047 0.177 0.0
H371 H 0.81802 0.53994 0.13407 0.0
H372 H 0.87671 0.53751 0.13606 0.0
H373 H 0.80268 0.60069 0.13326 0.0
H374 H 0.74042 0.50806 0.18566 0.0
H375 H 0.78482 0.55277 0.18764 0.0
H376 H 0.7835 0.51424 0.17654 0.0
C377 C 0.88598 0.58872 0.16926 0.0
C378 C 0.89498 0.56897 0.15797 0.0
C379 C 0.8521 0.59026 0.16802 0.0
C380 C 0.82701 0.57214 0.15546 0.0
C381 C 0.837 0.55413 0.14386 0.0
H382 H 0.60765 0.42956 0.13005 0.0
H383 H 0.6712 0.46689 0.14159 0.0
C384 C 0.87052 0.55255 0.14508 0.0
C385 C 0.78873 0.56857 0.15458 0.0
H386 H 0.69794 0.51219 0.16843 0.0
C387 C 0.77978 0.5823 0.14116 0.0
C388 C 0.7591 0.54457 0.16497 0.0
C389 C 0.76712 0.52882 0.17951 0.0
C390 C 0.74161 0.56957 0.13702 0.0
C391 C 0.7118 0.54307 0.14678 0.0
C392 C 0.72096 0.53238 0.16097 0.0
C393 C 0.67171 0.5209 0.1412 0.0
C394 C 0.73347 0.58178 0.12155 0.0
C395 C 0.65063 0.5388 0.13737 0.0
C396 C 0.61422 0.51745 0.13066 0.0
C397 C 0.59826 0.47784 0.12785 0.0
C398 C 0.61897 0.4599 0.13222 0.0
C399 C 0.65531 0.48122 0.13881 0.0
H400 H 0.75986 0.59855 0.1145 0.0
H401 H 0.71286 0.55629 0.11467 0.0
H402 H 0.72039 0.59995 0.12361 0.0
H403 H 0.66253 0.56927 0.13936 0.0
H404 H 0.59861 0.53189 0.12761 0.0
H405 H 0.32577 0.92295 0.47488 0.0
H406 H 0.26771 0.86196 0.47001 0.0
H407 H 0.26043 0.83424 0.51892 0.0
H408 H 0.32006 0.89458 0.52368 0.0
H409 H 0.25843 0.77999 0.50354 0.0
H410 H 0.15576 0.81088 0.47449 0.0
H411 H 0.20049 0.83598 0.46437 0.0
H412 H 0.19747 0.8479 0.48446 0.0
C413 C 0.31117 0.90443 0.48469 0.0
C414 C 0.32761 0.91335 0.49964 0.0
C415 C 0.27765 0.86956 0.48191 0.0
C416 C 0.25926 0.84345 0.49411 0.0
C417 C 0.27405 0.85383 0.5093 0.0
H418 H 0.07302 0.61691 0.46256 0.0
H419 H 0.10541 0.67861 0.47653 0.0
C420 C 0.3081 0.88832 0.51202 0.0
C421 C 0.22909 0.80332 0.49053 0.0
H422 H 0.15235 0.75021 0.46674 0.0
C423 C 0.23467 0.77351 0.49581 0.0
C424 C 0.19748 0.79432 0.48069 0.0
C425 C 0.18728 0.82405 0.47586 0.0
C426 C 0.21142 0.73566 0.49064 0.0
C427 C 0.18272 0.72756 0.4794 0.0
C428 C 0.17506 0.75662 0.47505 0.0
C429 C 0.16268 0.69009 0.47117 0.0
C430 C 0.21849 0.70491 0.49705 0.0
C431 C 0.18411 0.6765 0.46328 0.0
C432 C 0.16579 0.64134 0.45547 0.0
C433 C 0.12562 0.61936 0.45512 0.0
C434 C 0.10406 0.63336 0.46266 0.0
C435 C 0.12248 0.66847 0.47065 0.0
H436 H 0.23016 0.7121 0.50909 0.0
H437 H 0.19183 0.67645 0.4972 0.0
H438 H 0.24006 0.70286 0.48969 0.0
H439 H 0.21512 0.6933 0.46305 0.0
H440 H 0.18307 0.63161 0.44947 0.0
H441 H 0.47323 0.34025 0.84439 0.0
H442 H 0.46558 0.27867 0.83641 0.0
H443 H 0.39016 0.27069 0.79921 0.0
H444 H 0.39816 0.33296 0.80693 0.0
H445 H 0.40326 0.20273 0.83098 0.0
H446 H 0.48282 0.27541 0.77678 0.0
H447 H 0.47967 0.30191 0.79317 0.0
H448 H 0.43912 0.2757 0.78055 0.0
C449 C 0.45449 0.32523 0.83465 0.0
C450 C 0.43695 0.34196 0.82609 0.0
C451 C 0.44998 0.28987 0.83017 0.0
C452 C 0.42788 0.27055 0.81706 0.0
C453 C 0.40784 0.28556 0.80922 0.0
H454 H 0.47098 0.10721 0.76671 0.0
H455 H 0.43567 0.13883 0.77501 0.0
C456 C 0.41239 0.32108 0.81368 0.0
C457 C 0.42998 0.23744 0.81071 0.0
H458 H 0.47207 0.21387 0.78152 0.0
C459 C 0.41766 0.20475 0.82002 0.0
C460 C 0.44878 0.24024 0.79642 0.0
C461 C 0.46365 0.27522 0.78614 0.0
C462 C 0.42502 0.17537 0.81569 0.0
C463 C 0.44579 0.17929 0.80185 0.0
C464 C 0.45611 0.21092 0.79213 0.0
C465 C 0.46112 0.15365 0.798 0.0
C466 C 0.41117 0.14088 0.82612 0.0
C467 C 0.48662 0.15085 0.80828 0.0
C468 C 0.50665 0.13254 0.80362 0.0
C469 C 0.50188 0.11706 0.78851 0.0
C470 C 0.47502 0.11841 0.77848 0.0
C471 C 0.4549 0.13661 0.78318 0.0
H472 H 0.3851 0.13538 0.83267 0.0
H473 H 0.40467 0.11472 0.81934 0.0
H474 H 0.43381 0.14642 0.83477 0.0
H475 H 0.49258 0.16455 0.81963 0.0
H476 H 0.52678 0.13158 0.81167 0.0
H477 H 0.54129 0.92197 0.48915 0.0
H478 H 0.55851 0.87267 0.49396 0.0
H479 H 0.4774 0.82834 0.53187 0.0
H480 H 0.45948 0.87685 0.52702 0.0
H481 H 0.58961 0.86299 0.52059 0.0
H482 H 0.45164 0.73138 0.50775 0.0
H483 H 0.46157 0.77852 0.50192 0.0
H484 H 0.44636 0.76209 0.52153 0.0
C485 C 0.52676 0.90143 0.49839 0.0
C486 C 0.49895 0.90333 0.50768 0.0
C487 C 0.53667 0.87332 0.50112 0.0
C488 C 0.51883 0.84654 0.51312 0.0
C489 C 0.49086 0.84815 0.52231 0.0
H490 H 0.59718 0.72187 0.56745 0.0
H491 H 0.58293 0.76882 0.55602 0.0
C492 C 0.48084 0.87611 0.51957 0.0
C493 C 0.53109 0.81845 0.51676 0.0
H494 H 0.49703 0.72307 0.52285 0.0
C495 C 0.56951 0.83234 0.52089 0.0
C496 C 0.50495 0.77848 0.51691 0.0
C497 C 0.46392 0.76168 0.51163 0.0
C498 C 0.58212 0.80739 0.52584 0.0
C499 C 0.55538 0.76768 0.52697 0.0
C500 C 0.51737 0.75362 0.52217 0.0
C501 C 0.56585 0.74031 0.53357 0.0
C502 C 0.6239 0.82383 0.52985 0.0
C503 C 0.56028 0.70836 0.52484 0.0
C504 C 0.56815 0.68138 0.53138 0.0
C505 C 0.58162 0.68584 0.54679 0.0
C506 C 0.58743 0.71802 0.55547 0.0
C507 C 0.57939 0.74489 0.54895 0.0
H508 H 0.64217 0.85166 0.52389 0.0
H509 H 0.6278 0.82909 0.5426 0.0
H510 H 0.63404 0.80369 0.52658 0.0
H511 H 0.5497 0.70425 0.51298 0.0
H512 H 0.56375 0.65704 0.52437 0.0
H513 H 0.64653 0.55879 0.81935 0.0
H514 H 0.71376 0.57828 0.82368 0.0
H515 H 0.68073 0.49608 0.86093 0.0
H516 H 0.61344 0.47583 0.85653 0.0
H517 H 0.75452 0.61002 0.85008 0.0
H518 H 0.75446 0.47553 0.83627 0.0
H519 H 0.71551 0.48307 0.83087 0.0
H520 H 0.71858 0.4685 0.85037 0.0
C521 C 0.65349 0.54448 0.82834 0.0
C522 C 0.62458 0.51572 0.8376 0.0
C523 C 0.69193 0.55567 0.83079 0.0
C524 C 0.70216 0.53828 0.84248 0.0
C525 C 0.67339 0.50924 0.8516 0.0
H526 H 0.91074 0.62714 0.89456 0.0
H527 H 0.84745 0.60869 0.88411 0.0
C528 C 0.63493 0.49788 0.84912 0.0
C529 C 0.74304 0.55237 0.84593 0.0
H530 H 0.80835 0.52308 0.85083 0.0
C531 C 0.76644 0.59113 0.85007 0.0
C532 C 0.75864 0.5278 0.84568 0.0
C533 C 0.73559 0.48651 0.8404 0.0
C534 C 0.80469 0.60568 0.85456 0.0
C535 C 0.81959 0.58056 0.85522 0.0
C536 C 0.79667 0.54216 0.85049 0.0
C537 C 0.85846 0.5932 0.86127 0.0
C538 C 0.82874 0.64778 0.85855 0.0
C539 C 0.88534 0.58991 0.85197 0.0
C540 C 0.92147 0.60027 0.85794 0.0
C541 C 0.93125 0.61396 0.87332 0.0
C542 C 0.90428 0.61736 0.88257 0.0
C543 C 0.86814 0.60687 0.87662 0.0
H544 H 0.8173 0.66485 0.853 0.0
H545 H 0.82838 0.65154 0.87136 0.0
H546 H 0.85896 0.65949 0.85481 0.0
H547 H 0.87832 0.57927 0.84011 0.0
H548 H 0.94179 0.59762 0.8505 0.0
H549 H 0.13586 0.69465 0.14586 0.0
H550 H 0.19639 0.75156 0.15315 0.0
H551 H 0.15407 0.74549 0.19988 0.0
H552 H 0.09302 0.68928 0.19257 0.0
H553 H 0.20482 0.82159 0.18983 0.0
H554 H 0.26299 0.72381 0.17982 0.0
H555 H 0.24103 0.73149 0.1631 0.0
H556 H 0.2123 0.70696 0.17983 0.0
C557 C 0.13904 0.70611 0.15756 0.0
C558 C 0.11003 0.68709 0.16874 0.0
C559 C 0.17364 0.73855 0.16171 0.0
C560 C 0.17999 0.75197 0.17715 0.0
C561 C 0.14976 0.73537 0.18792 0.0
H562 H 0.38269 0.84081 0.23172 0.0
H563 H 0.31901 0.80624 0.21996 0.0
C564 C 0.11489 0.70323 0.18372 0.0
C565 C 0.21927 0.77909 0.18267 0.0
H566 H 0.30609 0.78598 0.18871 0.0
C567 C 0.22715 0.81408 0.18948 0.0
C568 C 0.24805 0.76877 0.18241 0.0
C569 C 0.24074 0.73061 0.17603 0.0
C570 C 0.26309 0.83892 0.19621 0.0
C571 C 0.29173 0.82848 0.19592 0.0
C572 C 0.28401 0.79387 0.18884 0.0
C573 C 0.32919 0.85144 0.20376 0.0
C574 C 0.26971 0.87534 0.20407 0.0
C575 C 0.3559 0.88844 0.19861 0.0
C576 C 0.39243 0.90829 0.20532 0.0
C577 C 0.40282 0.89118 0.21715 0.0
C578 C 0.37569 0.85445 0.22246 0.0
C579 C 0.33926 0.83479 0.21582 0.0
H580 H 0.24252 0.87549 0.20594 0.0
H581 H 0.28411 0.87921 0.21551 0.0
H582 H 0.28872 0.90027 0.19666 0.0
H583 H 0.3489 0.90148 0.18911 0.0
H584 H 0.41292 0.93645 0.20092 0.0
H585 H 0.46962 0.14314 0.5281 0.0
H586 H 0.46444 0.20048 0.53008 0.0
H587 H 0.41076 0.17697 0.4848 0.0
H588 H 0.4161 0.11885 0.48264 0.0
H589 H 0.47282 0.25076 0.48772 0.0
H590 H 0.3763 0.21994 0.53783 0.0
H591 H 0.41183 0.20723 0.54242 0.0
H592 H 0.37813 0.18239 0.52689 0.0
C593 C 0.45619 0.1497 0.51861 0.0
C594 C 0.44346 0.12656 0.50516 0.0
C595 C 0.45283 0.18233 0.51985 0.0
C596 C 0.43657 0.19261 0.50772 0.0
C597 C 0.42294 0.16918 0.49438 0.0
H598 H 0.46803 0.41413 0.5385 0.0
H599 H 0.43375 0.35188 0.52511 0.0
C600 C 0.42601 0.13608 0.49317 0.0
C601 C 0.43854 0.23025 0.50857 0.0
H602 H 0.42783 0.28719 0.53521 0.0
C603 C 0.46196 0.2586 0.49783 0.0
C604 C 0.42361 0.24038 0.52151 0.0
C605 C 0.3957 0.21068 0.5327 0.0
C606 C 0.47445 0.29746 0.5007 0.0
C607 C 0.46381 0.30803 0.5148 0.0
C608 C 0.43674 0.27925 0.52456 0.0
C609 C 0.48458 0.34796 0.52082 0.0
C610 C 0.50044 0.3269 0.48898 0.0
C611 C 0.52447 0.36639 0.52285 0.0
C612 C 0.54402 0.40171 0.53051 0.0
C613 C 0.52402 0.41918 0.53649 0.0
C614 C 0.48415 0.40116 0.53415 0.0
C615 C 0.46458 0.36578 0.52641 0.0
H616 H 0.49337 0.31501 0.47695 0.0
H617 H 0.49831 0.35332 0.48957 0.0
H618 H 0.53055 0.33471 0.49135 0.0
H619 H 0.54038 0.35264 0.51915 0.0
H620 H 0.57459 0.41448 0.53237 0.0
H621 H 0.35776 0.49029 0.86017 0.0
H622 H 0.29749 0.48976 0.86193 0.0
H623 H 0.26624 0.4398 0.81591 0.0
H624 H 0.32748 0.44062 0.81393 0.0
H625 H 0.25932 0.50377 0.81931 0.0
H626 H 0.18732 0.40686 0.86861 0.0
H627 H 0.23601 0.44041 0.87375 0.0
H628 H 0.22608 0.40676 0.85802 0.0
C629 C 0.33796 0.47863 0.85046 0.0
C630 C 0.34754 0.46568 0.83686 0.0
C631 C 0.30322 0.47793 0.85158 0.0
C632 C 0.27703 0.46406 0.83918 0.0
C633 C 0.28591 0.45017 0.82569 0.0
H634 H 0.09188 0.50516 0.8678 0.0
H635 H 0.11904 0.46938 0.85517 0.0
C636 C 0.32084 0.45066 0.82458 0.0
C637 C 0.24294 0.46874 0.83996 0.0
H638 H 0.17559 0.46093 0.86605 0.0
C639 C 0.24014 0.49346 0.82926 0.0
C640 C 0.21725 0.45456 0.85269 0.0
C641 C 0.21657 0.42531 0.8638 0.0
C642 C 0.21522 0.50769 0.83194 0.0
C643 C 0.19333 0.49753 0.84582 0.0
C644 C 0.193 0.46947 0.85557 0.0
C645 C 0.17506 0.51929 0.85157 0.0
C646 C 0.21388 0.53477 0.82021 0.0
C647 C 0.19753 0.55917 0.85377 0.0
C648 C 0.18218 0.57958 0.86097 0.0
C649 C 0.14415 0.56046 0.86634 0.0
C650 C 0.12141 0.52061 0.8639 0.0
C651 C 0.13677 0.50018 0.85661 0.0
H652 H 0.21898 0.52768 0.80823 0.0
H653 H 0.18589 0.53382 0.82046 0.0
H654 H 0.23695 0.56451 0.82287 0.0
H655 H 0.22751 0.57438 0.85049 0.0
H656 H 0.20062 0.61012 0.86292 0.0
H657 H 0.94143 0.38905 0.18336 0.0
H658 H 0.89039 0.32407 0.18897 0.0
H659 H 0.82004 0.3329 0.15331 0.0
H660 H 0.87091 0.39863 0.14776 0.0
H661 H 0.78255 0.30864 0.18083 0.0
H662 H 0.85081 0.2228 0.16641 0.0
H663 H 0.88006 0.26183 0.17932 0.0
H664 H 0.87016 0.27173 0.15997 0.0
C665 C 0.91539 0.3771 0.1765 0.0
C666 C 0.91026 0.39917 0.16512 0.0
C667 C 0.8863 0.33973 0.17966 0.0
C668 C 0.85164 0.32342 0.1714 0.0
C669 C 0.84672 0.34491 0.15974 0.0
H670 H 0.67514 0.08582 0.19121 0.0
H671 H 0.72127 0.14416 0.17752 0.0
C672 C 0.87583 0.38243 0.15658 0.0
C673 C 0.81948 0.28546 0.17607 0.0
H674 H 0.79691 0.19351 0.18403 0.0
C675 C 0.78544 0.28329 0.18129 0.0
C676 C 0.82306 0.25229 0.17648 0.0
C677 C 0.85787 0.25214 0.17008 0.0
C678 C 0.75564 0.24933 0.18765 0.0
C679 C 0.76041 0.217 0.18911 0.0
C680 C 0.79358 0.21854 0.18314 0.0
C681 C 0.73193 0.18182 0.19728 0.0
C682 C 0.71948 0.24854 0.19285 0.0
C683 C 0.72308 0.18363 0.21299 0.0
C684 C 0.6965 0.15047 0.22079 0.0
C685 C 0.67855 0.11476 0.21308 0.0
C686 C 0.68796 0.11297 0.1974 0.0
C687 C 0.71448 0.1462 0.18959 0.0
H688 H 0.71547 0.27042 0.18664 0.0
H689 H 0.69383 0.21985 0.19083 0.0
H690 H 0.72145 0.2551 0.20551 0.0
H691 H 0.73688 0.21072 0.21924 0.0
H692 H 0.68972 0.15292 0.23282 0.0
H693 H 0.075 0.58269 0.10028 0.0
H694 H 0.07767 0.58773 0.07187 0.0
H695 H 0.95434 0.52146 0.0696 0.0
H696 H 0.95118 0.51598 0.09809 0.0
H697 H 0.03891 0.52 0.04855 0.0
H698 H 0.9925 0.62904 0.04611 0.0
H699 H 0.01418 0.62244 0.06335 0.0
H700 H 0.96591 0.58743 0.05823 0.0
C701 C 0.04837 0.56909 0.09378 0.0
C702 C 0.01284 0.54905 0.10148 0.0
C703 C 0.05001 0.57193 0.07755 0.0
C704 C 0.01621 0.55515 0.06874 0.0
C705 C 0.98069 0.53475 0.07628 0.0
H706 H 0.99033 0.58387 0.96961 0.0
H707 H 0.97749 0.56553 0.99703 0.0
C708 C 0.97899 0.53161 0.09254 0.0
C709 C 0.01838 0.55967 0.05163 0.0
H710 H 0.00757 0.61042 0.02235 0.0
C711 C 0.03186 0.53956 0.04275 0.0
C712 C 0.0089 0.58501 0.04421 0.0
C713 C 0.99469 0.60747 0.05339 0.0
C714 C 0.0364 0.54437 0.02654 0.0
C715 C 0.02825 0.57082 0.01915 0.0
C716 C 0.01391 0.59025 0.02804 0.0
C717 C 0.03563 0.57987 0.00232 0.0
C718 C 0.04953 0.5208 0.01751 0.0
C719 C 0.07263 0.59421 0.99621 0.0
C720 C 0.07997 0.60422 0.98049 0.0
C721 C 0.05055 0.60065 0.97061 0.0
C722 C 0.01352 0.58641 0.97681 0.0
C723 C 0.00617 0.57616 0.99251 0.0
H724 H 0.04253 0.49396 0.02377 0.0
H725 H 0.0362 0.5131 0.00576 0.0
H726 H 0.08112 0.5377 0.01607 0.0
H727 H 0.09603 0.5982 0.00364 0.0
H728 H 0.10871 0.61472 0.9761 0.0
H729 H 0.42133 0.01584 0.43806 0.0
H730 H 0.42273 0.01116 0.40954 0.0
H731 H 0.52115 0.99627 0.41284 0.0
H732 H 0.51971 0.00023 0.44112 0.0
H733 H 0.48031 0.05552 0.38819 0.0
H734 H 0.4471 0.90455 0.38641 0.0
H735 H 0.44034 0.92619 0.40371 0.0
H736 H 0.48708 0.93368 0.39889 0.0
C737 C 0.44318 0.01145 0.4327 0.0
C738 C 0.47016 0.00802 0.4419 0.0
C739 C 0.44395 0.00883 0.41642 0.0
C740 C 0.47157 0.0026 0.40912 0.0
C741 C 0.49899 0.0001 0.41826 0.0
H742 H 0.56791 0.04561 0.31746 0.0
H743 H 0.54917 0.04995 0.34423 0.0
C744 C 0.49819 0.00255 0.43445 0.0
C745 C 0.47251 -0.00081 0.39195 0.0
H746 H 0.47546 0.94164 0.36334 0.0
C747 C 0.4787 0.03044 0.38269 0.0
C748 C 0.46964 0.96615 0.38478 0.0
C749 C 0.46026 0.93059 0.39395 0.0
C750 C 0.48408 0.03025 0.36651 0.0
C751 C 0.48409 -0.00167 0.35952 0.0
C752 C 0.47597 0.96636 0.3687 0.0
C753 C 0.4939 0.99776 0.34287 0.0
C754 C 0.48974 0.06427 0.3571 0.0
C755 C 0.46942 0.96669 0.33326 0.0
C756 C 0.48042 0.96382 0.3181 0.0
C757 C 0.51605 0.99207 0.31221 0.0
C758 C 0.54011 0.02369 0.32166 0.0
C759 C 0.52929 0.02631 0.33692 0.0
H760 H 0.47611 0.07918 0.36287 0.0
H761 H 0.52088 0.08517 0.35611 0.0
H762 H 0.47769 0.05553 0.34518 0.0
H763 H 0.44206 0.94426 0.33761 0.0
H764 H 0.46118 0.93933 0.31099 0.0
H765 H 0.43092 0.45402 0.76859 0.0
H766 H 0.43795 0.45686 0.74009 0.0
H767 H 0.55957 0.53387 0.74494 0.0
H768 H 0.55307 0.53144 0.77322 0.0
H769 H 0.47422 0.52813 0.72043 0.0
H770 H 0.54673 0.44203 0.71682 0.0
H771 H 0.5179 0.44 0.73336 0.0
H772 H 0.5659 0.47964 0.73125 0.0
C773 C 0.45916 0.47153 0.76359 0.0
C774 C 0.49144 0.4924 0.77321 0.0
C775 C 0.46307 0.47313 0.74733 0.0
C776 C 0.49933 0.49521 0.74049 0.0
C777 C 0.53143 0.51628 0.75004 0.0
H778 H 0.61402 0.56222 0.65304 0.0
H779 H 0.59306 0.54867 0.68018 0.0
C780 C 0.52757 0.51494 0.76621 0.0
C781 C 0.50414 0.49692 0.72337 0.0
H782 H 0.54988 0.47765 0.69426 0.0
C783 C 0.49024 0.51664 0.7146 0.0
C784 C 0.52512 0.48193 0.71592 0.0
C785 C 0.53955 0.45941 0.72477 0.0
C786 C 0.49842 0.52342 0.69862 0.0
C787 C 0.52045 0.50941 0.69124 0.0
C788 C 0.53316 0.48851 0.69995 0.0
C789 C 0.53249 0.51779 0.67472 0.0
C790 C 0.48499 0.54701 0.68993 0.0
C791 C 0.50536 0.50471 0.66264 0.0
C792 C 0.51729 0.51244 0.64709 0.0
C793 C 0.55656 0.53303 0.64336 0.0
C794 C 0.5836 0.54592 0.65551 0.0
C795 C 0.57166 0.53833 0.67102 0.0
H796 H 0.47594 0.56268 0.69799 0.0
H797 H 0.50796 0.56815 0.6822 0.0
H798 H 0.46005 0.52772 0.68253 0.0
H799 H 0.47502 0.48811 0.66521 0.0
H800 H 0.49581 0.50165 0.63797 0.0
H801 H 0.44445 0.96043 0.5665 0.0
H802 H 0.45662 0.96308 0.59455 0.0
H803 H 0.53437 0.08513 0.59154 0.0
H804 H 0.52228 0.08296 0.56359 0.0
H805 H 0.52928 0.98885 0.6084 0.0
H806 H 0.46449 0.07485 0.62845 0.0
H807 H 0.45373 0.05108 0.6097 0.0
H808 H 0.4975 0.0959 0.61253 0.0
C809 C 0.46377 0.98794 0.57182 0.0
C810 C 0.48237 0.0215 0.56278 0.0
C811 C 0.47072 0.98935 0.58784 0.0
C812 C 0.49604 0.02435 0.59512 0.0
C813 C 0.51419 0.05795 0.58619 0.0
H814 H 0.60011 0.10587 0.68493 0.0
H815 H 0.57912 0.09703 0.65774 0.0
C816 C 0.50738 0.05658 0.57019 0.0
C817 C 0.50533 0.02556 0.61186 0.0
H818 H 0.50486 0.06717 0.64655 0.0
C819 C 0.52361 0.00561 0.61681 0.0
C820 C 0.49793 0.04755 0.62272 0.0
C821 C 0.47702 0.06831 0.61815 0.0
C822 C 0.53595 0.00815 0.63228 0.0
C823 C 0.52913 0.03069 0.6431 0.0
C824 C 0.51017 0.05003 0.6382 0.0
C825 C 0.54227 0.03545 0.65949 0.0
C826 C 0.55736 0.98783 0.63677 0.0
C827 C 0.5284 0.00374 0.66948 0.0
C828 C 0.5404 0.0087 0.68502 0.0
C829 C 0.56615 0.04553 0.69086 0.0
C830 C 0.57998 0.0772 0.6808 0.0
C831 C 0.5681 0.07219 0.66527 0.0
H832 H 0.56836 0.97978 0.62638 0.0
H833 H 0.58186 0.00611 0.64456 0.0
H834 H 0.53769 0.96111 0.64312 0.0
H835 H 0.50782 0.97525 0.66533 0.0
H836 H 0.52879 0.98386 0.69256 0.0
H837 H 0.46559 0.5188 0.89858 0.0
H838 H 0.46183 0.51073 0.92693 0.0
H839 H 0.49112 0.42183 0.92246 0.0
H840 H 0.49472 0.42937 0.89418 0.0
H841 H 0.42651 0.4025 0.94163 0.0
H842 H 0.55235 0.54356 0.95769 0.0
H843 H 0.51791 0.54547 0.94501 0.0
H844 H 0.54495 0.52395 0.93818 0.0
C845 C 0.4714 0.49763 0.90362 0.0
C846 C 0.48052 0.47478 0.89409 0.0
C847 C 0.46942 0.49322 0.91982 0.0
C848 C 0.47662 0.46599 0.92676 0.0
C849 C 0.48562 0.4431 0.91731 0.0
H850 H 0.51714 0.4321 0.02263 0.0
H851 H 0.52104 0.44509 0.99462 0.0
C852 C 0.48769 0.44752 0.90114 0.0
C853 C 0.4737 0.46038 0.94385 0.0
H854 H 0.51448 0.50404 0.97843 0.0
C855 C 0.44566 0.42469 0.94969 0.0
C856 C 0.499 0.48932 0.95428 0.0
C857 C 0.5305 0.52767 0.94853 0.0
C858 C 0.44215 0.41717 0.96574 0.0
C859 C 0.46708 0.44628 0.97619 0.0
C860 C 0.49524 0.48193 0.97036 0.0
C861 C 0.46502 0.43976 0.99321 0.0
C862 C 0.41235 0.37787 0.97138 0.0
C863 C 0.43246 0.43304 0.00169 0.0
C864 C 0.43007 0.42545 0.01765 0.0
C865 C 0.46027 0.42452 0.02542 0.0
C866 C 0.49318 0.43205 0.01693 0.0
C867 C 0.49558 0.43974 0.00097 0.0
H868 H 0.40121 0.35642 0.96175 0.0
H869 H 0.42436 0.36761 0.98058 0.0
H870 H 0.38788 0.37946 0.97648 0.0
H871 H 0.40878 0.4334 0.99592 0.0
H872 H 0.40424 0.41953 0.02385 0.0
H873 H 0.03519 0.50733 0.22354 0.0
H874 H 0.03226 0.50124 0.25179 0.0
H875 H 0.97139 0.56372 0.25456 0.0
H876 H 0.97509 0.57092 0.22611 0.0
H877 H 0.02625 0.58696 0.27678 0.0
H878 H 0.93958 0.4286 0.27689 0.0
H879 H 0.98215 0.44482 0.26543 0.0
H880 H 0.94636 0.45653 0.25956 0.0
C881 C 0.02105 0.51975 0.2301 0.0
C882 C 0.00503 0.53931 0.22254 0.0
C883 C 0.01919 0.516 0.24628 0.0
C884 C 0.00069 0.5311 0.25525 0.0
C885 C 0.98544 0.55149 0.24782 0.0
H886 H 0.95953 0.45997 0.35293 0.0
H887 H 0.94908 0.473 0.32617 0.0
C888 C 0.98761 0.5556 0.23158 0.0
C889 C -0.00179 0.52606 0.27241 0.0
H890 H 0.97406 0.45817 0.30055 0.0
C891 C 0.01434 0.55879 0.28202 0.0
C892 C 0.98183 0.48927 0.27927 0.0
C893 C 0.96112 0.45283 0.26975 0.0
C894 C 0.01642 0.55577 0.29825 0.0
C895 C 0.00295 0.51913 0.30496 0.0
C896 C 0.98496 0.48633 0.29541 0.0
C897 C 0.00879 0.51406 0.32167 0.0
C898 C 0.03305 0.59191 0.308 0.0
C899 C 0.0458 0.53281 0.32809 0.0
C900 C 0.05178 0.52597 0.34348 0.0
C901 C 0.02097 0.49958 0.35273 0.0
C902 C 0.98387 0.48091 0.34627 0.0
C903 C 0.97786 0.48812 0.33092 0.0
H904 H 0.02889 0.61426 0.30228 0.0
H905 H 0.01986 0.58626 0.31977 0.0
H906 H 0.06436 0.6037 0.30932 0.0
H907 H 0.0703 0.55214 0.32109 0.0
H908 H 0.08067 0.54131 0.34809 0.0
loop_
_geom_bond_atom_site_label_1
_geom_bond_atom_site_label_2
_geom_bond_distance
_geom_bond_site_symmetry_2
_ccdc_geom_bond_type
O0 Zn1 1.953 . S
O0 C16 1.225 . S
Zn1 O0 1.953 . S
Zn1 O2 1.949 . S
Zn1 O8 1.919 1_455 S
Zn1 O13 1.924 . S
O2 Zn1 1.949 . S
O2 Zn3 1.923 1_455 S
O2 Zn4 1.950 . S
O2 Zn5 1.945 . S
Zn3 O2 1.923 1_655 S
Zn3 O6 1.933 . S
Zn3 O9 1.941 . S
Zn3 O10 1.965 . S
Zn4 O2 1.950 . S
Zn4 O11 1.938 1_455 S
Zn4 O12 1.906 . S
Zn4 O22 1.953 . S
Zn5 O2 1.945 . S
Zn5 O7 1.932 . S
Zn5 O14 1.977 . S
Zn5 O15 1.910 . S
O6 Zn3 1.933 . S
O6 C17 1.226 1_655 S
O7 Zn5 1.932 . S
O7 C17 1.307 . S
O8 Zn1 1.919 1_655 S
O8 C19 1.253 . S
O9 Zn3 1.941 . S
O9 C19 1.283 . S
O10 Zn3 1.965 . S
O10 C18 1.303 . S
O11 Zn4 1.938 1_655 S
O11 C18 1.247 . S
O12 Zn4 1.906 . S
O12 C20 1.304 . S
O13 Zn1 1.924 . S
O13 C21 1.311 . S
O14 Zn5 1.977 . S
O14 C20 1.272 . S
O15 Zn5 1.910 . S
O15 C21 1.231 . S
C16 O0 1.225 . S
C16 O22 1.298 . S
C17 O6 1.226 1_455 S
C17 O7 1.307 . S
C18 O10 1.303 . S
C18 O11 1.247 . S
C19 O8 1.253 . S
C19 O9 1.283 . S
C20 O12 1.304 . S
C20 O14 1.272 . S
C21 O13 1.311 . S
C21 O15 1.231 . S
O22 Zn4 1.953 . S
O22 C16 1.298 . S
O23 Zn24 1.953 . S
O23 C39 1.225 . S
Zn24 O23 1.953 . S
Zn24 O25 1.949 . S
Zn24 O31 1.919 . S
Zn24 O36 1.924 1_545 S
O25 Zn24 1.949 . S
O25 Zn26 1.923 . S
O25 Zn27 1.950 . S
O25 Zn28 1.945 1_545 S
Zn26 O25 1.923 . S
Zn26 O29 1.933 . S
Zn26 O32 1.941 . S
Zn26 O33 1.965 . S
Zn27 O25 1.950 . S
Zn27 O34 1.938 . S
Zn27 O35 1.906 1_545 S
Zn27 O45 1.953 . S
Zn28 O25 1.945 1_565 S
Zn28 O30 1.932 . S
Zn28 O37 1.977 . S
Zn28 O38 1.910 . S
O29 Zn26 1.933 . S
O29 C40 1.226 . S
O30 Zn28 1.932 . S
O30 C40 1.307 1_565 S
O31 Zn24 1.919 . S
O31 C42 1.253 . S
O32 Zn26 1.941 . S
O32 C42 1.283 . S
O33 Zn26 1.965 . S
O33 C41 1.303 . S
O34 Zn27 1.938 . S
O34 C41 1.247 . S
O35 Zn27 1.906 1_565 S
O35 C43 1.304 . S
O36 Zn24 1.924 1_565 S
O36 C44 1.311 . S
O37 Zn28 1.977 . S
O37 C43 1.272 . S
O38 Zn28 1.910 . S
O38 C44 1.231 . S
C39 O23 1.225 . S
C39 O45 1.298 . S
C40 O29 1.226 . S
C40 O30 1.307 1_545 S
C41 O33 1.303 . S
C41 O34 1.247 . S
C42 O31 1.253 . S
C42 O32 1.283 . S
C43 O35 1.304 . S
C43 O37 1.272 . S
C44 O36 1.311 . S
C44 O38 1.231 . S
O45 Zn27 1.953 . S
O45 C39 1.298 . S
O46 Zn47 1.953 . S
O46 C62 1.225 . S
Zn47 O46 1.953 . S
Zn47 O48 1.949 . S
Zn47 O54 1.919 . S
Zn47 O59 1.924 . S
O48 Zn47 1.949 . S
O48 Zn49 1.923 . S
O48 Zn50 1.950 . S
O48 Zn51 1.945 . S
Zn49 O48 1.923 . S
Zn49 O52 1.933 . S
Zn49 O55 1.941 . S
Zn49 O56 1.965 . S
Zn50 O48 1.950 . S
Zn50 O57 1.938 . S
Zn50 O58 1.906 . S
Zn50 O68 1.953 . S
Zn51 O48 1.945 . S
Zn51 O53 1.932 . S
Zn51 O60 1.977 . S
Zn51 O61 1.910 . S
O52 Zn49 1.933 . S
O52 C63 1.226 . S
O53 Zn51 1.932 . S
O53 C63 1.307 . S
O54 Zn47 1.919 . S
O54 C65 1.253 . S
O55 Zn49 1.941 . S
O55 C65 1.283 . S
O56 Zn49 1.965 . S
O56 C64 1.303 . S
O57 Zn50 1.938 . S
O57 C64 1.247 . S
O58 Zn50 1.906 . S
O58 C66 1.304 . S
O59 Zn47 1.924 . S
O59 C67 1.311 . S
O60 Zn51 1.977 . S
O60 C66 1.272 . S
O61 Zn51 1.910 . S
O61 C67 1.231 . S
C62 O46 1.225 . S
C62 O68 1.298 . S
C63 O52 1.226 . S
C63 O53 1.307 . S
C64 O56 1.303 . S
C64 O57 1.247 . S
C65 O54 1.253 . S
C65 O55 1.283 . S
C66 O58 1.304 . S
C66 O60 1.272 . S
C67 O59 1.311 . S
C67 O61 1.231 . S
O68 Zn50 1.953 . S
O68 C62 1.298 . S
P69 O80 1.490 . S
P69 C83 1.812 . S
P69 C89 1.803 1_565 S
P69 C95 1.819 1_565 S
H70 C84 0.941 . S
H71 C85 0.939 . S
H72 C87 0.940 . S
H73 C88 0.940 . S
H74 C90 0.939 . S
H75 C91 0.942 . S
H76 C93 0.940 . S
H77 C94 0.939 . S
H78 C96 0.941 . S
H79 C100 0.939 . S
O80 P69 1.490 . S
H81 C97 0.939 . S
H82 C99 0.940 . S
C83 P69 1.812 . S
C83 C84 1.389 . S
C83 C88 1.391 . S
C84 H70 0.941 . S
C84 C83 1.389 . S
C84 C85 1.397 . S
C85 H71 0.939 . S
C85 C84 1.397 . S
C85 C86 1.378 . S
C86 C85 1.378 . S
C86 C87 1.378 . S
C87 H72 0.940 . S
C87 C86 1.378 . S
C87 C88 1.396 . S
C88 H73 0.940 . S
C88 C83 1.391 . S
C88 C87 1.396 . S
C89 P69 1.803 1_545 S
C89 C90 1.378 . S
C89 C94 1.400 . S
C90 H74 0.939 . S
C90 C89 1.378 . S
C90 C91 1.361 . S
C91 H75 0.942 . S
C91 C90 1.361 . S
C91 C92 1.369 . S
C92 C91 1.369 . S
C92 C93 1.404 . S
C93 H76 0.940 . S
C93 C92 1.404 . S
C93 C94 1.389 . S
C94 H77 0.939 . S
C94 C89 1.400 . S
C94 C93 1.389 . S
C95 P69 1.819 1_545 S
C95 C96 1.391 1_545 S
C95 C100 1.391 . S
C96 H78 0.941 . S
C96 C95 1.391 1_565 S
C96 C97 1.396 . S
C97 H81 0.939 . S
C97 C96 1.396 . S
C97 C98 1.397 1_565 S
C98 C97 1.397 1_545 S
C98 C99 1.385 . S
C99 H82 0.940 . S
C99 C98 1.385 . S
C99 C100 1.388 . S
C100 H79 0.939 . S
C100 C95 1.391 . S
C100 C99 1.388 . S
P101 O112 1.490 . S
P101 C115 1.812 . S
P101 C121 1.803 . S
P101 C127 1.819 . S
H102 C116 0.941 . S
H103 C117 0.939 . S
H104 C119 0.940 . S
H105 C120 0.940 . S
H106 C122 0.939 . S
H107 C123 0.942 . S
H108 C125 0.940 . S
H109 C126 0.939 . S
H110 C128 0.941 . S
H111 C132 0.939 . S
O112 P101 1.490 . S
H113 C129 0.939 . S
H114 C131 0.940 . S
C115 P101 1.812 . S
C115 C116 1.389 . S
C115 C120 1.391 . S
C116 H102 0.941 . S
C116 C115 1.389 . S
C116 C117 1.397 . S
C117 H103 0.939 . S
C117 C116 1.397 . S
C117 C118 1.378 . S
C118 C117 1.378 . S
C118 C119 1.378 . S
C119 H104 0.940 . S
C119 C118 1.378 . S
C119 C120 1.396 . S
C120 H105 0.940 . S
C120 C115 1.391 . S
C120 C119 1.396 . S
C121 P101 1.803 . S
C121 C122 1.378 . S
C121 C126 1.400 . S
C122 H106 0.939 . S
C122 C121 1.378 . S
C122 C123 1.361 . S
C123 H107 0.942 . S
C123 C122 1.361 . S
C123 C124 1.369 . S
C124 C123 1.369 . S
C124 C125 1.404 . S
C125 H108 0.940 . S
C125 C124 1.404 . S
C125 C126 1.389 . S
C126 H109 0.939 . S
C126 C121 1.400 . S
C126 C125 1.389 . S
C127 P101 1.819 . S
C127 C128 1.391 . S
C127 C132 1.391 . S
C128 H110 0.941 . S
C128 C127 1.391 . S
C128 C129 1.396 . S
C129 H113 0.939 . S
C129 C128 1.396 . S
C129 C130 1.397 . S
C130 C129 1.397 . S
C130 C131 1.385 . S
C131 H114 0.940 . S
C131 C130 1.385 . S
C131 C132 1.388 . S
C132 H111 0.939 . S
C132 C127 1.391 . S
C132 C131 1.388 . S
P133 O144 1.490 . S
P133 C147 1.812 . S
P133 C153 1.803 . S
P133 C159 1.819 . S
H134 C148 0.941 . S
H135 C149 0.939 . S
H136 C151 0.940 . S
H137 C152 0.940 . S
H138 C154 0.939 . S
H139 C155 0.942 . S
H140 C157 0.940 . S
H141 C158 0.939 . S
H142 C160 0.941 . S
H143 C164 0.939 1_655 S
O144 P133 1.490 . S
H145 C161 0.939 . S
H146 C163 0.940 . S
C147 P133 1.812 . S
C147 C148 1.389 . S
C147 C152 1.391 . S
C148 H134 0.941 . S
C148 C147 1.389 . S
C148 C149 1.397 . S
C149 H135 0.939 . S
C149 C148 1.397 . S
C149 C150 1.378 . S
C150 C149 1.378 . S
C150 C151 1.378 . S
C151 H136 0.940 . S
C151 C150 1.378 . S
C151 C152 1.396 . S
C152 H137 0.940 . S
C152 C147 1.391 . S
C152 C151 1.396 . S
C153 P133 1.803 . S
C153 C154 1.378 1_455 S
C153 C158 1.400 1_455 S
C154 H138 0.939 . S
C154 C153 1.378 1_655 S
C154 C155 1.361 . S
C155 H139 0.942 . S
C155 C154 1.361 . S
C155 C156 1.369 . S
C156 C155 1.369 . S
C156 C157 1.404 . S
C157 H140 0.940 . S
C157 C156 1.404 . S
C157 C158 1.389 . S
C158 H141 0.939 . S
C158 C153 1.400 1_655 S
C158 C157 1.389 . S
C159 P133 1.819 . S
C159 C160 1.391 . S
C159 C164 1.391 . S
C160 H142 0.941 . S
C160 C159 1.391 . S
C160 C161 1.396 . S
C161 H145 0.939 . S
C161 C160 1.396 . S
C161 C162 1.397 . S
C162 C161 1.397 . S
C162 C163 1.385 1_455 S
C163 H146 0.940 . S
C163 C162 1.385 1_655 S
C163 C164 1.388 1_655 S
C164 H143 0.939 1_455 S
C164 C159 1.391 . S
C164 C163 1.388 1_455 S
P165 O176 1.490 . S
P165 C179 1.812 . S
P165 C185 1.803 1_455 S
P165 C191 1.819 . S
H166 C180 0.941 . S
H167 C181 0.939 . S
H168 C183 0.940 . S
H169 C184 0.940 . S
H170 C186 0.939 . S
H171 C187 0.942 . S
H172 C189 0.940 . S
H173 C190 0.939 . S
H174 C192 0.941 . S
H175 C196 0.939 . S
O176 P165 1.490 . S
H177 C193 0.939 . S
H178 C195 0.940 . S
C179 P165 1.812 . S
C179 C180 1.389 . S
C179 C184 1.391 . S
C180 H166 0.941 . S
C180 C179 1.389 . S
C180 C181 1.397 . S
C181 H167 0.939 . S
C181 C180 1.397 . S
C181 C182 1.378 . S
C182 C181 1.378 . S
C182 C183 1.378 . S
C183 H168 0.940 . S
C183 C182 1.378 . S
C183 C184 1.396 . S
C184 H169 0.940 . S
C184 C179 1.391 . S
C184 C183 1.396 . S
C185 P165 1.803 1_655 S
C185 C186 1.378 . S
C185 C190 1.400 . S
C186 H170 0.939 . S
C186 C185 1.378 . S
C186 C187 1.361 . S
C187 H171 0.942 . S
C187 C186 1.361 . S
C187 C188 1.369 . S
C188 C187 1.369 . S
C188 C189 1.404 . S
C189 H172 0.940 . S
C189 C188 1.404 . S
C189 C190 1.389 . S
C190 H173 0.939 . S
C190 C185 1.400 . S
C190 C189 1.389 . S
C191 P165 1.819 . S
C191 C192 1.391 . S
C191 C196 1.391 1_455 S
C192 H174 0.941 . S
C192 C191 1.391 . S
C192 C193 1.396 . S
C193 H177 0.939 . S
C193 C192 1.396 . S
C193 C194 1.397 . S
C194 C193 1.397 . S
C194 C195 1.385 1_455 S
C195 H178 0.940 . S
C195 C194 1.385 1_655 S
C195 C196 1.388 . S
C196 H175 0.939 . S
C196 C191 1.391 1_655 S
C196 C195 1.388 . S
P197 O208 1.490 . S
P197 C211 1.812 . S
P197 C217 1.803 1_545 S
P197 C223 1.819 . S
H198 C212 0.941 . S
H199 C213 0.939 . S
H200 C215 0.940 . S
H201 C216 0.940 . S
H202 C218 0.939 . S
H203 C219 0.942 . S
H204 C221 0.940 . S
H205 C222 0.939 . S
H206 C224 0.941 . S
H207 C228 0.939 . S
O208 P197 1.490 . S
H209 C225 0.939 . S
H210 C227 0.940 . S
C211 P197 1.812 . S
C211 C212 1.389 . S
C211 C216 1.391 . S
C212 H198 0.941 . S
C212 C211 1.389 . S
C212 C213 1.397 . S
C213 H199 0.939 . S
C213 C212 1.397 . S
C213 C214 1.378 . S
C214 C213 1.378 . S
C214 C215 1.378 . S
C215 H200 0.940 . S
C215 C214 1.378 . S
C215 C216 1.396 . S
C216 H201 0.940 . S
C216 C211 1.391 . S
C216 C215 1.396 . S
C217 P197 1.803 1_565 S
C217 C218 1.378 . S
C217 C222 1.400 . S
C218 H202 0.939 . S
C218 C217 1.378 . S
C218 C219 1.361 . S
C219 H203 0.942 . S
C219 C218 1.361 . S
C219 C220 1.369 . S
C220 C219 1.369 . S
C220 C221 1.404 . S
C221 H204 0.940 . S
C221 C220 1.404 . S
C221 C222 1.389 . S
C222 H205 0.939 . S
C222 C217 1.400 . S
C222 C221 1.389 . S
C223 P197 1.819 . S
C223 C224 1.391 . S
C223 C228 1.391 1_545 S
C224 H206 0.941 . S
C224 C223 1.391 . S
C224 C225 1.396 . S
C225 H209 0.939 . S
C225 C224 1.396 . S
C225 C226 1.397 . S
C226 C225 1.397 . S
C226 C227 1.385 1_545 S
C227 H210 0.940 . S
C227 C226 1.385 1_565 S
C227 C228 1.388 . S
C228 H207 0.939 . S
C228 C223 1.391 1_565 S
C228 C227 1.388 . S
P229 O240 1.490 . S
P229 C243 1.812 . S
P229 C249 1.803 . S
P229 C255 1.819 . S
H230 C244 0.941 . S
H231 C245 0.939 . S
H232 C247 0.940 . S
H233 C248 0.940 . S
H234 C250 0.939 . S
H235 C251 0.942 . S
H236 C253 0.940 . S
H237 C254 0.939 . S
H238 C256 0.941 . S
H239 C260 0.939 . S
O240 P229 1.490 . S
H241 C257 0.939 . S
H242 C259 0.940 . S
C243 P229 1.812 . S
C243 C244 1.389 . S
C243 C248 1.391 . S
C244 H230 0.941 . S
C244 C243 1.389 . S
C244 C245 1.397 . S
C245 H231 0.939 . S
C245 C244 1.397 . S
C245 C246 1.378 . S
C246 C245 1.378 . S
C246 C247 1.378 . S
C247 H232 0.940 . S
C247 C246 1.378 . S
C247 C248 1.396 . S
C248 H233 0.940 . S
C248 C243 1.391 . S
C248 C247 1.396 . S
C249 P229 1.803 . S
C249 C250 1.378 . S
C249 C254 1.400 . S
C250 H234 0.939 . S
C250 C249 1.378 . S
C250 C251 1.361 . S
C251 H235 0.942 . S
C251 C250 1.361 . S
C251 C252 1.369 . S
C252 C251 1.369 . S
C252 C253 1.404 . S
C253 H236 0.940 . S
C253 C252 1.404 . S
C253 C254 1.389 . S
C254 H237 0.939 . S
C254 C249 1.400 . S
C254 C253 1.389 . S
C255 P229 1.819 . S
C255 C256 1.391 . S
C255 C260 1.391 . S
C256 H238 0.941 . S
C256 C255 1.391 . S
C256 C257 1.396 . S
C257 H241 0.939 . S
C257 C256 1.396 . S
C257 C258 1.397 . S
C258 C257 1.397 . S
C258 C259 1.385 . S
C259 H242 0.940 . S
C259 C258 1.385 . S
C259 C260 1.388 . S
C260 H239 0.939 . S
C260 C255 1.391 . S
C260 C259 1.388 . S
H261 C269 0.929 . S
H262 C271 0.930 . S
H263 C273 0.930 . S
H264 C276 0.929 . S
H265 C279 0.930 . S
H266 C281 0.960 . S
H267 C281 0.960 . S
H268 C281 0.960 . S
C269 H261 0.929 . S
C269 C270 1.377 . S
C269 C271 1.384 . S
C270 C269 1.377 . S
C270 C276 1.390 . S
C271 H262 0.930 . S
C271 C269 1.384 . S
C271 C272 1.372 . S
C272 C271 1.372 . S
C272 C273 1.400 . S
C272 C277 1.490 . S
C273 H263 0.930 . S
C273 C272 1.400 . S
C273 C276 1.386 . S
H274 C290 0.930 . S
H275 C291 0.931 . S
C276 H264 0.929 . S
C276 C270 1.390 . S
C276 C273 1.386 . S
C277 C272 1.490 . S
C277 C279 1.395 . S
C277 C280 1.403 . S
H278 C284 0.930 . S
C279 H265 0.930 . S
C279 C277 1.395 . S
C279 C282 1.403 . S
C280 C277 1.403 . S
C280 C281 1.524 . S
C280 C284 1.400 . S
C281 H266 0.960 . S
C281 H267 0.960 . S
C281 H268 0.960 . S
C281 C280 1.524 . S
C282 C279 1.403 . S
C282 C283 1.392 . S
C282 C286 1.495 . S
C283 C282 1.392 . S
C283 C284 1.385 . S
C283 C285 1.478 . S
C284 H278 0.930 . S
C284 C280 1.400 . S
C284 C283 1.385 . S
C285 C283 1.478 . S
C285 C287 1.381 . S
C285 C291 1.383 . S
C286 C282 1.495 . S
C286 H292 0.959 . S
C286 H293 0.961 . S
C286 H294 0.960 . S
C287 C285 1.381 . S
C287 C288 1.394 . S
C287 H295 0.930 . S
C288 C287 1.394 . S
C288 C289 1.383 . S
C288 H296 0.929 . S
C289 C288 1.383 . S
C289 C290 1.377 . S
C290 H274 0.930 . S
C290 C289 1.377 . S
C290 C291 1.379 . S
C291 H275 0.931 . S
C291 C285 1.383 . S
C291 C290 1.379 . S
H292 C286 0.959 . S
H293 C286 0.961 . S
H294 C286 0.960 . S
H295 C287 0.930 . S
H296 C288 0.929 . S
H297 C305 0.929 . S
H298 C307 0.930 . S
H299 C309 0.930 . S
H300 C312 0.929 . S
H301 C315 0.930 . S
H302 C317 0.960 . S
H303 C317 0.960 . S
H304 C317 0.960 . S
C305 H297 0.929 . S
C305 C306 1.377 . S
C305 C307 1.384 . S
C306 C305 1.377 . S
C306 C312 1.390 . S
C307 H298 0.930 . S
C307 C305 1.384 . S
C307 C308 1.372 . S
C308 C307 1.372 . S
C308 C309 1.400 . S
C308 C313 1.490 . S
C309 H299 0.930 . S
C309 C308 1.400 . S
C309 C312 1.386 . S
H310 C326 0.930 . S
H311 C327 0.931 . S
C312 H300 0.929 . S
C312 C306 1.390 . S
C312 C309 1.386 . S
C313 C308 1.490 . S
C313 C315 1.395 . S
C313 C316 1.403 . S
H314 C320 0.930 . S
C315 H301 0.930 . S
C315 C313 1.395 . S
C315 C318 1.403 . S
C316 C313 1.403 . S
C316 C317 1.524 . S
C316 C320 1.400 . S
C317 H302 0.960 . S
C317 H303 0.960 . S
C317 H304 0.960 . S
C317 C316 1.524 . S
C318 C315 1.403 . S
C318 C319 1.392 . S
C318 C322 1.495 . S
C319 C318 1.392 . S
C319 C320 1.385 . S
C319 C321 1.478 . S
C320 H314 0.930 . S
C320 C316 1.400 . S
C320 C319 1.385 . S
C321 C319 1.478 . S
C321 C323 1.381 . S
C321 C327 1.383 . S
C322 C318 1.495 . S
C322 H328 0.959 . S
C322 H329 0.961 . S
C322 H330 0.960 . S
C323 C321 1.381 . S
C323 C324 1.394 . S
C323 H331 0.930 . S
C324 C323 1.394 . S
C324 C325 1.383 . S
C324 H332 0.929 . S
C325 C324 1.383 . S
C325 C326 1.377 . S
C326 H310 0.930 . S
C326 C325 1.377 . S
C326 C327 1.379 . S
C327 H311 0.931 . S
C327 C321 1.383 . S
C327 C326 1.379 . S
H328 C322 0.959 . S
H329 C322 0.961 . S
H330 C322 0.960 . S
H331 C323 0.930 . S
H332 C324 0.929 . S
H333 C341 0.929 . S
H334 C343 0.930 . S
H335 C345 0.930 . S
H336 C348 0.929 . S
H337 C351 0.930 . S
H338 C353 0.960 . S
H339 C353 0.960 . S
H340 C353 0.960 . S
C341 H333 0.929 . S
C341 C342 1.377 . S
C341 C343 1.384 . S
C342 C341 1.377 . S
C342 C348 1.390 . S
C343 H334 0.930 . S
C343 C341 1.384 . S
C343 C344 1.372 . S
C344 C343 1.372 . S
C344 C345 1.400 . S
C344 C349 1.490 . S
C345 H335 0.930 . S
C345 C344 1.400 . S
C345 C348 1.386 . S
H346 C362 0.930 . S
H347 C363 0.931 . S
C348 H336 0.929 . S
C348 C342 1.390 . S
C348 C345 1.386 . S
C349 C344 1.490 . S
C349 C351 1.395 . S
C349 C352 1.403 . S
H350 C356 0.930 . S
C351 H337 0.930 . S
C351 C349 1.395 . S
C351 C354 1.403 . S
C352 C349 1.403 . S
C352 C353 1.524 . S
C352 C356 1.400 . S
C353 H338 0.960 . S
C353 H339 0.960 . S
C353 H340 0.960 . S
C353 C352 1.524 . S
C354 C351 1.403 . S
C354 C355 1.392 . S
C354 C358 1.495 . S
C355 C354 1.392 . S
C355 C356 1.385 . S
C355 C357 1.478 . S
C356 H350 0.930 . S
C356 C352 1.400 . S
C356 C355 1.385 . S
C357 C355 1.478 . S
C357 C359 1.381 . S
C357 C363 1.383 . S
C358 C354 1.495 . S
C358 H364 0.959 . S
C358 H365 0.961 . S
C358 H366 0.960 . S
C359 C357 1.381 . S
C359 C360 1.394 . S
C359 H367 0.930 . S
C360 C359 1.394 . S
C360 C361 1.383 . S
C360 H368 0.929 . S
C361 C360 1.383 . S
C361 C362 1.377 . S
C362 H346 0.930 . S
C362 C361 1.377 . S
C362 C363 1.379 . S
C363 H347 0.931 . S
C363 C357 1.383 . S
C363 C362 1.379 . S
H364 C358 0.959 . S
H365 C358 0.961 . S
H366 C358 0.960 . S
H367 C359 0.930 . S
H368 C360 0.929 . S
H369 C377 0.929 . S
H370 C379 0.930 . S
H371 C381 0.930 . S
H372 C384 0.929 . S
H373 C387 0.930 . S
H374 C389 0.960 . S
H375 C389 0.960 . S
H376 C389 0.960 . S
C377 H369 0.929 . S
C377 C378 1.377 . S
C377 C379 1.384 . S
C378 C377 1.377 . S
C378 C384 1.390 . S
C379 H370 0.930 . S
C379 C377 1.384 . S
C379 C380 1.372 . S
C380 C379 1.372 . S
C380 C381 1.400 . S
C380 C385 1.490 . S
C381 H371 0.930 . S
C381 C380 1.400 . S
C381 C384 1.386 . S
H382 C398 0.930 . S
H383 C399 0.931 . S
C384 H372 0.929 . S
C384 C378 1.390 . S
C384 C381 1.386 . S
C385 C380 1.490 . S
C385 C387 1.395 . S
C385 C388 1.403 . S
H386 C392 0.930 . S
C387 H373 0.930 . S
C387 C385 1.395 . S
C387 C390 1.403 . S
C388 C385 1.403 . S
C388 C389 1.524 . S
C388 C392 1.400 . S
C389 H374 0.960 . S
C389 H375 0.960 . S
C389 H376 0.960 . S
C389 C388 1.524 . S
C390 C387 1.403 . S
C390 C391 1.392 . S
C390 C394 1.495 . S
C391 C390 1.392 . S
C391 C392 1.385 . S
C391 C393 1.478 . S
C392 H386 0.930 . S
C392 C388 1.400 . S
C392 C391 1.385 . S
C393 C391 1.478 . S
C393 C395 1.381 . S
C393 C399 1.383 . S
C394 C390 1.495 . S
C394 H400 0.959 . S
C394 H401 0.961 . S
C394 H402 0.960 . S
C395 C393 1.381 . S
C395 C396 1.394 . S
C395 H403 0.930 . S
C396 C395 1.394 . S
C396 C397 1.383 . S
C396 H404 0.929 . S
C397 C396 1.383 . S
C397 C398 1.377 . S
C398 H382 0.930 . S
C398 C397 1.377 . S
C398 C399 1.379 . S
C399 H383 0.931 . S
C399 C393 1.383 . S
C399 C398 1.379 . S
H400 C394 0.959 . S
H401 C394 0.961 . S
H402 C394 0.960 . S
H403 C395 0.930 . S
H404 C396 0.929 . S
H405 C413 0.929 . S
H406 C415 0.930 . S
H407 C417 0.930 . S
H408 C420 0.929 . S
H409 C423 0.930 . S
H410 C425 0.960 . S
H411 C425 0.960 . S
H412 C425 0.960 . S
C413 H405 0.929 . S
C413 C414 1.377 . S
C413 C415 1.384 . S
C414 C413 1.377 . S
C414 C420 1.390 . S
C415 H406 0.930 . S
C415 C413 1.384 . S
C415 C416 1.372 . S
C416 C415 1.372 . S
C416 C417 1.400 . S
C416 C421 1.490 . S
C417 H407 0.930 . S
C417 C416 1.400 . S
C417 C420 1.386 . S
H418 C434 0.930 . S
H419 C435 0.931 . S
C420 H408 0.929 . S
C420 C414 1.390 . S
C420 C417 1.386 . S
C421 C416 1.490 . S
C421 C423 1.395 . S
C421 C424 1.403 . S
H422 C428 0.930 . S
C423 H409 0.930 . S
C423 C421 1.395 . S
C423 C426 1.403 . S
C424 C421 1.403 . S
C424 C425 1.524 . S
C424 C428 1.400 . S
C425 H410 0.960 . S
C425 H411 0.960 . S
C425 H412 0.960 . S
C425 C424 1.524 . S
C426 C423 1.403 . S
C426 C427 1.392 . S
C426 C430 1.495 . S
C427 C426 1.392 . S
C427 C428 1.385 . S
C427 C429 1.478 . S
C428 H422 0.930 . S
C428 C424 1.400 . S
C428 C427 1.385 . S
C429 C427 1.478 . S
C429 C431 1.381 . S
C429 C435 1.383 . S
C430 C426 1.495 . S
C430 H436 0.959 . S
C430 H437 0.961 . S
C430 H438 0.960 . S
C431 C429 1.381 . S
C431 C432 1.394 . S
C431 H439 0.930 . S
C432 C431 1.394 . S
C432 C433 1.383 . S
C432 H440 0.929 . S
C433 C432 1.383 . S
C433 C434 1.377 . S
C434 H418 0.930 . S
C434 C433 1.377 . S
C434 C435 1.379 . S
C435 H419 0.931 . S
C435 C429 1.383 . S
C435 C434 1.379 . S
H436 C430 0.959 . S
H437 C430 0.961 . S
H438 C430 0.960 . S
H439 C431 0.930 . S
H440 C432 0.929 . S
H441 C449 0.929 . S
H442 C451 0.930 . S
H443 C453 0.930 . S
H444 C456 0.929 . S
H445 C459 0.930 . S
H446 C461 0.960 . S
H447 C461 0.960 . S
H448 C461 0.960 . S
C449 H441 0.929 . S
C449 C450 1.377 . S
C449 C451 1.384 . S
C450 C449 1.377 . S
C450 C456 1.390 . S
C451 H442 0.930 . S
C451 C449 1.384 . S
C451 C452 1.372 . S
C452 C451 1.372 . S
C452 C453 1.400 . S
C452 C457 1.490 . S
C453 H443 0.930 . S
C453 C452 1.400 . S
C453 C456 1.386 . S
H454 C470 0.930 . S
H455 C471 0.931 . S
C456 H444 0.929 . S
C456 C450 1.390 . S
C456 C453 1.386 . S
C457 C452 1.490 . S
C457 C459 1.395 . S
C457 C460 1.403 . S
H458 C464 0.930 . S
C459 H445 0.930 . S
C459 C457 1.395 . S
C459 C462 1.403 . S
C460 C457 1.403 . S
C460 C461 1.524 . S
C460 C464 1.400 . S
C461 H446 0.960 . S
C461 H447 0.960 . S
C461 H448 0.960 . S
C461 C460 1.524 . S
C462 C459 1.403 . S
C462 C463 1.392 . S
C462 C466 1.495 . S
C463 C462 1.392 . S
C463 C464 1.385 . S
C463 C465 1.478 . S
C464 H458 0.930 . S
C464 C460 1.400 . S
C464 C463 1.385 . S
C465 C463 1.478 . S
C465 C467 1.381 . S
C465 C471 1.383 . S
C466 C462 1.495 . S
C466 H472 0.959 . S
C466 H473 0.961 . S
C466 H474 0.960 . S
C467 C465 1.381 . S
C467 C468 1.394 . S
C467 H475 0.930 . S
C468 C467 1.394 . S
C468 C469 1.383 . S
C468 H476 0.929 . S
C469 C468 1.383 . S
C469 C470 1.377 . S
C470 H454 0.930 . S
C470 C469 1.377 . S
C470 C471 1.379 . S
C471 H455 0.931 . S
C471 C465 1.383 . S
C471 C470 1.379 . S
H472 C466 0.959 . S
H473 C466 0.961 . S
H474 C466 0.960 . S
H475 C467 0.930 . S
H476 C468 0.929 . S
H477 C485 0.929 . S
H478 C487 0.930 . S
H479 C489 0.930 . S
H480 C492 0.929 . S
H481 C495 0.930 . S
H482 C497 0.960 . S
H483 C497 0.960 . S
H484 C497 0.960 . S
C485 H477 0.929 . S
C485 C486 1.377 . S
C485 C487 1.384 . S
C486 C485 1.377 . S
C486 C492 1.390 . S
C487 H478 0.930 . S
C487 C485 1.384 . S
C487 C488 1.372 . S
C488 C487 1.372 . S
C488 C489 1.400 . S
C488 C493 1.490 . S
C489 H479 0.930 . S
C489 C488 1.400 . S
C489 C492 1.386 . S
H490 C506 0.930 . S
H491 C507 0.931 . S
C492 H480 0.929 . S
C492 C486 1.390 . S
C492 C489 1.386 . S
C493 C488 1.490 . S
C493 C495 1.395 . S
C493 C496 1.403 . S
H494 C500 0.930 . S
C495 H481 0.930 . S
C495 C493 1.395 . S
C495 C498 1.403 . S
C496 C493 1.403 . S
C496 C497 1.524 . S
C496 C500 1.400 . S
C497 H482 0.960 . S
C497 H483 0.960 . S
C497 H484 0.960 . S
C497 C496 1.524 . S
C498 C495 1.403 . S
C498 C499 1.392 . S
C498 C502 1.495 . S
C499 C498 1.392 . S
C499 C500 1.385 . S
C499 C501 1.478 . S
C500 H494 0.930 . S
C500 C496 1.400 . S
C500 C499 1.385 . S
C501 C499 1.478 . S
C501 C503 1.381 . S
C501 C507 1.383 . S
C502 C498 1.495 . S
C502 H508 0.959 . S
C502 H509 0.961 . S
C502 H510 0.960 . S
C503 C501 1.381 . S
C503 C504 1.394 . S
C503 H511 0.930 . S
C504 C503 1.394 . S
C504 C505 1.383 . S
C504 H512 0.929 . S
C505 C504 1.383 . S
C505 C506 1.377 . S
C506 H490 0.930 . S
C506 C505 1.377 . S
C506 C507 1.379 . S
C507 H491 0.931 . S
C507 C501 1.383 . S
C507 C506 1.379 . S
H508 C502 0.959 . S
H509 C502 0.961 . S
H510 C502 0.960 . S
H511 C503 0.930 . S
H512 C504 0.929 . S
H513 C521 0.929 . S
H514 C523 0.930 . S
H515 C525 0.930 . S
H516 C528 0.929 . S
H517 C531 0.930 . S
H518 C533 0.960 . S
H519 C533 0.960 . S
H520 C533 0.960 . S
C521 H513 0.929 . S
C521 C522 1.377 . S
C521 C523 1.384 . S
C522 C521 1.377 . S
C522 C528 1.390 . S
C523 H514 0.930 . S
C523 C521 1.384 . S
C523 C524 1.372 . S
C524 C523 1.372 . S
C524 C525 1.400 . S
C524 C529 1.490 . S
C525 H515 0.930 . S
C525 C524 1.400 . S
C525 C528 1.386 . S
H526 C542 0.930 . S
H527 C543 0.931 . S
C528 H516 0.929 . S
C528 C522 1.390 . S
C528 C525 1.386 . S
C529 C524 1.490 . S
C529 C531 1.395 . S
C529 C532 1.403 . S
H530 C536 0.930 . S
C531 H517 0.930 . S
C531 C529 1.395 . S
C531 C534 1.403 . S
C532 C529 1.403 . S
C532 C533 1.524 . S
C532 C536 1.400 . S
C533 H518 0.960 . S
C533 H519 0.960 . S
C533 H520 0.960 . S
C533 C532 1.524 . S
C534 C531 1.403 . S
C534 C535 1.392 . S
C534 C538 1.495 . S
C535 C534 1.392 . S
C535 C536 1.385 . S
C535 C537 1.478 . S
C536 H530 0.930 . S
C536 C532 1.400 . S
C536 C535 1.385 . S
C537 C535 1.478 . S
C537 C539 1.381 . S
C537 C543 1.383 . S
C538 C534 1.495 . S
C538 H544 0.959 . S
C538 H545 0.961 . S
C538 H546 0.960 . S
C539 C537 1.381 . S
C539 C540 1.394 . S
C539 H547 0.930 . S
C540 C539 1.394 . S
C540 C541 1.383 . S
C540 H548 0.929 . S
C541 C540 1.383 . S
C541 C542 1.377 . S
C542 H526 0.930 . S
C542 C541 1.377 . S
C542 C543 1.379 . S
C543 H527 0.931 . S
C543 C537 1.383 . S
C543 C542 1.379 . S
H544 C538 0.959 . S
H545 C538 0.961 . S
H546 C538 0.960 . S
H547 C539 0.930 . S
H548 C540 0.929 . S
H549 C557 0.929 . S
H550 C559 0.930 . S
H551 C561 0.930 . S
H552 C564 0.929 . S
H553 C567 0.930 . S
H554 C569 0.960 . S
H555 C569 0.960 . S
H556 C569 0.960 . S
C557 H549 0.929 . S
C557 C558 1.377 . S
C557 C559 1.384 . S
C558 C557 1.377 . S
C558 C564 1.390 . S
C559 H550 0.930 . S
C559 C557 1.384 . S
C559 C560 1.372 . S
C560 C559 1.372 . S
C560 C561 1.400 . S
C560 C565 1.490 . S
C561 H551 0.930 . S
C561 C560 1.400 . S
C561 C564 1.386 . S
H562 C578 0.930 . S
H563 C579 0.931 . S
C564 H552 0.929 . S
C564 C558 1.390 . S
C564 C561 1.386 . S
C565 C560 1.490 . S
C565 C567 1.395 . S
C565 C568 1.403 . S
H566 C572 0.930 . S
C567 H553 0.930 . S
C567 C565 1.395 . S
C567 C570 1.403 . S
C568 C565 1.403 . S
C568 C569 1.524 . S
C568 C572 1.400 . S
C569 H554 0.960 . S
C569 H555 0.960 . S
C569 H556 0.960 . S
C569 C568 1.524 . S
C570 C567 1.403 . S
C570 C571 1.392 . S
C570 C574 1.495 . S
C571 C570 1.392 . S
C571 C572 1.385 . S
C571 C573 1.478 . S
C572 H566 0.930 . S
C572 C568 1.400 . S
C572 C571 1.385 . S
C573 C571 1.478 . S
C573 C575 1.381 . S
C573 C579 1.383 . S
C574 C570 1.495 . S
C574 H580 0.959 . S
C574 H581 0.961 . S
C574 H582 0.960 . S
C575 C573 1.381 . S
C575 C576 1.394 . S
C575 H583 0.930 . S
C576 C575 1.394 . S
C576 C577 1.383 . S
C576 H584 0.929 . S
C577 C576 1.383 . S
C577 C578 1.377 . S
C578 H562 0.930 . S
C578 C577 1.377 . S
C578 C579 1.379 . S
C579 H563 0.931 . S
C579 C573 1.383 . S
C579 C578 1.379 . S
H580 C574 0.959 . S
H581 C574 0.961 . S
H582 C574 0.960 . S
H583 C575 0.930 . S
H584 C576 0.929 . S
H585 C593 0.929 . S
H586 C595 0.930 . S
H587 C597 0.930 . S
H588 C600 0.929 . S
H589 C603 0.930 . S
H590 C605 0.960 . S
H591 C605 0.960 . S
H592 C605 0.960 . S
C593 H585 0.929 . S
C593 C594 1.377 . S
C593 C595 1.384 . S
C594 C593 1.377 . S
C594 C600 1.390 . S
C595 H586 0.930 . S
C595 C593 1.384 . S
C595 C596 1.372 . S
C596 C595 1.372 . S
C596 C597 1.400 . S
C596 C601 1.490 . S
C597 H587 0.930 . S
C597 C596 1.400 . S
C597 C600 1.386 . S
H598 C614 0.930 . S
H599 C615 0.931 . S
C600 H588 0.929 . S
C600 C594 1.390 . S
C600 C597 1.386 . S
C601 C596 1.490 . S
C601 C603 1.395 . S
C601 C604 1.403 . S
H602 C608 0.930 . S
C603 H589 0.930 . S
C603 C601 1.395 . S
C603 C606 1.403 . S
C604 C601 1.403 . S
C604 C605 1.524 . S
C604 C608 1.400 . S
C605 H590 0.960 . S
C605 H591 0.960 . S
C605 H592 0.960 . S
C605 C604 1.524 . S
C606 C603 1.403 . S
C606 C607 1.392 . S
C606 C610 1.495 . S
C607 C606 1.392 . S
C607 C608 1.385 . S
C607 C609 1.478 . S
C608 H602 0.930 . S
C608 C604 1.400 . S
C608 C607 1.385 . S
C609 C607 1.478 . S
C609 C611 1.381 . S
C609 C615 1.383 . S
C610 C606 1.495 . S
C610 H616 0.959 . S
C610 H617 0.961 . S
C610 H618 0.960 . S
C611 C609 1.381 . S
C611 C612 1.394 . S
C611 H619 0.930 . S
C612 C611 1.394 . S
C612 C613 1.383 . S
C612 H620 0.929 . S
C613 C612 1.383 . S
C613 C614 1.377 . S
C614 H598 0.930 . S
C614 C613 1.377 . S
C614 C615 1.379 . S
C615 H599 0.931 . S
C615 C609 1.383 . S
C615 C614 1.379 . S
H616 C610 0.959 . S
H617 C610 0.961 . S
H618 C610 0.960 . S
H619 C611 0.930 . S
H620 C612 0.929 . S
H621 C629 0.929 . S
H622 C631 0.930 . S
H623 C633 0.930 . S
H624 C636 0.929 . S
H625 C639 0.930 . S
H626 C641 0.960 . S
H627 C641 0.960 . S
H628 C641 0.960 . S
C629 H621 0.929 . S
C629 C630 1.377 . S
C629 C631 1.384 . S
C630 C629 1.377 . S
C630 C636 1.390 . S
C631 H622 0.930 . S
C631 C629 1.384 . S
C631 C632 1.372 . S
C632 C631 1.372 . S
C632 C633 1.400 . S
C632 C637 1.490 . S
C633 H623 0.930 . S
C633 C632 1.400 . S
C633 C636 1.386 . S
H634 C650 0.930 . S
H635 C651 0.931 . S
C636 H624 0.929 . S
C636 C630 1.390 . S
C636 C633 1.386 . S
C637 C632 1.490 . S
C637 C639 1.395 . S
C637 C640 1.403 . S
H638 C644 0.930 . S
C639 H625 0.930 . S
C639 C637 1.395 . S
C639 C642 1.403 . S
C640 C637 1.403 . S
C640 C641 1.524 . S
C640 C644 1.400 . S
C641 H626 0.960 . S
C641 H627 0.960 . S
C641 H628 0.960 . S
C641 C640 1.524 . S
C642 C639 1.403 . S
C642 C643 1.392 . S
C642 C646 1.495 . S
C643 C642 1.392 . S
C643 C644 1.385 . S
C643 C645 1.478 . S
C644 H638 0.930 . S
C644 C640 1.400 . S
C644 C643 1.385 . S
C645 C643 1.478 . S
C645 C647 1.381 . S
C645 C651 1.383 . S
C646 C642 1.495 . S
C646 H652 0.959 . S
C646 H653 0.961 . S
C646 H654 0.960 . S
C647 C645 1.381 . S
C647 C648 1.394 . S
C647 H655 0.930 . S
C648 C647 1.394 . S
C648 C649 1.383 . S
C648 H656 0.929 . S
C649 C648 1.383 . S
C649 C650 1.377 . S
C650 H634 0.930 . S
C650 C649 1.377 . S
C650 C651 1.379 . S
C651 H635 0.931 . S
C651 C645 1.383 . S
C651 C650 1.379 . S
H652 C646 0.959 . S
H653 C646 0.961 . S
H654 C646 0.960 . S
H655 C647 0.930 . S
H656 C648 0.929 . S
H657 C665 0.929 . S
H658 C667 0.930 . S
H659 C669 0.930 . S
H660 C672 0.929 . S
H661 C675 0.930 . S
H662 C677 0.960 . S
H663 C677 0.960 . S
H664 C677 0.960 . S
C665 H657 0.929 . S
C665 C666 1.377 . S
C665 C667 1.384 . S
C666 C665 1.377 . S
C666 C672 1.390 . S
C667 H658 0.930 . S
C667 C665 1.384 . S
C667 C668 1.372 . S
C668 C667 1.372 . S
C668 C669 1.400 . S
C668 C673 1.490 . S
C669 H659 0.930 . S
C669 C668 1.400 . S
C669 C672 1.386 . S
H670 C686 0.930 . S
H671 C687 0.931 . S
C672 H660 0.929 . S
C672 C666 1.390 . S
C672 C669 1.386 . S
C673 C668 1.490 . S
C673 C675 1.395 . S
C673 C676 1.403 . S
H674 C680 0.930 . S
C675 H661 0.930 . S
C675 C673 1.395 . S
C675 C678 1.403 . S
C676 C673 1.403 . S
C676 C677 1.524 . S
C676 C680 1.400 . S
C677 H662 0.960 . S
C677 H663 0.960 . S
C677 H664 0.960 . S
C677 C676 1.524 . S
C678 C675 1.403 . S
C678 C679 1.392 . S
C678 C682 1.495 . S
C679 C678 1.392 . S
C679 C680 1.385 . S
C679 C681 1.478 . S
C680 H674 0.930 . S
C680 C676 1.400 . S
C680 C679 1.385 . S
C681 C679 1.478 . S
C681 C683 1.381 . S
C681 C687 1.383 . S
C682 C678 1.495 . S
C682 H688 0.959 . S
C682 H689 0.961 . S
C682 H690 0.960 . S
C683 C681 1.381 . S
C683 C684 1.394 . S
C683 H691 0.930 . S
C684 C683 1.394 . S
C684 C685 1.383 . S
C684 H692 0.929 . S
C685 C684 1.383 . S
C685 C686 1.377 . S
C686 H670 0.930 . S
C686 C685 1.377 . S
C686 C687 1.379 . S
C687 H671 0.931 . S
C687 C681 1.383 . S
C687 C686 1.379 . S
H688 C682 0.959 . S
H689 C682 0.961 . S
H690 C682 0.960 . S
H691 C683 0.930 . S
H692 C684 0.929 . S
H693 C701 0.929 . S
H694 C703 0.930 . S
H695 C705 0.930 . S
H696 C708 0.929 . S
H697 C711 0.930 . S
H698 C713 0.960 . S
H699 C713 0.960 1_455 S
H700 C713 0.960 . S
C701 H693 0.929 . S
C701 C702 1.377 . S
C701 C703 1.384 . S
C702 C701 1.377 . S
C702 C708 1.390 1_455 S
C703 H694 0.930 . S
C703 C701 1.384 . S
C703 C704 1.372 . S
C704 C703 1.372 . S
C704 C705 1.400 1_455 S
C704 C709 1.490 . S
C705 H695 0.930 . S
C705 C704 1.400 1_655 S
C705 C708 1.386 . S
H706 C722 0.930 . S
H707 C723 0.903 1_554 S
C708 H696 0.929 . S
C708 C702 1.390 1_655 S
C708 C705 1.386 . S
C709 C704 1.490 . S
C709 C711 1.395 . S
C709 C712 1.403 . S
H710 C716 0.930 1_655 S
C711 H697 0.930 . S
C711 C709 1.395 . S
C711 C714 1.403 . S
C712 C709 1.403 . S
C712 C713 1.524 1_455 S
C712 C716 1.400 . S
C713 H698 0.960 . S
C713 H699 0.960 1_655 S
C713 H700 0.960 . S
C713 C712 1.524 1_655 S
C714 C711 1.403 . S
C714 C715 1.392 . S
C714 C718 1.495 . S
C715 C714 1.392 . S
C715 C716 1.385 . S
C715 C717 1.478 . S
C716 H710 0.930 1_455 S
C716 C712 1.400 . S
C716 C715 1.385 . S
C717 C715 1.478 . S
C717 C719 1.358 1_554 S
C717 C723 1.353 1_454 S
C718 C714 1.495 . S
C718 H724 0.959 . S
C718 H725 0.961 . S
C718 H726 0.960 . S
C719 C717 1.358 1_556 S
C719 C720 1.441 . S
C719 H727 0.908 1_556 S
C720 C719 1.441 . S
C720 C721 1.383 . S
C720 H728 0.929 . S
C721 C720 1.383 . S
C721 C722 1.377 1_455 S
C722 H706 0.930 . S
C722 C721 1.377 1_655 S
C722 C723 1.439 . S
C723 H707 0.903 1_556 S
C723 C717 1.353 1_656 S
C723 C722 1.439 . S
H724 C718 0.959 . S
H725 C718 0.961 . S
H726 C718 0.960 . S
H727 C719 0.908 1_554 S
H728 C720 0.929 . S
H729 C737 0.929 . S
H730 C739 0.930 . S
H731 C741 0.930 . S
H732 C744 0.929 . S
H733 C747 0.930 . S
H734 C749 0.960 . S
H735 C749 0.960 . S
H736 C749 0.960 1_545 S
C737 H729 0.929 . S
C737 C738 1.377 1_565 S
C737 C739 1.384 . S
C738 C737 1.377 1_545 S
C738 C744 1.390 . S
C739 H730 0.930 . S
C739 C737 1.384 . S
C739 C740 1.372 1_565 S
C740 C739 1.372 1_545 S
C740 C741 1.400 . S
C740 C745 1.490 . S
C741 H731 0.930 . S
C741 C740 1.400 . S
C741 C744 1.386 . S
H742 C758 0.930 . S
H743 C759 0.931 . S
C744 H732 0.929 . S
C744 C738 1.390 . S
C744 C741 1.386 . S
C745 C740 1.490 . S
C745 C747 1.395 . S
C745 C748 1.403 . S
H746 C752 0.941 . S
C747 H733 0.930 . S
C747 C745 1.395 . S
C747 C750 1.403 . S
C748 C745 1.403 . S
C748 C749 1.524 1_545 S
C748 C752 1.400 . S
C749 H734 0.960 . S
C749 H735 0.960 . S
C749 H736 0.960 1_565 S
C749 C748 1.524 1_565 S
C750 C747 1.403 . S
C750 C751 1.392 . S
C750 C754 1.495 . S
C751 C750 1.392 . S
C751 C752 1.385 . S
C751 C753 1.478 . S
C752 H746 0.941 . S
C752 C748 1.400 . S
C752 C751 1.385 . S
C753 C751 1.478 . S
C753 C755 1.381 1_545 S
C753 C759 1.383 . S
C754 C750 1.495 . S
C754 H760 0.959 . S
C754 H761 0.961 . S
C754 H762 0.960 . S
C755 C753 1.381 1_565 S
C755 C756 1.394 . S
C755 H763 0.930 . S
C756 C755 1.394 . S
C756 C757 1.383 1_565 S
C756 H764 0.929 . S
C757 C756 1.383 1_545 S
C757 C758 1.377 . S
C758 H742 0.930 . S
C758 C757 1.377 . S
C758 C759 1.379 . S
C759 H743 0.931 . S
C759 C753 1.383 . S
C759 C758 1.379 . S
H760 C754 0.959 . S
H761 C754 0.961 . S
H762 C754 0.960 . S
H763 C755 0.930 . S
H764 C756 0.929 . S
H765 C773 0.929 . S
H766 C775 0.930 . S
H767 C777 0.930 . S
H768 C780 0.929 . S
H769 C783 0.930 . S
H770 C785 0.960 . S
H771 C785 0.960 . S
H772 C785 0.960 . S
C773 H765 0.929 . S
C773 C774 1.377 . S
C773 C775 1.384 . S
C774 C773 1.377 . S
C774 C780 1.390 . S
C775 H766 0.930 . S
C775 C773 1.384 . S
C775 C776 1.372 . S
C776 C775 1.372 . S
C776 C777 1.400 . S
C776 C781 1.490 . S
C777 H767 0.930 . S
C777 C776 1.400 . S
C777 C780 1.386 . S
H778 C794 0.930 . S
H779 C795 0.931 . S
C780 H768 0.929 . S
C780 C774 1.390 . S
C780 C777 1.386 . S
C781 C776 1.490 . S
C781 C783 1.395 . S
C781 C784 1.403 . S
H782 C788 0.930 . S
C783 H769 0.930 . S
C783 C781 1.395 . S
C783 C786 1.403 . S
C784 C781 1.403 . S
C784 C785 1.524 . S
C784 C788 1.400 . S
C785 H770 0.960 . S
C785 H771 0.960 . S
C785 H772 0.960 . S
C785 C784 1.524 . S
C786 C783 1.403 . S
C786 C787 1.392 . S
C786 C790 1.495 . S
C787 C786 1.392 . S
C787 C788 1.385 . S
C787 C789 1.478 . S
C788 H782 0.930 . S
C788 C784 1.400 . S
C788 C787 1.385 . S
C789 C787 1.478 . S
C789 C791 1.381 . S
C789 C795 1.383 . S
C790 C786 1.495 . S
C790 H796 0.959 . S
C790 H797 0.961 . S
C790 H798 0.960 . S
C791 C789 1.381 . S
C791 C792 1.394 . S
C791 H799 0.930 . S
C792 C791 1.394 . S
C792 C793 1.383 . S
C792 H800 0.929 . S
C793 C792 1.383 . S
C793 C794 1.377 . S
C794 H778 0.930 . S
C794 C793 1.377 . S
C794 C795 1.379 . S
C795 H779 0.931 . S
C795 C789 1.383 . S
C795 C794 1.379 . S
H796 C790 0.959 . S
H797 C790 0.961 . S
H798 C790 0.960 . S
H799 C791 0.930 . S
H800 C792 0.929 . S
H801 C809 0.929 1_565 S
H802 C811 0.930 1_565 S
H803 C813 0.930 . S
H804 C816 0.929 . S
H805 C819 0.930 . S
H806 C821 0.960 . S
H807 C821 0.960 . S
H808 C821 0.960 . S
C809 H801 0.929 1_545 S
C809 C810 1.377 . S
C809 C811 1.384 . S
C810 C809 1.377 . S
C810 C816 1.390 . S
C811 H802 0.930 1_545 S
C811 C809 1.384 . S
C811 C812 1.372 . S
C812 C811 1.372 . S
C812 C813 1.400 . S
C812 C817 1.490 . S
C813 H803 0.930 . S
C813 C812 1.400 . S
C813 C816 1.386 . S
H814 C830 0.930 . S
H815 C831 0.931 . S
C816 H804 0.929 . S
C816 C810 1.390 . S
C816 C813 1.386 . S
C817 C812 1.490 . S
C817 C819 1.395 1_545 S
C817 C820 1.403 . S
H818 C824 0.930 . S
C819 H805 0.930 . S
C819 C817 1.395 1_565 S
C819 C822 1.403 . S
C820 C817 1.403 . S
C820 C821 1.524 . S
C820 C824 1.400 . S
C821 H806 0.960 . S
C821 H807 0.960 . S
C821 H808 0.960 . S
C821 C820 1.524 . S
C822 C819 1.403 . S
C822 C823 1.392 1_565 S
C822 C826 1.495 . S
C823 C822 1.392 1_545 S
C823 C824 1.385 . S
C823 C825 1.478 . S
C824 H818 0.930 . S
C824 C820 1.400 . S
C824 C823 1.385 . S
C825 C823 1.478 . S
C825 C827 1.381 1_545 S
C825 C831 1.383 . S
C826 C822 1.495 . S
C826 H832 0.959 . S
C826 H833 0.961 . S
C826 H834 0.960 . S
C827 C825 1.381 1_565 S
C827 C828 1.394 . S
C827 H835 0.930 . S
C828 C827 1.394 . S
C828 C829 1.382 1_565 S
C828 H836 0.930 . S
C829 C828 1.382 1_545 S
C829 C830 1.377 . S
C830 H814 0.930 . S
C830 C829 1.377 . S
C830 C831 1.379 . S
C831 H815 0.931 . S
C831 C825 1.383 . S
C831 C830 1.379 . S
H832 C826 0.959 . S
H833 C826 0.961 . S
H834 C826 0.960 . S
H835 C827 0.930 . S
H836 C828 0.930 . S
H837 C845 0.929 . S
H838 C847 0.930 . S
H839 C849 0.930 . S
H840 C852 0.929 . S
H841 C855 0.930 . S
H842 C857 0.960 . S
H843 C857 0.960 . S
H844 C857 0.960 . S
C845 H837 0.929 . S
C845 C846 1.377 . S
C845 C847 1.384 . S
C846 C845 1.377 . S
C846 C852 1.390 . S
C847 H838 0.930 . S
C847 C845 1.384 . S
C847 C848 1.372 . S
C848 C847 1.372 . S
C848 C849 1.400 . S
C848 C853 1.490 . S
C849 H839 0.930 . S
C849 C848 1.400 . S
C849 C852 1.386 . S
H850 C866 0.930 . S
H851 C867 0.933 1_556 S
C852 H840 0.929 . S
C852 C846 1.390 . S
C852 C849 1.386 . S
C853 C848 1.490 . S
C853 C855 1.395 . S
C853 C856 1.403 . S
H854 C860 0.930 . S
C855 H841 0.930 . S
C855 C853 1.395 . S
C855 C858 1.403 . S
C856 C853 1.403 . S
C856 C857 1.524 . S
C856 C860 1.400 . S
C857 H842 0.960 . S
C857 H843 0.960 . S
C857 H844 0.960 . S
C857 C856 1.524 . S
C858 C855 1.403 . S
C858 C859 1.392 . S
C858 C862 1.495 . S
C859 C858 1.392 . S
C859 C860 1.385 . S
C859 C861 1.478 . S
C860 H854 0.930 . S
C860 C856 1.400 . S
C860 C859 1.385 . S
C861 C859 1.478 . S
C861 C863 1.381 1_556 S
C861 C867 1.384 1_556 S
C862 C858 1.495 . S
C862 H868 0.959 . S
C862 H869 0.961 . S
C862 H870 0.960 . S
C863 C861 1.381 1_554 S
C863 C864 1.394 . S
C863 H871 0.930 1_554 S
C864 C863 1.394 . S
C864 C865 1.383 . S
C864 H872 0.929 . S
C865 C864 1.383 . S
C865 C866 1.377 . S
C866 H850 0.930 . S
C866 C865 1.377 . S
C866 C867 1.376 . S
C867 H851 0.933 1_554 S
C867 C861 1.384 1_554 S
C867 C866 1.376 . S
H868 C862 0.959 . S
H869 C862 0.961 . S
H870 C862 0.960 . S
H871 C863 0.930 1_556 S
H872 C864 0.929 . S
H873 C881 0.929 . S
H874 C883 0.930 . S
H875 C885 0.930 . S
H876 C888 0.929 . S
H877 C891 0.930 . S
H878 C893 0.960 . S
H879 C893 0.960 . S
H880 C893 0.960 . S
C881 H873 0.929 . S
C881 C882 1.377 . S
C881 C883 1.384 . S
C882 C881 1.377 . S
C882 C888 1.390 1_455 S
C883 H874 0.930 . S
C883 C881 1.384 . S
C883 C884 1.372 . S
C884 C883 1.372 . S
C884 C885 1.400 1_455 S
C884 C889 1.490 . S
C885 H875 0.930 . S
C885 C884 1.400 1_655 S
C885 C888 1.386 . S
H886 C902 0.930 . S
H887 C903 0.931 . S
C888 H876 0.929 . S
C888 C882 1.390 1_655 S
C888 C885 1.386 . S
C889 C884 1.490 . S
C889 C891 1.395 . S
C889 C892 1.403 1_455 S
H890 C896 0.930 . S
C891 H877 0.930 . S
C891 C889 1.395 . S
C891 C894 1.403 . S
C892 C889 1.403 1_655 S
C892 C893 1.524 . S
C892 C896 1.400 . S
C893 H878 0.960 . S
C893 H879 0.960 . S
C893 H880 0.960 . S
C893 C892 1.524 . S
C894 C891 1.403 . S
C894 C895 1.392 . S
C894 C898 1.495 . S
C895 C894 1.392 . S
C895 C896 1.385 1_455 S
C895 C897 1.478 . S
C896 H890 0.930 . S
C896 C892 1.400 . S
C896 C895 1.385 1_655 S
C897 C895 1.478 . S
C897 C899 1.381 . S
C897 C903 1.383 1_455 S
C898 C894 1.495 . S
C898 H904 0.959 . S
C898 H905 0.961 . S
C898 H906 0.960 . S
C899 C897 1.381 . S
C899 C900 1.394 . S
C899 H907 0.930 . S
C900 C899 1.394 . S
C900 C901 1.383 . S
C900 H908 0.929 . S
C901 C900 1.383 . S
C901 C902 1.377 1_455 S
C902 H886 0.930 . S
C902 C901 1.377 1_655 S
C902 C903 1.379 . S
C903 H887 0.931 . S
C903 C897 1.383 1_655 S
C903 C902 1.379 . S
H904 C898 0.959 . S
H905 C898 0.961 . S
H906 C898 0.960 . S
H907 C899 0.930 . S
H908 C900 0.929 . S
C270 C20 1.052 . S
C289 C252 1.059 . S
C306 C41 1.143 . S
C325 C188 1.087 . S
C342 C64 1.163 . S
C361 C220 1.101 . S
C378 C19 1.150 . S
C397 C246 1.187 . S
C433 C182 1.108 . S
C414 C44 1.127 . S
C469 C214 1.128 . S
C450 C67 1.112 . S
C486 C43 1.080 . S
C505 C124 1.083 . S
C522 C66 1.055 . S
C541 C156 1.029 . S
C558 C21 1.123 . S
C577 C86 1.129 . S
C613 C118 1.144 . S
C594 C42 1.110 . S
C649 C150 1.190 . S
C630 C65 1.147 . S
C666 C18 1.148 . S
C685 C92 1.138 . S
C721 C162 1.442 . S
C702 C17 1.458 . S
C738 C39 1.454 . S
C757 C98 1.441 . S
C774 C62 1.473 . S
C793 C130 1.450 . S
C829 C226 1.412 . S
C810 C40 1.438 . S
C865 C258 1.408 . S
C846 C63 1.457 . S
C882 C16 1.454 . S
C901 C194 1.434 . S
