# Generated by pormake.
# Topology tbo, (3,4)-cn, num edge types: 1
# Building blocks:
#     Node 0, Type 0, BuildingBlock: ESEHIV_clean_linker_0, # of connection points: 3
#     Node 1, Type 0, BuildingBlock: ESEHIV_clean_linker_0, # of connection points: 3
#     Node 2, Type 0, BuildingBlock: ESEHIV_clean_linker_0, # of connection points: 3
#     Node 3, Type 0, BuildingBlock: ESEHIV_clean_linker_0, # of connection points: 3
#     Node 4, Type 0, BuildingBlock: ESEHIV_clean_linker_0, # of connection points: 3
#     Node 5, Type 0, BuildingBlock: ESEHIV_clean_linker_0, # of connection points: 3
#     Node 6, Type 0, BuildingBlock: ESEHIV_clean_linker_0, # of connection points: 3
#     Node 7, Type 0, BuildingBlock: ESEHIV_clean_linker_0, # of connection points: 3
#     Node 8, Type 0, BuildingBlock: ESEHIV_clean_linker_0, # of connection points: 3
#     Node 9, Type 0, BuildingBlock: ESEHIV_clean_linker_0, # of connection points: 3
#     Node 10, Type 0, BuildingBlock: ESEHIV_clean_linker_0, # of connection points: 3
#     Node 11, Type 0, BuildingBlock: ESEHIV_clean_linker_0, # of connection points: 3
#     Node 12, Type 0, BuildingBlock: ESEHIV_clean_linker_0, # of connection points: 3
#     Node 13, Type 0, BuildingBlock: ESEHIV_clean_linker_0, # of connection points: 3
#     Node 14, Type 0, BuildingBlock: ESEHIV_clean_linker_0, # of connection points: 3
#     Node 15, Type 0, BuildingBlock: ESEHIV_clean_linker_0, # of connection points: 3
#     Node 16, Type 0, BuildingBlock: ESEHIV_clean_linker_0, # of connection points: 3
#     Node 17, Type 0, BuildingBlock: ESEHIV_clean_linker_0, # of connection points: 3
#     Node 18, Type 0, BuildingBlock: ESEHIV_clean_linker_0, # of connection points: 3
#     Node 19, Type 0, BuildingBlock: ESEHIV_clean_linker_0, # of connection points: 3
#     Node 20, Type 0, BuildingBlock: ESEHIV_clean_linker_0, # of connection points: 3
#     Node 21, Type 0, BuildingBlock: ESEHIV_clean_linker_0, # of connection points: 3
#     Node 22, Type 0, BuildingBlock: ESEHIV_clean_linker_0, # of connection points: 3
#     Node 23, Type 0, BuildingBlock: ESEHIV_clean_linker_0, # of connection points: 3
#     Node 24, Type 0, BuildingBlock: ESEHIV_clean_linker_0, # of connection points: 3
#     Node 25, Type 0, BuildingBlock: ESEHIV_clean_linker_0, # of connection points: 3
#     Node 26, Type 0, BuildingBlock: ESEHIV_clean_linker_0, # of connection points: 3
#     Node 27, Type 0, BuildingBlock: ESEHIV_clean_linker_0, # of connection points: 3
#     Node 28, Type 0, BuildingBlock: ESEHIV_clean_linker_0, # of connection points: 3
#     Node 29, Type 0, BuildingBlock: ESEHIV_clean_linker_0, # of connection points: 3
#     Node 30, Type 0, BuildingBlock: ESEHIV_clean_linker_0, # of connection points: 3
#     Node 31, Type 0, BuildingBlock: ESEHIV_clean_linker_0, # of connection points: 3
#     Node 32, Type 1, BuildingBlock: ESEHIV_clean_sbu_0, # of connection points: 4
#     Node 33, Type 1, BuildingBlock: ESEHIV_clean_sbu_0, # of connection points: 4
#     Node 34, Type 1, BuildingBlock: ESEHIV_clean_sbu_0, # of connection points: 4
#     Node 35, Type 1, BuildingBlock: ESEHIV_clean_sbu_0, # of connection points: 4
#     Node 36, Type 1, BuildingBlock: ESEHIV_clean_sbu_0, # of connection points: 4
#     Node 37, Type 1, BuildingBlock: ESEHIV_clean_sbu_0, # of connection points: 4
#     Node 38, Type 1, BuildingBlock: ESEHIV_clean_sbu_0, # of connection points: 4
#     Node 39, Type 1, BuildingBlock: ESEHIV_clean_sbu_0, # of connection points: 4
#     Node 40, Type 1, BuildingBlock: ESEHIV_clean_sbu_0, # of connection points: 4
#     Node 41, Type 1, BuildingBlock: ESEHIV_clean_sbu_0, # of connection points: 4
#     Node 42, Type 1, BuildingBlock: ESEHIV_clean_sbu_0, # of connection points: 4
#     Node 43, Type 1, BuildingBlock: ESEHIV_clean_sbu_0, # of connection points: 4
#     Node 44, Type 1, BuildingBlock: ESEHIV_clean_sbu_0, # of connection points: 4
#     Node 45, Type 1, BuildingBlock: ESEHIV_clean_sbu_0, # of connection points: 4
#     Node 46, Type 1, BuildingBlock: ESEHIV_clean_sbu_0, # of connection points: 4
#     Node 47, Type 1, BuildingBlock: ESEHIV_clean_sbu_0, # of connection points: 4
#     Node 48, Type 1, BuildingBlock: ESEHIV_clean_sbu_0, # of connection points: 4
#     Node 49, Type 1, BuildingBlock: ESEHIV_clean_sbu_0, # of connection points: 4
#     Node 50, Type 1, BuildingBlock: ESEHIV_clean_sbu_0, # of connection points: 4
#     Node 51, Type 1, BuildingBlock: ESEHIV_clean_sbu_0, # of connection points: 4
#     Node 52, Type 1, BuildingBlock: ESEHIV_clean_sbu_0, # of connection points: 4
#     Node 53, Type 1, BuildingBlock: ESEHIV_clean_sbu_0, # of connection points: 4
#     Node 54, Type 1, BuildingBlock: ESEHIV_clean_sbu_0, # of connection points: 4
#     Node 55, Type 1, BuildingBlock: ESEHIV_clean_sbu_0, # of connection points: 4
#     Edge 56, Type (0, 1), BuildingBlock: OJICUG_clean_linker_0, # of connection points: 2
#     Edge 57, Type (0, 1), BuildingBlock: OJICUG_clean_linker_0, # of connection points: 2
#     Edge 58, Type (0, 1), BuildingBlock: OJICUG_clean_linker_0, # of connection points: 2
#     Edge 59, Type (0, 1), BuildingBlock: OJICUG_clean_linker_0, # of connection points: 2
#     Edge 60, Type (0, 1), BuildingBlock: OJICUG_clean_linker_0, # of connection points: 2
#     Edge 61, Type (0, 1), BuildingBlock: OJICUG_clean_linker_0, # of connection points: 2
#     Edge 62, Type (0, 1), BuildingBlock: OJICUG_clean_linker_0, # of connection points: 2
#     Edge 63, Type (0, 1), BuildingBlock: OJICUG_clean_linker_0, # of connection points: 2
#     Edge 64, Type (0, 1), BuildingBlock: OJICUG_clean_linker_0, # of connection points: 2
#     Edge 65, Type (0, 1), BuildingBlock: OJICUG_clean_linker_0, # of connection points: 2
#     Edge 66, Type (0, 1), BuildingBlock: OJICUG_clean_linker_0, # of connection points: 2
#     Edge 67, Type (0, 1), BuildingBlock: OJICUG_clean_linker_0, # of connection points: 2
#     Edge 68, Type (0, 1), BuildingBlock: OJICUG_clean_linker_0, # of connection points: 2
#     Edge 69, Type (0, 1), BuildingBlock: OJICUG_clean_linker_0, # of connection points: 2
#     Edge 70, Type (0, 1), BuildingBlock: OJICUG_clean_linker_0, # of connection points: 2
#     Edge 71, Type (0, 1), BuildingBlock: OJICUG_clean_linker_0, # of connection points: 2
#     Edge 72, Type (0, 1), BuildingBlock: OJICUG_clean_linker_0, # of connection points: 2
#     Edge 73, Type (0, 1), BuildingBlock: OJICUG_clean_linker_0, # of connection points: 2
#     Edge 74, Type (0, 1), BuildingBlock: OJICUG_clean_linker_0, # of connection points: 2
#     Edge 75, Type (0, 1), BuildingBlock: OJICUG_clean_linker_0, # of connection points: 2
#     Edge 76, Type (0, 1), BuildingBlock: OJICUG_clean_linker_0, # of connection points: 2
#     Edge 77, Type (0, 1), BuildingBlock: OJICUG_clean_linker_0, # of connection points: 2
#     Edge 78, Type (0, 1), BuildingBlock: OJICUG_clean_linker_0, # of connection points: 2
#     Edge 79, Type (0, 1), BuildingBlock: OJICUG_clean_linker_0, # of connection points: 2
#     Edge 80, Type (0, 1), BuildingBlock: OJICUG_clean_linker_0, # of connection points: 2
#     Edge 81, Type (0, 1), BuildingBlock: OJICUG_clean_linker_0, # of connection points: 2
#     Edge 82, Type (0, 1), BuildingBlock: OJICUG_clean_linker_0, # of connection points: 2
#     Edge 83, Type (0, 1), BuildingBlock: OJICUG_clean_linker_0, # of connection points: 2
#     Edge 84, Type (0, 1), BuildingBlock: OJICUG_clean_linker_0, # of connection points: 2
#     Edge 85, Type (0, 1), BuildingBlock: OJICUG_clean_linker_0, # of connection points: 2
#     Edge 86, Type (0, 1), BuildingBlock: OJICUG_clean_linker_0, # of connection points: 2
#     Edge 87, Type (0, 1), BuildingBlock: OJICUG_clean_linker_0, # of connection points: 2
#     Edge 88, Type (0, 1), BuildingBlock: OJICUG_clean_linker_0, # of connection points: 2
#     Edge 89, Type (0, 1), BuildingBlock: OJICUG_clean_linker_0, # of connection points: 2
#     Edge 90, Type (0, 1), BuildingBlock: OJICUG_clean_linker_0, # of connection points: 2
#     Edge 91, Type (0, 1), BuildingBlock: OJICUG_clean_linker_0, # of connection points: 2
#     Edge 92, Type (0, 1), BuildingBlock: OJICUG_clean_linker_0, # of connection points: 2
#     Edge 93, Type (0, 1), BuildingBlock: OJICUG_clean_linker_0, # of connection points: 2
#     Edge 94, Type (0, 1), BuildingBlock: OJICUG_clean_linker_0, # of connection points: 2
#     Edge 95, Type (0, 1), BuildingBlock: OJICUG_clean_linker_0, # of connection points: 2
#     Edge 96, Type (0, 1), BuildingBlock: OJICUG_clean_linker_0, # of connection points: 2
#     Edge 97, Type (0, 1), BuildingBlock: OJICUG_clean_linker_0, # of connection points: 2
#     Edge 98, Type (0, 1), BuildingBlock: OJICUG_clean_linker_0, # of connection points: 2
#     Edge 99, Type (0, 1), BuildingBlock: OJICUG_clean_linker_0, # of connection points: 2
#     Edge 100, Type (0, 1), BuildingBlock: OJICUG_clean_linker_0, # of connection points: 2
#     Edge 101, Type (0, 1), BuildingBlock: OJICUG_clean_linker_0, # of connection points: 2
#     Edge 102, Type (0, 1), BuildingBlock: OJICUG_clean_linker_0, # of connection points: 2
#     Edge 103, Type (0, 1), BuildingBlock: OJICUG_clean_linker_0, # of connection points: 2
#     Edge 104, Type (0, 1), BuildingBlock: OJICUG_clean_linker_0, # of connection points: 2
#     Edge 105, Type (0, 1), BuildingBlock: OJICUG_clean_linker_0, # of connection points: 2
#     Edge 106, Type (0, 1), BuildingBlock: OJICUG_clean_linker_0, # of connection points: 2
#     Edge 107, Type (0, 1), BuildingBlock: OJICUG_clean_linker_0, # of connection points: 2
#     Edge 108, Type (0, 1), BuildingBlock: OJICUG_clean_linker_0, # of connection points: 2
#     Edge 109, Type (0, 1), BuildingBlock: OJICUG_clean_linker_0, # of connection points: 2
#     Edge 110, Type (0, 1), BuildingBlock: OJICUG_clean_linker_0, # of connection points: 2
#     Edge 111, Type (0, 1), BuildingBlock: OJICUG_clean_linker_0, # of connection points: 2
#     Edge 112, Type (0, 1), BuildingBlock: OJICUG_clean_linker_0, # of connection points: 2
#     Edge 113, Type (0, 1), BuildingBlock: OJICUG_clean_linker_0, # of connection points: 2
#     Edge 114, Type (0, 1), BuildingBlock: OJICUG_clean_linker_0, # of connection points: 2
#     Edge 115, Type (0, 1), BuildingBlock: OJICUG_clean_linker_0, # of connection points: 2
#     Edge 116, Type (0, 1), BuildingBlock: OJICUG_clean_linker_0, # of connection points: 2
#     Edge 117, Type (0, 1), BuildingBlock: OJICUG_clean_linker_0, # of connection points: 2
#     Edge 118, Type (0, 1), BuildingBlock: OJICUG_clean_linker_0, # of connection points: 2
#     Edge 119, Type (0, 1), BuildingBlock: OJICUG_clean_linker_0, # of connection points: 2
#     Edge 120, Type (0, 1), BuildingBlock: OJICUG_clean_linker_0, # of connection points: 2
#     Edge 121, Type (0, 1), BuildingBlock: OJICUG_clean_linker_0, # of connection points: 2
#     Edge 122, Type (0, 1), BuildingBlock: OJICUG_clean_linker_0, # of connection points: 2
#     Edge 123, Type (0, 1), BuildingBlock: OJICUG_clean_linker_0, # of connection points: 2
#     Edge 124, Type (0, 1), BuildingBlock: OJICUG_clean_linker_0, # of connection points: 2
#     Edge 125, Type (0, 1), BuildingBlock: OJICUG_clean_linker_0, # of connection points: 2
#     Edge 126, Type (0, 1), BuildingBlock: OJICUG_clean_linker_0, # of connection points: 2
#     Edge 127, Type (0, 1), BuildingBlock: OJICUG_clean_linker_0, # of connection points: 2
#     Edge 128, Type (0, 1), BuildingBlock: OJICUG_clean_linker_0, # of connection points: 2
#     Edge 129, Type (0, 1), BuildingBlock: OJICUG_clean_linker_0, # of connection points: 2
#     Edge 130, Type (0, 1), BuildingBlock: OJICUG_clean_linker_0, # of connection points: 2
#     Edge 131, Type (0, 1), BuildingBlock: OJICUG_clean_linker_0, # of connection points: 2
#     Edge 132, Type (0, 1), BuildingBlock: OJICUG_clean_linker_0, # of connection points: 2
#     Edge 133, Type (0, 1), BuildingBlock: OJICUG_clean_linker_0, # of connection points: 2
#     Edge 134, Type (0, 1), BuildingBlock: OJICUG_clean_linker_0, # of connection points: 2
#     Edge 135, Type (0, 1), BuildingBlock: OJICUG_clean_linker_0, # of connection points: 2
#     Edge 136, Type (0, 1), BuildingBlock: OJICUG_clean_linker_0, # of connection points: 2
#     Edge 137, Type (0, 1), BuildingBlock: OJICUG_clean_linker_0, # of connection points: 2
#     Edge 138, Type (0, 1), BuildingBlock: OJICUG_clean_linker_0, # of connection points: 2
#     Edge 139, Type (0, 1), BuildingBlock: OJICUG_clean_linker_0, # of connection points: 2
#     Edge 140, Type (0, 1), BuildingBlock: OJICUG_clean_linker_0, # of connection points: 2
#     Edge 141, Type (0, 1), BuildingBlock: OJICUG_clean_linker_0, # of connection points: 2
#     Edge 142, Type (0, 1), BuildingBlock: OJICUG_clean_linker_0, # of connection points: 2
#     Edge 143, Type (0, 1), BuildingBlock: OJICUG_clean_linker_0, # of connection points: 2
#     Edge 144, Type (0, 1), BuildingBlock: OJICUG_clean_linker_0, # of connection points: 2
#     Edge 145, Type (0, 1), BuildingBlock: OJICUG_clean_linker_0, # of connection points: 2
#     Edge 146, Type (0, 1), BuildingBlock: OJICUG_clean_linker_0, # of connection points: 2
#     Edge 147, Type (0, 1), BuildingBlock: OJICUG_clean_linker_0, # of connection points: 2
#     Edge 148, Type (0, 1), BuildingBlock: OJICUG_clean_linker_0, # of connection points: 2
#     Edge 149, Type (0, 1), BuildingBlock: OJICUG_clean_linker_0, # of connection points: 2
#     Edge 150, Type (0, 1), BuildingBlock: OJICUG_clean_linker_0, # of connection points: 2
#     Edge 151, Type (0, 1), BuildingBlock: OJICUG_clean_linker_0, # of connection points: 2
# Relax obj value: 0.005
# Max RMSD: 0.133
# Mean RMSD: 0.053
data_MOF--net-tbo--node1-ESEHIV_clean_sbu_0--node2-ESEHIV_clean_linker_0--edge1-OJICUG_clean_linker_0
_symmetry_space_group_name_H-M    P1
_symmetry_Int_Tables_number       1
_symmetry_cell_setting            triclinic
loop_
_symmetry_equiv_pos_as_xyz
'x, y, z'
_cell_length_a     49.78215
_cell_length_b     49.806589
_cell_length_c     49.901987
_cell_angle_alpha  90.174885
_cell_angle_beta   93.41444
_cell_angle_gamma 91.478356
loop_
_atom_site_label
_atom_site_type_symbol
_atom_site_fract_x
_atom_site_fract_y
_atom_site_fract_z
_atom_type_partial_charge
H0 H 0.18705 0.20157 0.18752 0.0
H1 H 0.2374 0.13967 0.15925 0.0
H2 H 0.19803 0.12899 0.23291 0.0
C3 C 0.19569 0.18191 0.18975 0.0
C4 C 0.18994 0.16626 0.21224 0.0
C5 C 0.21295 0.17278 0.17054 0.0
C6 C 0.22455 0.14741 0.1741 0.0
C7 C 0.21957 0.13182 0.19677 0.0
C8 C 0.20242 0.14141 0.21583 0.0
H9 H 0.92771 0.19021 0.22898 0.0
H10 H 0.92859 0.25527 0.17294 0.0
H11 H 0.8582 0.20337 0.17547 0.0
C12 C 0.9174 0.20166 0.21326 0.0
C13 C 0.89094 0.19417 0.20423 0.0
C14 C 0.93099 0.2237 0.20224 0.0
C15 C 0.91797 0.23856 0.18181 0.0
C16 C 0.89193 0.23102 0.17168 0.0
C17 C 0.87848 0.20883 0.18297 0.0
H18 H 0.82009 0.90842 0.14289 0.0
H19 H 0.87851 0.84603 0.14789 0.0
H20 H 0.8765 0.90494 0.21097 0.0
C21 C 0.83715 0.89909 0.15325 0.0
C22 C 0.84654 0.90891 0.17856 0.0
C23 C 0.84886 0.87659 0.14178 0.0
C24 C 0.86996 0.8637 0.15633 0.0
C25 C 0.87991 0.87344 0.18168 0.0
C26 C 0.86837 0.89644 0.19211 0.0
H27 H 0.14202 0.83382 0.21007 0.0
H28 H 0.20314 0.83787 0.1526 0.0
H29 H 0.14423 0.77236 0.15065 0.0
C30 C 0.15172 0.82551 0.19315 0.0
C31 C 0.14088 0.80178 0.18135 0.0
C32 C 0.17459 0.83855 0.18355 0.0
C33 C 0.18576 0.82788 0.16048 0.0
C34 C 0.1747 0.80412 0.14785 0.0
C35 C 0.15231 0.79125 0.15884 0.0
H36 H 0.17408 0.8966 0.83716 0.0
H37 H 0.16675 0.82522 0.88486 0.0
H38 H 0.2383 0.87526 0.89387 0.0
C39 C 0.18248 0.88287 0.85202 0.0
C40 C 0.20823 0.88837 0.86436 0.0
C41 C 0.16708 0.86032 0.85951 0.0
C42 C 0.1781 0.84305 0.87951 0.0
C43 C 0.20384 0.84828 0.8922 0.0
C44 C 0.21857 0.87098 0.88431 0.0
H45 H 0.2143 0.232 0.90186 0.0
H46 H 0.2556 0.1578 0.89646 0.0
H47 H 0.19561 0.17838 0.83485 0.0
C48 C 0.21792 0.21374 0.89093 0.0
C49 C 0.20248 0.20755 0.86698 0.0
C50 C 0.23699 0.19579 0.90175 0.0
C51 C 0.24078 0.17158 0.88823 0.0
C52 C 0.22605 0.16519 0.86401 0.0
C53 C 0.20708 0.18334 0.85342 0.0
H54 H 0.86165 0.17678 0.87686 0.0
H55 H 0.91607 0.17855 0.81321 0.0
H56 H 0.92863 0.23248 0.88145 0.0
C57 C 0.8797 0.1849 0.86834 0.0
C58 C 0.89455 0.20519 0.88214 0.0
C59 C 0.8872 0.17512 0.8437 0.0
C60 C 0.91005 0.18637 0.83216 0.0
C61 C 0.9257 0.20691 0.84583 0.0
C62 C 0.91734 0.21649 0.87075 0.0
H63 H 0.79653 0.92428 0.84509 0.0
H64 H 0.8498 0.85985 0.86498 0.0
H65 H 0.86609 0.91287 0.79961 0.0
C66 C 0.81426 0.913 0.84136 0.0
C67 C 0.8307 0.92128 0.8207 0.0
C68 C 0.82051 0.89026 0.85699 0.0
C69 C 0.84387 0.87631 0.85198 0.0
C70 C 0.86039 0.88396 0.83129 0.0
C71 C 0.8535 0.90648 0.81551 0.0
H72 H 0.13494 0.74482 0.64129 0.0
H73 H 0.18981 0.67951 0.63559 0.0
H74 H 0.1374 0.68251 0.70059 0.0
C75 C 0.14317 0.72622 0.64889 0.0
C76 C 0.13314 0.71437 0.67201 0.0
C77 C 0.16339 0.71341 0.63525 0.0
C78 C 0.17395 0.68925 0.64561 0.0
C79 C 0.16444 0.67779 0.66901 0.0
C80 C 0.14413 0.69058 0.68189 0.0
H81 H 0.90893 0.70865 0.71422 0.0
H82 H 0.88243 0.76281 0.65176 0.0
H83 H 0.8388 0.68824 0.66278 0.0
C84 C 0.89506 0.71329 0.6974 0.0
C85 C 0.87328 0.69554 0.69047 0.0
C86 C 0.89845 0.73764 0.68359 0.0
C87 C 0.87979 0.74415 0.66252 0.0
C88 C 0.8584 0.72614 0.65462 0.0
C89 C 0.85535 0.70198 0.6687 0.0
H90 H 0.83589 0.39898 0.66336 0.0
H91 H 0.9051 0.34956 0.6776 0.0
H92 H 0.88993 0.41293 0.73277 0.0
C93 C 0.85384 0.39377 0.67538 0.0
C94 C 0.8607 0.40804 0.69931 0.0
C95 C 0.86992 0.37263 0.6672 0.0
C96 C 0.89319 0.36638 0.68315 0.0
C97 C 0.90078 0.38083 0.70674 0.0
C98 C 0.88424 0.40148 0.71473 0.0
H99 H 0.16827 0.39289 0.71073 0.0
H100 H 0.23574 0.39795 0.66139 0.0
H101 H 0.18354 0.32756 0.65725 0.0
C102 C 0.18009 0.38427 0.69547 0.0
C103 C 0.17259 0.35878 0.68464 0.0
C104 C 0.20295 0.39843 0.68735 0.0
C105 C 0.21828 0.38696 0.66798 0.0
C106 C 0.21165 0.36157 0.65695 0.0
C107 C 0.18893 0.34716 0.66571 0.0
H108 H 0.19988 0.38093 0.34925 0.0
H109 H 0.19504 0.318 0.40763 0.0
H110 H 0.26249 0.37372 0.41218 0.0
C111 C 0.20841 0.37089 0.36688 0.0
C112 C 0.23307 0.38029 0.37932 0.0
C113 C 0.19442 0.34872 0.37718 0.0
C114 C 0.20565 0.33524 0.39972 0.0
C115 C 0.23015 0.34401 0.41249 0.0
C116 C 0.2437 0.36665 0.40221 0.0
H117 H 0.17087 0.70049 0.37806 0.0
H118 H 0.22773 0.63881 0.36747 0.0
H119 H 0.15987 0.64593 0.31069 0.0
C120 C 0.1778 0.68408 0.36622 0.0
C121 C 0.16261 0.67557 0.34285 0.0
C122 C 0.20151 0.67134 0.37506 0.0
C123 C 0.20938 0.64877 0.36094 0.0
C124 C 0.19422 0.63918 0.33802 0.0
C125 C 0.17114 0.65297 0.3287 0.0
H126 H 0.81751 0.66258 0.38109 0.0
H127 H 0.85943 0.655 0.30848 0.0
H128 H 0.87524 0.72362 0.35982 0.0
C129 C 0.8319 0.67052 0.36751 0.0
C130 C 0.84579 0.69511 0.37347 0.0
C131 C 0.8366 0.6561 0.34395 0.0
C132 C 0.8556 0.66616 0.32649 0.0
C133 C 0.86968 0.69044 0.33216 0.0
C134 C 0.86452 0.70474 0.35556 0.0
H135 H 0.84365 0.3857 0.37264 0.0
H136 H 0.89427 0.31966 0.39311 0.0
H137 H 0.91569 0.37376 0.33045 0.0
C138 C 0.86183 0.37485 0.36968 0.0
C139 C 0.87918 0.38299 0.34972 0.0
C140 C 0.86706 0.35192 0.38511 0.0
C141 C 0.88999 0.33705 0.38073 0.0
C142 C 0.90765 0.34459 0.361 0.0
C143 C 0.90217 0.36776 0.34569 0.0
H144 H 0.67719 0.26601 0.64504 0.0
H145 H 0.72667 0.19662 0.64382 0.0
H146 H 0.67645 0.20956 0.70984 0.0
C147 C 0.68446 0.24775 0.65437 0.0
C148 C 0.67517 0.23995 0.67924 0.0
C149 C 0.70257 0.232 0.64119 0.0
C150 C 0.7117 0.20813 0.65335 0.0
C151 C 0.70262 0.19965 0.67821 0.0
C152 C 0.68394 0.21568 0.6908 0.0
H153 H 0.43117 0.19028 0.75034 0.0
H154 H 0.42195 0.24549 0.68452 0.0
H155 H 0.36541 0.17942 0.69125 0.0
C156 C 0.42016 0.19707 0.73235 0.0
C157 C 0.39722 0.18233 0.72248 0.0
C158 C 0.4293 0.22006 0.71906 0.0
C159 C 0.41518 0.22781 0.695 0.0
C160 C 0.39223 0.21307 0.68444 0.0
C161 C 0.38351 0.19035 0.69848 0.0
H162 H 0.31759 0.90195 0.66689 0.0
H163 H 0.38098 0.84608 0.68432 0.0
H164 H 0.3811 0.92092 0.72699 0.0
C165 C 0.33597 0.89656 0.6781 0.0
C166 C 0.34807 0.91455 0.69734 0.0
C167 C 0.34776 0.87164 0.67335 0.0
C168 C 0.37167 0.86508 0.68801 0.0
C169 C 0.38375 0.88267 0.70739 0.0
C170 C 0.37179 0.90727 0.712 0.0
H171 H 0.63734 0.89403 0.70878 0.0
H172 H 0.70913 0.9059 0.66634 0.0
H173 H 0.66082 0.83328 0.65393 0.0
C174 C 0.65126 0.88688 0.69462 0.0
C175 C 0.64625 0.86183 0.68195 0.0
C176 C 0.67385 0.90288 0.68922 0.0
C177 C 0.69173 0.89353 0.67075 0.0
C178 C 0.68734 0.86852 0.65778 0.0
C179 C 0.66449 0.85262 0.66364 0.0
H180 H 0.68165 0.88859 0.31605 0.0
H181 H 0.66821 0.83018 0.37745 0.0
H182 H 0.73094 0.89025 0.39023 0.0
C183 C 0.68672 0.88081 0.33591 0.0
C184 C 0.70833 0.89244 0.35196 0.0
C185 C 0.67239 0.8582 0.34494 0.0
C186 C 0.67946 0.84739 0.37031 0.0
C187 C 0.70048 0.85879 0.38677 0.0
C188 C 0.71466 0.8814 0.3775 0.0
H189 H 0.67211 0.22123 0.36677 0.0
H190 H 0.72853 0.15779 0.36094 0.0
H191 H 0.66309 0.16367 0.30174 0.0
C192 C 0.67885 0.20361 0.3566 0.0
C193 C 0.6648 0.19442 0.33278 0.0
C194 C 0.70177 0.19027 0.36714 0.0
C195 C 0.71038 0.16762 0.35358 0.0
C196 C 0.69657 0.15793 0.33006 0.0
C197 C 0.67392 0.17145 0.31971 0.0
H198 H 0.32716 0.15332 0.39163 0.0
H199 H 0.36835 0.1358 0.32032 0.0
H200 H 0.39782 0.19947 0.37307 0.0
C201 C 0.34345 0.15738 0.37865 0.0
C202 C 0.36292 0.1777 0.38579 0.0
C203 C 0.34485 0.14242 0.35469 0.0
C204 C 0.36637 0.14779 0.3382 0.0
C205 C 0.38576 0.16809 0.34482 0.0
C206 C 0.38363 0.18301 0.36847 0.0
H207 H 0.31639 0.8778 0.39023 0.0
H208 H 0.3781 0.8199 0.40356 0.0
H209 H 0.38044 0.8733 0.33612 0.0
C210 C 0.33471 0.86882 0.38425 0.0
C211 C 0.34692 0.87811 0.36109 0.0
C212 C 0.34606 0.84824 0.40004 0.0
C213 C 0.36967 0.83638 0.392 0.0
C214 C 0.38213 0.84501 0.36883 0.0
C215 C 0.37057 0.86595 0.35351 0.0
H216 H 0.65402 0.72686 0.16523 0.0
H217 H 0.72106 0.68032 0.14389 0.0
H218 H 0.6738 0.655 0.20906 0.0
C219 C 0.66644 0.70949 0.16841 0.0
C220 C 0.66102 0.69135 0.18915 0.0
C221 C 0.68789 0.70562 0.15182 0.0
C222 C 0.70428 0.68331 0.15634 0.0
C223 C 0.69945 0.66499 0.17701 0.0
C224 C 0.67763 0.66907 0.19314 0.0
H225 H 0.39528 0.69179 0.22059 0.0
H226 H 0.39377 0.74736 0.15524 0.0
H227 H 0.33657 0.68053 0.15436 0.0
C228 C 0.38627 0.69825 0.20144 0.0
C229 C 0.3645 0.68333 0.18928 0.0
C230 C 0.39671 0.72139 0.18949 0.0
C231 C 0.38574 0.72941 0.16441 0.0
C232 C 0.364 0.71489 0.15146 0.0
C233 C 0.35366 0.69151 0.16384 0.0
H234 H 0.33126 0.38412 0.17222 0.0
H235 H 0.39701 0.32962 0.17653 0.0
H236 H 0.39219 0.39003 0.23728 0.0
C237 C 0.34983 0.37734 0.18204 0.0
C238 C 0.36008 0.39025 0.20582 0.0
C239 C 0.36296 0.35539 0.17118 0.0
C240 C 0.38646 0.34624 0.18475 0.0
C241 C 0.39678 0.35837 0.20878 0.0
C242 C 0.38355 0.38028 0.21922 0.0
H243 H 0.66831 0.38678 0.21397 0.0
H244 H 0.73407 0.37772 0.16203 0.0
H245 H 0.66446 0.32551 0.15298 0.0
C246 C 0.67724 0.37708 0.19732 0.0
C247 C 0.66306 0.3558 0.18366 0.0
C248 C 0.70305 0.38541 0.18976 0.0
C249 C 0.71446 0.37162 0.16851 0.0
C250 C 0.70052 0.35013 0.15512 0.0
C251 C 0.67486 0.34267 0.16268 0.0
H252 H 0.70137 0.39123 0.8458 0.0
H253 H 0.70153 0.33543 0.91175 0.0
H254 H 0.76526 0.39461 0.90799 0.0
C255 C 0.71055 0.38387 0.8645 0.0
C256 C 0.73523 0.39541 0.87497 0.0
C257 C 0.69826 0.362 0.87755 0.0
C258 C 0.71072 0.35218 0.90154 0.0
C259 C 0.73505 0.36382 0.91235 0.0
C260 C 0.74693 0.38531 0.89905 0.0
H261 H 0.68978 0.72684 0.88649 0.0
H262 H 0.75 0.66723 0.8837 0.0
H263 H 0.69323 0.678 0.81565 0.0
C264 C 0.69896 0.71083 0.87573 0.0
C265 C 0.68901 0.70412 0.84968 0.0
C266 C 0.72082 0.69768 0.88805 0.0
C267 C 0.73303 0.67733 0.87403 0.0
C268 C 0.72308 0.6697 0.84784 0.0
C269 C 0.70071 0.68307 0.83592 0.0
H270 H 0.33881 0.64954 0.83991 0.0
H271 H 0.40366 0.66668 0.78967 0.0
H272 H 0.39458 0.71498 0.8605 0.0
C273 C 0.3564 0.66179 0.83581 0.0
C274 C 0.36469 0.68312 0.85315 0.0
C275 C 0.37009 0.65627 0.81279 0.0
C276 C 0.39298 0.67162 0.80726 0.0
C277 C 0.40249 0.6926 0.82455 0.0
C278 C 0.38809 0.69828 0.84752 0.0
H279 H 0.32972 0.40872 0.8964 0.0
H280 H 0.40009 0.36007 0.89757 0.0
H281 H 0.38678 0.42064 0.83664 0.0
C282 C 0.34873 0.40362 0.88837 0.0
C283 C 0.35693 0.4172 0.86579 0.0
C284 C 0.36394 0.38296 0.90004 0.0
C285 C 0.38804 0.37582 0.88852 0.0
C286 C 0.39693 0.38977 0.86581 0.0
C287 C 0.3808 0.41014 0.85441 0.0
Cu288 Cu 0.29322 0.27276 0.03476 0.0
N289 N 0.29053 0.30192 1.01158 0.0
N290 N 0.30519 0.3308 0.98125 0.0
C291 C 0.30969 0.30766 0.9944 0.0
C292 C 0.28209 0.33997 0.99038 0.0
C293 C 0.27295 0.32195 1.00902 0.0
O294 O 0.30122 0.24401 1.01008 0.0
C295 C 0.31335 0.30523 0.0751 0.0
O296 O 0.29089 0.31672 0.06692 0.0
H297 H 0.32721 0.29554 0.99238 0.0
H298 H 0.25527 0.32373 0.02044 0.0
N299 N 0.2619 0.26358 0.05182 0.0
N300 N 0.2377 0.2415 0.08157 0.0
C301 C 0.26246 0.24998 0.07509 0.0
C302 C 0.23582 0.26422 0.04323 0.0
C303 C 0.22079 0.2507 0.06163 0.0
C304 C 0.28607 0.22312 1.00651 0.0
O305 O 0.27187 0.21451 0.02623 0.0
H306 H 0.281 0.24555 0.08641 0.0
H307 H 0.22843 0.27261 0.02431 0.0
O308 O 0.31979 0.28363 0.06348 0.0
H309 H 0.27264 0.35845 0.98416 0.0
H310 H 0.19929 0.24675 0.05965 0.0
Cu311 Cu 0.80958 0.27753 0.03086 0.0
N312 N 0.77735 0.27209 0.04764 0.0
N313 N 0.74622 0.28373 0.07578 0.0
C314 C 0.77268 0.28326 0.07144 0.0
C315 C 0.73377 0.27137 0.0541 0.0
C316 C 0.75304 0.26427 0.03675 0.0
O317 O 0.83837 0.27293 0.05827 0.0
C318 C 0.7874 0.32616 1.01143 0.0
O319 O 0.77413 0.32628 0.03335 0.0
H320 H 0.78806 0.29388 0.08371 0.0
H321 H 0.74939 0.25627 0.01664 0.0
N322 N 0.81525 0.25101 1.00574 0.0
N323 N 0.83608 0.23024 0.97342 0.0
C324 C 0.83291 0.25361 0.98643 0.0
C325 C 0.80678 0.22516 1.00497 0.0
C326 C 0.81956 0.21228 0.98495 0.0
C327 C 0.84494 0.2868 0.07917 0.0
O328 O 0.83575 0.31111 0.08161 0.0
H329 H 0.84418 0.27201 0.98292 0.0
H330 H 0.79306 0.21616 0.01858 0.0
O331 O 0.8071 0.31047 1.00983 0.0
H332 H 0.71222 0.2692 0.05014 0.0
H333 H 0.81712 0.19126 0.97955 0.0
Cu334 Cu 0.76205 0.80401 1.01141 0.0
N335 N 0.75598 0.83029 0.98493 0.0
N336 N 0.76346 0.85414 0.94801 0.0
C337 C 0.77122 0.83334 0.96367 0.0
C338 C 0.74239 0.86462 0.95981 0.0
C339 C 0.73766 0.84972 0.98246 0.0
O340 O 0.76505 0.77047 0.99144 0.0
C341 C 0.79552 0.83891 0.04217 0.0
O342 O 0.77844 0.85604 0.03144 0.0
H343 H 0.78812 0.82083 0.96011 0.0
H344 H 0.72207 0.85306 0.99614 0.0
N345 N 0.73447 0.79985 0.03518 0.0
N346 N 0.71254 0.78116 0.06866 0.0
C347 C 0.73035 0.77748 0.04968 0.0
C348 C 0.71892 0.8185 0.04554 0.0
C349 C 0.70524 0.80699 0.06604 0.0
C350 C 0.74284 0.7595 0.98257 0.0
O351 O 0.72024 0.77036 0.98878 0.0
H352 H 0.74155 0.75936 0.04737 0.0
H353 H 0.71872 0.83939 0.03983 0.0
O354 O 0.79353 0.81439 0.03469 0.0
H355 H 0.73111 0.88166 0.95247 0.0
H356 H 0.69166 0.81716 0.07858 0.0
Cu357 Cu 0.27858 0.74461 1.00674 0.0
N358 N 0.2496 0.73912 0.0287 0.0
N359 N 0.22158 0.74939 0.0604 0.0
C360 C 0.24113 0.75841 0.04497 0.0
C361 C 0.21718 0.72339 0.05341 0.0
C362 C 0.2347 0.71701 0.03394 0.0
O363 O 0.31022 0.74297 0.03178 0.0
C364 C 0.24684 0.77646 0.97468 0.0
O365 O 0.23099 0.75555 0.97866 0.0
H366 H 0.24925 0.77876 0.04562 0.0
H367 H 0.23694 0.69749 0.02495 0.0
N368 N 0.28277 0.71836 0.98041 0.0
N369 N 0.29949 0.70062 0.94371 0.0
C370 C 0.30354 0.71838 0.96417 0.0
C371 C 0.26494 0.69987 0.96994 0.0
C372 C 0.27523 0.68885 0.94739 0.0
C373 C 0.3137 0.75743 0.05285 0.0
O374 O 0.29986 0.77936 0.05476 0.0
H375 H 0.32045 0.73248 0.96632 0.0
H376 H 0.24524 0.69576 0.9772 0.0
O377 O 0.27057 0.77714 0.9861 0.0
H378 H 0.20313 0.70975 0.06251 0.0
H379 H 0.26519 0.67393 0.93424 0.0
Cu380 Cu 0.06375 0.26634 0.30043 0.0
N381 N 0.08569 0.23633 0.30086 0.0
N382 N 0.11555 0.20821 0.28523 0.0
C383 C 0.09949 0.22917 0.27971 0.0
C384 C 0.11182 0.20207 0.31114 0.0
C385 C 0.09338 0.2195 0.32075 0.0
O386 O 0.08826 0.29667 0.30885 0.0
C387 C 0.03186 0.24413 0.25994 0.0
O388 O 0.03708 0.22346 0.27549 0.0
H389 H 0.09835 0.23984 0.26084 0.0
H390 H 0.08658 0.22024 0.34091 0.0
N391 N 0.03685 0.26572 0.32504 0.0
N392 N 0.99965 0.27969 0.34337 0.0
C393 C 0.01993 0.28611 0.32758 0.0
C394 C 0.02706 0.24553 0.33973 0.0
C395 C 1.00412 0.25412 0.35114 0.0
C396 C 0.09578 0.29873 0.33367 0.0
O397 O 0.08496 0.28225 0.35074 0.0
H398 H 0.02164 0.30476 0.31666 0.0
H399 H 0.03525 0.22565 0.34106 0.0
O400 O 0.04319 0.26678 0.26604 0.0
H401 H 0.12177 0.18626 0.3224 0.0
H402 H 0.99139 0.24222 0.36362 0.0
Cu403 Cu 0.78929 0.04048 0.26266 0.0
N404 N 0.81947 0.06418 0.2635 0.0
N405 N 0.84536 0.09984 0.25343 0.0
C406 C 0.82158 0.08653 0.24838 0.0
C407 C 0.85879 0.08521 0.27231 0.0
C408 C 0.84292 0.0632 0.27833 0.0
O409 O 0.75791 0.06307 0.26424 0.0
C410 C 0.81153 1.00079 0.23571 0.0
O411 O 0.82788 1.00451 0.25711 0.0
H412 H 0.80581 0.09306 0.23419 0.0
H413 H 0.84843 0.04743 0.29222 0.0
N414 N 0.78756 0.01713 0.29228 0.0
N415 N 0.77219 0.98291 0.31666 0.0
C416 C 0.76896 0.99706 0.29371 0.0
C417 C 0.80297 0.01576 0.31533 0.0
C418 C 0.79363 0.9946 0.33031 0.0
C419 C 0.75764 0.07449 0.28716 0.0
O420 O 0.77764 0.07044 0.30492 0.0
H421 H 0.75358 0.9927 0.27793 0.0
H422 H 0.81956 0.02932 0.32117 0.0
O423 O 0.79157 0.01622 0.23207 0.0
H424 H 0.87892 0.08981 0.28078 0.0
H425 H 0.80172 0.98859 0.34993 0.0
Cu426 Cu 1.0063 0.75517 0.263 0.0
N427 N 0.99214 0.78975 0.26022 0.0
N428 N 0.96492 0.82172 0.24431 0.0
C429 C 0.97406 0.79685 0.24051 0.0
C430 C 0.97784 0.8308 0.26721 0.0
C431 C 0.99484 0.81111 0.27688 0.0
O432 O 0.97527 0.73061 0.2652 0.0
C433 C 0.04923 0.76944 0.23694 0.0
O434 O 0.0492 0.786 0.25748 0.0
H435 H 0.96681 0.7835 0.22435 0.0
H436 H 1.00768 0.81219 0.29507 0.0
N437 N 0.02927 0.74903 0.29348 0.0
N438 N 0.06511 0.73254 0.31638 0.0
C439 C 0.04907 0.73103 0.29369 0.0
C440 C 0.03261 0.76205 0.31718 0.0
C441 C 0.05489 0.75205 0.33126 0.0
C442 C 0.96025 0.73798 0.28359 0.0
O443 O 0.96773 0.75909 0.29828 0.0
H444 H 0.05255 0.71811 0.27682 0.0
H445 H 0.02026 0.77809 0.32358 0.0
O446 O 0.02984 0.75228 0.23333 0.0
H447 H 0.97492 0.85012 0.27644 0.0
H448 H 0.06321 0.75887 0.35071 0.0
Cu449 Cu 0.26311 0.99384 0.26736 0.0
N450 N 0.25961 0.01872 0.29532 0.0
N451 N 0.27272 0.0547 0.32042 0.0
C452 C 0.27615 0.04053 0.29786 0.0
C453 C 0.25317 0.04121 0.33281 0.0
C454 C 0.24498 0.01906 0.3172 0.0
O455 O 0.26939 0.01799 0.23743 0.0
C456 C 0.28795 0.9591 0.3018 0.0
O457 O 0.26513 0.96341 0.31278 0.0
H458 H 0.29145 0.04517 0.28394 0.0
H459 H 0.23021 1.00386 0.3221 0.0
N460 N 0.23326 0.97067 0.25911 0.0
N461 N 0.20984 0.93511 0.24156 0.0
C462 C 0.23276 0.95017 0.24122 0.0
C463 C 0.20976 0.96852 0.27103 0.0
C464 C 0.19536 0.94652 0.26036 0.0
C465 C 0.25034 0.02373 0.22033 0.0
O466 O 0.2293 1.00735 0.2173 0.0
H467 H 0.24937 0.94573 0.22903 0.0
H468 H 0.20379 0.98151 0.28687 0.0
O469 O 0.29246 0.97066 0.27965 0.0
H470 H 0.24561 0.04673 0.35191 0.0
H471 H 0.17593 0.9392 0.26626 0.0
Cu472 Cu 0.02072 0.81067 0.77815 0.0
N473 N 0.03802 0.77856 0.77347 0.0
N474 N 0.06259 0.75192 0.74918 0.0
C475 C 0.05575 0.77726 0.75429 0.0
C476 C 0.04877 0.7365 0.76617 0.0
C477 C 0.03353 0.75307 0.78121 0.0
O478 O 0.05079 0.83563 0.78878 0.0
C479 C 0.98123 0.79347 0.74291 0.0
O480 O 0.98025 0.77691 0.76323 0.0
H481 H 0.06185 0.79457 0.74285 0.0
H482 H 0.01902 0.74678 0.79535 0.0
N483 N 0.99556 0.81177 0.80449 0.0
N484 N 0.95782 0.82552 0.82167 0.0
C485 C 0.97687 0.8308 0.80423 0.0
C486 C 0.98834 0.79381 0.82302 0.0
C487 C 0.96494 0.80226 0.83365 0.0
C488 C 0.06112 0.82991 0.81213 0.0
O489 O 0.04948 0.81069 0.82561 0.0
H490 H 0.97627 0.84721 0.79006 0.0
H491 H 0.99852 0.77531 0.82753 0.0
O492 O 0.99865 0.81292 0.74421 0.0
H493 H 0.0489 0.7148 0.76702 0.0
H494 H 0.95363 0.79171 0.8484 0.0
Cu495 Cu 0.29511 0.03832 0.78735 0.0
N496 N 0.32583 0.06052 0.79164 0.0
N497 N 0.35461 0.09361 0.78162 0.0
C498 C 0.33455 0.07673 0.77232 0.0
C499 C 0.35858 0.08783 0.80797 0.0
C500 C 0.34067 0.06748 0.81412 0.0
O501 O 0.26569 0.06249 0.79367 0.0
C502 C 0.3179 1.01008 0.74768 0.0
O503 O 0.3389 0.01596 0.76401 0.0
H504 H 0.3252 0.07714 0.75218 0.0
H505 H 0.33776 0.05944 0.83385 0.0
N506 N 0.29451 1.01062 0.81231 0.0
N507 N 0.27785 0.97544 0.83391 0.0
C508 C 0.27335 0.99359 0.81434 0.0
C509 C 0.31328 1.00277 0.83098 0.0
C510 C 0.30291 0.98113 0.84457 0.0
C511 C 0.26307 0.06798 0.8184 0.0
O512 O 0.27792 0.0553 0.83666 0.0
H513 H 0.25487 0.99475 0.80187 0.0
H514 H 0.33313 1.01188 0.83436 0.0
O515 O 0.29511 0.01938 0.75289 0.0
H516 H 0.37279 0.09808 0.82198 0.0
H517 H 0.31313 0.97012 0.86065 0.0
Cu518 Cu 0.05358 0.29338 0.77897 0.0
N519 N 0.03113 0.32293 0.78074 0.0
N520 N 0.9961 0.34854 0.76877 0.0
C521 C 1.01299 0.32962 0.76093 0.0
C522 C 1.00401 0.35399 0.79462 0.0
C523 C 0.02558 0.33811 0.80197 0.0
O524 O 0.02872 0.26266 0.78427 0.0
C525 C 0.08311 0.31951 0.7415 0.0
O526 O 0.07786 0.33914 0.75786 0.0
H527 H 1.01117 0.31949 0.74167 0.0
H528 H 0.03548 0.33672 0.82177 0.0
N529 N 0.0812 0.29292 0.80618 0.0
N530 N 0.11739 0.27768 0.82974 0.0
C531 C 0.09689 0.27172 0.81152 0.0
C532 C 0.09212 0.31315 0.82144 0.0
C533 C 0.11436 0.30379 0.83608 0.0
C534 C 0.02129 0.26061 0.80832 0.0
O535 O 0.03255 0.27695 0.82668 0.0
H536 H 0.09396 0.25263 0.8012 0.0
H537 H 0.08506 0.3335 0.82123 0.0
O538 O 0.0731 0.2961 0.74576 0.0
H539 H 0.99443 0.36783 0.80756 0.0
H540 H 0.12746 0.31549 0.85 0.0
Cu541 Cu 0.76013 0.05765 0.75312 0.0
N542 N 0.77191 0.07793 0.78329 0.0
N543 N 0.80184 0.10354 0.80742 0.0
C544 C 0.79416 0.09382 0.78293 0.0
C545 C 0.78352 0.09362 0.82395 0.0
C546 C 0.76492 0.07786 0.80894 0.0
O547 O 0.75457 0.08483 0.72496 0.0
C548 C 0.78634 0.01557 0.77401 0.0
O549 O 0.7685 0.02148 0.79128 0.0
H550 H 0.80538 0.09691 0.76521 0.0
H551 H 0.7484 0.06621 0.81647 0.0
N552 N 0.72763 0.03825 0.75441 0.0
N553 N 0.69991 1.00368 0.74246 0.0
C554 C 0.72133 0.01891 0.73613 0.0
C555 C 0.70933 0.03552 0.77309 0.0
C556 C 0.69218 1.01403 0.76577 0.0
C557 C 0.73793 0.10222 0.7323 0.0
O558 O 0.72663 0.09847 0.75517 0.0
H559 H 0.73367 0.01486 0.71951 0.0
H560 H 0.70929 0.04723 0.79135 0.0
O561 O 0.78707 0.02937 0.7524 0.0
H562 H 0.7839 0.09704 0.8454 0.0
H563 H 0.67597 1.00608 0.77718 0.0
Cu564 Cu 0.26847 0.7721 0.5248 0.0
N565 N 0.29277 0.77517 0.55474 0.0
N566 N 0.31246 0.79427 0.59182 0.0
C567 C 0.29719 0.79808 0.56893 0.0
C568 C 0.31789 0.76781 0.59189 0.0
C569 C 0.30557 0.75606 0.56911 0.0
O570 O 0.23317 0.77005 0.54034 0.0
C571 C 0.30128 0.80231 0.49459 0.0
O572 O 0.31799 0.78618 0.50751 0.0
H573 H 0.28811 0.81686 0.56315 0.0
H574 H 0.305 0.73493 0.56411 0.0
N575 N 0.27173 0.74139 0.50361 0.0
N576 N 0.26124 0.71365 0.46904 0.0
C577 C 0.25512 0.73634 0.48185 0.0
C578 C 0.28928 0.72123 0.50461 0.0
C579 C 0.28267 0.70389 0.48336 0.0
C580 C 0.22716 0.7469 0.54959 0.0
O581 O 0.24356 0.72712 0.54617 0.0
H582 H 0.23866 0.74915 0.47566 0.0
H583 H 0.30587 0.71938 0.5194 0.0
O584 O 0.27652 0.80125 0.50007 0.0
H585 H 0.32948 0.75746 0.60751 0.0
H586 H 0.29316 0.68592 0.47847 0.0
Cu587 Cu 0.77737 0.78753 0.51995 0.0
N588 N 0.80502 0.78398 0.49636 0.0
N589 N 0.8255 0.76475 0.46268 0.0
C590 C 0.8045 0.76358 0.47854 0.0
C591 C 0.83995 0.78694 0.47096 0.0
C592 C 0.82716 0.79888 0.49168 0.0
O593 O 0.74588 0.79275 0.49535 0.0
C594 C 0.80397 0.75825 0.55706 0.0
O595 O 0.82219 0.77518 0.54857 0.0
H596 H 0.78883 0.74808 0.47738 0.0
H597 H 0.83339 0.81717 0.5023 0.0
N598 N 0.77776 0.81665 0.54384 0.0
N599 N 0.76089 0.83932 0.57764 0.0
C600 C 0.75615 0.82065 0.55819 0.0
C601 C 0.79719 0.83342 0.55447 0.0
C602 C 0.78678 0.84753 0.57532 0.0
C603 C 0.74734 0.81614 0.48491 0.0
O604 O 0.76771 0.8322 0.49263 0.0
H605 H 0.73777 0.80864 0.55536 0.0
H606 H 0.8177 0.83439 0.54845 0.0
O607 O 0.78041 0.75781 0.54531 0.0
H608 H 0.85809 0.7944 0.46229 0.0
H609 H 0.79769 0.86215 0.58815 0.0
Cu610 Cu 0.78969 0.28453 0.51328 0.0
N611 N 0.78698 0.25354 0.4918 0.0
N612 N 0.76912 0.22725 0.4586 0.0
C613 C 0.76815 0.25102 0.47141 0.0
C614 C 0.78951 0.21419 0.47151 0.0
C615 C 0.80062 0.23055 0.49196 0.0
O616 O 0.79461 0.31309 0.48725 0.0
C617 C 0.75635 0.26111 0.54686 0.0
O618 O 0.77441 0.24292 0.54319 0.0
H619 H 0.75366 0.26633 0.46644 0.0
H620 H 0.81722 0.22592 0.506 0.0
N621 N 0.81848 0.28731 0.53906 0.0
N622 N 0.84169 0.30509 0.57491 0.0
C623 C 0.81855 0.3051 0.55944 0.0
C624 C 0.84243 0.27536 0.54171 0.0
C625 C 0.85686 0.2864 0.56381 0.0
C626 C 0.81556 0.30855 0.47458 0.0
O627 O 0.83058 0.28832 0.48212 0.0
H628 H 0.8021 0.31841 0.5623 0.0
H629 H 0.84914 0.26015 0.52833 0.0
O630 O 0.75813 0.28347 0.53454 0.0
H631 H 0.79609 0.19437 0.4664 0.0
H632 H 0.87693 0.28108 0.5711 0.0
Cu633 Cu 0.31563 0.26903 0.54034 0.0
N634 N 0.3141 0.30074 0.56015 0.0
N635 N 0.29216 0.32681 0.58757 0.0
C636 C 0.29483 0.30193 0.57782 0.0
C637 C 0.31086 0.3421 0.5757 0.0
C638 C 0.32456 0.32586 0.55878 0.0
O639 O 0.32155 0.24289 0.56951 0.0
C640 C 0.28673 0.29294 0.50123 0.0
O641 O 0.30983 0.30626 0.50384 0.0
H642 H 0.28162 0.28501 0.58191 0.0
H643 H 0.33979 0.33221 0.5454 0.0
N644 N 0.34253 0.26376 0.51636 0.0
N645 N 0.35868 0.24467 0.48019 0.0
C646 C 0.33819 0.2455 0.49656 0.0
C647 C 0.36684 0.27509 0.51258 0.0
C648 C 0.37697 0.26315 0.49026 0.0
C649 C 0.3435 0.24948 0.58297 0.0
O650 O 0.35844 0.26919 0.57394 0.0
H651 H 0.32005 0.23304 0.49427 0.0
H652 H 0.37629 0.29106 0.52481 0.0
O653 O 0.28325 0.2722 0.51598 0.0
H654 H 0.31381 0.36357 0.57835 0.0
H655 H 0.39594 0.26818 0.48175 0.0
Cu656 Cu 0.80158 0.54219 0.77492 0.0
N657 N 0.83183 0.56431 0.76903 0.0
N658 N 0.85394 0.59944 0.75184 0.0
C659 C 0.83025 0.58572 0.75267 0.0
C660 C 0.87129 0.58587 0.7683 0.0
C661 C 0.85758 0.56424 0.77893 0.0
O662 O 0.773 0.56769 0.78082 0.0
C663 C 0.8193 0.5008 0.74679 0.0
O664 O 0.83873 0.50615 0.76511 0.0
H665 H 0.81184 0.59099 0.74152 0.0
H666 H 0.86587 0.54968 0.79291 0.0
N667 N 0.80363 0.52072 0.80569 0.0
N668 N 0.79179 0.48652 0.83183 0.0
C669 C 0.78486 0.50156 0.81023 0.0
C670 C 0.8231 0.51796 0.8253 0.0
C671 C 0.81587 0.49676 0.84142 0.0
C672 C 0.78036 0.58328 0.80049 0.0
O673 O 0.80359 0.57901 0.81349 0.0
H674 H 0.76702 0.49793 0.7971 0.0
H675 H 0.84151 0.52992 0.82738 0.0
O676 O 0.79866 0.51563 0.74565 0.0
H677 H 0.89224 0.59138 0.7728 0.0
H678 H 0.82756 0.48926 0.85866 0.0
Cu679 Cu 0.26585 0.54127 0.75832 0.0
N680 N 0.2672 0.52483 0.79159 0.0
N681 N 0.2857 0.49692 0.822 0.0
C682 C 0.28104 0.50231 0.79569 0.0
C683 C 0.27391 0.51695 0.83498 0.0
C684 C 0.26281 0.53433 0.81615 0.0
O685 O 0.25798 0.5122 0.73298 0.0
C686 C 0.3076 0.5807 0.74741 0.0
O687 O 0.29113 0.5913 0.72912 0.0
H688 H 0.28969 0.49166 0.77951 0.0
H689 H 0.25429 0.55355 0.82023 0.0
N690 N 0.23869 0.56633 0.7543 0.0
N691 N 0.21067 0.59516 0.73417 0.0
C692 C 0.23256 0.58026 0.73179 0.0
C693 C 0.21965 0.57229 0.7713 0.0
C694 C 0.20233 0.59018 0.75891 0.0
C695 C 0.23414 0.50223 0.73315 0.0
O696 O 0.21687 0.51344 0.74833 0.0
H697 H 0.24329 0.57879 0.71365 0.0
H698 H 0.21789 0.56368 0.79096 0.0
O699 O 0.30127 0.55842 0.75801 0.0
H700 H 0.27451 0.51984 0.85649 0.0
H701 H 0.18503 0.59892 0.7674 0.0
Cu702 Cu 0.29214 0.5257 0.27374 0.0
N703 N 0.29693 0.50527 0.30544 0.0
N704 N 0.28801 0.4721 0.33425 0.0
C705 C 0.27852 0.48703 0.31335 0.0
C706 C 0.31348 0.48139 0.33976 0.0
C707 C 0.31892 0.50179 0.32199 0.0
O708 O 0.29676 0.49889 0.24576 0.0
C709 C 0.25536 0.55505 0.2981 0.0
O710 O 0.2752 0.55343 0.31653 0.0
H711 H 0.259 0.48384 0.30294 0.0
H712 H 0.33801 0.51232 0.32048 0.0
N713 N 0.31725 0.5542 0.27004 0.0
N714 N 0.33517 0.59208 0.25347 0.0
C715 C 0.31851 0.57052 0.24846 0.0
C716 C 0.33375 0.56582 0.28926 0.0
C717 C 0.34487 0.58902 0.27912 0.0
C718 C 0.32019 0.48895 0.24794 0.0
O719 O 0.33824 0.49993 0.26515 0.0
H720 H 0.30613 0.56752 0.23006 0.0
H721 H 0.33638 0.55882 0.30969 0.0
O722 O 0.25748 0.54327 0.27557 0.0
H723 H 0.32741 0.47364 0.35513 0.0
H724 H 0.35844 0.60302 0.2901 0.0
Cu725 Cu 0.78817 0.52183 0.25824 0.0
N726 N 0.82045 0.50334 0.26458 0.0
N727 N 0.84739 0.47196 0.28248 0.0
C728 C 0.82409 0.48491 0.2841 0.0
C729 C 0.85878 0.48222 0.26079 0.0
C730 C 0.84212 0.50154 0.24975 0.0
O731 O 0.76 0.49391 0.25118 0.0
C732 C 0.79923 0.55117 0.30814 0.0
O733 O 0.81647 0.5326 0.31507 0.0
H734 H 0.80929 0.48028 0.29856 0.0
H735 H 0.84508 0.51228 0.2314 0.0
N736 N 0.78743 0.54432 0.22825 0.0
N737 N 0.77074 0.57813 0.20334 0.0
C738 C 0.76535 0.55808 0.22055 0.0
C739 C 0.80764 0.55606 0.21545 0.0
C740 C 0.79737 0.57668 0.19987 0.0
C741 C 0.76576 0.47706 0.23316 0.0
O742 O 0.78826 0.48079 0.22105 0.0
H743 H 0.74626 0.55501 0.22955 0.0
H744 H 0.82868 0.55179 0.21887 0.0
O745 O 0.78338 0.54767 0.28728 0.0
H746 H 0.87751 0.47585 0.25316 0.0
H747 H 0.80902 0.59048 0.1882 0.0
Cu748 Cu 0.55384 0.31955 0.79236 0.0
N749 N 0.52922 0.34695 0.79624 0.0
N750 N 0.4937 0.36757 0.81182 0.0
C751 C 0.50898 0.34551 0.81307 0.0
C752 C 0.50485 0.38348 0.79334 0.0
C753 C 0.52666 0.3707 0.78373 0.0
O754 O 0.53081 0.2874 0.78504 0.0
C755 C 0.60241 0.31112 0.8252 0.0
O756 O 0.60681 0.29159 0.80842 0.0
H757 H 0.50569 0.32855 0.82608 0.0
H758 H 0.53943 0.3781 0.76847 0.0
N759 N 0.57519 0.32307 0.7628 0.0
N760 N 0.60417 0.30948 0.7331 0.0
C761 C 0.58605 0.30194 0.75092 0.0
C762 C 0.5867 0.34494 0.75215 0.0
C763 C 0.60442 0.33666 0.7337 0.0
C764 C 0.51797 0.28857 0.76207 0.0
O765 O 0.52204 0.30968 0.74697 0.0
H766 H 0.58188 0.28142 0.75671 0.0
H767 H 0.58359 0.36539 0.75833 0.0
O768 O 0.57959 0.32232 0.82374 0.0
H769 H 0.49747 0.40276 0.78674 0.0
H770 H 0.61707 0.34978 0.72235 0.0
Cu771 Cu 0.5325 0.78742 0.77348 0.0
N772 N 0.561 0.78478 0.79923 0.0
N773 N 0.59939 0.76927 0.81805 0.0
C774 C 0.57793 0.7641 0.80084 0.0
C775 C 0.59564 0.79417 0.82776 0.0
C776 C 0.57205 0.80375 0.81597 0.0
O777 O 0.55018 0.79165 0.73957 0.0
C778 C 0.49925 0.75402 0.80094 0.0
O779 O 0.51046 0.76899 0.82046 0.0
H780 H 0.57531 0.7463 0.78836 0.0
H781 H 0.56435 0.82363 0.81842 0.0
N782 N 0.51115 0.81729 0.77779 0.0
N783 N 0.47783 0.84532 0.76704 0.0
C784 C 0.49326 0.82549 0.75851 0.0
C785 C 0.50691 0.83227 0.79955 0.0
C786 C 0.48641 0.84969 0.79293 0.0
C787 C 0.56039 0.81513 0.73634 0.0
O788 O 0.55694 0.83369 0.75446 0.0
H789 H 0.49075 0.81594 0.73899 0.0
H790 H 0.51706 0.82993 0.81912 0.0
O791 O 0.50737 0.75709 0.77729 0.0
H792 H 0.60926 0.80503 0.84188 0.0
H793 H 0.4781 0.86394 0.80638 0.0
Cu794 Cu 0.5317 0.77897 0.28159 0.0
N795 N 0.5122 0.78164 0.31255 0.0
N796 N 0.47901 0.79466 0.33775 0.0
C797 C 0.48966 0.79595 0.3135 0.0
C798 C 0.49577 0.77902 0.35277 0.0
C799 C 0.5162 0.77101 0.33717 0.0
O800 O 0.50487 0.78037 0.25161 0.0
C801 C 0.57904 0.80056 0.30155 0.0
O802 O 0.57595 0.77872 0.31583 0.0
H803 H 0.48138 0.80726 0.29662 0.0
H804 H 0.5327 0.75832 0.34339 0.0
N805 N 0.54899 0.74637 0.27722 0.0
N806 N 0.57746 0.71872 0.25878 0.0
C807 C 0.56417 0.7419 0.25632 0.0
C808 C 0.5525 0.72505 0.29348 0.0
C809 C 0.57027 0.708 0.2822 0.0
C810 C 0.487 0.76184 0.25393 0.0
O811 O 0.48955 0.74524 0.27428 0.0
H812 H 0.56657 0.75622 0.2403 0.0
H813 H 0.54367 0.72256 0.31261 0.0
O814 O 0.56045 0.80654 0.28403 0.0
H815 H 0.49328 0.77339 0.37341 0.0
H816 H 0.57773 0.6895 0.29078 0.0
Cu817 Cu 0.52269 0.26259 0.26524 0.0
N818 N 0.5005 0.23164 0.26312 0.0
N819 N 0.46914 0.20281 0.27694 0.0
C820 C 0.48566 0.22397 0.28353 0.0
C821 C 0.47377 0.19679 0.25127 0.0
C822 C 0.49333 0.21455 0.24282 0.0
O823 O 0.49887 0.2928 0.26935 0.0
C824 C 0.56686 0.23737 0.28388 0.0
O825 O 0.55967 0.22531 0.26102 0.0
H826 H 0.48608 0.23462 0.30251 0.0
H827 H 0.50107 0.21527 0.22309 0.0
N828 N 0.54074 0.27132 0.23454 0.0
N829 N 0.57018 0.29476 0.21119 0.0
C830 C 0.5605 0.29026 0.23545 0.0
C831 C 0.53762 0.26343 0.20869 0.0
C832 C 0.55583 0.27788 0.19422 0.0
C833 C 0.48277 0.29452 0.24856 0.0
O834 O 0.48344 0.27612 0.22973 0.0
H835 H 0.56722 0.30089 0.25367 0.0
H836 H 0.523 0.24867 0.20075 0.0
O837 O 0.55189 0.25573 0.2922 0.0
H838 H 0.46353 0.18099 0.23939 0.0
H839 H 0.55844 0.27588 0.17294 0.0
C840 C 0.24519 0.19149 0.1379 0.0
C841 C 0.21905 0.18998 0.14707 0.0
H842 H 0.27153 0.20842 0.10998 0.0
C843 C 0.19902 0.20558 0.13405 0.0
H844 H 0.26122 0.18005 0.14755 0.0
C845 C 0.20507 0.22242 0.11266 0.0
C846 C 0.23129 0.22409 0.10364 0.0
H847 H 0.17856 0.2047 0.1403 0.0
H848 H 0.18922 0.23434 0.10342 0.0
C849 C 0.2512 0.20821 0.11649 0.0
C850 C 0.86946 0.23126 0.12554 0.0
C851 C 0.8796 0.24559 0.14832 0.0
H852 H 0.85137 0.23297 0.08576 0.0
C853 C 0.87918 0.27384 0.14799 0.0
H854 H 0.86989 0.20952 0.12509 0.0
C855 C 0.86837 0.28745 0.12542 0.0
C856 C 0.8583 0.27306 0.10255 0.0
H857 H 0.88695 0.28538 0.16532 0.0
H858 H 0.86783 0.30917 0.12591 0.0
C859 C 0.85917 0.2448 0.10287 0.0
C860 C 0.83077 0.88445 0.09448 0.0
C861 C 0.83836 0.86633 0.11492 0.0
H862 H 0.81179 0.88992 0.05539 0.0
C863 C 0.83462 0.83859 0.10981 0.0
H864 H 0.83394 0.90588 0.09741 0.0
C865 C 0.82224 0.82936 0.08538 0.0
C866 C 0.81323 0.84769 0.06568 0.0
H867 H 0.84009 0.82405 0.12513 0.0
H868 H 0.81844 0.808 0.08254 0.0
C869 C 0.81828 0.87527 0.07026 0.0
C870 C 0.17056 0.7767 0.10489 0.0
C871 C 0.18681 0.79167 0.12405 0.0
H872 H 0.16901 0.75104 0.07009 0.0
C873 C 0.21476 0.7932 0.12095 0.0
H874 H 0.1489 0.7756 0.10584 0.0
C875 C 0.22604 0.77978 0.09976 0.0
C876 C 0.20978 0.76402 0.0815 0.0
H877 H 0.22814 0.80406 0.13531 0.0
H878 H 0.24763 0.78098 0.0981 0.0
C879 C 0.18196 0.7627 0.08421 0.0
C880 C 0.2433 0.82616 0.91721 0.0
C881 C 0.21534 0.83057 0.91404 0.0
H882 H 0.27539 0.80626 0.93932 0.0
C883 C 0.19852 0.81837 0.93238 0.0
H884 H 0.25699 0.83472 0.9033 0.0
C885 C 0.20914 0.80173 0.95266 0.0
C886 C 0.23692 0.79716 0.95557 0.0
H887 H 0.17707 0.82167 0.93118 0.0
H888 H 0.19546 0.79215 0.96601 0.0
C889 C 0.25399 0.80988 0.93791 0.0
C890 C 0.25209 0.18298 0.9488 0.0
C891 C 0.25213 0.20174 0.9278 0.0
H892 H 0.26294 0.175 0.99021 0.0
C893 C 0.26598 0.22644 0.93216 0.0
H894 H 0.24151 0.1638 0.946 0.0
C895 C 0.27885 0.23259 0.95725 0.0
C896 C 0.27762 0.21438 0.97872 0.0
H897 H 0.26649 0.24116 0.91625 0.0
H898 H 0.2885 0.2522 0.96019 0.0
C899 C 0.26444 0.18935 0.97406 0.0
C900 C 0.87606 0.23978 0.91225 0.0
C901 C 0.88516 0.2137 0.90843 0.0
H902 H 0.85281 0.26547 0.93595 0.0
C903 C 0.88019 0.194 0.92777 0.0
H904 H 0.87928 0.25518 0.89741 0.0
C905 C 0.86481 0.19968 0.94947 0.0
C906 C 0.85414 0.22525 0.95247 0.0
H907 H 0.887 0.17371 0.92525 0.0
H908 H 0.86072 0.18382 0.96355 0.0
C909 C 0.86072 0.24555 0.93417 0.0
C910 C 0.79177 0.89971 0.89603 0.0
C911 C 0.8035 0.88117 0.87916 0.0
H912 H 0.76978 0.90558 0.93126 0.0
C913 C 0.8001 0.85357 0.88451 0.0
H914 H 0.79412 0.9211 0.89276 0.0
C915 C 0.78665 0.8448 0.90679 0.0
C916 C 0.77574 0.86332 0.9241 0.0
H917 H 0.80813 0.83861 0.87161 0.0
H918 H 0.7848 0.82346 0.91053 0.0
C919 C 0.7779 0.89085 0.91818 0.0
C920 C 0.14647 0.18783 0.22164 0.0
C921 C 0.17031 0.17577 0.23139 0.0
H922 H 0.11022 0.20689 0.23093 0.0
C923 C 0.17521 0.1733 0.25934 0.0
H924 H 0.14171 0.18948 0.20025 0.0
C925 C 0.15704 0.1834 0.27707 0.0
C926 C 0.13357 0.19616 0.26723 0.0
H927 H 0.19343 0.16421 0.26751 0.0
H928 H 0.16178 0.1819 0.29844 0.0
C929 C 0.12837 0.19784 0.23928 0.0
C930 C 0.88171 0.16593 0.24474 0.0
C931 C 0.877 0.17088 0.21708 0.0
H932 H 0.8755 0.13959 0.27778 0.0
C933 C 0.86001 0.15269 0.20193 0.0
H934 H 0.89391 0.17978 0.25738 0.0
C935 C 0.84892 0.12978 0.21396 0.0
C936 C 0.85484 0.12437 0.2413 0.0
H937 H 0.85598 0.15561 0.18059 0.0
H938 H 0.83655 0.11579 0.20167 0.0
C939 C 0.87105 0.14291 0.25657 0.0
C940 C 0.92257 0.84652 0.1851 0.0
C941 C 0.90192 0.85963 0.19769 0.0
H942 H 0.95878 0.82398 0.19024 0.0
C943 C 0.90254 0.85967 0.226 0.0
H944 H 0.92319 0.84628 0.16346 0.0
C945 C 0.92345 0.84771 0.24118 0.0
C946 C 0.94389 0.83468 0.22855 0.0
H947 H 0.8867 0.86867 0.23663 0.0
H948 H 0.92333 0.84808 0.26287 0.0
C949 C 0.94313 0.83391 0.20038 0.0
C950 C 0.18507 0.86466 0.22652 0.0
C951 C 0.18636 0.86288 0.19838 0.0
H952 H 0.19098 0.88903 0.26197 0.0
C953 C 0.19757 0.885 0.18496 0.0
H954 H 0.17766 0.84787 0.23793 0.0
C955 C 0.2061 0.90848 0.1992 0.0
C956 C 0.20315 0.9105 0.227 0.0
H957 H 0.19892 0.88457 0.1634 0.0
H958 H 0.21405 0.92543 0.18838 0.0
C959 C 0.19289 0.88821 0.24048 0.0
C960 C 0.133 0.85876 0.81936 0.0
C961 C 0.13926 0.85507 0.84707 0.0
H962 H 0.10326 0.85401 0.78633 0.0
C963 C 0.11866 0.84588 0.86304 0.0
H964 H 0.14836 0.86579 0.80639 0.0
C965 C 0.09304 0.83929 0.8516 0.0
C966 C 0.08704 0.84172 0.8238 0.0
H967 H 0.12238 0.84348 0.8845 0.0
H968 H 0.07802 0.83156 0.86462 0.0
C969 C 0.10713 0.85214 0.80782 0.0
C970 C 0.23201 0.11556 0.86548 0.0
C971 C 0.23055 0.13923 0.85033 0.0
H972 H 0.24263 0.07433 0.86685 0.0
C973 C 0.23563 0.13808 0.82289 0.0
H974 H 0.22766 0.11567 0.88649 0.0
C975 C 0.24416 0.11414 0.81145 0.0
C976 C 0.24765 0.09108 0.82734 0.0
H977 H 0.23461 0.15604 0.81072 0.0
H978 H 0.24977 0.11422 0.79081 0.0
C979 C 0.24043 0.09183 0.85413 0.0
C980 C 0.97371 0.22368 0.85252 0.0
C981 C 0.9512 0.21784 0.83492 0.0
H982 H 1.01336 0.24105 0.85776 0.0
C983 C 0.95327 0.22328 0.80735 0.0
H984 H 0.97332 0.21909 0.87369 0.0
C985 C 0.97672 0.23568 0.79802 0.0
C986 C 0.99851 0.24287 0.81609 0.0
H987 H 0.93637 0.21904 0.79317 0.0
H988 H 0.97722 0.24087 0.77699 0.0
C989 C 0.99688 0.23606 0.84328 0.0
C990 C 0.82556 0.97079 0.82047 0.0
C991 C 0.82475 0.94658 0.80607 0.0
H992 H 0.81513 1.01212 0.82073 0.0
C993 C 0.81595 0.94662 0.77871 0.0
H994 H 0.83242 0.97131 0.84149 0.0
C995 C 0.80594 0.9702 0.76665 0.0
C996 C 0.80499 0.99395 0.78183 0.0
H997 H 0.81512 0.92809 0.76724 0.0
H998 H 0.79701 0.96929 0.74633 0.0
C999 C 0.81593 0.99418 0.80847 0.0
C1000 C 0.24964 0.0996 0.22167 0.0
C1001 C 0.23115 0.10484 0.2001 0.0
H1002 H 0.2713 0.06981 0.24428 0.0
C1003 C 0.22205 0.08366 0.18301 0.0
H1004 H 0.25692 0.11568 0.23509 0.0
C1005 C 0.22988 0.05732 0.18849 0.0
C1006 C 0.24742 0.05177 0.21083 0.0
H1007 H 0.20773 0.08727 0.16629 0.0
H1008 H 0.22125 0.04112 0.17596 0.0
C1009 C 0.25801 0.07336 0.22677 0.0
C1010 C 0.22566 0.9197 0.82951 0.0
C1011 C 0.22476 0.91211 0.85656 0.0
H1012 H 0.24352 0.94584 0.80111 0.0
C1013 C 0.24097 0.92651 0.87607 0.0
H1014 H 0.21373 0.9089 0.81393 0.0
C1015 C 0.25842 0.94719 0.86862 0.0
C1016 C 0.25964 0.95436 0.84158 0.0
H1017 H 0.24031 0.92175 0.89718 0.0
H1018 H 0.2708 0.95777 0.88401 0.0
C1019 C 0.24281 0.94074 0.82213 0.0
C1020 C 0.15571 0.21514 0.84678 0.0
C1021 C 0.18077 0.22576 0.85688 0.0
H1022 H 0.11591 0.22313 0.83083 0.0
C1023 C 0.18456 0.25384 0.85794 0.0
H1024 H 0.15183 0.19364 0.84614 0.0
C1025 C 0.16385 0.27083 0.84916 0.0
C1026 C 0.13876 0.26021 0.83909 0.0
H1027 H 0.20368 0.26274 0.8653 0.0
H1028 H 0.16771 0.2923 0.84993 0.0
C1029 C 0.13501 0.23211 0.83803 0.0
C1030 C 0.86255 0.13125 0.84685 0.0
C1031 C 0.87003 0.15326 0.83103 0.0
H1032 H 0.83456 0.09856 0.85193 0.0
C1033 C 0.85654 0.15686 0.80585 0.0
H1034 H 0.87273 0.12796 0.86632 0.0
C1035 C 0.83466 0.13986 0.79759 0.0
C1036 C 0.82583 0.11933 0.81456 0.0
H1037 H 0.86168 0.17383 0.79345 0.0
H1038 H 0.82372 0.14368 0.77864 0.0
C1039 C 0.84052 0.11468 0.83885 0.0
C1040 C 0.90955 0.8823 0.82191 0.0
C1041 C 0.88534 0.8688 0.82738 0.0
H1042 H 0.95169 0.87907 0.81626 0.0
C1043 C 0.88548 0.84072 0.83071 0.0
H1044 H 0.91034 0.90391 0.81964 0.0
C1045 C 0.90927 0.82661 0.8293 0.0
C1046 C 0.93346 0.84015 0.82411 0.0
H1047 H 0.86713 0.82955 0.83442 0.0
H1048 H 0.90863 0.80503 0.83179 0.0
C1049 C 0.9333 0.8681 0.82019 0.0
C1050 C 0.82617 0.95514 0.17768 0.0
C1051 C 0.83334 0.9316 0.19172 0.0
H1052 H 0.81307 0.99595 0.18066 0.0
C1053 C 0.8293 0.93026 0.21931 0.0
H1054 H 0.82899 0.95676 0.15639 0.0
C1055 C 0.82045 0.95246 0.23296 0.0
C1056 C 0.81496 0.97651 0.2194 0.0
H1057 H 0.83384 0.91223 0.23061 0.0
H1058 H 0.81885 0.95114 0.2545 0.0
C1059 C 0.81697 0.9775 0.19147 0.0
C1060 C 0.09364 0.782 0.17939 0.0
C1061 C 0.11831 0.78763 0.19385 0.0
H1062 H 0.05165 0.77119 0.18192 0.0
C1063 C 0.12067 0.78219 0.22141 0.0
H1064 H 0.09143 0.78603 0.15807 0.0
C1065 C 0.09831 0.7736 0.23478 0.0
C1066 C 0.07308 0.77023 0.22091 0.0
H1067 H 0.13957 0.78596 0.2329 0.0
H1068 H 0.10038 0.7712 0.25639 0.0
C1069 C 0.07101 0.77336 0.19292 0.0
C1070 C 0.97778 0.21027 0.21563 0.0
C1071 C 0.95899 0.23066 0.21217 0.0
H1072 H 1.01609 0.19896 0.23285 0.0
C1073 C 0.96651 0.25699 0.22037 0.0
H1074 H 0.97275 0.18995 0.20894 0.0
C1075 C 0.99159 0.26227 0.23398 0.0
C1076 C 1.00935 0.24124 0.23945 0.0
H1077 H 0.95237 0.27309 0.21785 0.0
H1078 H 0.99616 0.28224 0.24192 0.0
C1079 C 1.00267 0.2155 0.22912 0.0
C1080 C 0.17755 0.70767 0.58845 0.0
C1081 C 0.17413 0.72477 0.61033 0.0
H1082 H 0.19651 0.70176 0.55166 0.0
C1083 C 0.18406 0.75147 0.60928 0.0
H1084 H 0.16974 0.68716 0.58844 0.0
C1085 C 0.19931 0.76002 0.58786 0.0
C1086 C 0.20476 0.74192 0.56731 0.0
H1087 H 0.18173 0.76509 0.6259 0.0
H1088 H 0.20864 0.77991 0.58856 0.0
C1089 C 0.19272 0.71611 0.56728 0.0
C1090 C 0.83429 0.71356 0.61036 0.0
C1091 C 0.83959 0.73236 0.6313 0.0
H1092 H 0.81797 0.70695 0.56989 0.0
C1093 C 0.82816 0.75777 0.629 0.0
H1094 H 0.84295 0.69384 0.61157 0.0
C1095 C 0.81332 0.76488 0.60557 0.0
C1096 C 0.80973 0.74685 0.58387 0.0
H1097 H 0.83164 0.77252 0.64491 0.0
H1098 H 0.80639 0.78528 0.60358 0.0
C1099 C 0.8197 0.72087 0.58667 0.0
C1100 C 0.8354 0.34863 0.63594 0.0
C1101 C 0.86237 0.3563 0.64257 0.0
H1102 H 0.80776 0.32601 0.60959 0.0
C1103 C 0.88234 0.34705 0.62619 0.0
H1104 H 0.81951 0.35496 0.64827 0.0
C1105 C 0.87562 0.33015 0.60421 0.0
C1106 C 0.84872 0.32229 0.59778 0.0
H1107 H 0.90329 0.35291 0.63031 0.0
H1108 H 0.89148 0.32355 0.59202 0.0
C1109 C 0.82866 0.3319 0.61381 0.0
C1110 C 0.24038 0.32526 0.63961 0.0
C1111 C 0.22953 0.35088 0.63677 0.0
H1112 H 0.26942 0.29778 0.62653 0.0
C1113 C 0.23892 0.368 0.6167 0.0
H1114 H 0.23384 0.31179 0.65507 0.0
C1115 C 0.25962 0.36029 0.60083 0.0
C1116 C 0.27115 0.33507 0.60428 0.0
H1117 H 0.23071 0.38778 0.61377 0.0
H1118 H 0.2665 0.374 0.58576 0.0
C1119 C 0.26094 0.31741 0.62348 0.0
C1120 C 0.24194 0.30159 0.43817 0.0
C1121 C 0.24117 0.32991 0.43697 0.0
H1122 H 0.25669 0.26715 0.46005 0.0
C1123 C 0.25147 0.34486 0.45929 0.0
H1124 H 0.23411 0.28948 0.42127 0.0
C1125 C 0.26378 0.33208 0.48145 0.0
C1126 C 0.26622 0.30401 0.48197 0.0
H1127 H 0.25064 0.36657 0.45935 0.0
H1128 H 0.27284 0.34439 0.49769 0.0
C1129 C 0.2545 0.28872 0.46048 0.0
C1130 C 0.22124 0.70984 0.403 0.0
C1131 C 0.21805 0.68196 0.39889 0.0
H1132 H 0.23771 0.74166 0.42824 0.0
C1133 C 0.23051 0.6646 0.41778 0.0
H1134 H 0.21258 0.72385 0.38857 0.0
C1135 C 0.24526 0.67493 0.4405 0.0
C1136 C 0.24765 0.7028 0.44491 0.0
H1137 H 0.22833 0.64303 0.4154 0.0
H1138 H 0.25409 0.66113 0.45503 0.0
C1139 C 0.23573 0.72009 0.42573 0.0
C1140 C 0.81436 0.7147 0.4059 0.0
C1141 C 0.84066 0.71142 0.39783 0.0
H1142 H 0.78885 0.7345 0.43234 0.0
C1143 C 0.86197 0.72536 0.4122 0.0
H1144 H 0.79741 0.70464 0.39516 0.0
C1145 C 0.85704 0.74271 0.4334 0.0
C1146 C 0.8307 0.74645 0.44108 0.0
H1147 H 0.88257 0.72297 0.40697 0.0
H1148 H 0.87392 0.7531 0.44389 0.0
C1149 C 0.80945 0.73196 0.42723 0.0
C1150 C 0.84134 0.35986 0.42635 0.0
C1151 C 0.8485 0.34273 0.40557 0.0
H1152 H 0.82455 0.36239 0.46509 0.0
C1153 C 0.83999 0.31568 0.40579 0.0
H1154 H 0.8477 0.38083 0.42658 0.0
C1155 C 0.8267 0.30538 0.42742 0.0
C1156 C 0.82156 0.32187 0.44929 0.0
H1157 H 0.84483 0.30216 0.38982 0.0
H1158 H 0.82194 0.28403 0.42785 0.0
C1159 C 0.82797 0.34943 0.44823 0.0
C1160 C 0.09033 0.71013 0.69522 0.0
C1161 C 0.11201 0.72645 0.68748 0.0
H1162 H 0.0578 0.70531 0.72109 0.0
C1163 C 0.11605 0.75204 0.69899 0.0
H1164 H 0.08684 0.69025 0.68662 0.0
C1165 C 0.09959 0.76052 0.719 0.0
C1166 C 0.07884 0.74354 0.72785 0.0
H1167 H 0.1329 0.76476 0.69372 0.0
H1168 H 0.10382 0.77993 0.72834 0.0
C1169 C 0.074 0.71853 0.71526 0.0
C1170 C 0.89002 0.65436 0.71506 0.0
C1171 C 0.86862 0.67077 0.70646 0.0
H1172 H 0.90218 0.61866 0.73584 0.0
C1173 C 0.8425 0.66352 0.7135 0.0
H1174 H 0.91037 0.65927 0.70984 0.0
C1175 C 0.83782 0.64039 0.72849 0.0
C1176 C 0.8591 0.62369 0.73683 0.0
H1177 H 0.82562 0.67599 0.70774 0.0
H1178 H 0.81746 0.63587 0.73381 0.0
C1179 C 0.88532 0.63108 0.73002 0.0
C1180 C 0.94916 0.36687 0.71027 0.0
C1181 C 0.92586 0.374 0.72299 0.0
H1182 H 0.98973 0.35361 0.7148 0.0
C1183 C 0.92661 0.37386 0.75124 0.0
H1184 H 0.94958 0.3673 0.6886 0.0
C1185 C 0.94981 0.36617 0.76629 0.0
C1186 C 0.9728 0.35831 0.75348 0.0
H1187 H 0.909 0.37893 0.76175 0.0
H1188 H 0.9494 0.36555 0.78793 0.0
C1189 C 0.97225 0.35907 0.72529 0.0
C1190 C 0.2384 0.43258 0.70379 0.0
C1191 C 0.211 0.42533 0.69873 0.0
H1192 H 0.26726 0.46279 0.71804 0.0
C1193 C 0.19148 0.4442 0.70403 0.0
H1194 H 0.25401 0.41842 0.70045 0.0
C1195 C 0.19915 0.46947 0.7145 0.0
C1196 C 0.22649 0.47659 0.71957 0.0
H1197 H 0.17026 0.43954 0.69994 0.0
H1198 H 0.1836 0.48344 0.71874 0.0
C1199 C 0.24607 0.45802 0.71386 0.0
C1200 C 0.14685 0.33305 0.38168 0.0
C1201 C 0.16774 0.33964 0.36499 0.0
H1202 H 0.10758 0.31554 0.38468 0.0
C1203 C 0.16329 0.33603 0.33707 0.0
H1204 H 0.14939 0.33623 0.40318 0.0
C1205 C 0.13903 0.3243 0.32632 0.0
C1206 C 0.11895 0.31604 0.34339 0.0
H1207 H 0.17904 0.34099 0.32371 0.0
H1208 H 0.13666 0.32034 0.30495 0.0
C1209 C 0.1228 0.32136 0.37103 0.0
C1210 C 0.20861 0.59171 0.34014 0.0
C1211 C 0.20318 0.61457 0.32456 0.0
H1212 H 0.22891 0.55447 0.34338 0.0
C1213 C 0.21033 0.61486 0.29768 0.0
H1214 H 0.20313 0.59085 0.36082 0.0
C1215 C 0.22503 0.5937 0.2875 0.0
C1216 C 0.23265 0.57214 0.30416 0.0
H1217 H 0.20648 0.63233 0.2853 0.0
H1218 H 0.23246 0.59541 0.2676 0.0
C1219 C 0.22323 0.57081 0.33009 0.0
C1220 C 0.89115 0.72863 0.30828 0.0
C1221 C 0.89026 0.70111 0.31424 0.0
H1222 H 0.91404 0.76161 0.29336 0.0
C1223 C 0.91071 0.68478 0.30537 0.0
H1224 H 0.87543 0.74163 0.31426 0.0
C1225 C 0.93282 0.69628 0.2929 0.0
C1226 C 0.93466 0.7242 0.28928 0.0
H1227 H 0.91054 0.66349 0.3097 0.0
H1228 H 0.9493 0.68372 0.28803 0.0
C1229 C 0.91316 0.74004 0.29612 0.0
C1230 C 0.87764 0.40692 0.30508 0.0
C1231 C 0.87262 0.40677 0.33258 0.0
H1232 H 0.8736 0.42788 0.26761 0.0
C1233 C 0.86026 0.42917 0.34335 0.0
H1234 H 0.88669 0.38993 0.29588 0.0
C1235 C 0.85228 0.45059 0.32696 0.0
C1236 C 0.85689 0.45045 0.29949 0.0
H1237 H 0.85661 0.43018 0.3645 0.0
H1238 H 0.84255 0.46739 0.33578 0.0
C1239 C 0.87005 0.42861 0.28879 0.0
C1240 C 0.15988 0.63468 0.69427 0.0
C1241 C 0.17641 0.65349 0.68155 0.0
H1242 H 0.15803 0.60156 0.72147 0.0
C1243 C 0.20447 0.65068 0.68403 0.0
H1244 H 0.13816 0.63583 0.69221 0.0
C1245 C 0.21574 0.6306 0.70035 0.0
C1246 C 0.19914 0.61334 0.71472 0.0
H1247 H 0.21778 0.6649 0.67467 0.0
H1248 H 0.23743 0.62953 0.70299 0.0
C1249 C 0.17115 0.61507 0.71099 0.0
C1250 C 0.23293 0.42621 0.35776 0.0
C1251 C 0.24745 0.4044 0.36848 0.0
H1252 H 0.23435 0.46474 0.3388 0.0
C1253 C 0.27575 0.40576 0.36836 0.0
H1254 H 0.2112 0.42633 0.35799 0.0
C1255 C 0.28905 0.42806 0.35757 0.0
C1256 C 0.27444 0.44956 0.34643 0.0
H1257 H 0.28768 0.38929 0.37603 0.0
H1258 H 0.31077 0.4281 0.35733 0.0
C1259 C 0.24621 0.44837 0.3468 0.0
C1260 C 0.11472 0.67685 0.32247 0.0
C1261 C 0.13778 0.69037 0.33407 0.0
H1262 H 0.07342 0.67984 0.3077 0.0
C1263 C 0.13651 0.71828 0.33861 0.0
H1264 H 0.11469 0.65541 0.31884 0.0
C1265 C 0.11265 0.73193 0.33307 0.0
C1266 C 0.0896 0.71829 0.32207 0.0
H1267 H 0.15397 0.72974 0.3466 0.0
H1268 H 0.1123 0.75329 0.33706 0.0
C1269 C 0.09098 0.69074 0.31629 0.0
C1270 C 0.82666 0.60764 0.3539 0.0
C1271 C 0.82242 0.63009 0.33739 0.0
H1272 H 0.82247 0.56483 0.35758 0.0
C1273 C 0.80718 0.62681 0.31294 0.0
H1274 H 0.83849 0.60965 0.37276 0.0
C1275 C 0.79751 0.60132 0.30447 0.0
C1276 C 0.80346 0.57847 0.32002 0.0
H1277 H 0.80369 0.64385 0.29986 0.0
H1278 H 0.78701 0.59934 0.28489 0.0
C1279 C 0.81749 0.58202 0.34518 0.0
C1280 C 0.95655 0.33996 0.35131 0.0
C1281 C 0.9315 0.32793 0.35637 0.0
H1282 H 0.99791 0.33413 0.34378 0.0
C1283 C 0.92944 0.29969 0.35736 0.0
H1284 H 0.95904 0.36161 0.35082 0.0
C1285 C 0.95178 0.28394 0.3535 0.0
C1286 C 0.9768 0.29595 0.34838 0.0
H1287 H 0.91038 0.28966 0.36072 0.0
H1288 H 0.94925 0.26231 0.35395 0.0
C1289 C 0.97889 0.32418 0.34736 0.0
C1290 C 0.83561 0.42926 0.73535 0.0
C1291 C 0.84363 0.42982 0.70886 0.0
H1292 H 0.8204 0.45144 0.76771 0.0
C1293 C 0.83804 0.45264 0.69309 0.0
H1294 H 0.83947 0.4119 0.7479 0.0
C1295 C 0.82694 0.47543 0.7045 0.0
C1296 C 0.82097 0.47543 0.73167 0.0
H1297 H 0.84415 0.45362 0.67263 0.0
H1298 H 0.82515 0.49364 0.6928 0.0
C1299 C 0.82442 0.45179 0.7466 0.0
C1300 C 0.12405 0.36037 0.69483 0.0
C1301 C 0.14742 0.34529 0.69347 0.0
H1302 H 0.08526 0.36362 0.71062 0.0
C1303 C 0.14721 0.31899 0.70384 0.0
H1304 H 0.12334 0.38051 0.68669 0.0
C1305 C 0.12495 0.30906 0.71741 0.0
C1306 C 0.10268 0.32534 0.72078 0.0
H1307 H 0.16492 0.30689 0.70316 0.0
H1308 H 0.12612 0.28965 0.72708 0.0
C1309 C 0.10211 0.35062 0.7084 0.0
C1310 C 0.94776 0.74684 0.69305 0.0
C1311 C 0.92137 0.75621 0.69194 0.0
H1312 H 0.98836 0.75283 0.70902 0.0
C1313 C 0.91684 0.78194 0.70218 0.0
H1314 H 0.9518 0.72711 0.68526 0.0
C1315 C 0.93789 0.79675 0.71584 0.0
C1316 C 0.96382 0.78625 0.71892 0.0
H1317 H 0.89662 0.78954 0.70172 0.0
H1318 H 0.93329 0.81504 0.72625 0.0
C1319 C 0.96877 0.76179 0.70624 0.0
C1320 C 0.71978 0.26784 0.61037 0.0
C1321 C 0.71253 0.24075 0.615 0.0
H1322 H 0.73902 0.29588 0.58448 0.0
C1323 C 0.71602 0.22171 0.59479 0.0
H1324 H 0.71744 0.28301 0.62559 0.0
C1325 C 0.72831 0.22912 0.57147 0.0
C1326 C 0.73716 0.25576 0.56764 0.0
H1327 H 0.71003 0.20086 0.59737 0.0
H1328 H 0.73209 0.21367 0.55692 0.0
C1329 C 0.73195 0.27531 0.58679 0.0
C1330 C 0.37381 0.24924 0.65392 0.0
C1331 C 0.37699 0.22179 0.65921 0.0
H1332 H 0.36018 0.27912 0.62602 0.0
C1333 C 0.36581 0.20303 0.64004 0.0
H1334 H 0.38129 0.26433 0.66836 0.0
C1335 C 0.353 0.21163 0.61572 0.0
C1336 C 0.35129 0.23914 0.61011 0.0
H1337 H 0.36789 0.18169 0.64332 0.0
H1338 H 0.34581 0.19688 0.60081 0.0
C1339 C 0.36133 0.25774 0.62973 0.0
C1340 C 0.33432 0.8247 0.65891 0.0
C1341 C 0.33595 0.85224 0.65289 0.0
H1342 H 0.32539 0.78486 0.64454 0.0
C1343 C 0.32851 0.86057 0.62669 0.0
H1344 H 0.33958 0.81768 0.67902 0.0
C1345 C 0.32058 0.84163 0.60672 0.0
C1346 C 0.3198 0.81395 0.61255 0.0
H1347 H 0.32983 0.88161 0.62138 0.0
H1348 H 0.31584 0.84868 0.58655 0.0
C1349 C 0.32636 0.80583 0.63904 0.0
C1350 C 0.69674 0.84886 0.61281 0.0
C1351 C 0.7064 0.85981 0.63761 0.0
H1352 H 0.70619 0.83464 0.57413 0.0
C1353 C 0.7344 0.86389 0.64236 0.0
H1354 H 0.67532 0.84588 0.60828 0.0
C1355 C 0.75223 0.85742 0.62274 0.0
C1356 C 0.74256 0.84668 0.59781 0.0
H1357 H 0.74259 0.87203 0.66136 0.0
H1358 H 0.77359 0.86054 0.62732 0.0
C1359 C 0.71454 0.84248 0.59316 0.0
C1360 C 0.7146 0.86361 0.43563 0.0
C1361 C 0.70811 0.84684 0.41342 0.0
H1362 H 0.73129 0.86665 0.47599 0.0
C1363 C 0.71044 0.81883 0.4166 0.0
H1364 H 0.71241 0.88514 0.43412 0.0
C1365 C 0.72097 0.8081 0.44092 0.0
C1366 C 0.72932 0.82526 0.46234 0.0
H1367 H 0.70562 0.80535 0.39983 0.0
H1368 H 0.72438 0.78674 0.44225 0.0
C1369 C 0.7251 0.85295 0.45973 0.0
C1370 C 0.72327 0.22762 0.39584 0.0
C1371 C 0.71762 0.20008 0.39173 0.0
H1372 H 0.7445 0.25779 0.41999 0.0
C1373 C 0.72875 0.18171 0.41044 0.0
H1374 H 0.71542 0.2423 0.38166 0.0
C1375 C 0.74567 0.19056 0.43225 0.0
C1376 C 0.75167 0.21804 0.4361 0.0
H1377 H 0.72446 0.16036 0.40819 0.0
H1378 H 0.75385 0.1759 0.44624 0.0
C1379 C 0.74006 0.23649 0.41778 0.0
C1380 C 0.38543 0.20217 0.42583 0.0
C1381 C 0.36165 0.19412 0.41081 0.0
H1382 H 0.40315 0.2246 0.45948 0.0
C1383 C 0.33693 0.20299 0.41923 0.0
H1384 H 0.40484 0.19541 0.42026 0.0
C1385 C 0.33604 0.2196 0.44184 0.0
C1386 C 0.35983 0.22786 0.45663 0.0
H1387 H 0.31828 0.19768 0.40798 0.0
H1388 H 0.31667 0.22641 0.44742 0.0
C1389 C 0.38454 0.21895 0.44833 0.0
C1390 C 0.30558 0.83556 0.42639 0.0
C1391 C 0.33368 0.83927 0.42518 0.0
H1392 H 0.27301 0.82121 0.4495 0.0
C1393 C 0.35022 0.83362 0.44815 0.0
H1394 H 0.29222 0.83968 0.40905 0.0
C1395 C 0.33926 0.82315 0.47112 0.0
C1396 C 0.31139 0.81811 0.47193 0.0
H1397 H 0.37182 0.83688 0.44825 0.0
H1398 H 0.35282 0.81822 0.48807 0.0
C1399 C 0.29452 0.82509 0.44959 0.0
C1400 C 0.66227 0.28549 0.69504 0.0
C1401 C 0.65678 0.25769 0.6932 0.0
H1402 H 0.65039 0.32356 0.70923 0.0
C1403 C 0.6335 0.24722 0.7043 0.0
H1404 H 0.68022 0.29414 0.68689 0.0
C1405 C 0.61604 0.2642 0.71687 0.0
C1406 C 0.6216 0.29208 0.71901 0.0
H1407 H 0.62853 0.22594 0.70288 0.0
H1408 H 0.5981 0.25534 0.72472 0.0
C1409 C 0.645 0.30243 0.70782 0.0
C1410 C 0.38653 0.16034 0.76589 0.0
C1411 C 0.38718 0.15897 0.73778 0.0
H1412 H 0.37555 0.14077 0.80185 0.0
C1413 C 0.37785 0.13533 0.72448 0.0
H1414 H 0.39321 0.17842 0.77672 0.0
C1415 C 0.36774 0.11371 0.73893 0.0
C1416 C 0.36668 0.11525 0.767 0.0
H1417 H 0.37848 0.13349 0.70289 0.0
H1418 H 0.36076 0.09575 0.7281 0.0
C1419 C 0.37644 0.13872 0.78033 0.0
C1420 C 0.43025 0.8645 0.70945 0.0
C1421 C 0.40885 0.87511 0.72279 0.0
H1422 H 0.46925 0.84762 0.71289 0.0
C1423 C 0.41122 0.87751 0.7509 0.0
H1424 H 0.42918 0.86289 0.68775 0.0
C1425 C 0.43413 0.86843 0.76545 0.0
C1426 C 0.45522 0.85693 0.75215 0.0
H1427 H 0.39495 0.88552 0.76171 0.0
H1428 H 0.43482 0.86961 0.78712 0.0
C1429 C 0.45319 0.85567 0.72392 0.0
C1430 C 0.67487 0.9326 0.73032 0.0
C1431 C 0.67872 0.92942 0.70276 0.0
H1432 H 0.67855 0.95879 0.76462 0.0
C1433 C 0.68767 0.95173 0.68827 0.0
H1434 H 0.66817 0.91577 0.74213 0.0
C1435 C 0.69354 0.9763 0.70115 0.0
C1436 C 0.69063 0.97925 0.72886 0.0
H1437 H 0.69025 0.95018 0.66693 0.0
H1438 H 0.70071 0.99298 0.68944 0.0
C1439 C 0.68072 0.95727 0.74322 0.0
C1440 C 0.65052 0.81687 0.32477 0.0
C1441 C 0.65034 0.84483 0.32811 0.0
H1442 H 0.62809 0.78121 0.31322 0.0
C1443 C 0.62765 0.85889 0.31828 0.0
H1444 H 0.66789 0.80559 0.33176 0.0
C1445 C 0.60464 0.84481 0.3074 0.0
C1446 C 0.60422 0.8166 0.30638 0.0
H1447 H 0.62706 0.88049 0.32066 0.0
H1448 H 0.5867 0.85576 0.30164 0.0
C1449 C 0.62774 0.80295 0.31413 0.0
C1450 C 0.71381 0.11142 0.33225 0.0
C1451 C 0.70657 0.13377 0.31664 0.0
H1452 H 0.73526 0.07486 0.33467 0.0
C1453 C 0.71208 0.13394 0.28926 0.0
H1454 H 0.70941 0.11051 0.35324 0.0
C1455 C 0.72678 0.11318 0.27844 0.0
C1456 C 0.73608 0.09217 0.29495 0.0
H1457 H 0.70672 0.15097 0.27679 0.0
H1458 H 0.73263 0.11466 0.25792 0.0
C1459 C 0.72848 0.09096 0.32157 0.0
C1460 C 0.40337 0.17444 0.29877 0.0
C1461 C 0.408 0.17435 0.32689 0.0
H1462 H 0.41936 0.18354 0.26074 0.0
C1463 C 0.43385 0.18164 0.33791 0.0
H1464 H 0.38368 0.16918 0.28957 0.0
C1465 C 0.45406 0.19013 0.32141 0.0
C1466 C 0.44912 0.19124 0.29345 0.0
H1467 H 0.43839 0.18116 0.3594 0.0
H1468 H 0.47356 0.19617 0.33056 0.0
C1469 C 0.42378 0.18269 0.28222 0.0
C1470 C 0.33413 0.90097 0.31691 0.0
C1471 C 0.33498 0.90077 0.34524 0.0
H1472 H 0.31885 0.92008 0.28062 0.0
C1473 C 0.3232 0.92199 0.35853 0.0
H1474 H 0.34293 0.88494 0.30596 0.0
C1475 C 0.30926 0.94168 0.34407 0.0
C1476 C 0.30717 0.94111 0.3159 0.0
H1477 H 0.32417 0.92312 0.38024 0.0
H1478 H 0.2994 0.95705 0.35503 0.0
C1479 C 0.32043 0.9211 0.30234 0.0
C1480 C 0.71978 0.15187 0.67646 0.0
C1481 C 0.71337 0.17476 0.69147 0.0
H1482 H 0.73309 0.11097 0.67741 0.0
C1483 C 0.71745 0.17375 0.71955 0.0
H1484 H 0.7168 0.1517 0.6548 0.0
C1485 C 0.72635 0.15042 0.7323 0.0
C1486 C 0.73197 0.12739 0.71746 0.0
H1487 H 0.71374 0.19102 0.7319 0.0
H1488 H 0.72861 0.15035 0.75403 0.0
C1489 C 0.72917 0.12848 0.68934 0.0
C1490 C 0.71297 0.93596 0.32619 0.0
C1491 C 0.72481 0.9156 0.34208 0.0
H1492 H 0.71872 0.97335 0.30573 0.0
C1493 C 0.7527 0.91767 0.34878 0.0
H1494 H 0.69156 0.93534 0.32083 0.0
C1495 C 0.7681 0.93968 0.34051 0.0
C1496 C 0.75621 0.96007 0.32488 0.0
H1497 H 0.76284 0.90213 0.36029 0.0
H1498 H 0.78946 0.94055 0.34603 0.0
C1499 C 0.72851 0.95784 0.31758 0.0
C1500 C 0.62084 0.21844 0.33729 0.0
C1501 C 0.64079 0.20865 0.32111 0.0
H1502 H 0.58157 0.23564 0.33829 0.0
C1503 C 0.63711 0.21138 0.29315 0.0
H1504 H 0.62302 0.21666 0.35893 0.0
C1505 C 0.61352 0.22185 0.28154 0.0
C1506 C 0.59297 0.23031 0.29749 0.0
H1507 H 0.65231 0.2049 0.28006 0.0
H1508 H 0.61113 0.22281 0.25984 0.0
C1509 C 0.59712 0.22932 0.32555 0.0
C1510 C 0.31343 0.10346 0.36539 0.0
C1511 C 0.32411 0.12115 0.34652 0.0
H1512 H 0.28861 0.06837 0.37188 0.0
C1513 C 0.31566 0.11768 0.31926 0.0
H1514 H 0.31954 0.10537 0.38651 0.0
C1515 C 0.29824 0.0964 0.31095 0.0
C1516 C 0.28845 0.0781 0.32962 0.0
H1517 H 0.32275 0.13128 0.30418 0.0
H1518 H 0.29259 0.0941 0.28976 0.0
C1519 C 0.29571 0.08222 0.35703 0.0
C1520 C 0.42762 0.82539 0.38019 0.0
C1521 C 0.40725 0.83218 0.36079 0.0
H1522 H 0.4664 0.80849 0.38814 0.0
C1523 C 0.41095 0.82632 0.3337 0.0
H1524 H 0.42566 0.82994 0.40121 0.0
C1525 C 0.43434 0.81398 0.32621 0.0
C1526 C 0.45475 0.80721 0.34559 0.0
H1527 H 0.39552 0.83085 0.31827 0.0
H1528 H 0.43618 0.80938 0.30521 0.0
C1529 C 0.45103 0.81305 0.3727 0.0
C1530 C 0.35342 0.9641 0.70318 0.0
C1531 C 0.33656 0.94107 0.70294 0.0
H1532 H 0.36013 1.0045 0.71705 0.0
C1533 C 0.31061 0.94304 0.71241 0.0
H1534 H 0.37341 0.96319 0.69578 0.0
C1535 C 0.30285 0.96695 0.72451 0.0
C1536 C 0.32102 0.98903 0.72724 0.0
H1537 H 0.29729 0.92551 0.71255 0.0
H1538 H 0.28381 0.96727 0.73393 0.0
C1539 C 0.34576 0.98778 0.71524 0.0
C1540 C 0.62391 0.81967 0.69908 0.0
C1541 C 0.62188 0.84585 0.68872 0.0
H1542 H 0.60519 0.7887 0.72218 0.0
C1543 C 0.59706 0.85861 0.68911 0.0
H1544 H 0.64285 0.80943 0.69916 0.0
C1545 C 0.57575 0.84686 0.7022 0.0
C1546 C 0.57858 0.82191 0.71489 0.0
H1547 H 0.5948 0.87864 0.68102 0.0
H1548 H 0.55773 0.85827 0.7042 0.0
C1549 C 0.60233 0.80774 0.71211 0.0
C1550 C 0.45855 0.23893 0.7586 0.0
C1551 C 0.45338 0.23593 0.73054 0.0
H1552 H 0.48335 0.2574 0.79074 0.0
C1553 C 0.47135 0.24849 0.71355 0.0
H1554 H 0.44507 0.2299 0.77245 0.0
C1555 C 0.49297 0.26446 0.72413 0.0
C1556 C 0.49762 0.26807 0.75201 0.0
H1557 H 0.46867 0.2462 0.69197 0.0
H1558 H 0.50589 0.27445 0.71032 0.0
C1559 C 0.48054 0.25465 0.76921 0.0
C1560 C 0.70088 0.71612 0.10487 0.0
C1561 C 0.6935 0.72513 0.13008 0.0
H1562 H 0.7122 0.72678 0.0655 0.0
C1563 C 0.69179 0.75295 0.13443 0.0
H1564 H 0.70195 0.69485 0.10064 0.0
C1565 C 0.69758 0.77126 0.11422 0.0
C1566 C 0.70532 0.76226 0.08914 0.0
H1567 H 0.68657 0.76064 0.15371 0.0
H1568 H 0.69668 0.7925 0.11856 0.0
C1569 C 0.70672 0.73444 0.08468 0.0
C1570 C 0.34587 0.7088 0.10334 0.0
C1571 C 0.35147 0.7255 0.12584 0.0
H1572 H 0.33033 0.70588 0.06235 0.0
C1573 C 0.34572 0.75296 0.1236 0.0
H1574 H 0.35026 0.68763 0.10436 0.0
C1575 C 0.33437 0.76343 0.09965 0.0
C1576 C 0.32866 0.74681 0.07713 0.0
H1577 H 0.34958 0.76635 0.14061 0.0
H1578 H 0.32969 0.78455 0.09893 0.0
C1579 C 0.33479 0.71937 0.07918 0.0
C1580 C 0.35372 0.31424 0.14157 0.0
C1581 C 0.35232 0.34226 0.14556 0.0
H1582 H 0.34296 0.28041 0.11581 0.0
C1583 C 0.34032 0.35776 0.12486 0.0
H1584 H 0.36259 0.30155 0.15711 0.0
C1585 C 0.32885 0.34557 0.10155 0.0
C1586 C 0.32944 0.3176 0.09799 0.0
H1587 H 0.33952 0.37938 0.12671 0.0
H1588 H 0.31903 0.35809 0.0864 0.0
C1589 C 0.34255 0.30205 0.1179 0.0
C1590 C 0.73871 0.32396 0.13874 0.0
C1591 C 0.71287 0.33418 0.1341 0.0
H1592 H 0.76909 0.29895 0.12445 0.0
C1593 C 0.69788 0.32708 0.11023 0.0
H1594 H 0.75048 0.32863 0.1572 0.0
C1595 C 0.70851 0.31013 0.09139 0.0
C1596 C 0.73436 0.29972 0.096 0.0
H1597 H 0.67788 0.33472 0.10612 0.0
H1598 H 0.69659 0.30564 0.07302 0.0
C1599 C 0.74927 0.3068 0.12 0.0
C1600 C 0.7759 0.34783 0.9389 0.0
C1601 C 0.74844 0.35404 0.93771 0.0
H1602 H 0.80989 0.33429 0.96316 0.0
C1603 C 0.73437 0.35238 0.96118 0.0
H1604 H 0.78722 0.34905 0.92105 0.0
C1605 C 0.74748 0.34463 0.9854 0.0
C1606 C 0.77485 0.33788 0.98656 0.0
H1607 H 0.71331 0.35741 0.96087 0.0
H1608 H 0.73589 0.3432 1.00305 0.0
C1609 C 0.78892 0.3396 0.96302 0.0
C1610 C 0.75547 0.72036 0.91965 0.0
C1611 C 0.73059 0.70654 0.91537 0.0
H1612 H 0.77925 0.7481 0.94492 0.0
C1613 C 0.71244 0.70634 0.93582 0.0
H1614 H 0.76964 0.72102 0.90399 0.0
C1615 C 0.71781 0.72177 0.95897 0.0
C1616 C 0.74145 0.73776 0.9622 0.0
H1617 H 0.69313 0.69586 0.93294 0.0
H1618 H 0.70253 0.72264 0.97352 0.0
C1619 C 0.76093 0.73586 0.94302 0.0
C1620 C 0.3601 0.69702 0.90173 0.0
C1621 C 0.34814 0.68943 0.87645 0.0
H1622 H 0.35402 0.70628 0.94303 0.0
C1623 C 0.31985 0.68671 0.87372 0.0
H1624 H 0.38177 0.69919 0.90471 0.0
C1625 C 0.3041 0.69033 0.89566 0.0
C1626 C 0.31601 0.69723 0.92105 0.0
H1627 H 0.3097 0.68173 0.85448 0.0
H1628 H 0.28246 0.688 0.89263 0.0
C1629 C 0.3442 0.70096 0.92374 0.0
C1630 C 0.35102 0.34083 0.92461 0.0
C1631 C 0.35321 0.36899 0.92366 0.0
H1632 H 0.33357 0.30653 0.94375 0.0
C1633 C 0.34128 0.38408 0.9435 0.0
H1634 H 0.35977 0.32867 0.90953 0.0
C1635 C 0.32577 0.37154 0.96246 0.0
C1636 C 0.32234 0.34354 0.96253 0.0
H1637 H 0.34302 0.40581 0.94366 0.0
H1638 H 0.31623 0.38376 0.97695 0.0
C1639 C 0.33582 0.32821 0.944 0.0
C1640 C 0.64127 0.69093 0.23471 0.0
C1641 C 0.63851 0.69626 0.20697 0.0
H1642 H 0.62389 0.69377 0.27294 0.0
C1643 C 0.61436 0.70736 0.19654 0.0
H1644 H 0.65964 0.68273 0.24361 0.0
C1645 C 0.59414 0.71403 0.21347 0.0
C1646 C 0.59728 0.70942 0.24121 0.0
H1647 H 0.61111 0.71113 0.17525 0.0
H1648 H 0.57603 0.72301 0.20488 0.0
C1649 C 0.62081 0.69728 0.2516 0.0
C1650 C 0.34754 0.63481 0.19257 0.0
C1651 C 0.35313 0.66017 0.20449 0.0
H1652 H 0.33752 0.59302 0.19893 0.0
C1653 C 0.35028 0.6629 0.23227 0.0
H1654 H 0.34956 0.63198 0.17127 0.0
C1655 C 0.34385 0.64076 0.24799 0.0
C1656 C 0.33966 0.61512 0.23648 0.0
H1657 H 0.35372 0.68221 0.2421 0.0
H1658 H 0.3424 0.6437 0.26935 0.0
C1659 C 0.34077 0.6125 0.20842 0.0
C1660 C 0.44439 0.34452 0.20744 0.0
C1661 C 0.42171 0.34792 0.22235 0.0
H1662 H 0.4821 0.32543 0.20486 0.0
C1663 C 0.42197 0.338 0.24877 0.0
H1664 H 0.44482 0.35218 0.18717 0.0
C1665 C 0.44357 0.32268 0.25906 0.0
C1666 C 0.46507 0.31736 0.24302 0.0
H1667 H 0.40463 0.34031 0.26062 0.0
H1668 H 0.44234 0.31317 0.27845 0.0
C1669 C 0.46579 0.3294 0.21766 0.0
C1670 C 0.74661 0.40738 0.20765 0.0
C1671 C 0.71841 0.40813 0.20392 0.0
H1672 H 0.7833 0.4284 0.21982 0.0
C1673 C 0.70549 0.43117 0.21282 0.0
H1674 H 0.75736 0.38979 0.20202 0.0
C1675 C 0.72057 0.45329 0.22387 0.0
C1676 C 0.74882 0.45288 0.22587 0.0
H1677 H 0.68383 0.43261 0.21027 0.0
H1678 H 0.71024 0.47114 0.22952 0.0
C1679 C 0.76155 0.42948 0.21815 0.0
C1680 C 0.67161 0.32087 0.86114 0.0
C1681 C 0.67295 0.34877 0.86575 0.0
H1682 H 0.64838 0.28713 0.84468 0.0
C1683 C 0.65012 0.36384 0.85869 0.0
H1684 H 0.68889 0.30872 0.86628 0.0
C1685 C 0.62662 0.35135 0.847 0.0
C1686 C 0.62561 0.32357 0.84147 0.0
H1687 H 0.6505 0.38534 0.86213 0.0
H1688 H 0.60962 0.36367 0.84125 0.0
C1689 C 0.64838 0.30849 0.84883 0.0
C1690 C 0.76527 0.64841 0.83452 0.0
C1691 C 0.73704 0.64865 0.83289 0.0
H1692 H 0.80066 0.62804 0.82524 0.0
C1693 C 0.72278 0.62829 0.8178 0.0
H1694 H 0.77698 0.66412 0.84521 0.0
C1695 C 0.73657 0.60737 0.80591 0.0
C1696 C 0.76479 0.60655 0.80902 0.0
H1697 H 0.70099 0.62795 0.81607 0.0
H1698 H 0.72518 0.59136 0.79537 0.0
C1699 C 0.77887 0.6277 0.82287 0.0
C1700 C 0.44616 0.71676 0.83903 0.0
C1701 C 0.42743 0.70826 0.81836 0.0
H1702 H 0.48354 0.73733 0.84968 0.0
C1703 C 0.43321 0.71408 0.79159 0.0
H1704 H 0.44275 0.71229 0.85979 0.0
C1705 C 0.45699 0.72799 0.78572 0.0
C1706 C 0.47544 0.73674 0.80646 0.0
H1707 H 0.41914 0.70831 0.77508 0.0
H1708 H 0.46051 0.73255 0.76499 0.0
C1709 C 0.46976 0.73087 0.83316 0.0
C1710 C 0.32941 0.43643 0.82745 0.0
C1711 C 0.33977 0.43841 0.85409 0.0
H1712 H 0.30312 0.45255 0.79673 0.0
C1713 C 0.3319 0.45957 0.87026 0.0
H1714 H 0.3348 0.41992 0.81481 0.0
C1715 C 0.31404 0.47861 0.85991 0.0
C1716 C 0.30337 0.4767 0.83319 0.0
H1717 H 0.33962 0.46136 0.89097 0.0
H1718 H 0.3089 0.49488 0.87287 0.0
C1719 C 0.31119 0.4552 0.81718 0.0
C1720 C 0.74581 0.64604 0.18218 0.0
C1721 C 0.71774 0.64213 0.18233 0.0
H1722 H 0.78459 0.6291 0.18889 0.0
C1723 C 0.70741 0.61642 0.18822 0.0
H1724 H 0.75448 0.66566 0.17808 0.0
C1725 C 0.72474 0.5953 0.19431 0.0
C1726 C 0.75286 0.59935 0.19483 0.0
H1727 H 0.68588 0.61261 0.18809 0.0
H1728 H 0.71606 0.5758 0.19875 0.0
C1729 C 0.76313 0.62496 0.18835 0.0
C1730 C 0.73516 0.43951 0.8498 0.0
C1731 C 0.74936 0.41799 0.86141 0.0
H1732 H 0.73764 0.4784 0.83145 0.0
C1733 C 0.77771 0.41899 0.86174 0.0
H1734 H 0.71338 0.43955 0.84932 0.0
C1735 C 0.7915 0.44139 0.8521 0.0
C1736 C 0.77738 0.46323 0.8413 0.0
H1737 H 0.7894 0.4025 0.86977 0.0
H1738 H 0.81329 0.44156 0.85293 0.0
C1739 C 0.74904 0.46184 0.83972 0.0
C1740 C 0.6424 0.70845 0.82788 0.0
C1741 C 0.66702 0.72038 0.83736 0.0
H1742 H 0.60123 0.71475 0.81472 0.0
C1743 C 0.66954 0.74853 0.83838 0.0
H1744 H 0.6399 0.68678 0.82714 0.0
C1745 C 0.64758 0.76446 0.83149 0.0
C1746 C 0.62247 0.75267 0.82336 0.0
H1747 H 0.6884 0.75825 0.84537 0.0
H1748 H 0.65026 0.78606 0.83287 0.0
C1749 C 0.62029 0.72448 0.82094 0.0
C1750 C 0.35078 0.64185 0.76749 0.0
C1751 C 0.35926 0.63518 0.79392 0.0
H1752 H 0.32775 0.62957 0.73168 0.0
C1753 C 0.3544 0.60907 0.80317 0.0
H1754 H 0.35433 0.66194 0.75999 0.0
C1755 C 0.33967 0.59042 0.78692 0.0
C1756 C 0.32898 0.59776 0.76129 0.0
H1757 H 0.36095 0.60349 0.82345 0.0
H1758 H 0.33509 0.5709 0.79526 0.0
C1759 C 0.33559 0.62333 0.75134 0.0
C1760 C 0.43093 0.35712 0.85 0.0
C1761 C 0.42293 0.38368 0.85375 0.0
H1762 H 0.45938 0.33109 0.83339 0.0
C1763 C 0.43939 0.40473 0.84456 0.0
H1764 H 0.41868 0.34041 0.85661 0.0
C1765 C 0.4626 0.39943 0.83119 0.0
C1766 C 0.47023 0.3729 0.82667 0.0
H1767 H 0.43427 0.42548 0.84761 0.0
H1768 H 0.47462 0.41622 0.82443 0.0
C1769 C 0.45428 0.35179 0.83661 0.0
C1770 C 0.33509 0.43377 0.19883 0.0
C1771 C 0.34674 0.41444 0.21634 0.0
H1772 H 0.31693 0.47253 0.19507 0.0
C1773 C 0.34658 0.41903 0.24414 0.0
H1774 H 0.33502 0.43117 0.17728 0.0
C1775 C 0.33666 0.44281 0.2541 0.0
C1776 C 0.32607 0.46246 0.23663 0.0
H1777 H 0.35457 0.40446 0.25834 0.0
H1778 H 0.33782 0.44615 0.27562 0.0
C1779 C 0.32468 0.45751 0.20892 0.0
C1780 C 0.63419 0.33656 0.21854 0.0
C1781 C 0.63685 0.34506 0.19206 0.0
H1782 H 0.61116 0.31328 0.2453 0.0
C1783 C 0.61601 0.33895 0.17256 0.0
H1784 H 0.65014 0.34065 0.23385 0.0
C1785 C 0.59375 0.32316 0.179 0.0
C1786 C 0.59181 0.31316 0.20511 0.0
H1787 H 0.61756 0.34542 0.15198 0.0
H1788 H 0.57838 0.31829 0.16338 0.0
C1789 C 0.61189 0.32072 0.22501 0.0
C1790 C 0.44244 0.74475 0.19217 0.0
C1791 C 0.41847 0.73738 0.2042 0.0
H1792 H 0.48356 0.75899 0.19877 0.0
C1793 C 0.4162 0.74308 0.23152 0.0
H1794 H 0.44464 0.74061 0.17111 0.0
C1795 C 0.43817 0.75349 0.24709 0.0
C1796 C 0.46283 0.75871 0.23567 0.0
H1797 H 0.39779 0.73817 0.24119 0.0
H1798 H 0.43635 0.756 0.26849 0.0
C1799 C 0.46459 0.75539 0.20789 0.0
loop_
_geom_bond_atom_site_label_1
_geom_bond_atom_site_label_2
_geom_bond_distance
_geom_bond_site_symmetry_2
_ccdc_geom_bond_type
H0 C3 0.931 . S
H1 C6 0.928 . S
H2 C8 0.930 . S
C3 H0 0.931 . S
C3 C4 1.413 . S
C3 C5 1.360 . S
C4 C3 1.413 . S
C4 C8 1.429 . S
C5 C3 1.360 . S
C5 C6 1.372 . S
C6 H1 0.928 . S
C6 C5 1.372 . S
C6 C7 1.404 . S
C7 C6 1.404 . S
C7 C8 1.391 . S
C8 H2 0.930 . S
C8 C4 1.429 . S
C8 C7 1.391 . S
H9 C12 0.931 . S
H10 C15 0.928 . S
H11 C17 0.930 . S
C12 H9 0.931 . S
C12 C13 1.413 . S
C12 C14 1.360 . S
C13 C12 1.413 . S
C13 C17 1.429 . S
C14 C12 1.360 . S
C14 C15 1.372 . S
C15 H10 0.928 . S
C15 C14 1.372 . S
C15 C16 1.404 . S
C16 C15 1.404 . S
C16 C17 1.391 . S
C17 H11 0.930 . S
C17 C13 1.429 . S
C17 C16 1.391 . S
H18 C21 0.931 . S
H19 C24 0.928 . S
H20 C26 0.930 . S
C21 H18 0.931 . S
C21 C22 1.413 . S
C21 C23 1.360 . S
C22 C21 1.413 . S
C22 C26 1.429 . S
C23 C21 1.360 . S
C23 C24 1.372 . S
C24 H19 0.928 . S
C24 C23 1.372 . S
C24 C25 1.404 . S
C25 C24 1.404 . S
C25 C26 1.391 . S
C26 H20 0.930 . S
C26 C22 1.429 . S
C26 C25 1.391 . S
H27 C30 0.931 . S
H28 C33 0.928 . S
H29 C35 0.930 . S
C30 H27 0.931 . S
C30 C31 1.413 . S
C30 C32 1.360 . S
C31 C30 1.413 . S
C31 C35 1.429 . S
C32 C30 1.360 . S
C32 C33 1.372 . S
C33 H28 0.928 . S
C33 C32 1.372 . S
C33 C34 1.404 . S
C34 C33 1.404 . S
C34 C35 1.391 . S
C35 H29 0.930 . S
C35 C31 1.429 . S
C35 C34 1.391 . S
H36 C39 0.931 . S
H37 C42 0.928 . S
H38 C44 0.930 . S
C39 H36 0.931 . S
C39 C40 1.413 . S
C39 C41 1.360 . S
C40 C39 1.413 . S
C40 C44 1.429 . S
C41 C39 1.360 . S
C41 C42 1.372 . S
C42 H37 0.928 . S
C42 C41 1.372 . S
C42 C43 1.404 . S
C43 C42 1.404 . S
C43 C44 1.391 . S
C44 H38 0.930 . S
C44 C40 1.429 . S
C44 C43 1.391 . S
H45 C48 0.931 . S
H46 C51 0.928 . S
H47 C53 0.930 . S
C48 H45 0.931 . S
C48 C49 1.413 . S
C48 C50 1.360 . S
C49 C48 1.413 . S
C49 C53 1.429 . S
C50 C48 1.360 . S
C50 C51 1.372 . S
C51 H46 0.928 . S
C51 C50 1.372 . S
C51 C52 1.404 . S
C52 C51 1.404 . S
C52 C53 1.391 . S
C53 H47 0.930 . S
C53 C49 1.429 . S
C53 C52 1.391 . S
H54 C57 0.931 . S
H55 C60 0.928 . S
H56 C62 0.930 . S
C57 H54 0.931 . S
C57 C58 1.413 . S
C57 C59 1.360 . S
C58 C57 1.413 . S
C58 C62 1.429 . S
C59 C57 1.360 . S
C59 C60 1.372 . S
C60 H55 0.928 . S
C60 C59 1.372 . S
C60 C61 1.404 . S
C61 C60 1.404 . S
C61 C62 1.391 . S
C62 H56 0.930 . S
C62 C58 1.429 . S
C62 C61 1.391 . S
H63 C66 0.931 . S
H64 C69 0.928 . S
H65 C71 0.930 . S
C66 H63 0.931 . S
C66 C67 1.413 . S
C66 C68 1.360 . S
C67 C66 1.413 . S
C67 C71 1.429 . S
C68 C66 1.360 . S
C68 C69 1.372 . S
C69 H64 0.928 . S
C69 C68 1.372 . S
C69 C70 1.404 . S
C70 C69 1.404 . S
C70 C71 1.391 . S
C71 H65 0.930 . S
C71 C67 1.429 . S
C71 C70 1.391 . S
H72 C75 0.931 . S
H73 C78 0.928 . S
H74 C80 0.930 . S
C75 H72 0.931 . S
C75 C76 1.413 . S
C75 C77 1.360 . S
C76 C75 1.413 . S
C76 C80 1.429 . S
C77 C75 1.360 . S
C77 C78 1.372 . S
C78 H73 0.928 . S
C78 C77 1.372 . S
C78 C79 1.404 . S
C79 C78 1.404 . S
C79 C80 1.391 . S
C80 H74 0.930 . S
C80 C76 1.429 . S
C80 C79 1.391 . S
H81 C84 0.931 . S
H82 C87 0.928 . S
H83 C89 0.930 . S
C84 H81 0.931 . S
C84 C85 1.413 . S
C84 C86 1.360 . S
C85 C84 1.413 . S
C85 C89 1.429 . S
C86 C84 1.360 . S
C86 C87 1.372 . S
C87 H82 0.928 . S
C87 C86 1.372 . S
C87 C88 1.404 . S
C88 C87 1.404 . S
C88 C89 1.391 . S
C89 H83 0.930 . S
C89 C85 1.429 . S
C89 C88 1.391 . S
H90 C93 0.931 . S
H91 C96 0.928 . S
H92 C98 0.930 . S
C93 H90 0.931 . S
C93 C94 1.413 . S
C93 C95 1.360 . S
C94 C93 1.413 . S
C94 C98 1.429 . S
C95 C93 1.360 . S
C95 C96 1.372 . S
C96 H91 0.928 . S
C96 C95 1.372 . S
C96 C97 1.404 . S
C97 C96 1.404 . S
C97 C98 1.391 . S
C98 H92 0.930 . S
C98 C94 1.429 . S
C98 C97 1.391 . S
H99 C102 0.931 . S
H100 C105 0.928 . S
H101 C107 0.930 . S
C102 H99 0.931 . S
C102 C103 1.413 . S
C102 C104 1.360 . S
C103 C102 1.413 . S
C103 C107 1.429 . S
C104 C102 1.360 . S
C104 C105 1.372 . S
C105 H100 0.928 . S
C105 C104 1.372 . S
C105 C106 1.404 . S
C106 C105 1.404 . S
C106 C107 1.391 . S
C107 H101 0.930 . S
C107 C103 1.429 . S
C107 C106 1.391 . S
H108 C111 0.931 . S
H109 C114 0.928 . S
H110 C116 0.930 . S
C111 H108 0.931 . S
C111 C112 1.413 . S
C111 C113 1.360 . S
C112 C111 1.413 . S
C112 C116 1.429 . S
C113 C111 1.360 . S
C113 C114 1.372 . S
C114 H109 0.928 . S
C114 C113 1.372 . S
C114 C115 1.404 . S
C115 C114 1.404 . S
C115 C116 1.391 . S
C116 H110 0.930 . S
C116 C112 1.429 . S
C116 C115 1.391 . S
H117 C120 0.931 . S
H118 C123 0.928 . S
H119 C125 0.930 . S
C120 H117 0.931 . S
C120 C121 1.413 . S
C120 C122 1.360 . S
C121 C120 1.413 . S
C121 C125 1.429 . S
C122 C120 1.360 . S
C122 C123 1.372 . S
C123 H118 0.928 . S
C123 C122 1.372 . S
C123 C124 1.404 . S
C124 C123 1.404 . S
C124 C125 1.391 . S
C125 H119 0.930 . S
C125 C121 1.429 . S
C125 C124 1.391 . S
H126 C129 0.931 . S
H127 C132 0.928 . S
H128 C134 0.930 . S
C129 H126 0.931 . S
C129 C130 1.413 . S
C129 C131 1.360 . S
C130 C129 1.413 . S
C130 C134 1.429 . S
C131 C129 1.360 . S
C131 C132 1.372 . S
C132 H127 0.928 . S
C132 C131 1.372 . S
C132 C133 1.404 . S
C133 C132 1.404 . S
C133 C134 1.391 . S
C134 H128 0.930 . S
C134 C130 1.429 . S
C134 C133 1.391 . S
H135 C138 0.931 . S
H136 C141 0.928 . S
H137 C143 0.930 . S
C138 H135 0.931 . S
C138 C139 1.413 . S
C138 C140 1.360 . S
C139 C138 1.413 . S
C139 C143 1.429 . S
C140 C138 1.360 . S
C140 C141 1.372 . S
C141 H136 0.928 . S
C141 C140 1.372 . S
C141 C142 1.404 . S
C142 C141 1.404 . S
C142 C143 1.391 . S
C143 H137 0.930 . S
C143 C139 1.429 . S
C143 C142 1.391 . S
H144 C147 0.931 . S
H145 C150 0.928 . S
H146 C152 0.930 . S
C147 H144 0.931 . S
C147 C148 1.413 . S
C147 C149 1.360 . S
C148 C147 1.413 . S
C148 C152 1.429 . S
C149 C147 1.360 . S
C149 C150 1.372 . S
C150 H145 0.928 . S
C150 C149 1.372 . S
C150 C151 1.404 . S
C151 C150 1.404 . S
C151 C152 1.391 . S
C152 H146 0.930 . S
C152 C148 1.429 . S
C152 C151 1.391 . S
H153 C156 0.931 . S
H154 C159 0.928 . S
H155 C161 0.930 . S
C156 H153 0.931 . S
C156 C157 1.413 . S
C156 C158 1.360 . S
C157 C156 1.413 . S
C157 C161 1.429 . S
C158 C156 1.360 . S
C158 C159 1.372 . S
C159 H154 0.928 . S
C159 C158 1.372 . S
C159 C160 1.404 . S
C160 C159 1.404 . S
C160 C161 1.391 . S
C161 H155 0.930 . S
C161 C157 1.429 . S
C161 C160 1.391 . S
H162 C165 0.931 . S
H163 C168 0.928 . S
H164 C170 0.930 . S
C165 H162 0.931 . S
C165 C166 1.413 . S
C165 C167 1.360 . S
C166 C165 1.413 . S
C166 C170 1.429 . S
C167 C165 1.360 . S
C167 C168 1.372 . S
C168 H163 0.928 . S
C168 C167 1.372 . S
C168 C169 1.404 . S
C169 C168 1.404 . S
C169 C170 1.391 . S
C170 H164 0.930 . S
C170 C166 1.429 . S
C170 C169 1.391 . S
H171 C174 0.931 . S
H172 C177 0.928 . S
H173 C179 0.930 . S
C174 H171 0.931 . S
C174 C175 1.413 . S
C174 C176 1.360 . S
C175 C174 1.413 . S
C175 C179 1.429 . S
C176 C174 1.360 . S
C176 C177 1.372 . S
C177 H172 0.928 . S
C177 C176 1.372 . S
C177 C178 1.404 . S
C178 C177 1.404 . S
C178 C179 1.391 . S
C179 H173 0.930 . S
C179 C175 1.429 . S
C179 C178 1.391 . S
H180 C183 0.931 . S
H181 C186 0.928 . S
H182 C188 0.930 . S
C183 H180 0.931 . S
C183 C184 1.413 . S
C183 C185 1.360 . S
C184 C183 1.413 . S
C184 C188 1.429 . S
C185 C183 1.360 . S
C185 C186 1.372 . S
C186 H181 0.928 . S
C186 C185 1.372 . S
C186 C187 1.404 . S
C187 C186 1.404 . S
C187 C188 1.391 . S
C188 H182 0.930 . S
C188 C184 1.429 . S
C188 C187 1.391 . S
H189 C192 0.931 . S
H190 C195 0.928 . S
H191 C197 0.930 . S
C192 H189 0.931 . S
C192 C193 1.413 . S
C192 C194 1.360 . S
C193 C192 1.413 . S
C193 C197 1.429 . S
C194 C192 1.360 . S
C194 C195 1.372 . S
C195 H190 0.928 . S
C195 C194 1.372 . S
C195 C196 1.404 . S
C196 C195 1.404 . S
C196 C197 1.391 . S
C197 H191 0.930 . S
C197 C193 1.429 . S
C197 C196 1.391 . S
H198 C201 0.931 . S
H199 C204 0.928 . S
H200 C206 0.930 . S
C201 H198 0.931 . S
C201 C202 1.413 . S
C201 C203 1.360 . S
C202 C201 1.413 . S
C202 C206 1.429 . S
C203 C201 1.360 . S
C203 C204 1.372 . S
C204 H199 0.928 . S
C204 C203 1.372 . S
C204 C205 1.404 . S
C205 C204 1.404 . S
C205 C206 1.391 . S
C206 H200 0.930 . S
C206 C202 1.429 . S
C206 C205 1.391 . S
H207 C210 0.931 . S
H208 C213 0.928 . S
H209 C215 0.930 . S
C210 H207 0.931 . S
C210 C211 1.413 . S
C210 C212 1.360 . S
C211 C210 1.413 . S
C211 C215 1.429 . S
C212 C210 1.360 . S
C212 C213 1.372 . S
C213 H208 0.928 . S
C213 C212 1.372 . S
C213 C214 1.404 . S
C214 C213 1.404 . S
C214 C215 1.391 . S
C215 H209 0.930 . S
C215 C211 1.429 . S
C215 C214 1.391 . S
H216 C219 0.931 . S
H217 C222 0.928 . S
H218 C224 0.930 . S
C219 H216 0.931 . S
C219 C220 1.413 . S
C219 C221 1.360 . S
C220 C219 1.413 . S
C220 C224 1.429 . S
C221 C219 1.360 . S
C221 C222 1.372 . S
C222 H217 0.928 . S
C222 C221 1.372 . S
C222 C223 1.404 . S
C223 C222 1.404 . S
C223 C224 1.391 . S
C224 H218 0.930 . S
C224 C220 1.429 . S
C224 C223 1.391 . S
H225 C228 0.931 . S
H226 C231 0.928 . S
H227 C233 0.930 . S
C228 H225 0.931 . S
C228 C229 1.413 . S
C228 C230 1.360 . S
C229 C228 1.413 . S
C229 C233 1.429 . S
C230 C228 1.360 . S
C230 C231 1.372 . S
C231 H226 0.928 . S
C231 C230 1.372 . S
C231 C232 1.404 . S
C232 C231 1.404 . S
C232 C233 1.391 . S
C233 H227 0.930 . S
C233 C229 1.429 . S
C233 C232 1.391 . S
H234 C237 0.931 . S
H235 C240 0.928 . S
H236 C242 0.930 . S
C237 H234 0.931 . S
C237 C238 1.413 . S
C237 C239 1.360 . S
C238 C237 1.413 . S
C238 C242 1.429 . S
C239 C237 1.360 . S
C239 C240 1.372 . S
C240 H235 0.928 . S
C240 C239 1.372 . S
C240 C241 1.404 . S
C241 C240 1.404 . S
C241 C242 1.391 . S
C242 H236 0.930 . S
C242 C238 1.429 . S
C242 C241 1.391 . S
H243 C246 0.931 . S
H244 C249 0.928 . S
H245 C251 0.930 . S
C246 H243 0.931 . S
C246 C247 1.413 . S
C246 C248 1.360 . S
C247 C246 1.413 . S
C247 C251 1.429 . S
C248 C246 1.360 . S
C248 C249 1.372 . S
C249 H244 0.928 . S
C249 C248 1.372 . S
C249 C250 1.404 . S
C250 C249 1.404 . S
C250 C251 1.391 . S
C251 H245 0.930 . S
C251 C247 1.429 . S
C251 C250 1.391 . S
H252 C255 0.931 . S
H253 C258 0.928 . S
H254 C260 0.930 . S
C255 H252 0.931 . S
C255 C256 1.413 . S
C255 C257 1.360 . S
C256 C255 1.413 . S
C256 C260 1.429 . S
C257 C255 1.360 . S
C257 C258 1.372 . S
C258 H253 0.928 . S
C258 C257 1.372 . S
C258 C259 1.404 . S
C259 C258 1.404 . S
C259 C260 1.391 . S
C260 H254 0.930 . S
C260 C256 1.429 . S
C260 C259 1.391 . S
H261 C264 0.931 . S
H262 C267 0.928 . S
H263 C269 0.930 . S
C264 H261 0.931 . S
C264 C265 1.413 . S
C264 C266 1.360 . S
C265 C264 1.413 . S
C265 C269 1.429 . S
C266 C264 1.360 . S
C266 C267 1.372 . S
C267 H262 0.928 . S
C267 C266 1.372 . S
C267 C268 1.404 . S
C268 C267 1.404 . S
C268 C269 1.391 . S
C269 H263 0.930 . S
C269 C265 1.429 . S
C269 C268 1.391 . S
H270 C273 0.931 . S
H271 C276 0.928 . S
H272 C278 0.930 . S
C273 H270 0.931 . S
C273 C274 1.413 . S
C273 C275 1.360 . S
C274 C273 1.413 . S
C274 C278 1.429 . S
C275 C273 1.360 . S
C275 C276 1.372 . S
C276 H271 0.928 . S
C276 C275 1.372 . S
C276 C277 1.404 . S
C277 C276 1.404 . S
C277 C278 1.391 . S
C278 H272 0.930 . S
C278 C274 1.429 . S
C278 C277 1.391 . S
H279 C282 0.931 . S
H280 C285 0.928 . S
H281 C287 0.930 . S
C282 H279 0.931 . S
C282 C283 1.413 . S
C282 C284 1.360 . S
C283 C282 1.413 . S
C283 C287 1.429 . S
C284 C282 1.360 . S
C284 C285 1.372 . S
C285 H280 0.928 . S
C285 C284 1.372 . S
C285 C286 1.404 . S
C286 C285 1.404 . S
C286 C287 1.391 . S
C287 H281 0.930 . S
C287 C283 1.429 . S
C287 C286 1.391 . S
Cu288 N289 1.999 . S
Cu288 O294 1.974 1_554 S
Cu288 N299 1.985 . S
Cu288 O308 1.959 . S
N289 Cu288 1.999 . S
N289 C291 1.263 1_554 S
N289 C293 1.389 . S
N290 C291 1.358 . S
N290 C292 1.400 . S
C291 N289 1.263 1_556 S
C291 N290 1.358 . S
C291 H297 0.930 . S
C292 N290 1.400 . S
C292 C293 1.351 1_556 S
C292 H309 0.930 . S
C293 N289 1.389 . S
C293 C292 1.351 1_554 S
C293 H298 0.930 . S
O294 Cu288 1.974 1_556 S
O294 C304 1.282 . S
C295 O296 1.261 . S
C295 O308 1.251 . S
O296 C295 1.261 . S
H297 C291 0.930 . S
H298 C293 0.930 . S
N299 Cu288 1.985 . S
N299 C301 1.335 . S
N299 C302 1.390 . S
N300 C301 1.345 . S
N300 C303 1.336 . S
C301 N299 1.335 . S
C301 N300 1.345 . S
C301 H306 0.930 . S
C302 N299 1.390 . S
C302 C303 1.346 . S
C302 H307 0.930 . S
C303 N300 1.336 . S
C303 C302 1.346 . S
C303 H310 0.929 . S
C304 O294 1.282 . S
C304 O305 1.216 . S
O305 C304 1.216 . S
H306 C301 0.930 . S
H307 C302 0.930 . S
O308 Cu288 1.959 . S
O308 C295 1.251 . S
H309 C292 0.930 . S
H310 C303 0.929 . S
Cu311 N312 1.999 . S
Cu311 O317 1.974 . S
Cu311 N322 1.985 1_554 S
Cu311 O331 1.959 1_554 S
N312 Cu311 1.999 . S
N312 C314 1.263 . S
N312 C316 1.389 . S
N313 C314 1.358 . S
N313 C315 1.400 . S
C314 N312 1.263 . S
C314 N313 1.358 . S
C314 H320 0.930 . S
C315 N313 1.400 . S
C315 C316 1.351 . S
C315 H332 0.930 . S
C316 N312 1.389 . S
C316 C315 1.351 . S
C316 H321 0.930 . S
O317 Cu311 1.974 . S
O317 C327 1.282 . S
C318 O319 1.261 . S
C318 O331 1.251 . S
O319 C318 1.261 . S
H320 C314 0.930 . S
H321 C316 0.930 . S
N322 Cu311 1.985 1_556 S
N322 C324 1.335 . S
N322 C325 1.390 . S
N323 C324 1.345 . S
N323 C326 1.336 . S
C324 N322 1.335 . S
C324 N323 1.345 . S
C324 H329 0.930 . S
C325 N322 1.390 . S
C325 C326 1.346 . S
C325 H330 0.930 1_556 S
C326 N323 1.336 . S
C326 C325 1.346 . S
C326 H333 0.929 . S
C327 O317 1.282 . S
C327 O328 1.216 . S
O328 C327 1.216 . S
H329 C324 0.930 . S
H330 C325 0.930 1_554 S
O331 Cu311 1.959 1_556 S
O331 C318 1.251 . S
H332 C315 0.930 . S
H333 C326 0.929 . S
Cu334 N335 1.999 1_554 S
Cu334 O340 1.974 1_554 S
Cu334 N345 1.985 . S
Cu334 O354 1.959 . S
N335 Cu334 1.999 1_556 S
N335 C337 1.263 . S
N335 C339 1.389 . S
N336 C337 1.358 . S
N336 C338 1.400 . S
C337 N335 1.263 . S
C337 N336 1.358 . S
C337 H343 0.930 . S
C338 N336 1.400 . S
C338 C339 1.351 . S
C338 H355 0.930 . S
C339 N335 1.389 . S
C339 C338 1.351 . S
C339 H344 0.930 1_556 S
O340 Cu334 1.974 1_556 S
O340 C350 1.282 . S
C341 O342 1.261 . S
C341 O354 1.251 . S
O342 C341 1.261 . S
H343 C337 0.930 . S
H344 C339 0.930 1_554 S
N345 Cu334 1.985 . S
N345 C347 1.335 . S
N345 C348 1.390 . S
N346 C347 1.345 . S
N346 C349 1.336 . S
C347 N345 1.335 . S
C347 N346 1.345 . S
C347 H352 0.930 . S
C348 N345 1.390 . S
C348 C349 1.346 . S
C348 H353 0.907 1_554 S
C349 N346 1.336 . S
C349 C348 1.346 . S
C349 H356 0.929 . S
C350 O340 1.282 . S
C350 O351 1.216 . S
O351 C350 1.216 . S
H352 C347 0.930 . S
H353 C348 0.907 1_556 S
O354 Cu334 1.959 . S
O354 C341 1.251 . S
H355 C338 0.930 . S
H356 C349 0.929 . S
Cu357 N358 2.004 . S
Cu357 O363 1.979 . S
Cu357 N368 1.981 1_554 S
Cu357 O377 1.954 1_554 S
N358 Cu357 2.004 . S
N358 C360 1.263 . S
N358 C362 1.389 . S
N359 C360 1.358 . S
N359 C361 1.400 . S
C360 N358 1.263 . S
C360 N359 1.358 . S
C360 H366 0.930 . S
C361 N359 1.400 . S
C361 C362 1.351 . S
C361 H378 0.930 . S
C362 N358 1.389 . S
C362 C361 1.351 . S
C362 H367 0.930 . S
O363 Cu357 1.979 . S
O363 C373 1.282 . S
C364 O365 1.261 . S
C364 O377 1.251 . S
O365 C364 1.261 . S
H366 C360 0.930 . S
H367 C362 0.930 . S
N368 Cu357 1.981 1_556 S
N368 C370 1.335 . S
N368 C371 1.390 . S
N369 C370 1.345 . S
N369 C372 1.336 . S
C370 N368 1.335 . S
C370 N369 1.345 . S
C370 H375 0.930 . S
C371 N368 1.390 . S
C371 C372 1.346 . S
C371 H376 0.930 1_556 S
C372 N369 1.336 . S
C372 C371 1.346 . S
C372 H379 0.929 . S
C373 O363 1.282 . S
C373 O374 1.216 . S
O374 C373 1.216 . S
H375 C370 0.930 . S
H376 C371 0.930 1_554 S
O377 Cu357 1.954 1_556 S
O377 C364 1.251 . S
H378 C361 0.930 . S
H379 C372 0.929 . S
Cu380 N381 1.999 . S
Cu380 O386 1.974 . S
Cu380 N391 1.985 1_455 S
Cu380 O400 1.959 1_455 S
N381 Cu380 1.999 . S
N381 C383 1.263 . S
N381 C385 1.389 . S
N382 C383 1.358 . S
N382 C384 1.400 . S
C383 N381 1.263 . S
C383 N382 1.358 . S
C383 H389 0.930 . S
C384 N382 1.400 . S
C384 C385 1.351 . S
C384 H401 0.930 . S
C385 N381 1.389 . S
C385 C384 1.351 . S
C385 H390 0.930 . S
O386 Cu380 1.974 . S
O386 C396 1.282 . S
C387 O388 1.261 . S
C387 O400 1.251 . S
O388 C387 1.261 . S
H389 C383 0.930 . S
H390 C385 0.930 . S
N391 Cu380 1.985 1_655 S
N391 C393 1.335 . S
N391 C394 1.390 1_655 S
N392 C393 1.345 . S
N392 C395 1.336 . S
C393 N391 1.335 . S
C393 N392 1.345 . S
C393 H398 0.930 . S
C394 N391 1.390 1_455 S
C394 C395 1.346 1_455 S
C394 H399 0.930 . S
C395 N392 1.336 . S
C395 C394 1.346 1_655 S
C395 H402 0.929 . S
C396 O386 1.282 . S
C396 O397 1.216 . S
O397 C396 1.216 . S
H398 C393 0.930 . S
H399 C394 0.930 . S
O400 Cu380 1.959 1_655 S
O400 C387 1.251 . S
H401 C384 0.930 . S
H402 C395 0.929 . S
Cu403 N404 1.999 . S
Cu403 O409 1.974 . S
Cu403 N414 1.985 1_545 S
Cu403 O423 1.959 1_545 S
N404 Cu403 1.999 . S
N404 C406 1.263 . S
N404 C408 1.389 . S
N405 C406 1.358 . S
N405 C407 1.400 . S
C406 N404 1.263 . S
C406 N405 1.358 . S
C406 H412 0.930 . S
C407 N405 1.400 . S
C407 C408 1.351 . S
C407 H424 0.930 . S
C408 N404 1.389 . S
C408 C407 1.351 . S
C408 H413 0.930 . S
O409 Cu403 1.974 . S
O409 C419 1.282 . S
C410 O411 1.261 . S
C410 O423 1.251 . S
O411 C410 1.261 . S
H412 C406 0.930 . S
H413 C408 0.930 . S
N414 Cu403 1.985 1_565 S
N414 C416 1.335 . S
N414 C417 1.390 . S
N415 C416 1.345 . S
N415 C418 1.336 . S
C416 N414 1.335 . S
C416 N415 1.345 . S
C416 H421 0.930 . S
C417 N414 1.390 . S
C417 C418 1.346 . S
C417 H422 0.930 1_565 S
C418 N415 1.336 . S
C418 C417 1.346 . S
C418 H425 0.929 . S
C419 O409 1.282 . S
C419 O420 1.216 . S
O420 C419 1.216 . S
H421 C416 0.930 . S
H422 C417 0.930 1_545 S
O423 Cu403 1.959 1_565 S
O423 C410 1.251 . S
H424 C407 0.930 . S
H425 C418 0.929 . S
Cu426 N427 2.016 . S
Cu426 O432 1.994 . S
Cu426 N437 1.969 1_655 S
Cu426 O446 1.939 1_655 S
N427 Cu426 2.016 . S
N427 C429 1.263 . S
N427 C431 1.389 . S
N428 C429 1.358 . S
N428 C430 1.400 . S
C429 N427 1.263 . S
C429 N428 1.358 . S
C429 H435 0.930 . S
C430 N428 1.400 . S
C430 C431 1.351 . S
C430 H447 0.930 . S
C431 N427 1.389 . S
C431 C430 1.351 . S
C431 H436 0.930 . S
O432 Cu426 1.994 . S
O432 C442 1.282 . S
C433 O434 1.261 . S
C433 O446 1.251 . S
O434 C433 1.261 . S
H435 C429 0.930 . S
H436 C431 0.930 . S
N437 Cu426 1.969 1_455 S
N437 C439 1.335 . S
N437 C440 1.390 . S
N438 C439 1.345 . S
N438 C441 1.336 . S
C439 N437 1.335 . S
C439 N438 1.345 . S
C439 H444 0.930 . S
C440 N437 1.390 . S
C440 C441 1.346 . S
C440 H445 0.930 . S
C441 N438 1.336 . S
C441 C440 1.346 . S
C441 H448 0.929 . S
C442 O432 1.282 . S
C442 O443 1.216 . S
O443 C442 1.216 . S
H444 C439 0.930 . S
H445 C440 0.930 . S
O446 Cu426 1.939 1_455 S
O446 C433 1.251 . S
H447 C430 0.930 . S
H448 C441 0.929 . S
Cu449 N450 1.980 1_565 S
Cu449 O455 1.949 1_565 S
Cu449 N460 2.004 . S
Cu449 O469 1.984 . S
N450 Cu449 1.980 1_545 S
N450 C452 1.263 . S
N450 C454 1.389 . S
N451 C452 1.358 . S
N451 C453 1.400 . S
C452 N450 1.263 . S
C452 N451 1.358 . S
C452 H458 0.930 . S
C453 N451 1.400 . S
C453 C454 1.351 . S
C453 H470 0.930 . S
C454 N450 1.389 . S
C454 C453 1.351 . S
C454 H459 0.930 . S
O455 Cu449 1.949 1_545 S
O455 C465 1.282 . S
C456 O457 1.261 . S
C456 O469 1.251 . S
O457 C456 1.261 . S
H458 C452 0.930 . S
H459 C454 0.930 . S
N460 Cu449 2.004 . S
N460 C462 1.335 . S
N460 C463 1.390 . S
N461 C462 1.345 . S
N461 C464 1.336 . S
C462 N460 1.335 . S
C462 N461 1.345 . S
C462 H467 0.930 . S
C463 N460 1.390 . S
C463 C464 1.346 . S
C463 H468 0.930 . S
C464 N461 1.336 . S
C464 C463 1.346 . S
C464 H471 0.929 . S
C465 O455 1.282 . S
C465 O466 1.216 . S
O466 C465 1.216 . S
H467 C462 0.930 . S
H468 C463 0.930 . S
O469 Cu449 1.984 . S
O469 C456 1.251 . S
H470 C453 0.930 . S
H471 C464 0.929 . S
Cu472 N473 1.999 . S
Cu472 O478 1.974 . S
Cu472 N483 1.985 1_455 S
Cu472 O492 1.959 1_455 S
N473 Cu472 1.999 . S
N473 C475 1.263 . S
N473 C477 1.389 . S
N474 C475 1.358 . S
N474 C476 1.400 . S
C475 N473 1.263 . S
C475 N474 1.358 . S
C475 H481 0.930 . S
C476 N474 1.400 . S
C476 C477 1.351 . S
C476 H493 0.930 . S
C477 N473 1.389 . S
C477 C476 1.351 . S
C477 H482 0.930 . S
O478 Cu472 1.974 . S
O478 C488 1.282 . S
C479 O480 1.261 . S
C479 O492 1.251 . S
O480 C479 1.261 . S
H481 C475 0.930 . S
H482 C477 0.930 . S
N483 Cu472 1.985 1_655 S
N483 C485 1.335 . S
N483 C486 1.388 1_655 S
N484 C485 1.345 . S
N484 C487 1.336 . S
C485 N483 1.335 . S
C485 N484 1.345 . S
C485 H490 0.930 . S
C486 N483 1.388 1_455 S
C486 C487 1.337 1_455 S
C486 H491 0.939 . S
C487 N484 1.336 . S
C487 C486 1.337 1_655 S
C487 H494 0.929 . S
C488 O478 1.282 . S
C488 O489 1.216 . S
O489 C488 1.216 . S
H490 C485 0.930 . S
H491 C486 0.939 . S
O492 Cu472 1.959 1_655 S
O492 C479 1.251 . S
H493 C476 0.930 . S
H494 C487 0.929 . S
Cu495 N496 1.999 . S
Cu495 O501 1.974 . S
Cu495 N506 1.985 1_545 S
Cu495 O515 1.959 1_545 S
N496 Cu495 1.999 . S
N496 C498 1.263 . S
N496 C500 1.389 . S
N497 C498 1.358 . S
N497 C499 1.400 . S
C498 N496 1.263 . S
C498 N497 1.358 . S
C498 H504 0.930 . S
C499 N497 1.400 . S
C499 C500 1.351 . S
C499 H516 0.930 . S
C500 N496 1.389 . S
C500 C499 1.351 . S
C500 H505 0.930 . S
O501 Cu495 1.974 . S
O501 C511 1.282 . S
C502 O503 1.261 . S
C502 O515 1.251 . S
O503 C502 1.261 . S
H504 C498 0.930 . S
H505 C500 0.930 . S
N506 Cu495 1.985 1_565 S
N506 C508 1.335 . S
N506 C509 1.390 1_565 S
N507 C508 1.345 . S
N507 C510 1.336 . S
C508 N506 1.335 . S
C508 N507 1.345 . S
C508 H513 0.930 . S
C509 N506 1.390 1_545 S
C509 C510 1.346 1_545 S
C509 H514 0.930 . S
C510 N507 1.336 . S
C510 C509 1.346 1_565 S
C510 H517 0.929 . S
C511 O501 1.282 . S
C511 O512 1.216 . S
O512 C511 1.216 . S
H513 C508 0.930 . S
H514 C509 0.930 . S
O515 Cu495 1.959 1_565 S
O515 C502 1.251 . S
H516 C499 0.930 . S
H517 C510 0.929 . S
Cu518 N519 1.999 . S
Cu518 O524 1.974 . S
Cu518 N529 1.985 . S
Cu518 O538 1.959 . S
N519 Cu518 1.999 . S
N519 C521 1.263 1_455 S
N519 C523 1.389 . S
N520 C521 1.358 . S
N520 C522 1.400 . S
C521 N519 1.263 1_655 S
C521 N520 1.358 . S
C521 H527 0.930 . S
C522 N520 1.400 . S
C522 C523 1.351 1_655 S
C522 H539 0.930 . S
C523 N519 1.389 . S
C523 C522 1.351 1_455 S
C523 H528 0.930 . S
O524 Cu518 1.974 . S
O524 C534 1.282 1_455 S
C525 O526 1.261 . S
C525 O538 1.251 . S
O526 C525 1.261 . S
H527 C521 0.930 . S
H528 C523 0.930 . S
N529 Cu518 1.985 . S
N529 C531 1.335 . S
N529 C532 1.390 . S
N530 C531 1.345 . S
N530 C533 1.336 . S
C531 N529 1.335 . S
C531 N530 1.345 . S
C531 H536 0.930 . S
C532 N529 1.390 . S
C532 C533 1.346 . S
C532 H537 0.930 . S
C533 N530 1.336 . S
C533 C532 1.346 . S
C533 H540 0.929 . S
C534 O524 1.282 1_655 S
C534 O535 1.216 1_655 S
O535 C534 1.216 1_455 S
H536 C531 0.930 . S
H537 C532 0.930 . S
O538 Cu518 1.959 . S
O538 C525 1.251 . S
H539 C522 0.930 . S
H540 C533 0.929 . S
Cu541 N542 1.999 . S
Cu541 O547 1.974 . S
Cu541 N552 1.985 . S
Cu541 O561 1.959 1_545 S
N542 Cu541 1.999 . S
N542 C544 1.263 . S
N542 C546 1.389 . S
N543 C544 1.358 . S
N543 C545 1.400 . S
C544 N542 1.263 . S
C544 N543 1.358 . S
C544 H550 0.930 . S
C545 N543 1.400 . S
C545 C546 1.351 . S
C545 H562 0.930 . S
C546 N542 1.389 . S
C546 C545 1.351 . S
C546 H551 0.930 . S
O547 Cu541 1.974 . S
O547 C557 1.282 . S
C548 O549 1.261 1_565 S
C548 O561 1.251 . S
O549 C548 1.261 1_545 S
H550 C544 0.930 . S
H551 C546 0.930 . S
N552 Cu541 1.985 . S
N552 C554 1.335 1_545 S
N552 C555 1.390 . S
N553 C554 1.345 . S
N553 C556 1.336 . S
C554 N552 1.335 1_565 S
C554 N553 1.345 . S
C554 H559 0.930 . S
C555 N552 1.390 . S
C555 C556 1.346 1_545 S
C555 H560 0.930 . S
C556 N553 1.336 . S
C556 C555 1.346 1_565 S
C556 H563 0.929 . S
C557 O547 1.282 . S
C557 O558 1.216 . S
O558 C557 1.216 . S
H559 C554 0.930 . S
H560 C555 0.930 . S
O561 Cu541 1.959 1_565 S
O561 C548 1.251 . S
H562 C545 0.930 . S
H563 C556 0.929 . S
Cu564 N565 1.999 . S
Cu564 O570 1.974 . S
Cu564 N575 1.985 . S
Cu564 O584 1.959 . S
N565 Cu564 1.999 . S
N565 C567 1.263 . S
N565 C569 1.389 . S
N566 C567 1.358 . S
N566 C568 1.400 . S
C567 N565 1.263 . S
C567 N566 1.358 . S
C567 H573 0.930 . S
C568 N566 1.400 . S
C568 C569 1.351 . S
C568 H585 0.930 . S
C569 N565 1.389 . S
C569 C568 1.351 . S
C569 H574 0.930 . S
O570 Cu564 1.974 . S
O570 C580 1.282 . S
C571 O572 1.261 . S
C571 O584 1.251 . S
O572 C571 1.261 . S
H573 C567 0.930 . S
H574 C569 0.930 . S
N575 Cu564 1.985 . S
N575 C577 1.335 . S
N575 C578 1.390 . S
N576 C577 1.345 . S
N576 C579 1.336 . S
C577 N575 1.335 . S
C577 N576 1.345 . S
C577 H582 0.930 . S
C578 N575 1.390 . S
C578 C579 1.346 . S
C578 H583 0.930 . S
C579 N576 1.336 . S
C579 C578 1.346 . S
C579 H586 0.929 . S
C580 O570 1.282 . S
C580 O581 1.216 . S
O581 C580 1.216 . S
H582 C577 0.930 . S
H583 C578 0.930 . S
O584 Cu564 1.959 . S
O584 C571 1.251 . S
H585 C568 0.930 . S
H586 C579 0.929 . S
Cu587 N588 1.999 . S
Cu587 O593 1.974 . S
Cu587 N598 1.985 . S
Cu587 O607 1.959 . S
N588 Cu587 1.999 . S
N588 C590 1.263 . S
N588 C592 1.389 . S
N589 C590 1.358 . S
N589 C591 1.400 . S
C590 N588 1.263 . S
C590 N589 1.358 . S
C590 H596 0.930 . S
C591 N589 1.400 . S
C591 C592 1.351 . S
C591 H608 0.930 . S
C592 N588 1.389 . S
C592 C591 1.351 . S
C592 H597 0.930 . S
O593 Cu587 1.974 . S
O593 C603 1.282 . S
C594 O595 1.261 . S
C594 O607 1.251 . S
O595 C594 1.261 . S
H596 C590 0.930 . S
H597 C592 0.930 . S
N598 Cu587 1.985 . S
N598 C600 1.335 . S
N598 C601 1.390 . S
N599 C600 1.345 . S
N599 C602 1.336 . S
C600 N598 1.335 . S
C600 N599 1.345 . S
C600 H605 0.930 . S
C601 N598 1.390 . S
C601 C602 1.346 . S
C601 H606 0.930 . S
C602 N599 1.336 . S
C602 C601 1.346 . S
C602 H609 0.929 . S
C603 O593 1.282 . S
C603 O604 1.216 . S
O604 C603 1.216 . S
H605 C600 0.930 . S
H606 C601 0.930 . S
O607 Cu587 1.959 . S
O607 C594 1.251 . S
H608 C591 0.930 . S
H609 C602 0.929 . S
Cu610 N611 1.999 . S
Cu610 O616 1.974 . S
Cu610 N621 1.985 . S
Cu610 O630 1.959 . S
N611 Cu610 1.999 . S
N611 C613 1.263 . S
N611 C615 1.389 . S
N612 C613 1.358 . S
N612 C614 1.400 . S
C613 N611 1.263 . S
C613 N612 1.358 . S
C613 H619 0.930 . S
C614 N612 1.400 . S
C614 C615 1.351 . S
C614 H631 0.930 . S
C615 N611 1.389 . S
C615 C614 1.351 . S
C615 H620 0.930 . S
O616 Cu610 1.974 . S
O616 C626 1.282 . S
C617 O618 1.261 . S
C617 O630 1.251 . S
O618 C617 1.261 . S
H619 C613 0.930 . S
H620 C615 0.930 . S
N621 Cu610 1.985 . S
N621 C623 1.335 . S
N621 C624 1.390 . S
N622 C623 1.345 . S
N622 C625 1.336 . S
C623 N621 1.335 . S
C623 N622 1.345 . S
C623 H628 0.930 . S
C624 N621 1.390 . S
C624 C625 1.346 . S
C624 H629 0.930 . S
C625 N622 1.336 . S
C625 C624 1.346 . S
C625 H632 0.929 . S
C626 O616 1.282 . S
C626 O627 1.216 . S
O627 C626 1.216 . S
H628 C623 0.930 . S
H629 C624 0.930 . S
O630 Cu610 1.959 . S
O630 C617 1.251 . S
H631 C614 0.930 . S
H632 C625 0.929 . S
Cu633 N634 1.999 . S
Cu633 O639 1.974 . S
Cu633 N644 1.985 . S
Cu633 O653 1.959 . S
N634 Cu633 1.999 . S
N634 C636 1.263 . S
N634 C638 1.389 . S
N635 C636 1.358 . S
N635 C637 1.400 . S
C636 N634 1.263 . S
C636 N635 1.358 . S
C636 H642 0.930 . S
C637 N635 1.400 . S
C637 C638 1.351 . S
C637 H654 0.930 . S
C638 N634 1.389 . S
C638 C637 1.351 . S
C638 H643 0.930 . S
O639 Cu633 1.974 . S
O639 C649 1.282 . S
C640 O641 1.261 . S
C640 O653 1.251 . S
O641 C640 1.261 . S
H642 C636 0.930 . S
H643 C638 0.930 . S
N644 Cu633 1.985 . S
N644 C646 1.335 . S
N644 C647 1.390 . S
N645 C646 1.345 . S
N645 C648 1.336 . S
C646 N644 1.335 . S
C646 N645 1.345 . S
C646 H651 0.930 . S
C647 N644 1.390 . S
C647 C648 1.346 . S
C647 H652 0.930 . S
C648 N645 1.336 . S
C648 C647 1.346 . S
C648 H655 0.929 . S
C649 O639 1.282 . S
C649 O650 1.216 . S
O650 C649 1.216 . S
H651 C646 0.930 . S
H652 C647 0.930 . S
O653 Cu633 1.959 . S
O653 C640 1.251 . S
H654 C637 0.930 . S
H655 C648 0.929 . S
Cu656 N657 1.999 . S
Cu656 O662 1.974 . S
Cu656 N667 1.985 . S
Cu656 O676 1.959 . S
N657 Cu656 1.999 . S
N657 C659 1.263 . S
N657 C661 1.389 . S
N658 C659 1.358 . S
N658 C660 1.400 . S
C659 N657 1.263 . S
C659 N658 1.358 . S
C659 H665 0.930 . S
C660 N658 1.400 . S
C660 C661 1.351 . S
C660 H677 0.930 . S
C661 N657 1.389 . S
C661 C660 1.351 . S
C661 H666 0.930 . S
O662 Cu656 1.974 . S
O662 C672 1.282 . S
C663 O664 1.261 . S
C663 O676 1.251 . S
O664 C663 1.261 . S
H665 C659 0.930 . S
H666 C661 0.930 . S
N667 Cu656 1.985 . S
N667 C669 1.335 . S
N667 C670 1.390 . S
N668 C669 1.345 . S
N668 C671 1.336 . S
C669 N667 1.335 . S
C669 N668 1.345 . S
C669 H674 0.930 . S
C670 N667 1.390 . S
C670 C671 1.346 . S
C670 H675 0.930 . S
C671 N668 1.336 . S
C671 C670 1.346 . S
C671 H678 0.929 . S
C672 O662 1.282 . S
C672 O673 1.216 . S
O673 C672 1.216 . S
H674 C669 0.930 . S
H675 C670 0.930 . S
O676 Cu656 1.959 . S
O676 C663 1.251 . S
H677 C660 0.930 . S
H678 C671 0.929 . S
Cu679 N680 1.999 . S
Cu679 O685 1.974 . S
Cu679 N690 1.985 . S
Cu679 O699 1.959 . S
N680 Cu679 1.999 . S
N680 C682 1.263 . S
N680 C684 1.389 . S
N681 C682 1.358 . S
N681 C683 1.400 . S
C682 N680 1.263 . S
C682 N681 1.358 . S
C682 H688 0.930 . S
C683 N681 1.400 . S
C683 C684 1.351 . S
C683 H700 0.930 . S
C684 N680 1.389 . S
C684 C683 1.351 . S
C684 H689 0.930 . S
O685 Cu679 1.974 . S
O685 C695 1.282 . S
C686 O687 1.261 . S
C686 O699 1.251 . S
O687 C686 1.261 . S
H688 C682 0.930 . S
H689 C684 0.930 . S
N690 Cu679 1.985 . S
N690 C692 1.335 . S
N690 C693 1.390 . S
N691 C692 1.345 . S
N691 C694 1.336 . S
C692 N690 1.335 . S
C692 N691 1.345 . S
C692 H697 0.930 . S
C693 N690 1.390 . S
C693 C694 1.346 . S
C693 H698 0.930 . S
C694 N691 1.336 . S
C694 C693 1.346 . S
C694 H701 0.929 . S
C695 O685 1.282 . S
C695 O696 1.216 . S
O696 C695 1.216 . S
H697 C692 0.930 . S
H698 C693 0.930 . S
O699 Cu679 1.959 . S
O699 C686 1.251 . S
H700 C683 0.930 . S
H701 C694 0.929 . S
Cu702 N703 1.999 . S
Cu702 O708 1.974 . S
Cu702 N713 1.985 . S
Cu702 O722 1.959 . S
N703 Cu702 1.999 . S
N703 C705 1.263 . S
N703 C707 1.389 . S
N704 C705 1.358 . S
N704 C706 1.400 . S
C705 N703 1.263 . S
C705 N704 1.358 . S
C705 H711 0.930 . S
C706 N704 1.400 . S
C706 C707 1.351 . S
C706 H723 0.930 . S
C707 N703 1.389 . S
C707 C706 1.351 . S
C707 H712 0.930 . S
O708 Cu702 1.974 . S
O708 C718 1.282 . S
C709 O710 1.261 . S
C709 O722 1.251 . S
O710 C709 1.261 . S
H711 C705 0.930 . S
H712 C707 0.930 . S
N713 Cu702 1.985 . S
N713 C715 1.335 . S
N713 C716 1.390 . S
N714 C715 1.345 . S
N714 C717 1.336 . S
C715 N713 1.335 . S
C715 N714 1.345 . S
C715 H720 0.930 . S
C716 N713 1.390 . S
C716 C717 1.346 . S
C716 H721 0.930 . S
C717 N714 1.336 . S
C717 C716 1.346 . S
C717 H724 0.929 . S
C718 O708 1.282 . S
C718 O719 1.216 . S
O719 C718 1.216 . S
H720 C715 0.930 . S
H721 C716 0.930 . S
O722 Cu702 1.959 . S
O722 C709 1.251 . S
H723 C706 0.930 . S
H724 C717 0.929 . S
Cu725 N726 1.999 . S
Cu725 O731 1.974 . S
Cu725 N736 1.985 . S
Cu725 O745 1.959 . S
N726 Cu725 1.999 . S
N726 C728 1.263 . S
N726 C730 1.389 . S
N727 C728 1.358 . S
N727 C729 1.400 . S
C728 N726 1.263 . S
C728 N727 1.358 . S
C728 H734 0.930 . S
C729 N727 1.400 . S
C729 C730 1.351 . S
C729 H746 0.930 . S
C730 N726 1.389 . S
C730 C729 1.351 . S
C730 H735 0.930 . S
O731 Cu725 1.974 . S
O731 C741 1.282 . S
C732 O733 1.261 . S
C732 O745 1.251 . S
O733 C732 1.261 . S
H734 C728 0.930 . S
H735 C730 0.930 . S
N736 Cu725 1.985 . S
N736 C738 1.335 . S
N736 C739 1.390 . S
N737 C738 1.345 . S
N737 C740 1.336 . S
C738 N736 1.335 . S
C738 N737 1.345 . S
C738 H743 0.930 . S
C739 N736 1.390 . S
C739 C740 1.346 . S
C739 H744 0.930 . S
C740 N737 1.336 . S
C740 C739 1.346 . S
C740 H747 0.929 . S
C741 O731 1.282 . S
C741 O742 1.216 . S
O742 C741 1.216 . S
H743 C738 0.930 . S
H744 C739 0.930 . S
O745 Cu725 1.959 . S
O745 C732 1.251 . S
H746 C729 0.930 . S
H747 C740 0.929 . S
Cu748 N749 1.999 . S
Cu748 O754 1.974 . S
Cu748 N759 1.985 . S
Cu748 O768 1.959 . S
N749 Cu748 1.999 . S
N749 C751 1.263 . S
N749 C753 1.389 . S
N750 C751 1.358 . S
N750 C752 1.400 . S
C751 N749 1.263 . S
C751 N750 1.358 . S
C751 H757 0.930 . S
C752 N750 1.400 . S
C752 C753 1.351 . S
C752 H769 0.930 . S
C753 N749 1.389 . S
C753 C752 1.351 . S
C753 H758 0.930 . S
O754 Cu748 1.974 . S
O754 C764 1.282 . S
C755 O756 1.261 . S
C755 O768 1.251 . S
O756 C755 1.261 . S
H757 C751 0.930 . S
H758 C753 0.930 . S
N759 Cu748 1.985 . S
N759 C761 1.335 . S
N759 C762 1.390 . S
N760 C761 1.345 . S
N760 C763 1.336 . S
C761 N759 1.335 . S
C761 N760 1.345 . S
C761 H766 0.930 . S
C762 N759 1.390 . S
C762 C763 1.346 . S
C762 H767 0.930 . S
C763 N760 1.336 . S
C763 C762 1.346 . S
C763 H770 0.929 . S
C764 O754 1.282 . S
C764 O765 1.216 . S
O765 C764 1.216 . S
H766 C761 0.930 . S
H767 C762 0.930 . S
O768 Cu748 1.959 . S
O768 C755 1.251 . S
H769 C752 0.930 . S
H770 C763 0.929 . S
Cu771 N772 1.999 . S
Cu771 O777 1.974 . S
Cu771 N782 1.985 . S
Cu771 O791 1.959 . S
N772 Cu771 1.999 . S
N772 C774 1.263 . S
N772 C776 1.389 . S
N773 C774 1.358 . S
N773 C775 1.400 . S
C774 N772 1.263 . S
C774 N773 1.358 . S
C774 H780 0.930 . S
C775 N773 1.400 . S
C775 C776 1.351 . S
C775 H792 0.930 . S
C776 N772 1.389 . S
C776 C775 1.351 . S
C776 H781 0.930 . S
O777 Cu771 1.974 . S
O777 C787 1.282 . S
C778 O779 1.261 . S
C778 O791 1.251 . S
O779 C778 1.261 . S
H780 C774 0.930 . S
H781 C776 0.930 . S
N782 Cu771 1.985 . S
N782 C784 1.335 . S
N782 C785 1.390 . S
N783 C784 1.345 . S
N783 C786 1.336 . S
C784 N782 1.335 . S
C784 N783 1.345 . S
C784 H789 0.930 . S
C785 N782 1.390 . S
C785 C786 1.346 . S
C785 H790 0.930 . S
C786 N783 1.336 . S
C786 C785 1.346 . S
C786 H793 0.929 . S
C787 O777 1.282 . S
C787 O788 1.216 . S
O788 C787 1.216 . S
H789 C784 0.930 . S
H790 C785 0.930 . S
O791 Cu771 1.959 . S
O791 C778 1.251 . S
H792 C775 0.930 . S
H793 C786 0.929 . S
Cu794 N795 1.999 . S
Cu794 O800 1.974 . S
Cu794 N805 1.985 . S
Cu794 O814 1.959 . S
N795 Cu794 1.999 . S
N795 C797 1.263 . S
N795 C799 1.389 . S
N796 C797 1.358 . S
N796 C798 1.400 . S
C797 N795 1.263 . S
C797 N796 1.358 . S
C797 H803 0.930 . S
C798 N796 1.400 . S
C798 C799 1.351 . S
C798 H815 0.930 . S
C799 N795 1.389 . S
C799 C798 1.351 . S
C799 H804 0.930 . S
O800 Cu794 1.974 . S
O800 C810 1.282 . S
C801 O802 1.261 . S
C801 O814 1.251 . S
O802 C801 1.261 . S
H803 C797 0.930 . S
H804 C799 0.930 . S
N805 Cu794 1.985 . S
N805 C807 1.335 . S
N805 C808 1.390 . S
N806 C807 1.345 . S
N806 C809 1.336 . S
C807 N805 1.335 . S
C807 N806 1.345 . S
C807 H812 0.930 . S
C808 N805 1.390 . S
C808 C809 1.346 . S
C808 H813 0.930 . S
C809 N806 1.336 . S
C809 C808 1.346 . S
C809 H816 0.929 . S
C810 O800 1.282 . S
C810 O811 1.216 . S
O811 C810 1.216 . S
H812 C807 0.930 . S
H813 C808 0.930 . S
O814 Cu794 1.959 . S
O814 C801 1.251 . S
H815 C798 0.930 . S
H816 C809 0.929 . S
Cu817 N818 1.999 . S
Cu817 O823 1.974 . S
Cu817 N828 1.985 . S
Cu817 O837 1.959 . S
N818 Cu817 1.999 . S
N818 C820 1.263 . S
N818 C822 1.389 . S
N819 C820 1.358 . S
N819 C821 1.400 . S
C820 N818 1.263 . S
C820 N819 1.358 . S
C820 H826 0.930 . S
C821 N819 1.400 . S
C821 C822 1.351 . S
C821 H838 0.930 . S
C822 N818 1.389 . S
C822 C821 1.351 . S
C822 H827 0.930 . S
O823 Cu817 1.974 . S
O823 C833 1.282 . S
C824 O825 1.261 . S
C824 O837 1.251 . S
O825 C824 1.261 . S
H826 C820 0.930 . S
H827 C822 0.930 . S
N828 Cu817 1.985 . S
N828 C830 1.335 . S
N828 C831 1.390 . S
N829 C830 1.345 . S
N829 C832 1.336 . S
C830 N828 1.335 . S
C830 N829 1.345 . S
C830 H835 0.930 . S
C831 N828 1.390 . S
C831 C832 1.346 . S
C831 H836 0.930 . S
C832 N829 1.336 . S
C832 C831 1.346 . S
C832 H839 0.929 . S
C833 O823 1.282 . S
C833 O834 1.216 . S
O834 C833 1.216 . S
H835 C830 0.930 . S
H836 C831 0.930 . S
O837 Cu817 1.959 . S
O837 C824 1.251 . S
H838 C821 0.930 . S
H839 C832 0.929 . S
C840 C841 1.387 . S
C840 H844 0.950 . S
C840 C849 1.390 . S
C841 C840 1.387 . S
C841 C843 1.387 . S
H842 C849 0.950 . S
C843 C841 1.387 . S
C843 C845 1.390 . S
C843 H847 0.950 . S
H844 C840 0.950 . S
C845 C843 1.390 . S
C845 C846 1.387 . S
C845 H848 0.950 . S
C846 C845 1.387 . S
C846 C849 1.387 . S
H847 C843 0.950 . S
H848 C845 0.950 . S
C849 C840 1.390 . S
C849 H842 0.950 . S
C849 C846 1.387 . S
C850 C851 1.387 . S
C850 H854 0.950 . S
C850 C859 1.390 . S
C851 C850 1.387 . S
C851 C853 1.387 . S
H852 C859 0.950 . S
C853 C851 1.387 . S
C853 C855 1.390 . S
C853 H857 0.950 . S
H854 C850 0.950 . S
C855 C853 1.390 . S
C855 C856 1.387 . S
C855 H858 0.950 . S
C856 C855 1.387 . S
C856 C859 1.387 . S
H857 C853 0.950 . S
H858 C855 0.950 . S
C859 C850 1.390 . S
C859 H852 0.950 . S
C859 C856 1.387 . S
C860 C861 1.387 . S
C860 H864 0.950 . S
C860 C869 1.390 . S
C861 C860 1.387 . S
C861 C863 1.387 . S
H862 C869 0.950 . S
C863 C861 1.387 . S
C863 C865 1.390 . S
C863 H867 0.950 . S
H864 C860 0.950 . S
C865 C863 1.390 . S
C865 C866 1.387 . S
C865 H868 0.950 . S
C866 C865 1.387 . S
C866 C869 1.387 . S
H867 C863 0.950 . S
H868 C865 0.950 . S
C869 C860 1.390 . S
C869 H862 0.950 . S
C869 C866 1.387 . S
C870 C871 1.387 . S
C870 H874 0.950 . S
C870 C879 1.390 . S
C871 C870 1.387 . S
C871 C873 1.387 . S
H872 C879 0.950 . S
C873 C871 1.387 . S
C873 C875 1.390 . S
C873 H877 0.950 . S
H874 C870 0.950 . S
C875 C873 1.390 . S
C875 C876 1.387 . S
C875 H878 0.950 . S
C876 C875 1.387 . S
C876 C879 1.387 . S
H877 C873 0.950 . S
H878 C875 0.950 . S
C879 C870 1.390 . S
C879 H872 0.950 . S
C879 C876 1.387 . S
C880 C881 1.387 . S
C880 H884 0.950 . S
C880 C889 1.390 . S
C881 C880 1.387 . S
C881 C883 1.387 . S
H882 C889 0.950 . S
C883 C881 1.387 . S
C883 C885 1.390 . S
C883 H887 0.950 . S
H884 C880 0.950 . S
C885 C883 1.390 . S
C885 C886 1.387 . S
C885 H888 0.950 . S
C886 C885 1.387 . S
C886 C889 1.387 . S
H887 C883 0.950 . S
H888 C885 0.950 . S
C889 C880 1.390 . S
C889 H882 0.950 . S
C889 C886 1.387 . S
C890 C891 1.387 . S
C890 H894 0.950 . S
C890 C899 1.390 . S
C891 C890 1.387 . S
C891 C893 1.387 . S
H892 C899 0.950 . S
C893 C891 1.387 . S
C893 C895 1.390 . S
C893 H897 0.950 . S
H894 C890 0.950 . S
C895 C893 1.390 . S
C895 C896 1.387 . S
C895 H898 0.950 . S
C896 C895 1.387 . S
C896 C899 1.387 . S
H897 C893 0.950 . S
H898 C895 0.950 . S
C899 C890 1.390 . S
C899 H892 0.950 . S
C899 C896 1.387 . S
C900 C901 1.387 . S
C900 H904 0.950 . S
C900 C909 1.390 . S
C901 C900 1.387 . S
C901 C903 1.387 . S
H902 C909 0.950 . S
C903 C901 1.387 . S
C903 C905 1.390 . S
C903 H907 0.950 . S
H904 C900 0.950 . S
C905 C903 1.390 . S
C905 C906 1.387 . S
C905 H908 0.950 . S
C906 C905 1.387 . S
C906 C909 1.387 . S
H907 C903 0.950 . S
H908 C905 0.950 . S
C909 C900 1.390 . S
C909 H902 0.950 . S
C909 C906 1.387 . S
C910 C911 1.387 . S
C910 H914 0.950 . S
C910 C919 1.390 . S
C911 C910 1.387 . S
C911 C913 1.387 . S
H912 C919 0.950 . S
C913 C911 1.387 . S
C913 C915 1.390 . S
C913 H917 0.950 . S
H914 C910 0.950 . S
C915 C913 1.390 . S
C915 C916 1.387 . S
C915 H918 0.950 . S
C916 C915 1.387 . S
C916 C919 1.387 . S
H917 C913 0.950 . S
H918 C915 0.950 . S
C919 C910 1.390 . S
C919 H912 0.950 . S
C919 C916 1.387 . S
C920 C921 1.387 . S
C920 H924 0.950 . S
C920 C929 1.390 . S
C921 C920 1.387 . S
C921 C923 1.387 . S
H922 C929 0.950 . S
C923 C921 1.387 . S
C923 C925 1.390 . S
C923 H927 0.950 . S
H924 C920 0.950 . S
C925 C923 1.390 . S
C925 C926 1.387 . S
C925 H928 0.950 . S
C926 C925 1.387 . S
C926 C929 1.387 . S
H927 C923 0.950 . S
H928 C925 0.950 . S
C929 C920 1.390 . S
C929 H922 0.950 . S
C929 C926 1.387 . S
C930 C931 1.387 . S
C930 H934 0.950 . S
C930 C939 1.390 . S
C931 C930 1.387 . S
C931 C933 1.387 . S
H932 C939 0.950 . S
C933 C931 1.387 . S
C933 C935 1.390 . S
C933 H937 0.950 . S
H934 C930 0.950 . S
C935 C933 1.390 . S
C935 C936 1.387 . S
C935 H938 0.950 . S
C936 C935 1.387 . S
C936 C939 1.387 . S
H937 C933 0.950 . S
H938 C935 0.950 . S
C939 C930 1.390 . S
C939 H932 0.950 . S
C939 C936 1.387 . S
C940 C941 1.387 . S
C940 H944 0.950 . S
C940 C949 1.390 . S
C941 C940 1.387 . S
C941 C943 1.387 . S
H942 C949 0.950 . S
C943 C941 1.387 . S
C943 C945 1.390 . S
C943 H947 0.950 . S
H944 C940 0.950 . S
C945 C943 1.390 . S
C945 C946 1.387 . S
C945 H948 0.950 . S
C946 C945 1.387 . S
C946 C949 1.387 . S
H947 C943 0.950 . S
H948 C945 0.950 . S
C949 C940 1.390 . S
C949 H942 0.950 . S
C949 C946 1.387 . S
C950 C951 1.387 . S
C950 H954 0.950 . S
C950 C959 1.390 . S
C951 C950 1.387 . S
C951 C953 1.387 . S
H952 C959 0.950 . S
C953 C951 1.387 . S
C953 C955 1.390 . S
C953 H957 0.950 . S
H954 C950 0.950 . S
C955 C953 1.390 . S
C955 C956 1.387 . S
C955 H958 0.950 . S
C956 C955 1.387 . S
C956 C959 1.387 . S
H957 C953 0.950 . S
H958 C955 0.950 . S
C959 C950 1.390 . S
C959 H952 0.950 . S
C959 C956 1.387 . S
C960 C961 1.387 . S
C960 H964 0.950 . S
C960 C969 1.390 . S
C961 C960 1.387 . S
C961 C963 1.387 . S
H962 C969 0.950 . S
C963 C961 1.387 . S
C963 C965 1.390 . S
C963 H967 0.950 . S
H964 C960 0.950 . S
C965 C963 1.390 . S
C965 C966 1.387 . S
C965 H968 0.950 . S
C966 C965 1.387 . S
C966 C969 1.387 . S
H967 C963 0.950 . S
H968 C965 0.950 . S
C969 C960 1.390 . S
C969 H962 0.950 . S
C969 C966 1.387 . S
C970 C971 1.387 . S
C970 H974 0.950 . S
C970 C979 1.390 . S
C971 C970 1.387 . S
C971 C973 1.387 . S
H972 C979 0.950 . S
C973 C971 1.387 . S
C973 C975 1.390 . S
C973 H977 0.950 . S
H974 C970 0.950 . S
C975 C973 1.390 . S
C975 C976 1.387 . S
C975 H978 0.950 . S
C976 C975 1.387 . S
C976 C979 1.387 . S
H977 C973 0.950 . S
H978 C975 0.950 . S
C979 C970 1.390 . S
C979 H972 0.950 . S
C979 C976 1.387 . S
C980 C981 1.387 . S
C980 H984 0.950 . S
C980 C989 1.390 . S
C981 C980 1.387 . S
C981 C983 1.387 . S
H982 C989 0.950 . S
C983 C981 1.387 . S
C983 C985 1.390 . S
C983 H987 0.950 . S
H984 C980 0.950 . S
C985 C983 1.390 . S
C985 C986 1.387 . S
C985 H988 0.950 . S
C986 C985 1.387 . S
C986 C989 1.387 . S
H987 C983 0.950 . S
H988 C985 0.950 . S
C989 C980 1.390 . S
C989 H982 0.950 . S
C989 C986 1.387 . S
C990 C991 1.387 . S
C990 H994 0.950 . S
C990 C999 1.390 . S
C991 C990 1.387 . S
C991 C993 1.387 . S
H992 C999 0.950 . S
C993 C991 1.387 . S
C993 C995 1.390 . S
C993 H997 0.950 . S
H994 C990 0.950 . S
C995 C993 1.390 . S
C995 C996 1.387 . S
C995 H998 0.950 . S
C996 C995 1.387 . S
C996 C999 1.387 . S
H997 C993 0.950 . S
H998 C995 0.950 . S
C999 C990 1.390 . S
C999 H992 0.950 . S
C999 C996 1.387 . S
C1000 C1001 1.387 . S
C1000 H1004 0.950 . S
C1000 C1009 1.390 . S
C1001 C1000 1.387 . S
C1001 C1003 1.387 . S
H1002 C1009 0.950 . S
C1003 C1001 1.387 . S
C1003 C1005 1.390 . S
C1003 H1007 0.950 . S
H1004 C1000 0.950 . S
C1005 C1003 1.390 . S
C1005 C1006 1.387 . S
C1005 H1008 0.950 . S
C1006 C1005 1.387 . S
C1006 C1009 1.387 . S
H1007 C1003 0.950 . S
H1008 C1005 0.950 . S
C1009 C1000 1.390 . S
C1009 H1002 0.950 . S
C1009 C1006 1.387 . S
C1010 C1011 1.387 . S
C1010 H1014 0.950 . S
C1010 C1019 1.390 . S
C1011 C1010 1.387 . S
C1011 C1013 1.387 . S
H1012 C1019 0.950 . S
C1013 C1011 1.387 . S
C1013 C1015 1.390 . S
C1013 H1017 0.950 . S
H1014 C1010 0.950 . S
C1015 C1013 1.390 . S
C1015 C1016 1.387 . S
C1015 H1018 0.950 . S
C1016 C1015 1.387 . S
C1016 C1019 1.387 . S
H1017 C1013 0.950 . S
H1018 C1015 0.950 . S
C1019 C1010 1.390 . S
C1019 H1012 0.950 . S
C1019 C1016 1.387 . S
C1020 C1021 1.387 . S
C1020 H1024 0.950 . S
C1020 C1029 1.390 . S
C1021 C1020 1.387 . S
C1021 C1023 1.387 . S
H1022 C1029 0.950 . S
C1023 C1021 1.387 . S
C1023 C1025 1.390 . S
C1023 H1027 0.950 . S
H1024 C1020 0.950 . S
C1025 C1023 1.390 . S
C1025 C1026 1.387 . S
C1025 H1028 0.950 . S
C1026 C1025 1.387 . S
C1026 C1029 1.387 . S
H1027 C1023 0.950 . S
H1028 C1025 0.950 . S
C1029 C1020 1.390 . S
C1029 H1022 0.950 . S
C1029 C1026 1.387 . S
C1030 C1031 1.387 . S
C1030 H1034 0.950 . S
C1030 C1039 1.390 . S
C1031 C1030 1.387 . S
C1031 C1033 1.387 . S
H1032 C1039 0.950 . S
C1033 C1031 1.387 . S
C1033 C1035 1.390 . S
C1033 H1037 0.950 . S
H1034 C1030 0.950 . S
C1035 C1033 1.390 . S
C1035 C1036 1.387 . S
C1035 H1038 0.950 . S
C1036 C1035 1.387 . S
C1036 C1039 1.387 . S
H1037 C1033 0.950 . S
H1038 C1035 0.950 . S
C1039 C1030 1.390 . S
C1039 H1032 0.950 . S
C1039 C1036 1.387 . S
C1040 C1041 1.387 . S
C1040 H1044 0.950 . S
C1040 C1049 1.390 . S
C1041 C1040 1.387 . S
C1041 C1043 1.387 . S
H1042 C1049 0.950 . S
C1043 C1041 1.387 . S
C1043 C1045 1.390 . S
C1043 H1047 0.950 . S
H1044 C1040 0.950 . S
C1045 C1043 1.390 . S
C1045 C1046 1.387 . S
C1045 H1048 0.950 . S
C1046 C1045 1.387 . S
C1046 C1049 1.387 . S
H1047 C1043 0.950 . S
H1048 C1045 0.950 . S
C1049 C1040 1.390 . S
C1049 H1042 0.950 . S
C1049 C1046 1.387 . S
C1050 C1051 1.387 . S
C1050 H1054 0.950 . S
C1050 C1059 1.390 . S
C1051 C1050 1.387 . S
C1051 C1053 1.387 . S
H1052 C1059 0.950 . S
C1053 C1051 1.387 . S
C1053 C1055 1.390 . S
C1053 H1057 0.950 . S
H1054 C1050 0.950 . S
C1055 C1053 1.390 . S
C1055 C1056 1.387 . S
C1055 H1058 0.950 . S
C1056 C1055 1.387 . S
C1056 C1059 1.387 . S
H1057 C1053 0.950 . S
H1058 C1055 0.950 . S
C1059 C1050 1.390 . S
C1059 H1052 0.950 . S
C1059 C1056 1.387 . S
C1060 C1061 1.387 . S
C1060 H1064 0.950 . S
C1060 C1069 1.390 . S
C1061 C1060 1.387 . S
C1061 C1063 1.387 . S
H1062 C1069 0.950 . S
C1063 C1061 1.387 . S
C1063 C1065 1.390 . S
C1063 H1067 0.950 . S
H1064 C1060 0.950 . S
C1065 C1063 1.390 . S
C1065 C1066 1.387 . S
C1065 H1068 0.950 . S
C1066 C1065 1.387 . S
C1066 C1069 1.387 . S
H1067 C1063 0.950 . S
H1068 C1065 0.950 . S
C1069 C1060 1.390 . S
C1069 H1062 0.950 . S
C1069 C1066 1.387 . S
C1070 C1071 1.387 . S
C1070 H1074 0.950 . S
C1070 C1079 1.390 . S
C1071 C1070 1.387 . S
C1071 C1073 1.387 . S
H1072 C1079 0.950 . S
C1073 C1071 1.387 . S
C1073 C1075 1.390 . S
C1073 H1077 0.950 . S
H1074 C1070 0.950 . S
C1075 C1073 1.390 . S
C1075 C1076 1.387 . S
C1075 H1078 0.950 . S
C1076 C1075 1.387 . S
C1076 C1079 1.387 . S
H1077 C1073 0.950 . S
H1078 C1075 0.950 . S
C1079 C1070 1.390 . S
C1079 H1072 0.950 . S
C1079 C1076 1.387 . S
C1080 C1081 1.387 . S
C1080 H1084 0.950 . S
C1080 C1089 1.390 . S
C1081 C1080 1.387 . S
C1081 C1083 1.387 . S
H1082 C1089 0.950 . S
C1083 C1081 1.387 . S
C1083 C1085 1.390 . S
C1083 H1087 0.950 . S
H1084 C1080 0.950 . S
C1085 C1083 1.390 . S
C1085 C1086 1.387 . S
C1085 H1088 0.950 . S
C1086 C1085 1.387 . S
C1086 C1089 1.387 . S
H1087 C1083 0.950 . S
H1088 C1085 0.950 . S
C1089 C1080 1.390 . S
C1089 H1082 0.950 . S
C1089 C1086 1.387 . S
C1090 C1091 1.387 . S
C1090 H1094 0.950 . S
C1090 C1099 1.390 . S
C1091 C1090 1.387 . S
C1091 C1093 1.387 . S
H1092 C1099 0.950 . S
C1093 C1091 1.387 . S
C1093 C1095 1.390 . S
C1093 H1097 0.950 . S
H1094 C1090 0.950 . S
C1095 C1093 1.390 . S
C1095 C1096 1.387 . S
C1095 H1098 0.950 . S
C1096 C1095 1.387 . S
C1096 C1099 1.387 . S
H1097 C1093 0.950 . S
H1098 C1095 0.950 . S
C1099 C1090 1.390 . S
C1099 H1092 0.950 . S
C1099 C1096 1.387 . S
C1100 C1101 1.387 . S
C1100 H1104 0.950 . S
C1100 C1109 1.390 . S
C1101 C1100 1.387 . S
C1101 C1103 1.387 . S
H1102 C1109 0.950 . S
C1103 C1101 1.387 . S
C1103 C1105 1.390 . S
C1103 H1107 0.950 . S
H1104 C1100 0.950 . S
C1105 C1103 1.390 . S
C1105 C1106 1.387 . S
C1105 H1108 0.950 . S
C1106 C1105 1.387 . S
C1106 C1109 1.387 . S
H1107 C1103 0.950 . S
H1108 C1105 0.950 . S
C1109 C1100 1.390 . S
C1109 H1102 0.950 . S
C1109 C1106 1.387 . S
C1110 C1111 1.387 . S
C1110 H1114 0.950 . S
C1110 C1119 1.390 . S
C1111 C1110 1.387 . S
C1111 C1113 1.387 . S
H1112 C1119 0.950 . S
C1113 C1111 1.387 . S
C1113 C1115 1.390 . S
C1113 H1117 0.950 . S
H1114 C1110 0.950 . S
C1115 C1113 1.390 . S
C1115 C1116 1.387 . S
C1115 H1118 0.950 . S
C1116 C1115 1.387 . S
C1116 C1119 1.387 . S
H1117 C1113 0.950 . S
H1118 C1115 0.950 . S
C1119 C1110 1.390 . S
C1119 H1112 0.950 . S
C1119 C1116 1.387 . S
C1120 C1121 1.387 . S
C1120 H1124 0.950 . S
C1120 C1129 1.390 . S
C1121 C1120 1.387 . S
C1121 C1123 1.387 . S
H1122 C1129 0.950 . S
C1123 C1121 1.387 . S
C1123 C1125 1.390 . S
C1123 H1127 0.950 . S
H1124 C1120 0.950 . S
C1125 C1123 1.390 . S
C1125 C1126 1.387 . S
C1125 H1128 0.950 . S
C1126 C1125 1.387 . S
C1126 C1129 1.387 . S
H1127 C1123 0.950 . S
H1128 C1125 0.950 . S
C1129 C1120 1.390 . S
C1129 H1122 0.950 . S
C1129 C1126 1.387 . S
C1130 C1131 1.387 . S
C1130 H1134 0.950 . S
C1130 C1139 1.390 . S
C1131 C1130 1.387 . S
C1131 C1133 1.387 . S
H1132 C1139 0.950 . S
C1133 C1131 1.387 . S
C1133 C1135 1.390 . S
C1133 H1137 0.950 . S
H1134 C1130 0.950 . S
C1135 C1133 1.390 . S
C1135 C1136 1.387 . S
C1135 H1138 0.950 . S
C1136 C1135 1.387 . S
C1136 C1139 1.387 . S
H1137 C1133 0.950 . S
H1138 C1135 0.950 . S
C1139 C1130 1.390 . S
C1139 H1132 0.950 . S
C1139 C1136 1.387 . S
C1140 C1141 1.387 . S
C1140 H1144 0.950 . S
C1140 C1149 1.390 . S
C1141 C1140 1.387 . S
C1141 C1143 1.387 . S
H1142 C1149 0.950 . S
C1143 C1141 1.387 . S
C1143 C1145 1.390 . S
C1143 H1147 0.950 . S
H1144 C1140 0.950 . S
C1145 C1143 1.390 . S
C1145 C1146 1.387 . S
C1145 H1148 0.950 . S
C1146 C1145 1.387 . S
C1146 C1149 1.387 . S
H1147 C1143 0.950 . S
H1148 C1145 0.950 . S
C1149 C1140 1.390 . S
C1149 H1142 0.950 . S
C1149 C1146 1.387 . S
C1150 C1151 1.387 . S
C1150 H1154 0.950 . S
C1150 C1159 1.390 . S
C1151 C1150 1.387 . S
C1151 C1153 1.387 . S
H1152 C1159 0.950 . S
C1153 C1151 1.387 . S
C1153 C1155 1.390 . S
C1153 H1157 0.950 . S
H1154 C1150 0.950 . S
C1155 C1153 1.390 . S
C1155 C1156 1.387 . S
C1155 H1158 0.950 . S
C1156 C1155 1.387 . S
C1156 C1159 1.387 . S
H1157 C1153 0.950 . S
H1158 C1155 0.950 . S
C1159 C1150 1.390 . S
C1159 H1152 0.950 . S
C1159 C1156 1.387 . S
C1160 C1161 1.387 . S
C1160 H1164 0.950 . S
C1160 C1169 1.390 . S
C1161 C1160 1.387 . S
C1161 C1163 1.387 . S
H1162 C1169 0.950 . S
C1163 C1161 1.387 . S
C1163 C1165 1.390 . S
C1163 H1167 0.950 . S
H1164 C1160 0.950 . S
C1165 C1163 1.390 . S
C1165 C1166 1.387 . S
C1165 H1168 0.950 . S
C1166 C1165 1.387 . S
C1166 C1169 1.387 . S
H1167 C1163 0.950 . S
H1168 C1165 0.950 . S
C1169 C1160 1.390 . S
C1169 H1162 0.950 . S
C1169 C1166 1.387 . S
C1170 C1171 1.387 . S
C1170 H1174 0.950 . S
C1170 C1179 1.390 . S
C1171 C1170 1.387 . S
C1171 C1173 1.387 . S
H1172 C1179 0.950 . S
C1173 C1171 1.387 . S
C1173 C1175 1.390 . S
C1173 H1177 0.950 . S
H1174 C1170 0.950 . S
C1175 C1173 1.390 . S
C1175 C1176 1.387 . S
C1175 H1178 0.950 . S
C1176 C1175 1.387 . S
C1176 C1179 1.387 . S
H1177 C1173 0.950 . S
H1178 C1175 0.950 . S
C1179 C1170 1.390 . S
C1179 H1172 0.950 . S
C1179 C1176 1.387 . S
C1180 C1181 1.387 . S
C1180 H1184 0.950 . S
C1180 C1189 1.390 . S
C1181 C1180 1.387 . S
C1181 C1183 1.387 . S
H1182 C1189 0.950 . S
C1183 C1181 1.387 . S
C1183 C1185 1.390 . S
C1183 H1187 0.950 . S
H1184 C1180 0.950 . S
C1185 C1183 1.390 . S
C1185 C1186 1.387 . S
C1185 H1188 0.950 . S
C1186 C1185 1.387 . S
C1186 C1189 1.387 . S
H1187 C1183 0.950 . S
H1188 C1185 0.950 . S
C1189 C1180 1.390 . S
C1189 H1182 0.950 . S
C1189 C1186 1.387 . S
C1190 C1191 1.387 . S
C1190 H1194 0.950 . S
C1190 C1199 1.390 . S
C1191 C1190 1.387 . S
C1191 C1193 1.387 . S
H1192 C1199 0.950 . S
C1193 C1191 1.387 . S
C1193 C1195 1.390 . S
C1193 H1197 0.950 . S
H1194 C1190 0.950 . S
C1195 C1193 1.390 . S
C1195 C1196 1.387 . S
C1195 H1198 0.950 . S
C1196 C1195 1.387 . S
C1196 C1199 1.387 . S
H1197 C1193 0.950 . S
H1198 C1195 0.950 . S
C1199 C1190 1.390 . S
C1199 H1192 0.950 . S
C1199 C1196 1.387 . S
C1200 C1201 1.387 . S
C1200 H1204 0.950 . S
C1200 C1209 1.390 . S
C1201 C1200 1.387 . S
C1201 C1203 1.387 . S
H1202 C1209 0.950 . S
C1203 C1201 1.387 . S
C1203 C1205 1.390 . S
C1203 H1207 0.950 . S
H1204 C1200 0.950 . S
C1205 C1203 1.390 . S
C1205 C1206 1.387 . S
C1205 H1208 0.950 . S
C1206 C1205 1.387 . S
C1206 C1209 1.387 . S
H1207 C1203 0.950 . S
H1208 C1205 0.950 . S
C1209 C1200 1.390 . S
C1209 H1202 0.950 . S
C1209 C1206 1.387 . S
C1210 C1211 1.387 . S
C1210 H1214 0.950 . S
C1210 C1219 1.390 . S
C1211 C1210 1.387 . S
C1211 C1213 1.387 . S
H1212 C1219 0.950 . S
C1213 C1211 1.387 . S
C1213 C1215 1.390 . S
C1213 H1217 0.950 . S
H1214 C1210 0.950 . S
C1215 C1213 1.390 . S
C1215 C1216 1.387 . S
C1215 H1218 0.950 . S
C1216 C1215 1.387 . S
C1216 C1219 1.387 . S
H1217 C1213 0.950 . S
H1218 C1215 0.950 . S
C1219 C1210 1.390 . S
C1219 H1212 0.950 . S
C1219 C1216 1.387 . S
C1220 C1221 1.387 . S
C1220 H1224 0.950 . S
C1220 C1229 1.390 . S
C1221 C1220 1.387 . S
C1221 C1223 1.387 . S
H1222 C1229 0.950 . S
C1223 C1221 1.387 . S
C1223 C1225 1.390 . S
C1223 H1227 0.950 . S
H1224 C1220 0.950 . S
C1225 C1223 1.390 . S
C1225 C1226 1.387 . S
C1225 H1228 0.950 . S
C1226 C1225 1.387 . S
C1226 C1229 1.387 . S
H1227 C1223 0.950 . S
H1228 C1225 0.950 . S
C1229 C1220 1.390 . S
C1229 H1222 0.950 . S
C1229 C1226 1.387 . S
C1230 C1231 1.387 . S
C1230 H1234 0.950 . S
C1230 C1239 1.390 . S
C1231 C1230 1.387 . S
C1231 C1233 1.387 . S
H1232 C1239 0.950 . S
C1233 C1231 1.387 . S
C1233 C1235 1.390 . S
C1233 H1237 0.950 . S
H1234 C1230 0.950 . S
C1235 C1233 1.390 . S
C1235 C1236 1.387 . S
C1235 H1238 0.950 . S
C1236 C1235 1.387 . S
C1236 C1239 1.387 . S
H1237 C1233 0.950 . S
H1238 C1235 0.950 . S
C1239 C1230 1.390 . S
C1239 H1232 0.950 . S
C1239 C1236 1.387 . S
C1240 C1241 1.387 . S
C1240 H1244 0.950 . S
C1240 C1249 1.390 . S
C1241 C1240 1.387 . S
C1241 C1243 1.387 . S
H1242 C1249 0.950 . S
C1243 C1241 1.387 . S
C1243 C1245 1.390 . S
C1243 H1247 0.950 . S
H1244 C1240 0.950 . S
C1245 C1243 1.390 . S
C1245 C1246 1.387 . S
C1245 H1248 0.950 . S
C1246 C1245 1.387 . S
C1246 C1249 1.387 . S
H1247 C1243 0.950 . S
H1248 C1245 0.950 . S
C1249 C1240 1.390 . S
C1249 H1242 0.950 . S
C1249 C1246 1.387 . S
C1250 C1251 1.387 . S
C1250 H1254 0.950 . S
C1250 C1259 1.390 . S
C1251 C1250 1.387 . S
C1251 C1253 1.387 . S
H1252 C1259 0.950 . S
C1253 C1251 1.387 . S
C1253 C1255 1.390 . S
C1253 H1257 0.950 . S
H1254 C1250 0.950 . S
C1255 C1253 1.390 . S
C1255 C1256 1.387 . S
C1255 H1258 0.950 . S
C1256 C1255 1.387 . S
C1256 C1259 1.387 . S
H1257 C1253 0.950 . S
H1258 C1255 0.950 . S
C1259 C1250 1.390 . S
C1259 H1252 0.950 . S
C1259 C1256 1.387 . S
C1260 C1261 1.387 . S
C1260 H1264 0.950 . S
C1260 C1269 1.390 . S
C1261 C1260 1.387 . S
C1261 C1263 1.387 . S
H1262 C1269 0.950 . S
C1263 C1261 1.387 . S
C1263 C1265 1.390 . S
C1263 H1267 0.950 . S
H1264 C1260 0.950 . S
C1265 C1263 1.390 . S
C1265 C1266 1.387 . S
C1265 H1268 0.950 . S
C1266 C1265 1.387 . S
C1266 C1269 1.387 . S
H1267 C1263 0.950 . S
H1268 C1265 0.950 . S
C1269 C1260 1.390 . S
C1269 H1262 0.950 . S
C1269 C1266 1.387 . S
C1270 C1271 1.387 . S
C1270 H1274 0.950 . S
C1270 C1279 1.390 . S
C1271 C1270 1.387 . S
C1271 C1273 1.387 . S
H1272 C1279 0.950 . S
C1273 C1271 1.387 . S
C1273 C1275 1.390 . S
C1273 H1277 0.950 . S
H1274 C1270 0.950 . S
C1275 C1273 1.390 . S
C1275 C1276 1.387 . S
C1275 H1278 0.950 . S
C1276 C1275 1.387 . S
C1276 C1279 1.387 . S
H1277 C1273 0.950 . S
H1278 C1275 0.950 . S
C1279 C1270 1.390 . S
C1279 H1272 0.950 . S
C1279 C1276 1.387 . S
C1280 C1281 1.387 . S
C1280 H1284 0.950 . S
C1280 C1289 1.390 . S
C1281 C1280 1.387 . S
C1281 C1283 1.387 . S
H1282 C1289 0.950 . S
C1283 C1281 1.387 . S
C1283 C1285 1.390 . S
C1283 H1287 0.950 . S
H1284 C1280 0.950 . S
C1285 C1283 1.390 . S
C1285 C1286 1.387 . S
C1285 H1288 0.950 . S
C1286 C1285 1.387 . S
C1286 C1289 1.387 . S
H1287 C1283 0.950 . S
H1288 C1285 0.950 . S
C1289 C1280 1.390 . S
C1289 H1282 0.950 . S
C1289 C1286 1.387 . S
C1290 C1291 1.387 . S
C1290 H1294 0.950 . S
C1290 C1299 1.390 . S
C1291 C1290 1.387 . S
C1291 C1293 1.387 . S
H1292 C1299 0.950 . S
C1293 C1291 1.387 . S
C1293 C1295 1.390 . S
C1293 H1297 0.950 . S
H1294 C1290 0.950 . S
C1295 C1293 1.390 . S
C1295 C1296 1.387 . S
C1295 H1298 0.950 . S
C1296 C1295 1.387 . S
C1296 C1299 1.387 . S
H1297 C1293 0.950 . S
H1298 C1295 0.950 . S
C1299 C1290 1.390 . S
C1299 H1292 0.950 . S
C1299 C1296 1.387 . S
C1300 C1301 1.387 . S
C1300 H1304 0.950 . S
C1300 C1309 1.390 . S
C1301 C1300 1.387 . S
C1301 C1303 1.387 . S
H1302 C1309 0.950 . S
C1303 C1301 1.387 . S
C1303 C1305 1.390 . S
C1303 H1307 0.950 . S
H1304 C1300 0.950 . S
C1305 C1303 1.390 . S
C1305 C1306 1.387 . S
C1305 H1308 0.950 . S
C1306 C1305 1.387 . S
C1306 C1309 1.387 . S
H1307 C1303 0.950 . S
H1308 C1305 0.950 . S
C1309 C1300 1.390 . S
C1309 H1302 0.950 . S
C1309 C1306 1.387 . S
C1310 C1311 1.387 . S
C1310 H1314 0.950 . S
C1310 C1319 1.390 . S
C1311 C1310 1.387 . S
C1311 C1313 1.387 . S
H1312 C1319 0.950 . S
C1313 C1311 1.387 . S
C1313 C1315 1.390 . S
C1313 H1317 0.950 . S
H1314 C1310 0.950 . S
C1315 C1313 1.390 . S
C1315 C1316 1.387 . S
C1315 H1318 0.950 . S
C1316 C1315 1.387 . S
C1316 C1319 1.387 . S
H1317 C1313 0.950 . S
H1318 C1315 0.950 . S
C1319 C1310 1.390 . S
C1319 H1312 0.950 . S
C1319 C1316 1.387 . S
C1320 C1321 1.387 . S
C1320 H1324 0.950 . S
C1320 C1329 1.390 . S
C1321 C1320 1.387 . S
C1321 C1323 1.387 . S
H1322 C1329 0.950 . S
C1323 C1321 1.387 . S
C1323 C1325 1.390 . S
C1323 H1327 0.950 . S
H1324 C1320 0.950 . S
C1325 C1323 1.390 . S
C1325 C1326 1.387 . S
C1325 H1328 0.950 . S
C1326 C1325 1.387 . S
C1326 C1329 1.387 . S
H1327 C1323 0.950 . S
H1328 C1325 0.950 . S
C1329 C1320 1.390 . S
C1329 H1322 0.950 . S
C1329 C1326 1.387 . S
C1330 C1331 1.387 . S
C1330 H1334 0.950 . S
C1330 C1339 1.390 . S
C1331 C1330 1.387 . S
C1331 C1333 1.387 . S
H1332 C1339 0.950 . S
C1333 C1331 1.387 . S
C1333 C1335 1.390 . S
C1333 H1337 0.950 . S
H1334 C1330 0.950 . S
C1335 C1333 1.390 . S
C1335 C1336 1.387 . S
C1335 H1338 0.950 . S
C1336 C1335 1.387 . S
C1336 C1339 1.387 . S
H1337 C1333 0.950 . S
H1338 C1335 0.950 . S
C1339 C1330 1.390 . S
C1339 H1332 0.950 . S
C1339 C1336 1.387 . S
C1340 C1341 1.387 . S
C1340 H1344 0.950 . S
C1340 C1349 1.390 . S
C1341 C1340 1.387 . S
C1341 C1343 1.387 . S
H1342 C1349 0.950 . S
C1343 C1341 1.387 . S
C1343 C1345 1.390 . S
C1343 H1347 0.950 . S
H1344 C1340 0.950 . S
C1345 C1343 1.390 . S
C1345 C1346 1.387 . S
C1345 H1348 0.950 . S
C1346 C1345 1.387 . S
C1346 C1349 1.387 . S
H1347 C1343 0.950 . S
H1348 C1345 0.950 . S
C1349 C1340 1.390 . S
C1349 H1342 0.950 . S
C1349 C1346 1.387 . S
C1350 C1351 1.387 . S
C1350 H1354 0.950 . S
C1350 C1359 1.390 . S
C1351 C1350 1.387 . S
C1351 C1353 1.387 . S
H1352 C1359 0.950 . S
C1353 C1351 1.387 . S
C1353 C1355 1.390 . S
C1353 H1357 0.950 . S
H1354 C1350 0.950 . S
C1355 C1353 1.390 . S
C1355 C1356 1.387 . S
C1355 H1358 0.950 . S
C1356 C1355 1.387 . S
C1356 C1359 1.387 . S
H1357 C1353 0.950 . S
H1358 C1355 0.950 . S
C1359 C1350 1.390 . S
C1359 H1352 0.950 . S
C1359 C1356 1.387 . S
C1360 C1361 1.387 . S
C1360 H1364 0.950 . S
C1360 C1369 1.390 . S
C1361 C1360 1.387 . S
C1361 C1363 1.387 . S
H1362 C1369 0.950 . S
C1363 C1361 1.387 . S
C1363 C1365 1.390 . S
C1363 H1367 0.950 . S
H1364 C1360 0.950 . S
C1365 C1363 1.390 . S
C1365 C1366 1.387 . S
C1365 H1368 0.950 . S
C1366 C1365 1.387 . S
C1366 C1369 1.387 . S
H1367 C1363 0.950 . S
H1368 C1365 0.950 . S
C1369 C1360 1.390 . S
C1369 H1362 0.950 . S
C1369 C1366 1.387 . S
C1370 C1371 1.387 . S
C1370 H1374 0.950 . S
C1370 C1379 1.390 . S
C1371 C1370 1.387 . S
C1371 C1373 1.387 . S
H1372 C1379 0.950 . S
C1373 C1371 1.387 . S
C1373 C1375 1.390 . S
C1373 H1377 0.950 . S
H1374 C1370 0.950 . S
C1375 C1373 1.390 . S
C1375 C1376 1.387 . S
C1375 H1378 0.950 . S
C1376 C1375 1.387 . S
C1376 C1379 1.387 . S
H1377 C1373 0.950 . S
H1378 C1375 0.950 . S
C1379 C1370 1.390 . S
C1379 H1372 0.950 . S
C1379 C1376 1.387 . S
C1380 C1381 1.387 . S
C1380 H1384 0.950 . S
C1380 C1389 1.390 . S
C1381 C1380 1.387 . S
C1381 C1383 1.387 . S
H1382 C1389 0.950 . S
C1383 C1381 1.387 . S
C1383 C1385 1.390 . S
C1383 H1387 0.950 . S
H1384 C1380 0.950 . S
C1385 C1383 1.390 . S
C1385 C1386 1.387 . S
C1385 H1388 0.950 . S
C1386 C1385 1.387 . S
C1386 C1389 1.387 . S
H1387 C1383 0.950 . S
H1388 C1385 0.950 . S
C1389 C1380 1.390 . S
C1389 H1382 0.950 . S
C1389 C1386 1.387 . S
C1390 C1391 1.387 . S
C1390 H1394 0.950 . S
C1390 C1399 1.390 . S
C1391 C1390 1.387 . S
C1391 C1393 1.387 . S
H1392 C1399 0.950 . S
C1393 C1391 1.387 . S
C1393 C1395 1.390 . S
C1393 H1397 0.950 . S
H1394 C1390 0.950 . S
C1395 C1393 1.390 . S
C1395 C1396 1.387 . S
C1395 H1398 0.950 . S
C1396 C1395 1.387 . S
C1396 C1399 1.387 . S
H1397 C1393 0.950 . S
H1398 C1395 0.950 . S
C1399 C1390 1.390 . S
C1399 H1392 0.950 . S
C1399 C1396 1.387 . S
C1400 C1401 1.387 . S
C1400 H1404 0.950 . S
C1400 C1409 1.390 . S
C1401 C1400 1.387 . S
C1401 C1403 1.387 . S
H1402 C1409 0.950 . S
C1403 C1401 1.387 . S
C1403 C1405 1.390 . S
C1403 H1407 0.950 . S
H1404 C1400 0.950 . S
C1405 C1403 1.390 . S
C1405 C1406 1.387 . S
C1405 H1408 0.950 . S
C1406 C1405 1.387 . S
C1406 C1409 1.387 . S
H1407 C1403 0.950 . S
H1408 C1405 0.950 . S
C1409 C1400 1.390 . S
C1409 H1402 0.950 . S
C1409 C1406 1.387 . S
C1410 C1411 1.387 . S
C1410 H1414 0.950 . S
C1410 C1419 1.390 . S
C1411 C1410 1.387 . S
C1411 C1413 1.387 . S
H1412 C1419 0.950 . S
C1413 C1411 1.387 . S
C1413 C1415 1.390 . S
C1413 H1417 0.950 . S
H1414 C1410 0.950 . S
C1415 C1413 1.390 . S
C1415 C1416 1.387 . S
C1415 H1418 0.950 . S
C1416 C1415 1.387 . S
C1416 C1419 1.387 . S
H1417 C1413 0.950 . S
H1418 C1415 0.950 . S
C1419 C1410 1.390 . S
C1419 H1412 0.950 . S
C1419 C1416 1.387 . S
C1420 C1421 1.387 . S
C1420 H1424 0.950 . S
C1420 C1429 1.390 . S
C1421 C1420 1.387 . S
C1421 C1423 1.387 . S
H1422 C1429 0.950 . S
C1423 C1421 1.387 . S
C1423 C1425 1.390 . S
C1423 H1427 0.950 . S
H1424 C1420 0.950 . S
C1425 C1423 1.390 . S
C1425 C1426 1.387 . S
C1425 H1428 0.950 . S
C1426 C1425 1.387 . S
C1426 C1429 1.387 . S
H1427 C1423 0.950 . S
H1428 C1425 0.950 . S
C1429 C1420 1.390 . S
C1429 H1422 0.950 . S
C1429 C1426 1.387 . S
C1430 C1431 1.387 . S
C1430 H1434 0.950 . S
C1430 C1439 1.390 . S
C1431 C1430 1.387 . S
C1431 C1433 1.387 . S
H1432 C1439 0.950 . S
C1433 C1431 1.387 . S
C1433 C1435 1.390 . S
C1433 H1437 0.950 . S
H1434 C1430 0.950 . S
C1435 C1433 1.390 . S
C1435 C1436 1.387 . S
C1435 H1438 0.950 . S
C1436 C1435 1.387 . S
C1436 C1439 1.387 . S
H1437 C1433 0.950 . S
H1438 C1435 0.950 . S
C1439 C1430 1.390 . S
C1439 H1432 0.950 . S
C1439 C1436 1.387 . S
C1440 C1441 1.387 . S
C1440 H1444 0.950 . S
C1440 C1449 1.390 . S
C1441 C1440 1.387 . S
C1441 C1443 1.387 . S
H1442 C1449 0.950 . S
C1443 C1441 1.387 . S
C1443 C1445 1.390 . S
C1443 H1447 0.950 . S
H1444 C1440 0.950 . S
C1445 C1443 1.390 . S
C1445 C1446 1.387 . S
C1445 H1448 0.950 . S
C1446 C1445 1.387 . S
C1446 C1449 1.387 . S
H1447 C1443 0.950 . S
H1448 C1445 0.950 . S
C1449 C1440 1.390 . S
C1449 H1442 0.950 . S
C1449 C1446 1.387 . S
C1450 C1451 1.387 . S
C1450 H1454 0.950 . S
C1450 C1459 1.390 . S
C1451 C1450 1.387 . S
C1451 C1453 1.387 . S
H1452 C1459 0.950 . S
C1453 C1451 1.387 . S
C1453 C1455 1.390 . S
C1453 H1457 0.950 . S
H1454 C1450 0.950 . S
C1455 C1453 1.390 . S
C1455 C1456 1.387 . S
C1455 H1458 0.950 . S
C1456 C1455 1.387 . S
C1456 C1459 1.387 . S
H1457 C1453 0.950 . S
H1458 C1455 0.950 . S
C1459 C1450 1.390 . S
C1459 H1452 0.950 . S
C1459 C1456 1.387 . S
C1460 C1461 1.387 . S
C1460 H1464 0.950 . S
C1460 C1469 1.390 . S
C1461 C1460 1.387 . S
C1461 C1463 1.387 . S
H1462 C1469 0.950 . S
C1463 C1461 1.387 . S
C1463 C1465 1.390 . S
C1463 H1467 0.950 . S
H1464 C1460 0.950 . S
C1465 C1463 1.390 . S
C1465 C1466 1.387 . S
C1465 H1468 0.950 . S
C1466 C1465 1.387 . S
C1466 C1469 1.387 . S
H1467 C1463 0.950 . S
H1468 C1465 0.950 . S
C1469 C1460 1.390 . S
C1469 H1462 0.950 . S
C1469 C1466 1.387 . S
C1470 C1471 1.387 . S
C1470 H1474 0.950 . S
C1470 C1479 1.390 . S
C1471 C1470 1.387 . S
C1471 C1473 1.387 . S
H1472 C1479 0.950 . S
C1473 C1471 1.387 . S
C1473 C1475 1.390 . S
C1473 H1477 0.950 . S
H1474 C1470 0.950 . S
C1475 C1473 1.390 . S
C1475 C1476 1.387 . S
C1475 H1478 0.950 . S
C1476 C1475 1.387 . S
C1476 C1479 1.387 . S
H1477 C1473 0.950 . S
H1478 C1475 0.950 . S
C1479 C1470 1.390 . S
C1479 H1472 0.950 . S
C1479 C1476 1.387 . S
C1480 C1481 1.387 . S
C1480 H1484 0.950 . S
C1480 C1489 1.390 . S
C1481 C1480 1.387 . S
C1481 C1483 1.387 . S
H1482 C1489 0.950 . S
C1483 C1481 1.387 . S
C1483 C1485 1.390 . S
C1483 H1487 0.950 . S
H1484 C1480 0.950 . S
C1485 C1483 1.390 . S
C1485 C1486 1.387 . S
C1485 H1488 0.950 . S
C1486 C1485 1.387 . S
C1486 C1489 1.387 . S
H1487 C1483 0.950 . S
H1488 C1485 0.950 . S
C1489 C1480 1.390 . S
C1489 H1482 0.950 . S
C1489 C1486 1.387 . S
C1490 C1491 1.387 . S
C1490 H1494 0.950 . S
C1490 C1499 1.390 . S
C1491 C1490 1.387 . S
C1491 C1493 1.387 . S
H1492 C1499 0.950 . S
C1493 C1491 1.387 . S
C1493 C1495 1.390 . S
C1493 H1497 0.950 . S
H1494 C1490 0.950 . S
C1495 C1493 1.390 . S
C1495 C1496 1.387 . S
C1495 H1498 0.950 . S
C1496 C1495 1.387 . S
C1496 C1499 1.387 . S
H1497 C1493 0.950 . S
H1498 C1495 0.950 . S
C1499 C1490 1.390 . S
C1499 H1492 0.950 . S
C1499 C1496 1.387 . S
C1500 C1501 1.387 . S
C1500 H1504 0.950 . S
C1500 C1509 1.390 . S
C1501 C1500 1.387 . S
C1501 C1503 1.387 . S
H1502 C1509 0.950 . S
C1503 C1501 1.387 . S
C1503 C1505 1.390 . S
C1503 H1507 0.950 . S
H1504 C1500 0.950 . S
C1505 C1503 1.390 . S
C1505 C1506 1.387 . S
C1505 H1508 0.950 . S
C1506 C1505 1.387 . S
C1506 C1509 1.387 . S
H1507 C1503 0.950 . S
H1508 C1505 0.950 . S
C1509 C1500 1.390 . S
C1509 H1502 0.950 . S
C1509 C1506 1.387 . S
C1510 C1511 1.387 . S
C1510 H1514 0.950 . S
C1510 C1519 1.390 . S
C1511 C1510 1.387 . S
C1511 C1513 1.387 . S
H1512 C1519 0.950 . S
C1513 C1511 1.387 . S
C1513 C1515 1.390 . S
C1513 H1517 0.950 . S
H1514 C1510 0.950 . S
C1515 C1513 1.390 . S
C1515 C1516 1.387 . S
C1515 H1518 0.950 . S
C1516 C1515 1.387 . S
C1516 C1519 1.387 . S
H1517 C1513 0.950 . S
H1518 C1515 0.950 . S
C1519 C1510 1.390 . S
C1519 H1512 0.950 . S
C1519 C1516 1.387 . S
C1520 C1521 1.387 . S
C1520 H1524 0.950 . S
C1520 C1529 1.390 . S
C1521 C1520 1.387 . S
C1521 C1523 1.387 . S
H1522 C1529 0.950 . S
C1523 C1521 1.387 . S
C1523 C1525 1.390 . S
C1523 H1527 0.950 . S
H1524 C1520 0.950 . S
C1525 C1523 1.390 . S
C1525 C1526 1.387 . S
C1525 H1528 0.950 . S
C1526 C1525 1.387 . S
C1526 C1529 1.387 . S
H1527 C1523 0.950 . S
H1528 C1525 0.950 . S
C1529 C1520 1.390 . S
C1529 H1522 0.950 . S
C1529 C1526 1.387 . S
C1530 C1531 1.387 . S
C1530 H1534 0.950 . S
C1530 C1539 1.390 . S
C1531 C1530 1.387 . S
C1531 C1533 1.387 . S
H1532 C1539 0.950 . S
C1533 C1531 1.387 . S
C1533 C1535 1.390 . S
C1533 H1537 0.950 . S
H1534 C1530 0.950 . S
C1535 C1533 1.390 . S
C1535 C1536 1.387 . S
C1535 H1538 0.950 . S
C1536 C1535 1.387 . S
C1536 C1539 1.387 . S
H1537 C1533 0.950 . S
H1538 C1535 0.950 . S
C1539 C1530 1.390 . S
C1539 H1532 0.950 . S
C1539 C1536 1.387 . S
C1540 C1541 1.387 . S
C1540 H1544 0.950 . S
C1540 C1549 1.390 . S
C1541 C1540 1.387 . S
C1541 C1543 1.387 . S
H1542 C1549 0.950 . S
C1543 C1541 1.387 . S
C1543 C1545 1.390 . S
C1543 H1547 0.950 . S
H1544 C1540 0.950 . S
C1545 C1543 1.390 . S
C1545 C1546 1.387 . S
C1545 H1548 0.950 . S
C1546 C1545 1.387 . S
C1546 C1549 1.387 . S
H1547 C1543 0.950 . S
H1548 C1545 0.950 . S
C1549 C1540 1.390 . S
C1549 H1542 0.950 . S
C1549 C1546 1.387 . S
C1550 C1551 1.387 . S
C1550 H1554 0.950 . S
C1550 C1559 1.390 . S
C1551 C1550 1.387 . S
C1551 C1553 1.387 . S
H1552 C1559 0.950 . S
C1553 C1551 1.387 . S
C1553 C1555 1.390 . S
C1553 H1557 0.950 . S
H1554 C1550 0.950 . S
C1555 C1553 1.390 . S
C1555 C1556 1.387 . S
C1555 H1558 0.950 . S
C1556 C1555 1.387 . S
C1556 C1559 1.387 . S
H1557 C1553 0.950 . S
H1558 C1555 0.950 . S
C1559 C1550 1.390 . S
C1559 H1552 0.950 . S
C1559 C1556 1.387 . S
C1560 C1561 1.387 . S
C1560 H1564 0.950 . S
C1560 C1569 1.390 . S
C1561 C1560 1.387 . S
C1561 C1563 1.387 . S
H1562 C1569 0.950 . S
C1563 C1561 1.387 . S
C1563 C1565 1.390 . S
C1563 H1567 0.950 . S
H1564 C1560 0.950 . S
C1565 C1563 1.390 . S
C1565 C1566 1.387 . S
C1565 H1568 0.950 . S
C1566 C1565 1.387 . S
C1566 C1569 1.387 . S
H1567 C1563 0.950 . S
H1568 C1565 0.950 . S
C1569 C1560 1.390 . S
C1569 H1562 0.950 . S
C1569 C1566 1.387 . S
C1570 C1571 1.387 . S
C1570 H1574 0.950 . S
C1570 C1579 1.390 . S
C1571 C1570 1.387 . S
C1571 C1573 1.387 . S
H1572 C1579 0.950 . S
C1573 C1571 1.387 . S
C1573 C1575 1.390 . S
C1573 H1577 0.950 . S
H1574 C1570 0.950 . S
C1575 C1573 1.390 . S
C1575 C1576 1.387 . S
C1575 H1578 0.950 . S
C1576 C1575 1.387 . S
C1576 C1579 1.387 . S
H1577 C1573 0.950 . S
H1578 C1575 0.950 . S
C1579 C1570 1.390 . S
C1579 H1572 0.950 . S
C1579 C1576 1.387 . S
C1580 C1581 1.387 . S
C1580 H1584 0.950 . S
C1580 C1589 1.390 . S
C1581 C1580 1.387 . S
C1581 C1583 1.387 . S
H1582 C1589 0.950 . S
C1583 C1581 1.387 . S
C1583 C1585 1.390 . S
C1583 H1587 0.950 . S
H1584 C1580 0.950 . S
C1585 C1583 1.390 . S
C1585 C1586 1.387 . S
C1585 H1588 0.950 . S
C1586 C1585 1.387 . S
C1586 C1589 1.387 . S
H1587 C1583 0.950 . S
H1588 C1585 0.950 . S
C1589 C1580 1.390 . S
C1589 H1582 0.950 . S
C1589 C1586 1.387 . S
C1590 C1591 1.387 . S
C1590 H1594 0.950 . S
C1590 C1599 1.390 . S
C1591 C1590 1.387 . S
C1591 C1593 1.387 . S
H1592 C1599 0.950 . S
C1593 C1591 1.387 . S
C1593 C1595 1.390 . S
C1593 H1597 0.950 . S
H1594 C1590 0.950 . S
C1595 C1593 1.390 . S
C1595 C1596 1.387 . S
C1595 H1598 0.950 . S
C1596 C1595 1.387 . S
C1596 C1599 1.387 . S
H1597 C1593 0.950 . S
H1598 C1595 0.950 . S
C1599 C1590 1.390 . S
C1599 H1592 0.950 . S
C1599 C1596 1.387 . S
C1600 C1601 1.387 . S
C1600 H1604 0.950 . S
C1600 C1609 1.390 . S
C1601 C1600 1.387 . S
C1601 C1603 1.387 . S
H1602 C1609 0.950 . S
C1603 C1601 1.387 . S
C1603 C1605 1.390 . S
C1603 H1607 0.950 . S
H1604 C1600 0.950 . S
C1605 C1603 1.390 . S
C1605 C1606 1.387 . S
C1605 H1608 0.950 . S
C1606 C1605 1.387 . S
C1606 C1609 1.387 . S
H1607 C1603 0.950 . S
H1608 C1605 0.950 . S
C1609 C1600 1.390 . S
C1609 H1602 0.950 . S
C1609 C1606 1.387 . S
C1610 C1611 1.387 . S
C1610 H1614 0.950 . S
C1610 C1619 1.390 . S
C1611 C1610 1.387 . S
C1611 C1613 1.387 . S
H1612 C1619 0.950 . S
C1613 C1611 1.387 . S
C1613 C1615 1.390 . S
C1613 H1617 0.950 . S
H1614 C1610 0.950 . S
C1615 C1613 1.390 . S
C1615 C1616 1.387 . S
C1615 H1618 0.950 . S
C1616 C1615 1.387 . S
C1616 C1619 1.387 . S
H1617 C1613 0.950 . S
H1618 C1615 0.950 . S
C1619 C1610 1.390 . S
C1619 H1612 0.950 . S
C1619 C1616 1.387 . S
C1620 C1621 1.387 . S
C1620 H1624 0.950 . S
C1620 C1629 1.390 . S
C1621 C1620 1.387 . S
C1621 C1623 1.387 . S
H1622 C1629 0.950 . S
C1623 C1621 1.387 . S
C1623 C1625 1.390 . S
C1623 H1627 0.950 . S
H1624 C1620 0.950 . S
C1625 C1623 1.390 . S
C1625 C1626 1.387 . S
C1625 H1628 0.950 . S
C1626 C1625 1.387 . S
C1626 C1629 1.387 . S
H1627 C1623 0.950 . S
H1628 C1625 0.950 . S
C1629 C1620 1.390 . S
C1629 H1622 0.950 . S
C1629 C1626 1.387 . S
C1630 C1631 1.387 . S
C1630 H1634 0.950 . S
C1630 C1639 1.390 . S
C1631 C1630 1.387 . S
C1631 C1633 1.387 . S
H1632 C1639 0.950 . S
C1633 C1631 1.387 . S
C1633 C1635 1.390 . S
C1633 H1637 0.950 . S
H1634 C1630 0.950 . S
C1635 C1633 1.390 . S
C1635 C1636 1.387 . S
C1635 H1638 0.950 . S
C1636 C1635 1.387 . S
C1636 C1639 1.387 . S
H1637 C1633 0.950 . S
H1638 C1635 0.950 . S
C1639 C1630 1.390 . S
C1639 H1632 0.950 . S
C1639 C1636 1.387 . S
C1640 C1641 1.387 . S
C1640 H1644 0.950 . S
C1640 C1649 1.390 . S
C1641 C1640 1.387 . S
C1641 C1643 1.387 . S
H1642 C1649 0.950 . S
C1643 C1641 1.387 . S
C1643 C1645 1.390 . S
C1643 H1647 0.950 . S
H1644 C1640 0.950 . S
C1645 C1643 1.390 . S
C1645 C1646 1.387 . S
C1645 H1648 0.950 . S
C1646 C1645 1.387 . S
C1646 C1649 1.387 . S
H1647 C1643 0.950 . S
H1648 C1645 0.950 . S
C1649 C1640 1.390 . S
C1649 H1642 0.950 . S
C1649 C1646 1.387 . S
C1650 C1651 1.387 . S
C1650 H1654 0.950 . S
C1650 C1659 1.390 . S
C1651 C1650 1.387 . S
C1651 C1653 1.387 . S
H1652 C1659 0.950 . S
C1653 C1651 1.387 . S
C1653 C1655 1.390 . S
C1653 H1657 0.950 . S
H1654 C1650 0.950 . S
C1655 C1653 1.390 . S
C1655 C1656 1.387 . S
C1655 H1658 0.950 . S
C1656 C1655 1.387 . S
C1656 C1659 1.387 . S
H1657 C1653 0.950 . S
H1658 C1655 0.950 . S
C1659 C1650 1.390 . S
C1659 H1652 0.950 . S
C1659 C1656 1.387 . S
C1660 C1661 1.387 . S
C1660 H1664 0.950 . S
C1660 C1669 1.390 . S
C1661 C1660 1.387 . S
C1661 C1663 1.387 . S
H1662 C1669 0.950 . S
C1663 C1661 1.387 . S
C1663 C1665 1.390 . S
C1663 H1667 0.950 . S
H1664 C1660 0.950 . S
C1665 C1663 1.390 . S
C1665 C1666 1.387 . S
C1665 H1668 0.950 . S
C1666 C1665 1.387 . S
C1666 C1669 1.387 . S
H1667 C1663 0.950 . S
H1668 C1665 0.950 . S
C1669 C1660 1.390 . S
C1669 H1662 0.950 . S
C1669 C1666 1.387 . S
C1670 C1671 1.387 . S
C1670 H1674 0.950 . S
C1670 C1679 1.390 . S
C1671 C1670 1.387 . S
C1671 C1673 1.387 . S
H1672 C1679 0.950 . S
C1673 C1671 1.387 . S
C1673 C1675 1.390 . S
C1673 H1677 0.950 . S
H1674 C1670 0.950 . S
C1675 C1673 1.390 . S
C1675 C1676 1.387 . S
C1675 H1678 0.950 . S
C1676 C1675 1.387 . S
C1676 C1679 1.387 . S
H1677 C1673 0.950 . S
H1678 C1675 0.950 . S
C1679 C1670 1.390 . S
C1679 H1672 0.950 . S
C1679 C1676 1.387 . S
C1680 C1681 1.387 . S
C1680 H1684 0.950 . S
C1680 C1689 1.390 . S
C1681 C1680 1.387 . S
C1681 C1683 1.387 . S
H1682 C1689 0.950 . S
C1683 C1681 1.387 . S
C1683 C1685 1.390 . S
C1683 H1687 0.950 . S
H1684 C1680 0.950 . S
C1685 C1683 1.390 . S
C1685 C1686 1.387 . S
C1685 H1688 0.950 . S
C1686 C1685 1.387 . S
C1686 C1689 1.387 . S
H1687 C1683 0.950 . S
H1688 C1685 0.950 . S
C1689 C1680 1.390 . S
C1689 H1682 0.950 . S
C1689 C1686 1.387 . S
C1690 C1691 1.387 . S
C1690 H1694 0.950 . S
C1690 C1699 1.390 . S
C1691 C1690 1.387 . S
C1691 C1693 1.387 . S
H1692 C1699 0.950 . S
C1693 C1691 1.387 . S
C1693 C1695 1.390 . S
C1693 H1697 0.950 . S
H1694 C1690 0.950 . S
C1695 C1693 1.390 . S
C1695 C1696 1.387 . S
C1695 H1698 0.950 . S
C1696 C1695 1.387 . S
C1696 C1699 1.387 . S
H1697 C1693 0.950 . S
H1698 C1695 0.950 . S
C1699 C1690 1.390 . S
C1699 H1692 0.950 . S
C1699 C1696 1.387 . S
C1700 C1701 1.387 . S
C1700 H1704 0.950 . S
C1700 C1709 1.390 . S
C1701 C1700 1.387 . S
C1701 C1703 1.387 . S
H1702 C1709 0.950 . S
C1703 C1701 1.387 . S
C1703 C1705 1.390 . S
C1703 H1707 0.950 . S
H1704 C1700 0.950 . S
C1705 C1703 1.390 . S
C1705 C1706 1.387 . S
C1705 H1708 0.950 . S
C1706 C1705 1.387 . S
C1706 C1709 1.387 . S
H1707 C1703 0.950 . S
H1708 C1705 0.950 . S
C1709 C1700 1.390 . S
C1709 H1702 0.950 . S
C1709 C1706 1.387 . S
C1710 C1711 1.387 . S
C1710 H1714 0.950 . S
C1710 C1719 1.390 . S
C1711 C1710 1.387 . S
C1711 C1713 1.387 . S
H1712 C1719 0.950 . S
C1713 C1711 1.387 . S
C1713 C1715 1.390 . S
C1713 H1717 0.950 . S
H1714 C1710 0.950 . S
C1715 C1713 1.390 . S
C1715 C1716 1.387 . S
C1715 H1718 0.950 . S
C1716 C1715 1.387 . S
C1716 C1719 1.387 . S
H1717 C1713 0.950 . S
H1718 C1715 0.950 . S
C1719 C1710 1.390 . S
C1719 H1712 0.950 . S
C1719 C1716 1.387 . S
C1720 C1721 1.387 . S
C1720 H1724 0.950 . S
C1720 C1729 1.390 . S
C1721 C1720 1.387 . S
C1721 C1723 1.387 . S
H1722 C1729 0.950 . S
C1723 C1721 1.387 . S
C1723 C1725 1.390 . S
C1723 H1727 0.950 . S
H1724 C1720 0.950 . S
C1725 C1723 1.390 . S
C1725 C1726 1.387 . S
C1725 H1728 0.950 . S
C1726 C1725 1.387 . S
C1726 C1729 1.387 . S
H1727 C1723 0.950 . S
H1728 C1725 0.950 . S
C1729 C1720 1.390 . S
C1729 H1722 0.950 . S
C1729 C1726 1.387 . S
C1730 C1731 1.387 . S
C1730 H1734 0.950 . S
C1730 C1739 1.390 . S
C1731 C1730 1.387 . S
C1731 C1733 1.387 . S
H1732 C1739 0.950 . S
C1733 C1731 1.387 . S
C1733 C1735 1.390 . S
C1733 H1737 0.950 . S
H1734 C1730 0.950 . S
C1735 C1733 1.390 . S
C1735 C1736 1.387 . S
C1735 H1738 0.950 . S
C1736 C1735 1.387 . S
C1736 C1739 1.387 . S
H1737 C1733 0.950 . S
H1738 C1735 0.950 . S
C1739 C1730 1.390 . S
C1739 H1732 0.950 . S
C1739 C1736 1.387 . S
C1740 C1741 1.387 . S
C1740 H1744 0.950 . S
C1740 C1749 1.390 . S
C1741 C1740 1.387 . S
C1741 C1743 1.387 . S
H1742 C1749 0.950 . S
C1743 C1741 1.387 . S
C1743 C1745 1.390 . S
C1743 H1747 0.950 . S
H1744 C1740 0.950 . S
C1745 C1743 1.390 . S
C1745 C1746 1.387 . S
C1745 H1748 0.950 . S
C1746 C1745 1.387 . S
C1746 C1749 1.387 . S
H1747 C1743 0.950 . S
H1748 C1745 0.950 . S
C1749 C1740 1.390 . S
C1749 H1742 0.950 . S
C1749 C1746 1.387 . S
C1750 C1751 1.387 . S
C1750 H1754 0.950 . S
C1750 C1759 1.390 . S
C1751 C1750 1.387 . S
C1751 C1753 1.387 . S
H1752 C1759 0.950 . S
C1753 C1751 1.387 . S
C1753 C1755 1.390 . S
C1753 H1757 0.950 . S
H1754 C1750 0.950 . S
C1755 C1753 1.390 . S
C1755 C1756 1.387 . S
C1755 H1758 0.950 . S
C1756 C1755 1.387 . S
C1756 C1759 1.387 . S
H1757 C1753 0.950 . S
H1758 C1755 0.950 . S
C1759 C1750 1.390 . S
C1759 H1752 0.950 . S
C1759 C1756 1.387 . S
C1760 C1761 1.387 . S
C1760 H1764 0.950 . S
C1760 C1769 1.390 . S
C1761 C1760 1.387 . S
C1761 C1763 1.387 . S
H1762 C1769 0.950 . S
C1763 C1761 1.387 . S
C1763 C1765 1.390 . S
C1763 H1767 0.950 . S
H1764 C1760 0.950 . S
C1765 C1763 1.390 . S
C1765 C1766 1.387 . S
C1765 H1768 0.950 . S
C1766 C1765 1.387 . S
C1766 C1769 1.387 . S
H1767 C1763 0.950 . S
H1768 C1765 0.950 . S
C1769 C1760 1.390 . S
C1769 H1762 0.950 . S
C1769 C1766 1.387 . S
C1770 C1771 1.387 . S
C1770 H1774 0.950 . S
C1770 C1779 1.390 . S
C1771 C1770 1.387 . S
C1771 C1773 1.387 . S
H1772 C1779 0.950 . S
C1773 C1771 1.387 . S
C1773 C1775 1.390 . S
C1773 H1777 0.950 . S
H1774 C1770 0.950 . S
C1775 C1773 1.390 . S
C1775 C1776 1.387 . S
C1775 H1778 0.950 . S
C1776 C1775 1.387 . S
C1776 C1779 1.387 . S
H1777 C1773 0.950 . S
H1778 C1775 0.950 . S
C1779 C1770 1.390 . S
C1779 H1772 0.950 . S
C1779 C1776 1.387 . S
C1780 C1781 1.387 . S
C1780 H1784 0.950 . S
C1780 C1789 1.390 . S
C1781 C1780 1.387 . S
C1781 C1783 1.387 . S
H1782 C1789 0.950 . S
C1783 C1781 1.387 . S
C1783 C1785 1.390 . S
C1783 H1787 0.950 . S
H1784 C1780 0.950 . S
C1785 C1783 1.390 . S
C1785 C1786 1.387 . S
C1785 H1788 0.950 . S
C1786 C1785 1.387 . S
C1786 C1789 1.387 . S
H1787 C1783 0.950 . S
H1788 C1785 0.950 . S
C1789 C1780 1.390 . S
C1789 H1782 0.950 . S
C1789 C1786 1.387 . S
C1790 C1791 1.387 . S
C1790 H1794 0.950 . S
C1790 C1799 1.390 . S
C1791 C1790 1.387 . S
C1791 C1793 1.387 . S
H1792 C1799 0.950 . S
C1793 C1791 1.387 . S
C1793 C1795 1.390 . S
C1793 H1797 0.950 . S
H1794 C1790 0.950 . S
C1795 C1793 1.390 . S
C1795 C1796 1.387 . S
C1795 H1798 0.950 . S
C1796 C1795 1.387 . S
C1796 C1799 1.387 . S
H1797 C1793 0.950 . S
H1798 C1795 0.950 . S
C1799 C1790 1.390 . S
C1799 H1792 0.950 . S
C1799 C1796 1.387 . S
C846 N300 1.470 . S
C841 C5 1.520 . S
C856 C327 1.612 . S
C851 C16 1.611 . S
C861 C23 1.535 . S
C866 C341 1.530 . S
C876 N359 1.456 . S
C871 C34 1.486 . S
C881 C43 1.581 . S
C886 C364 1.579 . S
C891 C50 1.519 . S
C896 C304 1.522 . S
C901 C58 1.436 . S
C906 N323 1.401 . S
C916 N336 1.458 . S
C911 C68 1.490 . S
C926 N382 1.417 . S
C921 C4 1.451 . S
C931 C13 1.552 . S
C936 N405 1.533 . S
C941 C25 1.565 . S
C946 N428 1.557 . S
C956 N461 1.416 . S
C951 C32 1.458 . S
C961 C41 1.562 . S
C966 C488 1.547 . S
C976 C511 1.589 . S
C971 C52 1.590 . S
C981 C61 1.511 . S
C986 C534 1.513 . S
C996 C548 1.445 . S
C991 C67 1.446 . S
C1001 C7 1.472 . S
C1006 C465 1.471 . S
C1011 C40 1.494 . S
C1016 N507 1.461 . S
C1026 N530 1.445 . S
C1021 C49 1.490 . S
C1031 C59 1.491 . S
C1036 N543 1.459 . S
C1046 N484 1.414 . S
C1041 C70 1.464 . S
C1056 C410 1.668 . S
C1051 C22 1.670 . S
C1061 C31 1.508 . S
C1066 C433 1.505 . S
C1076 C387 1.613 . S
C1071 C14 1.618 . S
C1086 C580 1.469 . S
C1081 C77 1.472 . S
C1091 C88 1.600 . S
C1096 C594 1.600 . S
C1101 C95 1.509 . S
C1106 N622 1.460 . S
C1116 N635 1.437 . S
C1111 C106 1.469 . S
C1121 C115 1.594 . S
C1126 C640 1.594 . S
C1131 C122 1.509 . S
C1136 N576 1.459 . S
C1141 C130 1.516 . S
C1146 N589 1.490 . S
C1151 C140 1.465 . S
C1156 C626 1.456 . S
C1166 N474 1.427 . S
C1161 C76 1.454 . S
C1171 C85 1.512 . S
C1176 N658 1.468 . S
C1186 N520 1.453 . S
C1181 C97 1.478 . S
C1191 C104 1.515 . S
C1196 C695 1.520 . S
C1201 C113 1.607 . S
C1206 C396 1.605 . S
C1216 C709 1.605 . S
C1211 C124 1.605 . S
C1221 C133 1.537 . S
C1226 C442 1.529 . S
C1236 N727 1.414 . S
C1231 C139 1.447 . S
C1241 C79 1.478 . S
C1246 N691 1.435 . S
C1256 N704 1.490 . S
C1251 C112 1.528 . S
C1261 C121 1.506 . S
C1266 N438 1.455 . S
C1276 C732 1.436 . S
C1271 C131 1.436 . S
C1281 C142 1.450 . S
C1286 N392 1.409 . S
C1291 C94 1.572 . S
C1296 C663 1.572 . S
C1301 C103 1.567 . S
C1306 C525 1.561 . S
C1311 C86 1.590 . S
C1316 C479 1.592 . S
C1321 C149 1.535 . S
C1326 C617 1.534 . S
C1336 C649 1.550 . S
C1331 C160 1.557 . S
C1341 C167 1.491 . S
C1346 N566 1.468 . S
C1351 C178 1.467 . S
C1356 N599 1.422 . S
C1361 C187 1.596 . S
C1366 C603 1.587 . S
C1371 C194 1.550 . S
C1376 N612 1.525 . S
C1386 N645 1.363 . S
C1381 C202 1.406 . S
C1391 C212 1.502 . S
C1396 C571 1.501 . S
C1406 N760 1.436 . S
C1401 C148 1.478 . S
C1411 C157 1.480 . S
C1416 N497 1.445 . S
C1426 N783 1.388 . S
C1421 C169 1.438 . S
C1431 C176 1.501 . S
C1436 N553 1.464 . S
C1441 C185 1.570 . S
C1446 C801 1.569 . S
C1451 C196 1.665 . S
C1456 C419 1.665 . S
C1466 N819 1.377 . S
C1461 C205 1.419 . S
C1471 C211 1.500 . S
C1476 C456 1.498 . S
C1486 C557 1.502 . S
C1481 C151 1.502 . S
C1496 N415 1.499 . S
C1491 C184 1.557 . S
C1501 C193 1.582 . S
C1506 C824 1.580 . S
C1511 C203 1.400 . S
C1516 N451 1.358 . S
C1526 N796 1.483 . S
C1521 C214 1.506 . S
C1536 C502 1.572 . S
C1531 C166 1.570 . S
C1546 C787 1.581 . S
C1541 C175 1.582 . S
C1556 C764 1.584 . S
C1551 C158 1.582 . S
C1561 C221 1.428 . S
C1566 N346 1.387 . S
C1571 C232 1.573 . S
C1576 C373 1.565 . S
C1586 C295 1.555 . S
C1581 C239 1.557 . S
C1596 N313 1.389 . S
C1591 C250 1.422 . S
C1606 C318 1.605 . S
C1601 C259 1.610 . S
C1616 C350 1.545 . S
C1611 C266 1.533 . S
C1626 N369 1.482 . S
C1621 C274 1.524 . S
C1631 C284 1.515 . S
C1636 N290 1.490 . S
C1641 C220 1.406 . S
C1646 N806 1.365 . S
C1656 N714 1.481 . S
C1651 C229 1.514 . S
C1666 C833 1.601 . S
C1661 C241 1.594 . S
C1676 C741 1.379 . S
C1671 C248 1.387 . S
C1681 C257 1.589 . S
C1686 C755 1.584 . S
C1696 C672 1.590 . S
C1691 C268 1.594 . S
C1706 C778 1.639 . S
C1701 C277 1.644 . S
C1711 C283 1.480 . S
C1716 N681 1.443 . S
C1726 N737 1.367 . S
C1721 C223 1.405 . S
C1736 N668 1.464 . S
C1731 C256 1.495 . S
C1746 N773 1.426 . S
C1741 C265 1.446 . S
C1751 C275 1.514 . S
C1756 C686 1.510 . S
C1761 C286 1.440 . S
C1766 N750 1.408 . S
C1771 C238 1.683 . S
C1776 C718 1.679 . S
C1781 C247 1.431 . S
C1786 N829 1.399 . S
C1796 C810 1.552 . S
C1791 C230 1.557 . S
