# Generated by pormake.
# Topology sqc, (4,8)-cn, num edge types: 1
# Building blocks:
#     Node 0, Type 0, BuildingBlock: MUDLON_clean_linker_0, # of connection points: 4
#     Node 1, Type 0, BuildingBlock: MUDLON_clean_linker_0, # of connection points: 4
#     Node 2, Type 0, BuildingBlock: MUDLON_clean_linker_0, # of connection points: 4
#     Node 3, Type 0, BuildingBlock: MUDLON_clean_linker_0, # of connection points: 4
#     Node 4, Type 0, BuildingBlock: MUDLON_clean_linker_0, # of connection points: 4
#     Node 5, Type 0, BuildingBlock: MUDLON_clean_linker_0, # of connection points: 4
#     Node 6, Type 0, BuildingBlock: MUDLON_clean_linker_0, # of connection points: 4
#     Node 7, Type 0, BuildingBlock: MUDLON_clean_linker_0, # of connection points: 4
#     Node 8, Type 1, BuildingBlock: TAGTUT_clean_sbu_3, # of connection points: 8
#     Node 9, Type 1, BuildingBlock: TAGTUT_clean_sbu_3, # of connection points: 8
#     Node 10, Type 1, BuildingBlock: TAGTUT_clean_sbu_3, # of connection points: 8
#     Node 11, Type 1, BuildingBlock: TAGTUT_clean_sbu_3, # of connection points: 8
#     Edge 12, Type (0, 1), None
#     Edge 13, Type (0, 1), None
#     Edge 14, Type (0, 1), None
#     Edge 15, Type (0, 1), None
#     Edge 16, Type (0, 1), None
#     Edge 17, Type (0, 1), None
#     Edge 18, Type (0, 1), None
#     Edge 19, Type (0, 1), None
#     Edge 20, Type (0, 1), None
#     Edge 21, Type (0, 1), None
#     Edge 22, Type (0, 1), None
#     Edge 23, Type (0, 1), None
#     Edge 24, Type (0, 1), None
#     Edge 25, Type (0, 1), None
#     Edge 26, Type (0, 1), None
#     Edge 27, Type (0, 1), None
#     Edge 28, Type (0, 1), None
#     Edge 29, Type (0, 1), None
#     Edge 30, Type (0, 1), None
#     Edge 31, Type (0, 1), None
#     Edge 32, Type (0, 1), None
#     Edge 33, Type (0, 1), None
#     Edge 34, Type (0, 1), None
#     Edge 35, Type (0, 1), None
#     Edge 36, Type (0, 1), None
#     Edge 37, Type (0, 1), None
#     Edge 38, Type (0, 1), None
#     Edge 39, Type (0, 1), None
#     Edge 40, Type (0, 1), None
#     Edge 41, Type (0, 1), None
#     Edge 42, Type (0, 1), None
#     Edge 43, Type (0, 1), None
# Relax obj value: 0.178
# Max RMSD: 0.284
# Mean RMSD: 0.214
data_MOF--net-sqc--node1-TAGTUT_clean_sbu_3--node2-MUDLON_clean_linker_0--edge1-none
_symmetry_space_group_name_H-M    P1
_symmetry_Int_Tables_number       1
_symmetry_cell_setting            triclinic
loop_
_symmetry_equiv_pos_as_xyz
'x, y, z'
_cell_length_a     19.814074
_cell_length_b     19.779332
_cell_length_c     50.642152
_cell_angle_alpha  90.99547
_cell_angle_beta   90.16603
_cell_angle_gamma 90.119387
loop_
_atom_site_label
_atom_site_type_symbol
_atom_site_fract_x
_atom_site_fract_y
_atom_site_fract_z
_atom_type_partial_charge
H0 H 0.71175 0.94856 0.62567 0.0
N1 N 0.75999 0.96874 0.57741 0.0
H2 H 0.67971 0.03509 0.65882 0.0
H3 H 0.74281 0.10375 0.56831 0.0
H4 H 0.71573 0.19074 0.60199 0.0
H5 H 0.79533 0.00265 0.52689 0.0
H6 H 0.75643 0.94511 0.48656 0.0
H7 H 0.64902 0.89222 0.57202 0.0
H8 H 0.60703 0.8375 0.53118 0.0
H9 H 0.83266 0.86077 0.59041 0.0
H10 H 0.85246 0.0666 0.565 0.0
H11 H 0.95579 0.8506 0.59202 0.0
H12 H 0.97443 0.05844 0.5679 0.0
H13 H 0.37511 0.89736 0.6133 0.0
H14 H 0.44669 0.97173 0.63995 0.0
H15 H 0.31442 0.13964 0.62376 0.0
H16 H 0.2444 0.06487 0.5958 0.0
H17 H 0.32746 0.01066 0.55136 0.0
H18 H 0.39226 0.97516 0.51268 0.0
H19 H 0.34086 0.7667 0.52722 0.0
H20 H 0.27786 0.80276 0.56679 0.0
H21 H 0.17446 0.87535 0.61866 0.0
H22 H 0.05158 0.88582 0.61665 0.0
H23 H 0.07076 0.01108 0.54791 0.0
N24 N 0.26527 0.92814 0.58646 0.0
H25 H 0.19348 0.00266 0.55095 0.0
C26 C 0.73056 0.0196 0.59465 0.0
C27 C 0.71093 0.00122 0.62017 0.0
C28 C 0.69321 0.05054 0.63911 0.0
C29 C 0.69668 0.11937 0.63302 0.0
C30 C 0.71381 0.13789 0.60721 0.0
C31 C 0.72929 0.08831 0.588 0.0
C32 C 0.7262 0.95071 0.55283 0.0
C33 C 0.75339 0.96783 0.52815 0.0
C34 C 0.73083 0.93511 0.50496 0.0
C35 C 0.67878 0.88674 0.50572 0.0
C36 C 0.64677 0.87501 0.52994 0.0
C37 C 0.6708 0.90619 0.5533 0.0
C38 C 0.8329 0.96444 0.57796 0.0
C39 C 0.86355 0.90391 0.58542 0.0
C40 C 0.93399 0.8985 0.58651 0.0
C41 C 0.97554 0.95392 0.58029 0.0
C42 C 0.94449 0.01442 0.57258 0.0
C43 C 0.87418 0.0195 0.57126 0.0
C44 C 0.30361 0.97463 0.60302 0.0
C45 C 0.36164 0.95022 0.61542 0.0
C46 C 0.40296 -0.00676 0.63036 0.0
C47 C 0.38652 0.06196 0.6339 0.0
C48 C 0.32854 0.08703 0.62133 0.0
C49 C 0.28797 0.04399 0.60562 0.0
C50 C 0.29829 0.9091 0.56209 0.0
C51 C 0.33028 0.95733 0.54633 0.0
C52 C 0.36779 0.93686 0.52435 0.0
C53 C 0.37252 0.86801 0.51721 0.0
C54 C 0.33853 0.82001 0.53241 0.0
C55 C 0.30225 0.84047 0.55483 0.0
C56 C 0.19311 0.9377 0.58496 0.0
C57 C 0.1519 0.90538 0.6033 0.0
C58 C 0.08162 0.91092 0.60192 0.0
C59 C 0.05073 0.94884 0.58196 0.0
C60 C 0.09243 0.98201 0.56373 0.0
C61 C 0.16283 0.97685 0.56529 0.0
H62 H 0.40019 0.34671 0.87711 0.0
N63 N 0.38335 0.42741 0.83584 0.0
H64 H 0.31442 0.31464 0.90979 0.0
H65 H 0.24448 0.43936 0.83028 0.0
H66 H 0.16139 0.41227 0.86347 0.0
H67 H 0.30105 0.38351 0.79508 0.0
H68 H 0.33709 0.34432 0.75158 0.0
H69 H 0.5087 0.41088 0.81842 0.0
H70 H 0.54574 0.37109 0.77468 0.0
H71 H 0.46059 0.5099 0.865 0.0
H72 H 0.30394 0.50904 0.80583 0.0
H73 H 0.46109 0.63325 0.86541 0.0
H74 H 0.29591 0.63012 0.80902 0.0
H75 H 0.43277 0.0475 0.85747 0.0
H76 H 0.36488 0.11855 0.88689 0.0
H77 H 0.19474 0.98418 0.87482 0.0
H78 H 0.26257 0.91481 0.84443 0.0
H79 H 0.30572 0.98293 0.79838 0.0
H80 H 0.33015 0.02688 0.75473 0.0
H81 H 0.54085 0.97692 0.76487 0.0
H82 H 0.51588 0.93382 0.8089 0.0
H83 H 0.42517 0.85563 0.87458 0.0
H84 H 0.415 0.73307 0.87734 0.0
H85 H 0.34104 0.72582 0.79668 0.0
N86 N 0.39736 0.93282 0.83338 0.0
H87 H 0.34267 0.84658 0.79561 0.0
C88 C 0.33007 0.39643 0.85118 0.0
C89 C 0.3478 0.3592 0.87356 0.0
C90 C 0.29899 0.34155 0.89234 0.0
C91 C 0.2318 0.36274 0.88941 0.0
C92 C 0.21324 0.39673 0.86646 0.0
C93 C 0.26133 0.41217 0.84731 0.0
C94 C 0.40223 0.3982 0.81052 0.0
C95 C 0.35446 0.38069 0.79102 0.0
C96 C 0.3754 0.35919 0.76585 0.0
C97 C 0.44458 0.35484 0.7594 0.0
C98 C 0.49217 0.37448 0.77869 0.0
C99 C 0.4711 0.3958 0.8039 0.0
C100 C 0.38137 0.50015 0.83595 0.0
C101 C 0.42514 0.53648 0.85263 0.0
C102 C 0.42443 0.60712 0.85307 0.0
C103 C 0.37816 0.64286 0.83737 0.0
C104 C 0.33358 0.6056 0.82099 0.0
C105 C 0.33672 0.53543 0.81964 0.0
C106 C 0.35365 0.97503 0.84938 0.0
C107 C 0.38059 0.03395 0.86094 0.0
C108 C 0.34143 0.07469 0.87758 0.0
C109 C 0.27447 0.05665 0.8834 0.0
C110 C 0.2463 -0.00088 0.87087 0.0
C111 C 0.28525 0.9591 0.85368 0.0
C112 C 0.40974 0.95756 0.80723 0.0
C113 C 0.35717 0.9817 0.79128 0.0
C114 C 0.37102 0.00567 0.76616 0.0
C115 C 0.4374 0.00527 0.75642 0.0
C116 C 0.48911 0.97718 0.77173 0.0
C117 C 0.47527 0.95377 0.797 0.0
C118 C 0.38615 0.86078 0.83486 0.0
C119 C 0.40549 0.82717 0.85778 0.0
C120 C 0.40056 0.75685 0.8591 0.0
C121 C 0.37815 0.71829 0.8371 0.0
C122 C 0.35727 0.75264 0.81437 0.0
C123 C 0.35942 0.82281 0.81352 0.0
H124 H 0.91729 0.04825 0.10542 0.0
N125 N 0.89258 0.97031 0.06122 0.0
H126 H 0.95274 0.00814 0.14827 0.0
H127 H 0.93451 0.8465 0.07281 0.0
H128 H 0.97058 0.80521 0.11611 0.0
H129 H 0.89019 0.94613 1.00987 0.0
H130 H 0.93341 0.01669 0.97446 0.0
H131 H 0.96427 0.09054 0.06776 0.0
H132 H 0.00696 0.16163 1.03225 0.0
H133 H 0.83807 0.09432 0.07219 0.0
H134 H 0.79151 0.88251 0.06118 0.0
H135 H 0.72011 0.11849 0.08055 0.0
H136 H 0.67304 0.90561 0.0712 0.0
H137 H 0.32923 0.13705 0.1269 0.0
H138 H 0.26869 0.07949 0.16217 0.0
H139 H 0.35387 0.88884 0.13617 0.0
H140 H 0.4122 0.94585 0.10071 0.0
H141 H 0.32746 -0.00886 0.06464 0.0
H142 H 0.28031 0.00363 1.0206 0.0
H143 H 0.37191 0.20171 1.01577 0.0
H144 H 0.4183 0.18898 0.06011 0.0
H145 H 0.51439 0.13341 0.11759 0.0
H146 H 0.63357 0.10342 0.11252 0.0
H147 H 0.57938 0.95838 0.05105 0.0
N148 N 0.41018 0.08254 0.09085 0.0
H149 H 0.46157 0.98533 0.05735 0.0
C150 C 0.92641 0.95108 0.08529 0.0
C151 C 0.9307 -0.0044 0.10717 0.0
C152 C 0.94912 0.97193 0.13203 0.0
C153 C 0.96373 0.90302 0.13589 0.0
C154 C 0.95862 0.85829 0.11408 0.0
C155 C 0.94011 0.88219 0.08913 0.0
C156 C 0.92542 0.01138 0.04158 0.0
C157 C 0.91578 -0.00696 1.01497 0.0
C158 C 0.93863 0.03436 0.99475 0.0
C159 C 0.97131 0.09598 1.00052 0.0
C160 C 0.97954 0.11576 1.02716 0.0
C161 C 0.95692 0.07387 0.04754 0.0
C162 C 0.823 0.98657 0.06544 0.0
C163 C 0.80238 0.05296 0.07148 0.0
C164 C 0.73498 0.06659 0.07672 0.0
C165 C 0.6874 0.01394 0.07656 0.0
C166 C 0.70844 0.94739 0.07099 0.0
C167 C 0.77576 0.93402 0.06531 0.0
C168 C 0.37509 0.0463 0.11113 0.0
C169 C 0.33478 0.08292 0.12889 0.0
C170 C 0.30091 0.05007 0.14911 0.0
C171 C 0.30749 0.97984 0.15211 0.0
C172 C 0.34907 0.94319 0.13469 0.0
C173 C 0.382 0.97589 0.11419 0.0
C174 C 0.37513 0.09022 0.06605 0.0
C175 C 0.33667 0.0377 0.05437 0.0
C176 C 0.31074 0.04436 1.02888 0.0
C177 C 0.32308 0.10326 1.01446 0.0
C178 C 0.36229 0.15516 1.02608 0.0
C179 C 0.38766 0.14868 0.05161 0.0
C180 C 0.47944 0.06276 0.08764 0.0
C181 C 0.52866 0.09492 0.1032 0.0
C182 C 0.59638 0.07798 0.10015 0.0
C183 C 0.61567 0.02892 0.08123 0.0
C184 C 0.56606 -0.00421 0.06601 0.0
C185 C 0.49854 0.01199 0.06934 0.0
H186 H 0.29799 0.58156 0.34597 0.0
N187 N 0.37466 0.55997 0.30175 0.0
H188 H 0.33782 0.61757 0.38937 0.0
H189 H 0.49934 0.60038 0.31511 0.0
H190 H 0.54012 0.63828 0.35892 0.0
H191 H 0.36571 0.53695 0.25012 0.0
H192 H 0.28079 0.57865 0.21933 0.0
H193 H 0.28445 0.66645 0.31167 0.0
H194 H 0.2013 0.71005 0.28039 0.0
H195 H 0.24765 0.51088 0.31047 0.0
H196 H 0.45578 0.45267 0.30084 0.0
H197 H 0.21682 0.39364 0.31847 0.0
H198 H 0.42578 0.33504 0.30969 0.0
H199 H 0.1995 0.00876 0.38001 0.0
H200 H 0.26319 0.94551 0.41281 0.0
H201 H 0.4495 0.02534 0.382 0.0
H202 H 0.38581 0.08699 0.34881 0.0
H203 H 0.33149 -0.00533 0.31424 0.0
H204 H 0.30134 0.92447 0.27586 0.0
H205 H 0.09659 -0.00113 0.28025 0.0
H206 H 0.12711 0.06817 0.31897 0.0
H207 H 0.20056 0.19528 0.36305 0.0
H208 H 0.23047 0.31176 0.35248 0.0
H209 H 0.36666 0.23768 0.29208 0.0
N210 N 0.24788 0.08221 0.34123 0.0
H211 H 0.33819 0.12177 0.30342 0.0
C212 C 0.3951 0.59063 0.32678 0.0
C213 C 0.35074 0.59446 0.34838 0.0
C214 C 0.37411 0.61394 0.37345 0.0
C215 C 0.4426 0.63034 0.37789 0.0
C216 C 0.48738 0.62505 0.35644 0.0
C217 C 0.46378 0.60521 0.33122 0.0
C218 C 0.33193 0.59713 0.28351 0.0
C219 C 0.33092 0.57566 0.25688 0.0
C220 C 0.28222 0.59941 0.23927 0.0
C221 C 0.23431 0.64744 0.24747 0.0
C222 C 0.2379 0.6732 0.27352 0.0
C223 C 0.28562 0.64774 0.29152 0.0
C224 C 0.35423 0.49041 0.30488 0.0
C225 C 0.28673 0.47273 0.30997 0.0
C226 C 0.26926 0.40567 0.31477 0.0
C227 C 0.31887 0.3549 0.31487 0.0
C228 C 0.38616 0.37265 0.30942 0.0
C229 C 0.40351 0.43975 0.30447 0.0
C230 C 0.28739 0.05253 0.36198 0.0
C231 C 0.25396 0.0134 0.38063 0.0
C232 C 0.29039 0.9775 0.39931 0.0
C233 C 0.36122 0.98078 0.39992 0.0
C234 C 0.39488 0.0227 0.38215 0.0
C235 C 0.35835 0.05777 0.36308 0.0
C236 C 0.2313 0.037 0.31946 0.0
C237 C 0.27986 -0.00492 0.30725 0.0
C238 C 0.26246 0.95462 0.28533 0.0
C239 C 0.19659 0.95607 0.27496 0.0
C240 C 0.14783 -0.00341 0.2877 0.0
C241 C 0.1651 0.03639 0.30975 0.0
C242 C 0.26654 0.14993 0.33401 0.0
C243 C 0.23679 0.20443 0.34753 0.0
C244 C 0.25363 0.27084 0.34131 0.0
C245 C 0.30069 0.28412 0.32129 0.0
C246 C 0.33069 0.22929 0.30775 0.0
C247 C 0.31397 0.16284 0.31407 0.0
H248 H 0.87917 0.85207 0.37883 0.0
N249 N 0.86734 0.93593 0.33841 0.0
H250 H 0.79041 0.81739 0.40965 0.0
H251 H 0.7287 0.95286 0.33199 0.0
H252 H 0.64242 0.92299 0.36356 0.0
H253 H 0.78827 0.89023 0.29717 0.0
H254 H 0.82735 0.85154 0.25404 0.0
H255 H -0.00576 0.91775 0.32272 0.0
H256 H 0.0344 0.87753 0.2794 0.0
H257 H 0.94268 0.02071 0.36741 0.0
H258 H 0.79153 0.01496 0.30604 0.0
H259 H 0.94581 0.14396 0.36523 0.0
H260 H 0.7858 0.13608 0.30665 0.0
H261 H 0.91666 0.55668 0.34893 0.0
H262 H 0.84751 0.62609 0.37848 0.0
H263 H 0.68099 0.48674 0.36729 0.0
H264 H 0.75001 0.41905 0.33677 0.0
H265 H 0.79066 0.48447 0.29041 0.0
H266 H 0.81385 0.52808 0.24654 0.0
H267 H 0.02563 0.48298 0.25678 0.0
H268 H 0.00206 0.44099 0.30098 0.0
H269 H 0.90944 0.36854 0.36895 0.0
H270 H 0.89963 0.24653 0.37417 0.0
H271 H 0.83679 0.22717 0.29233 0.0
N272 N 0.88434 0.43978 0.32584 0.0
H273 H 0.83779 0.34735 0.28859 0.0
C274 C 0.81209 0.90613 0.35308 0.0
C275 C 0.82736 0.8662 0.37495 0.0
C276 C 0.77673 0.84703 0.39269 0.0
C277 C 0.70992 0.86917 0.38931 0.0
C278 C 0.69387 0.90678 0.36697 0.0
C279 C 0.74389 0.92383 0.34877 0.0
C280 C 0.8883 0.90507 0.31364 0.0
C281 C 0.84198 0.88724 0.29368 0.0
C282 C 0.86471 0.86605 0.26875 0.0
C283 C 0.93434 0.86192 0.26301 0.0
C284 C 0.98059 0.88104 0.28286 0.0
C285 C 0.95769 0.90243 0.30783 0.0
C286 C 0.86579 0.00858 0.3375 0.0
C287 C 0.90881 0.04623 0.35405 0.0
C288 C 0.90974 0.11677 0.35296 0.0
C289 C 0.8659 0.15099 0.33577 0.0
C290 C 0.82179 0.11253 0.31967 0.0
C291 C 0.82345 0.04241 0.31984 0.0
C292 C 0.83944 0.48186 0.34134 0.0
C293 C 0.8649 0.54183 0.35256 0.0
C294 C 0.82501 0.58161 0.36927 0.0
C295 C 0.7589 0.56145 0.37549 0.0
C296 C 0.73191 0.50326 0.36304 0.0
C297 C 0.77154 0.46421 0.3458 0.0
C298 C 0.89547 0.46248 0.29933 0.0
C299 C 0.84204 0.4841 0.28322 0.0
C300 C 0.85512 0.50762 0.25796 0.0
C301 C 0.9215 0.50892 0.24827 0.0
C302 C 0.97385 0.48194 0.26358 0.0
C303 C 0.96084 0.45932 0.28899 0.0
C304 C 0.87529 0.3677 0.32844 0.0
C305 C 0.8923 0.33757 0.35239 0.0
C306 C 0.88755 0.26761 0.35517 0.0
C307 C 0.86772 0.22597 0.33366 0.0
C308 C 0.85042 0.25668 0.30971 0.0
C309 C 0.85228 0.32647 0.30735 0.0
H310 H 0.81381 0.08743 0.84754 0.0
N311 N 0.89073 0.07826 0.80264 0.0
H312 H 0.85213 0.12345 0.89142 0.0
H313 H 0.01197 0.12568 0.81638 0.0
H314 H 0.05143 0.16067 0.8606 0.0
H315 H 0.89881 0.07414 0.75044 0.0
H316 H 0.81203 0.10647 0.71847 0.0
H317 H 0.7785 0.15843 0.81372 0.0
H318 H 0.6931 0.19274 0.78157 0.0
H319 H 0.77186 0.01236 0.81165 0.0
H320 H 0.98351 0.9831 0.79592 0.0
H321 H 0.75532 0.88997 0.81309 0.0
H322 H 0.96825 0.86074 0.79825 0.0
H323 H 0.76702 0.52323 0.85355 0.0
H324 H 0.80461 0.46824 0.89403 0.0
H325 H 0.00937 0.53204 0.87865 0.0
H326 H 0.97149 0.58467 0.83782 0.0
H327 H 0.89044 0.46507 0.7939 0.0
H328 H 0.82895 0.39265 0.76282 0.0
H329 H 0.65335 0.52091 0.77134 0.0
H330 H 0.7155 0.59193 0.80343 0.0
H331 H 0.77559 0.6713 0.84455 0.0
H332 H 0.78185 0.79444 0.84015 0.0
H333 H 0.91859 0.76827 0.77432 0.0
N334 N 0.84872 0.57875 0.81669 0.0
H335 H 0.91396 0.64577 0.77978 0.0
C336 C 0.90911 0.10709 0.82817 0.0
C337 C 0.86529 0.10475 0.84995 0.0
C338 C 0.8879 0.12366 0.87528 0.0
C339 C 0.95528 0.144 0.87971 0.0
C340 C -0.00035 0.14405 0.85809 0.0
C341 C 0.97667 0.12594 0.83266 0.0
C342 C 0.84608 0.11341 0.78465 0.0
C343 C 0.85501 0.10178 0.75739 0.0
C344 C 0.80534 0.11994 0.73912 0.0
C345 C 0.74617 0.15223 0.74757 0.0
C346 C 0.73875 0.16838 0.77457 0.0
C347 C 0.78786 0.14859 0.79303 0.0
C348 C 0.87907 0.00649 0.80345 0.0
C349 C 0.81479 0.97948 0.80855 0.0
C350 C 0.80549 0.90954 0.80952 0.0
C351 C 0.86036 0.86554 0.80563 0.0
C352 C 0.9246 0.89305 0.80076 0.0
C353 C 0.93366 0.96282 0.7996 0.0
C354 C 0.86706 0.55634 0.84254 0.0
C355 C 0.81973 0.52605 0.85917 0.0
C356 C 0.84124 0.49503 0.88228 0.0
C357 C 0.90999 0.49547 0.88932 0.0
C358 C 0.95609 0.53113 0.87379 0.0
C359 C 0.93473 0.56081 0.85044 0.0
C360 C 0.80818 0.53446 0.80034 0.0
C361 C 0.83836 0.4768 0.78933 0.0
C362 C 0.80283 0.43541 0.77165 0.0
C363 C 0.73636 0.45156 0.76421 0.0
C364 C 0.7046 0.50738 0.77648 0.0
C365 C 0.74015 0.54828 0.79465 0.0
C366 C 0.84517 0.65019 0.81266 0.0
C367 C 0.80643 0.69249 0.82913 0.0
C368 C 0.80983 0.76265 0.82645 0.0
C369 C 0.8515 0.79121 0.80709 0.0
C370 C 0.88735 0.74806 0.78983 0.0
C371 C 0.88437 0.67822 0.79271 0.0
H372 H 0.21313 0.54901 1.03331 0.0
N373 N 0.26353 0.49349 0.07858 0.0
H374 H 0.17853 0.48453 0.99318 0.0
H375 H 0.23653 0.36258 0.07493 0.0
H376 H 0.20296 0.29847 1.0352 0.0
H377 H 0.17919 0.47322 0.11885 0.0
H378 H 0.14519 0.55615 0.15305 0.0
H379 H 0.27958 0.63168 0.07658 0.0
H380 H 0.25023 0.71277 0.11153 0.0
H381 H 0.3336 0.56882 0.04355 0.0
H382 H 0.35551 0.42394 0.10541 0.0
H383 H 0.45525 0.57798 0.03989 0.0
H384 H 0.47825 0.42754 0.10038 0.0
H385 H 0.86328 0.58541 1.0298 0.0
H386 H 0.93349 0.51747 1.0006 0.0
H387 H 0.82322 0.33784 1.02225 0.0
H388 H 0.75468 0.407 0.05293 0.0
H389 H 0.83955 0.46942 0.09427 0.0
H390 H 0.91041 0.51218 0.13046 0.0
H391 H 0.84133 0.71519 0.11592 0.0
H392 H 0.77264 0.67216 0.0787 0.0
H393 H 0.67288 0.55044 1.0224 0.0
H394 H 0.55216 0.52976 1.02535 0.0
H395 H 0.57467 0.48896 0.10862 0.0
N396 N 0.76466 0.54501 0.06055 0.0
H397 H 0.69603 0.50338 0.10475 0.0
C398 C 0.22695 0.46046 0.05724 0.0
C399 C 0.20867 0.49453 1.03409 0.0
C400 C 0.18912 0.45773 1.01119 0.0
C401 C 0.1881 0.38658 1.01119 0.0
C402 C 0.20287 0.35324 1.03474 0.0
C403 C 0.22161 0.38978 0.05749 0.0
C404 C 0.23257 0.5453 0.09511 0.0
C405 C 0.19302 0.52582 0.11667 0.0
C406 C 0.1743 0.57307 0.13635 0.0
C407 C 0.19662 0.64049 0.13525 0.0
C408 C 0.23366 0.66077 0.11315 0.0
C409 C 0.25019 0.61413 0.09302 0.0
C410 C 0.33565 0.49684 0.07523 0.0
C411 C 0.36486 0.53856 0.05627 0.0
C412 C 0.43489 0.54277 0.05392 0.0
C413 C 0.47758 0.50343 0.06981 0.0
C414 C 0.44768 0.45991 0.0882 0.0
C415 C 0.37748 0.4572 0.091 0.0
C416 C 0.80319 0.50179 0.04306 0.0
C417 C 0.85452 0.53138 1.02837 0.0
C418 C 0.89499 0.49208 1.01192 0.0
C419 C 0.88412 0.42195 1.0092 0.0
C420 C 0.83277 0.39167 1.02403 0.0
C421 C 0.79326 0.4312 0.04129 0.0
C422 C 0.80124 0.56793 0.08369 0.0
C423 C 0.83998 0.52314 0.09873 0.0
C424 C 0.88094 0.54773 0.1192 0.0
C425 C 0.88222 0.61713 0.12559 0.0
C426 C 0.84175 0.66158 0.11115 0.0
C427 C 0.80215 0.63712 0.09016 0.0
C428 C 0.69372 0.52946 0.06327 0.0
C429 C 0.65168 0.53617 0.04119 0.0
C430 C 0.58233 0.52512 0.04307 0.0
C431 C 0.5526 0.50901 0.06739 0.0
C432 C 0.59519 0.50066 0.08946 0.0
C433 C 0.66505 0.5098 0.08735 0.0
H434 H 0.41994 0.53516 0.60455 0.0
N435 N 0.39303 0.4579 0.56041 0.0
H436 H 0.4561 0.49418 0.6472 0.0
H437 H 0.43378 0.33355 0.57158 0.0
H438 H 0.47118 0.29145 0.61456 0.0
H439 H 0.3957 0.42781 0.50951 0.0
H440 H 0.43726 0.49703 0.47339 0.0
H441 H 0.4608 0.58033 0.56585 0.0
H442 H 0.50105 0.65054 0.5296 0.0
H443 H 0.34013 0.58191 0.57281 0.0
H444 H 0.2905 0.37199 0.55839 0.0
H445 H 0.22181 0.60817 0.57901 0.0
H446 H 0.17135 0.3971 0.56623 0.0
H447 H 0.82465 0.62529 0.61715 0.0
H448 H 0.7647 0.56495 0.65179 0.0
H449 H 0.85416 0.37713 0.62481 0.0
H450 H 0.91214 0.43706 0.58995 0.0
H451 H 0.83186 0.48182 0.55337 0.0
H452 H 0.78455 0.49663 0.50958 0.0
H453 H 0.86787 0.69883 0.50777 0.0
H454 H 0.91498 0.68347 0.55192 0.0
H455 H 0.00927 0.62388 0.6107 0.0
H456 H 0.12881 0.59312 0.60824 0.0
H457 H 0.08352 0.45386 0.54373 0.0
N458 N 0.90881 0.57446 0.58145 0.0
H459 H 0.96525 0.48147 0.54735 0.0
C460 C 0.42691 0.43798 0.58433 0.0
C461 C 0.43252 0.48228 0.60622 0.0
C462 C 0.45152 0.45814 0.63094 0.0
C463 C 0.46571 0.38903 0.63459 0.0
C464 C 0.45948 0.34463 0.61273 0.0
C465 C 0.44017 0.36896 0.58795 0.0
C466 C 0.42639 0.4975 0.5405 0.0
C467 C 0.41914 0.47614 0.5141 0.0
C468 C 0.44107 0.51657 0.49346 0.0
C469 C 0.47009 0.58033 0.49859 0.0
C470 C 0.47646 0.60278 0.525 0.0
C471 C 0.45515 0.56164 0.5458 0.0
C472 C 0.32363 0.47499 0.56447 0.0
C473 C 0.30377 0.54135 0.57098 0.0
C474 C 0.23606 0.55619 0.57496 0.0
C475 C 0.18737 0.50474 0.57302 0.0
C476 C 0.2077 0.43803 0.56732 0.0
C477 C 0.27539 0.42348 0.56292 0.0
C478 C 0.87285 0.53628 0.60097 0.0
C479 C 0.83104 0.57114 0.61872 0.0
C480 C 0.79738 0.53664 0.63855 0.0
C481 C 0.80556 0.46643 0.64117 0.0
C482 C 0.84796 0.43139 0.62357 0.0
C483 C 0.88078 0.46577 0.60346 0.0
C484 C 0.87541 0.58262 0.55636 0.0
C485 C 0.83945 0.52964 0.5438 0.0
C486 C 0.81344 0.53773 0.51844 0.0
C487 C 0.82284 0.59873 0.50503 0.0
C488 C 0.86039 0.65084 0.51733 0.0
C489 C 0.88614 0.64277 0.54275 0.0
C490 C 0.97866 0.55611 0.57904 0.0
C491 C 0.02558 0.58669 0.59613 0.0
C492 C 0.09352 0.56924 0.59461 0.0
C493 C 0.11534 0.52121 0.57573 0.0
C494 C 0.06811 0.49027 0.55874 0.0
C495 C 0.00036 0.50698 0.56052 0.0
C496 C 0.17661 0.66323 0.22975 0.0
C497 C 0.93823 0.55271 0.22607 0.0
C498 C 0.92093 0.64134 0.14877 0.0
Mg499 Mg 0.22703 0.80207 0.20332 0.0
Mg500 Mg 0.12142 0.92692 0.19499 0.0
O501 O 0.14224 0.83698 0.1872 0.0
Mg502 Mg 0.07668 0.76608 0.19725 0.0
O503 O 0.01764 0.68949 0.20706 0.0
Mg504 Mg 0.06015 0.61202 0.1872 0.0
Mg505 Mg 0.92415 0.6973 0.20378 0.0
C506 C -0.00287 0.88224 0.16085 0.0
O507 O 0.01986 0.82694 0.23139 0.0
O508 O 0.28091 0.88518 0.17888 0.0
O509 O 0.91282 0.78832 0.22707 0.0
O510 O 0.22067 0.87693 0.23988 0.0
O511 O 0.20615 0.9703 0.17568 0.0
O512 O 0.13016 0.94317 0.23634 0.0
O513 O 0.1211 0.69464 0.16548 0.0
O514 O 0.22908 0.72647 0.16685 0.0
C515 C 0.18152 0.68957 0.15695 0.0
C516 C 0.26377 0.94404 0.17074 0.0
O517 O 0.00567 0.81889 0.16603 0.0
O518 O -0.00512 0.5445 0.21409 0.0
O519 O 0.02806 0.9297 0.17356 0.0
O520 O 0.97485 0.61011 0.15533 0.0
O521 O 0.90213 0.60584 0.22366 0.0
O522 O 0.89543 0.68745 0.16344 0.0
O523 O 0.15947 0.72447 0.22534 0.0
O524 O 0.14559 0.61383 0.2184 0.0
C525 C 0.18057 0.92193 0.24944 0.0
C526 C 0.95692 0.82677 0.23832 0.0
C527 C 0.66796 0.83994 0.48284 0.0
C528 C 0.78384 0.61209 0.48077 0.0
C529 C 0.72308 0.59555 0.39756 0.0
Mg530 Mg 0.53665 0.89324 0.45146 0.0
Mg531 Mg 0.41324 0.78781 0.43865 0.0
O532 O 0.50387 0.80868 0.43326 0.0
Mg533 Mg 0.57402 0.74199 0.44382 0.0
O534 O 0.65069 0.6834 0.45429 0.0
Mg535 Mg 0.73111 0.73213 0.43969 0.0
Mg536 Mg 0.65019 0.5897 0.44961 0.0
C537 C 0.46243 0.6652 0.40312 0.0
O538 O 0.50985 0.67698 0.47405 0.0
O539 O 0.45767 0.95032 0.42573 0.0
O540 O 0.5523 0.57202 0.46617 0.0
O541 O 0.4565 0.88657 0.48476 0.0
O542 O 0.37287 0.8753 0.42002 0.0
O543 O 0.39021 0.79595 0.47981 0.0
O544 O 0.65069 0.79129 0.41598 0.0
O545 O 0.61782 0.89871 0.41784 0.0
C546 C 0.65678 0.85226 0.40864 0.0
C547 C 0.39908 0.93371 0.41662 0.0
O548 O 0.52543 0.67378 0.40951 0.0
O549 O 0.79422 0.66761 0.46852 0.0
O550 O 0.4142 0.69568 0.41533 0.0
O551 O 0.74562 0.65234 0.40626 0.0
O552 O 0.73304 0.57378 0.47584 0.0
O553 O 0.67795 0.56308 0.40999 0.0
O554 O 0.60856 0.8225 0.47535 0.0
O555 O 0.71992 0.81198 0.47265 0.0
C556 C 0.40962 0.8478 0.49309 0.0
C557 C 0.51025 0.61212 0.47756 0.0
C558 C 0.68907 0.16039 0.72894 0.0
C559 C 0.4542 0.04578 0.73323 0.0
C560 C 0.42595 0.10337 0.65318 0.0
Mg561 Mg 0.73573 0.29062 0.69575 0.0
Mg562 Mg 0.62861 0.41473 0.69042 0.0
O563 O 0.64779 0.32436 0.68198 0.0
Mg564 Mg 0.584 0.25389 0.6944 0.0
O565 O 0.52683 0.17795 0.70669 0.0
Mg566 Mg 0.57106 0.09649 0.69022 0.0
Mg567 Mg 0.43268 0.18191 0.70433 0.0
C568 C 0.49986 0.36757 0.65932 0.0
O569 O 0.52873 0.31775 0.72776 0.0
O570 O 0.78422 0.37112 0.66842 0.0
O571 O 0.42134 0.27895 0.7242 0.0
O572 O 0.73874 0.36798 0.73018 0.0
O573 O 0.70824 0.45576 0.66725 0.0
O574 O 0.65092 0.43772 0.73112 0.0
O575 O 0.62556 0.17645 0.66399 0.0
O576 O 0.73217 0.211 0.66108 0.0
C577 C 0.68403 0.17166 0.65364 0.0
C578 C 0.76475 0.42952 0.66049 0.0
O579 O 0.51016 0.30403 0.66377 0.0
O580 O 0.50998 0.03504 0.72087 0.0
O581 O 0.53007 0.41507 0.67236 0.0
O582 O 0.48356 0.08117 0.66042 0.0
O583 O 0.41701 0.09741 0.72914 0.0
O584 O 0.39754 0.15232 0.66551 0.0
O585 O 0.67076 0.21902 0.72168 0.0
O586 O 0.65848 0.10758 0.72032 0.0
C587 C 0.70517 0.41546 0.74137 0.0
C588 C 0.46585 0.31836 0.7348 0.0
C589 C 0.18085 0.34568 0.98652 0.0
C590 C 0.28685 0.11507 0.98942 0.0
C591 C 0.23818 0.09307 0.90482 0.0
Mg592 Mg 0.06098 0.4054 0.95013 0.0
Mg593 Mg 0.92896 0.30958 0.93699 0.0
O594 O 0.02247 0.32066 0.93392 0.0
Mg595 Mg 0.08763 0.25062 0.94618 0.0
O596 O 0.16026 0.18849 0.95838 0.0
Mg597 Mg 0.24513 0.23248 0.94545 0.0
Mg598 Mg 0.15747 0.09452 0.95548 0.0
C599 C 0.97418 0.17847 0.90507 0.0
O600 O 0.0175 0.19036 0.97614 0.0
O601 O -0.00804 0.4635 0.92126 0.0
O602 O 0.05618 0.08319 0.96959 0.0
O603 O 0.97719 0.41182 0.98078 0.0
O604 O 0.90244 0.3954 0.91369 0.0
O605 O 0.89688 0.33343 0.97684 0.0
O606 O 0.17097 0.2922 0.91881 0.0
O607 O 0.14436 0.40087 0.91816 0.0
C608 C 0.18087 0.35146 0.91021 0.0
C609 C 0.93496 0.45048 0.91004 0.0
O610 O 0.03709 0.18384 0.91212 0.0
O611 O 0.30141 0.16807 0.97622 0.0
O612 O 0.92658 0.21269 0.9162 0.0
O613 O 0.26131 0.1501 0.91304 0.0
O614 O 0.23488 0.07853 0.9843 0.0
O615 O 0.19093 0.06294 0.91698 0.0
O616 O 0.12241 0.3324 0.97708 0.0
O617 O 0.23243 0.31324 0.9783 0.0
C618 C 0.923 0.3843 0.98893 0.0
C619 C 0.01467 0.1256 0.97997 0.0
loop_
_geom_bond_atom_site_label_1
_geom_bond_atom_site_label_2
_geom_bond_distance
_geom_bond_site_symmetry_2
_ccdc_geom_bond_type
H0 C27 0.929 1_565 S
N1 C26 1.433 1_565 S
N1 C32 1.435 . S
N1 C38 1.423 . S
H2 C28 0.930 . S
H3 C31 0.931 . S
H4 C30 0.929 . S
H5 C33 0.930 1_545 S
H6 C34 0.932 . S
H7 C37 0.929 . S
H8 C36 0.931 . S
H9 C39 0.929 . S
H10 C43 0.932 . S
H11 C40 0.931 . S
H12 C42 0.929 . S
H13 C45 0.929 1_565 S
H14 C46 0.930 . S
H15 C48 0.929 . S
H16 C49 0.931 . S
H17 C51 0.930 1_545 S
H18 C52 0.939 . S
H19 C54 0.931 . S
H20 C55 0.929 . S
H21 C57 0.929 . S
H22 C58 0.931 . S
H23 C60 0.929 . S
N24 C44 1.433 1_565 S
N24 C50 1.435 . S
N24 C56 1.423 . S
H25 C61 0.932 . S
C26 N1 1.433 1_545 S
C26 C27 1.363 . S
C26 C31 1.370 . S
C27 H0 0.929 1_545 S
C27 C26 1.363 . S
C27 C28 1.385 . S
C28 H2 0.930 . S
C28 C27 1.385 . S
C28 C29 1.357 . S
C29 C28 1.357 . S
C29 C30 1.406 . S
C30 H4 0.929 . S
C30 C29 1.406 . S
C30 C31 1.391 . S
C31 H3 0.931 . S
C31 C26 1.370 . S
C31 C30 1.391 . S
C32 N1 1.435 . S
C32 C33 1.358 . S
C32 C37 1.371 . S
C33 H5 0.930 1_565 S
C33 C32 1.358 . S
C33 C34 1.405 . S
C34 H6 0.932 . S
C34 C33 1.405 . S
C34 C35 1.383 . S
C35 C34 1.383 . S
C35 C36 1.393 . S
C36 H8 0.931 . S
C36 C35 1.393 . S
C36 C37 1.382 . S
C37 H7 0.929 . S
C37 C32 1.371 . S
C37 C36 1.382 . S
C38 N1 1.423 . S
C38 C39 1.362 . S
C38 C43 1.388 . S
C39 H9 0.929 . S
C39 C38 1.362 . S
C39 C40 1.376 . S
C40 H11 0.931 . S
C40 C39 1.376 . S
C40 C41 1.396 . S
C41 C40 1.396 . S
C41 C42 1.348 . S
C41 C59 1.472 1_655 S
C42 H12 0.929 . S
C42 C41 1.348 . S
C42 C43 1.443 . S
C43 H10 0.932 . S
C43 C38 1.388 . S
C43 C42 1.443 . S
C44 N24 1.433 1_545 S
C44 C45 1.363 . S
C44 C49 1.370 . S
C45 H13 0.929 1_545 S
C45 C44 1.363 . S
C45 C46 1.385 . S
C46 H14 0.930 . S
C46 C45 1.385 . S
C46 C47 1.357 . S
C47 C46 1.357 . S
C47 C48 1.406 . S
C48 H15 0.929 . S
C48 C47 1.406 . S
C48 C49 1.391 . S
C49 H16 0.931 . S
C49 C44 1.370 . S
C49 C48 1.391 . S
C50 N24 1.435 . S
C50 C51 1.358 . S
C50 C55 1.371 . S
C51 H17 0.930 1_565 S
C51 C50 1.358 . S
C51 C52 1.405 . S
C52 H18 0.939 . S
C52 C51 1.405 . S
C52 C53 1.383 . S
C53 C52 1.383 . S
C53 C54 1.393 . S
C54 H19 0.931 . S
C54 C53 1.393 . S
C54 C55 1.382 . S
C55 H20 0.929 . S
C55 C50 1.371 . S
C55 C54 1.382 . S
C56 N24 1.423 . S
C56 C57 1.362 . S
C56 C61 1.388 . S
C57 H21 0.929 . S
C57 C56 1.362 . S
C57 C58 1.376 . S
C58 H22 0.931 . S
C58 C57 1.376 . S
C58 C59 1.396 . S
C59 C41 1.472 1_455 S
C59 C58 1.396 . S
C59 C60 1.348 . S
C60 H23 0.929 . S
C60 C59 1.348 . S
C60 C61 1.443 . S
C61 H25 0.932 . S
C61 C56 1.388 . S
C61 C60 1.443 . S
H62 C89 0.929 . S
N63 C88 1.433 . S
N63 C94 1.435 . S
N63 C100 1.423 . S
H64 C90 0.930 . S
H65 C93 0.931 . S
H66 C92 0.929 . S
H67 C95 0.930 . S
H68 C96 0.932 . S
H69 C99 0.929 . S
H70 C98 0.931 . S
H71 C101 0.929 . S
H72 C105 0.932 . S
H73 C102 0.931 . S
H74 C104 0.929 . S
H75 C107 0.929 . S
H76 C108 0.930 . S
H77 C110 0.929 . S
H78 C111 0.931 . S
H79 C113 0.930 . S
H80 C114 0.932 . S
H81 C116 0.931 . S
H82 C117 0.929 . S
H83 C119 0.929 . S
H84 C120 0.931 . S
H85 C122 0.929 . S
N86 C106 1.433 . S
N86 C112 1.435 . S
N86 C118 1.423 . S
H87 C123 0.932 . S
C88 N63 1.433 . S
C88 C89 1.363 . S
C88 C93 1.370 . S
C89 H62 0.929 . S
C89 C88 1.363 . S
C89 C90 1.385 . S
C90 H64 0.930 . S
C90 C89 1.385 . S
C90 C91 1.357 . S
C91 C90 1.357 . S
C91 C92 1.406 . S
C92 H66 0.929 . S
C92 C91 1.406 . S
C92 C93 1.391 . S
C93 H65 0.931 . S
C93 C88 1.370 . S
C93 C92 1.391 . S
C94 N63 1.435 . S
C94 C95 1.358 . S
C94 C99 1.371 . S
C95 H67 0.930 . S
C95 C94 1.358 . S
C95 C96 1.405 . S
C96 H68 0.932 . S
C96 C95 1.405 . S
C96 C97 1.383 . S
C97 C96 1.383 . S
C97 C98 1.393 . S
C98 H70 0.931 . S
C98 C97 1.393 . S
C98 C99 1.382 . S
C99 H69 0.929 . S
C99 C94 1.371 . S
C99 C98 1.382 . S
C100 N63 1.423 . S
C100 C101 1.362 . S
C100 C105 1.388 . S
C101 H71 0.929 . S
C101 C100 1.362 . S
C101 C102 1.376 . S
C102 H73 0.931 . S
C102 C101 1.376 . S
C102 C103 1.396 . S
C103 C102 1.396 . S
C103 C104 1.348 . S
C103 C121 1.472 . S
C104 H74 0.929 . S
C104 C103 1.348 . S
C104 C105 1.443 . S
C105 H72 0.932 . S
C105 C100 1.388 . S
C105 C104 1.443 . S
C106 N86 1.433 . S
C106 C107 1.363 1_565 S
C106 C111 1.370 . S
C107 H75 0.929 . S
C107 C106 1.363 1_545 S
C107 C108 1.385 . S
C108 H76 0.930 . S
C108 C107 1.385 . S
C108 C109 1.357 . S
C109 C108 1.357 . S
C109 C110 1.406 1_545 S
C110 H77 0.929 . S
C110 C109 1.406 1_565 S
C110 C111 1.391 . S
C111 H78 0.931 . S
C111 C106 1.370 . S
C111 C110 1.391 . S
C112 N86 1.435 . S
C112 C113 1.358 1_565 S
C112 C117 1.371 . S
C113 H79 0.930 . S
C113 C112 1.358 1_545 S
C113 C114 1.405 . S
C114 H80 0.932 . S
C114 C113 1.405 . S
C114 C115 1.383 . S
C115 C114 1.383 . S
C115 C116 1.393 . S
C116 H81 0.931 . S
C116 C115 1.393 . S
C116 C117 1.382 1_545 S
C117 H82 0.929 . S
C117 C112 1.371 . S
C117 C116 1.382 1_565 S
C118 N86 1.423 . S
C118 C119 1.362 . S
C118 C123 1.388 . S
C119 H83 0.929 . S
C119 C118 1.362 . S
C119 C120 1.376 . S
C120 H84 0.931 . S
C120 C119 1.376 . S
C120 C121 1.396 . S
C121 C103 1.472 . S
C121 C120 1.396 . S
C121 C122 1.348 . S
C122 H85 0.929 . S
C122 C121 1.348 . S
C122 C123 1.443 . S
C123 H87 0.932 . S
C123 C118 1.388 . S
C123 C122 1.443 . S
H124 C151 0.929 . S
N125 C150 1.433 1_545 S
N125 C156 1.435 . S
N125 C162 1.423 . S
H126 C152 0.930 . S
H127 C155 0.931 . S
H128 C154 0.929 . S
H129 C157 0.930 1_565 S
H130 C158 0.932 . S
H131 C161 0.929 . S
H132 C160 0.931 . S
H133 C163 0.929 . S
H134 C167 0.932 . S
H135 C164 0.931 . S
H136 C166 0.929 . S
H137 C169 0.929 . S
H138 C170 0.930 . S
H139 C172 0.929 . S
H140 C173 0.931 . S
H141 C175 0.930 1_565 S
H142 C176 0.932 . S
H143 C178 0.931 . S
H144 C179 0.929 . S
H145 C181 0.929 . S
H146 C182 0.931 . S
H147 C184 0.929 . S
N148 C168 1.433 1_545 S
N148 C174 1.435 . S
N148 C180 1.423 . S
H149 C185 0.932 . S
C150 N125 1.433 1_565 S
C150 C151 1.363 1_665 S
C150 C155 1.370 . S
C151 H124 0.929 . S
C151 C150 1.363 1_445 S
C151 C152 1.385 1_545 S
C152 H126 0.930 . S
C152 C151 1.385 1_565 S
C152 C153 1.357 . S
C153 C152 1.357 . S
C153 C154 1.406 1_455 S
C154 H128 0.929 . S
C154 C153 1.406 1_655 S
C154 C155 1.391 . S
C155 H127 0.931 . S
C155 C150 1.370 . S
C155 C154 1.391 . S
C156 N125 1.435 . S
C156 C157 1.358 1_655 S
C156 C161 1.371 . S
C157 H129 0.930 1_545 S
C157 C156 1.358 1_455 S
C157 C158 1.405 1_554 S
C158 H130 0.932 . S
C158 C157 1.405 1_556 S
C158 C159 1.383 . S
C159 C158 1.383 . S
C159 C160 1.393 . S
C160 H132 0.931 . S
C160 C159 1.393 . S
C160 C161 1.382 1_456 S
C161 H131 0.929 . S
C161 C156 1.371 . S
C161 C160 1.382 1_654 S
C162 N125 1.423 . S
C162 C163 1.362 . S
C162 C167 1.388 . S
C163 H133 0.929 . S
C163 C162 1.362 . S
C163 C164 1.376 . S
C164 H135 0.931 . S
C164 C163 1.376 . S
C164 C165 1.396 . S
C165 C164 1.396 . S
C165 C166 1.348 . S
C165 C183 1.472 . S
C166 H136 0.929 . S
C166 C165 1.348 . S
C166 C167 1.443 . S
C167 H134 0.932 . S
C167 C162 1.388 . S
C167 C166 1.443 . S
C168 N148 1.433 1_565 S
C168 C169 1.363 1_565 S
C168 C173 1.370 . S
C169 H137 0.929 . S
C169 C168 1.363 1_545 S
C169 C170 1.385 1_545 S
C170 H138 0.930 . S
C170 C169 1.385 1_565 S
C170 C171 1.357 . S
C171 C170 1.357 . S
C171 C172 1.406 . S
C172 H139 0.929 . S
C172 C171 1.406 . S
C172 C173 1.391 . S
C173 H140 0.931 . S
C173 C168 1.370 . S
C173 C172 1.391 . S
C174 N148 1.435 . S
C174 C175 1.358 . S
C174 C179 1.371 . S
C175 H141 0.930 1_545 S
C175 C174 1.358 . S
C175 C176 1.405 1_554 S
C176 H142 0.932 . S
C176 C175 1.405 1_556 S
C176 C177 1.383 . S
C177 C176 1.383 . S
C177 C178 1.393 . S
C178 H143 0.931 . S
C178 C177 1.393 . S
C178 C179 1.382 1_556 S
C179 H144 0.929 . S
C179 C174 1.371 . S
C179 C178 1.382 1_554 S
C180 N148 1.423 . S
C180 C181 1.362 . S
C180 C185 1.388 . S
C181 H145 0.929 . S
C181 C180 1.362 . S
C181 C182 1.376 . S
C182 H146 0.931 . S
C182 C181 1.376 . S
C182 C183 1.396 . S
C183 C165 1.472 . S
C183 C182 1.396 . S
C183 C184 1.348 . S
C184 H147 0.929 . S
C184 C183 1.348 . S
C184 C185 1.443 . S
C185 H149 0.932 . S
C185 C180 1.388 . S
C185 C184 1.443 . S
H186 C213 0.929 . S
N187 C212 1.433 . S
N187 C218 1.435 . S
N187 C224 1.423 . S
H188 C214 0.930 . S
H189 C217 0.931 . S
H190 C216 0.929 . S
H191 C219 0.930 . S
H192 C220 0.932 . S
H193 C223 0.929 . S
H194 C222 0.931 . S
H195 C225 0.929 . S
H196 C229 0.932 . S
H197 C226 0.931 . S
H198 C228 0.929 . S
H199 C231 0.929 . S
H200 C232 0.930 . S
H201 C234 0.929 . S
H202 C235 0.931 . S
H203 C237 0.930 . S
H204 C238 0.932 . S
H205 C240 0.931 1_545 S
H206 C241 0.929 . S
H207 C243 0.929 . S
H208 C244 0.931 . S
H209 C246 0.929 . S
N210 C230 1.433 . S
N210 C236 1.435 . S
N210 C242 1.423 . S
H211 C247 0.932 . S
C212 N187 1.433 . S
C212 C213 1.363 . S
C212 C217 1.370 . S
C213 H186 0.929 . S
C213 C212 1.363 . S
C213 C214 1.385 . S
C214 H188 0.930 . S
C214 C213 1.385 . S
C214 C215 1.357 . S
C215 C214 1.357 . S
C215 C216 1.406 . S
C216 H190 0.929 . S
C216 C215 1.406 . S
C216 C217 1.391 . S
C217 H189 0.931 . S
C217 C212 1.370 . S
C217 C216 1.391 . S
C218 N187 1.435 . S
C218 C219 1.358 . S
C218 C223 1.371 . S
C219 H191 0.930 . S
C219 C218 1.358 . S
C219 C220 1.405 . S
C220 H192 0.932 . S
C220 C219 1.405 . S
C220 C221 1.383 . S
C221 C220 1.383 . S
C221 C222 1.393 . S
C222 H194 0.931 . S
C222 C221 1.393 . S
C222 C223 1.382 . S
C223 H193 0.929 . S
C223 C218 1.371 . S
C223 C222 1.382 . S
C224 N187 1.423 . S
C224 C225 1.362 . S
C224 C229 1.388 . S
C225 H195 0.929 . S
C225 C224 1.362 . S
C225 C226 1.376 . S
C226 H197 0.931 . S
C226 C225 1.376 . S
C226 C227 1.396 . S
C227 C226 1.396 . S
C227 C228 1.348 . S
C227 C245 1.472 . S
C228 H198 0.929 . S
C228 C227 1.348 . S
C228 C229 1.443 . S
C229 H196 0.932 . S
C229 C224 1.388 . S
C229 C228 1.443 . S
C230 N210 1.433 . S
C230 C231 1.363 1_545 S
C230 C235 1.370 . S
C231 H199 0.929 . S
C231 C230 1.363 1_565 S
C231 C232 1.385 . S
C232 H200 0.930 . S
C232 C231 1.385 . S
C232 C233 1.357 1_565 S
C233 C232 1.357 1_545 S
C233 C234 1.406 . S
C234 H201 0.929 . S
C234 C233 1.406 . S
C234 C235 1.391 . S
C235 H202 0.931 . S
C235 C230 1.370 . S
C235 C234 1.391 . S
C236 N210 1.435 . S
C236 C237 1.358 1_545 S
C236 C241 1.371 . S
C237 H203 0.930 . S
C237 C236 1.358 1_565 S
C237 C238 1.405 . S
C238 H204 0.932 . S
C238 C237 1.405 . S
C238 C239 1.383 . S
C239 C238 1.383 . S
C239 C240 1.393 . S
C240 H205 0.931 1_565 S
C240 C239 1.393 . S
C240 C241 1.382 1_565 S
C241 H206 0.929 . S
C241 C236 1.371 . S
C241 C240 1.382 1_545 S
C242 N210 1.423 . S
C242 C243 1.362 . S
C242 C247 1.388 . S
C243 H207 0.929 . S
C243 C242 1.362 . S
C243 C244 1.376 . S
C244 H208 0.931 . S
C244 C243 1.376 . S
C244 C245 1.396 . S
C245 C227 1.472 . S
C245 C244 1.396 . S
C245 C246 1.348 . S
C246 H209 0.929 . S
C246 C245 1.348 . S
C246 C247 1.443 . S
C247 H211 0.932 . S
C247 C242 1.388 . S
C247 C246 1.443 . S
H248 C275 0.929 . S
N249 C274 1.433 . S
N249 C280 1.435 . S
N249 C286 1.423 . S
H250 C276 0.930 . S
H251 C279 0.931 . S
H252 C278 0.929 . S
H253 C281 0.930 . S
H254 C282 0.932 . S
H255 C285 0.929 . S
H256 C284 0.931 1_455 S
H257 C287 0.929 . S
H258 C291 0.932 . S
H259 C288 0.931 . S
H260 C290 0.929 . S
H261 C293 0.929 . S
H262 C294 0.930 . S
H263 C296 0.929 . S
H264 C297 0.931 . S
H265 C299 0.930 . S
H266 C300 0.932 . S
H267 C302 0.931 1_455 S
H268 C303 0.929 . S
H269 C305 0.929 . S
H270 C306 0.931 . S
H271 C308 0.929 . S
N272 C292 1.433 . S
N272 C298 1.435 . S
N272 C304 1.423 . S
H273 C309 0.932 . S
C274 N249 1.433 . S
C274 C275 1.363 . S
C274 C279 1.370 . S
C275 H248 0.929 . S
C275 C274 1.363 . S
C275 C276 1.385 . S
C276 H250 0.930 . S
C276 C275 1.385 . S
C276 C277 1.357 . S
C277 C276 1.357 . S
C277 C278 1.406 . S
C278 H252 0.929 . S
C278 C277 1.406 . S
C278 C279 1.391 . S
C279 H251 0.931 . S
C279 C274 1.370 . S
C279 C278 1.391 . S
C280 N249 1.435 . S
C280 C281 1.358 . S
C280 C285 1.371 . S
C281 H253 0.930 . S
C281 C280 1.358 . S
C281 C282 1.405 . S
C282 H254 0.932 . S
C282 C281 1.405 . S
C282 C283 1.383 . S
C283 C282 1.383 . S
C283 C284 1.393 . S
C284 H256 0.931 1_655 S
C284 C283 1.393 . S
C284 C285 1.382 . S
C285 H255 0.929 . S
C285 C280 1.371 . S
C285 C284 1.382 . S
C286 N249 1.423 . S
C286 C287 1.362 1_565 S
C286 C291 1.388 1_565 S
C287 H257 0.929 . S
C287 C286 1.362 1_545 S
C287 C288 1.376 . S
C288 H259 0.931 . S
C288 C287 1.376 . S
C288 C289 1.396 . S
C289 C288 1.396 . S
C289 C290 1.348 . S
C289 C307 1.472 . S
C290 H260 0.929 . S
C290 C289 1.348 . S
C290 C291 1.443 . S
C291 H258 0.932 . S
C291 C286 1.388 1_545 S
C291 C290 1.443 . S
C292 N272 1.433 . S
C292 C293 1.363 . S
C292 C297 1.370 . S
C293 H261 0.929 . S
C293 C292 1.363 . S
C293 C294 1.385 . S
C294 H262 0.930 . S
C294 C293 1.385 . S
C294 C295 1.357 . S
C295 C294 1.357 . S
C295 C296 1.406 . S
C296 H263 0.929 . S
C296 C295 1.406 . S
C296 C297 1.391 . S
C297 H264 0.931 . S
C297 C292 1.370 . S
C297 C296 1.391 . S
C298 N272 1.435 . S
C298 C299 1.358 . S
C298 C303 1.371 . S
C299 H265 0.930 . S
C299 C298 1.358 . S
C299 C300 1.405 . S
C300 H266 0.932 . S
C300 C299 1.405 . S
C300 C301 1.383 . S
C301 C300 1.383 . S
C301 C302 1.393 . S
C302 H267 0.931 1_655 S
C302 C301 1.393 . S
C302 C303 1.382 . S
C303 H268 0.929 . S
C303 C298 1.371 . S
C303 C302 1.382 . S
C304 N272 1.423 . S
C304 C305 1.362 . S
C304 C309 1.388 . S
C305 H269 0.929 . S
C305 C304 1.362 . S
C305 C306 1.376 . S
C306 H270 0.931 . S
C306 C305 1.376 . S
C306 C307 1.396 . S
C307 C289 1.472 . S
C307 C306 1.396 . S
C307 C308 1.348 . S
C308 H271 0.929 . S
C308 C307 1.348 . S
C308 C309 1.443 . S
C309 H273 0.932 . S
C309 C304 1.388 . S
C309 C308 1.443 . S
H310 C337 0.929 . S
N311 C336 1.433 . S
N311 C342 1.435 . S
N311 C348 1.423 . S
H312 C338 0.930 . S
H313 C341 0.931 . S
H314 C340 0.929 1_455 S
H315 C343 0.930 . S
H316 C344 0.932 . S
H317 C347 0.929 . S
H318 C346 0.931 . S
H319 C349 0.929 1_545 S
H320 C353 0.932 1_545 S
H321 C350 0.931 . S
H322 C352 0.929 . S
H323 C355 0.929 . S
H324 C356 0.930 . S
H325 C358 0.929 1_455 S
H326 C359 0.931 . S
H327 C361 0.930 . S
H328 C362 0.932 . S
H329 C364 0.931 . S
H330 C365 0.929 . S
H331 C367 0.929 . S
H332 C368 0.931 . S
H333 C370 0.929 . S
N334 C354 1.433 . S
N334 C360 1.435 . S
N334 C366 1.423 . S
H335 C371 0.932 . S
C336 N311 1.433 . S
C336 C337 1.363 . S
C336 C341 1.370 . S
C337 H310 0.929 . S
C337 C336 1.363 . S
C337 C338 1.385 . S
C338 H312 0.930 . S
C338 C337 1.385 . S
C338 C339 1.357 . S
C339 C338 1.357 . S
C339 C340 1.406 . S
C340 H314 0.929 1_655 S
C340 C339 1.406 . S
C340 C341 1.391 . S
C341 H313 0.931 . S
C341 C336 1.370 . S
C341 C340 1.391 . S
C342 N311 1.435 . S
C342 C343 1.358 . S
C342 C347 1.371 . S
C343 H315 0.930 . S
C343 C342 1.358 . S
C343 C344 1.405 . S
C344 H316 0.932 . S
C344 C343 1.405 . S
C344 C345 1.383 . S
C345 C344 1.383 . S
C345 C346 1.393 . S
C346 H318 0.931 . S
C346 C345 1.393 . S
C346 C347 1.382 . S
C347 H317 0.929 . S
C347 C342 1.371 . S
C347 C346 1.382 . S
C348 N311 1.423 . S
C348 C349 1.362 1_545 S
C348 C353 1.388 1_545 S
C349 H319 0.929 1_565 S
C349 C348 1.362 1_565 S
C349 C350 1.376 . S
C350 H321 0.931 . S
C350 C349 1.376 . S
C350 C351 1.396 . S
C351 C350 1.396 . S
C351 C352 1.348 . S
C351 C369 1.472 . S
C352 H322 0.929 . S
C352 C351 1.348 . S
C352 C353 1.443 . S
C353 H320 0.932 1_565 S
C353 C348 1.388 1_565 S
C353 C352 1.443 . S
C354 N334 1.433 . S
C354 C355 1.363 . S
C354 C359 1.370 . S
C355 H323 0.929 . S
C355 C354 1.363 . S
C355 C356 1.385 . S
C356 H324 0.930 . S
C356 C355 1.385 . S
C356 C357 1.357 . S
C357 C356 1.357 . S
C357 C358 1.406 . S
C358 H325 0.929 1_655 S
C358 C357 1.406 . S
C358 C359 1.391 . S
C359 H326 0.931 . S
C359 C354 1.370 . S
C359 C358 1.391 . S
C360 N334 1.435 . S
C360 C361 1.358 . S
C360 C365 1.371 . S
C361 H327 0.930 . S
C361 C360 1.358 . S
C361 C362 1.405 . S
C362 H328 0.932 . S
C362 C361 1.405 . S
C362 C363 1.383 . S
C363 C362 1.383 . S
C363 C364 1.393 . S
C364 H329 0.931 . S
C364 C363 1.393 . S
C364 C365 1.382 . S
C365 H330 0.929 . S
C365 C360 1.371 . S
C365 C364 1.382 . S
C366 N334 1.423 . S
C366 C367 1.362 . S
C366 C371 1.388 . S
C367 H331 0.929 . S
C367 C366 1.362 . S
C367 C368 1.376 . S
C368 H332 0.931 . S
C368 C367 1.376 . S
C368 C369 1.396 . S
C369 C351 1.472 . S
C369 C368 1.396 . S
C369 C370 1.348 . S
C370 H333 0.929 . S
C370 C369 1.348 . S
C370 C371 1.443 . S
C371 H335 0.932 . S
C371 C366 1.388 . S
C371 C370 1.443 . S
H372 C399 0.929 . S
N373 C398 1.433 . S
N373 C404 1.435 . S
N373 C410 1.423 . S
H374 C400 0.930 . S
H375 C403 0.911 1_554 S
H376 C402 0.929 . S
H377 C405 0.930 . S
H378 C406 0.932 . S
H379 C409 0.929 . S
H380 C408 0.931 . S
H381 C411 0.929 1_556 S
H382 C415 0.932 . S
H383 C412 0.931 1_556 S
H384 C414 0.929 . S
H385 C417 0.929 . S
H386 C418 0.930 . S
H387 C420 0.929 . S
H388 C421 0.931 1_554 S
H389 C423 0.930 . S
H390 C424 0.932 . S
H391 C426 0.931 . S
H392 C427 0.929 . S
H393 C429 0.929 1_556 S
H394 C430 0.931 1_556 S
H395 C432 0.929 . S
N396 C416 1.433 . S
N396 C422 1.435 . S
N396 C428 1.423 . S
H397 C433 0.932 . S
C398 N373 1.433 . S
C398 C399 1.363 1_554 S
C398 C403 1.361 1_554 S
C399 H372 0.929 . S
C399 C398 1.363 1_556 S
C399 C400 1.385 . S
C400 H374 0.930 . S
C400 C399 1.385 . S
C400 C401 1.357 . S
C401 C400 1.357 . S
C401 C402 1.406 . S
C402 H376 0.929 . S
C402 C401 1.406 . S
C402 C403 1.423 . S
C403 H375 0.911 1_556 S
C403 C398 1.361 1_556 S
C403 C402 1.423 . S
C404 N373 1.435 . S
C404 C405 1.358 . S
C404 C409 1.371 . S
C405 H377 0.930 . S
C405 C404 1.358 . S
C405 C406 1.405 . S
C406 H378 0.932 . S
C406 C405 1.405 . S
C406 C407 1.383 . S
C407 C406 1.383 . S
C407 C408 1.393 . S
C408 H380 0.931 . S
C408 C407 1.393 . S
C408 C409 1.382 . S
C409 H379 0.929 . S
C409 C404 1.371 . S
C409 C408 1.382 . S
C410 N373 1.423 . S
C410 C411 1.362 . S
C410 C415 1.388 . S
C411 H381 0.929 1_554 S
C411 C410 1.362 . S
C411 C412 1.376 . S
C412 H383 0.931 1_554 S
C412 C411 1.376 . S
C412 C413 1.396 . S
C413 C412 1.396 . S
C413 C414 1.348 . S
C413 C431 1.472 . S
C414 H384 0.929 . S
C414 C413 1.348 . S
C414 C415 1.443 . S
C415 H382 0.932 . S
C415 C410 1.388 . S
C415 C414 1.443 . S
C416 N396 1.433 . S
C416 C417 1.363 1_554 S
C416 C421 1.370 1_554 S
C417 H385 0.929 . S
C417 C416 1.363 1_556 S
C417 C418 1.385 . S
C418 H386 0.930 . S
C418 C417 1.385 . S
C418 C419 1.357 . S
C419 C418 1.357 . S
C419 C420 1.406 . S
C420 H387 0.929 . S
C420 C419 1.406 . S
C420 C421 1.391 . S
C421 H388 0.931 1_556 S
C421 C416 1.370 1_556 S
C421 C420 1.391 . S
C422 N396 1.435 . S
C422 C423 1.358 . S
C422 C427 1.371 . S
C423 H389 0.930 . S
C423 C422 1.358 . S
C423 C424 1.405 . S
C424 H390 0.932 . S
C424 C423 1.405 . S
C424 C425 1.383 . S
C425 C424 1.383 . S
C425 C426 1.393 . S
C426 H391 0.931 . S
C426 C425 1.393 . S
C426 C427 1.382 . S
C427 H392 0.929 . S
C427 C422 1.371 . S
C427 C426 1.382 . S
C428 N396 1.423 . S
C428 C429 1.362 . S
C428 C433 1.388 . S
C429 H393 0.929 1_554 S
C429 C428 1.362 . S
C429 C430 1.376 . S
C430 H394 0.931 1_554 S
C430 C429 1.376 . S
C430 C431 1.396 . S
C431 C413 1.472 . S
C431 C430 1.396 . S
C431 C432 1.348 . S
C432 H395 0.929 . S
C432 C431 1.348 . S
C432 C433 1.443 . S
C433 H397 0.932 . S
C433 C428 1.388 . S
C433 C432 1.443 . S
H434 C461 0.929 . S
N435 C460 1.433 . S
N435 C466 1.435 . S
N435 C472 1.423 . S
H436 C462 0.930 . S
H437 C465 0.931 . S
H438 C464 0.929 . S
H439 C467 0.930 . S
H440 C468 0.932 . S
H441 C471 0.929 . S
H442 C470 0.931 . S
H443 C473 0.929 . S
H444 C477 0.932 . S
H445 C474 0.931 . S
H446 C476 0.929 . S
H447 C479 0.929 . S
H448 C480 0.930 . S
H449 C482 0.929 . S
H450 C483 0.931 . S
H451 C485 0.930 . S
H452 C486 0.932 . S
H453 C488 0.931 . S
H454 C489 0.929 . S
H455 C491 0.929 . S
H456 C492 0.931 . S
H457 C494 0.929 . S
N458 C478 1.433 . S
N458 C484 1.435 . S
N458 C490 1.423 1_655 S
H459 C495 0.932 . S
C460 N435 1.433 . S
C460 C461 1.363 . S
C460 C465 1.370 . S
C461 H434 0.929 . S
C461 C460 1.363 . S
C461 C462 1.385 . S
C462 H436 0.930 . S
C462 C461 1.385 . S
C462 C463 1.357 . S
C463 C462 1.357 . S
C463 C464 1.406 . S
C464 H438 0.929 . S
C464 C463 1.406 . S
C464 C465 1.391 . S
C465 H437 0.931 . S
C465 C460 1.370 . S
C465 C464 1.391 . S
C466 N435 1.435 . S
C466 C467 1.358 . S
C466 C471 1.371 . S
C467 H439 0.930 . S
C467 C466 1.358 . S
C467 C468 1.405 . S
C468 H440 0.932 . S
C468 C467 1.405 . S
C468 C469 1.383 . S
C469 C468 1.383 . S
C469 C470 1.393 . S
C470 H442 0.931 . S
C470 C469 1.393 . S
C470 C471 1.382 . S
C471 H441 0.929 . S
C471 C466 1.371 . S
C471 C470 1.382 . S
C472 N435 1.423 . S
C472 C473 1.362 . S
C472 C477 1.388 . S
C473 H443 0.929 . S
C473 C472 1.362 . S
C473 C474 1.376 . S
C474 H445 0.931 . S
C474 C473 1.376 . S
C474 C475 1.396 . S
C475 C474 1.396 . S
C475 C476 1.348 . S
C475 C493 1.472 . S
C476 H446 0.929 . S
C476 C475 1.348 . S
C476 C477 1.443 . S
C477 H444 0.932 . S
C477 C472 1.388 . S
C477 C476 1.443 . S
C478 N458 1.433 . S
C478 C479 1.363 . S
C478 C483 1.370 . S
C479 H447 0.929 . S
C479 C478 1.363 . S
C479 C480 1.385 . S
C480 H448 0.930 . S
C480 C479 1.385 . S
C480 C481 1.357 . S
C481 C480 1.357 . S
C481 C482 1.406 . S
C482 H449 0.929 . S
C482 C481 1.406 . S
C482 C483 1.391 . S
C483 H450 0.931 . S
C483 C478 1.370 . S
C483 C482 1.391 . S
C484 N458 1.435 . S
C484 C485 1.358 . S
C484 C489 1.371 . S
C485 H451 0.930 . S
C485 C484 1.358 . S
C485 C486 1.405 . S
C486 H452 0.932 . S
C486 C485 1.405 . S
C486 C487 1.383 . S
C487 C486 1.383 . S
C487 C488 1.393 . S
C488 H453 0.931 . S
C488 C487 1.393 . S
C488 C489 1.382 . S
C489 H454 0.929 . S
C489 C484 1.371 . S
C489 C488 1.382 . S
C490 N458 1.423 1_455 S
C490 C491 1.362 . S
C490 C495 1.388 . S
C491 H455 0.929 . S
C491 C490 1.362 . S
C491 C492 1.376 . S
C492 H456 0.931 . S
C492 C491 1.376 . S
C492 C493 1.396 . S
C493 C475 1.472 . S
C493 C492 1.396 . S
C493 C494 1.348 . S
C494 H457 0.929 . S
C494 C493 1.348 . S
C494 C495 1.443 . S
C495 H459 0.932 . S
C495 C490 1.388 . S
C495 C494 1.443 . S
C496 O523 1.312 . S
C496 O524 1.208 . S
C497 O518 1.331 1_655 S
C497 O521 1.244 . S
C498 O520 1.264 1_655 S
C498 O522 1.273 . S
Mg499 O501 1.936 . S
Mg499 O508 2.081 . S
Mg499 O510 2.023 . S
Mg499 O514 2.031 . S
Mg499 O523 2.291 . S
Mg500 O501 1.963 . S
Mg500 O511 1.942 . S
Mg500 O512 1.955 . S
Mg500 O519 1.986 . S
O501 Mg499 1.936 . S
O501 Mg500 1.963 . S
O501 Mg502 1.915 . S
Mg502 O501 1.915 . S
Mg502 O503 1.915 . S
Mg502 O507 2.013 . S
Mg502 O513 2.114 . S
Mg502 O517 2.013 . S
Mg502 O523 2.114 . S
O503 Mg502 1.915 . S
O503 Mg504 1.936 . S
O503 Mg505 1.963 1_455 S
Mg504 O503 1.936 . S
Mg504 O513 2.291 . S
Mg504 O518 2.081 . S
Mg504 O520 2.023 . S
Mg504 O524 2.031 . S
Mg505 O503 1.963 1_655 S
Mg505 O509 1.986 . S
Mg505 O521 1.942 . S
Mg505 O522 1.955 . S
C506 O517 1.191 . S
C506 O519 1.307 . S
O507 Mg502 2.013 . S
O507 C526 1.191 . S
O508 Mg499 2.081 . S
O508 C516 1.331 . S
O509 Mg505 1.986 . S
O509 C526 1.307 1_655 S
O510 Mg499 2.023 . S
O510 C525 1.264 . S
O511 Mg500 1.942 . S
O511 C516 1.244 . S
O512 Mg500 1.955 . S
O512 C525 1.273 . S
O513 Mg502 2.114 . S
O513 Mg504 2.291 . S
O513 C515 1.312 . S
O514 Mg499 2.031 . S
O514 C515 1.208 . S
C515 O513 1.312 . S
C515 O514 1.208 . S
C516 O508 1.331 . S
C516 O511 1.244 . S
O517 Mg502 2.013 . S
O517 C506 1.191 . S
O518 C497 1.331 1_455 S
O518 Mg504 2.081 . S
O519 Mg500 1.986 . S
O519 C506 1.307 . S
O520 C498 1.264 1_455 S
O520 Mg504 2.023 . S
O521 C497 1.244 . S
O521 Mg505 1.942 . S
O522 C498 1.273 . S
O522 Mg505 1.955 . S
O523 C496 1.312 . S
O523 Mg499 2.291 . S
O523 Mg502 2.114 . S
O524 C496 1.208 . S
O524 Mg504 2.031 . S
C525 O510 1.264 . S
C525 O512 1.273 . S
C526 O507 1.191 . S
C526 O509 1.307 1_455 S
C527 O554 1.312 . S
C527 O555 1.208 . S
C528 O549 1.331 . S
C528 O552 1.244 . S
C529 O551 1.264 . S
C529 O553 1.273 . S
Mg530 O532 1.936 . S
Mg530 O539 2.081 . S
Mg530 O541 2.023 . S
Mg530 O545 2.031 . S
Mg530 O554 2.291 . S
Mg531 O532 1.963 . S
Mg531 O542 1.942 . S
Mg531 O543 1.955 . S
Mg531 O550 1.986 . S
O532 Mg530 1.936 . S
O532 Mg531 1.963 . S
O532 Mg533 1.915 . S
Mg533 O532 1.915 . S
Mg533 O534 1.915 . S
Mg533 O538 2.013 . S
Mg533 O544 2.114 . S
Mg533 O548 2.013 . S
Mg533 O554 2.114 . S
O534 Mg533 1.915 . S
O534 Mg535 1.936 . S
O534 Mg536 1.963 . S
Mg535 O534 1.936 . S
Mg535 O544 2.291 . S
Mg535 O549 2.081 . S
Mg535 O551 2.023 . S
Mg535 O555 2.031 . S
Mg536 O534 1.963 . S
Mg536 O540 1.986 . S
Mg536 O552 1.942 . S
Mg536 O553 1.955 . S
C537 O548 1.191 . S
C537 O550 1.307 . S
O538 Mg533 2.013 . S
O538 C557 1.191 . S
O539 Mg530 2.081 . S
O539 C547 1.331 . S
O540 Mg536 1.986 . S
O540 C557 1.307 . S
O541 Mg530 2.023 . S
O541 C556 1.264 . S
O542 Mg531 1.942 . S
O542 C547 1.244 . S
O543 Mg531 1.955 . S
O543 C556 1.273 . S
O544 Mg533 2.114 . S
O544 Mg535 2.291 . S
O544 C546 1.312 . S
O545 Mg530 2.031 . S
O545 C546 1.208 . S
C546 O544 1.312 . S
C546 O545 1.208 . S
C547 O539 1.331 . S
C547 O542 1.244 . S
O548 Mg533 2.013 . S
O548 C537 1.191 . S
O549 C528 1.331 . S
O549 Mg535 2.081 . S
O550 Mg531 1.986 . S
O550 C537 1.307 . S
O551 C529 1.264 . S
O551 Mg535 2.023 . S
O552 C528 1.244 . S
O552 Mg536 1.942 . S
O553 C529 1.273 . S
O553 Mg536 1.955 . S
O554 C527 1.312 . S
O554 Mg530 2.291 . S
O554 Mg533 2.114 . S
O555 C527 1.208 . S
O555 Mg535 2.031 . S
C556 O541 1.264 . S
C556 O543 1.273 . S
C557 O538 1.191 . S
C557 O540 1.307 . S
C558 O585 1.312 . S
C558 O586 1.208 . S
C559 O580 1.331 . S
C559 O583 1.244 . S
C560 O582 1.264 . S
C560 O584 1.273 . S
Mg561 O563 1.936 . S
Mg561 O570 2.081 . S
Mg561 O572 2.023 . S
Mg561 O576 2.031 . S
Mg561 O585 2.291 . S
Mg562 O563 1.963 . S
Mg562 O573 1.942 . S
Mg562 O574 1.955 . S
Mg562 O581 1.986 . S
O563 Mg561 1.936 . S
O563 Mg562 1.963 . S
O563 Mg564 1.915 . S
Mg564 O563 1.915 . S
Mg564 O565 1.915 . S
Mg564 O569 2.013 . S
Mg564 O575 2.114 . S
Mg564 O579 2.013 . S
Mg564 O585 2.114 . S
O565 Mg564 1.915 . S
O565 Mg566 1.936 . S
O565 Mg567 1.963 . S
Mg566 O565 1.936 . S
Mg566 O575 2.291 . S
Mg566 O580 2.081 . S
Mg566 O582 2.023 . S
Mg566 O586 2.031 . S
Mg567 O565 1.963 . S
Mg567 O571 1.986 . S
Mg567 O583 1.942 . S
Mg567 O584 1.955 . S
C568 O579 1.191 . S
C568 O581 1.307 . S
O569 Mg564 2.013 . S
O569 C588 1.191 . S
O570 Mg561 2.081 . S
O570 C578 1.331 . S
O571 Mg567 1.986 . S
O571 C588 1.307 . S
O572 Mg561 2.023 . S
O572 C587 1.264 . S
O573 Mg562 1.942 . S
O573 C578 1.244 . S
O574 Mg562 1.955 . S
O574 C587 1.273 . S
O575 Mg564 2.114 . S
O575 Mg566 2.291 . S
O575 C577 1.312 . S
O576 Mg561 2.031 . S
O576 C577 1.208 . S
C577 O575 1.312 . S
C577 O576 1.208 . S
C578 O570 1.331 . S
C578 O573 1.244 . S
O579 Mg564 2.013 . S
O579 C568 1.191 . S
O580 C559 1.331 . S
O580 Mg566 2.081 . S
O581 Mg562 1.986 . S
O581 C568 1.307 . S
O582 C560 1.264 . S
O582 Mg566 2.023 . S
O583 C559 1.244 . S
O583 Mg567 1.942 . S
O584 C560 1.273 . S
O584 Mg567 1.955 . S
O585 C558 1.312 . S
O585 Mg561 2.291 . S
O585 Mg564 2.114 . S
O586 C558 1.208 . S
O586 Mg566 2.031 . S
C587 O572 1.264 . S
C587 O574 1.273 . S
C588 O569 1.191 . S
C588 O571 1.307 . S
C589 O616 1.312 . S
C589 O617 1.208 . S
C590 O611 1.331 . S
C590 O614 1.244 . S
C591 O613 1.264 . S
C591 O615 1.273 . S
Mg592 O594 1.936 . S
Mg592 O601 2.081 . S
Mg592 O603 2.023 . S
Mg592 O607 2.031 . S
Mg592 O616 2.291 . S
Mg593 O594 1.963 1_655 S
Mg593 O604 1.942 . S
Mg593 O605 1.955 . S
Mg593 O612 1.986 . S
O594 Mg592 1.936 . S
O594 Mg593 1.963 1_455 S
O594 Mg595 1.915 . S
Mg595 O594 1.915 . S
Mg595 O596 1.915 . S
Mg595 O600 2.013 . S
Mg595 O606 2.114 . S
Mg595 O610 2.013 . S
Mg595 O616 2.114 . S
O596 Mg595 1.915 . S
O596 Mg597 1.936 . S
O596 Mg598 1.963 . S
Mg597 O596 1.936 . S
Mg597 O606 2.291 . S
Mg597 O611 2.081 . S
Mg597 O613 2.023 . S
Mg597 O617 2.031 . S
Mg598 O596 1.963 . S
Mg598 O602 1.986 . S
Mg598 O614 1.942 . S
Mg598 O615 1.955 . S
C599 O610 1.191 . S
C599 O612 1.307 1_455 S
O600 Mg595 2.013 . S
O600 C619 1.191 . S
O601 Mg592 2.081 . S
O601 C609 1.331 1_455 S
O602 Mg598 1.986 . S
O602 C619 1.307 . S
O603 Mg592 2.023 . S
O603 C618 1.264 1_455 S
O604 Mg593 1.942 . S
O604 C609 1.244 . S
O605 Mg593 1.955 . S
O605 C618 1.273 . S
O606 Mg595 2.114 . S
O606 Mg597 2.291 . S
O606 C608 1.312 . S
O607 Mg592 2.031 . S
O607 C608 1.208 . S
C608 O606 1.312 . S
C608 O607 1.208 . S
C609 O601 1.331 1_655 S
C609 O604 1.244 . S
O610 Mg595 2.013 . S
O610 C599 1.191 . S
O611 C590 1.331 . S
O611 Mg597 2.081 . S
O612 Mg593 1.986 . S
O612 C599 1.307 1_655 S
O613 C591 1.264 . S
O613 Mg597 2.023 . S
O614 C590 1.244 . S
O614 Mg598 1.942 . S
O615 C591 1.273 . S
O615 Mg598 1.955 . S
O616 C589 1.312 . S
O616 Mg592 2.291 . S
O616 Mg595 2.114 . S
O617 C589 1.208 . S
O617 Mg597 2.031 . S
C618 O603 1.264 1_655 S
C618 O605 1.273 . S
C619 O600 1.191 . S
C619 O602 1.307 . S
C556 C53 2.349 . S
C115 C559 2.354 . S
C177 C590 2.331 . S
C525 C239 2.305 . S
C560 C47 2.261 . S
C591 C109 2.176 . S
C516 C171 2.034 . S
C547 C233 2.126 1_565 S
C29 C577 1.944 . S
C277 C546 1.958 . S
C153 C506 1.800 . S
C599 C339 1.832 1_455 S
C527 C35 2.838 . S
C283 C526 2.667 1_655 S
C159 C619 2.744 . S
C558 C345 2.828 . S
C419 C618 2.193 . S
C301 C497 2.311 . S
C487 C528 2.228 . S
C363 C587 2.224 . S
C498 C425 2.453 . S
C295 C529 2.262 . S
C481 C578 2.117 . S
C609 C357 2.165 . S
C407 C515 2.970 . S
C91 C608 1.900 . S
C463 C568 1.842 . S
C537 C215 1.802 . S
C589 C401 1.806 . S
C588 C97 2.702 . S
C557 C469 2.674 . S
C496 C221 2.901 . S
