# Generated by pormake.
# Topology eea, (3,6)-cn, num edge types: 1
# Building blocks:
#     Node 0, Type 0, BuildingBlock: BETDAH_clean_linker_0, # of connection points: 3
#     Node 1, Type 0, BuildingBlock: BETDAH_clean_linker_0, # of connection points: 3
#     Node 2, Type 0, BuildingBlock: BETDAH_clean_linker_0, # of connection points: 3
#     Node 3, Type 0, BuildingBlock: BETDAH_clean_linker_0, # of connection points: 3
#     Node 4, Type 0, BuildingBlock: BETDAH_clean_linker_0, # of connection points: 3
#     Node 5, Type 0, BuildingBlock: BETDAH_clean_linker_0, # of connection points: 3
#     Node 6, Type 0, BuildingBlock: BETDAH_clean_linker_0, # of connection points: 3
#     Node 7, Type 0, BuildingBlock: BETDAH_clean_linker_0, # of connection points: 3
#     Node 8, Type 0, BuildingBlock: BETDAH_clean_linker_0, # of connection points: 3
#     Node 9, Type 0, BuildingBlock: BETDAH_clean_linker_0, # of connection points: 3
#     Node 10, Type 0, BuildingBlock: BETDAH_clean_linker_0, # of connection points: 3
#     Node 11, Type 0, BuildingBlock: BETDAH_clean_linker_0, # of connection points: 3
#     Node 12, Type 0, BuildingBlock: BETDAH_clean_linker_0, # of connection points: 3
#     Node 13, Type 0, BuildingBlock: BETDAH_clean_linker_0, # of connection points: 3
#     Node 14, Type 0, BuildingBlock: BETDAH_clean_linker_0, # of connection points: 3
#     Node 15, Type 0, BuildingBlock: BETDAH_clean_linker_0, # of connection points: 3
#     Node 16, Type 0, BuildingBlock: BETDAH_clean_linker_0, # of connection points: 3
#     Node 17, Type 0, BuildingBlock: BETDAH_clean_linker_0, # of connection points: 3
#     Node 18, Type 1, BuildingBlock: KUMBUR_clean_sbu_0, # of connection points: 6
#     Node 19, Type 1, BuildingBlock: KUMBUR_clean_sbu_0, # of connection points: 6
#     Node 20, Type 1, BuildingBlock: KUMBUR_clean_sbu_0, # of connection points: 6
#     Node 21, Type 1, BuildingBlock: KUMBUR_clean_sbu_0, # of connection points: 6
#     Node 22, Type 1, BuildingBlock: KUMBUR_clean_sbu_0, # of connection points: 6
#     Node 23, Type 1, BuildingBlock: KUMBUR_clean_sbu_0, # of connection points: 6
#     Node 24, Type 1, BuildingBlock: KUMBUR_clean_sbu_0, # of connection points: 6
#     Node 25, Type 1, BuildingBlock: KUMBUR_clean_sbu_0, # of connection points: 6
#     Node 26, Type 1, BuildingBlock: KUMBUR_clean_sbu_0, # of connection points: 6
#     Edge 27, Type (0, 1), BuildingBlock: TEMPAE_clean_linker_10, # of connection points: 2
#     Edge 28, Type (0, 1), BuildingBlock: TEMPAE_clean_linker_10, # of connection points: 2
#     Edge 29, Type (0, 1), BuildingBlock: TEMPAE_clean_linker_10, # of connection points: 2
#     Edge 30, Type (0, 1), BuildingBlock: TEMPAE_clean_linker_10, # of connection points: 2
#     Edge 31, Type (0, 1), BuildingBlock: TEMPAE_clean_linker_10, # of connection points: 2
#     Edge 32, Type (0, 1), BuildingBlock: TEMPAE_clean_linker_10, # of connection points: 2
#     Edge 33, Type (0, 1), BuildingBlock: TEMPAE_clean_linker_10, # of connection points: 2
#     Edge 34, Type (0, 1), BuildingBlock: TEMPAE_clean_linker_10, # of connection points: 2
#     Edge 35, Type (0, 1), BuildingBlock: TEMPAE_clean_linker_10, # of connection points: 2
#     Edge 36, Type (0, 1), BuildingBlock: TEMPAE_clean_linker_10, # of connection points: 2
#     Edge 37, Type (0, 1), BuildingBlock: TEMPAE_clean_linker_10, # of connection points: 2
#     Edge 38, Type (0, 1), BuildingBlock: TEMPAE_clean_linker_10, # of connection points: 2
#     Edge 39, Type (0, 1), BuildingBlock: TEMPAE_clean_linker_10, # of connection points: 2
#     Edge 40, Type (0, 1), BuildingBlock: TEMPAE_clean_linker_10, # of connection points: 2
#     Edge 41, Type (0, 1), BuildingBlock: TEMPAE_clean_linker_10, # of connection points: 2
#     Edge 42, Type (0, 1), BuildingBlock: TEMPAE_clean_linker_10, # of connection points: 2
#     Edge 43, Type (0, 1), BuildingBlock: TEMPAE_clean_linker_10, # of connection points: 2
#     Edge 44, Type (0, 1), BuildingBlock: TEMPAE_clean_linker_10, # of connection points: 2
#     Edge 45, Type (0, 1), BuildingBlock: TEMPAE_clean_linker_10, # of connection points: 2
#     Edge 46, Type (0, 1), BuildingBlock: TEMPAE_clean_linker_10, # of connection points: 2
#     Edge 47, Type (0, 1), BuildingBlock: TEMPAE_clean_linker_10, # of connection points: 2
#     Edge 48, Type (0, 1), BuildingBlock: TEMPAE_clean_linker_10, # of connection points: 2
#     Edge 49, Type (0, 1), BuildingBlock: TEMPAE_clean_linker_10, # of connection points: 2
#     Edge 50, Type (0, 1), BuildingBlock: TEMPAE_clean_linker_10, # of connection points: 2
#     Edge 51, Type (0, 1), BuildingBlock: TEMPAE_clean_linker_10, # of connection points: 2
#     Edge 52, Type (0, 1), BuildingBlock: TEMPAE_clean_linker_10, # of connection points: 2
#     Edge 53, Type (0, 1), BuildingBlock: TEMPAE_clean_linker_10, # of connection points: 2
#     Edge 54, Type (0, 1), BuildingBlock: TEMPAE_clean_linker_10, # of connection points: 2
#     Edge 55, Type (0, 1), BuildingBlock: TEMPAE_clean_linker_10, # of connection points: 2
#     Edge 56, Type (0, 1), BuildingBlock: TEMPAE_clean_linker_10, # of connection points: 2
#     Edge 57, Type (0, 1), BuildingBlock: TEMPAE_clean_linker_10, # of connection points: 2
#     Edge 58, Type (0, 1), BuildingBlock: TEMPAE_clean_linker_10, # of connection points: 2
#     Edge 59, Type (0, 1), BuildingBlock: TEMPAE_clean_linker_10, # of connection points: 2
#     Edge 60, Type (0, 1), BuildingBlock: TEMPAE_clean_linker_10, # of connection points: 2
#     Edge 61, Type (0, 1), BuildingBlock: TEMPAE_clean_linker_10, # of connection points: 2
#     Edge 62, Type (0, 1), BuildingBlock: TEMPAE_clean_linker_10, # of connection points: 2
#     Edge 63, Type (0, 1), BuildingBlock: TEMPAE_clean_linker_10, # of connection points: 2
#     Edge 64, Type (0, 1), BuildingBlock: TEMPAE_clean_linker_10, # of connection points: 2
#     Edge 65, Type (0, 1), BuildingBlock: TEMPAE_clean_linker_10, # of connection points: 2
#     Edge 66, Type (0, 1), BuildingBlock: TEMPAE_clean_linker_10, # of connection points: 2
#     Edge 67, Type (0, 1), BuildingBlock: TEMPAE_clean_linker_10, # of connection points: 2
#     Edge 68, Type (0, 1), BuildingBlock: TEMPAE_clean_linker_10, # of connection points: 2
#     Edge 69, Type (0, 1), BuildingBlock: TEMPAE_clean_linker_10, # of connection points: 2
#     Edge 70, Type (0, 1), BuildingBlock: TEMPAE_clean_linker_10, # of connection points: 2
#     Edge 71, Type (0, 1), BuildingBlock: TEMPAE_clean_linker_10, # of connection points: 2
#     Edge 72, Type (0, 1), BuildingBlock: TEMPAE_clean_linker_10, # of connection points: 2
#     Edge 73, Type (0, 1), BuildingBlock: TEMPAE_clean_linker_10, # of connection points: 2
#     Edge 74, Type (0, 1), BuildingBlock: TEMPAE_clean_linker_10, # of connection points: 2
#     Edge 75, Type (0, 1), BuildingBlock: TEMPAE_clean_linker_10, # of connection points: 2
#     Edge 76, Type (0, 1), BuildingBlock: TEMPAE_clean_linker_10, # of connection points: 2
#     Edge 77, Type (0, 1), BuildingBlock: TEMPAE_clean_linker_10, # of connection points: 2
#     Edge 78, Type (0, 1), BuildingBlock: TEMPAE_clean_linker_10, # of connection points: 2
#     Edge 79, Type (0, 1), BuildingBlock: TEMPAE_clean_linker_10, # of connection points: 2
#     Edge 80, Type (0, 1), BuildingBlock: TEMPAE_clean_linker_10, # of connection points: 2
# Relax obj value: 0.023
# Max RMSD: 0.163
# Mean RMSD: 0.118
data_MOF--net-eea--node1-KUMBUR_clean_sbu_0--node2-BETDAH_clean_linker_0--edge1-TEMPAE_clean_linker_10
_symmetry_space_group_name_H-M    P1
_symmetry_Int_Tables_number       1
_symmetry_cell_setting            triclinic
loop_
_symmetry_equiv_pos_as_xyz
'x, y, z'
_cell_length_a     55.236895
_cell_length_b     56.555204
_cell_length_c     67.187009
_cell_angle_alpha  90.102059
_cell_angle_beta   90.085379
_cell_angle_gamma 119.99513
loop_
_atom_site_label
_atom_site_type_symbol
_atom_site_fract_x
_atom_site_fract_y
_atom_site_fract_z
_atom_type_partial_charge
H0 H 0.25031 0.07433 0.44158 0.0
H1 H 0.25585 0.15086 0.42584 0.0
H2 H 0.23037 0.08716 0.38224 0.0
C3 C 0.24761 0.08715 0.43089 0.0
C4 C 0.23915 0.07743 0.41143 0.0
C5 C 0.25403 0.11377 0.43627 0.0
C6 C 0.25107 0.13038 0.42193 0.0
C7 C 0.24254 0.12061 0.40241 0.0
C8 C 0.23696 0.09444 0.39732 0.0
N9 N 0.24015 0.13661 0.38716 0.0
C10 C 0.23693 0.15915 0.39014 0.0
H11 H 0.94989 0.18211 0.43765 0.0
H12 H 0.88274 0.09864 0.43331 0.0
H13 H 0.94717 0.13126 0.38903 0.0
C14 C 0.9397 0.16265 0.42995 0.0
C15 C 0.95136 0.15961 0.41218 0.0
C16 C 0.91499 0.14075 0.43783 0.0
C17 C 0.90186 0.11557 0.42756 0.0
C18 C 0.91353 0.1123 0.40989 0.0
C19 C 0.93819 0.1342 0.4025 0.0
N20 N 0.90159 0.08729 0.39919 0.0
C21 C 0.87456 0.06547 0.40138 0.0
H22 H 0.83628 0.77444 0.43966 0.0
H23 H 0.92034 0.78866 0.43355 0.0
H24 H 0.88641 0.8189 0.38942 0.0
C25 C 0.85581 0.7832 0.43157 0.0
C26 C 0.85827 0.7967 0.41345 0.0
C27 C 0.87803 0.78019 0.4391 0.0
C28 C 0.90299 0.79051 0.42792 0.0
C29 C 0.90591 0.80452 0.40995 0.0
C30 C 0.88366 0.80761 0.40305 0.0
N31 N 0.93118 0.8174 0.39878 0.0
C32 C 0.95278 0.81135 0.39868 0.0
H33 H 0.06657 0.23701 0.59537 0.0
H34 H 0.13554 0.22178 0.60039 0.0
H35 H 0.07017 0.18941 0.64397 0.0
C36 C 0.07714 0.22803 0.60322 0.0
C37 C 0.06537 0.21334 0.6209 0.0
C38 C 0.10238 0.23111 0.59551 0.0
C39 C 0.11612 0.21952 0.60599 0.0
C40 C 0.1045 0.20462 0.62357 0.0
C41 C 0.07918 0.20146 0.63068 0.0
N42 N 0.11662 0.19127 0.63414 0.0
C43 C 0.14458 0.19788 0.63401 0.0
H44 H 0.76464 0.83096 0.59298 0.0
H45 H 0.76298 0.90484 0.60604 0.0
H46 H 0.7929 0.87029 0.64986 0.0
C47 C 0.76865 0.84753 0.60308 0.0
C48 C 0.77963 0.84831 0.62206 0.0
C49 C 0.76234 0.86774 0.5972 0.0
C50 C 0.76797 0.88932 0.61038 0.0
C51 C 0.77889 0.89004 0.62946 0.0
C52 C 0.7844 0.86948 0.63515 0.0
N53 N 0.78409 0.91058 0.64368 0.0
C54 C 0.78387 0.93455 0.63988 0.0
H55 H 0.17528 0.93807 0.59053 0.0
H56 H 0.09314 0.86798 0.59956 0.0
H57 H 0.12617 0.93521 0.6408 0.0
C58 C 0.15626 0.92722 0.59916 0.0
C59 C 0.15352 0.93932 0.6166 0.0
C60 C 0.13478 0.9013 0.59285 0.0
C61 C 0.10995 0.88779 0.60421 0.0
C62 C 0.10688 0.90021 0.62151 0.0
C63 C 0.1287 0.92574 0.62752 0.0
N64 N 0.08197 0.88863 0.63298 0.0
C65 C 0.06126 0.86127 0.63379 0.0
H66 H 0.90687 0.40023 0.77922 0.0
H67 H 0.89088 0.46715 0.7735 0.0
H68 H 0.85182 0.39885 0.7334 0.0
C69 C 0.89659 0.40981 0.77174 0.0
C70 C 0.87894 0.39657 0.7555 0.0
C71 C 0.90081 0.43517 0.77851 0.0
C72 C 0.88786 0.44769 0.76836 0.0
C73 C 0.87002 0.43436 0.75211 0.0
C74 C 0.86547 0.40885 0.74601 0.0
N75 N 0.85564 0.44543 0.74173 0.0
C76 C 0.86253 0.47261 0.74217 0.0
H77 H 0.62063 0.5097 0.7737 0.0
H78 H 0.53928 0.44136 0.76163 0.0
H79 H 0.59728 0.47731 0.71398 0.0
C80 C 0.60597 0.49547 0.76298 0.0
C81 C 0.61365 0.49628 0.74279 0.0
C82 C 0.57898 0.47636 0.76978 0.0
C83 C 0.56005 0.45617 0.7566 0.0
C84 C 0.56731 0.4564 0.73656 0.0
C85 C 0.59339 0.47683 0.72977 0.0
N86 N 0.54852 0.43754 0.72231 0.0
C87 C 0.52516 0.41234 0.72639 0.0
H88 H 0.51353 0.12811 0.7759 0.0
H89 H 0.57465 0.10438 0.76155 0.0
H90 H 0.53887 0.12811 0.71533 0.0
C91 C 0.52541 0.12409 0.76506 0.0
C92 C 0.52293 0.12896 0.7447 0.0
C93 C 0.54279 0.11376 0.77159 0.0
C94 C 0.5611 0.11228 0.7575 0.0
C95 C 0.56045 0.11893 0.73745 0.0
C96 C 0.54055 0.12576 0.73115 0.0
N97 N 0.57701 0.11584 0.72259 0.0
C98 C 0.6046 0.12155 0.72449 0.0
H99 H 0.73466 0.56918 0.928 0.0
H100 H 0.80349 0.55361 0.93259 0.0
H101 H 0.73817 0.52109 0.97623 0.0
C102 C 0.74524 0.56012 0.93573 0.0
C103 C 0.73348 0.54532 0.95337 0.0
C104 C 0.77045 0.56323 0.92792 0.0
C105 C 0.78413 0.55141 0.93826 0.0
C106 C 0.77246 0.53633 0.95578 0.0
C107 C 0.74722 0.53325 0.96299 0.0
N108 N 0.78429 0.52252 0.96613 0.0
C109 C 0.8122 0.52896 0.9663 0.0
H110 H 0.43099 0.165 0.9243 0.0
H111 H 0.43258 0.2405 0.93767 0.0
H112 H 0.45778 0.20235 0.98181 0.0
C113 C 0.43559 0.18176 0.93434 0.0
C114 C 0.44534 0.18144 0.95357 0.0
C115 C 0.43054 0.20283 0.92841 0.0
C116 C 0.43601 0.22398 0.94203 0.0
C117 C 0.44572 0.2236 0.96134 0.0
C118 C 0.45013 0.20233 0.96693 0.0
N119 N 0.45099 0.24386 0.97582 0.0
C120 C 0.4511 0.26808 0.97238 0.0
H121 H 0.83706 0.27091 0.92241 0.0
H122 H 0.75334 0.20277 0.92942 0.0
H123 H 0.78644 0.26895 0.97154 0.0
C124 C 0.81759 0.26062 0.93061 0.0
C125 C 0.8146 0.27289 0.9479 0.0
C126 C 0.79556 0.23549 0.92357 0.0
C127 C 0.77054 0.22198 0.93468 0.0
C128 C 0.76731 0.23427 0.95199 0.0
C129 C 0.78919 0.25968 0.95823 0.0
N130 N 0.74197 0.22294 0.96296 0.0
C131 C 0.72179 0.19545 0.96445 0.0
H132 H 0.57869 0.73722 0.10881 0.0
H133 H 0.58489 0.81464 0.09529 0.0
H134 H 0.55851 0.75261 0.05027 0.0
C135 C 0.57602 0.75052 0.09856 0.0
C136 C 0.5674 0.74162 0.07897 0.0
C137 C 0.58272 0.77699 0.10461 0.0
C138 C 0.57986 0.79426 0.09085 0.0
C139 C 0.5711 0.7853 0.07122 0.0
C140 C 0.56522 0.75926 0.06545 0.0
N141 N 0.56878 0.80198 0.05651 0.0
C142 C 0.5668 0.82509 0.06018 0.0
H143 H 0.2793 0.84859 0.10062 0.0
H144 H 0.22129 0.76171 0.10505 0.0
H145 H 0.28185 0.79299 0.05846 0.0
C146 C 0.27127 0.8278 0.09562 0.0
C147 C 0.28361 0.82342 0.07875 0.0
C148 C 0.2488 0.80584 0.10573 0.0
C149 C 0.23789 0.77927 0.09763 0.0
C150 C 0.24939 0.77488 0.08031 0.0
C151 C 0.27246 0.79682 0.07131 0.0
N152 N 0.23941 0.74844 0.07211 0.0
C153 C 0.21185 0.72717 0.07294 0.0
H154 H 0.16618 0.43595 0.10445 0.0
H155 H 0.25051 0.45059 0.09861 0.0
H156 H 0.21714 0.48214 0.05509 0.0
C157 C 0.18572 0.44455 0.09639 0.0
C158 C 0.18848 0.45874 0.07856 0.0
C159 C 0.20788 0.44141 0.10395 0.0
C160 C 0.23328 0.4528 0.09318 0.0
C161 C 0.2365 0.46744 0.07549 0.0
C162 C 0.21419 0.47039 0.06851 0.0
N163 N 0.26204 0.48087 0.06462 0.0
C164 C 0.28384 0.47509 0.06457 0.0
H165 H 0.40184 0.90334 0.26203 0.0
H166 H 0.47116 0.88847 0.26593 0.0
H167 H 0.40623 0.85514 0.30984 0.0
C168 C 0.41261 0.89436 0.26961 0.0
C169 C 0.40108 0.87938 0.28722 0.0
C170 C 0.43781 0.8977 0.26161 0.0
C171 C 0.45177 0.88605 0.27175 0.0
C172 C 0.44037 0.87082 0.28924 0.0
C173 C 0.41508 0.86743 0.29663 0.0
N174 N 0.45258 0.85724 0.29939 0.0
C175 C 0.48063 0.86412 0.29934 0.0
H176 H 0.11354 0.50745 0.26079 0.0
H177 H 0.09666 0.57295 0.27193 0.0
H178 H 0.11656 0.53629 0.32043 0.0
C179 C 0.11231 0.52173 0.27095 0.0
C180 C 0.11669 0.52003 0.29135 0.0
C181 C 0.10493 0.54063 0.26369 0.0
C182 C 0.10235 0.55831 0.27723 0.0
C183 C 0.1064 0.55647 0.29773 0.0
C184 C 0.11331 0.5373 0.30461 0.0
N185 N 0.1027 0.57279 0.31206 0.0
C186 C 0.10627 0.59846 0.30836 0.0
H187 H 0.50549 0.6062 0.25583 0.0
H188 H 0.42349 0.53584 0.2644 0.0
H189 H 0.45811 0.60016 0.30803 0.0
C190 C 0.48656 0.59512 0.26452 0.0
C191 C 0.48454 0.60598 0.28282 0.0
C192 C 0.46474 0.56974 0.25768 0.0
C193 C 0.4406 0.55517 0.26956 0.0
C194 C 0.43822 0.56642 0.28771 0.0
C195 C 0.46018 0.5916 0.29411 0.0
N196 N 0.41376 0.55417 0.29963 0.0
C197 C 0.39313 0.52679 0.2999 0.0
Tb198 Tb 0.49551 0.98808 0.9923 0.0
C199 C 0.54518 0.08328 0.05166 0.0
C200 C 0.59429 0.09751 0.05323 0.0
C201 C 0.57927 0.13078 0.05842 0.0
C202 C 0.56624 0.07714 0.05005 0.0
C203 C 0.55128 0.11003 0.05622 0.0
C204 C 0.60077 0.1245 0.05698 0.0
C205 C 0.5016 0.09317 0.05781 0.0
N206 N 0.51851 0.06258 0.04967 0.0
C207 C 0.49667 0.06691 0.05347 0.0
C208 C 0.52904 0.11491 0.05895 0.0
Tb209 Tb 0.51238 0.02064 0.04112 0.0
N210 N 0.55903 0.05085 0.04635 0.0
C211 C 0.57898 0.04326 0.04689 0.0
C212 C 0.61483 0.08996 0.05308 0.0
C213 C 0.60711 0.06268 0.05001 0.0
H214 H 0.47538 0.05029 0.05246 0.0
H215 H 0.62281 0.05657 0.05008 0.0
H216 H 0.62224 0.14052 0.05921 0.0
H217 H 0.48425 0.09662 0.06024 0.0
H218 H 0.57359 0.02235 0.0445 0.0
H219 H 0.3839 0.94665 0.98489 0.0
H220 H 0.63657 0.10488 0.05578 0.0
H221 H 0.53543 0.96151 0.97997 0.0
H222 H 0.4327 0.98291 0.9895 0.0
H223 H 0.52887 0.91639 0.97127 0.0
H224 H 0.58446 0.15154 0.06175 0.0
H225 H 0.37262 0.89896 0.97938 0.0
H226 H 0.38967 0.86559 0.97459 0.0
H227 H 0.53282 0.13521 0.06239 0.0
H228 H 0.42919 0.85735 0.97073 0.0
N229 N 0.44933 0.95613 0.98732 0.0
C230 C 0.42831 0.96229 0.98711 0.0
C231 C 0.39417 0.91481 0.98151 0.0
C232 C 0.41585 0.90885 0.98063 0.0
C233 C 0.40047 0.94172 0.98451 0.0
C234 C 0.44354 0.9303 0.9834 0.0
H235 H 0.48123 0.87628 0.96913 0.0
N236 N 0.49186 0.94723 0.98328 0.0
C237 C 0.51088 0.91869 0.97412 0.0
C238 C 0.4656 0.92567 0.98121 0.0
C239 C 0.51449 0.94431 0.97906 0.0
C240 C 0.48396 0.89609 0.97295 0.0
C241 C 0.46087 0.89947 0.97625 0.0
O242 O 0.52156 0.0042 0.96728 0.0
O243 O 0.52544 0.02101 0.01089 0.0
O244 O 0.50915 0.04846 0.02016 0.0
O245 O 0.48057 0.0174 0.99589 0.0
O246 O 0.54081 0.00432 0.99142 0.0
O247 O 0.47965 0.99694 0.96637 0.0
O248 O 0.48858 0.01095 0.06746 0.0
O249 O 0.48231 0.98807 0.02252 0.0
O250 O 0.49856 0.9598 0.01277 0.0
O251 O 0.52589 0.99007 0.03791 0.0
O252 O 0.4671 0.00443 0.04239 0.0
O253 O 0.52452 0.00584 0.0657 0.0
C254 C 0.54799 0.02328 1.00453 0.0
C255 C 0.50031 0.99513 0.93569 0.0
C256 C 0.50678 0.00473 0.89969 0.0
C257 C 0.50539 0.01289 0.91946 0.0
C258 C 0.50303 0.97832 0.89688 0.0
C259 C 0.49552 0.96875 0.9321 0.0
C260 C 0.49697 0.96049 0.91283 0.0
C261 C 0.49202 0.04166 1.00468 0.0
C262 C 0.50262 0.0051 0.95636 0.0
C263 C 0.43331 0.87771 0.97433 0.0
C264 C 0.41081 0.8824 0.97654 0.0
C265 C 0.45984 0.98568 0.02913 0.0
C266 C 0.5126 0.01475 0.09755 0.0
C267 C 0.5025 0.99682 0.11397 0.0
C268 C 0.51022 0.00682 0.13365 0.0
C269 C 0.52794 0.0351 0.13645 0.0
C270 C 0.53032 0.04274 0.10087 0.0
C271 C 0.53787 0.0528 0.12021 0.0
C272 C 0.51483 0.96608 0.0287 0.0
C273 C 0.50461 0.00408 0.07707 0.0
H274 H 0.50838 0.03299 0.92243 0.0
H275 H 0.5052 0.97128 0.88238 0.0
H276 H 0.49137 0.95473 0.94421 0.0
H277 H 0.49394 0.94027 0.91028 0.0
H278 H 0.489 0.97513 0.11139 0.0
H279 H 0.53389 0.04367 0.15127 0.0
H280 H 0.5383 0.0568 0.08853 0.0
H281 H 0.55145 0.07448 0.12264 0.0
Tb282 Tb 0.02468 0.51056 0.99307 0.0
C283 C 0.92759 0.46824 0.05097 0.0
C284 C 0.91607 0.50427 0.0512 0.0
C285 C 0.87979 0.45745 0.05732 0.0
C286 C 0.93573 0.49552 0.04847 0.0
C287 C 0.89974 0.44908 0.05603 0.0
C288 C 0.88797 0.48503 0.05499 0.0
C289 C 0.91422 0.41573 0.0612 0.0
N290 N 0.94748 0.46091 0.05013 0.0
C291 C 0.94159 0.43552 0.05636 0.0
C292 C 0.89307 0.42237 0.06062 0.0
Tb293 Tb 0.99108 0.49425 0.04068 0.0
N294 N 0.96317 0.51366 0.04481 0.0
C295 C 0.97234 0.54114 0.0453 0.0
C296 C 0.92537 0.5322 0.05086 0.0
C297 C 0.95361 0.55067 0.04803 0.0
H298 H 0.95783 0.43022 0.05694 0.0
H299 H 0.96106 0.57238 0.04805 0.0
H300 H 0.87257 0.49139 0.05681 0.0
H301 H 0.9095 0.3954 0.06541 0.0
H302 H 0.99384 0.55637 0.04321 0.0
H303 H 0.0555 0.43407 0.98471 0.0
H304 H 0.91111 0.53977 0.05346 0.0
H305 H 0.05937 0.57693 0.98342 0.0
H306 H 0.02219 0.45057 0.98854 0.0
H307 H 0.10842 0.61291 0.97783 0.0
H308 H 0.85823 0.44297 0.06093 0.0
H309 H 0.10613 0.46696 0.98221 0.0
H310 H 0.14505 0.51588 0.98094 0.0
H311 H 0.87192 0.40706 0.06454 0.0
H312 H 0.15955 0.56471 0.97919 0.0
N313 N 0.05358 0.49269 0.9889 0.0
C314 C 0.04418 0.4653 0.98751 0.0
C315 C 0.09162 0.47439 0.98409 0.0
C316 C 0.10104 0.5024 0.98458 0.0
C317 C 0.06304 0.45578 0.98537 0.0
C318 C 0.0812 0.51095 0.98679 0.0
H319 H 0.14595 0.60111 0.97767 0.0
N320 N 0.06923 0.54527 0.98692 0.0
C321 C 0.10335 0.592 0.98013 0.0
C322 C 0.08935 0.53826 0.98582 0.0
C323 C 0.0756 0.57157 0.98322 0.0
C324 C 0.12449 0.58527 0.98011 0.0
C325 C 0.11756 0.55803 0.98261 0.0
O326 O 0.01925 0.52803 0.96705 0.0
O327 O 0.98971 0.50643 0.01043 0.0
O328 O 0.96393 0.45937 0.02148 0.0
O329 O 0.99031 0.46787 0.99236 0.0
O330 O 0.00923 0.53957 0.99241 0.0
O331 O 0.01329 0.4873 0.9667 0.0
O332 O 0.02508 0.50963 0.06074 0.0
O333 O 0.02381 0.49557 0.02268 0.0
O334 O 0.05323 0.53954 0.01505 0.0
O335 O 0.02162 0.5383 0.03835 0.0
O336 O 1.00193 0.46188 0.03963 0.0
O337 O 0.98336 0.48925 0.07165 0.0
C338 C 0.98835 0.52677 1.0042 0.0
C339 C 0.02754 0.51224 0.93669 0.0
C340 C 0.02353 0.50943 0.90042 0.0
C341 C 0.01106 0.50425 0.91938 0.0
C342 C 0.05286 0.52276 0.89913 0.0
C343 C 0.0567 0.52536 0.93507 0.0
C344 C 0.06927 0.5306 0.91636 0.0
C345 C 0.96814 0.45238 1.0035 0.0
C346 C 0.0137 0.50681 0.95616 0.0
C347 C 0.13769 0.54982 0.98141 0.0
C348 C 0.12943 0.52202 0.98239 0.0
C349 C 0.02321 0.47392 0.02804 0.0
C350 C 0.01753 0.48616 0.09104 0.0
C351 C 0.02784 0.49822 0.10976 0.0
C352 C 0.03658 0.48551 0.1238 0.0
C353 C 0.03545 0.46086 0.11857 0.0
C354 C 0.01577 0.46111 0.0865 0.0
C355 C 0.02498 0.44875 0.10011 0.0
C356 C 0.04685 0.55034 0.03018 0.0
C357 C 0.00955 0.50048 0.0764 0.0
H358 H 0.98848 0.49369 0.92073 0.0
H359 H 0.06316 0.52737 0.8848 0.0
H360 H 0.06977 0.53162 0.94815 0.0
H361 H 0.09181 0.54085 0.91521 0.0
H362 H 0.02865 0.51728 0.11344 0.0
H363 H 0.04272 0.4509 0.12876 0.0
H364 H 0.00734 0.45091 0.07257 0.0
H365 H 0.02398 0.42966 0.09633 0.0
Tb366 Tb 0.5186 0.4995 0.03897 0.0
C367 C 0.46744 0.5461 0.98072 0.0
C368 C 0.41828 0.51258 0.97882 0.0
C369 C 0.43366 0.56054 0.97352 0.0
C370 C 0.44622 0.51944 0.98229 0.0
C371 C 0.46156 0.56699 0.97601 0.0
C372 C 0.41204 0.53334 0.97483 0.0
C373 C 0.51129 0.59846 0.97481 0.0
N374 N 0.49406 0.55131 0.98288 0.0
C375 C 0.51603 0.57694 0.97922 0.0
C376 C 0.48392 0.59353 0.97342 0.0
Tb377 Tb 0.49977 0.51501 0.99107 0.0
N378 N 0.45315 0.50006 0.98622 0.0
C379 C 0.433 0.47304 0.98589 0.0
C380 C 0.39759 0.48503 0.97889 0.0
C381 C 0.405 0.46518 0.98243 0.0
H382 H 0.53728 0.58106 0.98034 0.0
H383 H 0.38916 0.44378 0.9824 0.0
H384 H 0.39065 0.5285 0.97237 0.0
H385 H 0.52874 0.61882 0.97248 0.0
H386 H 0.43816 0.4573 0.98856 0.0
H387 H 0.62975 0.57022 0.04517 0.0
H388 H 0.37599 0.47885 0.97578 0.0
H389 H 0.48127 0.434 0.05119 0.0
H390 H 0.58043 0.55705 0.04115 0.0
H391 H 0.48977 0.39614 0.05885 0.0
H392 H 0.42865 0.57632 0.97005 0.0
H393 H 0.64302 0.53486 0.05003 0.0
H394 H 0.62802 0.48513 0.05382 0.0
H395 H 0.4803 0.6102 0.96989 0.0
H396 H 0.58984 0.43759 0.0575 0.0
N397 N 0.56534 0.51425 0.04303 0.0
C398 C 0.58562 0.54122 0.04321 0.0
C399 C 0.62123 0.52885 0.04804 0.0
C400 C 0.60036 0.50139 0.04872 0.0
C401 C 0.6138 0.54887 0.04545 0.0
C402 C 0.57229 0.49475 0.04637 0.0
H403 H 0.53812 0.40423 0.05972 0.0
N404 N 0.52438 0.46327 0.04724 0.0
C405 C 0.5072 0.41633 0.05592 0.0
C406 C 0.55101 0.46824 0.04853 0.0
C407 C 0.50248 0.43789 0.05163 0.0
C408 C 0.53452 0.42095 0.05635 0.0
C409 C 0.55689 0.44727 0.05295 0.0
O410 O 0.49543 0.48696 0.06556 0.0
O411 O 0.48749 0.50262 0.02142 0.0
O412 O 0.50249 0.54555 0.01227 0.0
O413 O 0.53236 0.54323 0.03572 0.0
O414 O 0.4733 0.47136 0.04106 0.0
O415 O 0.53301 0.52603 0.06371 0.0
O416 O 0.52341 0.52794 0.96472 0.0
O417 O 0.53078 0.51176 0.00859 0.0
O418 O 0.51534 0.46862 0.01798 0.0
O419 O 0.48596 0.47119 0.9942 0.0
O420 O 0.54502 0.54332 0.98924 0.0
O421 O 0.48606 0.48863 0.96623 0.0
C422 C 0.4653 0.48295 0.02831 0.0
C423 C 0.52072 0.505 0.09535 0.0
C424 C 0.51785 0.50876 0.13153 0.0
C425 C 0.51083 0.51267 0.11206 0.0
C426 C 0.53476 0.49682 0.13386 0.0
C427 C 0.53769 0.49338 0.09811 0.0
C428 C 0.5446 0.48928 0.11727 0.0
C429 C 0.52013 0.55587 0.02743 0.0
C430 C 0.51285 0.50898 0.07519 0.0
C431 C 0.58483 0.45344 0.05433 0.0
C432 C 0.60656 0.4805 0.05223 0.0
C433 C 0.55299 0.53151 1.00181 0.0
C434 C 0.49902 0.50978 0.93465 0.0
C435 C 0.50914 0.50185 0.91821 0.0
C436 C 0.50324 0.50634 0.89856 0.0
C437 C 0.48699 0.51896 0.89583 0.0
C438 C 0.48267 0.52197 0.93148 0.0
C439 C 0.47671 0.52652 0.91216 0.0
C440 C 0.49789 0.45841 1.00271 0.0
C441 C 0.50641 0.50586 0.95497 0.0
H442 H 0.49799 0.52198 0.10986 0.0
H443 H 0.54019 0.49303 0.14853 0.0
H444 H 0.54553 0.48741 0.08549 0.0
H445 H 0.55759 0.48013 0.11929 0.0
H446 H 0.52147 0.49209 0.92079 0.0
H447 H 0.48254 0.52345 0.88107 0.0
H448 H 0.4747 0.52817 0.94388 0.0
H449 H 0.46428 0.53619 0.90981 0.0
Tb450 Tb 0.16289 0.32358 0.32661 0.0
C451 C 0.21746 0.41743 0.38744 0.0
C452 C 0.26625 0.43028 0.3881 0.0
C453 C 0.2527 0.46422 0.39521 0.0
C454 C 0.23794 0.41064 0.3849 0.0
C455 C 0.22445 0.44414 0.393 0.0
C456 C 0.27359 0.45727 0.39282 0.0
C457 C 0.17509 0.42845 0.39558 0.0
N458 N 0.1905 0.39733 0.38546 0.0
C459 C 0.16927 0.40219 0.39023 0.0
C460 C 0.20281 0.44962 0.39672 0.0
Tb461 Tb 0.18288 0.35525 0.37568 0.0
N462 N 0.22991 0.38436 0.38035 0.0
C463 C 0.24931 0.37605 0.3799 0.0
C464 C 0.28619 0.42199 0.38705 0.0
C465 C 0.27766 0.39473 0.38301 0.0
H466 H 0.14776 0.38604 0.38929 0.0
H467 H 0.2929 0.38805 0.38235 0.0
H468 H 0.29527 0.47273 0.39509 0.0
H469 H 0.1582 0.43234 0.39879 0.0
H470 H 0.2433 0.35514 0.37679 0.0
H471 H 0.05252 0.28991 0.32139 0.0
H472 H 0.30808 0.4363 0.38983 0.0
H473 H 0.19794 0.29317 0.31192 0.0
H474 H 0.10234 0.3234 0.32551 0.0
H475 H 0.18757 0.24681 0.30263 0.0
H476 H 0.25856 0.48495 0.39929 0.0
H477 H 0.03735 0.24134 0.3153 0.0
H478 H 0.05043 0.20508 0.30996 0.0
H479 H 0.20728 0.46991 0.40096 0.0
H480 H 0.08729 0.19324 0.30491 0.0
N481 N 0.1158 0.29418 0.32248 0.0
C482 C 0.0963 0.30236 0.32291 0.0
C483 C 0.05935 0.25593 0.31732 0.0
C484 C 0.07942 0.24785 0.31597 0.0
C485 C 0.06786 0.28336 0.32061 0.0
C486 C 0.10781 0.26779 0.31841 0.0
H487 H 0.1386 0.20881 0.30179 0.0
N488 N 0.1553 0.2815 0.31686 0.0
C489 C 0.17069 0.25055 0.30629 0.0
C490 C 0.12834 0.26117 0.31552 0.0
C491 C 0.17648 0.27684 0.31152 0.0
C492 C 0.14303 0.22913 0.3059 0.0
C493 C 0.12139 0.23439 0.3102 0.0
O494 O 0.18642 0.33494 0.30011 0.0
O495 O 0.19443 0.35545 0.345 0.0
O496 O 0.1805 0.38454 0.35582 0.0
O497 O 0.15083 0.35496 0.33124 0.0
O498 O 0.2078 0.3383 0.32435 0.0
O499 O 0.14917 0.33766 0.30242 0.0
O500 O 0.15939 0.3446 0.4022 0.0
O501 O 0.15143 0.32343 0.35727 0.0
O502 O 0.16589 0.29446 0.34632 0.0
O503 O 0.1951 0.32398 0.37113 0.0
O504 O 0.13798 0.34065 0.37776 0.0
O505 O 0.19554 0.33998 0.3997 0.0
C506 C 0.21622 0.35697 0.33777 0.0
C507 C 0.16156 0.32988 0.27029 0.0
C508 C 0.16563 0.33726 0.23414 0.0
C509 C 0.17201 0.34765 0.25379 0.0
C510 C 0.14839 0.30893 0.23139 0.0
C511 C 0.14431 0.3018 0.26703 0.0
C512 C 0.13777 0.29144 0.2477 0.0
C513 C 0.16327 0.37893 0.34053 0.0
C514 C 0.16935 0.34067 0.29078 0.0
C515 C 0.09312 0.21404 0.30877 0.0
C516 C 0.07214 0.22077 0.31163 0.0
C517 C 0.12961 0.3219 0.36441 0.0
C518 C 0.18387 0.34808 0.43194 0.0
C519 C 0.17272 0.33011 0.44827 0.0
C520 C 0.18039 0.33983 0.46801 0.0
C521 C 0.19912 0.36789 0.47096 0.0
C522 C 0.20263 0.37581 0.43541 0.0
C523 C 0.21013 0.38562 0.4548 0.0
C524 C 0.18302 0.30013 0.36169 0.0
C525 C 0.17571 0.33775 0.41139 0.0
H526 H 0.18543 0.36938 0.25623 0.0
H527 H 0.14278 0.30031 0.21655 0.0
H528 H 0.13594 0.28786 0.2794 0.0
H529 H 0.12442 0.26971 0.24534 0.0
H530 H 0.15841 0.3086 0.44557 0.0
H531 H 0.20505 0.37631 0.48582 0.0
H532 H 0.21145 0.3899 0.42315 0.0
H533 H 0.2245 0.40713 0.45734 0.0
Tb534 Tb 0.69195 0.84236 0.32729 0.0
C535 C 0.59098 0.79931 0.38276 0.0
C536 C 0.5781 0.83428 0.38432 0.0
C537 C 0.54268 0.78671 0.38902 0.0
C538 C 0.59825 0.82633 0.38119 0.0
C539 C 0.56322 0.77916 0.38699 0.0
C540 C 0.55016 0.81428 0.38783 0.0
C541 C 0.57881 0.74622 0.38907 0.0
N542 N 0.61161 0.79305 0.38134 0.0
C543 C 0.60614 0.76707 0.38528 0.0
C544 C 0.55718 0.75222 0.38971 0.0
Tb545 Tb 0.65555 0.82839 0.37429 0.0
N546 N 0.62543 0.84498 0.37773 0.0
C547 C 0.63402 0.87226 0.37796 0.0
C548 C 0.58682 0.86212 0.38447 0.0
C549 C 0.61487 0.88118 0.38118 0.0
H550 H 0.62269 0.7622 0.38478 0.0
H551 H 0.62183 0.90279 0.3813 0.0
H552 H 0.5343 0.81997 0.39001 0.0
H553 H 0.57446 0.72556 0.39158 0.0
H554 H 0.6556 0.88741 0.37558 0.0
H555 H 0.72789 0.76935 0.32266 0.0
H556 H 0.57222 0.86914 0.38755 0.0
H557 H 0.72372 0.90802 0.31525 0.0
H558 H 0.6931 0.78389 0.32642 0.0
H559 H 0.77166 0.94501 0.30821 0.0
H560 H 0.52117 0.77153 0.39212 0.0
H561 H 0.77766 0.80364 0.3177 0.0
H562 H 0.81478 0.85301 0.31444 0.0
H563 H 0.53607 0.7361 0.39287 0.0
H564 H 0.82683 0.90101 0.31077 0.0
N565 N 0.72275 0.82645 0.32439 0.0
C566 C 0.71468 0.79929 0.32444 0.0
C567 C 0.76252 0.81027 0.31975 0.0
C568 C 0.77063 0.83796 0.31914 0.0
C569 C 0.73441 0.79085 0.32235 0.0
C570 C 0.74993 0.8454 0.32127 0.0
H571 H 0.8108 0.93551 0.30814 0.0
N572 N 0.73559 0.8779 0.31977 0.0
C573 C 0.76774 0.92461 0.31126 0.0
C574 C 0.75664 0.87217 0.31897 0.0
C575 C 0.74055 0.90354 0.3152 0.0
C576 C 0.78979 0.91919 0.3113 0.0
C577 C 0.78431 0.89258 0.31482 0.0
O578 O 0.68423 0.85543 0.29991 0.0
O579 O 0.65747 0.84042 0.34375 0.0
O580 O 0.62739 0.79803 0.35276 0.0
O581 O 0.65994 0.79877 0.33042 0.0
O582 O 0.67618 0.87104 0.3238 0.0
O583 O 0.67893 0.81521 0.30298 0.0
O584 O 0.66243 0.81445 0.40157 0.0
O585 O 0.69007 0.83043 0.3579 0.0
O586 O 0.7202 0.87297 0.34849 0.0
O587 O 0.68819 0.87198 0.37152 0.0
O588 O 0.6711 0.79957 0.37767 0.0
O589 O 0.66891 0.85517 0.39884 0.0
C590 C 0.65595 0.86008 0.33628 0.0
C591 C 0.6915 0.83568 0.27128 0.0
C592 C 0.68702 0.83117 0.23508 0.0
C593 C 0.67497 0.82865 0.25399 0.0
C594 C 0.71595 0.84102 0.23381 0.0
C595 C 0.72023 0.84532 0.26966 0.0
C596 C 0.73237 0.84801 0.251 0.0
C597 C 0.63446 0.78692 0.33817 0.0
C598 C 0.67837 0.83283 0.29081 0.0
C599 C 0.80537 0.8856 0.31376 0.0
C600 C 0.79851 0.85828 0.31585 0.0
C601 C 0.6915 0.81071 0.36533 0.0
C602 C 0.65571 0.83428 0.4304 0.0
C603 C 0.67244 0.84227 0.44761 0.0
C604 C 0.66036 0.83903 0.46662 0.0
C605 C 0.63119 0.82779 0.46797 0.0
C606 C 0.62679 0.82334 0.43214 0.0
C607 C 0.61463 0.82016 0.45083 0.0
C608 C 0.71349 0.88391 0.3634 0.0
C609 C 0.66882 0.83708 0.41085 0.0
H610 H 0.65268 0.82086 0.25532 0.0
H611 H 0.72595 0.84358 0.2195 0.0
H612 H 0.73327 0.85076 0.28274 0.0
H613 H 0.7546 0.85558 0.24985 0.0
H614 H 0.69486 0.85108 0.44614 0.0
H615 H 0.62103 0.8244 0.48229 0.0
H616 H 0.61358 0.81709 0.41914 0.0
H617 H 0.59223 0.81149 0.45207 0.0
Tb618 Tb 0.18547 0.83246 0.37243 0.0
C619 C 0.13799 0.88378 0.31551 0.0
C620 C 0.08853 0.85136 0.31289 0.0
C621 C 0.10537 0.89981 0.30874 0.0
C622 C 0.11617 0.85727 0.3164 0.0
C623 C 0.13297 0.90538 0.31136 0.0
C624 C 0.08318 0.87281 0.30944 0.0
C625 C 0.18292 0.93591 0.311 0.0
N626 N 0.16433 0.88822 0.31791 0.0
C627 C 0.18684 0.91376 0.31488 0.0
C628 C 0.15586 0.93177 0.30946 0.0
Tb629 Tb 0.1684 0.85063 0.32487 0.0
N630 N 0.1222 0.83715 0.31988 0.0
C631 C 0.10147 0.81037 0.31902 0.0
C632 C 0.06723 0.82404 0.31244 0.0
C633 C 0.07374 0.80346 0.31549 0.0
H634 H 0.20787 0.9173 0.31606 0.0
H635 H 0.05742 0.78225 0.31505 0.0
H636 H 0.06203 0.8687 0.30693 0.0
H637 H 0.20079 0.95616 0.30918 0.0
H638 H 0.10603 0.79414 0.32129 0.0
H639 H 0.29672 0.90177 0.38029 0.0
H640 H 0.04583 0.81861 0.30931 0.0
H641 H 0.14712 0.76653 0.38319 0.0
H642 H 0.24765 0.88941 0.37603 0.0
H643 H 0.15477 0.72794 0.38998 0.0
H644 H 0.10103 0.91614 0.3057 0.0
H645 H 0.30924 0.86574 0.38431 0.0
H646 H 0.29347 0.81573 0.38709 0.0
H647 H 0.15289 0.94895 0.30636 0.0
H648 H 0.25475 0.76826 0.3897 0.0
N649 N 0.23197 0.84645 0.37696 0.0
C650 C 0.25251 0.8733 0.37774 0.0
C651 C 0.28755 0.86011 0.38225 0.0
C652 C 0.26639 0.83273 0.38236 0.0
C653 C 0.28054 0.88049 0.38012 0.0
C654 C 0.23848 0.82658 0.37989 0.0
H655 H 0.20286 0.73533 0.39111 0.0
N656 N 0.19045 0.79555 0.38 0.0
C657 C 0.17246 0.74814 0.38756 0.0
C658 C 0.21691 0.8001 0.38145 0.0
C659 C 0.16822 0.77013 0.38376 0.0
C660 C 0.19963 0.75238 0.38813 0.0
C661 C 0.22231 0.77871 0.38538 0.0
O662 O 0.16139 0.81909 0.39858 0.0
O663 O 0.15513 0.83673 0.35484 0.0
O664 O 0.17102 0.88038 0.34672 0.0
O665 O 0.19986 0.87648 0.37026 0.0
O666 O 0.14008 0.80461 0.37374 0.0
O667 O 0.19948 0.85784 0.3978 0.0
O668 O 0.19408 0.86281 0.29955 0.0
O669 O 0.19851 0.8458 0.34234 0.0
O670 O 0.18217 0.80228 0.35076 0.0
O671 O 0.15392 0.80648 0.32681 0.0
O672 O 0.21375 0.87854 0.32396 0.0
O673 O 0.15296 0.8276 0.29833 0.0
C674 C 0.13263 0.81693 0.36123 0.0
C675 C 0.18563 0.83549 0.42893 0.0
C676 C 0.18066 0.83696 0.46508 0.0
C677 C 0.17512 0.84249 0.44565 0.0
C678 C 0.19705 0.82449 0.46743 0.0
C679 C 0.202 0.8232 0.43169 0.0
C680 C 0.20765 0.81775 0.45086 0.0
C681 C 0.18819 0.88978 0.36219 0.0
C682 C 0.17874 0.84055 0.40877 0.0
C683 C 0.25011 0.78444 0.3869 0.0
C684 C 0.27214 0.81145 0.38541 0.0
C685 C 0.22106 0.86577 0.3362 0.0
C686 C 0.17198 0.85222 0.26829 0.0
C687 C 0.17784 0.8413 0.25131 0.0
C688 C 0.17889 0.85215 0.2321 0.0
C689 C 0.1734 0.87396 0.23059 0.0
C690 C 0.16566 0.87314 0.26606 0.0
C691 C 0.16634 0.88388 0.24731 0.0
C692 C 0.1651 0.79292 0.33523 0.0
C693 C 0.17544 0.84358 0.2883 0.0
H694 H 0.1623 0.85184 0.4435 0.0
H695 H 0.20205 0.8203 0.48214 0.0
H696 H 0.21032 0.81776 0.41907 0.0
H697 H 0.22034 0.80828 0.45288 0.0
H698 H 0.18192 0.82464 0.25333 0.0
H699 H 0.17511 0.88408 0.21661 0.0
H700 H 0.161 0.88175 0.2788 0.0
H701 H 0.16209 0.90052 0.2458 0.0
Tb702 Tb 0.8319 0.65567 0.65893 0.0
C703 C 0.88262 0.75066 0.71888 0.0
C704 C 0.93155 0.76425 0.7208 0.0
C705 C 0.91705 0.79786 0.72626 0.0
C706 C 0.90346 0.74422 0.71729 0.0
C707 C 0.889 0.77742 0.72372 0.0
C708 C 0.93831 0.79126 0.72486 0.0
C709 C 0.83941 0.76111 0.72495 0.0
N710 N 0.85587 0.73023 0.71662 0.0
C711 C 0.83419 0.73483 0.72037 0.0
C712 C 0.86695 0.7826 0.7264 0.0
Tb713 Tb 0.84929 0.6882 0.70781 0.0
N714 N 0.89598 0.71793 0.71329 0.0
C715 C 0.91566 0.70999 0.71379 0.0
C716 C 0.95182 0.75636 0.72068 0.0
C717 C 0.94381 0.72907 0.71725 0.0
H718 H 0.81283 0.71841 0.71915 0.0
H719 H 0.95931 0.72269 0.71732 0.0
H720 H 0.95982 0.80703 0.72734 0.0
H721 H 0.82219 0.76478 0.72734 0.0
H722 H 0.91004 0.68906 0.71118 0.0
H723 H 0.7213 0.61818 0.64916 0.0
H724 H 0.97355 0.77098 0.7237 0.0
H725 H 0.86967 0.62662 0.64771 0.0
H726 H 0.77051 0.65309 0.65422 0.0
H727 H 0.86143 0.58047 0.64033 0.0
H728 H 0.92245 0.81863 0.72981 0.0
H729 H 0.70793 0.56962 0.64552 0.0
H730 H 0.72302 0.53446 0.6426 0.0
H731 H 0.87094 0.80291 0.73005 0.0
H732 H 0.76132 0.52419 0.63993 0.0
N733 N 0.7854 0.62484 0.65371 0.0
C734 C 0.76527 0.63212 0.65249 0.0
C735 C 0.72969 0.58491 0.6477 0.0
C736 C 0.75052 0.57776 0.64782 0.0
C737 C 0.73718 0.61231 0.64964 0.0
C738 C 0.77851 0.59853 0.6506 0.0
H739 H 0.81312 0.54134 0.63869 0.0
N740 N 0.82642 0.61386 0.65061 0.0
C741 C 0.84389 0.58364 0.64277 0.0
C742 C 0.79984 0.5928 0.64891 0.0
C743 C 0.84847 0.60983 0.6469 0.0
C744 C 0.8166 0.56159 0.6419 0.0
C745 C 0.79411 0.56608 0.64469 0.0
O746 O 0.85593 0.66625 0.6327 0.0
O747 O 0.86231 0.68816 0.67756 0.0
O748 O 0.84676 0.71654 0.68698 0.0
O749 O 0.81828 0.68605 0.66233 0.0
O750 O 0.87712 0.67133 0.65783 0.0
O751 O 0.81894 0.6696 0.63424 0.0
O752 O 0.82513 0.67812 0.73399 0.0
O753 O 0.81896 0.65628 0.68902 0.0
O754 O 0.83286 0.62695 0.68008 0.0
O755 O 0.86226 0.65724 0.70437 0.0
O756 O 0.80401 0.67254 0.70893 0.0
O757 O 0.86096 0.67286 0.73234 0.0
C758 C 0.88464 0.69016 0.67104 0.0
C759 C 0.83182 0.66134 0.60248 0.0
C760 C 0.83298 0.66909 0.56639 0.0
C761 C 0.83981 0.67931 0.58609 0.0
C762 C 0.81832 0.64057 0.56357 0.0
C763 C 0.81698 0.6331 0.59913 0.0
C764 C 0.81036 0.62284 0.57979 0.0
C765 C 0.82983 0.71015 0.6714 0.0
C766 C 0.83928 0.6722 0.62296 0.0
C767 C 0.76622 0.54494 0.64296 0.0
C768 C 0.74442 0.55078 0.64451 0.0
C769 C 0.79653 0.6541 0.69541 0.0
C770 C 0.8486 0.68126 0.76423 0.0
C771 C 0.83808 0.66308 0.78051 0.0
C772 C 0.84552 0.67276 0.80029 0.0
C773 C 0.86335 0.70098 0.80332 0.0
C774 C 0.86644 0.70916 0.7678 0.0
C775 C 0.87369 0.71891 0.78723 0.0
C776 C 0.84967 0.63288 0.69566 0.0
C777 C 0.84091 0.67096 0.74362 0.0
H778 H 0.851 0.70115 0.58872 0.0
H779 H 0.81321 0.63184 0.54875 0.0
H780 H 0.81064 0.619 0.61145 0.0
H781 H 0.79908 0.60098 0.57733 0.0
H782 H 0.82449 0.64145 0.77774 0.0
H783 H 0.86909 0.70934 0.81821 0.0
H784 H 0.87473 0.7234 0.75558 0.0
H785 H 0.88736 0.74053 0.78985 0.0
Tb786 Tb 0.35868 0.18 0.65961 0.0
C787 C 0.25678 0.1312 0.71463 0.0
C788 C 0.24205 0.16475 0.71735 0.0
C789 C 0.20796 0.11654 0.72091 0.0
C790 C 0.263 0.15798 0.71379 0.0
C791 C 0.22928 0.11012 0.71846 0.0
C792 C 0.21438 0.14385 0.72051 0.0
C793 C 0.2466 0.07848 0.71925 0.0
N794 N 0.27812 0.12604 0.7128 0.0
C795 C 0.27362 0.1002 0.71588 0.0
C796 C 0.22426 0.08341 0.72033 0.0
Tb797 Tb 0.32148 0.16277 0.7064 0.0
N798 N 0.28996 0.17752 0.71064 0.0
C799 C 0.29751 0.20452 0.71161 0.0
C800 C 0.24972 0.19231 0.71826 0.0
C801 C 0.27755 0.21228 0.71529 0.0
H802 H 0.29072 0.09614 0.71502 0.0
H803 H 0.28369 0.23368 0.716 0.0
H804 H 0.19792 0.14863 0.72301 0.0
H805 H 0.24304 0.05797 0.72106 0.0
H806 H 0.31889 0.22034 0.70948 0.0
H807 H 0.39795 0.10991 0.65204 0.0
H808 H 0.23447 0.1984 0.72169 0.0
H809 H 0.38905 0.24615 0.64934 0.0
H810 H 0.36184 0.1228 0.65567 0.0
H811 H 0.43677 0.28455 0.64383 0.0
H812 H 0.18664 0.10063 0.72373 0.0
H813 H 0.44777 0.14556 0.65006 0.0
H814 H 0.48387 0.19552 0.6486 0.0
H815 H 0.20339 0.06659 0.72314 0.0
H816 H 0.49451 0.24324 0.64631 0.0
N817 N 0.39069 0.16563 0.65626 0.0
C818 C 0.38339 0.13874 0.65482 0.0
C819 C 0.43199 0.15142 0.6518 0.0
C820 C 0.43927 0.17891 0.65227 0.0
C821 C 0.40388 0.13126 0.65276 0.0
C822 C 0.41783 0.18536 0.65429 0.0
H823 H 0.47698 0.27664 0.64414 0.0
N824 N 0.40207 0.21678 0.6533 0.0
C825 C 0.43341 0.26423 0.64634 0.0
C826 C 0.42376 0.21198 0.65272 0.0
C827 C 0.40636 0.24237 0.64941 0.0
C828 C 0.45606 0.2597 0.6466 0.0
C829 C 0.45135 0.23323 0.64947 0.0
O830 O 0.35163 0.19433 0.63256 0.0
O831 O 0.32351 0.17624 0.67621 0.0
O832 O 0.29412 0.13323 0.68419 0.0
O833 O 0.32727 0.1359 0.6615 0.0
O834 O 0.34177 0.20785 0.65701 0.0
O835 O 0.34654 0.15408 0.63461 0.0
O836 O 0.32894 0.14822 0.73318 0.0
O837 O 0.35646 0.16657 0.68974 0.0
O838 O 0.38601 0.20961 0.6818 0.0
O839 O 0.3529 0.20686 0.70452 0.0
O840 O 0.33844 0.13491 0.70876 0.0
O841 O 0.33399 0.18849 0.73154 0.0
C842 C 0.32144 0.19587 0.66932 0.0
C843 C 0.36006 0.17615 0.60352 0.0
C844 C 0.35665 0.1722 0.56726 0.0
C845 C 0.34396 0.16895 0.58601 0.0
C846 C 0.38576 0.18298 0.56637 0.0
C847 C 0.38901 0.18678 0.60228 0.0
C848 C 0.40176 0.19021 0.58377 0.0
C849 C 0.30173 0.12312 0.66924 0.0
C850 C 0.34624 0.17225 0.62289 0.0
C851 C 0.4731 0.22719 0.6486 0.0
C852 C 0.46705 0.20003 0.64994 0.0
C853 C 0.35867 0.14693 0.69638 0.0
C854 C 0.32123 0.16619 0.76261 0.0
C855 C 0.33778 0.17315 0.77988 0.0
C856 C 0.32543 0.1686 0.79883 0.0
C857 C 0.2963 0.15725 0.80024 0.0
C858 C 0.29225 0.15501 0.76434 0.0
C859 C 0.27989 0.15062 0.78307 0.0
C860 C 0.37842 0.21973 0.69676 0.0
C861 C 0.33455 0.17024 0.74303 0.0
H862 H 0.32153 0.1604 0.58702 0.0
H863 H 0.3962 0.18606 0.55218 0.0
H864 H 0.40172 0.19239 0.61554 0.0
H865 H 0.42414 0.19851 0.58292 0.0
H866 H 0.36018 0.18158 0.77857 0.0
H867 H 0.28627 0.15372 0.81464 0.0
H868 H 0.27918 0.14957 0.75129 0.0
H869 H 0.25749 0.14196 0.78429 0.0
Tb870 Tb 0.84865 0.16527 0.70468 0.0
C871 C 0.79765 0.21093 0.64468 0.0
C872 C 0.74878 0.1767 0.64272 0.0
C873 C 0.76337 0.22409 0.63571 0.0
C874 C 0.77676 0.18429 0.64695 0.0
C875 C 0.79138 0.23108 0.63848 0.0
C876 C 0.74207 0.19686 0.63773 0.0
C877 C 0.84092 0.26229 0.63526 0.0
N878 N 0.82438 0.2165 0.64672 0.0
C879 C 0.84601 0.24147 0.64123 0.0
C880 C 0.81349 0.25723 0.63424 0.0
Tb881 Tb 0.83108 0.18137 0.65649 0.0
N882 N 0.78423 0.16545 0.65144 0.0
C883 C 0.76461 0.13824 0.65089 0.0
C884 C 0.72867 0.14898 0.64259 0.0
C885 C 0.73661 0.12967 0.64672 0.0
H886 H 0.86732 0.24569 0.642 0.0
H887 H 0.72123 0.10813 0.64648 0.0
H888 H 0.72063 0.19146 0.63473 0.0
H889 H 0.85818 0.28222 0.63147 0.0
H890 H 0.77015 0.12285 0.65386 0.0
H891 H 0.95892 0.23852 0.71245 0.0
H892 H 0.70717 0.14223 0.63866 0.0
H893 H 0.81279 0.09941 0.71603 0.0
H894 H 0.90924 0.22392 0.70801 0.0
H895 H 0.82271 0.06233 0.72336 0.0
H896 H 0.75807 0.23932 0.63116 0.0
H897 H 0.97367 0.20416 0.71688 0.0
H898 H 0.96019 0.15473 0.72001 0.0
H899 H 0.80959 0.27331 0.62944 0.0
H900 H 0.92304 0.10662 0.72292 0.0
N901 N 0.89554 0.18136 0.70923 0.0
C902 C 0.91514 0.20854 0.70988 0.0
C903 C 0.95175 0.19754 0.71473 0.0
C904 C 0.93153 0.16983 0.71496 0.0
C905 C 0.94348 0.21699 0.71237 0.0
C906 C 0.90326 0.16237 0.71238 0.0
H907 H 0.87161 0.07197 0.72452 0.0
N908 N 0.85564 0.12967 0.71252 0.0
C909 C 0.83975 0.08283 0.72071 0.0
C910 C 0.88255 0.1355 0.71405 0.0
C911 C 0.83422 0.10392 0.7166 0.0
C912 C 0.86738 0.08833 0.7213 0.0
C913 C 0.88923 0.11504 0.71828 0.0
O914 O 0.82448 0.15119 0.73078 0.0
O915 O 0.8179 0.16865 0.68678 0.0
O916 O 0.83445 0.21315 0.67691 0.0
O917 O 0.86059 0.20863 0.70262 0.0
O918 O 0.80355 0.13638 0.70569 0.0
O919 O 0.86214 0.19028 0.73022 0.0
O920 O 0.85515 0.19427 0.63025 0.0
O921 O 0.8618 0.17853 0.67461 0.0
O922 O 0.84685 0.13522 0.68353 0.0
O923 O 0.81786 0.13768 0.65942 0.0
O924 O 0.87623 0.21034 0.65553 0.0
O925 O 0.8186 0.15452 0.632 0.0
C926 C 0.79573 0.14839 0.69316 0.0
C927 C 0.84857 0.16767 0.76126 0.0
C928 C 0.84563 0.17105 0.79749 0.0
C929 C 0.83931 0.17588 0.77805 0.0
C930 C 0.86117 0.15765 0.7997 0.0
C931 C 0.86422 0.15462 0.76393 0.0
C932 C 0.8704 0.1496 0.78306 0.0
C933 C 0.84964 0.22191 0.69346 0.0
C934 C 0.84151 0.17266 0.74111 0.0
C935 C 0.91742 0.12207 0.7199 0.0
C936 C 0.93855 0.14945 0.71825 0.0
C937 C 0.88408 0.19863 0.66828 0.0
C938 C 0.83061 0.17514 0.60031 0.0
C939 C 0.84206 0.16886 0.58379 0.0
C940 C 0.8344 0.17156 0.56423 0.0
C941 C 0.81533 0.18095 0.56157 0.0
C942 C 0.81149 0.18421 0.59721 0.0
C943 C 0.80398 0.18716 0.57795 0.0
C944 C 0.82991 0.12507 0.66802 0.0
C945 C 0.83862 0.17192 0.62062 0.0
H946 H 0.82755 0.18633 0.77594 0.0
H947 H 0.86599 0.15311 0.81434 0.0
H948 H 0.8716 0.14825 0.75129 0.0
H949 H 0.88235 0.13935 0.78499 0.0
H950 H 0.85656 0.16149 0.58621 0.0
H951 H 0.80937 0.18379 0.54679 0.0
H952 H 0.80232 0.18895 0.60964 0.0
H953 H 0.78931 0.19433 0.5757 0.0
C954 C 0.31092 0.84924 0.0485 0.0
C955 C 0.30879 0.84644 0.0693 0.0
C956 C 0.33484 0.87063 0.03949 0.0
C957 C 0.35735 0.88949 0.05153 0.0
C958 C 0.35541 0.88656 0.07251 0.0
C959 C 0.33115 0.86521 0.08112 0.0
C960 C 0.33601 0.87305 0.0171 0.0
C961 C 0.37899 0.90608 0.08592 0.0
C962 C 0.43131 0.93465 0.03205 0.0
C963 C 0.43278 0.96008 0.03111 0.0
C964 C 0.40636 0.91105 0.03754 0.0
C965 C 0.38249 0.91308 0.04245 0.0
C966 C 0.38359 0.93853 0.04051 0.0
C967 C 0.40878 0.96173 0.03504 0.0
C968 C 0.40613 0.88434 0.03921 0.0
C969 C 0.35857 0.94158 0.0452 0.0
H970 H 0.29368 0.83487 0.03927 0.0
H971 H 0.32987 0.86293 0.09716 0.0
H972 H 0.34109 0.8939 0.0126 0.0
H973 H 0.35287 0.86969 0.01135 0.0
H974 H 0.316 0.85801 0.00993 0.0
H975 H 0.37464 0.90047 0.10188 0.0
H976 H 0.39862 0.90648 0.08177 0.0
H977 H 0.38258 0.92708 0.084 0.0
H978 H 0.44992 0.93334 0.02942 0.0
H979 H 0.40998 0.98145 0.03443 0.0
H980 H 0.38718 0.86764 0.03202 0.0
H981 H 0.40557 0.87901 0.05515 0.0
H982 H 0.42489 0.88537 0.03229 0.0
H983 H 0.33978 0.92574 0.03726 0.0
H984 H 0.36195 0.96201 0.04102 0.0
H985 H 0.35412 0.9386 0.06139 0.0
C986 C 0.1592 0.45908 0.04975 0.0
C987 C 0.16463 0.46139 0.07033 0.0
C988 C 0.13692 0.46142 0.04172 0.0
C989 C 0.11943 0.46623 0.05448 0.0
C990 C 0.12477 0.46866 0.07526 0.0
C991 C 0.14722 0.46622 0.08291 0.0
C992 C 0.13219 0.45884 0.01951 0.0
C993 C 0.10667 0.47377 0.08944 0.0
C994 C 0.07505 0.4953 0.03399 0.0
C995 C 0.04851 0.4719 0.03258 0.0
C996 C 0.09845 0.49369 0.04048 0.0
C997 C 0.09519 0.46813 0.0462 0.0
C998 C 0.06845 0.44441 0.04459 0.0
C999 C 0.04551 0.4466 0.03785 0.0
C1000 C 0.12649 0.51952 0.04172 0.0
C1001 C 0.06392 0.41673 0.05042 0.0
H1002 H 0.17218 0.45502 0.03986 0.0
H1003 H 0.15133 0.46844 0.09877 0.0
H1004 H 0.11012 0.4436 0.01605 0.0
H1005 H 0.13632 0.47873 0.01342 0.0
H1006 H 0.14601 0.45276 0.01177 0.0
H1007 H 0.11384 0.4757 0.10513 0.0
H1008 H 0.10667 0.49273 0.08522 0.0
H1009 H 0.08475 0.45676 0.08848 0.0
H1010 H 0.0775 0.51503 0.0305 0.0
H1011 H 0.02496 0.42851 0.03706 0.0
H1012 H 0.14238 0.51698 0.03341 0.0
H1013 H 0.13344 0.52379 0.05747 0.0
H1014 H 0.12586 0.53746 0.0356 0.0
H1015 H 0.0785 0.41223 0.0421 0.0
H1016 H 0.04218 0.40013 0.04749 0.0
H1017 H 0.0685 0.41668 0.0665 0.0
C1018 C 0.57222 0.71112 0.05434 0.0
C1019 C 0.56113 0.71414 0.0723 0.0
C1020 C 0.56548 0.68522 0.04723 0.0
C1021 C 0.54709 0.66179 0.05831 0.0
C1022 C 0.53603 0.66471 0.07656 0.0
C1023 C 0.54332 0.69092 0.08341 0.0
C1024 C 0.57798 0.68295 0.02784 0.0
C1025 C 0.51623 0.64013 0.08869 0.0
C1026 C 0.51043 0.59446 0.03022 0.0
C1027 C 0.52678 0.58282 0.03543 0.0
C1028 C 0.51658 0.62003 0.03775 0.0
C1029 C 0.53964 0.63426 0.05078 0.0
C1030 C 0.55609 0.62253 0.0562 0.0
C1031 C 0.54941 0.59691 0.04852 0.0
C1032 C 0.49848 0.63184 0.03169 0.0
C1033 C 0.58098 0.63719 0.06993 0.0
H1034 H 0.58627 0.7291 0.04586 0.0
H1035 H 0.53457 0.69324 0.09721 0.0
H1036 H 0.58997 0.67226 0.03028 0.0
H1037 H 0.5611 0.6706 0.01701 0.0
H1038 H 0.59212 0.70321 0.02113 0.0
H1039 H 0.50955 0.6459 0.10259 0.0
H1040 H 0.49737 0.62665 0.07973 0.0
H1041 H 0.52632 0.62805 0.09269 0.0
H1042 H 0.49267 0.58353 0.02035 0.0
H1043 H 0.56215 0.58808 0.05265 0.0
H1044 H 0.5113 0.6515 0.02385 0.0
H1045 H 0.48965 0.63619 0.0451 0.0
H1046 H 0.481 0.6179 0.02175 0.0
H1047 H 0.5965 0.65698 0.06328 0.0
H1048 H 0.59138 0.62506 0.07291 0.0
H1049 H 0.57437 0.64177 0.08432 0.0
C1050 C 0.83256 0.32039 0.96109 0.0
C1051 C 0.83783 0.29958 0.95516 0.0
C1052 C 0.85408 0.3454 0.9685 0.0
C1053 C 0.88155 0.34968 0.97024 0.0
C1054 C 0.88704 0.32881 0.96417 0.0
C1055 C 0.86517 0.30409 0.9566 0.0
C1056 C 0.84738 0.36721 0.97458 0.0
C1057 C 0.91595 0.33242 0.96596 0.0
C1058 C 0.94215 0.42279 0.97438 0.0
C1059 C 0.94659 0.42585 0.99502 0.0
C1060 C 0.92116 0.39813 0.96609 0.0
C1061 C 0.90438 0.37582 0.97873 0.0
C1062 C 0.90914 0.37867 0.99955 0.0
C1063 C 0.93012 0.40363 0.00741 0.0
C1064 C 0.91662 0.39609 0.94385 0.0
C1065 C 0.89201 0.35534 0.01355 0.0
H1066 H 0.81156 0.31716 0.95979 0.0
H1067 H 0.86932 0.28799 0.95223 0.0
H1068 H 0.85193 0.37193 0.99065 0.0
H1069 H 0.86081 0.38632 0.96628 0.0
H1070 H 0.82514 0.36098 0.9718 0.0
H1071 H 0.91687 0.3144 0.96036 0.0
H1072 H 0.93115 0.35068 0.95751 0.0
H1073 H 0.92272 0.33591 0.98178 0.0
H1074 H 0.95472 0.43992 0.96468 0.0
H1075 H 0.93391 0.40556 0.02325 0.0
H1076 H 0.89509 0.39166 0.94043 0.0
H1077 H 0.91872 0.37895 0.93778 0.0
H1078 H 0.93168 0.41515 0.93605 0.0
H1079 H 0.8696 0.34923 0.01231 0.0
H1080 H 0.89863 0.36072 0.02932 0.0
H1081 H 0.89387 0.33732 0.0094 0.0
C1082 C 0.70395 0.54412 0.98247 0.0
C1083 C 0.70689 0.54227 0.96183 0.0
C1084 C 0.67921 0.54135 0.99072 0.0
C1085 C 0.65657 0.53645 0.97811 0.0
C1086 C 0.65927 0.53427 0.95728 0.0
C1087 C 0.68431 0.53726 0.94942 0.0
C1088 C 0.67736 0.54373 0.01296 0.0
C1089 C 0.63571 0.52899 0.94324 0.0
C1090 C 0.58227 0.50885 0.9981 0.0
C1091 C 0.58021 0.53258 0.99879 0.0
C1092 C 0.60729 0.50986 0.9922 0.0
C1093 C 0.63068 0.53513 0.98647 0.0
C1094 C 0.62886 0.55921 0.98777 0.0
C1095 C 0.6037 0.5576 0.99379 0.0
C1096 C 0.60827 0.48371 0.99137 0.0
C1097 C 0.65324 0.58665 0.98215 0.0
H1098 H 0.72125 0.54823 0.99224 0.0
H1099 H 0.68607 0.53535 0.93351 0.0
H1100 H 0.67091 0.55893 0.0166 0.0
H1101 H 0.66121 0.52378 0.01901 0.0
H1102 H 0.6975 0.54978 0.02058 0.0
H1103 H 0.64063 0.52687 0.92754 0.0
H1104 H 0.61638 0.51007 0.94763 0.0
H1105 H 0.63123 0.54602 0.94417 0.0
H1106 H 0.56409 0.48935 1.00148 0.0
H1107 H 0.60213 0.57596 0.99414 0.0
H1108 H 0.627 0.4862 0.99935 0.0
H1109 H 0.60994 0.47867 0.97565 0.0
H1110 H 0.58938 0.46628 0.99804 0.0
H1111 H 0.67216 0.59062 0.99064 0.0
H1112 H 0.64903 0.60361 0.98503 0.0
H1113 H 0.65801 0.58669 0.96611 0.0
C1114 C 0.43983 0.14608 0.97813 0.0
C1115 C 0.45059 0.15939 0.95999 0.0
C1116 C 0.44623 0.12656 0.98523 0.0
C1117 C 0.46405 0.12044 0.97398 0.0
C1118 C 0.47467 0.13354 0.95549 0.0
C1119 C 0.46764 0.15278 0.94864 0.0
C1120 C 0.43413 0.11268 1.00485 0.0
C1121 C 0.49391 0.12765 0.94319 0.0
C1122 C 0.50134 0.08956 1.0019 0.0
C1123 C 0.48494 0.06186 0.9969 0.0
C1124 C 0.49497 0.10893 0.99437 0.0
C1125 C 0.47156 0.10033 0.98164 0.0
C1126 C 0.45494 0.07241 0.97655 0.0
C1127 C 0.46192 0.05353 0.98416 0.0
C1128 C 0.5133 0.13858 1.00002 0.0
C1129 C 0.42962 0.06243 0.96322 0.0
H1130 H 0.42644 0.15106 0.98682 0.0
H1131 H 0.47615 0.16328 0.93469 0.0
H1132 H 0.42217 0.09021 1.00275 0.0
H1133 H 0.45124 0.11723 0.01555 0.0
H1134 H 0.42008 0.11929 0.01152 0.0
H1135 H 0.50015 0.13938 0.92906 0.0
H1136 H 0.51306 0.13284 0.95186 0.0
H1137 H 0.48358 0.10556 0.9396 0.0
H1138 H 0.51937 0.09619 0.01154 0.0
H1139 H 0.44911 0.03216 0.98025 0.0
H1140 H 0.50074 0.14602 0.00789 0.0
H1141 H 0.52184 0.15114 0.98641 0.0
H1142 H 0.531 0.14192 0.00979 0.0
H1143 H 0.41446 0.06752 0.96996 0.0
H1144 H 0.41895 0.04003 0.96065 0.0
H1145 H 0.43583 0.07288 0.94861 0.0
C1146 C 0.69628 0.16189 0.99057 0.0
C1147 C 0.69882 0.16922 0.97049 0.0
C1148 C 0.67255 0.13829 0.99759 0.0
C1149 C 0.65076 0.1217 0.98416 0.0
C1150 C 0.65359 0.12887 0.9637 0.0
C1151 C 0.6776 0.15268 0.95711 0.0
C1152 C 0.6704 0.13179 0.01949 0.0
C1153 C 0.63099 0.11167 0.94886 0.0
C1154 C 0.59881 0.04772 0.99707 0.0
C1155 C 0.57497 0.04906 1.00229 0.0
C1156 C 0.6238 0.07126 0.99167 0.0
C1157 C 0.62502 0.09688 0.99144 0.0
C1158 C 0.60127 0.09849 0.99742 0.0
C1159 C 0.57642 0.07451 1.00248 0.0
C1160 C 0.64862 0.06858 0.98562 0.0
C1161 C 0.60178 0.12541 0.99789 0.0
H1162 H 0.71257 0.17506 1.00095 0.0
H1163 H 0.6795 0.15866 0.94161 0.0
H1164 H 0.65475 0.13612 0.02632 0.0
H1165 H 0.66323 0.10986 0.02187 0.0
H1166 H 0.69064 0.1442 0.02736 0.0
H1167 H 0.63664 0.1196 0.93344 0.0
H1168 H 0.62685 0.09035 0.94916 0.0
H1169 H 0.61125 0.11109 0.95297 0.0
H1170 H 0.59765 0.028 0.99669 0.0
H1171 H 0.55796 0.07569 0.00597 0.0
H1172 H 0.66715 0.08246 0.99473 0.0
H1173 H 0.65392 0.07475 0.96984 0.0
H1174 H 0.64464 0.0474 0.98733 0.0
H1175 H 0.61977 0.1405 0.00689 0.0
H1176 H 0.58228 0.12345 1.00422 0.0
H1177 H 0.60451 0.13365 0.98257 0.0
C1178 C 0.84847 0.53721 0.99099 0.0
C1179 C 0.83904 0.53152 0.97129 0.0
C1180 C 0.87259 0.53673 0.99712 0.0
C1181 C 0.88771 0.53026 0.98321 0.0
C1182 C 0.87841 0.52493 0.96312 0.0
C1183 C 0.85407 0.52549 0.95741 0.0
C1184 C 0.88122 0.54217 0.01868 0.0
C1185 C 0.89396 0.51826 0.94772 0.0
C1186 C 0.96393 0.55215 0.99456 0.0
C1187 C 0.96216 0.52763 1.00067 0.0
C1188 C 0.93995 0.55331 0.98903 0.0
C1189 C 0.91333 0.52935 0.98964 0.0
C1190 C 0.91135 0.50459 0.9962 0.0
C1191 C 0.9358 0.50394 1.00131 0.0
C1192 C 0.94319 0.58016 0.98223 0.0
C1193 C 0.88345 0.47867 0.9976 0.0
H1194 H 0.83651 0.54139 1.00181 0.0
H1195 H 0.84651 0.5207 0.9422 0.0
H1196 H 0.87694 0.52277 0.02576 0.0
H1197 H 0.90394 0.55684 0.02004 0.0
H1198 H 0.86963 0.55039 0.02699 0.0
H1199 H 0.88451 0.51528 0.93266 0.0
H1200 H 0.91607 0.53493 0.94701 0.0
H1201 H 0.89406 0.49937 0.95201 0.0
H1202 H 0.98429 0.57047 0.99383 0.0
H1203 H 0.9343 0.48478 0.00556 0.0
H1204 H 0.9306 0.5859 0.99183 0.0
H1205 H 0.93516 0.57812 0.9668 0.0
H1206 H 0.96529 0.59695 0.98264 0.0
H1207 H 0.86903 0.48208 0.00707 0.0
H1208 H 0.8853 0.4615 1.00393 0.0
H1209 H 0.87384 0.47268 0.98259 0.0
C1210 C 0.44051 0.30092 0.9878 0.0
C1211 C 0.45353 0.29457 0.9726 0.0
C1212 C 0.44646 0.32784 0.99073 0.0
C1213 C 0.46589 0.3487 0.97809 0.0
C1214 C 0.47796 0.342 0.96201 0.0
C1215 C 0.47172 0.31486 0.95952 0.0
C1216 C 0.43323 0.33417 0.00807 0.0
C1217 C 0.4986 0.36367 0.94816 0.0
C1218 C 0.46865 0.41699 0.98176 0.0
C1219 C 0.49076 0.43106 0.99526 0.0
C1220 C 0.46085 0.39044 0.97546 0.0
C1221 C 0.47542 0.37768 0.98294 0.0
C1222 C 0.49831 0.39211 0.99607 0.0
C1223 C 0.50583 0.41869 1.00191 0.0
C1224 C 0.43656 0.37577 0.96126 0.0
C1225 C 0.51436 0.37921 1.00445 0.0
H1226 H 0.42664 0.28503 0.99798 0.0
H1227 H 0.48191 0.30971 0.94788 0.0
H1228 H 0.44955 0.34671 0.0192 0.0
H1229 H 0.4236 0.34627 1.00302 0.0
H1230 H 0.41696 0.31539 0.01551 0.0
H1231 H 0.50349 0.35473 0.93511 0.0
H1232 H 0.49034 0.37682 0.94279 0.0
H1233 H 0.51832 0.377 0.95632 0.0
H1234 H 0.45704 0.42647 0.97637 0.0
H1235 H 0.52342 0.42965 0.0119 0.0
H1236 H 0.41906 0.35816 0.96891 0.0
H1237 H 0.44268 0.36755 0.94843 0.0
H1238 H 0.4289 0.3893 0.95558 0.0
H1239 H 0.50032 0.36148 0.01385 0.0
H1240 H 0.53252 0.39372 0.01365 0.0
H1241 H 0.52202 0.37147 0.99223 0.0
C1242 C 0.17595 0.68045 0.08239 0.0
C1243 C 0.18454 0.70335 0.07028 0.0
C1244 C 0.15166 0.65562 0.07778 0.0
C1245 C 0.13591 0.65377 0.06056 0.0
C1246 C 0.14398 0.67737 0.04885 0.0
C1247 C 0.16828 0.70191 0.05386 0.0
C1248 C 0.14376 0.63101 0.0907 0.0
C1249 C 0.12788 0.67632 0.03037 0.0
C1250 C 0.0973 0.58575 0.03345 0.0
C1251 C 0.06937 0.57643 0.03864 0.0
C1252 C 0.11904 0.61067 0.04063 0.0
C1253 C 0.11287 0.62671 0.05359 0.0
C1254 C 0.08481 0.61715 0.05935 0.0
C1255 C 0.06337 0.5921 0.05181 0.0
C1256 C 0.14861 0.61996 0.03407 0.0
C1257 C 0.07742 0.63357 0.07324 0.0
H1258 H 0.18882 0.68163 0.09499 0.0
H1259 H 0.17522 0.71968 0.04442 0.0
H1260 H 0.12122 0.62073 0.09451 0.0
H1261 H 0.14733 0.61606 0.0824 0.0
H1262 H 0.15615 0.6365 0.1047 0.0
H1263 H 0.13534 0.6969 0.02393 0.0
H1264 H 0.13014 0.66334 0.01895 0.0
H1265 H 0.10529 0.66694 0.03375 0.0
H1266 H 0.10233 0.57351 0.02374 0.0
H1267 H 0.04192 0.58499 0.05608 0.0
H1268 H 0.16227 0.62395 0.04725 0.0
H1269 H 0.15699 0.63939 0.02571 0.0
H1270 H 0.14995 0.60468 0.02443 0.0
H1271 H 0.08955 0.63794 0.08728 0.0
H1272 H 0.05479 0.62285 0.07689 0.0
H1273 H 0.08315 0.6535 0.06635 0.0
C1274 C 0.31245 0.46842 0.03965 0.0
C1275 C 0.30852 0.47339 0.05946 0.0
C1276 C 0.33742 0.46973 0.03344 0.0
C1277 C 0.35924 0.47639 0.04737 0.0
C1278 C 0.3551 0.48105 0.06755 0.0
C1279 C 0.32981 0.47962 0.07335 0.0
C1280 C 0.34073 0.46513 0.01176 0.0
C1281 C 0.37756 0.48791 0.08297 0.0
C1282 C 0.41453 0.45642 0.03631 0.0
C1283 C 0.4377 0.48135 0.03069 0.0
C1284 C 0.38889 0.45447 0.04142 0.0
C1285 C 0.38614 0.47807 0.04094 0.0
C1286 C 0.40927 0.5032 0.03469 0.0
C1287 C 0.43486 0.50463 0.02997 0.0
C1288 C 0.36484 0.42718 0.04768 0.0
C1289 C 0.40716 0.52873 0.03333 0.0
H1290 H 0.29617 0.46415 0.02882 0.0
H1291 H 0.32692 0.48387 0.08863 0.0
H1292 H 0.35378 0.48525 1.00459 0.0
H1293 H 0.35133 0.453 0.00986 0.0
H1294 H 0.32029 0.45453 1.00388 0.0
H1295 H 0.37101 0.49052 0.09807 0.0
H1296 H 0.38301 0.47151 0.08353 0.0
H1297 H 0.39679 0.50706 0.0788 0.0
H1298 H 0.41668 0.4384 0.03711 0.0
H1299 H 0.45275 0.52411 0.02616 0.0
H1300 H 0.34652 0.42145 0.03788 0.0
H1301 H 0.35846 0.42857 0.0631 0.0
H1302 H 0.37019 0.4107 0.04707 0.0
H1303 H 0.38948 0.52506 0.02347 0.0
H1304 H 0.4266 0.54636 0.02744 0.0
H1305 H 0.40284 0.53415 0.04827 0.0
C1306 C 0.54204 0.84858 0.07168 0.0
C1307 C 0.56262 0.84821 0.05984 0.0
C1308 C 0.53451 0.86868 0.06887 0.0
C1309 C 0.54775 0.88844 0.05371 0.0
C1310 C 0.56939 0.88863 0.04231 0.0
C1311 C 0.57657 0.86842 0.04554 0.0
C1312 C 0.51152 0.86798 0.08141 0.0
C1313 C 0.58392 0.90927 0.02597 0.0
C1314 C 0.50858 0.91914 0.0283 0.0
C1315 C 0.52197 0.94569 0.03614 0.0
C1316 C 0.51636 0.90012 0.03422 0.0
C1317 C 0.53769 0.90765 0.04866 0.0
C1318 C 0.55042 0.93399 0.05733 0.0
C1319 C 0.54249 0.95275 0.05091 0.0
C1320 C 0.50233 0.87226 0.02452 0.0
C1321 C 0.57294 0.9426 0.07299 0.0
H1322 H 0.53112 0.83259 0.08258 0.0
H1323 H 0.59228 0.86773 0.03628 0.0
H1324 H 0.51814 0.88854 0.0876 0.0
H1325 H 0.49281 0.86206 0.072 0.0
H1326 H 0.50546 0.85323 0.09389 0.0
H1327 H 0.60147 0.90768 0.01934 0.0
H1328 H 0.56871 0.90613 0.01401 0.0
H1329 H 0.59218 0.93028 0.03181 0.0
H1330 H 0.49216 0.91321 0.01732 0.0
H1331 H 0.55277 0.9731 0.05727 0.0
H1332 H 0.49387 0.85606 0.03602 0.0
H1333 H 0.51792 0.86974 0.01577 0.0
H1334 H 0.48502 0.8691 0.01442 0.0
H1335 H 0.56572 0.9274 0.0852 0.0
H1336 H 0.57909 0.96295 0.07942 0.0
H1337 H 0.59172 0.9434 0.06636 0.0
C1338 C 1.00006 0.19969 0.41576 0.0
C1339 C 0.97718 0.18281 0.40357 0.0
C1340 C 0.02461 0.22136 0.4077 0.0
C1341 C 0.02635 0.2264 0.38694 0.0
C1342 C 1.00335 0.20942 0.37456 0.0
C1343 C 0.97911 0.18784 0.383 0.0
C1344 C 0.04869 0.23897 0.42144 0.0
C1345 C 0.00434 0.21399 0.35239 0.0
C1346 C 0.07907 0.2991 0.37217 0.0
C1347 C 0.10227 0.29675 0.36682 0.0
C1348 C 0.05383 0.27615 0.37787 0.0
C1349 C 0.05182 0.2502 0.37845 0.0
C1350 C 0.07485 0.24753 0.37222 0.0
C1351 C 0.09993 0.27091 0.36669 0.0
C1352 C 0.02971 0.2799 0.38411 0.0
C1353 C 0.07352 0.22023 0.37228 0.0
H1354 H 0.99891 0.19573 0.43161 0.0
H1355 H 0.96144 0.17507 0.37348 0.0
H1356 H 0.0678 0.23885 0.41654 0.0
H1357 H 0.05325 0.26042 0.42078 0.0
H1358 H 0.0443 0.23199 0.43714 0.0
H1359 H 0.98401 0.20027 0.34502 0.0
H1360 H 0.01031 0.23547 0.34918 0.0
H1361 H 0.0205 0.21029 0.3457 0.0
H1362 H 0.08097 0.31914 0.37243 0.0
H1363 H 0.11796 0.26903 0.36304 0.0
H1364 H 0.02549 0.27531 0.4002 0.0
H1365 H 0.01047 0.26545 0.37589 0.0
H1366 H 0.03395 0.30101 0.38144 0.0
H1367 H 0.07267 0.2134 0.38787 0.0
H1368 H 0.09193 0.22112 0.36487 0.0
H1369 H 0.05429 0.20462 0.36465 0.0
C1370 C 0.81776 0.80527 0.41777 0.0
C1371 C 0.83446 0.79942 0.40526 0.0
C1372 C 0.79543 0.80792 0.41013 0.0
C1373 C 0.78943 0.80458 0.38944 0.0
C1374 C 0.80624 0.79873 0.37675 0.0
C1375 C 0.82847 0.79629 0.38476 0.0
C1376 C 0.77812 0.81415 0.42426 0.0
C1377 C 0.80096 0.79523 0.35463 0.0
C1378 C 0.71472 0.78415 0.3745 0.0
C1379 C 0.71729 0.80917 0.36888 0.0
C1380 C 0.73809 0.78228 0.38061 0.0
C1381 C 0.76486 0.80608 0.3813 0.0
C1382 C 0.76772 0.83131 0.37507 0.0
C1383 C 0.74388 0.83261 0.36919 0.0
C1384 C 0.73398 0.75489 0.38684 0.0
C1385 C 0.79581 0.85714 0.37516 0.0
H1386 H 0.82234 0.80812 0.43356 0.0
H1387 H 0.84096 0.79149 0.37492 0.0
H1388 H 0.77841 0.8331 0.41958 0.0
H1389 H 0.75603 0.79739 0.42379 0.0
H1390 H 0.78576 0.81674 0.43985 0.0
H1391 H 0.81343 0.78732 0.34717 0.0
H1392 H 0.77849 0.78109 0.35149 0.0
H1393 H 0.80667 0.8153 0.34803 0.0
H1394 H 0.69418 0.76602 0.37449 0.0
H1395 H 0.74606 0.85214 0.3654 0.0
H1396 H 0.73959 0.75557 0.40278 0.0
H1397 H 0.74803 0.75002 0.37817 0.0
H1398 H 0.71209 0.73815 0.38468 0.0
H1399 H 0.80365 0.86243 0.39067 0.0
H1400 H 0.79484 0.87467 0.36858 0.0
H1401 H 0.81119 0.85401 0.36667 0.0
C1402 C 0.24375 0.04572 0.38785 0.0
C1403 C 0.23282 0.04964 0.40557 0.0
C1404 C 0.23664 0.01946 0.38137 0.0
C1405 C 0.21803 0.99657 0.39284 0.0
C1406 C 0.20728 0.0004 0.41092 0.0
C1407 C 0.21493 0.02696 0.41713 0.0
C1408 C 0.24879 0.0162 0.36212 0.0
C1409 C 0.18726 0.97643 0.42347 0.0
C1410 C 0.17944 0.92891 0.36538 0.0
C1411 C 0.19528 0.9167 0.37052 0.0
C1412 C 0.18634 0.95472 0.3728 0.0
C1413 C 0.20961 0.96862 0.3857 0.0
C1414 C 0.2254 0.95622 0.39121 0.0
C1415 C 0.21799 0.93036 0.3836 0.0
C1416 C 0.16892 0.96724 0.36662 0.0
C1417 C 0.25045 0.97048 0.40484 0.0
H1418 H 0.25788 0.06327 0.37902 0.0
H1419 H 0.20629 0.02997 0.43075 0.0
H1420 H 0.26008 0.00487 0.36482 0.0
H1421 H 0.23174 0.00404 0.35136 0.0
H1422 H 0.26347 0.03614 0.3552 0.0
H1423 H 0.18131 0.98292 0.43736 0.0
H1424 H 0.16801 0.96319 0.4148 0.0
H1425 H 0.19677 0.96384 0.4275 0.0
H1426 H 0.16157 0.91829 0.35556 0.0
H1427 H 0.23032 0.92106 0.38769 0.0
H1428 H 0.18206 0.98644 0.35834 0.0
H1429 H 0.16084 0.97258 0.37999 0.0
H1430 H 0.15094 0.95334 0.35703 0.0
H1431 H 0.2665 0.9898 0.3979 0.0
H1432 H 0.26003 0.95771 0.40813 0.0
H1433 H 0.24431 0.97593 0.41908 0.0
C1434 C 0.51807 0.63414 0.30967 0.0
C1435 C 0.5077 0.63235 0.29034 0.0
C1436 C 0.53919 0.6591 0.31739 0.0
C1437 C 0.54982 0.68297 0.30562 0.0
C1438 C 0.53947 0.68125 0.28604 0.0
C1439 C 0.51871 0.65588 0.27855 0.0
C1440 C 0.55005 0.65994 0.33818 0.0
C1441 C 0.54994 0.70631 0.27315 0.0
C1442 C 0.58442 0.75109 0.33301 0.0
C1443 C 0.61288 0.76026 0.32999 0.0
C1444 C 0.56369 0.72615 0.32499 0.0
C1445 C 0.57159 0.70975 0.31391 0.0
C1446 C 0.6003 0.7188 0.31096 0.0
C1447 C 0.62058 0.74405 0.31888 0.0
C1448 C 0.53333 0.71745 0.32827 0.0
C1449 C 0.60961 0.7017 0.29957 0.0
H1450 H 0.5097 0.61589 0.31874 0.0
H1451 H 0.51051 0.65454 0.26366 0.0
H1452 H 0.57302 0.66848 0.33782 0.0
H1453 H 0.54598 0.67358 0.34775 0.0
H1454 H 0.54022 0.63941 0.34514 0.0
H1455 H 0.53976 0.70153 0.25826 0.0
H1456 H 0.54592 0.72154 0.2806 0.0
H1457 H 0.57286 0.71599 0.27109 0.0
H1458 H 0.57827 0.76362 0.34141 0.0
H1459 H 0.64252 0.75093 0.31655 0.0
H1460 H 0.5228 0.69782 0.33645 0.0
H1461 H 0.52252 0.71406 0.31373 0.0
H1462 H 0.53071 0.73284 0.33685 0.0
H1463 H 0.60118 0.68143 0.30673 0.0
H1464 H 0.63273 0.71149 0.29882 0.0
H1465 H 0.60118 0.69812 0.28418 0.0
C1466 C 0.35191 0.87137 0.28351 0.0
C1467 C 0.37446 0.87604 0.29584 0.0
C1468 C 0.32691 0.86834 0.29149 0.0
C1469 C 0.32419 0.87004 0.31236 0.0
C1470 C 0.34674 0.87448 0.3249 0.0
C1471 C 0.37146 0.87739 0.31654 0.0
C1472 C 0.30347 0.8636 0.27752 0.0
C1473 C 0.34479 0.87625 0.3472 0.0
C1474 C 0.27189 0.89158 0.32862 0.0
C1475 C 0.24813 0.86655 0.33317 0.0
C1476 C 0.29696 0.89304 0.32256 0.0
C1477 C 0.29843 0.86881 0.32084 0.0
C1478 C 0.27477 0.84352 0.32618 0.0
C1479 C 0.24983 0.84265 0.33206 0.0
C1480 C 0.32161 0.9205 0.31732 0.0
C1481 C 0.27541 0.81721 0.32494 0.0
H1482 H 0.35367 0.86981 0.26756 0.0
H1483 H 0.38873 0.88123 0.32626 0.0
H1484 H 0.28403 0.84466 0.28171 0.0
H1485 H 0.29916 0.88073 0.27877 0.0
H1486 H 0.3084 0.86183 0.26175 0.0
H1487 H 0.36482 0.88182 0.35481 0.0
H1488 H 0.3386 0.89154 0.35116 0.0
H1489 H 0.32841 0.85622 0.35297 0.0
H1490 H 0.2706 0.91008 0.3293 0.0
H1491 H 0.23145 0.82316 0.33511 0.0
H1492 H 0.32649 0.92092 0.30126 0.0
H1493 H 0.34038 0.92401 0.32579 0.0
H1494 H 0.31763 0.93755 0.32049 0.0
H1495 H 0.27688 0.81241 0.30912 0.0
H1496 H 0.25644 0.79979 0.33153 0.0
H1497 H 0.2941 0.81932 0.33274 0.0
C1498 C 0.14437 0.49602 0.28892 0.0
C1499 C 0.12433 0.49993 0.29887 0.0
C1500 C 0.15172 0.47705 0.29585 0.0
C1501 C 0.13871 0.46164 0.31313 0.0
C1502 C 0.11863 0.46563 0.32333 0.0
C1503 C 0.11164 0.48469 0.31605 0.0
C1504 C 0.17323 0.47333 0.28458 0.0
C1505 C 0.10424 0.44949 0.34176 0.0
C1506 C 0.13564 0.39364 0.31972 0.0
C1507 C 0.15715 0.4002 0.33357 0.0
C1508 C 0.12953 0.41349 0.31291 0.0
C1509 C 0.14528 0.44057 0.32012 0.0
C1510 C 0.1671 0.4474 0.33403 0.0
C1511 C 0.17287 0.42715 0.34051 0.0
C1512 C 0.10612 0.40542 0.29804 0.0
C1513 C 0.18435 0.47608 0.34206 0.0
H1514 H 0.1545 0.508 0.27579 0.0
H1515 H 0.09587 0.48735 0.32366 0.0
H1516 H 0.19069 0.4769 0.29465 0.0
H1517 H 0.16371 0.45201 0.27906 0.0
H1518 H 0.18189 0.48738 0.2717 0.0
H1519 H 0.08988 0.45577 0.34838 0.0
H1520 H 0.09203 0.42742 0.33806 0.0
H1521 H 0.11998 0.45209 0.35313 0.0
H1522 H 0.12341 0.37292 0.3142 0.0
H1523 H 0.18985 0.43254 0.35092 0.0
H1524 H 0.11427 0.4179 0.28437 0.0
H1525 H 0.08999 0.40949 0.30433 0.0
H1526 H 0.09599 0.3835 0.29383 0.0
H1527 H 0.19492 0.49051 0.32964 0.0
H1528 H 0.20045 0.47797 0.35289 0.0
H1529 H 0.17057 0.48241 0.34951 0.0
C1530 C 0.3676 0.49169 0.32495 0.0
C1531 C 0.36987 0.50046 0.30525 0.0
C1532 C 0.34354 0.46819 0.3316 0.0
C1533 C 0.32113 0.4532 0.3182 0.0
C1534 C 0.32373 0.46173 0.29807 0.0
C1535 C 0.3481 0.48543 0.29183 0.0
C1536 C 0.34169 0.46033 0.35321 0.0
C1537 C 0.30048 0.44618 0.28325 0.0
C1538 C 0.26667 0.37951 0.3295 0.0
C1539 C 0.24381 0.382 0.33565 0.0
C1540 C 0.29215 0.40255 0.32426 0.0
C1541 C 0.29489 0.42879 0.3252 0.0
C1542 C 0.27217 0.43151 0.33214 0.0
C1543 C 0.24675 0.40803 0.33695 0.0
C1544 C 0.31591 0.39874 0.31719 0.0
C1545 C 0.2744 0.45913 0.33396 0.0
H1546 H 0.38436 0.50375 0.33537 0.0
H1547 H 0.34983 0.49257 0.27665 0.0
H1548 H 0.32828 0.46676 0.36108 0.0
H1549 H 0.33209 0.43791 0.35492 0.0
H1550 H 0.36253 0.47041 0.36055 0.0
H1551 H 0.30613 0.45486 0.26802 0.0
H1552 H 0.29515 0.42449 0.28271 0.0
H1553 H 0.28142 0.44651 0.28801 0.0
H1554 H 0.26433 0.35935 0.32828 0.0
H1555 H 0.22902 0.4101 0.34116 0.0
H1556 H 0.33481 0.41124 0.3264 0.0
H1557 H 0.32126 0.40593 0.3016 0.0
H1558 H 0.31071 0.37708 0.31787 0.0
H1559 H 0.29284 0.47291 0.34318 0.0
H1560 H 0.25548 0.45786 0.3408 0.0
H1561 H 0.27748 0.46851 0.31902 0.0
C1562 C 0.52252 0.86086 0.2902 0.0
C1563 C 0.50777 0.86727 0.30406 0.0
C1564 C 0.54702 0.86056 0.2958 0.0
C1565 C 0.55676 0.8665 0.31578 0.0
C1566 C 0.54204 0.87358 0.32962 0.0
C1567 C 0.51774 0.87377 0.3236 0.0
C1568 C 0.56219 0.85333 0.28045 0.0
C1569 C 0.55085 0.8795 0.35111 0.0
C1570 C 0.60342 0.83861 0.33389 0.0
C1571 C 0.63015 0.8618 0.33309 0.0
C1572 C 0.57935 0.84 0.32894 0.0
C1573 C 0.58204 0.86498 0.32222 0.0
C1574 C 0.60902 0.88846 0.3214 0.0
C1575 C 0.63264 0.88658 0.32685 0.0
C1576 C 0.55105 0.81461 0.3307 0.0
C1577 C 0.61297 0.91554 0.31452 0.0
H1578 H 0.51456 0.85548 0.27512 0.0
H1579 H 0.50599 0.87823 0.33442 0.0
H1580 H 0.58444 0.86966 0.27969 0.0
H1581 H 0.5618 0.83424 0.28484 0.0
H1582 H 0.55273 0.85041 0.2654 0.0
H1583 H 0.54198 0.89105 0.35852 0.0
H1584 H 0.54293 0.85978 0.35897 0.0
H1585 H 0.57392 0.89125 0.35266 0.0
H1586 H 0.60122 0.8192 0.33805 0.0
H1587 H 0.65327 0.90451 0.32592 0.0
H1588 H 0.54102 0.80863 0.31582 0.0
H1589 H 0.53728 0.81876 0.34033 0.0
H1590 H 0.55238 0.79717 0.33706 0.0
H1591 H 0.63527 0.93189 0.31467 0.0
H1592 H 0.60099 0.92188 0.32425 0.0
H1593 H 0.60466 0.91353 0.29918 0.0
C1594 C 0.12981 0.64491 0.29442 0.0
C1595 C 0.11156 0.62606 0.30829 0.0
C1596 C 0.13815 0.67273 0.2962 0.0
C1597 C 0.12812 0.68158 0.31233 0.0
C1598 C 0.10879 0.66222 0.3259 0.0
C1599 C 0.10073 0.63461 0.32367 0.0
C1600 C 0.15864 0.69276 0.28141 0.0
C1601 C 0.09773 0.67084 0.34334 0.0
C1602 C 0.17187 0.75251 0.33402 0.0
C1603 C 0.15719 0.76541 0.32763 0.0
C1604 C 0.16316 0.7255 0.32858 0.0
C1605 C 0.13943 0.71116 0.31615 0.0
C1606 C 0.12542 0.72452 0.30875 0.0
C1607 C 0.13443 0.75152 0.31463 0.0
C1608 C 0.17867 0.712 0.33687 0.0
C1609 C 0.10024 0.70997 0.29529 0.0
H1610 H 0.13826 0.63806 0.28263 0.0
H1611 H 0.08676 0.61981 0.33444 0.0
H1612 H 0.15113 0.70637 0.27572 0.0
H1613 H 0.17902 0.70587 0.28887 0.0
H1614 H 0.16206 0.68234 0.26859 0.0
H1615 H 0.08154 0.65309 0.35177 0.0
H1616 H 0.11515 0.68374 0.35364 0.0
H1617 H 0.08859 0.68331 0.33815 0.0
H1618 H 0.18995 0.76332 0.34362 0.0
H1619 H 0.12313 0.76143 0.30945 0.0
H1620 H 0.18436 0.70236 0.32475 0.0
H1621 H 0.16492 0.69559 0.34734 0.0
H1622 H 0.19802 0.72665 0.34495 0.0
H1623 H 0.10485 0.70009 0.28272 0.0
H1624 H 0.09351 0.72402 0.28919 0.0
H1625 H 0.08258 0.6936 0.30372 0.0
C1626 C 0.83007 0.03818 0.38383 0.0
C1627 C 0.84763 0.04096 0.39975 0.0
C1628 C 0.80629 0.01289 0.37956 0.0
C1629 C 0.80008 0.98995 0.39154 0.0
C1630 C 0.81707 0.99316 0.40832 0.0
C1631 C 0.84083 0.01871 0.41217 0.0
C1632 C 0.78883 0.01038 0.36151 0.0
C1633 C 0.8111 0.96927 0.4215 0.0
C1634 C 0.72895 0.92588 0.38451 0.0
C1635 C 0.73549 0.91066 0.37129 0.0
C1636 C 0.7498 0.95154 0.39156 0.0
C1637 C 0.77778 0.96222 0.38519 0.0
C1638 C 0.78453 0.94669 0.37213 0.0
C1639 C 0.76339 0.9211 0.36549 0.0
C1640 C 0.74184 0.96738 0.4056 0.0
C1641 C 0.81405 0.95725 0.36488 0.0
H1642 H 0.83567 0.05547 0.37414 0.0
H1643 H 0.85472 0.02097 0.42437 0.0
H1644 H 0.79143 0.99767 0.35004 0.0
H1645 H 0.76635 0.0 0.36546 0.0
H1646 H 0.79484 0.03056 0.35489 0.0
H1647 H 0.82413 0.97577 0.43521 0.0
H1648 H 0.78874 0.95805 0.42582 0.0
H1649 H 0.81541 0.95479 0.4132 0.0
H1650 H 0.70749 0.91793 0.38919 0.0
H1651 H 0.76886 0.90928 0.35569 0.0
H1652 H 0.746 0.98674 0.39849 0.0
H1653 H 0.75481 0.97286 0.41929 0.0
H1654 H 0.71944 0.95571 0.40988 0.0
H1655 H 0.82113 0.97639 0.35637 0.0
H1656 H 0.81591 0.94231 0.35516 0.0
H1657 H 0.82844 0.96216 0.37773 0.0
C1658 C 0.9982 0.81451 0.40725 0.0
C1659 C 0.97722 0.80938 0.39335 0.0
C1660 C 0.02328 0.81565 0.4013 0.0
C1661 C 0.02753 0.81184 0.38095 0.0
C1662 C 0.00603 0.80629 0.367 0.0
C1663 C 0.98125 0.80524 0.37338 0.0
C1664 C 0.04542 0.82132 0.41672 0.0
C1665 C 0.00949 0.80264 0.34516 0.0
C1666 C 0.1031 0.83948 0.36379 0.0
C1667 C 0.10531 0.81583 0.36377 0.0
C1668 C 0.07774 0.83841 0.36869 0.0
C1669 C 0.05421 0.81322 0.37437 0.0
C1670 C 0.05632 0.78927 0.3741 0.0
C1671 C 0.08175 0.79088 0.36882 0.0
C1672 C 0.0763 0.86433 0.36811 0.0
C1673 C 0.0318 0.76193 0.37972 0.0
H1674 H 0.99522 0.81811 0.42267 0.0
H1675 H 0.96521 0.80182 0.36256 0.0
H1676 H 0.05039 0.80458 0.41675 0.0
H1677 H 0.06495 0.84043 0.41297 0.0
H1678 H 0.03882 0.82337 0.43194 0.0
H1679 H 0.98915 0.7927 0.33715 0.0
H1680 H 0.02289 0.82305 0.33849 0.0
H1681 H 0.01979 0.79032 0.3428 0.0
H1682 H 0.1213 0.85895 0.36043 0.0
H1683 H 0.08342 0.77257 0.36905 0.0
H1684 H 0.0719 0.86915 0.38323 0.0
H1685 H 0.05891 0.86153 0.35826 0.0
H1686 H 0.09602 0.88201 0.36263 0.0
H1687 H 0.02531 0.76272 0.39522 0.0
H1688 H 0.03669 0.74516 0.37858 0.0
H1689 H 0.01371 0.75704 0.36989 0.0
C1690 C 0.21185 0.18228 0.40183 0.0
C1691 C 0.2316 0.18155 0.38927 0.0
C1692 C 0.20369 0.20194 0.39907 0.0
C1693 C 0.21547 0.22091 0.38327 0.0
C1694 C 0.23606 0.22056 0.37094 0.0
C1695 C 0.24388 0.2008 0.37412 0.0
C1696 C 0.18182 0.20182 0.41258 0.0
C1697 C 0.24907 0.2404 0.35393 0.0
C1698 C 0.17554 0.25269 0.36049 0.0
C1699 C 0.19007 0.27929 0.36821 0.0
C1700 C 0.18319 0.23327 0.36561 0.0
C1701 C 0.20563 0.24052 0.37904 0.0
C1702 C 0.21963 0.26697 0.38753 0.0
C1703 C 0.21173 0.28606 0.38198 0.0
C1704 C 0.16775 0.20527 0.35619 0.0
C1705 C 0.24348 0.27537 0.40204 0.0
H1706 H 0.20222 0.16702 0.4134 0.0
H1707 H 0.25895 0.19982 0.36431 0.0
H1708 H 0.18942 0.22247 0.41895 0.0
H1709 H 0.16266 0.19646 0.40387 0.0
H1710 H 0.17618 0.18701 0.42497 0.0
H1711 H 0.26554 0.23806 0.34623 0.0
H1712 H 0.23271 0.23719 0.34291 0.0
H1713 H 0.25842 0.26169 0.35945 0.0
H1714 H 0.1583 0.24702 0.35028 0.0
H1715 H 0.22292 0.30645 0.38823 0.0
H1716 H 0.15992 0.18928 0.36784 0.0
H1717 H 0.18227 0.20212 0.34663 0.0
H1718 H 0.1498 0.20242 0.34693 0.0
H1719 H 0.23701 0.2605 0.41443 0.0
H1720 H 0.25087 0.29604 0.40836 0.0
H1721 H 0.26128 0.27534 0.39443 0.0
C1722 C 0.65863 0.54229 0.74554 0.0
C1723 C 0.64201 0.51771 0.73508 0.0
C1724 C 0.68472 0.56249 0.73828 0.0
C1725 C 0.69391 0.55925 0.71935 0.0
C1726 C 0.67752 0.53482 0.70857 0.0
C1727 C 0.65248 0.5141 0.71683 0.0
C1728 C 0.70226 0.58758 0.75084 0.0
C1729 C 0.68562 0.53105 0.68782 0.0
C1730 C 0.7447 0.62775 0.69642 0.0
C1731 C 0.77015 0.62814 0.698 0.0
C1732 C 0.71947 0.60447 0.70171 0.0
C1733 C 0.72001 0.58201 0.71058 0.0
C1734 C 0.74581 0.58243 0.71235 0.0
C1735 C 0.77051 0.60527 0.7056 0.0
C1736 C 0.69236 0.60423 0.69821 0.0
C1737 C 0.7477 0.55971 0.72267 0.0
H1738 H 0.65139 0.54637 0.75935 0.0
H1739 H 0.64115 0.4952 0.70863 0.0
H1740 H 0.72439 0.59248 0.75108 0.0
H1741 H 0.70177 0.60536 0.74438 0.0
H1742 H 0.69462 0.58495 0.76641 0.0
H1743 H 0.67284 0.50969 0.68245 0.0
H1744 H 0.68249 0.54458 0.67747 0.0
H1745 H 0.708 0.537 0.68706 0.0
H1746 H 0.74456 0.6457 0.69092 0.0
H1747 H 0.79034 0.60602 0.70761 0.0
H1748 H 0.68411 0.60689 0.71256 0.0
H1749 H 0.67644 0.58437 0.69176 0.0
H1750 H 0.6951 0.62084 0.68803 0.0
H1751 H 0.74238 0.55938 0.73863 0.0
H1752 H 0.76895 0.56224 0.72162 0.0
H1753 H 0.73245 0.5396 0.71626 0.0
C1754 C 0.4766 0.12829 0.74845 0.0
C1755 C 0.50104 0.13569 0.7374 0.0
C1756 C 0.4554 0.13303 0.74128 0.0
C1757 C 0.4575 0.14395 0.72198 0.0
C1758 C 0.48206 0.15182 0.71079 0.0
C1759 C 0.50367 0.14833 0.7188 0.0
C1760 C 0.43042 0.12581 0.75433 0.0
C1761 C 0.48508 0.16237 0.68979 0.0
C1762 C 0.38604 0.12296 0.69952 0.0
C1763 C 0.38534 0.14735 0.70019 0.0
C1764 C 0.41016 0.12213 0.70515 0.0
C1765 C 0.43337 0.14573 0.71332 0.0
C1766 C 0.43262 0.17044 0.71422 0.0
C1767 C 0.40886 0.17108 0.70725 0.0
C1768 C 0.41066 0.09588 0.70249 0.0
C1769 C 0.45633 0.19588 0.72341 0.0
H1770 H 0.47335 0.11809 0.76261 0.0
H1771 H 0.52246 0.15527 0.7101 0.0
H1772 H 0.42546 0.14256 0.75428 0.0
H1773 H 0.41187 0.10723 0.74848 0.0
H1774 H 0.43395 0.12183 0.76996 0.0
H1775 H 0.50735 0.17435 0.68525 0.0
H1776 H 0.47434 0.14466 0.67955 0.0
H1777 H 0.47534 0.17524 0.68784 0.0
H1778 H 0.36774 0.10452 0.69429 0.0
H1779 H 0.40808 0.18978 0.70844 0.0
H1780 H 0.40973 0.08664 0.71721 0.0
H1781 H 0.43044 0.10002 0.69524 0.0
H1782 H 0.39281 0.08077 0.69333 0.0
H1783 H 0.45918 0.19179 0.73915 0.0
H1784 H 0.45257 0.21343 0.72298 0.0
H1785 H 0.47616 0.20173 0.71553 0.0
C1786 C 0.89779 0.36692 0.7439 0.0
C1787 C 0.87475 0.37011 0.74811 0.0
C1788 C 0.89414 0.34266 0.73542 0.0
C1789 C 0.86677 0.32103 0.73133 0.0
C1790 C 0.84341 0.32387 0.7361 0.0
C1791 C 0.8477 0.34847 0.74432 0.0
C1792 C 0.91955 0.34044 0.73034 0.0
C1793 C 0.81391 0.30108 0.73225 0.0
C1794 C 0.85604 0.26891 0.69157 0.0
C1795 C 0.85405 0.24734 0.70296 0.0
C1796 C 0.86058 0.29318 0.70058 0.0
C1797 C 0.86256 0.29565 0.72157 0.0
C1798 C 0.86019 0.27379 0.73322 0.0
C1799 C 0.85622 0.24999 0.72375 0.0
C1800 C 0.86342 0.31622 0.68762 0.0
C1801 C 0.86156 0.2754 0.75567 0.0
H1802 H 0.91872 0.38376 0.74667 0.0
H1803 H 0.82987 0.35087 0.74776 0.0
H1804 H 0.91835 0.32237 0.73774 0.0
H1805 H 0.92018 0.33748 0.71406 0.0
H1806 H 0.93935 0.35887 0.73489 0.0
H1807 H 0.79802 0.3061 0.73768 0.0
H1808 H 0.81066 0.29676 0.71605 0.0
H1809 H 0.81038 0.28208 0.73963 0.0
H1810 H 0.85466 0.26711 0.67561 0.0
H1811 H 0.85427 0.23322 0.73271 0.0
H1812 H 0.88386 0.33487 0.69047 0.0
H1813 H 0.84688 0.32114 0.69136 0.0
H1814 H 0.86188 0.31118 0.6715 0.0
H1815 H 0.88188 0.29285 0.76052 0.0
H1816 H 0.85905 0.25645 0.76255 0.0
H1817 H 0.84492 0.27909 0.76144 0.0
C1818 C 0.18734 0.98907 0.6111 0.0
C1819 C 0.17646 0.96621 0.62357 0.0
C1820 C 0.20803 0.01489 0.61797 0.0
C1821 C 0.21851 0.01774 0.63764 0.0
C1822 C 0.20802 0.99452 0.6501 0.0
C1823 C 0.1869 0.96911 0.64299 0.0
C1824 C 0.21822 0.03922 0.60436 0.0
C1825 C 0.21903 0.99653 0.671 0.0
C1826 C 0.2888 0.08019 0.6502 0.0
C1827 C 0.28062 0.09638 0.66085 0.0
C1828 C 0.26884 0.05453 0.64261 0.0
C1829 C 0.23999 0.04508 0.64536 0.0
C1830 C 0.23164 0.06158 0.65583 0.0
C1831 C 0.25203 0.08687 0.66359 0.0
C1832 C 0.27863 0.03732 0.63192 0.0
C1833 C 0.20115 0.05255 0.65886 0.0
H1834 H 0.17909 0.98685 0.59613 0.0
H1835 H 0.17862 0.95137 0.65259 0.0
H1836 H 0.21392 0.05464 0.61118 0.0
H1837 H 0.24117 0.04906 0.60237 0.0
H1838 H 0.20806 0.03358 0.58948 0.0
H1839 H 0.20953 0.97635 0.67848 0.0
H1840 H 0.24205 0.00541 0.67069 0.0
H1841 H 0.21466 0.01038 0.68007 0.0
H1842 H 0.31084 0.08733 0.64812 0.0
H1843 H 0.24552 0.09937 0.67165 0.0
H1844 H 0.27006 0.03275 0.61657 0.0
H1845 H 0.27069 0.01751 0.63969 0.0
H1846 H 0.30178 0.04753 0.63111 0.0
H1847 H 0.19026 0.04797 0.64427 0.0
H1848 H 0.19817 0.06826 0.66664 0.0
H1849 H 0.19097 0.03351 0.66774 0.0
C1850 C 0.01625 0.2053 0.6167 0.0
C1851 C 0.03869 0.21022 0.62923 0.0
C1852 C 0.99113 0.20229 0.62442 0.0
C1853 C 0.98819 0.20429 0.64523 0.0
C1854 C 0.01066 0.20907 0.65797 0.0
C1855 C 0.03551 0.21194 0.64986 0.0
C1856 C 0.96776 0.19717 0.61024 0.0
C1857 C 0.0085 0.21122 0.68021 0.0
C1858 C 0.93495 0.22502 0.66074 0.0
C1859 C 0.91142 0.19988 0.66543 0.0
C1860 C 0.96024 0.22681 0.65487 0.0
C1861 C 0.96217 0.2028 0.65345 0.0
C1862 C 0.93873 0.17741 0.65888 0.0
C1863 C 0.91357 0.17621 0.66457 0.0
C1864 C 0.98465 0.25437 0.6495 0.0
C1865 C 0.93982 0.1513 0.65792 0.0
H1866 H 0.01818 0.20348 0.60079 0.0
H1867 H 0.0527 0.216 0.65973 0.0
H1868 H 0.94842 0.17814 0.61441 0.0
H1869 H 0.96318 0.21413 0.61127 0.0
H1870 H 0.97293 0.19535 0.59454 0.0
H1871 H 0.02835 0.21658 0.68801 0.0
H1872 H 1.00266 0.22686 0.68383 0.0
H1873 H 0.99179 0.19143 0.68607 0.0
H1874 H 0.9333 0.24334 0.66118 0.0
H1875 H 0.89538 0.15662 0.66767 0.0
H1876 H 0.98961 0.25465 0.63347 0.0
H1877 H 1.00349 0.25826 0.65806 0.0
H1878 H 0.98034 0.27124 0.65246 0.0
H1879 H 0.94152 0.14639 0.64218 0.0
H1880 H 0.92094 0.1338 0.66453 0.0
H1881 H 0.95856 0.15378 0.66588 0.0
C1882 C 0.80349 0.82111 0.61696 0.0
C1883 C 0.78616 0.82713 0.62851 0.0
C1884 C 0.81141 0.80246 0.62369 0.0
C1885 C 0.80135 0.7893 0.64223 0.0
C1886 C 0.7834 0.79495 0.65375 0.0
C1887 C 0.77617 0.81395 0.6468 0.0
C1888 C 0.83081 0.79711 0.61112 0.0
C1889 C 0.77185 0.78094 0.67342 0.0
C1890 C 0.79971 0.72242 0.65131 0.0
C1891 C 0.82283 0.73055 0.66392 0.0
C1892 C 0.79256 0.74136 0.64412 0.0
C1893 C 0.80912 0.76918 0.64947 0.0
C1894 C 0.83267 0.77762 0.66203 0.0
C1895 C 0.8392 0.75816 0.66917 0.0
C1896 C 0.76706 0.73152 0.63099 0.0
C1897 C 0.85097 0.80717 0.66792 0.0
H1898 H 0.81142 0.83155 0.60291 0.0
H1899 H 0.7626 0.81851 0.65564 0.0
H1900 H 0.84996 0.80212 0.61973 0.0
H1901 H 0.82058 0.77514 0.60715 0.0
H1902 H 0.83702 0.80927 0.59718 0.0
H1903 H 0.75795 0.78748 0.68046 0.0
H1904 H 0.75984 0.75848 0.67122 0.0
H1905 H 0.78922 0.7854 0.68384 0.0
H1906 H 0.7869 0.70113 0.6472 0.0
H1907 H 0.8573 0.76464 0.67871 0.0
H1908 H 0.77305 0.74221 0.61646 0.0
H1909 H 0.75193 0.73641 0.63802 0.0
H1910 H 0.75642 0.70916 0.62821 0.0
H1911 H 0.85929 0.81999 0.6544 0.0
H1912 H 0.86882 0.81042 0.67747 0.0
H1913 H 0.83845 0.81439 0.6761 0.0
C1914 C 0.01668 0.81935 0.62565 0.0
C1915 C 0.03782 0.83509 0.63932 0.0
C1916 C 0.99225 0.79563 0.63183 0.0
C1917 C 0.98894 0.78776 0.65215 0.0
C1918 C 0.01067 0.80353 0.66585 0.0
C1919 C 0.0348 0.82705 0.65925 0.0
C1920 C 0.96973 0.77929 0.6167 0.0
C1921 C 0.00803 0.79634 0.68764 0.0
C1922 C 0.91407 0.74135 0.66971 0.0
C1923 C 0.91197 0.71562 0.66912 0.0
C1924 C 0.9393 0.76514 0.66503 0.0
C1925 C 0.96277 0.76306 0.659 0.0
C1926 C 0.96086 0.73715 0.6588 0.0
C1927 C 0.93551 0.71379 0.66385 0.0
C1928 C 0.94055 0.79239 0.66598 0.0
C1929 C 0.98539 0.73399 0.65271 0.0
H1930 H 0.01897 0.8259 0.61027 0.0
H1931 H 0.05106 0.83963 0.66985 0.0
H1932 H 0.96506 0.75779 0.61662 0.0
H1933 H 0.95018 0.77909 0.62081 0.0
H1934 H 0.97579 0.78767 0.60142 0.0
H1935 H 0.02838 0.80761 0.69557 0.0
H1936 H 0.99325 0.80173 0.69463 0.0
H1937 H 0.99958 0.77413 0.68971 0.0
H1938 H 0.89584 0.74291 0.67324 0.0
H1939 H 0.93384 0.69386 0.66316 0.0
H1940 H 0.94387 0.80124 0.65083 0.0
H1941 H 0.95849 0.80684 0.67532 0.0
H1942 H 0.92112 0.7907 0.67222 0.0
H1943 H 0.99115 0.74074 0.63707 0.0
H1944 H 0.98083 0.71257 0.65397 0.0
H1945 H 0.00383 0.74719 0.66213 0.0
C1946 C 0.18692 0.19563 0.62448 0.0
C1947 C 0.17173 0.201 0.63865 0.0
C1948 C 0.2116 0.19554 0.62988 0.0
C1949 C 0.22106 0.20064 0.64995 0.0
C1950 C 0.20586 0.20664 0.66411 0.0
C1951 C 0.18139 0.20663 0.65829 0.0
C1952 C 0.22728 0.18947 0.6142 0.0
C1953 C 0.21433 0.21161 0.6857 0.0
C1954 C 0.26884 0.17346 0.66682 0.0
C1955 C 0.2953 0.19706 0.66646 0.0
C1956 C 0.24448 0.17446 0.66213 0.0
C1957 C 0.24662 0.19947 0.65611 0.0
C1958 C 0.27332 0.22336 0.65577 0.0
C1959 C 0.29723 0.22185 0.66095 0.0
C1960 C 0.21648 0.14862 0.66339 0.0
C1961 C 0.27666 0.2505 0.64968 0.0
H1962 H 0.17922 0.19095 0.60931 0.0
H1963 H 0.16931 0.2103 0.66932 0.0
H1964 H 0.24938 0.2062 0.6137 0.0
H1965 H 0.22739 0.17046 0.61806 0.0
H1966 H 0.21791 0.18701 0.59916 0.0
H1967 H 0.2053 0.22279 0.69344 0.0
H1968 H 0.20628 0.19154 0.69306 0.0
H1969 H 0.23737 0.22331 0.68748 0.0
H1970 H 0.26709 0.15407 0.67042 0.0
H1971 H 0.31765 0.24011 0.66037 0.0
H1972 H 0.20659 0.14318 0.64844 0.0
H1973 H 0.20236 0.1519 0.6733 0.0
H1974 H 0.21823 0.13114 0.66919 0.0
H1975 H 0.26844 0.24904 0.63438 0.0
H1976 H 0.29882 0.26718 0.65012 0.0
H1977 H 0.26427 0.25597 0.65973 0.0
C1978 C 0.80392 0.98085 0.62618 0.0
C1979 C 0.78617 0.961 0.63969 0.0
C1980 C 0.81016 0.00805 0.62825 0.0
C1981 C 0.79853 0.01526 0.64433 0.0
C1982 C 0.77952 0.9948 0.65742 0.0
C1983 C 0.77356 0.96782 0.65492 0.0
C1984 C 0.83034 0.02927 0.61394 0.0
C1985 C 0.76676 0.00168 0.67478 0.0
C1986 C 0.83867 0.08588 0.66713 0.0
C1987 C 0.82317 0.09784 0.66056 0.0
C1988 C 0.83129 0.05926 0.66151 0.0
C1989 C 0.80811 0.04437 0.64871 0.0
C1990 C 0.79319 0.05677 0.64122 0.0
C1991 C 0.80086 0.08338 0.64728 0.0
C1992 C 0.84773 0.04676 0.66988 0.0
C1993 C 0.76858 0.04162 0.62736 0.0
H1994 H 0.81379 0.97535 0.61454 0.0
H1995 H 0.76004 0.95227 0.66543 0.0
H1996 H 0.82191 0.04223 0.60848 0.0
H1997 H 0.85031 0.04285 0.62173 0.0
H1998 H 0.83484 0.01991 0.60094 0.0
H1999 H 0.75079 0.98314 0.68263 0.0
H2000 H 0.78339 0.01466 0.68558 0.0
H2001 H 0.75688 0.01351 0.66963 0.0
H2002 H 0.85643 0.09718 0.67692 0.0
H2003 H 0.78894 0.09256 0.64194 0.0
H2004 H 0.8549 0.0385 0.6577 0.0
H2005 H 0.83411 0.02947 0.67976 0.0
H2006 H 0.86626 0.06169 0.67859 0.0
H2007 H 0.77435 0.03287 0.61467 0.0
H2008 H 0.76083 0.05497 0.62145 0.0
H2009 H 0.75124 0.02434 0.63539 0.0
C2010 C 0.4981 0.3655 0.7399 0.0
C2011 C 0.50124 0.38507 0.72588 0.0
C2012 C 0.47698 0.33803 0.73763 0.0
C2013 C 0.45899 0.33015 0.72081 0.0
C2014 C 0.4617 0.35024 0.70701 0.0
C2015 C 0.48281 0.37749 0.70975 0.0
C2016 C 0.47466 0.31727 0.75272 0.0
C2017 C 0.44317 0.34277 0.68883 0.0
C2018 C 0.4275 0.25865 0.69924 0.0
C2019 C 0.39929 0.24702 0.7046 0.0
C2020 C 0.44726 0.28534 0.70494 0.0
C2021 C 0.4388 0.30077 0.71665 0.0
C2022 C 0.41065 0.28868 0.72302 0.0
C2023 C 0.39119 0.26196 0.71688 0.0
C2024 C 0.47698 0.29737 0.6977 0.0
C2025 C 0.40087 0.3043 0.73572 0.0
H2026 H 0.51265 0.37149 0.75227 0.0
H2027 H 0.48556 0.39275 0.69883 0.0
H2028 H 0.4527 0.30464 0.75774 0.0
H2029 H 0.48085 0.30328 0.74575 0.0
H2030 H 0.4882 0.32701 0.76592 0.0
H2031 H 0.44692 0.361 0.68015 0.0
H2032 H 0.44699 0.32918 0.679 0.0
H2033 H 0.42084 0.33135 0.69323 0.0
H2034 H 0.43417 0.24704 0.69025 0.0
H2035 H 0.36952 0.25309 0.72129 0.0
H2036 H 0.49187 0.30633 0.71031 0.0
H2037 H 0.4817 0.31408 0.68703 0.0
H2038 H 0.48069 0.28197 0.69015 0.0
H2039 H 0.41482 0.31333 0.74881 0.0
H2040 H 0.37909 0.2912 0.74103 0.0
H2041 H 0.40185 0.3214 0.727 0.0
C2042 C 0.63988 0.12624 0.70032 0.0
C2043 C 0.6328 0.12721 0.72016 0.0
C2044 C 0.66661 0.13113 0.69509 0.0
C2045 C 0.6871 0.13745 0.71004 0.0
C2046 C 0.68009 0.13888 0.7302 0.0
C2047 C 0.65294 0.1337 0.73504 0.0
C2048 C 0.67286 0.12965 0.67346 0.0
C2049 C 0.70115 0.14551 0.74665 0.0
C2050 C 0.74477 0.12048 0.69996 0.0
C2051 C 0.76777 0.14602 0.69532 0.0
C2052 C 0.71854 0.11748 0.70455 0.0
C2053 C 0.71504 0.14065 0.70472 0.0
C2054 C 0.73813 0.16652 0.69967 0.0
C2055 C 0.76427 0.16894 0.69519 0.0
C2056 C 0.69456 0.08942 0.70938 0.0
C2057 C 0.73536 0.19172 0.6993 0.0
H2058 H 0.62431 0.12145 0.6888 0.0
H2059 H 0.64747 0.13457 0.75041 0.0
H2060 H 0.68768 0.15055 0.66817 0.0
H2061 H 0.68281 0.11694 0.67149 0.0
H2062 H 0.6538 0.1211 0.664 0.0
H2063 H 0.69301 0.14716 0.76139 0.0
H2064 H 0.70697 0.12938 0.74747 0.0
H2065 H 0.72051 0.16504 0.74343 0.0
H2066 H 0.74744 0.10274 0.70023 0.0
H2067 H 0.78206 0.18883 0.69205 0.0
H2068 H 0.67699 0.08397 0.69889 0.0
H2069 H 0.68676 0.08934 0.7246 0.0
H2070 H 0.70063 0.07344 0.7085 0.0
H2071 H 0.71886 0.1889 0.68856 0.0
H2072 H 0.7552 0.21027 0.69504 0.0
H2073 H 0.7289 0.19508 0.71418 0.0
C2074 C 0.84992 0.50756 0.74965 0.0
C2075 C 0.86649 0.4995 0.73925 0.0
C2076 C 0.8495 0.5313 0.74421 0.0
C2077 C 0.86588 0.54698 0.72791 0.0
C2078 C 0.8838 0.53956 0.7181 0.0
C2079 C 0.88383 0.51575 0.7239 0.0
C2080 C 0.83022 0.53862 0.75507 0.0
C2081 C 0.90156 0.55573 0.70068 0.0
C2082 C 0.83746 0.58409 0.69746 0.0
C2083 C 0.85419 0.61115 0.70389 0.0
C2084 C 0.8412 0.56312 0.7051 0.0
C2085 C 0.86199 0.56926 0.71975 0.0
C2086 C 0.87882 0.59647 0.72648 0.0
C2087 C 0.87474 0.61713 0.71844 0.0
C2088 C 0.82282 0.53436 0.69748 0.0
C2089 C 0.90109 0.60373 0.74214 0.0
H2090 H 0.83634 0.49463 0.7614 0.0
H2091 H 0.89639 0.50914 0.7158 0.0
H2092 H 0.84147 0.56055 0.75925 0.0
H2093 H 0.81271 0.53518 0.74511 0.0
H2094 H 0.82136 0.52622 0.76873 0.0
H2095 H 0.91647 0.54898 0.69608 0.0
H2096 H 0.88786 0.5533 0.68781 0.0
H2097 H 0.91352 0.5778 0.70439 0.0
H2098 H 0.82115 0.57914 0.68655 0.0
H2099 H 0.88771 0.63797 0.72357 0.0
H2100 H 0.8109 0.52069 0.70997 0.0
H2101 H 0.83592 0.52654 0.69098 0.0
H2102 H 0.80775 0.53311 0.68596 0.0
H2103 H 0.89158 0.59191 0.75591 0.0
H2104 H 0.91225 0.62584 0.74588 0.0
H2105 H 0.91658 0.59812 0.73687 0.0
C2106 C 0.45971 0.90306 0.22769 0.0
C2107 C 0.44906 0.91295 0.24249 0.0
C2108 C 0.46949 0.91677 0.20941 0.0
C2109 C 0.46877 0.94109 0.20574 0.0
C2110 C 0.45817 0.95123 0.22064 0.0
C2111 C 0.44849 0.9371 0.23875 0.0
C2112 C 0.48052 0.90516 0.19396 0.0
C2113 C 0.4572 0.97717 0.21751 0.0
C2114 C 0.51784 0.99267 0.16758 0.0
C2115 C 0.49992 0.98829 0.15138 0.0
C2116 C 0.50814 0.97712 0.18509 0.0
C2117 C 0.47974 0.95641 0.18659 0.0
C2118 C 0.46171 0.95122 0.17007 0.0
C2119 C 0.47198 0.96717 0.1527 0.0
C2120 C 0.5282 0.98333 0.20221 0.0
C2121 C 0.43132 0.9293 0.17095 0.0
H2122 H 0.45993 0.88425 0.23026 0.0
H2123 H 0.44069 0.94518 0.25012 0.0
H2124 H 0.46829 0.90092 0.17999 0.0
H2125 H 0.50255 0.92029 0.19039 0.0
H2126 H 0.47953 0.886 0.199 0.0
H2127 H 0.44796 0.98216 0.2304 0.0
H2128 H 0.47862 0.9945 0.215 0.0
H2129 H 0.4447 0.97523 0.20403 0.0
H2130 H 0.53959 0.00852 0.16663 0.0
H2131 H 0.45786 0.96368 0.14039 0.0
H2132 H 0.52843 0.96458 0.20673 0.0
H2133 H 0.52119 0.99034 0.21528 0.0
H2134 H 0.54987 0.99933 0.19845 0.0
H2135 H 0.42942 0.90953 0.17531 0.0
H2136 H 0.42045 0.9266 0.15648 0.0
H2137 H 0.42048 0.93465 0.18247 0.0
C2138 C 0.11381 0.53596 0.2277 0.0
C2139 C 0.09808 0.54019 0.24219 0.0
C2140 C 0.10491 0.53066 0.2078 0.0
C2141 C 0.07985 0.52995 0.20217 0.0
C2142 C 0.06504 0.53631 0.21638 0.0
C2143 C 0.07424 0.54121 0.23626 0.0
C2144 C 0.12134 0.52398 0.19314 0.0
C2145 C 0.03848 0.5362 0.21089 0.0
C2146 C 0.0641 0.52573 0.14662 0.0
C2147 C 0.04658 0.49749 0.14396 0.0
C2148 C 0.07452 0.53682 0.16558 0.0
C2149 C 0.06746 0.51921 0.18219 0.0
C2150 C 0.04932 0.4908 0.17964 0.0
C2151 C 0.03897 0.48036 0.16064 0.0
C2152 C 0.09354 0.56725 0.16775 0.0
C2153 C 0.04128 0.47127 0.19694 0.0
H2154 H 0.1326 0.53575 0.23207 0.0
H2155 H 0.06187 0.54435 0.24733 0.0
H2156 H 0.10904 0.50206 0.189 0.0
H2157 H 0.1252 0.53599 0.1793 0.0
H2158 H 0.14174 0.52808 0.19934 0.0
H2159 H 0.0319 0.54559 0.22269 0.0
H2160 H 0.04116 0.54734 0.19675 0.0
H2161 H 0.02142 0.51485 0.20857 0.0
H2162 H 0.07025 0.53912 0.13382 0.0
H2163 H 0.02491 0.45861 0.15884 0.0
H2164 H 0.11478 0.57168 0.17211 0.0
H2165 H 0.08584 0.57531 0.17975 0.0
H2166 H 0.09513 0.57834 0.15375 0.0
H2167 H 0.06029 0.47236 0.20346 0.0
H2168 H 0.02662 0.4498 0.1925 0.0
H2169 H 0.03132 0.47714 0.2088 0.0
C2170 C 0.4783 0.57632 0.22163 0.0
C2171 C 0.46773 0.5589 0.23814 0.0
C2172 C 0.4842 0.56749 0.20366 0.0
C2173 C 0.47954 0.54056 0.20209 0.0
C2174 C 0.46776 0.52249 0.21842 0.0
C2175 C 0.46191 0.53185 0.23622 0.0
C2176 C 0.49643 0.58738 0.18661 0.0
C2177 C 0.4625 0.49364 0.21739 0.0
C2178 C 0.48047 0.51264 0.15043 0.0
C2179 C 0.50787 0.51717 0.14942 0.0
C2180 C 0.47084 0.51997 0.16747 0.0
C2181 C 0.489 0.53209 0.18395 0.0
C2182 C 0.51668 0.53679 0.18299 0.0
C2183 C 0.52576 0.52938 0.16578 0.0
C2184 C 0.44123 0.5147 0.16786 0.0
C2185 C 0.53683 0.5498 0.20013 0.0
H2186 H 0.48242 0.59712 0.22289 0.0
H2187 H 0.45388 0.51832 0.24893 0.0
H2188 H 0.51818 0.59205 0.18382 0.0
H2189 H 0.4843 0.57821 0.17278 0.0
H2190 H 0.49672 0.60683 0.18964 0.0
H2191 H 0.45114 0.48148 0.23066 0.0
H2192 H 0.45021 0.48319 0.20387 0.0
H2193 H 0.48274 0.49403 0.2163 0.0
H2194 H 0.46636 0.50296 0.138 0.0
H2195 H 0.5471 0.53344 0.16507 0.0
H2196 H 0.44129 0.53414 0.17028 0.0
H2197 H 0.42971 0.50105 0.18047 0.0
H2198 H 0.42974 0.50518 0.15385 0.0
H2199 H 0.54013 0.57052 0.20307 0.0
H2200 H 0.55745 0.55153 0.19722 0.0
H2201 H 0.52794 0.53762 0.21386 0.0
C2202 C 0.91418 0.43206 0.81353 0.0
C2203 C 0.91815 0.44791 0.79652 0.0
C2204 C 0.93108 0.4432 0.83044 0.0
C2205 C 0.95262 0.47087 0.83031 0.0
C2206 C 0.95642 0.48716 0.81332 0.0
C2207 C 0.93902 0.4755 0.79662 0.0
C2208 C 0.92612 0.42521 0.84834 0.0
C2209 C 0.97928 0.5167 0.8126 0.0
C2210 C 0.98221 0.50352 0.88063 0.0
C2211 C 0.00597 0.50065 0.8821 0.0
C2212 C 0.96495 0.49445 0.86369 0.0
C2213 C 0.97168 0.48233 0.84778 0.0
C2214 C 0.99592 0.47987 0.84898 0.0
C2215 C 0.0127 0.48898 0.86613 0.0
C2216 C 0.93926 0.49739 0.86297 0.0
C2217 C 0.00379 0.46704 0.83233 0.0
H2218 H 0.89776 0.41083 0.81361 0.0
H2219 H 0.94223 0.48776 0.78345 0.0
H2220 H 0.94487 0.42333 0.85121 0.0
H2221 H 0.92265 0.43456 0.86177 0.0
H2222 H 0.90782 0.40441 0.8463 0.0
H2223 H 0.97874 0.52689 0.79863 0.0
H2224 H 0.97739 0.52805 0.82542 0.0
H2225 H 0.99998 0.51805 0.81382 0.0
H2226 H 0.97709 0.51292 0.89275 0.0
H2227 H 0.0308 0.48635 0.86722 0.0
H2228 H 0.92025 0.47691 0.86205 0.0
H2229 H 0.93962 0.50878 0.84945 0.0
H2230 H 0.93751 0.50817 0.87626 0.0
H2231 H 0.98737 0.44532 0.83055 0.0
H2232 H 0.02409 0.468 0.8351 0.0
H2233 H 0.00512 0.47745 0.81806 0.0
C2234 C 0.57446 0.50479 0.79648 0.0
C2235 C 0.56981 0.47922 0.79006 0.0
C2236 C 0.56421 0.50789 0.81484 0.0
C2237 C 0.54923 0.48492 0.82732 0.0
C2238 C 0.54518 0.45917 0.82121 0.0
C2239 C 0.55524 0.45656 0.80255 0.0
C2240 C 0.56861 0.53561 0.82054 0.0
C2241 C 0.52983 0.43431 0.83424 0.0
C2242 C 0.54117 0.50163 0.88111 0.0
C2243 C 0.5143 0.49856 0.88088 0.0
C2244 C 0.55238 0.49612 0.86407 0.0
C2245 C 0.53659 0.48779 0.8462 0.0
C2246 C 0.50921 0.48394 0.84601 0.0
C2247 C 0.49834 0.48906 0.86334 0.0
C2248 C 0.58147 0.50006 0.86502 0.0
C2249 C 0.49168 0.47529 0.82727 0.0
H2250 H 0.58533 0.52231 0.78678 0.0
H2251 H 0.55172 0.43679 0.7977 0.0
H2252 H 0.54808 0.53457 0.82196 0.0
H2253 H 0.57916 0.54195 0.83523 0.0
H2254 H 0.58136 0.55155 0.80944 0.0
H2255 H 0.53027 0.41629 0.82806 0.0
H2256 H 0.53921 0.43866 0.84937 0.0
H2257 H 0.50772 0.42907 0.83587 0.0
H2258 H 0.55389 0.50916 0.89443 0.0
H2259 H 0.47731 0.48589 0.86303 0.0
H2260 H 0.59577 0.51772 0.85569 0.0
H2261 H 0.58155 0.48183 0.85897 0.0
H2262 H 0.58985 0.50379 0.88046 0.0
H2263 H 0.50221 0.49102 0.81559 0.0
H2264 H 0.47046 0.47234 0.82973 0.0
H2265 H 0.48953 0.45596 0.82147 0.0
C2266 C 0.56117 0.09905 0.80126 0.0
C2267 C 0.5399 0.10242 0.79245 0.0
C2268 C 0.55699 0.08507 0.81944 0.0
C2269 C 0.53148 0.0754 0.82987 0.0
C2270 C 0.51076 0.08043 0.82193 0.0
C2271 C 0.51481 0.09301 0.80322 0.0
C2272 C 0.57937 0.07942 0.82696 0.0
C2273 C 0.48369 0.07162 0.83285 0.0
C2274 C 0.50339 0.01232 0.86281 0.0
C2275 C 0.51259 0.02334 0.88201 0.0
C2276 C 0.51026 0.02897 0.84586 0.0
C2277 C 0.52527 0.05772 0.84795 0.0
C2278 C 0.53354 0.06922 0.86725 0.0
C2279 C 0.52774 0.05201 0.8839 0.0
C2280 C 0.5015 0.01562 0.82561 0.0
C2281 C 0.54838 0.09974 0.87034 0.0
H2282 H 0.58105 0.10672 0.79384 0.0
H2283 H 0.49758 0.09444 0.79691 0.0
H2284 H 0.58555 0.08724 0.84235 0.0
H2285 H 0.571 0.05703 0.82743 0.0
H2286 H 0.59831 0.08881 0.81743 0.0
H2287 H 0.47212 0.08135 0.82668 0.0
H2288 H 0.47007 0.04916 0.83165 0.0
H2289 H 0.48771 0.07681 0.84891 0.0
H2290 H 0.49065 0.99048 0.8608 0.0
H2291 H 0.53542 0.06123 0.89835 0.0
H2292 H 0.5197 0.02422 0.8154 0.0
H2293 H 0.48563 0.01983 0.81902 0.0
H2294 H 0.49251 0.99314 0.8263 0.0
H2295 H 0.56941 0.10933 0.86349 0.0
H2296 H 0.55083 0.10539 0.88636 0.0
H2297 H 0.53664 0.10847 0.86292 0.0
C2298 C 0.1141 0.27053 0.57243 0.0
C2299 C 0.114 0.2461 0.57636 0.0
C2300 C 0.12447 0.2846 0.55437 0.0
C2301 C 0.13498 0.27405 0.53971 0.0
C2302 C 0.13488 0.24936 0.54355 0.0
C2303 C 0.1245 0.23576 0.5618 0.0
C2304 C 0.12441 0.31097 0.55106 0.0
C2305 C 0.14571 0.23726 0.52834 0.0
C2306 C 0.14072 0.30082 0.48661 0.0
C2307 C 0.16898 0.32126 0.48567 0.0
C2308 C 0.1295 0.28485 0.50388 0.0
C2309 C 0.14688 0.28939 0.52069 0.0
C2310 C 0.17557 0.30941 0.5196 0.0
C2311 C 0.18624 0.32493 0.50216 0.0
C2312 C 0.09885 0.26361 0.50431 0.0
C2313 C 0.19495 0.31494 0.53707 0.0
H2314 H 0.10638 0.27891 0.58363 0.0
H2315 H 0.12418 0.21673 0.56453 0.0
H2316 H 0.14612 0.32793 0.54885 0.0
H2317 H 0.11247 0.30946 0.53736 0.0
H2318 H 0.11508 0.31624 0.56375 0.0
H2319 H 0.14377 0.2177 0.53341 0.0
H2320 H 0.13406 0.2336 0.51415 0.0
H2321 H 0.16803 0.25185 0.52515 0.0
H2322 H 0.1271 0.29787 0.47408 0.0
H2323 H 0.20822 0.34021 0.50152 0.0
H2324 H 0.08803 0.26937 0.51557 0.0
H2325 H 0.09612 0.24354 0.50878 0.0
H2326 H 0.08854 0.26129 0.48966 0.0
H2327 H 0.18783 0.32212 0.54998 0.0
H2328 H 0.2169 0.33058 0.53365 0.0
H2329 H 0.19444 0.29586 0.54164 0.0
C2330 C 0.7253 0.84062 0.57206 0.0
C2331 C 0.7487 0.86542 0.57768 0.0
C2332 C 0.71196 0.83782 0.55372 0.0
C2333 C 0.72248 0.86028 0.54052 0.0
C2334 C 0.7462 0.88539 0.54607 0.0
C2335 C 0.7589 0.88773 0.56469 0.0
C2336 C 0.68646 0.81083 0.54853 0.0
C2337 C 0.75826 0.90966 0.53228 0.0
C2338 C 0.70021 0.84152 0.48656 0.0
C2339 C 0.67784 0.84658 0.48504 0.0
C2340 C 0.71569 0.84697 0.50427 0.0
C2341 C 0.70838 0.85732 0.52101 0.0
C2342 C 0.68632 0.86313 0.51944 0.0
C2343 C 0.67151 0.85792 0.50146 0.0
C2344 C 0.73929 0.8408 0.50527 0.0
C2345 C 0.67775 0.874 0.53698 0.0
H2346 H 0.71716 0.82345 0.5822 0.0
H2347 H 0.77711 0.90687 0.56897 0.0
H2348 H 0.66839 0.81384 0.54566 0.0
H2349 H 0.69027 0.80247 0.5347 0.0
H2350 H 0.68074 0.79549 0.56056 0.0
H2351 H 0.77692 0.92764 0.53874 0.0
H2352 H 0.76426 0.90422 0.51797 0.0
H2353 H 0.74228 0.91548 0.52887 0.0
H2354 H 0.70515 0.83249 0.47411 0.0
H2355 H 0.65471 0.8625 0.50035 0.0
H2356 H 0.73369 0.82358 0.51563 0.0
H2357 H 0.75849 0.8587 0.51117 0.0
H2358 H 0.74403 0.83527 0.49049 0.0
H2359 H 0.67012 0.85877 0.54917 0.0
H2360 H 0.66098 0.8786 0.53308 0.0
H2361 H 0.69599 0.89286 0.54282 0.0
C2362 C 0.16471 0.89128 0.57018 0.0
C2363 C 0.13866 0.88892 0.5743 0.0
C2364 C 0.16969 0.88185 0.55215 0.0
C2365 C 0.14804 0.86939 0.53783 0.0
C2366 C 0.12142 0.86619 0.54208 0.0
C2367 C 0.11706 0.87602 0.56024 0.0
C2368 C 0.19835 0.88561 0.54833 0.0
C2369 C 0.09772 0.85284 0.52728 0.0
C2370 C 0.17208 0.87017 0.48452 0.0
C2371 C 0.16985 0.84441 0.48297 0.0
C2372 C 0.16419 0.87824 0.50204 0.0
C2373 C 0.15359 0.86006 0.51839 0.0
C2374 C 0.15026 0.83363 0.5166 0.0
C2375 C 0.1585 0.82618 0.49898 0.0
C2376 C 0.16825 0.90665 0.50333 0.0
C2377 C 0.13877 0.81348 0.53353 0.0
H2378 H 0.18139 0.90071 0.58107 0.0
H2379 H 0.09694 0.87427 0.56317 0.0
H2380 H 0.19672 0.86554 0.54546 0.0
H2381 H 0.20752 0.89829 0.53486 0.0
H2382 H 0.21289 0.89556 0.56103 0.0
H2383 H 0.07795 0.85069 0.53318 0.0
H2384 H 0.10331 0.86514 0.51345 0.0
H2385 H 0.09409 0.83231 0.52315 0.0
H2386 H 0.181 0.88444 0.47229 0.0
H2387 H 0.15629 0.80608 0.49779 0.0
H2388 H 0.1844 0.91864 0.51471 0.0
H2389 H 0.1486 0.90576 0.5081 0.0
H2390 H 0.1749 0.91765 0.48891 0.0
H2391 H 0.1535 0.82122 0.5463 0.0
H2392 H 0.13539 0.79307 0.52924 0.0
H2393 H 0.11864 0.81117 0.53872 0.0
C2394 C 0.6184 0.81267 0.12735 0.0
C2395 C 0.59454 0.78689 0.12484 0.0
C2396 C 0.63196 0.82088 0.14587 0.0
C2397 C 0.62141 0.80288 0.1623 0.0
C2398 C 0.59656 0.77739 0.16011 0.0
C2399 C 0.58343 0.76971 0.14142 0.0
C2400 C 0.65838 0.84825 0.1476 0.0
C2401 C 0.58451 0.7577 0.17728 0.0
C2402 C 0.67387 0.8089 0.20147 0.0
C2403 C 0.66958 0.82341 0.2167 0.0
C2404 C 0.65822 0.80201 0.1838 0.0
C2405 C 0.63766 0.80973 0.18124 0.0
C2406 C 0.63294 0.82408 0.19663 0.0
C2407 C 0.64896 0.83075 0.21418 0.0
C2408 C 0.6638 0.78654 0.1678 0.0
C2409 C 0.61121 0.83266 0.19445 0.0
H2410 H 0.62728 0.82596 0.11459 0.0
H2411 H 0.56476 0.74993 0.13965 0.0
H2412 H 0.65719 0.85975 0.16059 0.0
H2413 H 0.67647 0.84515 0.15006 0.0
H2414 H 0.66238 0.86086 0.13403 0.0
H2415 H 0.56378 0.73983 0.17363 0.0
H2416 H 0.59896 0.7502 0.18136 0.0
H2417 H 0.58229 0.76814 0.19056 0.0
H2418 H 0.68942 0.80275 0.20343 0.0
H2419 H 0.6457 0.84219 0.2258 0.0
H2420 H 0.67025 0.79862 0.15386 0.0
H2421 H 0.64441 0.76704 0.16448 0.0
H2422 H 0.6804 0.78192 0.17216 0.0
H2423 H 0.61653 0.84675 0.18165 0.0
H2424 H 0.60954 0.84301 0.20801 0.0
H2425 H 0.59047 0.81458 0.19127 0.0
C2426 C 0.25409 0.83372 0.13681 0.0
C2427 C 0.23744 0.81068 0.12481 0.0
C2428 C 0.24355 0.83925 0.15414 0.0
C2429 C 0.21625 0.82039 0.16069 0.0
C2430 C 0.19972 0.79643 0.14938 0.0
C2431 C 0.21009 0.79234 0.13134 0.0
C2432 C 0.2616 0.86563 0.16525 0.0
C2433 C 0.17099 0.77504 0.15626 0.0
C2434 C 0.20304 0.82913 0.21522 0.0
C2435 C 0.18673 0.84186 0.21384 0.0
C2436 C 0.21136 0.82059 0.19813 0.0
C2437 C 0.20482 0.82634 0.179 0.0
C2438 C 0.18837 0.839 0.17739 0.0
C2439 C 0.17874 0.84562 0.19469 0.0
C2440 C 0.22754 0.80576 0.2006 0.0
C2441 C 0.18167 0.84646 0.15735 0.0
H2442 H 0.27557 0.84772 0.13284 0.0
H2443 H 0.1964 0.7747 0.12241 0.0
H2444 H 0.24995 0.87668 0.1676 0.0
H2445 H 0.2671 0.86125 0.18013 0.0
H2446 H 0.28127 0.8793 0.15721 0.0
H2447 H 0.1632 0.75548 0.14805 0.0
H2448 H 0.17118 0.77106 0.17242 0.0
H2449 H 0.15599 0.78238 0.15387 0.0
H2450 H 0.20996 0.82617 0.22958 0.0
H2451 H 0.16515 0.85412 0.19299 0.0
H2452 H 0.24982 0.81962 0.19687 0.0
H2453 H 0.21941 0.78799 0.19034 0.0
H2454 H 0.22645 0.79843 0.21609 0.0
H2455 H 0.20123 0.85888 0.14883 0.0
H2456 H 0.17054 0.85819 0.15869 0.0
H2457 H 0.16843 0.82774 0.14855 0.0
C2458 C 0.17847 0.40352 0.12799 0.0
C2459 C 0.20425 0.42662 0.12326 0.0
C2460 C 0.17395 0.39039 0.1465 0.0
C2461 C 0.19582 0.40017 0.16074 0.0
C2462 C 0.2221 0.42308 0.15596 0.0
C2463 C 0.22596 0.43606 0.13737 0.0
C2464 C 0.1456 0.36604 0.15086 0.0
C2465 C 0.2461 0.43402 0.17057 0.0
C2466 C 0.17363 0.37868 0.21468 0.0
C2467 C 0.17642 0.35543 0.21633 0.0
C2468 C 0.18066 0.39396 0.19691 0.0
C2469 C 0.19108 0.38603 0.18044 0.0
C2470 C 0.19516 0.36332 0.1824 0.0
C2471 C 0.18765 0.34827 0.20021 0.0
C2472 C 0.17576 0.41786 0.19548 0.0
C2473 C 0.2066 0.35433 0.16543 0.0
H2474 H 0.16167 0.39557 0.11714 0.0
H2475 H 0.24587 0.45401 0.13408 0.0
H2476 H 0.14764 0.34781 0.15374 0.0
H2477 H 0.13676 0.36992 0.16448 0.0
H2478 H 0.13059 0.36129 0.1384 0.0
H2479 H 0.26544 0.4515 0.16445 0.0
H2480 H 0.24033 0.44078 0.18439 0.0
H2481 H 0.25061 0.41765 0.17479 0.0
H2482 H 0.1648 0.38425 0.22699 0.0
H2483 H 0.19021 0.33052 0.20144 0.0
H2484 H 0.15908 0.41328 0.18437 0.0
H2485 H 0.19495 0.43628 0.19026 0.0
H2486 H 0.16942 0.4226 0.20995 0.0
H2487 H 0.19144 0.34687 0.1529 0.0
H2488 H 0.21074 0.33775 0.16985 0.0
H2489 H 0.2263 0.37183 0.15984 0.0
C2490 C 0.79278 0.56845 0.89416 0.0
C2491 C 0.78204 0.57844 0.90881 0.0
C2492 C 0.8029 0.58215 0.87589 0.0
C2493 C 0.80243 0.60658 0.8721 0.0
C2494 C 0.79173 0.61681 0.88686 0.0
C2495 C 0.78171 0.60268 0.90494 0.0
C2496 C 0.81401 0.57042 0.86061 0.0
C2497 C 0.79102 0.64287 0.88361 0.0
C2498 C 0.85241 0.65814 0.83427 0.0
C2499 C 0.8348 0.65402 0.81791 0.0
C2500 C 0.84231 0.6425 0.85172 0.0
C2501 C 0.81383 0.62194 0.85299 0.0
C2502 C 0.79612 0.61697 0.8363 0.0
C2503 C 0.80678 0.63302 0.819 0.0
C2504 C 0.86205 0.64849 0.86903 0.0
C2505 C 0.76566 0.59521 0.83693 0.0
H2506 H 0.79283 0.54958 0.89681 0.0
H2507 H 0.77384 0.61085 0.9162 0.0
H2508 H 0.80205 0.56633 0.84652 0.0
H2509 H 0.83614 0.58541 0.85722 0.0
H2510 H 0.81273 0.55115 0.86571 0.0
H2511 H 0.78164 0.64792 0.89638 0.0
H2512 H 0.81255 0.66011 0.88127 0.0
H2513 H 0.7788 0.64106 0.87 0.0
H2514 H 0.87421 0.67388 0.83351 0.0
H2515 H 0.7929 0.62971 0.80657 0.0
H2516 H 0.862 0.62964 0.87361 0.0
H2517 H 0.85492 0.65557 0.88199 0.0
H2518 H 0.88383 0.66437 0.86542 0.0
H2519 H 0.76352 0.57536 0.84135 0.0
H2520 H 0.75508 0.59263 0.82236 0.0
H2521 H 0.7547 0.60063 0.8483 0.0
C2522 C 0.3973 0.20868 0.90612 0.0
C2523 C 0.41829 0.20178 0.9084 0.0
C2524 C 0.38378 0.2054 0.88776 0.0
C2525 C 0.39111 0.19461 0.87131 0.0
C2526 C 0.41289 0.18846 0.8733 0.0
C2527 C 0.42633 0.19231 0.89175 0.0
C2528 C 0.36087 0.21249 0.88618 0.0
C2529 C 0.42127 0.17682 0.85613 0.0
C2530 C 0.33454 0.15613 0.83259 0.0
C2531 C 0.34272 0.17523 0.81715 0.0
C2532 C 0.35031 0.16211 0.85016 0.0
C2533 C 0.3747 0.18796 0.85247 0.0
C2534 C 0.38312 0.20734 0.83691 0.0
C2535 C 0.36711 0.20066 0.81935 0.0
C2536 C 0.34084 0.14072 0.86627 0.0
C2537 C 0.40878 0.23523 0.83892 0.0
H2538 H 0.39066 0.21572 0.91889 0.0
H2539 H 0.44291 0.18745 0.89322 0.0
H2540 H 0.36446 0.22582 0.87312 0.0
H2541 H 0.34047 0.19359 0.8839 0.0
H2542 H 0.35947 0.22303 0.89973 0.0
H2543 H 0.43964 0.17458 0.85977 0.0
H2544 H 0.40354 0.15646 0.85203 0.0
H2545 H 0.42628 0.19009 0.84286 0.0
H2546 H 0.31588 0.13633 0.83082 0.0
H2547 H 0.37334 0.21555 0.80749 0.0
H2548 H 0.3364 0.14855 0.88012 0.0
H2549 H 0.35773 0.13615 0.86972 0.0
H2550 H 0.32177 0.12141 0.86195 0.0
H2551 H 0.40636 0.24618 0.8518 0.0
H2552 H 0.41268 0.24785 0.82536 0.0
H2553 H 0.42743 0.23322 0.84188 0.0
C2554 C 0.79167 0.19683 0.90238 0.0
C2555 C 0.79888 0.2243 0.90427 0.0
C2556 C 0.79717 0.18697 0.88466 0.0
C2557 C 0.80999 0.20494 0.86841 0.0
C2558 C 0.81623 0.23239 0.87001 0.0
C2559 C 0.81063 0.24169 0.88786 0.0
C2560 C 0.79021 0.15758 0.8836 0.0
C2561 C 0.82967 0.25223 0.85305 0.0
C2562 C 0.85423 0.19105 0.83199 0.0
C2563 C 0.83633 0.17996 0.8155 0.0
C2564 C 0.84575 0.19885 0.84931 0.0
C2565 C 0.81868 0.19571 0.85026 0.0
C2566 C 0.80051 0.18469 0.83365 0.0
C2567 C 0.80953 0.17695 0.81649 0.0
C2568 C 0.86591 0.21067 0.86657 0.0
C2569 C 0.77153 0.18108 0.83401 0.0
H2570 H 0.78266 0.18329 0.91499 0.0
H2571 H 0.81578 0.26282 0.88906 0.0
H2572 H 0.77764 0.14761 0.87007 0.0
H2573 H 0.80979 0.15671 0.88248 0.0
H2574 H 0.77843 0.14573 0.89686 0.0
H2575 H 0.8315 0.27236 0.85617 0.0
H2576 H 0.85089 0.25542 0.85027 0.0
H2577 H 0.81736 0.24377 0.83918 0.0
H2578 H 0.87515 0.19394 0.8313 0.0
H2579 H 0.7954 0.16813 0.80396 0.0
H2580 H 0.85633 0.19855 0.88021 0.0
H2581 H 0.87057 0.23183 0.86962 0.0
H2582 H 0.88591 0.21106 0.86371 0.0
H2583 H 0.75948 0.16774 0.84661 0.0
H2584 H 0.75983 0.172 0.81998 0.0
H2585 H 0.77286 0.20111 0.83641 0.0
C2586 C 0.25462 0.10777 0.47325 0.0
C2587 C 0.26559 0.12448 0.45644 0.0
C2588 C 0.26762 0.11616 0.49194 0.0
C2589 C 0.29216 0.14194 0.49391 0.0
C2590 C 0.30251 0.1595 0.47723 0.0
C2591 C 0.28912 0.15055 0.45869 0.0
C2592 C 0.25581 0.09688 0.50936 0.0
C2593 C 0.32855 0.1872 0.47872 0.0
C2594 C 0.31868 0.17089 0.54574 0.0
C2595 C 0.33966 0.16413 0.54867 0.0
C2596 C 0.30298 0.16381 0.52802 0.0
C2597 C 0.30833 0.14954 0.51291 0.0
C2598 C 0.32929 0.14245 0.51587 0.0
C2599 C 0.34468 0.14983 0.53368 0.0
C2600 C 0.28088 0.17182 0.52538 0.0
C2601 C 0.3355 0.12703 0.50021 0.0
H2602 H 0.23617 0.08777 0.4717 0.0
H2603 H 0.2979 0.16351 0.44576 0.0
H2604 H 0.27062 0.08995 0.51379 0.0
H2605 H 0.25321 0.10747 0.52239 0.0
H2606 H 0.23531 0.07863 0.50582 0.0
H2607 H 0.33229 0.19943 0.46497 0.0
H2608 H 0.32705 0.19882 0.49151 0.0
H2609 H 0.34694 0.18463 0.48137 0.0
H2610 H 0.31488 0.18217 0.55719 0.0
H2611 H 0.36055 0.14417 0.53595 0.0
H2612 H 0.26031 0.15342 0.5224 0.0
H2613 H 0.28597 0.18544 0.51231 0.0
H2614 H 0.27897 0.18247 0.53867 0.0
H2615 H 0.3164 0.10725 0.49696 0.0
H2616 H 0.35239 0.12296 0.50485 0.0
H2617 H 0.34186 0.13885 0.48615 0.0
C2618 C 0.90194 0.16818 0.46032 0.0
C2619 C 0.90306 0.14427 0.45678 0.0
C2620 C 0.89112 0.172 0.47818 0.0
C2621 C 0.88111 0.15143 0.49296 0.0
C2622 C 0.88218 0.12725 0.48951 0.0
C2623 C 0.89309 0.12395 0.47147 0.0
C2624 C 0.89018 0.198 0.48118 0.0
C2625 C 0.87183 0.10487 0.50488 0.0
C2626 C 0.87467 0.17283 0.54567 0.0
C2627 C 0.8462 0.16486 0.54653 0.0
C2628 C 0.88622 0.16806 0.52851 0.0
C2629 C 0.86892 0.15504 0.51177 0.0
C2630 C 0.84006 0.14634 0.51275 0.0
C2631 C 0.82907 0.15128 0.53008 0.0
C2632 C 0.91708 0.17759 0.5281 0.0
C2633 C 0.82084 0.13227 0.49531 0.0
H2634 H 0.90923 0.18383 0.44897 0.0
H2635 H 0.8942 0.10557 0.46899 0.0
H2636 H 0.86823 0.19311 0.48325 0.0
H2637 H 0.90187 0.20862 0.49486 0.0
H2638 H 0.89922 0.2122 0.4684 0.0
H2639 H 0.87435 0.08744 0.50002 0.0
H2640 H 0.88337 0.11306 0.51907 0.0
H2641 H 0.84939 0.09718 0.508 0.0
H2642 H 0.88813 0.18352 0.5582 0.0
H2643 H 0.80696 0.14456 0.53073 0.0
H2644 H 0.92748 0.19367 0.51664 0.0
H2645 H 0.92042 0.16045 0.52393 0.0
H2646 H 0.92735 0.18595 0.54269 0.0
H2647 H 0.82763 0.14617 0.4823 0.0
H2648 H 0.79874 0.12597 0.49868 0.0
H2649 H 0.82195 0.11392 0.49093 0.0
C2650 C 0.8828 0.74664 0.46126 0.0
C2651 C 0.87482 0.76644 0.45875 0.0
C2652 C 0.87775 0.73215 0.47928 0.0
C2653 C 0.86463 0.73771 0.49532 0.0
C2654 C 0.85751 0.75841 0.4931 0.0
C2655 C 0.86259 0.7724 0.47491 0.0
C2656 C 0.88555 0.71018 0.4809 0.0
C2657 C 0.84381 0.76531 0.5098 0.0
C2658 C 0.82246 0.68076 0.53246 0.0
C2659 C 0.84092 0.68765 0.54868 0.0
C2660 C 0.82997 0.69679 0.51513 0.0
C2661 C 0.85657 0.72067 0.51386 0.0
C2662 C 0.87513 0.72815 0.53032 0.0
C2663 C 0.86712 0.71158 0.54748 0.0
C2664 C 0.80939 0.68802 0.49807 0.0
C2665 C 0.90358 0.75353 0.5297 0.0
H2666 H 0.89211 0.74178 0.44887 0.0
H2667 H 0.85678 0.78798 0.47327 0.0
H2668 H 0.89858 0.71356 0.49435 0.0
H2669 H 0.86634 0.68999 0.48256 0.0
H2670 H 0.89718 0.70948 0.46765 0.0
H2671 H 0.84139 0.78321 0.50626 0.0
H2672 H 0.82282 0.74756 0.51283 0.0
H2673 H 0.85628 0.76971 0.52367 0.0
H2674 H 0.80194 0.6627 0.53329 0.0
H2675 H 0.88169 0.71706 0.55978 0.0
H2676 H 0.81885 0.68494 0.48445 0.0
H2677 H 0.80429 0.70425 0.49476 0.0
H2678 H 0.78965 0.66879 0.50129 0.0
H2679 H 0.91608 0.75186 0.51744 0.0
H2680 H 0.91528 0.75702 0.54388 0.0
H2681 H 0.90142 0.77165 0.52657 0.0
loop_
_geom_bond_atom_site_label_1
_geom_bond_atom_site_label_2
_geom_bond_distance
_geom_bond_site_symmetry_2
_ccdc_geom_bond_type
H0 C3 0.929 . S
H1 C6 0.929 . S
H2 C8 0.930 . S
C3 H0 0.929 . S
C3 C4 1.398 . S
C3 C5 1.396 . S
C4 C3 1.398 . S
C4 C8 1.407 . S
C5 C3 1.396 . S
C5 C6 1.394 . S
C6 H1 0.929 . S
C6 C5 1.394 . S
C6 C7 1.382 . S
C7 C6 1.382 . S
C7 C8 1.392 . S
C7 N9 1.420 . S
C8 H2 0.930 . S
C8 C4 1.407 . S
C8 C7 1.392 . S
N9 C7 1.420 . S
N9 C10 1.244 . S
C10 N9 1.244 . S
H11 C14 0.929 . S
H12 C17 0.929 . S
H13 C19 0.930 . S
C14 H11 0.929 . S
C14 C15 1.398 . S
C14 C16 1.396 . S
C15 C14 1.398 . S
C15 C19 1.407 . S
C16 C14 1.396 . S
C16 C17 1.394 . S
C17 H12 0.929 . S
C17 C16 1.394 . S
C17 C18 1.382 . S
C18 C17 1.382 . S
C18 C19 1.392 . S
C18 N20 1.420 . S
C19 H13 0.930 . S
C19 C15 1.407 . S
C19 C18 1.392 . S
N20 C18 1.420 . S
N20 C21 1.244 . S
C21 N20 1.244 . S
H22 C25 0.929 . S
H23 C28 0.929 . S
H24 C30 0.930 . S
C25 H22 0.929 . S
C25 C26 1.398 . S
C25 C27 1.396 . S
C26 C25 1.398 . S
C26 C30 1.407 . S
C27 C25 1.396 . S
C27 C28 1.394 . S
C28 H23 0.929 . S
C28 C27 1.394 . S
C28 C29 1.382 . S
C29 C28 1.382 . S
C29 C30 1.392 . S
C29 N31 1.420 . S
C30 H24 0.930 . S
C30 C26 1.407 . S
C30 C29 1.392 . S
N31 C29 1.420 . S
N31 C32 1.244 . S
C32 N31 1.244 . S
H33 C36 0.929 . S
H34 C39 0.929 . S
H35 C41 0.930 . S
C36 H33 0.929 . S
C36 C37 1.398 . S
C36 C38 1.396 . S
C37 C36 1.398 . S
C37 C41 1.407 . S
C38 C36 1.396 . S
C38 C39 1.394 . S
C39 H34 0.929 . S
C39 C38 1.394 . S
C39 C40 1.382 . S
C40 C39 1.382 . S
C40 C41 1.392 . S
C40 N42 1.420 . S
C41 H35 0.930 . S
C41 C37 1.407 . S
C41 C40 1.392 . S
N42 C40 1.420 . S
N42 C43 1.244 . S
C43 N42 1.244 . S
H44 C47 0.929 . S
H45 C50 0.929 . S
H46 C52 0.930 . S
C47 H44 0.929 . S
C47 C48 1.398 . S
C47 C49 1.396 . S
C48 C47 1.398 . S
C48 C52 1.407 . S
C49 C47 1.396 . S
C49 C50 1.394 . S
C50 H45 0.929 . S
C50 C49 1.394 . S
C50 C51 1.382 . S
C51 C50 1.382 . S
C51 C52 1.392 . S
C51 N53 1.420 . S
C52 H46 0.930 . S
C52 C48 1.407 . S
C52 C51 1.392 . S
N53 C51 1.420 . S
N53 C54 1.244 . S
C54 N53 1.244 . S
H55 C58 0.929 . S
H56 C61 0.929 . S
H57 C63 0.930 . S
C58 H55 0.929 . S
C58 C59 1.398 . S
C58 C60 1.396 . S
C59 C58 1.398 . S
C59 C63 1.407 . S
C60 C58 1.396 . S
C60 C61 1.394 . S
C61 H56 0.929 . S
C61 C60 1.394 . S
C61 C62 1.382 . S
C62 C61 1.382 . S
C62 C63 1.392 . S
C62 N64 1.420 . S
C63 H57 0.930 . S
C63 C59 1.407 . S
C63 C62 1.392 . S
N64 C62 1.420 . S
N64 C65 1.244 . S
C65 N64 1.244 . S
H66 C69 0.929 . S
H67 C72 0.929 . S
H68 C74 0.930 . S
C69 H66 0.929 . S
C69 C70 1.398 . S
C69 C71 1.396 . S
C70 C69 1.398 . S
C70 C74 1.407 . S
C71 C69 1.396 . S
C71 C72 1.394 . S
C72 H67 0.929 . S
C72 C71 1.394 . S
C72 C73 1.382 . S
C73 C72 1.382 . S
C73 C74 1.392 . S
C73 N75 1.420 . S
C74 H68 0.930 . S
C74 C70 1.407 . S
C74 C73 1.392 . S
N75 C73 1.420 . S
N75 C76 1.244 . S
C76 N75 1.244 . S
H77 C80 0.929 . S
H78 C83 0.929 . S
H79 C85 0.930 . S
C80 H77 0.929 . S
C80 C81 1.398 . S
C80 C82 1.396 . S
C81 C80 1.398 . S
C81 C85 1.407 . S
C82 C80 1.396 . S
C82 C83 1.394 . S
C83 H78 0.929 . S
C83 C82 1.394 . S
C83 C84 1.382 . S
C84 C83 1.382 . S
C84 C85 1.392 . S
C84 N86 1.420 . S
C85 H79 0.930 . S
C85 C81 1.407 . S
C85 C84 1.392 . S
N86 C84 1.420 . S
N86 C87 1.244 . S
C87 N86 1.244 . S
H88 C91 0.929 . S
H89 C94 0.929 . S
H90 C96 0.930 . S
C91 H88 0.929 . S
C91 C92 1.398 . S
C91 C93 1.396 . S
C92 C91 1.398 . S
C92 C96 1.407 . S
C93 C91 1.396 . S
C93 C94 1.394 . S
C94 H89 0.929 . S
C94 C93 1.394 . S
C94 C95 1.382 . S
C95 C94 1.382 . S
C95 C96 1.392 . S
C95 N97 1.420 . S
C96 H90 0.930 . S
C96 C92 1.407 . S
C96 C95 1.392 . S
N97 C95 1.420 . S
N97 C98 1.244 . S
C98 N97 1.244 . S
H99 C102 0.929 . S
H100 C105 0.929 . S
H101 C107 0.930 . S
C102 H99 0.929 . S
C102 C103 1.398 . S
C102 C104 1.396 . S
C103 C102 1.398 . S
C103 C107 1.407 . S
C104 C102 1.396 . S
C104 C105 1.394 . S
C105 H100 0.929 . S
C105 C104 1.394 . S
C105 C106 1.382 . S
C106 C105 1.382 . S
C106 C107 1.392 . S
C106 N108 1.420 . S
C107 H101 0.930 . S
C107 C103 1.407 . S
C107 C106 1.392 . S
N108 C106 1.420 . S
N108 C109 1.244 . S
C109 N108 1.244 . S
H110 C113 0.929 . S
H111 C116 0.929 . S
H112 C118 0.930 . S
C113 H110 0.929 . S
C113 C114 1.398 . S
C113 C115 1.396 . S
C114 C113 1.398 . S
C114 C118 1.407 . S
C115 C113 1.396 . S
C115 C116 1.394 . S
C116 H111 0.929 . S
C116 C115 1.394 . S
C116 C117 1.382 . S
C117 C116 1.382 . S
C117 C118 1.392 . S
C117 N119 1.420 . S
C118 H112 0.930 . S
C118 C114 1.407 . S
C118 C117 1.392 . S
N119 C117 1.420 . S
N119 C120 1.244 . S
C120 N119 1.244 . S
H121 C124 0.929 . S
H122 C127 0.929 . S
H123 C129 0.930 . S
C124 H121 0.929 . S
C124 C125 1.398 . S
C124 C126 1.396 . S
C125 C124 1.398 . S
C125 C129 1.407 . S
C126 C124 1.396 . S
C126 C127 1.394 . S
C127 H122 0.929 . S
C127 C126 1.394 . S
C127 C128 1.382 . S
C128 C127 1.382 . S
C128 C129 1.392 . S
C128 N130 1.420 . S
C129 H123 0.930 . S
C129 C125 1.407 . S
C129 C128 1.392 . S
N130 C128 1.420 . S
N130 C131 1.244 . S
C131 N130 1.244 . S
H132 C135 0.929 . S
H133 C138 0.929 . S
H134 C140 0.930 . S
C135 H132 0.929 . S
C135 C136 1.398 . S
C135 C137 1.396 . S
C136 C135 1.398 . S
C136 C140 1.407 . S
C137 C135 1.396 . S
C137 C138 1.394 . S
C138 H133 0.929 . S
C138 C137 1.394 . S
C138 C139 1.382 . S
C139 C138 1.382 . S
C139 C140 1.392 . S
C139 N141 1.420 . S
C140 H134 0.930 . S
C140 C136 1.407 . S
C140 C139 1.392 . S
N141 C139 1.420 . S
N141 C142 1.244 . S
C142 N141 1.244 . S
H143 C146 0.929 . S
H144 C149 0.929 . S
H145 C151 0.930 . S
C146 H143 0.929 . S
C146 C147 1.398 . S
C146 C148 1.396 . S
C147 C146 1.398 . S
C147 C151 1.407 . S
C148 C146 1.396 . S
C148 C149 1.394 . S
C149 H144 0.929 . S
C149 C148 1.394 . S
C149 C150 1.382 . S
C150 C149 1.382 . S
C150 C151 1.392 . S
C150 N152 1.420 . S
C151 H145 0.930 . S
C151 C147 1.407 . S
C151 C150 1.392 . S
N152 C150 1.420 . S
N152 C153 1.244 . S
C153 N152 1.244 . S
H154 C157 0.929 . S
H155 C160 0.929 . S
H156 C162 0.930 . S
C157 H154 0.929 . S
C157 C158 1.398 . S
C157 C159 1.396 . S
C158 C157 1.398 . S
C158 C162 1.407 . S
C159 C157 1.396 . S
C159 C160 1.394 . S
C160 H155 0.929 . S
C160 C159 1.394 . S
C160 C161 1.382 . S
C161 C160 1.382 . S
C161 C162 1.392 . S
C161 N163 1.420 . S
C162 H156 0.930 . S
C162 C158 1.407 . S
C162 C161 1.392 . S
N163 C161 1.420 . S
N163 C164 1.244 . S
C164 N163 1.244 . S
H165 C168 0.929 . S
H166 C171 0.929 . S
H167 C173 0.930 . S
C168 H165 0.929 . S
C168 C169 1.398 . S
C168 C170 1.396 . S
C169 C168 1.398 . S
C169 C173 1.407 . S
C170 C168 1.396 . S
C170 C171 1.394 . S
C171 H166 0.929 . S
C171 C170 1.394 . S
C171 C172 1.382 . S
C172 C171 1.382 . S
C172 C173 1.392 . S
C172 N174 1.420 . S
C173 H167 0.930 . S
C173 C169 1.407 . S
C173 C172 1.392 . S
N174 C172 1.420 . S
N174 C175 1.244 . S
C175 N174 1.244 . S
H176 C179 0.929 . S
H177 C182 0.929 . S
H178 C184 0.930 . S
C179 H176 0.929 . S
C179 C180 1.398 . S
C179 C181 1.396 . S
C180 C179 1.398 . S
C180 C184 1.407 . S
C181 C179 1.396 . S
C181 C182 1.394 . S
C182 H177 0.929 . S
C182 C181 1.394 . S
C182 C183 1.382 . S
C183 C182 1.382 . S
C183 C184 1.392 . S
C183 N185 1.420 . S
C184 H178 0.930 . S
C184 C180 1.407 . S
C184 C183 1.392 . S
N185 C183 1.420 . S
N185 C186 1.244 . S
C186 N185 1.244 . S
H187 C190 0.929 . S
H188 C193 0.929 . S
H189 C195 0.930 . S
C190 H187 0.929 . S
C190 C191 1.398 . S
C190 C192 1.396 . S
C191 C190 1.398 . S
C191 C195 1.407 . S
C192 C190 1.396 . S
C192 C193 1.394 . S
C193 H188 0.929 . S
C193 C192 1.394 . S
C193 C194 1.382 . S
C194 C193 1.382 . S
C194 C195 1.392 . S
C194 N196 1.420 . S
C195 H189 0.930 . S
C195 C191 1.407 . S
C195 C194 1.392 . S
N196 C194 1.420 . S
N196 C197 1.244 . S
C197 N196 1.244 . S
Tb198 N229 2.660 . S
Tb198 N236 2.600 . S
Tb198 O242 2.546 . S
Tb198 O243 2.610 1_566 S
Tb198 O245 2.320 1_565 S
Tb198 O246 2.552 1_565 S
Tb198 O247 2.413 1_565 S
Tb198 O249 2.362 1_556 S
Tb198 O250 2.424 1_556 S
Tb198 C262 2.832 1_565 S
C199 C202 1.432 . S
C199 C203 1.414 . S
C199 N206 1.359 . S
C200 C202 1.417 . S
C200 C204 1.432 . S
C200 C212 1.410 . S
C201 C203 1.444 . S
C201 C204 1.317 . S
C201 H224 0.929 . S
C202 C199 1.432 . S
C202 C200 1.417 . S
C202 N210 1.360 . S
C203 C199 1.414 . S
C203 C201 1.444 . S
C203 C208 1.385 . S
C204 C200 1.432 . S
C204 C201 1.317 . S
C204 H216 0.930 . S
C205 C207 1.392 . S
C205 C208 1.370 . S
C205 H217 0.931 . S
N206 C199 1.359 . S
N206 C207 1.327 . S
N206 Tb209 2.600 . S
C207 C205 1.392 . S
C207 N206 1.327 . S
C207 H214 0.930 . S
C208 C203 1.385 . S
C208 C205 1.370 . S
C208 H227 0.930 . S
Tb209 N206 2.600 . S
Tb209 N210 2.660 . S
Tb209 O243 2.362 . S
Tb209 O244 2.421 . S
Tb209 O248 2.546 . S
Tb209 O249 2.610 1_545 S
Tb209 O251 2.320 1_545 S
Tb209 O252 2.552 1_545 S
Tb209 O253 2.413 1_545 S
Tb209 C273 2.833 . S
N210 C202 1.360 . S
N210 Tb209 2.660 . S
N210 C211 1.305 . S
C211 N210 1.305 . S
C211 C213 1.407 . S
C211 H218 0.930 . S
C212 C200 1.410 . S
C212 C213 1.345 . S
C212 H220 0.930 . S
C213 C211 1.407 . S
C213 C212 1.345 . S
C213 H215 0.930 . S
H214 C207 0.930 . S
H215 C213 0.930 . S
H216 C204 0.930 . S
H217 C205 0.931 . S
H218 C211 0.930 . S
H219 C233 0.930 . S
H220 C212 0.930 . S
H221 C239 0.930 . S
H222 C230 0.930 . S
H223 C237 0.931 . S
H224 C201 0.929 . S
H225 C231 0.930 . S
H226 C264 0.930 . S
H227 C208 0.930 . S
H228 C263 0.929 . S
N229 Tb198 2.660 . S
N229 C230 1.305 . S
N229 C234 1.360 . S
C230 H222 0.930 . S
C230 N229 1.305 . S
C230 C233 1.407 . S
C231 H225 0.930 . S
C231 C232 1.410 . S
C231 C233 1.345 . S
C232 C231 1.410 . S
C232 C234 1.417 . S
C232 C264 1.432 . S
C233 H219 0.930 . S
C233 C230 1.407 . S
C233 C231 1.345 . S
C234 N229 1.360 . S
C234 C232 1.417 . S
C234 C238 1.432 . S
H235 C240 0.930 . S
N236 Tb198 2.600 . S
N236 C238 1.359 . S
N236 C239 1.327 . S
C237 H223 0.931 . S
C237 C239 1.392 . S
C237 C240 1.370 . S
C238 C234 1.432 . S
C238 N236 1.359 . S
C238 C241 1.414 . S
C239 H221 0.930 . S
C239 N236 1.327 . S
C239 C237 1.392 . S
C240 H235 0.930 . S
C240 C237 1.370 . S
C240 C241 1.385 . S
C241 C238 1.414 . S
C241 C240 1.385 . S
C241 C263 1.444 . S
O242 Tb198 2.546 . S
O242 C262 1.240 1_565 S
O243 Tb198 2.610 1_544 S
O243 Tb209 2.362 . S
O243 C254 1.283 1_554 S
O244 Tb209 2.421 . S
O244 C261 1.262 . S
O245 Tb198 2.320 1_545 S
O245 C261 1.260 1_556 S
O246 Tb198 2.552 1_545 S
O246 C254 1.243 . S
O247 Tb198 2.413 1_545 S
O247 C262 1.266 . S
O248 Tb209 2.546 . S
O248 C273 1.251 . S
O249 Tb198 2.362 1_554 S
O249 Tb209 2.610 1_565 S
O249 C265 1.283 . S
O250 Tb198 2.424 1_554 S
O250 C272 1.256 . S
O251 Tb209 2.320 1_565 S
O251 C272 1.260 . S
O252 Tb209 2.552 1_565 S
O252 C265 1.243 . S
O253 Tb209 2.413 1_565 S
O253 C273 1.256 1_565 S
C254 O243 1.283 1_556 S
C254 O246 1.243 . S
C255 C257 1.382 . S
C255 C259 1.393 1_545 S
C255 C262 1.502 . S
C256 C257 1.400 . S
C256 C258 1.384 . S
C257 C255 1.382 . S
C257 C256 1.400 . S
C257 H274 0.930 . S
C258 C256 1.384 . S
C258 C260 1.392 1_545 S
C258 H275 0.931 . S
C259 C255 1.393 1_565 S
C259 C260 1.401 . S
C259 H276 0.930 . S
C260 C258 1.392 1_565 S
C260 C259 1.401 . S
C260 H277 0.930 . S
C261 O244 1.262 . S
C261 O245 1.260 1_554 S
C262 Tb198 2.832 1_545 S
C262 O242 1.240 1_545 S
C262 O247 1.266 . S
C262 C255 1.502 . S
C263 H228 0.929 . S
C263 C241 1.444 . S
C263 C264 1.317 . S
C264 H226 0.930 . S
C264 C232 1.432 . S
C264 C263 1.317 . S
C265 O249 1.283 . S
C265 O252 1.243 . S
C266 C267 1.382 1_545 S
C266 C270 1.393 . S
C266 C273 1.500 . S
C267 C266 1.382 1_565 S
C267 C268 1.400 . S
C267 H278 0.930 . S
C268 C267 1.400 . S
C268 C269 1.384 . S
C269 C268 1.384 . S
C269 C271 1.392 1_565 S
C269 H279 0.931 . S
C270 C266 1.393 . S
C270 C271 1.401 . S
C270 H280 0.930 . S
C271 C269 1.392 1_545 S
C271 C270 1.401 . S
C271 H281 0.930 . S
C272 O250 1.256 . S
C272 O251 1.260 . S
C273 Tb209 2.833 . S
C273 O248 1.251 . S
C273 O253 1.256 1_545 S
C273 C266 1.500 . S
H274 C257 0.930 . S
H275 C258 0.931 . S
H276 C259 0.930 . S
H277 C260 0.930 . S
H278 C267 0.930 . S
H279 C269 0.931 . S
H280 C270 0.930 . S
H281 C271 0.930 . S
Tb282 N313 2.660 . S
Tb282 N320 2.600 . S
Tb282 O326 2.546 . S
Tb282 O327 2.610 1_456 S
Tb282 O329 2.320 1_455 S
Tb282 O330 2.552 1_455 S
Tb282 O331 2.416 . S
Tb282 O333 2.362 1_556 S
Tb282 O334 2.421 1_556 S
Tb282 C346 2.833 . S
C283 C286 1.432 . S
C283 C287 1.414 . S
C283 N290 1.359 . S
C284 C286 1.417 . S
C284 C288 1.432 . S
C284 C296 1.410 . S
C285 C287 1.444 . S
C285 C288 1.317 . S
C285 H308 0.929 . S
C286 C283 1.432 . S
C286 C284 1.417 . S
C286 N294 1.360 . S
C287 C283 1.414 . S
C287 C285 1.444 . S
C287 C292 1.385 . S
C288 C284 1.432 . S
C288 C285 1.317 . S
C288 H300 0.930 . S
C289 C291 1.392 . S
C289 C292 1.370 . S
C289 H301 0.931 . S
N290 C283 1.359 . S
N290 C291 1.327 . S
N290 Tb293 2.600 . S
C291 C289 1.392 . S
C291 N290 1.327 . S
C291 H298 0.930 . S
C292 C287 1.385 . S
C292 C289 1.370 . S
C292 H311 0.930 . S
Tb293 N290 2.600 . S
Tb293 N294 2.660 . S
Tb293 O327 2.362 . S
Tb293 O328 2.421 . S
Tb293 O332 2.546 . S
Tb293 O333 2.610 1_655 S
Tb293 O335 2.320 1_655 S
Tb293 O336 2.552 1_655 S
Tb293 O337 2.413 1_655 S
Tb293 C357 2.833 . S
N294 C286 1.360 . S
N294 Tb293 2.660 . S
N294 C295 1.305 . S
C295 N294 1.305 . S
C295 C297 1.407 . S
C295 H302 0.930 . S
C296 C284 1.410 . S
C296 C297 1.345 . S
C296 H304 0.930 . S
C297 C295 1.407 . S
C297 C296 1.345 . S
C297 H299 0.930 . S
H298 C291 0.930 . S
H299 C297 0.930 . S
H300 C288 0.930 . S
H301 C289 0.931 . S
H302 C295 0.930 . S
H303 C317 0.930 . S
H304 C296 0.930 . S
H305 C323 0.930 . S
H306 C314 0.930 . S
H307 C321 0.931 . S
H308 C285 0.929 . S
H309 C315 0.930 . S
H310 C348 0.930 . S
H311 C292 0.930 . S
H312 C347 0.929 . S
N313 Tb282 2.660 . S
N313 C314 1.305 . S
N313 C318 1.360 . S
C314 H306 0.930 . S
C314 N313 1.305 . S
C314 C317 1.407 . S
C315 H309 0.930 . S
C315 C316 1.410 . S
C315 C317 1.345 . S
C316 C315 1.410 . S
C316 C318 1.417 . S
C316 C348 1.432 . S
C317 H303 0.930 . S
C317 C314 1.407 . S
C317 C315 1.345 . S
C318 N313 1.360 . S
C318 C316 1.417 . S
C318 C322 1.432 . S
H319 C324 0.930 . S
N320 Tb282 2.600 . S
N320 C322 1.359 . S
N320 C323 1.327 . S
C321 H307 0.931 . S
C321 C323 1.392 . S
C321 C324 1.370 . S
C322 C318 1.432 . S
C322 N320 1.359 . S
C322 C325 1.414 . S
C323 H305 0.930 . S
C323 N320 1.327 . S
C323 C321 1.392 . S
C324 H319 0.930 . S
C324 C321 1.370 . S
C324 C325 1.385 . S
C325 C322 1.414 . S
C325 C324 1.385 . S
C325 C347 1.444 . S
O326 Tb282 2.546 . S
O326 C346 1.251 . S
O327 Tb282 2.610 1_654 S
O327 Tb293 2.362 . S
O327 C338 1.283 1_554 S
O328 Tb293 2.421 . S
O328 C345 1.262 . S
O329 Tb282 2.320 1_655 S
O329 C345 1.260 1_556 S
O330 Tb282 2.552 1_655 S
O330 C338 1.243 . S
O331 Tb282 2.416 . S
O331 C346 1.255 . S
O332 Tb293 2.546 . S
O332 C357 1.251 . S
O333 Tb282 2.362 1_554 S
O333 Tb293 2.610 1_455 S
O333 C349 1.283 . S
O334 Tb282 2.421 1_554 S
O334 C356 1.262 . S
O335 Tb293 2.320 1_455 S
O335 C356 1.260 . S
O336 Tb293 2.552 1_455 S
O336 C349 1.243 . S
O337 Tb293 2.413 1_455 S
O337 C357 1.256 1_455 S
C338 O327 1.283 1_556 S
C338 O330 1.243 . S
C339 C341 1.382 1_455 S
C339 C343 1.393 . S
C339 C346 1.500 . S
C340 C341 1.400 . S
C340 C342 1.384 . S
C341 C339 1.382 1_655 S
C341 C340 1.400 . S
C341 H358 0.930 . S
C342 C340 1.384 . S
C342 C344 1.392 1_655 S
C342 H359 0.931 . S
C343 C339 1.393 . S
C343 C344 1.401 . S
C343 H360 0.930 . S
C344 C342 1.392 1_455 S
C344 C343 1.401 . S
C344 H361 0.930 . S
C345 O328 1.262 . S
C345 O329 1.260 1_554 S
C346 Tb282 2.833 . S
C346 O326 1.251 . S
C346 O331 1.255 . S
C346 C339 1.500 . S
C347 H312 0.929 . S
C347 C325 1.444 . S
C347 C348 1.317 . S
C348 H310 0.930 . S
C348 C316 1.432 . S
C348 C347 1.317 . S
C349 O333 1.283 . S
C349 O336 1.243 . S
C350 C351 1.382 . S
C350 C354 1.393 1_455 S
C350 C357 1.500 1_455 S
C351 C350 1.382 . S
C351 C352 1.400 . S
C351 H362 0.930 . S
C352 C351 1.400 . S
C352 C353 1.384 . S
C353 C352 1.384 . S
C353 C355 1.392 1_455 S
C353 H363 0.931 . S
C354 C350 1.393 1_655 S
C354 C355 1.401 . S
C354 H364 0.930 . S
C355 C353 1.392 1_655 S
C355 C354 1.401 . S
C355 H365 0.930 . S
C356 O334 1.262 . S
C356 O335 1.260 . S
C357 Tb293 2.833 . S
C357 O332 1.251 . S
C357 O337 1.256 1_655 S
C357 C350 1.500 1_655 S
H358 C341 0.930 . S
H359 C342 0.931 . S
H360 C343 0.930 . S
H361 C344 0.930 . S
H362 C351 0.930 . S
H363 C353 0.931 . S
H364 C354 0.930 . S
H365 C355 0.930 . S
Tb366 N397 2.660 . S
Tb366 N404 2.600 . S
Tb366 O410 2.546 . S
Tb366 O411 2.610 . S
Tb366 O413 2.320 . S
Tb366 O414 2.552 . S
Tb366 O415 2.413 . S
Tb366 O417 2.362 . S
Tb366 O418 2.421 . S
Tb366 C430 2.833 . S
C367 C370 1.432 . S
C367 C371 1.414 . S
C367 N374 1.359 . S
C368 C370 1.417 . S
C368 C372 1.432 . S
C368 C380 1.410 . S
C369 C371 1.444 . S
C369 C372 1.317 . S
C369 H392 0.929 . S
C370 C367 1.432 . S
C370 C368 1.417 . S
C370 N378 1.360 . S
C371 C367 1.414 . S
C371 C369 1.444 . S
C371 C376 1.385 . S
C372 C368 1.432 . S
C372 C369 1.317 . S
C372 H384 0.930 . S
C373 C375 1.392 . S
C373 C376 1.370 . S
C373 H385 0.931 . S
N374 C367 1.359 . S
N374 C375 1.327 . S
N374 Tb377 2.600 . S
C375 C373 1.392 . S
C375 N374 1.327 . S
C375 H382 0.930 . S
C376 C371 1.385 . S
C376 C373 1.370 . S
C376 H395 0.930 . S
Tb377 N374 2.600 . S
Tb377 N378 2.660 . S
Tb377 O411 2.362 1_556 S
Tb377 O412 2.421 1_556 S
Tb377 O416 2.546 . S
Tb377 O417 2.610 1_556 S
Tb377 O419 2.320 . S
Tb377 O420 2.552 . S
Tb377 O421 2.413 . S
Tb377 C441 2.833 . S
N378 C370 1.360 . S
N378 Tb377 2.660 . S
N378 C379 1.305 . S
C379 N378 1.305 . S
C379 C381 1.407 . S
C379 H386 0.930 . S
C380 C368 1.410 . S
C380 C381 1.345 . S
C380 H388 0.930 . S
C381 C379 1.407 . S
C381 C380 1.345 . S
C381 H383 0.930 . S
H382 C375 0.930 . S
H383 C381 0.930 . S
H384 C372 0.930 . S
H385 C373 0.931 . S
H386 C379 0.930 . S
H387 C401 0.930 . S
H388 C380 0.930 . S
H389 C407 0.930 . S
H390 C398 0.930 . S
H391 C405 0.931 . S
H392 C369 0.929 . S
H393 C399 0.930 . S
H394 C432 0.930 . S
H395 C376 0.930 . S
H396 C431 0.929 . S
N397 Tb366 2.660 . S
N397 C398 1.305 . S
N397 C402 1.360 . S
C398 H390 0.930 . S
C398 N397 1.305 . S
C398 C401 1.407 . S
C399 H393 0.930 . S
C399 C400 1.410 . S
C399 C401 1.345 . S
C400 C399 1.410 . S
C400 C402 1.417 . S
C400 C432 1.432 . S
C401 H387 0.930 . S
C401 C398 1.407 . S
C401 C399 1.345 . S
C402 N397 1.360 . S
C402 C400 1.417 . S
C402 C406 1.432 . S
H403 C408 0.930 . S
N404 Tb366 2.600 . S
N404 C406 1.359 . S
N404 C407 1.327 . S
C405 H391 0.931 . S
C405 C407 1.392 . S
C405 C408 1.370 . S
C406 C402 1.432 . S
C406 N404 1.359 . S
C406 C409 1.414 . S
C407 H389 0.930 . S
C407 N404 1.327 . S
C407 C405 1.392 . S
C408 H403 0.930 . S
C408 C405 1.370 . S
C408 C409 1.385 . S
C409 C406 1.414 . S
C409 C408 1.385 . S
C409 C431 1.444 . S
O410 Tb366 2.546 . S
O410 C430 1.251 . S
O411 Tb366 2.610 . S
O411 Tb377 2.362 1_554 S
O411 C422 1.283 . S
O412 Tb377 2.421 1_554 S
O412 C429 1.262 . S
O413 Tb366 2.320 . S
O413 C429 1.260 . S
O414 Tb366 2.552 . S
O414 C422 1.243 . S
O415 Tb366 2.413 . S
O415 C430 1.256 . S
O416 Tb377 2.546 . S
O416 C441 1.251 . S
O417 Tb366 2.362 . S
O417 Tb377 2.610 1_554 S
O417 C433 1.283 1_554 S
O418 Tb366 2.421 . S
O418 C440 1.262 . S
O419 Tb377 2.320 . S
O419 C440 1.260 1_556 S
O420 Tb377 2.552 . S
O420 C433 1.243 . S
O421 Tb377 2.413 . S
O421 C441 1.256 . S
C422 O411 1.283 . S
C422 O414 1.243 . S
C423 C425 1.382 . S
C423 C427 1.393 . S
C423 C430 1.500 . S
C424 C425 1.400 . S
C424 C426 1.384 . S
C425 C423 1.382 . S
C425 C424 1.400 . S
C425 H442 0.930 . S
C426 C424 1.384 . S
C426 C428 1.392 . S
C426 H443 0.931 . S
C427 C423 1.393 . S
C427 C428 1.401 . S
C427 H444 0.930 . S
C428 C426 1.392 . S
C428 C427 1.401 . S
C428 H445 0.930 . S
C429 O412 1.262 . S
C429 O413 1.260 . S
C430 Tb366 2.833 . S
C430 O410 1.251 . S
C430 O415 1.256 . S
C430 C423 1.500 . S
C431 H396 0.929 . S
C431 C409 1.444 . S
C431 C432 1.317 . S
C432 H394 0.930 . S
C432 C400 1.432 . S
C432 C431 1.317 . S
C433 O417 1.283 1_556 S
C433 O420 1.243 . S
C434 C435 1.382 . S
C434 C438 1.393 . S
C434 C441 1.500 . S
C435 C434 1.382 . S
C435 C436 1.400 . S
C435 H446 0.930 . S
C436 C435 1.400 . S
C436 C437 1.384 . S
C437 C436 1.384 . S
C437 C439 1.392 . S
C437 H447 0.931 . S
C438 C434 1.393 . S
C438 C439 1.401 . S
C438 H448 0.930 . S
C439 C437 1.392 . S
C439 C438 1.401 . S
C439 H449 0.930 . S
C440 O418 1.262 . S
C440 O419 1.260 1_554 S
C441 Tb377 2.833 . S
C441 O416 1.251 . S
C441 O421 1.256 . S
C441 C434 1.500 . S
H442 C425 0.930 . S
H443 C426 0.931 . S
H444 C427 0.930 . S
H445 C428 0.930 . S
H446 C435 0.930 . S
H447 C437 0.931 . S
H448 C438 0.930 . S
H449 C439 0.930 . S
Tb450 N481 2.660 . S
Tb450 N488 2.600 . S
Tb450 O494 2.546 . S
Tb450 O495 2.610 . S
Tb450 O497 2.320 . S
Tb450 O498 2.552 . S
Tb450 O499 2.413 . S
Tb450 O501 2.362 . S
Tb450 O502 2.421 . S
Tb450 C514 2.833 . S
C451 C454 1.432 . S
C451 C455 1.414 . S
C451 N458 1.359 . S
C452 C454 1.417 . S
C452 C456 1.432 . S
C452 C464 1.410 . S
C453 C455 1.444 . S
C453 C456 1.317 . S
C453 H476 0.929 . S
C454 C451 1.432 . S
C454 C452 1.417 . S
C454 N462 1.360 . S
C455 C451 1.414 . S
C455 C453 1.444 . S
C455 C460 1.385 . S
C456 C452 1.432 . S
C456 C453 1.317 . S
C456 H468 0.930 . S
C457 C459 1.392 . S
C457 C460 1.370 . S
C457 H469 0.931 . S
N458 C451 1.359 . S
N458 C459 1.327 . S
N458 Tb461 2.600 . S
C459 C457 1.392 . S
C459 N458 1.327 . S
C459 H466 0.930 . S
C460 C455 1.385 . S
C460 C457 1.370 . S
C460 H479 0.930 . S
Tb461 N458 2.600 . S
Tb461 N462 2.660 . S
Tb461 O495 2.362 . S
Tb461 O496 2.421 . S
Tb461 O500 2.546 . S
Tb461 O501 2.610 . S
Tb461 O503 2.320 . S
Tb461 O504 2.552 . S
Tb461 O505 2.413 . S
Tb461 C525 2.833 . S
N462 C454 1.360 . S
N462 Tb461 2.660 . S
N462 C463 1.305 . S
C463 N462 1.305 . S
C463 C465 1.407 . S
C463 H470 0.930 . S
C464 C452 1.410 . S
C464 C465 1.345 . S
C464 H472 0.930 . S
C465 C463 1.407 . S
C465 C464 1.345 . S
C465 H467 0.930 . S
H466 C459 0.930 . S
H467 C465 0.930 . S
H468 C456 0.930 . S
H469 C457 0.931 . S
H470 C463 0.930 . S
H471 C485 0.930 . S
H472 C464 0.930 . S
H473 C491 0.930 . S
H474 C482 0.930 . S
H475 C489 0.931 . S
H476 C453 0.929 . S
H477 C483 0.930 . S
H478 C516 0.930 . S
H479 C460 0.930 . S
H480 C515 0.929 . S
N481 Tb450 2.660 . S
N481 C482 1.305 . S
N481 C486 1.360 . S
C482 H474 0.930 . S
C482 N481 1.305 . S
C482 C485 1.407 . S
C483 H477 0.930 . S
C483 C484 1.410 . S
C483 C485 1.345 . S
C484 C483 1.410 . S
C484 C486 1.417 . S
C484 C516 1.432 . S
C485 H471 0.930 . S
C485 C482 1.407 . S
C485 C483 1.345 . S
C486 N481 1.360 . S
C486 C484 1.417 . S
C486 C490 1.432 . S
H487 C492 0.930 . S
N488 Tb450 2.600 . S
N488 C490 1.359 . S
N488 C491 1.327 . S
C489 H475 0.931 . S
C489 C491 1.392 . S
C489 C492 1.370 . S
C490 C486 1.432 . S
C490 N488 1.359 . S
C490 C493 1.414 . S
C491 H473 0.930 . S
C491 N488 1.327 . S
C491 C489 1.392 . S
C492 H487 0.930 . S
C492 C489 1.370 . S
C492 C493 1.385 . S
C493 C490 1.414 . S
C493 C492 1.385 . S
C493 C515 1.444 . S
O494 Tb450 2.546 . S
O494 C514 1.251 . S
O495 Tb450 2.610 . S
O495 Tb461 2.362 . S
O495 C506 1.283 . S
O496 Tb461 2.421 . S
O496 C513 1.262 . S
O497 Tb450 2.320 . S
O497 C513 1.260 . S
O498 Tb450 2.552 . S
O498 C506 1.243 . S
O499 Tb450 2.413 . S
O499 C514 1.256 . S
O500 Tb461 2.546 . S
O500 C525 1.251 . S
O501 Tb450 2.362 . S
O501 Tb461 2.610 . S
O501 C517 1.283 . S
O502 Tb450 2.421 . S
O502 C524 1.262 . S
O503 Tb461 2.320 . S
O503 C524 1.260 . S
O504 Tb461 2.552 . S
O504 C517 1.243 . S
O505 Tb461 2.413 . S
O505 C525 1.256 . S
C506 O495 1.283 . S
C506 O498 1.243 . S
C507 C509 1.382 . S
C507 C511 1.393 . S
C507 C514 1.500 . S
C508 C509 1.400 . S
C508 C510 1.384 . S
C509 C507 1.382 . S
C509 C508 1.400 . S
C509 H526 0.930 . S
C510 C508 1.384 . S
C510 C512 1.392 . S
C510 H527 0.931 . S
C511 C507 1.393 . S
C511 C512 1.401 . S
C511 H528 0.930 . S
C512 C510 1.392 . S
C512 C511 1.401 . S
C512 H529 0.930 . S
C513 O496 1.262 . S
C513 O497 1.260 . S
C514 Tb450 2.833 . S
C514 O494 1.251 . S
C514 O499 1.256 . S
C514 C507 1.500 . S
C515 H480 0.929 . S
C515 C493 1.444 . S
C515 C516 1.317 . S
C516 H478 0.930 . S
C516 C484 1.432 . S
C516 C515 1.317 . S
C517 O501 1.283 . S
C517 O504 1.243 . S
C518 C519 1.382 . S
C518 C522 1.393 . S
C518 C525 1.500 . S
C519 C518 1.382 . S
C519 C520 1.400 . S
C519 H530 0.930 . S
C520 C519 1.400 . S
C520 C521 1.384 . S
C521 C520 1.384 . S
C521 C523 1.392 . S
C521 H531 0.931 . S
C522 C518 1.393 . S
C522 C523 1.401 . S
C522 H532 0.930 . S
C523 C521 1.392 . S
C523 C522 1.401 . S
C523 H533 0.930 . S
C524 O502 1.262 . S
C524 O503 1.260 . S
C525 Tb461 2.833 . S
C525 O500 1.251 . S
C525 O505 1.256 . S
C525 C518 1.500 . S
H526 C509 0.930 . S
H527 C510 0.931 . S
H528 C511 0.930 . S
H529 C512 0.930 . S
H530 C519 0.930 . S
H531 C521 0.931 . S
H532 C522 0.930 . S
H533 C523 0.930 . S
Tb534 N565 2.660 . S
Tb534 N572 2.600 . S
Tb534 O578 2.546 . S
Tb534 O579 2.610 . S
Tb534 O581 2.320 . S
Tb534 O582 2.552 . S
Tb534 O583 2.413 . S
Tb534 O585 2.362 . S
Tb534 O586 2.421 . S
Tb534 C598 2.833 . S
C535 C538 1.432 . S
C535 C539 1.414 . S
C535 N542 1.359 . S
C536 C538 1.417 . S
C536 C540 1.432 . S
C536 C548 1.410 . S
C537 C539 1.444 . S
C537 C540 1.317 . S
C537 H560 0.929 . S
C538 C535 1.432 . S
C538 C536 1.417 . S
C538 N546 1.360 . S
C539 C535 1.414 . S
C539 C537 1.444 . S
C539 C544 1.385 . S
C540 C536 1.432 . S
C540 C537 1.317 . S
C540 H552 0.930 . S
C541 C543 1.392 . S
C541 C544 1.370 . S
C541 H553 0.931 . S
N542 C535 1.359 . S
N542 C543 1.327 . S
N542 Tb545 2.600 . S
C543 C541 1.392 . S
C543 N542 1.327 . S
C543 H550 0.930 . S
C544 C539 1.385 . S
C544 C541 1.370 . S
C544 H563 0.930 . S
Tb545 N542 2.600 . S
Tb545 N546 2.660 . S
Tb545 O579 2.362 . S
Tb545 O580 2.421 . S
Tb545 O584 2.546 . S
Tb545 O585 2.610 . S
Tb545 O587 2.320 . S
Tb545 O588 2.552 . S
Tb545 O589 2.413 . S
Tb545 C609 2.833 . S
N546 C538 1.360 . S
N546 Tb545 2.660 . S
N546 C547 1.305 . S
C547 N546 1.305 . S
C547 C549 1.407 . S
C547 H554 0.930 . S
C548 C536 1.410 . S
C548 C549 1.345 . S
C548 H556 0.930 . S
C549 C547 1.407 . S
C549 C548 1.345 . S
C549 H551 0.930 . S
H550 C543 0.930 . S
H551 C549 0.930 . S
H552 C540 0.930 . S
H553 C541 0.931 . S
H554 C547 0.930 . S
H555 C569 0.930 . S
H556 C548 0.930 . S
H557 C575 0.930 . S
H558 C566 0.930 . S
H559 C573 0.931 . S
H560 C537 0.929 . S
H561 C567 0.930 . S
H562 C600 0.930 . S
H563 C544 0.930 . S
H564 C599 0.929 . S
N565 Tb534 2.660 . S
N565 C566 1.305 . S
N565 C570 1.360 . S
C566 H558 0.930 . S
C566 N565 1.305 . S
C566 C569 1.407 . S
C567 H561 0.930 . S
C567 C568 1.410 . S
C567 C569 1.345 . S
C568 C567 1.410 . S
C568 C570 1.417 . S
C568 C600 1.432 . S
C569 H555 0.930 . S
C569 C566 1.407 . S
C569 C567 1.345 . S
C570 N565 1.360 . S
C570 C568 1.417 . S
C570 C574 1.432 . S
H571 C576 0.930 . S
N572 Tb534 2.600 . S
N572 C574 1.359 . S
N572 C575 1.327 . S
C573 H559 0.931 . S
C573 C575 1.392 . S
C573 C576 1.370 . S
C574 C570 1.432 . S
C574 N572 1.359 . S
C574 C577 1.414 . S
C575 H557 0.930 . S
C575 N572 1.327 . S
C575 C573 1.392 . S
C576 H571 0.930 . S
C576 C573 1.370 . S
C576 C577 1.385 . S
C577 C574 1.414 . S
C577 C576 1.385 . S
C577 C599 1.444 . S
O578 Tb534 2.546 . S
O578 C598 1.251 . S
O579 Tb534 2.610 . S
O579 Tb545 2.362 . S
O579 C590 1.283 . S
O580 Tb545 2.421 . S
O580 C597 1.262 . S
O581 Tb534 2.320 . S
O581 C597 1.260 . S
O582 Tb534 2.552 . S
O582 C590 1.243 . S
O583 Tb534 2.413 . S
O583 C598 1.256 . S
O584 Tb545 2.546 . S
O584 C609 1.251 . S
O585 Tb534 2.362 . S
O585 Tb545 2.610 . S
O585 C601 1.283 . S
O586 Tb534 2.421 . S
O586 C608 1.262 . S
O587 Tb545 2.320 . S
O587 C608 1.260 . S
O588 Tb545 2.552 . S
O588 C601 1.243 . S
O589 Tb545 2.413 . S
O589 C609 1.256 . S
C590 O579 1.283 . S
C590 O582 1.243 . S
C591 C593 1.382 . S
C591 C595 1.393 . S
C591 C598 1.500 . S
C592 C593 1.400 . S
C592 C594 1.384 . S
C593 C591 1.382 . S
C593 C592 1.400 . S
C593 H610 0.930 . S
C594 C592 1.384 . S
C594 C596 1.392 . S
C594 H611 0.931 . S
C595 C591 1.393 . S
C595 C596 1.401 . S
C595 H612 0.930 . S
C596 C594 1.392 . S
C596 C595 1.401 . S
C596 H613 0.930 . S
C597 O580 1.262 . S
C597 O581 1.260 . S
C598 Tb534 2.833 . S
C598 O578 1.251 . S
C598 O583 1.256 . S
C598 C591 1.500 . S
C599 H564 0.929 . S
C599 C577 1.444 . S
C599 C600 1.317 . S
C600 H562 0.930 . S
C600 C568 1.432 . S
C600 C599 1.317 . S
C601 O585 1.283 . S
C601 O588 1.243 . S
C602 C603 1.382 . S
C602 C606 1.393 . S
C602 C609 1.500 . S
C603 C602 1.382 . S
C603 C604 1.400 . S
C603 H614 0.930 . S
C604 C603 1.400 . S
C604 C605 1.384 . S
C605 C604 1.384 . S
C605 C607 1.392 . S
C605 H615 0.931 . S
C606 C602 1.393 . S
C606 C607 1.401 . S
C606 H616 0.930 . S
C607 C605 1.392 . S
C607 C606 1.401 . S
C607 H617 0.930 . S
C608 O586 1.262 . S
C608 O587 1.260 . S
C609 Tb545 2.833 . S
C609 O584 1.251 . S
C609 O589 1.256 . S
C609 C602 1.500 . S
H610 C593 0.930 . S
H611 C594 0.931 . S
H612 C595 0.930 . S
H613 C596 0.930 . S
H614 C603 0.930 . S
H615 C605 0.931 . S
H616 C606 0.930 . S
H617 C607 0.930 . S
Tb618 N649 2.660 . S
Tb618 N656 2.600 . S
Tb618 O662 2.546 . S
Tb618 O663 2.610 . S
Tb618 O665 2.320 . S
Tb618 O666 2.552 . S
Tb618 O667 2.413 . S
Tb618 O669 2.362 . S
Tb618 O670 2.421 . S
Tb618 C682 2.833 . S
C619 C622 1.432 . S
C619 C623 1.414 . S
C619 N626 1.359 . S
C620 C622 1.417 . S
C620 C624 1.432 . S
C620 C632 1.410 . S
C621 C623 1.444 . S
C621 C624 1.317 . S
C621 H644 0.929 . S
C622 C619 1.432 . S
C622 C620 1.417 . S
C622 N630 1.360 . S
C623 C619 1.414 . S
C623 C621 1.444 . S
C623 C628 1.385 . S
C624 C620 1.432 . S
C624 C621 1.317 . S
C624 H636 0.930 . S
C625 C627 1.392 . S
C625 C628 1.370 . S
C625 H637 0.931 . S
N626 C619 1.359 . S
N626 C627 1.327 . S
N626 Tb629 2.600 . S
C627 C625 1.392 . S
C627 N626 1.327 . S
C627 H634 0.930 . S
C628 C623 1.385 . S
C628 C625 1.370 . S
C628 H647 0.930 . S
Tb629 N626 2.600 . S
Tb629 N630 2.660 . S
Tb629 O663 2.362 . S
Tb629 O664 2.421 . S
Tb629 O668 2.546 . S
Tb629 O669 2.610 . S
Tb629 O671 2.320 . S
Tb629 O672 2.552 . S
Tb629 O673 2.413 . S
Tb629 C693 2.833 . S
N630 C622 1.360 . S
N630 Tb629 2.660 . S
N630 C631 1.305 . S
C631 N630 1.305 . S
C631 C633 1.407 . S
C631 H638 0.930 . S
C632 C620 1.410 . S
C632 C633 1.345 . S
C632 H640 0.930 . S
C633 C631 1.407 . S
C633 C632 1.345 . S
C633 H635 0.930 . S
H634 C627 0.930 . S
H635 C633 0.930 . S
H636 C624 0.930 . S
H637 C625 0.931 . S
H638 C631 0.930 . S
H639 C653 0.930 . S
H640 C632 0.930 . S
H641 C659 0.930 . S
H642 C650 0.930 . S
H643 C657 0.931 . S
H644 C621 0.929 . S
H645 C651 0.930 . S
H646 C684 0.930 . S
H647 C628 0.930 . S
H648 C683 0.929 . S
N649 Tb618 2.660 . S
N649 C650 1.305 . S
N649 C654 1.360 . S
C650 H642 0.930 . S
C650 N649 1.305 . S
C650 C653 1.407 . S
C651 H645 0.930 . S
C651 C652 1.410 . S
C651 C653 1.345 . S
C652 C651 1.410 . S
C652 C654 1.417 . S
C652 C684 1.432 . S
C653 H639 0.930 . S
C653 C650 1.407 . S
C653 C651 1.345 . S
C654 N649 1.360 . S
C654 C652 1.417 . S
C654 C658 1.432 . S
H655 C660 0.930 . S
N656 Tb618 2.600 . S
N656 C658 1.359 . S
N656 C659 1.327 . S
C657 H643 0.931 . S
C657 C659 1.392 . S
C657 C660 1.370 . S
C658 C654 1.432 . S
C658 N656 1.359 . S
C658 C661 1.414 . S
C659 H641 0.930 . S
C659 N656 1.327 . S
C659 C657 1.392 . S
C660 H655 0.930 . S
C660 C657 1.370 . S
C660 C661 1.385 . S
C661 C658 1.414 . S
C661 C660 1.385 . S
C661 C683 1.444 . S
O662 Tb618 2.546 . S
O662 C682 1.251 . S
O663 Tb618 2.610 . S
O663 Tb629 2.362 . S
O663 C674 1.283 . S
O664 Tb629 2.421 . S
O664 C681 1.262 . S
O665 Tb618 2.320 . S
O665 C681 1.260 . S
O666 Tb618 2.552 . S
O666 C674 1.243 . S
O667 Tb618 2.413 . S
O667 C682 1.256 . S
O668 Tb629 2.546 . S
O668 C693 1.251 . S
O669 Tb618 2.362 . S
O669 Tb629 2.610 . S
O669 C685 1.283 . S
O670 Tb618 2.421 . S
O670 C692 1.262 . S
O671 Tb629 2.320 . S
O671 C692 1.260 . S
O672 Tb629 2.552 . S
O672 C685 1.243 . S
O673 Tb629 2.413 . S
O673 C693 1.256 . S
C674 O663 1.283 . S
C674 O666 1.243 . S
C675 C677 1.382 . S
C675 C679 1.393 . S
C675 C682 1.500 . S
C676 C677 1.400 . S
C676 C678 1.384 . S
C677 C675 1.382 . S
C677 C676 1.400 . S
C677 H694 0.930 . S
C678 C676 1.384 . S
C678 C680 1.392 . S
C678 H695 0.931 . S
C679 C675 1.393 . S
C679 C680 1.401 . S
C679 H696 0.930 . S
C680 C678 1.392 . S
C680 C679 1.401 . S
C680 H697 0.930 . S
C681 O664 1.262 . S
C681 O665 1.260 . S
C682 Tb618 2.833 . S
C682 O662 1.251 . S
C682 O667 1.256 . S
C682 C675 1.500 . S
C683 H648 0.929 . S
C683 C661 1.444 . S
C683 C684 1.317 . S
C684 H646 0.930 . S
C684 C652 1.432 . S
C684 C683 1.317 . S
C685 O669 1.283 . S
C685 O672 1.243 . S
C686 C687 1.382 . S
C686 C690 1.393 . S
C686 C693 1.500 . S
C687 C686 1.382 . S
C687 C688 1.400 . S
C687 H698 0.930 . S
C688 C687 1.400 . S
C688 C689 1.384 . S
C689 C688 1.384 . S
C689 C691 1.392 . S
C689 H699 0.931 . S
C690 C686 1.393 . S
C690 C691 1.401 . S
C690 H700 0.930 . S
C691 C689 1.392 . S
C691 C690 1.401 . S
C691 H701 0.930 . S
C692 O670 1.262 . S
C692 O671 1.260 . S
C693 Tb629 2.833 . S
C693 O668 1.251 . S
C693 O673 1.256 . S
C693 C686 1.500 . S
H694 C677 0.930 . S
H695 C678 0.931 . S
H696 C679 0.930 . S
H697 C680 0.930 . S
H698 C687 0.930 . S
H699 C689 0.931 . S
H700 C690 0.930 . S
H701 C691 0.930 . S
Tb702 N733 2.660 . S
Tb702 N740 2.600 . S
Tb702 O746 2.546 . S
Tb702 O747 2.610 . S
Tb702 O749 2.320 . S
Tb702 O750 2.552 . S
Tb702 O751 2.413 . S
Tb702 O753 2.362 . S
Tb702 O754 2.421 . S
Tb702 C766 2.833 . S
C703 C706 1.432 . S
C703 C707 1.414 . S
C703 N710 1.359 . S
C704 C706 1.417 . S
C704 C708 1.432 . S
C704 C716 1.410 . S
C705 C707 1.444 . S
C705 C708 1.317 . S
C705 H728 0.929 . S
C706 C703 1.432 . S
C706 C704 1.417 . S
C706 N714 1.360 . S
C707 C703 1.414 . S
C707 C705 1.444 . S
C707 C712 1.385 . S
C708 C704 1.432 . S
C708 C705 1.317 . S
C708 H720 0.930 . S
C709 C711 1.392 . S
C709 C712 1.370 . S
C709 H721 0.931 . S
N710 C703 1.359 . S
N710 C711 1.327 . S
N710 Tb713 2.600 . S
C711 C709 1.392 . S
C711 N710 1.327 . S
C711 H718 0.930 . S
C712 C707 1.385 . S
C712 C709 1.370 . S
C712 H731 0.930 . S
Tb713 N710 2.600 . S
Tb713 N714 2.660 . S
Tb713 O747 2.362 . S
Tb713 O748 2.421 . S
Tb713 O752 2.546 . S
Tb713 O753 2.610 . S
Tb713 O755 2.320 . S
Tb713 O756 2.552 . S
Tb713 O757 2.413 . S
Tb713 C777 2.833 . S
N714 C706 1.360 . S
N714 Tb713 2.660 . S
N714 C715 1.305 . S
C715 N714 1.305 . S
C715 C717 1.407 . S
C715 H722 0.930 . S
C716 C704 1.410 . S
C716 C717 1.345 . S
C716 H724 0.930 . S
C717 C715 1.407 . S
C717 C716 1.345 . S
C717 H719 0.930 . S
H718 C711 0.930 . S
H719 C717 0.930 . S
H720 C708 0.930 . S
H721 C709 0.931 . S
H722 C715 0.930 . S
H723 C737 0.930 . S
H724 C716 0.930 . S
H725 C743 0.930 . S
H726 C734 0.930 . S
H727 C741 0.931 . S
H728 C705 0.929 . S
H729 C735 0.930 . S
H730 C768 0.930 . S
H731 C712 0.930 . S
H732 C767 0.929 . S
N733 Tb702 2.660 . S
N733 C734 1.305 . S
N733 C738 1.360 . S
C734 H726 0.930 . S
C734 N733 1.305 . S
C734 C737 1.407 . S
C735 H729 0.930 . S
C735 C736 1.410 . S
C735 C737 1.345 . S
C736 C735 1.410 . S
C736 C738 1.417 . S
C736 C768 1.432 . S
C737 H723 0.930 . S
C737 C734 1.407 . S
C737 C735 1.345 . S
C738 N733 1.360 . S
C738 C736 1.417 . S
C738 C742 1.432 . S
H739 C744 0.930 . S
N740 Tb702 2.600 . S
N740 C742 1.359 . S
N740 C743 1.327 . S
C741 H727 0.931 . S
C741 C743 1.392 . S
C741 C744 1.370 . S
C742 C738 1.432 . S
C742 N740 1.359 . S
C742 C745 1.414 . S
C743 H725 0.930 . S
C743 N740 1.327 . S
C743 C741 1.392 . S
C744 H739 0.930 . S
C744 C741 1.370 . S
C744 C745 1.385 . S
C745 C742 1.414 . S
C745 C744 1.385 . S
C745 C767 1.444 . S
O746 Tb702 2.546 . S
O746 C766 1.251 . S
O747 Tb702 2.610 . S
O747 Tb713 2.362 . S
O747 C758 1.283 . S
O748 Tb713 2.421 . S
O748 C765 1.262 . S
O749 Tb702 2.320 . S
O749 C765 1.260 . S
O750 Tb702 2.552 . S
O750 C758 1.243 . S
O751 Tb702 2.413 . S
O751 C766 1.256 . S
O752 Tb713 2.546 . S
O752 C777 1.251 . S
O753 Tb702 2.362 . S
O753 Tb713 2.610 . S
O753 C769 1.283 . S
O754 Tb702 2.421 . S
O754 C776 1.262 . S
O755 Tb713 2.320 . S
O755 C776 1.260 . S
O756 Tb713 2.552 . S
O756 C769 1.243 . S
O757 Tb713 2.413 . S
O757 C777 1.256 . S
C758 O747 1.283 . S
C758 O750 1.243 . S
C759 C761 1.382 . S
C759 C763 1.393 . S
C759 C766 1.500 . S
C760 C761 1.400 . S
C760 C762 1.384 . S
C761 C759 1.382 . S
C761 C760 1.400 . S
C761 H778 0.930 . S
C762 C760 1.384 . S
C762 C764 1.392 . S
C762 H779 0.931 . S
C763 C759 1.393 . S
C763 C764 1.401 . S
C763 H780 0.930 . S
C764 C762 1.392 . S
C764 C763 1.401 . S
C764 H781 0.930 . S
C765 O748 1.262 . S
C765 O749 1.260 . S
C766 Tb702 2.833 . S
C766 O746 1.251 . S
C766 O751 1.256 . S
C766 C759 1.500 . S
C767 H732 0.929 . S
C767 C745 1.444 . S
C767 C768 1.317 . S
C768 H730 0.930 . S
C768 C736 1.432 . S
C768 C767 1.317 . S
C769 O753 1.283 . S
C769 O756 1.243 . S
C770 C771 1.382 . S
C770 C774 1.393 . S
C770 C777 1.500 . S
C771 C770 1.382 . S
C771 C772 1.400 . S
C771 H782 0.930 . S
C772 C771 1.400 . S
C772 C773 1.384 . S
C773 C772 1.384 . S
C773 C775 1.392 . S
C773 H783 0.931 . S
C774 C770 1.393 . S
C774 C775 1.401 . S
C774 H784 0.930 . S
C775 C773 1.392 . S
C775 C774 1.401 . S
C775 H785 0.930 . S
C776 O754 1.262 . S
C776 O755 1.260 . S
C777 Tb713 2.833 . S
C777 O752 1.251 . S
C777 O757 1.256 . S
C777 C770 1.500 . S
H778 C761 0.930 . S
H779 C762 0.931 . S
H780 C763 0.930 . S
H781 C764 0.930 . S
H782 C771 0.930 . S
H783 C773 0.931 . S
H784 C774 0.930 . S
H785 C775 0.930 . S
Tb786 N817 2.660 . S
Tb786 N824 2.600 . S
Tb786 O830 2.546 . S
Tb786 O831 2.610 . S
Tb786 O833 2.320 . S
Tb786 O834 2.552 . S
Tb786 O835 2.413 . S
Tb786 O837 2.362 . S
Tb786 O838 2.421 . S
Tb786 C850 2.833 . S
C787 C790 1.432 . S
C787 C791 1.414 . S
C787 N794 1.359 . S
C788 C790 1.417 . S
C788 C792 1.432 . S
C788 C800 1.410 . S
C789 C791 1.444 . S
C789 C792 1.317 . S
C789 H812 0.929 . S
C790 C787 1.432 . S
C790 C788 1.417 . S
C790 N798 1.360 . S
C791 C787 1.414 . S
C791 C789 1.444 . S
C791 C796 1.385 . S
C792 C788 1.432 . S
C792 C789 1.317 . S
C792 H804 0.930 . S
C793 C795 1.392 . S
C793 C796 1.370 . S
C793 H805 0.931 . S
N794 C787 1.359 . S
N794 C795 1.327 . S
N794 Tb797 2.600 . S
C795 C793 1.392 . S
C795 N794 1.327 . S
C795 H802 0.930 . S
C796 C791 1.385 . S
C796 C793 1.370 . S
C796 H815 0.930 . S
Tb797 N794 2.600 . S
Tb797 N798 2.660 . S
Tb797 O831 2.362 . S
Tb797 O832 2.421 . S
Tb797 O836 2.546 . S
Tb797 O837 2.610 . S
Tb797 O839 2.320 . S
Tb797 O840 2.552 . S
Tb797 O841 2.413 . S
Tb797 C861 2.833 . S
N798 C790 1.360 . S
N798 Tb797 2.660 . S
N798 C799 1.305 . S
C799 N798 1.305 . S
C799 C801 1.407 . S
C799 H806 0.930 . S
C800 C788 1.410 . S
C800 C801 1.345 . S
C800 H808 0.930 . S
C801 C799 1.407 . S
C801 C800 1.345 . S
C801 H803 0.930 . S
H802 C795 0.930 . S
H803 C801 0.930 . S
H804 C792 0.930 . S
H805 C793 0.931 . S
H806 C799 0.930 . S
H807 C821 0.930 . S
H808 C800 0.930 . S
H809 C827 0.930 . S
H810 C818 0.930 . S
H811 C825 0.931 . S
H812 C789 0.929 . S
H813 C819 0.930 . S
H814 C852 0.930 . S
H815 C796 0.930 . S
H816 C851 0.929 . S
N817 Tb786 2.660 . S
N817 C818 1.305 . S
N817 C822 1.360 . S
C818 H810 0.930 . S
C818 N817 1.305 . S
C818 C821 1.407 . S
C819 H813 0.930 . S
C819 C820 1.410 . S
C819 C821 1.345 . S
C820 C819 1.410 . S
C820 C822 1.417 . S
C820 C852 1.432 . S
C821 H807 0.930 . S
C821 C818 1.407 . S
C821 C819 1.345 . S
C822 N817 1.360 . S
C822 C820 1.417 . S
C822 C826 1.432 . S
H823 C828 0.930 . S
N824 Tb786 2.600 . S
N824 C826 1.359 . S
N824 C827 1.327 . S
C825 H811 0.931 . S
C825 C827 1.392 . S
C825 C828 1.370 . S
C826 C822 1.432 . S
C826 N824 1.359 . S
C826 C829 1.414 . S
C827 H809 0.930 . S
C827 N824 1.327 . S
C827 C825 1.392 . S
C828 H823 0.930 . S
C828 C825 1.370 . S
C828 C829 1.385 . S
C829 C826 1.414 . S
C829 C828 1.385 . S
C829 C851 1.444 . S
O830 Tb786 2.546 . S
O830 C850 1.251 . S
O831 Tb786 2.610 . S
O831 Tb797 2.362 . S
O831 C842 1.283 . S
O832 Tb797 2.421 . S
O832 C849 1.262 . S
O833 Tb786 2.320 . S
O833 C849 1.260 . S
O834 Tb786 2.552 . S
O834 C842 1.243 . S
O835 Tb786 2.413 . S
O835 C850 1.256 . S
O836 Tb797 2.546 . S
O836 C861 1.251 . S
O837 Tb786 2.362 . S
O837 Tb797 2.610 . S
O837 C853 1.283 . S
O838 Tb786 2.421 . S
O838 C860 1.262 . S
O839 Tb797 2.320 . S
O839 C860 1.260 . S
O840 Tb797 2.552 . S
O840 C853 1.243 . S
O841 Tb797 2.413 . S
O841 C861 1.256 . S
C842 O831 1.283 . S
C842 O834 1.243 . S
C843 C845 1.382 . S
C843 C847 1.393 . S
C843 C850 1.500 . S
C844 C845 1.400 . S
C844 C846 1.384 . S
C845 C843 1.382 . S
C845 C844 1.400 . S
C845 H862 0.930 . S
C846 C844 1.384 . S
C846 C848 1.392 . S
C846 H863 0.931 . S
C847 C843 1.393 . S
C847 C848 1.401 . S
C847 H864 0.930 . S
C848 C846 1.392 . S
C848 C847 1.401 . S
C848 H865 0.930 . S
C849 O832 1.262 . S
C849 O833 1.260 . S
C850 Tb786 2.833 . S
C850 O830 1.251 . S
C850 O835 1.256 . S
C850 C843 1.500 . S
C851 H816 0.929 . S
C851 C829 1.444 . S
C851 C852 1.317 . S
C852 H814 0.930 . S
C852 C820 1.432 . S
C852 C851 1.317 . S
C853 O837 1.283 . S
C853 O840 1.243 . S
C854 C855 1.382 . S
C854 C858 1.393 . S
C854 C861 1.500 . S
C855 C854 1.382 . S
C855 C856 1.400 . S
C855 H866 0.930 . S
C856 C855 1.400 . S
C856 C857 1.384 . S
C857 C856 1.384 . S
C857 C859 1.392 . S
C857 H867 0.931 . S
C858 C854 1.393 . S
C858 C859 1.401 . S
C858 H868 0.930 . S
C859 C857 1.392 . S
C859 C858 1.401 . S
C859 H869 0.930 . S
C860 O838 1.262 . S
C860 O839 1.260 . S
C861 Tb797 2.833 . S
C861 O836 1.251 . S
C861 O841 1.256 . S
C861 C854 1.500 . S
H862 C845 0.930 . S
H863 C846 0.931 . S
H864 C847 0.930 . S
H865 C848 0.930 . S
H866 C855 0.930 . S
H867 C857 0.931 . S
H868 C858 0.930 . S
H869 C859 0.930 . S
Tb870 N901 2.660 . S
Tb870 N908 2.600 . S
Tb870 O914 2.546 . S
Tb870 O915 2.610 . S
Tb870 O917 2.320 . S
Tb870 O918 2.552 . S
Tb870 O919 2.413 . S
Tb870 O921 2.362 . S
Tb870 O922 2.421 . S
Tb870 C934 2.833 . S
C871 C874 1.432 . S
C871 C875 1.414 . S
C871 N878 1.359 . S
C872 C874 1.417 . S
C872 C876 1.432 . S
C872 C884 1.410 . S
C873 C875 1.444 . S
C873 C876 1.317 . S
C873 H896 0.929 . S
C874 C871 1.432 . S
C874 C872 1.417 . S
C874 N882 1.360 . S
C875 C871 1.414 . S
C875 C873 1.444 . S
C875 C880 1.385 . S
C876 C872 1.432 . S
C876 C873 1.317 . S
C876 H888 0.930 . S
C877 C879 1.392 . S
C877 C880 1.370 . S
C877 H889 0.931 . S
N878 C871 1.359 . S
N878 C879 1.327 . S
N878 Tb881 2.600 . S
C879 C877 1.392 . S
C879 N878 1.327 . S
C879 H886 0.930 . S
C880 C875 1.385 . S
C880 C877 1.370 . S
C880 H899 0.930 . S
Tb881 N878 2.600 . S
Tb881 N882 2.660 . S
Tb881 O915 2.362 . S
Tb881 O916 2.421 . S
Tb881 O920 2.546 . S
Tb881 O921 2.610 . S
Tb881 O923 2.320 . S
Tb881 O924 2.552 . S
Tb881 O925 2.413 . S
Tb881 C945 2.833 . S
N882 C874 1.360 . S
N882 Tb881 2.660 . S
N882 C883 1.305 . S
C883 N882 1.305 . S
C883 C885 1.407 . S
C883 H890 0.930 . S
C884 C872 1.410 . S
C884 C885 1.345 . S
C884 H892 0.930 . S
C885 C883 1.407 . S
C885 C884 1.345 . S
C885 H887 0.930 . S
H886 C879 0.930 . S
H887 C885 0.930 . S
H888 C876 0.930 . S
H889 C877 0.931 . S
H890 C883 0.930 . S
H891 C905 0.930 . S
H892 C884 0.930 . S
H893 C911 0.930 . S
H894 C902 0.930 . S
H895 C909 0.931 . S
H896 C873 0.929 . S
H897 C903 0.930 1_455 S
H898 C936 0.930 1_455 S
H899 C880 0.930 . S
H900 C935 0.929 . S
N901 Tb870 2.660 . S
N901 C902 1.305 . S
N901 C906 1.360 . S
C902 H894 0.930 . S
C902 N901 1.305 . S
C902 C905 1.407 . S
C903 H897 0.930 1_655 S
C903 C904 1.410 . S
C903 C905 1.345 . S
C904 C903 1.410 . S
C904 C906 1.417 . S
C904 C936 1.432 . S
C905 H891 0.930 . S
C905 C902 1.407 . S
C905 C903 1.345 . S
C906 N901 1.360 . S
C906 C904 1.417 . S
C906 C910 1.432 . S
H907 C912 0.930 . S
N908 Tb870 2.600 . S
N908 C910 1.359 . S
N908 C911 1.327 . S
C909 H895 0.931 . S
C909 C911 1.392 . S
C909 C912 1.370 . S
C910 C906 1.432 . S
C910 N908 1.359 . S
C910 C913 1.414 . S
C911 H893 0.930 . S
C911 N908 1.327 . S
C911 C909 1.392 . S
C912 H907 0.930 . S
C912 C909 1.370 . S
C912 C913 1.385 . S
C913 C910 1.414 . S
C913 C912 1.385 . S
C913 C935 1.444 . S
O914 Tb870 2.546 . S
O914 C934 1.251 . S
O915 Tb870 2.610 . S
O915 Tb881 2.362 . S
O915 C926 1.283 . S
O916 Tb881 2.421 . S
O916 C933 1.262 . S
O917 Tb870 2.320 . S
O917 C933 1.260 . S
O918 Tb870 2.552 . S
O918 C926 1.243 . S
O919 Tb870 2.413 . S
O919 C934 1.256 . S
O920 Tb881 2.546 . S
O920 C945 1.251 . S
O921 Tb870 2.362 . S
O921 Tb881 2.610 . S
O921 C937 1.283 . S
O922 Tb870 2.421 . S
O922 C944 1.262 . S
O923 Tb881 2.320 . S
O923 C944 1.260 . S
O924 Tb881 2.552 . S
O924 C937 1.243 . S
O925 Tb881 2.413 . S
O925 C945 1.256 . S
C926 O915 1.283 . S
C926 O918 1.243 . S
C927 C929 1.382 . S
C927 C931 1.393 . S
C927 C934 1.500 . S
C928 C929 1.400 . S
C928 C930 1.384 . S
C929 C927 1.382 . S
C929 C928 1.400 . S
C929 H946 0.930 . S
C930 C928 1.384 . S
C930 C932 1.392 . S
C930 H947 0.931 . S
C931 C927 1.393 . S
C931 C932 1.401 . S
C931 H948 0.930 . S
C932 C930 1.392 . S
C932 C931 1.401 . S
C932 H949 0.930 . S
C933 O916 1.262 . S
C933 O917 1.260 . S
C934 Tb870 2.833 . S
C934 O914 1.251 . S
C934 O919 1.256 . S
C934 C927 1.500 . S
C935 H900 0.929 . S
C935 C913 1.444 . S
C935 C936 1.317 . S
C936 H898 0.930 1_655 S
C936 C904 1.432 . S
C936 C935 1.317 . S
C937 O921 1.283 . S
C937 O924 1.243 . S
C938 C939 1.382 . S
C938 C942 1.393 . S
C938 C945 1.500 . S
C939 C938 1.382 . S
C939 C940 1.400 . S
C939 H950 0.930 . S
C940 C939 1.400 . S
C940 C941 1.384 . S
C941 C940 1.384 . S
C941 C943 1.392 . S
C941 H951 0.931 . S
C942 C938 1.393 . S
C942 C943 1.401 . S
C942 H952 0.930 . S
C943 C941 1.392 . S
C943 C942 1.401 . S
C943 H953 0.930 . S
C944 O922 1.262 . S
C944 O923 1.260 . S
C945 Tb881 2.833 . S
C945 O920 1.251 . S
C945 O925 1.256 . S
C945 C938 1.500 . S
H946 C929 0.930 . S
H947 C930 0.931 . S
H948 C931 0.930 . S
H949 C932 0.930 . S
H950 C939 0.930 . S
H951 C941 0.931 . S
H952 C942 0.930 . S
H953 C943 0.930 . S
C954 C955 1.391 . S
C954 C956 1.394 . S
C954 H970 0.931 . S
C955 C954 1.391 . S
C955 C959 1.376 . S
C956 C954 1.394 . S
C956 C957 1.369 . S
C956 C960 1.531 . S
C957 C956 1.369 . S
C957 C958 1.410 . S
C957 C965 1.503 . S
C958 C957 1.410 . S
C958 C959 1.392 . S
C958 C961 1.511 . S
C959 C955 1.376 . S
C959 C958 1.392 . S
C959 H971 0.929 . S
C960 C956 1.531 . S
C960 H972 0.960 . S
C960 H973 0.962 . S
C960 H974 0.960 . S
C961 C958 1.511 . S
C961 H975 0.961 . S
C961 H976 0.961 . S
C961 H977 0.961 . S
C962 C963 1.370 . S
C962 C964 1.363 . S
C962 H978 0.931 . S
C963 C962 1.370 . S
C963 C967 1.408 . S
C964 C962 1.363 . S
C964 C965 1.370 . S
C964 C968 1.524 . S
C965 C957 1.503 . S
C965 C964 1.370 . S
C965 C966 1.403 . S
C966 C965 1.403 . S
C966 C967 1.404 . S
C966 C969 1.539 . S
C967 C963 1.408 . S
C967 C966 1.404 . S
C967 H979 0.924 . S
C968 C964 1.524 . S
C968 H980 0.956 . S
C968 H981 0.961 . S
C968 H982 0.961 . S
C969 C966 1.539 . S
C969 H983 0.958 1_554 S
C969 H984 0.961 1_554 S
C969 H985 0.960 . S
H970 C954 0.931 . S
H971 C959 0.929 . S
H972 C960 0.960 . S
H973 C960 0.962 . S
H974 C960 0.960 . S
H975 C961 0.961 . S
H976 C961 0.961 . S
H977 C961 0.961 . S
H978 C962 0.931 . S
H979 C967 0.924 . S
H980 C968 0.956 . S
H981 C968 0.961 . S
H982 C968 0.961 . S
H983 C969 0.958 1_556 S
H984 C969 0.961 1_556 S
H985 C969 0.960 . S
C986 C987 1.391 . S
C986 C988 1.394 . S
C986 H1002 0.931 . S
C987 C986 1.391 . S
C987 C991 1.376 . S
C988 C986 1.394 . S
C988 C989 1.369 . S
C988 C992 1.531 . S
C989 C988 1.369 . S
C989 C990 1.410 . S
C989 C997 1.503 . S
C990 C989 1.410 . S
C990 C991 1.392 . S
C990 C993 1.511 . S
C991 C987 1.376 . S
C991 C990 1.392 . S
C991 H1003 0.929 . S
C992 C988 1.531 . S
C992 H1004 0.960 . S
C992 H1005 0.962 . S
C992 H1006 0.960 . S
C993 C990 1.511 . S
C993 H1007 0.961 . S
C993 H1008 0.961 . S
C993 H1009 0.961 . S
C994 C995 1.370 . S
C994 C996 1.363 . S
C994 H1010 0.931 . S
C995 C994 1.370 . S
C995 C999 1.408 . S
C996 C994 1.363 . S
C996 C997 1.370 . S
C996 C1000 1.524 . S
C997 C989 1.503 . S
C997 C996 1.370 . S
C997 C998 1.403 . S
C998 C997 1.403 . S
C998 C999 1.404 . S
C998 C1001 1.539 . S
C999 C995 1.408 . S
C999 C998 1.404 . S
C999 H1011 0.930 . S
C1000 C996 1.524 . S
C1000 H1012 0.956 . S
C1000 H1013 0.961 . S
C1000 H1014 0.961 . S
C1001 C998 1.539 . S
C1001 H1015 0.965 . S
C1001 H1016 0.961 . S
C1001 H1017 0.960 . S
H1002 C986 0.931 . S
H1003 C991 0.929 . S
H1004 C992 0.960 . S
H1005 C992 0.962 . S
H1006 C992 0.960 . S
H1007 C993 0.961 . S
H1008 C993 0.961 . S
H1009 C993 0.961 . S
H1010 C994 0.931 . S
H1011 C999 0.930 . S
H1012 C1000 0.956 . S
H1013 C1000 0.961 . S
H1014 C1000 0.961 . S
H1015 C1001 0.965 . S
H1016 C1001 0.961 . S
H1017 C1001 0.960 . S
C1018 C1019 1.391 . S
C1018 C1020 1.394 . S
C1018 H1034 0.931 . S
C1019 C1018 1.391 . S
C1019 C1023 1.376 . S
C1020 C1018 1.394 . S
C1020 C1021 1.369 . S
C1020 C1024 1.531 . S
C1021 C1020 1.369 . S
C1021 C1022 1.410 . S
C1021 C1029 1.503 . S
C1022 C1021 1.410 . S
C1022 C1023 1.392 . S
C1022 C1025 1.511 . S
C1023 C1019 1.376 . S
C1023 C1022 1.392 . S
C1023 H1035 0.929 . S
C1024 C1020 1.531 . S
C1024 H1036 0.960 . S
C1024 H1037 0.962 . S
C1024 H1038 0.960 . S
C1025 C1022 1.511 . S
C1025 H1039 0.961 . S
C1025 H1040 0.961 . S
C1025 H1041 0.961 . S
C1026 C1027 1.370 . S
C1026 C1028 1.363 . S
C1026 H1042 0.931 . S
C1027 C1026 1.370 . S
C1027 C1031 1.408 . S
C1028 C1026 1.363 . S
C1028 C1029 1.370 . S
C1028 C1032 1.524 . S
C1029 C1021 1.503 . S
C1029 C1028 1.370 . S
C1029 C1030 1.403 . S
C1030 C1029 1.403 . S
C1030 C1031 1.404 . S
C1030 C1033 1.539 . S
C1031 C1027 1.408 . S
C1031 C1030 1.404 . S
C1031 H1043 0.930 . S
C1032 C1028 1.524 . S
C1032 H1044 0.956 . S
C1032 H1045 0.961 . S
C1032 H1046 0.961 1_554 S
C1033 C1030 1.539 . S
C1033 H1047 0.958 . S
C1033 H1048 0.961 . S
C1033 H1049 0.960 . S
H1034 C1018 0.931 . S
H1035 C1023 0.929 . S
H1036 C1024 0.960 . S
H1037 C1024 0.962 . S
H1038 C1024 0.960 . S
H1039 C1025 0.961 . S
H1040 C1025 0.961 . S
H1041 C1025 0.961 . S
H1042 C1026 0.931 . S
H1043 C1031 0.930 . S
H1044 C1032 0.956 . S
H1045 C1032 0.961 . S
H1046 C1032 0.961 1_556 S
H1047 C1033 0.958 . S
H1048 C1033 0.961 . S
H1049 C1033 0.960 . S
C1050 C1051 1.391 . S
C1050 C1052 1.394 . S
C1050 H1066 0.931 . S
C1051 C1050 1.391 . S
C1051 C1055 1.376 . S
C1052 C1050 1.394 . S
C1052 C1053 1.369 . S
C1052 C1056 1.531 . S
C1053 C1052 1.369 . S
C1053 C1054 1.410 . S
C1053 C1061 1.503 . S
C1054 C1053 1.410 . S
C1054 C1055 1.392 . S
C1054 C1057 1.511 . S
C1055 C1051 1.376 . S
C1055 C1054 1.392 . S
C1055 H1067 0.929 . S
C1056 C1052 1.531 . S
C1056 H1068 0.960 1_556 S
C1056 H1069 0.962 . S
C1056 H1070 0.960 1_556 S
C1057 C1054 1.511 . S
C1057 H1071 0.961 . S
C1057 H1072 0.961 . S
C1057 H1073 0.961 . S
C1058 C1059 1.370 . S
C1058 C1060 1.363 . S
C1058 H1074 0.931 . S
C1059 C1058 1.370 . S
C1059 C1063 1.408 1_556 S
C1060 C1058 1.363 . S
C1060 C1061 1.370 . S
C1060 C1064 1.524 . S
C1061 C1053 1.503 . S
C1061 C1060 1.370 . S
C1061 C1062 1.403 1_556 S
C1062 C1061 1.403 1_554 S
C1062 C1063 1.404 . S
C1062 C1065 1.539 . S
C1063 C1059 1.408 1_554 S
C1063 C1062 1.404 . S
C1063 H1075 0.930 . S
C1064 C1060 1.524 . S
C1064 H1076 0.956 . S
C1064 H1077 0.961 . S
C1064 H1078 0.961 . S
C1065 C1062 1.539 . S
C1065 H1079 0.958 . S
C1065 H1080 0.961 . S
C1065 H1081 0.960 . S
H1066 C1050 0.931 . S
H1067 C1055 0.929 . S
H1068 C1056 0.960 1_554 S
H1069 C1056 0.962 . S
H1070 C1056 0.960 1_554 S
H1071 C1057 0.961 . S
H1072 C1057 0.961 . S
H1073 C1057 0.961 . S
H1074 C1058 0.931 . S
H1075 C1063 0.930 . S
H1076 C1064 0.956 . S
H1077 C1064 0.961 . S
H1078 C1064 0.961 . S
H1079 C1065 0.958 . S
H1080 C1065 0.961 . S
H1081 C1065 0.960 . S
C1082 C1083 1.391 . S
C1082 C1084 1.394 . S
C1082 H1098 0.931 . S
C1083 C1082 1.391 . S
C1083 C1087 1.376 . S
C1084 C1082 1.394 . S
C1084 C1085 1.369 . S
C1084 C1088 1.531 1_556 S
C1085 C1084 1.369 . S
C1085 C1086 1.410 . S
C1085 C1093 1.503 . S
C1086 C1085 1.410 . S
C1086 C1087 1.392 . S
C1086 C1089 1.511 . S
C1087 C1083 1.376 . S
C1087 C1086 1.392 . S
C1087 H1099 0.929 . S
C1088 C1084 1.531 1_554 S
C1088 H1100 0.960 . S
C1088 H1101 0.962 . S
C1088 H1102 0.960 . S
C1089 C1086 1.511 . S
C1089 H1103 0.961 . S
C1089 H1104 0.961 . S
C1089 H1105 0.961 . S
C1090 C1091 1.370 . S
C1090 C1092 1.363 . S
C1090 H1106 0.931 1_556 S
C1091 C1090 1.370 . S
C1091 C1095 1.408 . S
C1092 C1090 1.363 . S
C1092 C1093 1.370 . S
C1092 C1096 1.524 . S
C1093 C1085 1.503 . S
C1093 C1092 1.370 . S
C1093 C1094 1.403 . S
C1094 C1093 1.403 . S
C1094 C1095 1.404 . S
C1094 C1097 1.539 . S
C1095 C1091 1.408 . S
C1095 C1094 1.404 . S
C1095 H1107 0.930 . S
C1096 C1092 1.524 . S
C1096 H1108 0.956 1_556 S
C1096 H1109 0.961 . S
C1096 H1110 0.961 1_556 S
C1097 C1094 1.539 . S
C1097 H1111 0.958 . S
C1097 H1112 0.961 . S
C1097 H1113 0.960 . S
H1098 C1082 0.931 . S
H1099 C1087 0.929 . S
H1100 C1088 0.960 . S
H1101 C1088 0.962 . S
H1102 C1088 0.960 . S
H1103 C1089 0.961 . S
H1104 C1089 0.961 . S
H1105 C1089 0.961 . S
H1106 C1090 0.931 1_554 S
H1107 C1095 0.930 . S
H1108 C1096 0.956 1_554 S
H1109 C1096 0.961 . S
H1110 C1096 0.961 1_554 S
H1111 C1097 0.958 . S
H1112 C1097 0.961 . S
H1113 C1097 0.960 . S
C1114 C1115 1.391 . S
C1114 C1116 1.394 . S
C1114 H1130 0.931 . S
C1115 C1114 1.391 . S
C1115 C1119 1.376 . S
C1116 C1114 1.394 . S
C1116 C1117 1.369 . S
C1116 C1120 1.507 1_556 S
C1117 C1116 1.369 . S
C1117 C1118 1.410 . S
C1117 C1125 1.503 . S
C1118 C1117 1.410 . S
C1118 C1119 1.392 . S
C1118 C1121 1.511 . S
C1119 C1115 1.376 . S
C1119 C1118 1.392 . S
C1119 H1131 0.929 . S
C1120 C1116 1.507 1_554 S
C1120 H1132 0.954 1_554 S
C1120 H1133 0.992 . S
C1120 H1134 0.960 . S
C1121 C1118 1.511 . S
C1121 H1135 0.961 . S
C1121 H1136 0.961 . S
C1121 H1137 0.961 . S
C1122 C1123 1.370 1_554 S
C1122 C1124 1.363 1_554 S
C1122 H1138 0.931 . S
C1123 C1122 1.370 1_556 S
C1123 C1127 1.408 . S
C1124 C1122 1.363 1_556 S
C1124 C1125 1.370 . S
C1124 C1128 1.524 1_556 S
C1125 C1117 1.503 . S
C1125 C1124 1.370 . S
C1125 C1126 1.403 . S
C1126 C1125 1.403 . S
C1126 C1127 1.404 . S
C1126 C1129 1.539 . S
C1127 C1123 1.408 . S
C1127 C1126 1.404 . S
C1127 H1139 0.930 . S
C1128 C1124 1.524 1_554 S
C1128 H1140 0.956 . S
C1128 H1141 0.961 1_554 S
C1128 H1142 0.961 . S
C1129 C1126 1.539 . S
C1129 H1143 0.958 . S
C1129 H1144 0.961 . S
C1129 H1145 0.960 . S
H1130 C1114 0.931 . S
H1131 C1119 0.929 . S
H1132 C1120 0.954 1_556 S
H1133 C1120 0.992 . S
H1134 C1120 0.960 . S
H1135 C1121 0.961 . S
H1136 C1121 0.961 . S
H1137 C1121 0.961 . S
H1138 C1122 0.931 . S
H1139 C1127 0.930 . S
H1140 C1128 0.956 . S
H1141 C1128 0.961 1_556 S
H1142 C1128 0.961 . S
H1143 C1129 0.958 . S
H1144 C1129 0.961 . S
H1145 C1129 0.960 . S
C1146 C1147 1.391 . S
C1146 C1148 1.394 . S
C1146 H1162 0.931 . S
C1147 C1146 1.391 . S
C1147 C1151 1.376 . S
C1148 C1146 1.394 . S
C1148 C1149 1.369 . S
C1148 C1152 1.531 . S
C1149 C1148 1.369 . S
C1149 C1150 1.410 . S
C1149 C1157 1.503 . S
C1150 C1149 1.410 . S
C1150 C1151 1.392 . S
C1150 C1153 1.511 . S
C1151 C1147 1.376 . S
C1151 C1150 1.392 . S
C1151 H1163 0.929 . S
C1152 C1148 1.531 . S
C1152 H1164 0.960 1_556 S
C1152 H1165 0.962 . S
C1152 H1166 0.960 1_556 S
C1153 C1150 1.511 . S
C1153 H1167 0.961 . S
C1153 H1168 0.961 . S
C1153 H1169 0.961 . S
C1154 C1155 1.370 . S
C1154 C1156 1.363 . S
C1154 H1170 0.931 . S
C1155 C1154 1.370 . S
C1155 C1159 1.408 1_556 S
C1156 C1154 1.363 . S
C1156 C1157 1.370 . S
C1156 C1160 1.524 . S
C1157 C1149 1.503 . S
C1157 C1156 1.370 . S
C1157 C1158 1.403 1_556 S
C1158 C1157 1.403 1_554 S
C1158 C1159 1.404 . S
C1158 C1161 1.539 . S
C1159 C1155 1.408 1_554 S
C1159 C1158 1.404 . S
C1159 H1171 0.930 . S
C1160 C1156 1.524 . S
C1160 H1172 0.956 . S
C1160 H1173 0.961 . S
C1160 H1174 0.961 . S
C1161 C1158 1.539 . S
C1161 H1175 0.958 . S
C1161 H1176 0.961 . S
C1161 H1177 0.960 . S
H1162 C1146 0.931 . S
H1163 C1151 0.929 . S
H1164 C1152 0.960 1_554 S
H1165 C1152 0.962 . S
H1166 C1152 0.960 1_554 S
H1167 C1153 0.961 . S
H1168 C1153 0.961 . S
H1169 C1153 0.961 . S
H1170 C1154 0.931 . S
H1171 C1159 0.930 . S
H1172 C1160 0.956 . S
H1173 C1160 0.961 . S
H1174 C1160 0.961 . S
H1175 C1161 0.958 . S
H1176 C1161 0.961 . S
H1177 C1161 0.960 . S
C1178 C1179 1.391 . S
C1178 C1180 1.394 . S
C1178 H1194 0.931 . S
C1179 C1178 1.391 . S
C1179 C1183 1.376 . S
C1180 C1178 1.394 . S
C1180 C1181 1.369 . S
C1180 C1184 1.531 . S
C1181 C1180 1.369 . S
C1181 C1182 1.410 . S
C1181 C1189 1.503 . S
C1182 C1181 1.410 . S
C1182 C1183 1.392 . S
C1182 C1185 1.511 . S
C1183 C1179 1.376 . S
C1183 C1182 1.392 . S
C1183 H1195 0.929 . S
C1184 C1180 1.531 . S
C1184 H1196 0.960 . S
C1184 H1197 0.962 . S
C1184 H1198 0.960 . S
C1185 C1182 1.511 . S
C1185 H1199 0.961 . S
C1185 H1200 0.961 . S
C1185 H1201 0.961 . S
C1186 C1187 1.370 1_554 S
C1186 C1188 1.352 1_554 S
C1186 H1202 0.931 . S
C1187 C1186 1.370 1_556 S
C1187 C1191 1.408 . S
C1188 C1186 1.352 1_556 S
C1188 C1189 1.407 . S
C1188 C1192 1.499 1_556 S
C1189 C1181 1.503 . S
C1189 C1188 1.407 . S
C1189 C1190 1.403 . S
C1190 C1189 1.403 . S
C1190 C1191 1.404 . S
C1190 C1193 1.539 . S
C1191 C1187 1.408 . S
C1191 C1190 1.404 . S
C1191 H1203 0.930 . S
C1192 C1188 1.499 1_554 S
C1192 H1204 0.956 . S
C1192 H1205 0.961 . S
C1192 H1206 0.961 . S
C1193 C1190 1.539 . S
C1193 H1207 0.958 . S
C1193 H1208 0.961 . S
C1193 H1209 0.960 . S
H1194 C1178 0.931 . S
H1195 C1183 0.929 . S
H1196 C1184 0.960 . S
H1197 C1184 0.962 . S
H1198 C1184 0.960 . S
H1199 C1185 0.961 . S
H1200 C1185 0.961 . S
H1201 C1185 0.961 . S
H1202 C1186 0.931 . S
H1203 C1191 0.930 . S
H1204 C1192 0.956 . S
H1205 C1192 0.961 . S
H1206 C1192 0.961 . S
H1207 C1193 0.958 . S
H1208 C1193 0.961 . S
H1209 C1193 0.960 . S
C1210 C1211 1.391 . S
C1210 C1212 1.394 . S
C1210 H1226 0.931 . S
C1211 C1210 1.391 . S
C1211 C1215 1.376 . S
C1212 C1210 1.394 . S
C1212 C1213 1.369 . S
C1212 C1216 1.531 . S
C1213 C1212 1.369 . S
C1213 C1214 1.410 . S
C1213 C1221 1.503 . S
C1214 C1213 1.410 . S
C1214 C1215 1.392 . S
C1214 C1217 1.511 . S
C1215 C1211 1.376 . S
C1215 C1214 1.392 . S
C1215 H1227 0.929 . S
C1216 C1212 1.531 . S
C1216 H1228 0.957 . S
C1216 H1229 0.962 . S
C1216 H1230 0.960 . S
C1217 C1214 1.511 . S
C1217 H1231 0.961 . S
C1217 H1232 0.961 . S
C1217 H1233 0.989 . S
C1218 C1219 1.370 . S
C1218 C1220 1.363 . S
C1218 H1234 0.931 . S
C1219 C1218 1.370 . S
C1219 C1223 1.408 1_556 S
C1220 C1218 1.363 . S
C1220 C1221 1.370 . S
C1220 C1224 1.524 . S
C1221 C1213 1.503 . S
C1221 C1220 1.370 . S
C1221 C1222 1.403 1_556 S
C1222 C1221 1.403 1_554 S
C1222 C1223 1.404 . S
C1222 C1225 1.539 . S
C1223 C1219 1.408 1_554 S
C1223 C1222 1.404 . S
C1223 H1235 0.930 . S
C1224 C1220 1.524 . S
C1224 H1236 0.956 . S
C1224 H1237 0.961 . S
C1224 H1238 0.961 . S
C1225 C1222 1.539 . S
C1225 H1239 0.958 . S
C1225 H1240 0.961 . S
C1225 H1241 0.960 . S
H1226 C1210 0.931 . S
H1227 C1215 0.929 . S
H1228 C1216 0.957 . S
H1229 C1216 0.962 . S
H1230 C1216 0.960 . S
H1231 C1217 0.961 . S
H1232 C1217 0.961 . S
H1233 C1217 0.989 . S
H1234 C1218 0.931 . S
H1235 C1223 0.930 . S
H1236 C1224 0.956 . S
H1237 C1224 0.961 . S
H1238 C1224 0.961 . S
H1239 C1225 0.958 . S
H1240 C1225 0.961 . S
H1241 C1225 0.960 . S
C1242 C1243 1.391 . S
C1242 C1244 1.394 . S
C1242 H1258 0.931 . S
C1243 C1242 1.391 . S
C1243 C1247 1.376 . S
C1244 C1242 1.394 . S
C1244 C1245 1.369 . S
C1244 C1248 1.531 . S
C1245 C1244 1.369 . S
C1245 C1246 1.410 . S
C1245 C1253 1.503 . S
C1246 C1245 1.410 . S
C1246 C1247 1.392 . S
C1246 C1249 1.511 . S
C1247 C1243 1.376 . S
C1247 C1246 1.392 . S
C1247 H1259 0.929 . S
C1248 C1244 1.531 . S
C1248 H1260 0.960 . S
C1248 H1261 0.962 . S
C1248 H1262 0.960 . S
C1249 C1246 1.511 . S
C1249 H1263 0.961 1_554 S
C1249 H1264 0.961 . S
C1249 H1265 0.961 1_554 S
C1250 C1251 1.370 . S
C1250 C1252 1.363 . S
C1250 H1266 0.931 . S
C1251 C1250 1.370 . S
C1251 C1255 1.408 . S
C1252 C1250 1.363 . S
C1252 C1253 1.370 . S
C1252 C1256 1.524 . S
C1253 C1245 1.503 . S
C1253 C1252 1.370 . S
C1253 C1254 1.403 . S
C1254 C1253 1.403 . S
C1254 C1255 1.404 . S
C1254 C1257 1.539 . S
C1255 C1251 1.408 . S
C1255 C1254 1.404 . S
C1255 H1267 0.930 . S
C1256 C1252 1.524 . S
C1256 H1268 0.956 . S
C1256 H1269 0.961 . S
C1256 H1270 0.961 . S
C1257 C1254 1.539 . S
C1257 H1271 0.958 . S
C1257 H1272 0.961 . S
C1257 H1273 0.960 . S
H1258 C1242 0.931 . S
H1259 C1247 0.929 . S
H1260 C1248 0.960 . S
H1261 C1248 0.962 . S
H1262 C1248 0.960 . S
H1263 C1249 0.961 1_556 S
H1264 C1249 0.961 . S
H1265 C1249 0.961 1_556 S
H1266 C1250 0.931 . S
H1267 C1255 0.930 . S
H1268 C1256 0.956 . S
H1269 C1256 0.961 . S
H1270 C1256 0.961 . S
H1271 C1257 0.958 . S
H1272 C1257 0.961 . S
H1273 C1257 0.960 . S
C1274 C1275 1.391 . S
C1274 C1276 1.394 . S
C1274 H1290 0.931 . S
C1275 C1274 1.391 . S
C1275 C1279 1.376 . S
C1276 C1274 1.394 . S
C1276 C1277 1.369 . S
C1276 C1280 1.531 . S
C1277 C1276 1.369 . S
C1277 C1278 1.410 . S
C1277 C1285 1.503 . S
C1278 C1277 1.410 . S
C1278 C1279 1.392 . S
C1278 C1281 1.511 . S
C1279 C1275 1.376 . S
C1279 C1278 1.392 . S
C1279 H1291 0.929 . S
C1280 C1276 1.531 . S
C1280 H1292 0.960 . S
C1280 H1293 0.962 . S
C1280 H1294 0.960 . S
C1281 C1278 1.511 . S
C1281 H1295 0.961 . S
C1281 H1296 0.961 . S
C1281 H1297 0.961 . S
C1282 C1283 1.370 . S
C1282 C1284 1.363 . S
C1282 H1298 0.931 . S
C1283 C1282 1.370 . S
C1283 C1287 1.408 . S
C1284 C1282 1.363 . S
C1284 C1285 1.370 . S
C1284 C1288 1.524 . S
C1285 C1277 1.503 . S
C1285 C1284 1.370 . S
C1285 C1286 1.403 . S
C1286 C1285 1.403 . S
C1286 C1287 1.404 . S
C1286 C1289 1.539 . S
C1287 C1283 1.408 . S
C1287 C1286 1.404 . S
C1287 H1299 0.930 . S
C1288 C1284 1.524 . S
C1288 H1300 0.956 . S
C1288 H1301 0.961 . S
C1288 H1302 0.961 1_554 S
C1289 C1286 1.539 . S
C1289 H1303 0.958 . S
C1289 H1304 0.961 . S
C1289 H1305 0.960 . S
H1290 C1274 0.931 . S
H1291 C1279 0.929 . S
H1292 C1280 0.960 . S
H1293 C1280 0.962 . S
H1294 C1280 0.960 . S
H1295 C1281 0.961 . S
H1296 C1281 0.961 . S
H1297 C1281 0.961 . S
H1298 C1282 0.931 . S
H1299 C1287 0.930 . S
H1300 C1288 0.956 . S
H1301 C1288 0.961 . S
H1302 C1288 0.961 1_556 S
H1303 C1289 0.958 . S
H1304 C1289 0.961 . S
H1305 C1289 0.960 . S
C1306 C1307 1.391 . S
C1306 C1308 1.394 . S
C1306 H1322 0.931 . S
C1307 C1306 1.391 . S
C1307 C1311 1.376 . S
C1308 C1306 1.394 . S
C1308 C1309 1.369 . S
C1308 C1312 1.531 . S
C1309 C1308 1.369 . S
C1309 C1310 1.410 . S
C1309 C1317 1.503 . S
C1310 C1309 1.410 . S
C1310 C1311 1.392 . S
C1310 C1313 1.511 . S
C1311 C1307 1.376 . S
C1311 C1310 1.392 . S
C1311 H1323 0.929 . S
C1312 C1308 1.531 . S
C1312 H1324 0.960 . S
C1312 H1325 0.962 . S
C1312 H1326 0.960 . S
C1313 C1310 1.511 . S
C1313 H1327 0.961 . S
C1313 H1328 0.961 . S
C1313 H1329 0.961 . S
C1314 C1315 1.370 . S
C1314 C1316 1.363 . S
C1314 H1330 0.933 . S
C1315 C1314 1.370 . S
C1315 C1319 1.408 . S
C1316 C1314 1.363 . S
C1316 C1317 1.370 . S
C1316 C1320 1.524 . S
C1317 C1309 1.503 . S
C1317 C1316 1.370 . S
C1317 C1318 1.403 . S
C1318 C1317 1.403 . S
C1318 C1319 1.404 . S
C1318 C1321 1.539 . S
C1319 C1315 1.408 . S
C1319 C1318 1.404 . S
C1319 H1331 0.930 . S
C1320 C1316 1.524 . S
C1320 H1332 0.963 . S
C1320 H1333 0.961 . S
C1320 H1334 0.961 1_554 S
C1321 C1318 1.539 . S
C1321 H1335 0.958 . S
C1321 H1336 0.961 . S
C1321 H1337 0.960 . S
H1322 C1306 0.931 . S
H1323 C1311 0.929 . S
H1324 C1312 0.960 . S
H1325 C1312 0.962 . S
H1326 C1312 0.960 . S
H1327 C1313 0.961 . S
H1328 C1313 0.961 . S
H1329 C1313 0.961 . S
H1330 C1314 0.933 . S
H1331 C1319 0.930 . S
H1332 C1320 0.963 . S
H1333 C1320 0.961 . S
H1334 C1320 0.961 1_556 S
H1335 C1321 0.958 . S
H1336 C1321 0.961 . S
H1337 C1321 0.960 . S
C1338 C1339 1.391 . S
C1338 C1340 1.394 . S
C1338 H1354 0.931 . S
C1339 C1338 1.391 . S
C1339 C1343 1.376 . S
C1340 C1338 1.394 . S
C1340 C1341 1.369 . S
C1340 C1344 1.531 1_655 S
C1341 C1340 1.369 . S
C1341 C1342 1.410 . S
C1341 C1349 1.503 1_655 S
C1342 C1341 1.410 . S
C1342 C1343 1.392 . S
C1342 C1345 1.511 . S
C1343 C1339 1.376 . S
C1343 C1342 1.392 . S
C1343 H1355 0.929 . S
C1344 C1340 1.531 1_455 S
C1344 H1356 0.960 . S
C1344 H1357 0.962 . S
C1344 H1358 0.960 . S
C1345 C1342 1.511 . S
C1345 H1359 0.961 . S
C1345 H1360 0.961 . S
C1345 H1361 0.961 . S
C1346 C1347 1.370 . S
C1346 C1348 1.363 . S
C1346 H1362 0.931 . S
C1347 C1346 1.370 . S
C1347 C1351 1.408 . S
C1348 C1346 1.363 . S
C1348 C1349 1.370 . S
C1348 C1352 1.524 1_455 S
C1349 C1341 1.503 1_455 S
C1349 C1348 1.370 . S
C1349 C1350 1.403 . S
C1350 C1349 1.403 . S
C1350 C1351 1.404 . S
C1350 C1353 1.539 . S
C1351 C1347 1.408 . S
C1351 C1350 1.404 . S
C1351 H1363 0.930 . S
C1352 C1348 1.524 1_655 S
C1352 H1364 0.956 . S
C1352 H1365 0.961 . S
C1352 H1366 0.946 . S
C1353 C1350 1.539 . S
C1353 H1367 0.958 . S
C1353 H1368 0.961 . S
C1353 H1369 0.960 . S
H1354 C1338 0.931 . S
H1355 C1343 0.929 . S
H1356 C1344 0.960 . S
H1357 C1344 0.962 . S
H1358 C1344 0.960 . S
H1359 C1345 0.961 . S
H1360 C1345 0.961 . S
H1361 C1345 0.961 . S
H1362 C1346 0.931 . S
H1363 C1351 0.930 . S
H1364 C1352 0.956 . S
H1365 C1352 0.961 . S
H1366 C1352 0.946 . S
H1367 C1353 0.958 . S
H1368 C1353 0.961 . S
H1369 C1353 0.960 . S
C1370 C1371 1.391 . S
C1370 C1372 1.394 . S
C1370 H1386 0.931 . S
C1371 C1370 1.391 . S
C1371 C1375 1.376 . S
C1372 C1370 1.394 . S
C1372 C1373 1.369 . S
C1372 C1376 1.531 . S
C1373 C1372 1.369 . S
C1373 C1374 1.410 . S
C1373 C1381 1.503 . S
C1374 C1373 1.410 . S
C1374 C1375 1.392 . S
C1374 C1377 1.511 . S
C1375 C1371 1.376 . S
C1375 C1374 1.392 . S
C1375 H1387 0.929 . S
C1376 C1372 1.531 . S
C1376 H1388 0.960 . S
C1376 H1389 0.962 . S
C1376 H1390 0.960 . S
C1377 C1374 1.511 . S
C1377 H1391 0.961 . S
C1377 H1392 0.961 . S
C1377 H1393 0.961 . S
C1378 C1379 1.370 . S
C1378 C1380 1.363 . S
C1378 H1394 0.931 . S
C1379 C1378 1.370 . S
C1379 C1383 1.408 . S
C1380 C1378 1.363 . S
C1380 C1381 1.370 . S
C1380 C1384 1.524 . S
C1381 C1373 1.503 . S
C1381 C1380 1.370 . S
C1381 C1382 1.403 . S
C1382 C1381 1.403 . S
C1382 C1383 1.404 . S
C1382 C1385 1.539 . S
C1383 C1379 1.408 . S
C1383 C1382 1.404 . S
C1383 H1395 0.930 . S
C1384 C1380 1.524 . S
C1384 H1396 0.956 . S
C1384 H1397 0.961 . S
C1384 H1398 0.961 . S
C1385 C1382 1.539 . S
C1385 H1399 0.958 . S
C1385 H1400 0.961 . S
C1385 H1401 0.960 . S
H1386 C1370 0.931 . S
H1387 C1375 0.929 . S
H1388 C1376 0.960 . S
H1389 C1376 0.962 . S
H1390 C1376 0.960 . S
H1391 C1377 0.961 . S
H1392 C1377 0.961 . S
H1393 C1377 0.961 . S
H1394 C1378 0.931 . S
H1395 C1383 0.930 . S
H1396 C1384 0.956 . S
H1397 C1384 0.961 . S
H1398 C1384 0.961 . S
H1399 C1385 0.958 . S
H1400 C1385 0.961 . S
H1401 C1385 0.960 . S
C1402 C1403 1.391 . S
C1402 C1404 1.394 . S
C1402 H1418 0.931 . S
C1403 C1402 1.391 . S
C1403 C1407 1.376 . S
C1404 C1402 1.394 . S
C1404 C1405 1.369 . S
C1404 C1408 1.531 . S
C1405 C1404 1.369 . S
C1405 C1406 1.410 . S
C1405 C1413 1.503 1_545 S
C1406 C1405 1.410 . S
C1406 C1407 1.392 . S
C1406 C1409 1.511 1_545 S
C1407 C1403 1.376 . S
C1407 C1406 1.392 . S
C1407 H1419 0.929 . S
C1408 C1404 1.531 . S
C1408 H1420 0.960 . S
C1408 H1421 0.962 . S
C1408 H1422 0.960 . S
C1409 C1406 1.511 1_565 S
C1409 H1423 0.961 . S
C1409 H1424 0.961 . S
C1409 H1425 0.961 . S
C1410 C1411 1.370 . S
C1410 C1412 1.363 . S
C1410 H1426 0.931 . S
C1411 C1410 1.370 . S
C1411 C1415 1.408 . S
C1412 C1410 1.363 . S
C1412 C1413 1.370 . S
C1412 C1416 1.524 . S
C1413 C1405 1.503 1_565 S
C1413 C1412 1.370 . S
C1413 C1414 1.403 . S
C1414 C1413 1.403 . S
C1414 C1415 1.404 . S
C1414 C1417 1.539 1_565 S
C1415 C1411 1.408 . S
C1415 C1414 1.404 . S
C1415 H1427 0.930 . S
C1416 C1412 1.524 . S
C1416 H1428 0.956 1_565 S
C1416 H1429 0.961 . S
C1416 H1430 0.961 . S
C1417 C1414 1.539 1_545 S
C1417 H1431 0.958 . S
C1417 H1432 0.961 1_545 S
C1417 H1433 0.960 . S
H1418 C1402 0.931 . S
H1419 C1407 0.929 . S
H1420 C1408 0.960 . S
H1421 C1408 0.962 . S
H1422 C1408 0.960 . S
H1423 C1409 0.961 . S
H1424 C1409 0.961 . S
H1425 C1409 0.961 . S
H1426 C1410 0.931 . S
H1427 C1415 0.930 . S
H1428 C1416 0.956 1_545 S
H1429 C1416 0.961 . S
H1430 C1416 0.961 . S
H1431 C1417 0.958 . S
H1432 C1417 0.961 1_565 S
H1433 C1417 0.960 . S
C1434 C1435 1.391 . S
C1434 C1436 1.394 . S
C1434 H1450 0.931 . S
C1435 C1434 1.391 . S
C1435 C1439 1.376 . S
C1436 C1434 1.394 . S
C1436 C1437 1.369 . S
C1436 C1440 1.531 . S
C1437 C1436 1.369 . S
C1437 C1438 1.410 . S
C1437 C1445 1.503 . S
C1438 C1437 1.410 . S
C1438 C1439 1.392 . S
C1438 C1441 1.511 . S
C1439 C1435 1.376 . S
C1439 C1438 1.392 . S
C1439 H1451 0.929 . S
C1440 C1436 1.531 . S
C1440 H1452 0.960 . S
C1440 H1453 0.962 . S
C1440 H1454 0.960 . S
C1441 C1438 1.511 . S
C1441 H1455 0.961 . S
C1441 H1456 0.961 . S
C1441 H1457 0.961 . S
C1442 C1443 1.370 . S
C1442 C1444 1.363 . S
C1442 H1458 0.931 . S
C1443 C1442 1.370 . S
C1443 C1447 1.408 . S
C1444 C1442 1.363 . S
C1444 C1445 1.370 . S
C1444 C1448 1.524 . S
C1445 C1437 1.503 . S
C1445 C1444 1.370 . S
C1445 C1446 1.403 . S
C1446 C1445 1.403 . S
C1446 C1447 1.404 . S
C1446 C1449 1.539 . S
C1447 C1443 1.408 . S
C1447 C1446 1.404 . S
C1447 H1459 0.930 . S
C1448 C1444 1.524 . S
C1448 H1460 0.956 . S
C1448 H1461 0.961 . S
C1448 H1462 0.961 . S
C1449 C1446 1.539 . S
C1449 H1463 0.958 . S
C1449 H1464 0.961 . S
C1449 H1465 0.960 . S
H1450 C1434 0.931 . S
H1451 C1439 0.929 . S
H1452 C1440 0.960 . S
H1453 C1440 0.962 . S
H1454 C1440 0.960 . S
H1455 C1441 0.961 . S
H1456 C1441 0.961 . S
H1457 C1441 0.961 . S
H1458 C1442 0.931 . S
H1459 C1447 0.930 . S
H1460 C1448 0.956 . S
H1461 C1448 0.961 . S
H1462 C1448 0.961 . S
H1463 C1449 0.958 . S
H1464 C1449 0.961 . S
H1465 C1449 0.960 . S
C1466 C1467 1.391 . S
C1466 C1468 1.394 . S
C1466 H1482 0.931 . S
C1467 C1466 1.391 . S
C1467 C1471 1.376 . S
C1468 C1466 1.394 . S
C1468 C1469 1.369 . S
C1468 C1472 1.531 . S
C1469 C1468 1.369 . S
C1469 C1470 1.410 . S
C1469 C1477 1.503 . S
C1470 C1469 1.410 . S
C1470 C1471 1.392 . S
C1470 C1473 1.511 . S
C1471 C1467 1.376 . S
C1471 C1470 1.392 . S
C1471 H1483 0.929 . S
C1472 C1468 1.531 . S
C1472 H1484 0.960 . S
C1472 H1485 0.962 . S
C1472 H1486 0.960 . S
C1473 C1470 1.511 . S
C1473 H1487 0.961 . S
C1473 H1488 0.961 . S
C1473 H1489 0.961 . S
C1474 C1475 1.370 . S
C1474 C1476 1.363 . S
C1474 H1490 0.931 . S
C1475 C1474 1.370 . S
C1475 C1479 1.408 . S
C1476 C1474 1.363 . S
C1476 C1477 1.370 . S
C1476 C1480 1.524 . S
C1477 C1469 1.503 . S
C1477 C1476 1.370 . S
C1477 C1478 1.403 . S
C1478 C1477 1.403 . S
C1478 C1479 1.404 . S
C1478 C1481 1.539 . S
C1479 C1475 1.408 . S
C1479 C1478 1.404 . S
C1479 H1491 0.930 . S
C1480 C1476 1.524 . S
C1480 H1492 0.956 . S
C1480 H1493 0.961 . S
C1480 H1494 0.961 . S
C1481 C1478 1.539 . S
C1481 H1495 0.958 . S
C1481 H1496 0.961 . S
C1481 H1497 0.960 . S
H1482 C1466 0.931 . S
H1483 C1471 0.929 . S
H1484 C1472 0.960 . S
H1485 C1472 0.962 . S
H1486 C1472 0.960 . S
H1487 C1473 0.961 . S
H1488 C1473 0.961 . S
H1489 C1473 0.961 . S
H1490 C1474 0.931 . S
H1491 C1479 0.930 . S
H1492 C1480 0.956 . S
H1493 C1480 0.961 . S
H1494 C1480 0.961 . S
H1495 C1481 0.958 . S
H1496 C1481 0.961 . S
H1497 C1481 0.960 . S
C1498 C1499 1.391 . S
C1498 C1500 1.394 . S
C1498 H1514 0.931 . S
C1499 C1498 1.391 . S
C1499 C1503 1.376 . S
C1500 C1498 1.394 . S
C1500 C1501 1.369 . S
C1500 C1504 1.531 . S
C1501 C1500 1.369 . S
C1501 C1502 1.410 . S
C1501 C1509 1.503 . S
C1502 C1501 1.410 . S
C1502 C1503 1.392 . S
C1502 C1505 1.511 . S
C1503 C1499 1.376 . S
C1503 C1502 1.392 . S
C1503 H1515 0.929 . S
C1504 C1500 1.531 . S
C1504 H1516 0.960 . S
C1504 H1517 0.962 . S
C1504 H1518 0.960 . S
C1505 C1502 1.511 . S
C1505 H1519 0.961 . S
C1505 H1520 0.961 . S
C1505 H1521 0.961 . S
C1506 C1507 1.370 . S
C1506 C1508 1.363 . S
C1506 H1522 0.931 . S
C1507 C1506 1.370 . S
C1507 C1511 1.408 . S
C1508 C1506 1.363 . S
C1508 C1509 1.370 . S
C1508 C1512 1.524 . S
C1509 C1501 1.503 . S
C1509 C1508 1.370 . S
C1509 C1510 1.403 . S
C1510 C1509 1.403 . S
C1510 C1511 1.404 . S
C1510 C1513 1.539 . S
C1511 C1507 1.408 . S
C1511 C1510 1.404 . S
C1511 H1523 0.930 . S
C1512 C1508 1.524 . S
C1512 H1524 0.956 . S
C1512 H1525 0.961 . S
C1512 H1526 0.961 . S
C1513 C1510 1.539 . S
C1513 H1527 0.958 . S
C1513 H1528 0.961 . S
C1513 H1529 0.960 . S
H1514 C1498 0.931 . S
H1515 C1503 0.929 . S
H1516 C1504 0.960 . S
H1517 C1504 0.962 . S
H1518 C1504 0.960 . S
H1519 C1505 0.961 . S
H1520 C1505 0.961 . S
H1521 C1505 0.961 . S
H1522 C1506 0.931 . S
H1523 C1511 0.930 . S
H1524 C1512 0.956 . S
H1525 C1512 0.961 . S
H1526 C1512 0.961 . S
H1527 C1513 0.958 . S
H1528 C1513 0.961 . S
H1529 C1513 0.960 . S
C1530 C1531 1.391 . S
C1530 C1532 1.394 . S
C1530 H1546 0.931 . S
C1531 C1530 1.391 . S
C1531 C1535 1.376 . S
C1532 C1530 1.394 . S
C1532 C1533 1.369 . S
C1532 C1536 1.531 . S
C1533 C1532 1.369 . S
C1533 C1534 1.410 . S
C1533 C1541 1.503 . S
C1534 C1533 1.410 . S
C1534 C1535 1.392 . S
C1534 C1537 1.511 . S
C1535 C1531 1.376 . S
C1535 C1534 1.392 . S
C1535 H1547 0.929 . S
C1536 C1532 1.531 . S
C1536 H1548 0.960 . S
C1536 H1549 0.962 . S
C1536 H1550 0.960 . S
C1537 C1534 1.511 . S
C1537 H1551 0.961 . S
C1537 H1552 0.961 . S
C1537 H1553 0.961 . S
C1538 C1539 1.370 . S
C1538 C1540 1.363 . S
C1538 H1554 0.931 . S
C1539 C1538 1.370 . S
C1539 C1543 1.408 . S
C1540 C1538 1.363 . S
C1540 C1541 1.370 . S
C1540 C1544 1.524 . S
C1541 C1533 1.503 . S
C1541 C1540 1.370 . S
C1541 C1542 1.403 . S
C1542 C1541 1.403 . S
C1542 C1543 1.404 . S
C1542 C1545 1.539 . S
C1543 C1539 1.408 . S
C1543 C1542 1.404 . S
C1543 H1555 0.930 . S
C1544 C1540 1.524 . S
C1544 H1556 0.956 . S
C1544 H1557 0.961 . S
C1544 H1558 0.961 . S
C1545 C1542 1.539 . S
C1545 H1559 0.958 . S
C1545 H1560 0.961 . S
C1545 H1561 0.960 . S
H1546 C1530 0.931 . S
H1547 C1535 0.929 . S
H1548 C1536 0.960 . S
H1549 C1536 0.962 . S
H1550 C1536 0.960 . S
H1551 C1537 0.961 . S
H1552 C1537 0.961 . S
H1553 C1537 0.961 . S
H1554 C1538 0.931 . S
H1555 C1543 0.930 . S
H1556 C1544 0.956 . S
H1557 C1544 0.961 . S
H1558 C1544 0.961 . S
H1559 C1545 0.958 . S
H1560 C1545 0.961 . S
H1561 C1545 0.960 . S
C1562 C1563 1.391 . S
C1562 C1564 1.394 . S
C1562 H1578 0.931 . S
C1563 C1562 1.391 . S
C1563 C1567 1.376 . S
C1564 C1562 1.394 . S
C1564 C1565 1.369 . S
C1564 C1568 1.531 . S
C1565 C1564 1.369 . S
C1565 C1566 1.410 . S
C1565 C1573 1.503 . S
C1566 C1565 1.410 . S
C1566 C1567 1.392 . S
C1566 C1569 1.511 . S
C1567 C1563 1.376 . S
C1567 C1566 1.392 . S
C1567 H1579 0.929 . S
C1568 C1564 1.531 . S
C1568 H1580 0.960 . S
C1568 H1581 0.962 . S
C1568 H1582 0.960 . S
C1569 C1566 1.511 . S
C1569 H1583 0.961 . S
C1569 H1584 0.961 . S
C1569 H1585 0.961 . S
C1570 C1571 1.370 . S
C1570 C1572 1.363 . S
C1570 H1586 0.931 . S
C1571 C1570 1.370 . S
C1571 C1575 1.408 . S
C1572 C1570 1.363 . S
C1572 C1573 1.370 . S
C1572 C1576 1.524 . S
C1573 C1565 1.503 . S
C1573 C1572 1.370 . S
C1573 C1574 1.403 . S
C1574 C1573 1.403 . S
C1574 C1575 1.404 . S
C1574 C1577 1.539 . S
C1575 C1571 1.408 . S
C1575 C1574 1.404 . S
C1575 H1587 0.930 . S
C1576 C1572 1.524 . S
C1576 H1588 0.956 . S
C1576 H1589 0.961 . S
C1576 H1590 0.961 . S
C1577 C1574 1.539 . S
C1577 H1591 0.958 . S
C1577 H1592 0.961 . S
C1577 H1593 0.960 . S
H1578 C1562 0.931 . S
H1579 C1567 0.929 . S
H1580 C1568 0.960 . S
H1581 C1568 0.962 . S
H1582 C1568 0.960 . S
H1583 C1569 0.961 . S
H1584 C1569 0.961 . S
H1585 C1569 0.961 . S
H1586 C1570 0.931 . S
H1587 C1575 0.930 . S
H1588 C1576 0.956 . S
H1589 C1576 0.961 . S
H1590 C1576 0.961 . S
H1591 C1577 0.958 . S
H1592 C1577 0.961 . S
H1593 C1577 0.960 . S
C1594 C1595 1.391 . S
C1594 C1596 1.394 . S
C1594 H1610 0.931 . S
C1595 C1594 1.391 . S
C1595 C1599 1.376 . S
C1596 C1594 1.394 . S
C1596 C1597 1.369 . S
C1596 C1600 1.531 . S
C1597 C1596 1.369 . S
C1597 C1598 1.410 . S
C1597 C1605 1.503 . S
C1598 C1597 1.410 . S
C1598 C1599 1.392 . S
C1598 C1601 1.511 . S
C1599 C1595 1.376 . S
C1599 C1598 1.392 . S
C1599 H1611 0.929 . S
C1600 C1596 1.531 . S
C1600 H1612 0.960 . S
C1600 H1613 0.962 . S
C1600 H1614 0.960 . S
C1601 C1598 1.511 . S
C1601 H1615 0.961 . S
C1601 H1616 0.961 . S
C1601 H1617 0.961 . S
C1602 C1603 1.370 . S
C1602 C1604 1.363 . S
C1602 H1618 0.931 . S
C1603 C1602 1.370 . S
C1603 C1607 1.408 . S
C1604 C1602 1.363 . S
C1604 C1605 1.370 . S
C1604 C1608 1.524 . S
C1605 C1597 1.503 . S
C1605 C1604 1.370 . S
C1605 C1606 1.403 . S
C1606 C1605 1.403 . S
C1606 C1607 1.404 . S
C1606 C1609 1.539 . S
C1607 C1603 1.408 . S
C1607 C1606 1.404 . S
C1607 H1619 0.930 . S
C1608 C1604 1.524 . S
C1608 H1620 0.956 . S
C1608 H1621 0.961 . S
C1608 H1622 0.961 . S
C1609 C1606 1.539 . S
C1609 H1623 0.958 . S
C1609 H1624 0.961 . S
C1609 H1625 0.960 . S
H1610 C1594 0.931 . S
H1611 C1599 0.929 . S
H1612 C1600 0.960 . S
H1613 C1600 0.962 . S
H1614 C1600 0.960 . S
H1615 C1601 0.961 . S
H1616 C1601 0.961 . S
H1617 C1601 0.961 . S
H1618 C1602 0.931 . S
H1619 C1607 0.930 . S
H1620 C1608 0.956 . S
H1621 C1608 0.961 . S
H1622 C1608 0.961 . S
H1623 C1609 0.958 . S
H1624 C1609 0.961 . S
H1625 C1609 0.960 . S
C1626 C1627 1.391 . S
C1626 C1628 1.394 1_545 S
C1626 H1642 0.931 . S
C1627 C1626 1.391 . S
C1627 C1631 1.376 . S
C1628 C1626 1.394 1_565 S
C1628 C1629 1.369 . S
C1628 C1632 1.531 . S
C1629 C1628 1.369 . S
C1629 C1630 1.410 . S
C1629 C1637 1.503 . S
C1630 C1629 1.410 . S
C1630 C1631 1.392 1_565 S
C1630 C1633 1.511 . S
C1631 C1627 1.376 . S
C1631 C1630 1.392 1_545 S
C1631 H1643 0.929 . S
C1632 C1628 1.531 . S
C1632 H1644 0.960 . S
C1632 H1645 0.962 . S
C1632 H1646 0.960 . S
C1633 C1630 1.511 . S
C1633 H1647 0.961 . S
C1633 H1648 0.961 . S
C1633 H1649 0.961 . S
C1634 C1635 1.370 . S
C1634 C1636 1.363 . S
C1634 H1650 0.931 . S
C1635 C1634 1.370 . S
C1635 C1639 1.408 . S
C1636 C1634 1.363 . S
C1636 C1637 1.370 . S
C1636 C1640 1.524 . S
C1637 C1629 1.503 . S
C1637 C1636 1.370 . S
C1637 C1638 1.403 . S
C1638 C1637 1.403 . S
C1638 C1639 1.404 . S
C1638 C1641 1.539 . S
C1639 C1635 1.408 . S
C1639 C1638 1.404 . S
C1639 H1651 0.930 . S
C1640 C1636 1.524 . S
C1640 H1652 0.956 . S
C1640 H1653 0.961 . S
C1640 H1654 0.961 . S
C1641 C1638 1.539 . S
C1641 H1655 0.958 . S
C1641 H1656 0.961 . S
C1641 H1657 0.960 . S
H1642 C1626 0.931 . S
H1643 C1631 0.929 . S
H1644 C1632 0.960 . S
H1645 C1632 0.962 . S
H1646 C1632 0.960 . S
H1647 C1633 0.961 . S
H1648 C1633 0.961 . S
H1649 C1633 0.961 . S
H1650 C1634 0.931 . S
H1651 C1639 0.930 . S
H1652 C1640 0.956 . S
H1653 C1640 0.961 . S
H1654 C1640 0.961 . S
H1655 C1641 0.958 . S
H1656 C1641 0.961 . S
H1657 C1641 0.960 . S
C1658 C1659 1.391 1_455 S
C1658 C1660 1.394 . S
C1658 H1674 0.931 1_455 S
C1659 C1658 1.391 1_655 S
C1659 C1663 1.376 1_655 S
C1660 C1658 1.394 . S
C1660 C1661 1.369 . S
C1660 C1664 1.531 . S
C1661 C1660 1.369 . S
C1661 C1662 1.410 . S
C1661 C1669 1.503 . S
C1662 C1661 1.410 . S
C1662 C1663 1.392 . S
C1662 C1665 1.511 . S
C1663 C1659 1.376 1_455 S
C1663 C1662 1.392 . S
C1663 H1675 0.929 1_455 S
C1664 C1660 1.531 . S
C1664 H1676 0.960 . S
C1664 H1677 0.962 . S
C1664 H1678 0.960 . S
C1665 C1662 1.511 . S
C1665 H1679 0.961 . S
C1665 H1680 0.961 . S
C1665 H1681 0.961 . S
C1666 C1667 1.370 . S
C1666 C1668 1.363 . S
C1666 H1682 0.931 . S
C1667 C1666 1.370 . S
C1667 C1671 1.408 . S
C1668 C1666 1.363 . S
C1668 C1669 1.370 . S
C1668 C1672 1.524 . S
C1669 C1661 1.503 . S
C1669 C1668 1.370 . S
C1669 C1670 1.403 . S
C1670 C1669 1.403 . S
C1670 C1671 1.404 . S
C1670 C1673 1.539 . S
C1671 C1667 1.408 . S
C1671 C1670 1.404 . S
C1671 H1683 0.930 . S
C1672 C1668 1.524 . S
C1672 H1684 0.956 . S
C1672 H1685 0.961 . S
C1672 H1686 0.961 . S
C1673 C1670 1.539 . S
C1673 H1687 0.958 . S
C1673 H1688 0.961 . S
C1673 H1689 0.960 . S
H1674 C1658 0.931 1_655 S
H1675 C1663 0.929 1_655 S
H1676 C1664 0.960 . S
H1677 C1664 0.962 . S
H1678 C1664 0.960 . S
H1679 C1665 0.961 . S
H1680 C1665 0.961 . S
H1681 C1665 0.961 . S
H1682 C1666 0.931 . S
H1683 C1671 0.930 . S
H1684 C1672 0.956 . S
H1685 C1672 0.961 . S
H1686 C1672 0.961 . S
H1687 C1673 0.958 . S
H1688 C1673 0.961 . S
H1689 C1673 0.960 . S
C1690 C1691 1.391 . S
C1690 C1692 1.394 . S
C1690 H1706 0.931 . S
C1691 C1690 1.391 . S
C1691 C1695 1.376 . S
C1692 C1690 1.394 . S
C1692 C1693 1.369 . S
C1692 C1696 1.531 . S
C1693 C1692 1.369 . S
C1693 C1694 1.410 . S
C1693 C1701 1.503 . S
C1694 C1693 1.410 . S
C1694 C1695 1.392 . S
C1694 C1697 1.511 . S
C1695 C1691 1.376 . S
C1695 C1694 1.392 . S
C1695 H1707 0.929 . S
C1696 C1692 1.531 . S
C1696 H1708 0.960 . S
C1696 H1709 0.962 . S
C1696 H1710 0.960 . S
C1697 C1694 1.511 . S
C1697 H1711 0.961 . S
C1697 H1712 0.961 . S
C1697 H1713 0.961 . S
C1698 C1699 1.370 . S
C1698 C1700 1.363 . S
C1698 H1714 0.931 . S
C1699 C1698 1.370 . S
C1699 C1703 1.408 . S
C1700 C1698 1.363 . S
C1700 C1701 1.370 . S
C1700 C1704 1.524 . S
C1701 C1693 1.503 . S
C1701 C1700 1.370 . S
C1701 C1702 1.403 . S
C1702 C1701 1.403 . S
C1702 C1703 1.404 . S
C1702 C1705 1.539 . S
C1703 C1699 1.408 . S
C1703 C1702 1.404 . S
C1703 H1715 0.930 . S
C1704 C1700 1.524 . S
C1704 H1716 0.956 . S
C1704 H1717 0.961 . S
C1704 H1718 0.961 . S
C1705 C1702 1.539 . S
C1705 H1719 0.958 . S
C1705 H1720 0.961 . S
C1705 H1721 0.960 . S
H1706 C1690 0.931 . S
H1707 C1695 0.929 . S
H1708 C1696 0.960 . S
H1709 C1696 0.962 . S
H1710 C1696 0.960 . S
H1711 C1697 0.961 . S
H1712 C1697 0.961 . S
H1713 C1697 0.961 . S
H1714 C1698 0.931 . S
H1715 C1703 0.930 . S
H1716 C1704 0.956 . S
H1717 C1704 0.961 . S
H1718 C1704 0.961 . S
H1719 C1705 0.958 . S
H1720 C1705 0.961 . S
H1721 C1705 0.960 . S
C1722 C1723 1.391 . S
C1722 C1724 1.394 . S
C1722 H1738 0.931 . S
C1723 C1722 1.391 . S
C1723 C1727 1.376 . S
C1724 C1722 1.394 . S
C1724 C1725 1.369 . S
C1724 C1728 1.531 . S
C1725 C1724 1.369 . S
C1725 C1726 1.410 . S
C1725 C1733 1.503 . S
C1726 C1725 1.410 . S
C1726 C1727 1.392 . S
C1726 C1729 1.511 . S
C1727 C1723 1.376 . S
C1727 C1726 1.392 . S
C1727 H1739 0.929 . S
C1728 C1724 1.531 . S
C1728 H1740 0.960 . S
C1728 H1741 0.962 . S
C1728 H1742 0.960 . S
C1729 C1726 1.511 . S
C1729 H1743 0.961 . S
C1729 H1744 0.961 . S
C1729 H1745 0.961 . S
C1730 C1731 1.370 . S
C1730 C1732 1.363 . S
C1730 H1746 0.931 . S
C1731 C1730 1.370 . S
C1731 C1735 1.408 . S
C1732 C1730 1.363 . S
C1732 C1733 1.370 . S
C1732 C1736 1.524 . S
C1733 C1725 1.503 . S
C1733 C1732 1.370 . S
C1733 C1734 1.403 . S
C1734 C1733 1.403 . S
C1734 C1735 1.404 . S
C1734 C1737 1.539 . S
C1735 C1731 1.408 . S
C1735 C1734 1.404 . S
C1735 H1747 0.930 . S
C1736 C1732 1.524 . S
C1736 H1748 0.956 . S
C1736 H1749 0.961 . S
C1736 H1750 0.961 . S
C1737 C1734 1.539 . S
C1737 H1751 0.958 . S
C1737 H1752 0.961 . S
C1737 H1753 0.960 . S
H1738 C1722 0.931 . S
H1739 C1727 0.929 . S
H1740 C1728 0.960 . S
H1741 C1728 0.962 . S
H1742 C1728 0.960 . S
H1743 C1729 0.961 . S
H1744 C1729 0.961 . S
H1745 C1729 0.961 . S
H1746 C1730 0.931 . S
H1747 C1735 0.930 . S
H1748 C1736 0.956 . S
H1749 C1736 0.961 . S
H1750 C1736 0.961 . S
H1751 C1737 0.958 . S
H1752 C1737 0.961 . S
H1753 C1737 0.960 . S
C1754 C1755 1.391 . S
C1754 C1756 1.394 . S
C1754 H1770 0.931 . S
C1755 C1754 1.391 . S
C1755 C1759 1.376 . S
C1756 C1754 1.394 . S
C1756 C1757 1.369 . S
C1756 C1760 1.531 . S
C1757 C1756 1.369 . S
C1757 C1758 1.410 . S
C1757 C1765 1.503 . S
C1758 C1757 1.410 . S
C1758 C1759 1.392 . S
C1758 C1761 1.511 . S
C1759 C1755 1.376 . S
C1759 C1758 1.392 . S
C1759 H1771 0.929 . S
C1760 C1756 1.531 . S
C1760 H1772 0.960 . S
C1760 H1773 0.962 . S
C1760 H1774 0.960 . S
C1761 C1758 1.511 . S
C1761 H1775 0.961 . S
C1761 H1776 0.961 . S
C1761 H1777 0.961 . S
C1762 C1763 1.370 . S
C1762 C1764 1.363 . S
C1762 H1778 0.931 . S
C1763 C1762 1.370 . S
C1763 C1767 1.408 . S
C1764 C1762 1.363 . S
C1764 C1765 1.370 . S
C1764 C1768 1.524 . S
C1765 C1757 1.503 . S
C1765 C1764 1.370 . S
C1765 C1766 1.403 . S
C1766 C1765 1.403 . S
C1766 C1767 1.404 . S
C1766 C1769 1.539 . S
C1767 C1763 1.408 . S
C1767 C1766 1.404 . S
C1767 H1779 0.930 . S
C1768 C1764 1.524 . S
C1768 H1780 0.956 . S
C1768 H1781 0.961 . S
C1768 H1782 0.961 . S
C1769 C1766 1.539 . S
C1769 H1783 0.958 . S
C1769 H1784 0.961 . S
C1769 H1785 0.960 . S
H1770 C1754 0.931 . S
H1771 C1759 0.929 . S
H1772 C1760 0.960 . S
H1773 C1760 0.962 . S
H1774 C1760 0.960 . S
H1775 C1761 0.961 . S
H1776 C1761 0.961 . S
H1777 C1761 0.961 . S
H1778 C1762 0.931 . S
H1779 C1767 0.930 . S
H1780 C1768 0.956 . S
H1781 C1768 0.961 . S
H1782 C1768 0.961 . S
H1783 C1769 0.958 . S
H1784 C1769 0.961 . S
H1785 C1769 0.960 . S
C1786 C1787 1.391 . S
C1786 C1788 1.394 . S
C1786 H1802 0.931 . S
C1787 C1786 1.391 . S
C1787 C1791 1.376 . S
C1788 C1786 1.394 . S
C1788 C1789 1.369 . S
C1788 C1792 1.531 . S
C1789 C1788 1.369 . S
C1789 C1790 1.410 . S
C1789 C1797 1.503 . S
C1790 C1789 1.410 . S
C1790 C1791 1.392 . S
C1790 C1793 1.511 . S
C1791 C1787 1.376 . S
C1791 C1790 1.392 . S
C1791 H1803 0.929 . S
C1792 C1788 1.531 . S
C1792 H1804 0.960 . S
C1792 H1805 0.962 . S
C1792 H1806 0.960 . S
C1793 C1790 1.511 . S
C1793 H1807 0.961 . S
C1793 H1808 0.961 . S
C1793 H1809 0.961 . S
C1794 C1795 1.370 . S
C1794 C1796 1.363 . S
C1794 H1810 0.931 . S
C1795 C1794 1.370 . S
C1795 C1799 1.408 . S
C1796 C1794 1.363 . S
C1796 C1797 1.370 . S
C1796 C1800 1.524 . S
C1797 C1789 1.503 . S
C1797 C1796 1.370 . S
C1797 C1798 1.403 . S
C1798 C1797 1.403 . S
C1798 C1799 1.404 . S
C1798 C1801 1.539 . S
C1799 C1795 1.408 . S
C1799 C1798 1.404 . S
C1799 H1811 0.930 . S
C1800 C1796 1.524 . S
C1800 H1812 0.956 . S
C1800 H1813 0.961 . S
C1800 H1814 0.961 . S
C1801 C1798 1.539 . S
C1801 H1815 0.958 . S
C1801 H1816 0.961 . S
C1801 H1817 0.960 . S
H1802 C1786 0.931 . S
H1803 C1791 0.929 . S
H1804 C1792 0.960 . S
H1805 C1792 0.962 . S
H1806 C1792 0.960 . S
H1807 C1793 0.961 . S
H1808 C1793 0.961 . S
H1809 C1793 0.961 . S
H1810 C1794 0.931 . S
H1811 C1799 0.930 . S
H1812 C1800 0.956 . S
H1813 C1800 0.961 . S
H1814 C1800 0.961 . S
H1815 C1801 0.958 . S
H1816 C1801 0.961 . S
H1817 C1801 0.960 . S
C1818 C1819 1.391 . S
C1818 C1820 1.394 . S
C1818 H1834 0.931 . S
C1819 C1818 1.391 . S
C1819 C1823 1.376 . S
C1820 C1818 1.394 . S
C1820 C1821 1.369 . S
C1820 C1824 1.531 1_565 S
C1821 C1820 1.369 . S
C1821 C1822 1.410 . S
C1821 C1829 1.503 1_565 S
C1822 C1821 1.410 . S
C1822 C1823 1.392 . S
C1822 C1825 1.511 . S
C1823 C1819 1.376 . S
C1823 C1822 1.392 . S
C1823 H1835 0.929 . S
C1824 C1820 1.531 1_545 S
C1824 H1836 0.960 . S
C1824 H1837 0.962 . S
C1824 H1838 0.960 . S
C1825 C1822 1.511 . S
C1825 H1839 0.961 . S
C1825 H1840 0.961 . S
C1825 H1841 0.961 . S
C1826 C1827 1.370 . S
C1826 C1828 1.363 . S
C1826 H1842 0.931 . S
C1827 C1826 1.370 . S
C1827 C1831 1.408 . S
C1828 C1826 1.363 . S
C1828 C1829 1.370 . S
C1828 C1832 1.524 . S
C1829 C1821 1.503 1_545 S
C1829 C1828 1.370 . S
C1829 C1830 1.403 . S
C1830 C1829 1.403 . S
C1830 C1831 1.404 . S
C1830 C1833 1.539 . S
C1831 C1827 1.408 . S
C1831 C1830 1.404 . S
C1831 H1843 0.930 . S
C1832 C1828 1.524 . S
C1832 H1844 0.956 . S
C1832 H1845 0.961 1_545 S
C1832 H1846 0.961 . S
C1833 C1830 1.539 . S
C1833 H1847 0.958 . S
C1833 H1848 0.961 . S
C1833 H1849 0.960 . S
H1834 C1818 0.931 . S
H1835 C1823 0.929 . S
H1836 C1824 0.960 . S
H1837 C1824 0.962 . S
H1838 C1824 0.960 . S
H1839 C1825 0.961 . S
H1840 C1825 0.961 . S
H1841 C1825 0.961 . S
H1842 C1826 0.931 . S
H1843 C1831 0.930 . S
H1844 C1832 0.956 . S
H1845 C1832 0.961 1_565 S
H1846 C1832 0.961 . S
H1847 C1833 0.958 . S
H1848 C1833 0.961 . S
H1849 C1833 0.960 . S
C1850 C1851 1.391 . S
C1850 C1852 1.394 . S
C1850 H1866 0.931 . S
C1851 C1850 1.391 . S
C1851 C1855 1.376 . S
C1852 C1850 1.394 . S
C1852 C1853 1.369 . S
C1852 C1856 1.531 1_455 S
C1853 C1852 1.369 . S
C1853 C1854 1.410 . S
C1853 C1861 1.503 1_455 S
C1854 C1853 1.410 . S
C1854 C1855 1.392 . S
C1854 C1857 1.511 . S
C1855 C1851 1.376 . S
C1855 C1854 1.392 . S
C1855 H1867 0.929 . S
C1856 C1852 1.531 1_655 S
C1856 H1868 0.960 . S
C1856 H1869 0.962 1_655 S
C1856 H1870 0.963 . S
C1857 C1854 1.511 . S
C1857 H1871 0.961 . S
C1857 H1872 0.961 . S
C1857 H1873 0.961 . S
C1858 C1859 1.370 . S
C1858 C1860 1.363 . S
C1858 H1874 0.931 . S
C1859 C1858 1.370 . S
C1859 C1863 1.408 . S
C1860 C1858 1.363 . S
C1860 C1861 1.370 . S
C1860 C1864 1.524 1_655 S
C1861 C1853 1.503 1_655 S
C1861 C1860 1.370 . S
C1861 C1862 1.403 . S
C1862 C1861 1.403 . S
C1862 C1863 1.404 . S
C1862 C1865 1.539 . S
C1863 C1859 1.408 . S
C1863 C1862 1.404 . S
C1863 H1875 0.930 . S
C1864 C1860 1.524 1_455 S
C1864 H1876 0.956 . S
C1864 H1877 0.961 . S
C1864 H1878 0.961 . S
C1865 C1862 1.539 . S
C1865 H1879 0.958 . S
C1865 H1880 0.961 . S
C1865 H1881 0.960 . S
H1866 C1850 0.931 . S
H1867 C1855 0.929 . S
H1868 C1856 0.960 . S
H1869 C1856 0.962 1_455 S
H1870 C1856 0.963 . S
H1871 C1857 0.961 . S
H1872 C1857 0.961 . S
H1873 C1857 0.961 . S
H1874 C1858 0.931 . S
H1875 C1863 0.930 . S
H1876 C1864 0.956 . S
H1877 C1864 0.961 . S
H1878 C1864 0.961 . S
H1879 C1865 0.958 . S
H1880 C1865 0.961 . S
H1881 C1865 0.960 . S
C1882 C1883 1.391 . S
C1882 C1884 1.394 . S
C1882 H1898 0.931 . S
C1883 C1882 1.391 . S
C1883 C1887 1.376 . S
C1884 C1882 1.394 . S
C1884 C1885 1.369 . S
C1884 C1888 1.531 . S
C1885 C1884 1.369 . S
C1885 C1886 1.410 . S
C1885 C1893 1.503 . S
C1886 C1885 1.410 . S
C1886 C1887 1.392 . S
C1886 C1889 1.511 . S
C1887 C1883 1.376 . S
C1887 C1886 1.392 . S
C1887 H1899 0.929 . S
C1888 C1884 1.531 . S
C1888 H1900 0.960 . S
C1888 H1901 0.962 . S
C1888 H1902 0.960 . S
C1889 C1886 1.511 . S
C1889 H1903 0.961 . S
C1889 H1904 0.961 . S
C1889 H1905 0.961 . S
C1890 C1891 1.370 . S
C1890 C1892 1.363 . S
C1890 H1906 0.931 . S
C1891 C1890 1.370 . S
C1891 C1895 1.408 . S
C1892 C1890 1.363 . S
C1892 C1893 1.370 . S
C1892 C1896 1.524 . S
C1893 C1885 1.503 . S
C1893 C1892 1.370 . S
C1893 C1894 1.403 . S
C1894 C1893 1.403 . S
C1894 C1895 1.404 . S
C1894 C1897 1.539 . S
C1895 C1891 1.408 . S
C1895 C1894 1.404 . S
C1895 H1907 0.930 . S
C1896 C1892 1.524 . S
C1896 H1908 0.956 . S
C1896 H1909 0.961 . S
C1896 H1910 0.961 . S
C1897 C1894 1.539 . S
C1897 H1911 0.958 . S
C1897 H1912 0.961 . S
C1897 H1913 0.960 . S
H1898 C1882 0.931 . S
H1899 C1887 0.929 . S
H1900 C1888 0.960 . S
H1901 C1888 0.962 . S
H1902 C1888 0.960 . S
H1903 C1889 0.961 . S
H1904 C1889 0.961 . S
H1905 C1889 0.961 . S
H1906 C1890 0.931 . S
H1907 C1895 0.930 . S
H1908 C1896 0.956 . S
H1909 C1896 0.961 . S
H1910 C1896 0.961 . S
H1911 C1897 0.958 . S
H1912 C1897 0.961 . S
H1913 C1897 0.960 . S
C1914 C1915 1.391 1_655 S
C1914 C1916 1.394 . S
C1914 H1930 0.931 . S
C1915 C1914 1.391 1_455 S
C1915 C1919 1.376 . S
C1916 C1914 1.394 . S
C1916 C1917 1.369 . S
C1916 C1920 1.531 . S
C1917 C1916 1.369 . S
C1917 C1918 1.410 . S
C1917 C1925 1.503 . S
C1918 C1917 1.410 . S
C1918 C1919 1.392 1_655 S
C1918 C1921 1.511 . S
C1919 C1915 1.376 . S
C1919 C1918 1.392 1_455 S
C1919 H1931 0.929 . S
C1920 C1916 1.531 . S
C1920 H1932 0.960 . S
C1920 H1933 0.962 . S
C1920 H1934 0.960 . S
C1921 C1918 1.511 . S
C1921 H1935 0.961 . S
C1921 H1936 0.961 . S
C1921 H1937 0.961 . S
C1922 C1923 1.370 . S
C1922 C1924 1.363 . S
C1922 H1938 0.931 . S
C1923 C1922 1.370 . S
C1923 C1927 1.408 . S
C1924 C1922 1.363 . S
C1924 C1925 1.370 . S
C1924 C1928 1.524 . S
C1925 C1917 1.503 . S
C1925 C1924 1.370 . S
C1925 C1926 1.403 . S
C1926 C1925 1.403 . S
C1926 C1927 1.404 . S
C1926 C1929 1.539 . S
C1927 C1923 1.408 . S
C1927 C1926 1.404 . S
C1927 H1939 0.930 . S
C1928 C1924 1.524 . S
C1928 H1940 0.956 . S
C1928 H1941 0.961 . S
C1928 H1942 0.961 . S
C1929 C1926 1.539 . S
C1929 H1943 0.958 . S
C1929 H1944 0.961 . S
C1929 H1945 0.960 . S
H1930 C1914 0.931 . S
H1931 C1919 0.929 . S
H1932 C1920 0.960 . S
H1933 C1920 0.962 . S
H1934 C1920 0.960 . S
H1935 C1921 0.961 . S
H1936 C1921 0.961 . S
H1937 C1921 0.961 . S
H1938 C1922 0.931 . S
H1939 C1927 0.930 . S
H1940 C1928 0.956 . S
H1941 C1928 0.961 . S
H1942 C1928 0.961 . S
H1943 C1929 0.958 . S
H1944 C1929 0.961 . S
H1945 C1929 0.960 . S
C1946 C1947 1.391 . S
C1946 C1948 1.394 . S
C1946 H1962 0.931 . S
C1947 C1946 1.391 . S
C1947 C1951 1.376 . S
C1948 C1946 1.394 . S
C1948 C1949 1.369 . S
C1948 C1952 1.531 . S
C1949 C1948 1.369 . S
C1949 C1950 1.410 . S
C1949 C1957 1.503 . S
C1950 C1949 1.410 . S
C1950 C1951 1.392 . S
C1950 C1953 1.511 . S
C1951 C1947 1.376 . S
C1951 C1950 1.392 . S
C1951 H1963 0.929 . S
C1952 C1948 1.531 . S
C1952 H1964 0.960 . S
C1952 H1965 0.962 . S
C1952 H1966 0.960 . S
C1953 C1950 1.511 . S
C1953 H1967 0.961 . S
C1953 H1968 0.961 . S
C1953 H1969 0.961 . S
C1954 C1955 1.370 . S
C1954 C1956 1.363 . S
C1954 H1970 0.931 . S
C1955 C1954 1.370 . S
C1955 C1959 1.408 . S
C1956 C1954 1.363 . S
C1956 C1957 1.370 . S
C1956 C1960 1.524 . S
C1957 C1949 1.503 . S
C1957 C1956 1.370 . S
C1957 C1958 1.403 . S
C1958 C1957 1.403 . S
C1958 C1959 1.404 . S
C1958 C1961 1.539 . S
C1959 C1955 1.408 . S
C1959 C1958 1.404 . S
C1959 H1971 0.930 . S
C1960 C1956 1.524 . S
C1960 H1972 0.956 . S
C1960 H1973 0.961 . S
C1960 H1974 0.961 . S
C1961 C1958 1.539 . S
C1961 H1975 0.958 . S
C1961 H1976 0.961 . S
C1961 H1977 0.960 . S
H1962 C1946 0.931 . S
H1963 C1951 0.929 . S
H1964 C1952 0.960 . S
H1965 C1952 0.962 . S
H1966 C1952 0.960 . S
H1967 C1953 0.961 . S
H1968 C1953 0.961 . S
H1969 C1953 0.961 . S
H1970 C1954 0.931 . S
H1971 C1959 0.930 . S
H1972 C1960 0.956 . S
H1973 C1960 0.961 . S
H1974 C1960 0.961 . S
H1975 C1961 0.958 . S
H1976 C1961 0.961 . S
H1977 C1961 0.960 . S
C1978 C1979 1.391 1_545 S
C1978 C1980 1.394 . S
C1978 H1994 0.931 . S
C1979 C1978 1.391 1_565 S
C1979 C1983 1.376 . S
C1980 C1978 1.394 . S
C1980 C1981 1.369 . S
C1980 C1984 1.531 . S
C1981 C1980 1.369 . S
C1981 C1982 1.410 . S
C1981 C1989 1.503 . S
C1982 C1981 1.410 . S
C1982 C1983 1.392 1_545 S
C1982 C1985 1.511 . S
C1983 C1979 1.376 . S
C1983 C1982 1.392 1_565 S
C1983 H1995 0.929 . S
C1984 C1980 1.531 . S
C1984 H1996 0.960 . S
C1984 H1997 0.962 . S
C1984 H1998 0.960 . S
C1985 C1982 1.511 . S
C1985 H1999 0.961 . S
C1985 H2000 0.961 . S
C1985 H2001 0.961 . S
C1986 C1987 1.370 . S
C1986 C1988 1.363 . S
C1986 H2002 0.931 . S
C1987 C1986 1.370 . S
C1987 C1991 1.408 . S
C1988 C1986 1.363 . S
C1988 C1989 1.370 . S
C1988 C1992 1.524 . S
C1989 C1981 1.503 . S
C1989 C1988 1.370 . S
C1989 C1990 1.403 . S
C1990 C1989 1.403 . S
C1990 C1991 1.404 . S
C1990 C1993 1.539 . S
C1991 C1987 1.408 . S
C1991 C1990 1.404 . S
C1991 H2003 0.930 . S
C1992 C1988 1.524 . S
C1992 H2004 0.956 . S
C1992 H2005 0.961 . S
C1992 H2006 0.961 . S
C1993 C1990 1.539 . S
C1993 H2007 0.958 . S
C1993 H2008 0.961 . S
C1993 H2009 0.960 . S
H1994 C1978 0.931 . S
H1995 C1983 0.929 . S
H1996 C1984 0.960 . S
H1997 C1984 0.962 . S
H1998 C1984 0.960 . S
H1999 C1985 0.961 . S
H2000 C1985 0.961 . S
H2001 C1985 0.961 . S
H2002 C1986 0.931 . S
H2003 C1991 0.930 . S
H2004 C1992 0.956 . S
H2005 C1992 0.961 . S
H2006 C1992 0.961 . S
H2007 C1993 0.958 . S
H2008 C1993 0.961 . S
H2009 C1993 0.960 . S
C2010 C2011 1.391 . S
C2010 C2012 1.394 . S
C2010 H2026 0.931 . S
C2011 C2010 1.391 . S
C2011 C2015 1.376 . S
C2012 C2010 1.394 . S
C2012 C2013 1.369 . S
C2012 C2016 1.531 . S
C2013 C2012 1.369 . S
C2013 C2014 1.410 . S
C2013 C2021 1.503 . S
C2014 C2013 1.410 . S
C2014 C2015 1.392 . S
C2014 C2017 1.511 . S
C2015 C2011 1.376 . S
C2015 C2014 1.392 . S
C2015 H2027 0.929 . S
C2016 C2012 1.531 . S
C2016 H2028 0.960 . S
C2016 H2029 0.962 . S
C2016 H2030 0.960 . S
C2017 C2014 1.511 . S
C2017 H2031 0.961 . S
C2017 H2032 0.961 . S
C2017 H2033 0.961 . S
C2018 C2019 1.370 . S
C2018 C2020 1.363 . S
C2018 H2034 0.931 . S
C2019 C2018 1.370 . S
C2019 C2023 1.408 . S
C2020 C2018 1.363 . S
C2020 C2021 1.370 . S
C2020 C2024 1.524 . S
C2021 C2013 1.503 . S
C2021 C2020 1.370 . S
C2021 C2022 1.403 . S
C2022 C2021 1.403 . S
C2022 C2023 1.404 . S
C2022 C2025 1.539 . S
C2023 C2019 1.408 . S
C2023 C2022 1.404 . S
C2023 H2035 0.930 . S
C2024 C2020 1.524 . S
C2024 H2036 0.956 . S
C2024 H2037 0.961 . S
C2024 H2038 0.961 . S
C2025 C2022 1.539 . S
C2025 H2039 0.958 . S
C2025 H2040 0.961 . S
C2025 H2041 0.960 . S
H2026 C2010 0.931 . S
H2027 C2015 0.929 . S
H2028 C2016 0.960 . S
H2029 C2016 0.962 . S
H2030 C2016 0.960 . S
H2031 C2017 0.961 . S
H2032 C2017 0.961 . S
H2033 C2017 0.961 . S
H2034 C2018 0.931 . S
H2035 C2023 0.930 . S
H2036 C2024 0.956 . S
H2037 C2024 0.961 . S
H2038 C2024 0.961 . S
H2039 C2025 0.958 . S
H2040 C2025 0.961 . S
H2041 C2025 0.960 . S
C2042 C2043 1.391 . S
C2042 C2044 1.394 . S
C2042 H2058 0.931 . S
C2043 C2042 1.391 . S
C2043 C2047 1.376 . S
C2044 C2042 1.394 . S
C2044 C2045 1.369 . S
C2044 C2048 1.531 . S
C2045 C2044 1.369 . S
C2045 C2046 1.410 . S
C2045 C2053 1.503 . S
C2046 C2045 1.410 . S
C2046 C2047 1.392 . S
C2046 C2049 1.511 . S
C2047 C2043 1.376 . S
C2047 C2046 1.392 . S
C2047 H2059 0.929 . S
C2048 C2044 1.531 . S
C2048 H2060 0.960 . S
C2048 H2061 0.962 . S
C2048 H2062 0.960 . S
C2049 C2046 1.511 . S
C2049 H2063 0.961 . S
C2049 H2064 0.961 . S
C2049 H2065 0.961 . S
C2050 C2051 1.370 . S
C2050 C2052 1.363 . S
C2050 H2066 0.931 . S
C2051 C2050 1.370 . S
C2051 C2055 1.408 . S
C2052 C2050 1.363 . S
C2052 C2053 1.370 . S
C2052 C2056 1.524 . S
C2053 C2045 1.503 . S
C2053 C2052 1.370 . S
C2053 C2054 1.403 . S
C2054 C2053 1.403 . S
C2054 C2055 1.404 . S
C2054 C2057 1.539 . S
C2055 C2051 1.408 . S
C2055 C2054 1.404 . S
C2055 H2067 0.930 . S
C2056 C2052 1.524 . S
C2056 H2068 0.956 . S
C2056 H2069 0.961 . S
C2056 H2070 0.961 . S
C2057 C2054 1.539 . S
C2057 H2071 0.958 . S
C2057 H2072 0.961 . S
C2057 H2073 0.960 . S
H2058 C2042 0.931 . S
H2059 C2047 0.929 . S
H2060 C2048 0.960 . S
H2061 C2048 0.962 . S
H2062 C2048 0.960 . S
H2063 C2049 0.961 . S
H2064 C2049 0.961 . S
H2065 C2049 0.961 . S
H2066 C2050 0.931 . S
H2067 C2055 0.930 . S
H2068 C2056 0.956 . S
H2069 C2056 0.961 . S
H2070 C2056 0.961 . S
H2071 C2057 0.958 . S
H2072 C2057 0.961 . S
H2073 C2057 0.960 . S
C2074 C2075 1.391 . S
C2074 C2076 1.394 . S
C2074 H2090 0.931 . S
C2075 C2074 1.391 . S
C2075 C2079 1.376 . S
C2076 C2074 1.394 . S
C2076 C2077 1.369 . S
C2076 C2080 1.531 . S
C2077 C2076 1.369 . S
C2077 C2078 1.410 . S
C2077 C2085 1.503 . S
C2078 C2077 1.410 . S
C2078 C2079 1.392 . S
C2078 C2081 1.511 . S
C2079 C2075 1.376 . S
C2079 C2078 1.392 . S
C2079 H2091 0.929 . S
C2080 C2076 1.531 . S
C2080 H2092 0.960 . S
C2080 H2093 0.962 . S
C2080 H2094 0.960 . S
C2081 C2078 1.511 . S
C2081 H2095 0.961 . S
C2081 H2096 0.961 . S
C2081 H2097 0.961 . S
C2082 C2083 1.370 . S
C2082 C2084 1.363 . S
C2082 H2098 0.931 . S
C2083 C2082 1.370 . S
C2083 C2087 1.408 . S
C2084 C2082 1.363 . S
C2084 C2085 1.370 . S
C2084 C2088 1.524 . S
C2085 C2077 1.503 . S
C2085 C2084 1.370 . S
C2085 C2086 1.403 . S
C2086 C2085 1.403 . S
C2086 C2087 1.404 . S
C2086 C2089 1.539 . S
C2087 C2083 1.408 . S
C2087 C2086 1.404 . S
C2087 H2099 0.930 . S
C2088 C2084 1.524 . S
C2088 H2100 0.956 . S
C2088 H2101 0.961 . S
C2088 H2102 0.961 . S
C2089 C2086 1.539 . S
C2089 H2103 0.958 . S
C2089 H2104 0.961 . S
C2089 H2105 0.960 . S
H2090 C2074 0.931 . S
H2091 C2079 0.929 . S
H2092 C2080 0.960 . S
H2093 C2080 0.962 . S
H2094 C2080 0.960 . S
H2095 C2081 0.961 . S
H2096 C2081 0.961 . S
H2097 C2081 0.961 . S
H2098 C2082 0.931 . S
H2099 C2087 0.930 . S
H2100 C2088 0.956 . S
H2101 C2088 0.961 . S
H2102 C2088 0.961 . S
H2103 C2089 0.958 . S
H2104 C2089 0.961 . S
H2105 C2089 0.960 . S
C2106 C2107 1.391 . S
C2106 C2108 1.394 . S
C2106 H2122 0.931 . S
C2107 C2106 1.391 . S
C2107 C2111 1.376 . S
C2108 C2106 1.394 . S
C2108 C2109 1.369 . S
C2108 C2112 1.531 . S
C2109 C2108 1.369 . S
C2109 C2110 1.410 . S
C2109 C2117 1.503 . S
C2110 C2109 1.410 . S
C2110 C2111 1.392 . S
C2110 C2113 1.511 . S
C2111 C2107 1.376 . S
C2111 C2110 1.392 . S
C2111 H2123 0.929 . S
C2112 C2108 1.531 . S
C2112 H2124 0.960 . S
C2112 H2125 0.962 . S
C2112 H2126 0.960 . S
C2113 C2110 1.511 . S
C2113 H2127 0.961 . S
C2113 H2128 0.961 . S
C2113 H2129 0.961 . S
C2114 C2115 1.370 . S
C2114 C2116 1.363 . S
C2114 H2130 0.931 . S
C2115 C2114 1.370 . S
C2115 C2119 1.408 . S
C2116 C2114 1.363 . S
C2116 C2117 1.370 . S
C2116 C2120 1.524 . S
C2117 C2109 1.503 . S
C2117 C2116 1.370 . S
C2117 C2118 1.403 . S
C2118 C2117 1.403 . S
C2118 C2119 1.404 . S
C2118 C2121 1.539 . S
C2119 C2115 1.408 . S
C2119 C2118 1.404 . S
C2119 H2131 0.930 . S
C2120 C2116 1.524 . S
C2120 H2132 0.956 . S
C2120 H2133 0.961 . S
C2120 H2134 0.961 . S
C2121 C2118 1.539 . S
C2121 H2135 0.958 . S
C2121 H2136 0.961 . S
C2121 H2137 0.960 . S
H2122 C2106 0.931 . S
H2123 C2111 0.929 . S
H2124 C2112 0.960 . S
H2125 C2112 0.962 . S
H2126 C2112 0.960 . S
H2127 C2113 0.961 . S
H2128 C2113 0.961 . S
H2129 C2113 0.961 . S
H2130 C2114 0.931 . S
H2131 C2119 0.930 . S
H2132 C2120 0.956 . S
H2133 C2120 0.961 . S
H2134 C2120 0.961 . S
H2135 C2121 0.958 . S
H2136 C2121 0.961 . S
H2137 C2121 0.960 . S
C2138 C2139 1.391 . S
C2138 C2140 1.394 . S
C2138 H2154 0.931 . S
C2139 C2138 1.391 . S
C2139 C2143 1.376 . S
C2140 C2138 1.394 . S
C2140 C2141 1.369 . S
C2140 C2144 1.531 . S
C2141 C2140 1.369 . S
C2141 C2142 1.410 . S
C2141 C2149 1.503 . S
C2142 C2141 1.410 . S
C2142 C2143 1.392 . S
C2142 C2145 1.511 . S
C2143 C2139 1.376 . S
C2143 C2142 1.392 . S
C2143 H2155 0.929 . S
C2144 C2140 1.531 . S
C2144 H2156 0.960 . S
C2144 H2157 0.962 . S
C2144 H2158 0.960 . S
C2145 C2142 1.511 . S
C2145 H2159 0.961 . S
C2145 H2160 0.961 . S
C2145 H2161 0.961 . S
C2146 C2147 1.370 . S
C2146 C2148 1.363 . S
C2146 H2162 0.931 . S
C2147 C2146 1.370 . S
C2147 C2151 1.408 . S
C2148 C2146 1.363 . S
C2148 C2149 1.370 . S
C2148 C2152 1.524 . S
C2149 C2141 1.503 . S
C2149 C2148 1.370 . S
C2149 C2150 1.403 . S
C2150 C2149 1.403 . S
C2150 C2151 1.404 . S
C2150 C2153 1.539 . S
C2151 C2147 1.408 . S
C2151 C2150 1.404 . S
C2151 H2163 0.930 . S
C2152 C2148 1.524 . S
C2152 H2164 0.956 . S
C2152 H2165 0.961 . S
C2152 H2166 0.961 . S
C2153 C2150 1.539 . S
C2153 H2167 0.958 . S
C2153 H2168 0.973 . S
C2153 H2169 0.960 . S
H2154 C2138 0.931 . S
H2155 C2143 0.929 . S
H2156 C2144 0.960 . S
H2157 C2144 0.962 . S
H2158 C2144 0.960 . S
H2159 C2145 0.961 . S
H2160 C2145 0.961 . S
H2161 C2145 0.961 . S
H2162 C2146 0.931 . S
H2163 C2151 0.930 . S
H2164 C2152 0.956 . S
H2165 C2152 0.961 . S
H2166 C2152 0.961 . S
H2167 C2153 0.958 . S
H2168 C2153 0.973 . S
H2169 C2153 0.960 . S
C2170 C2171 1.391 . S
C2170 C2172 1.394 . S
C2170 H2186 0.931 . S
C2171 C2170 1.391 . S
C2171 C2175 1.376 . S
C2172 C2170 1.394 . S
C2172 C2173 1.369 . S
C2172 C2176 1.531 . S
C2173 C2172 1.369 . S
C2173 C2174 1.410 . S
C2173 C2181 1.503 . S
C2174 C2173 1.410 . S
C2174 C2175 1.392 . S
C2174 C2177 1.511 . S
C2175 C2171 1.376 . S
C2175 C2174 1.392 . S
C2175 H2187 0.929 . S
C2176 C2172 1.531 . S
C2176 H2188 0.960 . S
C2176 H2189 0.962 . S
C2176 H2190 0.960 . S
C2177 C2174 1.511 . S
C2177 H2191 0.961 . S
C2177 H2192 0.961 . S
C2177 H2193 0.961 . S
C2178 C2179 1.370 . S
C2178 C2180 1.363 . S
C2178 H2194 0.931 . S
C2179 C2178 1.370 . S
C2179 C2183 1.408 . S
C2180 C2178 1.363 . S
C2180 C2181 1.370 . S
C2180 C2184 1.524 . S
C2181 C2173 1.503 . S
C2181 C2180 1.370 . S
C2181 C2182 1.403 . S
C2182 C2181 1.403 . S
C2182 C2183 1.404 . S
C2182 C2185 1.539 . S
C2183 C2179 1.408 . S
C2183 C2182 1.404 . S
C2183 H2195 0.930 . S
C2184 C2180 1.524 . S
C2184 H2196 0.956 . S
C2184 H2197 0.961 . S
C2184 H2198 0.961 . S
C2185 C2182 1.539 . S
C2185 H2199 0.958 . S
C2185 H2200 0.961 . S
C2185 H2201 0.960 . S
H2186 C2170 0.931 . S
H2187 C2175 0.929 . S
H2188 C2176 0.960 . S
H2189 C2176 0.962 . S
H2190 C2176 0.960 . S
H2191 C2177 0.961 . S
H2192 C2177 0.961 . S
H2193 C2177 0.961 . S
H2194 C2178 0.931 . S
H2195 C2183 0.930 . S
H2196 C2184 0.956 . S
H2197 C2184 0.961 . S
H2198 C2184 0.961 . S
H2199 C2185 0.958 . S
H2200 C2185 0.961 . S
H2201 C2185 0.960 . S
C2202 C2203 1.391 . S
C2202 C2204 1.394 . S
C2202 H2218 0.931 . S
C2203 C2202 1.391 . S
C2203 C2207 1.376 . S
C2204 C2202 1.394 . S
C2204 C2205 1.369 . S
C2204 C2208 1.531 . S
C2205 C2204 1.369 . S
C2205 C2206 1.410 . S
C2205 C2213 1.503 . S
C2206 C2205 1.410 . S
C2206 C2207 1.392 . S
C2206 C2209 1.511 . S
C2207 C2203 1.376 . S
C2207 C2206 1.392 . S
C2207 H2219 0.929 . S
C2208 C2204 1.531 . S
C2208 H2220 0.960 . S
C2208 H2221 0.962 . S
C2208 H2222 0.960 . S
C2209 C2206 1.511 . S
C2209 H2223 0.961 . S
C2209 H2224 0.961 . S
C2209 H2225 0.961 . S
C2210 C2211 1.370 . S
C2210 C2212 1.363 . S
C2210 H2226 0.931 . S
C2211 C2210 1.370 . S
C2211 C2215 1.408 . S
C2212 C2210 1.363 . S
C2212 C2213 1.370 . S
C2212 C2216 1.524 . S
C2213 C2205 1.503 . S
C2213 C2212 1.370 . S
C2213 C2214 1.403 . S
C2214 C2213 1.403 . S
C2214 C2215 1.404 . S
C2214 C2217 1.539 . S
C2215 C2211 1.408 . S
C2215 C2214 1.404 . S
C2215 H2227 0.930 . S
C2216 C2212 1.524 . S
C2216 H2228 0.956 . S
C2216 H2229 0.961 . S
C2216 H2230 0.961 . S
C2217 C2214 1.539 . S
C2217 H2231 0.958 . S
C2217 H2232 0.961 . S
C2217 H2233 0.960 . S
H2218 C2202 0.931 . S
H2219 C2207 0.929 . S
H2220 C2208 0.960 . S
H2221 C2208 0.962 . S
H2222 C2208 0.960 . S
H2223 C2209 0.961 . S
H2224 C2209 0.961 . S
H2225 C2209 0.961 . S
H2226 C2210 0.931 . S
H2227 C2215 0.930 . S
H2228 C2216 0.956 . S
H2229 C2216 0.961 . S
H2230 C2216 0.961 . S
H2231 C2217 0.958 . S
H2232 C2217 0.961 . S
H2233 C2217 0.960 . S
C2234 C2235 1.391 . S
C2234 C2236 1.394 . S
C2234 H2250 0.931 . S
C2235 C2234 1.391 . S
C2235 C2239 1.376 . S
C2236 C2234 1.394 . S
C2236 C2237 1.369 . S
C2236 C2240 1.531 . S
C2237 C2236 1.369 . S
C2237 C2238 1.410 . S
C2237 C2245 1.503 . S
C2238 C2237 1.410 . S
C2238 C2239 1.392 . S
C2238 C2241 1.511 . S
C2239 C2235 1.376 . S
C2239 C2238 1.392 . S
C2239 H2251 0.929 . S
C2240 C2236 1.531 . S
C2240 H2252 0.960 . S
C2240 H2253 0.962 . S
C2240 H2254 0.960 . S
C2241 C2238 1.511 . S
C2241 H2255 0.961 . S
C2241 H2256 0.961 . S
C2241 H2257 0.961 . S
C2242 C2243 1.370 . S
C2242 C2244 1.363 . S
C2242 H2258 0.931 . S
C2243 C2242 1.370 . S
C2243 C2247 1.408 . S
C2244 C2242 1.363 . S
C2244 C2245 1.370 . S
C2244 C2248 1.524 . S
C2245 C2237 1.503 . S
C2245 C2244 1.370 . S
C2245 C2246 1.403 . S
C2246 C2245 1.403 . S
C2246 C2247 1.404 . S
C2246 C2249 1.539 . S
C2247 C2243 1.408 . S
C2247 C2246 1.404 . S
C2247 H2259 0.930 . S
C2248 C2244 1.524 . S
C2248 H2260 0.956 . S
C2248 H2261 0.961 . S
C2248 H2262 0.961 . S
C2249 C2246 1.539 . S
C2249 H2263 0.958 . S
C2249 H2264 0.961 . S
C2249 H2265 0.960 . S
H2250 C2234 0.931 . S
H2251 C2239 0.929 . S
H2252 C2240 0.960 . S
H2253 C2240 0.962 . S
H2254 C2240 0.960 . S
H2255 C2241 0.961 . S
H2256 C2241 0.961 . S
H2257 C2241 0.961 . S
H2258 C2242 0.931 . S
H2259 C2247 0.930 . S
H2260 C2248 0.956 . S
H2261 C2248 0.961 . S
H2262 C2248 0.961 . S
H2263 C2249 0.958 . S
H2264 C2249 0.961 . S
H2265 C2249 0.960 . S
C2266 C2267 1.391 . S
C2266 C2268 1.394 . S
C2266 H2282 0.931 . S
C2267 C2266 1.391 . S
C2267 C2271 1.376 . S
C2268 C2266 1.394 . S
C2268 C2269 1.369 . S
C2268 C2272 1.531 . S
C2269 C2268 1.369 . S
C2269 C2270 1.410 . S
C2269 C2277 1.503 . S
C2270 C2269 1.410 . S
C2270 C2271 1.392 . S
C2270 C2273 1.511 . S
C2271 C2267 1.376 . S
C2271 C2270 1.392 . S
C2271 H2283 0.929 . S
C2272 C2268 1.531 . S
C2272 H2284 0.960 . S
C2272 H2285 0.962 . S
C2272 H2286 0.960 . S
C2273 C2270 1.511 . S
C2273 H2287 0.961 . S
C2273 H2288 0.961 . S
C2273 H2289 0.961 . S
C2274 C2275 1.370 . S
C2274 C2276 1.363 . S
C2274 H2290 0.931 . S
C2275 C2274 1.370 . S
C2275 C2279 1.408 . S
C2276 C2274 1.363 . S
C2276 C2277 1.370 . S
C2276 C2280 1.524 . S
C2277 C2269 1.503 . S
C2277 C2276 1.370 . S
C2277 C2278 1.403 . S
C2278 C2277 1.403 . S
C2278 C2279 1.404 . S
C2278 C2281 1.539 . S
C2279 C2275 1.408 . S
C2279 C2278 1.404 . S
C2279 H2291 0.930 . S
C2280 C2276 1.524 . S
C2280 H2292 0.956 . S
C2280 H2293 0.961 . S
C2280 H2294 0.961 . S
C2281 C2278 1.539 . S
C2281 H2295 0.958 . S
C2281 H2296 0.961 . S
C2281 H2297 0.960 . S
H2282 C2266 0.931 . S
H2283 C2271 0.929 . S
H2284 C2272 0.960 . S
H2285 C2272 0.962 . S
H2286 C2272 0.960 . S
H2287 C2273 0.961 . S
H2288 C2273 0.961 . S
H2289 C2273 0.961 . S
H2290 C2274 0.931 . S
H2291 C2279 0.930 . S
H2292 C2280 0.956 . S
H2293 C2280 0.961 . S
H2294 C2280 0.961 . S
H2295 C2281 0.958 . S
H2296 C2281 0.961 . S
H2297 C2281 0.960 . S
C2298 C2299 1.391 . S
C2298 C2300 1.394 . S
C2298 H2314 0.931 . S
C2299 C2298 1.391 . S
C2299 C2303 1.376 . S
C2300 C2298 1.394 . S
C2300 C2301 1.369 . S
C2300 C2304 1.531 . S
C2301 C2300 1.369 . S
C2301 C2302 1.410 . S
C2301 C2309 1.503 . S
C2302 C2301 1.410 . S
C2302 C2303 1.392 . S
C2302 C2305 1.511 . S
C2303 C2299 1.376 . S
C2303 C2302 1.392 . S
C2303 H2315 0.929 . S
C2304 C2300 1.531 . S
C2304 H2316 0.960 . S
C2304 H2317 0.962 . S
C2304 H2318 0.960 . S
C2305 C2302 1.511 . S
C2305 H2319 0.961 . S
C2305 H2320 0.961 . S
C2305 H2321 0.961 . S
C2306 C2307 1.370 . S
C2306 C2308 1.363 . S
C2306 H2322 0.931 . S
C2307 C2306 1.370 . S
C2307 C2311 1.408 . S
C2308 C2306 1.363 . S
C2308 C2309 1.370 . S
C2308 C2312 1.524 . S
C2309 C2301 1.503 . S
C2309 C2308 1.370 . S
C2309 C2310 1.403 . S
C2310 C2309 1.403 . S
C2310 C2311 1.404 . S
C2310 C2313 1.539 . S
C2311 C2307 1.408 . S
C2311 C2310 1.404 . S
C2311 H2323 0.930 . S
C2312 C2308 1.524 . S
C2312 H2324 0.956 . S
C2312 H2325 0.961 . S
C2312 H2326 0.961 . S
C2313 C2310 1.539 . S
C2313 H2327 0.958 . S
C2313 H2328 0.961 . S
C2313 H2329 0.960 . S
H2314 C2298 0.931 . S
H2315 C2303 0.929 . S
H2316 C2304 0.960 . S
H2317 C2304 0.962 . S
H2318 C2304 0.960 . S
H2319 C2305 0.961 . S
H2320 C2305 0.961 . S
H2321 C2305 0.961 . S
H2322 C2306 0.931 . S
H2323 C2311 0.930 . S
H2324 C2312 0.956 . S
H2325 C2312 0.961 . S
H2326 C2312 0.961 . S
H2327 C2313 0.958 . S
H2328 C2313 0.961 . S
H2329 C2313 0.960 . S
C2330 C2331 1.391 . S
C2330 C2332 1.394 . S
C2330 H2346 0.931 . S
C2331 C2330 1.391 . S
C2331 C2335 1.376 . S
C2332 C2330 1.394 . S
C2332 C2333 1.369 . S
C2332 C2336 1.531 . S
C2333 C2332 1.369 . S
C2333 C2334 1.410 . S
C2333 C2341 1.503 . S
C2334 C2333 1.410 . S
C2334 C2335 1.392 . S
C2334 C2337 1.511 . S
C2335 C2331 1.376 . S
C2335 C2334 1.392 . S
C2335 H2347 0.929 . S
C2336 C2332 1.531 . S
C2336 H2348 0.960 . S
C2336 H2349 0.962 . S
C2336 H2350 0.960 . S
C2337 C2334 1.511 . S
C2337 H2351 0.961 . S
C2337 H2352 0.961 . S
C2337 H2353 0.961 . S
C2338 C2339 1.370 . S
C2338 C2340 1.363 . S
C2338 H2354 0.931 . S
C2339 C2338 1.370 . S
C2339 C2343 1.408 . S
C2340 C2338 1.363 . S
C2340 C2341 1.370 . S
C2340 C2344 1.524 . S
C2341 C2333 1.503 . S
C2341 C2340 1.370 . S
C2341 C2342 1.403 . S
C2342 C2341 1.403 . S
C2342 C2343 1.404 . S
C2342 C2345 1.539 . S
C2343 C2339 1.408 . S
C2343 C2342 1.404 . S
C2343 H2355 0.930 . S
C2344 C2340 1.524 . S
C2344 H2356 0.956 . S
C2344 H2357 0.961 . S
C2344 H2358 0.961 . S
C2345 C2342 1.539 . S
C2345 H2359 0.958 . S
C2345 H2360 0.961 . S
C2345 H2361 0.960 . S
H2346 C2330 0.931 . S
H2347 C2335 0.929 . S
H2348 C2336 0.960 . S
H2349 C2336 0.962 . S
H2350 C2336 0.960 . S
H2351 C2337 0.961 . S
H2352 C2337 0.961 . S
H2353 C2337 0.961 . S
H2354 C2338 0.931 . S
H2355 C2343 0.930 . S
H2356 C2344 0.956 . S
H2357 C2344 0.961 . S
H2358 C2344 0.961 . S
H2359 C2345 0.958 . S
H2360 C2345 0.961 . S
H2361 C2345 0.960 . S
C2362 C2363 1.391 . S
C2362 C2364 1.394 . S
C2362 H2378 0.931 . S
C2363 C2362 1.391 . S
C2363 C2367 1.376 . S
C2364 C2362 1.394 . S
C2364 C2365 1.369 . S
C2364 C2368 1.531 . S
C2365 C2364 1.369 . S
C2365 C2366 1.410 . S
C2365 C2373 1.503 . S
C2366 C2365 1.410 . S
C2366 C2367 1.392 . S
C2366 C2369 1.511 . S
C2367 C2363 1.376 . S
C2367 C2366 1.392 . S
C2367 H2379 0.929 . S
C2368 C2364 1.531 . S
C2368 H2380 0.960 . S
C2368 H2381 0.962 . S
C2368 H2382 0.960 . S
C2369 C2366 1.511 . S
C2369 H2383 0.961 . S
C2369 H2384 0.961 . S
C2369 H2385 0.961 . S
C2370 C2371 1.370 . S
C2370 C2372 1.363 . S
C2370 H2386 0.931 . S
C2371 C2370 1.370 . S
C2371 C2375 1.408 . S
C2372 C2370 1.363 . S
C2372 C2373 1.370 . S
C2372 C2376 1.524 . S
C2373 C2365 1.503 . S
C2373 C2372 1.370 . S
C2373 C2374 1.403 . S
C2374 C2373 1.403 . S
C2374 C2375 1.404 . S
C2374 C2377 1.539 . S
C2375 C2371 1.408 . S
C2375 C2374 1.404 . S
C2375 H2387 0.930 . S
C2376 C2372 1.524 . S
C2376 H2388 0.956 . S
C2376 H2389 0.961 . S
C2376 H2390 0.961 . S
C2377 C2374 1.539 . S
C2377 H2391 0.958 . S
C2377 H2392 0.961 . S
C2377 H2393 0.960 . S
H2378 C2362 0.931 . S
H2379 C2367 0.929 . S
H2380 C2368 0.960 . S
H2381 C2368 0.962 . S
H2382 C2368 0.960 . S
H2383 C2369 0.961 . S
H2384 C2369 0.961 . S
H2385 C2369 0.961 . S
H2386 C2370 0.931 . S
H2387 C2375 0.930 . S
H2388 C2376 0.956 . S
H2389 C2376 0.961 . S
H2390 C2376 0.961 . S
H2391 C2377 0.958 . S
H2392 C2377 0.961 . S
H2393 C2377 0.960 . S
C2394 C2395 1.391 . S
C2394 C2396 1.394 . S
C2394 H2410 0.931 . S
C2395 C2394 1.391 . S
C2395 C2399 1.376 . S
C2396 C2394 1.394 . S
C2396 C2397 1.369 . S
C2396 C2400 1.531 . S
C2397 C2396 1.369 . S
C2397 C2398 1.410 . S
C2397 C2405 1.503 . S
C2398 C2397 1.410 . S
C2398 C2399 1.392 . S
C2398 C2401 1.511 . S
C2399 C2395 1.376 . S
C2399 C2398 1.392 . S
C2399 H2411 0.929 . S
C2400 C2396 1.531 . S
C2400 H2412 0.960 . S
C2400 H2413 0.962 . S
C2400 H2414 0.960 . S
C2401 C2398 1.511 . S
C2401 H2415 0.961 . S
C2401 H2416 0.961 . S
C2401 H2417 0.961 . S
C2402 C2403 1.370 . S
C2402 C2404 1.363 . S
C2402 H2418 0.931 . S
C2403 C2402 1.370 . S
C2403 C2407 1.408 . S
C2404 C2402 1.363 . S
C2404 C2405 1.370 . S
C2404 C2408 1.524 . S
C2405 C2397 1.503 . S
C2405 C2404 1.370 . S
C2405 C2406 1.403 . S
C2406 C2405 1.403 . S
C2406 C2407 1.404 . S
C2406 C2409 1.539 . S
C2407 C2403 1.408 . S
C2407 C2406 1.404 . S
C2407 H2419 0.930 . S
C2408 C2404 1.524 . S
C2408 H2420 0.956 . S
C2408 H2421 0.961 . S
C2408 H2422 0.961 . S
C2409 C2406 1.539 . S
C2409 H2423 0.958 . S
C2409 H2424 0.961 . S
C2409 H2425 0.960 . S
H2410 C2394 0.931 . S
H2411 C2399 0.929 . S
H2412 C2400 0.960 . S
H2413 C2400 0.962 . S
H2414 C2400 0.960 . S
H2415 C2401 0.961 . S
H2416 C2401 0.961 . S
H2417 C2401 0.961 . S
H2418 C2402 0.931 . S
H2419 C2407 0.930 . S
H2420 C2408 0.956 . S
H2421 C2408 0.961 . S
H2422 C2408 0.961 . S
H2423 C2409 0.958 . S
H2424 C2409 0.961 . S
H2425 C2409 0.960 . S
C2426 C2427 1.391 . S
C2426 C2428 1.394 . S
C2426 H2442 0.931 . S
C2427 C2426 1.391 . S
C2427 C2431 1.376 . S
C2428 C2426 1.394 . S
C2428 C2429 1.369 . S
C2428 C2432 1.531 . S
C2429 C2428 1.369 . S
C2429 C2430 1.410 . S
C2429 C2437 1.503 . S
C2430 C2429 1.410 . S
C2430 C2431 1.392 . S
C2430 C2433 1.511 . S
C2431 C2427 1.376 . S
C2431 C2430 1.392 . S
C2431 H2443 0.929 . S
C2432 C2428 1.531 . S
C2432 H2444 0.960 . S
C2432 H2445 0.962 . S
C2432 H2446 0.960 . S
C2433 C2430 1.511 . S
C2433 H2447 0.961 . S
C2433 H2448 0.961 . S
C2433 H2449 0.961 . S
C2434 C2435 1.370 . S
C2434 C2436 1.363 . S
C2434 H2450 0.931 . S
C2435 C2434 1.370 . S
C2435 C2439 1.408 . S
C2436 C2434 1.363 . S
C2436 C2437 1.370 . S
C2436 C2440 1.524 . S
C2437 C2429 1.503 . S
C2437 C2436 1.370 . S
C2437 C2438 1.403 . S
C2438 C2437 1.403 . S
C2438 C2439 1.404 . S
C2438 C2441 1.539 . S
C2439 C2435 1.408 . S
C2439 C2438 1.404 . S
C2439 H2451 0.930 . S
C2440 C2436 1.524 . S
C2440 H2452 0.956 . S
C2440 H2453 0.961 . S
C2440 H2454 0.961 . S
C2441 C2438 1.539 . S
C2441 H2455 0.958 . S
C2441 H2456 0.961 . S
C2441 H2457 0.960 . S
H2442 C2426 0.931 . S
H2443 C2431 0.929 . S
H2444 C2432 0.960 . S
H2445 C2432 0.962 . S
H2446 C2432 0.960 . S
H2447 C2433 0.961 . S
H2448 C2433 0.961 . S
H2449 C2433 0.961 . S
H2450 C2434 0.931 . S
H2451 C2439 0.930 . S
H2452 C2440 0.956 . S
H2453 C2440 0.961 . S
H2454 C2440 0.961 . S
H2455 C2441 0.958 . S
H2456 C2441 0.961 . S
H2457 C2441 0.960 . S
C2458 C2459 1.391 . S
C2458 C2460 1.394 . S
C2458 H2474 0.931 . S
C2459 C2458 1.391 . S
C2459 C2463 1.376 . S
C2460 C2458 1.394 . S
C2460 C2461 1.369 . S
C2460 C2464 1.531 . S
C2461 C2460 1.369 . S
C2461 C2462 1.410 . S
C2461 C2469 1.503 . S
C2462 C2461 1.410 . S
C2462 C2463 1.392 . S
C2462 C2465 1.511 . S
C2463 C2459 1.376 . S
C2463 C2462 1.392 . S
C2463 H2475 0.929 . S
C2464 C2460 1.531 . S
C2464 H2476 0.960 . S
C2464 H2477 0.962 . S
C2464 H2478 0.960 . S
C2465 C2462 1.511 . S
C2465 H2479 0.961 . S
C2465 H2480 0.961 . S
C2465 H2481 0.961 . S
C2466 C2467 1.370 . S
C2466 C2468 1.363 . S
C2466 H2482 0.931 . S
C2467 C2466 1.370 . S
C2467 C2471 1.408 . S
C2468 C2466 1.363 . S
C2468 C2469 1.370 . S
C2468 C2472 1.524 . S
C2469 C2461 1.503 . S
C2469 C2468 1.370 . S
C2469 C2470 1.403 . S
C2470 C2469 1.403 . S
C2470 C2471 1.404 . S
C2470 C2473 1.539 . S
C2471 C2467 1.408 . S
C2471 C2470 1.404 . S
C2471 H2483 0.930 . S
C2472 C2468 1.524 . S
C2472 H2484 0.956 . S
C2472 H2485 0.961 . S
C2472 H2486 0.961 . S
C2473 C2470 1.539 . S
C2473 H2487 0.958 . S
C2473 H2488 0.961 . S
C2473 H2489 0.960 . S
H2474 C2458 0.931 . S
H2475 C2463 0.929 . S
H2476 C2464 0.960 . S
H2477 C2464 0.962 . S
H2478 C2464 0.960 . S
H2479 C2465 0.961 . S
H2480 C2465 0.961 . S
H2481 C2465 0.961 . S
H2482 C2466 0.931 . S
H2483 C2471 0.930 . S
H2484 C2472 0.956 . S
H2485 C2472 0.961 . S
H2486 C2472 0.961 . S
H2487 C2473 0.958 . S
H2488 C2473 0.961 . S
H2489 C2473 0.960 . S
C2490 C2491 1.391 . S
C2490 C2492 1.394 . S
C2490 H2506 0.931 . S
C2491 C2490 1.391 . S
C2491 C2495 1.376 . S
C2492 C2490 1.394 . S
C2492 C2493 1.369 . S
C2492 C2496 1.531 . S
C2493 C2492 1.369 . S
C2493 C2494 1.410 . S
C2493 C2501 1.503 . S
C2494 C2493 1.410 . S
C2494 C2495 1.392 . S
C2494 C2497 1.511 . S
C2495 C2491 1.376 . S
C2495 C2494 1.392 . S
C2495 H2507 0.929 . S
C2496 C2492 1.531 . S
C2496 H2508 0.960 . S
C2496 H2509 0.962 . S
C2496 H2510 0.960 . S
C2497 C2494 1.511 . S
C2497 H2511 0.961 . S
C2497 H2512 0.961 . S
C2497 H2513 0.961 . S
C2498 C2499 1.370 . S
C2498 C2500 1.363 . S
C2498 H2514 0.931 . S
C2499 C2498 1.370 . S
C2499 C2503 1.408 . S
C2500 C2498 1.363 . S
C2500 C2501 1.370 . S
C2500 C2504 1.524 . S
C2501 C2493 1.503 . S
C2501 C2500 1.370 . S
C2501 C2502 1.403 . S
C2502 C2501 1.403 . S
C2502 C2503 1.404 . S
C2502 C2505 1.539 . S
C2503 C2499 1.408 . S
C2503 C2502 1.404 . S
C2503 H2515 0.930 . S
C2504 C2500 1.524 . S
C2504 H2516 0.956 . S
C2504 H2517 0.961 . S
C2504 H2518 0.961 . S
C2505 C2502 1.539 . S
C2505 H2519 0.958 . S
C2505 H2520 0.961 . S
C2505 H2521 0.960 . S
H2506 C2490 0.931 . S
H2507 C2495 0.929 . S
H2508 C2496 0.960 . S
H2509 C2496 0.962 . S
H2510 C2496 0.960 . S
H2511 C2497 0.961 . S
H2512 C2497 0.961 . S
H2513 C2497 0.961 . S
H2514 C2498 0.931 . S
H2515 C2503 0.930 . S
H2516 C2504 0.956 . S
H2517 C2504 0.961 . S
H2518 C2504 0.961 . S
H2519 C2505 0.958 . S
H2520 C2505 0.961 . S
H2521 C2505 0.960 . S
C2522 C2523 1.391 . S
C2522 C2524 1.394 . S
C2522 H2538 0.931 . S
C2523 C2522 1.391 . S
C2523 C2527 1.376 . S
C2524 C2522 1.394 . S
C2524 C2525 1.369 . S
C2524 C2528 1.531 . S
C2525 C2524 1.369 . S
C2525 C2526 1.410 . S
C2525 C2533 1.503 . S
C2526 C2525 1.410 . S
C2526 C2527 1.392 . S
C2526 C2529 1.511 . S
C2527 C2523 1.376 . S
C2527 C2526 1.392 . S
C2527 H2539 0.929 . S
C2528 C2524 1.531 . S
C2528 H2540 0.960 . S
C2528 H2541 0.962 . S
C2528 H2542 0.960 . S
C2529 C2526 1.511 . S
C2529 H2543 0.961 . S
C2529 H2544 0.961 . S
C2529 H2545 0.961 . S
C2530 C2531 1.370 . S
C2530 C2532 1.363 . S
C2530 H2546 0.931 . S
C2531 C2530 1.370 . S
C2531 C2535 1.408 . S
C2532 C2530 1.363 . S
C2532 C2533 1.370 . S
C2532 C2536 1.524 . S
C2533 C2525 1.503 . S
C2533 C2532 1.370 . S
C2533 C2534 1.403 . S
C2534 C2533 1.403 . S
C2534 C2535 1.404 . S
C2534 C2537 1.539 . S
C2535 C2531 1.408 . S
C2535 C2534 1.404 . S
C2535 H2547 0.930 . S
C2536 C2532 1.524 . S
C2536 H2548 0.956 . S
C2536 H2549 0.961 . S
C2536 H2550 0.961 . S
C2537 C2534 1.539 . S
C2537 H2551 0.958 . S
C2537 H2552 0.961 . S
C2537 H2553 0.960 . S
H2538 C2522 0.931 . S
H2539 C2527 0.929 . S
H2540 C2528 0.960 . S
H2541 C2528 0.962 . S
H2542 C2528 0.960 . S
H2543 C2529 0.961 . S
H2544 C2529 0.961 . S
H2545 C2529 0.961 . S
H2546 C2530 0.931 . S
H2547 C2535 0.930 . S
H2548 C2536 0.956 . S
H2549 C2536 0.961 . S
H2550 C2536 0.961 . S
H2551 C2537 0.958 . S
H2552 C2537 0.961 . S
H2553 C2537 0.960 . S
C2554 C2555 1.391 . S
C2554 C2556 1.394 . S
C2554 H2570 0.931 . S
C2555 C2554 1.391 . S
C2555 C2559 1.376 . S
C2556 C2554 1.394 . S
C2556 C2557 1.369 . S
C2556 C2560 1.531 . S
C2557 C2556 1.369 . S
C2557 C2558 1.410 . S
C2557 C2565 1.503 . S
C2558 C2557 1.410 . S
C2558 C2559 1.392 . S
C2558 C2561 1.511 . S
C2559 C2555 1.376 . S
C2559 C2558 1.392 . S
C2559 H2571 0.929 . S
C2560 C2556 1.531 . S
C2560 H2572 0.960 . S
C2560 H2573 0.962 . S
C2560 H2574 0.960 . S
C2561 C2558 1.511 . S
C2561 H2575 0.961 . S
C2561 H2576 0.961 . S
C2561 H2577 0.961 . S
C2562 C2563 1.370 . S
C2562 C2564 1.363 . S
C2562 H2578 0.931 . S
C2563 C2562 1.370 . S
C2563 C2567 1.408 . S
C2564 C2562 1.363 . S
C2564 C2565 1.370 . S
C2564 C2568 1.524 . S
C2565 C2557 1.503 . S
C2565 C2564 1.370 . S
C2565 C2566 1.403 . S
C2566 C2565 1.403 . S
C2566 C2567 1.404 . S
C2566 C2569 1.539 . S
C2567 C2563 1.408 . S
C2567 C2566 1.404 . S
C2567 H2579 0.930 . S
C2568 C2564 1.524 . S
C2568 H2580 0.956 . S
C2568 H2581 0.961 . S
C2568 H2582 0.961 . S
C2569 C2566 1.539 . S
C2569 H2583 0.958 . S
C2569 H2584 0.961 . S
C2569 H2585 0.960 . S
H2570 C2554 0.931 . S
H2571 C2559 0.929 . S
H2572 C2560 0.960 . S
H2573 C2560 0.962 . S
H2574 C2560 0.960 . S
H2575 C2561 0.961 . S
H2576 C2561 0.961 . S
H2577 C2561 0.961 . S
H2578 C2562 0.931 . S
H2579 C2567 0.930 . S
H2580 C2568 0.956 . S
H2581 C2568 0.961 . S
H2582 C2568 0.961 . S
H2583 C2569 0.958 . S
H2584 C2569 0.961 . S
H2585 C2569 0.960 . S
C2586 C2587 1.391 . S
C2586 C2588 1.394 . S
C2586 H2602 0.931 . S
C2587 C2586 1.391 . S
C2587 C2591 1.376 . S
C2588 C2586 1.394 . S
C2588 C2589 1.369 . S
C2588 C2592 1.531 . S
C2589 C2588 1.369 . S
C2589 C2590 1.410 . S
C2589 C2597 1.503 . S
C2590 C2589 1.410 . S
C2590 C2591 1.392 . S
C2590 C2593 1.511 . S
C2591 C2587 1.376 . S
C2591 C2590 1.392 . S
C2591 H2603 0.929 . S
C2592 C2588 1.531 . S
C2592 H2604 0.960 . S
C2592 H2605 0.962 . S
C2592 H2606 0.960 . S
C2593 C2590 1.511 . S
C2593 H2607 0.961 . S
C2593 H2608 0.961 . S
C2593 H2609 0.961 . S
C2594 C2595 1.370 . S
C2594 C2596 1.363 . S
C2594 H2610 0.931 . S
C2595 C2594 1.370 . S
C2595 C2599 1.408 . S
C2596 C2594 1.363 . S
C2596 C2597 1.370 . S
C2596 C2600 1.524 . S
C2597 C2589 1.503 . S
C2597 C2596 1.370 . S
C2597 C2598 1.403 . S
C2598 C2597 1.403 . S
C2598 C2599 1.404 . S
C2598 C2601 1.539 . S
C2599 C2595 1.408 . S
C2599 C2598 1.404 . S
C2599 H2611 0.930 . S
C2600 C2596 1.524 . S
C2600 H2612 0.956 . S
C2600 H2613 0.961 . S
C2600 H2614 0.961 . S
C2601 C2598 1.539 . S
C2601 H2615 0.958 . S
C2601 H2616 0.961 . S
C2601 H2617 0.960 . S
H2602 C2586 0.931 . S
H2603 C2591 0.929 . S
H2604 C2592 0.960 . S
H2605 C2592 0.962 . S
H2606 C2592 0.960 . S
H2607 C2593 0.961 . S
H2608 C2593 0.961 . S
H2609 C2593 0.961 . S
H2610 C2594 0.931 . S
H2611 C2599 0.930 . S
H2612 C2600 0.956 . S
H2613 C2600 0.961 . S
H2614 C2600 0.961 . S
H2615 C2601 0.958 . S
H2616 C2601 0.961 . S
H2617 C2601 0.960 . S
C2618 C2619 1.391 . S
C2618 C2620 1.394 . S
C2618 H2634 0.931 . S
C2619 C2618 1.391 . S
C2619 C2623 1.376 . S
C2620 C2618 1.394 . S
C2620 C2621 1.369 . S
C2620 C2624 1.531 . S
C2621 C2620 1.369 . S
C2621 C2622 1.410 . S
C2621 C2629 1.503 . S
C2622 C2621 1.410 . S
C2622 C2623 1.392 . S
C2622 C2625 1.511 . S
C2623 C2619 1.376 . S
C2623 C2622 1.392 . S
C2623 H2635 0.929 . S
C2624 C2620 1.531 . S
C2624 H2636 0.960 . S
C2624 H2637 0.962 . S
C2624 H2638 0.960 . S
C2625 C2622 1.511 . S
C2625 H2639 0.961 . S
C2625 H2640 0.961 . S
C2625 H2641 0.961 . S
C2626 C2627 1.370 . S
C2626 C2628 1.363 . S
C2626 H2642 0.931 . S
C2627 C2626 1.370 . S
C2627 C2631 1.408 . S
C2628 C2626 1.363 . S
C2628 C2629 1.370 . S
C2628 C2632 1.524 . S
C2629 C2621 1.503 . S
C2629 C2628 1.370 . S
C2629 C2630 1.403 . S
C2630 C2629 1.403 . S
C2630 C2631 1.404 . S
C2630 C2633 1.539 . S
C2631 C2627 1.408 . S
C2631 C2630 1.404 . S
C2631 H2643 0.930 . S
C2632 C2628 1.524 . S
C2632 H2644 0.956 . S
C2632 H2645 0.961 . S
C2632 H2646 0.961 . S
C2633 C2630 1.539 . S
C2633 H2647 0.958 . S
C2633 H2648 0.961 . S
C2633 H2649 0.960 . S
H2634 C2618 0.931 . S
H2635 C2623 0.929 . S
H2636 C2624 0.960 . S
H2637 C2624 0.962 . S
H2638 C2624 0.960 . S
H2639 C2625 0.961 . S
H2640 C2625 0.961 . S
H2641 C2625 0.961 . S
H2642 C2626 0.931 . S
H2643 C2631 0.930 . S
H2644 C2632 0.956 . S
H2645 C2632 0.961 . S
H2646 C2632 0.961 . S
H2647 C2633 0.958 . S
H2648 C2633 0.961 . S
H2649 C2633 0.960 . S
C2650 C2651 1.391 . S
C2650 C2652 1.394 . S
C2650 H2666 0.931 . S
C2651 C2650 1.391 . S
C2651 C2655 1.376 . S
C2652 C2650 1.394 . S
C2652 C2653 1.369 . S
C2652 C2656 1.531 . S
C2653 C2652 1.369 . S
C2653 C2654 1.410 . S
C2653 C2661 1.503 . S
C2654 C2653 1.410 . S
C2654 C2655 1.392 . S
C2654 C2657 1.511 . S
C2655 C2651 1.376 . S
C2655 C2654 1.392 . S
C2655 H2667 0.929 . S
C2656 C2652 1.531 . S
C2656 H2668 0.960 . S
C2656 H2669 0.962 . S
C2656 H2670 0.960 . S
C2657 C2654 1.511 . S
C2657 H2671 0.961 . S
C2657 H2672 0.961 . S
C2657 H2673 0.961 . S
C2658 C2659 1.370 . S
C2658 C2660 1.363 . S
C2658 H2674 0.931 . S
C2659 C2658 1.370 . S
C2659 C2663 1.408 . S
C2660 C2658 1.363 . S
C2660 C2661 1.370 . S
C2660 C2664 1.524 . S
C2661 C2653 1.503 . S
C2661 C2660 1.370 . S
C2661 C2662 1.403 . S
C2662 C2661 1.403 . S
C2662 C2663 1.404 . S
C2662 C2665 1.539 . S
C2663 C2659 1.408 . S
C2663 C2662 1.404 . S
C2663 H2675 0.930 . S
C2664 C2660 1.524 . S
C2664 H2676 0.956 . S
C2664 H2677 0.961 . S
C2664 H2678 0.961 . S
C2665 C2662 1.539 . S
C2665 H2679 0.958 . S
C2665 H2680 0.961 . S
C2665 H2681 0.960 . S
H2666 C2650 0.931 . S
H2667 C2655 0.929 . S
H2668 C2656 0.960 . S
H2669 C2656 0.962 . S
H2670 C2656 0.960 . S
H2671 C2657 0.961 . S
H2672 C2657 0.961 . S
H2673 C2657 0.961 . S
H2674 C2658 0.931 . S
H2675 C2663 0.930 . S
H2676 C2664 0.956 . S
H2677 C2664 0.961 . S
H2678 C2664 0.961 . S
H2679 C2665 0.958 . S
H2680 C2665 0.961 . S
H2681 C2665 0.960 . S
C955 C147 1.454 . S
C963 C265 1.404 . S
C987 C158 1.475 . S
C995 C349 1.431 . S
C1019 C136 1.430 . S
C1027 C429 1.443 . S
C1051 C125 1.430 . S
C1059 C345 1.418 1_556 S
C1091 C433 1.365 . S
C1083 C103 1.420 . S
C1115 C114 1.390 . S
C1123 C261 1.397 1_556 S
C1155 C254 1.457 . S
C1147 C131 1.513 . S
C1187 C338 1.455 . S
C1179 C109 1.505 . S
C1211 C120 1.532 . S
C1219 C440 1.479 1_556 S
C1243 C153 1.490 . S
C1251 C356 1.440 . S
C1275 C164 1.457 . S
C1283 C422 1.403 . S
C1315 C272 1.439 . S
C1307 C142 1.446 . S
C1347 C517 1.401 . S
C1339 C15 1.455 . S
C1371 C26 1.481 . S
C1379 C601 1.428 . S
C1403 C4 1.432 . S
C1411 C681 1.438 . S
C1435 C191 1.413 . S
C1443 C597 1.427 . S
C1467 C169 1.440 . S
C1475 C685 1.383 . S
C1499 C180 1.410 . S
C1507 C513 1.404 . S
C1531 C197 1.492 . S
C1539 C506 1.445 . S
C1563 C175 1.536 . S
C1571 C590 1.478 . S
C1603 C692 1.468 . S
C1595 C186 1.520 . S
C1627 C21 1.502 . S
C1635 C608 1.447 . S
C1667 C674 1.420 . S
C1659 C32 1.483 . S
C1691 C10 1.477 . S
C1699 C524 1.420 . S
C1731 C769 1.382 . S
C1723 C81 1.440 . S
C1755 C92 1.480 . S
C1763 C853 1.426 . S
C1795 C933 1.448 . S
C1787 C70 1.438 . S
C1827 C849 1.423 . S
C1819 C59 1.436 . S
C1859 C937 1.377 . S
C1851 C37 1.436 . S
C1883 C48 1.413 . S
C1891 C765 1.396 . S
C1915 C65 1.482 . S
C1923 C758 1.426 . S
C1947 C43 1.525 . S
C1955 C842 1.465 . S
C1987 C944 1.470 . S
C1979 C54 1.510 . S
C2011 C87 1.481 . S
C2019 C860 1.442 . S
C2043 C98 1.465 . S
C2051 C926 1.415 . S
C2075 C76 1.456 . S
C2083 C776 1.423 . S
C2107 C170 1.552 . S
C2115 C268 1.451 . S
C2147 C352 1.450 . S
C2139 C181 1.608 . S
C2171 C192 1.542 . S
C2179 C424 1.385 . S
C2203 C71 1.568 . S
C2211 C340 1.394 . S
C2235 C82 1.571 . S
C2243 C436 1.421 . S
C2275 C256 1.383 . S
C2267 C93 1.524 . S
C2299 C38 1.556 . S
C2307 C520 1.423 . S
C2331 C49 1.617 . S
C2339 C604 1.454 . S
C2363 C60 1.572 . S
C2371 C676 1.365 . S
C2395 C137 1.598 . S
C2403 C592 1.386 . S
C2435 C688 1.420 . S
C2427 C148 1.568 . S
C2459 C159 1.531 . S
C2467 C508 1.342 . S
C2491 C104 1.540 . S
C2499 C772 1.439 . S
C2523 C115 1.627 . S
C2531 C856 1.474 . S
C2563 C928 1.378 . S
C2555 C126 1.575 . S
C2587 C5 1.567 . S
C2595 C844 1.401 . S
C2619 C16 1.571 . S
C2627 C940 1.421 . S
C2651 C27 1.524 . S
C2659 C760 1.383 . S
