# Generated by pormake.
# Topology dag, (6,3)-cn, num edge types: 1
# Building blocks:
#     Node 0, Type 0, BuildingBlock: MIDCAF_clean_sbu_0, # of connection points: 6
#     Node 1, Type 0, BuildingBlock: MIDCAF_clean_sbu_0, # of connection points: 6
#     Node 2, Type 0, BuildingBlock: MIDCAF_clean_sbu_0, # of connection points: 6
#     Node 3, Type 0, BuildingBlock: MIDCAF_clean_sbu_0, # of connection points: 6
#     Node 4, Type 1, BuildingBlock: BELTOD_clean_linker_0, # of connection points: 3
#     Node 5, Type 1, BuildingBlock: BELTOD_clean_linker_0, # of connection points: 3
#     Node 6, Type 1, BuildingBlock: BELTOD_clean_linker_0, # of connection points: 3
#     Node 7, Type 1, BuildingBlock: BELTOD_clean_linker_0, # of connection points: 3
#     Node 8, Type 1, BuildingBlock: BELTOD_clean_linker_0, # of connection points: 3
#     Node 9, Type 1, BuildingBlock: BELTOD_clean_linker_0, # of connection points: 3
#     Node 10, Type 1, BuildingBlock: BELTOD_clean_linker_0, # of connection points: 3
#     Node 11, Type 1, BuildingBlock: BELTOD_clean_linker_0, # of connection points: 3
#     Edge 12, Type (0, 1), BuildingBlock: EZIPEK_clean_linker_0, # of connection points: 2
#     Edge 13, Type (0, 1), BuildingBlock: EZIPEK_clean_linker_0, # of connection points: 2
#     Edge 14, Type (0, 1), BuildingBlock: EZIPEK_clean_linker_0, # of connection points: 2
#     Edge 15, Type (0, 1), BuildingBlock: EZIPEK_clean_linker_0, # of connection points: 2
#     Edge 16, Type (0, 1), BuildingBlock: EZIPEK_clean_linker_0, # of connection points: 2
#     Edge 17, Type (0, 1), BuildingBlock: EZIPEK_clean_linker_0, # of connection points: 2
#     Edge 18, Type (0, 1), BuildingBlock: EZIPEK_clean_linker_0, # of connection points: 2
#     Edge 19, Type (0, 1), BuildingBlock: EZIPEK_clean_linker_0, # of connection points: 2
#     Edge 20, Type (0, 1), BuildingBlock: EZIPEK_clean_linker_0, # of connection points: 2
#     Edge 21, Type (0, 1), BuildingBlock: EZIPEK_clean_linker_0, # of connection points: 2
#     Edge 22, Type (0, 1), BuildingBlock: EZIPEK_clean_linker_0, # of connection points: 2
#     Edge 23, Type (0, 1), BuildingBlock: EZIPEK_clean_linker_0, # of connection points: 2
#     Edge 24, Type (0, 1), BuildingBlock: EZIPEK_clean_linker_0, # of connection points: 2
#     Edge 25, Type (0, 1), BuildingBlock: EZIPEK_clean_linker_0, # of connection points: 2
#     Edge 26, Type (0, 1), BuildingBlock: EZIPEK_clean_linker_0, # of connection points: 2
#     Edge 27, Type (0, 1), BuildingBlock: EZIPEK_clean_linker_0, # of connection points: 2
#     Edge 28, Type (0, 1), BuildingBlock: EZIPEK_clean_linker_0, # of connection points: 2
#     Edge 29, Type (0, 1), BuildingBlock: EZIPEK_clean_linker_0, # of connection points: 2
#     Edge 30, Type (0, 1), BuildingBlock: EZIPEK_clean_linker_0, # of connection points: 2
#     Edge 31, Type (0, 1), BuildingBlock: EZIPEK_clean_linker_0, # of connection points: 2
#     Edge 32, Type (0, 1), BuildingBlock: EZIPEK_clean_linker_0, # of connection points: 2
#     Edge 33, Type (0, 1), BuildingBlock: EZIPEK_clean_linker_0, # of connection points: 2
#     Edge 34, Type (0, 1), BuildingBlock: EZIPEK_clean_linker_0, # of connection points: 2
#     Edge 35, Type (0, 1), BuildingBlock: EZIPEK_clean_linker_0, # of connection points: 2
# Relax obj value: 0.289
# Max RMSD: 0.188
# Mean RMSD: 0.177
data_MOF--net-dag--node1-MIDCAF_clean_sbu_0--node2-BELTOD_clean_linker_0--edge1-EZIPEK_clean_linker_0
_symmetry_space_group_name_H-M    P1
_symmetry_Int_Tables_number       1
_symmetry_cell_setting            triclinic
loop_
_symmetry_equiv_pos_as_xyz
'x, y, z'
_cell_length_a     34.093037
_cell_length_b     35.70536
_cell_length_c     25.967214
_cell_angle_alpha  94.123807
_cell_angle_beta   90.172484
_cell_angle_gamma 90.104578
loop_
_atom_site_label
_atom_site_type_symbol
_atom_site_fract_x
_atom_site_fract_y
_atom_site_fract_z
_atom_type_partial_charge
Zn0 Zn 0.13903 0.82812 0.16617 0.0
Zn1 Zn 0.18143 0.86875 0.97718 0.0
Zn2 Zn 0.16317 0.85475 0.08063 0.0
C3 C 0.18989 0.9345 0.04932 0.0
C4 C 0.10363 0.84639 0.98035 0.0
O5 O 0.20001 0.80701 0.10008 0.0
O6 O 0.17289 0.78366 0.16832 0.0
C7 C 0.17025 0.90283 0.18803 0.0
O8 O 0.18087 0.91322 0.08549 0.0
O9 O 0.19182 0.92186 0.00263 0.0
O10 O 0.12875 0.85488 0.94748 0.0
O11 O 0.11261 0.84631 0.02858 0.0
O12 O 0.15604 0.8741 0.20672 0.0
O13 O 0.17408 0.90299 0.13859 0.0
O14 O 0.09978 0.84174 0.07856 0.0
O15 O 0.08213 0.82207 0.15385 0.0
C16 C 0.07305 0.83113 0.10932 0.0
O17 O 0.21041 0.81751 0.05123 0.0
O18 O 0.22464 0.83119 0.97135 0.0
C19 C 0.19908 0.78252 0.1341 0.0
C20 C 0.23076 0.81208 0.00967 0.0
Zn21 Zn 0.60406 0.65079 0.33681 0.0
Zn22 Zn 0.70592 0.61042 0.56967 0.0
Zn23 Zn 0.6705 0.62617 0.48839 0.0
C24 C 0.70675 0.54588 0.50256 0.0
C25 C 0.62765 0.62982 0.59638 0.0
O26 O 0.69473 0.67401 0.45132 0.0
O27 O 0.64667 0.66063 0.39742 0.0
C28 C 0.66011 0.58737 0.38295 0.0
O29 O 0.69089 0.56889 0.47292 0.0
O30 O 0.71692 0.55668 0.54803 0.0
O31 O 0.66011 0.62199 0.61658 0.0
O32 O 0.62455 0.63158 0.54727 0.0
O33 O 0.64078 0.61801 0.38288 0.0
O34 O 0.67599 0.58084 0.42621 0.0
O35 O 0.60751 0.63422 0.49886 0.0
O36 O 0.61208 0.64236 0.41687 0.0
C37 C 0.59018 0.63865 0.45606 0.0
O38 O 0.71378 0.67143 0.49996 0.0
O39 O 0.74664 0.65026 0.56521 0.0
C40 C 0.6766 0.68098 0.40992 0.0
C41 C 0.74181 0.67491 0.53314 0.0
Zn42 Zn 0.88057 0.17546 0.91399 0.0
Zn43 Zn 0.77381 0.16776 0.07051 0.0
Zn44 Zn 0.8243 0.17483 0.98899 0.0
C45 C 0.84818 0.18716 0.11071 0.0
C46 C 0.77899 0.09814 0.01506 0.0
O47 O 0.79949 0.21031 0.9312 0.0
O48 O 0.84637 0.20575 0.87199 0.0
C49 C 0.9148 0.20386 0.00497 0.0
O50 O 0.8556 0.1887 0.06228 0.0
O51 O 0.81431 0.17846 0.12552 0.0
O52 O 0.75975 0.11415 0.0518 0.0
O53 O 0.80378 0.11668 0.9896 0.0
O54 O 0.92266 0.19911 0.95753 0.0
O55 O 0.88064 0.19569 0.02204 0.0
O56 O 0.83156 0.11923 0.95063 0.0
O57 O 0.88111 0.1202 0.89551 0.0
C58 C 0.8544 0.10248 0.91707 0.0
O59 O 0.77581 0.21348 0.97613 0.0
O60 O 0.74001 0.20808 0.04658 0.0
C61 C 0.81277 0.21697 0.88638 0.0
C62 C 0.74605 0.22285 0.00454 0.0
Zn63 Zn 0.37799 0.31463 0.65691 0.0
Zn64 Zn 0.28792 0.33688 0.49304 0.0
Zn65 Zn 0.33091 0.33017 0.57745 0.0
C66 C 0.36163 0.31666 0.45846 0.0
C67 C 0.29613 0.40845 0.54596 0.0
O68 O 0.29799 0.2946 0.62862 0.0
O69 O 0.33883 0.28533 0.69306 0.0
C70 C 0.41816 0.29144 0.56965 0.0
O71 O 0.36648 0.31636 0.50766 0.0
O72 O 0.32864 0.32451 0.44 0.0
O73 O 0.27813 0.39105 0.50895 0.0
O74 O 0.31758 0.39046 0.57668 0.0
O75 O 0.42152 0.28952 0.61777 0.0
O76 O 0.38733 0.30587 0.55027 0.0
O77 O 0.33932 0.38365 0.62176 0.0
O78 O 0.38253 0.3688 0.68103 0.0
C79 C 0.36136 0.39287 0.66091 0.0
O80 O 0.27833 0.29423 0.58128 0.0
O81 O 0.24712 0.30006 0.50728 0.0
C82 C 0.30533 0.28148 0.67258 0.0
C83 C 0.24977 0.28564 0.55008 0.0
P84 P 0.04581 0.124 0.38501 0.0
H85 H 0.13044 0.10639 0.39311 0.0
H86 H 0.17136 0.05815 0.34831 0.0
H87 H 0.0721 0.01967 0.25574 0.0
H88 H 0.03084 0.0679 0.30053 0.0
H89 H 0.05808 0.12285 0.49649 0.0
H90 H 0.10361 0.15749 0.55614 0.0
H91 H 0.14247 0.22261 0.4323 0.0
H92 H 0.09664 0.18842 0.37282 0.0
H93 H 0.96955 0.16097 0.39154 0.0
H94 H 0.06317 0.14635 0.28054 0.0
O95 O 0.01354 0.0994 0.41713 0.0
H96 H 0.92678 0.18432 0.32479 0.0
H97 H 0.02011 0.16893 0.21378 0.0
C98 C 0.07749 0.0909 0.34993 0.0
C99 C 0.11743 0.08815 0.36266 0.0
C100 C 0.14094 0.06077 0.33696 0.0
C101 C 0.12476 0.03585 0.2984 0.0
C102 C 0.08512 0.0391 0.28493 0.0
C103 C 0.06162 0.06639 0.31066 0.0
C104 C 0.07362 0.15361 0.43049 0.0
C105 C 0.07568 0.1452 0.48245 0.0
C106 C 0.1017 0.16473 0.51641 0.0
C107 C 0.12635 0.19232 0.49834 0.0
C108 C 0.12355 0.20133 0.44673 0.0
C109 C 0.09734 0.18206 0.41297 0.0
C110 C 0.019 0.15078 0.34047 0.0
C111 C 0.98122 0.1637 0.35324 0.0
C112 C 0.95693 0.17726 0.31533 0.0
C113 C 0.97023 0.17793 0.26428 0.0
C114 C 0.00932 0.16848 0.25282 0.0
C115 C 0.03374 0.15531 0.2909 0.0
P116 P 0.44237 0.61779 0.89961 0.0
H117 H 0.52589 0.60837 0.87958 0.0
H118 H 0.56487 0.61724 0.80242 0.0
H119 H 0.46684 0.67165 0.7341 0.0
H120 H 0.42762 0.66289 0.81161 0.0
H121 H 0.37156 0.60709 0.95838 0.0
H122 H 0.32088 0.65057 0.9934 0.0
H123 H 0.38577 0.74369 0.93915 0.0
H124 H 0.43676 0.70034 0.90478 0.0
H125 H 0.45838 0.53759 0.88483 0.0
H126 H 0.37358 0.61598 0.83221 0.0
O127 O 0.4688 0.60119 0.94711 0.0
H128 H 0.43218 0.48866 0.82302 0.0
H129 H 0.34786 0.56711 0.76964 0.0
C130 C 0.47411 0.63572 0.8519 0.0
C131 C 0.51316 0.62356 0.84904 0.0
C132 C 0.53533 0.62833 0.80488 0.0
C133 C 0.51864 0.64507 0.76281 0.0
C134 C 0.48022 0.65897 0.76648 0.0
C135 C 0.45802 0.65419 0.81079 0.0
C136 C 0.4072 0.65049 0.92773 0.0
C137 C 0.37499 0.6369 0.9543 0.0
C138 C 0.34628 0.66157 0.9745 0.0
C139 C 0.34965 0.70012 0.96838 0.0
C140 C 0.3828 0.71393 0.94397 0.0
C141 C 0.41161 0.68922 0.92399 0.0
C142 C 0.41727 0.58006 0.86394 0.0
C143 C 0.43341 0.54395 0.86114 0.0
C144 C 0.41869 0.51618 0.8257 0.0
C145 C 0.38802 0.52438 0.79216 0.0
C146 C 0.37124 0.56028 0.79568 0.0
C147 C 0.38579 0.58797 0.83148 0.0
P148 P 0.78599 0.87449 0.17454 0.0
H149 H 0.74092 0.94363 0.18227 0.0
H150 H 0.73336 0.9892 0.11782 0.0
H151 H 0.76343 0.90469 0.99761 0.0
H152 H 0.77131 0.85871 0.06243 0.0
H153 H 0.82037 0.81465 0.22754 0.0
H154 H 0.79192 0.76809 0.28062 0.0
H155 H 0.67587 0.79928 0.23297 0.0
H156 H 0.7046 0.84712 0.18031 0.0
H157 H 0.86279 0.90895 0.19196 0.0
H158 H 0.8137 0.81528 0.09878 0.0
O159 O 0.79255 0.90456 0.22615 0.0
H160 H 0.92804 0.89234 0.15997 0.0
H161 H 0.87917 0.80023 0.06357 0.0
C162 C 0.7587 0.89832 0.12744 0.0
C163 C 0.74428 0.93421 0.14196 0.0
C164 C 0.73983 0.9603 0.10508 0.0
C165 C 0.74938 0.95055 0.0534 0.0
C166 C 0.75666 0.91282 0.03753 0.0
C167 C 0.7614 0.88664 0.07472 0.0
C168 C 0.76458 0.83367 0.19909 0.0
C169 C 0.78885 0.81077 0.22703 0.0
C170 C 0.77267 0.78444 0.25772 0.0
C171 C 0.7319 0.78053 0.2609 0.0
C172 C 0.70746 0.80207 0.2309 0.0
C173 C 0.72378 0.82898 0.20058 0.0
C174 C 0.8335 0.86313 0.14813 0.0
C175 C 0.86594 0.885 0.16429 0.0
C176 C 0.90316 0.87566 0.14578 0.0
C177 C 0.90847 0.84478 0.1099 0.0
C178 C 0.8757 0.82391 0.09166 0.0
C179 C 0.83845 0.83262 0.11151 0.0
P180 P 0.70325 0.26327 0.52337 0.0
H181 H 0.73483 0.29933 0.43345 0.0
H182 H 0.73883 0.36583 0.41384 0.0
H183 H 0.68668 0.39858 0.56134 0.0
H184 H 0.68229 0.33279 0.58061 0.0
H185 H 0.68396 0.20956 0.59956 0.0
H186 H 0.70635 0.20224 0.68633 0.0
H187 H 0.78051 0.29971 0.67761 0.0
H188 H 0.75951 0.30552 0.591 0.0
H189 H 0.65248 0.23529 0.43755 0.0
H190 H 0.63983 0.2765 0.59697 0.0
O191 O 0.72742 0.23465 0.48095 0.0
H192 H 0.58048 0.23472 0.42763 0.0
H193 H 0.56869 0.27602 0.58698 0.0
C194 C 0.709 0.31136 0.50893 0.0
C195 C 0.72467 0.32089 0.46169 0.0
C196 C 0.7269 0.35862 0.45046 0.0
C197 C 0.71343 0.38683 0.48651 0.0
C198 C 0.69752 0.37709 0.53338 0.0
C199 C 0.69508 0.33963 0.54434 0.0
C200 C 0.72115 0.25711 0.58768 0.0
C201 C 0.70668 0.22817 0.61569 0.0
C202 C 0.72077 0.22336 0.6654 0.0
C203 C 0.75208 0.24547 0.68731 0.0
C204 C 0.76253 0.27728 0.66069 0.0
C205 C 0.74881 0.28192 0.61084 0.0
C206 C 0.6514 0.25495 0.5184 0.0
C207 C 0.63429 0.24316 0.47067 0.0
C208 C 0.59341 0.24304 0.46485 0.0
C209 C 0.56959 0.25536 0.50662 0.0
C210 C 0.58676 0.26629 0.55446 0.0
C211 C 0.62733 0.26629 0.56023 0.0
P212 P 0.53326 0.3747 0.15997 0.0
H213 H 0.61335 0.40411 0.14498 0.0
H214 H 0.6508 0.4545 0.19141 0.0
H215 H 0.5516 0.48019 0.29024 0.0
H216 H 0.51368 0.42995 0.24354 0.0
H217 H 0.54733 0.37688 0.04933 0.0
H218 H 0.59653 0.34611 0.99164 0.0
H219 H 0.63866 0.2842 0.11713 0.0
H220 H 0.58955 0.31471 0.17468 0.0
H221 H 0.45706 0.33842 0.1711 0.0
H222 H 0.56422 0.35291 0.25917 0.0
O223 O 0.49667 0.39279 0.12693 0.0
H224 H 0.42371 0.31707 0.24719 0.0
H225 H 0.53058 0.33188 0.3355 0.0
C226 C 0.56075 0.41301 0.1912 0.0
C227 C 0.59944 0.42045 0.17649 0.0
C228 C 0.62092 0.44913 0.20297 0.0
C229 C 0.60398 0.47053 0.24446 0.0
C230 C 0.56513 0.4636 0.25855 0.0
C231 C 0.54357 0.43512 0.23186 0.0
C232 C 0.56422 0.34732 0.11593 0.0
C233 C 0.56653 0.35602 0.06411 0.0
C234 C 0.59469 0.3388 0.03132 0.0
C235 C 0.62108 0.31307 0.05036 0.0
C236 C 0.61837 0.304 0.10193 0.0
C237 C 0.59021 0.32113 0.13459 0.0
C238 C 0.51283 0.34799 0.20984 0.0
C239 C 0.47374 0.33589 0.20622 0.0
C240 C 0.45476 0.32354 0.24953 0.0
C241 C 0.47471 0.3231 0.29683 0.0
C242 C 0.51485 0.33184 0.29919 0.0
C243 C 0.5339 0.34399 0.25571 0.0
P244 P 0.19934 0.2181 0.02049 0.0
H245 H 0.22136 0.17952 0.11181 0.0
H246 H 0.22292 0.1124 0.12787 0.0
H247 H 0.19696 0.08361 0.96728 0.0
H248 H 0.1959 0.15024 0.95101 0.0
H249 H 0.15222 0.24713 0.93558 0.0
H250 H 0.16781 0.25708 0.84586 0.0
H251 H 0.28737 0.22362 0.87135 0.0
H252 H 0.27119 0.21124 0.96066 0.0
H253 H 0.15607 0.26056 0.10399 0.0
H254 H 0.13013 0.18495 0.97102 0.0
O255 O 0.22637 0.24601 0.0609 0.0
H256 H 0.08553 0.26385 0.1249 0.0
H257 H 0.06037 0.18926 0.99071 0.0
C258 C 0.20944 0.16976 0.03001 0.0
C259 C 0.21722 0.15872 0.0798 0.0
C260 C 0.21783 0.12061 0.08906 0.0
C261 C 0.20991 0.09337 0.0487 0.0
C262 C 0.20318 0.10439 0.99874 0.0
C263 C 0.20288 0.14236 0.98947 0.0
C264 C 0.21047 0.22785 0.95486 0.0
C265 C 0.18159 0.24106 0.92199 0.0
C266 C 0.19046 0.24693 0.87067 0.0
C267 C 0.22871 0.24113 0.85205 0.0
C268 C 0.25764 0.22818 0.88501 0.0
C269 C 0.24851 0.22141 0.93596 0.0
C270 C 0.14809 0.22337 0.03506 0.0
C271 C 0.13527 0.24523 0.0789 0.0
C272 C 0.09522 0.24705 0.09094 0.0
C273 C 0.0679 0.22729 0.05877 0.0
C274 C 0.08103 0.20505 0.01559 0.0
C275 C 0.12077 0.20275 0.00423 0.0
P276 P 0.33211 0.56232 0.28122 0.0
H277 H 0.31044 0.48832 0.31162 0.0
H278 H 0.29468 0.46744 0.39638 0.0
H279 H 0.2789 0.58228 0.45565 0.0
H280 H 0.29367 0.60344 0.36984 0.0
H281 H 0.36422 0.60164 0.19778 0.0
H282 H 0.3399 0.6537 0.1497 0.0
H283 H 0.23083 0.65208 0.23319 0.0
H284 H 0.25502 0.59989 0.28121 0.0
H285 H 0.41067 0.53202 0.29584 0.0
H286 H 0.34813 0.63499 0.33575 0.0
O287 O 0.3439 0.52532 0.24134 0.0
H288 H 0.46748 0.55663 0.34561 0.0
H289 H 0.40396 0.65853 0.38832 0.0
C290 C 0.30353 0.54746 0.33427 0.0
C291 C 0.30183 0.50908 0.34188 0.0
C292 C 0.29304 0.49713 0.39043 0.0
C293 C 0.2862 0.52339 0.43223 0.0
C294 C 0.28414 0.56167 0.42376 0.0
C295 C 0.29257 0.57363 0.37476 0.0
C296 C 0.31148 0.59734 0.24326 0.0
C297 C 0.33485 0.61218 0.20522 0.0
C298 C 0.32108 0.64166 0.17775 0.0
C299 C 0.2837 0.65643 0.18805 0.0
C300 C 0.25974 0.64071 0.22479 0.0
C301 C 0.27356 0.61118 0.2523 0.0
C302 C 0.37552 0.58192 0.31156 0.0
C303 C 0.40931 0.56001 0.31478 0.0
C304 C 0.44149 0.57389 0.3435 0.0
C305 C 0.43983 0.60943 0.37038 0.0
C306 C 0.40583 0.63119 0.3675 0.0
C307 C 0.3741 0.61773 0.33756 0.0
P308 P 0.82399 0.8153 0.84637 0.0
H309 H 0.7727 0.87101 0.90126 0.0
H310 H 0.77906 0.93944 0.91826 0.0
H311 H 0.88429 0.93805 0.82638 0.0
H312 H 0.87881 0.8699 0.81082 0.0
H313 H 0.81065 0.74068 0.79766 0.0
H314 H 0.79857 0.71719 0.70785 0.0
H315 H 0.81425 0.8289 0.65832 0.0
H316 H 0.82457 0.85273 0.7477 0.0
H317 H 0.85182 0.81756 0.95187 0.0
H318 H 0.89834 0.78922 0.79967 0.0
O319 O 0.78755 0.79851 0.88082 0.0
H320 H 0.91861 0.82088 0.98695 0.0
H321 H 0.96504 0.79197 0.83521 0.0
C322 C 0.82492 0.86561 0.85403 0.0
C323 C 0.79686 0.88548 0.88434 0.0
C324 C 0.80053 0.92432 0.89422 0.0
C325 C 0.83209 0.94347 0.87345 0.0
C326 C 0.8597 0.92362 0.84245 0.0
C327 C 0.85644 0.88488 0.83347 0.0
C328 C 0.81829 0.79842 0.77972 0.0
C329 C 0.81159 0.76012 0.76753 0.0
C330 C 0.8049 0.74673 0.71641 0.0
C331 C 0.80523 0.77147 0.67678 0.0
C332 C 0.81376 0.80952 0.68855 0.0
C333 C 0.81976 0.82301 0.7398 0.0
C334 C 0.87012 0.80253 0.87333 0.0
C335 C 0.87622 0.81025 0.92649 0.0
C336 C 0.91423 0.81244 0.94651 0.0
C337 C 0.94645 0.80671 0.91359 0.0
C338 C 0.94033 0.79615 0.8611 0.0
C339 C 0.90229 0.79433 0.84095 0.0
C340 C 0.18666 0.97222 0.20701 0.0
C341 C 0.17523 0.93731 0.22424 0.0
C342 C 0.14504 0.96881 0.30062 0.0
C343 C 0.1476 0.0032 0.27674 0.0
N344 N 0.17639 0.03973 0.21198 0.0
N345 N 0.17029 0.9057 0.30288 0.0
C346 C 0.17078 0.00574 0.23176 0.0
C347 C 0.16266 0.93643 0.27613 0.0
N348 N 0.21588 0.97319 0.17161 0.0
N349 N 0.12455 0.9667 0.34549 0.0
H350 H 0.18778 0.88369 0.28754 0.0
H351 H 0.16437 0.90452 0.34206 0.0
H352 H 0.11245 0.99014 0.36582 0.0
H353 H 0.11776 0.94135 0.36092 0.0
H354 H 0.22929 -0.00203 0.16206 0.0
H355 H 0.2299 0.94867 0.1572 0.0
H356 H 0.19077 0.043 0.17733 0.0
H357 H 0.16557 0.0647 0.22986 0.0
C358 C 0.56964 0.60523 0.64195 0.0
C359 C 0.59336 0.63614 0.63042 0.0
C360 C 0.5635 0.6753 0.70108 0.0
C361 C 0.54039 0.64411 0.71333 0.0
N362 N 0.51369 0.58288 0.68856 0.0
N363 N 0.6072 0.70236 0.63982 0.0
C364 C 0.54085 0.61021 0.68126 0.0
C365 C 0.58825 0.67187 0.65696 0.0
N366 N 0.5761 0.57069 0.61719 0.0
N367 N 0.563 0.70748 0.73293 0.0
H368 H 0.62556 0.70044 0.60764 0.0
H369 H 0.60231 0.72984 0.65451 0.0
H370 H 0.54431 0.71119 0.76463 0.0
H371 H 0.58236 0.72976 0.72971 0.0
H372 H 0.56305 0.54606 0.62792 0.0
H373 H 0.5965 0.56621 0.58752 0.0
H374 H 0.50994 0.55907 0.66346 0.0
H375 H 0.49245 0.58557 0.71742 0.0
C376 C 0.73965 0.04091 0.989 0.0
C377 C 0.7759 0.05695 0.00586 0.0
C378 C 0.79959 -0.00483 0.0263 0.0
C379 C 0.76061 0.98146 0.02126 0.0
N380 N 0.69436 0.9884 0.99231 0.0
N381 N 0.84168 0.04978 0.03847 0.0
C382 C 0.73103 0.00326 0.99969 0.0
C383 C 0.80671 0.03401 0.02252 0.0
N384 N 0.71365 0.06199 0.96341 0.0
N385 N 0.82935 0.97124 0.03684 0.0
H386 H 0.84872 0.0778 0.03459 0.0
H387 H 0.86335 0.03564 0.0576 0.0
H388 H 0.82505 0.9426 0.03978 0.0
H389 H 0.85881 0.97886 0.03818 0.0
H390 H 0.6877 0.05144 0.94684 0.0
H391 H 0.71993 0.08953 0.95498 0.0
H392 H 0.67004 0.00382 0.98204 0.0
H393 H 0.68831 0.96031 0.99797 0.0
C394 C 0.4628 0.24095 0.53432 0.0
C395 C 0.45133 0.27912 0.53631 0.0
C396 C 0.51148 0.29483 0.49159 0.0
C397 C 0.52659 0.2592 0.50148 0.0
N398 N 0.51667 0.1965 0.52681 0.0
N399 N 0.46415 0.34312 0.51648 0.0
C400 C 0.50189 0.23134 0.52011 0.0
C401 C 0.47494 0.30617 0.51345 0.0
N402 N 0.43628 0.21427 0.54646 0.0
N403 N 0.53275 0.31803 0.46273 0.0
H404 H 0.43777 0.35277 0.53259 0.0
H405 H 0.48236 0.36466 0.50576 0.0
H406 H 0.55991 0.31024 0.44703 0.0
H407 H 0.5218 0.34302 0.4501 0.0
H408 H 0.44176 0.18555 0.5422 0.0
H409 H 0.40736 0.22097 0.55647 0.0
H410 H 0.50184 0.17611 0.54591 0.0
H411 H 0.54474 0.18852 0.51443 0.0
C412 C 0.63955 0.56782 0.29161 0.0
C413 C 0.65904 0.55916 0.33739 0.0
C414 C 0.65393 0.49227 0.31148 0.0
C415 C 0.6266 0.50092 0.2727 0.0
N416 N 0.5955 0.54675 0.22215 0.0
N417 N 0.70592 0.5162 0.36869 0.0
C418 C 0.62045 0.53868 0.26111 0.0
C419 C 0.67273 0.52214 0.34113 0.0
N420 N 0.64269 0.60307 0.275 0.0
N421 N 0.66067 0.45577 0.32141 0.0
H422 H 0.72288 0.53847 0.38466 0.0
H423 H 0.71947 0.49011 0.36936 0.0
H424 H 0.64761 0.43311 0.30027 0.0
H425 H 0.67751 0.44809 0.35243 0.0
H426 H 0.63181 0.61063 0.23971 0.0
H427 H 0.66078 0.62333 0.2938 0.0
H428 H 0.58622 0.57389 0.21622 0.0
H429 H 0.58244 0.52604 0.19733 0.0
C430 C 0.96196 0.25172 0.0408 0.0
C431 C 0.94707 0.2148 0.04074 0.0
C432 C 0.00711 0.19453 0.08178 0.0
C433 C 0.02519 0.22831 0.069 0.0
N434 N 0.01996 0.29118 0.04166 0.0
N435 N 0.95292 0.1512 0.06517 0.0
C436 C 0.00237 0.2581 0.05165 0.0
C437 C 0.96843 0.18645 0.06399 0.0
N438 N 0.93748 0.28013 0.02909 0.0
N439 N 0.02798 0.16971 0.10859 0.0
H440 H 0.9244 0.14462 0.05297 0.0
H441 H 0.96852 0.12812 0.07644 0.0
H442 H 0.05651 0.17559 0.12155 0.0
H443 H 0.01615 0.1453 0.1218 0.0
H444 H 0.94556 0.30833 0.0319 0.0
H445 H 0.90775 0.27543 0.02116 0.0
H446 H 0.00599 0.31235 0.02308 0.0
H447 H 0.0493 0.29694 0.05047 0.0
C448 C 0.25801 0.46646 0.54149 0.0
C449 C 0.29532 0.44998 0.54738 0.0
C450 C 0.3252 0.50167 0.50464 0.0
C451 C 0.28778 0.50997 0.48486 0.0
N452 N 0.21772 0.50623 0.49057 0.0
N453 N 0.3658 0.45498 0.54162 0.0
C454 C 0.25373 0.49501 0.5065 0.0
C455 C 0.32953 0.46943 0.53308 0.0
N456 N 0.2268 0.45277 0.56703 0.0
N457 N 0.35655 0.5235 0.49354 0.0
H458 H 0.37012 0.43199 0.56325 0.0
H459 H 0.39151 0.46495 0.52592 0.0
H460 H 0.35357 0.54684 0.47186 0.0
H461 H 0.38431 0.52073 0.50965 0.0
H462 H 0.19882 0.46438 0.56667 0.0
H463 H 0.23033 0.43142 0.59215 0.0
H464 H 0.1915 0.49374 0.50067 0.0
H465 H 0.21453 0.5279 0.46595 0.0
C466 C 0.04949 0.79913 0.96816 0.0
C467 C 0.06334 0.83627 0.96357 0.0
C468 C 0.00067 0.85377 0.92591 0.0
C469 C 0.9863 0.81704 0.93244 0.0
N470 N -0.00645 0.75696 0.96793 0.0
N471 N 0.05047 0.90084 0.9479 0.0
C472 C 0.00967 0.79037 0.95615 0.0
C473 C 0.03853 0.86414 0.94495 0.0
N474 N 0.0748 0.77196 0.98222 0.0
N475 N 0.97818 0.87863 0.90108 0.0
H476 H 0.07794 0.90956 0.96196 0.0
H477 H 0.0321 0.92315 0.94076 0.0
H478 H 0.94939 0.87301 0.88918 0.0
H479 H 0.9887 0.90407 0.88949 0.0
H480 H 0.06759 0.74358 0.98124 0.0
H481 H 0.10423 0.77726 0.99118 0.0
H482 H 0.00757 0.73812 0.99058 0.0
H483 H 0.96476 0.74929 0.95837 0.0
C484 C 0.81515 0.04879 0.87758 0.0
C485 C 0.84931 0.06194 0.90454 0.0
C486 C 0.8697 -0.00258 0.91597 0.0
C487 C 0.83727 0.98429 0.8853 0.0
N488 N 0.78268 -0.00317 0.82976 0.0
N489 N 0.91116 0.04988 0.94562 0.0
C490 C 0.81077 0.00978 0.86436 0.0
C491 C 0.87741 0.03655 0.92223 0.0
N492 N 0.78681 0.07359 0.86475 0.0
N493 N 0.89202 0.9725 0.94097 0.0
H494 H 0.91669 0.07837 0.95424 0.0
H495 H 0.93484 0.03292 0.95384 0.0
H496 H 0.88649 0.94369 0.93871 0.0
H497 H 0.91372 0.98043 0.96785 0.0
H498 H 0.75905 0.06537 0.85142 0.0
H499 H 0.79005 0.10264 0.87038 0.0
H500 H 0.76531 0.01429 0.80882 0.0
H501 H 0.77883 0.96844 0.81847 0.0
C502 C 0.40979 0.35295 0.41083 0.0
C503 C 0.39621 0.31746 0.42444 0.0
C504 C 0.44307 0.28594 0.3645 0.0
C505 C 0.45165 0.32113 0.34495 0.0
N506 N 0.44356 0.38848 0.34851 0.0
N507 N 0.40053 0.25012 0.41813 0.0
C508 C 0.43556 0.35482 0.36838 0.0
C509 C 0.41343 0.28384 0.40289 0.0
N510 N 0.39842 0.38486 0.43923 0.0
N511 N 0.46342 0.25483 0.34637 0.0
H512 H 0.38001 0.24814 0.44756 0.0
H513 H 0.40896 0.22423 0.40079 0.0
H514 H 0.48499 0.25584 0.31806 0.0
H515 H 0.46116 0.22878 0.36167 0.0
H516 H 0.41048 0.41126 0.43495 0.0
H517 H 0.37947 0.38455 0.47068 0.0
H518 H 0.42872 0.41325 0.3593 0.0
H519 H 0.4636 0.39149 0.31883 0.0
C520 C 0.23446 0.98983 0.05217 0.0
C521 C 0.19652 0.97509 0.06022 0.0
C522 C 0.16984 0.03869 0.07321 0.0
C523 C 0.20663 0.05315 0.05846 0.0
N524 N 0.27403 0.04369 0.03324 0.0
N525 N 0.12751 0.98423 0.07684 0.0
C526 C 0.23913 0.02907 0.04826 0.0
C527 C 0.16411 -0.00083 0.0712 0.0
N528 N 0.26603 0.9662 0.04964 0.0
N529 N 0.14052 0.06284 0.0893 0.0
H530 H 0.12228 0.95545 0.07684 0.0
H531 H 0.10188 3e-05 0.07863 0.0
H532 H 0.14326 0.09196 0.08971 0.0
H533 H 0.11459 0.05436 0.10607 0.0
H534 H 0.29502 0.97527 0.0486 0.0
H535 H 0.26338 0.93737 0.05321 0.0
H536 H 0.2975 0.02744 0.01921 0.0
H537 H 0.27897 0.07249 0.03239 0.0
C538 C 0.53057 0.66401 0.4172 0.0
C539 C 0.54716 0.63765 0.44913 0.0
C540 C 0.48575 0.60214 0.44404 0.0
C541 C 0.47372 0.62301 0.40237 0.0
N542 N 0.48644 0.67289 0.34627 0.0
N543 N 0.54102 0.57907 0.49036 0.0
C544 C 0.49617 0.65423 0.38863 0.0
C545 C 0.52465 0.6064 0.46304 0.0
N546 N 0.54826 0.69808 0.41365 0.0
N547 N 0.46012 0.57799 0.46488 0.0
H548 H 0.56971 0.58 0.50396 0.0
H549 H 0.52697 0.55375 0.49597 0.0
H550 H 0.43123 0.57462 0.4519 0.0
H551 H 0.46627 0.5645 0.49826 0.0
H552 H 0.53585 0.7196 0.39402 0.0
H553 H 0.57325 0.70601 0.43514 0.0
H554 H 0.50446 0.69315 0.33158 0.0
H555 H 0.46214 0.66602 0.32304 0.0
C556 C 0.39745 0.45322 0.67844 0.0
C557 C 0.36281 0.43185 0.68369 0.0
C558 C 0.3409 0.47516 0.75508 0.0
C559 C 0.37611 0.49591 0.75073 0.0
N560 N 0.43182 0.51183 0.69972 0.0
N561 N 0.29718 0.42707 0.71669 0.0
C562 C 0.40237 0.48728 0.70936 0.0
C563 C 0.33286 0.44463 0.71833 0.0
N564 N 0.42632 0.44008 0.64549 0.0
N565 N 0.31643 0.4832 0.79598 0.0
H566 H 0.29074 0.40427 0.69066 0.0
H567 H 0.27296 0.43702 0.73777 0.0
H568 H 0.32122 0.50558 0.82334 0.0
H569 H 0.29273 0.4664 0.80474 0.0
H570 H 0.4542 0.45197 0.6445 0.0
H571 H 0.42304 0.41592 0.62074 0.0
H572 H 0.44976 0.50886 0.66731 0.0
H573 H 0.43592 0.53718 0.72169 0.0
C574 C 0.00859 0.79832 0.10298 0.0
C575 C 0.03124 0.83043 0.09385 0.0
C576 C 0.97139 0.86267 0.07028 0.0
C577 C 0.94897 0.83497 0.09318 0.0
N578 N 0.94667 0.77591 0.13351 0.0
N579 N 0.03336 0.89531 0.07173 0.0
C580 C 0.96746 0.8021 0.10906 0.0
C581 C 0.01264 0.86302 0.077 0.0
N582 N 0.02651 0.76439 0.10615 0.0
N583 N 0.95301 0.88919 0.04357 0.0
H584 H 0.06337 0.8979 0.07849 0.0
H585 H 0.02003 0.9207 0.06474 0.0
H586 H 0.92263 0.88922 0.03823 0.0
H587 H 0.96814 0.90824 0.02235 0.0
H588 H 0.011 0.73938 0.10836 0.0
H589 H 0.05665 0.76086 0.10067 0.0
H590 H 0.95994 0.75378 0.15097 0.0
H591 H 0.91659 0.77765 0.13991 0.0
C592 C 0.74698 0.48805 0.48598 0.0
C593 C 0.70976 0.50562 0.48595 0.0
C594 C 0.67833 0.4447 0.46564 0.0
C595 C 0.7143 0.42693 0.47586 0.0
N596 N 0.78327 0.43076 0.49634 0.0
N597 N 0.63904 0.50081 0.47888 0.0
C598 C 0.74898 0.4483 0.48529 0.0
C599 C 0.67513 0.48412 0.47561 0.0
N600 N 0.78025 0.50946 0.48617 0.0
N601 N 0.64722 0.42362 0.44694 0.0
H602 H 0.63494 0.52951 0.48713 0.0
H603 H 0.61279 0.4858 0.47748 0.0
H604 H 0.64897 0.39456 0.43942 0.0
H605 H 0.62132 0.4352 0.43394 0.0
H606 H 0.80829 0.49823 0.48152 0.0
H607 H 0.77947 0.53867 0.48602 0.0
H608 H 0.80837 0.44504 0.50972 0.0
H609 H 0.78602 0.40162 0.49485 0.0
C610 C 0.90315 0.21807 0.16372 0.0
C611 C 0.88127 0.18548 0.14755 0.0
C612 C 0.91933 0.14806 0.20537 0.0
C613 C 0.94128 0.1806 0.22182 0.0
N614 N 0.95988 0.24454 0.21058 0.0
N615 N 0.87487 0.11795 0.14245 0.0
C616 C 0.93503 0.21505 0.19898 0.0
C617 C 0.89114 0.15005 0.16546 0.0
N618 N 0.89268 0.25192 0.14645 0.0
N619 N 0.92501 0.11524 0.22854 0.0
H620 H 0.85414 0.11799 0.11288 0.0
H621 H 0.8844 0.09104 0.14911 0.0
H622 H 0.94734 0.11142 0.25517 0.0
H623 H 0.90621 0.09224 0.22362 0.0
H624 H 0.90485 0.27746 0.16021 0.0
H625 H 0.87003 0.25469 0.11988 0.0
H626 H 0.95966 0.2692 0.19152 0.0
H627 H 0.9828 0.24329 0.2371 0.0
C628 C 0.22433 0.71873 0.10619 0.0
C629 C 0.22944 0.75345 0.13532 0.0
C630 C 0.27838 0.72624 0.19013 0.0
C631 C 0.27063 0.69064 0.16422 0.0
N632 N 0.24591 0.65411 0.08961 0.0
N633 N 0.26892 0.79376 0.19255 0.0
C634 C 0.24691 0.68732 0.11922 0.0
C635 C 0.25928 0.75834 0.17307 0.0
N636 N 0.19655 0.71557 0.06806 0.0
N637 N 0.30231 0.7289 0.23261 0.0
H638 H 0.25516 0.81763 0.18016 0.0
H639 H 0.29265 0.79981 0.21706 0.0
H640 H 0.31789 0.70612 0.24512 0.0
H641 H 0.30549 0.75319 0.25691 0.0
H642 H 0.18821 0.69025 0.04877 0.0
H643 H 0.18085 0.73864 0.05661 0.0
H644 H 0.23174 0.6505 0.05405 0.0
H645 H 0.26207 0.63072 0.09889 0.0
C646 C 0.74364 0.74277 0.55882 0.0
C647 C 0.76463 0.71015 0.54205 0.0
C648 C 0.82025 0.73195 0.59588 0.0
C649 C 0.79452 0.75713 0.62362 0.0
N650 N 0.73164 0.78845 0.6302 0.0
N651 N 0.82594 0.67793 0.53351 0.0
C652 C 0.7565 0.76399 0.60393 0.0
C653 C 0.80451 0.70686 0.55606 0.0
N654 N 0.71113 0.75272 0.53244 0.0
N655 N 0.85908 0.73158 0.60886 0.0
H656 H 0.81447 0.66042 0.50312 0.0
H657 H 0.85409 0.67096 0.54503 0.0
H658 H 0.87082 0.75002 0.63796 0.0
H659 H 0.88 0.7153 0.58861 0.0
H660 H 0.69585 0.77762 0.54104 0.0
H661 H 0.70285 0.73838 0.49783 0.0
H662 H 0.7021 0.79094 0.62069 0.0
H663 H 0.73974 0.80459 0.66355 0.0
C664 C 0.7235 0.28881 0.00686 0.0
C665 C 0.7172 0.25081 0.98974 0.0
C666 C 0.64618 0.25962 0.99227 0.0
C667 C 0.65251 0.29565 0.01747 0.0
N668 N 0.69469 0.34907 0.03564 0.0
N669 N 0.67522 0.20306 0.95045 0.0
C670 C 0.6905 0.31196 0.01968 0.0
C671 C 0.67919 0.23752 0.97638 0.0
N672 N 0.76106 0.30154 0.01411 0.0
N673 N 0.60882 0.24596 0.98672 0.0
H674 H 0.69958 0.18677 0.93945 0.0
H675 H 0.64869 0.1918 0.93681 0.0
H676 H 0.58424 0.26227 0.99665 0.0
H677 H 0.60193 0.21861 0.97323 0.0
H678 H 0.76851 0.32786 0.03106 0.0
H679 H 0.78523 0.285 0.00292 0.0
H680 H 0.72121 0.36352 0.03623 0.0
H681 H 0.67072 0.36624 0.04538 0.0
C682 C 0.27215 0.23058 0.7173 0.0
C683 C 0.27342 0.26855 0.70528 0.0
C684 C 0.23961 0.28805 0.78552 0.0
C685 C 0.23934 0.25012 0.79878 0.0
N686 N 0.24494 0.18437 0.77154 0.0
N687 N 0.24717 0.33103 0.71811 0.0
C688 C 0.25211 0.22099 0.76255 0.0
C689 C 0.25283 0.29634 0.73586 0.0
N690 N 0.29141 0.20412 0.6864 0.0
N691 N 0.23041 0.31649 0.82154 0.0
H692 H 0.25686 0.33795 0.68196 0.0
H693 H 0.22941 0.35147 0.73672 0.0
H694 H 0.22194 0.31207 0.85914 0.0
H695 H 0.23456 0.34477 0.81567 0.0
H696 H 0.29566 0.17658 0.69586 0.0
H697 H 0.30442 0.21048 0.65171 0.0
H698 H 0.25074 0.16194 0.74482 0.0
H699 H 0.2299 0.17671 0.80413 0.0
C700 C 0.71494 0.69281 0.33155 0.0
C701 C 0.69197 0.70718 0.37379 0.0
C702 C 0.69588 0.77018 0.34316 0.0
C703 C 0.7155 0.7551 0.2981 0.0
N704 N 0.73669 0.70102 0.24443 0.0
N705 N 0.65418 0.75763 0.41537 0.0
C706 C 0.723 0.71604 0.29083 0.0
C707 C 0.68045 0.74533 0.3783 0.0
N708 N 0.72974 0.65721 0.33087 0.0
N709 N 0.69357 0.80818 0.3537 0.0
H710 H 0.64285 0.74028 0.44241 0.0
H711 H 0.64142 0.78417 0.41681 0.0
H712 H 0.70512 0.8275 0.32957 0.0
H713 H 0.68331 0.82051 0.38866 0.0
H714 H 0.74987 0.64653 0.30356 0.0
H715 H 0.72456 0.63941 0.36028 0.0
H716 H 0.73898 0.67224 0.23516 0.0
H717 H 0.74214 0.71719 0.2133 0.0
C718 C 0.80052 0.26165 0.8207 0.0
C719 C 0.78729 0.23004 0.84524 0.0
C720 C 0.76143 0.20328 0.76264 0.0
C721 C 0.77049 0.23701 0.73908 0.0
N722 N 0.82602 0.2791 0.74018 0.0
N723 N 0.74923 0.17303 0.84132 0.0
C724 C 0.7972 0.26204 0.7663 0.0
C725 C 0.76507 0.20205 0.81691 0.0
N726 N 0.81865 0.29027 0.84915 0.0
N727 N 0.75733 0.17047 0.73269 0.0
H728 H 0.75231 0.17066 0.88088 0.0
H729 H 0.73013 0.15349 0.82291 0.0
H730 H 0.76305 0.1689 0.69311 0.0
H731 H 0.75446 0.14435 0.7478 0.0
H732 H 0.82682 0.31521 0.83345 0.0
H733 H 0.82178 0.29005 0.88917 0.0
H734 H 0.84807 0.29541 0.75855 0.0
H735 H 0.83199 0.27105 0.70156 0.0
C736 C 0.22722 0.21947 0.54619 0.0
C737 C 0.22001 0.25759 0.56174 0.0
C738 C 0.1493 0.24764 0.5551 0.0
C739 C 0.15669 0.21118 0.53198 0.0
N740 N 0.19998 0.15818 0.51887 0.0
N741 N 0.17653 0.30501 0.59765 0.0
C742 C 0.19488 0.19551 0.5327 0.0
C743 C 0.18157 0.27049 0.57236 0.0
N744 N 0.26507 0.20727 0.541 0.0
N745 N 0.1117 0.26082 0.55769 0.0
H746 H 0.20041 0.32156 0.61049 0.0
H747 H 0.14947 0.31591 0.6094 0.0
H748 H 0.0876 0.24392 0.54699 0.0
H749 H 0.10428 0.28838 0.56932 0.0
H750 H 0.27314 0.18094 0.52482 0.0
H751 H 0.28889 0.22425 0.55268 0.0
H752 H 0.22658 0.1442 0.52124 0.0
H753 H 0.17666 0.14033 0.50813 0.0
C754 C 0.29269 0.78033 0.03637 0.0
C755 C 0.25895 0.78071 0.00431 0.0
C756 C 0.28348 0.72668 0.95088 0.0
C757 C 0.31692 0.72578 0.98338 0.0
N758 N 0.34883 0.74502 0.06385 0.0
N759 N 0.2166 0.74781 0.94165 0.0
C760 C 0.32005 0.75048 0.02845 0.0
C761 C 0.25259 0.75184 0.9648 0.0
N762 N 0.2996 0.80932 0.07254 0.0
N763 N 0.28187 0.70466 0.90559 0.0
H764 H 0.19288 0.76519 0.95191 0.0
H765 H 0.20908 0.72496 0.91633 0.0
H766 H 0.30375 0.68555 0.89389 0.0
H767 H 0.2603 0.70744 0.87765 0.0
H768 H 0.32571 0.81255 0.09331 0.0
H769 H 0.28029 0.83173 0.07938 0.0
H770 H 0.35011 0.75958 0.10005 0.0
H771 H 0.36937 0.72344 0.05884 0.0
loop_
_geom_bond_atom_site_label_1
_geom_bond_atom_site_label_2
_geom_bond_distance
_geom_bond_site_symmetry_2
_ccdc_geom_bond_type
Zn0 O6 1.920 . S
Zn0 O12 1.898 . S
Zn0 O15 1.905 . S
Zn1 O9 1.905 . S
Zn1 O10 1.898 . S
Zn1 O18 1.920 . S
Zn2 O5 2.080 . S
Zn2 O8 2.114 . S
Zn2 O11 2.120 1_554 S
Zn2 O13 2.120 . S
Zn2 O14 2.114 . S
Zn2 O17 2.080 . S
C3 O8 1.166 1_556 S
C3 O9 1.182 . S
C4 O10 1.167 . S
C4 O11 1.299 . S
O5 Zn2 2.080 . S
O5 C19 1.305 . S
O6 Zn0 1.920 . S
O6 C19 1.234 . S
C7 O12 1.167 . S
C7 O13 1.299 . S
O8 Zn2 2.114 . S
O8 C3 1.166 1_554 S
O9 Zn1 1.905 . S
O9 C3 1.182 . S
O10 Zn1 1.898 . S
O10 C4 1.167 . S
O11 Zn2 2.120 1_556 S
O11 C4 1.299 . S
O12 Zn0 1.898 . S
O12 C7 1.167 . S
O13 Zn2 2.120 . S
O13 C7 1.299 . S
O14 Zn2 2.114 . S
O14 C16 1.166 . S
O15 Zn0 1.905 . S
O15 C16 1.182 . S
C16 O14 1.166 . S
C16 O15 1.182 . S
O17 Zn2 2.080 . S
O17 C20 1.305 1_554 S
O18 Zn1 1.920 . S
O18 C20 1.234 . S
C19 O5 1.305 . S
C19 O6 1.234 . S
C20 O17 1.305 1_556 S
C20 O18 1.234 . S
Zn21 O27 1.920 . S
Zn21 O33 1.898 . S
Zn21 O36 1.905 . S
Zn22 O30 1.905 . S
Zn22 O31 1.898 . S
Zn22 O39 1.920 . S
Zn23 O26 2.080 . S
Zn23 O29 2.114 . S
Zn23 O32 2.120 . S
Zn23 O34 2.120 . S
Zn23 O35 2.114 . S
Zn23 O38 2.080 . S
C24 O29 1.166 . S
C24 O30 1.182 . S
C25 O31 1.167 . S
C25 O32 1.299 . S
O26 Zn23 2.080 . S
O26 C40 1.305 . S
O27 Zn21 1.920 . S
O27 C40 1.234 . S
C28 O33 1.167 . S
C28 O34 1.299 . S
O29 Zn23 2.114 . S
O29 C24 1.166 . S
O30 Zn22 1.905 . S
O30 C24 1.182 . S
O31 Zn22 1.898 . S
O31 C25 1.167 . S
O32 Zn23 2.120 . S
O32 C25 1.299 . S
O33 Zn21 1.898 . S
O33 C28 1.167 . S
O34 Zn23 2.120 . S
O34 C28 1.299 . S
O35 Zn23 2.114 . S
O35 C37 1.166 . S
O36 Zn21 1.905 . S
O36 C37 1.182 . S
C37 O35 1.166 . S
C37 O36 1.182 . S
O38 Zn23 2.080 . S
O38 C41 1.305 . S
O39 Zn22 1.920 . S
O39 C41 1.234 . S
C40 O26 1.305 . S
C40 O27 1.234 . S
C41 O38 1.305 . S
C41 O39 1.234 . S
Zn42 O48 1.920 . S
Zn42 O54 1.898 . S
Zn42 O57 1.905 . S
Zn43 O51 1.905 . S
Zn43 O52 1.898 . S
Zn43 O60 1.920 . S
Zn44 O47 2.079 1_554 S
Zn44 O50 2.115 . S
Zn44 O53 2.121 . S
Zn44 O55 2.119 1_554 S
Zn44 O56 2.113 1_554 S
Zn44 O59 2.081 . S
C45 O50 1.166 . S
C45 O51 1.182 . S
C46 O52 1.167 . S
C46 O53 1.299 . S
O47 Zn44 2.079 1_556 S
O47 C61 1.305 . S
O48 Zn42 1.920 . S
O48 C61 1.234 . S
C49 O54 1.167 . S
C49 O55 1.299 . S
O50 Zn44 2.115 . S
O50 C45 1.166 . S
O51 Zn43 1.905 . S
O51 C45 1.182 . S
O52 Zn43 1.898 . S
O52 C46 1.167 . S
O53 Zn44 2.121 . S
O53 C46 1.299 . S
O54 Zn42 1.898 . S
O54 C49 1.167 . S
O55 Zn44 2.119 1_556 S
O55 C49 1.299 . S
O56 Zn44 2.113 1_556 S
O56 C58 1.166 . S
O57 Zn42 1.905 . S
O57 C58 1.182 . S
C58 O56 1.166 . S
C58 O57 1.182 . S
O59 Zn44 2.081 . S
O59 C62 1.305 . S
O60 Zn43 1.920 . S
O60 C62 1.234 . S
C61 O47 1.305 . S
C61 O48 1.234 . S
C62 O59 1.305 . S
C62 O60 1.234 . S
Zn63 O69 1.920 . S
Zn63 O75 1.898 . S
Zn63 O78 1.905 . S
Zn64 O72 1.905 . S
Zn64 O73 1.898 . S
Zn64 O81 1.920 . S
Zn65 O68 2.080 . S
Zn65 O71 2.114 . S
Zn65 O74 2.120 . S
Zn65 O76 2.120 . S
Zn65 O77 2.114 . S
Zn65 O80 2.080 . S
C66 O71 1.166 . S
C66 O72 1.182 . S
C67 O73 1.167 . S
C67 O74 1.299 . S
O68 Zn65 2.080 . S
O68 C82 1.305 . S
O69 Zn63 1.920 . S
O69 C82 1.234 . S
C70 O75 1.167 . S
C70 O76 1.299 . S
O71 Zn65 2.114 . S
O71 C66 1.166 . S
O72 Zn64 1.905 . S
O72 C66 1.182 . S
O73 Zn64 1.898 . S
O73 C67 1.167 . S
O74 Zn65 2.120 . S
O74 C67 1.299 . S
O75 Zn63 1.898 . S
O75 C70 1.167 . S
O76 Zn65 2.120 . S
O76 C70 1.299 . S
O77 Zn65 2.114 . S
O77 C79 1.166 . S
O78 Zn63 1.905 . S
O78 C79 1.182 . S
C79 O77 1.166 . S
C79 O78 1.182 . S
O80 Zn65 2.080 . S
O80 C83 1.305 . S
O81 Zn64 1.920 . S
O81 C83 1.234 . S
C82 O68 1.305 . S
C82 O69 1.234 . S
C83 O80 1.305 . S
C83 O81 1.234 . S
P84 O95 1.490 . S
P84 C98 1.812 . S
P84 C104 1.803 . S
P84 C110 1.819 . S
H85 C99 0.941 . S
H86 C100 0.939 . S
H87 C102 0.940 . S
H88 C103 0.940 . S
H89 C105 0.939 . S
H90 C106 0.942 . S
H91 C108 0.940 . S
H92 C109 0.939 . S
H93 C111 0.941 . S
H94 C115 0.939 . S
O95 P84 1.490 . S
H96 C112 0.939 1_655 S
H97 C114 0.940 . S
C98 P84 1.812 . S
C98 C99 1.389 . S
C98 C103 1.391 . S
C99 H85 0.941 . S
C99 C98 1.389 . S
C99 C100 1.397 1_545 S
C100 H86 0.939 . S
C100 C99 1.397 1_565 S
C100 C101 1.378 . S
C101 C100 1.378 . S
C101 C102 1.378 1_565 S
C102 H87 0.940 . S
C102 C101 1.378 1_545 S
C102 C103 1.396 . S
C103 H88 0.940 . S
C103 C98 1.391 . S
C103 C102 1.396 . S
C104 P84 1.803 . S
C104 C105 1.378 . S
C104 C109 1.400 . S
C105 H89 0.939 . S
C105 C104 1.378 . S
C105 C106 1.361 . S
C106 H90 0.942 . S
C106 C105 1.361 . S
C106 C107 1.369 . S
C107 C106 1.369 . S
C107 C108 1.404 . S
C108 H91 0.940 . S
C108 C107 1.404 . S
C108 C109 1.389 . S
C109 H92 0.939 . S
C109 C104 1.400 . S
C109 C108 1.389 . S
C110 P84 1.819 . S
C110 C111 1.391 . S
C110 C115 1.391 . S
C111 H93 0.941 . S
C111 C110 1.391 . S
C111 C112 1.396 . S
C112 H96 0.939 1_455 S
C112 C111 1.396 . S
C112 C113 1.397 . S
C113 C112 1.397 . S
C113 C114 1.385 . S
C114 H97 0.940 . S
C114 C113 1.385 . S
C114 C115 1.388 . S
C115 H94 0.939 . S
C115 C110 1.391 . S
C115 C114 1.388 . S
P116 O127 1.490 . S
P116 C130 1.812 . S
P116 C136 1.803 . S
P116 C142 1.819 . S
H117 C131 0.941 . S
H118 C132 0.939 . S
H119 C134 0.940 . S
H120 C135 0.940 . S
H121 C137 0.939 . S
H122 C138 0.942 1_554 S
H123 C140 0.940 . S
H124 C141 0.939 . S
H125 C143 0.941 . S
H126 C147 0.939 . S
O127 P116 1.490 . S
H128 C144 0.939 . S
H129 C146 0.940 . S
C130 P116 1.812 . S
C130 C131 1.389 . S
C130 C135 1.391 . S
C131 H117 0.941 . S
C131 C130 1.389 . S
C131 C132 1.397 . S
C132 H118 0.939 . S
C132 C131 1.397 . S
C132 C133 1.378 . S
C133 C132 1.378 . S
C133 C134 1.378 . S
C134 H119 0.940 . S
C134 C133 1.378 . S
C134 C135 1.396 . S
C135 H120 0.940 . S
C135 C130 1.391 . S
C135 C134 1.396 . S
C136 P116 1.803 . S
C136 C137 1.378 . S
C136 C141 1.400 . S
C137 H121 0.939 . S
C137 C136 1.378 . S
C137 C138 1.361 . S
C138 H122 0.942 1_556 S
C138 C137 1.361 . S
C138 C139 1.369 . S
C139 C138 1.369 . S
C139 C140 1.404 . S
C140 H123 0.940 . S
C140 C139 1.404 . S
C140 C141 1.389 . S
C141 H124 0.939 . S
C141 C136 1.400 . S
C141 C140 1.389 . S
C142 P116 1.819 . S
C142 C143 1.391 . S
C142 C147 1.391 . S
C143 H125 0.941 . S
C143 C142 1.391 . S
C143 C144 1.396 . S
C144 H128 0.939 . S
C144 C143 1.396 . S
C144 C145 1.397 . S
C145 C144 1.397 . S
C145 C146 1.385 . S
C146 H129 0.940 . S
C146 C145 1.385 . S
C146 C147 1.388 . S
C147 H126 0.939 . S
C147 C142 1.391 . S
C147 C146 1.388 . S
P148 O159 1.490 . S
P148 C162 1.812 . S
P148 C168 1.803 . S
P148 C174 1.819 . S
H149 C163 0.941 . S
H150 C164 0.939 1_545 S
H151 C166 0.940 . S
H152 C167 0.940 . S
H153 C169 0.939 . S
H154 C170 0.942 . S
H155 C172 0.940 . S
H156 C173 0.939 . S
H157 C175 0.941 . S
H158 C179 0.939 . S
O159 P148 1.490 . S
H160 C176 0.939 . S
H161 C178 0.940 . S
C162 P148 1.812 . S
C162 C163 1.389 . S
C162 C167 1.391 . S
C163 H149 0.941 . S
C163 C162 1.389 . S
C163 C164 1.397 . S
C164 H150 0.939 1_565 S
C164 C163 1.397 . S
C164 C165 1.378 . S
C165 C164 1.378 . S
C165 C166 1.378 . S
C166 H151 0.940 . S
C166 C165 1.378 . S
C166 C167 1.396 . S
C167 H152 0.940 . S
C167 C162 1.391 . S
C167 C166 1.396 . S
C168 P148 1.803 . S
C168 C169 1.378 . S
C168 C173 1.400 . S
C169 H153 0.939 . S
C169 C168 1.378 . S
C169 C170 1.361 . S
C170 H154 0.942 . S
C170 C169 1.361 . S
C170 C171 1.369 . S
C171 C170 1.369 . S
C171 C172 1.404 . S
C172 H155 0.940 . S
C172 C171 1.404 . S
C172 C173 1.389 . S
C173 H156 0.939 . S
C173 C168 1.400 . S
C173 C172 1.389 . S
C174 P148 1.819 . S
C174 C175 1.391 . S
C174 C179 1.391 . S
C175 H157 0.941 . S
C175 C174 1.391 . S
C175 C176 1.396 . S
C176 H160 0.939 . S
C176 C175 1.396 . S
C176 C177 1.397 . S
C177 C176 1.397 . S
C177 C178 1.385 . S
C178 H161 0.940 . S
C178 C177 1.385 . S
C178 C179 1.388 . S
C179 H158 0.939 . S
C179 C174 1.391 . S
C179 C178 1.388 . S
P180 O191 1.490 . S
P180 C194 1.812 . S
P180 C200 1.803 . S
P180 C206 1.819 . S
H181 C195 0.941 . S
H182 C196 0.939 . S
H183 C198 0.940 . S
H184 C199 0.940 . S
H185 C201 0.939 . S
H186 C202 0.942 . S
H187 C204 0.940 . S
H188 C205 0.939 . S
H189 C207 0.941 . S
H190 C211 0.939 . S
O191 P180 1.490 . S
H192 C208 0.939 . S
H193 C210 0.940 . S
C194 P180 1.812 . S
C194 C195 1.389 . S
C194 C199 1.391 . S
C195 H181 0.941 . S
C195 C194 1.389 . S
C195 C196 1.397 . S
C196 H182 0.939 . S
C196 C195 1.397 . S
C196 C197 1.378 . S
C197 C196 1.378 . S
C197 C198 1.378 . S
C198 H183 0.940 . S
C198 C197 1.378 . S
C198 C199 1.396 . S
C199 H184 0.940 . S
C199 C194 1.391 . S
C199 C198 1.396 . S
C200 P180 1.803 . S
C200 C201 1.378 . S
C200 C205 1.400 . S
C201 H185 0.939 . S
C201 C200 1.378 . S
C201 C202 1.361 . S
C202 H186 0.942 . S
C202 C201 1.361 . S
C202 C203 1.369 . S
C203 C202 1.369 . S
C203 C204 1.404 . S
C204 H187 0.940 . S
C204 C203 1.404 . S
C204 C205 1.389 . S
C205 H188 0.939 . S
C205 C200 1.400 . S
C205 C204 1.389 . S
C206 P180 1.819 . S
C206 C207 1.391 . S
C206 C211 1.391 . S
C207 H189 0.941 . S
C207 C206 1.391 . S
C207 C208 1.396 . S
C208 H192 0.939 . S
C208 C207 1.396 . S
C208 C209 1.397 . S
C209 C208 1.397 . S
C209 C210 1.385 . S
C210 H193 0.940 . S
C210 C209 1.385 . S
C210 C211 1.388 . S
C211 H190 0.939 . S
C211 C206 1.391 . S
C211 C210 1.388 . S
P212 O223 1.490 . S
P212 C226 1.812 . S
P212 C232 1.803 . S
P212 C238 1.819 . S
H213 C227 0.941 . S
H214 C228 0.939 . S
H215 C230 0.940 . S
H216 C231 0.940 . S
H217 C233 0.939 . S
H218 C234 0.942 . S
H219 C236 0.940 . S
H220 C237 0.939 . S
H221 C239 0.941 . S
H222 C243 0.939 . S
O223 P212 1.490 . S
H224 C240 0.939 . S
H225 C242 0.940 . S
C226 P212 1.812 . S
C226 C227 1.389 . S
C226 C231 1.391 . S
C227 H213 0.941 . S
C227 C226 1.389 . S
C227 C228 1.397 . S
C228 H214 0.939 . S
C228 C227 1.397 . S
C228 C229 1.378 . S
C229 C228 1.378 . S
C229 C230 1.378 . S
C230 H215 0.940 . S
C230 C229 1.378 . S
C230 C231 1.396 . S
C231 H216 0.940 . S
C231 C226 1.391 . S
C231 C230 1.396 . S
C232 P212 1.803 . S
C232 C233 1.378 . S
C232 C237 1.400 . S
C233 H217 0.939 . S
C233 C232 1.378 . S
C233 C234 1.361 . S
C234 H218 0.942 . S
C234 C233 1.361 . S
C234 C235 1.369 . S
C235 C234 1.369 . S
C235 C236 1.404 . S
C236 H219 0.940 . S
C236 C235 1.404 . S
C236 C237 1.389 . S
C237 H220 0.939 . S
C237 C232 1.400 . S
C237 C236 1.389 . S
C238 P212 1.819 . S
C238 C239 1.391 . S
C238 C243 1.391 . S
C239 H221 0.941 . S
C239 C238 1.391 . S
C239 C240 1.396 . S
C240 H224 0.939 . S
C240 C239 1.396 . S
C240 C241 1.397 . S
C241 C240 1.397 . S
C241 C242 1.385 . S
C242 H225 0.940 . S
C242 C241 1.385 . S
C242 C243 1.388 . S
C243 H222 0.939 . S
C243 C238 1.391 . S
C243 C242 1.388 . S
P244 O255 1.490 1_556 S
P244 C258 1.812 . S
P244 C264 1.803 . S
P244 C270 1.819 . S
H245 C259 0.941 . S
H246 C260 0.939 . S
H247 C262 0.940 . S
H248 C263 0.940 . S
H249 C265 0.939 . S
H250 C266 0.942 . S
H251 C268 0.940 . S
H252 C269 0.939 . S
H253 C271 0.941 . S
H254 C275 0.939 . S
O255 P244 1.490 1_554 S
H256 C272 0.939 . S
H257 C274 0.940 . S
C258 P244 1.812 . S
C258 C259 1.389 1_556 S
C258 C263 1.391 . S
C259 H245 0.941 . S
C259 C258 1.389 1_554 S
C259 C260 1.397 . S
C260 H246 0.939 . S
C260 C259 1.397 . S
C260 C261 1.378 1_554 S
C261 C260 1.378 1_556 S
C261 C262 1.378 . S
C262 H247 0.940 . S
C262 C261 1.378 . S
C262 C263 1.396 . S
C263 H248 0.940 . S
C263 C258 1.391 . S
C263 C262 1.396 . S
C264 P244 1.803 . S
C264 C265 1.378 . S
C264 C269 1.400 . S
C265 H249 0.939 . S
C265 C264 1.378 . S
C265 C266 1.361 . S
C266 H250 0.942 . S
C266 C265 1.361 . S
C266 C267 1.369 . S
C267 C266 1.369 . S
C267 C268 1.404 . S
C268 H251 0.940 . S
C268 C267 1.404 . S
C268 C269 1.389 . S
C269 H252 0.939 . S
C269 C264 1.400 . S
C269 C268 1.389 . S
C270 P244 1.819 . S
C270 C271 1.391 1_556 S
C270 C275 1.391 . S
C271 H253 0.941 . S
C271 C270 1.391 1_554 S
C271 C272 1.396 . S
C272 H256 0.939 . S
C272 C271 1.396 . S
C272 C273 1.397 1_554 S
C273 C272 1.397 1_556 S
C273 C274 1.385 . S
C274 H257 0.940 . S
C274 C273 1.385 . S
C274 C275 1.388 . S
C275 H254 0.939 . S
C275 C270 1.391 . S
C275 C274 1.388 . S
P276 O287 1.490 . S
P276 C290 1.812 . S
P276 C296 1.803 . S
P276 C302 1.819 . S
H277 C291 0.941 . S
H278 C292 0.939 . S
H279 C294 0.940 . S
H280 C295 0.940 . S
H281 C297 0.939 . S
H282 C298 0.942 . S
H283 C300 0.940 . S
H284 C301 0.939 . S
H285 C303 0.941 . S
H286 C307 0.939 . S
O287 P276 1.490 . S
H288 C304 0.939 . S
H289 C306 0.940 . S
C290 P276 1.812 . S
C290 C291 1.389 . S
C290 C295 1.391 . S
C291 H277 0.941 . S
C291 C290 1.389 . S
C291 C292 1.397 . S
C292 H278 0.939 . S
C292 C291 1.397 . S
C292 C293 1.378 . S
C293 C292 1.378 . S
C293 C294 1.378 . S
C294 H279 0.940 . S
C294 C293 1.378 . S
C294 C295 1.396 . S
C295 H280 0.940 . S
C295 C290 1.391 . S
C295 C294 1.396 . S
C296 P276 1.803 . S
C296 C297 1.378 . S
C296 C301 1.400 . S
C297 H281 0.939 . S
C297 C296 1.378 . S
C297 C298 1.361 . S
C298 H282 0.942 . S
C298 C297 1.361 . S
C298 C299 1.369 . S
C299 C298 1.369 . S
C299 C300 1.404 . S
C300 H283 0.940 . S
C300 C299 1.404 . S
C300 C301 1.389 . S
C301 H284 0.939 . S
C301 C296 1.400 . S
C301 C300 1.389 . S
C302 P276 1.819 . S
C302 C303 1.391 . S
C302 C307 1.391 . S
C303 H285 0.941 . S
C303 C302 1.391 . S
C303 C304 1.396 . S
C304 H288 0.939 . S
C304 C303 1.396 . S
C304 C305 1.397 . S
C305 C304 1.397 . S
C305 C306 1.385 . S
C306 H289 0.940 . S
C306 C305 1.385 . S
C306 C307 1.388 . S
C307 H286 0.939 . S
C307 C302 1.391 . S
C307 C306 1.388 . S
P308 O319 1.490 . S
P308 C322 1.812 . S
P308 C328 1.803 . S
P308 C334 1.819 . S
H309 C323 0.941 . S
H310 C324 0.939 . S
H311 C326 0.940 . S
H312 C327 0.940 . S
H313 C329 0.939 . S
H314 C330 0.942 . S
H315 C332 0.940 . S
H316 C333 0.939 . S
H317 C335 0.941 . S
H318 C339 0.939 . S
O319 P308 1.490 . S
H320 C336 0.939 . S
H321 C338 0.940 . S
C322 P308 1.812 . S
C322 C323 1.389 . S
C322 C327 1.391 . S
C323 H309 0.941 . S
C323 C322 1.389 . S
C323 C324 1.397 . S
C324 H310 0.939 . S
C324 C323 1.397 . S
C324 C325 1.378 . S
C325 C324 1.378 . S
C325 C326 1.378 . S
C326 H311 0.940 . S
C326 C325 1.378 . S
C326 C327 1.396 . S
C327 H312 0.940 . S
C327 C322 1.391 . S
C327 C326 1.396 . S
C328 P308 1.803 . S
C328 C329 1.378 . S
C328 C333 1.400 . S
C329 H313 0.939 . S
C329 C328 1.378 . S
C329 C330 1.361 . S
C330 H314 0.942 . S
C330 C329 1.361 . S
C330 C331 1.369 . S
C331 C330 1.369 . S
C331 C332 1.404 . S
C332 H315 0.940 . S
C332 C331 1.404 . S
C332 C333 1.389 . S
C333 H316 0.939 . S
C333 C328 1.400 . S
C333 C332 1.389 . S
C334 P308 1.819 . S
C334 C335 1.391 . S
C334 C339 1.391 . S
C335 H317 0.941 . S
C335 C334 1.391 . S
C335 C336 1.396 1_655 S
C336 H320 0.939 . S
C336 C335 1.396 1_455 S
C336 C337 1.397 . S
C337 C336 1.397 . S
C337 C338 1.385 . S
C338 H321 0.940 . S
C338 C337 1.385 . S
C338 C339 1.388 1_455 S
C339 H318 0.939 . S
C339 C334 1.391 . S
C339 C338 1.388 1_655 S
C340 C341 1.363 . S
C340 C346 1.379 . S
C340 N348 1.356 . S
C341 C340 1.363 . S
C341 C347 1.363 . S
C342 C343 1.363 . S
C342 C347 1.379 . S
C342 N349 1.356 . S
C343 C342 1.363 . S
C343 C346 1.363 . S
N344 C346 1.356 1_545 S
N344 H356 0.984 . S
N344 H357 0.985 . S
N345 C347 1.356 . S
N345 H350 0.984 . S
N345 H351 0.985 . S
C346 C340 1.379 . S
C346 C343 1.363 . S
C346 N344 1.356 1_565 S
C347 C341 1.363 . S
C347 C342 1.379 . S
C347 N345 1.356 . S
N348 C340 1.356 . S
N348 H354 0.984 . S
N348 H355 0.984 . S
N349 C342 1.356 . S
N349 H352 0.984 . S
N349 H353 0.985 . S
H350 N345 0.984 . S
H351 N345 0.985 . S
H352 N349 0.984 . S
H353 N349 0.985 . S
H354 N348 0.984 . S
H355 N348 0.984 . S
H356 N344 0.984 . S
H357 N344 0.985 . S
C358 C359 1.363 . S
C358 C364 1.379 . S
C358 N366 1.356 . S
C359 C358 1.363 . S
C359 C365 1.363 . S
C360 C361 1.363 . S
C360 C365 1.379 . S
C360 N367 1.356 . S
C361 C360 1.363 . S
C361 C364 1.363 . S
N362 C364 1.356 . S
N362 H374 0.984 . S
N362 H375 0.985 . S
N363 C365 1.356 . S
N363 H368 0.984 . S
N363 H369 0.985 . S
C364 C358 1.379 . S
C364 C361 1.363 . S
C364 N362 1.356 . S
C365 C359 1.363 . S
C365 C360 1.379 . S
C365 N363 1.356 . S
N366 C358 1.356 . S
N366 H372 0.984 . S
N366 H373 0.984 . S
N367 C360 1.356 . S
N367 H370 0.984 . S
N367 H371 0.985 . S
H368 N363 0.984 . S
H369 N363 0.985 . S
H370 N367 0.984 . S
H371 N367 0.985 . S
H372 N366 0.984 . S
H373 N366 0.984 . S
H374 N362 0.984 . S
H375 N362 0.985 . S
C376 C377 1.363 . S
C376 C382 1.379 . S
C376 N384 1.356 . S
C377 C376 1.363 . S
C377 C383 1.363 . S
C378 C379 1.363 . S
C378 C383 1.379 . S
C378 N385 1.356 1_545 S
C379 C378 1.363 . S
C379 C382 1.363 . S
N380 C382 1.356 . S
N380 H392 0.984 . S
N380 H393 0.985 1_545 S
N381 C383 1.356 . S
N381 H386 0.984 . S
N381 H387 0.985 . S
C382 C376 1.379 . S
C382 C379 1.363 . S
C382 N380 1.356 . S
C383 C377 1.363 . S
C383 C378 1.379 . S
C383 N381 1.356 . S
N384 C376 1.356 . S
N384 H390 0.984 1_554 S
N384 H391 0.984 . S
N385 C378 1.356 1_565 S
N385 H388 0.984 . S
N385 H389 0.985 . S
H386 N381 0.984 . S
H387 N381 0.985 . S
H388 N385 0.984 . S
H389 N385 0.985 . S
H390 N384 0.984 1_556 S
H391 N384 0.984 . S
H392 N380 0.984 . S
H393 N380 0.985 1_565 S
C394 C395 1.363 . S
C394 C400 1.379 . S
C394 N402 1.356 . S
C395 C394 1.363 . S
C395 C401 1.363 . S
C396 C397 1.363 . S
C396 C401 1.379 . S
C396 N403 1.356 . S
C397 C396 1.363 . S
C397 C400 1.363 . S
N398 C400 1.356 . S
N398 H410 0.984 . S
N398 H411 0.985 . S
N399 C401 1.356 . S
N399 H404 0.984 . S
N399 H405 0.985 . S
C400 C394 1.379 . S
C400 C397 1.363 . S
C400 N398 1.356 . S
C401 C395 1.363 . S
C401 C396 1.379 . S
C401 N399 1.356 . S
N402 C394 1.356 . S
N402 H408 0.984 . S
N402 H409 0.984 . S
N403 C396 1.356 . S
N403 H406 0.984 . S
N403 H407 0.985 . S
H404 N399 0.984 . S
H405 N399 0.985 . S
H406 N403 0.984 . S
H407 N403 0.985 . S
H408 N402 0.984 . S
H409 N402 0.984 . S
H410 N398 0.984 . S
H411 N398 0.985 . S
C412 C413 1.363 . S
C412 C418 1.379 . S
C412 N420 1.356 . S
C413 C412 1.363 . S
C413 C419 1.363 . S
C414 C415 1.363 . S
C414 C419 1.379 . S
C414 N421 1.356 . S
C415 C414 1.363 . S
C415 C418 1.363 . S
N416 C418 1.356 . S
N416 H428 0.984 . S
N416 H429 0.985 . S
N417 C419 1.356 . S
N417 H422 0.984 . S
N417 H423 0.985 . S
C418 C412 1.379 . S
C418 C415 1.363 . S
C418 N416 1.356 . S
C419 C413 1.363 . S
C419 C414 1.379 . S
C419 N417 1.356 . S
N420 C412 1.356 . S
N420 H426 0.984 . S
N420 H427 0.984 . S
N421 C414 1.356 . S
N421 H424 0.984 . S
N421 H425 0.985 . S
H422 N417 0.984 . S
H423 N417 0.985 . S
H424 N421 0.984 . S
H425 N421 0.985 . S
H426 N420 0.984 . S
H427 N420 0.984 . S
H428 N416 0.984 . S
H429 N416 0.985 . S
C430 C431 1.363 1_554 S
C430 C436 1.379 1_655 S
C430 N438 1.356 . S
C431 C430 1.363 1_556 S
C431 C437 1.363 . S
C432 C433 1.363 . S
C432 C437 1.379 1_455 S
C432 N439 1.356 . S
C433 C432 1.363 . S
C433 C436 1.363 1_556 S
N434 C436 1.356 . S
N434 H446 0.984 . S
N434 H447 0.985 . S
N435 C437 1.356 . S
N435 H440 0.984 . S
N435 H441 0.985 . S
C436 C430 1.379 1_455 S
C436 C433 1.363 1_554 S
C436 N434 1.356 . S
C437 C431 1.363 . S
C437 C432 1.379 1_655 S
C437 N435 1.356 . S
N438 C430 1.356 . S
N438 H444 0.984 . S
N438 H445 0.984 . S
N439 C432 1.356 . S
N439 H442 0.984 . S
N439 H443 0.985 . S
H440 N435 0.984 . S
H441 N435 0.985 . S
H442 N439 0.984 . S
H443 N439 0.985 . S
H444 N438 0.984 . S
H445 N438 0.984 . S
H446 N434 0.984 . S
H447 N434 0.985 . S
C448 C449 1.363 . S
C448 C454 1.379 . S
C448 N456 1.356 . S
C449 C448 1.363 . S
C449 C455 1.363 . S
C450 C451 1.363 . S
C450 C455 1.379 . S
C450 N457 1.356 . S
C451 C450 1.363 . S
C451 C454 1.363 . S
N452 C454 1.356 . S
N452 H464 0.984 . S
N452 H465 0.985 . S
N453 C455 1.356 . S
N453 H458 0.984 . S
N453 H459 0.985 . S
C454 C448 1.379 . S
C454 C451 1.363 . S
C454 N452 1.356 . S
C455 C449 1.363 . S
C455 C450 1.379 . S
C455 N453 1.356 . S
N456 C448 1.356 . S
N456 H462 0.984 . S
N456 H463 0.984 . S
N457 C450 1.356 . S
N457 H460 0.984 . S
N457 H461 0.985 . S
H458 N453 0.984 . S
H459 N453 0.985 . S
H460 N457 0.984 . S
H461 N457 0.985 . S
H462 N456 0.984 . S
H463 N456 0.984 . S
H464 N452 0.984 . S
H465 N452 0.985 . S
C466 C467 1.363 . S
C466 C472 1.379 . S
C466 N474 1.356 . S
C467 C466 1.363 . S
C467 C473 1.363 . S
C468 C469 1.363 . S
C468 C473 1.379 . S
C468 N475 1.356 . S
C469 C468 1.363 . S
C469 C472 1.363 . S
N470 C472 1.356 . S
N470 H482 0.984 . S
N470 H483 0.985 . S
N471 C473 1.356 . S
N471 H476 0.984 . S
N471 H477 0.985 . S
C472 C466 1.379 . S
C472 C469 1.363 . S
C472 N470 1.356 . S
C473 C467 1.363 . S
C473 C468 1.379 . S
C473 N471 1.356 . S
N474 C466 1.356 . S
N474 H480 0.984 . S
N474 H481 0.984 . S
N475 C468 1.356 . S
N475 H478 0.984 . S
N475 H479 0.985 . S
H476 N471 0.984 . S
H477 N471 0.985 . S
H478 N475 0.984 . S
H479 N475 0.985 . S
H480 N474 0.984 . S
H481 N474 0.984 . S
H482 N470 0.984 . S
H483 N470 0.985 . S
C484 C485 1.363 . S
C484 C490 1.379 . S
C484 N492 1.356 . S
C485 C484 1.363 . S
C485 C491 1.363 . S
C486 C487 1.363 . S
C486 C491 1.379 1_565 S
C486 N493 1.356 . S
C487 C486 1.363 . S
C487 C490 1.363 1_565 S
N488 C490 1.356 . S
N488 H500 0.984 . S
N488 H501 0.985 1_545 S
N489 C491 1.356 . S
N489 H494 0.984 . S
N489 H495 0.985 . S
C490 C484 1.379 . S
C490 C487 1.363 1_545 S
C490 N488 1.356 . S
C491 C485 1.363 . S
C491 C486 1.379 1_545 S
C491 N489 1.356 . S
N492 C484 1.356 . S
N492 H498 0.984 . S
N492 H499 0.984 . S
N493 C486 1.356 . S
N493 H496 0.984 . S
N493 H497 0.985 . S
H494 N489 0.984 . S
H495 N489 0.985 . S
H496 N493 0.984 . S
H497 N493 0.985 . S
H498 N492 0.984 . S
H499 N492 0.984 . S
H500 N488 0.984 . S
H501 N488 0.985 1_565 S
C502 C503 1.363 . S
C502 C508 1.379 . S
C502 N510 1.356 . S
C503 C502 1.363 . S
C503 C509 1.363 . S
C504 C505 1.363 . S
C504 C509 1.379 . S
C504 N511 1.356 . S
C505 C504 1.363 . S
C505 C508 1.363 . S
N506 C508 1.356 . S
N506 H518 0.984 . S
N506 H519 0.985 . S
N507 C509 1.356 . S
N507 H512 0.984 . S
N507 H513 0.985 . S
C508 C502 1.379 . S
C508 C505 1.363 . S
C508 N506 1.356 . S
C509 C503 1.363 . S
C509 C504 1.379 . S
C509 N507 1.356 . S
N510 C502 1.356 . S
N510 H516 0.984 . S
N510 H517 0.984 . S
N511 C504 1.356 . S
N511 H514 0.984 . S
N511 H515 0.985 . S
H512 N507 0.984 . S
H513 N507 0.985 . S
H514 N511 0.984 . S
H515 N511 0.985 . S
H516 N510 0.984 . S
H517 N510 0.984 . S
H518 N506 0.984 . S
H519 N506 0.985 . S
C520 C521 1.363 . S
C520 C526 1.379 1_565 S
C520 N528 1.356 . S
C521 C520 1.363 . S
C521 C527 1.363 1_556 S
C522 C523 1.363 1_554 S
C522 C527 1.379 1_545 S
C522 N529 1.356 . S
C523 C522 1.363 1_556 S
C523 C526 1.363 . S
N524 C526 1.356 . S
N524 H536 0.984 . S
N524 H537 0.985 . S
N525 C527 1.356 . S
N525 H530 0.984 . S
N525 H531 0.985 . S
C526 C520 1.379 1_545 S
C526 C523 1.363 . S
C526 N524 1.356 . S
C527 C521 1.363 1_554 S
C527 C522 1.379 1_565 S
C527 N525 1.356 . S
N528 C520 1.356 . S
N528 H534 0.984 . S
N528 H535 0.984 . S
N529 C522 1.356 . S
N529 H532 0.984 . S
N529 H533 0.985 . S
H530 N525 0.984 . S
H531 N525 0.985 . S
H532 N529 0.984 . S
H533 N529 0.985 . S
H534 N528 0.984 . S
H535 N528 0.984 . S
H536 N524 0.984 . S
H537 N524 0.985 . S
C538 C539 1.363 . S
C538 C544 1.379 . S
C538 N546 1.356 . S
C539 C538 1.363 . S
C539 C545 1.363 . S
C540 C541 1.363 . S
C540 C545 1.379 . S
C540 N547 1.356 . S
C541 C540 1.363 . S
C541 C544 1.363 . S
N542 C544 1.356 . S
N542 H554 0.984 . S
N542 H555 0.985 . S
N543 C545 1.356 . S
N543 H548 0.984 . S
N543 H549 0.985 . S
C544 C538 1.379 . S
C544 C541 1.363 . S
C544 N542 1.356 . S
C545 C539 1.363 . S
C545 C540 1.379 . S
C545 N543 1.356 . S
N546 C538 1.356 . S
N546 H552 0.984 . S
N546 H553 0.984 . S
N547 C540 1.356 . S
N547 H550 0.984 . S
N547 H551 0.985 . S
H548 N543 0.984 . S
H549 N543 0.985 . S
H550 N547 0.984 . S
H551 N547 0.985 . S
H552 N546 0.984 . S
H553 N546 0.984 . S
H554 N542 0.984 . S
H555 N542 0.985 . S
C556 C557 1.363 . S
C556 C562 1.379 . S
C556 N564 1.356 . S
C557 C556 1.363 . S
C557 C563 1.363 . S
C558 C559 1.363 . S
C558 C563 1.379 . S
C558 N565 1.356 . S
C559 C558 1.363 . S
C559 C562 1.363 . S
N560 C562 1.356 . S
N560 H572 0.984 . S
N560 H573 0.985 . S
N561 C563 1.356 . S
N561 H566 0.984 . S
N561 H567 0.985 . S
C562 C556 1.379 . S
C562 C559 1.363 . S
C562 N560 1.356 . S
C563 C557 1.363 . S
C563 C558 1.379 . S
C563 N561 1.356 . S
N564 C556 1.356 . S
N564 H570 0.984 . S
N564 H571 0.984 . S
N565 C558 1.356 . S
N565 H568 0.984 . S
N565 H569 0.985 . S
H566 N561 0.984 . S
H567 N561 0.985 . S
H568 N565 0.984 . S
H569 N565 0.985 . S
H570 N564 0.984 . S
H571 N564 0.984 . S
H572 N560 0.984 . S
H573 N560 0.985 . S
C574 C575 1.363 1_655 S
C574 C580 1.379 . S
C574 N582 1.356 1_655 S
C575 C574 1.363 1_455 S
C575 C581 1.363 1_455 S
C576 C577 1.363 . S
C576 C581 1.379 . S
C576 N583 1.356 . S
C577 C576 1.363 . S
C577 C580 1.363 . S
N578 C580 1.356 . S
N578 H590 0.984 . S
N578 H591 0.985 . S
N579 C581 1.356 1_455 S
N579 H584 0.984 . S
N579 H585 0.985 1_455 S
C580 C574 1.379 . S
C580 C577 1.363 . S
C580 N578 1.356 . S
C581 C575 1.363 1_655 S
C581 C576 1.379 . S
C581 N579 1.356 1_655 S
N582 C574 1.356 1_455 S
N582 H588 0.984 . S
N582 H589 0.984 . S
N583 C576 1.356 . S
N583 H586 0.984 . S
N583 H587 0.985 . S
H584 N579 0.984 . S
H585 N579 0.985 1_655 S
H586 N583 0.984 . S
H587 N583 0.985 . S
H588 N582 0.984 . S
H589 N582 0.984 . S
H590 N578 0.984 . S
H591 N578 0.985 . S
C592 C593 1.363 . S
C592 C598 1.379 . S
C592 N600 1.356 . S
C593 C592 1.363 . S
C593 C599 1.363 . S
C594 C595 1.363 . S
C594 C599 1.379 . S
C594 N601 1.356 . S
C595 C594 1.363 . S
C595 C598 1.363 . S
N596 C598 1.356 . S
N596 H608 0.984 . S
N596 H609 0.985 . S
N597 C599 1.356 . S
N597 H602 0.984 . S
N597 H603 0.985 . S
C598 C592 1.379 . S
C598 C595 1.363 . S
C598 N596 1.356 . S
C599 C593 1.363 . S
C599 C594 1.379 . S
C599 N597 1.356 . S
N600 C592 1.356 . S
N600 H606 0.984 . S
N600 H607 0.984 . S
N601 C594 1.356 . S
N601 H604 0.984 . S
N601 H605 0.985 . S
H602 N597 0.984 . S
H603 N597 0.985 . S
H604 N601 0.984 . S
H605 N601 0.985 . S
H606 N600 0.984 . S
H607 N600 0.984 . S
H608 N596 0.984 . S
H609 N596 0.985 . S
C610 C611 1.363 . S
C610 C616 1.379 . S
C610 N618 1.356 . S
C611 C610 1.363 . S
C611 C617 1.363 . S
C612 C613 1.363 . S
C612 C617 1.379 . S
C612 N619 1.356 . S
C613 C612 1.363 . S
C613 C616 1.363 . S
N614 C616 1.356 1_455 S
N614 H626 0.984 . S
N614 H627 0.985 . S
N615 C617 1.356 . S
N615 H620 0.984 . S
N615 H621 0.985 . S
C616 C610 1.379 . S
C616 C613 1.363 . S
C616 N614 1.356 1_655 S
C617 C611 1.363 . S
C617 C612 1.379 . S
C617 N615 1.356 . S
N618 C610 1.356 . S
N618 H624 0.984 . S
N618 H625 0.984 . S
N619 C612 1.356 . S
N619 H622 0.984 . S
N619 H623 0.985 . S
H620 N615 0.984 . S
H621 N615 0.985 . S
H622 N619 0.984 . S
H623 N619 0.985 . S
H624 N618 0.984 . S
H625 N618 0.984 . S
H626 N614 0.984 . S
H627 N614 0.985 . S
C628 C629 1.363 . S
C628 C634 1.379 . S
C628 N636 1.356 . S
C629 C628 1.363 . S
C629 C635 1.363 . S
C630 C631 1.363 . S
C630 C635 1.379 . S
C630 N637 1.356 . S
C631 C630 1.363 . S
C631 C634 1.363 . S
N632 C634 1.356 . S
N632 H644 0.984 . S
N632 H645 0.985 . S
N633 C635 1.356 . S
N633 H638 0.984 . S
N633 H639 0.985 . S
C634 C628 1.379 . S
C634 C631 1.363 . S
C634 N632 1.356 . S
C635 C629 1.363 . S
C635 C630 1.379 . S
C635 N633 1.356 . S
N636 C628 1.356 . S
N636 H642 0.984 . S
N636 H643 0.984 . S
N637 C630 1.356 . S
N637 H640 0.984 . S
N637 H641 0.985 . S
H638 N633 0.984 . S
H639 N633 0.985 . S
H640 N637 0.984 . S
H641 N637 0.985 . S
H642 N636 0.984 . S
H643 N636 0.984 . S
H644 N632 0.984 . S
H645 N632 0.985 . S
C646 C647 1.363 . S
C646 C652 1.379 . S
C646 N654 1.356 . S
C647 C646 1.363 . S
C647 C653 1.363 . S
C648 C649 1.363 . S
C648 C653 1.379 . S
C648 N655 1.356 . S
C649 C648 1.363 . S
C649 C652 1.363 . S
N650 C652 1.356 . S
N650 H662 0.984 . S
N650 H663 0.985 . S
N651 C653 1.356 . S
N651 H656 0.984 . S
N651 H657 0.985 . S
C652 C646 1.379 . S
C652 C649 1.363 . S
C652 N650 1.356 . S
C653 C647 1.363 . S
C653 C648 1.379 . S
C653 N651 1.356 . S
N654 C646 1.356 . S
N654 H660 0.984 . S
N654 H661 0.984 . S
N655 C648 1.356 . S
N655 H658 0.984 . S
N655 H659 0.985 . S
H656 N651 0.984 . S
H657 N651 0.985 . S
H658 N655 0.984 . S
H659 N655 0.985 . S
H660 N654 0.984 . S
H661 N654 0.984 . S
H662 N650 0.984 . S
H663 N650 0.985 . S
C664 C665 1.363 . S
C664 C670 1.379 . S
C664 N672 1.356 . S
C665 C664 1.363 . S
C665 C671 1.363 . S
C666 C667 1.363 . S
C666 C671 1.379 . S
C666 N673 1.356 . S
C667 C666 1.363 . S
C667 C670 1.363 . S
N668 C670 1.356 . S
N668 H680 0.984 . S
N668 H681 0.985 . S
N669 C671 1.356 . S
N669 H674 0.984 . S
N669 H675 0.985 . S
C670 C664 1.379 . S
C670 C667 1.363 . S
C670 N668 1.356 . S
C671 C665 1.363 . S
C671 C666 1.379 . S
C671 N669 1.356 . S
N672 C664 1.356 . S
N672 H678 0.984 . S
N672 H679 0.984 . S
N673 C666 1.356 . S
N673 H676 0.984 . S
N673 H677 0.985 . S
H674 N669 0.984 . S
H675 N669 0.985 . S
H676 N673 0.984 . S
H677 N673 0.985 . S
H678 N672 0.984 . S
H679 N672 0.984 . S
H680 N668 0.984 . S
H681 N668 0.985 . S
C682 C683 1.363 . S
C682 C688 1.379 . S
C682 N690 1.356 . S
C683 C682 1.363 . S
C683 C689 1.363 . S
C684 C685 1.363 . S
C684 C689 1.379 . S
C684 N691 1.356 . S
C685 C684 1.363 . S
C685 C688 1.363 . S
N686 C688 1.356 . S
N686 H698 0.984 . S
N686 H699 0.985 . S
N687 C689 1.356 . S
N687 H692 0.984 . S
N687 H693 0.985 . S
C688 C682 1.379 . S
C688 C685 1.363 . S
C688 N686 1.356 . S
C689 C683 1.363 . S
C689 C684 1.379 . S
C689 N687 1.356 . S
N690 C682 1.356 . S
N690 H696 0.984 . S
N690 H697 0.984 . S
N691 C684 1.356 . S
N691 H694 0.984 . S
N691 H695 0.985 . S
H692 N687 0.984 . S
H693 N687 0.985 . S
H694 N691 0.984 . S
H695 N691 0.985 . S
H696 N690 0.984 . S
H697 N690 0.984 . S
H698 N686 0.984 . S
H699 N686 0.985 . S
C700 C701 1.363 . S
C700 C706 1.379 . S
C700 N708 1.356 . S
C701 C700 1.363 . S
C701 C707 1.363 . S
C702 C703 1.363 . S
C702 C707 1.379 . S
C702 N709 1.356 . S
C703 C702 1.363 . S
C703 C706 1.363 . S
N704 C706 1.356 . S
N704 H716 0.984 . S
N704 H717 0.985 . S
N705 C707 1.356 . S
N705 H710 0.984 . S
N705 H711 0.985 . S
C706 C700 1.379 . S
C706 C703 1.363 . S
C706 N704 1.356 . S
C707 C701 1.363 . S
C707 C702 1.379 . S
C707 N705 1.356 . S
N708 C700 1.356 . S
N708 H714 0.984 . S
N708 H715 0.984 . S
N709 C702 1.356 . S
N709 H712 0.984 . S
N709 H713 0.985 . S
H710 N705 0.984 . S
H711 N705 0.985 . S
H712 N709 0.984 . S
H713 N709 0.985 . S
H714 N708 0.984 . S
H715 N708 0.984 . S
H716 N704 0.984 . S
H717 N704 0.985 . S
C718 C719 1.363 . S
C718 C724 1.379 . S
C718 N726 1.356 . S
C719 C718 1.363 . S
C719 C725 1.363 . S
C720 C721 1.363 . S
C720 C725 1.379 . S
C720 N727 1.356 . S
C721 C720 1.363 . S
C721 C724 1.363 . S
N722 C724 1.356 . S
N722 H734 0.984 . S
N722 H735 0.985 . S
N723 C725 1.356 . S
N723 H728 0.984 . S
N723 H729 0.985 . S
C724 C718 1.379 . S
C724 C721 1.363 . S
C724 N722 1.356 . S
C725 C719 1.363 . S
C725 C720 1.379 . S
C725 N723 1.356 . S
N726 C718 1.356 . S
N726 H732 0.984 . S
N726 H733 0.984 . S
N727 C720 1.356 . S
N727 H730 0.984 . S
N727 H731 0.985 . S
H728 N723 0.984 . S
H729 N723 0.985 . S
H730 N727 0.984 . S
H731 N727 0.985 . S
H732 N726 0.984 . S
H733 N726 0.984 . S
H734 N722 0.984 . S
H735 N722 0.985 . S
C736 C737 1.363 . S
C736 C742 1.379 . S
C736 N744 1.356 . S
C737 C736 1.363 . S
C737 C743 1.363 . S
C738 C739 1.363 . S
C738 C743 1.379 . S
C738 N745 1.356 . S
C739 C738 1.363 . S
C739 C742 1.363 . S
N740 C742 1.356 . S
N740 H752 0.984 . S
N740 H753 0.985 . S
N741 C743 1.356 . S
N741 H746 0.984 . S
N741 H747 0.985 . S
C742 C736 1.379 . S
C742 C739 1.363 . S
C742 N740 1.356 . S
C743 C737 1.363 . S
C743 C738 1.379 . S
C743 N741 1.356 . S
N744 C736 1.356 . S
N744 H750 0.984 . S
N744 H751 0.984 . S
N745 C738 1.356 . S
N745 H748 0.984 . S
N745 H749 0.985 . S
H746 N741 0.984 . S
H747 N741 0.985 . S
H748 N745 0.984 . S
H749 N745 0.985 . S
H750 N744 0.984 . S
H751 N744 0.984 . S
H752 N740 0.984 . S
H753 N740 0.985 . S
C754 C755 1.363 1_554 S
C754 C760 1.379 . S
C754 N762 1.356 . S
C755 C754 1.363 1_556 S
C755 C761 1.363 . S
C756 C757 1.363 . S
C756 C761 1.379 . S
C756 N763 1.356 . S
C757 C756 1.363 . S
C757 C760 1.363 1_556 S
N758 C760 1.356 . S
N758 H770 0.984 . S
N758 H771 0.987 . S
N759 C761 1.356 . S
N759 H764 0.984 . S
N759 H765 0.985 . S
C760 C754 1.379 . S
C760 C757 1.363 1_554 S
C760 N758 1.356 . S
C761 C755 1.363 . S
C761 C756 1.379 . S
C761 N759 1.356 . S
N762 C754 1.356 . S
N762 H768 0.984 . S
N762 H769 0.984 . S
N763 C756 1.356 . S
N763 H766 0.984 . S
N763 H767 0.985 . S
H764 N759 0.984 . S
H765 N759 0.985 . S
H766 N763 0.984 . S
H767 N763 0.985 . S
H768 N762 0.984 . S
H769 N762 0.984 . S
H770 N758 0.984 . S
H771 N758 0.987 . S
C341 C7 0.982 . S
C343 C101 1.094 . S
C359 C25 1.079 . S
C361 C133 1.200 . S
C377 C46 1.302 . S
C379 C165 1.205 1_545 S
C397 C209 1.169 . S
C395 C70 1.154 . S
C415 C229 1.033 . S
C413 C28 0.934 . S
C431 C49 1.170 . S
C433 C273 1.185 . S
C449 C67 1.274 . S
C451 C293 1.194 . S
C467 C4 1.084 . S
C469 C337 1.073 . S
C485 C58 1.637 . S
C487 C325 1.707 . S
C505 C241 1.676 . S
C503 C66 1.572 . S
C523 C261 1.954 . S
C521 C3 1.920 . S
C539 C37 1.746 . S
C541 C305 1.702 . S
C559 C145 1.855 . S
C557 C79 1.675 . S
C575 C16 1.757 . S
C577 C177 1.695 . S
C595 C197 1.922 . S
C593 C24 1.891 . S
C613 C113 1.663 1_655 S
C611 C45 1.550 . S
C631 C299 1.470 . S
C629 C19 1.296 . S
C649 C331 1.330 . S
C647 C41 1.339 . S
C665 C62 1.220 . S
C667 C235 1.297 . S
C685 C267 1.512 . S
C683 C82 1.219 . S
C703 C171 1.475 . S
C701 C40 1.305 . S
C719 C61 1.196 . S
C721 C203 1.481 . S
C739 C107 1.327 . S
C737 C83 1.253 . S
C757 C139 1.430 . S
C755 C20 1.322 . S
