# Generated by pormake.
# Topology pyr, (3,6)-cn, num edge types: 1
# Building blocks:
#     Node 0, Type 0, BuildingBlock: BETDAH_clean_linker_0, # of connection points: 3
#     Node 1, Type 0, BuildingBlock: BETDAH_clean_linker_0, # of connection points: 3
#     Node 2, Type 0, BuildingBlock: BETDAH_clean_linker_0, # of connection points: 3
#     Node 3, Type 0, BuildingBlock: BETDAH_clean_linker_0, # of connection points: 3
#     Node 4, Type 0, BuildingBlock: BETDAH_clean_linker_0, # of connection points: 3
#     Node 5, Type 0, BuildingBlock: BETDAH_clean_linker_0, # of connection points: 3
#     Node 6, Type 0, BuildingBlock: BETDAH_clean_linker_0, # of connection points: 3
#     Node 7, Type 0, BuildingBlock: BETDAH_clean_linker_0, # of connection points: 3
#     Node 8, Type 1, BuildingBlock: BETDEL_clean_sbu_0, # of connection points: 6
#     Node 9, Type 1, BuildingBlock: BETDEL_clean_sbu_0, # of connection points: 6
#     Node 10, Type 1, BuildingBlock: BETDEL_clean_sbu_0, # of connection points: 6
#     Node 11, Type 1, BuildingBlock: BETDEL_clean_sbu_0, # of connection points: 6
#     Edge 12, Type (0, 1), BuildingBlock: ZUJKAS_clean_linker_0, # of connection points: 2
#     Edge 13, Type (0, 1), BuildingBlock: ZUJKAS_clean_linker_0, # of connection points: 2
#     Edge 14, Type (0, 1), BuildingBlock: ZUJKAS_clean_linker_0, # of connection points: 2
#     Edge 15, Type (0, 1), BuildingBlock: ZUJKAS_clean_linker_0, # of connection points: 2
#     Edge 16, Type (0, 1), BuildingBlock: ZUJKAS_clean_linker_0, # of connection points: 2
#     Edge 17, Type (0, 1), BuildingBlock: ZUJKAS_clean_linker_0, # of connection points: 2
#     Edge 18, Type (0, 1), BuildingBlock: ZUJKAS_clean_linker_0, # of connection points: 2
#     Edge 19, Type (0, 1), BuildingBlock: ZUJKAS_clean_linker_0, # of connection points: 2
#     Edge 20, Type (0, 1), BuildingBlock: ZUJKAS_clean_linker_0, # of connection points: 2
#     Edge 21, Type (0, 1), BuildingBlock: ZUJKAS_clean_linker_0, # of connection points: 2
#     Edge 22, Type (0, 1), BuildingBlock: ZUJKAS_clean_linker_0, # of connection points: 2
#     Edge 23, Type (0, 1), BuildingBlock: ZUJKAS_clean_linker_0, # of connection points: 2
#     Edge 24, Type (0, 1), BuildingBlock: ZUJKAS_clean_linker_0, # of connection points: 2
#     Edge 25, Type (0, 1), BuildingBlock: ZUJKAS_clean_linker_0, # of connection points: 2
#     Edge 26, Type (0, 1), BuildingBlock: ZUJKAS_clean_linker_0, # of connection points: 2
#     Edge 27, Type (0, 1), BuildingBlock: ZUJKAS_clean_linker_0, # of connection points: 2
#     Edge 28, Type (0, 1), BuildingBlock: ZUJKAS_clean_linker_0, # of connection points: 2
#     Edge 29, Type (0, 1), BuildingBlock: ZUJKAS_clean_linker_0, # of connection points: 2
#     Edge 30, Type (0, 1), BuildingBlock: ZUJKAS_clean_linker_0, # of connection points: 2
#     Edge 31, Type (0, 1), BuildingBlock: ZUJKAS_clean_linker_0, # of connection points: 2
#     Edge 32, Type (0, 1), BuildingBlock: ZUJKAS_clean_linker_0, # of connection points: 2
#     Edge 33, Type (0, 1), BuildingBlock: ZUJKAS_clean_linker_0, # of connection points: 2
#     Edge 34, Type (0, 1), BuildingBlock: ZUJKAS_clean_linker_0, # of connection points: 2
#     Edge 35, Type (0, 1), BuildingBlock: ZUJKAS_clean_linker_0, # of connection points: 2
# Relax obj value: 0.069
# Max RMSD: 0.185
# Mean RMSD: 0.134
data_MOF--net-pyr--node1-BETDEL_clean_sbu_0--node2-BETDAH_clean_linker_0--edge1-ZUJKAS_clean_linker_0
_symmetry_space_group_name_H-M    P1
_symmetry_Int_Tables_number       1
_symmetry_cell_setting            triclinic
loop_
_symmetry_equiv_pos_as_xyz
'x, y, z'
_cell_length_a     46.5743
_cell_length_b     49.285061
_cell_length_c     46.980518
_cell_angle_alpha  92.323623
_cell_angle_beta   90.198891
_cell_angle_gamma 100.68684
loop_
_atom_site_label
_atom_site_type_symbol
_atom_site_fract_x
_atom_site_fract_y
_atom_site_fract_z
_atom_type_partial_charge
H0 H 0.22129 0.16344 0.21726 0.0
H1 H 0.25272 0.22775 0.15989 0.0
H2 H 0.1742 0.23004 0.20667 0.0
C3 C 0.21883 0.18231 0.20726 0.0
C4 C 0.19516 0.19529 0.21461 0.0
C5 C 0.23948 0.19355 0.1872 0.0
C6 C 0.23659 0.21835 0.17487 0.0
C7 C 0.21316 0.23143 0.18153 0.0
C8 C 0.19231 0.21986 0.20137 0.0
N9 N 0.21203 0.25656 0.16828 0.0
C10 C 0.18738 0.26845 0.1657 0.0
H11 H 0.35622 0.83924 0.73729 0.0
H12 H 0.30371 0.89864 0.71459 0.0
H13 H 0.31034 0.83036 0.65693 0.0
C14 C 0.34208 0.84662 0.72222 0.0
C15 C 0.3345 0.83156 0.69643 0.0
C16 C 0.33146 0.87105 0.72891 0.0
C17 C 0.31184 0.87976 0.70988 0.0
C18 C 0.30412 0.86478 0.68397 0.0
C19 C 0.31579 0.84114 0.67736 0.0
N20 N 0.28596 0.87333 0.66312 0.0
C21 C 0.26636 0.89109 0.6678 0.0
H22 H 0.69641 0.36685 0.93757 0.0
H23 H 0.67247 0.43152 0.88859 0.0
H24 H 0.60668 0.36408 0.91395 0.0
C25 C 0.68006 0.37554 0.9264 0.0
C26 C 0.65077 0.36209 0.92691 0.0
C27 C 0.68818 0.40075 0.91289 0.0
C28 C 0.66655 0.41215 0.89911 0.0
C29 C 0.63712 0.39883 0.89964 0.0
C30 C 0.62942 0.37419 0.91384 0.0
N31 N 0.61448 0.41004 0.887 0.0
C32 C 0.61783 0.42559 0.86284 0.0
H33 H 0.82551 0.71479 0.4241 0.0
H34 H 0.89776 0.69912 0.37294 0.0
H35 H 0.83038 0.6318 0.39539 0.0
C36 C 0.83632 0.70055 0.4119 0.0
C37 C 0.82433 0.6722 0.41098 0.0
C38 C 0.86294 0.71049 0.3985 0.0
C39 C 0.87722 0.69174 0.38334 0.0
C40 C 0.86534 0.66334 0.38234 0.0
C41 C 0.83931 0.65376 0.39646 0.0
N42 N 0.87949 0.64365 0.36823 0.0
C43 C 0.89479 0.64837 0.34308 0.0
H44 H 0.89974 0.85456 0.87219 0.0
H45 H 0.8308 0.83161 0.93204 0.0
H46 H 0.82593 0.89606 0.87454 0.0
C47 C 0.87915 0.85742 0.88133 0.0
C48 C 0.8643 0.87726 0.87037 0.0
C49 C 0.86755 0.84108 0.90388 0.0
C50 C 0.84054 0.84451 0.91516 0.0
C51 C 0.8256 0.8643 0.90494 0.0
C52 C 0.83751 0.88078 0.88256 0.0
N53 N 0.79832 0.86628 0.91744 0.0
C54 C 0.7836 0.8882 0.91522 0.0
H55 H 0.75443 0.18029 0.36224 0.0
H56 H 0.77405 0.2322 0.43812 0.0
H57 H 0.70956 0.24827 0.37871 0.0
C58 C 0.75085 0.19781 0.37553 0.0
C59 C 0.73013 0.21354 0.36716 0.0
C60 C 0.76699 0.20445 0.40096 0.0
C61 C 0.76208 0.22701 0.41821 0.0
C62 C 0.74133 0.24269 0.41056 0.0
C63 C 0.72533 0.23596 0.38496 0.0
N64 N 0.73738 0.265 0.42932 0.0
C65 C 0.7172 0.28215 0.4257 0.0
H66 H 0.35139 0.73727 0.15867 0.0
H67 H 0.36964 0.67609 0.21562 0.0
H68 H 0.43219 0.75094 0.2061 0.0
C69 C 0.36597 0.73025 0.17359 0.0
C70 C 0.39277 0.74731 0.18078 0.0
C71 C 0.35749 0.70442 0.18579 0.0
C72 C 0.3759 0.69599 0.2062 0.0
C73 C 0.40287 0.71302 0.21356 0.0
C74 C 0.41109 0.73834 0.20069 0.0
N75 N 0.42288 0.70543 0.23321 0.0
C76 C 0.4177 0.68262 0.25016 0.0
H77 H 0.19162 0.36271 0.65486 0.0
H78 H 0.17574 0.43462 0.70323 0.0
H79 H 0.10798 0.36313 0.69324 0.0
C80 C 0.1773 0.37313 0.66763 0.0
C81 C 0.14868 0.3594 0.67276 0.0
C82 C 0.18741 0.4004 0.67823 0.0
C83 C 0.1687 0.41351 0.69521 0.0
C84 C 0.14006 0.39993 0.70035 0.0
C85 C 0.13014 0.37325 0.68889 0.0
N86 N 0.12012 0.41328 0.71554 0.0
C87 C 0.12659 0.42647 0.74204 0.0
Dy88 Dy 0.02402 0.04249 0.50253 0.0
C89 C 0.98217 0.00436 0.6147 0.0
C90 C 0.04183 0.06675 0.45264 0.0
Dy91 Dy 0.99444 0.02475 0.56211 0.0
O92 O 0.04472 0.04208 0.45932 0.0
O93 O 0.02895 0.07814 0.47314 0.0
O94 O 0.05618 0.01439 0.50914 0.0
O95 O 0.03843 0.03202 0.5445 0.0
C96 C 0.05389 0.01474 0.53669 0.0
C97 C 0.95694 0.0441 0.52747 0.0
O98 O 0.02073 0.06664 0.57421 0.0
O99 O 0.03746 0.08141 0.52938 0.0
O100 O 0.97688 0.02775 0.60627 0.0
O101 O 0.99468 0.99211 0.59442 0.0
O102 O 0.95006 0.03551 0.55277 0.0
O103 O 0.98266 0.04102 0.52292 0.0
O104 O 0.99035 0.00533 0.49012 0.0
O105 O 0.98636 0.98567 0.53458 0.0
C106 C 0.0344 0.08576 0.55723 0.0
C107 C 0.98252 0.98386 0.50645 0.0
Dy108 Dy 0.54263 0.06364 0.07211 0.0
C109 C 0.46367 0.01354 0.9825 0.0
C110 C 0.57715 0.0942 0.11355 0.0
Dy111 Dy 0.49943 0.04234 0.02414 0.0
O112 O 0.57409 0.06767 0.10911 0.0
O113 O 0.56159 0.10423 0.09505 0.0
O114 O 0.54335 0.02039 0.08425 0.0
O115 O 0.50477 0.02978 0.0674 0.0
C116 C 0.51703 0.01052 0.07516 0.0
C117 C 0.52546 0.09551 0.02147 0.0
O118 O 0.46798 0.05186 0.05719 0.0
O119 O 0.50255 0.08007 0.08607 0.0
O120 O 0.4678 0.04003 0.9875 0.0
O121 O 0.47905 0.00254 1.00039 0.0
O122 O 0.49901 0.08595 0.0126 0.0
O123 O 0.5374 0.07597 0.02888 0.0
O124 O 0.57406 0.05321 0.03933 0.0
O125 O 0.5392 0.02542 0.01027 0.0
C126 C 0.47495 0.07062 0.07831 0.0
C127 C 0.56684 0.03446 0.01818 0.0
Dy128 Dy 0.51915 0.51775 0.53822 0.0
C129 C 0.464 0.60303 0.59753 0.0
C130 C 0.54784 0.4831 0.50757 0.0
Dy131 Dy 0.496 0.56929 0.56974 0.0
O132 O 0.51974 0.48225 0.50662 0.0
O133 O 0.5602 0.50301 0.52507 0.0
O134 O 0.48755 0.48785 0.56321 0.0
O135 O 0.47813 0.52677 0.55521 0.0
C136 C 0.47027 0.50522 0.56888 0.0
C137 C 0.54983 0.58415 0.5476 0.0
O138 O 0.51014 0.54562 0.60546 0.0
O139 O 0.54208 0.52224 0.58049 0.0
O140 O 0.48902 0.59824 0.60627 0.0
O141 O 0.45628 0.58911 0.57379 0.0
O142 O 0.53645 0.60167 0.56101 0.0
O143 O 0.53346 0.56099 0.54768 0.0
O144 O 0.50325 0.53903 0.50141 0.0
O145 O 0.47963 0.57137 0.52525 0.0
C146 C 0.53166 0.53123 0.60468 0.0
C147 C 0.48688 0.55854 0.50162 0.0
Dy148 Dy 0.02716 0.52554 0.0527 0.0
C149 C 0.00703 0.62964 0.01394 0.0
C150 C 0.04265 0.47764 0.06941 0.0
Dy151 Dy 0.02379 0.58206 0.02982 0.0
O152 O 0.02949 0.49368 0.08511 0.0
O153 O 0.04721 0.48761 0.04429 0.0
O154 O 0.98835 0.52844 0.08007 0.0
O155 O 0.0183 0.56438 0.07135 0.0
C156 C 0.99441 0.55522 0.0831 0.0
C157 C 0.05759 0.55331 0.99991 0.0
O158 O 0.06178 0.59533 0.05958 0.0
O159 O 0.07088 0.55103 0.06524 0.0
O160 O 0.02098 0.61442 0.99804 0.0
O161 O 0.00256 0.61911 0.03881 0.0
O162 O 0.06301 0.58009 0.00318 0.0
O163 O 0.03343 0.54351 0.01104 0.0
O164 O 0.98976 0.51193 0.02273 0.0
O165 O 0.98017 0.55597 0.0169 0.0
C166 C 0.07848 0.5783 0.0687 0.0
C167 C 0.97286 0.52866 0.01353 0.0
H168 H 0.17189 0.14076 0.22181 0.0
H169 H 0.14229 0.12087 0.26133 0.0
H170 H 0.14089 0.20258 0.29694 0.0
H171 H 0.17123 0.22277 0.25782 0.0
H172 H 0.1621 0.13364 0.32178 0.0
H173 H 0.0531 0.15878 0.29753 0.0
H174 H 0.07989 0.15646 0.27023 0.0
H175 H 0.08473 0.18578 0.2948 0.0
C176 C 0.16527 0.15457 0.23799 0.0
C177 C 0.17421 0.18339 0.23675 0.0
C178 C 0.14819 0.14314 0.26045 0.0
C179 C 0.13933 0.16026 0.28194 0.0
C180 C 0.14723 0.18904 0.28033 0.0
H181 H 0.04421 0.12062 0.4395 0.0
H182 H 0.06751 0.14401 0.39808 0.0
C183 C 0.1645 0.20053 0.25791 0.0
C184 C 0.12386 0.1478 0.30711 0.0
H185 H 0.05782 0.13629 0.34026 0.0
C186 C 0.1393 0.13418 0.32585 0.0
C187 C 0.09426 0.14889 0.31246 0.0
C188 C 0.0768 0.16311 0.2927 0.0
C189 C 0.12593 0.12156 0.34989 0.0
C190 C 0.096 0.12184 0.35486 0.0
C191 C 0.08067 0.1359 0.33633 0.0
C192 C 0.08032 0.1074 0.37903 0.0
C193 C 0.1442 0.1085 0.37001 0.0
C194 C 0.07906 0.07891 0.38169 0.0
C195 C 0.06602 0.06562 0.40538 0.0
C196 C 0.05359 0.08046 0.42666 0.0
C197 C 0.05372 0.10871 0.42343 0.0
C198 C 0.06699 0.12207 0.39979 0.0
H199 H 0.16786 0.11718 0.36804 0.0
H200 H 0.13777 0.11151 0.39249 0.0
H201 H 0.14103 0.08597 0.36477 0.0
H202 H 0.08851 0.06701 0.36558 0.0
H203 H 0.06599 0.04377 0.40721 0.0
H204 H 0.38738 0.88346 0.74926 0.0
H205 H 0.40527 0.90841 0.79357 0.0
H206 H 0.31847 0.92253 0.81206 0.0
H207 H 0.30009 0.89668 0.76783 0.0
H208 H 0.40422 0.96235 0.81104 0.0
H209 H 0.34221 0.88833 0.88504 0.0
H210 H 0.34606 0.87972 0.84771 0.0
H211 H 0.32068 0.9013 0.85876 0.0
C212 C 0.37196 0.8916 0.76286 0.0
C213 C 0.3422 0.88772 0.75522 0.0
C214 C 0.38229 0.90603 0.7881 0.0
C215 C 0.36315 0.91694 0.80635 0.0
C216 C 0.33352 0.9138 0.79853 0.0
H217 H 0.42946 0.0349 0.94578 0.0
H218 H 0.40267 0.01173 0.90401 0.0
C219 C 0.32311 0.8993 0.77314 0.0
C220 C 0.37469 0.93175 0.83333 0.0
H221 H 0.37194 0.92834 0.90582 0.0
C222 C 0.39703 0.95503 0.83177 0.0
C223 C 0.36555 0.92191 0.86034 0.0
C224 C 0.34248 0.89632 0.86325 0.0
C225 C 0.41068 0.96862 0.85643 0.0
C226 C 0.40135 0.95898 0.88346 0.0
C227 C 0.37889 0.93579 0.88508 0.0
C228 C 0.41537 0.9723 0.91019 0.0
C229 C 0.43563 0.99265 0.85327 0.0
C230 C 0.43043 0.95751 0.92819 0.0
C231 C 0.44558 0.97067 0.95225 0.0
C232 C 0.44582 0.99879 0.95865 0.0
C233 C 0.42984 0.01325 0.9412 0.0
C234 C 0.41463 1.00009 0.91727 0.0
H235 H 0.44469 0.99309 0.83141 0.0
H236 H 0.42766 0.01227 0.85758 0.0
H237 H 0.45353 0.9918 0.8687 0.0
H238 H 0.43116 0.936 0.92316 0.0
H239 H 0.45767 0.95904 0.96541 0.0
H240 H 0.61952 0.48013 0.85659 0.0
H241 H 0.60892 0.50191 0.81245 0.0
H242 H 0.60086 0.42327 0.76644 0.0
H243 H 0.61144 0.40158 0.81046 0.0
H244 H 0.6358 0.50172 0.75404 0.0
H245 H 0.51958 0.44918 0.75923 0.0
H246 H 0.54406 0.4531 0.78963 0.0
H247 H 0.54619 0.42722 0.7621 0.0
C248 C 0.61611 0.46776 0.83685 0.0
C249 C 0.61635 0.43935 0.83658 0.0
C250 C 0.61003 0.48013 0.81177 0.0
C251 C 0.60385 0.46409 0.78634 0.0
C252 C 0.60539 0.43591 0.78593 0.0
H253 H 0.57755 0.50452 0.61232 0.0
H254 H 0.59623 0.49079 0.6571 0.0
C255 C 0.61154 0.4236 0.81094 0.0
C256 C 0.59378 0.47624 0.7607 0.0
H257 H 0.53403 0.47339 0.71764 0.0
C258 C 0.61355 0.49567 0.74608 0.0
C259 C 0.56462 0.46853 0.75069 0.0
C260 C 0.54223 0.44854 0.76628 0.0
C261 C 0.60506 0.50706 0.72114 0.0
C262 C 0.57614 0.49861 0.7106 0.0
C263 C 0.55622 0.47972 0.72569 0.0
C264 C 0.56609 0.5086 0.68366 0.0
C265 C 0.62699 0.52816 0.70639 0.0
C266 C 0.54267 0.52287 0.6837 0.0
C267 C 0.53179 0.53066 0.65811 0.0
C268 C 0.54397 0.52408 0.63194 0.0
C269 C 0.56763 0.50997 0.63204 0.0
C270 C 0.57853 0.50227 0.65765 0.0
H271 H 0.64539 0.53762 0.72084 0.0
H272 H 0.63616 0.51791 0.68799 0.0
H273 H 0.61649 0.54482 0.69821 0.0
H274 H 0.53263 0.52777 0.70356 0.0
H275 H 0.51354 0.54145 0.65887 0.0
H276 H 0.93526 0.619 0.32708 0.0
H277 H 0.95322 0.61306 0.27877 0.0
H278 H 0.90243 0.6714 0.24903 0.0
H279 H 0.88394 0.67684 0.29756 0.0
H280 H 0.89309 0.6245 0.21663 0.0
H281 H 0.01206 0.65974 0.23008 0.0
H282 H 0.9985 0.6347 0.25574 0.0
H283 H 0.98635 0.66738 0.25654 0.0
C284 C 0.92859 0.63105 0.31031 0.0
C285 C 0.90865 0.64859 0.31577 0.0
C286 C 0.93892 0.62777 0.28277 0.0
C287 C 0.92959 0.64217 0.26034 0.0
C288 C 0.91013 0.66031 0.26606 0.0
H289 H 0.0089 0.61043 0.09643 0.0
H290 H 0.99046 0.63598 0.13593 0.0
C291 C 0.8997 0.66351 0.29368 0.0
C292 C 0.93798 0.63597 0.23068 0.0
H293 H 0.9966 0.62731 0.19037 0.0
C294 C 0.91575 0.62563 0.21069 0.0
C295 C 0.96751 0.63791 0.22268 0.0
C296 C 0.99244 0.65084 0.24234 0.0
C297 C 0.92224 0.61553 0.18356 0.0
C298 C 0.95168 0.61516 0.17653 0.0
C299 C 0.97397 0.62717 0.19585 0.0
C300 C 0.95989 0.60073 0.15031 0.0
C301 C 0.89742 0.60505 0.16288 0.0
C302 C 0.94854 0.57251 0.14497 0.0
C303 C 0.95878 0.55797 0.12221 0.0
C304 C 0.98091 0.57129 0.10469 0.0
C305 C 0.99171 0.59968 0.10952 0.0
C306 C 0.98127 0.61427 0.13214 0.0
H307 H 0.87869 0.61569 0.16693 0.0
H308 H 0.90438 0.60803 0.14047 0.0
H309 H 0.88959 0.58265 0.1657 0.0
H310 H 0.93263 0.5614 0.1591 0.0
H311 H 0.95021 0.53607 0.11906 0.0
H312 H 0.27415 0.16905 0.22173 0.0
H313 H 0.3155 0.14729 0.2076 0.0
H314 H 0.3017 0.1647 0.11993 0.0
H315 H 0.2603 0.18613 0.13373 0.0
H316 H 0.31761 0.10228 0.16831 0.0
H317 H 0.38829 0.19887 0.13521 0.0
H318 H 0.35628 0.19881 0.1568 0.0
H319 H 0.35262 0.1925 0.11888 0.0
C320 C 0.27978 0.16804 0.19942 0.0
C321 C 0.26408 0.17956 0.17888 0.0
C322 C 0.30347 0.15572 0.19142 0.0
C323 C 0.31196 0.15485 0.16281 0.0
C324 C 0.29593 0.16574 0.14222 0.0
H325 H 0.41593 0.05606 0.06902 0.0
H326 H 0.37725 0.07558 0.09254 0.0
C327 C 0.27229 0.178 0.15016 0.0
C328 C 0.33742 0.14241 0.15422 0.0
H329 H 0.40306 0.15664 0.12067 0.0
C330 C 0.33644 0.11418 0.15814 0.0
C331 C 0.36214 0.15809 0.14136 0.0
C332 C 0.36513 0.18881 0.13803 0.0
C333 C 0.35906 0.10096 0.14848 0.0
C334 C 0.38305 0.11634 0.13423 0.0
C335 C 0.38453 0.1448 0.13134 0.0
C336 C 0.40641 0.10327 0.12131 0.0
C337 C 0.3571 0.07066 0.15364 0.0
C338 C 0.43573 0.11263 0.12936 0.0
C339 C 0.45798 0.10165 0.1158 0.0
C340 C 0.45132 0.0812 0.09377 0.0
C341 C 0.42187 0.07168 0.08597 0.0
C342 C 0.39967 0.08268 0.09954 0.0
H343 H 0.34244 0.06405 0.17168 0.0
H344 H 0.34803 0.05833 0.1343 0.0
H345 H 0.37899 0.06586 0.15821 0.0
H346 H 0.44143 0.12864 0.14598 0.0
H347 H 0.4804 0.10951 0.12233 0.0
H348 H 0.27097 0.94676 0.67288 0.0
H349 H 0.23273 0.97283 0.66059 0.0
H350 H 0.17243 0.89607 0.64356 0.0
H351 H 0.21022 0.87032 0.65664 0.0
H352 H 0.20932 0.9721 0.60983 0.0
H353 H 0.11914 0.93915 0.68376 0.0
H354 H 0.15556 0.93283 0.68998 0.0
H355 H 0.13032 0.90955 0.66702 0.0
C356 C 0.24919 0.93565 0.66748 0.0
C357 C 0.24317 0.9067 0.66604 0.0
C358 C 0.22742 0.95047 0.66033 0.0
C359 C 0.19946 0.93647 0.65155 0.0
C360 C 0.1934 0.90744 0.6511 0.0
H361 H 0.08961 0.97893 0.52192 0.0
H362 H 0.12452 0.96195 0.55233 0.0
C363 C 0.21504 0.89271 0.65842 0.0
C364 C 0.17789 0.95169 0.63927 0.0
H365 H 0.10525 0.95511 0.63825 0.0
C366 C 0.1867 0.96876 0.61645 0.0
C367 C 0.14839 0.94778 0.64804 0.0
C368 C 0.13791 0.93157 0.67376 0.0
C369 C 0.16659 0.98068 0.60122 0.0
C370 C 0.13666 0.97479 0.60844 0.0
C371 C 0.12809 0.95913 0.63231 0.0
C372 C 0.11395 0.98376 0.59067 0.0
C373 C 0.17763 0.99928 0.57732 0.0
C374 C 0.09531 0.00054 0.6024 0.0
C375 C 0.075 0.01 0.58506 0.0
C376 C 0.07305 0.00277 0.55576 0.0
C377 C 0.09087 0.98508 0.54436 0.0
C378 C 0.11099 0.97553 0.56168 0.0
H379 H 0.20106 0.00875 0.5805 0.0
H380 H 0.17559 0.98689 0.55691 0.0
H381 H 0.16486 0.01606 0.57547 0.0
H382 H 0.09699 0.00688 0.62478 0.0
H383 H 0.06139 0.02352 0.59442 0.0
H384 H 0.73807 0.37937 0.9065 0.0
H385 H 0.78812 0.40243 0.91833 0.0
H386 H 0.75807 0.47888 0.93636 0.0
H387 H 0.70781 0.4559 0.92498 0.0
H388 H 0.81492 0.48186 0.90457 0.0
H389 H 0.80765 0.42499 0.00504 0.0
H390 H 0.798 0.40441 0.97274 0.0
H391 H 0.77572 0.42861 0.98467 0.0
C392 C 0.74214 0.40117 0.91272 0.0
C393 C 0.71893 0.41574 0.91517 0.0
C394 C 0.77073 0.41429 0.91938 0.0
C395 C 0.77661 0.4422 0.92858 0.0
C396 C 0.75387 0.45729 0.92932 0.0
H397 H 0.92893 0.5551 0.9975 0.0
H398 H 0.88209 0.53452 0.97511 0.0
C399 C 0.72521 0.44416 0.92269 0.0
C400 C 0.80599 0.45495 0.93967 0.0
H401 H 0.85278 0.45324 0.99531 0.0
C402 C 0.82329 0.47568 0.92439 0.0
C403 C 0.8167 0.44676 0.96553 0.0
C404 C 0.79856 0.42512 0.98315 0.0
C405 C 0.85141 0.48818 0.93414 0.0
C406 C 0.86206 0.48011 0.96016 0.0
C407 C 0.84464 0.45935 0.97535 0.0
C408 C 0.89108 0.49295 0.97232 0.0
C409 C 0.86964 0.50944 0.91621 0.0
C410 C 0.91147 0.47636 0.97878 0.0
C411 C 0.93811 0.48798 0.99195 0.0
C412 C 0.9449 0.51648 0.99896 0.0
C413 C 0.92451 0.53311 0.99225 0.0
C414 C 0.89778 0.52142 0.97922 0.0
H415 H 0.86205 0.50742 0.89364 0.0
H416 H 0.86778 0.53042 0.92459 0.0
H417 H 0.89304 0.50762 0.9169 0.0
H418 H 0.90668 0.45432 0.97379 0.0
H419 H 0.9533 0.47455 0.99672 0.0
H420 H 0.81065 0.62643 0.44293 0.0
H421 H 0.76399 0.6086 0.46533 0.0
H422 H 0.72846 0.67701 0.43484 0.0
H423 H 0.77473 0.6945 0.41159 0.0
H424 H 0.73469 0.63392 0.50686 0.0
H425 H 0.66751 0.60974 0.40818 0.0
H426 H 0.70696 0.61655 0.40791 0.0
H427 H 0.68732 0.64467 0.411 0.0
C428 C 0.79279 0.63749 0.44069 0.0
C429 C 0.79631 0.66177 0.4253 0.0
C430 C 0.76622 0.62737 0.45364 0.0
C431 C 0.74266 0.64124 0.45133 0.0
C432 C 0.74621 0.6657 0.43639 0.0
H433 H 0.58942 0.63166 0.55479 0.0
H434 H 0.63683 0.64384 0.53173 0.0
C435 C 0.77276 0.67584 0.42342 0.0
C436 C 0.7146 0.63051 0.46519 0.0
H437 H 0.64169 0.60866 0.45197 0.0
C438 C 0.71437 0.62822 0.49486 0.0
C439 C 0.68824 0.62268 0.44941 0.0
C440 C 0.68745 0.62325 0.41733 0.0
C441 C 0.68829 0.61908 0.50931 0.0
C442 C 0.66173 0.6125 0.49368 0.0
C443 C 0.66207 0.61397 0.46391 0.0
C444 C 0.63325 0.60482 0.50789 0.0
C445 C 0.6894 0.61644 0.54117 0.0
C446 C 0.61521 0.57913 0.50153 0.0
C447 C 0.58803 0.57223 0.51456 0.0
C448 C 0.57853 0.59095 0.53402 0.0
C449 C 0.59642 0.61676 0.54005 0.0
C450 C 0.62355 0.62366 0.52706 0.0
H451 H 0.71161 0.6146 0.54862 0.0
H452 H 0.68366 0.63517 0.55186 0.0
H453 H 0.67357 0.59817 0.54791 0.0
H454 H 0.62216 0.56447 0.48649 0.0
H455 H 0.57425 0.55256 0.509 0.0
H456 H 0.1617 0.30126 0.2011 0.0
H457 H 0.13002 0.33322 0.18672 0.0
H458 H 0.13393 0.30382 0.09927 0.0
H459 H 0.16487 0.2716 0.11378 0.0
H460 H 0.14628 0.3749 0.15171 0.0
H461 H 0.04832 0.30623 0.1054 0.0
H462 H 0.0745 0.29361 0.12734 0.0
H463 H 0.08143 0.29894 0.09011 0.0
C464 C 0.15496 0.30116 0.17899 0.0
C465 C 0.16517 0.28391 0.15851 0.0
C466 C 0.13704 0.31944 0.17076 0.0
C467 C 0.1292 0.32066 0.14195 0.0
C468 C 0.13893 0.30277 0.12168 0.0
H469 H 0.07004 0.44154 0.039 0.0
H470 H 0.08938 0.40237 0.05724 0.0
C471 C 0.15669 0.28446 0.12994 0.0
C472 C 0.1136 0.34252 0.13259 0.0
H473 H 0.05574 0.35378 0.09264 0.0
C474 C 0.12626 0.37023 0.13915 0.0
C475 C 0.08754 0.33647 0.11604 0.0
C476 C 0.072 0.30718 0.10955 0.0
C477 C 0.11405 0.392 0.12897 0.0
C478 C 0.08847 0.38592 0.11187 0.0
C479 C 0.07551 0.3583 0.1056 0.0
C480 C 0.07502 0.4082 0.10042 0.0
C481 C 0.1289 0.42143 0.13594 0.0
C482 C 0.06021 0.42402 0.11861 0.0
C483 C 0.04909 0.44621 0.10826 0.0
C484 C 0.05271 0.453 0.07957 0.0
C485 C 0.06699 0.43674 0.0612 0.0
C486 C 0.07797 0.4144 0.07156 0.0
H487 H 0.15071 0.42264 0.14609 0.0
H488 H 0.13155 0.43344 0.11632 0.0
H489 H 0.11508 0.43134 0.15079 0.0
H490 H 0.05765 0.41944 0.14092 0.0
H491 H 0.03815 0.45838 0.12288 0.0
H492 H 0.6045 0.34614 0.96204 0.0
H493 H 0.58898 0.30095 0.98244 0.0
H494 H 0.66268 0.27251 0.9442 0.0
H495 H 0.67803 0.31753 0.92321 0.0
H496 H 0.60903 0.23759 0.93287 0.0
H497 H 0.62335 0.26429 0.04848 0.0
H498 H 0.60296 0.28587 0.03005 0.0
H499 H 0.6407 0.28668 0.02152 0.0
C500 C 0.61746 0.3303 0.95806 0.0
C501 C 0.64244 0.33535 0.94095 0.0
C502 C 0.60877 0.30461 0.97002 0.0
C503 C 0.62493 0.28355 0.96516 0.0
C504 C 0.65009 0.28862 0.94842 0.0
H505 H 0.58266 0.11764 0.03382 0.0
H506 H 0.60938 0.16346 0.02154 0.0
C507 C 0.65887 0.31435 0.93654 0.0
C508 C 0.61412 0.25558 0.97556 0.0
H509 H 0.59366 0.22032 0.03555 0.0
C510 C 0.60602 0.23374 0.95533 0.0
C511 C 0.61045 0.25059 0.00489 0.0
C512 C 0.62008 0.27303 0.02754 0.0
C513 C 0.59318 0.20727 0.9636 0.0
C514 C 0.58815 0.20264 0.99279 0.0
C515 C 0.59735 0.22411 0.01315 0.0
C516 C 0.57192 0.17592 0.00219 0.0
C517 C 0.58459 0.18449 0.94104 0.0
C518 C 0.542 0.16824 0.99593 0.0
C519 C 0.52676 0.14232 0.00298 0.0
C520 C 0.54125 0.12362 0.01631 0.0
C521 C 0.57105 0.13167 0.02341 0.0
C522 C 0.58628 0.15775 0.01647 0.0
H523 H 0.59543 0.18975 0.92043 0.0
H524 H 0.59023 0.16485 0.94802 0.0
H525 H 0.56059 0.18104 0.93748 0.0
H526 H 0.53055 0.18217 0.98515 0.0
H527 H 0.50378 0.1367 0.99742 0.0
H528 H 0.83672 0.75519 0.39271 0.0
H529 H 0.85717 0.80362 0.40527 0.0
H530 H 0.93952 0.78098 0.42664 0.0
H531 H 0.9193 0.73263 0.41367 0.0
H532 H 0.87557 0.82315 0.45727 0.0
H533 H 0.96676 0.84897 0.38199 0.0
H534 H 0.93865 0.81854 0.37696 0.0
H535 H 0.96883 0.81854 0.401 0.0
C536 C 0.85934 0.76066 0.39962 0.0
C537 C 0.87643 0.74016 0.4022 0.0
C538 C 0.87101 0.78831 0.40677 0.0
C539 C 0.89997 0.79602 0.41665 0.0
C540 C 0.91736 0.77569 0.41841 0.0
H541 H 0.96891 0.9339 0.53133 0.0
H542 H 0.94821 0.88915 0.50851 0.0
C543 C 0.90576 0.74804 0.41104 0.0
C544 C 0.91103 0.82473 0.42768 0.0
H545 H 0.96738 0.8796 0.42311 0.0
C546 C 0.89549 0.83559 0.44957 0.0
C547 C 0.93684 0.8411 0.41745 0.0
C548 C 0.95357 0.83131 0.39285 0.0
C549 C 0.90544 0.86202 0.46205 0.0
C550 C 0.93205 0.87779 0.45287 0.0
C551 C 0.94717 0.86733 0.43038 0.0
C552 C 0.94474 0.90503 0.46661 0.0
C553 C 0.88721 0.87284 0.48482 0.0
C554 C 0.95041 0.92875 0.45049 0.0
C555 C 0.96251 0.9544 0.46343 0.0
C556 C 0.96925 0.95679 0.49276 0.0
C557 C 0.96372 0.93291 0.50878 0.0
C558 C 0.95176 0.90729 0.49579 0.0
H559 H 0.86399 0.86221 0.48332 0.0
H560 H 0.89574 0.86903 0.50609 0.0
H561 H 0.88811 0.89541 0.48335 0.0
H562 H 0.94529 0.92744 0.4279 0.0
H563 H 0.96654 0.97232 0.45041 0.0
H564 H 0.30668 0.78348 0.66925 0.0
H565 H 0.32749 0.74305 0.65479 0.0
H566 H 0.41018 0.78139 0.69276 0.0
H567 H 0.38998 0.82239 0.7065 0.0
H568 H 0.38311 0.74693 0.61946 0.0
H569 H 0.38694 0.69992 0.72488 0.0
H570 H 0.36175 0.72254 0.71711 0.0
H571 H 0.39973 0.73661 0.7231 0.0
C572 C 0.32935 0.78345 0.67442 0.0
C573 C 0.34666 0.8063 0.689 0.0
C574 C 0.3411 0.76023 0.66631 0.0
C575 C 0.37023 0.75923 0.67294 0.0
C576 C 0.38751 0.7817 0.68781 0.0
H577 H 0.48286 0.64005 0.64129 0.0
H578 H 0.45916 0.6774 0.65988 0.0
C579 C 0.37586 0.80505 0.69574 0.0
C580 C 0.38296 0.73522 0.66306 0.0
H581 H 0.40766 0.67879 0.68604 0.0
C582 C 0.38838 0.73192 0.63392 0.0
C583 C 0.39001 0.71596 0.68212 0.0
C584 C 0.38424 0.71867 0.71358 0.0
C585 C 0.40116 0.70997 0.6233 0.0
C586 C 0.40782 0.69034 0.64229 0.0
C587 C 0.40237 0.69372 0.67149 0.0
C588 C 0.42109 0.66655 0.63228 0.0
C589 C 0.40822 0.70859 0.592 0.0
C590 C 0.40718 0.64754 0.6112 0.0
C591 C 0.42082 0.62639 0.60037 0.0
C592 C 0.44836 0.62361 0.6108 0.0
C593 C 0.46163 0.64178 0.63285 0.0
C594 C 0.44812 0.66311 0.64347 0.0
H595 H 0.40956 0.72899 0.58232 0.0
H596 H 0.42925 0.7015 0.58848 0.0
H597 H 0.39067 0.69375 0.58064 0.0
H598 H 0.38595 0.64932 0.60281 0.0
H599 H 0.41001 0.61248 0.58354 0.0
H600 H 0.92162 0.89997 0.86063 0.0
H601 H 0.94225 0.92262 0.81814 0.0
H602 H 0.85576 0.91494 0.78194 0.0
H603 H 0.83499 0.89097 0.82386 0.0
H604 H 0.89316 0.89876 0.74403 0.0
H605 H 0.94366 0.00023 0.79383 0.0
H606 H 0.95569 0.97189 0.81003 0.0
H607 H 0.91792 0.97523 0.81231 0.0
C608 C 0.90693 0.90304 0.84364 0.0
C609 C 0.8766 0.89352 0.84569 0.0
C610 C 0.91877 0.91635 0.81948 0.0
C611 C 0.90056 0.92087 0.79697 0.0
C612 C 0.87024 0.91183 0.79911 0.0
H613 H 0.95087 0.02617 0.65539 0.0
H614 H 0.93169 0.00543 0.69944 0.0
C615 C 0.85837 0.89835 0.82323 0.0
C616 C 0.91325 0.93378 0.77066 0.0
H617 H 0.95767 0.99099 0.74616 0.0
C618 C 0.90715 0.91899 0.74448 0.0
C619 C 0.93129 0.96029 0.77118 0.0
C620 C 0.93731 0.97796 0.7983 0.0
C621 C 0.9188 0.92982 0.71889 0.0
C622 C 0.9377 0.9559 0.71955 0.0
C623 C 0.94354 0.97083 0.74569 0.0
C624 C 0.95052 0.96868 0.69322 0.0
C625 C 0.91015 0.91349 0.69133 0.0
C626 C 0.96807 0.95522 0.67529 0.0
C627 C 0.97891 0.96699 0.64991 0.0
C628 C 0.97268 0.99256 0.64228 0.0
C629 C 0.95599 0.00641 0.66071 0.0
C630 C 0.94502 0.99458 0.68591 0.0
H631 H 0.88978 0.89797 0.6936 0.0
H632 H 0.90681 0.92729 0.674 0.0
H633 H 0.92779 0.90224 0.68491 0.0
H634 H 0.97324 0.93555 0.68082 0.0
H635 H 0.99188 0.95596 0.63615 0.0
H636 H 0.67181 0.21232 0.35671 0.0
H637 H 0.64434 0.19705 0.31256 0.0
H638 H 0.72329 0.18201 0.27228 0.0
H639 H 0.75104 0.19825 0.31581 0.0
H640 H 0.6894 0.20651 0.23672 0.0
H641 H 0.62301 0.11576 0.28689 0.0
H642 H 0.62078 0.1486 0.30389 0.0
H643 H 0.65485 0.13642 0.30408 0.0
C644 C 0.68339 0.20617 0.33832 0.0
C645 C 0.71357 0.20616 0.33992 0.0
C646 C 0.66761 0.19717 0.31319 0.0
C647 C 0.68167 0.18786 0.28931 0.0
C648 C 0.71194 0.18889 0.29051 0.0
H649 H 0.61196 0.07514 0.15147 0.0
H650 H 0.63723 0.09992 0.1932 0.0
C651 C 0.72773 0.19795 0.31551 0.0
C652 C 0.66493 0.17609 0.26331 0.0
H653 H 0.61256 0.12221 0.2388 0.0
C654 C 0.67247 0.18816 0.23715 0.0
C655 C 0.64313 0.15194 0.2639 0.0
C656 C 0.63506 0.13722 0.29111 0.0
C657 C 0.65901 0.17658 0.21151 0.0
C658 C 0.63707 0.15255 0.21215 0.0
C659 C 0.62929 0.14071 0.23837 0.0
C660 C 0.62288 0.1384 0.18583 0.0
C661 C 0.66913 0.1896 0.18389 0.0
C662 C 0.60653 0.15184 0.16768 0.0
C663 C 0.59225 0.13774 0.14362 0.0
C664 C 0.59385 0.10991 0.13757 0.0
C665 C 0.6104 0.0966 0.1556 0.0
C666 C 0.62477 0.11071 0.17949 0.0
H667 H 0.6907 0.20361 0.18636 0.0
H668 H 0.67078 0.17355 0.167 0.0
H669 H 0.65305 0.20197 0.17669 0.0
H670 H 0.60428 0.17302 0.17244 0.0
H671 H 0.57941 0.1484 0.13016 0.0
H672 H 0.45691 0.64938 0.25279 0.0
H673 H 0.46478 0.62101 0.2928 0.0
H674 H 0.38901 0.64213 0.33446 0.0
H675 H 0.38116 0.67055 0.29432 0.0
H676 H 0.47481 0.64671 0.34841 0.0
H677 H 0.38208 0.55753 0.34638 0.0
H678 H 0.39338 0.57693 0.31521 0.0
H679 H 0.37248 0.59088 0.34226 0.0
C680 C 0.44144 0.64717 0.2701 0.0
C681 C 0.4183 0.66172 0.27059 0.0
C682 C 0.44599 0.6311 0.29293 0.0
C683 C 0.42735 0.6293 0.31647 0.0
C684 C 0.40332 0.64284 0.31627 0.0
H685 H 0.45791 0.60095 0.49227 0.0
H686 H 0.44283 0.61615 0.44665 0.0
C687 C 0.39885 0.65903 0.29343 0.0
C688 C 0.43529 0.6164 0.3426 0.0
H689 H 0.41209 0.56472 0.38819 0.0
C690 C 0.46122 0.62865 0.35698 0.0
C691 C 0.41749 0.59287 0.35368 0.0
C692 C 0.38988 0.57856 0.33854 0.0
C693 C 0.46952 0.61834 0.3825 0.0
C694 C 0.45145 0.5952 0.3939 0.0
C695 C 0.4258 0.58254 0.37932 0.0
C696 C 0.45878 0.58454 0.42142 0.0
C697 C 0.49743 0.63234 0.39739 0.0
C698 C 0.47254 0.56159 0.42221 0.0
C699 C 0.48143 0.55288 0.44827 0.0
C700 C 0.47653 0.56694 0.47398 0.0
C701 C 0.46209 0.58959 0.47298 0.0
C702 C 0.45338 0.59833 0.44694 0.0
H703 H 0.5107 0.64806 0.38413 0.0
H704 H 0.49205 0.6427 0.41757 0.0
H705 H 0.51079 0.6168 0.40292 0.0
H706 H 0.47695 0.5508 0.40262 0.0
H707 H 0.49238 0.53531 0.4482 0.0
H708 H 0.15457 0.47743 0.7599 0.0
H709 H 0.15243 0.4988 0.80794 0.0
H710 H 0.09942 0.42329 0.83558 0.0
H711 H 0.10213 0.40195 0.78794 0.0
H712 H 0.10247 0.50732 0.83242 0.0
H713 H 0.15532 0.44283 0.90219 0.0
H714 H 0.1595 0.44201 0.86398 0.0
H715 H 0.12747 0.42246 0.87984 0.0
C716 C 0.14314 0.46534 0.77657 0.0
C717 C 0.12868 0.43815 0.77067 0.0
C718 C 0.14188 0.47748 0.80388 0.0
C719 C 0.12616 0.46249 0.8255 0.0
C720 C 0.11235 0.435 0.81955 0.0
H721 H 0.04175 0.49951 0.98047 0.0
H722 H 0.06219 0.47735 0.93951 0.0
C723 C 0.11372 0.4229 0.79234 0.0
C724 C 0.12118 0.47639 0.85314 0.0
H725 H 0.12359 0.47022 0.92528 0.0
C726 C 0.10756 0.49949 0.85272 0.0
C727 C 0.12764 0.46601 0.87961 0.0
C728 C 0.14356 0.44213 0.88148 0.0
C729 C 0.09925 0.51189 0.87797 0.0
C730 C 0.10501 0.50108 0.90437 0.0
C731 C 0.11915 0.47834 0.90494 0.0
C732 C 0.09561 0.51288 0.93142 0.0
C733 C 0.08341 0.53589 0.87621 0.0
C734 C 0.10836 0.53976 0.9409 0.0
C735 C 0.09676 0.55241 0.96415 0.0
C736 C 0.07224 0.53835 0.97828 0.0
C737 C 0.06058 0.51083 0.96985 0.0
C738 C 0.07223 0.49816 0.94654 0.0
H739 H 0.07595 0.53845 0.85416 0.0
H740 H 0.06415 0.53309 0.89039 0.0
H741 H 0.09833 0.55522 0.88339 0.0
H742 H 0.12662 0.55129 0.92965 0.0
H743 H 0.10633 0.57356 0.97038 0.0
H744 H 0.79131 0.93294 0.95108 0.0
H745 H 0.75485 0.96171 0.96284 0.0
H746 H 0.69685 0.91679 0.89815 0.0
H747 H 0.73322 0.88781 0.88666 0.0
H748 H 0.72344 0.99552 0.93088 0.0
H749 H 0.65105 0.90352 0.97289 0.0
H750 H 0.68894 0.90389 0.96472 0.0
H751 H 0.66208 0.89973 0.93656 0.0
C752 C 0.77105 0.92977 0.93894 0.0
C753 C 0.76492 0.90844 0.91793 0.0
C754 C 0.75024 0.9461 0.9457 0.0
C755 C 0.72298 0.94109 0.93167 0.0
C756 C 0.71759 0.92073 0.9095 0.0
H757 H 0.56093 0.99769 0.9723 0.0
H758 H 0.59901 0.97705 0.94903 0.0
C759 C 0.7384 0.90438 0.90278 0.0
C760 C 0.69952 0.95569 0.94178 0.0
H761 H 0.63301 0.94509 0.97406 0.0
C762 C 0.70361 0.98453 0.94024 0.0
C763 C 0.67372 0.94129 0.95409 0.0
C764 C 0.66866 0.91043 0.95745 0.0
C765 C 0.68243 0.99935 0.95047 0.0
C766 C 0.65678 0.98496 0.96306 0.0
C767 C 0.65262 0.95609 0.96432 0.0
C768 C 0.63422 0.99932 0.9758 0.0
C769 C 0.68755 0.03021 0.94737 0.0
C770 C 0.64131 0.01875 0.99862 0.0
C771 C 0.61957 0.03067 0.01197 0.0
C772 C 0.59022 0.0232 0.00293 0.0
C773 C 0.58327 0.00397 0.97984 0.0
C774 C 0.60503 0.99212 0.96648 0.0
H775 H 0.70343 0.03679 0.93026 0.0
H776 H 0.66682 0.03727 0.94256 0.0
H777 H 0.69667 0.04069 0.96765 0.0
H778 H 0.66355 0.02414 0.00664 0.0
H779 H 0.62571 0.04526 0.02978 0.0
H780 H 0.76076 0.14804 0.39965 0.0
H781 H 0.79539 0.12051 0.41703 0.0
H782 H 0.85677 0.19521 0.43941 0.0
H783 H 0.82221 0.22286 0.42226 0.0
H784 H 0.85284 0.11709 0.40272 0.0
H785 H 0.84588 0.15617 0.51453 0.0
H786 H 0.8207 0.16172 0.48706 0.0
H787 H 0.85661 0.1828 0.48966 0.0
C788 C 0.78176 0.15859 0.40799 0.0
C789 C 0.78864 0.18764 0.40985 0.0
C790 C 0.8015 0.14283 0.41794 0.0
C791 C 0.82846 0.15581 0.42994 0.0
C792 C 0.83583 0.18477 0.43082 0.0
H793 H 0.97169 0.07263 0.47898 0.0
H794 H 0.94129 0.09935 0.45296 0.0
C795 C 0.81606 0.20054 0.42103 0.0
C796 C 0.84833 0.13907 0.44251 0.0
H797 H 0.88051 0.1276 0.50515 0.0
C798 C 0.85895 0.11936 0.4251 0.0
C799 C 0.85597 0.14186 0.47179 0.0
C800 C 0.84402 0.16158 0.49195 0.0
C801 C 0.87707 0.10237 0.43623 0.0
C802 C 0.88508 0.10552 0.46542 0.0
C803 C 0.87451 0.12532 0.48273 0.0
C804 C 0.9031 0.08768 0.4791 0.0
C805 C 0.88678 0.08072 0.41686 0.0
C806 C 0.89185 0.07232 0.50239 0.0
C807 C 0.90926 0.05749 0.51738 0.0
C808 C 0.93828 0.05761 0.50937 0.0
C809 C 0.94936 0.07216 0.48548 0.0
C810 C 0.93194 0.08728 0.47055 0.0
H811 H 0.87316 0.07648 0.39714 0.0
H812 H 0.90974 0.08812 0.41053 0.0
H813 H 0.8858 0.06107 0.4279 0.0
H814 H 0.86969 0.07227 0.50936 0.0
H815 H 0.90012 0.04639 0.53567 0.0
H816 H 0.31509 0.67504 0.21887 0.0
H817 H 0.26725 0.64876 0.20295 0.0
H818 H 0.28881 0.6683 0.11601 0.0
H819 H 0.33663 0.69363 0.13154 0.0
H820 H 0.22386 0.66907 0.17524 0.0
H821 H 0.2582 0.58589 0.10867 0.0
H822 H 0.28259 0.60744 0.13385 0.0
H823 H 0.27659 0.61947 0.09902 0.0
C824 C 0.3098 0.6732 0.19633 0.0
C825 C 0.32955 0.68648 0.17647 0.0
C826 C 0.28244 0.65836 0.18729 0.0
C827 C 0.27461 0.65632 0.15826 0.0
C828 C 0.29456 0.66913 0.13843 0.0
H829 H 0.10638 0.63245 0.07451 0.0
H830 H 0.15308 0.65052 0.09863 0.0
C831 C 0.32178 0.68387 0.1474 0.0
C832 C 0.24506 0.64234 0.14854 0.0
H833 H 0.20983 0.59431 0.09977 0.0
C834 C 0.2207 0.65245 0.15902 0.0
C835 C 0.24093 0.62045 0.12765 0.0
C836 C 0.26596 0.60748 0.11686 0.0
C837 C 0.19245 0.64202 0.1483 0.0
C838 C 0.18861 0.62134 0.12609 0.0
C839 C 0.21283 0.61046 0.11648 0.0
C840 C 0.15977 0.61071 0.11235 0.0
C841 C 0.16703 0.65319 0.1609 0.0
C842 C 0.14836 0.58229 0.11143 0.0
C843 C 0.12195 0.57187 0.09733 0.0
C844 C 0.10634 0.58968 0.08381 0.0
C845 C 0.11774 0.6182 0.08484 0.0
C846 C 0.14433 0.62859 0.09882 0.0
H847 H 0.17218 0.66222 0.18279 0.0
H848 H 0.16203 0.6698 0.14752 0.0
H849 H 0.1472 0.63679 0.16168 0.0
H850 H 0.15995 0.5681 0.12159 0.0
H851 H 0.11381 0.5498 0.09707 0.0
H852 H 0.2142 0.39838 0.62673 0.0
H853 H 0.26308 0.42086 0.61385 0.0
H854 H 0.27576 0.46089 0.6975 0.0
H855 H 0.22725 0.4369 0.7113 0.0
H856 H 0.2865 0.47377 0.61032 0.0
H857 H 0.34806 0.42735 0.691 0.0
H858 H 0.30958 0.41538 0.68418 0.0
H859 H 0.32191 0.44653 0.7055 0.0
C860 C 0.22751 0.41149 0.64268 0.0
C861 C 0.21691 0.41534 0.67028 0.0
C862 C 0.25539 0.42463 0.63513 0.0
C863 C 0.27334 0.44222 0.65482 0.0
C864 C 0.2626 0.44689 0.68214 0.0
H865 H 0.43366 0.54004 0.58562 0.0
H866 H 0.38694 0.52821 0.61007 0.0
C867 C 0.23469 0.43343 0.68988 0.0
C868 C 0.30315 0.45549 0.64624 0.0
H869 H 0.37568 0.45874 0.66056 0.0
C870 C 0.30603 0.47065 0.6214 0.0
C871 C 0.32859 0.4512 0.66062 0.0
C872 C 0.32702 0.43404 0.68666 0.0
C873 C 0.33352 0.48078 0.60995 0.0
C874 C 0.35899 0.47651 0.62431 0.0
C875 C 0.35616 0.46214 0.64967 0.0
C876 C 0.38857 0.48469 0.61212 0.0
C877 C 0.33483 0.49468 0.58179 0.0
C878 C 0.40576 0.46454 0.60649 0.0
C879 C 0.43273 0.47146 0.59314 0.0
C880 C 0.44288 0.49861 0.58495 0.0
C881 C 0.42618 0.51896 0.59144 0.0
C882 C 0.39939 0.51214 0.60521 0.0
H883 H 0.31352 0.48996 0.57024 0.0
H884 H 0.3405 0.5174 0.58565 0.0
H885 H 0.35172 0.48814 0.56783 0.0
H886 H 0.39796 0.44325 0.61172 0.0
H887 H 0.44523 0.45537 0.58852 0.0
H888 H 0.89767 0.80587 0.87484 0.0
H889 H 0.92305 0.7715 0.8947 0.0
H890 H 0.8984 0.79463 0.97933 0.0
H891 H 0.8736 0.82947 0.95985 0.0
H892 H 0.96959 0.7805 0.93873 0.0
H893 H 0.86887 0.70907 0.97023 0.0
H894 H 0.86849 0.7352 0.94443 0.0
H895 H 0.87158 0.74471 0.98176 0.0
C896 C 0.8979 0.80389 0.89771 0.0
C897 C 0.88343 0.82038 0.91573 0.0
C898 C 0.91228 0.78413 0.90898 0.0
C899 C 0.91225 0.78033 0.93841 0.0
C900 C 0.89823 0.79695 0.9565 0.0
H901 H 0.97611 0.66264 0.0444 0.0
H902 H 0.95474 0.70082 0.02686 0.0
C903 C 0.88399 0.81678 0.94529 0.0
C904 C 0.92697 0.75904 0.9503 0.0
H905 H 0.91395 0.69817 0.98438 0.0
C906 C 0.95749 0.76245 0.94867 0.0
C907 C 0.91107 0.73566 0.96336 0.0
C908 C 0.87816 0.73068 0.96495 0.0
C909 C 0.97262 0.74318 0.96012 0.0
C910 C 0.95669 0.71959 0.97294 0.0
C911 C 0.92615 0.7163 0.97464 0.0
C912 C 0.97111 0.69763 0.98401 0.0
C913 C 0.00555 0.74859 0.95887 0.0
C914 C 0.98735 0.68315 0.96577 0.0
C915 C 0.99967 0.66152 0.97578 0.0
C916 C 0.99571 0.65376 0.00415 0.0
C917 C 0.97961 0.66832 0.02247 0.0
C918 C 0.96736 0.69005 0.01246 0.0
H919 H 0.01458 0.77088 0.95649 0.0
H920 H 0.01524 0.74168 0.97831 0.0
H921 H 0.01242 0.73701 0.94015 0.0
H922 H 0.98994 0.68815 0.94357 0.0
H923 H 0.01176 0.65048 0.96112 0.0
H924 H 0.38575 0.75929 0.12496 0.0
H925 H 0.40179 0.80343 0.10262 0.0
H926 H 0.43729 0.84008 0.18314 0.0
H927 H 0.42021 0.7964 0.20593 0.0
H928 H 0.40697 0.87379 0.15428 0.0
H929 H 0.48659 0.83401 0.08349 0.0
H930 H 0.44962 0.81552 0.08009 0.0
H931 H 0.4695 0.81494 0.11285 0.0
C932 C 0.39663 0.77683 0.13801 0.0
C933 C 0.40187 0.77425 0.16722 0.0
C934 C 0.40607 0.80195 0.12513 0.0
C935 C 0.42116 0.82487 0.14112 0.0
C936 C 0.42584 0.82257 0.17037 0.0
H937 H 0.53996 0.96945 0.09785 0.0
H938 H 0.51409 0.92405 0.11104 0.0
C939 C 0.4163 0.79752 0.1833 0.0
C940 C 0.43258 0.85122 0.12749 0.0
H941 H 0.48195 0.88045 0.07887 0.0
C942 C 0.42321 0.87527 0.13764 0.0
C943 C 0.45393 0.85303 0.10595 0.0
C944 C 0.46575 0.82808 0.09506 0.0
C945 C 0.43505 0.90122 0.12724 0.0
C946 C 0.45643 0.90303 0.10573 0.0
C947 C 0.46534 0.87891 0.09516 0.0
C948 C 0.47184 0.92999 0.09589 0.0
C949 C 0.42552 0.92659 0.14022 0.0
C950 C 0.45676 0.94815 0.0824 0.0
C951 C 0.47152 0.97424 0.07493 0.0
C952 C 0.50157 0.98239 0.08076 0.0
C953 C 0.51676 0.96376 0.09327 0.0
C954 C 0.50203 0.93781 0.10076 0.0
H955 H 0.41341 0.92219 0.16035 0.0
H956 H 0.44467 0.94335 0.14469 0.0
H957 H 0.41091 0.93424 0.12499 0.0
H958 H 0.43355 0.94227 0.07796 0.0
H959 H 0.45938 0.98817 0.06508 0.0
H960 H 0.17845 0.31629 0.66844 0.0
H961 H 0.16094 0.26977 0.64796 0.0
H962 H 0.07668 0.2907 0.63158 0.0
H963 H 0.09449 0.33769 0.65025 0.0
H964 H 0.11804 0.22986 0.66395 0.0
H965 H 0.09404 0.25896 0.55506 0.0
H966 H 0.11435 0.28327 0.58084 0.0
H967 H 0.07502 0.27567 0.58161 0.0
C968 C 0.15636 0.31118 0.65999 0.0
C969 C 0.13797 0.33086 0.66083 0.0
C970 C 0.1463 0.28449 0.64854 0.0
C971 C 0.11767 0.2769 0.63778 0.0
C972 C 0.09908 0.29628 0.63911 0.0
H973 H 0.02187 0.10921 0.60838 0.0
H974 H 0.04298 0.15519 0.62839 0.0
C975 C 0.10919 0.32305 0.65024 0.0
C976 C 0.10702 0.24854 0.62571 0.0
H977 H 0.07441 0.21263 0.56696 0.0
C978 C 0.10869 0.22605 0.64266 0.0
C979 C 0.09528 0.24358 0.59776 0.0
C980 C 0.09484 0.26664 0.57767 0.0
C981 C 0.0984 0.19875 0.63263 0.0
C982 C 0.08528 0.19389 0.60523 0.0
C983 C 0.08414 0.21637 0.5881 0.0
C984 C 0.07288 0.1657 0.59363 0.0
C985 C 0.10224 0.17545 0.65132 0.0
C986 C 0.08203 0.1566 0.56706 0.0
C987 C 0.06957 0.13061 0.55531 0.0
C988 C 0.04783 0.11308 0.57 0.0
C989 C 0.0388 0.12212 0.5967 0.0
C990 C 0.051 0.14833 0.60825 0.0
H991 H 0.12035 0.18203 0.66701 0.0
H992 H 0.08189 0.16888 0.66341 0.0
H993 H 0.10681 0.15736 0.63846 0.0
H994 H 0.09882 0.16967 0.55535 0.0
H995 H 0.0771 0.12423 0.53475 0.0
H996 H 0.73188 0.33506 0.44365 0.0
H997 H 0.69919 0.36838 0.45044 0.0
H998 H 0.62708 0.30758 0.41661 0.0
H999 H 0.65991 0.27397 0.41032 0.0
H1000 H 0.66427 0.39042 0.41328 0.0
H1001 H 0.59724 0.32885 0.49434 0.0
H1002 H 0.63167 0.32112 0.48227 0.0
H1003 H 0.59942 0.31135 0.46036 0.0
C1004 C 0.70909 0.329 0.4374 0.0
C1005 C 0.69821 0.30218 0.4265 0.0
C1006 C 0.69046 0.34798 0.44128 0.0
C1007 C 0.6606 0.34037 0.43443 0.0
C1008 C 0.64992 0.31374 0.42253 0.0
H1009 H 0.52411 0.43689 0.47544 0.0
H1010 H 0.54985 0.40218 0.45375 0.0
C1011 C 0.66863 0.29466 0.41873 0.0
C1012 C 0.64084 0.36024 0.4408 0.0
H1013 H 0.58459 0.37132 0.48358 0.0
C1014 C 0.64669 0.38616 0.42848 0.0
C1015 C 0.61788 0.35466 0.46063 0.0
C1016 C 0.61121 0.3276 0.47539 0.0
C1017 C 0.63059 0.4068 0.43583 0.0
C1018 C 0.60828 0.40151 0.45631 0.0
C1019 C 0.60171 0.3753 0.46787 0.0
C1020 C 0.59285 0.42341 0.4675 0.0
C1021 C 0.63771 0.43418 0.42176 0.0
C1022 C 0.60848 0.4468 0.48245 0.0
C1023 C 0.59386 0.46653 0.4949 0.0
C1024 C 0.56331 0.46319 0.49269 0.0
C1025 C 0.54769 0.44001 0.47736 0.0
C1026 C 0.56234 0.42019 0.465 0.0
H1027 H 0.64896 0.43229 0.40115 0.0
H1028 H 0.61764 0.44271 0.41791 0.0
H1029 H 0.65253 0.44913 0.43593 0.0
H1030 H 0.63196 0.44944 0.48513 0.0
H1031 H 0.60642 0.48414 0.5067 0.0
loop_
_geom_bond_atom_site_label_1
_geom_bond_atom_site_label_2
_geom_bond_distance
_geom_bond_site_symmetry_2
_ccdc_geom_bond_type
H0 C3 0.929 . S
H1 C6 0.929 . S
H2 C8 0.930 . S
C3 H0 0.929 . S
C3 C4 1.398 . S
C3 C5 1.396 . S
C4 C3 1.398 . S
C4 C8 1.407 . S
C5 C3 1.396 . S
C5 C6 1.394 . S
C6 H1 0.929 . S
C6 C5 1.394 . S
C6 C7 1.382 . S
C7 C6 1.382 . S
C7 C8 1.392 . S
C7 N9 1.420 . S
C8 H2 0.930 . S
C8 C4 1.407 . S
C8 C7 1.392 . S
N9 C7 1.420 . S
N9 C10 1.244 . S
C10 N9 1.244 . S
H11 C14 0.929 . S
H12 C17 0.929 . S
H13 C19 0.930 . S
C14 H11 0.929 . S
C14 C15 1.398 . S
C14 C16 1.396 . S
C15 C14 1.398 . S
C15 C19 1.407 . S
C16 C14 1.396 . S
C16 C17 1.394 . S
C17 H12 0.929 . S
C17 C16 1.394 . S
C17 C18 1.382 . S
C18 C17 1.382 . S
C18 C19 1.392 . S
C18 N20 1.420 . S
C19 H13 0.930 . S
C19 C15 1.407 . S
C19 C18 1.392 . S
N20 C18 1.420 . S
N20 C21 1.244 . S
C21 N20 1.244 . S
H22 C25 0.929 . S
H23 C28 0.929 . S
H24 C30 0.930 . S
C25 H22 0.929 . S
C25 C26 1.398 . S
C25 C27 1.396 . S
C26 C25 1.398 . S
C26 C30 1.407 . S
C27 C25 1.396 . S
C27 C28 1.394 . S
C28 H23 0.929 . S
C28 C27 1.394 . S
C28 C29 1.382 . S
C29 C28 1.382 . S
C29 C30 1.392 . S
C29 N31 1.420 . S
C30 H24 0.930 . S
C30 C26 1.407 . S
C30 C29 1.392 . S
N31 C29 1.420 . S
N31 C32 1.244 . S
C32 N31 1.244 . S
H33 C36 0.929 . S
H34 C39 0.929 . S
H35 C41 0.930 . S
C36 H33 0.929 . S
C36 C37 1.398 . S
C36 C38 1.396 . S
C37 C36 1.398 . S
C37 C41 1.407 . S
C38 C36 1.396 . S
C38 C39 1.394 . S
C39 H34 0.929 . S
C39 C38 1.394 . S
C39 C40 1.382 . S
C40 C39 1.382 . S
C40 C41 1.392 . S
C40 N42 1.420 . S
C41 H35 0.930 . S
C41 C37 1.407 . S
C41 C40 1.392 . S
N42 C40 1.420 . S
N42 C43 1.244 . S
C43 N42 1.244 . S
H44 C47 0.929 . S
H45 C50 0.929 . S
H46 C52 0.930 . S
C47 H44 0.929 . S
C47 C48 1.398 . S
C47 C49 1.396 . S
C48 C47 1.398 . S
C48 C52 1.407 . S
C49 C47 1.396 . S
C49 C50 1.394 . S
C50 H45 0.929 . S
C50 C49 1.394 . S
C50 C51 1.382 . S
C51 C50 1.382 . S
C51 C52 1.392 . S
C51 N53 1.420 . S
C52 H46 0.930 . S
C52 C48 1.407 . S
C52 C51 1.392 . S
N53 C51 1.420 . S
N53 C54 1.244 . S
C54 N53 1.244 . S
H55 C58 0.929 . S
H56 C61 0.929 . S
H57 C63 0.930 . S
C58 H55 0.929 . S
C58 C59 1.398 . S
C58 C60 1.396 . S
C59 C58 1.398 . S
C59 C63 1.407 . S
C60 C58 1.396 . S
C60 C61 1.394 . S
C61 H56 0.929 . S
C61 C60 1.394 . S
C61 C62 1.382 . S
C62 C61 1.382 . S
C62 C63 1.392 . S
C62 N64 1.420 . S
C63 H57 0.930 . S
C63 C59 1.407 . S
C63 C62 1.392 . S
N64 C62 1.420 . S
N64 C65 1.244 . S
C65 N64 1.244 . S
H66 C69 0.929 . S
H67 C72 0.929 . S
H68 C74 0.930 . S
C69 H66 0.929 . S
C69 C70 1.398 . S
C69 C71 1.396 . S
C70 C69 1.398 . S
C70 C74 1.407 . S
C71 C69 1.396 . S
C71 C72 1.394 . S
C72 H67 0.929 . S
C72 C71 1.394 . S
C72 C73 1.382 . S
C73 C72 1.382 . S
C73 C74 1.392 . S
C73 N75 1.420 . S
C74 H68 0.930 . S
C74 C70 1.407 . S
C74 C73 1.392 . S
N75 C73 1.420 . S
N75 C76 1.244 . S
C76 N75 1.244 . S
H77 C80 0.929 . S
H78 C83 0.929 . S
H79 C85 0.930 . S
C80 H77 0.929 . S
C80 C81 1.398 . S
C80 C82 1.396 . S
C81 C80 1.398 . S
C81 C85 1.407 . S
C82 C80 1.396 . S
C82 C83 1.394 . S
C83 H78 0.929 . S
C83 C82 1.394 . S
C83 C84 1.382 . S
C84 C83 1.382 . S
C84 C85 1.392 . S
C84 N86 1.420 . S
C85 H79 0.930 . S
C85 C81 1.407 . S
C85 C84 1.392 . S
N86 C84 1.420 . S
N86 C87 1.244 . S
C87 N86 1.244 . S
Dy88 O92 2.398 . S
Dy88 O93 2.491 . S
Dy88 O94 2.403 . S
Dy88 O95 2.664 . S
Dy88 O99 2.326 . S
Dy88 O103 2.310 1_455 S
Dy88 O104 2.351 1_545 S
C89 O100 1.216 . S
C89 O101 1.355 . S
C90 O92 1.185 . S
C90 O93 1.355 . S
Dy91 O95 2.310 1_655 S
Dy91 O98 2.351 1_655 S
Dy91 O100 2.383 1_545 S
Dy91 O101 2.491 1_545 S
Dy91 O102 2.403 . S
Dy91 O103 2.664 . S
Dy91 O105 2.326 1_545 S
O92 Dy88 2.398 . S
O92 C90 1.185 . S
O93 Dy88 2.491 . S
O93 C90 1.355 . S
O94 Dy88 2.403 . S
O94 C96 1.254 . S
O95 Dy88 2.664 . S
O95 Dy91 2.310 1_455 S
O95 C96 1.268 . S
C96 O94 1.254 . S
C96 O95 1.268 . S
C97 O102 1.254 . S
C97 O103 1.268 . S
O98 Dy91 2.351 1_455 S
O98 C106 1.249 . S
O99 Dy88 2.326 . S
O99 C106 1.267 . S
O100 C89 1.216 . S
O100 Dy91 2.383 1_565 S
O101 C89 1.355 . S
O101 Dy91 2.491 1_565 S
O102 Dy91 2.403 . S
O102 C97 1.254 . S
O103 Dy88 2.310 1_655 S
O103 Dy91 2.664 . S
O103 C97 1.268 . S
O104 Dy88 2.351 1_565 S
O104 C107 1.249 1_455 S
O105 Dy91 2.326 1_565 S
O105 C107 1.267 . S
C106 O98 1.249 . S
C106 O99 1.267 . S
C107 O104 1.249 1_655 S
C107 O105 1.267 . S
Dy108 O112 2.398 . S
Dy108 O113 2.491 . S
Dy108 O114 2.403 1_545 S
Dy108 O115 2.664 . S
Dy108 O119 2.326 . S
Dy108 O123 2.310 . S
Dy108 O124 2.351 . S
C109 O120 1.185 1_565 S
C109 O121 1.355 . S
C110 O112 1.185 . S
C110 O113 1.355 . S
Dy111 O115 2.310 . S
Dy111 O118 2.351 . S
Dy111 O120 2.398 1_554 S
Dy111 O121 2.491 1_544 S
Dy111 O122 2.403 . S
Dy111 O123 2.664 . S
Dy111 O125 2.326 . S
O112 Dy108 2.398 . S
O112 C110 1.185 . S
O113 Dy108 2.491 . S
O113 C110 1.355 . S
O114 Dy108 2.403 1_565 S
O114 C116 1.254 . S
O115 Dy108 2.664 . S
O115 Dy111 2.310 . S
O115 C116 1.268 1_545 S
C116 O114 1.254 . S
C116 O115 1.268 1_565 S
C117 O122 1.254 . S
C117 O123 1.268 . S
O118 Dy111 2.351 . S
O118 C126 1.249 . S
O119 Dy108 2.326 . S
O119 C126 1.267 . S
O120 C109 1.185 1_545 S
O120 Dy111 2.398 1_556 S
O121 C109 1.355 . S
O121 Dy111 2.491 1_566 S
O122 Dy111 2.403 . S
O122 C117 1.254 . S
O123 Dy108 2.310 . S
O123 Dy111 2.664 . S
O123 C117 1.268 . S
O124 Dy108 2.351 . S
O124 C127 1.249 . S
O125 Dy111 2.326 . S
O125 C127 1.267 . S
C126 O118 1.249 . S
C126 O119 1.267 . S
C127 O124 1.249 . S
C127 O125 1.267 . S
Dy128 O132 2.398 . S
Dy128 O133 2.491 . S
Dy128 O134 2.403 . S
Dy128 O135 2.664 . S
Dy128 O139 2.326 . S
Dy128 O143 2.310 . S
Dy128 O144 2.351 . S
C129 O140 1.185 . S
C129 O141 1.355 . S
C130 O132 1.185 . S
C130 O133 1.355 . S
Dy131 O135 2.310 . S
Dy131 O138 2.351 . S
Dy131 O140 2.398 . S
Dy131 O141 2.491 . S
Dy131 O142 2.403 . S
Dy131 O143 2.664 . S
Dy131 O145 2.326 . S
O132 Dy128 2.398 . S
O132 C130 1.185 . S
O133 Dy128 2.491 . S
O133 C130 1.355 . S
O134 Dy128 2.403 . S
O134 C136 1.254 . S
O135 Dy128 2.664 . S
O135 Dy131 2.310 . S
O135 C136 1.268 . S
C136 O134 1.254 . S
C136 O135 1.268 . S
C137 O142 1.254 . S
C137 O143 1.268 . S
O138 Dy131 2.351 . S
O138 C146 1.249 . S
O139 Dy128 2.326 . S
O139 C146 1.267 . S
O140 C129 1.185 . S
O140 Dy131 2.398 . S
O141 C129 1.355 . S
O141 Dy131 2.491 . S
O142 Dy131 2.403 . S
O142 C137 1.254 . S
O143 Dy128 2.310 . S
O143 Dy131 2.664 . S
O143 C137 1.268 . S
O144 Dy128 2.351 . S
O144 C147 1.249 . S
O145 Dy131 2.326 . S
O145 C147 1.267 . S
C146 O138 1.249 . S
C146 O139 1.267 . S
C147 O144 1.249 . S
C147 O145 1.267 . S
Dy148 O152 2.398 . S
Dy148 O153 2.491 . S
Dy148 O154 2.403 . S
Dy148 O155 2.664 . S
Dy148 O159 2.326 . S
Dy148 O163 2.310 . S
Dy148 O164 2.351 1_455 S
C149 O160 1.184 1_655 S
C149 O161 1.355 1_556 S
C150 O152 1.185 . S
C150 O153 1.355 . S
Dy151 O155 2.310 . S
Dy151 O158 2.351 . S
Dy151 O160 2.398 1_554 S
Dy151 O161 2.491 1_455 S
Dy151 O162 2.403 1_554 S
Dy151 O163 2.664 . S
Dy151 O165 2.326 1_454 S
O152 Dy148 2.398 . S
O152 C150 1.185 . S
O153 Dy148 2.491 . S
O153 C150 1.355 . S
O154 Dy148 2.403 . S
O154 C156 1.254 . S
O155 Dy148 2.664 . S
O155 Dy151 2.310 . S
O155 C156 1.268 . S
C156 O154 1.254 . S
C156 O155 1.268 . S
C157 O162 1.254 . S
C157 O163 1.268 1_556 S
O158 Dy151 2.351 . S
O158 C166 1.249 . S
O159 Dy148 2.326 . S
O159 C166 1.267 . S
O160 C149 1.184 1_455 S
O160 Dy151 2.398 1_556 S
O161 C149 1.355 1_554 S
O161 Dy151 2.491 1_655 S
O162 Dy151 2.403 1_556 S
O162 C157 1.254 . S
O163 Dy148 2.310 . S
O163 Dy151 2.664 . S
O163 C157 1.268 1_554 S
O164 Dy148 2.351 1_655 S
O164 C167 1.249 . S
O165 Dy151 2.326 1_656 S
O165 C167 1.267 1_556 S
C166 O158 1.249 . S
C166 O159 1.267 . S
C167 O164 1.249 . S
C167 O165 1.267 1_554 S
H168 C176 0.929 . S
H169 C178 0.930 . S
H170 C180 0.930 . S
H171 C183 0.929 . S
H172 C186 0.930 . S
H173 C188 0.960 . S
H174 C188 0.960 . S
H175 C188 0.960 . S
C176 H168 0.929 . S
C176 C177 1.377 . S
C176 C178 1.384 . S
C177 C176 1.377 . S
C177 C183 1.390 . S
C178 H169 0.930 . S
C178 C176 1.384 . S
C178 C179 1.372 . S
C179 C178 1.372 . S
C179 C180 1.400 . S
C179 C184 1.490 . S
C180 H170 0.930 . S
C180 C179 1.400 . S
C180 C183 1.386 . S
H181 C197 0.930 . S
H182 C198 0.931 . S
C183 H171 0.929 . S
C183 C177 1.390 . S
C183 C180 1.386 . S
C184 C179 1.490 . S
C184 C186 1.395 . S
C184 C187 1.403 . S
H185 C191 0.930 . S
C186 H172 0.930 . S
C186 C184 1.395 . S
C186 C189 1.403 . S
C187 C184 1.403 . S
C187 C188 1.524 . S
C187 C191 1.400 . S
C188 H173 0.960 . S
C188 H174 0.960 . S
C188 H175 0.960 . S
C188 C187 1.524 . S
C189 C186 1.403 . S
C189 C190 1.392 . S
C189 C193 1.495 . S
C190 C189 1.392 . S
C190 C191 1.385 . S
C190 C192 1.478 . S
C191 H185 0.930 . S
C191 C187 1.400 . S
C191 C190 1.385 . S
C192 C190 1.478 . S
C192 C194 1.381 . S
C192 C198 1.383 . S
C193 C189 1.495 . S
C193 H199 0.959 . S
C193 H200 0.961 . S
C193 H201 0.960 . S
C194 C192 1.381 . S
C194 C195 1.394 . S
C194 H202 0.930 . S
C195 C194 1.394 . S
C195 C196 1.383 . S
C195 H203 0.929 . S
C196 C195 1.383 . S
C196 C197 1.377 . S
C197 H181 0.930 . S
C197 C196 1.377 . S
C197 C198 1.379 . S
C198 H182 0.931 . S
C198 C192 1.383 . S
C198 C197 1.379 . S
H199 C193 0.959 . S
H200 C193 0.961 . S
H201 C193 0.960 . S
H202 C194 0.930 . S
H203 C195 0.929 . S
H204 C212 0.929 . S
H205 C214 0.930 . S
H206 C216 0.930 . S
H207 C219 0.929 . S
H208 C222 0.930 . S
H209 C224 0.960 . S
H210 C224 0.960 . S
H211 C224 0.960 . S
C212 H204 0.929 . S
C212 C213 1.377 . S
C212 C214 1.384 . S
C213 C212 1.377 . S
C213 C219 1.390 . S
C214 H205 0.930 . S
C214 C212 1.384 . S
C214 C215 1.372 . S
C215 C214 1.372 . S
C215 C216 1.400 . S
C215 C220 1.490 . S
C216 H206 0.930 . S
C216 C215 1.400 . S
C216 C219 1.386 . S
H217 C233 0.917 1_545 S
H218 C234 0.931 1_545 S
C219 H207 0.929 . S
C219 C213 1.390 . S
C219 C216 1.386 . S
C220 C215 1.490 . S
C220 C222 1.395 . S
C220 C223 1.403 . S
H221 C227 0.930 . S
C222 H208 0.930 . S
C222 C220 1.395 . S
C222 C225 1.403 . S
C223 C220 1.403 . S
C223 C224 1.524 . S
C223 C227 1.400 . S
C224 H209 0.960 . S
C224 H210 0.960 . S
C224 H211 0.960 . S
C224 C223 1.524 . S
C225 C222 1.403 . S
C225 C226 1.392 . S
C225 C229 1.495 . S
C226 C225 1.392 . S
C226 C227 1.385 . S
C226 C228 1.478 . S
C227 H221 0.930 . S
C227 C223 1.400 . S
C227 C226 1.385 . S
C228 C226 1.478 . S
C228 C230 1.381 . S
C228 C234 1.383 . S
C229 C225 1.495 . S
C229 H235 0.959 . S
C229 H236 0.961 . S
C229 H237 0.960 . S
C230 C228 1.381 . S
C230 C231 1.394 . S
C230 H238 0.930 . S
C231 C230 1.394 . S
C231 C232 1.383 . S
C231 H239 0.929 . S
C232 C231 1.383 . S
C232 C233 1.387 . S
C233 H217 0.917 1_565 S
C233 C232 1.387 . S
C233 C234 1.382 . S
C234 H218 0.931 1_565 S
C234 C228 1.383 . S
C234 C233 1.382 . S
H235 C229 0.959 . S
H236 C229 0.961 . S
H237 C229 0.960 . S
H238 C230 0.930 . S
H239 C231 0.929 . S
H240 C248 0.929 . S
H241 C250 0.930 . S
H242 C252 0.930 . S
H243 C255 0.929 . S
H244 C258 0.930 . S
H245 C260 0.960 . S
H246 C260 0.960 . S
H247 C260 0.960 . S
C248 H240 0.929 . S
C248 C249 1.377 . S
C248 C250 1.384 . S
C249 C248 1.377 . S
C249 C255 1.390 . S
C250 H241 0.930 . S
C250 C248 1.384 . S
C250 C251 1.372 . S
C251 C250 1.372 . S
C251 C252 1.400 . S
C251 C256 1.490 . S
C252 H242 0.930 . S
C252 C251 1.400 . S
C252 C255 1.386 . S
H253 C269 0.930 . S
H254 C270 0.931 . S
C255 H243 0.929 . S
C255 C249 1.390 . S
C255 C252 1.386 . S
C256 C251 1.490 . S
C256 C258 1.395 . S
C256 C259 1.403 . S
H257 C263 0.930 . S
C258 H244 0.930 . S
C258 C256 1.395 . S
C258 C261 1.403 . S
C259 C256 1.403 . S
C259 C260 1.524 . S
C259 C263 1.400 . S
C260 H245 0.960 . S
C260 H246 0.960 . S
C260 H247 0.960 . S
C260 C259 1.524 . S
C261 C258 1.403 . S
C261 C262 1.392 . S
C261 C265 1.495 . S
C262 C261 1.392 . S
C262 C263 1.385 . S
C262 C264 1.478 . S
C263 H257 0.930 . S
C263 C259 1.400 . S
C263 C262 1.385 . S
C264 C262 1.478 . S
C264 C266 1.381 . S
C264 C270 1.383 . S
C265 C261 1.495 . S
C265 H271 0.959 . S
C265 H272 0.961 . S
C265 H273 0.960 . S
C266 C264 1.381 . S
C266 C267 1.394 . S
C266 H274 0.930 . S
C267 C266 1.394 . S
C267 C268 1.383 . S
C267 H275 0.929 . S
C268 C267 1.383 . S
C268 C269 1.377 . S
C269 H253 0.930 . S
C269 C268 1.377 . S
C269 C270 1.379 . S
C270 H254 0.931 . S
C270 C264 1.383 . S
C270 C269 1.379 . S
H271 C265 0.959 . S
H272 C265 0.961 . S
H273 C265 0.960 . S
H274 C266 0.930 . S
H275 C267 0.929 . S
H276 C284 0.929 . S
H277 C286 0.930 . S
H278 C288 0.930 . S
H279 C291 0.929 . S
H280 C294 0.930 . S
H281 C296 0.960 . S
H282 C296 0.960 . S
H283 C296 0.960 . S
C284 H276 0.929 . S
C284 C285 1.377 . S
C284 C286 1.384 . S
C285 C284 1.377 . S
C285 C291 1.390 . S
C286 H277 0.930 . S
C286 C284 1.384 . S
C286 C287 1.372 . S
C287 C286 1.372 . S
C287 C288 1.400 . S
C287 C292 1.490 . S
C288 H278 0.930 . S
C288 C287 1.400 . S
C288 C291 1.386 . S
H289 C305 0.930 . S
H290 C306 0.931 . S
C291 H279 0.929 . S
C291 C285 1.390 . S
C291 C288 1.386 . S
C292 C287 1.490 . S
C292 C294 1.395 . S
C292 C295 1.403 . S
H293 C299 0.930 . S
C294 H280 0.930 . S
C294 C292 1.395 . S
C294 C297 1.403 . S
C295 C292 1.403 . S
C295 C296 1.524 . S
C295 C299 1.400 . S
C296 H281 0.960 . S
C296 H282 0.960 . S
C296 H283 0.960 . S
C296 C295 1.524 . S
C297 C294 1.403 . S
C297 C298 1.392 . S
C297 C301 1.495 . S
C298 C297 1.392 . S
C298 C299 1.385 . S
C298 C300 1.478 . S
C299 H293 0.930 . S
C299 C295 1.400 . S
C299 C298 1.385 . S
C300 C298 1.478 . S
C300 C302 1.381 . S
C300 C306 1.383 . S
C301 C297 1.495 . S
C301 H307 0.959 . S
C301 H308 0.961 . S
C301 H309 0.960 . S
C302 C300 1.381 . S
C302 C303 1.394 . S
C302 H310 0.930 . S
C303 C302 1.394 . S
C303 C304 1.383 . S
C303 H311 0.929 1_655 S
C304 C303 1.383 . S
C304 C305 1.377 . S
C305 H289 0.930 . S
C305 C304 1.377 . S
C305 C306 1.379 . S
C306 H290 0.931 . S
C306 C300 1.383 . S
C306 C305 1.379 . S
H307 C301 0.959 . S
H308 C301 0.961 . S
H309 C301 0.960 . S
H310 C302 0.930 . S
H311 C303 0.929 1_455 S
H312 C320 0.929 . S
H313 C322 0.930 . S
H314 C324 0.930 . S
H315 C327 0.929 . S
H316 C330 0.930 . S
H317 C332 0.960 . S
H318 C332 0.960 . S
H319 C332 0.960 . S
C320 H312 0.929 . S
C320 C321 1.377 . S
C320 C322 1.384 . S
C321 C320 1.377 . S
C321 C327 1.390 . S
C322 H313 0.930 . S
C322 C320 1.384 . S
C322 C323 1.372 . S
C323 C322 1.372 . S
C323 C324 1.400 . S
C323 C328 1.490 . S
C324 H314 0.930 . S
C324 C323 1.400 . S
C324 C327 1.386 . S
H325 C341 0.930 . S
H326 C342 0.931 . S
C327 H315 0.929 . S
C327 C321 1.390 . S
C327 C324 1.386 . S
C328 C323 1.490 . S
C328 C330 1.395 . S
C328 C331 1.403 . S
H329 C335 0.930 . S
C330 H316 0.930 . S
C330 C328 1.395 . S
C330 C333 1.403 . S
C331 C328 1.403 . S
C331 C332 1.524 . S
C331 C335 1.400 . S
C332 H317 0.960 . S
C332 H318 0.960 . S
C332 H319 0.960 . S
C332 C331 1.524 . S
C333 C330 1.403 . S
C333 C334 1.392 . S
C333 C337 1.495 . S
C334 C333 1.392 . S
C334 C335 1.385 . S
C334 C336 1.478 . S
C335 H329 0.930 . S
C335 C331 1.400 . S
C335 C334 1.385 . S
C336 C334 1.478 . S
C336 C338 1.381 . S
C336 C342 1.383 . S
C337 C333 1.495 . S
C337 H343 0.959 . S
C337 H344 0.961 . S
C337 H345 0.960 . S
C338 C336 1.381 . S
C338 C339 1.394 . S
C338 H346 0.930 . S
C339 C338 1.394 . S
C339 C340 1.383 . S
C339 H347 0.929 . S
C340 C339 1.383 . S
C340 C341 1.377 . S
C341 H325 0.930 . S
C341 C340 1.377 . S
C341 C342 1.379 . S
C342 H326 0.931 . S
C342 C336 1.383 . S
C342 C341 1.379 . S
H343 C337 0.959 . S
H344 C337 0.961 . S
H345 C337 0.960 . S
H346 C338 0.930 . S
H347 C339 0.929 . S
H348 C356 0.929 . S
H349 C358 0.930 . S
H350 C360 0.930 . S
H351 C363 0.929 . S
H352 C366 0.930 . S
H353 C368 0.960 . S
H354 C368 0.960 . S
H355 C368 0.960 . S
C356 H348 0.929 . S
C356 C357 1.377 . S
C356 C358 1.384 . S
C357 C356 1.377 . S
C357 C363 1.390 . S
C358 H349 0.930 . S
C358 C356 1.384 . S
C358 C359 1.372 . S
C359 C358 1.372 . S
C359 C360 1.400 . S
C359 C364 1.490 . S
C360 H350 0.930 . S
C360 C359 1.400 . S
C360 C363 1.386 . S
H361 C377 0.930 . S
H362 C378 0.931 . S
C363 H351 0.929 . S
C363 C357 1.390 . S
C363 C360 1.386 . S
C364 C359 1.490 . S
C364 C366 1.395 . S
C364 C367 1.403 . S
H365 C371 0.930 . S
C366 H352 0.930 . S
C366 C364 1.395 . S
C366 C369 1.403 . S
C367 C364 1.403 . S
C367 C368 1.524 . S
C367 C371 1.400 . S
C368 H353 0.960 . S
C368 H354 0.960 . S
C368 H355 0.960 . S
C368 C367 1.524 . S
C369 C366 1.403 . S
C369 C370 1.392 . S
C369 C373 1.495 1_565 S
C370 C369 1.392 . S
C370 C371 1.385 . S
C370 C372 1.478 . S
C371 H365 0.930 . S
C371 C367 1.400 . S
C371 C370 1.385 . S
C372 C370 1.478 . S
C372 C374 1.381 1_565 S
C372 C378 1.383 . S
C373 C369 1.495 1_545 S
C373 H379 0.959 . S
C373 H380 0.961 1_545 S
C373 H381 0.960 . S
C374 C372 1.381 1_545 S
C374 C375 1.394 . S
C374 H382 0.930 . S
C375 C374 1.394 . S
C375 C376 1.383 . S
C375 H383 0.929 . S
C376 C375 1.383 . S
C376 C377 1.377 1_545 S
C377 H361 0.930 . S
C377 C376 1.377 1_565 S
C377 C378 1.379 . S
C378 H362 0.931 . S
C378 C372 1.383 . S
C378 C377 1.379 . S
H379 C373 0.959 . S
H380 C373 0.961 1_565 S
H381 C373 0.960 . S
H382 C374 0.930 . S
H383 C375 0.929 . S
H384 C392 0.929 . S
H385 C394 0.930 . S
H386 C396 0.930 . S
H387 C399 0.929 . S
H388 C402 0.930 . S
H389 C404 0.960 1_554 S
H390 C404 0.960 . S
H391 C404 0.960 . S
C392 H384 0.929 . S
C392 C393 1.377 . S
C392 C394 1.384 . S
C393 C392 1.377 . S
C393 C399 1.390 . S
C394 H385 0.930 . S
C394 C392 1.384 . S
C394 C395 1.372 . S
C395 C394 1.372 . S
C395 C396 1.400 . S
C395 C400 1.490 . S
C396 H386 0.930 . S
C396 C395 1.400 . S
C396 C399 1.386 . S
H397 C413 0.931 . S
H398 C414 0.931 . S
C399 H387 0.929 . S
C399 C393 1.390 . S
C399 C396 1.386 . S
C400 C395 1.490 . S
C400 C402 1.395 . S
C400 C403 1.403 . S
H401 C407 0.930 . S
C402 H388 0.930 . S
C402 C400 1.395 . S
C402 C405 1.403 . S
C403 C400 1.403 . S
C403 C404 1.524 . S
C403 C407 1.400 . S
C404 H389 0.960 1_556 S
C404 H390 0.960 . S
C404 H391 0.960 . S
C404 C403 1.524 . S
C405 C402 1.403 . S
C405 C406 1.392 . S
C405 C409 1.495 . S
C406 C405 1.392 . S
C406 C407 1.385 . S
C406 C408 1.478 . S
C407 H401 0.930 . S
C407 C403 1.400 . S
C407 C406 1.385 . S
C408 C406 1.478 . S
C408 C410 1.381 . S
C408 C414 1.383 . S
C409 C405 1.495 . S
C409 H415 0.959 . S
C409 H416 0.961 . S
C409 H417 0.960 . S
C410 C408 1.381 . S
C410 C411 1.394 . S
C410 H418 0.930 . S
C411 C410 1.394 . S
C411 C412 1.383 . S
C411 H419 0.929 . S
C412 C411 1.383 . S
C412 C413 1.376 1_556 S
C413 H397 0.931 . S
C413 C412 1.376 1_554 S
C413 C414 1.379 1_554 S
C414 H398 0.931 . S
C414 C408 1.383 . S
C414 C413 1.379 1_556 S
H415 C409 0.959 . S
H416 C409 0.961 . S
H417 C409 0.960 . S
H418 C410 0.930 . S
H419 C411 0.929 . S
H420 C428 0.929 . S
H421 C430 0.930 . S
H422 C432 0.930 . S
H423 C435 0.929 . S
H424 C438 0.930 . S
H425 C440 0.960 . S
H426 C440 0.960 . S
H427 C440 0.960 . S
C428 H420 0.929 . S
C428 C429 1.377 . S
C428 C430 1.384 . S
C429 C428 1.377 . S
C429 C435 1.390 . S
C430 H421 0.930 . S
C430 C428 1.384 . S
C430 C431 1.372 . S
C431 C430 1.372 . S
C431 C432 1.400 . S
C431 C436 1.490 . S
C432 H422 0.930 . S
C432 C431 1.400 . S
C432 C435 1.386 . S
H433 C449 0.930 . S
H434 C450 0.931 . S
C435 H423 0.929 . S
C435 C429 1.390 . S
C435 C432 1.386 . S
C436 C431 1.490 . S
C436 C438 1.395 . S
C436 C439 1.403 . S
H437 C443 0.930 . S
C438 H424 0.930 . S
C438 C436 1.395 . S
C438 C441 1.403 . S
C439 C436 1.403 . S
C439 C440 1.524 . S
C439 C443 1.400 . S
C440 H425 0.960 . S
C440 H426 0.960 . S
C440 H427 0.960 . S
C440 C439 1.524 . S
C441 C438 1.403 . S
C441 C442 1.392 . S
C441 C445 1.495 . S
C442 C441 1.392 . S
C442 C443 1.385 . S
C442 C444 1.478 . S
C443 H437 0.930 . S
C443 C439 1.400 . S
C443 C442 1.385 . S
C444 C442 1.478 . S
C444 C446 1.381 . S
C444 C450 1.383 . S
C445 C441 1.495 . S
C445 H451 0.959 . S
C445 H452 0.961 . S
C445 H453 0.960 . S
C446 C444 1.381 . S
C446 C447 1.394 . S
C446 H454 0.930 . S
C447 C446 1.394 . S
C447 C448 1.383 . S
C447 H455 0.929 . S
C448 C447 1.383 . S
C448 C449 1.377 . S
C449 H433 0.930 . S
C449 C448 1.377 . S
C449 C450 1.379 . S
C450 H434 0.931 . S
C450 C444 1.383 . S
C450 C449 1.379 . S
H451 C445 0.959 . S
H452 C445 0.961 . S
H453 C445 0.960 . S
H454 C446 0.930 . S
H455 C447 0.929 . S
H456 C464 0.929 . S
H457 C466 0.930 . S
H458 C468 0.930 . S
H459 C471 0.929 . S
H460 C474 0.930 . S
H461 C476 0.960 . S
H462 C476 0.960 . S
H463 C476 0.960 . S
C464 H456 0.929 . S
C464 C465 1.377 . S
C464 C466 1.384 . S
C465 C464 1.377 . S
C465 C471 1.390 . S
C466 H457 0.930 . S
C466 C464 1.384 . S
C466 C467 1.372 . S
C467 C466 1.372 . S
C467 C468 1.400 . S
C467 C472 1.490 . S
C468 H458 0.930 . S
C468 C467 1.400 . S
C468 C471 1.386 . S
H469 C485 0.930 . S
H470 C486 0.931 . S
C471 H459 0.929 . S
C471 C465 1.390 . S
C471 C468 1.386 . S
C472 C467 1.490 . S
C472 C474 1.395 . S
C472 C475 1.403 . S
H473 C479 0.930 . S
C474 H460 0.930 . S
C474 C472 1.395 . S
C474 C477 1.403 . S
C475 C472 1.403 . S
C475 C476 1.524 . S
C475 C479 1.400 . S
C476 H461 0.960 . S
C476 H462 0.960 . S
C476 H463 0.960 . S
C476 C475 1.524 . S
C477 C474 1.403 . S
C477 C478 1.392 . S
C477 C481 1.495 . S
C478 C477 1.392 . S
C478 C479 1.385 . S
C478 C480 1.478 . S
C479 H473 0.930 . S
C479 C475 1.400 . S
C479 C478 1.385 . S
C480 C478 1.478 . S
C480 C482 1.381 . S
C480 C486 1.383 . S
C481 C477 1.495 . S
C481 H487 0.959 . S
C481 H488 0.961 . S
C481 H489 0.960 . S
C482 C480 1.381 . S
C482 C483 1.394 . S
C482 H490 0.930 . S
C483 C482 1.394 . S
C483 C484 1.383 . S
C483 H491 0.929 . S
C484 C483 1.383 . S
C484 C485 1.377 . S
C485 H469 0.930 . S
C485 C484 1.377 . S
C485 C486 1.379 . S
C486 H470 0.931 . S
C486 C480 1.383 . S
C486 C485 1.379 . S
H487 C481 0.959 . S
H488 C481 0.961 . S
H489 C481 0.960 . S
H490 C482 0.930 . S
H491 C483 0.929 . S
H492 C500 0.929 . S
H493 C502 0.930 . S
H494 C504 0.930 . S
H495 C507 0.929 . S
H496 C510 0.930 . S
H497 C512 0.960 1_554 S
H498 C512 0.975 . S
H499 C512 0.960 . S
C500 H492 0.929 . S
C500 C501 1.377 . S
C500 C502 1.384 . S
C501 C500 1.377 . S
C501 C507 1.390 . S
C502 H493 0.930 . S
C502 C500 1.384 . S
C502 C503 1.372 . S
C503 C502 1.372 . S
C503 C504 1.400 . S
C503 C508 1.490 . S
C504 H494 0.930 . S
C504 C503 1.400 . S
C504 C507 1.386 . S
H505 C521 0.932 . S
H506 C522 0.931 . S
C507 H495 0.929 . S
C507 C501 1.390 . S
C507 C504 1.386 . S
C508 C503 1.490 . S
C508 C510 1.395 . S
C508 C511 1.403 . S
H509 C515 0.930 1_554 S
C510 H496 0.930 . S
C510 C508 1.395 . S
C510 C513 1.403 . S
C511 C508 1.403 . S
C511 C512 1.524 . S
C511 C515 1.400 . S
C512 H497 0.960 1_556 S
C512 H498 0.975 . S
C512 H499 0.960 . S
C512 C511 1.524 . S
C513 C510 1.403 . S
C513 C514 1.392 . S
C513 C517 1.495 . S
C514 C513 1.392 . S
C514 C515 1.385 . S
C514 C516 1.478 . S
C515 H509 0.930 1_556 S
C515 C511 1.400 . S
C515 C514 1.385 . S
C516 C514 1.478 . S
C516 C518 1.381 1_556 S
C516 C522 1.383 . S
C517 C513 1.495 . S
C517 H523 0.959 . S
C517 H524 0.961 . S
C517 H525 0.960 . S
C518 C516 1.381 1_554 S
C518 C519 1.394 . S
C518 H526 0.930 . S
C519 C518 1.394 . S
C519 C520 1.383 . S
C519 H527 0.929 . S
C520 C519 1.383 . S
C520 C521 1.369 1_554 S
C521 H505 0.932 . S
C521 C520 1.369 1_556 S
C521 C522 1.385 . S
C522 H506 0.931 . S
C522 C516 1.383 . S
C522 C521 1.385 . S
H523 C517 0.959 . S
H524 C517 0.961 . S
H525 C517 0.960 . S
H526 C518 0.930 . S
H527 C519 0.929 . S
H528 C536 0.929 . S
H529 C538 0.930 . S
H530 C540 0.930 . S
H531 C543 0.929 . S
H532 C546 0.930 . S
H533 C548 0.960 . S
H534 C548 0.960 . S
H535 C548 0.960 . S
C536 H528 0.929 . S
C536 C537 1.377 . S
C536 C538 1.384 . S
C537 C536 1.377 . S
C537 C543 1.390 . S
C538 H529 0.930 . S
C538 C536 1.384 . S
C538 C539 1.372 . S
C539 C538 1.372 . S
C539 C540 1.400 . S
C539 C544 1.490 . S
C540 H530 0.930 . S
C540 C539 1.400 . S
C540 C543 1.386 . S
H541 C557 0.930 1_455 S
H542 C558 0.931 . S
C543 H531 0.929 . S
C543 C537 1.390 . S
C543 C540 1.386 . S
C544 C539 1.490 . S
C544 C546 1.395 . S
C544 C547 1.403 . S
H545 C551 0.930 . S
C546 H532 0.930 . S
C546 C544 1.395 . S
C546 C549 1.403 . S
C547 C544 1.403 . S
C547 C548 1.524 . S
C547 C551 1.400 . S
C548 H533 0.960 . S
C548 H534 0.960 . S
C548 H535 0.960 . S
C548 C547 1.524 . S
C549 C546 1.403 . S
C549 C550 1.392 . S
C549 C553 1.495 . S
C550 C549 1.392 . S
C550 C551 1.385 . S
C550 C552 1.478 . S
C551 H545 0.930 . S
C551 C547 1.400 . S
C551 C550 1.385 . S
C552 C550 1.478 . S
C552 C554 1.381 . S
C552 C558 1.383 . S
C553 C549 1.495 . S
C553 H559 0.959 . S
C553 H560 0.961 . S
C553 H561 0.960 . S
C554 C552 1.381 . S
C554 C555 1.394 . S
C554 H562 0.930 . S
C555 C554 1.394 . S
C555 C556 1.383 . S
C555 H563 0.929 . S
C556 C555 1.383 . S
C556 C557 1.377 . S
C557 H541 0.930 1_655 S
C557 C556 1.377 . S
C557 C558 1.379 . S
C558 H542 0.931 . S
C558 C552 1.383 . S
C558 C557 1.379 . S
H559 C553 0.959 . S
H560 C553 0.961 . S
H561 C553 0.960 . S
H562 C554 0.930 . S
H563 C555 0.929 . S
H564 C572 0.929 . S
H565 C574 0.930 . S
H566 C576 0.930 . S
H567 C579 0.929 . S
H568 C582 0.930 . S
H569 C584 0.960 . S
H570 C584 0.960 . S
H571 C584 0.960 . S
C572 H564 0.929 . S
C572 C573 1.377 . S
C572 C574 1.384 . S
C573 C572 1.377 . S
C573 C579 1.390 . S
C574 H565 0.930 . S
C574 C572 1.384 . S
C574 C575 1.372 . S
C575 C574 1.372 . S
C575 C576 1.400 . S
C575 C580 1.490 . S
C576 H566 0.930 . S
C576 C575 1.400 . S
C576 C579 1.386 . S
H577 C593 0.930 . S
H578 C594 0.931 . S
C579 H567 0.929 . S
C579 C573 1.390 . S
C579 C576 1.386 . S
C580 C575 1.490 . S
C580 C582 1.395 . S
C580 C583 1.403 . S
H581 C587 0.930 . S
C582 H568 0.930 . S
C582 C580 1.395 . S
C582 C585 1.403 . S
C583 C580 1.403 . S
C583 C584 1.524 . S
C583 C587 1.400 . S
C584 H569 0.960 . S
C584 H570 0.960 . S
C584 H571 0.960 . S
C584 C583 1.524 . S
C585 C582 1.403 . S
C585 C586 1.392 . S
C585 C589 1.495 . S
C586 C585 1.392 . S
C586 C587 1.385 . S
C586 C588 1.478 . S
C587 H581 0.930 . S
C587 C583 1.400 . S
C587 C586 1.385 . S
C588 C586 1.478 . S
C588 C590 1.381 . S
C588 C594 1.383 . S
C589 C585 1.495 . S
C589 H595 0.959 . S
C589 H596 0.961 . S
C589 H597 0.960 . S
C590 C588 1.381 . S
C590 C591 1.394 . S
C590 H598 0.930 . S
C591 C590 1.394 . S
C591 C592 1.383 . S
C591 H599 0.929 . S
C592 C591 1.383 . S
C592 C593 1.377 . S
C593 H577 0.930 . S
C593 C592 1.377 . S
C593 C594 1.379 . S
C594 H578 0.931 . S
C594 C588 1.383 . S
C594 C593 1.379 . S
H595 C589 0.959 . S
H596 C589 0.961 . S
H597 C589 0.960 . S
H598 C590 0.930 . S
H599 C591 0.929 . S
H600 C608 0.929 . S
H601 C610 0.930 . S
H602 C612 0.930 . S
H603 C615 0.929 . S
H604 C618 0.930 . S
H605 C620 0.960 . S
H606 C620 0.960 . S
H607 C620 0.960 . S
C608 H600 0.929 . S
C608 C609 1.377 . S
C608 C610 1.384 . S
C609 C608 1.377 . S
C609 C615 1.390 . S
C610 H601 0.930 . S
C610 C608 1.384 . S
C610 C611 1.372 . S
C611 C610 1.372 . S
C611 C612 1.400 . S
C611 C616 1.490 . S
C612 H602 0.930 . S
C612 C611 1.400 . S
C612 C615 1.386 . S
H613 C629 0.930 . S
H614 C630 0.931 . S
C615 H603 0.929 . S
C615 C609 1.390 . S
C615 C612 1.386 . S
C616 C611 1.490 . S
C616 C618 1.395 . S
C616 C619 1.403 . S
H617 C623 0.930 . S
C618 H604 0.930 . S
C618 C616 1.395 . S
C618 C621 1.403 . S
C619 C616 1.403 . S
C619 C620 1.524 . S
C619 C623 1.400 . S
C620 H605 0.960 . S
C620 H606 0.960 . S
C620 H607 0.960 . S
C620 C619 1.524 . S
C621 C618 1.403 . S
C621 C622 1.392 . S
C621 C625 1.495 . S
C622 C621 1.392 . S
C622 C623 1.385 . S
C622 C624 1.478 . S
C623 H617 0.930 . S
C623 C619 1.400 . S
C623 C622 1.385 . S
C624 C622 1.478 . S
C624 C626 1.381 . S
C624 C630 1.383 . S
C625 C621 1.495 . S
C625 H631 0.959 . S
C625 H632 0.961 . S
C625 H633 0.960 . S
C626 C624 1.381 . S
C626 C627 1.394 . S
C626 H634 0.930 . S
C627 C626 1.394 . S
C627 C628 1.383 . S
C627 H635 0.929 . S
C628 C627 1.383 . S
C628 C629 1.377 . S
C629 H613 0.930 . S
C629 C628 1.377 . S
C629 C630 1.379 . S
C630 H614 0.931 . S
C630 C624 1.383 . S
C630 C629 1.379 . S
H631 C625 0.959 . S
H632 C625 0.961 . S
H633 C625 0.960 . S
H634 C626 0.930 . S
H635 C627 0.929 . S
H636 C644 0.929 . S
H637 C646 0.930 . S
H638 C648 0.930 . S
H639 C651 0.929 . S
H640 C654 0.930 . S
H641 C656 0.960 . S
H642 C656 0.960 . S
H643 C656 0.960 . S
C644 H636 0.929 . S
C644 C645 1.377 . S
C644 C646 1.384 . S
C645 C644 1.377 . S
C645 C651 1.390 . S
C646 H637 0.930 . S
C646 C644 1.384 . S
C646 C647 1.372 . S
C647 C646 1.372 . S
C647 C648 1.400 . S
C647 C652 1.490 . S
C648 H638 0.930 . S
C648 C647 1.400 . S
C648 C651 1.386 . S
H649 C665 0.930 . S
H650 C666 0.931 . S
C651 H639 0.929 . S
C651 C645 1.390 . S
C651 C648 1.386 . S
C652 C647 1.490 . S
C652 C654 1.395 . S
C652 C655 1.403 . S
H653 C659 0.930 . S
C654 H640 0.930 . S
C654 C652 1.395 . S
C654 C657 1.403 . S
C655 C652 1.403 . S
C655 C656 1.524 . S
C655 C659 1.400 . S
C656 H641 0.960 . S
C656 H642 0.960 . S
C656 H643 0.960 . S
C656 C655 1.524 . S
C657 C654 1.403 . S
C657 C658 1.392 . S
C657 C661 1.495 . S
C658 C657 1.392 . S
C658 C659 1.385 . S
C658 C660 1.478 . S
C659 H653 0.930 . S
C659 C655 1.400 . S
C659 C658 1.385 . S
C660 C658 1.478 . S
C660 C662 1.381 . S
C660 C666 1.383 . S
C661 C657 1.495 . S
C661 H667 0.959 . S
C661 H668 0.961 . S
C661 H669 0.960 . S
C662 C660 1.381 . S
C662 C663 1.394 . S
C662 H670 0.930 . S
C663 C662 1.394 . S
C663 C664 1.383 . S
C663 H671 0.929 . S
C664 C663 1.383 . S
C664 C665 1.377 . S
C665 H649 0.930 . S
C665 C664 1.377 . S
C665 C666 1.379 . S
C666 H650 0.931 . S
C666 C660 1.383 . S
C666 C665 1.379 . S
H667 C661 0.959 . S
H668 C661 0.961 . S
H669 C661 0.960 . S
H670 C662 0.930 . S
H671 C663 0.929 . S
H672 C680 0.929 . S
H673 C682 0.930 . S
H674 C684 0.930 . S
H675 C687 0.929 . S
H676 C690 0.930 . S
H677 C692 0.960 . S
H678 C692 0.960 . S
H679 C692 0.960 . S
C680 H672 0.929 . S
C680 C681 1.377 . S
C680 C682 1.384 . S
C681 C680 1.377 . S
C681 C687 1.390 . S
C682 H673 0.930 . S
C682 C680 1.384 . S
C682 C683 1.372 . S
C683 C682 1.372 . S
C683 C684 1.400 . S
C683 C688 1.490 . S
C684 H674 0.930 . S
C684 C683 1.400 . S
C684 C687 1.386 . S
H685 C701 0.930 . S
H686 C702 0.931 . S
C687 H675 0.929 . S
C687 C681 1.390 . S
C687 C684 1.386 . S
C688 C683 1.490 . S
C688 C690 1.395 . S
C688 C691 1.403 . S
H689 C695 0.930 . S
C690 H676 0.930 . S
C690 C688 1.395 . S
C690 C693 1.403 . S
C691 C688 1.403 . S
C691 C692 1.524 . S
C691 C695 1.400 . S
C692 H677 0.960 . S
C692 H678 0.960 . S
C692 H679 0.960 . S
C692 C691 1.524 . S
C693 C690 1.403 . S
C693 C694 1.392 . S
C693 C697 1.495 . S
C694 C693 1.392 . S
C694 C695 1.385 . S
C694 C696 1.478 . S
C695 H689 0.930 . S
C695 C691 1.400 . S
C695 C694 1.385 . S
C696 C694 1.478 . S
C696 C698 1.381 . S
C696 C702 1.383 . S
C697 C693 1.495 . S
C697 H703 0.959 . S
C697 H704 0.961 . S
C697 H705 0.960 . S
C698 C696 1.381 . S
C698 C699 1.394 . S
C698 H706 0.930 . S
C699 C698 1.394 . S
C699 C700 1.383 . S
C699 H707 0.929 . S
C700 C699 1.383 . S
C700 C701 1.377 . S
C701 H685 0.930 . S
C701 C700 1.377 . S
C701 C702 1.379 . S
C702 H686 0.931 . S
C702 C696 1.383 . S
C702 C701 1.379 . S
H703 C697 0.959 . S
H704 C697 0.961 . S
H705 C697 0.960 . S
H706 C698 0.930 . S
H707 C699 0.929 . S
H708 C716 0.929 . S
H709 C718 0.930 . S
H710 C720 0.930 . S
H711 C723 0.929 . S
H712 C726 0.930 . S
H713 C728 0.960 . S
H714 C728 0.960 . S
H715 C728 0.960 . S
C716 H708 0.929 . S
C716 C717 1.377 . S
C716 C718 1.384 . S
C717 C716 1.377 . S
C717 C723 1.390 . S
C718 H709 0.930 . S
C718 C716 1.384 . S
C718 C719 1.372 . S
C719 C718 1.372 . S
C719 C720 1.400 . S
C719 C724 1.490 . S
C720 H710 0.930 . S
C720 C719 1.400 . S
C720 C723 1.386 . S
H721 C737 0.930 . S
H722 C738 0.931 . S
C723 H711 0.929 . S
C723 C717 1.390 . S
C723 C720 1.386 . S
C724 C719 1.490 . S
C724 C726 1.395 . S
C724 C727 1.403 . S
H725 C731 0.930 . S
C726 H712 0.930 . S
C726 C724 1.395 . S
C726 C729 1.403 . S
C727 C724 1.403 . S
C727 C728 1.524 . S
C727 C731 1.400 . S
C728 H713 0.960 . S
C728 H714 0.960 . S
C728 H715 0.960 . S
C728 C727 1.524 . S
C729 C726 1.403 . S
C729 C730 1.392 . S
C729 C733 1.495 . S
C730 C729 1.392 . S
C730 C731 1.385 . S
C730 C732 1.478 . S
C731 H725 0.930 . S
C731 C727 1.400 . S
C731 C730 1.385 . S
C732 C730 1.478 . S
C732 C734 1.381 . S
C732 C738 1.383 . S
C733 C729 1.495 . S
C733 H739 0.959 . S
C733 H740 0.961 . S
C733 H741 0.960 . S
C734 C732 1.381 . S
C734 C735 1.394 . S
C734 H742 0.930 . S
C735 C734 1.394 . S
C735 C736 1.383 . S
C735 H743 0.929 . S
C736 C735 1.383 . S
C736 C737 1.377 . S
C737 H721 0.930 . S
C737 C736 1.377 . S
C737 C738 1.379 . S
C738 H722 0.931 . S
C738 C732 1.383 . S
C738 C737 1.379 . S
H739 C733 0.959 . S
H740 C733 0.961 . S
H741 C733 0.960 . S
H742 C734 0.930 . S
H743 C735 0.929 . S
H744 C752 0.929 . S
H745 C754 0.930 . S
H746 C756 0.930 . S
H747 C759 0.929 . S
H748 C762 0.930 . S
H749 C764 0.960 . S
H750 C764 0.960 . S
H751 C764 0.960 . S
C752 H744 0.929 . S
C752 C753 1.377 . S
C752 C754 1.384 . S
C753 C752 1.377 . S
C753 C759 1.390 . S
C754 H745 0.930 . S
C754 C752 1.384 . S
C754 C755 1.372 . S
C755 C754 1.372 . S
C755 C756 1.400 . S
C755 C760 1.490 . S
C756 H746 0.930 . S
C756 C755 1.400 . S
C756 C759 1.386 . S
H757 C773 0.930 . S
H758 C774 0.931 . S
C759 H747 0.929 . S
C759 C753 1.390 . S
C759 C756 1.386 . S
C760 C755 1.490 . S
C760 C762 1.395 . S
C760 C763 1.403 . S
H761 C767 0.930 . S
C762 H748 0.930 . S
C762 C760 1.395 . S
C762 C765 1.403 . S
C763 C760 1.403 . S
C763 C764 1.524 . S
C763 C767 1.400 . S
C764 H749 0.960 . S
C764 H750 0.960 . S
C764 H751 0.960 . S
C764 C763 1.524 . S
C765 C762 1.403 . S
C765 C766 1.392 . S
C765 C769 1.495 . S
C766 C765 1.392 . S
C766 C767 1.385 . S
C766 C768 1.478 . S
C767 H761 0.930 . S
C767 C763 1.400 . S
C767 C766 1.385 . S
C768 C766 1.478 . S
C768 C770 1.381 . S
C768 C774 1.383 . S
C769 C765 1.495 . S
C769 H775 0.959 . S
C769 H776 0.961 . S
C769 H777 0.960 . S
C770 C768 1.381 . S
C770 C771 1.394 1_556 S
C770 H778 0.930 . S
C771 C770 1.394 1_554 S
C771 C772 1.383 . S
C771 H779 0.929 1_565 S
C772 C771 1.383 . S
C772 C773 1.377 1_554 S
C773 H757 0.930 . S
C773 C772 1.377 1_556 S
C773 C774 1.379 . S
C774 H758 0.931 . S
C774 C768 1.383 . S
C774 C773 1.379 . S
H775 C769 0.959 . S
H776 C769 0.961 . S
H777 C769 0.960 . S
H778 C770 0.930 . S
H779 C771 0.929 1_545 S
H780 C788 0.929 . S
H781 C790 0.930 . S
H782 C792 0.930 . S
H783 C795 0.929 . S
H784 C798 0.930 . S
H785 C800 0.960 . S
H786 C800 0.960 . S
H787 C800 0.960 . S
C788 H780 0.929 . S
C788 C789 1.377 . S
C788 C790 1.384 . S
C789 C788 1.377 . S
C789 C795 1.390 . S
C790 H781 0.930 . S
C790 C788 1.384 . S
C790 C791 1.372 . S
C791 C790 1.372 . S
C791 C792 1.400 . S
C791 C796 1.490 . S
C792 H782 0.930 . S
C792 C791 1.400 . S
C792 C795 1.386 . S
H793 C809 0.930 . S
H794 C810 0.931 . S
C795 H783 0.929 . S
C795 C789 1.390 . S
C795 C792 1.386 . S
C796 C791 1.490 . S
C796 C798 1.395 . S
C796 C799 1.403 . S
H797 C803 0.930 . S
C798 H784 0.930 . S
C798 C796 1.395 . S
C798 C801 1.403 . S
C799 C796 1.403 . S
C799 C800 1.524 . S
C799 C803 1.400 . S
C800 H785 0.960 . S
C800 H786 0.960 . S
C800 H787 0.960 . S
C800 C799 1.524 . S
C801 C798 1.403 . S
C801 C802 1.392 . S
C801 C805 1.495 . S
C802 C801 1.392 . S
C802 C803 1.385 . S
C802 C804 1.478 . S
C803 H797 0.930 . S
C803 C799 1.400 . S
C803 C802 1.385 . S
C804 C802 1.478 . S
C804 C806 1.381 . S
C804 C810 1.383 . S
C805 C801 1.495 . S
C805 H811 0.959 . S
C805 H812 0.961 . S
C805 H813 0.960 . S
C806 C804 1.381 . S
C806 C807 1.394 . S
C806 H814 0.930 . S
C807 C806 1.394 . S
C807 C808 1.383 . S
C807 H815 0.929 . S
C808 C807 1.383 . S
C808 C809 1.377 . S
C809 H793 0.930 . S
C809 C808 1.377 . S
C809 C810 1.379 . S
C810 H794 0.931 . S
C810 C804 1.383 . S
C810 C809 1.379 . S
H811 C805 0.959 . S
H812 C805 0.961 . S
H813 C805 0.960 . S
H814 C806 0.930 . S
H815 C807 0.929 . S
H816 C824 0.929 . S
H817 C826 0.930 . S
H818 C828 0.930 . S
H819 C831 0.929 . S
H820 C834 0.930 . S
H821 C836 0.960 . S
H822 C836 0.960 . S
H823 C836 0.960 . S
C824 H816 0.929 . S
C824 C825 1.377 . S
C824 C826 1.384 . S
C825 C824 1.377 . S
C825 C831 1.390 . S
C826 H817 0.930 . S
C826 C824 1.384 . S
C826 C827 1.372 . S
C827 C826 1.372 . S
C827 C828 1.400 . S
C827 C832 1.490 . S
C828 H818 0.930 . S
C828 C827 1.400 . S
C828 C831 1.386 . S
H829 C845 0.930 . S
H830 C846 0.931 . S
C831 H819 0.929 . S
C831 C825 1.390 . S
C831 C828 1.386 . S
C832 C827 1.490 . S
C832 C834 1.395 . S
C832 C835 1.403 . S
H833 C839 0.930 . S
C834 H820 0.930 . S
C834 C832 1.395 . S
C834 C837 1.403 . S
C835 C832 1.403 . S
C835 C836 1.524 . S
C835 C839 1.400 . S
C836 H821 0.960 . S
C836 H822 0.960 . S
C836 H823 0.960 . S
C836 C835 1.524 . S
C837 C834 1.403 . S
C837 C838 1.392 . S
C837 C841 1.495 . S
C838 C837 1.392 . S
C838 C839 1.385 . S
C838 C840 1.478 . S
C839 H833 0.930 . S
C839 C835 1.400 . S
C839 C838 1.385 . S
C840 C838 1.478 . S
C840 C842 1.381 . S
C840 C846 1.383 . S
C841 C837 1.495 . S
C841 H847 0.959 . S
C841 H848 0.961 . S
C841 H849 0.960 . S
C842 C840 1.381 . S
C842 C843 1.394 . S
C842 H850 0.930 . S
C843 C842 1.394 . S
C843 C844 1.383 . S
C843 H851 0.929 . S
C844 C843 1.383 . S
C844 C845 1.377 . S
C845 H829 0.930 . S
C845 C844 1.377 . S
C845 C846 1.379 . S
C846 H830 0.931 . S
C846 C840 1.383 . S
C846 C845 1.379 . S
H847 C841 0.959 . S
H848 C841 0.961 . S
H849 C841 0.960 . S
H850 C842 0.930 . S
H851 C843 0.929 . S
H852 C860 0.929 . S
H853 C862 0.930 . S
H854 C864 0.930 . S
H855 C867 0.929 . S
H856 C870 0.930 . S
H857 C872 0.960 . S
H858 C872 0.960 . S
H859 C872 0.960 . S
C860 H852 0.929 . S
C860 C861 1.377 . S
C860 C862 1.384 . S
C861 C860 1.377 . S
C861 C867 1.390 . S
C862 H853 0.930 . S
C862 C860 1.384 . S
C862 C863 1.372 . S
C863 C862 1.372 . S
C863 C864 1.400 . S
C863 C868 1.490 . S
C864 H854 0.930 . S
C864 C863 1.400 . S
C864 C867 1.386 . S
H865 C881 0.930 . S
H866 C882 0.931 . S
C867 H855 0.929 . S
C867 C861 1.390 . S
C867 C864 1.386 . S
C868 C863 1.490 . S
C868 C870 1.395 . S
C868 C871 1.403 . S
H869 C875 0.930 . S
C870 H856 0.930 . S
C870 C868 1.395 . S
C870 C873 1.403 . S
C871 C868 1.403 . S
C871 C872 1.524 . S
C871 C875 1.400 . S
C872 H857 0.960 . S
C872 H858 0.960 . S
C872 H859 0.960 . S
C872 C871 1.524 . S
C873 C870 1.403 . S
C873 C874 1.392 . S
C873 C877 1.495 . S
C874 C873 1.392 . S
C874 C875 1.385 . S
C874 C876 1.478 . S
C875 H869 0.930 . S
C875 C871 1.400 . S
C875 C874 1.385 . S
C876 C874 1.478 . S
C876 C878 1.381 . S
C876 C882 1.383 . S
C877 C873 1.495 . S
C877 H883 0.959 . S
C877 H884 0.961 . S
C877 H885 0.960 . S
C878 C876 1.381 . S
C878 C879 1.394 . S
C878 H886 0.930 . S
C879 C878 1.394 . S
C879 C880 1.383 . S
C879 H887 0.929 . S
C880 C879 1.383 . S
C880 C881 1.377 . S
C881 H865 0.930 . S
C881 C880 1.377 . S
C881 C882 1.379 . S
C882 H866 0.931 . S
C882 C876 1.383 . S
C882 C881 1.379 . S
H883 C877 0.959 . S
H884 C877 0.961 . S
H885 C877 0.960 . S
H886 C878 0.930 . S
H887 C879 0.929 . S
H888 C896 0.929 . S
H889 C898 0.930 . S
H890 C900 0.930 . S
H891 C903 0.929 . S
H892 C906 0.930 . S
H893 C908 0.960 . S
H894 C908 0.960 . S
H895 C908 0.960 . S
C896 H888 0.929 . S
C896 C897 1.377 . S
C896 C898 1.384 . S
C897 C896 1.377 . S
C897 C903 1.390 . S
C898 H889 0.930 . S
C898 C896 1.384 . S
C898 C899 1.372 . S
C899 C898 1.372 . S
C899 C900 1.400 . S
C899 C904 1.490 . S
C900 H890 0.930 . S
C900 C899 1.400 . S
C900 C903 1.386 . S
H901 C917 0.930 . S
H902 C918 0.931 . S
C903 H891 0.929 . S
C903 C897 1.390 . S
C903 C900 1.386 . S
C904 C899 1.490 . S
C904 C906 1.395 . S
C904 C907 1.403 . S
H905 C911 0.930 . S
C906 H892 0.930 . S
C906 C904 1.395 . S
C906 C909 1.403 . S
C907 C904 1.403 . S
C907 C908 1.524 . S
C907 C911 1.400 . S
C908 H893 0.960 . S
C908 H894 0.960 . S
C908 H895 0.960 . S
C908 C907 1.524 . S
C909 C906 1.403 . S
C909 C910 1.392 . S
C909 C913 1.495 . S
C910 C909 1.392 . S
C910 C911 1.385 . S
C910 C912 1.478 . S
C911 H905 0.930 . S
C911 C907 1.400 . S
C911 C910 1.385 . S
C912 C910 1.478 . S
C912 C914 1.381 . S
C912 C918 1.383 . S
C913 C909 1.495 . S
C913 H919 0.959 . S
C913 H920 0.961 . S
C913 H921 0.960 . S
C914 C912 1.381 . S
C914 C915 1.394 . S
C914 H922 0.930 . S
C915 C914 1.394 . S
C915 C916 1.383 . S
C915 H923 0.929 . S
C916 C915 1.383 . S
C916 C917 1.377 . S
C917 H901 0.930 . S
C917 C916 1.377 . S
C917 C918 1.379 . S
C918 H902 0.931 . S
C918 C912 1.383 . S
C918 C917 1.379 . S
H919 C913 0.959 . S
H920 C913 0.961 . S
H921 C913 0.960 . S
H922 C914 0.930 . S
H923 C915 0.929 . S
H924 C932 0.929 . S
H925 C934 0.930 . S
H926 C936 0.930 . S
H927 C939 0.929 . S
H928 C942 0.930 . S
H929 C944 0.960 . S
H930 C944 0.960 . S
H931 C944 0.960 . S
C932 H924 0.929 . S
C932 C933 1.377 . S
C932 C934 1.384 . S
C933 C932 1.377 . S
C933 C939 1.390 . S
C934 H925 0.930 . S
C934 C932 1.384 . S
C934 C935 1.372 . S
C935 C934 1.372 . S
C935 C936 1.400 . S
C935 C940 1.490 . S
C936 H926 0.930 . S
C936 C935 1.400 . S
C936 C939 1.386 . S
H937 C953 0.930 . S
H938 C954 0.931 . S
C939 H927 0.929 . S
C939 C933 1.390 . S
C939 C936 1.386 . S
C940 C935 1.490 . S
C940 C942 1.395 . S
C940 C943 1.403 . S
H941 C947 0.930 . S
C942 H928 0.930 . S
C942 C940 1.395 . S
C942 C945 1.403 . S
C943 C940 1.403 . S
C943 C944 1.524 . S
C943 C947 1.400 . S
C944 H929 0.960 . S
C944 H930 0.960 . S
C944 H931 0.960 . S
C944 C943 1.524 . S
C945 C942 1.403 . S
C945 C946 1.392 . S
C945 C949 1.495 . S
C946 C945 1.392 . S
C946 C947 1.385 . S
C946 C948 1.478 . S
C947 H941 0.930 . S
C947 C943 1.400 . S
C947 C946 1.385 . S
C948 C946 1.478 . S
C948 C950 1.381 . S
C948 C954 1.383 . S
C949 C945 1.495 . S
C949 H955 0.959 . S
C949 H956 0.961 . S
C949 H957 0.960 . S
C950 C948 1.381 . S
C950 C951 1.394 . S
C950 H958 0.930 . S
C951 C950 1.394 . S
C951 C952 1.383 . S
C951 H959 0.929 . S
C952 C951 1.383 . S
C952 C953 1.377 . S
C953 H937 0.930 . S
C953 C952 1.377 . S
C953 C954 1.379 . S
C954 H938 0.931 . S
C954 C948 1.383 . S
C954 C953 1.379 . S
H955 C949 0.959 . S
H956 C949 0.961 . S
H957 C949 0.960 . S
H958 C950 0.930 . S
H959 C951 0.929 . S
H960 C968 0.929 . S
H961 C970 0.930 . S
H962 C972 0.930 . S
H963 C975 0.929 . S
H964 C978 0.930 . S
H965 C980 0.960 . S
H966 C980 0.960 . S
H967 C980 0.960 . S
C968 H960 0.929 . S
C968 C969 1.377 . S
C968 C970 1.384 . S
C969 C968 1.377 . S
C969 C975 1.390 . S
C970 H961 0.930 . S
C970 C968 1.384 . S
C970 C971 1.372 . S
C971 C970 1.372 . S
C971 C972 1.400 . S
C971 C976 1.490 . S
C972 H962 0.930 . S
C972 C971 1.400 . S
C972 C975 1.386 . S
H973 C989 0.930 . S
H974 C990 0.931 . S
C975 H963 0.929 . S
C975 C969 1.390 . S
C975 C972 1.386 . S
C976 C971 1.490 . S
C976 C978 1.395 . S
C976 C979 1.403 . S
H977 C983 0.930 . S
C978 H964 0.930 . S
C978 C976 1.395 . S
C978 C981 1.403 . S
C979 C976 1.403 . S
C979 C980 1.524 . S
C979 C983 1.400 . S
C980 H965 0.960 . S
C980 H966 0.960 . S
C980 H967 0.960 . S
C980 C979 1.524 . S
C981 C978 1.403 . S
C981 C982 1.392 . S
C981 C985 1.495 . S
C982 C981 1.392 . S
C982 C983 1.385 . S
C982 C984 1.478 . S
C983 H977 0.930 . S
C983 C979 1.400 . S
C983 C982 1.385 . S
C984 C982 1.478 . S
C984 C986 1.381 . S
C984 C990 1.383 . S
C985 C981 1.495 . S
C985 H991 0.959 . S
C985 H992 0.961 . S
C985 H993 0.960 . S
C986 C984 1.381 . S
C986 C987 1.394 . S
C986 H994 0.930 . S
C987 C986 1.394 . S
C987 C988 1.383 . S
C987 H995 0.929 . S
C988 C987 1.383 . S
C988 C989 1.377 . S
C989 H973 0.930 . S
C989 C988 1.377 . S
C989 C990 1.379 . S
C990 H974 0.931 . S
C990 C984 1.383 . S
C990 C989 1.379 . S
H991 C985 0.959 . S
H992 C985 0.961 . S
H993 C985 0.960 . S
H994 C986 0.930 . S
H995 C987 0.929 . S
H996 C1004 0.929 . S
H997 C1006 0.930 . S
H998 C1008 0.930 . S
H999 C1011 0.929 . S
H1000 C1014 0.930 . S
H1001 C1016 0.960 . S
H1002 C1016 0.960 . S
H1003 C1016 0.960 . S
C1004 H996 0.929 . S
C1004 C1005 1.377 . S
C1004 C1006 1.384 . S
C1005 C1004 1.377 . S
C1005 C1011 1.390 . S
C1006 H997 0.930 . S
C1006 C1004 1.384 . S
C1006 C1007 1.372 . S
C1007 C1006 1.372 . S
C1007 C1008 1.400 . S
C1007 C1012 1.490 . S
C1008 H998 0.930 . S
C1008 C1007 1.400 . S
C1008 C1011 1.386 . S
H1009 C1025 0.930 . S
H1010 C1026 0.931 . S
C1011 H999 0.929 . S
C1011 C1005 1.390 . S
C1011 C1008 1.386 . S
C1012 C1007 1.490 . S
C1012 C1014 1.395 . S
C1012 C1015 1.403 . S
H1013 C1019 0.930 . S
C1014 H1000 0.930 . S
C1014 C1012 1.395 . S
C1014 C1017 1.403 . S
C1015 C1012 1.403 . S
C1015 C1016 1.524 . S
C1015 C1019 1.400 . S
C1016 H1001 0.960 . S
C1016 H1002 0.960 . S
C1016 H1003 0.960 . S
C1016 C1015 1.524 . S
C1017 C1014 1.403 . S
C1017 C1018 1.392 . S
C1017 C1021 1.495 . S
C1018 C1017 1.392 . S
C1018 C1019 1.385 . S
C1018 C1020 1.478 . S
C1019 H1013 0.930 . S
C1019 C1015 1.400 . S
C1019 C1018 1.385 . S
C1020 C1018 1.478 . S
C1020 C1022 1.381 . S
C1020 C1026 1.383 . S
C1021 C1017 1.495 . S
C1021 H1027 0.959 . S
C1021 H1028 0.961 . S
C1021 H1029 0.960 . S
C1022 C1020 1.381 . S
C1022 C1023 1.394 . S
C1022 H1030 0.930 . S
C1023 C1022 1.394 . S
C1023 C1024 1.383 . S
C1023 H1031 0.929 . S
C1024 C1023 1.383 . S
C1024 C1025 1.377 . S
C1025 H1009 0.930 . S
C1025 C1024 1.377 . S
C1025 C1026 1.379 . S
C1026 H1010 0.931 . S
C1026 C1020 1.383 . S
C1026 C1025 1.379 . S
H1027 C1021 0.959 . S
H1028 C1021 0.961 . S
H1029 C1021 0.960 . S
H1030 C1022 0.930 . S
H1031 C1023 0.929 . S
C177 C4 1.554 . S
C196 C90 1.535 . S
C213 C16 1.676 . S
C232 C109 1.652 . S
C268 C146 1.290 . S
C249 C32 1.283 . S
C285 C43 1.488 . S
C304 C156 1.429 1_655 S
C340 C126 2.429 . S
C321 C5 2.400 . S
C376 C96 1.175 . S
C357 C21 1.227 . S
C412 C167 1.376 1_556 S
C393 C27 1.400 . S
C448 C137 1.227 . S
C429 C37 1.241 . S
C465 C10 1.694 . S
C484 C150 1.694 . S
C520 C117 1.812 . S
C501 C26 1.899 . S
C537 C38 1.509 . S
C556 C107 1.503 . S
C573 C15 1.359 . S
C592 C129 1.359 . S
C628 C89 1.723 . S
C609 C48 1.720 . S
C645 C59 1.457 . S
C664 C110 1.439 . S
C681 C76 1.639 . S
C700 C147 1.609 . S
C717 C87 1.324 . S
C736 C157 1.283 . S
C753 C54 1.720 . S
C772 C127 1.727 1_565 S
C808 C97 1.985 . S
C789 C60 2.029 . S
C844 C166 1.267 . S
C825 C71 1.310 . S
C880 C136 1.155 . S
C861 C82 1.190 . S
C897 C49 1.946 . S
C916 C149 1.958 . S
C952 C116 1.381 . S
C933 C70 1.412 . S
C988 C106 1.880 . S
C969 C81 1.903 . S
C1005 C65 1.274 . S
C1024 C130 1.260 . S
