# Generated by pormake.
# Topology ptr, (4,4)-cn, num edge types: 1
# Building blocks:
#     Node 0, Type 0, BuildingBlock: KUFVIS_clean_sbu_0, # of connection points: 4
#     Node 1, Type 0, BuildingBlock: KUFVIS_clean_sbu_0, # of connection points: 4
#     Node 2, Type 0, BuildingBlock: KUFVIS_clean_sbu_0, # of connection points: 4
#     Node 3, Type 0, BuildingBlock: KUFVIS_clean_sbu_0, # of connection points: 4
#     Node 4, Type 0, BuildingBlock: KUFVIS_clean_sbu_0, # of connection points: 4
#     Node 5, Type 0, BuildingBlock: KUFVIS_clean_sbu_0, # of connection points: 4
#     Node 6, Type 0, BuildingBlock: KUFVIS_clean_sbu_0, # of connection points: 4
#     Node 7, Type 0, BuildingBlock: KUFVIS_clean_sbu_0, # of connection points: 4
#     Node 8, Type 0, BuildingBlock: KUFVIS_clean_sbu_0, # of connection points: 4
#     Node 9, Type 0, BuildingBlock: KUFVIS_clean_sbu_0, # of connection points: 4
#     Node 10, Type 0, BuildingBlock: KUFVIS_clean_sbu_0, # of connection points: 4
#     Node 11, Type 0, BuildingBlock: KUFVIS_clean_sbu_0, # of connection points: 4
#     Node 12, Type 0, BuildingBlock: KUFVIS_clean_sbu_0, # of connection points: 4
#     Node 13, Type 0, BuildingBlock: KUFVIS_clean_sbu_0, # of connection points: 4
#     Node 14, Type 0, BuildingBlock: KUFVIS_clean_sbu_0, # of connection points: 4
#     Node 15, Type 0, BuildingBlock: KUFVIS_clean_sbu_0, # of connection points: 4
#     Node 16, Type 0, BuildingBlock: KUFVIS_clean_sbu_0, # of connection points: 4
#     Node 17, Type 0, BuildingBlock: KUFVIS_clean_sbu_0, # of connection points: 4
#     Node 18, Type 1, BuildingBlock: MIFKUJ_clean_linker_1, # of connection points: 4
#     Node 19, Type 1, BuildingBlock: MIFKUJ_clean_linker_1, # of connection points: 4
#     Node 20, Type 1, BuildingBlock: MIFKUJ_clean_linker_1, # of connection points: 4
#     Node 21, Type 1, BuildingBlock: MIFKUJ_clean_linker_1, # of connection points: 4
#     Node 22, Type 1, BuildingBlock: MIFKUJ_clean_linker_1, # of connection points: 4
#     Node 23, Type 1, BuildingBlock: MIFKUJ_clean_linker_1, # of connection points: 4
#     Node 24, Type 1, BuildingBlock: MIFKUJ_clean_linker_1, # of connection points: 4
#     Node 25, Type 1, BuildingBlock: MIFKUJ_clean_linker_1, # of connection points: 4
#     Node 26, Type 1, BuildingBlock: MIFKUJ_clean_linker_1, # of connection points: 4
#     Node 27, Type 1, BuildingBlock: MIFKUJ_clean_linker_1, # of connection points: 4
#     Node 28, Type 1, BuildingBlock: MIFKUJ_clean_linker_1, # of connection points: 4
#     Node 29, Type 1, BuildingBlock: MIFKUJ_clean_linker_1, # of connection points: 4
#     Node 30, Type 1, BuildingBlock: MIFKUJ_clean_linker_1, # of connection points: 4
#     Node 31, Type 1, BuildingBlock: MIFKUJ_clean_linker_1, # of connection points: 4
#     Node 32, Type 1, BuildingBlock: MIFKUJ_clean_linker_1, # of connection points: 4
#     Node 33, Type 1, BuildingBlock: MIFKUJ_clean_linker_1, # of connection points: 4
#     Node 34, Type 1, BuildingBlock: MIFKUJ_clean_linker_1, # of connection points: 4
#     Node 35, Type 1, BuildingBlock: MIFKUJ_clean_linker_1, # of connection points: 4
#     Edge 36, Type (0, 1), BuildingBlock: CIFDUS_clean_linker_0, # of connection points: 2
#     Edge 37, Type (0, 1), BuildingBlock: CIFDUS_clean_linker_0, # of connection points: 2
#     Edge 38, Type (0, 1), BuildingBlock: CIFDUS_clean_linker_0, # of connection points: 2
#     Edge 39, Type (0, 1), BuildingBlock: CIFDUS_clean_linker_0, # of connection points: 2
#     Edge 40, Type (0, 1), BuildingBlock: CIFDUS_clean_linker_0, # of connection points: 2
#     Edge 41, Type (0, 1), BuildingBlock: CIFDUS_clean_linker_0, # of connection points: 2
#     Edge 42, Type (0, 1), BuildingBlock: CIFDUS_clean_linker_0, # of connection points: 2
#     Edge 43, Type (0, 1), BuildingBlock: CIFDUS_clean_linker_0, # of connection points: 2
#     Edge 44, Type (0, 1), BuildingBlock: CIFDUS_clean_linker_0, # of connection points: 2
#     Edge 45, Type (0, 1), BuildingBlock: CIFDUS_clean_linker_0, # of connection points: 2
#     Edge 46, Type (0, 1), BuildingBlock: CIFDUS_clean_linker_0, # of connection points: 2
#     Edge 47, Type (0, 1), BuildingBlock: CIFDUS_clean_linker_0, # of connection points: 2
#     Edge 48, Type (0, 1), BuildingBlock: CIFDUS_clean_linker_0, # of connection points: 2
#     Edge 49, Type (0, 1), BuildingBlock: CIFDUS_clean_linker_0, # of connection points: 2
#     Edge 50, Type (0, 1), BuildingBlock: CIFDUS_clean_linker_0, # of connection points: 2
#     Edge 51, Type (0, 1), BuildingBlock: CIFDUS_clean_linker_0, # of connection points: 2
#     Edge 52, Type (0, 1), BuildingBlock: CIFDUS_clean_linker_0, # of connection points: 2
#     Edge 53, Type (0, 1), BuildingBlock: CIFDUS_clean_linker_0, # of connection points: 2
#     Edge 54, Type (0, 1), BuildingBlock: CIFDUS_clean_linker_0, # of connection points: 2
#     Edge 55, Type (0, 1), BuildingBlock: CIFDUS_clean_linker_0, # of connection points: 2
#     Edge 56, Type (0, 1), BuildingBlock: CIFDUS_clean_linker_0, # of connection points: 2
#     Edge 57, Type (0, 1), BuildingBlock: CIFDUS_clean_linker_0, # of connection points: 2
#     Edge 58, Type (0, 1), BuildingBlock: CIFDUS_clean_linker_0, # of connection points: 2
#     Edge 59, Type (0, 1), BuildingBlock: CIFDUS_clean_linker_0, # of connection points: 2
#     Edge 60, Type (0, 1), BuildingBlock: CIFDUS_clean_linker_0, # of connection points: 2
#     Edge 61, Type (0, 1), BuildingBlock: CIFDUS_clean_linker_0, # of connection points: 2
#     Edge 62, Type (0, 1), BuildingBlock: CIFDUS_clean_linker_0, # of connection points: 2
#     Edge 63, Type (0, 1), BuildingBlock: CIFDUS_clean_linker_0, # of connection points: 2
#     Edge 64, Type (0, 1), BuildingBlock: CIFDUS_clean_linker_0, # of connection points: 2
#     Edge 65, Type (0, 1), BuildingBlock: CIFDUS_clean_linker_0, # of connection points: 2
#     Edge 66, Type (0, 1), BuildingBlock: CIFDUS_clean_linker_0, # of connection points: 2
#     Edge 67, Type (0, 1), BuildingBlock: CIFDUS_clean_linker_0, # of connection points: 2
#     Edge 68, Type (0, 1), BuildingBlock: CIFDUS_clean_linker_0, # of connection points: 2
#     Edge 69, Type (0, 1), BuildingBlock: CIFDUS_clean_linker_0, # of connection points: 2
#     Edge 70, Type (0, 1), BuildingBlock: CIFDUS_clean_linker_0, # of connection points: 2
#     Edge 71, Type (0, 1), BuildingBlock: CIFDUS_clean_linker_0, # of connection points: 2
#     Edge 72, Type (0, 1), BuildingBlock: CIFDUS_clean_linker_0, # of connection points: 2
#     Edge 73, Type (0, 1), BuildingBlock: CIFDUS_clean_linker_0, # of connection points: 2
#     Edge 74, Type (0, 1), BuildingBlock: CIFDUS_clean_linker_0, # of connection points: 2
#     Edge 75, Type (0, 1), BuildingBlock: CIFDUS_clean_linker_0, # of connection points: 2
#     Edge 76, Type (0, 1), BuildingBlock: CIFDUS_clean_linker_0, # of connection points: 2
#     Edge 77, Type (0, 1), BuildingBlock: CIFDUS_clean_linker_0, # of connection points: 2
#     Edge 78, Type (0, 1), BuildingBlock: CIFDUS_clean_linker_0, # of connection points: 2
#     Edge 79, Type (0, 1), BuildingBlock: CIFDUS_clean_linker_0, # of connection points: 2
#     Edge 80, Type (0, 1), BuildingBlock: CIFDUS_clean_linker_0, # of connection points: 2
#     Edge 81, Type (0, 1), BuildingBlock: CIFDUS_clean_linker_0, # of connection points: 2
#     Edge 82, Type (0, 1), BuildingBlock: CIFDUS_clean_linker_0, # of connection points: 2
#     Edge 83, Type (0, 1), BuildingBlock: CIFDUS_clean_linker_0, # of connection points: 2
#     Edge 84, Type (0, 1), BuildingBlock: CIFDUS_clean_linker_0, # of connection points: 2
#     Edge 85, Type (0, 1), BuildingBlock: CIFDUS_clean_linker_0, # of connection points: 2
#     Edge 86, Type (0, 1), BuildingBlock: CIFDUS_clean_linker_0, # of connection points: 2
#     Edge 87, Type (0, 1), BuildingBlock: CIFDUS_clean_linker_0, # of connection points: 2
#     Edge 88, Type (0, 1), BuildingBlock: CIFDUS_clean_linker_0, # of connection points: 2
#     Edge 89, Type (0, 1), BuildingBlock: CIFDUS_clean_linker_0, # of connection points: 2
#     Edge 90, Type (0, 1), BuildingBlock: CIFDUS_clean_linker_0, # of connection points: 2
#     Edge 91, Type (0, 1), BuildingBlock: CIFDUS_clean_linker_0, # of connection points: 2
#     Edge 92, Type (0, 1), BuildingBlock: CIFDUS_clean_linker_0, # of connection points: 2
#     Edge 93, Type (0, 1), BuildingBlock: CIFDUS_clean_linker_0, # of connection points: 2
#     Edge 94, Type (0, 1), BuildingBlock: CIFDUS_clean_linker_0, # of connection points: 2
#     Edge 95, Type (0, 1), BuildingBlock: CIFDUS_clean_linker_0, # of connection points: 2
#     Edge 96, Type (0, 1), BuildingBlock: CIFDUS_clean_linker_0, # of connection points: 2
#     Edge 97, Type (0, 1), BuildingBlock: CIFDUS_clean_linker_0, # of connection points: 2
#     Edge 98, Type (0, 1), BuildingBlock: CIFDUS_clean_linker_0, # of connection points: 2
#     Edge 99, Type (0, 1), BuildingBlock: CIFDUS_clean_linker_0, # of connection points: 2
#     Edge 100, Type (0, 1), BuildingBlock: CIFDUS_clean_linker_0, # of connection points: 2
#     Edge 101, Type (0, 1), BuildingBlock: CIFDUS_clean_linker_0, # of connection points: 2
#     Edge 102, Type (0, 1), BuildingBlock: CIFDUS_clean_linker_0, # of connection points: 2
#     Edge 103, Type (0, 1), BuildingBlock: CIFDUS_clean_linker_0, # of connection points: 2
#     Edge 104, Type (0, 1), BuildingBlock: CIFDUS_clean_linker_0, # of connection points: 2
#     Edge 105, Type (0, 1), BuildingBlock: CIFDUS_clean_linker_0, # of connection points: 2
#     Edge 106, Type (0, 1), BuildingBlock: CIFDUS_clean_linker_0, # of connection points: 2
#     Edge 107, Type (0, 1), BuildingBlock: CIFDUS_clean_linker_0, # of connection points: 2
# Relax obj value: 0.041
# Max RMSD: 0.154
# Mean RMSD: 0.069
data_MOF--net-ptr--node1-KUFVIS_clean_sbu_0--node2-MIFKUJ_clean_linker_1--edge1-CIFDUS_clean_linker_0
_symmetry_space_group_name_H-M    P1
_symmetry_Int_Tables_number       1
_symmetry_cell_setting            triclinic
loop_
_symmetry_equiv_pos_as_xyz
'x, y, z'
_cell_length_a     80.050799
_cell_length_b     79.670514
_cell_length_c     55.418181
_cell_angle_alpha  89.771867
_cell_angle_beta   90.613381
_cell_angle_gamma 119.48891
loop_
_atom_site_label
_atom_site_type_symbol
_atom_site_fract_x
_atom_site_fract_y
_atom_site_fract_z
_atom_type_partial_charge
Mn0 Mn 1.00178 0.35676 0.00907 0.0
Mn1 Mn 0.04215 0.39947 1.0003 0.0
C2 C 1.00136 0.37909 0.98248 0.0
C3 C 0.98188 0.32426 0.99895 0.0
C4 C 0.01695 0.39083 0.04434 0.0
O5 O 0.02275 0.35195 0.02339 0.0
O6 O 0.04859 0.38042 0.01444 0.0
C7 C 0.05953 0.38721 0.96221 0.0
N8 N 0.05318 0.39926 0.96999 0.0
C9 C 0.06363 0.41799 0.93354 0.0
C10 C 0.07035 0.40582 0.92516 0.0
C11 C 0.0682 0.39031 0.93951 0.0
C12 C 0.05496 0.41408 0.95621 0.0
H13 H 0.05801 0.37536 0.97329 0.0
C14 C 0.04088 0.36337 0.02324 0.0
O15 O 0.98103 0.33096 0.01996 0.0
O16 O 0.99486 0.33623 0.98433 0.0
N17 N 0.03847 0.41955 0.98672 0.0
C18 C 0.03059 0.42949 0.99707 0.0
C19 C 0.03107 0.44516 0.98475 0.0
C20 C 0.03997 0.45069 0.96217 0.0
C21 C 0.04835 0.44051 0.95213 0.0
C22 C 0.04736 0.42496 0.96519 0.0
H23 H 0.02391 0.42544 0.01454 0.0
O24 O 0.98556 0.36555 0.9915 0.0
O25 O 0.01703 0.37902 0.98887 0.0
O26 O 0.00413 0.37379 0.03825 0.0
O27 O 0.0317 0.40129 0.03159 0.0
C28 C 0.05744 0.44501 0.92953 0.0
C29 C 0.06504 0.43373 0.92021 0.0
H30 H 0.07709 0.4082 0.90769 0.0
H31 H 0.0733 0.38083 0.93314 0.0
H32 H 0.02463 0.45299 0.99267 0.0
H33 H 0.04025 0.46273 0.95268 0.0
H34 H 0.05837 0.45691 0.91897 0.0
H35 H 0.0717 0.43714 0.90264 0.0
Mn36 Mn 0.65198 0.65016 0.01568 0.0
Mn37 Mn 0.65708 0.61115 0.02597 0.0
C38 C 0.63367 0.62809 0.04503 0.0
C39 C 0.66133 0.68236 0.02372 0.0
C40 C 0.63556 0.61506 0.9825 0.0
O41 O 0.67711 0.65682 0.99866 0.0
O42 O 0.68105 0.63204 0.01159 0.0
C43 C 0.68704 0.62724 0.06417 0.0
N44 N 0.66935 0.61343 0.05651 0.0
C45 C 0.66321 0.59685 0.09455 0.0
C46 C 0.68149 0.61074 0.10271 0.0
C47 C 0.69342 0.62604 0.08748 0.0
C48 C 0.65766 0.59878 0.07112 0.0
H49 H 0.69615 0.63912 0.05262 0.0
C50 C 0.68692 0.64816 1.00064 0.0
O51 O 0.65233 0.67405 0.00387 0.0
O52 O 0.66566 0.67229 0.0383 0.0
N53 N 0.63506 0.58985 0.04007 0.0
C54 C 0.61754 0.5781 0.02985 0.0
C55 C 0.60372 0.56232 0.04296 0.0
C56 C 0.6081 0.55866 0.06632 0.0
C57 C 0.62631 0.57076 0.07632 0.0
C58 C 0.63956 0.58618 0.06233 0.0
H59 H 0.61408 0.58077 0.01188 0.0
O60 O 0.62848 0.6399 0.03613 0.0
O61 O 0.64959 0.6298 0.03685 0.0
O62 O 0.63659 0.63095 0.98878 0.0
O63 O 0.64366 0.60717 0.99441 0.0
C64 C 0.63173 0.56832 0.09978 0.0
C65 C 0.65014 0.58139 0.10892 0.0
H66 H 0.68643 0.60991 0.12072 0.0
H67 H 0.70748 0.63692 0.09373 0.0
H68 H 0.5897 0.55305 0.03511 0.0
H69 H 0.59732 0.54661 0.07648 0.0
H70 H 0.62174 0.55661 0.11108 0.0
H71 H 0.65403 0.57954 0.12712 0.0
Mn72 Mn 0.35599 0.99364 0.01591 0.0
Mn73 Mn 0.39454 0.03765 0.02552 0.0
C74 C 0.37818 0.99792 0.0458 0.0
C75 C 0.3242 0.97088 0.02455 0.0
C76 C 0.39172 0.01174 0.98376 0.0
O77 O 0.34835 0.01148 0.99826 0.0
O78 O 0.37433 0.04006 0.00734 0.0
C79 C 0.37641 0.05276 0.05882 0.0
N80 N 0.39057 0.04851 0.0541 0.0
C81 C 0.40516 0.06015 0.0931 0.0
C82 C 0.3908 0.06478 0.09833 0.0
C83 C 0.37633 0.06102 0.08114 0.0
C84 C 0.40449 0.05196 0.07056 0.0
H85 H 0.36525 0.04984 0.04567 0.0
C86 C 0.35785 0.02988 0.9973 0.0
O87 O 0.3323 0.96982 0.00485 0.0
O88 O 0.33422 0.98548 0.03857 0.0
N89 N 0.41536 0.0377 0.04289 0.0
C90 C 0.42794 0.03204 0.03519 0.0
C91 C 0.4432 0.03463 0.05036 0.0
C92 C 0.4455 0.04321 0.07315 0.0
C93 C 0.4326 0.04927 0.08047 0.0
C94 C 0.41775 0.04645 0.0645 0.0
H95 H 0.42628 0.02549 0.01767 0.0
O96 O 0.36692 0.98092 0.037 0.0
O97 O 0.37605 0.01191 0.03704 0.0
O98 O 0.37524 0.99749 0.98891 0.0
O99 O 0.3999 0.02724 0.99624 0.0
C100 C 0.43372 0.05775 0.10313 0.0
C101 C 0.41997 0.06313 0.10947 0.0
H102 H 0.39066 0.0711 0.11554 0.0
H103 H 0.36515 0.06446 0.08509 0.0
H104 H 0.45312 0.02995 0.04456 0.0
H105 H 0.45715 0.04498 0.08491 0.0
H106 H 0.44496 0.06 0.11592 0.0
H107 H 0.42085 0.06943 0.12704 0.0
Mn108 Mn 0.99697 0.64797 0.00849 0.0
Mn109 Mn 0.03827 0.646 0.00661 0.0
C110 C 0.99952 0.62691 0.98216 0.0
C111 C 0.97733 0.66058 0.9963 0.0
C112 C 0.00847 0.6265 0.04535 0.0
O113 O 0.01606 0.6727 0.02605 0.0
O114 O 0.04271 0.67014 0.02259 0.0
C115 C 0.05927 0.67838 0.97276 0.0
N116 N 0.05245 0.65955 0.9788 0.0
C117 C 0.06681 0.65419 0.94386 0.0
C118 C 0.07406 0.67356 0.9373 0.0
C119 C 0.07021 0.68568 0.95177 0.0
C120 C 0.05589 0.64772 0.96488 0.0
H121 H 0.0564 0.68775 0.9839 0.0
C122 C 0.03397 0.67901 0.02968 0.0
O123 O 0.97502 0.65187 0.01684 0.0
O124 O 0.99172 0.66287 0.98332 0.0
N125 N 0.03662 0.62357 0.9918 0.0
C126 C 0.02804 0.60512 1.00023 0.0
C127 C 0.03012 0.59105 0.98753 0.0
C128 C 0.04132 0.59616 0.9666 0.0
C129 C 0.05037 0.61533 0.95859 0.0
C130 C 0.04772 0.62871 0.97194 0.0
H131 H 0.01958 0.60115 0.01644 0.0
O132 O 0.98286 0.62426 0.98855 0.0
O133 O 0.01444 0.6422 0.99084 0.0
O134 O 0.99659 0.63153 0.03732 0.0
O135 O 0.02456 0.63135 0.03551 0.0
C136 C 0.06169 0.62163 0.93768 0.0
C137 C 0.06983 0.64103 0.93026 0.0
H138 H 0.08254 0.67925 0.92116 0.0
H139 H 0.07571 0.70062 0.94679 0.0
H140 H 0.02314 0.5763 0.99387 0.0
H141 H 0.04281 0.58525 0.95678 0.0
H142 H 0.06393 0.61159 0.92693 0.0
H143 H 0.07824 0.64563 0.91394 0.0
Mn144 Mn 0.34981 0.35778 0.01745 0.0
Mn145 Mn 0.39202 0.35799 0.0232 0.0
C146 C 0.37207 0.37712 0.04629 0.0
C147 C 0.31751 0.34514 0.02763 0.0
C148 C 0.38371 0.37889 0.98298 0.0
O149 O 0.34465 0.33332 0.99947 0.0
O150 O 0.37293 0.33425 0.00608 0.0
C151 C 0.37962 0.32501 0.05666 0.0
N152 N 0.39165 0.34389 0.05135 0.0
C153 C 0.4094 0.34861 0.08838 0.0
C154 C 0.39727 0.32917 0.09419 0.0
C155 C 0.38229 0.31734 0.07829 0.0
C156 C 0.40606 0.35543 0.06656 0.0
H157 H 0.36809 0.31589 0.04447 0.0
C158 C 0.35583 0.32623 0.99735 0.0
O159 O 0.32428 0.35453 0.00764 0.0
O160 O 0.32933 0.34249 0.04115 0.0
N161 N 0.41193 0.38005 0.03944 0.0
C162 C 0.42172 0.39869 0.03173 0.0
C163 C 0.43687 0.41253 0.0459 0.0
C164 C 0.44195 0.40703 0.06767 0.0
C165 C 0.43185 0.38771 0.07504 0.0
C166 C 0.41693 0.37455 0.06013 0.0
H167 H 0.41793 0.40299 0.01497 0.0
O168 O 0.35896 0.38098 0.03864 0.0
O169 O 0.37176 0.36203 0.03692 0.0
O170 O 0.36683 0.37459 0.98966 0.0
O171 O 0.39404 0.37317 0.99413 0.0
C172 C 0.43571 0.38109 0.09688 0.0
C173 C 0.42447 0.36156 0.10356 0.0
H174 H 0.39924 0.32322 0.11089 0.0
H175 H 0.37282 0.30235 0.0827 0.0
H176 H 0.44458 0.42741 0.04009 0.0
H177 H 0.4535 0.41779 0.07868 0.0
H178 H 0.44709 0.39096 0.10884 0.0
H179 H 0.42739 0.3567 0.12056 0.0
Mn180 Mn 0.65092 0.0055 0.00856 0.0
Mn181 Mn 0.60767 0.9653 0.00289 0.0
C182 C 0.62796 0.00542 0.9827 0.0
C183 C 0.68286 0.02379 0.99715 0.0
C184 C 0.61929 0.99241 0.04606 0.0
O185 O 0.65532 0.98455 0.02382 0.0
O186 O 0.62705 0.95833 0.01432 0.0
C187 C 0.61661 0.94688 0.96252 0.0
N188 N 0.60548 0.95366 0.97207 0.0
C189 C 0.58523 0.9443 0.93664 0.0
C190 C 0.59633 0.93699 0.92655 0.0
C191 C 0.61215 0.93837 0.9395 0.0
C192 C 0.59041 0.95268 0.95961 0.0
H193 H 0.62886 0.94805 0.97235 0.0
C194 C 0.64421 0.96631 0.02283 0.0
O195 O 0.6771 0.02628 0.01795 0.0
O196 O 0.67029 0.01034 0.98327 0.0
N197 N 0.58743 0.96971 0.99174 0.0
C198 C 0.57862 0.97811 0.00363 0.0
C199 C 0.56278 0.97837 0.99288 0.0
C200 C 0.556 0.96977 0.97017 0.0
C201 C 0.56507 0.9609 0.95848 0.0
C202 C 0.58072 0.961 0.97014 0.0
H203 H 0.58365 0.98462 0.02116 0.0
O204 O 0.64221 0.02156 0.99025 0.0
O205 O 0.6278 0.98982 0.99 0.0
O206 O 0.63548 0.00518 0.03793 0.0
O207 O 0.60834 0.97663 0.03495 0.0
C208 C 0.55933 0.95217 0.93558 0.0
C209 C 0.56943 0.94392 0.92464 0.0
H210 H 0.59296 0.93045 0.90879 0.0
H211 H 0.6209 0.93291 0.93175 0.0
H212 H 0.55582 0.98519 1.00206 0.0
H213 H 0.54388 0.97014 0.96185 0.0
H214 H 0.54735 0.95199 0.92605 0.0
H215 H 0.56509 0.93754 0.90686 0.0
Mn216 Mn 0.6597 0.68609 0.34098 0.0
Mn217 Mn 0.70085 0.72822 0.33417 0.0
C218 C 0.66175 0.7077 0.31156 0.0
C219 C 0.64076 0.65352 0.33072 0.0
C220 C 0.67315 0.72029 0.37543 0.0
O221 O 0.67948 0.68155 0.35913 0.0
O222 O 0.70645 0.70919 0.3502 0.0
C223 C 0.72066 0.71619 0.29924 0.0
N224 N 0.71353 0.72798 0.30528 0.0
C225 C 0.7247 0.74574 0.26822 0.0
C226 C 0.73225 0.73385 0.26165 0.0
C227 C 0.73017 0.71898 0.2772 0.0
C228 C 0.71543 0.74232 0.29045 0.0
H229 H 0.71909 0.70476 0.31117 0.0
C230 C 0.69772 0.69239 0.35982 0.0
O231 O 0.63804 0.66033 0.35067 0.0
O232 O 0.6549 0.66543 0.31745 0.0
N233 N 0.69741 0.74786 0.31873 0.0
C234 C 0.68819 0.75718 0.32702 0.0
C235 C 0.68825 0.772 0.31314 0.0
C236 C 0.69792 0.7772 0.29103 0.0
C237 C 0.70745 0.76752 0.28298 0.0
C238 C 0.70695 0.7529 0.29761 0.0
H239 H 0.68075 0.75326 0.34401 0.0
O240 O 0.64513 0.69472 0.31938 0.0
O241 O 0.67657 0.70765 0.32123 0.0
O242 O 0.66003 0.70363 0.36852 0.0
O243 O 0.68886 0.73016 0.36414 0.0
C244 C 0.71706 0.77149 0.26076 0.0
C245 C 0.72567 0.7606 0.25338 0.0
H246 H 0.73952 0.73589 0.24461 0.0
H247 H 0.73589 0.70969 0.27221 0.0
H248 H 0.68081 0.77937 0.31944 0.0
H249 H 0.69777 0.7885 0.28026 0.0
H250 H 0.71763 0.78266 0.24902 0.0
H251 H 0.73274 0.76358 0.23608 0.0
Mn252 Mn 0.3183 0.98658 0.35713 0.0
Mn253 Mn 0.31576 0.94327 0.36439 0.0
C254 C 0.29828 0.9654 0.38618 0.0
C255 C 0.33234 0.01952 0.3659 0.0
C256 C 0.29695 0.95275 0.32264 0.0
O257 O 0.34208 0.98965 0.33941 0.0
O258 O 0.34098 0.96178 0.35043 0.0
C259 C 0.34563 0.95357 0.40224 0.0
N260 N 0.32725 0.94222 0.39435 0.0
C261 C 0.31896 0.9234 0.43079 0.0
C262 C 0.33791 0.93465 0.43911 0.0
C263 C 0.35127 0.94987 0.42482 0.0
C264 C 0.31421 0.92771 0.40809 0.0
H265 H 0.35585 0.96542 0.39146 0.0
C266 C 0.3493 0.97844 0.34042 0.0
O267 O 0.32282 0.0123 0.346 0.0
O268 O 0.33451 0.00776 0.38019 0.0
N269 N 0.29212 0.92402 0.37805 0.0
C270 C 0.27409 0.91556 0.36829 0.0
C271 C 0.25882 0.90066 0.38087 0.0
C272 C 0.26225 0.89449 0.40322 0.0
C273 C 0.28094 0.90328 0.4128 0.0
C274 C 0.29561 0.918 0.39939 0.0
H275 H 0.27134 0.92018 0.35109 0.0
O276 O 0.29553 0.9792 0.37825 0.0
O277 O 0.31277 0.96458 0.37714 0.0
O278 O 0.30064 0.96932 0.33015 0.0
O279 O 0.30298 0.94241 0.33314 0.0
C280 C 0.2855 0.89833 0.4354 0.0
C281 C 0.3045 0.90841 0.44441 0.0
H282 H 0.34229 0.93193 0.45658 0.0
H283 H 0.36586 0.95878 0.43125 0.0
H284 H 0.24442 0.89399 0.37339 0.0
H285 H 0.25039 0.88314 0.41299 0.0
H286 H 0.27444 0.88707 0.44622 0.0
H287 H 0.30775 0.90474 0.46202 0.0
Mn288 Mn 0.01513 0.32297 0.35077 0.0
Mn289 Mn 0.05485 0.36643 0.35779 0.0
C290 C 0.03863 0.32633 0.37809 0.0
C291 C 0.98342 0.30182 0.36147 0.0
C292 C 0.04813 0.33983 0.31506 0.0
O293 O 0.008 0.34143 0.33388 0.0
O294 O 0.03361 0.36986 0.34432 0.0
C295 C 0.0413 0.3825 0.3961 0.0
N296 N 0.05438 0.37767 0.38798 0.0
C297 C 0.07368 0.39019 0.42396 0.0
C298 C 0.06048 0.39541 0.43266 0.0
C299 C 0.04418 0.39147 0.41871 0.0
C300 C 0.07 0.38122 0.40135 0.0
H301 H 0.02879 0.37951 0.38539 0.0
C302 C 0.017 0.35984 0.33452 0.0
O303 O 0.99028 0.29993 0.34116 0.0
O304 O 0.9947 0.31627 0.37508 0.0
N305 N 0.07669 0.36557 0.37072 0.0
C306 C 0.08753 0.35879 0.36023 0.0
C307 C 0.10404 0.361 0.37223 0.0
C308 C 0.1094 0.37043 0.39467 0.0
C309 C 0.09823 0.37761 0.40489 0.0
C310 C 0.08191 0.37496 0.39211 0.0
H311 H 0.08356 0.35166 0.34291 0.0
O312 O 0.02592 0.30943 0.37035 0.0
O313 O 0.03684 0.34081 0.37028 0.0
O314 O 0.03257 0.32539 0.32238 0.0
O315 O 0.05688 0.35584 0.32648 0.0
C316 C 0.10246 0.38702 0.42743 0.0
C317 C 0.09018 0.39328 0.43697 0.0
H318 H 0.06264 0.40233 0.45009 0.0
H319 H 0.03389 0.39538 0.42535 0.0
H320 H 0.11261 0.35546 0.3642 0.0
H321 H 0.12208 0.372 0.40393 0.0
H322 H 0.11494 0.3892 0.43778 0.0
H323 H 0.09341 0.4002 0.4545 0.0
Mn324 Mn 0.67417 0.98492 0.33728 0.0
Mn325 Mn 0.71517 0.98287 0.33276 0.0
C326 C 0.67658 0.965 0.30887 0.0
C327 C 0.65531 0.99851 0.32527 0.0
C328 C 0.68607 0.96263 0.37232 0.0
O329 O 0.69344 0.00899 0.35579 0.0
O330 O 0.72004 0.00659 0.35028 0.0
C331 C 0.736 0.01614 0.30009 0.0
N332 N 0.72891 0.99708 0.30503 0.0
C333 C 0.74115 0.99217 0.26783 0.0
C334 C 0.7487 0.01178 0.26241 0.0
C335 C 0.74607 0.0238 0.27859 0.0
C336 C 0.7313 0.98537 0.28955 0.0
H337 H 0.73396 0.0254 0.31246 0.0
C338 C 0.71139 0.01517 0.35878 0.0
O339 O 0.65218 0.98915 0.3455 0.0
O340 O 0.6699 1.00076 0.3129 0.0
N341 N 0.71273 0.9607 0.31628 0.0
C342 C 0.70391 0.94199 0.32376 0.0
C343 C 0.7048 0.928 0.30935 0.0
C344 C 0.71494 0.93341 0.28758 0.0
C345 C 0.72419 0.95281 0.28047 0.0
C346 C 0.72289 0.96613 0.29563 0.0
H347 H 0.69612 0.93776 0.3405 0.0
O348 O 0.65992 0.96183 0.31602 0.0
O349 O 0.69138 0.97978 0.31845 0.0
O350 O 0.67392 0.96775 0.36545 0.0
O351 O 0.70177 0.96759 0.36133 0.0
C352 C 0.73432 0.95938 0.2587 0.0
C353 C 0.74275 0.97904 0.25235 0.0
H354 H 0.75641 0.01773 0.2458 0.0
H355 H 0.75177 0.03892 0.27448 0.0
H356 H 0.69763 0.91306 0.31497 0.0
H357 H 0.71542 0.92254 0.27638 0.0
H358 H 0.73547 0.9494 0.24654 0.0
H359 H 0.75029 0.98388 0.23542 0.0
Mn360 Mn 0.01947 0.68989 0.35579 0.0
Mn361 Mn 0.06248 0.69152 0.35572 0.0
C362 C 0.04308 0.70941 0.38308 0.0
C363 C 0.98795 0.67626 0.36979 0.0
C364 C 0.05077 0.71187 0.31846 0.0
O365 O 0.01402 0.66589 0.33642 0.0
O366 O 0.04288 0.66743 0.33974 0.0
C367 C 0.0536 0.65885 0.38853 0.0
N368 N 0.06459 0.67785 0.3829 0.0
C369 C 0.08471 0.68347 0.41793 0.0
C370 C 0.07367 0.66392 0.42403 0.0
C371 C 0.05802 0.65158 0.40929 0.0
C372 C 0.07968 0.68986 0.39695 0.0
H373 H 0.04154 0.64934 0.37727 0.0
C374 C 0.02534 0.65916 0.33254 0.0
O375 O 0.99304 0.68586 0.34968 0.0
O376 O 1.00089 0.67382 0.38098 0.0
N377 N 0.08278 0.71406 0.37069 0.0
C378 C 0.09113 0.73274 0.36316 0.0
C379 C 0.10656 0.74709 0.37647 0.0
C380 C 0.11335 0.74206 0.3972 0.0
C381 C 0.10466 0.72271 0.40443 0.0
C382 C 0.08939 0.70903 0.3904 0.0
H383 H 0.08595 0.73669 0.34726 0.0
O384 O 0.02917 0.71272 0.37763 0.0
O385 O 0.04274 0.6947 0.37248 0.0
O386 O 0.03447 0.70751 0.32737 0.0
O387 O 0.06196 0.70625 0.32735 0.0
C388 C 0.11023 0.71653 0.42535 0.0
C389 C 0.10025 0.69693 0.4321 0.0
H390 H 0.07697 0.65828 0.4401 0.0
H391 H 0.04938 0.6365 0.41394 0.0
H392 H 0.11315 0.762 0.37081 0.0
H393 H 0.12511 0.7532 0.40756 0.0
H394 H 0.12194 0.72679 0.4366 0.0
H395 H 0.10447 0.6924 0.44843 0.0
Mn396 Mn 0.31851 0.34514 0.3385 0.0
Mn397 Mn 0.27672 0.30288 0.33542 0.0
C398 C 0.29482 0.34172 0.3114 0.0
C399 C 0.35018 0.3655 0.32714 0.0
C400 C 0.28602 0.3325 0.37493 0.0
O401 O 0.32495 0.32645 0.35633 0.0
O402 O 0.29708 0.2989 0.35055 0.0
C403 C 0.28826 0.28258 0.30044 0.0
N404 N 0.27609 0.28907 0.30702 0.0
C405 C 0.25613 0.27469 0.27196 0.0
C406 C 0.26841 0.26778 0.26484 0.0
C407 C 0.28459 0.27182 0.2791 0.0
C408 C 0.2606 0.28544 0.29332 0.0
H409 H 0.30065 0.28558 0.31143 0.0
C410 C 0.31441 0.30818 0.35843 0.0
O411 O 0.34357 0.3678 0.34738 0.0
O412 O 0.33872 0.35075 0.31397 0.0
N413 N 0.25555 0.30425 0.32113 0.0
C414 C 0.24559 0.31262 0.33002 0.0
C415 C 0.22927 0.31042 0.31752 0.0
C416 C 0.22316 0.29935 0.29628 0.0
C417 C 0.23341 0.29055 0.28775 0.0
C418 C 0.24959 0.2933 0.30093 0.0
H419 H 0.25012 0.321 0.34645 0.0
O420 O 0.3082 0.35867 0.31808 0.0
O421 O 0.29587 0.32708 0.32027 0.0
O422 O 0.30226 0.34512 0.36681 0.0
O423 O 0.27564 0.31606 0.36504 0.0
C424 C 0.22837 0.2794 0.26649 0.0
C425 C 0.23975 0.27151 0.25857 0.0
H426 H 0.26561 0.25946 0.24841 0.0
H427 H 0.29416 0.26658 0.27369 0.0
H428 H 0.22141 0.31721 0.32426 0.0
H429 H 0.21063 0.29777 0.28663 0.0
H430 H 0.21598 0.27708 0.25587 0.0
H431 H 0.23592 0.26323 0.24199 0.0
Mn432 Mn 0.33284 0.02414 0.67282 0.0
Mn433 Mn 0.37609 0.06374 0.6646 0.0
C434 C 0.33556 0.04769 0.64615 0.0
C435 C 0.31117 0.9922 0.66251 0.0
C436 C 0.35094 0.05814 0.70803 0.0
O437 O 0.35139 0.0167 0.68848 0.0
O438 O 0.37952 0.04263 0.67877 0.0
C439 C 0.39003 0.04799 0.62637 0.0
N440 N 0.38597 0.06177 0.63416 0.0
C441 C 0.39636 0.07901 0.59664 0.0
C442 C 0.40077 0.06507 0.58827 0.0
C443 C 0.39753 0.04946 0.60318 0.0
C444 C 0.38882 0.07672 0.61986 0.0
H445 H 0.38752 0.03596 0.63777 0.0
C446 C 0.36969 0.0259 0.6882 0.0
O447 O 0.31028 0.9993 0.68322 0.0
O448 O 0.32491 0.00348 0.64828 0.0
N449 N 0.37551 0.08559 0.65106 0.0
C450 C 0.37052 0.09781 0.66186 0.0
C451 C 0.37289 0.1142 0.64937 0.0
C452 C 0.38065 0.11804 0.62608 0.0
C453 C 0.38616 0.10555 0.61558 0.0
C454 C 0.38356 0.0895 0.62896 0.0
H455 H 0.36469 0.09503 0.67984 0.0
O456 O 0.31894 0.03514 0.65439 0.0
O457 O 0.35008 0.0457 0.65308 0.0
O458 O 0.33667 0.04201 0.7015 0.0
O459 O 0.36644 0.06701 0.69593 0.0
C460 C 0.39399 0.10831 0.5923 0.0
C461 C 0.399 0.09499 0.58279 0.0
H462 H 0.40657 0.06616 0.5704 0.0
H463 H 0.40082 0.03861 0.5968 0.0
H464 H 0.36872 0.12384 0.65766 0.0
H465 H 0.38231 0.13061 0.61641 0.0
H466 H 0.396 0.12049 0.58144 0.0
H467 H 0.40478 0.09714 0.56475 0.0
Mn468 Mn 0.98078 0.31659 0.69343 0.0
Mn469 Mn 0.97926 0.27351 0.68986 0.0
C470 C 0.96247 0.29242 0.72041 0.0
C471 C 0.99472 0.34815 0.70812 0.0
C472 C 0.9575 0.28575 0.65558 0.0
O473 O 0.0039 0.32247 0.67247 0.0
O474 O 1.0027 0.29359 0.67374 0.0
C475 C 0.01288 0.28195 0.72078 0.0
N476 N 0.9938 0.27095 0.71575 0.0
C477 C 0.98942 0.25016 0.74954 0.0
C478 C 0.00906 0.2612 0.755 0.0
C479 C 0.02082 0.27718 0.74058 0.0
C480 C 0.98234 0.25554 0.7295 0.0
H481 H 0.02196 0.29427 0.70976 0.0
C482 C 0.01064 0.31133 0.66732 0.0
O483 O 0.98433 0.34298 0.68854 0.0
O484 O 0.99771 0.33522 0.71849 0.0
N485 N 0.95737 0.25277 0.70489 0.0
C486 C 0.93855 0.2444 0.69811 0.0
C487 C 0.92475 0.22861 0.71123 0.0
C488 C 0.93047 0.22148 0.73101 0.0
C489 C 0.94995 0.23019 0.73747 0.0
C490 C 0.96306 0.24583 0.72366 0.0
H491 H 0.93406 0.24983 0.68294 0.0
O492 O 0.95897 0.30645 0.71645 0.0
O493 O 0.97672 0.29301 0.70861 0.0
O494 O 0.96214 0.30187 0.66562 0.0
O495 O 0.96357 0.27444 0.6627 0.0
C496 C 0.95681 0.22429 0.75743 0.0
C497 C 0.97653 0.23427 0.76348 0.0
H498 H 0.01522 0.25764 0.77034 0.0
H499 H 0.03597 0.28582 0.74476 0.0
H500 H 0.90974 0.222 0.70617 0.0
H501 H 0.91976 0.20944 0.74124 0.0
H502 H 0.947 0.21229 0.7685 0.0
H503 H 0.98159 0.22978 0.77909 0.0
Mn504 Mn 0.68452 0.67137 0.6827 0.0
Mn505 Mn 0.72819 0.71139 0.685 0.0
C506 C 0.7087 0.67162 0.7062 0.0
C507 C 0.65352 0.6536 0.69826 0.0
C508 C 0.71468 0.68298 0.64318 0.0
O509 O 0.67938 0.69203 0.66791 0.0
O510 O 0.70858 0.71798 0.67351 0.0
C511 C 0.72035 0.73132 0.72456 0.0
N512 N 0.73113 0.72402 0.71525 0.0
C513 C 0.75185 0.73399 0.75025 0.0
C514 C 0.74105 0.74172 0.76015 0.0
C515 C 0.72519 0.74032 0.74728 0.0
C516 C 0.74629 0.72511 0.72759 0.0
H517 H 0.70812 0.73023 0.71474 0.0
C518 C 0.69099 0.71017 0.6667 0.0
O519 O 0.65743 0.65044 0.6766 0.0
O520 O 0.66729 0.66765 0.71014 0.0
N521 N 0.74883 0.70751 0.69582 0.0
C522 C 0.75769 0.69923 0.6838 0.0
C523 C 0.77382 0.69935 0.69425 0.0
C524 C 0.78083 0.70823 0.71676 0.0
C525 C 0.77177 0.71708 0.72851 0.0
C526 C 0.75583 0.71662 0.71714 0.0
H527 H 0.75246 0.6925 0.66641 0.0
O528 O 0.69392 0.65547 0.69983 0.0
O529 O 0.70868 0.68722 0.69927 0.0
O530 O 0.69836 0.67079 0.65181 0.0
O531 O 0.7264 0.69876 0.65375 0.0
C532 C 0.77781 0.72619 0.75117 0.0
C533 C 0.76781 0.73457 0.76207 0.0
H534 H 0.74473 0.74866 0.77767 0.0
H535 H 0.71673 0.74618 0.75485 0.0
H536 H 0.7808 0.69258 0.68499 0.0
H537 H 0.79316 0.70814 0.72486 0.0
H538 H 0.78998 0.72663 0.76049 0.0
H539 H 0.77244 0.74131 0.77963 0.0
Mn540 Mn 0.33046 0.31433 0.67382 0.0
Mn541 Mn 0.37233 0.31394 0.66862 0.0
C542 C 0.33248 0.29305 0.64732 0.0
C543 C 0.31014 0.32638 0.66277 0.0
C544 C 0.34475 0.29493 0.71002 0.0
O545 O 0.34973 0.33938 0.69047 0.0
O546 O 0.37701 0.33861 0.68348 0.0
C547 C 0.39004 0.34483 0.63204 0.0
N548 N 0.38426 0.32641 0.63915 0.0
C549 C 0.3953 0.3196 0.60219 0.0
C550 C 0.4015 0.33854 0.59454 0.0
C551 C 0.3988 0.35119 0.6095 0.0
C552 C 0.38659 0.31406 0.62478 0.0
H553 H 0.38792 0.35456 0.64345 0.0
C554 C 0.36794 0.34679 0.69184 0.0
O555 O 0.30856 0.31799 0.68342 0.0
O556 O 0.32408 0.32852 0.64901 0.0
N557 N 0.37051 0.29118 0.65456 0.0
C558 C 0.36369 0.27337 0.6646 0.0
C559 C 0.36527 0.25899 0.65192 0.0
C560 C 0.37409 0.26314 0.62925 0.0
C561 C 0.38146 0.28171 0.61958 0.0
C562 C 0.37958 0.29549 0.63311 0.0
H563 H 0.35701 0.27011 0.68209 0.0
O564 O 0.31595 0.29014 0.65469 0.0
O565 O 0.34744 0.30872 0.65505 0.0
O566 O 0.33195 0.29891 0.70258 0.0
O567 O 0.36056 0.30027 0.69904 0.0
C568 C 0.39043 0.28704 0.59693 0.0
C569 C 0.39726 0.30595 0.58819 0.0
H570 H 0.40827 0.34351 0.57717 0.0
H571 H 0.40346 0.36581 0.60367 0.0
H572 H 0.35965 0.24473 0.65958 0.0
H573 H 0.37513 0.25197 0.61943 0.0
H574 H 0.39194 0.27665 0.58597 0.0
H575 H 0.40392 0.30981 0.57063 0.0
Mn576 Mn 0.69293 0.02329 0.69184 0.0
Mn577 Mn 0.73627 0.02589 0.69595 0.0
C578 C 0.71635 0.0457 0.7174 0.0
C579 C 0.66148 0.01024 0.70616 0.0
C580 C 0.72471 0.04303 0.65426 0.0
O581 O 0.6879 0.99799 0.67605 0.0
O582 O 0.71708 1.00081 0.6815 0.0
C583 C 0.72656 0.99544 0.73264 0.0
N584 N 0.73779 0.01399 0.72527 0.0
C585 C 0.75747 0.02171 0.76109 0.0
C586 C 0.74618 0.00266 0.76902 0.0
C587 C 0.73062 0.98949 0.75477 0.0
C588 C 0.7527 0.02682 0.73892 0.0
H589 H 0.71461 0.98529 0.72169 0.0
C590 C 0.69965 0.9916 0.67388 0.0
O591 O 0.66602 0.01794 0.68481 0.0
O592 O 0.67486 0.00923 0.71828 0.0
N593 N 0.75644 0.04926 0.70947 0.0
C594 C 0.7654 0.06728 0.69969 0.0
C595 C 0.78096 0.08231 0.71204 0.0
C596 C 0.78733 0.07859 0.7341 0.0
C597 C 0.77813 0.05985 0.74356 0.0
C598 C 0.7627 0.04546 0.73044 0.0
H599 H 0.76063 0.07019 0.68268 0.0
O600 O 0.7021 0.04787 0.71013 0.0
O601 O 0.71636 0.03025 0.70986 0.0
O602 O 0.7079 0.03852 0.66168 0.0
O603 O 0.73607 0.03878 0.66571 0.0
C604 C 0.78345 0.05495 0.76568 0.0
C605 C 0.77311 0.0359 0.77446 0.0
H606 H 0.74924 0.99802 0.78609 0.0
H607 H 0.72179 0.97478 0.76081 0.0
H608 H 0.78801 0.09672 0.70459 0.0
H609 H 0.79924 0.09025 0.74365 0.0
H610 H 0.79526 0.06579 0.77628 0.0
H611 H 0.77714 0.03238 0.79167 0.0
Mn612 Mn 0.98636 0.67258 0.67007 0.0
Mn613 Mn 0.94642 0.63007 0.65892 0.0
C614 C 0.96479 0.67068 0.64057 0.0
C615 C 0.01861 0.69428 0.66273 0.0
C616 C 0.95174 0.65486 0.70309 0.0
O617 O 0.99204 0.65281 0.68655 0.0
O618 O 0.96662 0.62529 0.6729 0.0
C619 C 0.96071 0.615 0.62027 0.0
N620 N 0.94772 0.62001 0.62819 0.0
C621 C 0.93022 0.61032 0.59056 0.0
C622 C 0.94328 0.60483 0.58211 0.0
C623 C 0.95864 0.60725 0.597 0.0
C624 C 0.93297 0.61787 0.61395 0.0
H625 H 0.9726 0.61698 0.63161 0.0
C626 C 0.98277 0.63446 0.68406 0.0
O627 O 0.01048 0.69493 0.68258 0.0
O628 O 0.00832 0.68046 0.64772 0.0
N629 N 0.92577 0.63266 0.64514 0.0
C630 C 0.91526 0.63993 0.65536 0.0
C631 C 0.89981 0.63937 0.64241 0.0
C632 C 0.89521 0.63119 0.61922 0.0
C633 C 0.9061 0.6236 0.60919 0.0
C634 C 0.92128 0.62448 0.62298 0.0
H635 H 0.91868 0.6462 0.67319 0.0
O636 O 0.97692 0.68719 0.64993 0.0
O637 O 0.96581 0.65584 0.64848 0.0
O638 O 0.96759 0.66938 0.69691 0.0
O639 O 0.94331 0.63926 0.69082 0.0
C640 C 0.90278 0.61562 0.58581 0.0
C641 C 0.91485 0.60901 0.57649 0.0
H642 H 0.9418 0.59895 0.56412 0.0
H643 H 0.96887 0.60321 0.59053 0.0
H644 H 0.8915 0.6453 0.65026 0.0
H645 H 0.88342 0.63098 0.60919 0.0
H646 H 0.89121 0.61484 0.57468 0.0
H647 H 0.91236 0.60323 0.55834 0.0
H648 H 0.14907 0.34051 0.19772 0.0
H649 H 0.12613 0.34171 0.22517 0.0
H650 H 0.08002 0.29195 0.18982 0.0
H651 H 0.10331 0.29048 0.16271 0.0
H652 H 0.15877 0.31381 0.19369 0.0
H653 H 0.1358 0.34517 0.13948 0.0
H654 H 0.11211 0.35025 0.11719 0.0
H655 H 0.09034 0.29461 0.08313 0.0
H656 H 0.11426 0.28963 0.10547 0.0
H657 H 0.184 0.28718 0.13396 0.0
H658 H 0.21201 0.28984 0.11325 0.0
H659 H 0.22329 0.34455 0.08326 0.0
H660 H 0.19512 0.34168 0.10395 0.0
H661 H 0.1557 0.31427 0.10422 0.0
H662 H 0.1776 0.28555 0.18216 0.0
H663 H 0.20497 0.28984 0.20728 0.0
H664 H 0.2327 0.35129 0.19549 0.0
H665 H 0.20559 0.34687 0.16988 0.0
C666 C 0.12795 0.31544 0.1781 0.0
C667 C 0.13402 0.32988 0.19579 0.0
C668 C 0.12082 0.33065 0.21135 0.0
C669 C 0.10118 0.31698 0.20965 0.0
C670 C 0.09505 0.30262 0.19172 0.0
C671 C 0.10832 0.30187 0.17606 0.0
C672 C 0.14243 0.31422 0.16271 0.0
C673 C 0.15789 0.31367 0.17413 0.0
C674 C 0.14159 0.3144 0.13718 0.0
C675 C 0.12673 0.317 0.12418 0.0
C676 C 0.12585 0.33401 0.12734 0.0
C677 C 0.11238 0.33693 0.11452 0.0
C678 C 0.09942 0.32284 0.0984 0.0
C679 C 0.10008 0.30564 0.09555 0.0
C680 C 0.11377 0.30283 0.10817 0.0
C681 C 0.18761 0.31435 0.12075 0.0
C682 C 0.19247 0.29971 0.12285 0.0
C683 C 0.20852 0.30127 0.11102 0.0
C684 C 0.22004 0.31751 0.09675 0.0
C685 C 0.21466 0.33178 0.0939 0.0
C686 C 0.19858 0.33019 0.10577 0.0
C687 C 0.17182 0.31366 0.13533 0.0
C688 C 0.15618 0.31386 0.12377 0.0
C689 C 0.17266 0.3137 0.1608 0.0
C690 C 0.18973 0.31589 0.1741 0.0
C691 C 0.18976 0.29988 0.18466 0.0
C692 C 0.20535 0.30233 0.1989 0.0
C693 C 0.22087 0.32089 0.20324 0.0
C694 C 0.22088 0.33686 0.19239 0.0
C695 C 0.20548 0.33435 0.17778 0.0
H696 H 0.70937 0.89042 0.17588 0.0
H697 H 0.70543 0.91101 0.20552 0.0
H698 H 0.64416 0.87242 0.20459 0.0
H699 H 0.64824 0.85199 0.17502 0.0
H700 H 0.67934 0.83905 0.19029 0.0
H701 H 0.71013 0.89429 0.12858 0.0
H702 H 0.70715 0.91982 0.10747 0.0
H703 H 0.64853 0.8785 0.08815 0.0
H704 H 0.65196 0.85315 0.10852 0.0
H705 H 0.66368 0.80929 0.08996 0.0
H706 H 0.66498 0.78446 0.06627 0.0
H707 H 0.70193 0.78017 0.12072 0.0
H708 H 0.70289 0.80692 0.14207 0.0
H709 H 0.68426 0.84253 0.10111 0.0
H710 H 0.64778 0.79026 0.1596 0.0
H711 H 0.63956 0.76419 0.18907 0.0
H712 H 0.69697 0.79496 0.2187 0.0
H713 H 0.70494 0.82128 0.1899 0.0
C714 C 0.67907 0.86983 0.1732 0.0
C715 C 0.69508 0.88673 0.18162 0.0
C716 C 0.6928 0.89844 0.19854 0.0
C717 C 0.67449 0.89322 0.20749 0.0
C718 C 0.65844 0.87667 0.19822 0.0
C719 C 0.66073 0.86508 0.18123 0.0
C720 C 0.68155 0.85568 0.15873 0.0
C721 C 0.68084 0.83992 0.1708 0.0
C722 C 0.68261 0.85652 0.13338 0.0
C723 C 0.68129 0.87188 0.11994 0.0
C724 C 0.69673 0.89081 0.1196 0.0
C725 C 0.69494 0.90538 0.10767 0.0
C726 C 0.67762 0.90126 0.09597 0.0
C727 C 0.66222 0.88219 0.09644 0.0
C728 C 0.66409 0.86766 0.10818 0.0
C729 C 0.68279 0.80987 0.11834 0.0
C730 C 0.67236 0.80325 0.0966 0.0
C731 C 0.67285 0.78864 0.08317 0.0
C732 C 0.68336 0.77976 0.09142 0.0
C733 C 0.69386 0.78656 0.11319 0.0
C734 C 0.69396 0.80167 0.12604 0.0
C735 C 0.68228 0.82551 0.13266 0.0
C736 C 0.68322 0.8416 0.12061 0.0
C737 C 0.68075 0.82469 0.15817 0.0
C738 C 0.67702 0.80752 0.17246 0.0
C739 C 0.6587 0.79114 0.17208 0.0
C740 C 0.654 0.77638 0.1889 0.0
C741 C 0.6677 0.7777 0.20591 0.0
C742 C 0.68628 0.79365 0.20553 0.0
C743 C 0.69083 0.8086 0.18914 0.0
H744 H 0.11703 0.81935 0.18073 0.0
H745 H 0.09442 0.79286 0.2062 0.0
H746 H 0.1338 0.77031 0.20892 0.0
H747 H 0.15538 0.79594 0.18209 0.0
H748 H 0.16702 0.8414 0.19627 0.0
H749 H 0.11249 0.80754 0.13736 0.0
H750 H 0.09002 0.77733 0.11718 0.0
H751 H 0.13795 0.77375 0.08767 0.0
H752 H 0.16013 0.80305 0.10916 0.0
H753 H 0.20044 0.85062 0.09957 0.0
H754 H 0.22516 0.87503 0.0746 0.0
H755 H 0.22692 0.91934 0.12139 0.0
H756 H 0.20014 0.89501 0.1435 0.0
H757 H 0.16694 0.83945 0.10689 0.0
H758 H 0.21427 0.85365 0.17473 0.0
H759 H 0.23998 0.87343 0.20288 0.0
H760 H 0.21416 0.90953 0.21362 0.0
H761 H 0.18751 0.88821 0.1874 0.0
C762 C 0.13765 0.80933 0.17917 0.0
C763 C 0.12051 0.80841 0.18652 0.0
C764 C 0.10771 0.79336 0.20135 0.0
C765 C 0.11208 0.7792 0.20973 0.0
C766 C 0.1295 0.78047 0.20244 0.0
C767 C 0.14203 0.79525 0.18721 0.0
C768 C 0.15177 0.82566 0.16451 0.0
C769 C 0.16681 0.84126 0.17668 0.0
C770 C 0.152 0.82479 0.13905 0.0
C771 C 0.13804 0.80733 0.12539 0.0
C772 C 0.11813 0.80004 0.12691 0.0
C773 C 0.10528 0.7829 0.115 0.0
C774 C 0.11211 0.77286 0.10103 0.0
C775 C 0.13209 0.78073 0.09875 0.0
C776 C 0.14485 0.79766 0.11085 0.0
C777 C 0.19852 0.87072 0.12406 0.0
C778 C 0.20595 0.86563 0.10425 0.0
C779 C 0.2205 0.87978 0.0901 0.0
C780 C 0.22859 0.89954 0.09574 0.0
C781 C 0.22115 0.90451 0.11577 0.0
C782 C 0.20605 0.89039 0.12923 0.0
C783 C 0.18246 0.85554 0.13857 0.0
C784 C 0.16705 0.84001 0.12644 0.0
C785 C 0.18236 0.85589 0.16417 0.0
C786 C 0.19917 0.86965 0.17873 0.0
C787 C 0.21431 0.86595 0.18309 0.0
C788 C 0.22915 0.87748 0.19915 0.0
C789 C 0.22947 0.89335 0.21086 0.0
C790 C 0.21442 0.89727 0.20571 0.0
C791 C 0.19922 0.88527 0.19033 0.0
H792 H 0.2996 0.17872 0.83199 0.0
H793 H 0.30693 0.20484 0.80333 0.0
H794 H 0.3627 0.23866 0.8369 0.0
H795 H 0.35549 0.21231 0.86504 0.0
H796 H 0.31964 0.15951 0.83442 0.0
H797 H 0.30609 0.19837 0.88875 0.0
H798 H 0.3144 0.22882 0.90889 0.0
H799 H 0.36107 0.2268 0.94624 0.0
H800 H 0.35351 0.19722 0.92502 0.0
H801 H 0.35271 0.15422 0.9239 0.0
H802 H 0.36031 0.13189 0.94454 0.0
H803 H 0.31105 0.08389 0.91101 0.0
H804 H 0.30264 0.10646 0.89156 0.0
H805 H 0.3269 0.16324 0.92343 0.0
H806 H 0.3501 0.13596 0.86402 0.0
H807 H 0.35213 0.11301 0.83677 0.0
H808 H 0.29635 0.09799 0.80702 0.0
H809 H 0.29414 0.12045 0.83498 0.0
C810 C 0.32691 0.19362 0.85081 0.0
C811 C 0.31329 0.19189 0.83339 0.0
C812 C 0.31747 0.20687 0.81711 0.0
C813 C 0.33543 0.22381 0.81779 0.0
C814 C 0.34881 0.22573 0.83575 0.0
C815 C 0.34462 0.21076 0.85203 0.0
C816 C 0.32353 0.17681 0.86591 0.0
C817 C 0.32071 0.1601 0.85397 0.0
C818 C 0.32557 0.17793 0.89136 0.0
C819 C 0.32933 0.19556 0.90503 0.0
C820 C 0.3182 0.20457 0.90116 0.0
C821 C 0.32284 0.22189 0.91291 0.0
C822 C 0.33857 0.23044 0.92901 0.0
C823 C 0.34915 0.22093 0.93355 0.0
C824 C 0.34466 0.2038 0.92164 0.0
C825 C 0.32724 0.13214 0.90581 0.0
C826 C 0.34325 0.13889 0.9213 0.0
C827 C 0.34777 0.12606 0.93286 0.0
C828 C 0.33658 0.10606 0.929 0.0
C829 C 0.32001 0.09918 0.91437 0.0
C830 C 0.31531 0.11211 0.90302 0.0
C831 C 0.32399 0.14631 0.89181 0.0
C832 C 0.32531 0.16243 0.90395 0.0
C833 C 0.32146 0.1451 0.86641 0.0
C834 C 0.32186 0.12975 0.85174 0.0
C835 C 0.3381 0.12737 0.85206 0.0
C836 C 0.33933 0.11439 0.83626 0.0
C837 C 0.32445 0.10371 0.8196 0.0
C838 C 0.30797 0.10577 0.81981 0.0
C839 C 0.30672 0.1187 0.83567 0.0
H840 H 0.82904 0.11492 0.85053 0.0
H841 H 0.80374 0.09102 0.8241 0.0
H842 H 0.76924 0.11798 0.83666 0.0
H843 H 0.79435 0.1415 0.8638 0.0
H844 H 0.84485 0.15786 0.84054 0.0
H845 H 0.80973 0.10746 0.89783 0.0
H846 H 0.7807 0.0857 0.91894 0.0
H847 H 0.78393 0.13414 0.95818 0.0
H848 H 0.8112 0.15595 0.93424 0.0
H849 H 0.85791 0.20217 0.92884 0.0
H850 H 0.88446 0.23076 0.94767 0.0
H851 H 0.92499 0.21859 0.91186 0.0
H852 H 0.89847 0.19007 0.8932 0.0
H853 H 0.84481 0.16477 0.92942 0.0
H854 H 0.8634 0.21071 0.86511 0.0
H855 H 0.88256 0.23495 0.83477 0.0
H856 H 0.90618 0.19941 0.81146 0.0
H857 H 0.88655 0.17487 0.84142 0.0
C858 C 0.81342 0.12979 0.8593 0.0
C859 C 0.81587 0.11544 0.84795 0.0
C860 C 0.80146 0.10183 0.83293 0.0
C861 C 0.78462 0.10273 0.82848 0.0
C862 C 0.78212 0.11703 0.83993 0.0
C863 C 0.79636 0.13037 0.85543 0.0
C864 C 0.82948 0.14524 0.87325 0.0
C865 C 0.845 0.15913 0.86005 0.0
C866 C 0.82906 0.14731 0.89863 0.0
C867 C 0.81242 0.13357 0.91353 0.0
C868 C 0.80384 0.11351 0.91035 0.0
C869 C 0.78736 0.10091 0.92311 0.0
C870 C 0.77947 0.10793 0.94035 0.0
C871 C 0.78888 0.12799 0.94455 0.0
C872 C 0.80488 0.1406 0.93109 0.0
C873 C 0.87614 0.19409 0.90927 0.0
C874 C 0.87251 0.20554 0.92525 0.0
C875 C 0.88772 0.22187 0.93606 0.0
C876 C 0.90688 0.22707 0.93113 0.0
C877 C 0.91043 0.21522 0.9157 0.0
C878 C 0.89525 0.1989 0.90499 0.0
C879 C 0.86006 0.17739 0.8966 0.0
C880 C 0.84465 0.16328 0.90997 0.0
C881 C 0.85993 0.17539 0.87126 0.0
C882 C 0.87367 0.19109 0.85554 0.0
C883 C 0.87296 0.2083 0.85376 0.0
C884 C 0.8838 0.22206 0.83642 0.0
C885 C 0.89575 0.21894 0.82089 0.0
C886 C 0.89713 0.20212 0.82339 0.0
C887 C 0.88596 0.18815 0.84041 0.0
H888 H 0.80209 0.65139 0.82493 0.0
H889 H 0.77657 0.65058 0.79973 0.0
H890 H 0.79126 0.70757 0.82511 0.0
H891 H 0.81602 0.70763 0.8514 0.0
H892 H 0.8414 0.67879 0.82339 0.0
H893 H 0.78895 0.65304 0.875 0.0
H894 H 0.76103 0.65091 0.89517 0.0
H895 H 0.7981 0.70059 0.93849 0.0
H896 H 0.8262 0.70349 0.91716 0.0
H897 H 0.89194 0.71273 0.89437 0.0
H898 H 0.91878 0.71243 0.91598 0.0
H899 H 0.88531 0.65053 0.92247 0.0
H900 H 0.85881 0.65085 0.9001 0.0
H901 H 0.84271 0.68235 0.9128 0.0
H902 H 0.89556 0.70655 0.85117 0.0
H903 H 0.91872 0.70445 0.82484 0.0
H904 H 0.87418 0.64884 0.79937 0.0
H905 H 0.8517 0.65047 0.82713 0.0
C906 C 0.81089 0.67955 0.84 0.0
C907 C 0.7997 0.66364 0.8251 0.0
C908 C 0.7852 0.6633 0.81056 0.0
C909 C 0.78188 0.6791 0.8101 0.0
C910 C 0.79314 0.69501 0.82519 0.0
C911 C 0.80742 0.69516 0.84013 0.0
C912 C 0.82654 0.67993 0.8549 0.0
C913 C 0.8417 0.67959 0.84295 0.0
C914 C 0.82662 0.68064 0.88044 0.0
C915 C 0.80975 0.67881 0.89393 0.0
C916 C 0.79116 0.66382 0.88838 0.0
C917 C 0.77518 0.66251 0.90002 0.0
C918 C 0.77742 0.67575 0.91811 0.0
C919 C 0.79602 0.69029 0.92447 0.0
C920 C 0.81204 0.69189 0.91236 0.0
C921 C 0.87355 0.68178 0.89541 0.0
C922 C 0.89044 0.69911 0.90042 0.0
C923 C 0.90572 0.69893 0.91272 0.0
C924 C 0.90408 0.68146 0.92083 0.0
C925 C 0.88688 0.66419 0.9165 0.0
C926 C 0.87178 0.66434 0.90373 0.0
C927 C 0.85784 0.68179 0.88112 0.0
C928 C 0.84253 0.68194 0.89324 0.0
C929 C 0.85724 0.68026 0.85567 0.0
C930 C 0.87199 0.67846 0.84162 0.0
C931 C 0.89102 0.69358 0.84066 0.0
C932 C 0.90416 0.69251 0.82513 0.0
C933 C 0.89843 0.67648 0.80979 0.0
C934 C 0.87938 0.66125 0.81116 0.0
C935 C 0.86639 0.66221 0.82694 0.0
H936 H 0.82654 0.69322 0.52953 0.0
H937 H 0.80534 0.69917 0.55476 0.0
H938 H 0.75603 0.65152 0.52081 0.0
H939 H 0.77755 0.64514 0.49602 0.0
H940 H 0.83322 0.66493 0.52685 0.0
H941 H 0.81286 0.69728 0.47199 0.0
H942 H 0.79075 0.70428 0.44912 0.0
H943 H 0.76625 0.64839 0.41489 0.0
H944 H 0.78841 0.64135 0.43816 0.0
H945 H 0.85703 0.63586 0.46457 0.0
H946 H 0.88303 0.63758 0.4399 0.0
H947 H 0.8958 0.69416 0.4151 0.0
H948 H 0.86956 0.69207 0.43936 0.0
H949 H 0.82968 0.66355 0.43745 0.0
H950 H 0.85465 0.63574 0.51021 0.0
H951 H 0.88014 0.6402 0.53896 0.0
H952 H 0.90132 0.7016 0.53881 0.0
H953 H 0.87614 0.6971 0.50976 0.0
C954 C 0.8037 0.66875 0.5108 0.0
C955 C 0.81118 0.68394 0.52755 0.0
C956 C 0.79899 0.68748 0.5418 0.0
C957 C 0.77894 0.67597 0.53965 0.0
C958 C 0.77139 0.66062 0.52298 0.0
C959 C 0.78367 0.65706 0.50867 0.0
C960 C 0.8171 0.66543 0.49574 0.0
C961 C 0.83218 0.66426 0.5073 0.0
C962 C 0.81613 0.66502 0.47022 0.0
C963 C 0.80215 0.66874 0.45689 0.0
C964 C 0.80259 0.68644 0.45977 0.0
C965 C 0.79005 0.69047 0.44658 0.0
C966 C 0.77683 0.67689 0.43017 0.0
C967 C 0.77619 0.65904 0.42755 0.0
C968 C 0.78888 0.65506 0.44069 0.0
C969 C 0.86146 0.6639 0.45393 0.0
C970 C 0.86553 0.64866 0.4539 0.0
C971 C 0.88043 0.64969 0.43979 0.0
C972 C 0.89157 0.66601 0.42541 0.0
C973 C 0.88736 0.68122 0.42553 0.0
C974 C 0.87243 0.68012 0.43954 0.0
C975 C 0.84567 0.66297 0.46868 0.0
C976 C 0.83018 0.66338 0.45702 0.0
C977 C 0.84664 0.66349 0.49413 0.0
C978 C 0.86376 0.66613 0.50767 0.0
C979 C 0.8652 0.65019 0.51577 0.0
C980 C 0.87968 0.65275 0.5322 0.0
C981 C 0.89258 0.67124 0.54111 0.0
C982 C 0.89149 0.68721 0.53227 0.0
C983 C 0.87723 0.68468 0.51561 0.0
H984 H 0.37304 0.23117 0.4966 0.0
H985 H 0.37104 0.25432 0.52361 0.0
H986 H 0.31549 0.20959 0.5476 0.0
H987 H 0.31824 0.18646 0.5216 0.0
H988 H 0.3489 0.17774 0.52467 0.0
H989 H 0.37089 0.22051 0.43461 0.0
H990 H 0.36302 0.24213 0.41131 0.0
H991 H 0.3079 0.21711 0.4461 0.0
H992 H 0.31572 0.19561 0.46899 0.0
H993 H 0.32839 0.14092 0.43178 0.0
H994 H 0.32887 0.11361 0.41257 0.0
H995 H 0.38093 0.12704 0.4518 0.0
H996 H 0.38028 0.15429 0.47106 0.0
H997 H 0.35068 0.17922 0.4352 0.0
H998 H 0.32814 0.12474 0.48733 0.0
H999 H 0.32695 0.09909 0.51313 0.0
H1000 H 0.37218 0.14173 0.55794 0.0
H1001 H 0.37418 0.16738 0.53147 0.0
C1002 C 0.34583 0.20712 0.50722 0.0
C1003 C 0.36041 0.22646 0.50761 0.0
C1004 C 0.35916 0.2397 0.523 0.0
C1005 C 0.34316 0.23387 0.53808 0.0
C1006 C 0.32826 0.21457 0.53683 0.0
C1007 C 0.3297 0.20132 0.52179 0.0
C1008 C 0.34792 0.19264 0.4928 0.0
C1009 C 0.34956 0.17813 0.50511 0.0
C1010 C 0.34816 0.19299 0.46732 0.0
C1011 C 0.34393 0.20653 0.45361 0.0
C1012 C 0.35716 0.21979 0.43723 0.0
C1013 C 0.35271 0.23219 0.42408 0.0
C1014 C 0.33483 0.23126 0.42685 0.0
C1015 C 0.32173 0.21806 0.44343 0.0
C1016 C 0.32623 0.20584 0.45663 0.0
C1017 C 0.35416 0.14955 0.45309 0.0
C1018 C 0.34012 0.13822 0.43588 0.0
C1019 C 0.34043 0.12259 0.42489 0.0
C1020 C 0.35485 0.11798 0.43079 0.0
C1021 C 0.36943 0.12995 0.44715 0.0
C1022 C 0.36912 0.14559 0.4581 0.0
C1023 C 0.35227 0.16441 0.46713 0.0
C1024 C 0.35059 0.17902 0.45476 0.0
C1025 C 0.35145 0.16383 0.49271 0.0
C1026 C 0.35147 0.14805 0.50718 0.0
C1027 C 0.33823 0.1286 0.50223 0.0
C1028 C 0.33745 0.11396 0.51701 0.0
C1029 C 0.34951 0.11858 0.53734 0.0
C1030 C 0.3628 0.13793 0.54227 0.0
C1031 C 0.36388 0.15253 0.52721 0.0
H1032 H 0.78382 0.16707 0.53458 0.0
H1033 H 0.76207 0.14194 0.56207 0.0
H1034 H 0.77287 0.10051 0.52533 0.0
H1035 H 0.79545 0.12595 0.49889 0.0
H1036 H 0.82149 0.17973 0.53197 0.0
H1037 H 0.76703 0.1458 0.47525 0.0
H1038 H 0.74431 0.11694 0.4527 0.0
H1039 H 0.7918 0.11671 0.41658 0.0
H1040 H 0.81421 0.14441 0.44017 0.0
H1041 H 0.85492 0.18788 0.4357 0.0
H1042 H 0.88079 0.21136 0.41137 0.0
H1043 H 0.88601 0.25672 0.45905 0.0
H1044 H 0.85806 0.2335 0.48055 0.0
H1045 H 0.82217 0.17901 0.44264 0.0
H1046 H 0.86978 0.19201 0.508 0.0
H1047 H 0.89641 0.21158 0.53512 0.0
H1048 H 0.86997 0.24624 0.55184 0.0
H1049 H 0.84254 0.2252 0.52634 0.0
C1050 C 0.7912 0.14844 0.51448 0.0
C1051 C 0.78136 0.15252 0.53232 0.0
C1052 C 0.76876 0.13806 0.54792 0.0
C1053 C 0.76569 0.11913 0.54605 0.0
C1054 C 0.77506 0.11495 0.52759 0.0
C1055 C 0.78782 0.12947 0.51217 0.0
C1056 C 0.80622 0.16437 0.49991 0.0
C1057 C 0.82143 0.17971 0.51238 0.0
C1058 C 0.80672 0.16389 0.47435 0.0
C1059 C 0.79242 0.14719 0.45977 0.0
C1060 C 0.77252 0.13939 0.46265 0.0
C1061 C 0.75952 0.12299 0.44952 0.0
C1062 C 0.76619 0.11426 0.43304 0.0
C1063 C 0.78609 0.12264 0.42956 0.0
C1064 C 0.79898 0.13874 0.44286 0.0
C1065 C 0.85454 0.20864 0.46054 0.0
C1066 C 0.86139 0.20294 0.4407 0.0
C1067 C 0.87665 0.21654 0.42694 0.0
C1068 C 0.8861 0.23629 0.43307 0.0
C1069 C 0.87922 0.24189 0.4531 0.0
C1070 C 0.8634 0.22837 0.46616 0.0
C1071 C 0.83783 0.19397 0.47469 0.0
C1072 C 0.82217 0.17909 0.4622 0.0
C1073 C 0.83743 0.19406 0.50025 0.0
C1074 C 0.85433 0.20728 0.51505 0.0
C1075 C 0.86984 0.20389 0.51751 0.0
C1076 C 0.8852 0.21532 0.53294 0.0
C1077 C 0.88567 0.23079 0.54587 0.0
C1078 C 0.87014 0.23432 0.54281 0.0
C1079 C 0.85448 0.22244 0.52797 0.0
H1080 H 0.96262 0.51992 0.18514 0.0
H1081 H 0.96924 0.5474 0.1592 0.0
H1082 H 0.02787 0.55931 0.15171 0.0
H1083 H 0.02139 0.53295 0.17916 0.0
H1084 H 0.98311 0.48989 0.16922 0.0
H1085 H 0.96995 0.52887 0.22789 0.0
H1086 H 0.97933 0.55997 0.24681 0.0
H1087 H 0.03202 0.56292 0.27208 0.0
H1088 H 0.02315 0.53263 0.25163 0.0
H1089 H 0.01985 0.48511 0.25376 0.0
H1090 H 0.02456 0.46256 0.27866 0.0
H1091 H 0.96763 0.41714 0.25927 0.0
H1092 H 0.96334 0.43988 0.23348 0.0
H1093 H 0.99372 0.49693 0.25774 0.0
H1094 H 0.01283 0.46528 0.20134 0.0
H1095 H 0.01456 0.44197 0.17458 0.0
H1096 H 0.9601 0.42905 0.14241 0.0
H1097 H 0.95806 0.45181 0.17004 0.0
C1098 C 0.99163 0.52472 0.18439 0.0
C1099 C 0.97697 0.52877 0.17821 0.0
C1100 C 0.98076 0.54436 0.1631 0.0
C1101 C 0.99917 0.55582 0.15328 0.0
C1102 C 0.01368 0.55134 0.15933 0.0
C1103 C 0.00997 0.53609 0.17486 0.0
C1104 C 0.98797 0.50816 0.19995 0.0
C1105 C 0.98471 0.49104 0.18871 0.0
C1106 C 0.99105 0.51027 0.22517 0.0
C1107 C 0.99607 0.52865 0.23773 0.0
C1108 C 0.98371 0.53645 0.23705 0.0
C1109 C 0.98895 0.5541 0.24829 0.0
C1110 C 0.00656 0.56418 0.26082 0.0
C1111 C 0.01858 0.55592 0.26211 0.0
C1112 C 0.01344 0.53844 0.25063 0.0
C1113 C 0.99121 0.46422 0.24187 0.0
C1114 C 0.00835 0.4703 0.2549 0.0
C1115 C 0.01096 0.45737 0.26928 0.0
C1116 C 0.99636 0.43802 0.27135 0.0
C1117 C 0.97923 0.43187 0.25802 0.0
C1118 C 0.97671 0.44486 0.24335 0.0
C1119 C 0.98875 0.47843 0.22705 0.0
C1120 C 0.99111 0.49524 0.23842 0.0
C1121 C 0.98543 0.47625 0.20181 0.0
C1122 C 0.98518 0.46016 0.18798 0.0
C1123 C 1.00093 0.45697 0.18913 0.0
C1124 C 1.00204 0.44382 0.17352 0.0
C1125 C 0.98756 0.43374 0.15616 0.0
C1126 C 0.97142 0.43638 0.1557 0.0
C1127 C 0.97028 0.44949 0.17141 0.0
H1128 H 0.49145 0.45445 0.15987 0.0
H1129 H 0.46468 0.43495 0.13213 0.0
H1130 H 0.43233 0.45992 0.16204 0.0
H1131 H 0.45889 0.47897 0.19039 0.0
H1132 H 0.50921 0.49587 0.15997 0.0
H1133 H 0.47557 0.44185 0.20917 0.0
H1134 H 0.44824 0.41694 0.22992 0.0
H1135 H 0.45233 0.45913 0.28223 0.0
H1136 H 0.47763 0.4844 0.25888 0.0
H1137 H 0.52262 0.53399 0.25061 0.0
H1138 H 0.5484 0.56123 0.27219 0.0
H1139 H 0.59008 0.54993 0.23777 0.0
H1140 H 0.56416 0.52288 0.21588 0.0
H1141 H 0.51067 0.49582 0.24936 0.0
H1142 H 0.53934 0.54959 0.19315 0.0
H1143 H 0.56074 0.57363 0.16386 0.0
H1144 H 0.56623 0.5294 0.12614 0.0
H1145 H 0.54545 0.5055 0.15576 0.0
C1146 C 0.47704 0.46799 0.17728 0.0
C1147 C 0.47843 0.45541 0.16079 0.0
C1148 C 0.46321 0.44431 0.14505 0.0
C1149 C 0.44658 0.44601 0.14515 0.0
C1150 C 0.44504 0.45837 0.16184 0.0
C1151 C 0.46011 0.46916 0.17799 0.0
C1152 C 0.49399 0.48133 0.19194 0.0
C1153 C 0.50972 0.49568 0.17955 0.0
C1154 C 0.49427 0.481 0.21751 0.0
C1155 C 0.47838 0.46533 0.23165 0.0
C1156 C 0.47013 0.44593 0.22454 0.0
C1157 C 0.45468 0.43143 0.23707 0.0
C1158 C 0.44757 0.43566 0.25801 0.0
C1159 C 0.45662 0.45503 0.26585 0.0
C1160 C 0.47154 0.46965 0.25265 0.0
C1161 C 0.54145 0.52651 0.23141 0.0
C1162 C 0.53731 0.53727 0.24789 0.0
C1163 C 0.55209 0.55281 0.26033 0.0
C1164 C 0.57137 0.55787 0.25671 0.0
C1165 C 0.57543 0.54667 0.24071 0.0
C1166 C 0.56063 0.53116 0.2282 0.0
C1167 C 0.52565 0.51076 0.21731 0.0
C1168 C 0.51016 0.49588 0.2298 0.0
C1169 C 0.52554 0.51045 0.19175 0.0
C1170 C 0.54087 0.52571 0.17681 0.0
C1171 C 0.54567 0.54516 0.17913 0.0
C1172 C 0.55779 0.55886 0.16236 0.0
C1173 C 0.56501 0.55322 0.14291 0.0
C1174 C 0.56082 0.534 0.1411 0.0
C1175 C 0.54896 0.5204 0.15797 0.0
H1176 H 0.54854 0.03426 0.17024 0.0
H1177 H 0.56857 0.02812 0.14271 0.0
H1178 H 0.55272 0.97448 0.17944 0.0
H1179 H 0.5323 0.98047 0.20652 0.0
H1180 H 0.51069 0.01148 0.17053 0.0
H1181 H 0.56005 0.03518 0.23199 0.0
H1182 H 0.58494 0.03451 0.25715 0.0
H1183 H 0.5429 0.97918 0.28573 0.0
H1184 H 0.51799 0.98048 0.26127 0.0
H1185 H 0.46662 0.98006 0.25564 0.0
H1186 H 0.43841 0.97758 0.2753 0.0
H1187 H 0.45081 0.03256 0.24493 0.0
H1188 H 0.47873 0.03455 0.22458 0.0
H1189 H 0.50473 0.00648 0.25954 0.0
H1190 H 0.45576 0.98222 0.1984 0.0
H1191 H 0.43205 0.9786 0.16742 0.0
H1192 H 0.47364 0.03192 0.13463 0.0
H1193 H 0.49728 0.03586 0.16586 0.0
C1194 C 0.53894 0.00788 0.19052 0.0
C1195 C 0.54971 0.02138 0.17271 0.0
C1196 C 0.56124 0.01789 0.15703 0.0
C1197 C 0.56213 1.00072 0.15874 0.0
C1198 C 0.55216 0.98772 0.17746 0.0
C1199 C 0.54066 0.99125 0.19316 0.0
C1200 C 0.52385 0.00971 0.20376 0.0
C1201 C 0.50968 0.01099 0.19006 0.0
C1202 C 0.52215 0.00823 0.22916 0.0
C1203 C 0.53719 0.00783 0.24465 0.0
C1204 C 0.55623 0.02294 0.24374 0.0
C1205 C 0.57047 0.02246 0.25809 0.0
C1206 C 0.56605 0.00673 0.27349 0.0
C1207 C 0.54687 0.9917 0.27447 0.0
C1208 C 0.53259 0.99233 0.26035 0.0
C1209 C 0.47479 0.00747 0.23862 0.0
C1210 C 0.46331 0.99162 0.25331 0.0
C1211 C 0.4472 0.9903 0.26465 0.0
C1212 C 0.44232 0.00495 0.26193 0.0
C1213 C 0.45394 0.02089 0.24725 0.0
C1214 C 0.46998 0.02211 0.23569 0.0
C1215 C 0.49163 0.00846 0.2262 0.0
C1216 C 0.506 0.00753 0.24006 0.0
C1217 C 0.49353 0.0102 0.20083 0.0
C1218 C 0.47827 0.00943 0.18462 0.0
C1219 C 0.45961 0.99349 0.18507 0.0
C1220 C 0.44613 0.99134 0.16734 0.0
C1221 C 0.45116 0.00503 0.14889 0.0
C1222 C 0.46952 0.0213 0.14887 0.0
C1223 C 0.48296 0.02351 0.16664 0.0
H1224 H 0.47287 0.01965 0.82799 0.0
H1225 H 0.44916 0.01941 0.85573 0.0
H1226 H 0.43605 0.96278 0.88053 0.0
H1227 H 0.45943 0.96294 0.85238 0.0
H1228 H 0.49791 0.98965 0.85591 0.0
H1229 H 0.49294 0.02814 0.77532 0.0
H1230 H 0.47113 0.03396 0.75033 0.0
H1231 H 0.42572 0.97575 0.76386 0.0
H1232 H 0.44766 0.97039 0.78989 0.0
H1233 H 0.51485 0.97461 0.75942 0.0
H1234 H 0.54158 0.97687 0.73572 0.0
H1235 H 0.58181 0.02094 0.78392 0.0
H1236 H 0.5552 0.01964 0.80666 0.0
H1237 H 0.50283 0.99882 0.76727 0.0
H1238 H 0.52635 0.96602 0.8299 0.0
H1239 H 0.55073 0.96704 0.858 0.0
H1240 H 0.5638 0.02419 0.8807 0.0
H1241 H 0.53875 0.02243 0.85379 0.0
C1242 C 0.46784 0.99125 0.83793 0.0
C1243 C 0.46452 0.00697 0.83891 0.0
C1244 C 0.45111 0.0069 0.855 0.0
C1245 C 0.44078 0.99112 0.87051 0.0
C1246 C 0.44358 0.97508 0.86873 0.0
C1247 C 0.45702 0.97519 0.8527 0.0
C1248 C 0.48406 0.99237 0.8238 0.0
C1249 C 0.49881 0.99133 0.83644 0.0
C1250 C 0.4858 0.99555 0.79862 0.0
C1251 C 0.47192 0.99884 0.78437 0.0
C1252 C 0.47825 0.01666 0.77298 0.0
C1253 C 0.46576 0.01989 0.7585 0.0
C1254 C 0.44667 0.00522 0.75466 0.0
C1255 C 0.44025 0.98742 0.76649 0.0
C1256 C 0.45277 0.98429 0.7813 0.0
C1257 C 0.53287 0.99657 0.78535 0.0
C1258 C 0.52941 0.98485 0.76489 0.0
C1259 C 0.54466 0.98612 0.75134 0.0
C1260 C 0.56371 0.99893 0.75818 0.0
C1261 C 0.56723 0.01072 0.77852 0.0
C1262 C 0.55198 0.00979 0.79172 0.0
C1263 C 0.51641 0.99533 0.79925 0.0
C1264 C 0.50169 0.99656 0.78664 0.0
C1265 C 0.51508 0.99321 0.82466 0.0
C1266 C 0.53078 0.99412 0.83989 0.0
C1267 C 0.53457 0.97873 0.84095 0.0
C1268 C 0.54859 0.97943 0.85692 0.0
C1269 C 0.55919 0.99564 0.87188 0.0
C1270 C 0.55565 0.01124 0.87004 0.0
C1271 C 0.54144 0.01036 0.85449 0.0
H1272 H 0.04845 0.55708 0.85582 0.0
H1273 H 0.04648 0.58104 0.88179 0.0
H1274 H 0.98565 0.5542 0.86714 0.0
H1275 H 0.98778 0.53068 0.84067 0.0
H1276 H 0.02141 0.51241 0.86279 0.0
H1277 H 0.04255 0.56536 0.80569 0.0
H1278 H 0.03991 0.59074 0.78382 0.0
H1279 H 0.98487 0.54802 0.75498 0.0
H1280 H 0.98769 0.5228 0.77667 0.0
H1281 H 0.98536 0.47147 0.77702 0.0
H1282 H 0.98127 0.44383 0.75341 0.0
H1283 H 0.03759 0.45497 0.7765 0.0
H1284 H 0.04134 0.48236 0.80045 0.0
H1285 H 0.01332 0.51032 0.77375 0.0
H1286 H 0.98553 0.46458 0.84369 0.0
H1287 H 0.98222 0.43794 0.86938 0.0
H1288 H 0.0439 0.46398 0.87361 0.0
H1289 H 0.04713 0.49087 0.84838 0.0
C1290 C 0.01827 0.54222 0.84633 0.0
C1291 C 0.03476 0.55652 0.85804 0.0
C1292 C 0.03364 0.57018 0.87272 0.0
C1293 C 0.01591 0.56938 0.87634 0.0
C1294 C 0.99945 0.55506 0.86458 0.0
C1295 C 1.00065 0.54169 0.84951 0.0
C1296 C 0.01913 0.52729 0.83148 0.0
C1297 C 0.02018 0.51222 0.84326 0.0
C1298 C 0.01671 0.52669 0.80614 0.0
C1299 C 0.01527 0.54217 0.7929 0.0
C1300 C 0.02986 0.5615 0.79477 0.0
C1301 C 0.02834 0.57601 0.78227 0.0
C1302 C 0.01223 0.57142 0.76754 0.0
C1303 C 0.99765 0.55203 0.76578 0.0
C1304 C 0.99919 0.53758 0.77824 0.0
C1305 C 0.01356 0.47885 0.79068 0.0
C1306 C 0.99681 0.46794 0.77696 0.0
C1307 C 0.99456 0.4522 0.76335 0.0
C1308 C 0.00911 0.44713 0.76298 0.0
C1309 C 0.02596 0.45823 0.77664 0.0
C1310 C 0.02814 0.47391 0.79034 0.0
C1311 C 0.01586 0.49555 0.80504 0.0
C1312 C 0.01516 0.51082 0.79321 0.0
C1313 C 0.0183 0.49626 0.83037 0.0
C1314 C 0.01656 0.47956 0.84413 0.0
C1315 C 0.99831 0.46443 0.85001 0.0
C1316 C 0.99644 0.4493 0.86467 0.0
C1317 C 0.01281 0.44895 0.87335 0.0
C1318 C 0.03108 0.46387 0.86692 0.0
C1319 C 0.03294 0.47921 0.85262 0.0
H1320 H 0.46114 0.49362 0.85977 0.0
H1321 H 0.44052 0.46865 0.88836 0.0
H1322 H 0.45699 0.42946 0.85692 0.0
H1323 H 0.47814 0.45465 0.8292 0.0
H1324 H 0.49918 0.50941 0.85903 0.0
H1325 H 0.44907 0.47752 0.79479 0.0
H1326 H 0.42679 0.45052 0.76925 0.0
H1327 H 0.47219 0.43764 0.7539 0.0
H1328 H 0.4944 0.46523 0.77813 0.0
H1329 H 0.54105 0.51809 0.77116 0.0
H1330 H 0.56604 0.54285 0.74624 0.0
H1331 H 0.55264 0.58519 0.77487 0.0
H1332 H 0.52791 0.56035 0.80019 0.0
H1333 H 0.50371 0.5044 0.77051 0.0
H1334 H 0.55379 0.53425 0.82844 0.0
H1335 H 0.57858 0.55732 0.85579 0.0
H1336 H 0.53688 0.56966 0.88797 0.0
H1337 H 0.5123 0.547 0.86012 0.0
C1338 C 0.47111 0.47603 0.84213 0.0
C1339 C 0.46008 0.47955 0.85881 0.0
C1340 C 0.44819 0.46521 0.87506 0.0
C1341 C 0.44718 0.44707 0.87506 0.0
C1342 C 0.4576 0.44334 0.85763 0.0
C1343 C 0.46951 0.45768 0.84147 0.0
C1344 C 0.48586 0.49208 0.82744 0.0
C1345 C 0.49989 0.50859 0.83956 0.0
C1346 C 0.48739 0.49054 0.80224 0.0
C1347 C 0.4734 0.47342 0.78821 0.0
C1348 C 0.45413 0.46881 0.78587 0.0
C1349 C 0.44138 0.45327 0.77134 0.0
C1350 C 0.44763 0.44188 0.75914 0.0
C1351 C 0.46687 0.44631 0.76229 0.0
C1352 C 0.47962 0.46202 0.77637 0.0
C1353 C 0.53264 0.53734 0.78767 0.0
C1354 C 0.54352 0.53272 0.7721 0.0
C1355 C 0.55774 0.5469 0.75771 0.0
C1356 C 0.56133 0.56607 0.75834 0.0
C1357 C 0.55047 0.57068 0.77408 0.0
C1358 C 0.53629 0.55647 0.78859 0.0
C1359 C 0.51694 0.52193 0.80205 0.0
C1360 C 0.50279 0.50552 0.7899 0.0
C1361 C 0.51562 0.52337 0.82735 0.0
C1362 C 0.53117 0.53898 0.84202 0.0
C1363 C 0.55008 0.54227 0.84097 0.0
C1364 C 0.5642 0.55529 0.85685 0.0
C1365 C 0.55972 0.56529 0.8742 0.0
C1366 C 0.54091 0.5624 0.8747 0.0
C1367 C 0.52679 0.54935 0.85885 0.0
H1368 H 0.6166 0.84368 0.49841 0.0
H1369 H 0.62143 0.86964 0.47076 0.0
H1370 H 0.67719 0.90621 0.50299 0.0
H1371 H 0.67242 0.87999 0.53026 0.0
H1372 H 0.6408 0.82833 0.49681 0.0
H1373 H 0.62418 0.86312 0.55515 0.0
H1374 H 0.63132 0.8917 0.57883 0.0
H1375 H 0.67629 0.88686 0.61665 0.0
H1376 H 0.6702 0.85948 0.5916 0.0
H1377 H 0.67453 0.80733 0.55321 0.0
H1378 H 0.67957 0.78347 0.57533 0.0
H1379 H 0.6217 0.75746 0.60218 0.0
H1380 H 0.61684 0.78166 0.58023 0.0
H1381 H 0.64428 0.82576 0.58597 0.0
H1382 H 0.66834 0.81953 0.49256 0.0
H1383 H 0.6703 0.79703 0.46474 0.0
H1384 H 0.62099 0.74978 0.49826 0.0
H1385 H 0.61874 0.77267 0.5258 0.0
C1386 C 0.64411 0.85991 0.51647 0.0
C1387 C 0.6297 0.85744 0.49984 0.0
C1388 C 0.63244 0.87233 0.48411 0.0
C1389 C 0.64975 0.88997 0.48455 0.0
C1390 C 0.66379 0.89272 0.50201 0.0
C1391 C 0.66101 0.87782 0.51778 0.0
C1392 C 0.64246 0.84305 0.53002 0.0
C1393 C 0.64131 0.82769 0.51636 0.0
C1394 C 0.64376 0.8426 0.55555 0.0
C1395 C 0.64686 0.85921 0.57111 0.0
C1396 C 0.63578 0.86838 0.56827 0.0
C1397 C 0.63971 0.88463 0.58217 0.0
C1398 C 0.65458 0.8919 0.59961 0.0
C1399 C 0.66509 0.88216 0.60302 0.0
C1400 C 0.6614 0.8662 0.58887 0.0
C1401 C 0.64532 0.79622 0.5651 0.0
C1402 C 0.66291 0.79644 0.56377 0.0
C1403 C 0.66578 0.78286 0.57646 0.0
C1404 C 0.65104 0.76866 0.59052 0.0
C1405 C 0.63326 0.76819 0.59139 0.0
C1406 C 0.6305 0.78201 0.57898 0.0
C1407 C 0.64282 0.81133 0.55264 0.0
C1408 C 0.64334 0.82635 0.56647 0.0
C1409 C 0.64205 0.81212 0.52722 0.0
C1410 C 0.64344 0.79783 0.51136 0.0
C1411 C 0.65794 0.80433 0.494 0.0
C1412 C 0.65915 0.79138 0.47821 0.0
C1413 C 0.64589 0.77153 0.47934 0.0
C1414 C 0.63138 0.76498 0.49683 0.0
C1415 C 0.63018 0.77801 0.51273 0.0
H1416 H 0.16051 0.78989 0.5009 0.0
H1417 H 0.135 0.76937 0.47223 0.0
H1418 H 0.09956 0.79197 0.4989 0.0
H1419 H 0.12487 0.812 0.52823 0.0
H1420 H 0.17476 0.8326 0.4997 0.0
H1421 H 0.14433 0.77667 0.5485 0.0
H1422 H 0.11777 0.75084 0.5692 0.0
H1423 H 0.11993 0.79171 0.62226 0.0
H1424 H 0.14435 0.8178 0.59891 0.0
H1425 H 0.18852 0.87138 0.58831 0.0
H1426 H 0.21469 0.89955 0.60837 0.0
H1427 H 0.25571 0.88589 0.57682 0.0
H1428 H 0.2295 0.85793 0.55671 0.0
H1429 H 0.17773 0.83072 0.58903 0.0
H1430 H 0.18719 0.87818 0.5193 0.0
H1431 H 0.20684 0.90374 0.49059 0.0
H1432 H 0.24387 0.87904 0.48252 0.0
H1433 H 0.22386 0.85322 0.51081 0.0
C1434 C 0.14443 0.80223 0.51681 0.0
C1435 C 0.14706 0.79005 0.50096 0.0
C1436 C 0.13254 0.77837 0.48467 0.0
C1437 C 0.11544 0.77918 0.48351 0.0
C1438 C 0.11266 0.79113 0.49962 0.0
C1439 C 0.12701 0.80246 0.51636 0.0
C1440 C 0.16075 0.81643 0.53157 0.0
C1441 C 0.1755 0.83194 0.51923 0.0
C1442 C 0.16132 0.81575 0.55716 0.0
C1443 C 0.14602 0.7995 0.57131 0.0
C1444 C 0.13861 0.78024 0.564 0.0
C1445 C 0.12361 0.76522 0.57655 0.0
C1446 C 0.1162 0.76879 0.59771 0.0
C1447 C 0.12447 0.78806 0.60574 0.0
C1448 C 0.13889 0.80317 0.59253 0.0
C1449 C 0.20712 0.86278 0.57073 0.0
C1450 C 0.20315 0.87439 0.58594 0.0
C1451 C 0.21812 0.89043 0.59747 0.0
C1452 C 0.23733 0.89509 0.59404 0.0
C1453 C 0.24113 0.88295 0.57948 0.0
C1454 C 0.22617 0.86695 0.56797 0.0
C1455 C 0.19144 0.84674 0.55702 0.0
C1456 C 0.17685 0.83104 0.56952 0.0
C1457 C 0.19065 0.84715 0.53161 0.0
C1458 C 0.20427 0.86402 0.51735 0.0
C1459 C 0.19975 0.8785 0.51167 0.0
C1460 C 0.21089 0.89299 0.49523 0.0
C1461 C 0.22684 0.89332 0.4844 0.0
C1462 C 0.23177 0.87921 0.49083 0.0
C1463 C 0.2204 0.86451 0.50697 0.0
H1464 H 0.12566 0.31652 0.51899 0.0
H1465 H 0.09907 0.31268 0.49269 0.0
H1466 H 0.12509 0.37454 0.48696 0.0
H1467 H 0.15195 0.37831 0.51269 0.0
H1468 H 0.17202 0.35078 0.49863 0.0
H1469 H 0.13916 0.31907 0.58828 0.0
H1470 H 0.10975 0.3101 0.61016 0.0
H1471 H 0.10757 0.35897 0.57951 0.0
H1472 H 0.13783 0.36861 0.55887 0.0
H1473 H 0.22582 0.37973 0.56119 0.0
H1474 H 0.25269 0.37837 0.58093 0.0
H1475 H 0.21489 0.31868 0.59916 0.0
H1476 H 0.18819 0.32003 0.5788 0.0
H1477 H 0.17423 0.3485 0.588 0.0
H1478 H 0.22615 0.37547 0.51852 0.0
H1479 H 0.24689 0.36892 0.49273 0.0
H1480 H 0.19944 0.31173 0.4785 0.0
H1481 H 0.17951 0.31797 0.50573 0.0
C1482 C 0.14059 0.34769 0.51787 0.0
C1483 C 0.12548 0.32923 0.51228 0.0
C1484 C 0.11039 0.32706 0.49728 0.0
C1485 C 0.11009 0.34333 0.48798 0.0
C1486 C 0.12496 0.36181 0.49416 0.0
C1487 C 0.14026 0.36397 0.50875 0.0
C1488 C 0.15751 0.34985 0.53148 0.0
C1489 C 0.17281 0.35093 0.5182 0.0
C1490 C 0.15774 0.34859 0.55694 0.0
C1491 C 0.14059 0.34432 0.57151 0.0
C1492 C 0.13255 0.32805 0.58653 0.0
C1493 C 0.11554 0.32279 0.59882 0.0
C1494 C 0.106 0.33357 0.59624 0.0
C1495 C 0.11448 0.35032 0.58193 0.0
C1496 C 0.13167 0.3557 0.56982 0.0
C1497 C 0.20517 0.34986 0.56807 0.0
C1498 C 0.2234 0.36631 0.5692 0.0
C1499 C 0.23869 0.36553 0.58055 0.0
C1500 C 0.23589 0.34839 0.59147 0.0
C1501 C 0.21744 0.33211 0.59102 0.0
C1502 C 0.20221 0.33283 0.57935 0.0
C1503 C 0.1892 0.35044 0.55512 0.0
C1504 C 0.17387 0.34938 0.56847 0.0
C1505 C 0.18836 0.35063 0.52965 0.0
C1506 C 0.20144 0.34704 0.51452 0.0
C1507 C 0.22046 0.36136 0.5104 0.0
C1508 C 0.2322 0.35766 0.49526 0.0
C1509 C 0.22497 0.33971 0.4835 0.0
C1510 C 0.20579 0.32553 0.48763 0.0
C1511 C 0.19425 0.32913 0.50304 0.0
H1512 H 0.98463 0.37873 0.07183 0.0
H1513 H 0.04419 0.4229 0.06745 0.0
H1514 H 0.04049 0.43925 0.10215 0.0
H1515 H 0.02015 0.44237 0.13213 0.0
H1516 H 0.96055 0.39881 0.13717 0.0
H1517 H 0.96446 0.38103 0.10379 0.0
C1518 C 0.99685 0.39181 0.07863 0.0
C1519 C 0.01463 0.39956 0.06683 0.0
C1520 C 0.9946 0.40139 0.09863 0.0
C1521 C 0.03027 0.4166 0.07593 0.0
C1522 C 0.0282 0.42602 0.09585 0.0
C1523 C 0.00807 0.42878 0.12632 0.0
C1524 C 0.99009 0.42195 0.13724 0.0
C1525 C 0.0104 0.41871 0.10711 0.0
C1526 C 0.97452 0.40452 0.12897 0.0
C1527 C 0.97676 0.3943 0.10992 0.0
H1528 H 0.59632 0.60109 0.04711 0.0
H1529 H 0.64822 0.62913 0.08972 0.0
H1530 H 0.63131 0.60928 0.12472 0.0
H1531 H 0.60184 0.58269 0.14257 0.0
H1532 H 0.5506 0.55345 0.09886 0.0
H1533 H 0.56703 0.57474 0.06482 0.0
C1534 C 0.60384 0.60275 0.0641 0.0
C1535 C 0.6235 0.616 0.06584 0.0
C1536 C 0.59411 0.59103 0.08387 0.0
C1537 C 0.63314 0.61852 0.08796 0.0
C1538 C 0.62347 0.60727 0.10794 0.0
C1539 C 0.59435 0.58119 0.12561 0.0
C1540 C 0.57511 0.56672 0.12306 0.0
C1541 C 0.60401 0.59326 0.10601 0.0
C1542 C 0.56544 0.5646 0.10104 0.0
C1543 C 0.5748 0.57675 0.08166 0.0
H1544 H 0.4048 0.9868 0.05097 0.0
H1545 H 0.37644 0.01246 0.08919 0.0
H1546 H 0.39583 0.01606 0.12538 0.0
H1547 H 0.42222 0.01338 0.1454 0.0
H1548 H 0.45132 0.98885 0.10642 0.0
H1549 H 0.43058 0.98351 0.07112 0.0
C1550 C 0.40296 0.99318 0.06729 0.0
C1551 C 0.38982 0.99998 0.0674 0.0
C1552 C 0.41437 0.99546 0.08776 0.0
C1553 C 0.38702 0.00774 0.08866 0.0
C1554 C 0.398 0.00968 0.10932 0.0
C1555 C 0.42382 0.00675 0.12918 0.0
C1556 C 0.43809 1.00142 0.12827 0.0
C1557 C 0.41197 0.00391 0.10895 0.0
C1558 C 0.44031 0.99298 0.10728 0.0
C1559 C 0.42848 0.98992 0.0872 0.0
H1560 H 0.38194 0.98115 0.9528 0.0
H1561 H 0.42571 0.04013 0.96642 0.0
H1562 H 0.44395 0.03909 0.9324 0.0
H1563 H 0.44839 0.02147 0.89952 0.0
H1564 H 0.40534 0.96253 0.8852 0.0
H1565 H 0.38611 0.96356 0.91866 0.0
C1566 C 0.39542 0.99379 0.94828 0.0
C1567 C 0.40232 0.01066 0.96239 0.0
C1568 C 0.40609 0.99314 0.92852 0.0
C1569 C 0.41991 0.02687 0.95613 0.0
C1570 C 0.43044 0.02635 0.93657 0.0
C1571 C 0.43464 0.00893 0.90341 0.0
C1572 C 0.42832 0.99199 0.88974 0.0
C1573 C 0.42375 0.00957 0.92272 0.0
C1574 C 0.41064 0.97574 0.8955 0.0
C1575 C 0.39961 0.97633 0.91461 0.0
H1576 H 0.01687 0.38558 0.93801 0.0
H1577 H 0.98293 0.3998 0.98462 0.0
H1578 H 0.98217 0.4217 0.95399 0.0
H1579 H 0.99318 0.43848 0.91515 0.0
H1580 H 0.02827 0.42531 0.86913 0.0
H1581 H 0.02647 0.40115 0.8981 0.0
C1582 C 0.00944 0.39362 0.94139 0.0
C1583 C 1.00064 0.39183 0.96375 0.0
C1584 C 0.0092 0.40622 0.92377 0.0
C1585 C 0.99024 0.40147 0.96769 0.0
C1586 C 0.9898 0.41393 0.95021 0.0
C1587 C 1.00026 0.43016 0.91142 0.0
C1588 C 0.01086 0.43361 0.89015 0.0
C1589 C 0.99955 0.41671 0.92839 0.0
C1590 C 0.02012 0.4229 0.8855 0.0
C1591 C 0.01904 0.40909 0.902 0.0
H1592 H 0.61282 0.62438 0.95459 0.0
H1593 H 0.6312 0.58191 0.96208 0.0
H1594 H 0.61016 0.56343 0.92876 0.0
H1595 H 0.58531 0.55829 0.89882 0.0
H1596 H 0.56664 0.60045 0.89121 0.0
H1597 H 0.5889 0.61993 0.9233 0.0
C1598 C 0.61237 0.61118 0.94885 0.0
C1599 C 0.62364 0.60462 0.96102 0.0
C1600 C 0.60005 0.60043 0.92971 0.0
C1601 C 0.62274 0.58739 0.95321 0.0
C1602 C 0.61066 0.57674 0.93412 0.0
C1603 C 0.58631 0.57189 0.90387 0.0
C1604 C 0.57425 0.57784 0.89257 0.0
C1605 C 0.5991 0.583 0.9224 0.0
C1606 C 0.57556 0.59538 0.89974 0.0
C1607 C 0.58835 0.60657 0.91805 0.0
H1608 H 0.01955 0.63659 0.94044 0.0
H1609 H 0.98041 0.58804 0.98318 0.0
H1610 H 0.98118 0.56579 0.95345 0.0
H1611 H 0.99405 0.56022 0.91611 0.0
H1612 H 0.03453 0.60864 0.87423 0.0
H1613 H 0.03221 0.63096 0.90262 0.0
C1614 C 0.01143 0.62113 0.94328 0.0
C1615 C 1.00055 0.61386 0.96429 0.0
C1616 C 0.01209 0.60848 0.92619 0.0
C1617 C 0.98928 0.59386 0.96736 0.0
C1618 C 0.9897 0.58118 0.95039 0.0
C1619 C 1.00228 0.57568 0.91323 0.0
C1620 C 0.0144 0.58288 0.89322 0.0
C1621 C 1.00124 0.58833 0.9299 0.0
C1622 C 0.02515 0.60287 0.88963 0.0
C1623 C 0.02378 0.61558 0.90578 0.0
H1624 H 0.41704 0.3874 0.96082 0.0
H1625 H 0.36965 0.3988 0.95674 0.0
H1626 H 0.38475 0.4205 0.9226 0.0
H1627 H 0.41199 0.4369 0.89446 0.0
H1628 H 0.45922 0.42529 0.89972 0.0
H1629 H 0.44344 0.40287 0.93263 0.0
C1630 C 0.4099 0.39455 0.95252 0.0
C1631 C 0.39222 0.39147 0.96153 0.0
C1632 C 0.41864 0.40698 0.93298 0.0
C1633 C 0.38324 0.40085 0.95027 0.0
C1634 C 0.3919 0.41331 0.93074 0.0
C1635 C 0.41882 0.42946 0.90284 0.0
C1636 C 0.43675 0.43275 0.89444 0.0
C1637 C 0.40969 0.4166 0.92205 0.0
C1638 C 0.44529 0.42283 0.90541 0.0
C1639 C 0.43634 0.4101 0.92441 0.0
H1640 H 0.6214 0.98997 0.93801 0.0
H1641 H 0.60594 0.02232 0.98608 0.0
H1642 H 0.58328 0.02224 0.95592 0.0
H1643 H 0.56683 0.01148 0.91697 0.0
H1644 H 0.58378 0.98097 0.86743 0.0
H1645 H 0.60655 0.98133 0.89736 0.0
C1646 C 0.61295 0.99689 0.94178 0.0
C1647 C 0.61462 0.0055 0.96439 0.0
C1648 C 0.60021 0.99701 0.92422 0.0
C1649 C 0.60438 0.0152 0.96892 0.0
C1650 C 0.5915 0.01516 0.95171 0.0
C1651 C 0.57573 0.00522 0.9124 0.0
C1652 C 0.57347 0.99619 0.88985 0.0
C1653 C 0.58912 0.00588 0.92943 0.0
C1654 C 0.5849 0.98776 0.88471 0.0
C1655 C 0.59811 0.98814 0.90173 0.0
H1656 H 0.5876 0.96788 0.07168 0.0
H1657 H 0.6352 0.02615 0.07192 0.0
H1658 H 0.62238 0.03355 0.10756 0.0
H1659 H 0.59671 0.02402 0.13748 0.0
H1660 H 0.54903 0.96587 0.13667 0.0
H1661 H 0.56301 0.95788 0.10279 0.0
C1662 C 0.59528 0.98219 0.07957 0.0
C1663 C 0.61231 0.99644 0.0689 0.0
C1664 C 0.58782 0.9864 0.10007 0.0
C1665 C 0.62207 0.01485 0.07962 0.0
C1666 C 0.61472 0.01914 0.10002 0.0
C1667 C 0.58942 0.00959 0.12993 0.0
C1668 C 0.57182 0.99559 0.13966 0.0
C1669 C 0.59745 0.00511 0.11019 0.0
C1670 C 0.5627 0.97688 0.12983 0.0
C1671 C 0.57061 0.97232 0.11027 0.0
H1672 H 0.03165 0.62654 0.0813 0.0
H1673 H 0.973 0.59679 0.05583 0.0
H1674 H 0.96466 0.57248 0.08746 0.0
H1675 H 0.97475 0.55844 0.12016 0.0
H1676 H 0.03284 0.59004 0.14799 0.0
H1677 H 0.0407 0.61467 0.11736 0.0
C1678 C 0.017 0.61483 0.08289 0.0
C1679 C 1.00298 0.61334 0.06623 0.0
C1680 C 0.01227 0.60109 0.10128 0.0
C1681 C 0.98401 0.59826 0.06856 0.0
C1682 C 0.97927 0.58431 0.08653 0.0
C1683 C 0.98903 0.57088 0.12001 0.0
C1684 C 0.00324 0.57196 0.13622 0.0
C1685 C 0.99338 0.58541 0.10276 0.0
C1686 C 0.0217 0.58829 0.13533 0.0
C1687 C 0.02622 0.60256 0.11792 0.0
H1688 H 0.3932 0.41563 0.05301 0.0
H1689 H 0.37585 0.36114 0.08772 0.0
H1690 H 0.39661 0.37767 0.12247 0.0
H1691 H 0.42195 0.40766 0.14126 0.0
H1692 H 0.43832 0.46224 0.10731 0.0
H1693 H 0.41598 0.44579 0.07377 0.0
C1694 C 0.39402 0.40748 0.06826 0.0
C1695 C 0.38388 0.38727 0.0675 0.0
C1696 C 0.40593 0.4171 0.08812 0.0
C1697 C 0.3843 0.37673 0.08762 0.0
C1698 C 0.39603 0.38617 0.10751 0.0
C1699 C 0.42035 0.41587 0.12663 0.0
C1700 C 0.43164 0.43603 0.12652 0.0
C1701 C 0.40733 0.40633 0.10765 0.0
C1702 C 0.4296 0.44667 0.10763 0.0
C1703 C 0.41691 0.43729 0.08849 0.0
H1704 H 0.63946 0.71433 0.39581 0.0
H1705 H 0.70106 0.74646 0.40465 0.0
H1706 H 0.6979 0.76385 0.43865 0.0
H1707 H 0.67807 0.77157 0.4643 0.0
H1708 H 0.61656 0.74113 0.45493 0.0
H1709 H 0.61922 0.72123 0.42328 0.0
C1710 C 0.65214 0.72496 0.4054 0.0
C1711 C 0.67047 0.72917 0.39751 0.0
C1712 C 0.65027 0.73529 0.42486 0.0
C1713 C 0.68678 0.74307 0.4101 0.0
C1714 C 0.68501 0.75304 0.42961 0.0
C1715 C 0.66522 0.76061 0.45532 0.0
C1716 C 0.64718 0.75804 0.46184 0.0
C1717 C 0.66688 0.74956 0.43683 0.0
C1718 C 0.63065 0.7434 0.4504 0.0
C1719 C 0.63217 0.73209 0.43214 0.0
H1720 H 0.25977 0.9448 0.39124 0.0
H1721 H 0.31314 0.96169 0.42861 0.0
H1722 H 0.29579 0.94154 0.46314 0.0
H1723 H 0.26539 0.91718 0.48131 0.0
H1724 H 0.21193 0.90087 0.44426 0.0
H1725 H 0.22923 0.92246 0.41088 0.0
C1726 C 0.26749 0.94403 0.40702 0.0
C1727 C 0.28762 0.95392 0.40717 0.0
C1728 C 0.2574 0.93239 0.42671 0.0
C1729 C 0.29761 0.95349 0.42789 0.0
C1730 C 0.2877 0.94209 0.44764 0.0
C1731 C 0.25758 0.9185 0.46598 0.0
C1732 C 0.23746 0.90746 0.46515 0.0
C1733 C 0.26761 0.93108 0.44698 0.0
C1734 C 0.22744 0.90935 0.44531 0.0
C1735 C 0.23731 0.92164 0.42621 0.0
H1736 H 0.04517 0.34333 0.42202 0.0
H1737 H 0.06229 0.31133 0.37566 0.0
H1738 H 0.08524 0.31279 0.40628 0.0
H1739 H 0.10128 0.32425 0.44561 0.0
H1740 H 0.08543 0.35759 0.49144 0.0
H1741 H 0.06105 0.35452 0.46185 0.0
C1742 C 0.05417 0.33695 0.41863 0.0
C1743 C 0.05274 0.32793 0.3964 0.0
C1744 C 0.06737 0.33795 0.43628 0.0
C1745 C 0.06365 0.31881 0.39248 0.0
C1746 C 0.07669 0.3196 0.40996 0.0
C1747 C 0.09237 0.33071 0.44911 0.0
C1748 C 0.09497 0.34103 0.47059 0.0
C1749 C 0.07882 0.3293 0.43181 0.0
C1750 C 0.08358 0.34958 0.47495 0.0
C1751 C 0.06967 0.34779 0.45809 0.0
H1752 H 0.04342 0.307 0.29293 0.0
H1753 H 0.0736 0.36908 0.28694 0.0
H1754 H 0.09142 0.3673 0.2527 0.0
H1755 H 0.1001 0.34852 0.2261 0.0
H1756 H 0.07142 0.28659 0.23276 0.0
H1757 H 0.0511 0.2879 0.26454 0.0
C1758 C 0.0537 0.3201 0.28391 0.0
C1759 C 0.05723 0.33814 0.29268 0.0
C1760 C 0.06424 0.31904 0.26432 0.0
C1761 C 0.0707 0.35499 0.2808 0.0
C1762 C 0.08092 0.35402 0.26116 0.0
C1763 C 0.08942 0.33528 0.23451 0.0
C1764 C 0.08746 0.31751 0.22718 0.0
C1765 C 0.07811 0.33617 0.25309 0.0
C1766 C 0.0732 0.30048 0.2379 0.0
C1767 C 0.06166 0.30122 0.25623 0.0
H1768 H 0.64472 0.7291 0.3017 0.0
H1769 H 0.68044 0.70844 0.271 0.0
H1770 H 0.68447 0.72732 0.23441 0.0
H1771 H 0.68027 0.75216 0.21288 0.0
H1772 H 0.64358 0.77197 0.24273 0.0
H1773 H 0.63759 0.75123 0.27809 0.0
C1774 C 0.65331 0.72877 0.28689 0.0
C1775 C 0.66306 0.71828 0.28927 0.0
C1776 C 0.65549 0.73962 0.26594 0.0
C1777 C 0.67354 0.7172 0.26979 0.0
C1778 C 0.67572 0.72785 0.24886 0.0
C1779 C 0.67073 0.75161 0.227 0.0
C1780 C 0.66235 0.76343 0.22544 0.0
C1781 C 0.66723 0.73955 0.24703 0.0
C1782 C 0.65004 0.7628 0.24369 0.0
C1783 C 0.64669 0.75104 0.26387 0.0
H1784 H 0.30067 0.93473 0.28309 0.0
H1785 H 0.26268 0.95125 0.31689 0.0
H1786 H 0.23839 0.93431 0.28553 0.0
H1787 H 0.22738 0.91335 0.25013 0.0
H1788 H 0.26698 0.90045 0.21292 0.0
H1789 H 0.29095 0.91703 0.24429 0.0
C1790 C 0.28713 0.93474 0.28336 0.0
C1791 C 0.28339 0.94414 0.30221 0.0
C1792 C 0.27342 0.9254 0.26489 0.0
C1793 C 0.26589 0.94421 0.30239 0.0
C1794 C 0.25198 0.93444 0.28456 0.0
C1795 C 0.24134 0.91447 0.24827 0.0
C1796 C 0.24493 0.90515 0.22902 0.0
C1797 C 0.25551 0.92483 0.26584 0.0
C1798 C 0.26325 0.90674 0.22774 0.0
C1799 C 0.27719 0.91647 0.24561 0.0
H1800 H 0.65921 0.92647 0.30295 0.0
H1801 H 0.69555 0.98024 0.26722 0.0
H1802 H 0.69784 0.96288 0.2321 0.0
H1803 H 0.69044 0.93223 0.21235 0.0
H1804 H 0.6537 0.87846 0.24825 0.0
H1805 H 0.65069 0.89589 0.28253 0.0
C1806 C 0.66765 0.93429 0.28744 0.0
C1807 C 0.67788 0.95449 0.28788 0.0
C1808 C 0.66885 0.9242 0.26742 0.0
C1809 C 0.68822 0.96462 0.2675 0.0
C1810 C 0.6894 0.95471 0.24741 0.0
C1811 C 0.68177 0.92437 0.22768 0.0
C1812 C 0.67226 0.90409 0.22772 0.0
C1813 C 0.68004 0.93449 0.24734 0.0
C1814 C 0.66095 0.89407 0.24764 0.0
C1815 C 0.65929 0.90401 0.2673 0.0
H1816 H 0.06867 0.708 0.27972 0.0
H1817 H 0.04931 0.74497 0.3104 0.0
H1818 H 0.06601 0.76901 0.27879 0.0
H1819 H 0.08863 0.78058 0.24486 0.0
H1820 H 0.10552 0.742 0.21238 0.0
H1821 H 0.08748 0.71768 0.24252 0.0
C1822 C 0.06788 0.72121 0.27922 0.0
C1823 C 0.0579 0.72482 0.29735 0.0
C1824 C 0.07734 0.73481 0.26096 0.0
C1825 C 0.05681 0.74187 0.29649 0.0
C1826 C 0.06649 0.75565 0.27855 0.0
C1827 C 0.08809 0.76674 0.24391 0.0
C1828 C 0.099 0.76352 0.22652 0.0
C1829 C 0.07716 0.75244 0.26097 0.0
C1830 C 0.09798 0.74536 0.22595 0.0
C1831 C 0.08747 0.73127 0.24309 0.0
H1832 H 0.28611 0.32172 0.26939 0.0
H1833 H 0.27346 0.35939 0.31136 0.0
H1834 H 0.25024 0.35728 0.28071 0.0
H1835 H 0.2324 0.34338 0.24297 0.0
H1836 H 0.24378 0.30447 0.20168 0.0
H1837 H 0.26873 0.30839 0.23087 0.0
C1838 C 0.27806 0.32924 0.27183 0.0
C1839 C 0.28078 0.34005 0.2929 0.0
C1840 C 0.26467 0.32783 0.25419 0.0
C1841 C 0.2711 0.35057 0.29549 0.0
C1842 C 0.25788 0.34938 0.27799 0.0
C1843 C 0.24047 0.33589 0.24034 0.0
C1844 C 0.23639 0.32371 0.22029 0.0
C1845 C 0.25436 0.33785 0.25745 0.0
C1846 C 0.24673 0.31389 0.21708 0.0
C1847 C 0.26098 0.31617 0.2337 0.0
H1848 H 0.26233 0.30818 0.40908 0.0
H1849 H 0.29197 0.36801 0.38796 0.0
H1850 H 0.27632 0.37577 0.4203 0.0
H1851 H 0.2524 0.36506 0.45252 0.0
H1852 H 0.22471 0.30558 0.47559 0.0
H1853 H 0.24125 0.29821 0.44435 0.0
C1854 C 0.26546 0.32294 0.4117 0.0
C1855 C 0.27815 0.33747 0.39605 0.0
C1856 C 0.25661 0.32734 0.43049 0.0
C1857 C 0.28229 0.35657 0.39983 0.0
C1858 C 0.27328 0.36101 0.41823 0.0
C1859 C 0.25024 0.35056 0.45116 0.0
C1860 C 0.23692 0.33586 0.46624 0.0
C1861 C 0.26017 0.34645 0.43345 0.0
C1862 C 0.23434 0.31713 0.46385 0.0
C1863 C 0.24394 0.31288 0.44607 0.0
H1864 H 0.65333 0.94531 0.39976 0.0
H1865 H 0.71009 0.95194 0.39398 0.0
H1866 H 0.70413 0.93112 0.4286 0.0
H1867 H 0.68267 0.90993 0.45956 0.0
H1868 H 0.62577 0.90246 0.46596 0.0
H1869 H 0.63194 0.92459 0.43213 0.0
C1870 C 0.66443 0.94228 0.40613 0.0
C1871 C 0.68211 0.95023 0.39404 0.0
C1872 C 0.66091 0.93007 0.42619 0.0
C1873 C 0.69628 0.94605 0.40267 0.0
C1874 C 0.69293 0.93411 0.42258 0.0
C1875 C 0.67172 0.9134 0.45389 0.0
C1876 C 0.65383 0.90461 0.46539 0.0
C1877 C 0.67529 0.92595 0.43437 0.0
C1878 C 0.63965 0.90895 0.45735 0.0
C1879 C 0.64318 0.92162 0.43802 0.0
H1880 H 0.06246 0.74778 0.39099 0.0
H1881 H 0.05032 0.69343 0.42222 0.0
H1882 H 0.07152 0.71013 0.45658 0.0
H1883 H 0.09472 0.74051 0.47677 0.0
H1884 H 0.10491 0.79473 0.447 0.0
H1885 H 0.08343 0.77795 0.4129 0.0
C1886 C 0.0646 0.7397 0.40533 0.0
C1887 C 0.0558 0.71956 0.40364 0.0
C1888 C 0.07647 0.7494 0.42517 0.0
C1889 C 0.05783 0.70905 0.4227 0.0
C1890 C 0.06976 0.71857 0.44241 0.0
C1891 C 0.09204 0.74854 0.46287 0.0
C1892 C 0.10127 0.76873 0.4642 0.0
C1893 C 0.07942 0.73877 0.44362 0.0
C1894 C 0.09777 0.77913 0.44626 0.0
C1895 C 0.08559 0.76956 0.42678 0.0
H1896 H 0.31968 0.04677 0.73712 0.0
H1897 H 0.37873 0.0914 0.72877 0.0
H1898 H 0.37591 0.10869 0.76309 0.0
H1899 H 0.35637 0.11233 0.79394 0.0
H1900 H 0.2974 0.06806 0.80284 0.0
H1901 H 0.30052 0.04959 0.76976 0.0
C1902 C 0.332 0.06018 0.74291 0.0
C1903 C 0.34936 0.06773 0.73016 0.0
C1904 C 0.33029 0.07025 0.76268 0.0
C1905 C 0.36513 0.08519 0.73804 0.0
C1906 C 0.36356 0.09516 0.75772 0.0
C1907 C 0.34428 0.09846 0.789 0.0
C1908 C 0.32668 0.09162 0.80089 0.0
C1909 C 0.34616 0.08796 0.76997 0.0
C1910 C 0.31106 0.07378 0.79384 0.0
C1911 C 0.31286 0.06318 0.77497 0.0
H1912 H 0.92451 0.27232 0.72894 0.0
H1913 H 0.97944 0.28439 0.75787 0.0
H1914 H 0.96372 0.26245 0.79168 0.0
H1915 H 0.93405 0.23912 0.81245 0.0
H1916 H 0.87931 0.22894 0.78487 0.0
H1917 H 0.89509 0.25062 0.75093 0.0
C1918 C 0.93294 0.26999 0.74264 0.0
C1919 C 0.95295 0.27908 0.74049 0.0
C1920 C 0.92381 0.25766 0.76215 0.0
C1921 C 0.96391 0.27673 0.75872 0.0
C1922 C 0.95495 0.26436 0.77811 0.0
C1923 C 0.92568 0.24175 0.79898 0.0
C1924 C 0.90562 0.23253 0.80098 0.0
C1925 C 0.93488 0.25454 0.77985 0.0
C1926 C 0.89481 0.23603 0.78363 0.0
C1927 C 0.9038 0.24837 0.76426 0.0
H1928 H 0.71801 0.68721 0.75081 0.0
H1929 H 0.73 0.65431 0.69929 0.0
H1930 H 0.75376 0.65366 0.72695 0.0
H1931 H 0.77197 0.66372 0.76482 0.0
H1932 H 0.75827 0.69451 0.81797 0.0
H1933 H 0.73471 0.69523 0.79033 0.0
C1934 C 0.72598 0.68004 0.74571 0.0
C1935 C 0.723 0.67149 0.72284 0.0
C1936 C 0.73931 0.67945 0.76188 0.0
C1937 C 0.7326 0.66143 0.71665 0.0
C1938 C 0.7461 0.66103 0.73244 0.0
C1939 C 0.76362 0.67027 0.77068 0.0
C1940 C 0.76704 0.67909 0.79355 0.0
C1941 C 0.74971 0.67018 0.75499 0.0
C1942 C 0.75628 0.6879 0.80038 0.0
C1943 C 0.74262 0.68814 0.78468 0.0
H1944 H 0.74128 0.70793 0.61215 0.0
H1945 H 0.70379 0.64719 0.62437 0.0
H1946 H 0.71938 0.63947 0.59183 0.0
H1947 H 0.74615 0.65016 0.56303 0.0
H1948 H 0.78311 0.7111 0.551 0.0
H1949 H 0.7653 0.71851 0.58044 0.0
C1950 C 0.73632 0.69298 0.6075 0.0
C1951 C 0.72152 0.67817 0.62086 0.0
C1952 C 0.74546 0.68868 0.58902 0.0
C1953 C 0.71512 0.65889 0.61436 0.0
C1954 C 0.72414 0.65447 0.59587 0.0
C1955 C 0.75007 0.66505 0.56649 0.0
C1956 C 0.76624 0.68005 0.55514 0.0
C1957 C 0.73969 0.66926 0.58351 0.0
C1958 C 0.77108 0.69926 0.55992 0.0
C1959 C 0.76083 0.70353 0.57667 0.0
H1960 H 0.34823 0.05174 0.60031 0.0
H1961 H 0.32412 0.0741 0.65167 0.0
H1962 H 0.326 0.09797 0.62221 0.0
H1963 H 0.33588 0.11335 0.58243 0.0
H1964 H 0.35827 0.09002 0.53001 0.0
H1965 H 0.35584 0.06563 0.5592 0.0
C1966 C 0.34353 0.06197 0.60495 0.0
C1967 C 0.33682 0.06189 0.62827 0.0
C1968 C 0.34433 0.07536 0.58776 0.0
C1969 C 0.32985 0.07443 0.63394 0.0
C1970 C 0.33088 0.08799 0.61713 0.0
C1971 C 0.34014 0.10284 0.57749 0.0
C1972 C 0.34739 0.10342 0.55438 0.0
C1973 C 0.33837 0.08877 0.59413 0.0
C1974 C 0.35268 0.08972 0.54783 0.0
C1975 C 0.35127 0.07582 0.56445 0.0
H1976 H 0.95999 0.27109 0.6127 0.0
H1977 H 0.9231 0.28472 0.65437 0.0
H1978 H 0.89755 0.26915 0.62396 0.0
H1979 H 0.88506 0.24947 0.58737 0.0
H1980 H 0.92347 0.23934 0.54317 0.0
H1981 H 0.94889 0.2554 0.57301 0.0
C1982 C 0.94643 0.27086 0.61486 0.0
C1983 C 0.94332 0.27893 0.63566 0.0
C1984 C 0.93198 0.26223 0.59711 0.0
C1985 C 0.9258 0.27871 0.63834 0.0
C1986 C 0.91117 0.26969 0.62106 0.0
C1987 C 0.89905 0.25111 0.58374 0.0
C1988 C 0.90192 0.2426 0.563 0.0
C1989 C 0.91401 0.26112 0.60055 0.0
C1990 C 0.92033 0.24492 0.55923 0.0
C1991 C 0.93507 0.25436 0.57621 0.0
H1992 H 0.34758 0.30176 0.60247 0.0
H1993 H 0.31757 0.25462 0.65185 0.0
H1994 H 0.31802 0.23205 0.62234 0.0
H1995 H 0.32818 0.22608 0.58341 0.0
H1996 H 0.3563 0.27277 0.53253 0.0
H1997 H 0.35584 0.29526 0.56195 0.0
C1998 C 0.34131 0.28655 0.6067 0.0
C1999 C 0.33325 0.27984 0.62951 0.0
C2000 C 0.34135 0.27365 0.58947 0.0
C2001 C 0.32432 0.26005 0.63456 0.0
C2002 C 0.32455 0.2472 0.61771 0.0
C2003 C 0.33389 0.24108 0.57844 0.0
C2004 C 0.34228 0.2476 0.55564 0.0
C2005 C 0.33319 0.25387 0.5952 0.0
C2006 C 0.35001 0.26728 0.54999 0.0
C2007 C 0.34959 0.28016 0.56674 0.0
H2008 H 0.71285 0.0659 0.63051 0.0
H2009 H 0.75383 0.04557 0.62711 0.0
H2010 H 0.76926 0.06641 0.59291 0.0
H2011 H 0.77296 0.09213 0.56598 0.0
H2012 H 0.73231 0.11283 0.56801 0.0
H2013 H 0.71517 0.09036 0.60075 0.0
C2014 C 0.72497 0.06584 0.62204 0.0
C2015 C 0.73222 0.05426 0.63164 0.0
C2016 C 0.73406 0.07813 0.60227 0.0
C2017 C 0.74802 0.05445 0.62042 0.0
C2018 C 0.75691 0.06639 0.60077 0.0
C2019 C 0.7601 0.09149 0.57311 0.0
C2020 C 0.75404 0.10426 0.56444 0.0
C2021 C 0.75031 0.07854 0.59184 0.0
C2022 C 0.73754 0.1034 0.57448 0.0
C2023 C 0.72764 0.09046 0.59317 0.0
H2024 H 0.94097 0.68545 0.63701 0.0
H2025 H 0.9639 0.65548 0.59663 0.0
H2026 H 0.94392 0.65334 0.56166 0.0
H2027 H 0.91847 0.65848 0.54349 0.0
H2028 H 0.89639 0.68942 0.58371 0.0
H2029 H 0.91722 0.69252 0.61794 0.0
C2030 C 0.94151 0.67846 0.6205 0.0
C2031 C 0.95311 0.66987 0.61952 0.0
C2032 C 0.93004 0.67736 0.60057 0.0
C2033 C 0.95437 0.66147 0.59792 0.0
C2034 C 0.94308 0.66037 0.57794 0.0
C2035 C 0.91835 0.66596 0.55973 0.0
C2036 C 0.90597 0.67371 0.56115 0.0
C2037 C 0.93054 0.6679 0.57923 0.0
C2038 C 0.90595 0.68349 0.58219 0.0
C2039 C 0.9178 0.68522 0.60177 0.0
H2040 H 0.9546 0.68712 0.72403 0.0
H2041 H 0.92705 0.62528 0.73161 0.0
H2042 H 0.90946 0.62673 0.7665 0.0
H2043 H 0.90081 0.64527 0.79373 0.0
H2044 H 0.92605 0.70679 0.78386 0.0
H2045 H 0.946 0.70578 0.75166 0.0
C2046 C 0.9449 0.674 0.73349 0.0
C2047 C 0.94215 0.65613 0.72519 0.0
C2048 C 0.93443 0.67486 0.75324 0.0
C2049 C 0.92936 0.63922 0.73751 0.0
C2050 C 0.9193 0.64003 0.7575 0.0
C2051 C 0.91054 0.65848 0.78448 0.0
C2052 C 0.91174 0.67606 0.79136 0.0
C2053 C 0.9215 0.65773 0.76529 0.0
C2054 C 0.9249 0.69305 0.7794 0.0
C2055 C 0.93623 0.69248 0.76072 0.0
H2056 H 0.36815 0.28359 0.73221 0.0
H2057 H 0.31206 0.27862 0.73716 0.0
H2058 H 0.30455 0.25688 0.77143 0.0
H2059 H 0.31337 0.23821 0.79911 0.0
H2060 H 0.36925 0.2429 0.79362 0.0
H2061 H 0.3774 0.266 0.76075 0.0
C2062 C 0.35431 0.27788 0.74083 0.0
C2063 C 0.3407 0.28274 0.73191 0.0
C2064 C 0.35001 0.2653 0.76051 0.0
C2065 C 0.32286 0.27517 0.74349 0.0
C2066 C 0.31851 0.26267 0.76312 0.0
C2067 C 0.32733 0.24429 0.7907 0.0
C2068 C 0.34066 0.2388 0.79884 0.0
C2069 C 0.33188 0.25746 0.77161 0.0
C2070 C 0.35879 0.24703 0.78796 0.0
C2071 C 0.36343 0.26015 0.76901 0.0
H2072 H 0.72521 0.03595 0.7606 0.0
H2073 H 0.73558 0.08466 0.71643 0.0
H2074 H 0.75675 0.1068 0.7477 0.0
H2075 H 0.77326 0.1122 0.78703 0.0
H2076 H 0.76429 0.06352 0.83039 0.0
H2077 H 0.74154 0.04138 0.80023 0.0
C2078 C 0.73238 0.05142 0.75779 0.0
C2079 C 0.72958 0.05877 0.73599 0.0
C2080 C 0.74459 0.06399 0.77579 0.0
C2081 C 0.73805 0.07878 0.73289 0.0
C2082 C 0.75008 0.0914 0.75075 0.0
C2083 C 0.76618 0.09674 0.78986 0.0
C2084 C 0.77025 0.08941 0.81084 0.0
C2085 C 0.7536 0.08416 0.77217 0.0
C2086 C 0.76125 0.06939 0.81433 0.0
C2087 C 0.74828 0.05678 0.79713 0.0
H2088 H 0.03189 0.32916 0.04615 0.0
H2089 H 0.07988 0.38421 0.02604 0.0
H2090 H 0.10183 0.37631 0.04695 0.0
H2091 H 0.10771 0.35459 0.07226 0.0
H2092 H 0.06064 0.29924 0.09219 0.0
H2093 H 0.03817 0.30636 0.06995 0.0
C2094 C 0.04715 0.33937 0.0462 0.0
C2095 C 0.05405 0.35735 0.03463 0.0
C2096 C 0.05994 0.33474 0.05833 0.0
C2097 C 0.07397 0.37031 0.03484 0.0
C2098 C 0.08664 0.36584 0.04685 0.0
C2099 C 0.09251 0.34411 0.07176 0.0
C2100 C 0.08579 0.32654 0.08404 0.0
C2101 C 0.07979 0.34825 0.0589 0.0
C2102 C 0.06614 0.31289 0.08285 0.0
C2103 C 0.0533 0.31699 0.07021 0.0
H2104 H 0.69131 0.71001 0.0493 0.0
H2105 H 0.6377 0.69714 0.01511 0.0
H2106 H 0.63971 0.72618 0.03282 0.0
H2107 H 0.65525 0.75339 0.06082 0.0
H2108 H 0.71127 0.76882 0.09042 0.0
H2109 H 0.70943 0.74036 0.07219 0.0
C2110 C 0.68026 0.71378 0.04544 0.0
C2111 C 0.66434 0.70146 0.03107 0.0
C2112 C 0.6817 0.73071 0.05528 0.0
C2113 C 0.65015 0.70651 0.02601 0.0
C2114 C 0.65122 0.72302 0.03629 0.0
C2115 C 0.66739 0.75103 0.06293 0.0
C2116 C 0.68314 0.76333 0.07783 0.0
C2117 C 0.66677 0.73504 0.05134 0.0
C2118 C 0.69847 0.75942 0.08016 0.0
C2119 C 0.69762 0.74318 0.06939 0.0
H2120 H 0.29611 0.97424 0.0471 0.0
H2121 H 0.31061 0.93234 0.02048 0.0
H2122 H 0.28235 0.90643 0.04013 0.0
H2123 H 0.25544 0.89636 0.06782 0.0
H2124 H 0.23829 0.93781 0.08941 0.0
H2125 H 0.26597 0.96319 0.06935 0.0
C2126 C 0.29284 0.95937 0.04527 0.0
C2127 C 0.3054 0.95515 0.03248 0.0
C2128 C 0.27637 0.94452 0.05619 0.0
C2129 C 0.30103 0.93588 0.03008 0.0
C2130 C 0.28497 0.9211 0.04149 0.0
C2131 C 0.25723 0.91073 0.0678 0.0
C2132 C 0.24468 0.91486 0.08109 0.0
C2133 C 0.27274 0.92531 0.05502 0.0
C2134 C 0.2479 0.93395 0.08059 0.0
C2135 C 0.26369 0.94861 0.0687 0.0
H2136 H 0.37823 0.06362 0.97426 0.0
H2137 H 0.32006 0.01991 0.98916 0.0
H2138 H 0.30805 0.03936 0.96868 0.0
H2139 H 0.3145 0.06985 0.94844 0.0
H2140 H 0.37311 0.11223 0.93237 0.0
H2141 H 0.38448 0.09229 0.95169 0.0
C2142 C 0.36289 0.05829 0.97304 0.0
C2143 C 0.35006 0.04048 0.98348 0.0
C2144 C 0.35618 0.06942 0.96122 0.0
C2145 C 0.33023 0.03361 0.98129 0.0
C2146 C 0.32338 0.04476 0.96967 0.0
C2147 C 0.32973 0.07461 0.94892 0.0
C2148 C 0.34292 0.09281 0.93943 0.0
C2149 C 0.33627 0.06284 0.95981 0.0
C2150 C 0.36262 0.09865 0.94019 0.0
C2151 C 0.36918 0.08717 0.95106 0.0
H2152 H 0.97955 0.30764 0.9554 0.0
H2153 H 0.95183 0.2965 0.02456 0.0
H2154 H 0.92644 0.26523 0.00999 0.0
H2155 H 0.9113 0.24164 0.9769 0.0
H2156 H 0.93896 0.25343 0.90763 0.0
H2157 H 0.96518 0.2837 0.92302 0.0
C2158 C 0.96807 0.29831 0.9674 0.0
C2159 C 0.96761 0.30447 0.99104 0.0
C2160 C 0.95342 0.28045 0.95883 0.0
C2161 C 0.95258 0.29215 0.00629 0.0
C2162 C 0.938 0.27428 0.99794 0.0
C2163 C 0.92305 0.25086 0.96517 0.0
C2164 C 0.9231 0.24521 0.94112 0.0
C2165 C 0.93811 0.2684 0.97411 0.0
C2166 C 0.93861 0.25724 0.92628 0.0
C2167 C 0.95359 0.27465 0.93503 0.0
H2168 H 0.69638 0.66019 0.95433 0.0
H2169 H 0.72007 0.65432 0.02193 0.0
H2170 H 0.75093 0.66433 0.00284 0.0
H2171 H 0.7704 0.67202 0.96615 0.0
H2172 H 0.74588 0.67481 0.89771 0.0
H2173 H 0.71628 0.66883 0.91765 0.0
C2174 C 0.70846 0.66149 0.96488 0.0
C2175 C 0.70606 0.6567 0.98951 0.0
C2176 C 0.72597 0.6665 0.95352 0.0
C2177 C 0.72163 0.658 0.00296 0.0
C2178 C 0.73926 0.66366 0.99203 0.0
C2179 C 0.75866 0.67161 0.95573 0.0
C2180 C 0.76028 0.6739 0.93057 0.0
C2181 C 0.74148 0.66755 0.96722 0.0
C2182 C 0.74488 0.67303 0.91713 0.0
C2183 C 0.72798 0.66962 0.92852 0.0
H2184 H 0.97931 0.68113 0.95582 0.0
H2185 H 0.94262 0.65085 0.01571 0.0
H2186 H 0.91691 0.65505 0.99801 0.0
H2187 H 0.90399 0.66544 0.96416 0.0
H2188 H 0.94077 0.69667 0.90493 0.0
H2189 H 0.96726 0.69407 0.92367 0.0
C2190 C 0.96577 0.67567 0.96513 0.0
C2191 C 0.96288 0.66557 0.98698 0.0
C2192 C 0.95098 0.67817 0.95485 0.0
C2193 C 0.94527 0.65867 0.99888 0.0
C2194 C 0.93049 0.66098 0.98871 0.0
C2195 C 0.91786 0.67174 0.95548 0.0
C2196 C 0.92043 0.68108 0.93315 0.0
C2197 C 0.93305 0.67037 0.96649 0.0
C2198 C 0.9385 0.68944 0.92217 0.0
C2199 C 0.95362 0.6879 0.93284 0.0
H2200 H 0.37773 0.31265 0.97794 0.0
H2201 H 0.3187 0.29844 0.98667 0.0
H2202 H 0.30802 0.2676 0.96603 0.0
H2203 H 0.31562 0.24423 0.94667 0.0
H2204 H 0.375 0.25986 0.93679 0.0
H2205 H 0.38528 0.29045 0.95705 0.0
C2206 C 0.36249 0.30283 0.97541 0.0
C2207 C 0.34904 0.30782 0.98406 0.0
C2208 C 0.3565 0.28528 0.96345 0.0
C2209 C 0.32938 0.29499 0.98021 0.0
C2210 C 0.32327 0.27733 0.96846 0.0
C2211 C 0.33081 0.2544 0.9487 0.0
C2212 C 0.34448 0.24949 0.9405 0.0
C2213 C 0.33672 0.27226 0.96012 0.0
C2214 C 0.36411 0.26291 0.94345 0.0
C2215 C 0.37004 0.28053 0.95488 0.0
H2216 H 0.69931 0.06225 0.99325 0.0
H2217 H 0.7093 0.01465 0.98064 0.0
H2218 H 0.74091 0.03674 0.96373 0.0
H2219 H 0.76509 0.06943 0.95167 0.0
H2220 H 0.75207 0.11591 0.95818 0.0
H2221 H 0.72266 0.09459 0.97894 0.0
C2222 C 0.70857 0.05683 0.98703 0.0
C2223 C 0.70231 0.03703 0.98847 0.0
C2224 C 0.72622 0.06945 0.97631 0.0
C2225 C 0.71405 0.02994 0.97984 0.0
C2226 C 0.73204 0.04255 0.97015 0.0
C2227 C 0.75581 0.07499 0.95718 0.0
C2228 C 0.7613 0.09458 0.95333 0.0
C2229 C 0.73818 0.06233 0.96801 0.0
C2230 C 0.7489 0.10123 0.96135 0.0
C2231 C 0.7318 0.08893 0.97304 0.0
H2232 H 0.66932 0.97253 0.06008 0.0
H2233 H 0.63413 0.93058 0.00627 0.0
H2234 H 0.64269 0.90749 0.02292 0.0
H2235 H 0.65854 0.89841 0.05393 0.0
H2236 H 0.6916 0.93893 0.11016 0.0
H2237 H 0.6859 0.96342 0.09113 0.0
C2238 C 0.66376 0.95842 0.05187 0.0
C2239 C 0.65109 0.95329 0.03199 0.0
C2240 C 0.66831 0.94489 0.062 0.0
C2241 C 0.64382 0.93488 0.02165 0.0
C2242 C 0.6487 0.92163 0.03117 0.0
C2243 C 0.66441 0.91254 0.06219 0.0
C2244 C 0.67533 0.91668 0.0836 0.0
C2245 C 0.66061 0.92634 0.0516 0.0
C2246 C 0.68326 0.93531 0.09358 0.0
C2247 C 0.67988 0.94931 0.0828 0.0
H2248 H 0.0675 0.69026 0.05334 0.0
H2249 H 0.0265 0.70896 0.03643 0.0
H2250 H 0.04685 0.73963 0.05729 0.0
H2251 H 0.07705 0.76154 0.07916 0.0
H2252 H 0.11676 0.74129 0.09722 0.0
H2253 H 0.09623 0.71096 0.07676 0.0
C2254 C 0.06296 0.70102 0.05413 0.0
C2255 C 0.04557 0.69736 0.04309 0.0
C2256 C 0.0746 0.71844 0.06623 0.0
C2257 C 0.03982 0.71139 0.04473 0.0
C2258 C 0.05149 0.72895 0.05661 0.0
C2259 C 0.08112 0.75043 0.07886 0.0
C2260 C 0.0987 0.75398 0.08942 0.0
C2261 C 0.06901 0.73269 0.06731 0.0
C2262 C 0.10367 0.73932 0.08871 0.0
C2263 C 0.09184 0.72183 0.07717 0.0
H2264 H 0.30086 0.32727 0.06957 0.0
H2265 H 0.2898 0.34976 0.00405 0.0
H2266 H 0.25837 0.34257 0.01919 0.0
H2267 H 0.23461 0.33121 0.05192 0.0
H2268 H 0.24643 0.30967 0.11777 0.0
H2269 H 0.2768 0.31496 0.10149 0.0
C2270 C 0.29152 0.33045 0.05847 0.0
C2271 C 0.29774 0.3391 0.03572 0.0
C2272 C 0.27357 0.32648 0.06739 0.0
C2273 C 0.28541 0.34311 0.02162 0.0
C2274 C 0.26744 0.33905 0.03031 0.0
C2275 C 0.24385 0.32771 0.06272 0.0
C2276 C 0.23815 0.32002 0.08605 0.0
C2277 C 0.26149 0.331 0.05333 0.0
C2278 C 0.25024 0.31533 0.09964 0.0
C2279 C 0.26772 0.31848 0.09041 0.0
H2280 H 0.73632 0.71221 0.36648 0.0
H2281 H 0.68627 0.65761 0.38257 0.0
H2282 H 0.7064 0.64763 0.40508 0.0
H2283 H 0.73828 0.65499 0.42132 0.0
H2284 H 0.78769 0.71001 0.40529 0.0
H2285 H 0.76765 0.71925 0.38168 0.0
C2286 C 0.72969 0.69807 0.3748 0.0
C2287 C 0.70972 0.68573 0.37282 0.0
C2288 C 0.74126 0.69253 0.38785 0.0
C2289 C 0.70157 0.66746 0.38379 0.0
C2290 C 0.71308 0.66174 0.3967 0.0
C2291 C 0.74462 0.66892 0.41247 0.0
C2292 C 0.76441 0.68186 0.41519 0.0
C2293 C 0.73294 0.67423 0.39899 0.0
C2294 C 0.77246 0.69992 0.40377 0.0
C2295 C 0.76102 0.70518 0.39019 0.0
H2296 H 0.348 0.03694 0.4089 0.0
H2297 H 0.33032 0.04739 0.33923 0.0
H2298 H 0.33678 0.07922 0.35264 0.0
H2299 H 0.34543 0.10327 0.385 0.0
H2300 H 0.36198 0.09221 0.45509 0.0
H2301 H 0.35826 0.06169 0.44056 0.0
C2302 C 0.3458 0.04627 0.39653 0.0
C2303 C 0.33861 0.03971 0.37311 0.0
C2304 C 0.34927 0.06448 0.40448 0.0
C2305 C 0.33581 0.05202 0.35736 0.0
C2306 C 0.33944 0.07023 0.36505 0.0
C2307 C 0.34824 0.09419 0.3971 0.0
C2308 C 0.35395 0.10009 0.42114 0.0
C2309 C 0.3458 0.07645 0.38872 0.0
C2310 C 0.3578 0.08822 0.43642 0.0
C2311 C 0.35554 0.07065 0.42818 0.0
H2312 H 0.95751 0.30803 0.38514 0.0
H2313 H 0.96707 0.26294 0.35782 0.0
H2314 H 0.93796 0.2386 0.37775 0.0
H2315 H 0.91154 0.23062 0.40546 0.0
H2316 H 0.8992 0.27543 0.42762 0.0
H2317 H 0.92799 0.29936 0.40779 0.0
C2318 C 0.953 0.29283 0.38328 0.0
C2319 C 0.96437 0.28722 0.37018 0.0
C2320 C 0.93602 0.27891 0.3943 0.0
C2321 C 0.95841 0.26754 0.36769 0.0
C2322 C 0.94187 0.25365 0.37925 0.0
C2323 C 0.91461 0.24545 0.4056 0.0
C2324 C 0.90302 0.25089 0.41888 0.0
C2325 C 0.93073 0.25921 0.39294 0.0
C2326 C 0.90797 0.27052 0.41871 0.0
C2327 C 0.9244 0.28436 0.40697 0.0
H2328 H 0.02298 0.39544 0.34558 0.0
H2329 H 0.99231 0.34836 0.29573 0.0
H2330 H 0.98226 0.36804 0.27224 0.0
H2331 H 0.98473 0.3997 0.264 0.0
H2332 H 0.01431 0.44599 0.31541 0.0
H2333 H 0.02238 0.42557 0.33993 0.0
C2334 C 0.01393 0.3894 0.3297 0.0
C2335 C 0.00858 0.37055 0.32227 0.0
C2336 C 0.00823 0.40075 0.31635 0.0
C2337 C 0.99661 0.36284 0.30186 0.0
C2338 C 0.99097 0.37413 0.28834 0.0
C2339 C 0.99264 0.40524 0.28078 0.0
C2340 C 0.99927 0.42459 0.28744 0.0
C2341 C 0.99704 0.39327 0.29513 0.0
C2342 C 0.00953 0.43141 0.30931 0.0
C2343 C 0.01404 0.41969 0.32352 0.0
H2344 H 0.64218 0.63743 0.28834 0.0
H2345 H 0.60905 0.62517 0.35342 0.0
H2346 H 0.58518 0.5939 0.33685 0.0
H2347 H 0.57281 0.57093 0.30281 0.0
H2348 H 0.60552 0.58439 0.23716 0.0
H2349 H 0.63056 0.61412 0.25521 0.0
C2350 C 0.62985 0.62786 0.29906 0.0
C2351 C 0.62739 0.63369 0.32208 0.0
C2352 C 0.61605 0.6101 0.28927 0.0
C2353 C 0.61131 0.62106 0.33566 0.0
C2354 C 0.59762 0.6032 0.32615 0.0
C2355 C 0.58539 0.58038 0.29242 0.0
C2356 C 0.58717 0.57535 0.26859 0.0
C2357 C 0.59966 0.59773 0.30278 0.0
C2358 C 0.6038 0.58766 0.25561 0.0
C2359 C 0.6181 0.60479 0.26586 0.0
H2360 H 0.36465 0.99902 0.29892 0.0
H2361 H 0.37671 0.97126 0.35827 0.0
H2362 H 0.40701 0.97831 0.34019 0.0
H2363 H 0.42934 0.99071 0.30677 0.0
H2364 H 0.41656 0.01593 0.24519 0.0
H2365 H 0.38768 0.01192 0.26501 0.0
C2366 C 0.37408 0.99478 0.30798 0.0
C2367 C 0.36843 0.98467 0.32997 0.0
C2368 C 0.39136 0.99835 0.29702 0.0
C2369 C 0.38066 0.97903 0.34135 0.0
C2370 C 0.39801 0.98303 0.331 0.0
C2371 C 0.42019 0.99519 0.29748 0.0
C2372 C 0.42515 0.00346 0.27436 0.0
C2373 C 0.40334 0.99234 0.30865 0.0
C2374 C 0.41329 0.00966 0.26306 0.0
C2375 C 0.39665 0.00725 0.27433 0.0
H2376 H 0.6204 0.99091 0.34277 0.0
H2377 H 0.65964 0.01896 0.28422 0.0
H2378 H 0.63584 0.02457 0.26359 0.0
H2379 H 0.60309 0.01907 0.26033 0.0
H2380 H 0.5638 0.99199 0.31913 0.0
H2381 H 0.58827 0.98815 0.34116 0.0
C2382 C 0.62385 0.99853 0.3257 0.0
C2383 C 0.64177 0.00438 0.31503 0.0
C2384 C 0.60996 1.00158 0.3137 0.0
C2385 C 0.64596 0.01421 0.29285 0.0
C2386 C 0.63231 0.01737 0.28094 0.0
C2387 C 0.59991 0.0127 0.27818 0.0
C2388 C 0.58145 0.00569 0.28783 0.0
C2389 C 0.61413 0.01076 0.29094 0.0
C2390 C 0.57768 0.99715 0.31089 0.0
C2391 C 0.59175 0.99508 0.32364 0.0
H2392 H 0.04647 0.64735 0.30744 0.0
H2393 H 0.98812 0.62982 0.32696 0.0
H2394 H 0.97702 0.59892 0.30625 0.0
H2395 H 0.98424 0.57642 0.28403 0.0
H2396 H 0.04268 0.59535 0.263 0.0
H2397 H 0.05336 0.62602 0.28326 0.0
C2398 C 0.03129 0.63679 0.30721 0.0
C2399 C 0.01817 0.64083 0.31895 0.0
C2400 C 0.02504 0.61921 0.29517 0.0
C2401 C 0.99853 0.62709 0.31807 0.0
C2402 C 0.99219 0.60939 0.3063 0.0
C2403 C 0.99927 0.58732 0.28357 0.0
C2404 C 0.01264 0.5833 0.27226 0.0
C2405 C 0.00536 0.60523 0.29494 0.0
C2406 C 0.03209 0.59769 0.27209 0.0
C2407 C 0.03823 0.61536 0.28351 0.0
H2408 H 0.37626 0.36073 0.30103 0.0
H2409 H 0.3657 0.40398 0.33252 0.0
H2410 H 0.39461 0.42946 0.31378 0.0
H2411 H 0.42141 0.43921 0.28646 0.0
H2412 H 0.43512 0.39641 0.25998 0.0
H2413 H 0.40619 0.37109 0.27816 0.0
C2414 C 0.38047 0.37576 0.30395 0.0
C2415 C 0.36888 0.38052 0.31798 0.0
C2416 C 0.39746 0.39041 0.29368 0.0
C2417 C 0.3745 0.4 0.32188 0.0
C2418 C 0.39095 0.41457 0.31105 0.0
C2419 C 0.41862 0.42451 0.28504 0.0
C2420 C 0.43065 0.42009 0.27116 0.0
C2421 C 0.40243 0.40993 0.29668 0.0
C2422 C 0.42603 0.40058 0.26955 0.0
C2423 C 0.4095 0.38594 0.28029 0.0
H2424 H 0.2963 0.2694 0.36452 0.0
H2425 H 0.3498 0.32106 0.38039 0.0
H2426 H 0.36131 0.30178 0.40208 0.0
H2427 H 0.35552 0.27012 0.4179 0.0
H2428 H 0.30149 0.21915 0.40203 0.0
H2429 H 0.29089 0.23837 0.37902 0.0
C2430 C 0.31053 0.27658 0.37264 0.0
C2431 C 0.32209 0.29676 0.37087 0.0
C2432 C 0.31695 0.26549 0.3852 0.0
C2433 C 0.34053 0.3056 0.38147 0.0
C2434 C 0.34712 0.29457 0.39391 0.0
C2435 C 0.34151 0.26326 0.4092 0.0
C2436 C 0.32924 0.24325 0.41185 0.0
C2437 C 0.33538 0.27449 0.39607 0.0
C2438 C 0.31108 0.23455 0.40058 0.0
C2439 C 0.30503 0.24552 0.38734 0.0
H2440 H 0.7033 0.04382 0.3715 0.0
H2441 H 0.74588 0.02579 0.37993 0.0
H2442 H 0.76572 0.05404 0.40432 0.0
H2443 H 0.77142 0.08387 0.4231 0.0
H2444 H 0.73052 0.10383 0.41343 0.0
H2445 H 0.70944 0.07463 0.39039 0.0
C2446 C 0.7169 0.04608 0.37872 0.0
C2447 C 0.72306 0.03266 0.37368 0.0
C2448 C 0.72854 0.06266 0.39269 0.0
C2449 C 0.74078 0.03589 0.38319 0.0
C2450 C 0.75217 0.05205 0.39729 0.0
C2451 C 0.75803 0.08205 0.4157 0.0
C2452 C 0.75275 0.09622 0.41982 0.0
C2453 C 0.74627 0.06556 0.40202 0.0
C2454 C 0.73497 0.09316 0.41071 0.0
C2455 C 0.72295 0.07651 0.39736 0.0
H2456 H 0.95965 0.68354 0.35412 0.0
H2457 H 0.97401 0.65569 0.41119 0.0
H2458 H 0.94513 0.64931 0.43286 0.0
H2459 H 0.91716 0.65386 0.43725 0.0
H2460 H 0.90238 0.68131 0.38006 0.0
H2461 H 0.93011 0.68581 0.35708 0.0
C2462 C 0.95631 0.67583 0.37112 0.0
C2463 C 0.96907 0.6702 0.38102 0.0
C2464 C 0.93972 0.67238 0.38371 0.0
C2465 C 0.96451 0.66025 0.40312 0.0
C2466 C 0.948 0.65664 0.41562 0.0
C2467 C 0.91976 0.66052 0.41958 0.0
C2468 C 0.90771 0.66741 0.41062 0.0
C2469 C 0.9357 0.66297 0.40632 0.0
C2470 C 0.91158 0.67622 0.38774 0.0
C2471 C 0.92739 0.67869 0.37446 0.0
H2472 H 0.40606 0.03362 0.67965 0.0
H2473 H 0.35743 0.99969 0.72512 0.0
H2474 H 0.37667 0.9895 0.74922 0.0
H2475 H 0.40814 0.99255 0.75935 0.0
H2476 H 0.45615 0.02542 0.71233 0.0
H2477 H 0.43635 0.03389 0.68715 0.0
C2478 C 0.3996 0.02385 0.6947 0.0
C2479 C 0.3804 0.01759 0.70072 0.0
C2480 C 0.41072 0.01808 0.70845 0.0
C2481 C 0.37218 0.00471 0.72007 0.0
C2482 C 0.38321 0.99898 0.73396 0.0
C2483 C 0.41422 1.00128 0.74338 0.0
C2484 C 0.43381 0.00867 0.73817 0.0
C2485 C 0.40262 0.00589 0.72861 0.0
C2486 C 0.44133 0.02002 0.71734 0.0
C2487 C 0.42997 0.02475 0.70274 0.0
H2488 H 0.98802 0.37685 0.69271 0.0
H2489 H 0.01575 0.3621 0.74957 0.0
H2490 H 0.02324 0.39169 0.77109 0.0
H2491 H 0.01995 0.42058 0.77521 0.0
H2492 H 0.9926 0.43563 0.71813 0.0
H2493 H 0.98671 0.40699 0.69552 0.0
C2494 C 0.99591 0.38022 0.70966 0.0
C2495 C 1.00123 0.36721 0.71953 0.0
C2496 C 1.00001 0.3972 0.72212 0.0
C2497 C 0.01144 0.37182 0.74154 0.0
C2498 C 0.01568 0.38872 0.75394 0.0
C2499 C 0.01299 0.41781 0.75765 0.0
C2500 C 0.00659 0.43024 0.74857 0.0
C2501 C 0.00975 0.40136 0.7446 0.0
C2502 C 0.99735 0.42617 0.72587 0.0
C2503 C 0.99409 0.40984 0.7128 0.0
H2504 H 0.62507 0.61831 0.683 0.0
H2505 H 0.64095 0.65942 0.74114 0.0
H2506 H 0.61342 0.63637 0.76436 0.0
H2507 H 0.58648 0.60366 0.76972 0.0
H2508 H 0.57025 0.56241 0.71167 0.0
H2509 H 0.59635 0.58624 0.68713 0.0
C2510 C 0.62231 0.62234 0.70056 0.0
C2511 C 0.63513 0.64056 0.71031 0.0
C2512 C 0.60656 0.60885 0.71408 0.0
C2513 C 0.63137 0.64548 0.73319 0.0
C2514 C 0.61566 0.63227 0.74656 0.0
C2515 C 0.58839 0.59993 0.75156 0.0
C2516 C 0.57646 0.58112 0.74277 0.0
C2517 C 0.60339 0.61376 0.73743 0.0
C2518 C 0.57942 0.5766 0.71921 0.0
C2519 C 0.59429 0.59029 0.70504 0.0
H2520 H 0.65803 0.70063 0.64048 0.0
H2521 H 0.70949 0.74934 0.66892 0.0
H2522 H 0.70139 0.7714 0.64845 0.0
H2523 H 0.6808 0.77721 0.62083 0.0
H2524 H 0.62907 0.72928 0.5924 0.0
H2525 H 0.63608 0.70667 0.61454 0.0
C2526 C 0.66735 0.71606 0.64241 0.0
C2527 C 0.68448 0.72319 0.65606 0.0
C2528 C 0.66265 0.72887 0.63043 0.0
C2529 C 0.69634 0.7433 0.65834 0.0
C2530 C 0.69174 0.75602 0.64663 0.0
C2531 C 0.67107 0.7618 0.61948 0.0
C2532 C 0.65458 0.75489 0.60482 0.0
C2533 C 0.67515 0.74899 0.63229 0.0
C2534 C 0.64188 0.73492 0.60359 0.0
C2535 C 0.64591 0.72201 0.61619 0.0
H2536 H 0.31004 0.97485 0.62015 0.0
H2537 H 0.27934 0.96562 0.6868 0.0
H2538 H 0.25402 0.93439 0.67188 0.0
H2539 H 0.24003 0.9103 0.63911 0.0
H2540 H 0.27072 0.92049 0.57222 0.0
H2541 H 0.29669 0.95062 0.58818 0.0
C2542 C 0.29789 0.96597 0.63153 0.0
C2543 C 0.29657 0.97261 0.65454 0.0
C2544 C 0.28335 0.94818 0.62277 0.0
C2545 C 0.28072 0.96087 0.66902 0.0
C2546 C 0.26621 0.94303 0.66047 0.0
C2547 C 0.25238 0.91915 0.62802 0.0
C2548 C 0.25339 0.91306 0.60449 0.0
C2549 C 0.26725 0.93666 0.63722 0.0
C2550 C 0.26965 0.92461 0.5905 0.0
C2551 C 0.28447 0.94195 0.59954 0.0
H2552 H 0.02402 0.29083 0.64349 0.0
H2553 H 0.03805 0.34923 0.66007 0.0
H2554 H 0.0687 0.36141 0.63923 0.0
H2555 H 0.09209 0.35523 0.61771 0.0
H2556 H 0.0768 0.29654 0.60029 0.0
H2557 H 0.04622 0.28479 0.62042 0.0
C2558 C 0.03373 0.30625 0.64259 0.0
C2559 C 0.02875 0.31907 0.65353 0.0
C2560 C 0.05123 0.31311 0.6306 0.0
C2561 C 0.04147 0.33901 0.65181 0.0
C2562 C 0.05905 0.34598 0.63997 0.0
C2563 C 0.082 0.33989 0.61808 0.0
C2564 C 0.087 0.32681 0.60779 0.0
C2565 C 0.06416 0.33314 0.62946 0.0
C2566 C 0.07367 0.30696 0.60859 0.0
C2567 C 0.05606 0.30019 0.61993 0.0
H2568 H 0.31063 0.34524 0.6215 0.0
H2569 H 0.27679 0.3187 0.68481 0.0
H2570 H 0.25102 0.32362 0.66867 0.0
H2571 H 0.23729 0.3338 0.63547 0.0
H2572 H 0.27125 0.36059 0.5724 0.0
H2573 H 0.29778 0.35733 0.58957 0.0
C2574 C 0.29771 0.34072 0.63189 0.0
C2575 C 0.29562 0.33151 0.65427 0.0
C2576 C 0.28289 0.34352 0.62246 0.0
C2577 C 0.27879 0.32582 0.66754 0.0
C2578 C 0.26399 0.32855 0.65827 0.0
C2579 C 0.25052 0.33893 0.62554 0.0
C2580 C 0.25228 0.34731 0.60265 0.0
C2581 C 0.26574 0.33707 0.63556 0.0
C2582 C 0.2696 0.35417 0.59011 0.0
C2583 C 0.28474 0.35225 0.59987 0.0
H2584 H 0.66327 0.96405 0.65919 0.0
H2585 H 0.72259 0.97754 0.65863 0.0
H2586 H 0.71392 0.94854 0.6356 0.0
H2587 H 0.69005 0.91986 0.6146 0.0
H2588 H 0.63029 0.90449 0.61665 0.0
H2589 H 0.63873 0.93386 0.63943 0.0
C2590 C 0.67428 0.96061 0.65412 0.0
C2591 C 0.69359 0.97314 0.66076 0.0
C2592 C 0.6692 0.94362 0.64085 0.0
C2593 C 0.70761 0.96829 0.65399 0.0
C2594 C 0.70269 0.95167 0.64068 0.0
C2595 C 0.67872 0.92261 0.62035 0.0
C2596 C 0.65951 0.90975 0.61383 0.0
C2597 C 0.68358 0.93927 0.63394 0.0
C2598 C 0.64525 0.91413 0.621 0.0
C2599 C 0.65004 0.93091 0.63425 0.0
H2600 H 0.04633 0.69153 0.638 0.0
H2601 H 0.03324 0.7324 0.67139 0.0
H2602 H 0.06225 0.75913 0.65437 0.0
H2603 H 0.08945 0.77056 0.62718 0.0
H2604 H 0.10541 0.72991 0.59879 0.0
H2605 H 0.07687 0.7035 0.61615 0.0
C2606 C 0.05006 0.70632 0.64184 0.0
C2607 C 0.03768 0.71004 0.65578 0.0
C2608 C 0.06701 0.72164 0.63247 0.0
C2609 C 0.04265 0.72921 0.66083 0.0
C2610 C 0.05915 0.74449 0.65094 0.0
C2611 C 0.08724 0.7561 0.62517 0.0
C2612 C 0.09972 0.75261 0.61084 0.0
C2613 C 0.07125 0.74086 0.63635 0.0
C2614 C 0.09591 0.73339 0.6086 0.0
C2615 C 0.07961 0.71811 0.61889 0.0
H2616 H 1.00302 0.64079 0.7263 0.0
H2617 H 0.97907 0.60114 0.6665 0.0
H2618 H 0.98744 0.57891 0.68628 0.0
H2619 H 0.99927 0.56951 0.72163 0.0
H2620 H 0.02139 0.60773 0.78297 0.0
H2621 H 0.01636 0.63179 0.76145 0.0
C2622 C 0.99998 0.62744 0.71747 0.0
C2623 C 0.99042 0.62262 0.69498 0.0
C2624 C 0.00435 0.61436 0.72931 0.0
C2625 C 0.98634 0.60516 0.68385 0.0
C2626 C 0.99108 0.59239 0.69517 0.0
C2627 C 1.00293 0.58307 0.73037 0.0
C2628 C 0.01048 0.58668 0.75399 0.0
C2629 C 0.99964 0.59662 0.71813 0.0
C2630 C 0.01562 0.60456 0.76476 0.0
C2631 C 0.01264 0.6183 0.75251 0.0
H2632 H 0.40508 0.37357 0.6843 0.0
H2633 H 0.35657 0.3615 0.72881 0.0
H2634 H 0.37674 0.39008 0.75337 0.0
H2635 H 0.40877 0.41714 0.76385 0.0
H2636 H 0.45652 0.43012 0.71712 0.0
H2637 H 0.43607 0.40236 0.69217 0.0
C2638 C 0.39886 0.37727 0.69926 0.0
C2639 C 0.37939 0.36532 0.70483 0.0
C2640 C 0.41049 0.39374 0.71317 0.0
C2641 C 0.37151 0.37048 0.72408 0.0
C2642 C 0.38307 0.38676 0.73822 0.0
C2643 C 0.4147 0.41416 0.74801 0.0
C2644 C 0.43442 0.42563 0.7429 0.0
C2645 C 0.40268 0.39833 0.73318 0.0
C2646 C 0.44166 0.42129 0.7222 0.0
C2647 C 0.4299 0.40547 0.70766 0.0
H2648 H 0.63019 0.0113 0.6869 0.0
H2649 H 0.65104 0.99742 0.75193 0.0
H2650 H 0.62272 0.99253 0.7735 0.0
H2651 H 0.59282 0.99397 0.7749 0.0
H2652 H 0.57076 0.00633 0.71009 0.0
H2653 H 0.59857 0.00999 0.6875 0.0
C2654 C 0.62839 0.00696 0.70569 0.0
C2655 C 0.64286 0.00489 0.71774 0.0
C2656 C 0.61189 0.00407 0.71815 0.0
C2657 C 0.64023 0.99919 0.74212 0.0
C2658 C 0.62403 0.99645 0.75458 0.0
C2659 C 0.59413 0.99741 0.75581 0.0
C2660 C 0.57995 1.00008 0.74419 0.0
C2661 C 0.60995 0.99918 0.74294 0.0
C2662 C 0.58157 0.00424 0.71938 0.0
C2663 C 0.59747 0.00636 0.7065 0.0
loop_
_geom_bond_atom_site_label_1
_geom_bond_atom_site_label_2
_geom_bond_distance
_geom_bond_site_symmetry_2
_ccdc_geom_bond_type
Mn0 O5 2.095 1_655 S
Mn0 O15 2.162 . S
Mn0 O16 2.297 1_554 S
Mn0 O24 2.385 1_554 S
Mn0 O25 2.209 1_654 S
Mn0 O26 2.094 . S
Mn1 O6 2.121 . S
Mn1 N8 2.257 1_554 S
Mn1 N17 2.282 . S
Mn1 O25 2.215 1_554 S
Mn1 O27 2.117 . S
C2 O24 1.234 1_455 S
C2 O25 1.283 . S
C3 O15 1.281 1_556 S
C3 O16 1.236 . S
C4 O26 1.253 . S
C4 O27 1.234 1_655 S
O5 Mn0 2.095 1_455 S
O5 C14 1.250 . S
O6 Mn1 2.121 . S
O6 C14 1.258 . S
C7 N8 1.326 . S
C7 C11 1.460 . S
C7 H13 0.929 . S
N8 Mn1 2.257 1_556 S
N8 C7 1.326 . S
N8 C12 1.362 . S
C9 C10 1.258 . S
C9 C12 1.431 . S
C9 C29 1.449 . S
C10 C9 1.258 . S
C10 C11 1.477 . S
C10 H30 0.931 . S
C11 C7 1.460 . S
C11 C10 1.477 . S
C11 H31 0.930 . S
C12 N8 1.362 . S
C12 C9 1.431 . S
C12 C22 1.476 . S
H13 C7 0.929 . S
C14 O5 1.250 . S
C14 O6 1.258 . S
O15 Mn0 2.162 . S
O15 C3 1.281 1_554 S
O16 Mn0 2.297 1_556 S
O16 C3 1.236 . S
N17 Mn1 2.282 . S
N17 C18 1.328 . S
N17 C22 1.318 1_554 S
C18 N17 1.328 . S
C18 C19 1.457 1_554 S
C18 H23 0.929 . S
C19 C18 1.457 1_556 S
C19 C20 1.291 . S
C19 H32 0.931 . S
C20 C19 1.291 . S
C20 C21 1.373 . S
C20 H33 0.929 . S
C21 C20 1.373 . S
C21 C22 1.396 . S
C21 C28 1.403 . S
C22 C12 1.476 . S
C22 N17 1.318 1_556 S
C22 C21 1.396 . S
H23 C18 0.929 . S
O24 Mn0 2.385 1_556 S
O24 C2 1.234 1_655 S
O25 Mn0 2.209 1_456 S
O25 Mn1 2.215 1_556 S
O25 C2 1.283 . S
O26 Mn0 2.094 . S
O26 C4 1.253 . S
O27 Mn1 2.117 . S
O27 C4 1.234 1_455 S
C28 C21 1.403 . S
C28 C29 1.399 . S
C28 H34 0.929 . S
C29 C9 1.449 . S
C29 C28 1.399 . S
C29 H35 0.930 . S
H30 C10 0.931 . S
H31 C11 0.930 . S
H32 C19 0.931 . S
H33 C20 0.929 . S
H34 C28 0.929 . S
H35 C29 0.930 . S
Mn36 O41 2.095 1_554 S
Mn36 O51 2.162 . S
Mn36 O52 2.297 . S
Mn36 O60 2.385 . S
Mn36 O61 2.209 . S
Mn36 O62 2.094 1_554 S
Mn37 O42 2.121 . S
Mn37 N44 2.257 1_556 S
Mn37 N53 2.282 1_556 S
Mn37 O61 2.215 1_556 S
Mn37 O63 2.117 . S
C38 O60 1.234 . S
C38 O61 1.283 . S
C39 O51 1.281 . S
C39 O52 1.236 . S
C40 O62 1.240 . S
C40 O63 1.264 . S
O41 Mn36 2.095 1_556 S
O41 C50 1.250 . S
O42 Mn37 2.121 . S
O42 C50 1.258 . S
C43 N44 1.326 . S
C43 C47 1.460 . S
C43 H49 0.929 . S
N44 Mn37 2.257 1_554 S
N44 C43 1.326 . S
N44 C48 1.362 . S
C45 C46 1.258 . S
C45 C48 1.431 . S
C45 C65 1.449 . S
C46 C45 1.258 . S
C46 C47 1.477 . S
C46 H66 0.931 . S
C47 C43 1.460 . S
C47 C46 1.477 . S
C47 H67 0.930 . S
C48 N44 1.362 . S
C48 C45 1.431 . S
C48 C58 1.476 . S
H49 C43 0.929 . S
C50 O41 1.250 . S
C50 O42 1.258 . S
O51 Mn36 2.162 . S
O51 C39 1.281 . S
O52 Mn36 2.297 . S
O52 C39 1.236 . S
N53 Mn37 2.282 1_554 S
N53 C54 1.328 . S
N53 C58 1.318 . S
C54 N53 1.328 . S
C54 C55 1.457 . S
C54 H59 0.929 1_554 S
C55 C54 1.457 . S
C55 C56 1.291 . S
C55 H68 0.931 . S
C56 C55 1.291 . S
C56 C57 1.373 . S
C56 H69 0.929 . S
C57 C56 1.373 . S
C57 C58 1.396 . S
C57 C64 1.403 . S
C58 C48 1.476 . S
C58 N53 1.318 . S
C58 C57 1.396 . S
H59 C54 0.929 1_556 S
O60 Mn36 2.385 . S
O60 C38 1.234 . S
O61 Mn36 2.209 . S
O61 Mn37 2.215 1_554 S
O61 C38 1.283 . S
O62 Mn36 2.094 1_556 S
O62 C40 1.240 . S
O63 Mn37 2.117 . S
O63 C40 1.264 . S
C64 C57 1.403 . S
C64 C65 1.399 . S
C64 H70 0.929 . S
C65 C45 1.449 . S
C65 C64 1.399 . S
C65 H71 0.930 . S
H66 C46 0.931 . S
H67 C47 0.930 . S
H68 C55 0.931 . S
H69 C56 0.929 . S
H70 C64 0.929 . S
H71 C65 0.930 . S
Mn72 O77 2.095 1_564 S
Mn72 O87 2.162 . S
Mn72 O88 2.297 . S
Mn72 O96 2.385 . S
Mn72 O97 2.209 1_565 S
Mn72 O98 2.094 1_554 S
Mn73 O78 2.121 1_554 S
Mn73 N80 2.257 . S
Mn73 N89 2.282 . S
Mn73 O97 2.215 . S
Mn73 O99 2.117 1_554 S
C74 O96 1.234 1_545 S
C74 O97 1.283 . S
C75 O87 1.281 . S
C75 O88 1.236 . S
C76 O98 1.240 . S
C76 O99 1.264 1_565 S
O77 Mn72 2.095 1_546 S
O77 C86 1.250 . S
O78 Mn73 2.121 1_556 S
O78 C86 1.258 . S
C79 N80 1.326 . S
C79 C83 1.460 . S
C79 H85 0.929 . S
N80 Mn73 2.257 . S
N80 C79 1.326 . S
N80 C84 1.362 . S
C81 C82 1.258 . S
C81 C84 1.431 . S
C81 C101 1.449 . S
C82 C81 1.258 . S
C82 C83 1.477 . S
C82 H102 0.931 . S
C83 C79 1.460 . S
C83 C82 1.477 . S
C83 H103 0.930 . S
C84 N80 1.362 . S
C84 C81 1.431 . S
C84 C94 1.476 . S
H85 C79 0.929 . S
C86 O77 1.250 . S
C86 O78 1.258 . S
O87 Mn72 2.162 . S
O87 C75 1.281 . S
O88 Mn72 2.297 . S
O88 C75 1.236 . S
N89 Mn73 2.282 . S
N89 C90 1.328 . S
N89 C94 1.318 . S
C90 N89 1.328 . S
C90 C91 1.457 . S
C90 H95 0.929 . S
C91 C90 1.457 . S
C91 C92 1.291 . S
C91 H104 0.931 . S
C92 C91 1.291 . S
C92 C93 1.373 . S
C92 H105 0.929 . S
C93 C92 1.373 . S
C93 C94 1.396 . S
C93 C100 1.403 . S
C94 C84 1.476 . S
C94 N89 1.318 . S
C94 C93 1.396 . S
H95 C90 0.929 . S
O96 Mn72 2.385 . S
O96 C74 1.234 1_565 S
O97 Mn72 2.209 1_545 S
O97 Mn73 2.215 . S
O97 C74 1.283 . S
O98 Mn72 2.094 1_556 S
O98 C76 1.240 . S
O99 Mn73 2.117 1_556 S
O99 C76 1.264 1_545 S
C100 C93 1.403 . S
C100 C101 1.399 . S
C100 H106 0.929 . S
C101 C81 1.449 . S
C101 C100 1.399 . S
C101 H107 0.930 . S
H102 C82 0.931 . S
H103 C83 0.930 . S
H104 C91 0.931 . S
H105 C92 0.929 . S
H106 C100 0.929 . S
H107 C101 0.930 . S
Mn108 O113 2.095 1_655 S
Mn108 O123 2.162 . S
Mn108 O124 2.297 1_554 S
Mn108 O132 2.385 1_554 S
Mn108 O133 2.209 1_654 S
Mn108 O134 2.094 . S
Mn109 O114 2.121 . S
Mn109 N116 2.257 1_554 S
Mn109 N125 2.282 . S
Mn109 O133 2.215 1_554 S
Mn109 O135 2.117 . S
C110 O132 1.234 1_455 S
C110 O133 1.283 . S
C111 O123 1.281 1_556 S
C111 O124 1.236 . S
C112 O134 1.240 . S
C112 O135 1.264 1_655 S
O113 Mn108 2.095 1_455 S
O113 C122 1.250 . S
O114 Mn109 2.121 . S
O114 C122 1.258 . S
C115 N116 1.326 . S
C115 C119 1.460 . S
C115 H121 0.929 . S
N116 Mn109 2.257 1_556 S
N116 C115 1.326 . S
N116 C120 1.362 . S
C117 C118 1.258 . S
C117 C120 1.431 . S
C117 C137 1.449 . S
C118 C117 1.258 . S
C118 C119 1.477 . S
C118 H138 0.931 . S
C119 C115 1.460 . S
C119 C118 1.477 . S
C119 H139 0.930 . S
C120 N116 1.362 . S
C120 C117 1.431 . S
C120 C130 1.476 . S
H121 C115 0.929 . S
C122 O113 1.250 . S
C122 O114 1.258 . S
O123 Mn108 2.162 . S
O123 C111 1.281 1_554 S
O124 Mn108 2.297 1_556 S
O124 C111 1.236 . S
N125 Mn109 2.282 . S
N125 C126 1.328 . S
N125 C130 1.318 1_554 S
C126 N125 1.328 . S
C126 C127 1.457 1_554 S
C126 H131 0.929 . S
C127 C126 1.457 1_556 S
C127 C128 1.291 . S
C127 H140 0.931 . S
C128 C127 1.291 . S
C128 C129 1.373 . S
C128 H141 0.929 . S
C129 C128 1.373 . S
C129 C130 1.396 . S
C129 C136 1.403 . S
C130 C120 1.476 . S
C130 N125 1.318 1_556 S
C130 C129 1.396 . S
H131 C126 0.929 . S
O132 Mn108 2.385 1_556 S
O132 C110 1.234 1_655 S
O133 Mn108 2.209 1_456 S
O133 Mn109 2.215 1_556 S
O133 C110 1.283 . S
O134 Mn108 2.094 . S
O134 C112 1.240 . S
O135 Mn109 2.117 . S
O135 C112 1.264 1_455 S
C136 C129 1.403 . S
C136 C137 1.399 . S
C136 H142 0.929 . S
C137 C117 1.449 . S
C137 C136 1.399 . S
C137 H143 0.930 . S
H138 C118 0.931 . S
H139 C119 0.930 . S
H140 C127 0.931 . S
H141 C128 0.929 . S
H142 C136 0.929 . S
H143 C137 0.930 . S
Mn144 O149 2.095 1_554 S
Mn144 O159 2.162 . S
Mn144 O160 2.297 . S
Mn144 O168 2.385 . S
Mn144 O169 2.209 . S
Mn144 O170 2.094 1_554 S
Mn145 O150 2.128 . S
Mn145 N152 2.235 1_556 S
Mn145 N161 2.269 1_556 S
Mn145 O169 2.186 1_556 S
Mn145 O171 2.140 . S
C146 O168 1.234 . S
C146 O169 1.283 . S
C147 O159 1.281 . S
C147 O160 1.236 . S
C148 O170 1.240 . S
C148 O171 1.264 . S
O149 Mn144 2.095 1_556 S
O149 C158 1.250 . S
O150 Mn145 2.128 . S
O150 C158 1.258 . S
C151 N152 1.326 . S
C151 C155 1.460 . S
C151 H157 0.929 . S
N152 Mn145 2.235 1_554 S
N152 C151 1.326 . S
N152 C156 1.362 . S
C153 C154 1.258 . S
C153 C156 1.431 . S
C153 C173 1.449 . S
C154 C153 1.258 . S
C154 C155 1.477 . S
C154 H174 0.931 . S
C155 C151 1.460 . S
C155 C154 1.477 . S
C155 H175 0.930 . S
C156 N152 1.362 . S
C156 C153 1.431 . S
C156 C166 1.476 . S
H157 C151 0.929 . S
C158 O149 1.250 . S
C158 O150 1.258 . S
O159 Mn144 2.162 . S
O159 C147 1.281 . S
O160 Mn144 2.297 . S
O160 C147 1.236 . S
N161 Mn145 2.269 1_554 S
N161 C162 1.328 . S
N161 C166 1.318 . S
C162 N161 1.328 . S
C162 C163 1.457 . S
C162 H167 0.928 . S
C163 C162 1.457 . S
C163 C164 1.291 . S
C163 H176 0.931 . S
C164 C163 1.291 . S
C164 C165 1.373 . S
C164 H177 0.929 . S
C165 C164 1.373 . S
C165 C166 1.396 . S
C165 C172 1.403 . S
C166 C156 1.476 . S
C166 N161 1.318 . S
C166 C165 1.396 . S
H167 C162 0.928 . S
O168 Mn144 2.385 . S
O168 C146 1.234 . S
O169 Mn144 2.209 . S
O169 Mn145 2.186 1_554 S
O169 C146 1.283 . S
O170 Mn144 2.094 1_556 S
O170 C148 1.240 . S
O171 Mn145 2.140 . S
O171 C148 1.264 . S
C172 C165 1.403 . S
C172 C173 1.399 . S
C172 H178 0.929 . S
C173 C153 1.449 . S
C173 C172 1.399 . S
C173 H179 0.930 . S
H174 C154 0.931 . S
H175 C155 0.930 . S
H176 C163 0.931 . S
H177 C164 0.929 . S
H178 C172 0.929 . S
H179 C173 0.930 . S
Mn180 O185 2.095 1_545 S
Mn180 O195 2.162 . S
Mn180 O196 2.297 1_554 S
Mn180 O204 2.385 1_554 S
Mn180 O205 2.209 1_544 S
Mn180 O206 2.094 . S
Mn181 O186 2.121 . S
Mn181 N188 2.257 1_554 S
Mn181 N197 2.282 . S
Mn181 O205 2.215 1_554 S
Mn181 O207 2.117 . S
C182 O204 1.186 1_565 S
C182 O205 1.330 . S
C183 O195 1.281 1_556 S
C183 O196 1.236 . S
C184 O206 1.240 . S
C184 O207 1.264 1_545 S
O185 Mn180 2.095 1_565 S
O185 C194 1.250 . S
O186 Mn181 2.121 . S
O186 C194 1.258 . S
C187 N188 1.326 . S
C187 C191 1.460 . S
C187 H193 0.929 . S
N188 Mn181 2.257 1_556 S
N188 C187 1.326 . S
N188 C192 1.362 . S
C189 C190 1.258 . S
C189 C192 1.431 . S
C189 C209 1.449 . S
C190 C189 1.258 . S
C190 C191 1.477 . S
C190 H210 0.931 . S
C191 C187 1.460 . S
C191 C190 1.477 . S
C191 H211 0.930 . S
C192 N188 1.362 . S
C192 C189 1.431 . S
C192 C202 1.476 . S
H193 C187 0.929 . S
C194 O185 1.250 . S
C194 O186 1.258 . S
O195 Mn180 2.162 . S
O195 C183 1.281 1_554 S
O196 Mn180 2.297 1_556 S
O196 C183 1.236 . S
N197 Mn181 2.282 . S
N197 C198 1.328 . S
N197 C202 1.318 1_554 S
C198 N197 1.328 . S
C198 C199 1.457 1_554 S
C198 H203 0.929 . S
C199 C198 1.457 1_556 S
C199 C200 1.291 . S
C199 H212 0.931 . S
C200 C199 1.291 . S
C200 C201 1.373 . S
C200 H213 0.929 . S
C201 C200 1.373 . S
C201 C202 1.396 . S
C201 C208 1.403 . S
C202 C192 1.476 . S
C202 N197 1.318 1_556 S
C202 C201 1.396 . S
H203 C198 0.929 . S
O204 Mn180 2.385 1_556 S
O204 C182 1.186 1_545 S
O205 Mn180 2.209 1_566 S
O205 Mn181 2.215 1_556 S
O205 C182 1.330 . S
O206 Mn180 2.094 . S
O206 C184 1.240 . S
O207 Mn181 2.117 . S
O207 C184 1.264 1_565 S
C208 C201 1.403 . S
C208 C209 1.399 . S
C208 H214 0.929 . S
C209 C189 1.449 . S
C209 C208 1.399 . S
C209 H215 0.930 . S
H210 C190 0.931 . S
H211 C191 0.930 . S
H212 C199 0.931 . S
H213 C200 0.929 . S
H214 C208 0.929 . S
H215 C209 0.930 . S
Mn216 O221 2.095 . S
Mn216 O231 2.162 . S
Mn216 O232 2.297 . S
Mn216 O240 2.385 . S
Mn216 O241 2.209 . S
Mn216 O242 2.094 . S
Mn217 O222 2.121 . S
Mn217 N224 2.257 . S
Mn217 N233 2.282 . S
Mn217 O241 2.215 . S
Mn217 O243 2.117 . S
C218 O240 1.234 . S
C218 O241 1.283 . S
C219 O231 1.281 . S
C219 O232 1.236 . S
C220 O242 1.240 . S
C220 O243 1.264 . S
O221 Mn216 2.095 . S
O221 C230 1.250 . S
O222 Mn217 2.121 . S
O222 C230 1.258 . S
C223 N224 1.326 . S
C223 C227 1.460 . S
C223 H229 0.929 . S
N224 Mn217 2.257 . S
N224 C223 1.326 . S
N224 C228 1.362 . S
C225 C226 1.258 . S
C225 C228 1.431 . S
C225 C245 1.449 . S
C226 C225 1.258 . S
C226 C227 1.477 . S
C226 H246 0.931 . S
C227 C223 1.460 . S
C227 C226 1.477 . S
C227 H247 0.930 . S
C228 N224 1.362 . S
C228 C225 1.431 . S
C228 C238 1.476 . S
H229 C223 0.929 . S
C230 O221 1.250 . S
C230 O222 1.258 . S
O231 Mn216 2.162 . S
O231 C219 1.281 . S
O232 Mn216 2.297 . S
O232 C219 1.236 . S
N233 Mn217 2.282 . S
N233 C234 1.328 . S
N233 C238 1.318 . S
C234 N233 1.328 . S
C234 C235 1.457 . S
C234 H239 0.929 . S
C235 C234 1.457 . S
C235 C236 1.291 . S
C235 H248 0.931 . S
C236 C235 1.291 . S
C236 C237 1.373 . S
C236 H249 0.929 . S
C237 C236 1.373 . S
C237 C238 1.396 . S
C237 C244 1.403 . S
C238 C228 1.476 . S
C238 N233 1.318 . S
C238 C237 1.396 . S
H239 C234 0.929 . S
O240 Mn216 2.385 . S
O240 C218 1.234 . S
O241 Mn216 2.209 . S
O241 Mn217 2.215 . S
O241 C218 1.283 . S
O242 Mn216 2.094 . S
O242 C220 1.240 . S
O243 Mn217 2.117 . S
O243 C220 1.264 . S
C244 C237 1.403 . S
C244 C245 1.399 . S
C244 H250 0.929 . S
C245 C225 1.449 . S
C245 C244 1.399 . S
C245 H251 0.930 . S
H246 C226 0.931 . S
H247 C227 0.930 . S
H248 C235 0.931 . S
H249 C236 0.929 . S
H250 C244 0.929 . S
H251 C245 0.930 . S
Mn252 O257 2.095 . S
Mn252 O267 2.162 1_565 S
Mn252 O268 2.297 1_565 S
Mn252 O276 2.385 . S
Mn252 O277 2.209 . S
Mn252 O278 2.094 . S
Mn253 O258 2.121 . S
Mn253 N260 2.257 . S
Mn253 N269 2.282 . S
Mn253 O277 2.215 . S
Mn253 O279 2.117 . S
C254 O276 1.234 . S
C254 O277 1.283 . S
C255 O267 1.281 . S
C255 O268 1.236 . S
C256 O278 1.240 . S
C256 O279 1.264 . S
O257 Mn252 2.095 . S
O257 C266 1.250 . S
O258 Mn253 2.121 . S
O258 C266 1.258 . S
C259 N260 1.326 . S
C259 C263 1.460 . S
C259 H265 0.929 . S
N260 Mn253 2.257 . S
N260 C259 1.326 . S
N260 C264 1.362 . S
C261 C262 1.258 . S
C261 C264 1.431 . S
C261 C281 1.449 . S
C262 C261 1.258 . S
C262 C263 1.477 . S
C262 H282 0.931 . S
C263 C259 1.460 . S
C263 C262 1.477 . S
C263 H283 0.930 . S
C264 N260 1.362 . S
C264 C261 1.431 . S
C264 C274 1.476 . S
H265 C259 0.929 . S
C266 O257 1.250 . S
C266 O258 1.258 . S
O267 Mn252 2.162 1_545 S
O267 C255 1.281 . S
O268 Mn252 2.297 1_545 S
O268 C255 1.236 . S
N269 Mn253 2.282 . S
N269 C270 1.328 . S
N269 C274 1.318 . S
C270 N269 1.328 . S
C270 C271 1.457 . S
C270 H275 0.929 . S
C271 C270 1.457 . S
C271 C272 1.291 . S
C271 H284 0.931 . S
C272 C271 1.291 . S
C272 C273 1.373 . S
C272 H285 0.929 . S
C273 C272 1.373 . S
C273 C274 1.396 . S
C273 C280 1.403 . S
C274 C264 1.476 . S
C274 N269 1.318 . S
C274 C273 1.396 . S
H275 C270 0.929 . S
O276 Mn252 2.385 . S
O276 C254 1.234 . S
O277 Mn252 2.209 . S
O277 Mn253 2.215 . S
O277 C254 1.283 . S
O278 Mn252 2.094 . S
O278 C256 1.240 . S
O279 Mn253 2.117 . S
O279 C256 1.264 . S
C280 C273 1.403 . S
C280 C281 1.399 . S
C280 H286 0.929 . S
C281 C261 1.449 . S
C281 C280 1.399 . S
C281 H287 0.930 . S
H282 C262 0.931 . S
H283 C263 0.930 . S
H284 C271 0.931 . S
H285 C272 0.929 . S
H286 C280 0.929 . S
H287 C281 0.930 . S
Mn288 O293 2.095 . S
Mn288 O303 2.162 1_455 S
Mn288 O304 2.297 1_455 S
Mn288 O312 2.385 . S
Mn288 O313 2.209 . S
Mn288 O314 2.094 . S
Mn289 O294 2.121 . S
Mn289 N296 2.257 . S
Mn289 N305 2.282 . S
Mn289 O313 2.215 . S
Mn289 O315 2.117 . S
C290 O312 1.234 . S
C290 O313 1.283 . S
C291 O303 1.281 . S
C291 O304 1.236 . S
C292 O314 1.240 . S
C292 O315 1.264 . S
O293 Mn288 2.095 . S
O293 C302 1.250 . S
O294 Mn289 2.121 . S
O294 C302 1.258 . S
C295 N296 1.326 . S
C295 C299 1.460 . S
C295 H301 0.929 . S
N296 Mn289 2.257 . S
N296 C295 1.326 . S
N296 C300 1.362 . S
C297 C298 1.258 . S
C297 C300 1.431 . S
C297 C317 1.449 . S
C298 C297 1.258 . S
C298 C299 1.477 . S
C298 H318 0.931 . S
C299 C295 1.460 . S
C299 C298 1.477 . S
C299 H319 0.930 . S
C300 N296 1.362 . S
C300 C297 1.431 . S
C300 C310 1.476 . S
H301 C295 0.929 . S
C302 O293 1.250 . S
C302 O294 1.258 . S
O303 Mn288 2.162 1_655 S
O303 C291 1.281 . S
O304 Mn288 2.297 1_655 S
O304 C291 1.236 . S
N305 Mn289 2.282 . S
N305 C306 1.328 . S
N305 C310 1.318 . S
C306 N305 1.328 . S
C306 C307 1.457 . S
C306 H311 0.929 . S
C307 C306 1.457 . S
C307 C308 1.291 . S
C307 H320 0.931 . S
C308 C307 1.291 . S
C308 C309 1.373 . S
C308 H321 0.929 . S
C309 C308 1.373 . S
C309 C310 1.396 . S
C309 C316 1.403 . S
C310 C300 1.476 . S
C310 N305 1.318 . S
C310 C309 1.396 . S
H311 C306 0.929 . S
O312 Mn288 2.385 . S
O312 C290 1.234 . S
O313 Mn288 2.209 . S
O313 Mn289 2.215 . S
O313 C290 1.283 . S
O314 Mn288 2.094 . S
O314 C292 1.240 . S
O315 Mn289 2.117 . S
O315 C292 1.264 . S
C316 C309 1.403 . S
C316 C317 1.399 . S
C316 H322 0.929 . S
C317 C297 1.449 . S
C317 C316 1.399 . S
C317 H323 0.930 . S
H318 C298 0.931 . S
H319 C299 0.930 . S
H320 C307 0.931 . S
H321 C308 0.929 . S
H322 C316 0.929 . S
H323 C317 0.930 . S
Mn324 O329 2.095 1_565 S
Mn324 O339 2.162 . S
Mn324 O340 2.297 . S
Mn324 O348 2.385 . S
Mn324 O349 2.209 . S
Mn324 O350 2.094 . S
Mn325 O330 2.121 1_565 S
Mn325 N332 2.257 . S
Mn325 N341 2.282 . S
Mn325 O349 2.215 . S
Mn325 O351 2.117 . S
C326 O348 1.234 . S
C326 O349 1.283 . S
C327 O339 1.281 . S
C327 O340 1.236 . S
C328 O350 1.240 . S
C328 O351 1.264 . S
O329 Mn324 2.095 1_545 S
O329 C338 1.250 . S
O330 Mn325 2.121 1_545 S
O330 C338 1.258 . S
C331 N332 1.326 1_545 S
C331 C335 1.460 . S
C331 H337 0.929 . S
N332 Mn325 2.257 . S
N332 C331 1.326 1_565 S
N332 C336 1.362 . S
C333 C334 1.258 1_565 S
C333 C336 1.431 . S
C333 C353 1.449 . S
C334 C333 1.258 1_545 S
C334 C335 1.477 . S
C334 H354 0.931 . S
C335 C331 1.460 . S
C335 C334 1.477 . S
C335 H355 0.930 . S
C336 N332 1.362 . S
C336 C333 1.431 . S
C336 C346 1.476 . S
H337 C331 0.929 . S
C338 O329 1.250 . S
C338 O330 1.258 . S
O339 Mn324 2.162 . S
O339 C327 1.281 . S
O340 Mn324 2.297 . S
O340 C327 1.236 . S
N341 Mn325 2.282 . S
N341 C342 1.328 . S
N341 C346 1.318 . S
C342 N341 1.328 . S
C342 C343 1.457 . S
C342 H347 0.929 . S
C343 C342 1.457 . S
C343 C344 1.291 . S
C343 H356 0.931 . S
C344 C343 1.291 . S
C344 C345 1.373 . S
C344 H357 0.929 . S
C345 C344 1.373 . S
C345 C346 1.396 . S
C345 C352 1.403 . S
C346 C336 1.476 . S
C346 N341 1.318 . S
C346 C345 1.396 . S
H347 C342 0.929 . S
O348 Mn324 2.385 . S
O348 C326 1.234 . S
O349 Mn324 2.209 . S
O349 Mn325 2.215 . S
O349 C326 1.283 . S
O350 Mn324 2.094 . S
O350 C328 1.240 . S
O351 Mn325 2.117 . S
O351 C328 1.264 . S
C352 C345 1.403 . S
C352 C353 1.399 . S
C352 H358 0.929 . S
C353 C333 1.449 . S
C353 C352 1.399 . S
C353 H359 0.930 . S
H354 C334 0.931 . S
H355 C335 0.930 . S
H356 C343 0.931 . S
H357 C344 0.929 . S
H358 C352 0.929 . S
H359 C353 0.930 . S
Mn360 O365 2.095 . S
Mn360 O375 2.162 1_455 S
Mn360 O376 2.297 1_455 S
Mn360 O384 2.385 . S
Mn360 O385 2.209 . S
Mn360 O386 2.094 . S
Mn361 O366 2.121 . S
Mn361 N368 2.257 . S
Mn361 N377 2.282 . S
Mn361 O385 2.215 . S
Mn361 O387 2.117 . S
C362 O384 1.234 . S
C362 O385 1.283 . S
C363 O375 1.281 . S
C363 O376 1.236 . S
C364 O386 1.240 . S
C364 O387 1.264 . S
O365 Mn360 2.095 . S
O365 C374 1.250 . S
O366 Mn361 2.121 . S
O366 C374 1.258 . S
C367 N368 1.326 . S
C367 C371 1.460 . S
C367 H373 0.929 . S
N368 Mn361 2.257 . S
N368 C367 1.326 . S
N368 C372 1.362 . S
C369 C370 1.258 . S
C369 C372 1.431 . S
C369 C389 1.449 . S
C370 C369 1.258 . S
C370 C371 1.477 . S
C370 H390 0.931 . S
C371 C367 1.460 . S
C371 C370 1.477 . S
C371 H391 0.930 . S
C372 N368 1.362 . S
C372 C369 1.431 . S
C372 C382 1.476 . S
H373 C367 0.929 . S
C374 O365 1.250 . S
C374 O366 1.258 . S
O375 Mn360 2.162 1_655 S
O375 C363 1.281 . S
O376 Mn360 2.297 1_655 S
O376 C363 1.236 . S
N377 Mn361 2.282 . S
N377 C378 1.328 . S
N377 C382 1.318 . S
C378 N377 1.328 . S
C378 C379 1.457 . S
C378 H383 0.929 . S
C379 C378 1.457 . S
C379 C380 1.291 . S
C379 H392 0.931 . S
C380 C379 1.291 . S
C380 C381 1.373 . S
C380 H393 0.929 . S
C381 C380 1.373 . S
C381 C382 1.396 . S
C381 C388 1.403 . S
C382 C372 1.476 . S
C382 N377 1.318 . S
C382 C381 1.396 . S
H383 C378 0.929 . S
O384 Mn360 2.385 . S
O384 C362 1.234 . S
O385 Mn360 2.209 . S
O385 Mn361 2.215 . S
O385 C362 1.283 . S
O386 Mn360 2.094 . S
O386 C364 1.240 . S
O387 Mn361 2.117 . S
O387 C364 1.264 . S
C388 C381 1.403 . S
C388 C389 1.399 . S
C388 H394 0.929 . S
C389 C369 1.449 . S
C389 C388 1.399 . S
C389 H395 0.930 . S
H390 C370 0.931 . S
H391 C371 0.930 . S
H392 C379 0.931 . S
H393 C380 0.929 . S
H394 C388 0.929 . S
H395 C389 0.930 . S
Mn396 O401 2.095 . S
Mn396 O411 2.162 . S
Mn396 O412 2.297 . S
Mn396 O420 2.385 . S
Mn396 O421 2.209 . S
Mn396 O422 2.094 . S
Mn397 O402 2.121 . S
Mn397 N404 2.257 . S
Mn397 N413 2.282 . S
Mn397 O421 2.215 . S
Mn397 O423 2.117 . S
C398 O420 1.234 . S
C398 O421 1.283 . S
C399 O411 1.281 . S
C399 O412 1.236 . S
C400 O422 1.240 . S
C400 O423 1.264 . S
O401 Mn396 2.095 . S
O401 C410 1.250 . S
O402 Mn397 2.121 . S
O402 C410 1.258 . S
C403 N404 1.326 . S
C403 C407 1.460 . S
C403 H409 0.929 . S
N404 Mn397 2.257 . S
N404 C403 1.326 . S
N404 C408 1.362 . S
C405 C406 1.258 . S
C405 C408 1.431 . S
C405 C425 1.449 . S
C406 C405 1.258 . S
C406 C407 1.477 . S
C406 H426 0.931 . S
C407 C403 1.460 . S
C407 C406 1.477 . S
C407 H427 0.930 . S
C408 N404 1.362 . S
C408 C405 1.431 . S
C408 C418 1.476 . S
H409 C403 0.929 . S
C410 O401 1.250 . S
C410 O402 1.258 . S
O411 Mn396 2.162 . S
O411 C399 1.281 . S
O412 Mn396 2.297 . S
O412 C399 1.236 . S
N413 Mn397 2.282 . S
N413 C414 1.328 . S
N413 C418 1.318 . S
C414 N413 1.328 . S
C414 C415 1.457 . S
C414 H419 0.929 . S
C415 C414 1.457 . S
C415 C416 1.291 . S
C415 H428 0.931 . S
C416 C415 1.291 . S
C416 C417 1.373 . S
C416 H429 0.929 . S
C417 C416 1.373 . S
C417 C418 1.396 . S
C417 C424 1.403 . S
C418 C408 1.476 . S
C418 N413 1.318 . S
C418 C417 1.396 . S
H419 C414 0.929 . S
O420 Mn396 2.385 . S
O420 C398 1.234 . S
O421 Mn396 2.209 . S
O421 Mn397 2.215 . S
O421 C398 1.283 . S
O422 Mn396 2.094 . S
O422 C400 1.240 . S
O423 Mn397 2.117 . S
O423 C400 1.264 . S
C424 C417 1.403 . S
C424 C425 1.399 . S
C424 H430 0.929 . S
C425 C405 1.449 . S
C425 C424 1.399 . S
C425 H431 0.930 . S
H426 C406 0.931 . S
H427 C407 0.930 . S
H428 C415 0.931 . S
H429 C416 0.929 . S
H430 C424 0.929 . S
H431 C425 0.930 . S
Mn432 O437 2.095 . S
Mn432 O447 2.162 1_545 S
Mn432 O448 2.297 1_545 S
Mn432 O456 2.385 . S
Mn432 O457 2.209 . S
Mn432 O458 2.094 . S
Mn433 O438 2.121 . S
Mn433 N440 2.257 . S
Mn433 N449 2.282 . S
Mn433 O457 2.215 . S
Mn433 O459 2.117 . S
C434 O456 1.234 . S
C434 O457 1.283 . S
C435 O447 1.281 . S
C435 O448 1.236 . S
C436 O458 1.240 . S
C436 O459 1.264 . S
O437 Mn432 2.095 . S
O437 C446 1.250 . S
O438 Mn433 2.121 . S
O438 C446 1.258 . S
C439 N440 1.326 . S
C439 C443 1.460 . S
C439 H445 0.929 . S
N440 Mn433 2.257 . S
N440 C439 1.326 . S
N440 C444 1.362 . S
C441 C442 1.258 . S
C441 C444 1.431 . S
C441 C461 1.449 . S
C442 C441 1.258 . S
C442 C443 1.477 . S
C442 H462 0.931 . S
C443 C439 1.460 . S
C443 C442 1.477 . S
C443 H463 0.930 . S
C444 N440 1.362 . S
C444 C441 1.431 . S
C444 C454 1.476 . S
H445 C439 0.929 . S
C446 O437 1.250 . S
C446 O438 1.258 . S
O447 Mn432 2.162 1_565 S
O447 C435 1.281 . S
O448 Mn432 2.297 1_565 S
O448 C435 1.236 . S
N449 Mn433 2.282 . S
N449 C450 1.328 . S
N449 C454 1.318 . S
C450 N449 1.328 . S
C450 C451 1.457 . S
C450 H455 0.929 . S
C451 C450 1.457 . S
C451 C452 1.291 . S
C451 H464 0.931 . S
C452 C451 1.291 . S
C452 C453 1.373 . S
C452 H465 0.929 . S
C453 C452 1.373 . S
C453 C454 1.396 . S
C453 C460 1.403 . S
C454 C444 1.476 . S
C454 N449 1.318 . S
C454 C453 1.396 . S
H455 C450 0.929 . S
O456 Mn432 2.385 . S
O456 C434 1.234 . S
O457 Mn432 2.209 . S
O457 Mn433 2.215 . S
O457 C434 1.283 . S
O458 Mn432 2.094 . S
O458 C436 1.240 . S
O459 Mn433 2.117 . S
O459 C436 1.264 . S
C460 C453 1.403 . S
C460 C461 1.399 . S
C460 H466 0.929 . S
C461 C441 1.449 . S
C461 C460 1.399 . S
C461 H467 0.930 . S
H462 C442 0.931 . S
H463 C443 0.930 . S
H464 C451 0.931 . S
H465 C452 0.929 . S
H466 C460 0.929 . S
H467 C461 0.930 . S
Mn468 O473 2.129 . S
Mn468 O483 2.162 . S
Mn468 O484 2.297 . S
Mn468 O492 2.385 . S
Mn468 O493 2.209 . S
Mn468 O494 2.094 . S
Mn469 O474 2.121 1_655 S
Mn469 N476 2.257 . S
Mn469 N485 2.282 . S
Mn469 O493 2.215 . S
Mn469 O495 2.117 . S
C470 O492 1.234 . S
C470 O493 1.283 . S
C471 O483 1.281 . S
C471 O484 1.236 . S
C472 O494 1.240 . S
C472 O495 1.264 . S
O473 Mn468 2.129 . S
O473 C482 1.210 1_655 S
O474 Mn469 2.121 1_455 S
O474 C482 1.258 . S
C475 N476 1.326 1_455 S
C475 C479 1.460 . S
C475 H481 0.929 . S
N476 Mn469 2.257 . S
N476 C475 1.326 1_655 S
N476 C480 1.362 . S
C477 C478 1.258 1_655 S
C477 C480 1.431 . S
C477 C497 1.449 . S
C478 C477 1.258 1_455 S
C478 C479 1.477 . S
C478 H498 0.931 . S
C479 C475 1.460 . S
C479 C478 1.477 . S
C479 H499 0.930 . S
C480 N476 1.362 . S
C480 C477 1.431 . S
C480 C490 1.476 . S
H481 C475 0.929 . S
C482 O473 1.210 1_455 S
C482 O474 1.258 . S
O483 Mn468 2.162 . S
O483 C471 1.281 . S
O484 Mn468 2.297 . S
O484 C471 1.236 . S
N485 Mn469 2.282 . S
N485 C486 1.328 . S
N485 C490 1.318 . S
C486 N485 1.328 . S
C486 C487 1.457 . S
C486 H491 0.929 . S
C487 C486 1.457 . S
C487 C488 1.291 . S
C487 H500 0.931 . S
C488 C487 1.291 . S
C488 C489 1.373 . S
C488 H501 0.929 . S
C489 C488 1.373 . S
C489 C490 1.396 . S
C489 C496 1.403 . S
C490 C480 1.476 . S
C490 N485 1.318 . S
C490 C489 1.396 . S
H491 C486 0.929 . S
O492 Mn468 2.385 . S
O492 C470 1.234 . S
O493 Mn468 2.209 . S
O493 Mn469 2.215 . S
O493 C470 1.283 . S
O494 Mn468 2.094 . S
O494 C472 1.240 . S
O495 Mn469 2.117 . S
O495 C472 1.264 . S
C496 C489 1.403 . S
C496 C497 1.399 . S
C496 H502 0.929 . S
C497 C477 1.449 . S
C497 C496 1.399 . S
C497 H503 0.930 . S
H498 C478 0.931 . S
H499 C479 0.930 . S
H500 C487 0.931 . S
H501 C488 0.929 . S
H502 C496 0.929 . S
H503 C497 0.930 . S
Mn504 O509 2.095 . S
Mn504 O519 2.162 . S
Mn504 O520 2.297 . S
Mn504 O528 2.385 . S
Mn504 O529 2.209 . S
Mn504 O530 2.094 . S
Mn505 O510 2.121 . S
Mn505 N512 2.257 . S
Mn505 N521 2.282 . S
Mn505 O529 2.215 . S
Mn505 O531 2.117 . S
C506 O528 1.234 . S
C506 O529 1.283 . S
C507 O519 1.281 . S
C507 O520 1.236 . S
C508 O530 1.240 . S
C508 O531 1.264 . S
O509 Mn504 2.095 . S
O509 C518 1.250 . S
O510 Mn505 2.121 . S
O510 C518 1.258 . S
C511 N512 1.326 . S
C511 C515 1.460 . S
C511 H517 0.929 . S
N512 Mn505 2.257 . S
N512 C511 1.326 . S
N512 C516 1.362 . S
C513 C514 1.258 . S
C513 C516 1.431 . S
C513 C533 1.449 . S
C514 C513 1.258 . S
C514 C515 1.477 . S
C514 H534 0.931 . S
C515 C511 1.460 . S
C515 C514 1.477 . S
C515 H535 0.930 . S
C516 N512 1.362 . S
C516 C513 1.431 . S
C516 C526 1.476 . S
H517 C511 0.929 . S
C518 O509 1.250 . S
C518 O510 1.258 . S
O519 Mn504 2.162 . S
O519 C507 1.281 . S
O520 Mn504 2.297 . S
O520 C507 1.236 . S
N521 Mn505 2.282 . S
N521 C522 1.328 . S
N521 C526 1.318 . S
C522 N521 1.328 . S
C522 C523 1.457 . S
C522 H527 0.929 . S
C523 C522 1.457 . S
C523 C524 1.291 . S
C523 H536 0.931 . S
C524 C523 1.291 . S
C524 C525 1.373 . S
C524 H537 0.929 . S
C525 C524 1.373 . S
C525 C526 1.396 . S
C525 C532 1.403 . S
C526 C516 1.476 . S
C526 N521 1.318 . S
C526 C525 1.396 . S
H527 C522 0.929 . S
O528 Mn504 2.385 . S
O528 C506 1.234 . S
O529 Mn504 2.209 . S
O529 Mn505 2.215 . S
O529 C506 1.283 . S
O530 Mn504 2.094 . S
O530 C508 1.240 . S
O531 Mn505 2.117 . S
O531 C508 1.264 . S
C532 C525 1.403 . S
C532 C533 1.399 . S
C532 H538 0.929 . S
C533 C513 1.449 . S
C533 C532 1.399 . S
C533 H539 0.930 . S
H534 C514 0.931 . S
H535 C515 0.930 . S
H536 C523 0.931 . S
H537 C524 0.929 . S
H538 C532 0.929 . S
H539 C533 0.930 . S
Mn540 O545 2.095 . S
Mn540 O555 2.162 . S
Mn540 O556 2.297 . S
Mn540 O564 2.385 . S
Mn540 O565 2.209 . S
Mn540 O566 2.094 . S
Mn541 O546 2.121 . S
Mn541 N548 2.257 . S
Mn541 N557 2.282 . S
Mn541 O565 2.215 . S
Mn541 O567 2.117 . S
C542 O564 1.234 . S
C542 O565 1.283 . S
C543 O555 1.281 . S
C543 O556 1.236 . S
C544 O566 1.240 . S
C544 O567 1.264 . S
O545 Mn540 2.095 . S
O545 C554 1.250 . S
O546 Mn541 2.121 . S
O546 C554 1.258 . S
C547 N548 1.326 . S
C547 C551 1.460 . S
C547 H553 0.929 . S
N548 Mn541 2.257 . S
N548 C547 1.326 . S
N548 C552 1.362 . S
C549 C550 1.258 . S
C549 C552 1.431 . S
C549 C569 1.449 . S
C550 C549 1.258 . S
C550 C551 1.477 . S
C550 H570 0.931 . S
C551 C547 1.460 . S
C551 C550 1.477 . S
C551 H571 0.930 . S
C552 N548 1.362 . S
C552 C549 1.431 . S
C552 C562 1.476 . S
H553 C547 0.929 . S
C554 O545 1.250 . S
C554 O546 1.258 . S
O555 Mn540 2.162 . S
O555 C543 1.281 . S
O556 Mn540 2.297 . S
O556 C543 1.236 . S
N557 Mn541 2.282 . S
N557 C558 1.328 . S
N557 C562 1.318 . S
C558 N557 1.328 . S
C558 C559 1.457 . S
C558 H563 0.929 . S
C559 C558 1.457 . S
C559 C560 1.291 . S
C559 H572 0.931 . S
C560 C559 1.291 . S
C560 C561 1.373 . S
C560 H573 0.929 . S
C561 C560 1.373 . S
C561 C562 1.396 . S
C561 C568 1.403 . S
C562 C552 1.476 . S
C562 N557 1.318 . S
C562 C561 1.396 . S
H563 C558 0.929 . S
O564 Mn540 2.385 . S
O564 C542 1.234 . S
O565 Mn540 2.209 . S
O565 Mn541 2.215 . S
O565 C542 1.283 . S
O566 Mn540 2.094 . S
O566 C544 1.240 . S
O567 Mn541 2.117 . S
O567 C544 1.264 . S
C568 C561 1.403 . S
C568 C569 1.399 . S
C568 H574 0.929 . S
C569 C549 1.449 . S
C569 C568 1.399 . S
C569 H575 0.930 . S
H570 C550 0.931 . S
H571 C551 0.930 . S
H572 C559 0.931 . S
H573 C560 0.929 . S
H574 C568 0.929 . S
H575 C569 0.930 . S
Mn576 O581 2.095 1_545 S
Mn576 O591 2.162 . S
Mn576 O592 2.297 . S
Mn576 O600 2.385 . S
Mn576 O601 2.209 . S
Mn576 O602 2.094 . S
Mn577 O582 2.121 1_545 S
Mn577 N584 2.257 . S
Mn577 N593 2.282 . S
Mn577 O601 2.215 . S
Mn577 O603 2.117 . S
C578 O600 1.234 . S
C578 O601 1.283 . S
C579 O591 1.281 . S
C579 O592 1.236 . S
C580 O602 1.240 . S
C580 O603 1.264 . S
O581 Mn576 2.095 1_565 S
O581 C590 1.250 . S
O582 Mn577 2.121 1_565 S
O582 C590 1.258 . S
C583 N584 1.326 1_565 S
C583 C587 1.460 . S
C583 H589 0.929 . S
N584 Mn577 2.257 . S
N584 C583 1.326 1_545 S
N584 C588 1.362 . S
C585 C586 1.258 1_545 S
C585 C588 1.431 . S
C585 C605 1.449 . S
C586 C585 1.258 1_565 S
C586 C587 1.477 . S
C586 H606 0.931 . S
C587 C583 1.460 . S
C587 C586 1.477 . S
C587 H607 0.930 . S
C588 N584 1.362 . S
C588 C585 1.431 . S
C588 C598 1.476 . S
H589 C583 0.929 . S
C590 O581 1.250 . S
C590 O582 1.258 . S
O591 Mn576 2.162 . S
O591 C579 1.281 . S
O592 Mn576 2.297 . S
O592 C579 1.236 . S
N593 Mn577 2.282 . S
N593 C594 1.328 . S
N593 C598 1.318 . S
C594 N593 1.328 . S
C594 C595 1.457 . S
C594 H599 0.929 . S
C595 C594 1.457 . S
C595 C596 1.291 . S
C595 H608 0.931 . S
C596 C595 1.291 . S
C596 C597 1.373 . S
C596 H609 0.929 . S
C597 C596 1.373 . S
C597 C598 1.396 . S
C597 C604 1.403 . S
C598 C588 1.476 . S
C598 N593 1.318 . S
C598 C597 1.396 . S
H599 C594 0.929 . S
O600 Mn576 2.385 . S
O600 C578 1.234 . S
O601 Mn576 2.209 . S
O601 Mn577 2.215 . S
O601 C578 1.283 . S
O602 Mn576 2.094 . S
O602 C580 1.240 . S
O603 Mn577 2.117 . S
O603 C580 1.264 . S
C604 C597 1.403 . S
C604 C605 1.399 . S
C604 H610 0.929 . S
C605 C585 1.449 . S
C605 C604 1.399 . S
C605 H611 0.930 . S
H606 C586 0.931 . S
H607 C587 0.930 . S
H608 C595 0.931 . S
H609 C596 0.929 . S
H610 C604 0.929 . S
H611 C605 0.930 . S
Mn612 O617 2.095 . S
Mn612 O627 2.162 1_655 S
Mn612 O628 2.297 1_655 S
Mn612 O636 2.385 . S
Mn612 O637 2.209 . S
Mn612 O638 2.094 . S
Mn613 O618 2.121 . S
Mn613 N620 2.257 . S
Mn613 N629 2.282 . S
Mn613 O637 2.215 . S
Mn613 O639 2.117 . S
C614 O636 1.234 . S
C614 O637 1.283 . S
C615 O627 1.281 . S
C615 O628 1.236 . S
C616 O638 1.240 . S
C616 O639 1.264 . S
O617 Mn612 2.095 . S
O617 C626 1.250 . S
O618 Mn613 2.121 . S
O618 C626 1.258 . S
C619 N620 1.326 . S
C619 C623 1.460 . S
C619 H625 0.929 . S
N620 Mn613 2.257 . S
N620 C619 1.326 . S
N620 C624 1.362 . S
C621 C622 1.258 . S
C621 C624 1.431 . S
C621 C641 1.449 . S
C622 C621 1.258 . S
C622 C623 1.477 . S
C622 H642 0.931 . S
C623 C619 1.460 . S
C623 C622 1.477 . S
C623 H643 0.930 . S
C624 N620 1.362 . S
C624 C621 1.431 . S
C624 C634 1.476 . S
H625 C619 0.929 . S
C626 O617 1.250 . S
C626 O618 1.258 . S
O627 Mn612 2.162 1_455 S
O627 C615 1.281 . S
O628 Mn612 2.297 1_455 S
O628 C615 1.236 . S
N629 Mn613 2.282 . S
N629 C630 1.328 . S
N629 C634 1.318 . S
C630 N629 1.328 . S
C630 C631 1.457 . S
C630 H635 0.929 . S
C631 C630 1.457 . S
C631 C632 1.291 . S
C631 H644 0.931 . S
C632 C631 1.291 . S
C632 C633 1.373 . S
C632 H645 0.929 . S
C633 C632 1.373 . S
C633 C634 1.396 . S
C633 C640 1.403 . S
C634 C624 1.476 . S
C634 N629 1.318 . S
C634 C633 1.396 . S
H635 C630 0.929 . S
O636 Mn612 2.385 . S
O636 C614 1.234 . S
O637 Mn612 2.209 . S
O637 Mn613 2.215 . S
O637 C614 1.283 . S
O638 Mn612 2.094 . S
O638 C616 1.240 . S
O639 Mn613 2.117 . S
O639 C616 1.264 . S
C640 C633 1.403 . S
C640 C641 1.399 . S
C640 H646 0.929 . S
C641 C621 1.449 . S
C641 C640 1.399 . S
C641 H647 0.930 . S
H642 C622 0.931 . S
H643 C623 0.930 . S
H644 C631 0.931 . S
H645 C632 0.929 . S
H646 C640 0.929 . S
H647 C641 0.930 . S
H648 C667 0.949 . S
H649 C668 0.950 . S
H650 C670 0.950 . S
H651 C671 0.950 . S
H652 C673 0.950 . S
H653 C676 0.950 . S
H654 C677 0.950 . S
H655 C679 0.951 . S
H656 C680 0.949 . S
H657 C682 0.949 . S
H658 C683 0.950 . S
H659 C685 0.950 . S
H660 C686 0.950 . S
H661 C688 0.950 . S
H662 C691 0.950 . S
H663 C692 0.950 . S
H664 C694 0.951 . S
H665 C695 0.949 . S
C666 C667 1.376 . S
C666 C671 1.386 . S
C666 C672 1.483 . S
C667 H648 0.949 . S
C667 C666 1.376 . S
C667 C668 1.397 . S
C668 H649 0.950 . S
C668 C667 1.397 . S
C668 C669 1.391 . S
C669 C668 1.391 . S
C669 C670 1.405 . S
C670 H650 0.950 . S
C670 C669 1.405 . S
C670 C671 1.367 . S
C671 H651 0.950 . S
C671 C666 1.386 . S
C671 C670 1.367 . S
C672 C666 1.483 . S
C672 C673 1.382 . S
C672 C674 1.403 . S
C673 H652 0.950 . S
C673 C672 1.382 . S
C673 C689 1.411 . S
C674 C672 1.403 . S
C674 C675 1.489 . S
C674 C688 1.411 . S
C675 C674 1.489 . S
C675 C676 1.383 . S
C675 C680 1.382 . S
C676 H653 0.950 . S
C676 C675 1.383 . S
C676 C677 1.395 . S
C677 H654 0.950 . S
C677 C676 1.395 . S
C677 C678 1.288 . S
C678 C677 1.288 . S
C678 C679 1.392 . S
C679 H655 0.951 . S
C679 C678 1.392 . S
C679 C680 1.392 . S
C680 H656 0.949 . S
C680 C675 1.382 . S
C680 C679 1.392 . S
C681 C682 1.376 . S
C681 C686 1.386 . S
C681 C687 1.483 . S
C682 H657 0.949 . S
C682 C681 1.376 . S
C682 C683 1.397 . S
C683 H658 0.950 . S
C683 C682 1.397 . S
C683 C684 1.391 . S
C684 C683 1.391 . S
C684 C685 1.405 . S
C685 H659 0.950 . S
C685 C684 1.405 . S
C685 C686 1.367 . S
C686 H660 0.950 . S
C686 C681 1.386 . S
C686 C685 1.367 . S
C687 C681 1.483 . S
C687 C688 1.382 . S
C687 C689 1.403 . S
C688 H661 0.950 . S
C688 C674 1.411 . S
C688 C687 1.382 . S
C689 C673 1.411 . S
C689 C687 1.403 . S
C689 C690 1.489 . S
C690 C689 1.489 . S
C690 C691 1.383 . S
C690 C695 1.382 . S
C691 H662 0.950 . S
C691 C690 1.383 . S
C691 C692 1.395 . S
C692 H663 0.950 . S
C692 C691 1.395 . S
C692 C693 1.288 . S
C693 C692 1.288 . S
C693 C694 1.392 . S
C694 H664 0.951 . S
C694 C693 1.392 . S
C694 C695 1.392 . S
C695 H665 0.949 . S
C695 C690 1.382 . S
C695 C694 1.392 . S
H696 C715 0.949 . S
H697 C716 0.950 . S
H698 C718 0.950 . S
H699 C719 0.950 . S
H700 C721 0.950 . S
H701 C724 0.950 . S
H702 C725 0.950 . S
H703 C727 0.951 . S
H704 C728 0.949 . S
H705 C730 0.949 . S
H706 C731 0.950 . S
H707 C733 0.950 . S
H708 C734 0.950 . S
H709 C736 0.950 . S
H710 C739 0.950 . S
H711 C740 0.950 . S
H712 C742 0.951 . S
H713 C743 0.949 . S
C714 C715 1.376 . S
C714 C719 1.386 . S
C714 C720 1.483 . S
C715 H696 0.949 . S
C715 C714 1.376 . S
C715 C716 1.397 . S
C716 H697 0.950 . S
C716 C715 1.397 . S
C716 C717 1.391 . S
C717 C716 1.391 . S
C717 C718 1.405 . S
C718 H698 0.950 . S
C718 C717 1.405 . S
C718 C719 1.367 . S
C719 H699 0.950 . S
C719 C714 1.386 . S
C719 C718 1.367 . S
C720 C714 1.483 . S
C720 C721 1.382 . S
C720 C722 1.403 . S
C721 H700 0.950 . S
C721 C720 1.382 . S
C721 C737 1.411 . S
C722 C720 1.403 . S
C722 C723 1.489 . S
C722 C736 1.411 . S
C723 C722 1.489 . S
C723 C724 1.383 . S
C723 C728 1.382 . S
C724 H701 0.950 . S
C724 C723 1.383 . S
C724 C725 1.395 . S
C725 H702 0.950 . S
C725 C724 1.395 . S
C725 C726 1.288 . S
C726 C725 1.288 . S
C726 C727 1.392 . S
C727 H703 0.951 . S
C727 C726 1.392 . S
C727 C728 1.392 . S
C728 H704 0.949 . S
C728 C723 1.382 . S
C728 C727 1.392 . S
C729 C730 1.376 . S
C729 C734 1.386 . S
C729 C735 1.483 . S
C730 H705 0.949 . S
C730 C729 1.376 . S
C730 C731 1.397 . S
C731 H706 0.950 . S
C731 C730 1.397 . S
C731 C732 1.391 . S
C732 C731 1.391 . S
C732 C733 1.405 . S
C733 H707 0.950 . S
C733 C732 1.405 . S
C733 C734 1.367 . S
C734 H708 0.950 . S
C734 C729 1.386 . S
C734 C733 1.367 . S
C735 C729 1.483 . S
C735 C736 1.382 . S
C735 C737 1.403 . S
C736 H709 0.950 . S
C736 C722 1.411 . S
C736 C735 1.382 . S
C737 C721 1.411 . S
C737 C735 1.403 . S
C737 C738 1.489 . S
C738 C737 1.489 . S
C738 C739 1.383 . S
C738 C743 1.382 . S
C739 H710 0.950 . S
C739 C738 1.383 . S
C739 C740 1.395 . S
C740 H711 0.950 . S
C740 C739 1.395 . S
C740 C741 1.288 . S
C741 C740 1.288 . S
C741 C742 1.392 . S
C742 H712 0.951 . S
C742 C741 1.392 . S
C742 C743 1.392 . S
C743 H713 0.949 . S
C743 C738 1.382 . S
C743 C742 1.392 . S
H744 C763 0.949 . S
H745 C764 0.950 . S
H746 C766 0.950 . S
H747 C767 0.950 . S
H748 C769 0.950 . S
H749 C772 0.950 . S
H750 C773 0.950 . S
H751 C775 0.951 . S
H752 C776 0.949 . S
H753 C778 0.949 . S
H754 C779 0.950 . S
H755 C781 0.950 . S
H756 C782 0.950 . S
H757 C784 0.950 . S
H758 C787 0.950 . S
H759 C788 0.950 . S
H760 C790 0.951 . S
H761 C791 0.949 . S
C762 C763 1.376 . S
C762 C767 1.386 . S
C762 C768 1.483 . S
C763 H744 0.949 . S
C763 C762 1.376 . S
C763 C764 1.397 . S
C764 H745 0.950 . S
C764 C763 1.397 . S
C764 C765 1.391 . S
C765 C764 1.391 . S
C765 C766 1.405 . S
C766 H746 0.950 . S
C766 C765 1.405 . S
C766 C767 1.367 . S
C767 H747 0.950 . S
C767 C762 1.386 . S
C767 C766 1.367 . S
C768 C762 1.483 . S
C768 C769 1.382 . S
C768 C770 1.403 . S
C769 H748 0.950 . S
C769 C768 1.382 . S
C769 C785 1.411 . S
C770 C768 1.403 . S
C770 C771 1.489 . S
C770 C784 1.411 . S
C771 C770 1.489 . S
C771 C772 1.383 . S
C771 C776 1.382 . S
C772 H749 0.950 . S
C772 C771 1.383 . S
C772 C773 1.395 . S
C773 H750 0.950 . S
C773 C772 1.395 . S
C773 C774 1.288 . S
C774 C773 1.288 . S
C774 C775 1.392 . S
C775 H751 0.951 . S
C775 C774 1.392 . S
C775 C776 1.392 . S
C776 H752 0.949 . S
C776 C771 1.382 . S
C776 C775 1.392 . S
C777 C778 1.376 . S
C777 C782 1.386 . S
C777 C783 1.483 . S
C778 H753 0.949 . S
C778 C777 1.376 . S
C778 C779 1.397 . S
C779 H754 0.950 . S
C779 C778 1.397 . S
C779 C780 1.391 . S
C780 C779 1.391 . S
C780 C781 1.405 . S
C781 H755 0.950 . S
C781 C780 1.405 . S
C781 C782 1.367 . S
C782 H756 0.950 . S
C782 C777 1.386 . S
C782 C781 1.367 . S
C783 C777 1.483 . S
C783 C784 1.382 . S
C783 C785 1.403 . S
C784 H757 0.950 . S
C784 C770 1.411 . S
C784 C783 1.382 . S
C785 C769 1.411 . S
C785 C783 1.403 . S
C785 C786 1.489 . S
C786 C785 1.489 . S
C786 C787 1.383 . S
C786 C791 1.382 . S
C787 H758 0.950 . S
C787 C786 1.383 . S
C787 C788 1.395 . S
C788 H759 0.950 . S
C788 C787 1.395 . S
C788 C789 1.288 . S
C789 C788 1.288 . S
C789 C790 1.392 . S
C790 H760 0.951 . S
C790 C789 1.392 . S
C790 C791 1.392 . S
C791 H761 0.949 . S
C791 C786 1.382 . S
C791 C790 1.392 . S
H792 C811 0.949 . S
H793 C812 0.950 . S
H794 C814 0.950 . S
H795 C815 0.950 . S
H796 C817 0.950 . S
H797 C820 0.950 . S
H798 C821 0.950 . S
H799 C823 0.951 . S
H800 C824 0.949 . S
H801 C826 0.949 . S
H802 C827 0.950 . S
H803 C829 0.950 . S
H804 C830 0.950 . S
H805 C832 0.950 . S
H806 C835 0.950 . S
H807 C836 0.950 . S
H808 C838 0.951 . S
H809 C839 0.949 . S
C810 C811 1.376 . S
C810 C815 1.386 . S
C810 C816 1.483 . S
C811 H792 0.949 . S
C811 C810 1.376 . S
C811 C812 1.397 . S
C812 H793 0.950 . S
C812 C811 1.397 . S
C812 C813 1.391 . S
C813 C812 1.391 . S
C813 C814 1.405 . S
C814 H794 0.950 . S
C814 C813 1.405 . S
C814 C815 1.367 . S
C815 H795 0.950 . S
C815 C810 1.386 . S
C815 C814 1.367 . S
C816 C810 1.483 . S
C816 C817 1.382 . S
C816 C818 1.403 . S
C817 H796 0.950 . S
C817 C816 1.382 . S
C817 C833 1.411 . S
C818 C816 1.403 . S
C818 C819 1.489 . S
C818 C832 1.411 . S
C819 C818 1.489 . S
C819 C820 1.383 . S
C819 C824 1.382 . S
C820 H797 0.950 . S
C820 C819 1.383 . S
C820 C821 1.395 . S
C821 H798 0.950 . S
C821 C820 1.395 . S
C821 C822 1.288 . S
C822 C821 1.288 . S
C822 C823 1.392 . S
C823 H799 0.951 . S
C823 C822 1.392 . S
C823 C824 1.392 . S
C824 H800 0.949 . S
C824 C819 1.382 . S
C824 C823 1.392 . S
C825 C826 1.376 . S
C825 C830 1.386 . S
C825 C831 1.483 . S
C826 H801 0.949 . S
C826 C825 1.376 . S
C826 C827 1.397 . S
C827 H802 0.950 . S
C827 C826 1.397 . S
C827 C828 1.391 . S
C828 C827 1.391 . S
C828 C829 1.405 . S
C829 H803 0.950 . S
C829 C828 1.405 . S
C829 C830 1.367 . S
C830 H804 0.950 . S
C830 C825 1.386 . S
C830 C829 1.367 . S
C831 C825 1.483 . S
C831 C832 1.382 . S
C831 C833 1.403 . S
C832 H805 0.950 . S
C832 C818 1.411 . S
C832 C831 1.382 . S
C833 C817 1.411 . S
C833 C831 1.403 . S
C833 C834 1.489 . S
C834 C833 1.489 . S
C834 C835 1.383 . S
C834 C839 1.382 . S
C835 H806 0.950 . S
C835 C834 1.383 . S
C835 C836 1.395 . S
C836 H807 0.950 . S
C836 C835 1.395 . S
C836 C837 1.288 . S
C837 C836 1.288 . S
C837 C838 1.392 . S
C838 H808 0.951 . S
C838 C837 1.392 . S
C838 C839 1.392 . S
C839 H809 0.949 . S
C839 C834 1.382 . S
C839 C838 1.392 . S
H840 C859 0.949 . S
H841 C860 0.950 . S
H842 C862 0.950 . S
H843 C863 0.950 . S
H844 C865 0.950 . S
H845 C868 0.950 . S
H846 C869 0.950 . S
H847 C871 0.951 . S
H848 C872 0.949 . S
H849 C874 0.949 . S
H850 C875 0.950 . S
H851 C877 0.950 . S
H852 C878 0.950 . S
H853 C880 0.950 . S
H854 C883 0.950 . S
H855 C884 0.950 . S
H856 C886 0.951 . S
H857 C887 0.949 . S
C858 C859 1.376 . S
C858 C863 1.386 . S
C858 C864 1.483 . S
C859 H840 0.949 . S
C859 C858 1.376 . S
C859 C860 1.397 . S
C860 H841 0.950 . S
C860 C859 1.397 . S
C860 C861 1.391 . S
C861 C860 1.391 . S
C861 C862 1.405 . S
C862 H842 0.950 . S
C862 C861 1.405 . S
C862 C863 1.367 . S
C863 H843 0.950 . S
C863 C858 1.386 . S
C863 C862 1.367 . S
C864 C858 1.483 . S
C864 C865 1.382 . S
C864 C866 1.403 . S
C865 H844 0.950 . S
C865 C864 1.382 . S
C865 C881 1.411 . S
C866 C864 1.403 . S
C866 C867 1.489 . S
C866 C880 1.411 . S
C867 C866 1.489 . S
C867 C868 1.383 . S
C867 C872 1.382 . S
C868 H845 0.950 . S
C868 C867 1.383 . S
C868 C869 1.395 . S
C869 H846 0.950 . S
C869 C868 1.395 . S
C869 C870 1.288 . S
C870 C869 1.288 . S
C870 C871 1.392 . S
C871 H847 0.951 . S
C871 C870 1.392 . S
C871 C872 1.392 . S
C872 H848 0.949 . S
C872 C867 1.382 . S
C872 C871 1.392 . S
C873 C874 1.376 . S
C873 C878 1.386 . S
C873 C879 1.483 . S
C874 H849 0.949 . S
C874 C873 1.376 . S
C874 C875 1.397 . S
C875 H850 0.950 . S
C875 C874 1.397 . S
C875 C876 1.391 . S
C876 C875 1.391 . S
C876 C877 1.405 . S
C877 H851 0.950 . S
C877 C876 1.405 . S
C877 C878 1.367 . S
C878 H852 0.950 . S
C878 C873 1.386 . S
C878 C877 1.367 . S
C879 C873 1.483 . S
C879 C880 1.382 . S
C879 C881 1.403 . S
C880 H853 0.950 . S
C880 C866 1.411 . S
C880 C879 1.382 . S
C881 C865 1.411 . S
C881 C879 1.403 . S
C881 C882 1.489 . S
C882 C881 1.489 . S
C882 C883 1.383 . S
C882 C887 1.382 . S
C883 H854 0.950 . S
C883 C882 1.383 . S
C883 C884 1.395 . S
C884 H855 0.950 . S
C884 C883 1.395 . S
C884 C885 1.288 . S
C885 C884 1.288 . S
C885 C886 1.392 . S
C886 H856 0.951 . S
C886 C885 1.392 . S
C886 C887 1.392 . S
C887 H857 0.949 . S
C887 C882 1.382 . S
C887 C886 1.392 . S
H888 C907 0.949 . S
H889 C908 0.950 . S
H890 C910 0.950 . S
H891 C911 0.950 . S
H892 C913 0.950 . S
H893 C916 0.950 . S
H894 C917 0.950 . S
H895 C919 0.951 . S
H896 C920 0.949 . S
H897 C922 0.949 . S
H898 C923 0.950 . S
H899 C925 0.950 . S
H900 C926 0.950 . S
H901 C928 0.950 . S
H902 C931 0.950 . S
H903 C932 0.950 . S
H904 C934 0.951 . S
H905 C935 0.949 . S
C906 C907 1.376 . S
C906 C911 1.386 . S
C906 C912 1.483 . S
C907 H888 0.949 . S
C907 C906 1.376 . S
C907 C908 1.397 . S
C908 H889 0.950 . S
C908 C907 1.397 . S
C908 C909 1.391 . S
C909 C908 1.391 . S
C909 C910 1.405 . S
C910 H890 0.950 . S
C910 C909 1.405 . S
C910 C911 1.367 . S
C911 H891 0.950 . S
C911 C906 1.386 . S
C911 C910 1.367 . S
C912 C906 1.483 . S
C912 C913 1.382 . S
C912 C914 1.403 . S
C913 H892 0.950 . S
C913 C912 1.382 . S
C913 C929 1.411 . S
C914 C912 1.403 . S
C914 C915 1.489 . S
C914 C928 1.411 . S
C915 C914 1.489 . S
C915 C916 1.383 . S
C915 C920 1.382 . S
C916 H893 0.950 . S
C916 C915 1.383 . S
C916 C917 1.395 . S
C917 H894 0.950 . S
C917 C916 1.395 . S
C917 C918 1.288 . S
C918 C917 1.288 . S
C918 C919 1.392 . S
C919 H895 0.951 . S
C919 C918 1.392 . S
C919 C920 1.392 . S
C920 H896 0.949 . S
C920 C915 1.382 . S
C920 C919 1.392 . S
C921 C922 1.376 . S
C921 C926 1.386 . S
C921 C927 1.483 . S
C922 H897 0.949 . S
C922 C921 1.376 . S
C922 C923 1.397 . S
C923 H898 0.950 . S
C923 C922 1.397 . S
C923 C924 1.391 . S
C924 C923 1.391 . S
C924 C925 1.405 . S
C925 H899 0.950 . S
C925 C924 1.405 . S
C925 C926 1.367 . S
C926 H900 0.950 . S
C926 C921 1.386 . S
C926 C925 1.367 . S
C927 C921 1.483 . S
C927 C928 1.382 . S
C927 C929 1.403 . S
C928 H901 0.950 . S
C928 C914 1.411 . S
C928 C927 1.382 . S
C929 C913 1.411 . S
C929 C927 1.403 . S
C929 C930 1.489 . S
C930 C929 1.489 . S
C930 C931 1.383 . S
C930 C935 1.382 . S
C931 H902 0.950 . S
C931 C930 1.383 . S
C931 C932 1.395 . S
C932 H903 0.950 . S
C932 C931 1.395 . S
C932 C933 1.288 . S
C933 C932 1.288 . S
C933 C934 1.392 . S
C934 H904 0.951 . S
C934 C933 1.392 . S
C934 C935 1.392 . S
C935 H905 0.949 . S
C935 C930 1.382 . S
C935 C934 1.392 . S
H936 C955 0.949 . S
H937 C956 0.950 . S
H938 C958 0.950 . S
H939 C959 0.950 . S
H940 C961 0.950 . S
H941 C964 0.950 . S
H942 C965 0.950 . S
H943 C967 0.951 . S
H944 C968 0.949 . S
H945 C970 0.949 . S
H946 C971 0.950 . S
H947 C973 0.950 . S
H948 C974 0.950 . S
H949 C976 0.950 . S
H950 C979 0.950 . S
H951 C980 0.950 . S
H952 C982 0.951 . S
H953 C983 0.949 . S
C954 C955 1.376 . S
C954 C959 1.386 . S
C954 C960 1.483 . S
C955 H936 0.949 . S
C955 C954 1.376 . S
C955 C956 1.397 . S
C956 H937 0.950 . S
C956 C955 1.397 . S
C956 C957 1.391 . S
C957 C956 1.391 . S
C957 C958 1.405 . S
C958 H938 0.950 . S
C958 C957 1.405 . S
C958 C959 1.367 . S
C959 H939 0.950 . S
C959 C954 1.386 . S
C959 C958 1.367 . S
C960 C954 1.483 . S
C960 C961 1.382 . S
C960 C962 1.403 . S
C961 H940 0.950 . S
C961 C960 1.382 . S
C961 C977 1.411 . S
C962 C960 1.403 . S
C962 C963 1.489 . S
C962 C976 1.411 . S
C963 C962 1.489 . S
C963 C964 1.383 . S
C963 C968 1.382 . S
C964 H941 0.950 . S
C964 C963 1.383 . S
C964 C965 1.395 . S
C965 H942 0.950 . S
C965 C964 1.395 . S
C965 C966 1.288 . S
C966 C965 1.288 . S
C966 C967 1.392 . S
C967 H943 0.951 . S
C967 C966 1.392 . S
C967 C968 1.392 . S
C968 H944 0.949 . S
C968 C963 1.382 . S
C968 C967 1.392 . S
C969 C970 1.376 . S
C969 C974 1.386 . S
C969 C975 1.483 . S
C970 H945 0.949 . S
C970 C969 1.376 . S
C970 C971 1.397 . S
C971 H946 0.950 . S
C971 C970 1.397 . S
C971 C972 1.391 . S
C972 C971 1.391 . S
C972 C973 1.405 . S
C973 H947 0.950 . S
C973 C972 1.405 . S
C973 C974 1.367 . S
C974 H948 0.950 . S
C974 C969 1.386 . S
C974 C973 1.367 . S
C975 C969 1.483 . S
C975 C976 1.382 . S
C975 C977 1.403 . S
C976 H949 0.950 . S
C976 C962 1.411 . S
C976 C975 1.382 . S
C977 C961 1.411 . S
C977 C975 1.403 . S
C977 C978 1.489 . S
C978 C977 1.489 . S
C978 C979 1.383 . S
C978 C983 1.382 . S
C979 H950 0.950 . S
C979 C978 1.383 . S
C979 C980 1.395 . S
C980 H951 0.950 . S
C980 C979 1.395 . S
C980 C981 1.288 . S
C981 C980 1.288 . S
C981 C982 1.392 . S
C982 H952 0.951 . S
C982 C981 1.392 . S
C982 C983 1.392 . S
C983 H953 0.949 . S
C983 C978 1.382 . S
C983 C982 1.392 . S
H984 C1003 0.949 . S
H985 C1004 0.950 . S
H986 C1006 0.950 . S
H987 C1007 0.950 . S
H988 C1009 0.950 . S
H989 C1012 0.950 . S
H990 C1013 0.950 . S
H991 C1015 0.951 . S
H992 C1016 0.949 . S
H993 C1018 0.949 . S
H994 C1019 0.950 . S
H995 C1021 0.950 . S
H996 C1022 0.950 . S
H997 C1024 0.950 . S
H998 C1027 0.950 . S
H999 C1028 0.950 . S
H1000 C1030 0.951 . S
H1001 C1031 0.949 . S
C1002 C1003 1.376 . S
C1002 C1007 1.386 . S
C1002 C1008 1.483 . S
C1003 H984 0.949 . S
C1003 C1002 1.376 . S
C1003 C1004 1.397 . S
C1004 H985 0.950 . S
C1004 C1003 1.397 . S
C1004 C1005 1.391 . S
C1005 C1004 1.391 . S
C1005 C1006 1.405 . S
C1006 H986 0.950 . S
C1006 C1005 1.405 . S
C1006 C1007 1.367 . S
C1007 H987 0.950 . S
C1007 C1002 1.386 . S
C1007 C1006 1.367 . S
C1008 C1002 1.483 . S
C1008 C1009 1.382 . S
C1008 C1010 1.403 . S
C1009 H988 0.950 . S
C1009 C1008 1.382 . S
C1009 C1025 1.411 . S
C1010 C1008 1.403 . S
C1010 C1011 1.489 . S
C1010 C1024 1.411 . S
C1011 C1010 1.489 . S
C1011 C1012 1.383 . S
C1011 C1016 1.382 . S
C1012 H989 0.950 . S
C1012 C1011 1.383 . S
C1012 C1013 1.395 . S
C1013 H990 0.950 . S
C1013 C1012 1.395 . S
C1013 C1014 1.288 . S
C1014 C1013 1.288 . S
C1014 C1015 1.392 . S
C1015 H991 0.951 . S
C1015 C1014 1.392 . S
C1015 C1016 1.392 . S
C1016 H992 0.949 . S
C1016 C1011 1.382 . S
C1016 C1015 1.392 . S
C1017 C1018 1.376 . S
C1017 C1022 1.386 . S
C1017 C1023 1.483 . S
C1018 H993 0.949 . S
C1018 C1017 1.376 . S
C1018 C1019 1.397 . S
C1019 H994 0.950 . S
C1019 C1018 1.397 . S
C1019 C1020 1.391 . S
C1020 C1019 1.391 . S
C1020 C1021 1.405 . S
C1021 H995 0.950 . S
C1021 C1020 1.405 . S
C1021 C1022 1.367 . S
C1022 H996 0.950 . S
C1022 C1017 1.386 . S
C1022 C1021 1.367 . S
C1023 C1017 1.483 . S
C1023 C1024 1.382 . S
C1023 C1025 1.403 . S
C1024 H997 0.950 . S
C1024 C1010 1.411 . S
C1024 C1023 1.382 . S
C1025 C1009 1.411 . S
C1025 C1023 1.403 . S
C1025 C1026 1.489 . S
C1026 C1025 1.489 . S
C1026 C1027 1.383 . S
C1026 C1031 1.382 . S
C1027 H998 0.950 . S
C1027 C1026 1.383 . S
C1027 C1028 1.395 . S
C1028 H999 0.950 . S
C1028 C1027 1.395 . S
C1028 C1029 1.288 . S
C1029 C1028 1.288 . S
C1029 C1030 1.392 . S
C1030 H1000 0.951 . S
C1030 C1029 1.392 . S
C1030 C1031 1.392 . S
C1031 H1001 0.949 . S
C1031 C1026 1.382 . S
C1031 C1030 1.392 . S
H1032 C1051 0.949 . S
H1033 C1052 0.950 . S
H1034 C1054 0.950 . S
H1035 C1055 0.950 . S
H1036 C1057 0.950 . S
H1037 C1060 0.950 . S
H1038 C1061 0.950 . S
H1039 C1063 0.951 . S
H1040 C1064 0.949 . S
H1041 C1066 0.949 . S
H1042 C1067 0.950 . S
H1043 C1069 0.950 . S
H1044 C1070 0.950 . S
H1045 C1072 0.950 . S
H1046 C1075 0.950 . S
H1047 C1076 0.950 . S
H1048 C1078 0.951 . S
H1049 C1079 0.949 . S
C1050 C1051 1.376 . S
C1050 C1055 1.386 . S
C1050 C1056 1.483 . S
C1051 H1032 0.949 . S
C1051 C1050 1.376 . S
C1051 C1052 1.397 . S
C1052 H1033 0.950 . S
C1052 C1051 1.397 . S
C1052 C1053 1.391 . S
C1053 C1052 1.391 . S
C1053 C1054 1.405 . S
C1054 H1034 0.950 . S
C1054 C1053 1.405 . S
C1054 C1055 1.367 . S
C1055 H1035 0.950 . S
C1055 C1050 1.386 . S
C1055 C1054 1.367 . S
C1056 C1050 1.483 . S
C1056 C1057 1.382 . S
C1056 C1058 1.403 . S
C1057 H1036 0.950 . S
C1057 C1056 1.382 . S
C1057 C1073 1.411 . S
C1058 C1056 1.403 . S
C1058 C1059 1.489 . S
C1058 C1072 1.411 . S
C1059 C1058 1.489 . S
C1059 C1060 1.383 . S
C1059 C1064 1.382 . S
C1060 H1037 0.950 . S
C1060 C1059 1.383 . S
C1060 C1061 1.395 . S
C1061 H1038 0.950 . S
C1061 C1060 1.395 . S
C1061 C1062 1.288 . S
C1062 C1061 1.288 . S
C1062 C1063 1.392 . S
C1063 H1039 0.951 . S
C1063 C1062 1.392 . S
C1063 C1064 1.392 . S
C1064 H1040 0.949 . S
C1064 C1059 1.382 . S
C1064 C1063 1.392 . S
C1065 C1066 1.376 . S
C1065 C1070 1.386 . S
C1065 C1071 1.483 . S
C1066 H1041 0.949 . S
C1066 C1065 1.376 . S
C1066 C1067 1.397 . S
C1067 H1042 0.950 . S
C1067 C1066 1.397 . S
C1067 C1068 1.391 . S
C1068 C1067 1.391 . S
C1068 C1069 1.405 . S
C1069 H1043 0.950 . S
C1069 C1068 1.405 . S
C1069 C1070 1.367 . S
C1070 H1044 0.950 . S
C1070 C1065 1.386 . S
C1070 C1069 1.367 . S
C1071 C1065 1.483 . S
C1071 C1072 1.382 . S
C1071 C1073 1.403 . S
C1072 H1045 0.950 . S
C1072 C1058 1.411 . S
C1072 C1071 1.382 . S
C1073 C1057 1.411 . S
C1073 C1071 1.403 . S
C1073 C1074 1.489 . S
C1074 C1073 1.489 . S
C1074 C1075 1.383 . S
C1074 C1079 1.382 . S
C1075 H1046 0.950 . S
C1075 C1074 1.383 . S
C1075 C1076 1.395 . S
C1076 H1047 0.950 . S
C1076 C1075 1.395 . S
C1076 C1077 1.288 . S
C1077 C1076 1.288 . S
C1077 C1078 1.392 . S
C1078 H1048 0.951 . S
C1078 C1077 1.392 . S
C1078 C1079 1.392 . S
C1079 H1049 0.949 . S
C1079 C1074 1.382 . S
C1079 C1078 1.392 . S
H1080 C1099 0.949 . S
H1081 C1100 0.950 . S
H1082 C1102 0.950 . S
H1083 C1103 0.950 . S
H1084 C1105 0.950 . S
H1085 C1108 0.950 . S
H1086 C1109 0.950 . S
H1087 C1111 0.951 . S
H1088 C1112 0.949 . S
H1089 C1114 0.949 . S
H1090 C1115 0.950 . S
H1091 C1117 0.950 . S
H1092 C1118 0.950 . S
H1093 C1120 0.950 . S
H1094 C1123 0.950 . S
H1095 C1124 0.950 . S
H1096 C1126 0.951 . S
H1097 C1127 0.949 . S
C1098 C1099 1.376 . S
C1098 C1103 1.386 1_655 S
C1098 C1104 1.483 . S
C1099 H1080 0.949 . S
C1099 C1098 1.376 . S
C1099 C1100 1.397 . S
C1100 H1081 0.950 . S
C1100 C1099 1.397 . S
C1100 C1101 1.391 . S
C1101 C1100 1.391 . S
C1101 C1102 1.405 1_655 S
C1102 H1082 0.950 . S
C1102 C1101 1.405 1_455 S
C1102 C1103 1.367 . S
C1103 H1083 0.950 . S
C1103 C1098 1.386 1_455 S
C1103 C1102 1.367 . S
C1104 C1098 1.483 . S
C1104 C1105 1.382 . S
C1104 C1106 1.403 1_655 S
C1105 H1084 0.950 . S
C1105 C1104 1.382 . S
C1105 C1121 1.411 . S
C1106 C1104 1.403 1_455 S
C1106 C1107 1.489 . S
C1106 C1120 1.411 . S
C1107 C1106 1.489 . S
C1107 C1108 1.383 1_455 S
C1107 C1112 1.382 . S
C1108 H1085 0.950 . S
C1108 C1107 1.383 1_655 S
C1108 C1109 1.395 . S
C1109 H1086 0.950 . S
C1109 C1108 1.395 . S
C1109 C1110 1.288 1_655 S
C1110 C1109 1.288 1_455 S
C1110 C1111 1.392 . S
C1111 H1087 0.951 . S
C1111 C1110 1.392 . S
C1111 C1112 1.392 . S
C1112 H1088 0.949 . S
C1112 C1107 1.382 . S
C1112 C1111 1.392 . S
C1113 C1114 1.376 . S
C1113 C1118 1.386 1_455 S
C1113 C1119 1.483 . S
C1114 H1089 0.949 . S
C1114 C1113 1.376 . S
C1114 C1115 1.397 . S
C1115 H1090 0.950 . S
C1115 C1114 1.397 . S
C1115 C1116 1.391 . S
C1116 C1115 1.391 . S
C1116 C1117 1.405 1_455 S
C1117 H1091 0.950 . S
C1117 C1116 1.405 1_655 S
C1117 C1118 1.367 . S
C1118 H1092 0.950 . S
C1118 C1113 1.386 1_655 S
C1118 C1117 1.367 . S
C1119 C1113 1.483 . S
C1119 C1120 1.382 . S
C1119 C1121 1.403 1_455 S
C1120 H1093 0.950 . S
C1120 C1106 1.411 . S
C1120 C1119 1.382 . S
C1121 C1105 1.411 . S
C1121 C1119 1.403 1_655 S
C1121 C1122 1.489 . S
C1122 C1121 1.489 . S
C1122 C1123 1.383 1_655 S
C1122 C1127 1.382 . S
C1123 H1094 0.950 . S
C1123 C1122 1.383 1_455 S
C1123 C1124 1.395 . S
C1124 H1095 0.950 . S
C1124 C1123 1.395 . S
C1124 C1125 1.288 1_455 S
C1125 C1124 1.288 1_655 S
C1125 C1126 1.392 . S
C1126 H1096 0.951 . S
C1126 C1125 1.392 . S
C1126 C1127 1.392 . S
C1127 H1097 0.949 . S
C1127 C1122 1.382 . S
C1127 C1126 1.392 . S
H1128 C1147 0.949 . S
H1129 C1148 0.950 . S
H1130 C1150 0.950 . S
H1131 C1151 0.950 . S
H1132 C1153 0.950 . S
H1133 C1156 0.950 . S
H1134 C1157 0.950 . S
H1135 C1159 0.951 . S
H1136 C1160 0.949 . S
H1137 C1162 0.949 . S
H1138 C1163 0.950 . S
H1139 C1165 0.950 . S
H1140 C1166 0.950 . S
H1141 C1168 0.950 . S
H1142 C1171 0.950 . S
H1143 C1172 0.950 . S
H1144 C1174 0.951 . S
H1145 C1175 0.949 . S
C1146 C1147 1.376 . S
C1146 C1151 1.386 . S
C1146 C1152 1.483 . S
C1147 H1128 0.949 . S
C1147 C1146 1.376 . S
C1147 C1148 1.397 . S
C1148 H1129 0.950 . S
C1148 C1147 1.397 . S
C1148 C1149 1.391 . S
C1149 C1148 1.391 . S
C1149 C1150 1.405 . S
C1150 H1130 0.950 . S
C1150 C1149 1.405 . S
C1150 C1151 1.367 . S
C1151 H1131 0.950 . S
C1151 C1146 1.386 . S
C1151 C1150 1.367 . S
C1152 C1146 1.483 . S
C1152 C1153 1.382 . S
C1152 C1154 1.403 . S
C1153 H1132 0.950 . S
C1153 C1152 1.382 . S
C1153 C1169 1.411 . S
C1154 C1152 1.403 . S
C1154 C1155 1.489 . S
C1154 C1168 1.411 . S
C1155 C1154 1.489 . S
C1155 C1156 1.383 . S
C1155 C1160 1.382 . S
C1156 H1133 0.950 . S
C1156 C1155 1.383 . S
C1156 C1157 1.395 . S
C1157 H1134 0.950 . S
C1157 C1156 1.395 . S
C1157 C1158 1.288 . S
C1158 C1157 1.288 . S
C1158 C1159 1.392 . S
C1159 H1135 0.951 . S
C1159 C1158 1.392 . S
C1159 C1160 1.392 . S
C1160 H1136 0.949 . S
C1160 C1155 1.382 . S
C1160 C1159 1.392 . S
C1161 C1162 1.376 . S
C1161 C1166 1.386 . S
C1161 C1167 1.483 . S
C1162 H1137 0.949 . S
C1162 C1161 1.376 . S
C1162 C1163 1.397 . S
C1163 H1138 0.950 . S
C1163 C1162 1.397 . S
C1163 C1164 1.391 . S
C1164 C1163 1.391 . S
C1164 C1165 1.405 . S
C1165 H1139 0.950 . S
C1165 C1164 1.405 . S
C1165 C1166 1.367 . S
C1166 H1140 0.950 . S
C1166 C1161 1.386 . S
C1166 C1165 1.367 . S
C1167 C1161 1.483 . S
C1167 C1168 1.382 . S
C1167 C1169 1.403 . S
C1168 H1141 0.950 . S
C1168 C1154 1.411 . S
C1168 C1167 1.382 . S
C1169 C1153 1.411 . S
C1169 C1167 1.403 . S
C1169 C1170 1.489 . S
C1170 C1169 1.489 . S
C1170 C1171 1.383 . S
C1170 C1175 1.382 . S
C1171 H1142 0.950 . S
C1171 C1170 1.383 . S
C1171 C1172 1.395 . S
C1172 H1143 0.950 . S
C1172 C1171 1.395 . S
C1172 C1173 1.288 . S
C1173 C1172 1.288 . S
C1173 C1174 1.392 . S
C1174 H1144 0.951 . S
C1174 C1173 1.392 . S
C1174 C1175 1.392 . S
C1175 H1145 0.949 . S
C1175 C1170 1.382 . S
C1175 C1174 1.392 . S
H1176 C1195 0.949 . S
H1177 C1196 0.950 . S
H1178 C1198 0.950 . S
H1179 C1199 0.950 . S
H1180 C1201 0.950 . S
H1181 C1204 0.950 . S
H1182 C1205 0.950 . S
H1183 C1207 0.951 . S
H1184 C1208 0.949 . S
H1185 C1210 0.949 . S
H1186 C1211 0.950 . S
H1187 C1213 0.950 . S
H1188 C1214 0.950 . S
H1189 C1216 0.950 . S
H1190 C1219 0.950 . S
H1191 C1220 0.950 . S
H1192 C1222 0.951 . S
H1193 C1223 0.949 . S
C1194 C1195 1.376 . S
C1194 C1199 1.386 1_545 S
C1194 C1200 1.483 . S
C1195 H1176 0.949 . S
C1195 C1194 1.376 . S
C1195 C1196 1.397 . S
C1196 H1177 0.950 . S
C1196 C1195 1.397 . S
C1196 C1197 1.391 . S
C1197 C1196 1.391 . S
C1197 C1198 1.405 1_545 S
C1198 H1178 0.950 . S
C1198 C1197 1.405 1_565 S
C1198 C1199 1.367 . S
C1199 H1179 0.950 . S
C1199 C1194 1.386 1_565 S
C1199 C1198 1.367 . S
C1200 C1194 1.483 . S
C1200 C1201 1.382 . S
C1200 C1202 1.403 1_545 S
C1201 H1180 0.950 . S
C1201 C1200 1.382 . S
C1201 C1217 1.411 . S
C1202 C1200 1.403 1_565 S
C1202 C1203 1.489 . S
C1202 C1216 1.411 . S
C1203 C1202 1.489 . S
C1203 C1204 1.383 1_565 S
C1203 C1208 1.382 . S
C1204 H1181 0.950 . S
C1204 C1203 1.383 1_545 S
C1204 C1205 1.395 . S
C1205 H1182 0.950 . S
C1205 C1204 1.395 . S
C1205 C1206 1.288 1_545 S
C1206 C1205 1.288 1_565 S
C1206 C1207 1.392 . S
C1207 H1183 0.951 . S
C1207 C1206 1.392 . S
C1207 C1208 1.392 . S
C1208 H1184 0.949 . S
C1208 C1203 1.382 . S
C1208 C1207 1.392 . S
C1209 C1210 1.376 . S
C1209 C1214 1.386 1_565 S
C1209 C1215 1.483 . S
C1210 H1185 0.949 . S
C1210 C1209 1.376 . S
C1210 C1211 1.397 . S
C1211 H1186 0.950 . S
C1211 C1210 1.397 . S
C1211 C1212 1.391 . S
C1212 C1211 1.391 . S
C1212 C1213 1.405 1_565 S
C1213 H1187 0.950 . S
C1213 C1212 1.405 1_545 S
C1213 C1214 1.367 . S
C1214 H1188 0.950 . S
C1214 C1209 1.386 1_545 S
C1214 C1213 1.367 . S
C1215 C1209 1.483 . S
C1215 C1216 1.382 . S
C1215 C1217 1.403 1_565 S
C1216 H1189 0.950 . S
C1216 C1202 1.411 . S
C1216 C1215 1.382 . S
C1217 C1201 1.411 . S
C1217 C1215 1.403 1_545 S
C1217 C1218 1.489 . S
C1218 C1217 1.489 . S
C1218 C1219 1.383 1_545 S
C1218 C1223 1.382 . S
C1219 H1190 0.950 . S
C1219 C1218 1.383 1_565 S
C1219 C1220 1.395 . S
C1220 H1191 0.950 . S
C1220 C1219 1.395 . S
C1220 C1221 1.288 1_565 S
C1221 C1220 1.288 1_545 S
C1221 C1222 1.392 . S
C1222 H1192 0.951 . S
C1222 C1221 1.392 . S
C1222 C1223 1.392 . S
C1223 H1193 0.949 . S
C1223 C1218 1.382 . S
C1223 C1222 1.392 . S
H1224 C1243 0.949 . S
H1225 C1244 0.950 . S
H1226 C1246 0.950 . S
H1227 C1247 0.950 . S
H1228 C1249 0.950 . S
H1229 C1252 0.950 . S
H1230 C1253 0.950 . S
H1231 C1255 0.951 . S
H1232 C1256 0.949 . S
H1233 C1258 0.949 . S
H1234 C1259 0.950 . S
H1235 C1261 0.950 . S
H1236 C1262 0.950 . S
H1237 C1264 0.950 . S
H1238 C1267 0.950 . S
H1239 C1268 0.950 . S
H1240 C1270 0.951 . S
H1241 C1271 0.949 . S
C1242 C1243 1.380 . S
C1242 C1247 1.384 1_545 S
C1242 C1248 1.505 . S
C1243 H1224 0.949 . S
C1243 C1242 1.380 . S
C1243 C1244 1.397 . S
C1244 H1225 0.950 . S
C1244 C1243 1.397 . S
C1244 C1245 1.391 1_545 S
C1245 C1244 1.391 1_565 S
C1245 C1246 1.405 . S
C1246 H1226 0.950 . S
C1246 C1245 1.405 . S
C1246 C1247 1.367 . S
C1247 H1227 0.950 . S
C1247 C1242 1.384 1_565 S
C1247 C1246 1.367 . S
C1248 C1242 1.505 . S
C1248 C1249 1.360 . S
C1248 C1250 1.398 1_545 S
C1249 H1228 0.950 . S
C1249 C1248 1.360 . S
C1249 C1265 1.445 . S
C1250 C1248 1.398 1_565 S
C1250 C1251 1.485 . S
C1250 C1264 1.437 . S
C1251 C1250 1.485 . S
C1251 C1252 1.341 1_565 S
C1251 C1256 1.405 . S
C1252 H1229 0.950 . S
C1252 C1251 1.341 1_545 S
C1252 C1253 1.395 . S
C1253 H1230 0.950 . S
C1253 C1252 1.395 . S
C1253 C1254 1.288 . S
C1254 C1253 1.288 . S
C1254 C1255 1.392 1_545 S
C1255 H1231 0.951 . S
C1255 C1254 1.392 1_565 S
C1255 C1256 1.392 . S
C1256 H1232 0.949 . S
C1256 C1251 1.405 . S
C1256 C1255 1.392 . S
C1257 C1258 1.380 1_545 S
C1257 C1262 1.384 . S
C1257 C1263 1.498 1_545 S
C1258 H1233 0.949 . S
C1258 C1257 1.380 1_565 S
C1258 C1259 1.397 . S
C1259 H1234 0.950 . S
C1259 C1258 1.397 . S
C1259 C1260 1.391 1_565 S
C1260 C1259 1.391 1_545 S
C1260 C1261 1.405 . S
C1261 H1235 0.950 . S
C1261 C1260 1.405 . S
C1261 C1262 1.367 . S
C1262 H1236 0.950 . S
C1262 C1257 1.384 . S
C1262 C1261 1.367 . S
C1263 C1257 1.498 1_565 S
C1263 C1264 1.366 . S
C1263 C1265 1.398 1_565 S
C1264 H1237 0.950 . S
C1264 C1250 1.437 . S
C1264 C1263 1.366 . S
C1265 C1249 1.445 . S
C1265 C1263 1.398 1_545 S
C1265 C1266 1.485 . S
C1266 C1265 1.485 . S
C1266 C1267 1.326 1_545 S
C1266 C1271 1.414 . S
C1267 H1238 0.950 . S
C1267 C1266 1.326 1_565 S
C1267 C1268 1.395 . S
C1268 H1239 0.950 . S
C1268 C1267 1.395 . S
C1268 C1269 1.288 . S
C1269 C1268 1.288 . S
C1269 C1270 1.392 1_565 S
C1270 H1240 0.951 . S
C1270 C1269 1.392 1_545 S
C1270 C1271 1.392 . S
C1271 H1241 0.949 . S
C1271 C1266 1.414 . S
C1271 C1270 1.392 . S
H1272 C1291 0.949 . S
H1273 C1292 0.950 . S
H1274 C1294 0.950 . S
H1275 C1295 0.950 . S
H1276 C1297 0.950 . S
H1277 C1300 0.950 . S
H1278 C1301 0.950 . S
H1279 C1303 0.951 . S
H1280 C1304 0.949 . S
H1281 C1306 0.949 . S
H1282 C1307 0.950 . S
H1283 C1309 0.950 . S
H1284 C1310 0.950 . S
H1285 C1312 0.950 . S
H1286 C1315 0.950 . S
H1287 C1316 0.950 . S
H1288 C1318 0.951 . S
H1289 C1319 0.949 . S
C1290 C1291 1.376 . S
C1290 C1295 1.386 1_455 S
C1290 C1296 1.483 . S
C1291 H1272 0.949 . S
C1291 C1290 1.376 . S
C1291 C1292 1.397 . S
C1292 H1273 0.950 . S
C1292 C1291 1.397 . S
C1292 C1293 1.391 . S
C1293 C1292 1.391 . S
C1293 C1294 1.405 1_455 S
C1294 H1274 0.950 . S
C1294 C1293 1.405 1_655 S
C1294 C1295 1.367 . S
C1295 H1275 0.950 . S
C1295 C1290 1.386 1_655 S
C1295 C1294 1.367 . S
C1296 C1290 1.483 . S
C1296 C1297 1.382 . S
C1296 C1298 1.403 1_455 S
C1297 H1276 0.950 . S
C1297 C1296 1.382 . S
C1297 C1313 1.411 . S
C1298 C1296 1.403 1_655 S
C1298 C1299 1.489 . S
C1298 C1312 1.411 . S
C1299 C1298 1.489 . S
C1299 C1300 1.383 1_655 S
C1299 C1304 1.382 . S
C1300 H1277 0.950 . S
C1300 C1299 1.383 1_455 S
C1300 C1301 1.395 . S
C1301 H1278 0.950 . S
C1301 C1300 1.395 . S
C1301 C1302 1.288 1_455 S
C1302 C1301 1.288 1_655 S
C1302 C1303 1.392 . S
C1303 H1279 0.951 . S
C1303 C1302 1.392 . S
C1303 C1304 1.392 . S
C1304 H1280 0.949 . S
C1304 C1299 1.382 . S
C1304 C1303 1.392 . S
C1305 C1306 1.376 . S
C1305 C1310 1.386 1_655 S
C1305 C1311 1.483 . S
C1306 H1281 0.949 . S
C1306 C1305 1.376 . S
C1306 C1307 1.397 . S
C1307 H1282 0.950 . S
C1307 C1306 1.397 . S
C1307 C1308 1.391 . S
C1308 C1307 1.391 . S
C1308 C1309 1.405 1_655 S
C1309 H1283 0.950 . S
C1309 C1308 1.405 1_455 S
C1309 C1310 1.367 . S
C1310 H1284 0.950 . S
C1310 C1305 1.386 1_455 S
C1310 C1309 1.367 . S
C1311 C1305 1.483 . S
C1311 C1312 1.382 . S
C1311 C1313 1.403 1_655 S
C1312 H1285 0.950 . S
C1312 C1298 1.411 . S
C1312 C1311 1.382 . S
C1313 C1297 1.411 . S
C1313 C1311 1.403 1_455 S
C1313 C1314 1.489 . S
C1314 C1313 1.489 . S
C1314 C1315 1.383 1_455 S
C1314 C1319 1.382 . S
C1315 H1286 0.950 . S
C1315 C1314 1.383 1_655 S
C1315 C1316 1.395 . S
C1316 H1287 0.950 . S
C1316 C1315 1.395 . S
C1316 C1317 1.288 1_655 S
C1317 C1316 1.288 1_455 S
C1317 C1318 1.392 . S
C1318 H1288 0.951 . S
C1318 C1317 1.392 . S
C1318 C1319 1.392 . S
C1319 H1289 0.949 . S
C1319 C1314 1.382 . S
C1319 C1318 1.392 . S
H1320 C1339 0.949 . S
H1321 C1340 0.950 . S
H1322 C1342 0.950 . S
H1323 C1343 0.950 . S
H1324 C1345 0.950 . S
H1325 C1348 0.950 . S
H1326 C1349 0.950 . S
H1327 C1351 0.951 . S
H1328 C1352 0.949 . S
H1329 C1354 0.949 . S
H1330 C1355 0.950 . S
H1331 C1357 0.950 . S
H1332 C1358 0.950 . S
H1333 C1360 0.950 . S
H1334 C1363 0.950 . S
H1335 C1364 0.950 . S
H1336 C1366 0.951 . S
H1337 C1367 0.949 . S
C1338 C1339 1.376 . S
C1338 C1343 1.386 . S
C1338 C1344 1.483 . S
C1339 H1320 0.949 . S
C1339 C1338 1.376 . S
C1339 C1340 1.397 . S
C1340 H1321 0.950 . S
C1340 C1339 1.397 . S
C1340 C1341 1.391 . S
C1341 C1340 1.391 . S
C1341 C1342 1.405 . S
C1342 H1322 0.950 . S
C1342 C1341 1.405 . S
C1342 C1343 1.367 . S
C1343 H1323 0.950 . S
C1343 C1338 1.386 . S
C1343 C1342 1.367 . S
C1344 C1338 1.483 . S
C1344 C1345 1.382 . S
C1344 C1346 1.403 . S
C1345 H1324 0.950 . S
C1345 C1344 1.382 . S
C1345 C1361 1.411 . S
C1346 C1344 1.403 . S
C1346 C1347 1.489 . S
C1346 C1360 1.411 . S
C1347 C1346 1.489 . S
C1347 C1348 1.383 . S
C1347 C1352 1.382 . S
C1348 H1325 0.950 . S
C1348 C1347 1.383 . S
C1348 C1349 1.395 . S
C1349 H1326 0.950 . S
C1349 C1348 1.395 . S
C1349 C1350 1.288 . S
C1350 C1349 1.288 . S
C1350 C1351 1.392 . S
C1351 H1327 0.951 . S
C1351 C1350 1.392 . S
C1351 C1352 1.392 . S
C1352 H1328 0.949 . S
C1352 C1347 1.382 . S
C1352 C1351 1.392 . S
C1353 C1354 1.376 . S
C1353 C1358 1.386 . S
C1353 C1359 1.483 . S
C1354 H1329 0.949 . S
C1354 C1353 1.376 . S
C1354 C1355 1.397 . S
C1355 H1330 0.950 . S
C1355 C1354 1.397 . S
C1355 C1356 1.391 . S
C1356 C1355 1.391 . S
C1356 C1357 1.405 . S
C1357 H1331 0.950 . S
C1357 C1356 1.405 . S
C1357 C1358 1.367 . S
C1358 H1332 0.950 . S
C1358 C1353 1.386 . S
C1358 C1357 1.367 . S
C1359 C1353 1.483 . S
C1359 C1360 1.382 . S
C1359 C1361 1.403 . S
C1360 H1333 0.950 . S
C1360 C1346 1.411 . S
C1360 C1359 1.382 . S
C1361 C1345 1.411 . S
C1361 C1359 1.403 . S
C1361 C1362 1.489 . S
C1362 C1361 1.489 . S
C1362 C1363 1.383 . S
C1362 C1367 1.382 . S
C1363 H1334 0.950 . S
C1363 C1362 1.383 . S
C1363 C1364 1.395 . S
C1364 H1335 0.950 . S
C1364 C1363 1.395 . S
C1364 C1365 1.288 . S
C1365 C1364 1.288 . S
C1365 C1366 1.392 . S
C1366 H1336 0.951 . S
C1366 C1365 1.392 . S
C1366 C1367 1.392 . S
C1367 H1337 0.949 . S
C1367 C1362 1.382 . S
C1367 C1366 1.392 . S
H1368 C1387 0.949 . S
H1369 C1388 0.950 . S
H1370 C1390 0.950 . S
H1371 C1391 0.950 . S
H1372 C1393 0.950 . S
H1373 C1396 0.950 . S
H1374 C1397 0.950 . S
H1375 C1399 0.951 . S
H1376 C1400 0.949 . S
H1377 C1402 0.949 . S
H1378 C1403 0.950 . S
H1379 C1405 0.950 . S
H1380 C1406 0.950 . S
H1381 C1408 0.950 . S
H1382 C1411 0.950 . S
H1383 C1412 0.950 . S
H1384 C1414 0.951 . S
H1385 C1415 0.949 . S
C1386 C1387 1.376 . S
C1386 C1391 1.386 . S
C1386 C1392 1.483 . S
C1387 H1368 0.949 . S
C1387 C1386 1.376 . S
C1387 C1388 1.397 . S
C1388 H1369 0.950 . S
C1388 C1387 1.397 . S
C1388 C1389 1.391 . S
C1389 C1388 1.391 . S
C1389 C1390 1.405 . S
C1390 H1370 0.950 . S
C1390 C1389 1.405 . S
C1390 C1391 1.367 . S
C1391 H1371 0.950 . S
C1391 C1386 1.386 . S
C1391 C1390 1.367 . S
C1392 C1386 1.483 . S
C1392 C1393 1.382 . S
C1392 C1394 1.403 . S
C1393 H1372 0.950 . S
C1393 C1392 1.382 . S
C1393 C1409 1.411 . S
C1394 C1392 1.403 . S
C1394 C1395 1.489 . S
C1394 C1408 1.411 . S
C1395 C1394 1.489 . S
C1395 C1396 1.383 . S
C1395 C1400 1.382 . S
C1396 H1373 0.950 . S
C1396 C1395 1.383 . S
C1396 C1397 1.395 . S
C1397 H1374 0.950 . S
C1397 C1396 1.395 . S
C1397 C1398 1.288 . S
C1398 C1397 1.288 . S
C1398 C1399 1.392 . S
C1399 H1375 0.951 . S
C1399 C1398 1.392 . S
C1399 C1400 1.392 . S
C1400 H1376 0.949 . S
C1400 C1395 1.382 . S
C1400 C1399 1.392 . S
C1401 C1402 1.376 . S
C1401 C1406 1.386 . S
C1401 C1407 1.483 . S
C1402 H1377 0.949 . S
C1402 C1401 1.376 . S
C1402 C1403 1.397 . S
C1403 H1378 0.950 . S
C1403 C1402 1.397 . S
C1403 C1404 1.391 . S
C1404 C1403 1.391 . S
C1404 C1405 1.405 . S
C1405 H1379 0.950 . S
C1405 C1404 1.405 . S
C1405 C1406 1.367 . S
C1406 H1380 0.950 . S
C1406 C1401 1.386 . S
C1406 C1405 1.367 . S
C1407 C1401 1.483 . S
C1407 C1408 1.382 . S
C1407 C1409 1.403 . S
C1408 H1381 0.950 . S
C1408 C1394 1.411 . S
C1408 C1407 1.382 . S
C1409 C1393 1.411 . S
C1409 C1407 1.403 . S
C1409 C1410 1.489 . S
C1410 C1409 1.489 . S
C1410 C1411 1.383 . S
C1410 C1415 1.382 . S
C1411 H1382 0.950 . S
C1411 C1410 1.383 . S
C1411 C1412 1.395 . S
C1412 H1383 0.950 . S
C1412 C1411 1.395 . S
C1412 C1413 1.288 . S
C1413 C1412 1.288 . S
C1413 C1414 1.392 . S
C1414 H1384 0.951 . S
C1414 C1413 1.392 . S
C1414 C1415 1.392 . S
C1415 H1385 0.949 . S
C1415 C1410 1.382 . S
C1415 C1414 1.392 . S
H1416 C1435 0.949 . S
H1417 C1436 0.950 . S
H1418 C1438 0.950 . S
H1419 C1439 0.950 . S
H1420 C1441 0.950 . S
H1421 C1444 0.950 . S
H1422 C1445 0.950 . S
H1423 C1447 0.951 . S
H1424 C1448 0.949 . S
H1425 C1450 0.949 . S
H1426 C1451 0.950 . S
H1427 C1453 0.950 . S
H1428 C1454 0.950 . S
H1429 C1456 0.950 . S
H1430 C1459 0.950 . S
H1431 C1460 0.950 . S
H1432 C1462 0.951 . S
H1433 C1463 0.949 . S
C1434 C1435 1.376 . S
C1434 C1439 1.386 . S
C1434 C1440 1.483 . S
C1435 H1416 0.949 . S
C1435 C1434 1.376 . S
C1435 C1436 1.397 . S
C1436 H1417 0.950 . S
C1436 C1435 1.397 . S
C1436 C1437 1.391 . S
C1437 C1436 1.391 . S
C1437 C1438 1.405 . S
C1438 H1418 0.950 . S
C1438 C1437 1.405 . S
C1438 C1439 1.367 . S
C1439 H1419 0.950 . S
C1439 C1434 1.386 . S
C1439 C1438 1.367 . S
C1440 C1434 1.483 . S
C1440 C1441 1.382 . S
C1440 C1442 1.403 . S
C1441 H1420 0.950 . S
C1441 C1440 1.382 . S
C1441 C1457 1.411 . S
C1442 C1440 1.403 . S
C1442 C1443 1.489 . S
C1442 C1456 1.411 . S
C1443 C1442 1.489 . S
C1443 C1444 1.383 . S
C1443 C1448 1.382 . S
C1444 H1421 0.950 . S
C1444 C1443 1.383 . S
C1444 C1445 1.395 . S
C1445 H1422 0.950 . S
C1445 C1444 1.395 . S
C1445 C1446 1.288 . S
C1446 C1445 1.288 . S
C1446 C1447 1.392 . S
C1447 H1423 0.951 . S
C1447 C1446 1.392 . S
C1447 C1448 1.392 . S
C1448 H1424 0.949 . S
C1448 C1443 1.382 . S
C1448 C1447 1.392 . S
C1449 C1450 1.376 . S
C1449 C1454 1.386 . S
C1449 C1455 1.483 . S
C1450 H1425 0.949 . S
C1450 C1449 1.376 . S
C1450 C1451 1.397 . S
C1451 H1426 0.950 . S
C1451 C1450 1.397 . S
C1451 C1452 1.391 . S
C1452 C1451 1.391 . S
C1452 C1453 1.405 . S
C1453 H1427 0.950 . S
C1453 C1452 1.405 . S
C1453 C1454 1.367 . S
C1454 H1428 0.950 . S
C1454 C1449 1.386 . S
C1454 C1453 1.367 . S
C1455 C1449 1.483 . S
C1455 C1456 1.382 . S
C1455 C1457 1.403 . S
C1456 H1429 0.950 . S
C1456 C1442 1.411 . S
C1456 C1455 1.382 . S
C1457 C1441 1.411 . S
C1457 C1455 1.403 . S
C1457 C1458 1.489 . S
C1458 C1457 1.489 . S
C1458 C1459 1.383 . S
C1458 C1463 1.382 . S
C1459 H1430 0.950 . S
C1459 C1458 1.383 . S
C1459 C1460 1.395 . S
C1460 H1431 0.950 . S
C1460 C1459 1.395 . S
C1460 C1461 1.288 . S
C1461 C1460 1.288 . S
C1461 C1462 1.392 . S
C1462 H1432 0.951 . S
C1462 C1461 1.392 . S
C1462 C1463 1.392 . S
C1463 H1433 0.949 . S
C1463 C1458 1.382 . S
C1463 C1462 1.392 . S
H1464 C1483 0.949 . S
H1465 C1484 0.950 . S
H1466 C1486 0.950 . S
H1467 C1487 0.950 . S
H1468 C1489 0.950 . S
H1469 C1492 0.950 . S
H1470 C1493 0.950 . S
H1471 C1495 0.951 . S
H1472 C1496 0.949 . S
H1473 C1498 0.949 . S
H1474 C1499 0.950 . S
H1475 C1501 0.950 . S
H1476 C1502 0.950 . S
H1477 C1504 0.950 . S
H1478 C1507 0.950 . S
H1479 C1508 0.950 . S
H1480 C1510 0.951 . S
H1481 C1511 0.949 . S
C1482 C1483 1.376 . S
C1482 C1487 1.386 . S
C1482 C1488 1.483 . S
C1483 H1464 0.949 . S
C1483 C1482 1.376 . S
C1483 C1484 1.397 . S
C1484 H1465 0.950 . S
C1484 C1483 1.397 . S
C1484 C1485 1.391 . S
C1485 C1484 1.391 . S
C1485 C1486 1.405 . S
C1486 H1466 0.950 . S
C1486 C1485 1.405 . S
C1486 C1487 1.367 . S
C1487 H1467 0.950 . S
C1487 C1482 1.386 . S
C1487 C1486 1.367 . S
C1488 C1482 1.483 . S
C1488 C1489 1.382 . S
C1488 C1490 1.403 . S
C1489 H1468 0.950 . S
C1489 C1488 1.382 . S
C1489 C1505 1.411 . S
C1490 C1488 1.403 . S
C1490 C1491 1.489 . S
C1490 C1504 1.411 . S
C1491 C1490 1.489 . S
C1491 C1492 1.383 . S
C1491 C1496 1.382 . S
C1492 H1469 0.950 . S
C1492 C1491 1.383 . S
C1492 C1493 1.395 . S
C1493 H1470 0.950 . S
C1493 C1492 1.395 . S
C1493 C1494 1.288 . S
C1494 C1493 1.288 . S
C1494 C1495 1.392 . S
C1495 H1471 0.951 . S
C1495 C1494 1.392 . S
C1495 C1496 1.392 . S
C1496 H1472 0.949 . S
C1496 C1491 1.382 . S
C1496 C1495 1.392 . S
C1497 C1498 1.376 . S
C1497 C1502 1.386 . S
C1497 C1503 1.483 . S
C1498 H1473 0.949 . S
C1498 C1497 1.376 . S
C1498 C1499 1.397 . S
C1499 H1474 0.950 . S
C1499 C1498 1.397 . S
C1499 C1500 1.391 . S
C1500 C1499 1.391 . S
C1500 C1501 1.405 . S
C1501 H1475 0.950 . S
C1501 C1500 1.405 . S
C1501 C1502 1.367 . S
C1502 H1476 0.950 . S
C1502 C1497 1.386 . S
C1502 C1501 1.367 . S
C1503 C1497 1.483 . S
C1503 C1504 1.382 . S
C1503 C1505 1.403 . S
C1504 H1477 0.950 . S
C1504 C1490 1.411 . S
C1504 C1503 1.382 . S
C1505 C1489 1.411 . S
C1505 C1503 1.403 . S
C1505 C1506 1.489 . S
C1506 C1505 1.489 . S
C1506 C1507 1.383 . S
C1506 C1511 1.382 . S
C1507 H1478 0.950 . S
C1507 C1506 1.383 . S
C1507 C1508 1.395 . S
C1508 H1479 0.950 . S
C1508 C1507 1.395 . S
C1508 C1509 1.288 . S
C1509 C1508 1.288 . S
C1509 C1510 1.392 . S
C1510 H1480 0.951 . S
C1510 C1509 1.392 . S
C1510 C1511 1.392 . S
C1511 H1481 0.949 . S
C1511 C1506 1.382 . S
C1511 C1510 1.392 . S
H1512 C1518 0.930 . S
H1513 C1521 0.930 . S
H1514 C1522 0.930 . S
H1515 C1523 0.930 . S
H1516 C1526 0.930 . S
H1517 C1527 0.930 . S
C1518 H1512 0.930 . S
C1518 C1519 1.355 . S
C1518 C1520 1.415 . S
C1519 C1518 1.355 . S
C1519 C1521 1.419 1_655 S
C1520 C1518 1.415 . S
C1520 C1525 1.425 1_655 S
C1520 C1527 1.409 . S
C1521 H1513 0.930 . S
C1521 C1519 1.419 1_455 S
C1521 C1522 1.362 . S
C1522 H1514 0.930 . S
C1522 C1521 1.362 . S
C1522 C1525 1.409 . S
C1523 H1515 0.930 . S
C1523 C1524 1.355 1_455 S
C1523 C1525 1.415 . S
C1524 C1523 1.355 1_655 S
C1524 C1526 1.419 . S
C1525 C1520 1.425 1_455 S
C1525 C1522 1.409 . S
C1525 C1523 1.415 . S
C1526 H1516 0.930 . S
C1526 C1524 1.419 . S
C1526 C1527 1.362 . S
C1527 H1517 0.930 . S
C1527 C1520 1.409 . S
C1527 C1526 1.362 . S
H1528 C1534 0.930 . S
H1529 C1537 0.930 . S
H1530 C1538 0.930 . S
H1531 C1539 0.930 . S
H1532 C1542 0.930 . S
H1533 C1543 0.930 . S
C1534 H1528 0.930 . S
C1534 C1535 1.355 . S
C1534 C1536 1.415 . S
C1535 C1534 1.355 . S
C1535 C1537 1.419 . S
C1536 C1534 1.415 . S
C1536 C1541 1.425 . S
C1536 C1543 1.409 . S
C1537 H1529 0.930 . S
C1537 C1535 1.419 . S
C1537 C1538 1.362 . S
C1538 H1530 0.930 . S
C1538 C1537 1.362 . S
C1538 C1541 1.409 . S
C1539 H1531 0.930 . S
C1539 C1540 1.355 . S
C1539 C1541 1.415 . S
C1540 C1539 1.355 . S
C1540 C1542 1.419 . S
C1541 C1536 1.425 . S
C1541 C1538 1.409 . S
C1541 C1539 1.415 . S
C1542 H1532 0.930 . S
C1542 C1540 1.419 . S
C1542 C1543 1.362 . S
C1543 H1533 0.930 . S
C1543 C1536 1.409 . S
C1543 C1542 1.362 . S
H1544 C1550 0.930 . S
H1545 C1553 0.911 . S
H1546 C1554 0.930 . S
H1547 C1555 0.930 1_565 S
H1548 C1558 0.930 . S
H1549 C1559 0.930 . S
C1550 H1544 0.930 . S
C1550 C1551 1.355 . S
C1550 C1552 1.415 . S
C1551 C1550 1.355 . S
C1551 C1553 1.419 1_545 S
C1552 C1550 1.415 . S
C1552 C1557 1.425 . S
C1552 C1559 1.409 . S
C1553 H1545 0.911 . S
C1553 C1551 1.419 1_565 S
C1553 C1554 1.386 . S
C1554 H1546 0.930 . S
C1554 C1553 1.386 . S
C1554 C1557 1.409 1_565 S
C1555 H1547 0.930 1_545 S
C1555 C1556 1.355 . S
C1555 C1557 1.415 . S
C1556 C1555 1.355 . S
C1556 C1558 1.419 . S
C1557 C1552 1.425 . S
C1557 C1554 1.409 1_545 S
C1557 C1555 1.415 . S
C1558 H1548 0.930 . S
C1558 C1556 1.419 . S
C1558 C1559 1.362 . S
C1559 H1549 0.930 . S
C1559 C1552 1.409 . S
C1559 C1558 1.362 . S
H1560 C1566 0.930 . S
H1561 C1569 0.930 . S
H1562 C1570 0.930 . S
H1563 C1571 0.930 . S
H1564 C1574 0.930 . S
H1565 C1575 0.930 . S
C1566 H1560 0.930 . S
C1566 C1567 1.355 . S
C1566 C1568 1.415 . S
C1567 C1566 1.355 . S
C1567 C1569 1.419 1_565 S
C1568 C1566 1.415 . S
C1568 C1573 1.425 . S
C1568 C1575 1.409 . S
C1569 H1561 0.930 . S
C1569 C1567 1.419 1_545 S
C1569 C1570 1.362 . S
C1570 H1562 0.930 . S
C1570 C1569 1.362 . S
C1570 C1573 1.407 1_545 S
C1571 H1563 0.930 . S
C1571 C1572 1.355 1_545 S
C1571 C1573 1.418 1_545 S
C1572 C1571 1.355 1_565 S
C1572 C1574 1.419 . S
C1573 C1568 1.425 . S
C1573 C1570 1.407 1_565 S
C1573 C1571 1.418 1_565 S
C1574 H1564 0.930 . S
C1574 C1572 1.419 . S
C1574 C1575 1.362 . S
C1575 H1565 0.930 . S
C1575 C1568 1.409 . S
C1575 C1574 1.362 . S
H1576 C1582 0.930 . S
H1577 C1585 0.930 . S
H1578 C1586 0.930 . S
H1579 C1587 0.930 . S
H1580 C1590 0.930 . S
H1581 C1591 0.930 . S
C1582 H1576 0.930 . S
C1582 C1583 1.355 . S
C1582 C1584 1.415 . S
C1583 C1582 1.355 . S
C1583 C1585 1.419 1_455 S
C1584 C1582 1.415 . S
C1584 C1589 1.425 1_455 S
C1584 C1591 1.409 . S
C1585 H1577 0.930 . S
C1585 C1583 1.419 1_655 S
C1585 C1586 1.362 . S
C1586 H1578 0.930 . S
C1586 C1585 1.362 . S
C1586 C1589 1.409 . S
C1587 H1579 0.930 . S
C1587 C1588 1.355 1_655 S
C1587 C1589 1.415 . S
C1588 C1587 1.355 1_455 S
C1588 C1590 1.419 . S
C1589 C1584 1.425 1_655 S
C1589 C1586 1.409 . S
C1589 C1587 1.415 . S
C1590 H1580 0.930 . S
C1590 C1588 1.419 . S
C1590 C1591 1.362 . S
C1591 H1581 0.930 . S
C1591 C1584 1.409 . S
C1591 C1590 1.362 . S
H1592 C1598 0.930 . S
H1593 C1601 0.930 . S
H1594 C1602 0.930 . S
H1595 C1603 0.930 . S
H1596 C1606 0.930 . S
H1597 C1607 0.930 . S
C1598 H1592 0.930 . S
C1598 C1599 1.355 . S
C1598 C1600 1.415 . S
C1599 C1598 1.355 . S
C1599 C1601 1.419 . S
C1600 C1598 1.415 . S
C1600 C1605 1.425 . S
C1600 C1607 1.409 . S
C1601 H1593 0.930 . S
C1601 C1599 1.419 . S
C1601 C1602 1.362 . S
C1602 H1594 0.930 . S
C1602 C1601 1.362 . S
C1602 C1605 1.409 . S
C1603 H1595 0.930 . S
C1603 C1604 1.355 . S
C1603 C1605 1.415 . S
C1604 C1603 1.355 . S
C1604 C1606 1.419 . S
C1605 C1600 1.425 . S
C1605 C1602 1.409 . S
C1605 C1603 1.415 . S
C1606 H1596 0.930 . S
C1606 C1604 1.419 . S
C1606 C1607 1.362 . S
C1607 H1597 0.930 . S
C1607 C1600 1.409 . S
C1607 C1606 1.362 . S
H1608 C1614 0.951 . S
H1609 C1617 0.930 . S
H1610 C1618 0.930 . S
H1611 C1619 0.930 . S
H1612 C1622 0.927 1_655 S
H1613 C1623 0.923 1_655 S
C1614 H1608 0.951 . S
C1614 C1615 1.355 . S
C1614 C1616 1.415 . S
C1615 C1614 1.355 . S
C1615 C1617 1.419 . S
C1616 C1614 1.415 . S
C1616 C1621 1.425 . S
C1616 C1623 1.409 . S
C1617 H1609 0.930 . S
C1617 C1615 1.419 . S
C1617 C1618 1.362 . S
C1618 H1610 0.930 . S
C1618 C1617 1.362 . S
C1618 C1621 1.409 . S
C1619 H1611 0.930 . S
C1619 C1620 1.355 . S
C1619 C1621 1.415 . S
C1620 C1619 1.355 . S
C1620 C1622 1.419 . S
C1621 C1616 1.425 . S
C1621 C1618 1.409 . S
C1621 C1619 1.415 . S
C1622 H1612 0.927 1_455 S
C1622 C1620 1.419 . S
C1622 C1623 1.362 . S
C1623 H1613 0.923 1_455 S
C1623 C1616 1.409 . S
C1623 C1622 1.362 . S
H1624 C1630 0.930 . S
H1625 C1633 0.930 . S
H1626 C1634 0.930 . S
H1627 C1635 0.930 . S
H1628 C1638 0.930 . S
H1629 C1639 0.930 . S
C1630 H1624 0.930 . S
C1630 C1631 1.355 . S
C1630 C1632 1.415 . S
C1631 C1630 1.355 . S
C1631 C1633 1.419 . S
C1632 C1630 1.415 . S
C1632 C1637 1.425 . S
C1632 C1639 1.409 . S
C1633 H1625 0.930 . S
C1633 C1631 1.419 . S
C1633 C1634 1.362 . S
C1634 H1626 0.930 . S
C1634 C1633 1.362 . S
C1634 C1637 1.409 . S
C1635 H1627 0.930 . S
C1635 C1636 1.355 . S
C1635 C1637 1.415 . S
C1636 C1635 1.355 . S
C1636 C1638 1.419 . S
C1637 C1632 1.425 . S
C1637 C1634 1.409 . S
C1637 C1635 1.415 . S
C1638 H1628 0.930 . S
C1638 C1636 1.419 . S
C1638 C1639 1.362 . S
C1639 H1629 0.930 . S
C1639 C1632 1.409 . S
C1639 C1638 1.362 . S
H1640 C1646 0.930 . S
H1641 C1649 0.930 . S
H1642 C1650 0.930 . S
H1643 C1651 0.930 . S
H1644 C1654 0.930 . S
H1645 C1655 0.930 . S
C1646 H1640 0.930 . S
C1646 C1647 1.355 . S
C1646 C1648 1.415 . S
C1647 C1646 1.355 . S
C1647 C1649 1.419 1_565 S
C1648 C1646 1.415 . S
C1648 C1653 1.425 1_565 S
C1648 C1655 1.409 . S
C1649 H1641 0.930 . S
C1649 C1647 1.419 1_545 S
C1649 C1650 1.362 . S
C1650 H1642 0.930 . S
C1650 C1649 1.362 . S
C1650 C1653 1.409 . S
C1651 H1643 0.930 . S
C1651 C1652 1.355 1_545 S
C1651 C1653 1.415 . S
C1652 C1651 1.355 1_565 S
C1652 C1654 1.419 . S
C1653 C1648 1.425 1_545 S
C1653 C1650 1.409 . S
C1653 C1651 1.415 . S
C1654 H1644 0.930 . S
C1654 C1652 1.419 . S
C1654 C1655 1.362 . S
C1655 H1645 0.930 . S
C1655 C1648 1.409 . S
C1655 C1654 1.362 . S
H1656 C1662 0.930 1_565 S
H1657 C1665 0.930 . S
H1658 C1666 0.930 . S
H1659 C1667 0.930 . S
H1660 C1670 0.930 . S
H1661 C1671 0.930 . S
C1662 H1656 0.930 1_545 S
C1662 C1663 1.355 . S
C1662 C1664 1.415 . S
C1663 C1662 1.355 . S
C1663 C1665 1.419 . S
C1664 C1662 1.415 . S
C1664 C1669 1.425 . S
C1664 C1671 1.409 1_545 S
C1665 H1657 0.930 . S
C1665 C1663 1.419 . S
C1665 C1666 1.362 . S
C1666 H1658 0.930 . S
C1666 C1665 1.362 . S
C1666 C1669 1.409 . S
C1667 H1659 0.930 . S
C1667 C1668 1.355 . S
C1667 C1669 1.415 . S
C1668 C1667 1.355 . S
C1668 C1670 1.419 1_545 S
C1669 C1664 1.425 . S
C1669 C1666 1.409 . S
C1669 C1667 1.415 . S
C1670 H1660 0.930 . S
C1670 C1668 1.419 1_565 S
C1670 C1671 1.362 . S
C1671 H1661 0.930 . S
C1671 C1664 1.409 1_565 S
C1671 C1670 1.362 . S
H1672 C1678 0.930 . S
H1673 C1681 0.930 . S
H1674 C1682 0.930 . S
H1675 C1683 0.933 1_455 S
H1676 C1686 0.930 . S
H1677 C1687 0.930 . S
C1678 H1672 0.930 . S
C1678 C1679 1.355 . S
C1678 C1680 1.415 . S
C1679 C1678 1.355 . S
C1679 C1681 1.419 1_655 S
C1680 C1678 1.415 . S
C1680 C1685 1.456 . S
C1680 C1687 1.409 . S
C1681 H1673 0.930 . S
C1681 C1679 1.419 1_455 S
C1681 C1682 1.362 . S
C1682 H1674 0.930 . S
C1682 C1681 1.362 . S
C1682 C1685 1.400 1_455 S
C1683 H1675 0.933 1_655 S
C1683 C1684 1.353 . S
C1683 C1685 1.394 . S
C1684 C1683 1.353 . S
C1684 C1686 1.419 . S
C1685 C1680 1.456 . S
C1685 C1682 1.400 1_655 S
C1685 C1683 1.394 . S
C1686 H1676 0.930 . S
C1686 C1684 1.419 . S
C1686 C1687 1.362 . S
C1687 H1677 0.930 . S
C1687 C1680 1.409 . S
C1687 C1686 1.362 . S
H1688 C1694 0.930 . S
H1689 C1697 0.930 . S
H1690 C1698 0.930 . S
H1691 C1699 0.930 . S
H1692 C1702 0.930 . S
H1693 C1703 0.930 . S
C1694 H1688 0.930 . S
C1694 C1695 1.355 . S
C1694 C1696 1.415 . S
C1695 C1694 1.355 . S
C1695 C1697 1.419 . S
C1696 C1694 1.415 . S
C1696 C1701 1.425 . S
C1696 C1703 1.409 . S
C1697 H1689 0.930 . S
C1697 C1695 1.419 . S
C1697 C1698 1.362 . S
C1698 H1690 0.930 . S
C1698 C1697 1.362 . S
C1698 C1701 1.409 . S
C1699 H1691 0.930 . S
C1699 C1700 1.355 . S
C1699 C1701 1.415 . S
C1700 C1699 1.355 . S
C1700 C1702 1.419 . S
C1701 C1696 1.425 . S
C1701 C1698 1.409 . S
C1701 C1699 1.415 . S
C1702 H1692 0.930 . S
C1702 C1700 1.419 . S
C1702 C1703 1.362 . S
C1703 H1693 0.930 . S
C1703 C1696 1.409 . S
C1703 C1702 1.362 . S
H1704 C1710 0.930 . S
H1705 C1713 0.930 . S
H1706 C1714 0.930 . S
H1707 C1715 0.930 . S
H1708 C1718 0.930 . S
H1709 C1719 0.930 . S
C1710 H1704 0.930 . S
C1710 C1711 1.355 . S
C1710 C1712 1.415 . S
C1711 C1710 1.355 . S
C1711 C1713 1.419 . S
C1712 C1710 1.415 . S
C1712 C1717 1.425 . S
C1712 C1719 1.409 . S
C1713 H1705 0.930 . S
C1713 C1711 1.419 . S
C1713 C1714 1.362 . S
C1714 H1706 0.930 . S
C1714 C1713 1.362 . S
C1714 C1717 1.409 . S
C1715 H1707 0.930 . S
C1715 C1716 1.355 . S
C1715 C1717 1.415 . S
C1716 C1715 1.355 . S
C1716 C1718 1.419 . S
C1717 C1712 1.425 . S
C1717 C1714 1.409 . S
C1717 C1715 1.415 . S
C1718 H1708 0.930 . S
C1718 C1716 1.419 . S
C1718 C1719 1.362 . S
C1719 H1709 0.930 . S
C1719 C1712 1.409 . S
C1719 C1718 1.362 . S
H1720 C1726 0.930 . S
H1721 C1729 0.930 . S
H1722 C1730 0.930 . S
H1723 C1731 0.930 . S
H1724 C1734 0.930 . S
H1725 C1735 0.930 . S
C1726 H1720 0.930 . S
C1726 C1727 1.355 . S
C1726 C1728 1.415 . S
C1727 C1726 1.355 . S
C1727 C1729 1.419 . S
C1728 C1726 1.415 . S
C1728 C1733 1.425 . S
C1728 C1735 1.409 . S
C1729 H1721 0.930 . S
C1729 C1727 1.419 . S
C1729 C1730 1.362 . S
C1730 H1722 0.930 . S
C1730 C1729 1.362 . S
C1730 C1733 1.409 . S
C1731 H1723 0.930 . S
C1731 C1732 1.355 . S
C1731 C1733 1.415 . S
C1732 C1731 1.355 . S
C1732 C1734 1.419 . S
C1733 C1728 1.425 . S
C1733 C1730 1.409 . S
C1733 C1731 1.415 . S
C1734 H1724 0.930 . S
C1734 C1732 1.419 . S
C1734 C1735 1.362 . S
C1735 H1725 0.930 . S
C1735 C1728 1.409 . S
C1735 C1734 1.362 . S
H1736 C1742 0.930 . S
H1737 C1745 0.930 . S
H1738 C1746 0.930 . S
H1739 C1747 0.930 . S
H1740 C1750 0.930 . S
H1741 C1751 0.930 . S
C1742 H1736 0.930 . S
C1742 C1743 1.355 . S
C1742 C1744 1.415 . S
C1743 C1742 1.355 . S
C1743 C1745 1.419 . S
C1744 C1742 1.415 . S
C1744 C1749 1.425 . S
C1744 C1751 1.409 . S
C1745 H1737 0.930 . S
C1745 C1743 1.419 . S
C1745 C1746 1.362 . S
C1746 H1738 0.930 . S
C1746 C1745 1.362 . S
C1746 C1749 1.409 . S
C1747 H1739 0.930 . S
C1747 C1748 1.355 . S
C1747 C1749 1.415 . S
C1748 C1747 1.355 . S
C1748 C1750 1.419 . S
C1749 C1744 1.425 . S
C1749 C1746 1.409 . S
C1749 C1747 1.415 . S
C1750 H1740 0.930 . S
C1750 C1748 1.419 . S
C1750 C1751 1.362 . S
C1751 H1741 0.930 . S
C1751 C1744 1.409 . S
C1751 C1750 1.362 . S
H1752 C1758 0.930 . S
H1753 C1761 0.930 . S
H1754 C1762 0.930 . S
H1755 C1763 0.930 . S
H1756 C1766 0.930 . S
H1757 C1767 0.930 . S
C1758 H1752 0.930 . S
C1758 C1759 1.355 . S
C1758 C1760 1.415 . S
C1759 C1758 1.355 . S
C1759 C1761 1.419 . S
C1760 C1758 1.415 . S
C1760 C1765 1.425 . S
C1760 C1767 1.409 . S
C1761 H1753 0.930 . S
C1761 C1759 1.419 . S
C1761 C1762 1.362 . S
C1762 H1754 0.930 . S
C1762 C1761 1.362 . S
C1762 C1765 1.409 . S
C1763 H1755 0.930 . S
C1763 C1764 1.355 . S
C1763 C1765 1.415 . S
C1764 C1763 1.355 . S
C1764 C1766 1.419 . S
C1765 C1760 1.425 . S
C1765 C1762 1.409 . S
C1765 C1763 1.415 . S
C1766 H1756 0.930 . S
C1766 C1764 1.419 . S
C1766 C1767 1.362 . S
C1767 H1757 0.930 . S
C1767 C1760 1.409 . S
C1767 C1766 1.362 . S
H1768 C1774 0.930 . S
H1769 C1777 0.930 . S
H1770 C1778 0.930 . S
H1771 C1779 0.930 . S
H1772 C1782 0.930 . S
H1773 C1783 0.930 . S
C1774 H1768 0.930 . S
C1774 C1775 1.355 . S
C1774 C1776 1.415 . S
C1775 C1774 1.355 . S
C1775 C1777 1.419 . S
C1776 C1774 1.415 . S
C1776 C1781 1.425 . S
C1776 C1783 1.409 . S
C1777 H1769 0.930 . S
C1777 C1775 1.419 . S
C1777 C1778 1.362 . S
C1778 H1770 0.930 . S
C1778 C1777 1.362 . S
C1778 C1781 1.409 . S
C1779 H1771 0.930 . S
C1779 C1780 1.355 . S
C1779 C1781 1.415 . S
C1780 C1779 1.355 . S
C1780 C1782 1.419 . S
C1781 C1776 1.425 . S
C1781 C1778 1.409 . S
C1781 C1779 1.415 . S
C1782 H1772 0.930 . S
C1782 C1780 1.419 . S
C1782 C1783 1.362 . S
C1783 H1773 0.930 . S
C1783 C1776 1.409 . S
C1783 C1782 1.362 . S
H1784 C1790 0.930 . S
H1785 C1793 0.930 . S
H1786 C1794 0.930 . S
H1787 C1795 0.930 . S
H1788 C1798 0.930 . S
H1789 C1799 0.930 . S
C1790 H1784 0.930 . S
C1790 C1791 1.355 . S
C1790 C1792 1.415 . S
C1791 C1790 1.355 . S
C1791 C1793 1.419 . S
C1792 C1790 1.415 . S
C1792 C1797 1.425 . S
C1792 C1799 1.409 . S
C1793 H1785 0.930 . S
C1793 C1791 1.419 . S
C1793 C1794 1.362 . S
C1794 H1786 0.930 . S
C1794 C1793 1.362 . S
C1794 C1797 1.409 . S
C1795 H1787 0.930 . S
C1795 C1796 1.355 . S
C1795 C1797 1.415 . S
C1796 C1795 1.355 . S
C1796 C1798 1.419 . S
C1797 C1792 1.425 . S
C1797 C1794 1.409 . S
C1797 C1795 1.415 . S
C1798 H1788 0.930 . S
C1798 C1796 1.419 . S
C1798 C1799 1.362 . S
C1799 H1789 0.930 . S
C1799 C1792 1.409 . S
C1799 C1798 1.362 . S
H1800 C1806 0.930 . S
H1801 C1809 0.930 . S
H1802 C1810 0.930 . S
H1803 C1811 0.930 . S
H1804 C1814 0.930 . S
H1805 C1815 0.930 . S
C1806 H1800 0.930 . S
C1806 C1807 1.355 . S
C1806 C1808 1.415 . S
C1807 C1806 1.355 . S
C1807 C1809 1.419 . S
C1808 C1806 1.415 . S
C1808 C1813 1.425 . S
C1808 C1815 1.409 . S
C1809 H1801 0.930 . S
C1809 C1807 1.419 . S
C1809 C1810 1.362 . S
C1810 H1802 0.930 . S
C1810 C1809 1.362 . S
C1810 C1813 1.409 . S
C1811 H1803 0.930 . S
C1811 C1812 1.355 . S
C1811 C1813 1.415 . S
C1812 C1811 1.355 . S
C1812 C1814 1.419 . S
C1813 C1808 1.425 . S
C1813 C1810 1.409 . S
C1813 C1811 1.415 . S
C1814 H1804 0.930 . S
C1814 C1812 1.419 . S
C1814 C1815 1.362 . S
C1815 H1805 0.930 . S
C1815 C1808 1.409 . S
C1815 C1814 1.362 . S
H1816 C1822 0.930 . S
H1817 C1825 0.930 . S
H1818 C1826 0.930 . S
H1819 C1827 0.930 . S
H1820 C1830 0.930 . S
H1821 C1831 0.930 . S
C1822 H1816 0.930 . S
C1822 C1823 1.355 . S
C1822 C1824 1.415 . S
C1823 C1822 1.355 . S
C1823 C1825 1.419 . S
C1824 C1822 1.415 . S
C1824 C1829 1.425 . S
C1824 C1831 1.409 . S
C1825 H1817 0.930 . S
C1825 C1823 1.419 . S
C1825 C1826 1.362 . S
C1826 H1818 0.930 . S
C1826 C1825 1.362 . S
C1826 C1829 1.409 . S
C1827 H1819 0.930 . S
C1827 C1828 1.355 . S
C1827 C1829 1.415 . S
C1828 C1827 1.355 . S
C1828 C1830 1.419 . S
C1829 C1824 1.425 . S
C1829 C1826 1.409 . S
C1829 C1827 1.415 . S
C1830 H1820 0.930 . S
C1830 C1828 1.419 . S
C1830 C1831 1.362 . S
C1831 H1821 0.930 . S
C1831 C1824 1.409 . S
C1831 C1830 1.362 . S
H1832 C1838 0.930 . S
H1833 C1841 0.930 . S
H1834 C1842 0.930 . S
H1835 C1843 0.930 . S
H1836 C1846 0.930 . S
H1837 C1847 0.930 . S
C1838 H1832 0.930 . S
C1838 C1839 1.355 . S
C1838 C1840 1.415 . S
C1839 C1838 1.355 . S
C1839 C1841 1.419 . S
C1840 C1838 1.415 . S
C1840 C1845 1.425 . S
C1840 C1847 1.409 . S
C1841 H1833 0.930 . S
C1841 C1839 1.419 . S
C1841 C1842 1.362 . S
C1842 H1834 0.930 . S
C1842 C1841 1.362 . S
C1842 C1845 1.409 . S
C1843 H1835 0.930 . S
C1843 C1844 1.355 . S
C1843 C1845 1.415 . S
C1844 C1843 1.355 . S
C1844 C1846 1.419 . S
C1845 C1840 1.425 . S
C1845 C1842 1.409 . S
C1845 C1843 1.415 . S
C1846 H1836 0.930 . S
C1846 C1844 1.419 . S
C1846 C1847 1.362 . S
C1847 H1837 0.930 . S
C1847 C1840 1.409 . S
C1847 C1846 1.362 . S
H1848 C1854 0.930 . S
H1849 C1857 0.930 . S
H1850 C1858 0.930 . S
H1851 C1859 0.930 . S
H1852 C1862 0.930 . S
H1853 C1863 0.930 . S
C1854 H1848 0.930 . S
C1854 C1855 1.355 . S
C1854 C1856 1.415 . S
C1855 C1854 1.355 . S
C1855 C1857 1.419 . S
C1856 C1854 1.415 . S
C1856 C1861 1.425 . S
C1856 C1863 1.409 . S
C1857 H1849 0.930 . S
C1857 C1855 1.419 . S
C1857 C1858 1.362 . S
C1858 H1850 0.930 . S
C1858 C1857 1.362 . S
C1858 C1861 1.409 . S
C1859 H1851 0.930 . S
C1859 C1860 1.355 . S
C1859 C1861 1.415 . S
C1860 C1859 1.355 . S
C1860 C1862 1.419 . S
C1861 C1856 1.425 . S
C1861 C1858 1.409 . S
C1861 C1859 1.415 . S
C1862 H1852 0.930 . S
C1862 C1860 1.419 . S
C1862 C1863 1.362 . S
C1863 H1853 0.930 . S
C1863 C1856 1.409 . S
C1863 C1862 1.362 . S
H1864 C1870 0.930 . S
H1865 C1873 0.930 . S
H1866 C1874 0.930 . S
H1867 C1875 0.930 . S
H1868 C1878 0.930 . S
H1869 C1879 0.930 . S
C1870 H1864 0.930 . S
C1870 C1871 1.355 . S
C1870 C1872 1.415 . S
C1871 C1870 1.355 . S
C1871 C1873 1.419 . S
C1872 C1870 1.415 . S
C1872 C1877 1.425 . S
C1872 C1879 1.409 . S
C1873 H1865 0.930 . S
C1873 C1871 1.419 . S
C1873 C1874 1.362 . S
C1874 H1866 0.930 . S
C1874 C1873 1.362 . S
C1874 C1877 1.409 . S
C1875 H1867 0.930 . S
C1875 C1876 1.355 . S
C1875 C1877 1.415 . S
C1876 C1875 1.355 . S
C1876 C1878 1.419 . S
C1877 C1872 1.425 . S
C1877 C1874 1.409 . S
C1877 C1875 1.415 . S
C1878 H1868 0.930 . S
C1878 C1876 1.419 . S
C1878 C1879 1.362 . S
C1879 H1869 0.930 . S
C1879 C1872 1.409 . S
C1879 C1878 1.362 . S
H1880 C1886 0.930 . S
H1881 C1889 0.930 . S
H1882 C1890 0.930 . S
H1883 C1891 0.930 . S
H1884 C1894 0.930 . S
H1885 C1895 0.930 . S
C1886 H1880 0.930 . S
C1886 C1887 1.355 . S
C1886 C1888 1.415 . S
C1887 C1886 1.355 . S
C1887 C1889 1.419 . S
C1888 C1886 1.415 . S
C1888 C1893 1.425 . S
C1888 C1895 1.409 . S
C1889 H1881 0.930 . S
C1889 C1887 1.419 . S
C1889 C1890 1.362 . S
C1890 H1882 0.930 . S
C1890 C1889 1.362 . S
C1890 C1893 1.409 . S
C1891 H1883 0.930 . S
C1891 C1892 1.355 . S
C1891 C1893 1.415 . S
C1892 C1891 1.355 . S
C1892 C1894 1.419 . S
C1893 C1888 1.425 . S
C1893 C1890 1.409 . S
C1893 C1891 1.415 . S
C1894 H1884 0.930 . S
C1894 C1892 1.419 . S
C1894 C1895 1.362 . S
C1895 H1885 0.930 . S
C1895 C1888 1.409 . S
C1895 C1894 1.362 . S
H1896 C1902 0.930 . S
H1897 C1905 0.930 . S
H1898 C1906 0.930 . S
H1899 C1907 0.930 . S
H1900 C1910 0.930 . S
H1901 C1911 0.930 . S
C1902 H1896 0.930 . S
C1902 C1903 1.355 . S
C1902 C1904 1.415 . S
C1903 C1902 1.355 . S
C1903 C1905 1.419 . S
C1904 C1902 1.415 . S
C1904 C1909 1.425 . S
C1904 C1911 1.409 . S
C1905 H1897 0.930 . S
C1905 C1903 1.419 . S
C1905 C1906 1.362 . S
C1906 H1898 0.930 . S
C1906 C1905 1.362 . S
C1906 C1909 1.409 . S
C1907 H1899 0.930 . S
C1907 C1908 1.355 . S
C1907 C1909 1.415 . S
C1908 C1907 1.355 . S
C1908 C1910 1.419 . S
C1909 C1904 1.425 . S
C1909 C1906 1.409 . S
C1909 C1907 1.415 . S
C1910 H1900 0.930 . S
C1910 C1908 1.419 . S
C1910 C1911 1.362 . S
C1911 H1901 0.930 . S
C1911 C1904 1.409 . S
C1911 C1910 1.362 . S
H1912 C1918 0.930 . S
H1913 C1921 0.930 . S
H1914 C1922 0.930 . S
H1915 C1923 0.930 . S
H1916 C1926 0.930 . S
H1917 C1927 0.930 . S
C1918 H1912 0.930 . S
C1918 C1919 1.355 . S
C1918 C1920 1.415 . S
C1919 C1918 1.355 . S
C1919 C1921 1.419 . S
C1920 C1918 1.415 . S
C1920 C1925 1.425 . S
C1920 C1927 1.409 . S
C1921 H1913 0.930 . S
C1921 C1919 1.419 . S
C1921 C1922 1.362 . S
C1922 H1914 0.930 . S
C1922 C1921 1.362 . S
C1922 C1925 1.409 . S
C1923 H1915 0.930 . S
C1923 C1924 1.355 . S
C1923 C1925 1.415 . S
C1924 C1923 1.355 . S
C1924 C1926 1.419 . S
C1925 C1920 1.425 . S
C1925 C1922 1.409 . S
C1925 C1923 1.415 . S
C1926 H1916 0.930 . S
C1926 C1924 1.419 . S
C1926 C1927 1.362 . S
C1927 H1917 0.930 . S
C1927 C1920 1.409 . S
C1927 C1926 1.362 . S
H1928 C1934 0.930 . S
H1929 C1937 0.930 . S
H1930 C1938 0.930 . S
H1931 C1939 0.930 . S
H1932 C1942 0.930 . S
H1933 C1943 0.930 . S
C1934 H1928 0.930 . S
C1934 C1935 1.355 . S
C1934 C1936 1.415 . S
C1935 C1934 1.355 . S
C1935 C1937 1.419 . S
C1936 C1934 1.415 . S
C1936 C1941 1.425 . S
C1936 C1943 1.409 . S
C1937 H1929 0.930 . S
C1937 C1935 1.419 . S
C1937 C1938 1.362 . S
C1938 H1930 0.930 . S
C1938 C1937 1.362 . S
C1938 C1941 1.409 . S
C1939 H1931 0.930 . S
C1939 C1940 1.355 . S
C1939 C1941 1.415 . S
C1940 C1939 1.355 . S
C1940 C1942 1.419 . S
C1941 C1936 1.425 . S
C1941 C1938 1.409 . S
C1941 C1939 1.415 . S
C1942 H1932 0.930 . S
C1942 C1940 1.419 . S
C1942 C1943 1.362 . S
C1943 H1933 0.930 . S
C1943 C1936 1.409 . S
C1943 C1942 1.362 . S
H1944 C1950 0.930 . S
H1945 C1953 0.930 . S
H1946 C1954 0.930 . S
H1947 C1955 0.930 . S
H1948 C1958 0.930 . S
H1949 C1959 0.930 . S
C1950 H1944 0.930 . S
C1950 C1951 1.355 . S
C1950 C1952 1.415 . S
C1951 C1950 1.355 . S
C1951 C1953 1.419 . S
C1952 C1950 1.415 . S
C1952 C1957 1.425 . S
C1952 C1959 1.409 . S
C1953 H1945 0.930 . S
C1953 C1951 1.419 . S
C1953 C1954 1.362 . S
C1954 H1946 0.930 . S
C1954 C1953 1.362 . S
C1954 C1957 1.409 . S
C1955 H1947 0.930 . S
C1955 C1956 1.355 . S
C1955 C1957 1.415 . S
C1956 C1955 1.355 . S
C1956 C1958 1.419 . S
C1957 C1952 1.425 . S
C1957 C1954 1.409 . S
C1957 C1955 1.415 . S
C1958 H1948 0.930 . S
C1958 C1956 1.419 . S
C1958 C1959 1.362 . S
C1959 H1949 0.930 . S
C1959 C1952 1.409 . S
C1959 C1958 1.362 . S
H1960 C1966 0.930 . S
H1961 C1969 0.930 . S
H1962 C1970 0.930 . S
H1963 C1971 0.930 . S
H1964 C1974 0.930 . S
H1965 C1975 0.930 . S
C1966 H1960 0.930 . S
C1966 C1967 1.355 . S
C1966 C1968 1.415 . S
C1967 C1966 1.355 . S
C1967 C1969 1.419 . S
C1968 C1966 1.415 . S
C1968 C1973 1.425 . S
C1968 C1975 1.409 . S
C1969 H1961 0.930 . S
C1969 C1967 1.419 . S
C1969 C1970 1.362 . S
C1970 H1962 0.930 . S
C1970 C1969 1.362 . S
C1970 C1973 1.409 . S
C1971 H1963 0.930 . S
C1971 C1972 1.355 . S
C1971 C1973 1.415 . S
C1972 C1971 1.355 . S
C1972 C1974 1.419 . S
C1973 C1968 1.425 . S
C1973 C1970 1.409 . S
C1973 C1971 1.415 . S
C1974 H1964 0.930 . S
C1974 C1972 1.419 . S
C1974 C1975 1.362 . S
C1975 H1965 0.930 . S
C1975 C1968 1.409 . S
C1975 C1974 1.362 . S
H1976 C1982 0.930 . S
H1977 C1985 0.930 . S
H1978 C1986 0.930 . S
H1979 C1987 0.930 . S
H1980 C1990 0.930 . S
H1981 C1991 0.930 . S
C1982 H1976 0.930 . S
C1982 C1983 1.355 . S
C1982 C1984 1.415 . S
C1983 C1982 1.355 . S
C1983 C1985 1.419 . S
C1984 C1982 1.415 . S
C1984 C1989 1.425 . S
C1984 C1991 1.409 . S
C1985 H1977 0.930 . S
C1985 C1983 1.419 . S
C1985 C1986 1.362 . S
C1986 H1978 0.930 . S
C1986 C1985 1.362 . S
C1986 C1989 1.409 . S
C1987 H1979 0.930 . S
C1987 C1988 1.355 . S
C1987 C1989 1.415 . S
C1988 C1987 1.355 . S
C1988 C1990 1.419 . S
C1989 C1984 1.425 . S
C1989 C1986 1.409 . S
C1989 C1987 1.415 . S
C1990 H1980 0.930 . S
C1990 C1988 1.419 . S
C1990 C1991 1.362 . S
C1991 H1981 0.930 . S
C1991 C1984 1.409 . S
C1991 C1990 1.362 . S
H1992 C1998 0.930 . S
H1993 C2001 0.930 . S
H1994 C2002 0.930 . S
H1995 C2003 0.930 . S
H1996 C2006 0.930 . S
H1997 C2007 0.930 . S
C1998 H1992 0.930 . S
C1998 C1999 1.355 . S
C1998 C2000 1.415 . S
C1999 C1998 1.355 . S
C1999 C2001 1.419 . S
C2000 C1998 1.415 . S
C2000 C2005 1.425 . S
C2000 C2007 1.409 . S
C2001 H1993 0.930 . S
C2001 C1999 1.419 . S
C2001 C2002 1.362 . S
C2002 H1994 0.930 . S
C2002 C2001 1.362 . S
C2002 C2005 1.409 . S
C2003 H1995 0.930 . S
C2003 C2004 1.355 . S
C2003 C2005 1.415 . S
C2004 C2003 1.355 . S
C2004 C2006 1.419 . S
C2005 C2000 1.425 . S
C2005 C2002 1.409 . S
C2005 C2003 1.415 . S
C2006 H1996 0.930 . S
C2006 C2004 1.419 . S
C2006 C2007 1.362 . S
C2007 H1997 0.930 . S
C2007 C2000 1.409 . S
C2007 C2006 1.362 . S
H2008 C2014 0.930 . S
H2009 C2017 0.930 . S
H2010 C2018 0.930 . S
H2011 C2019 0.930 . S
H2012 C2022 0.930 . S
H2013 C2023 0.930 . S
C2014 H2008 0.930 . S
C2014 C2015 1.355 . S
C2014 C2016 1.415 . S
C2015 C2014 1.355 . S
C2015 C2017 1.419 . S
C2016 C2014 1.415 . S
C2016 C2021 1.425 . S
C2016 C2023 1.409 . S
C2017 H2009 0.930 . S
C2017 C2015 1.419 . S
C2017 C2018 1.362 . S
C2018 H2010 0.930 . S
C2018 C2017 1.362 . S
C2018 C2021 1.409 . S
C2019 H2011 0.930 . S
C2019 C2020 1.355 . S
C2019 C2021 1.415 . S
C2020 C2019 1.355 . S
C2020 C2022 1.419 . S
C2021 C2016 1.425 . S
C2021 C2018 1.409 . S
C2021 C2019 1.415 . S
C2022 H2012 0.930 . S
C2022 C2020 1.419 . S
C2022 C2023 1.362 . S
C2023 H2013 0.930 . S
C2023 C2016 1.409 . S
C2023 C2022 1.362 . S
H2024 C2030 0.930 . S
H2025 C2033 0.930 . S
H2026 C2034 0.930 . S
H2027 C2035 0.930 . S
H2028 C2038 0.930 . S
H2029 C2039 0.930 . S
C2030 H2024 0.930 . S
C2030 C2031 1.355 . S
C2030 C2032 1.415 . S
C2031 C2030 1.355 . S
C2031 C2033 1.419 . S
C2032 C2030 1.415 . S
C2032 C2037 1.425 . S
C2032 C2039 1.409 . S
C2033 H2025 0.930 . S
C2033 C2031 1.419 . S
C2033 C2034 1.362 . S
C2034 H2026 0.930 . S
C2034 C2033 1.362 . S
C2034 C2037 1.409 . S
C2035 H2027 0.930 . S
C2035 C2036 1.355 . S
C2035 C2037 1.415 . S
C2036 C2035 1.355 . S
C2036 C2038 1.419 . S
C2037 C2032 1.425 . S
C2037 C2034 1.409 . S
C2037 C2035 1.415 . S
C2038 H2028 0.930 . S
C2038 C2036 1.419 . S
C2038 C2039 1.362 . S
C2039 H2029 0.930 . S
C2039 C2032 1.409 . S
C2039 C2038 1.362 . S
H2040 C2046 0.930 . S
H2041 C2049 0.930 . S
H2042 C2050 0.930 . S
H2043 C2051 0.930 . S
H2044 C2054 0.930 . S
H2045 C2055 0.930 . S
C2046 H2040 0.930 . S
C2046 C2047 1.355 . S
C2046 C2048 1.415 . S
C2047 C2046 1.355 . S
C2047 C2049 1.419 . S
C2048 C2046 1.415 . S
C2048 C2053 1.425 . S
C2048 C2055 1.409 . S
C2049 H2041 0.930 . S
C2049 C2047 1.419 . S
C2049 C2050 1.362 . S
C2050 H2042 0.930 . S
C2050 C2049 1.362 . S
C2050 C2053 1.409 . S
C2051 H2043 0.930 . S
C2051 C2052 1.355 . S
C2051 C2053 1.415 . S
C2052 C2051 1.355 . S
C2052 C2054 1.419 . S
C2053 C2048 1.425 . S
C2053 C2050 1.409 . S
C2053 C2051 1.415 . S
C2054 H2044 0.930 . S
C2054 C2052 1.419 . S
C2054 C2055 1.362 . S
C2055 H2045 0.930 . S
C2055 C2048 1.409 . S
C2055 C2054 1.362 . S
H2056 C2062 0.930 . S
H2057 C2065 0.930 . S
H2058 C2066 0.930 . S
H2059 C2067 0.930 . S
H2060 C2070 0.930 . S
H2061 C2071 0.930 . S
C2062 H2056 0.930 . S
C2062 C2063 1.355 . S
C2062 C2064 1.415 . S
C2063 C2062 1.355 . S
C2063 C2065 1.419 . S
C2064 C2062 1.415 . S
C2064 C2069 1.425 . S
C2064 C2071 1.409 . S
C2065 H2057 0.930 . S
C2065 C2063 1.419 . S
C2065 C2066 1.362 . S
C2066 H2058 0.930 . S
C2066 C2065 1.362 . S
C2066 C2069 1.409 . S
C2067 H2059 0.930 . S
C2067 C2068 1.355 . S
C2067 C2069 1.415 . S
C2068 C2067 1.355 . S
C2068 C2070 1.419 . S
C2069 C2064 1.425 . S
C2069 C2066 1.409 . S
C2069 C2067 1.415 . S
C2070 H2060 0.930 . S
C2070 C2068 1.419 . S
C2070 C2071 1.362 . S
C2071 H2061 0.930 . S
C2071 C2064 1.409 . S
C2071 C2070 1.362 . S
H2072 C2078 0.930 . S
H2073 C2081 0.930 . S
H2074 C2082 0.930 . S
H2075 C2083 0.930 . S
H2076 C2086 0.930 . S
H2077 C2087 0.930 . S
C2078 H2072 0.930 . S
C2078 C2079 1.355 . S
C2078 C2080 1.415 . S
C2079 C2078 1.355 . S
C2079 C2081 1.419 . S
C2080 C2078 1.415 . S
C2080 C2085 1.425 . S
C2080 C2087 1.409 . S
C2081 H2073 0.930 . S
C2081 C2079 1.419 . S
C2081 C2082 1.362 . S
C2082 H2074 0.930 . S
C2082 C2081 1.362 . S
C2082 C2085 1.409 . S
C2083 H2075 0.930 . S
C2083 C2084 1.355 . S
C2083 C2085 1.415 . S
C2084 C2083 1.355 . S
C2084 C2086 1.419 . S
C2085 C2080 1.425 . S
C2085 C2082 1.409 . S
C2085 C2083 1.415 . S
C2086 H2076 0.930 . S
C2086 C2084 1.419 . S
C2086 C2087 1.362 . S
C2087 H2077 0.930 . S
C2087 C2080 1.409 . S
C2087 C2086 1.362 . S
H2088 C2094 0.930 . S
H2089 C2097 0.930 . S
H2090 C2098 0.930 . S
H2091 C2099 0.930 . S
H2092 C2102 0.930 . S
H2093 C2103 0.930 . S
C2094 H2088 0.930 . S
C2094 C2095 1.355 . S
C2094 C2096 1.415 . S
C2095 C2094 1.355 . S
C2095 C2097 1.419 . S
C2096 C2094 1.415 . S
C2096 C2101 1.425 . S
C2096 C2103 1.409 . S
C2097 H2089 0.930 . S
C2097 C2095 1.419 . S
C2097 C2098 1.362 . S
C2098 H2090 0.930 . S
C2098 C2097 1.362 . S
C2098 C2101 1.409 . S
C2099 H2091 0.930 . S
C2099 C2100 1.355 . S
C2099 C2101 1.415 . S
C2100 C2099 1.355 . S
C2100 C2102 1.419 . S
C2101 C2096 1.425 . S
C2101 C2098 1.409 . S
C2101 C2099 1.415 . S
C2102 H2092 0.930 . S
C2102 C2100 1.419 . S
C2102 C2103 1.362 . S
C2103 H2093 0.930 . S
C2103 C2096 1.409 . S
C2103 C2102 1.362 . S
H2104 C2110 0.930 . S
H2105 C2113 0.930 . S
H2106 C2114 0.930 . S
H2107 C2115 0.930 . S
H2108 C2118 0.930 . S
H2109 C2119 0.930 . S
C2110 H2104 0.930 . S
C2110 C2111 1.355 . S
C2110 C2112 1.415 . S
C2111 C2110 1.355 . S
C2111 C2113 1.419 . S
C2112 C2110 1.415 . S
C2112 C2117 1.425 . S
C2112 C2119 1.409 . S
C2113 H2105 0.930 . S
C2113 C2111 1.419 . S
C2113 C2114 1.362 . S
C2114 H2106 0.930 . S
C2114 C2113 1.362 . S
C2114 C2117 1.409 . S
C2115 H2107 0.930 . S
C2115 C2116 1.355 . S
C2115 C2117 1.415 . S
C2116 C2115 1.355 . S
C2116 C2118 1.419 . S
C2117 C2112 1.425 . S
C2117 C2114 1.409 . S
C2117 C2115 1.415 . S
C2118 H2108 0.930 . S
C2118 C2116 1.419 . S
C2118 C2119 1.362 . S
C2119 H2109 0.930 . S
C2119 C2112 1.409 . S
C2119 C2118 1.362 . S
H2120 C2126 0.930 . S
H2121 C2129 0.930 . S
H2122 C2130 0.930 . S
H2123 C2131 0.930 . S
H2124 C2134 0.930 . S
H2125 C2135 0.930 . S
C2126 H2120 0.930 . S
C2126 C2127 1.355 . S
C2126 C2128 1.415 . S
C2127 C2126 1.355 . S
C2127 C2129 1.419 . S
C2128 C2126 1.415 . S
C2128 C2133 1.425 . S
C2128 C2135 1.409 . S
C2129 H2121 0.930 . S
C2129 C2127 1.419 . S
C2129 C2130 1.362 . S
C2130 H2122 0.930 . S
C2130 C2129 1.362 . S
C2130 C2133 1.409 . S
C2131 H2123 0.930 . S
C2131 C2132 1.355 . S
C2131 C2133 1.415 . S
C2132 C2131 1.355 . S
C2132 C2134 1.419 . S
C2133 C2128 1.425 . S
C2133 C2130 1.409 . S
C2133 C2131 1.415 . S
C2134 H2124 0.930 . S
C2134 C2132 1.419 . S
C2134 C2135 1.362 . S
C2135 H2125 0.930 . S
C2135 C2128 1.409 . S
C2135 C2134 1.362 . S
H2136 C2142 0.930 . S
H2137 C2145 0.930 1_554 S
H2138 C2146 0.930 . S
H2139 C2147 0.930 . S
H2140 C2150 0.930 . S
H2141 C2151 0.930 . S
C2142 H2136 0.930 . S
C2142 C2143 1.355 . S
C2142 C2144 1.415 . S
C2143 C2142 1.355 . S
C2143 C2145 1.419 . S
C2144 C2142 1.415 . S
C2144 C2149 1.425 . S
C2144 C2151 1.409 . S
C2145 H2137 0.930 1_556 S
C2145 C2143 1.419 . S
C2145 C2146 1.362 . S
C2146 H2138 0.930 . S
C2146 C2145 1.362 . S
C2146 C2149 1.409 . S
C2147 H2139 0.930 . S
C2147 C2148 1.355 . S
C2147 C2149 1.415 . S
C2148 C2147 1.355 . S
C2148 C2150 1.419 . S
C2149 C2144 1.425 . S
C2149 C2146 1.409 . S
C2149 C2147 1.415 . S
C2150 H2140 0.930 . S
C2150 C2148 1.419 . S
C2150 C2151 1.362 . S
C2151 H2141 0.930 . S
C2151 C2144 1.409 . S
C2151 C2150 1.362 . S
H2152 C2158 0.930 . S
H2153 C2161 0.930 1_554 S
H2154 C2162 0.918 1_554 S
H2155 C2163 0.930 . S
H2156 C2166 0.930 . S
H2157 C2167 0.930 . S
C2158 H2152 0.930 . S
C2158 C2159 1.355 . S
C2158 C2160 1.415 . S
C2159 C2158 1.355 . S
C2159 C2161 1.419 . S
C2160 C2158 1.415 . S
C2160 C2165 1.425 . S
C2160 C2167 1.409 . S
C2161 H2153 0.930 1_556 S
C2161 C2159 1.419 . S
C2161 C2162 1.362 . S
C2162 H2154 0.918 1_556 S
C2162 C2161 1.362 . S
C2162 C2165 1.409 . S
C2163 H2155 0.930 . S
C2163 C2164 1.355 . S
C2163 C2165 1.415 . S
C2164 C2163 1.355 . S
C2164 C2166 1.419 . S
C2165 C2160 1.425 . S
C2165 C2162 1.409 . S
C2165 C2163 1.415 . S
C2166 H2156 0.930 . S
C2166 C2164 1.419 . S
C2166 C2167 1.362 . S
C2167 H2157 0.930 . S
C2167 C2160 1.409 . S
C2167 C2166 1.362 . S
H2168 C2174 0.930 . S
H2169 C2177 0.930 1_554 S
H2170 C2178 0.919 1_554 S
H2171 C2179 0.930 . S
H2172 C2182 0.930 . S
H2173 C2183 0.930 . S
C2174 H2168 0.930 . S
C2174 C2175 1.355 . S
C2174 C2176 1.415 . S
C2175 C2174 1.355 . S
C2175 C2177 1.419 . S
C2176 C2174 1.415 . S
C2176 C2181 1.425 . S
C2176 C2183 1.409 . S
C2177 H2169 0.930 1_556 S
C2177 C2175 1.419 . S
C2177 C2178 1.362 . S
C2178 H2170 0.919 1_556 S
C2178 C2177 1.362 . S
C2178 C2181 1.409 . S
C2179 H2171 0.930 . S
C2179 C2180 1.355 . S
C2179 C2181 1.415 . S
C2180 C2179 1.355 . S
C2180 C2182 1.419 . S
C2181 C2176 1.425 . S
C2181 C2178 1.409 . S
C2181 C2179 1.415 . S
C2182 H2172 0.930 . S
C2182 C2180 1.419 . S
C2182 C2183 1.362 . S
C2183 H2173 0.930 . S
C2183 C2176 1.409 . S
C2183 C2182 1.362 . S
H2184 C2190 0.930 . S
H2185 C2193 0.930 . S
H2186 C2194 0.930 . S
H2187 C2195 0.930 . S
H2188 C2198 0.930 . S
H2189 C2199 0.930 . S
C2190 H2184 0.930 . S
C2190 C2191 1.355 . S
C2190 C2192 1.415 . S
C2191 C2190 1.355 . S
C2191 C2193 1.419 . S
C2192 C2190 1.415 . S
C2192 C2197 1.425 . S
C2192 C2199 1.409 . S
C2193 H2185 0.930 . S
C2193 C2191 1.419 . S
C2193 C2194 1.362 . S
C2194 H2186 0.930 . S
C2194 C2193 1.362 . S
C2194 C2197 1.409 . S
C2195 H2187 0.930 . S
C2195 C2196 1.355 . S
C2195 C2197 1.415 . S
C2196 C2195 1.355 . S
C2196 C2198 1.419 . S
C2197 C2192 1.425 . S
C2197 C2194 1.409 . S
C2197 C2195 1.415 . S
C2198 H2188 0.930 . S
C2198 C2196 1.419 . S
C2198 C2199 1.362 . S
C2199 H2189 0.930 . S
C2199 C2192 1.409 . S
C2199 C2198 1.362 . S
H2200 C2206 0.930 . S
H2201 C2209 0.930 1_554 S
H2202 C2210 0.930 1_554 S
H2203 C2211 0.930 . S
H2204 C2214 0.930 . S
H2205 C2215 0.930 . S
C2206 H2200 0.930 . S
C2206 C2207 1.355 . S
C2206 C2208 1.415 . S
C2207 C2206 1.355 . S
C2207 C2209 1.419 . S
C2208 C2206 1.415 . S
C2208 C2213 1.425 . S
C2208 C2215 1.409 . S
C2209 H2201 0.930 1_556 S
C2209 C2207 1.419 . S
C2209 C2210 1.362 . S
C2210 H2202 0.930 1_556 S
C2210 C2209 1.362 . S
C2210 C2213 1.409 . S
C2211 H2203 0.930 . S
C2211 C2212 1.355 . S
C2211 C2213 1.415 . S
C2212 C2211 1.355 . S
C2212 C2214 1.419 . S
C2213 C2208 1.425 . S
C2213 C2210 1.409 . S
C2213 C2211 1.415 . S
C2214 H2204 0.930 . S
C2214 C2212 1.419 . S
C2214 C2215 1.362 . S
C2215 H2205 0.930 . S
C2215 C2208 1.409 . S
C2215 C2214 1.362 . S
H2216 C2222 0.930 . S
H2217 C2225 0.930 . S
H2218 C2226 0.930 . S
H2219 C2227 0.930 . S
H2220 C2230 0.930 . S
H2221 C2231 0.930 . S
C2222 H2216 0.930 . S
C2222 C2223 1.355 . S
C2222 C2224 1.415 . S
C2223 C2222 1.355 . S
C2223 C2225 1.419 . S
C2224 C2222 1.415 . S
C2224 C2229 1.425 . S
C2224 C2231 1.409 . S
C2225 H2217 0.930 . S
C2225 C2223 1.419 . S
C2225 C2226 1.362 . S
C2226 H2218 0.930 . S
C2226 C2225 1.362 . S
C2226 C2229 1.409 . S
C2227 H2219 0.930 . S
C2227 C2228 1.355 . S
C2227 C2229 1.415 . S
C2228 C2227 1.355 . S
C2228 C2230 1.419 . S
C2229 C2224 1.425 . S
C2229 C2226 1.409 . S
C2229 C2227 1.415 . S
C2230 H2220 0.930 . S
C2230 C2228 1.419 . S
C2230 C2231 1.362 . S
C2231 H2221 0.930 . S
C2231 C2224 1.409 . S
C2231 C2230 1.362 . S
H2232 C2238 0.930 . S
H2233 C2241 0.930 . S
H2234 C2242 0.930 . S
H2235 C2243 0.930 . S
H2236 C2246 0.930 . S
H2237 C2247 0.930 . S
C2238 H2232 0.930 . S
C2238 C2239 1.355 . S
C2238 C2240 1.415 . S
C2239 C2238 1.355 . S
C2239 C2241 1.419 . S
C2240 C2238 1.415 . S
C2240 C2245 1.425 . S
C2240 C2247 1.409 . S
C2241 H2233 0.930 . S
C2241 C2239 1.419 . S
C2241 C2242 1.362 . S
C2242 H2234 0.930 . S
C2242 C2241 1.362 . S
C2242 C2245 1.409 . S
C2243 H2235 0.930 . S
C2243 C2244 1.355 . S
C2243 C2245 1.415 . S
C2244 C2243 1.355 . S
C2244 C2246 1.419 . S
C2245 C2240 1.425 . S
C2245 C2242 1.409 . S
C2245 C2243 1.415 . S
C2246 H2236 0.930 . S
C2246 C2244 1.419 . S
C2246 C2247 1.362 . S
C2247 H2237 0.930 . S
C2247 C2240 1.409 . S
C2247 C2246 1.362 . S
H2248 C2254 0.930 . S
H2249 C2257 0.930 . S
H2250 C2258 0.930 . S
H2251 C2259 0.930 . S
H2252 C2262 0.930 . S
H2253 C2263 0.930 . S
C2254 H2248 0.930 . S
C2254 C2255 1.355 . S
C2254 C2256 1.415 . S
C2255 C2254 1.355 . S
C2255 C2257 1.419 . S
C2256 C2254 1.415 . S
C2256 C2261 1.425 . S
C2256 C2263 1.409 . S
C2257 H2249 0.930 . S
C2257 C2255 1.419 . S
C2257 C2258 1.362 . S
C2258 H2250 0.930 . S
C2258 C2257 1.362 . S
C2258 C2261 1.409 . S
C2259 H2251 0.930 . S
C2259 C2260 1.355 . S
C2259 C2261 1.415 . S
C2260 C2259 1.355 . S
C2260 C2262 1.419 . S
C2261 C2256 1.425 . S
C2261 C2258 1.409 . S
C2261 C2259 1.415 . S
C2262 H2252 0.930 . S
C2262 C2260 1.419 . S
C2262 C2263 1.362 . S
C2263 H2253 0.930 . S
C2263 C2256 1.409 . S
C2263 C2262 1.362 . S
H2264 C2270 0.930 . S
H2265 C2273 0.930 . S
H2266 C2274 0.930 . S
H2267 C2275 0.930 . S
H2268 C2278 0.930 . S
H2269 C2279 0.930 . S
C2270 H2264 0.930 . S
C2270 C2271 1.355 . S
C2270 C2272 1.415 . S
C2271 C2270 1.355 . S
C2271 C2273 1.419 . S
C2272 C2270 1.415 . S
C2272 C2277 1.425 . S
C2272 C2279 1.409 . S
C2273 H2265 0.930 . S
C2273 C2271 1.419 . S
C2273 C2274 1.362 . S
C2274 H2266 0.930 . S
C2274 C2273 1.362 . S
C2274 C2277 1.409 . S
C2275 H2267 0.930 . S
C2275 C2276 1.355 . S
C2275 C2277 1.415 . S
C2276 C2275 1.355 . S
C2276 C2278 1.419 . S
C2277 C2272 1.425 . S
C2277 C2274 1.409 . S
C2277 C2275 1.415 . S
C2278 H2268 0.930 . S
C2278 C2276 1.419 . S
C2278 C2279 1.362 . S
C2279 H2269 0.930 . S
C2279 C2272 1.409 . S
C2279 C2278 1.362 . S
H2280 C2286 0.930 . S
H2281 C2289 0.930 . S
H2282 C2290 0.930 . S
H2283 C2291 0.930 . S
H2284 C2294 0.930 . S
H2285 C2295 0.930 . S
C2286 H2280 0.930 . S
C2286 C2287 1.355 . S
C2286 C2288 1.415 . S
C2287 C2286 1.355 . S
C2287 C2289 1.419 . S
C2288 C2286 1.415 . S
C2288 C2293 1.425 . S
C2288 C2295 1.409 . S
C2289 H2281 0.930 . S
C2289 C2287 1.419 . S
C2289 C2290 1.362 . S
C2290 H2282 0.930 . S
C2290 C2289 1.362 . S
C2290 C2293 1.409 . S
C2291 H2283 0.930 . S
C2291 C2292 1.355 . S
C2291 C2293 1.415 . S
C2292 C2291 1.355 . S
C2292 C2294 1.419 . S
C2293 C2288 1.425 . S
C2293 C2290 1.409 . S
C2293 C2291 1.415 . S
C2294 H2284 0.930 . S
C2294 C2292 1.419 . S
C2294 C2295 1.362 . S
C2295 H2285 0.930 . S
C2295 C2288 1.409 . S
C2295 C2294 1.362 . S
H2296 C2302 0.930 . S
H2297 C2305 0.930 . S
H2298 C2306 0.930 . S
H2299 C2307 0.930 . S
H2300 C2310 0.930 . S
H2301 C2311 0.930 . S
C2302 H2296 0.930 . S
C2302 C2303 1.355 . S
C2302 C2304 1.415 . S
C2303 C2302 1.355 . S
C2303 C2305 1.419 . S
C2304 C2302 1.415 . S
C2304 C2309 1.425 . S
C2304 C2311 1.409 . S
C2305 H2297 0.930 . S
C2305 C2303 1.419 . S
C2305 C2306 1.362 . S
C2306 H2298 0.930 . S
C2306 C2305 1.362 . S
C2306 C2309 1.409 . S
C2307 H2299 0.930 . S
C2307 C2308 1.355 . S
C2307 C2309 1.415 . S
C2308 C2307 1.355 . S
C2308 C2310 1.419 . S
C2309 C2304 1.425 . S
C2309 C2306 1.409 . S
C2309 C2307 1.415 . S
C2310 H2300 0.930 . S
C2310 C2308 1.419 . S
C2310 C2311 1.362 . S
C2311 H2301 0.930 . S
C2311 C2304 1.409 . S
C2311 C2310 1.362 . S
H2312 C2318 0.930 . S
H2313 C2321 0.930 . S
H2314 C2322 0.930 . S
H2315 C2323 0.930 . S
H2316 C2326 0.930 . S
H2317 C2327 0.930 . S
C2318 H2312 0.930 . S
C2318 C2319 1.355 . S
C2318 C2320 1.415 . S
C2319 C2318 1.355 . S
C2319 C2321 1.419 . S
C2320 C2318 1.415 . S
C2320 C2325 1.425 . S
C2320 C2327 1.409 . S
C2321 H2313 0.930 . S
C2321 C2319 1.419 . S
C2321 C2322 1.362 . S
C2322 H2314 0.930 . S
C2322 C2321 1.362 . S
C2322 C2325 1.409 . S
C2323 H2315 0.930 . S
C2323 C2324 1.355 . S
C2323 C2325 1.415 . S
C2324 C2323 1.355 . S
C2324 C2326 1.419 . S
C2325 C2320 1.425 . S
C2325 C2322 1.409 . S
C2325 C2323 1.415 . S
C2326 H2316 0.930 . S
C2326 C2324 1.419 . S
C2326 C2327 1.362 . S
C2327 H2317 0.930 . S
C2327 C2320 1.409 . S
C2327 C2326 1.362 . S
H2328 C2334 0.930 . S
H2329 C2337 0.930 . S
H2330 C2338 0.930 . S
H2331 C2339 0.930 . S
H2332 C2342 0.930 . S
H2333 C2343 0.930 . S
C2334 H2328 0.930 . S
C2334 C2335 1.355 . S
C2334 C2336 1.415 . S
C2335 C2334 1.355 . S
C2335 C2337 1.419 1_455 S
C2336 C2334 1.415 . S
C2336 C2341 1.425 1_455 S
C2336 C2343 1.409 . S
C2337 H2329 0.930 . S
C2337 C2335 1.419 1_655 S
C2337 C2338 1.362 . S
C2338 H2330 0.930 . S
C2338 C2337 1.362 . S
C2338 C2341 1.409 . S
C2339 H2331 0.930 . S
C2339 C2340 1.355 1_655 S
C2339 C2341 1.415 . S
C2340 C2339 1.355 1_455 S
C2340 C2342 1.419 . S
C2341 C2336 1.425 1_655 S
C2341 C2338 1.409 . S
C2341 C2339 1.415 . S
C2342 H2332 0.930 . S
C2342 C2340 1.419 . S
C2342 C2343 1.362 . S
C2343 H2333 0.930 . S
C2343 C2336 1.409 . S
C2343 C2342 1.362 . S
H2344 C2350 0.930 . S
H2345 C2353 0.930 . S
H2346 C2354 0.930 . S
H2347 C2355 0.930 . S
H2348 C2358 0.930 . S
H2349 C2359 0.930 . S
C2350 H2344 0.930 . S
C2350 C2351 1.355 . S
C2350 C2352 1.415 . S
C2351 C2350 1.355 . S
C2351 C2353 1.419 . S
C2352 C2350 1.415 . S
C2352 C2357 1.425 . S
C2352 C2359 1.409 . S
C2353 H2345 0.930 . S
C2353 C2351 1.419 . S
C2353 C2354 1.362 . S
C2354 H2346 0.930 . S
C2354 C2353 1.362 . S
C2354 C2357 1.409 . S
C2355 H2347 0.930 . S
C2355 C2356 1.355 . S
C2355 C2357 1.415 . S
C2356 C2355 1.355 . S
C2356 C2358 1.419 . S
C2357 C2352 1.425 . S
C2357 C2354 1.409 . S
C2357 C2355 1.415 . S
C2358 H2348 0.930 . S
C2358 C2356 1.419 . S
C2358 C2359 1.362 . S
C2359 H2349 0.930 . S
C2359 C2352 1.409 . S
C2359 C2358 1.362 . S
H2360 C2366 0.930 . S
H2361 C2369 0.930 . S
H2362 C2370 0.930 . S
H2363 C2371 0.930 . S
H2364 C2374 0.930 . S
H2365 C2375 0.930 . S
C2366 H2360 0.930 . S
C2366 C2367 1.355 . S
C2366 C2368 1.415 . S
C2367 C2366 1.355 . S
C2367 C2369 1.419 . S
C2368 C2366 1.415 . S
C2368 C2373 1.425 . S
C2368 C2375 1.409 1_565 S
C2369 H2361 0.930 . S
C2369 C2367 1.419 . S
C2369 C2370 1.362 . S
C2370 H2362 0.930 . S
C2370 C2369 1.362 . S
C2370 C2373 1.409 . S
C2371 H2363 0.930 . S
C2371 C2372 1.355 . S
C2371 C2373 1.415 . S
C2372 C2371 1.355 . S
C2372 C2374 1.419 1_565 S
C2373 C2368 1.425 . S
C2373 C2370 1.409 . S
C2373 C2371 1.415 . S
C2374 H2364 0.930 . S
C2374 C2372 1.419 1_545 S
C2374 C2375 1.362 . S
C2375 H2365 0.930 . S
C2375 C2368 1.409 1_545 S
C2375 C2374 1.362 . S
H2376 C2382 0.930 . S
H2377 C2385 0.930 . S
H2378 C2386 0.930 . S
H2379 C2387 0.930 . S
H2380 C2390 0.930 . S
H2381 C2391 0.930 . S
C2382 H2376 0.930 . S
C2382 C2383 1.355 . S
C2382 C2384 1.415 . S
C2383 C2382 1.355 . S
C2383 C2385 1.419 . S
C2384 C2382 1.415 . S
C2384 C2389 1.425 . S
C2384 C2391 1.409 . S
C2385 H2377 0.930 . S
C2385 C2383 1.419 . S
C2385 C2386 1.362 . S
C2386 H2378 0.930 . S
C2386 C2385 1.362 . S
C2386 C2389 1.409 . S
C2387 H2379 0.930 . S
C2387 C2388 1.355 . S
C2387 C2389 1.415 . S
C2388 C2387 1.355 . S
C2388 C2390 1.419 . S
C2389 C2384 1.425 . S
C2389 C2386 1.409 . S
C2389 C2387 1.415 . S
C2390 H2380 0.930 . S
C2390 C2388 1.419 . S
C2390 C2391 1.362 . S
C2391 H2381 0.930 . S
C2391 C2384 1.409 . S
C2391 C2390 1.362 . S
H2392 C2398 0.930 . S
H2393 C2401 0.930 . S
H2394 C2402 0.930 . S
H2395 C2403 0.930 . S
H2396 C2406 0.930 . S
H2397 C2407 0.930 . S
C2398 H2392 0.930 . S
C2398 C2399 1.355 . S
C2398 C2400 1.415 . S
C2399 C2398 1.355 . S
C2399 C2401 1.419 1_455 S
C2400 C2398 1.415 . S
C2400 C2405 1.402 1_455 S
C2400 C2407 1.409 . S
C2401 H2393 0.930 . S
C2401 C2399 1.419 1_655 S
C2401 C2402 1.362 . S
C2402 H2394 0.930 . S
C2402 C2401 1.362 . S
C2402 C2405 1.445 . S
C2403 H2395 0.930 . S
C2403 C2404 1.355 1_655 S
C2403 C2405 1.402 . S
C2404 C2403 1.355 1_455 S
C2404 C2406 1.419 . S
C2405 C2400 1.402 1_655 S
C2405 C2402 1.445 . S
C2405 C2403 1.402 . S
C2406 H2396 0.930 . S
C2406 C2404 1.419 . S
C2406 C2407 1.362 . S
C2407 H2397 0.930 . S
C2407 C2400 1.409 . S
C2407 C2406 1.362 . S
H2408 C2414 0.930 . S
H2409 C2417 0.930 . S
H2410 C2418 0.930 . S
H2411 C2419 0.930 . S
H2412 C2422 0.930 . S
H2413 C2423 0.930 . S
C2414 H2408 0.930 . S
C2414 C2415 1.355 . S
C2414 C2416 1.415 . S
C2415 C2414 1.355 . S
C2415 C2417 1.419 . S
C2416 C2414 1.415 . S
C2416 C2421 1.425 . S
C2416 C2423 1.409 . S
C2417 H2409 0.930 . S
C2417 C2415 1.419 . S
C2417 C2418 1.362 . S
C2418 H2410 0.930 . S
C2418 C2417 1.362 . S
C2418 C2421 1.409 . S
C2419 H2411 0.930 . S
C2419 C2420 1.355 . S
C2419 C2421 1.415 . S
C2420 C2419 1.355 . S
C2420 C2422 1.419 . S
C2421 C2416 1.425 . S
C2421 C2418 1.409 . S
C2421 C2419 1.415 . S
C2422 H2412 0.930 . S
C2422 C2420 1.419 . S
C2422 C2423 1.362 . S
C2423 H2413 0.930 . S
C2423 C2416 1.409 . S
C2423 C2422 1.362 . S
H2424 C2430 0.930 . S
H2425 C2433 0.930 . S
H2426 C2434 0.930 . S
H2427 C2435 0.930 . S
H2428 C2438 0.930 . S
H2429 C2439 0.930 . S
C2430 H2424 0.930 . S
C2430 C2431 1.355 . S
C2430 C2432 1.415 . S
C2431 C2430 1.355 . S
C2431 C2433 1.419 . S
C2432 C2430 1.415 . S
C2432 C2437 1.425 . S
C2432 C2439 1.409 . S
C2433 H2425 0.930 . S
C2433 C2431 1.419 . S
C2433 C2434 1.362 . S
C2434 H2426 0.930 . S
C2434 C2433 1.362 . S
C2434 C2437 1.409 . S
C2435 H2427 0.930 . S
C2435 C2436 1.355 . S
C2435 C2437 1.415 . S
C2436 C2435 1.355 . S
C2436 C2438 1.419 . S
C2437 C2432 1.425 . S
C2437 C2434 1.409 . S
C2437 C2435 1.415 . S
C2438 H2428 0.930 . S
C2438 C2436 1.419 . S
C2438 C2439 1.362 . S
C2439 H2429 0.930 . S
C2439 C2432 1.409 . S
C2439 C2438 1.362 . S
H2440 C2446 0.930 . S
H2441 C2449 0.930 . S
H2442 C2450 0.930 . S
H2443 C2451 0.930 . S
H2444 C2454 0.930 . S
H2445 C2455 0.930 . S
C2446 H2440 0.930 . S
C2446 C2447 1.355 . S
C2446 C2448 1.415 . S
C2447 C2446 1.355 . S
C2447 C2449 1.419 . S
C2448 C2446 1.415 . S
C2448 C2453 1.425 . S
C2448 C2455 1.409 . S
C2449 H2441 0.930 . S
C2449 C2447 1.419 . S
C2449 C2450 1.362 . S
C2450 H2442 0.930 . S
C2450 C2449 1.362 . S
C2450 C2453 1.409 . S
C2451 H2443 0.930 . S
C2451 C2452 1.355 . S
C2451 C2453 1.415 . S
C2452 C2451 1.355 . S
C2452 C2454 1.419 . S
C2453 C2448 1.425 . S
C2453 C2450 1.409 . S
C2453 C2451 1.415 . S
C2454 H2444 0.930 . S
C2454 C2452 1.419 . S
C2454 C2455 1.362 . S
C2455 H2445 0.930 . S
C2455 C2448 1.409 . S
C2455 C2454 1.362 . S
H2456 C2462 0.930 . S
H2457 C2465 0.930 . S
H2458 C2466 0.930 . S
H2459 C2467 0.930 . S
H2460 C2470 0.930 . S
H2461 C2471 0.930 . S
C2462 H2456 0.930 . S
C2462 C2463 1.355 . S
C2462 C2464 1.415 . S
C2463 C2462 1.355 . S
C2463 C2465 1.419 . S
C2464 C2462 1.415 . S
C2464 C2469 1.425 . S
C2464 C2471 1.409 . S
C2465 H2457 0.930 . S
C2465 C2463 1.419 . S
C2465 C2466 1.362 . S
C2466 H2458 0.930 . S
C2466 C2465 1.362 . S
C2466 C2469 1.409 . S
C2467 H2459 0.930 . S
C2467 C2468 1.355 . S
C2467 C2469 1.415 . S
C2468 C2467 1.355 . S
C2468 C2470 1.419 . S
C2469 C2464 1.425 . S
C2469 C2466 1.409 . S
C2469 C2467 1.415 . S
C2470 H2460 0.930 . S
C2470 C2468 1.419 . S
C2470 C2471 1.362 . S
C2471 H2461 0.930 . S
C2471 C2464 1.409 . S
C2471 C2470 1.362 . S
H2472 C2478 0.930 1_565 S
H2473 C2481 0.930 . S
H2474 C2482 0.930 . S
H2475 C2483 0.930 . S
H2476 C2486 0.930 . S
H2477 C2487 0.930 . S
C2478 H2472 0.930 1_545 S
C2478 C2479 1.355 . S
C2478 C2480 1.415 . S
C2479 C2478 1.355 . S
C2479 C2481 1.419 . S
C2480 C2478 1.415 . S
C2480 C2485 1.425 . S
C2480 C2487 1.409 1_545 S
C2481 H2473 0.930 . S
C2481 C2479 1.419 . S
C2481 C2482 1.362 . S
C2482 H2474 0.930 . S
C2482 C2481 1.362 . S
C2482 C2485 1.409 . S
C2483 H2475 0.930 . S
C2483 C2484 1.355 . S
C2483 C2485 1.415 . S
C2484 C2483 1.355 . S
C2484 C2486 1.419 1_545 S
C2485 C2480 1.425 . S
C2485 C2482 1.409 . S
C2485 C2483 1.415 . S
C2486 H2476 0.930 . S
C2486 C2484 1.419 1_565 S
C2486 C2487 1.362 . S
C2487 H2477 0.930 . S
C2487 C2480 1.409 1_565 S
C2487 C2486 1.362 . S
H2488 C2494 0.898 1_455 S
H2489 C2497 0.930 . S
H2490 C2498 0.930 . S
H2491 C2499 0.930 . S
H2492 C2502 0.930 . S
H2493 C2503 0.930 . S
C2494 H2488 0.898 1_655 S
C2494 C2495 1.361 . S
C2494 C2496 1.443 . S
C2495 C2494 1.361 . S
C2495 C2497 1.419 . S
C2496 C2494 1.443 . S
C2496 C2501 1.425 . S
C2496 C2503 1.409 1_655 S
C2497 H2489 0.930 . S
C2497 C2495 1.419 . S
C2497 C2498 1.362 . S
C2498 H2490 0.930 . S
C2498 C2497 1.362 . S
C2498 C2501 1.409 . S
C2499 H2491 0.930 . S
C2499 C2500 1.355 . S
C2499 C2501 1.415 . S
C2500 C2499 1.355 . S
C2500 C2502 1.419 1_655 S
C2501 C2496 1.425 . S
C2501 C2498 1.409 . S
C2501 C2499 1.415 . S
C2502 H2492 0.930 . S
C2502 C2500 1.419 1_455 S
C2502 C2503 1.362 . S
C2503 H2493 0.930 . S
C2503 C2496 1.409 1_455 S
C2503 C2502 1.362 . S
H2504 C2510 0.930 . S
H2505 C2513 0.930 . S
H2506 C2514 0.930 . S
H2507 C2515 0.930 . S
H2508 C2518 0.930 . S
H2509 C2519 0.930 . S
C2510 H2504 0.930 . S
C2510 C2511 1.355 . S
C2510 C2512 1.415 . S
C2511 C2510 1.355 . S
C2511 C2513 1.419 . S
C2512 C2510 1.415 . S
C2512 C2517 1.425 . S
C2512 C2519 1.409 . S
C2513 H2505 0.930 . S
C2513 C2511 1.419 . S
C2513 C2514 1.362 . S
C2514 H2506 0.930 . S
C2514 C2513 1.362 . S
C2514 C2517 1.409 . S
C2515 H2507 0.930 . S
C2515 C2516 1.355 . S
C2515 C2517 1.415 . S
C2516 C2515 1.355 . S
C2516 C2518 1.419 . S
C2517 C2512 1.425 . S
C2517 C2514 1.409 . S
C2517 C2515 1.415 . S
C2518 H2508 0.930 . S
C2518 C2516 1.419 . S
C2518 C2519 1.362 . S
C2519 H2509 0.930 . S
C2519 C2512 1.409 . S
C2519 C2518 1.362 . S
H2520 C2526 0.930 . S
H2521 C2529 0.930 . S
H2522 C2530 0.930 . S
H2523 C2531 0.930 . S
H2524 C2534 0.930 . S
H2525 C2535 0.930 . S
C2526 H2520 0.930 . S
C2526 C2527 1.355 . S
C2526 C2528 1.415 . S
C2527 C2526 1.355 . S
C2527 C2529 1.419 . S
C2528 C2526 1.415 . S
C2528 C2533 1.425 . S
C2528 C2535 1.409 . S
C2529 H2521 0.930 . S
C2529 C2527 1.419 . S
C2529 C2530 1.362 . S
C2530 H2522 0.930 . S
C2530 C2529 1.362 . S
C2530 C2533 1.409 . S
C2531 H2523 0.930 . S
C2531 C2532 1.355 . S
C2531 C2533 1.415 . S
C2532 C2531 1.355 . S
C2532 C2534 1.419 . S
C2533 C2528 1.425 . S
C2533 C2530 1.409 . S
C2533 C2531 1.415 . S
C2534 H2524 0.930 . S
C2534 C2532 1.419 . S
C2534 C2535 1.362 . S
C2535 H2525 0.930 . S
C2535 C2528 1.409 . S
C2535 C2534 1.362 . S
H2536 C2542 0.930 . S
H2537 C2545 0.930 . S
H2538 C2546 0.930 . S
H2539 C2547 0.930 . S
H2540 C2550 0.930 . S
H2541 C2551 0.930 . S
C2542 H2536 0.930 . S
C2542 C2543 1.355 . S
C2542 C2544 1.415 . S
C2543 C2542 1.355 . S
C2543 C2545 1.419 . S
C2544 C2542 1.415 . S
C2544 C2549 1.425 . S
C2544 C2551 1.409 . S
C2545 H2537 0.930 . S
C2545 C2543 1.419 . S
C2545 C2546 1.362 . S
C2546 H2538 0.930 . S
C2546 C2545 1.362 . S
C2546 C2549 1.409 . S
C2547 H2539 0.930 . S
C2547 C2548 1.355 . S
C2547 C2549 1.415 . S
C2548 C2547 1.355 . S
C2548 C2550 1.419 . S
C2549 C2544 1.425 . S
C2549 C2546 1.409 . S
C2549 C2547 1.415 . S
C2550 H2540 0.930 . S
C2550 C2548 1.419 . S
C2550 C2551 1.362 . S
C2551 H2541 0.930 . S
C2551 C2544 1.409 . S
C2551 C2550 1.362 . S
H2552 C2558 0.930 . S
H2553 C2561 0.930 . S
H2554 C2562 0.930 . S
H2555 C2563 0.930 . S
H2556 C2566 0.930 . S
H2557 C2567 0.930 . S
C2558 H2552 0.930 . S
C2558 C2559 1.355 . S
C2558 C2560 1.415 . S
C2559 C2558 1.355 . S
C2559 C2561 1.419 . S
C2560 C2558 1.415 . S
C2560 C2565 1.425 . S
C2560 C2567 1.409 . S
C2561 H2553 0.930 . S
C2561 C2559 1.419 . S
C2561 C2562 1.362 . S
C2562 H2554 0.930 . S
C2562 C2561 1.362 . S
C2562 C2565 1.409 . S
C2563 H2555 0.930 . S
C2563 C2564 1.355 . S
C2563 C2565 1.415 . S
C2564 C2563 1.355 . S
C2564 C2566 1.419 . S
C2565 C2560 1.425 . S
C2565 C2562 1.409 . S
C2565 C2563 1.415 . S
C2566 H2556 0.930 . S
C2566 C2564 1.419 . S
C2566 C2567 1.362 . S
C2567 H2557 0.930 . S
C2567 C2560 1.409 . S
C2567 C2566 1.362 . S
H2568 C2574 0.930 . S
H2569 C2577 0.930 . S
H2570 C2578 0.930 . S
H2571 C2579 0.930 . S
H2572 C2582 0.930 . S
H2573 C2583 0.930 . S
C2574 H2568 0.930 . S
C2574 C2575 1.355 . S
C2574 C2576 1.415 . S
C2575 C2574 1.355 . S
C2575 C2577 1.419 . S
C2576 C2574 1.415 . S
C2576 C2581 1.425 . S
C2576 C2583 1.409 . S
C2577 H2569 0.930 . S
C2577 C2575 1.419 . S
C2577 C2578 1.362 . S
C2578 H2570 0.930 . S
C2578 C2577 1.362 . S
C2578 C2581 1.409 . S
C2579 H2571 0.930 . S
C2579 C2580 1.355 . S
C2579 C2581 1.415 . S
C2580 C2579 1.355 . S
C2580 C2582 1.419 . S
C2581 C2576 1.425 . S
C2581 C2578 1.409 . S
C2581 C2579 1.415 . S
C2582 H2572 0.930 . S
C2582 C2580 1.419 . S
C2582 C2583 1.362 . S
C2583 H2573 0.930 . S
C2583 C2576 1.409 . S
C2583 C2582 1.362 . S
H2584 C2590 0.930 . S
H2585 C2593 0.930 . S
H2586 C2594 0.930 . S
H2587 C2595 0.930 . S
H2588 C2598 0.930 . S
H2589 C2599 0.930 . S
C2590 H2584 0.930 . S
C2590 C2591 1.355 . S
C2590 C2592 1.415 . S
C2591 C2590 1.355 . S
C2591 C2593 1.419 . S
C2592 C2590 1.415 . S
C2592 C2597 1.425 . S
C2592 C2599 1.409 . S
C2593 H2585 0.930 . S
C2593 C2591 1.419 . S
C2593 C2594 1.362 . S
C2594 H2586 0.930 . S
C2594 C2593 1.362 . S
C2594 C2597 1.409 . S
C2595 H2587 0.930 . S
C2595 C2596 1.355 . S
C2595 C2597 1.415 . S
C2596 C2595 1.355 . S
C2596 C2598 1.419 . S
C2597 C2592 1.425 . S
C2597 C2594 1.409 . S
C2597 C2595 1.415 . S
C2598 H2588 0.930 . S
C2598 C2596 1.419 . S
C2598 C2599 1.362 . S
C2599 H2589 0.930 . S
C2599 C2592 1.409 . S
C2599 C2598 1.362 . S
H2600 C2606 0.930 . S
H2601 C2609 0.930 . S
H2602 C2610 0.930 . S
H2603 C2611 0.930 . S
H2604 C2614 0.930 . S
H2605 C2615 0.930 . S
C2606 H2600 0.930 . S
C2606 C2607 1.355 . S
C2606 C2608 1.415 . S
C2607 C2606 1.355 . S
C2607 C2609 1.419 . S
C2608 C2606 1.415 . S
C2608 C2613 1.425 . S
C2608 C2615 1.409 . S
C2609 H2601 0.930 . S
C2609 C2607 1.419 . S
C2609 C2610 1.362 . S
C2610 H2602 0.930 . S
C2610 C2609 1.362 . S
C2610 C2613 1.409 . S
C2611 H2603 0.930 . S
C2611 C2612 1.355 . S
C2611 C2613 1.415 . S
C2612 C2611 1.355 . S
C2612 C2614 1.419 . S
C2613 C2608 1.425 . S
C2613 C2610 1.409 . S
C2613 C2611 1.415 . S
C2614 H2604 0.930 . S
C2614 C2612 1.419 . S
C2614 C2615 1.362 . S
C2615 H2605 0.930 . S
C2615 C2608 1.409 . S
C2615 C2614 1.362 . S
H2616 C2622 0.930 . S
H2617 C2625 0.930 . S
H2618 C2626 0.922 1_455 S
H2619 C2627 0.930 . S
H2620 C2630 0.930 . S
H2621 C2631 0.930 . S
C2622 H2616 0.930 . S
C2622 C2623 1.355 . S
C2622 C2624 1.415 . S
C2623 C2622 1.355 . S
C2623 C2625 1.419 . S
C2624 C2622 1.415 . S
C2624 C2629 1.425 . S
C2624 C2631 1.409 . S
C2625 H2617 0.930 . S
C2625 C2623 1.419 . S
C2625 C2626 1.362 . S
C2626 H2618 0.922 1_655 S
C2626 C2625 1.362 . S
C2626 C2629 1.409 . S
C2627 H2619 0.930 . S
C2627 C2628 1.355 . S
C2627 C2629 1.415 . S
C2628 C2627 1.355 . S
C2628 C2630 1.419 . S
C2629 C2624 1.425 . S
C2629 C2626 1.409 . S
C2629 C2627 1.415 . S
C2630 H2620 0.930 . S
C2630 C2628 1.419 . S
C2630 C2631 1.362 . S
C2631 H2621 0.930 . S
C2631 C2624 1.409 . S
C2631 C2630 1.362 . S
H2632 C2638 0.930 . S
H2633 C2641 0.930 . S
H2634 C2642 0.930 . S
H2635 C2643 0.930 . S
H2636 C2646 0.930 . S
H2637 C2647 0.930 . S
C2638 H2632 0.930 . S
C2638 C2639 1.355 . S
C2638 C2640 1.415 . S
C2639 C2638 1.355 . S
C2639 C2641 1.419 . S
C2640 C2638 1.415 . S
C2640 C2645 1.425 . S
C2640 C2647 1.409 . S
C2641 H2633 0.930 . S
C2641 C2639 1.419 . S
C2641 C2642 1.362 . S
C2642 H2634 0.930 . S
C2642 C2641 1.362 . S
C2642 C2645 1.409 . S
C2643 H2635 0.930 . S
C2643 C2644 1.355 . S
C2643 C2645 1.415 . S
C2644 C2643 1.355 . S
C2644 C2646 1.419 . S
C2645 C2640 1.425 . S
C2645 C2642 1.409 . S
C2645 C2643 1.415 . S
C2646 H2636 0.930 . S
C2646 C2644 1.419 . S
C2646 C2647 1.362 . S
C2647 H2637 0.930 . S
C2647 C2640 1.409 . S
C2647 C2646 1.362 . S
H2648 C2654 0.930 . S
H2649 C2657 0.930 . S
H2650 C2658 0.941 . S
H2651 C2659 0.930 1_565 S
H2652 C2662 0.930 . S
H2653 C2663 0.930 . S
C2654 H2648 0.930 . S
C2654 C2655 1.355 . S
C2654 C2656 1.415 . S
C2655 C2654 1.355 . S
C2655 C2657 1.419 . S
C2656 C2654 1.415 . S
C2656 C2661 1.425 . S
C2656 C2663 1.409 . S
C2657 H2649 0.930 . S
C2657 C2655 1.419 . S
C2657 C2658 1.362 . S
C2658 H2650 0.941 . S
C2658 C2657 1.362 . S
C2658 C2661 1.409 . S
C2659 H2651 0.930 1_545 S
C2659 C2660 1.355 . S
C2659 C2661 1.415 . S
C2660 C2659 1.355 . S
C2660 C2662 1.419 . S
C2661 C2656 1.425 . S
C2661 C2658 1.409 . S
C2661 C2659 1.415 . S
C2662 H2652 0.930 . S
C2662 C2660 1.419 . S
C2662 C2663 1.362 . S
C2663 H2653 0.930 . S
C2663 C2656 1.409 . S
C2663 C2662 1.362 . S
C1519 C4 1.444 . S
C1524 C1125 1.464 . S
C1535 C38 1.718 . S
C1540 C1173 1.692 . S
C1556 C1221 1.462 . S
C1551 C74 1.459 . S
C1567 C76 1.414 . S
C1572 C1245 1.463 . S
C1583 C2 1.518 . S
C1588 C1317 1.564 . S
C1599 C40 1.532 . S
C1604 C1365 1.558 . S
C1615 C110 1.492 . S
C1620 C1293 1.547 . S
C1636 C1341 1.531 . S
C1631 C148 1.561 . S
C1652 C1269 1.525 . S
C1647 C182 1.511 . S
C1663 C184 1.508 . S
C1668 C1197 1.510 . S
C1684 C1101 1.462 . S
C1679 C112 1.416 . S
C1695 C146 1.657 . S
C1700 C1149 1.643 . S
C1711 C220 1.639 . S
C1716 C1413 1.626 . S
C1727 C254 1.777 . S
C1732 C1461 1.771 . S
C1748 C1485 1.632 . S
C1743 C290 1.648 . S
C1759 C292 1.544 . S
C1764 C669 1.559 . S
C1775 C218 1.707 . S
C1780 C741 1.684 . S
C1791 C256 1.583 . S
C1796 C789 1.564 . S
C1807 C326 1.676 . S
C1812 C717 1.670 . S
C1823 C364 1.603 . S
C1828 C765 1.612 . S
C1844 C693 1.658 . S
C1839 C398 1.683 . S
C1860 C1509 1.615 . S
C1855 C400 1.654 . S
C1876 C1389 1.543 . S
C1871 C328 1.539 . S
C1892 C1437 1.704 . S
C1887 C362 1.731 . S
C1903 C436 1.559 . S
C1908 C837 1.581 . S
C1919 C470 1.763 . S
C1924 C885 1.734 . S
C1935 C506 1.644 . S
C1940 C909 1.643 . S
C1951 C508 1.628 . S
C1956 C957 1.577 . S
C1972 C1029 1.692 . S
C1967 C434 1.685 . S
C1988 C1077 1.596 . S
C1983 C472 1.601 . S
C2004 C1005 1.749 . S
C1999 C542 1.758 . S
C2020 C1053 1.621 . S
C2015 C580 1.636 . S
C2031 C614 1.693 . S
C2036 C981 1.604 . S
C2052 C933 1.548 . S
C2047 C616 1.594 . S
C2063 C544 1.558 . S
C2068 C813 1.526 . S
C2084 C861 1.679 . S
C2079 C578 1.689 . S
C2100 C678 1.637 . S
C2095 C14 1.604 . S
C2111 C39 1.561 . S
C2116 C732 1.545 . S
C2132 C780 1.555 . S
C2127 C75 1.574 . S
C2148 C828 1.435 . S
C2143 C86 1.489 . S
C2164 C876 1.566 . S
C2159 C3 1.602 . S
C2180 C918 1.554 . S
C2175 C50 1.534 . S
C2191 C111 1.588 . S
C2196 C924 1.571 . S
C2207 C158 1.515 . S
C2212 C822 1.428 . S
C2223 C183 1.658 . S
C2228 C870 1.588 . S
C2239 C194 1.613 . S
C2244 C726 1.555 . S
C2260 C774 1.456 . S
C2255 C122 1.546 . S
C2271 C147 1.485 . S
C2276 C684 1.478 . S
C2292 C966 1.584 . S
C2287 C230 1.597 . S
C2303 C255 1.640 . S
C2308 C1020 1.605 . S
C2319 C291 1.601 . S
C2324 C1068 1.581 . S
C2340 C1116 1.351 . S
C2335 C302 1.331 . S
C2351 C219 1.574 . S
C2356 C1164 1.556 . S
C2367 C266 1.360 . S
C2372 C1212 1.430 . S
C2383 C327 1.372 . S
C2388 C1206 1.371 . S
C2399 C374 1.384 . S
C2404 C1110 1.371 . S
C2420 C1158 1.616 . S
C2415 C399 1.644 . S
C2431 C410 1.546 . S
C2436 C1014 1.567 . S
C2447 C338 1.550 . S
C2452 C1062 1.567 . S
C2468 C972 1.564 . S
C2463 C363 1.577 . S
C2484 C1254 1.440 . S
C2479 C446 1.355 . S
C2495 C471 1.422 . S
C2500 C1308 1.431 . S
C2511 C507 1.527 . S
C2516 C1356 1.496 . S
C2532 C1404 1.432 . S
C2527 C518 1.455 . S
C2548 C1452 1.630 . S
C2543 C435 1.647 . S
C2559 C482 1.596 . S
C2564 C1494 1.645 . S
C2575 C543 1.530 . S
C2580 C1500 1.508 . S
C2591 C590 1.549 . S
C2596 C1398 1.586 . S
C2612 C1446 1.659 . S
C2607 C615 1.694 . S
C2628 C1302 1.421 . S
C2623 C626 1.398 . S
C2644 C1350 1.528 . S
C2639 C554 1.497 . S
C2655 C579 1.377 . S
C2660 C1260 1.383 . S
