# Generated by pormake.
# Topology cml, (3,6)-cn, num edge types: 1
# Building blocks:
#     Node 0, Type 0, BuildingBlock: QEWDON_clean_linker_0, # of connection points: 3
#     Node 1, Type 0, BuildingBlock: QEWDON_clean_linker_0, # of connection points: 3
#     Node 2, Type 0, BuildingBlock: QEWDON_clean_linker_0, # of connection points: 3
#     Node 3, Type 0, BuildingBlock: QEWDON_clean_linker_0, # of connection points: 3
#     Node 4, Type 0, BuildingBlock: QEWDON_clean_linker_0, # of connection points: 3
#     Node 5, Type 0, BuildingBlock: QEWDON_clean_linker_0, # of connection points: 3
#     Node 6, Type 0, BuildingBlock: QEWDON_clean_linker_0, # of connection points: 3
#     Node 7, Type 0, BuildingBlock: QEWDON_clean_linker_0, # of connection points: 3
#     Node 8, Type 1, BuildingBlock: IZENUY_clean_sbu_0, # of connection points: 6
#     Node 9, Type 1, BuildingBlock: IZENUY_clean_sbu_0, # of connection points: 6
#     Node 10, Type 1, BuildingBlock: IZENUY_clean_sbu_0, # of connection points: 6
#     Node 11, Type 1, BuildingBlock: IZENUY_clean_sbu_0, # of connection points: 6
#     Edge 12, Type (0, 1), BuildingBlock: MIFKUJ_clean_linker_0, # of connection points: 2
#     Edge 13, Type (0, 1), BuildingBlock: MIFKUJ_clean_linker_0, # of connection points: 2
#     Edge 14, Type (0, 1), BuildingBlock: MIFKUJ_clean_linker_0, # of connection points: 2
#     Edge 15, Type (0, 1), BuildingBlock: MIFKUJ_clean_linker_0, # of connection points: 2
#     Edge 16, Type (0, 1), BuildingBlock: MIFKUJ_clean_linker_0, # of connection points: 2
#     Edge 17, Type (0, 1), BuildingBlock: MIFKUJ_clean_linker_0, # of connection points: 2
#     Edge 18, Type (0, 1), BuildingBlock: MIFKUJ_clean_linker_0, # of connection points: 2
#     Edge 19, Type (0, 1), BuildingBlock: MIFKUJ_clean_linker_0, # of connection points: 2
#     Edge 20, Type (0, 1), BuildingBlock: MIFKUJ_clean_linker_0, # of connection points: 2
#     Edge 21, Type (0, 1), BuildingBlock: MIFKUJ_clean_linker_0, # of connection points: 2
#     Edge 22, Type (0, 1), BuildingBlock: MIFKUJ_clean_linker_0, # of connection points: 2
#     Edge 23, Type (0, 1), BuildingBlock: MIFKUJ_clean_linker_0, # of connection points: 2
#     Edge 24, Type (0, 1), BuildingBlock: MIFKUJ_clean_linker_0, # of connection points: 2
#     Edge 25, Type (0, 1), BuildingBlock: MIFKUJ_clean_linker_0, # of connection points: 2
#     Edge 26, Type (0, 1), BuildingBlock: MIFKUJ_clean_linker_0, # of connection points: 2
#     Edge 27, Type (0, 1), BuildingBlock: MIFKUJ_clean_linker_0, # of connection points: 2
#     Edge 28, Type (0, 1), BuildingBlock: MIFKUJ_clean_linker_0, # of connection points: 2
#     Edge 29, Type (0, 1), BuildingBlock: MIFKUJ_clean_linker_0, # of connection points: 2
#     Edge 30, Type (0, 1), BuildingBlock: MIFKUJ_clean_linker_0, # of connection points: 2
#     Edge 31, Type (0, 1), BuildingBlock: MIFKUJ_clean_linker_0, # of connection points: 2
#     Edge 32, Type (0, 1), BuildingBlock: MIFKUJ_clean_linker_0, # of connection points: 2
#     Edge 33, Type (0, 1), BuildingBlock: MIFKUJ_clean_linker_0, # of connection points: 2
#     Edge 34, Type (0, 1), BuildingBlock: MIFKUJ_clean_linker_0, # of connection points: 2
#     Edge 35, Type (0, 1), BuildingBlock: MIFKUJ_clean_linker_0, # of connection points: 2
# Relax obj value: 0.009
# Max RMSD: 0.131
# Mean RMSD: 0.095
data_MOF--net-cml--node1-IZENUY_clean_sbu_0--node2-QEWDON_clean_linker_0--edge1-MIFKUJ_clean_linker_0
_symmetry_space_group_name_H-M    P1
_symmetry_Int_Tables_number       1
_symmetry_cell_setting            triclinic
loop_
_symmetry_equiv_pos_as_xyz
'x, y, z'
_cell_length_a     50.595074
_cell_length_b     54.600819
_cell_length_c     47.323786
_cell_angle_alpha  90.053614
_cell_angle_beta   89.978096
_cell_angle_gamma 90.183423
loop_
_atom_site_label
_atom_site_type_symbol
_atom_site_fract_x
_atom_site_fract_y
_atom_site_fract_z
_atom_type_partial_charge
H0 H 0.28474 0.40505 0.98042 0.0
C1 C 0.29543 0.39768 0.99833 0.0
C2 C 0.32177 0.40479 1.00325 0.0
C3 C 0.28232 0.38192 0.01713 0.0
H4 H 0.35455 0.4023 0.03207 0.0
C5 C 0.33484 0.3957 0.02727 0.0
C6 C 0.32203 0.37984 0.04637 0.0
C7 C 0.2957 0.37287 0.04087 0.0
C8 C 0.2534 0.37883 0.01491 0.0
H9 H 0.28519 0.36114 0.05555 0.0
C10 C 0.24187 0.359 1.00029 0.0
C11 C 0.21411 0.35729 0.99785 0.0
C12 C 0.23718 0.39658 0.0274 0.0
H13 H 0.24579 0.41192 0.03872 0.0
C14 C 0.20979 0.39477 0.02534 0.0
H15 H 0.25439 0.34536 0.99046 0.0
C16 C 0.1983 0.37534 0.01066 0.0
H17 H 0.17694 0.37431 0.00952 0.0
H18 H 0.19741 0.40852 0.03511 0.0
H19 H 0.73784 0.60427 0.48528 0.0
C20 C 0.72593 0.60994 0.50316 0.0
C21 C 0.69984 0.6014 0.50579 0.0
C22 C 0.73705 0.62482 0.52434 0.0
H23 H 0.66499 0.60078 0.53186 0.0
C24 C 0.68495 0.60783 0.52965 0.0
C25 C 0.69601 0.62209 0.55136 0.0
C26 C 0.72203 0.63081 0.54837 0.0
C27 C 0.76556 0.63071 0.52371 0.0
H28 H 0.7311 0.64119 0.56536 0.0
C29 C 0.77597 0.64878 0.50553 0.0
C30 C 0.8034 0.65348 0.50512 0.0
C31 C 0.78259 0.61768 0.54156 0.0
H32 H 0.77488 0.60377 0.55568 0.0
C33 C 0.8097 0.62227 0.54113 0.0
H34 H 0.76288 0.65896 0.49178 0.0
C35 C 0.82008 0.63997 0.52301 0.0
H36 H 0.84119 0.64339 0.52326 0.0
H37 H 0.82271 0.61209 0.55492 0.0
H38 H 0.70681 0.38899 0.96448 0.0
C39 C 0.70277 0.38776 0.98694 0.0
C40 C 0.69312 0.40829 1.00163 0.0
C41 C 0.70578 0.36519 1.00073 0.0
H42 H 0.67815 0.42132 0.0415 0.0
C43 C 0.68698 0.40598 0.03049 0.0
C44 C 0.68972 0.38348 0.04459 0.0
C45 C 0.69935 0.36317 0.02949 0.0
C46 C 0.71054 0.34281 0.98398 0.0
H47 H 0.70091 0.34549 0.03976 0.0
C48 C 0.73623 0.33504 0.97686 0.0
C49 C 0.73981 0.31381 0.96023 0.0
C50 C 0.68862 0.32921 0.97476 0.0
H51 H 0.66875 0.33496 0.98011 0.0
C52 C 0.69209 0.3082 0.95847 0.0
H53 H 0.7532 0.34554 0.98392 0.0
C54 C 0.71745 0.30055 0.9512 0.0
H55 H 0.71961 0.284 0.93877 0.0
H56 H 0.67507 0.2978 0.95147 0.0
H57 H 0.31665 0.63539 0.46115 0.0
C58 C 0.32163 0.63514 0.48343 0.0
C59 C 0.3316 0.61362 0.49585 0.0
C60 C 0.31922 0.65671 0.49946 0.0
H61 H 0.34657 0.59756 0.53423 0.0
C62 C 0.33859 0.61395 0.52463 0.0
C63 C 0.33673 0.63548 0.54081 0.0
C64 C 0.32682 0.65674 0.528 0.0
C65 C 0.31232 0.68022 0.48588 0.0
H66 H 0.32609 0.67374 0.53983 0.0
C67 C 0.2862 0.68563 0.47766 0.0
C68 C 0.27991 0.70922 0.46763 0.0
C69 C 0.33207 0.69818 0.48308 0.0
H70 H 0.35222 0.69435 0.48938 0.0
C71 C 0.32594 0.7213 0.47253 0.0
H72 H 0.27077 0.67199 0.48016 0.0
C73 C 0.3 0.72689 0.46508 0.0
H74 H 0.29555 0.74509 0.45734 0.0
H75 H 0.34128 0.73506 0.47052 0.0
H76 H 0.78012 0.91132 0.98292 0.0
C77 C 0.79177 0.90454 1.00045 0.0
C78 C 0.8181 0.91235 0.00385 0.0
C79 C 0.78013 0.8886 0.02018 0.0
H80 H 0.85256 0.91061 0.03057 0.0
C81 C 0.83251 0.90411 0.02736 0.0
C82 C 0.82091 0.88866 0.04764 0.0
C83 C 0.79478 0.88062 0.04361 0.0
C84 C 0.7515 0.88353 0.01901 0.0
H85 H 0.78528 0.86936 0.05954 0.0
C86 C 0.74141 0.86236 0.00578 0.0
C87 C 0.71404 0.85739 0.00645 0.0
C88 C 0.73418 0.89981 0.03243 0.0
H89 H 0.74168 0.91614 0.04275 0.0
C90 C 0.7071 0.89505 0.03293 0.0
H91 H 0.75478 0.84968 0.99554 0.0
C92 C 0.69707 0.87396 0.02015 0.0
H93 H 0.67594 0.8707 0.0207 0.0
H94 H 0.69385 0.90769 0.04334 0.0
H95 H 0.23095 0.09812 0.48443 0.0
C96 C 0.22071 0.10806 0.50097 0.0
C97 C 0.19419 0.10255 0.50688 0.0
C98 C 0.23431 0.12593 0.51668 0.0
H99 H 0.16137 0.10954 0.53445 0.0
C100 C 0.18139 0.11488 0.52897 0.0
C101 C 0.19486 0.13235 0.54552 0.0
C102 C 0.2213 0.13814 0.5388 0.0
C103 C 0.26307 0.12909 0.51236 0.0
H104 H 0.23215 0.15128 0.55151 0.0
C105 C 0.27384 0.15086 0.50114 0.0
C106 C 0.30118 0.15247 0.49541 0.0
C107 C 0.27981 0.10939 0.51863 0.0
H108 H 0.27185 0.09255 0.52731 0.0
C109 C 0.30689 0.1112 0.51378 0.0
H110 H 0.26094 0.166 0.49588 0.0
C111 C 0.31752 0.1325 0.50215 0.0
H112 H 0.33864 0.13338 0.4984 0.0
H113 H 0.31967 0.09595 0.5188 0.0
H114 H 0.19516 0.88583 0.95728 0.0
C115 C 0.193 0.88466 0.98004 0.0
C116 C 0.18088 0.90387 0.99486 0.0
C117 C 0.20068 0.86318 0.99413 0.0
H118 H 0.1669 0.91613 0.03539 0.0
C119 C 0.17694 0.9016 0.0241 0.0
C120 C 0.18437 0.88022 0.03856 0.0
C121 C 0.19648 0.86109 0.0234 0.0
C122 C 0.20883 0.84156 0.97746 0.0
H123 H 0.20157 0.84419 0.03406 0.0
C124 C 0.23487 0.83248 0.97832 0.0
C125 C 0.2418 0.812 0.96179 0.0
C126 C 0.18998 0.82996 0.96023 0.0
H127 H 0.16987 0.83669 0.95934 0.0
C128 C 0.19682 0.80951 0.94417 0.0
H129 H 0.24963 0.84146 0.99133 0.0
C130 C 0.22259 0.80058 0.94489 0.0
H131 H 0.22766 0.78486 0.93199 0.0
H132 H 0.18214 0.80066 0.93099 0.0
H133 H 0.8216 0.13203 0.45453 0.0
C134 C 0.82234 0.13267 0.47742 0.0
C135 C 0.83266 0.11272 0.49249 0.0
C136 C 0.8139 0.15388 0.49156 0.0
H137 H 0.8439 0.09948 0.53348 0.0
C138 C 0.83446 0.11424 0.52205 0.0
C139 C 0.82658 0.1355 0.53663 0.0
C140 C 0.8158 0.15514 0.52114 0.0
C141 C 0.80786 0.17609 0.4749 0.0
H142 H 0.81019 0.17189 0.53185 0.0
C143 C 0.78204 0.18568 0.47291 0.0
C144 C 0.77702 0.20601 0.45526 0.0
C145 C 0.82855 0.18737 0.45998 0.0
H146 H 0.84849 0.18028 0.46134 0.0
C147 C 0.82376 0.2078 0.44321 0.0
H148 H 0.76594 0.17687 0.48411 0.0
C149 C 0.79823 0.21702 0.44074 0.0
H150 H 0.79503 0.23286 0.42741 0.0
H151 H 0.83988 0.21642 0.43187 0.0
Fe152 Fe 0.00913 0.84122 0.33325 0.0
Fe153 Fe 0.00975 0.86994 0.38924 0.0
O154 O 0.009 0.86951 0.35176 0.0
Fe155 Fe 0.0081 0.89741 0.33269 0.0
O156 O 0.98867 0.88517 0.30322 0.0
O157 O 0.9778 0.84785 0.31605 0.0
O158 O 0.99041 0.82433 0.36021 0.0
C159 C 0.97555 0.83165 0.38 0.0
C160 C 0.04282 0.8715 0.30014 0.0
O161 O 0.9793 0.85224 0.39146 0.0
C162 C 0.04249 0.90866 0.37844 0.0
O163 O 0.04043 0.83255 0.34878 0.0
O164 O 0.03052 0.84241 0.39259 0.0
O165 O 0.03906 0.89049 0.31486 0.0
O166 O 0.02801 0.85291 0.30298 0.0
C167 C 0.97404 0.90849 0.37553 0.0
O168 O 0.04017 0.88788 0.38986 0.0
O169 O 0.02722 0.915 0.35862 0.0
C170 C 0.04528 0.8316 0.37489 0.0
O171 O 0.98931 0.89761 0.39264 0.0
O172 O 0.97715 0.90626 0.34918 0.0
C173 C 0.9739 0.86653 0.30094 0.0
Fe174 Fe 1.00473 0.14076 0.88514 0.0
Fe175 Fe 1.00435 0.11419 0.82778 0.0
O176 O 1.00461 0.14172 0.84765 0.0
Fe177 Fe 1.00472 0.17031 0.82993 0.0
O178 O 0.02409 0.18647 0.85711 0.0
O179 O 0.03565 0.15767 0.88688 0.0
O180 O 0.02454 0.11261 0.88742 0.0
C181 C 0.03916 0.10181 0.86958 0.0
C182 C 0.96952 0.17969 0.87245 0.0
O183 O 0.03517 0.10417 0.84341 0.0
C184 C 0.96998 0.14142 0.79645 0.0
O185 O 0.97394 0.12357 0.8862 0.0
O186 O 0.98474 0.09674 0.85354 0.0
O187 O 0.97371 0.17886 0.8462 0.0
O188 O 0.98478 0.1688 0.88959 0.0
C189 C 0.03921 0.14505 0.79662 0.0
O190 O 0.97343 0.12218 0.81068 0.0
O191 O 0.98532 0.15961 0.79947 0.0
C192 C 0.97007 0.10338 0.87383 0.0
O193 O 0.024 0.12661 0.79836 0.0
O194 O 0.03572 0.16348 0.81229 0.0
C195 C 0.03944 0.17848 0.8761 0.0
Fe196 Fe 0.50767 0.34612 0.33599 0.0
Fe197 Fe 0.50588 0.37654 0.39065 0.0
O198 O 0.50677 0.37493 0.35321 0.0
Fe199 Fe 0.50694 0.40214 0.3327 0.0
O200 O 0.4891 0.38869 0.30255 0.0
O201 O 0.47691 0.35228 0.31744 0.0
O202 O 0.48806 0.32987 0.36276 0.0
C203 C 0.47255 0.33755 0.38177 0.0
C204 C 0.54296 0.37519 0.30341 0.0
O205 O 0.4757 0.3585 0.39244 0.0
C206 C 0.53917 0.41506 0.37951 0.0
O207 O 0.53838 0.3382 0.35317 0.0
O208 O 0.52705 0.34941 0.39618 0.0
O209 O 0.53878 0.39455 0.31729 0.0
O210 O 0.5277 0.35688 0.30603 0.0
C211 C 0.47013 0.4138 0.37278 0.0
O212 O 0.53602 0.39485 0.39198 0.0
O213 O 0.52464 0.42082 0.35883 0.0
C214 C 0.54247 0.33816 0.37946 0.0
O215 O 0.48453 0.40384 0.3915 0.0
O216 O 0.47528 0.41157 0.34679 0.0
C217 C 0.47412 0.37012 0.3008 0.0
Fe218 Fe 0.50823 0.63959 0.89471 0.0
Fe219 Fe 0.50956 0.61205 0.83818 0.0
O220 O 0.50846 0.64 0.85721 0.0
Fe221 Fe 0.5077 0.66825 0.83876 0.0
O222 O 0.53799 0.67852 0.85552 0.0
O223 O 0.52692 0.66834 0.89883 0.0
O224 O 0.53973 0.62365 0.89606 0.0
C225 C 0.54407 0.60331 0.88426 0.0
C226 C 0.47199 0.67575 0.88437 0.0
O227 O 0.52908 0.59565 0.86473 0.0
C228 C 0.4751 0.64123 0.80489 0.0
O229 O 0.4895 0.61073 0.89746 0.0
O230 O 0.47862 0.60175 0.85369 0.0
O231 O 0.48691 0.68395 0.86501 0.0
O232 O 0.47677 0.65546 0.89604 0.0
C233 C 0.54388 0.63955 0.80682 0.0
O234 O 0.49048 0.6232 0.80793 0.0
O235 O 0.47736 0.65997 0.82033 0.0
C236 C 0.47489 0.59947 0.87994 0.0
O237 O 0.54047 0.62042 0.82134 0.0
O238 O 0.52839 0.65764 0.80925 0.0
C239 C 0.54185 0.67974 0.8818 0.0
H240 H 0.22346 0.30783 1.00164 0.0
H241 H 0.19732 0.27462 0.98028 0.0
H242 H 0.14913 0.32802 0.93742 0.0
H243 H 0.17491 0.36101 0.9588 0.0
H244 H 0.11905 0.29619 0.96474 0.0
H245 H 0.19431 0.29132 0.90226 0.0
H246 H 0.24147 0.28645 0.89042 0.0
H247 H 0.24165 0.21538 0.92919 0.0
H248 H 0.19455 0.21997 0.9416 0.0
H249 H 0.04623 0.22745 0.86645 0.0
H250 H 0.07923 0.25479 0.88713 0.0
H251 H 0.1132 0.19419 0.93261 0.0
H252 H 0.08003 0.16654 0.91207 0.0
H253 H 0.15152 0.2262 0.9077 0.0
H254 H 0.07609 0.23001 0.96793 0.0
H255 H 0.02895 0.23454 0.97996 0.0
H256 H 0.02944 0.30755 0.94631 0.0
H257 H 0.07644 0.30327 0.93352 0.0
C258 C 0.20761 0.31239 0.98722 0.0
C259 C 0.20106 0.337 0.98209 0.0
C260 C 0.19266 0.29343 0.97505 0.0
C261 C 0.17114 0.2988 0.9573 0.0
C262 C 0.16544 0.32338 0.95124 0.0
C263 C 0.1802 0.34223 0.96346 0.0
C264 C 0.15336 0.27918 0.94633 0.0
C265 C 0.12619 0.28107 0.95199 0.0
C266 C 0.16269 0.25888 0.93058 0.0
C267 C 0.19099 0.25612 0.92315 0.0
C268 C 0.20447 0.27475 0.90849 0.0
C269 C 0.23118 0.27202 0.90162 0.0
C270 C 0.24457 0.25065 0.90912 0.0
C271 C 0.23126 0.23194 0.92344 0.0
C272 C 0.20456 0.23459 0.93038 0.0
C273 C 0.06077 0.21982 0.88072 0.0
C274 C 0.06031 0.1948 0.88776 0.0
C275 C 0.07961 0.23552 0.89256 0.0
C276 C 0.09854 0.22656 0.91158 0.0
C277 C 0.09875 0.20147 0.918 0.0
C278 C 0.07969 0.18574 0.90636 0.0
C279 C 0.11729 0.24376 0.92546 0.0
C280 C 0.14452 0.24132 0.92053 0.0
C281 C 0.10809 0.26359 0.94197 0.0
C282 C 0.07975 0.26622 0.94952 0.0
C283 C 0.06608 0.24694 0.96281 0.0
C284 C 0.03938 0.24947 0.9698 0.0
C285 C 0.02617 0.27129 0.96383 0.0
C286 C 0.03965 0.29063 0.95086 0.0
C287 C 0.06633 0.28816 0.94374 0.0
H288 H 1.00553 0.27322 0.96938 0.0
H289 H 0.26525 0.24857 0.90378 0.0
H290 H 0.84346 0.64798 0.46748 0.0
H291 H 0.86843 0.68025 0.44355 0.0
H292 H 0.81607 0.73466 0.47848 0.0
H293 H 0.7905 0.7021 0.50196 0.0
H294 H 0.83231 0.74762 0.42532 0.0
H295 H 0.87339 0.72238 0.51116 0.0
H296 H 0.89126 0.69296 0.54567 0.0
H297 H 0.94904 0.66931 0.48511 0.0
H298 H 0.93122 0.69831 0.45006 0.0
H299 H 0.93278 0.84281 0.41338 0.0
H300 H 0.89947 0.81437 0.4323 0.0
H301 H 0.93897 0.75409 0.39151 0.0
H302 H 0.97194 0.78223 0.37223 0.0
H303 H 0.92765 0.7469 0.45003 0.0
H304 H 0.88483 0.77257 0.36386 0.0
H305 H 0.86691 0.80312 0.33071 0.0
H306 H 0.81269 0.82802 0.39429 0.0
H307 H 0.83058 0.79784 0.42798 0.0
C308 C 0.83697 0.66679 0.46958 0.0
C309 C 0.81522 0.6726 0.48675 0.0
C310 C 0.85129 0.68523 0.456 0.0
C311 C 0.84455 0.70996 0.45978 0.0
C312 C 0.82174 0.71573 0.47538 0.0
C313 C 0.80713 0.69715 0.48874 0.0
C314 C 0.86266 0.72955 0.4494 0.0
C315 C 0.85307 0.74767 0.43102 0.0
C316 C 0.88982 0.72965 0.45677 0.0
C317 C 0.90082 0.71239 0.4779 0.0
C318 C 0.8898 0.7108 0.50514 0.0
C319 C 0.89992 0.6942 0.5248 0.0
C320 C 0.92124 0.67924 0.51757 0.0
C321 C 0.93251 0.68089 0.49067 0.0
C322 C 0.92242 0.69742 0.4709 0.0
C323 C 0.9343 0.8235 0.40839 0.0
C324 C 0.95506 0.81479 0.39134 0.0
C325 C 0.9152 0.80732 0.4191 0.0
C326 C 0.91674 0.78214 0.41322 0.0
C327 C 0.93742 0.77344 0.39626 0.0
C328 C 0.95622 0.7896 0.38522 0.0
C329 C 0.89745 0.76457 0.42549 0.0
C330 C 0.90686 0.7469 0.44441 0.0
C331 C 0.87018 0.76513 0.41885 0.0
C332 C 0.85926 0.78314 0.39855 0.0
C333 C 0.86925 0.78471 0.37086 0.0
C334 C 0.85907 0.80193 0.35195 0.0
C335 C 0.83873 0.81756 0.36042 0.0
C336 C 0.82848 0.81594 0.38778 0.0
C337 C 0.83862 0.79877 0.40679 0.0
H338 H 0.83088 0.83089 0.34576 0.0
H339 H 0.92905 0.66641 0.53282 0.0
H340 H 0.75671 0.3 0.90802 0.0
H341 H 0.79796 0.27948 0.89575 0.0
H342 H 0.82446 0.28619 0.98204 0.0
H343 H 0.78305 0.30711 0.9944 0.0
H344 H 0.86532 0.29291 0.94419 0.0
H345 H 0.79744 0.23342 0.96022 0.0
H346 H 0.75342 0.21455 0.95459 0.0
H347 H 0.76804 0.20409 0.86602 0.0
H348 H 0.81201 0.22327 0.87103 0.0
H349 H 0.96104 0.19604 0.92667 0.0
H350 H 0.92419 0.22109 0.94386 0.0
H351 H 0.89113 0.22253 0.85991 0.0
H352 H 0.92781 0.19774 0.84255 0.0
H353 H 0.85428 0.21072 0.90081 0.0
H354 H 0.9211 0.27186 0.8844 0.0
H355 H 0.96468 0.29168 0.88959 0.0
H356 H 0.9522 0.29866 0.97898 0.0
H357 H 0.90864 0.27855 0.97438 0.0
C358 C 0.77144 0.29735 0.92433 0.0
C359 C 0.76652 0.30487 0.95226 0.0
C360 C 0.795 0.28558 0.91731 0.0
C361 C 0.81406 0.28076 0.93811 0.0
C362 C 0.80996 0.28957 0.96568 0.0
C363 C 0.78635 0.30156 0.97271 0.0
C364 C 0.83737 0.26531 0.93116 0.0
C365 C 0.86294 0.27478 0.93515 0.0
C366 C 0.83429 0.24173 0.91902 0.0
C367 C 0.80795 0.22997 0.91597 0.0
C368 C 0.7912 0.22725 0.93951 0.0
C369 C 0.76626 0.21649 0.93643 0.0
C370 C 0.75792 0.20818 0.90995 0.0
C371 C 0.77452 0.21056 0.88651 0.0
C372 C 0.79947 0.22136 0.88946 0.0
C373 C 0.94594 0.20172 0.91187 0.0
C374 C 0.94741 0.19491 0.88321 0.0
C375 C 0.92497 0.21613 0.9217 0.0
C376 C 0.90498 0.22378 0.90313 0.0
C377 C 0.90634 0.21686 0.87461 0.0
C378 C 0.92739 0.20274 0.86471 0.0
C379 C 0.88221 0.23848 0.91335 0.0
C380 C 0.85669 0.22878 0.91006 0.0
C381 C 0.8854 0.26174 0.92618 0.0
C382 C 0.91174 0.27346 0.92909 0.0
C383 C 0.92777 0.27737 0.90522 0.0
C384 C 0.95243 0.28872 0.90803 0.0
C385 C 0.96119 0.29642 0.93459 0.0
C386 C 0.94536 0.29269 0.95842 0.0
C387 C 0.92069 0.28132 0.95572 0.0
H388 H 0.98019 0.30536 0.93669 0.0
H389 H 0.7386 0.19985 0.90761 0.0
H390 H 0.24995 0.74327 0.49406 0.0
H391 H 0.20711 0.75948 0.47891 0.0
H392 H 0.20601 0.70849 0.40926 0.0
H393 H 0.24883 0.69189 0.42481 0.0
H394 H 0.19793 0.75877 0.39409 0.0
H395 H 0.16364 0.69943 0.45929 0.0
H396 H 0.16012 0.67817 0.50508 0.0
H397 H 0.13793 0.74553 0.54539 0.0
H398 H 0.14171 0.76729 0.4999 0.0
H399 H 0.07219 0.79622 0.3458 0.0
H400 H 0.10933 0.77162 0.36218 0.0
H401 H 0.10684 0.80841 0.44288 0.0
H402 H 0.06896 0.83247 0.42693 0.0
H403 H 0.11592 0.76231 0.45143 0.0
H404 H 0.15347 0.82272 0.38999 0.0
H405 H 0.1585 0.84631 0.34589 0.0
H406 H 0.17669 0.78028 0.30063 0.0
H407 H 0.17143 0.75624 0.34441 0.0
C408 C 0.24023 0.7352 0.47589 0.0
C409 C 0.25246 0.71627 0.46067 0.0
C410 C 0.21582 0.74445 0.46725 0.0
C411 C 0.20335 0.73516 0.443 0.0
C412 C 0.21528 0.71585 0.42808 0.0
C413 C 0.23957 0.70629 0.43703 0.0
C414 C 0.17882 0.74686 0.43234 0.0
C415 C 0.1798 0.75914 0.40633 0.0
C416 C 0.15553 0.74808 0.44882 0.0
C417 C 0.15318 0.73503 0.47621 0.0
C418 C 0.15824 0.70976 0.47796 0.0
C419 C 0.15615 0.69761 0.50385 0.0
C420 C 0.14886 0.7105 0.52814 0.0
C421 C 0.1436 0.73557 0.52657 0.0
C422 C 0.14568 0.74782 0.50072 0.0
C423 C 0.0795 0.79907 0.36706 0.0
C424 C 0.06765 0.81642 0.38501 0.0
C425 C 0.10086 0.78503 0.37639 0.0
C426 C 0.1113 0.78839 0.40364 0.0
C427 C 0.09922 0.80544 0.42176 0.0
C428 C 0.07758 0.81925 0.41258 0.0
C429 C 0.13496 0.77439 0.41313 0.0
C430 C 0.13391 0.76177 0.43898 0.0
C431 C 0.15841 0.77323 0.39674 0.0
C432 C 0.16178 0.78765 0.37042 0.0
C433 C 0.15836 0.81321 0.37059 0.0
C434 C 0.16128 0.82667 0.34566 0.0
C435 C 0.16783 0.81479 0.32045 0.0
C436 C 0.17157 0.78945 0.32015 0.0
C437 C 0.16864 0.7759 0.34503 0.0
H438 H 0.17007 0.82524 0.30117 0.0
H439 H 0.14725 0.70106 0.54817 0.0
H440 H 0.72165 0.84081 0.95243 0.0
H441 H 0.69781 0.80736 0.92861 0.0
H442 H 0.6567 0.7909 0.00619 0.0
H443 H 0.68033 0.82423 0.02993 0.0
H444 H 0.67189 0.74871 0.97625 0.0
H445 H 0.62777 0.82616 0.95961 0.0
H446 H 0.62557 0.86894 0.94312 0.0
H447 H 0.64719 0.84608 0.85942 0.0
H448 H 0.64989 0.80317 0.87554 0.0
H449 H 0.55305 0.69027 0.93711 0.0
H450 H 0.5873 0.71749 0.95548 0.0
H451 H 0.61321 0.73309 0.87051 0.0
H452 H 0.5786 0.70619 0.85187 0.0
H453 H 0.61048 0.77403 0.90001 0.0
H454 H 0.64944 0.69602 0.91449 0.0
H455 H 0.65167 0.65306 0.93025 0.0
H456 H 0.64117 0.67592 0.01635 0.0
H457 H 0.63843 0.71901 1.00107 0.0
C458 C 0.70791 0.82971 0.96447 0.0
C459 C 0.70267 0.83519 0.99294 0.0
C460 C 0.69423 0.81071 0.95085 0.0
C461 C 0.6753 0.79679 0.96558 0.0
C462 C 0.67119 0.80139 0.99441 0.0
C463 C 0.68459 0.82051 0.00791 0.0
C464 C 0.65824 0.77871 0.95073 0.0
C465 C 0.65838 0.7542 0.95964 0.0
C466 C 0.64111 0.78578 0.92857 0.0
C467 C 0.63935 0.81153 0.91885 0.0
C468 C 0.63227 0.83029 0.93775 0.0
C469 C 0.6309 0.85455 0.92846 0.0
C470 C 0.63632 0.86024 0.90026 0.0
C471 C 0.64306 0.84166 0.88127 0.0
C472 C 0.64451 0.81737 0.89047 0.0
C473 C 0.56605 0.69941 0.92227 0.0
C474 C 0.56299 0.69602 0.89298 0.0
C475 C 0.58577 0.71488 0.93284 0.0
C476 C 0.60313 0.72711 0.91442 0.0
C477 C 0.60012 0.72381 0.88516 0.0
C478 C 0.58031 0.7084 0.87454 0.0
C479 C 0.62377 0.74396 0.92576 0.0
C480 C 0.62426 0.76831 0.91625 0.0
C481 C 0.64162 0.73665 0.94722 0.0
C482 C 0.64352 0.71076 0.95659 0.0
C483 C 0.64742 0.69189 0.93677 0.0
C484 C 0.6488 0.66751 0.94562 0.0
C485 C 0.64651 0.66176 0.97428 0.0
C486 C 0.64292 0.6804 0.99415 0.0
C487 C 0.64147 0.70481 0.98541 0.0
H488 H 0.64758 0.64287 0.98109 0.0
H489 H 0.63524 0.87903 0.89311 0.0
H490 H 0.33381 0.15324 0.44989 0.0
H491 H 0.35889 0.18788 0.43124 0.0
H492 H 0.32138 0.23586 0.49146 0.0
H493 H 0.29581 0.20097 0.51014 0.0
H494 H 0.32927 0.25833 0.43878 0.0
H495 H 0.38058 0.2147 0.50663 0.0
H496 H 0.40012 0.1782 0.52892 0.0
H497 H 0.44359 0.16294 0.45301 0.0
H498 H 0.42397 0.19914 0.43009 0.0
H499 H 0.43437 0.34742 0.42161 0.0
H500 H 0.40168 0.31895 0.44138 0.0
H501 H 0.43134 0.26146 0.38761 0.0
H502 H 0.464 0.28957 0.36789 0.0
H503 H 0.42645 0.24651 0.44195 0.0
H504 H 0.37309 0.28935 0.37353 0.0
H505 H 0.35338 0.32592 0.35156 0.0
H506 H 0.31423 0.34338 0.42951 0.0
H507 H 0.33403 0.30707 0.45207 0.0
C508 C 0.33067 0.17121 0.45898 0.0
C509 C 0.31317 0.17435 0.48176 0.0
C510 C 0.34501 0.191 0.4483 0.0
C511 C 0.34246 0.21437 0.46036 0.0
C512 C 0.32377 0.21795 0.48195 0.0
C513 C 0.30918 0.19805 0.49258 0.0
C514 C 0.36077 0.23433 0.45152 0.0
C515 C 0.35052 0.25595 0.43988 0.0
C516 C 0.38853 0.23117 0.45276 0.0
C517 C 0.40065 0.20954 0.46658 0.0
C518 C 0.39418 0.20347 0.49463 0.0
C519 C 0.40528 0.18284 0.50738 0.0
C520 C 0.42305 0.16823 0.49237 0.0
C521 C 0.42981 0.17426 0.4646 0.0
C522 C 0.41872 0.19485 0.45172 0.0
C523 C 0.43388 0.32874 0.41392 0.0
C524 C 0.45195 0.32079 0.39322 0.0
C525 C 0.41508 0.31252 0.42516 0.0
C526 C 0.41399 0.28807 0.41592 0.0
C527 C 0.43184 0.28021 0.39512 0.0
C528 C 0.4505 0.29637 0.38381 0.0
C529 C 0.39502 0.27026 0.42847 0.0
C530 C 0.4052 0.24902 0.441 0.0
C531 C 0.3673 0.27391 0.42815 0.0
C532 C 0.35528 0.29565 0.41457 0.0
C533 C 0.36046 0.3011 0.38606 0.0
C534 C 0.34924 0.32176 0.37348 0.0
C535 C 0.33262 0.33701 0.38916 0.0
C536 C 0.32714 0.33158 0.41741 0.0
C537 C 0.33834 0.31095 0.43009 0.0
H538 H 0.32395 0.353 0.37939 0.0
H539 H 0.43162 0.15227 0.50228 0.0
H540 H 0.28116 0.82732 0.92725 0.0
H541 H 0.32297 0.80619 0.91766 0.0
H542 H 0.3048 0.75343 0.98268 0.0
H543 H 0.26288 0.77461 0.99218 0.0
H544 H 0.35922 0.76605 0.9805 0.0
H545 H 0.28978 0.73936 0.91854 0.0
H546 H 0.25354 0.74495 0.88437 0.0
H547 H 0.3075 0.77824 0.82568 0.0
H548 H 0.34399 0.77325 0.85976 0.0
H549 H 0.43974 0.66766 0.9302 0.0
H550 H 0.40289 0.69291 0.94659 0.0
H551 H 0.41668 0.74354 0.87823 0.0
H552 H 0.45341 0.71842 0.86163 0.0
H553 H 0.36484 0.73235 0.88323 0.0
H554 H 0.43471 0.75813 0.94487 0.0
H555 H 0.4708 0.7527 0.97926 0.0
H556 H 0.41634 0.72086 0.03847 0.0
H557 H 0.37996 0.72577 0.00424 0.0
C558 C 0.28656 0.81166 0.94003 0.0
C559 C 0.26913 0.80267 0.96063 0.0
C560 C 0.3103 0.79951 0.93444 0.0
C561 C 0.31687 0.77809 0.94927 0.0
C562 C 0.30015 0.76995 0.97106 0.0
C563 C 0.27631 0.78204 0.97653 0.0
C564 C 0.33977 0.76298 0.94021 0.0
C565 C 0.36036 0.75845 0.95934 0.0
C566 C 0.34141 0.75334 0.91247 0.0
C567 C 0.31956 0.75618 0.89183 0.0
C568 C 0.29388 0.74807 0.89845 0.0
C569 C 0.27329 0.7511 0.87909 0.0
C570 C 0.2782 0.76201 0.8529 0.0
C571 C 0.30372 0.76984 0.846 0.0
C572 C 0.32436 0.76691 0.86533 0.0
C573 C 0.43499 0.68419 0.91867 0.0
C574 C 0.44965 0.69101 0.89461 0.0
C575 C 0.41398 0.69868 0.92816 0.0
C576 C 0.40715 0.72027 0.91381 0.0
C577 C 0.42161 0.72701 0.8897 0.0
C578 C 0.44268 0.71262 0.88028 0.0
C579 C 0.38453 0.73553 0.92342 0.0
C580 C 0.36384 0.74 0.90438 0.0
C581 C 0.38285 0.74504 0.95123 0.0
C582 C 0.40466 0.74208 0.97187 0.0
C583 C 0.43047 0.74977 0.96513 0.0
C584 C 0.45097 0.74682 0.98461 0.0
C585 C 0.44588 0.73638 0.011 0.0
C586 C 0.42026 0.72891 0.018 0.0
C587 C 0.39969 0.73179 0.99857 0.0
H588 H 0.46178 0.73412 0.02607 0.0
H589 H 0.26224 0.76433 0.83792 0.0
H590 H 0.74009 0.219 0.49525 0.0
H591 H 0.69817 0.2406 0.48709 0.0
H592 H 0.71133 0.23667 0.39711 0.0
H593 H 0.75305 0.21556 0.4052 0.0
H594 H 0.69985 0.28187 0.41183 0.0
H595 H 0.66352 0.20177 0.43187 0.0
H596 H 0.65606 0.16474 0.46063 0.0
H597 H 0.62238 0.2086 0.52676 0.0
H598 H 0.62997 0.24594 0.49852 0.0
H599 H 0.5796 0.31297 0.34935 0.0
H600 H 0.61725 0.29003 0.36717 0.0
H601 H 0.59472 0.30736 0.45273 0.0
H602 H 0.55656 0.33041 0.43502 0.0
H603 H 0.6107 0.25842 0.44629 0.0
H604 H 0.64405 0.33811 0.42452 0.0
H605 H 0.65063 0.37489 0.39512 0.0
H606 H 0.68995 0.33161 0.33213 0.0
H607 H 0.68323 0.29449 0.36096 0.0
C608 C 0.73371 0.22239 0.47377 0.0
C609 C 0.74993 0.2158 0.45087 0.0
C610 C 0.70978 0.23475 0.4691 0.0
C611 C 0.70158 0.24041 0.44144 0.0
C612 C 0.71729 0.2328 0.41863 0.0
C613 C 0.74113 0.22067 0.42328 0.0
C614 C 0.67755 0.25541 0.43585 0.0
C615 C 0.68035 0.27655 0.41919 0.0
C616 C 0.65216 0.24909 0.44626 0.0
C617 C 0.64761 0.22667 0.46323 0.0
C618 C 0.65474 0.20354 0.45265 0.0
C619 C 0.65044 0.18249 0.46883 0.0
C620 C 0.63883 0.18432 0.49554 0.0
C621 C 0.63143 0.20721 0.50609 0.0
C622 C 0.63571 0.22832 0.49 0.0
C623 C 0.58247 0.31191 0.37199 0.0
C624 C 0.56501 0.3237 0.39072 0.0
C625 C 0.60411 0.29878 0.38215 0.0
C626 C 0.609 0.29717 0.41128 0.0
C627 C 0.59135 0.30839 0.43016 0.0
C628 C 0.56961 0.32164 0.41999 0.0
C629 C 0.63304 0.28431 0.42158 0.0
C630 C 0.63027 0.26376 0.43919 0.0
C631 C 0.65855 0.29111 0.41207 0.0
C632 C 0.66297 0.31347 0.39483 0.0
C633 C 0.65395 0.3364 0.40432 0.0
C634 C 0.65772 0.35732 0.38777 0.0
C635 C 0.67066 0.35558 0.36176 0.0
C636 C 0.67992 0.33293 0.35228 0.0
C637 C 0.67617 0.31194 0.36874 0.0
H638 H 0.67355 0.37179 0.34896 0.0
H639 H 0.63551 0.16801 0.50803 0.0
H640 H 0.37325 0.40555 0.98512 0.0
H641 H 0.39634 0.43873 0.96067 0.0
H642 H 0.32343 0.47916 0.95501 0.0
H643 H 0.30045 0.44655 0.98051 0.0
H644 H 0.39357 0.46102 0.91097 0.0
H645 H 0.33639 0.53966 0.96504 0.0
H646 H 0.3114 0.54733 0.00895 0.0
H647 H 0.35609 0.49177 0.05158 0.0
H648 H 0.38157 0.48403 0.00805 0.0
H649 H 0.43845 0.57277 0.8496 0.0
H650 H 0.4093 0.54026 0.86708 0.0
H651 H 0.43975 0.55096 0.95136 0.0
H652 H 0.46825 0.58379 0.9343 0.0
H653 H 0.38936 0.54362 0.95452 0.0
H654 H 0.46141 0.50364 0.907 0.0
H655 H 0.49091 0.49478 0.86679 0.0
H656 H 0.42443 0.47087 0.81745 0.0
H657 H 0.39449 0.47988 0.85729 0.0
C658 C 0.3621 0.42149 0.97863 0.0
C659 C 0.33503 0.42345 0.98507 0.0
C660 C 0.37529 0.44036 0.96441 0.0
C661 C 0.36173 0.46162 0.95634 0.0
C662 C 0.33442 0.46309 0.96139 0.0
C663 C 0.32123 0.44428 0.97574 0.0
C664 C 0.37652 0.48278 0.94426 0.0
C665 C 0.3925 0.47912 0.92036 0.0
C666 C 0.37558 0.50633 0.95679 0.0
C667 C 0.36064 0.51109 0.9832 0.0
C668 C 0.34092 0.52915 0.98382 0.0
C669 C 0.32668 0.5335 0.00863 0.0
C670 C 0.33208 0.51998 0.03301 0.0
C671 C 0.35184 0.50216 0.03266 0.0
C672 C 0.36618 0.49777 0.00792 0.0
C673 C 0.43879 0.56832 0.8719 0.0
C674 C 0.45585 0.58083 0.89049 0.0
C675 C 0.42219 0.54963 0.88185 0.0
C676 C 0.42258 0.54285 0.9105 0.0
C677 C 0.43905 0.5558 0.92917 0.0
C678 C 0.45543 0.57458 0.91933 0.0
C679 C 0.40642 0.52194 0.92115 0.0
C680 C 0.39017 0.52563 0.94483 0.0
C681 C 0.40772 0.49827 0.90889 0.0
C682 C 0.42569 0.49267 0.88501 0.0
C683 C 0.45307 0.49664 0.88751 0.0
C684 C 0.46987 0.49157 0.8648 0.0
C685 C 0.45954 0.48233 0.83956 0.0
C686 C 0.4324 0.47806 0.83701 0.0
C687 C 0.4155 0.48313 0.85965 0.0
H688 H 0.47258 0.47842 0.82199 0.0
H689 H 0.32101 0.52336 0.05218 0.0
H690 H 0.7157 0.5546 0.49686 0.0
H691 H 0.69143 0.52248 0.47159 0.0
H692 H 0.63408 0.57593 0.44442 0.0
H693 H 0.65768 0.60768 0.47103 0.0
H694 H 0.60942 0.54027 0.4653 0.0
H695 H 0.67978 0.54467 0.39808 0.0
H696 H 0.72593 0.54481 0.38134 0.0
H697 H 0.73656 0.47192 0.41323 0.0
H698 H 0.69056 0.47145 0.43053 0.0
H699 H 0.53952 0.46421 0.36948 0.0
H700 H 0.56951 0.49508 0.38869 0.0
H701 H 0.61168 0.43909 0.43413 0.0
H702 H 0.58134 0.40785 0.41522 0.0
H703 H 0.64472 0.47463 0.40355 0.0
H704 H 0.57448 0.47267 0.47307 0.0
H705 H 0.52881 0.47448 0.49117 0.0
H706 H 0.51816 0.54464 0.45191 0.0
H707 H 0.56388 0.5433 0.43376 0.0
C708 C 0.6983 0.5595 0.48481 0.0
C709 C 0.68858 0.58354 0.4856 0.0
C710 C 0.68443 0.54116 0.4703 0.0
C711 C 0.6609 0.54668 0.45583 0.0
C712 C 0.65208 0.5711 0.45545 0.0
C713 C 0.66563 0.58929 0.47043 0.0
C714 C 0.64402 0.52682 0.44372 0.0
C715 C 0.61719 0.52626 0.45134 0.0
C716 C 0.6541 0.50792 0.42623 0.0
C717 C 0.68178 0.50813 0.41584 0.0
C718 C 0.69201 0.52874 0.40173 0.0
C719 C 0.71814 0.52887 0.3921 0.0
C720 C 0.73419 0.50841 0.39628 0.0
C721 C 0.72412 0.48776 0.41004 0.0
C722 C 0.69801 0.48755 0.41973 0.0
C723 C 0.5552 0.45835 0.38348 0.0
C724 C 0.55799 0.43352 0.39086 0.0
C725 C 0.57228 0.47608 0.39451 0.0
C726 C 0.59273 0.4694 0.41291 0.0
C727 C 0.59599 0.4446 0.41996 0.0
C728 C 0.57859 0.42682 0.40924 0.0
C729 C 0.61035 0.48854 0.42492 0.0
C730 C 0.63718 0.48886 0.41736 0.0
C731 C 0.6003 0.50748 0.44217 0.0
C732 C 0.57246 0.50777 0.45186 0.0
C733 C 0.56229 0.48835 0.46804 0.0
C734 C 0.53645 0.48935 0.47843 0.0
C735 C 0.52057 0.50964 0.47263 0.0
C736 C 0.53048 0.52894 0.45638 0.0
C737 C 0.55637 0.5281 0.44612 0.0
H738 H 0.50063 0.51049 0.48083 0.0
H739 H 0.75441 0.50855 0.38881 0.0
H740 H 0.7012 0.45567 0.01895 0.0
H741 H 0.68302 0.49291 0.99785 0.0
H742 H 0.65059 0.45018 0.92939 0.0
H743 H 0.6685 0.41292 0.95041 0.0
H744 H 0.66945 0.49454 0.91094 0.0
H745 H 0.6132 0.46399 0.98581 0.0
H746 H 0.60372 0.45074 0.03459 0.0
H747 H 0.62605 0.52176 0.06569 0.0
H748 H 0.63607 0.53531 0.01708 0.0
H749 H 0.5574 0.55814 0.86431 0.0
H750 H 0.58958 0.52966 0.88344 0.0
H751 H 0.61064 0.58204 0.94797 0.0
H752 H 0.57791 0.61077 0.9291 0.0
H753 H 0.60295 0.53729 0.97008 0.0
H754 H 0.6532 0.56956 0.89365 0.0
H755 H 0.6619 0.58241 0.84459 0.0
H756 H 0.65051 0.50848 0.81598 0.0
H757 H 0.64134 0.49523 0.86483 0.0
C758 C 0.69047 0.45426 0.99921 0.0
C759 C 0.68613 0.43128 0.9865 0.0
C760 C 0.68012 0.47555 0.98717 0.0
C761 C 0.66509 0.47428 0.96227 0.0
C762 C 0.66213 0.4516 0.9486 0.0
C763 C 0.67249 0.4303 0.96061 0.0
C764 C 0.6506 0.49605 0.95167 0.0
C765 C 0.65484 0.50386 0.9238 0.0
C766 C 0.632 0.50859 0.9687 0.0
C767 C 0.62568 0.50056 0.99787 0.0
C768 C 0.61627 0.47672 1.00308 0.0
C769 C 0.61078 0.46916 0.03068 0.0
C770 C 0.61436 0.48538 0.05323 0.0
C771 C 0.62334 0.50921 0.0482 0.0
C772 C 0.62893 0.51683 0.02063 0.0
C773 C 0.56895 0.56379 0.88246 0.0
C774 C 0.56495 0.58678 0.8952 0.0
C775 C 0.58753 0.54747 0.89328 0.0
C776 C 0.60281 0.55378 0.91694 0.0
C777 C 0.59913 0.57681 0.92962 0.0
C778 C 0.58045 0.59322 0.91878 0.0
C779 C 0.62146 0.53563 0.92913 0.0
C780 C 0.61792 0.52837 0.95732 0.0
C781 C 0.64066 0.5236 0.91235 0.0
C782 C 0.64642 0.53143 0.88293 0.0
C783 C 0.65238 0.55606 0.87689 0.0
C784 C 0.65742 0.56342 0.84911 0.0
C785 C 0.65672 0.54628 0.82718 0.0
C786 C 0.65104 0.52173 0.83299 0.0
C787 C 0.64596 0.51429 0.86074 0.0
H788 H 0.66061 0.55201 0.80568 0.0
H789 H 0.6101 0.47949 0.07459 0.0
H790 H 0.35509 0.61134 0.44372 0.0
H791 H 0.37178 0.57488 0.41959 0.0
H792 H 0.33937 0.52925 0.48547 0.0
H793 H 0.32243 0.5656 0.50955 0.0
H794 H 0.39087 0.51983 0.47683 0.0
H795 H 0.31377 0.528 0.41881 0.0
H796 H 0.28241 0.54956 0.38777 0.0
H797 H 0.34424 0.56242 0.32736 0.0
H798 H 0.37608 0.54123 0.35822 0.0
H799 H 0.43645 0.40976 0.41754 0.0
H800 H 0.40513 0.44049 0.43477 0.0
H801 H 0.42751 0.48863 0.36643 0.0
H802 H 0.45736 0.45723 0.34813 0.0
H803 H 0.37816 0.49537 0.37678 0.0
H804 H 0.45564 0.48823 0.43508 0.0
H805 H 0.48659 0.46492 0.46471 0.0
H806 H 0.42534 0.45229 0.52581 0.0
H807 H 0.39345 0.47409 0.49558 0.0
C808 C 0.35082 0.59351 0.45265 0.0
C809 C 0.33753 0.59141 0.47866 0.0
C810 C 0.36047 0.57265 0.43886 0.0
C811 C 0.3569 0.54928 0.45073 0.0
C812 C 0.34253 0.54707 0.47599 0.0
C813 C 0.33286 0.56788 0.48973 0.0
C814 C 0.37001 0.52744 0.43819 0.0
C815 C 0.38774 0.51421 0.45508 0.0
C816 C 0.3665 0.52052 0.40961 0.0
C817 C 0.34737 0.5332 0.39096 0.0
C818 C 0.32074 0.5356 0.39902 0.0
C819 C 0.30286 0.54772 0.38143 0.0
C820 C 0.31134 0.5574 0.35564 0.0
C821 C 0.3377 0.55493 0.34735 0.0
C822 C 0.35567 0.54284 0.36487 0.0
C823 C 0.4343 0.42677 0.40601 0.0
C824 C 0.44947 0.43125 0.3817 0.0
C825 C 0.41649 0.44438 0.41589 0.0
C826 C 0.41445 0.46727 0.40242 0.0
C827 C 0.42873 0.47123 0.37734 0.0
C828 C 0.44588 0.45331 0.36693 0.0
C829 C 0.3991 0.48771 0.41541 0.0
C830 C 0.38112 0.50081 0.3986 0.0
C831 C 0.40255 0.4947 0.44407 0.0
C832 C 0.42205 0.48257 0.46286 0.0
C833 C 0.44869 0.48035 0.45473 0.0
C834 C 0.4664 0.46733 0.47161 0.0
C835 C 0.45803 0.45731 0.49725 0.0
C836 C 0.43182 0.46008 0.50594 0.0
C837 C 0.41385 0.47259 0.48883 0.0
H838 H 0.47185 0.44735 0.51035 0.0
H839 H 0.29746 0.56678 0.34206 0.0
H840 H 0.8675 0.91194 0.98048 0.0
H841 H 0.8897 0.9453 0.95536 0.0
H842 H 0.81846 0.98834 0.95945 0.0
H843 H 0.79608 0.95491 0.98447 0.0
H844 H 0.84444 0.99508 0.90912 0.0
H845 H 0.86565 0.99638 0.00826 0.0
H846 H 0.88092 0.97767 0.05275 0.0
H847 H 0.95672 0.9635 0.01545 0.0
H848 H 0.94175 0.98177 0.97056 0.0
H849 H 0.94314 0.10562 0.9242 0.0
H850 H 0.91335 0.0747 0.94418 0.0
H851 H 0.92289 0.03024 0.86954 0.0
H852 H 0.95257 0.06096 0.8494 0.0
H853 H 0.92471 0.02705 0.95707 0.0
H854 H 0.86484 0.99908 0.85767 0.0
H855 H 0.84844 0.01796 0.81372 0.0
H856 H 0.8476 0.08846 0.85394 0.0
H857 H 0.86361 0.06997 0.89825 0.0
C858 C 0.85647 0.92839 0.97569 0.0
C859 C 0.83012 0.93089 0.98469 0.0
C860 C 0.86916 0.94744 0.96135 0.0
C861 C 0.85589 0.96951 0.95601 0.0
C862 C 0.82911 0.9715 0.96341 0.0
C863 C 0.81632 0.95236 0.97764 0.0
C864 C 0.87055 0.99104 0.94473 0.0
C865 C 0.86199 1.00207 0.91956 0.0
C866 C 0.89315 1.00051 0.9587 0.0
C867 C 0.90251 0.9903 0.98598 0.0
C868 C 0.88554 0.9892 0.00951 0.0
C869 C 0.89414 0.97866 0.0348 0.0
C870 C 0.91976 0.96936 0.03691 0.0
C871 C 0.93688 0.9707 0.01378 0.0
C872 C 0.92836 0.98117 0.98842 0.0
C873 C 0.93868 0.0894 0.91189 0.0
C874 C 0.95033 0.08577 0.88521 0.0
C875 C 0.92174 0.07169 0.9234 0.0
C876 C 0.91582 0.05019 0.90832 0.0
C877 C 0.92695 0.04678 0.88145 0.0
C878 C 0.94402 0.06435 0.87002 0.0
C879 C 0.89896 0.0308 0.9211 0.0
C880 C 0.90712 0.02014 0.94662 0.0
C881 C 0.87585 0.0219 0.9076 0.0
C882 C 0.86567 0.03314 0.88122 0.0
C883 C 0.86102 0.01859 0.85719 0.0
C884 C 0.85182 0.02923 0.8322 0.0
C885 C 0.84706 0.05441 0.83102 0.0
C886 C 0.85139 0.06898 0.85486 0.0
C887 C 0.86056 0.05843 0.87991 0.0
H888 H 0.83998 0.06261 0.81164 0.0
H889 H 0.92636 0.96114 0.05647 0.0
H890 H 0.14635 0.10432 0.48045 0.0
H891 H 0.12225 0.07051 0.45813 0.0
H892 H 0.18611 0.02136 0.47861 0.0
H893 H 0.21072 0.05547 0.49971 0.0
H894 H 0.16914 0.00981 0.42974 0.0
H895 H 0.12596 0.02533 0.51763 0.0
H896 H 0.10326 0.04936 0.55444 0.0
H897 H 0.04032 0.06544 0.49658 0.0
H898 H 0.0629 0.04193 0.45924 0.0
H899 H 0.08649 0.90187 0.41167 0.0
H900 H 0.11425 0.93381 0.43343 0.0
H901 H 0.06516 0.98958 0.3963 0.0
H902 H 0.03778 0.95811 0.37428 0.0
H903 H 0.07535 0.99541 0.45563 0.0
H904 H 0.12117 0.98044 0.36742 0.0
H905 H 0.14374 0.95433 0.33245 0.0
H906 H 0.20168 0.93444 0.39454 0.0
H907 H 0.17919 0.96018 0.43002 0.0
C908 C 0.15526 0.08631 0.47994 0.0
C909 C 0.18034 0.08246 0.49178 0.0
C910 C 0.14142 0.06694 0.4674 0.0
C911 C 0.15202 0.04314 0.46724 0.0
C912 C 0.17741 0.03946 0.47849 0.0
C913 C 0.19149 0.05895 0.49052 0.0
C914 C 0.1366 0.02213 0.45554 0.0
C915 C 0.14875 1.00652 0.43579 0.0
C916 C 0.10986 0.01777 0.46313 0.0
C917 C 0.09629 0.03205 0.48553 0.0
C918 C 0.1074 0.03417 0.51267 0.0
C919 C 0.09454 0.04769 0.53365 0.0
C920 C 0.07041 0.05898 0.52783 0.0
C921 C 0.05905 0.05674 0.50104 0.0
C922 C 0.07188 0.04332 0.47996 0.0
C923 C 0.08176 0.92095 0.40806 0.0
C924 C 0.06006 0.92744 0.39111 0.0
C925 C 0.09761 0.93913 0.42045 0.0
C926 C 0.09172 0.96402 0.41641 0.0
C927 C 0.07001 0.97049 0.39967 0.0
C928 C 0.0545 0.95243 0.38695 0.0
C929 C 0.10785 0.98355 0.4298 0.0
C930 C 0.0958 0.99878 0.44984 0.0
C931 C 0.13471 0.98732 0.42282 0.0
C932 C 0.14832 0.972 0.40145 0.0
C933 C 0.13858 0.97032 0.37369 0.0
C934 C 0.15139 0.95563 0.35376 0.0
C935 C 0.17409 0.94267 0.36129 0.0
C936 C 0.18407 0.94445 0.38875 0.0
C937 C 0.17131 0.9591 0.40877 0.0
H938 H 0.18398 0.9313 0.34584 0.0
H939 H 0.06047 0.06942 0.54411 0.0
H940 H 0.1312 0.92237 0.99916 0.0
H941 H 0.11227 0.95707 0.97369 0.0
H942 H 0.1863 0.96831 0.93034 0.0
H943 H 0.20542 0.93329 0.9558 0.0
H944 H 0.16189 0.01248 0.95275 0.0
H945 H 0.14159 0.94353 0.89394 0.0
H946 H 0.12505 0.9019 0.88387 0.0
H947 H 0.0477 0.92248 0.91253 0.0
H948 H 0.06389 0.96414 0.9232 0.0
H949 H 0.06709 0.06853 0.83813 0.0
H950 H 0.09664 0.03648 0.85538 0.0
H951 H 0.08522 0.06176 0.94086 0.0
H952 H 0.0557 0.09387 0.92387 0.0
H953 H 0.08386 0.99922 0.891 0.0
H954 H 0.14185 0.05087 0.97847 0.0
H955 H 0.15896 0.09244 0.98787 0.0
H956 H 0.16292 0.10661 0.89874 0.0
H957 H 0.14623 0.06502 0.88879 0.0
C958 C 0.14353 0.93235 0.98437 0.0
C959 C 0.16983 0.92523 0.97954 0.0
C960 C 0.13266 0.95207 0.96975 0.0
C961 C 0.14787 0.96519 0.9501 0.0
C962 C 0.17427 0.9584 0.94545 0.0
C963 C 0.1851 0.93838 0.95986 0.0
C964 C 0.13579 0.98571 0.93426 0.0
C965 C 0.14493 0.00963 0.9391 0.0
C966 C 0.1139 0.98188 0.91618 0.0
C967 C 0.10402 0.95691 0.90956 0.0
C968 C 0.1211 0.93913 0.8983 0.0
C969 C 0.11178 0.91553 0.89245 0.0
C970 C 0.08535 0.90954 0.8976 0.0
C971 C 0.06817 0.92714 0.90856 0.0
C972 C 0.07741 0.95076 0.91448 0.0
C973 C 0.07109 0.06749 0.86058 0.0
C974 C 0.05889 0.08374 0.87963 0.0
C975 C 0.08793 0.04909 0.8704 0.0
C976 C 0.09322 0.04678 0.89938 0.0
C977 C 0.08166 0.06336 0.91837 0.0
C978 C 0.06468 0.08165 0.90861 0.0
C979 C 0.10949 0.02615 0.91002 0.0
C980 C 0.10102 1.00215 0.90433 0.0
C981 C 0.13208 0.02995 0.92716 0.0
C982 C 0.14258 0.05487 0.93291 0.0
C983 C 0.14651 0.06281 0.96087 0.0
C984 C 0.15611 0.08639 0.9663 0.0
C985 C 0.16195 0.10218 0.94392 0.0
C986 C 0.1583 0.09439 0.91606 0.0
C987 C 0.14874 0.07082 0.91052 0.0
H988 H 0.16935 0.12044 0.94817 0.0
H989 H 0.07817 0.89126 0.89306 0.0
H990 H 0.86582 0.11306 0.44685 0.0
H991 H 0.88726 0.07801 0.42419 0.0
H992 H 0.84767 0.02906 0.48194 0.0
H993 H 0.82602 0.06406 0.50459 0.0
H994 H 0.92131 0.04475 0.44815 0.0
H995 H 0.83481 0.97526 0.44568 0.0
H996 H 0.78618 0.97521 0.44176 0.0
H997 H 0.78906 0.04367 0.39727 0.0
H998 H 0.83769 0.04396 0.40057 0.0
H999 H 0.96896 0.92448 0.43004 0.0
H1000 H 0.94249 0.95864 0.44735 0.0
H1001 H 0.91093 0.96965 0.36373 0.0
H1002 H 0.93746 0.93542 0.34606 0.0
H1003 H 0.87276 0.97435 0.40641 0.0
H1004 H 0.9597 1.00404 0.38441 0.0
H1005 H 0.00839 1.0042 0.38672 0.0
H1006 H 1.00512 0.01748 0.47607 0.0
H1007 H 0.95636 0.01678 0.47445 0.0
C1008 C 0.86134 0.0948 0.45441 0.0
C1009 C 0.84411 0.0913 0.47741 0.0
C1010 C 0.87379 0.07481 0.44162 0.0
C1011 C 0.86901 0.05091 0.4513 0.0
C1012 C 0.85149 0.04732 0.47396 0.0
C1013 C 0.83922 0.06732 0.48695 0.0
C1014 C 0.88295 0.02981 0.43827 0.0
C1015 C 0.9107 0.02937 0.43902 0.0
C1016 C 0.86912 0.00986 0.42606 0.0
C1017 C 0.83988 0.00973 0.42364 0.0
C1018 C 0.82507 0.99025 0.43497 0.0
C1019 C 0.7975 0.99019 0.43287 0.0
C1020 C 0.78453 0.00947 0.41936 0.0
C1021 C 0.79911 0.0288 0.40783 0.0
C1022 C 0.82668 0.02894 0.40985 0.0
C1023 C 0.95617 0.93391 0.41531 0.0
C1024 C 0.95553 0.92728 0.38656 0.0
C1025 C 0.94111 0.95352 0.42527 0.0
C1026 C 0.92504 0.96688 0.40675 0.0
C1027 C 0.9233 0.95962 0.37835 0.0
C1028 C 0.93852 0.94008 0.36829 0.0
C1029 C 0.91105 0.9891 0.41684 0.0
C1030 C 0.88335 0.98974 0.41556 0.0
C1031 C 0.92495 0.00934 0.42837 0.0
C1032 C 0.95432 0.0101 0.42935 0.0
C1033 C 0.96934 1.00677 0.40461 0.0
C1034 C 0.99696 1.00696 0.40579 0.0
C1035 C 0.00983 0.01078 0.43154 0.0
C1036 C 0.99511 0.01447 0.45616 0.0
C1037 C 0.96747 0.01416 0.45512 0.0
H1038 H 0.0312 0.01094 0.4324 0.0
H1039 H 0.76319 0.00939 0.41777 0.0
H1040 H 0.30031 0.37522 0.09945 0.0
H1041 H 0.32321 0.36781 0.1439 0.0
H1042 H 0.39738 0.3629 0.09929 0.0
H1043 H 0.37437 0.36852 0.0545 0.0
H1044 H 0.3984 0.33207 0.14036 0.0
H1045 H 0.37564 0.4169 0.13267 0.0
H1046 H 0.34612 0.45229 0.12609 0.0
H1047 H 0.30218 0.43165 0.20003 0.0
H1048 H 0.33126 0.39592 0.20682 0.0
H1049 H 0.48193 0.38879 0.24826 0.0
H1050 H 0.4533 0.38475 0.20684 0.0
H1051 H 0.39748 0.34279 0.25591 0.0
H1052 H 0.42666 0.34594 0.29741 0.0
H1053 H 0.38482 0.39424 0.21549 0.0
H1054 H 0.41297 0.30863 0.22212 0.0
H1055 H 0.44698 0.27667 0.22682 0.0
H1056 H 0.48544 0.30294 0.15182 0.0
H1057 H 0.45216 0.33564 0.14725 0.0
C1058 C 0.32138 0.37189 0.09889 0.0
C1059 C 0.33547 0.37274 0.07323 0.0
C1060 C 0.33454 0.368 0.12448 0.0
C1061 C 0.36216 0.36542 0.12512 0.0
C1062 C 0.3761 0.36504 0.09946 0.0
C1063 C 0.36291 0.36855 0.07383 0.0
C1064 C 0.37672 0.36436 0.15247 0.0
C1065 C 0.39535 0.34569 0.15673 0.0
C1066 C 0.37287 0.38208 0.17402 0.0
C1067 C 0.35542 0.40359 0.17006 0.0
C1068 C 0.35956 0.41981 0.1474 0.0
C1069 C 0.34293 0.43994 0.14365 0.0
C1070 C 0.32224 0.44417 0.16258 0.0
C1071 C 0.31819 0.42832 0.18535 0.0
C1072 C 0.33474 0.40813 0.18917 0.0
C1073 C 0.46356 0.37868 0.25026 0.0
C1074 C 0.45643 0.36774 0.27608 0.0
C1075 C 0.44733 0.37631 0.22656 0.0
C1076 C 0.42344 0.36335 0.22835 0.0
C1077 C 0.41601 0.35266 0.25414 0.0
C1078 C 0.43262 0.35449 0.27775 0.0
C1079 C 0.40606 0.36188 0.20327 0.0
C1080 C 0.38727 0.38034 0.1993 0.0
C1081 C 0.41017 0.34433 0.18178 0.0
C1082 C 0.43033 0.32484 0.18464 0.0
C1083 C 0.42896 0.3079 0.20695 0.0
C1084 C 0.44809 0.28962 0.20955 0.0
C1085 C 0.4685 0.28791 0.18976 0.0
C1086 C 0.46977 0.30444 0.16728 0.0
C1087 C 0.45079 0.32286 0.16469 0.0
H1088 H 0.48324 0.2737 0.19175 0.0
H1089 H 0.30938 0.45977 0.15965 0.0
H1090 H 0.68948 0.66459 0.58159 0.0
H1091 H 0.66478 0.67003 0.62579 0.0
H1092 H 0.64524 0.59303 0.62597 0.0
H1093 H 0.6693 0.58768 0.58174 0.0
H1094 H 0.60347 0.6178 0.63957 0.0
H1095 H 0.69446 0.61875 0.66924 0.0
H1096 H 0.74073 0.63312 0.66943 0.0
H1097 H 0.71532 0.705 0.69407 0.0
H1098 H 0.66884 0.69113 0.69366 0.0
H1099 H 0.56742 0.59988 0.78216 0.0
H1100 H 0.5951 0.59952 0.73976 0.0
H1101 H 0.59221 0.67835 0.73617 0.0
H1102 H 0.56411 0.67892 0.77838 0.0
H1103 H 0.64436 0.65554 0.72448 0.0
H1104 H 0.55291 0.65293 0.69645 0.0
H1105 H 0.50736 0.63683 0.69871 0.0
H1106 H 0.53472 0.56607 0.67224 0.0
H1107 H 0.58055 0.58163 0.67041 0.0
C1108 C 0.67992 0.64887 0.59116 0.0
C1109 C 0.68118 0.62576 0.57813 0.0
C1110 C 0.66587 0.65196 0.61643 0.0
C1111 C 0.65329 0.63188 0.62941 0.0
C1112 C 0.6546 0.60883 0.61635 0.0
C1113 C 0.66835 0.6058 0.59102 0.0
C1114 C 0.63868 0.63466 0.65654 0.0
C1115 C 0.61258 0.62586 0.65815 0.0
C1116 C 0.65025 0.64562 0.68076 0.0
C1117 C 0.67817 0.65397 0.68111 0.0
C1118 C 0.69873 0.63767 0.67449 0.0
C1119 C 0.72499 0.64571 0.67467 0.0
C1120 C 0.73095 0.66997 0.68167 0.0
C1121 C 0.71066 0.68622 0.6886 0.0
C1122 C 0.68437 0.67828 0.68841 0.0
C1123 C 0.57299 0.61718 0.77264 0.0
C1124 C 0.56339 0.63943 0.78349 0.0
C1125 C 0.58876 0.61692 0.7484 0.0
C1126 C 0.59549 0.6389 0.7348 0.0
C1127 C 0.58719 0.66122 0.74641 0.0
C1128 C 0.57106 0.66148 0.77042 0.0
C1129 C 0.60955 0.63837 0.70736 0.0
C1130 C 0.63538 0.64762 0.70575 0.0
C1131 C 0.59785 0.62765 0.68319 0.0
C1132 C 0.57022 0.6184 0.68357 0.0
C1133 C 0.54925 0.63389 0.69133 0.0
C1134 C 0.52338 0.62487 0.69251 0.0
C1135 C 0.51816 0.60043 0.68569 0.0
C1136 C 0.5388 0.58499 0.67756 0.0
C1137 C 0.56473 0.59391 0.67644 0.0
H1138 H 0.49812 0.59347 0.68664 0.0
H1139 H 0.75129 0.67617 0.6818 0.0
H1140 H 0.69509 0.41564 0.08884 0.0
H1141 H 0.67371 0.41354 0.13511 0.0
H1142 H 0.64032 0.3432 0.11341 0.0
H1143 H 0.6607 0.34564 0.06674 0.0
H1144 H 0.60354 0.37201 0.13447 0.0
H1145 H 0.69138 0.3494 0.16186 0.0
H1146 H 0.73978 0.35384 0.16543 0.0
H1147 H 0.73031 0.42161 0.21037 0.0
H1148 H 0.68183 0.41774 0.20673 0.0
H1149 H 0.55433 0.33786 0.26703 0.0
H1150 H 0.5833 0.33898 0.22591 0.0
H1151 H 0.60593 0.41313 0.24618 0.0
H1152 H 0.57688 0.41225 0.28766 0.0
H1153 H 0.64853 0.38355 0.22672 0.0
H1154 H 0.56016 0.40517 0.19983 0.0
H1155 H 0.51187 0.39925 0.19766 0.0
H1156 H 0.52265 0.33228 0.15153 0.0
H1157 H 0.57099 0.33742 0.15413 0.0
C1158 C 0.68331 0.39966 0.09397 0.0
C1159 C 0.67964 0.38081 0.07402 0.0
C1160 C 0.67127 0.39839 0.12055 0.0
C1161 C 0.65551 0.37814 0.12786 0.0
C1162 C 0.65241 0.359 0.10828 0.0
C1163 C 0.66434 0.3603 0.08168 0.0
C1164 C 0.64102 0.37749 0.15521 0.0
C1165 C 0.61348 0.37418 0.15463 0.0
C1166 C 0.65383 0.38103 0.18154 0.0
C1167 C 0.68297 0.3834 0.18377 0.0
C1168 C 0.69962 0.36535 0.17229 0.0
C1169 C 0.72707 0.36775 0.17437 0.0
C1170 C 0.73811 0.38803 0.18805 0.0
C1171 C 0.72172 0.40593 0.19974 0.0
C1172 C 0.69426 0.40363 0.1977 0.0
C1173 C 0.56564 0.35437 0.26303 0.0
C1174 C 0.56296 0.37511 0.28048 0.0
C1175 C 0.58221 0.35495 0.23947 0.0
C1176 C 0.59644 0.37625 0.23279 0.0
C1177 C 0.59502 0.39654 0.25095 0.0
C1178 C 0.57833 0.39602 0.27457 0.0
C1179 C 0.61127 0.37774 0.20582 0.0
C1180 C 0.63872 0.38135 0.20649 0.0
C1181 C 0.59842 0.37442 0.17952 0.0
C1182 C 0.56926 0.37155 0.17744 0.0
C1183 C 0.55225 0.38906 0.18945 0.0
C1184 C 0.52484 0.38583 0.18817 0.0
C1185 C 0.51417 0.36534 0.17459 0.0
C1186 C 0.5309 0.34808 0.16218 0.0
C1187 C 0.55832 0.35114 0.16356 0.0
H1188 H 0.49296 0.36289 0.17361 0.0
H1189 H 0.75937 0.38985 0.18964 0.0
H1190 H 0.31623 0.65959 0.58702 0.0
H1191 H 0.33473 0.66174 0.63485 0.0
H1192 H 0.39905 0.61514 0.60916 0.0
H1193 H 0.3813 0.61344 0.56138 0.0
H1194 H 0.37703 0.6012 0.66038 0.0
H1195 H 0.40821 0.67543 0.61442 0.0
H1196 H 0.40213 0.71464 0.58946 0.0
H1197 H 0.35659 0.74222 0.6591 0.0
H1198 H 0.36212 0.70301 0.68431 0.0
H1199 H 0.4793 0.61391 0.75712 0.0
H1200 H 0.45096 0.6143 0.71574 0.0
H1201 H 0.40161 0.66907 0.75478 0.0
H1202 H 0.43083 0.66946 0.79629 0.0
H1203 H 0.40869 0.67977 0.70108 0.0
H1204 H 0.38146 0.60791 0.74978 0.0
H1205 H 0.38704 0.56894 0.77535 0.0
H1206 H 0.4229 0.53678 0.70198 0.0
H1207 H 0.41789 0.57566 0.67608 0.0
C1208 C 0.33439 0.6499 0.59151 0.0
C1209 C 0.34715 0.63622 0.57029 0.0
C1210 C 0.34487 0.65109 0.61888 0.0
C1211 C 0.36828 0.63861 0.62554 0.0
C1212 C 0.38085 0.62474 0.60455 0.0
C1213 C 0.37054 0.62368 0.57723 0.0
C1214 C 0.38018 0.64013 0.65416 0.0
C1215 C 0.38406 0.61835 0.66926 0.0
C1216 C 0.38848 0.66262 0.66617 0.0
C1217 C 0.38531 0.68621 0.65109 0.0
C1218 C 0.39672 0.68979 0.6243 0.0
C1219 C 0.3934 0.71202 0.61013 0.0
C1220 C 0.37891 0.73088 0.62264 0.0
C1221 C 0.36777 0.72758 0.6494 0.0
C1222 C 0.37099 0.70536 0.66364 0.0
C1223 C 0.46231 0.62593 0.75713 0.0
C1224 C 0.45711 0.64144 0.7802 0.0
C1225 C 0.44602 0.62606 0.7334 0.0
C1226 C 0.42369 0.64123 0.73236 0.0
C1227 C 0.41859 0.65704 0.75519 0.0
C1228 C 0.43523 0.65721 0.7789 0.0
C1229 C 0.40625 0.6407 0.70704 0.0
C1230 C 0.40127 0.66264 0.69253 0.0
C1231 C 0.39667 0.61834 0.69567 0.0
C1232 C 0.39939 0.59476 0.71103 0.0
C1233 C 0.39065 0.59256 0.73914 0.0
C1234 C 0.39371 0.57048 0.75369 0.0
C1235 C 0.40534 0.5504 0.74031 0.0
C1236 C 0.41388 0.55234 0.71232 0.0
C1237 C 0.41089 0.57439 0.69767 0.0
H1238 H 0.40771 0.53333 0.75162 0.0
H1239 H 0.37637 0.74808 0.61164 0.0
H1240 H 0.84831 0.92043 0.08098 0.0
H1241 H 0.8728 0.91164 0.12407 0.0
H1242 H 0.85054 0.83547 0.11805 0.0
H1243 H 0.82551 0.84431 0.07472 0.0
H1244 H 0.84755 0.85167 0.17225 0.0
H1245 H 0.9125 0.85363 0.09908 0.0
H1246 H 0.9353 0.87059 0.05737 0.0
H1247 H 0.95719 0.93452 0.1049 0.0
H1248 H 0.93424 0.9181 0.14682 0.0
H1249 H 0.94694 0.82665 0.27944 0.0
H1250 H 0.91954 0.8255 0.23664 0.0
H1251 H 0.93054 0.90333 0.22609 0.0
H1252 H 0.95788 0.90463 0.26831 0.0
H1253 H 0.94099 0.87905 0.17807 0.0
H1254 H 0.87216 0.8787 0.24956 0.0
H1255 H 0.84902 0.86191 0.29118 0.0
H1256 H 0.83495 0.79453 0.24676 0.0
H1257 H 0.85837 0.81078 0.205 0.0
C1258 C 0.84878 0.90174 0.08864 0.0
C1259 C 0.83536 0.88297 0.07416 0.0
C1260 C 0.86276 0.89674 0.11334 0.0
C1261 C 0.864 0.87279 0.124 0.0
C1262 C 0.85 0.85406 0.11011 0.0
C1263 C 0.83575 0.85911 0.08538 0.0
C1264 C 0.88023 0.86763 0.14949 0.0
C1265 C 0.86812 0.85723 0.17339 0.0
C1266 C 0.90706 0.875 0.15105 0.0
C1267 C 0.92148 0.88468 0.12606 0.0
C1268 C 0.92208 0.87135 0.10062 0.0
C1269 C 0.93504 0.88087 0.07693 0.0
C1270 C 0.94764 0.90365 0.07846 0.0
C1271 C 0.94742 0.91689 0.10374 0.0
C1272 C 0.93448 0.90745 0.12749 0.0
C1273 C 0.9432 0.84355 0.26819 0.0
C1274 C 0.95476 0.8657 0.27722 0.0
C1275 C 0.92756 0.84286 0.24373 0.0
C1276 C 0.92308 0.86433 0.22809 0.0
C1277 C 0.9339 0.88651 0.23765 0.0
C1278 C 0.94949 0.88721 0.26191 0.0
C1279 C 0.90804 0.86398 0.20114 0.0
C1280 C 0.9205 0.8732 0.17685 0.0
C1281 C 0.88164 0.85548 0.19929 0.0
C1282 C 0.86728 0.84585 0.22427 0.0
C1283 C 0.86431 0.86023 0.24874 0.0
C1284 C 0.85112 0.85083 0.27235 0.0
C1285 C 0.8406 0.82714 0.27165 0.0
C1286 C 0.84316 0.81285 0.2473 0.0
C1287 C 0.85638 0.82215 0.22365 0.0
H1288 H 0.83039 0.81989 0.28993 0.0
H1289 H 0.95758 0.91102 0.06008 0.0
H1290 H 0.21715 0.13896 0.59783 0.0
H1291 H 0.19433 0.1473 0.64226 0.0
H1292 H 0.12052 0.15403 0.59739 0.0
H1293 H 0.14342 0.14692 0.55271 0.0
H1294 H 0.12077 0.18454 0.64082 0.0
H1295 H 0.1398 0.09925 0.62609 0.0
H1296 H 0.16842 0.06366 0.61678 0.0
H1297 H 0.21224 0.07872 0.69257 0.0
H1298 H 0.18407 0.11464 0.7021 0.0
H1299 H 0.04957 0.10985 0.75716 0.0
H1300 H 0.07906 0.11249 0.71662 0.0
H1301 H 0.10332 0.18493 0.74249 0.0
H1302 H 0.07329 0.18265 0.78304 0.0
H1303 H 0.13005 0.11691 0.71007 0.0
H1304 H 0.11559 0.21912 0.68273 0.0
H1305 H 0.08209 0.25151 0.68853 0.0
H1306 H 0.02069 0.19709 0.69163 0.0
H1307 H 0.05377 0.16445 0.68548 0.0
C1308 C 0.19623 0.14303 0.59723 0.0
C1309 C 0.18207 0.14193 0.57166 0.0
C1310 C 0.18314 0.14754 0.62275 0.0
C1311 C 0.15559 0.15071 0.62327 0.0
C1312 C 0.14174 0.15146 0.59759 0.0
C1313 C 0.15485 0.14717 0.57206 0.0
C1314 C 0.14083 0.15083 0.65048 0.0
C1315 C 0.12301 0.1699 0.6561 0.0
C1316 C 0.14321 0.13144 0.67019 0.0
C1317 C 0.16004 0.10977 0.66463 0.0
C1318 C 0.15565 0.09506 0.64066 0.0
C1319 C 0.17178 0.07483 0.63536 0.0
C1320 C 0.19218 0.06898 0.65403 0.0
C1321 C 0.19645 0.08331 0.6781 0.0
C1322 C 0.18042 0.1036 0.68347 0.0
C1323 C 0.06123 0.12635 0.7544 0.0
C1324 C 0.05885 0.14613 0.77331 0.0
C1325 C 0.0782 0.12778 0.73119 0.0
C1326 C 0.09323 0.14899 0.72627 0.0
C1327 C 0.09161 0.16851 0.74559 0.0
C1328 C 0.07451 0.16713 0.76884 0.0
C1329 C 0.11 0.15065 0.70049 0.0
C1330 C 0.12818 0.13185 0.6951 0.0
C1331 C 0.10729 0.16987 0.68061 0.0
C1332 C 0.0872 0.18936 0.68401 0.0
C1333 C 0.09493 0.2141 0.68458 0.0
C1334 C 0.07602 0.23249 0.68793 0.0
C1335 C 0.04929 0.22636 0.69056 0.0
C1336 C 0.0414 0.20182 0.68971 0.0
C1337 C 0.06023 0.18337 0.68633 0.0
H1338 H 0.03468 0.24062 0.69317 0.0
H1339 H 0.20465 0.0533 0.6499 0.0
H1340 H 0.18918 0.91339 0.08172 0.0
H1341 H 0.16942 0.91091 0.12884 0.0
H1342 H 0.14144 0.83791 0.11043 0.0
H1343 H 0.16067 0.8405 0.06307 0.0
H1344 H 0.10227 0.86679 0.12983 0.0
H1345 H 0.19094 0.84769 0.15808 0.0
H1346 H 0.23911 0.85395 0.16157 0.0
H1347 H 0.22673 0.92232 0.20439 0.0
H1348 H 0.17846 0.91664 0.20081 0.0
H1349 H 0.05385 0.83451 0.26325 0.0
H1350 H 0.08198 0.83595 0.22154 0.0
H1351 H 0.10369 0.91049 0.24106 0.0
H1352 H 0.07541 0.90928 0.28319 0.0
H1353 H 0.14649 0.88199 0.2218 0.0
H1354 H 0.05849 0.90179 0.19339 0.0
H1355 H 0.0102 0.89628 0.1901 0.0
H1356 H 0.02119 0.82777 0.14715 0.0
H1357 H 0.06959 0.83266 0.1506 0.0
C1358 C 0.17913 0.89668 0.08788 0.0
C1359 C 0.17645 0.87716 0.06864 0.0
C1360 C 0.16797 0.89523 0.11487 0.0
C1361 C 0.15396 0.87421 0.12321 0.0
C1362 C 0.15216 0.85432 0.10445 0.0
C1363 C 0.16339 0.85573 0.07748 0.0
C1364 C 0.13947 0.87368 0.15055 0.0
C1365 C 0.11204 0.86971 0.14996 0.0
C1366 C 0.15205 0.87839 0.17675 0.0
C1367 C 0.18107 0.88185 0.17891 0.0
C1368 C 0.19848 0.86417 0.16802 0.0
C1369 C 0.22581 0.86759 0.17006 0.0
C1370 C 0.23598 0.88855 0.18313 0.0
C1371 C 0.21883 0.90611 0.19424 0.0
C1372 C 0.19148 0.90279 0.19223 0.0
C1373 C 0.06471 0.85121 0.25892 0.0
C1374 C 0.06206 0.87191 0.27645 0.0
C1375 C 0.08079 0.85198 0.23499 0.0
C1376 C 0.09459 0.87343 0.22797 0.0
C1377 C 0.09309 0.89378 0.24607 0.0
C1378 C 0.07687 0.89307 0.27008 0.0
C1379 C 0.10946 0.87476 0.20098 0.0
C1380 C 0.13683 0.879 0.20162 0.0
C1381 C 0.09684 0.87046 0.17474 0.0
C1382 C 0.0677 0.86748 0.17251 0.0
C1383 C 0.05063 0.88544 0.18346 0.0
C1384 C 0.02323 0.88245 0.18153 0.0
C1385 C 0.01263 0.86166 0.16848 0.0
C1386 C 0.02943 0.84385 0.15729 0.0
C1387 C 0.05685 0.84673 0.15921 0.0
H1388 H 0.99141 0.8594 0.16699 0.0
H1389 H 0.25714 0.89116 0.1847 0.0
H1390 H 0.84641 0.1759 0.56389 0.0
H1391 H 0.86454 0.17798 0.61154 0.0
H1392 H 0.84187 0.10283 0.62597 0.0
H1393 H 0.82247 0.10092 0.57866 0.0
H1394 H 0.83762 0.12908 0.67431 0.0
H1395 H 0.9032 0.11616 0.6032 0.0
H1396 H 0.92751 0.12444 0.55905 0.0
H1397 H 0.95124 0.19482 0.59091 0.0
H1398 H 0.92669 0.1871 0.63511 0.0
H1399 H 0.9376 0.10394 0.77854 0.0
H1400 H 0.90806 0.10383 0.73758 0.0
H1401 H 0.92799 0.17934 0.72104 0.0
H1402 H 0.95772 0.17954 0.76157 0.0
H1403 H 0.93265 0.15186 0.67442 0.0
H1404 H 0.86701 0.16255 0.74755 0.0
H1405 H 0.84457 0.15126 0.79196 0.0
H1406 H 0.82307 0.08154 0.75662 0.0
H1407 H 0.84565 0.09232 0.71207 0.0
C1408 C 0.84442 0.16003 0.57743 0.0
C1409 C 0.8332 0.13813 0.56722 0.0
C1410 C 0.8551 0.16117 0.60464 0.0
C1411 C 0.85515 0.14038 0.62211 0.0
C1412 C 0.84227 0.11905 0.61281 0.0
C1413 C 0.83138 0.11794 0.58564 0.0
C1414 C 0.87078 0.14024 0.64874 0.0
C1415 C 0.85843 0.1339 0.67433 0.0
C1416 C 0.89798 0.14649 0.64883 0.0
C1417 C 0.91287 0.15116 0.62233 0.0
C1418 C 0.91342 0.13348 0.6007 0.0
C1419 C 0.92727 0.13806 0.57568 0.0
C1420 C 0.94085 0.16017 0.57215 0.0
C1421 C 0.94066 0.17772 0.59366 0.0
C1422 C 0.92679 0.17325 0.6187 0.0
C1423 C 0.93549 0.1206 0.76637 0.0
C1424 C 0.9502 0.1417 0.77328 0.0
C1425 C 0.9185 0.12054 0.74301 0.0
C1426 C 0.91572 0.14162 0.72627 0.0
C1427 C 0.92985 0.16285 0.73358 0.0
C1428 C 0.94684 0.16292 0.75683 0.0
C1429 C 0.89941 0.14129 0.70014 0.0
C1430 C 0.91176 0.1473 0.67451 0.0
C1431 C 0.87239 0.1344 0.70006 0.0
C1432 C 0.8582 0.12817 0.72655 0.0
C1433 C 0.85759 0.14477 0.74929 0.0
C1434 C 0.84484 0.13847 0.77448 0.0
C1435 C 0.83246 0.11567 0.77713 0.0
C1436 C 0.83268 0.09919 0.75453 0.0
C1437 C 0.84541 0.1054 0.72929 0.0
H1438 H 0.82267 0.1108 0.79669 0.0
H1439 H 0.95157 0.16368 0.55276 0.0
loop_
_geom_bond_atom_site_label_1
_geom_bond_atom_site_label_2
_geom_bond_distance
_geom_bond_site_symmetry_2
_ccdc_geom_bond_type
H0 C1 0.959 . S
C1 H0 0.959 . S
C1 C2 1.393 1_556 S
C1 C3 1.383 1_556 S
C2 C1 1.393 1_554 S
C2 C5 1.390 . S
C3 C1 1.383 1_554 S
C3 C7 1.387 . S
C3 C8 1.491 . S
H4 C5 0.950 . S
C5 C2 1.390 . S
C5 H4 0.950 . S
C5 C6 1.378 . S
C6 C5 1.378 . S
C6 C7 1.409 . S
C7 C3 1.387 . S
C7 C6 1.409 . S
C7 H9 0.951 . S
C8 C3 1.491 . S
C8 C10 1.382 1_554 S
C8 C12 1.404 . S
H9 C7 0.951 . S
C10 C8 1.382 1_556 S
C10 C11 1.390 . S
C10 H15 0.949 . S
C11 C10 1.390 . S
C11 C16 1.399 1_556 S
C12 C8 1.404 . S
C12 H13 0.950 . S
C12 C14 1.375 . S
H13 C12 0.950 . S
C14 C12 1.375 . S
C14 C16 1.382 . S
C14 H18 0.950 . S
H15 C10 0.949 . S
C16 C11 1.399 1_554 S
C16 C14 1.382 . S
C16 H17 0.952 . S
H17 C16 0.952 . S
H18 C14 0.950 . S
H19 C20 0.949 . S
C20 H19 0.949 . S
C20 C21 1.395 . S
C20 C22 1.391 . S
C21 C20 1.395 . S
C21 C24 1.390 . S
C22 C20 1.391 . S
C22 C26 1.387 . S
C22 C27 1.491 . S
H23 C24 0.950 . S
C24 C21 1.390 . S
C24 H23 0.950 . S
C24 C25 1.378 . S
C25 C24 1.378 . S
C25 C26 1.409 . S
C26 C22 1.387 . S
C26 C25 1.409 . S
C26 H28 0.951 . S
C27 C22 1.491 . S
C27 C29 1.382 . S
C27 C31 1.404 . S
H28 C26 0.951 . S
C29 C27 1.382 . S
C29 C30 1.390 . S
C29 H34 0.949 . S
C30 C29 1.390 . S
C30 C35 1.399 . S
C31 C27 1.404 . S
C31 H32 0.950 . S
C31 C33 1.375 . S
H32 C31 0.950 . S
C33 C31 1.375 . S
C33 C35 1.382 . S
C33 H37 0.950 . S
H34 C29 0.949 . S
C35 C30 1.399 . S
C35 C33 1.382 . S
C35 H36 0.952 . S
H36 C35 0.952 . S
H37 C33 0.950 . S
H38 C39 0.949 . S
C39 H38 0.949 . S
C39 C40 1.395 1_556 S
C39 C41 1.391 1_556 S
C40 C39 1.395 1_554 S
C40 C43 1.390 . S
C41 C39 1.391 1_554 S
C41 C45 1.387 . S
C41 C46 1.491 . S
H42 C43 0.950 . S
C43 C40 1.390 . S
C43 H42 0.950 . S
C43 C44 1.378 . S
C44 C43 1.378 . S
C44 C45 1.409 . S
C45 C41 1.387 . S
C45 C44 1.409 . S
C45 H47 0.951 . S
C46 C41 1.491 . S
C46 C48 1.382 1_554 S
C46 C50 1.404 . S
H47 C45 0.951 . S
C48 C46 1.382 1_556 S
C48 C49 1.390 . S
C48 H53 0.949 . S
C49 C48 1.390 . S
C49 C54 1.399 . S
C50 C46 1.404 . S
C50 H51 0.950 . S
C50 C52 1.375 . S
H51 C50 0.950 . S
C52 C50 1.375 . S
C52 C54 1.382 1_554 S
C52 H56 0.950 . S
H53 C48 0.949 . S
C54 C49 1.399 . S
C54 C52 1.382 1_556 S
C54 H55 0.952 . S
H55 C54 0.952 . S
H56 C52 0.950 . S
H57 C58 0.949 . S
C58 H57 0.949 . S
C58 C59 1.395 . S
C58 C60 1.391 . S
C59 C58 1.395 . S
C59 C62 1.390 . S
C60 C58 1.391 . S
C60 C64 1.387 . S
C60 C65 1.491 . S
H61 C62 0.950 . S
C62 C59 1.390 . S
C62 H61 0.950 . S
C62 C63 1.378 . S
C63 C62 1.378 . S
C63 C64 1.409 . S
C64 C60 1.387 . S
C64 C63 1.409 . S
C64 H66 0.951 . S
C65 C60 1.491 . S
C65 C67 1.382 . S
C65 C69 1.404 . S
H66 C64 0.951 . S
C67 C65 1.382 . S
C67 C68 1.390 . S
C67 H72 0.949 . S
C68 C67 1.390 . S
C68 C73 1.399 . S
C69 C65 1.404 . S
C69 H70 0.950 . S
C69 C71 1.375 . S
H70 C69 0.950 . S
C71 C69 1.375 . S
C71 C73 1.382 . S
C71 H75 0.950 . S
H72 C67 0.949 . S
C73 C68 1.399 . S
C73 C71 1.382 . S
C73 H74 0.952 . S
H74 C73 0.952 . S
H75 C71 0.950 . S
H76 C77 0.958 . S
C77 H76 0.958 . S
C77 C78 1.393 1_556 S
C77 C79 1.383 1_556 S
C78 C77 1.393 1_554 S
C78 C81 1.390 . S
C79 C77 1.383 1_554 S
C79 C83 1.387 . S
C79 C84 1.491 . S
H80 C81 0.950 . S
C81 C78 1.390 . S
C81 H80 0.950 . S
C81 C82 1.378 . S
C82 C81 1.378 . S
C82 C83 1.409 . S
C83 C79 1.387 . S
C83 C82 1.409 . S
C83 H85 0.951 . S
C84 C79 1.491 . S
C84 C86 1.382 1_554 S
C84 C88 1.404 . S
H85 C83 0.951 . S
C86 C84 1.382 1_556 S
C86 C87 1.390 . S
C86 H91 0.949 . S
C87 C86 1.390 . S
C87 C92 1.399 1_556 S
C88 C84 1.404 . S
C88 H89 0.950 . S
C88 C90 1.375 . S
H89 C88 0.950 . S
C90 C88 1.375 . S
C90 C92 1.382 . S
C90 H94 0.950 . S
H91 C86 0.949 . S
C92 C87 1.399 1_554 S
C92 C90 1.382 . S
C92 H93 0.952 . S
H93 C92 0.952 . S
H94 C90 0.950 . S
H95 C96 0.949 . S
C96 H95 0.949 . S
C96 C97 1.395 . S
C96 C98 1.391 . S
C97 C96 1.395 . S
C97 C100 1.390 . S
C98 C96 1.391 . S
C98 C102 1.387 . S
C98 C103 1.491 . S
H99 C100 0.950 . S
C100 C97 1.390 . S
C100 H99 0.950 . S
C100 C101 1.378 . S
C101 C100 1.378 . S
C101 C102 1.409 . S
C102 C98 1.387 . S
C102 C101 1.409 . S
C102 H104 0.951 . S
C103 C98 1.491 . S
C103 C105 1.382 . S
C103 C107 1.404 . S
H104 C102 0.951 . S
C105 C103 1.382 . S
C105 C106 1.390 . S
C105 H110 0.949 . S
C106 C105 1.390 . S
C106 C111 1.399 . S
C107 C103 1.404 . S
C107 H108 0.950 . S
C107 C109 1.375 . S
H108 C107 0.950 . S
C109 C107 1.375 . S
C109 C111 1.382 . S
C109 H113 0.950 . S
H110 C105 0.949 . S
C111 C106 1.399 . S
C111 C109 1.382 . S
C111 H112 0.952 . S
H112 C111 0.952 . S
H113 C109 0.950 . S
H114 C115 0.949 . S
C115 H114 0.949 . S
C115 C116 1.395 1_556 S
C115 C117 1.391 1_556 S
C116 C115 1.395 1_554 S
C116 C119 1.390 . S
C117 C115 1.391 1_554 S
C117 C121 1.387 . S
C117 C122 1.491 . S
H118 C119 0.950 . S
C119 C116 1.390 . S
C119 H118 0.950 . S
C119 C120 1.378 . S
C120 C119 1.378 . S
C120 C121 1.409 . S
C121 C117 1.387 . S
C121 C120 1.409 . S
C121 H123 0.951 . S
C122 C117 1.491 . S
C122 C124 1.382 1_554 S
C122 C126 1.404 . S
H123 C121 0.951 . S
C124 C122 1.382 1_556 S
C124 C125 1.390 . S
C124 H129 0.949 . S
C125 C124 1.390 . S
C125 C130 1.399 . S
C126 C122 1.404 . S
C126 H127 0.950 . S
C126 C128 1.375 . S
H127 C126 0.950 . S
C128 C126 1.375 . S
C128 C130 1.382 1_554 S
C128 H132 0.950 . S
H129 C124 0.949 . S
C130 C125 1.399 . S
C130 C128 1.382 1_556 S
C130 H131 0.952 . S
H131 C130 0.952 . S
H132 C128 0.950 . S
H133 C134 0.949 . S
C134 H133 0.949 . S
C134 C135 1.395 . S
C134 C136 1.391 . S
C135 C134 1.395 . S
C135 C138 1.390 . S
C136 C134 1.391 . S
C136 C140 1.387 . S
C136 C141 1.491 . S
H137 C138 0.950 . S
C138 C135 1.390 . S
C138 H137 0.950 . S
C138 C139 1.378 . S
C139 C138 1.378 . S
C139 C140 1.409 . S
C140 C136 1.387 . S
C140 C139 1.409 . S
C140 H142 0.951 . S
C141 C136 1.491 . S
C141 C143 1.382 . S
C141 C145 1.404 . S
H142 C140 0.951 . S
C143 C141 1.382 . S
C143 C144 1.390 . S
C143 H148 0.949 . S
C144 C143 1.390 . S
C144 C149 1.399 . S
C145 C141 1.404 . S
C145 H146 0.950 . S
C145 C147 1.375 . S
H146 C145 0.950 . S
C147 C145 1.375 . S
C147 C149 1.382 . S
C147 H151 0.950 . S
H148 C143 0.949 . S
C149 C144 1.399 . S
C149 C147 1.382 . S
C149 H150 0.952 . S
H150 C149 0.952 . S
H151 C147 0.950 . S
Fe152 O154 1.918 . S
Fe152 O157 1.997 1_455 S
Fe152 O158 2.002 1_455 S
Fe152 O163 1.976 . S
Fe152 O166 1.996 . S
Fe153 O154 1.918 . S
Fe153 O161 1.997 1_455 S
Fe153 O164 1.996 . S
Fe153 O168 1.976 . S
Fe153 O171 2.002 1_455 S
O154 Fe152 1.918 . S
O154 Fe153 1.918 . S
O154 Fe155 1.918 . S
Fe155 O154 1.918 . S
Fe155 O156 2.002 1_455 S
Fe155 O165 1.976 . S
Fe155 O169 1.996 . S
Fe155 O172 1.997 1_455 S
O156 Fe155 2.002 1_655 S
O156 C173 1.295 . S
O157 Fe152 1.997 1_655 S
O157 C173 1.235 . S
O158 Fe152 2.002 1_655 S
O158 C159 1.295 . S
C159 O158 1.295 . S
C159 O161 1.235 . S
C160 O165 1.287 . S
C160 O166 1.255 . S
O161 Fe153 1.997 1_655 S
O161 C159 1.235 . S
C162 O168 1.287 . S
C162 O169 1.255 . S
O163 Fe152 1.976 . S
O163 C170 1.287 . S
O164 Fe153 1.996 . S
O164 C170 1.255 . S
O165 Fe155 1.976 . S
O165 C160 1.287 . S
O166 Fe152 1.996 . S
O166 C160 1.255 . S
C167 O171 1.295 . S
C167 O172 1.235 . S
O168 Fe153 1.976 . S
O168 C162 1.287 . S
O169 Fe155 1.996 . S
O169 C162 1.255 . S
C170 O163 1.287 . S
C170 O164 1.255 . S
O171 Fe153 2.002 1_655 S
O171 C167 1.295 . S
O172 Fe155 1.997 1_655 S
O172 C167 1.235 . S
C173 O156 1.295 . S
C173 O157 1.235 . S
Fe174 O176 1.918 1_455 S
Fe174 O179 2.005 . S
Fe174 O180 2.011 . S
Fe174 O185 1.968 1_455 S
Fe174 O188 1.988 1_455 S
Fe175 O176 1.918 1_455 S
Fe175 O183 2.004 . S
Fe175 O186 1.988 1_455 S
Fe175 O190 1.968 1_455 S
Fe175 O193 2.010 . S
O176 Fe174 1.918 1_655 S
O176 Fe175 1.918 1_655 S
O176 Fe177 1.918 1_655 S
Fe177 O176 1.918 1_455 S
Fe177 O178 2.010 . S
Fe177 O187 1.968 1_455 S
Fe177 O191 1.988 1_455 S
Fe177 O194 2.004 . S
O178 Fe177 2.010 . S
O178 C195 1.295 . S
O179 Fe174 2.005 . S
O179 C195 1.235 . S
O180 Fe174 2.011 . S
O180 C181 1.295 . S
C181 O180 1.295 . S
C181 O183 1.235 . S
C182 O187 1.287 . S
C182 O188 1.255 . S
O183 Fe175 2.004 . S
O183 C181 1.235 . S
C184 O190 1.287 . S
C184 O191 1.255 . S
O185 Fe174 1.968 1_655 S
O185 C192 1.287 . S
O186 Fe175 1.988 1_655 S
O186 C192 1.255 . S
O187 Fe177 1.968 1_655 S
O187 C182 1.287 . S
O188 Fe174 1.988 1_655 S
O188 C182 1.255 . S
C189 O193 1.295 . S
C189 O194 1.235 . S
O190 Fe175 1.968 1_655 S
O190 C184 1.287 . S
O191 Fe177 1.988 1_655 S
O191 C184 1.255 . S
C192 O185 1.287 . S
C192 O186 1.255 . S
O193 Fe175 2.010 . S
O193 C189 1.295 . S
O194 Fe177 2.004 . S
O194 C189 1.235 . S
C195 O178 1.295 . S
C195 O179 1.235 . S
Fe196 O198 1.918 . S
Fe196 O201 1.997 . S
Fe196 O202 2.002 . S
Fe196 O207 1.976 . S
Fe196 O210 1.996 . S
Fe197 O198 1.918 . S
Fe197 O205 1.997 . S
Fe197 O208 1.996 . S
Fe197 O212 1.976 . S
Fe197 O215 2.002 . S
O198 Fe196 1.918 . S
O198 Fe197 1.918 . S
O198 Fe199 1.918 . S
Fe199 O198 1.918 . S
Fe199 O200 2.002 . S
Fe199 O209 1.976 . S
Fe199 O213 1.996 . S
Fe199 O216 1.997 . S
O200 Fe199 2.002 . S
O200 C217 1.295 . S
O201 Fe196 1.997 . S
O201 C217 1.235 . S
O202 Fe196 2.002 . S
O202 C203 1.295 . S
C203 O202 1.295 . S
C203 O205 1.235 . S
C204 O209 1.287 . S
C204 O210 1.255 . S
O205 Fe197 1.997 . S
O205 C203 1.235 . S
C206 O212 1.287 . S
C206 O213 1.255 . S
O207 Fe196 1.976 . S
O207 C214 1.287 . S
O208 Fe197 1.996 . S
O208 C214 1.255 . S
O209 Fe199 1.976 . S
O209 C204 1.287 . S
O210 Fe196 1.996 . S
O210 C204 1.255 . S
C211 O215 1.295 . S
C211 O216 1.235 . S
O212 Fe197 1.976 . S
O212 C206 1.287 . S
O213 Fe199 1.996 . S
O213 C206 1.255 . S
C214 O207 1.287 . S
C214 O208 1.255 . S
O215 Fe197 2.002 . S
O215 C211 1.295 . S
O216 Fe199 1.997 . S
O216 C211 1.235 . S
C217 O200 1.295 . S
C217 O201 1.235 . S
Fe218 O220 1.918 . S
Fe218 O223 1.997 . S
Fe218 O224 2.002 . S
Fe218 O229 1.976 . S
Fe218 O232 1.996 . S
Fe219 O220 1.918 . S
Fe219 O227 1.997 . S
Fe219 O230 1.996 . S
Fe219 O234 1.976 . S
Fe219 O237 2.002 . S
O220 Fe218 1.918 . S
O220 Fe219 1.918 . S
O220 Fe221 1.918 . S
Fe221 O220 1.918 . S
Fe221 O222 2.002 . S
Fe221 O231 1.976 . S
Fe221 O235 1.996 . S
Fe221 O238 1.997 . S
O222 Fe221 2.002 . S
O222 C239 1.295 . S
O223 Fe218 1.997 . S
O223 C239 1.235 . S
O224 Fe218 2.002 . S
O224 C225 1.295 . S
C225 O224 1.295 . S
C225 O227 1.235 . S
C226 O231 1.287 . S
C226 O232 1.255 . S
O227 Fe219 1.997 . S
O227 C225 1.235 . S
C228 O234 1.287 . S
C228 O235 1.255 . S
O229 Fe218 1.976 . S
O229 C236 1.287 . S
O230 Fe219 1.996 . S
O230 C236 1.255 . S
O231 Fe221 1.976 . S
O231 C226 1.287 . S
O232 Fe218 1.996 . S
O232 C226 1.255 . S
C233 O237 1.295 . S
C233 O238 1.235 . S
O234 Fe219 1.976 . S
O234 C228 1.287 . S
O235 Fe221 1.996 . S
O235 C228 1.255 . S
C236 O229 1.287 . S
C236 O230 1.255 . S
O237 Fe219 2.002 . S
O237 C233 1.295 . S
O238 Fe221 1.997 . S
O238 C233 1.235 . S
C239 O222 1.295 . S
C239 O223 1.235 . S
H240 C258 0.951 . S
H241 C260 0.951 . S
H242 C262 0.950 . S
H243 C263 0.950 . S
H244 C265 0.950 . S
H245 C268 0.950 . S
H246 C269 0.950 . S
H247 C271 0.950 . S
H248 C272 0.950 . S
H249 C273 0.951 . S
H250 C275 0.951 . S
H251 C277 0.950 . S
H252 C278 0.950 . S
H253 C280 0.950 . S
H254 C283 0.950 . S
H255 C284 0.950 . S
H256 C286 0.950 . S
H257 C287 0.950 . S
C258 H240 0.951 . S
C258 C259 1.366 . S
C258 C260 1.388 . S
C259 C258 1.366 . S
C259 C263 1.385 . S
C260 H241 0.951 . S
C260 C258 1.388 . S
C260 C261 1.366 . S
C261 C260 1.366 . S
C261 C262 1.414 . S
C261 C264 1.499 . S
C262 H242 0.950 . S
C262 C261 1.414 . S
C262 C263 1.374 . S
C263 H243 0.950 . S
C263 C259 1.385 . S
C263 C262 1.374 . S
C264 C261 1.499 . S
C264 C265 1.373 . S
C264 C266 1.389 . S
C265 H244 0.950 . S
C265 C264 1.373 . S
C265 C281 1.377 . S
C266 C264 1.389 . S
C266 C267 1.524 . S
C266 C280 1.377 . S
C267 C266 1.524 . S
C267 C268 1.397 . S
C267 C272 1.363 . S
C268 H245 0.950 . S
C268 C267 1.397 . S
C268 C269 1.334 . S
C269 H246 0.950 . S
C269 C268 1.334 . S
C269 C270 1.287 . S
C270 C269 1.287 . S
C270 C271 1.524 . S
C270 H289 0.913 . S
C271 H247 0.950 . S
C271 C270 1.524 . S
C271 C272 1.415 . S
C272 H248 0.950 . S
C272 C267 1.363 . S
C272 C271 1.415 . S
C273 H249 0.951 . S
C273 C274 1.366 . S
C273 C275 1.388 . S
C274 C273 1.366 . S
C274 C278 1.385 . S
C275 H250 0.951 . S
C275 C273 1.388 . S
C275 C276 1.366 . S
C276 C275 1.366 . S
C276 C277 1.414 . S
C276 C279 1.499 . S
C277 H251 0.950 . S
C277 C276 1.414 . S
C277 C278 1.374 . S
C278 H252 0.950 . S
C278 C274 1.385 . S
C278 C277 1.374 . S
C279 C276 1.499 . S
C279 C280 1.373 . S
C279 C281 1.389 . S
C280 H253 0.950 . S
C280 C266 1.377 . S
C280 C279 1.373 . S
C281 C265 1.377 . S
C281 C279 1.389 . S
C281 C282 1.524 . S
C282 C281 1.524 . S
C282 C283 1.397 . S
C282 C287 1.363 . S
C283 H254 0.950 . S
C283 C282 1.397 . S
C283 C284 1.334 . S
C284 H255 0.950 . S
C284 C283 1.334 . S
C284 C285 1.287 . S
C285 C284 1.287 . S
C285 C286 1.524 . S
C285 H288 0.999 1_556 S
C286 H256 0.950 . S
C286 C285 1.524 . S
C286 C287 1.415 . S
C287 H257 0.950 . S
C287 C282 1.363 . S
C287 C286 1.415 . S
H288 C285 0.999 1_554 S
H289 C270 0.913 . S
H290 C308 0.951 . S
H291 C310 0.951 . S
H292 C312 0.950 . S
H293 C313 0.950 . S
H294 C315 0.950 . S
H295 C318 0.950 . S
H296 C319 0.950 . S
H297 C321 0.950 . S
H298 C322 0.950 . S
H299 C323 0.951 . S
H300 C325 0.951 . S
H301 C327 0.950 . S
H302 C328 0.950 . S
H303 C330 0.950 . S
H304 C333 0.950 . S
H305 C334 0.950 . S
H306 C336 0.950 . S
H307 C337 0.950 . S
C308 H290 0.951 . S
C308 C309 1.366 . S
C308 C310 1.388 . S
C309 C308 1.366 . S
C309 C313 1.385 . S
C310 H291 0.951 . S
C310 C308 1.388 . S
C310 C311 1.366 . S
C311 C310 1.366 . S
C311 C312 1.414 . S
C311 C314 1.499 . S
C312 H292 0.950 . S
C312 C311 1.414 . S
C312 C313 1.374 . S
C313 H293 0.950 . S
C313 C309 1.385 . S
C313 C312 1.374 . S
C314 C311 1.499 . S
C314 C315 1.373 . S
C314 C316 1.389 . S
C315 H294 0.950 . S
C315 C314 1.373 . S
C315 C331 1.377 . S
C316 C314 1.389 . S
C316 C317 1.524 . S
C316 C330 1.377 . S
C317 C316 1.524 . S
C317 C318 1.397 . S
C317 C322 1.363 . S
C318 H295 0.950 . S
C318 C317 1.397 . S
C318 C319 1.334 . S
C319 H296 0.950 . S
C319 C318 1.334 . S
C319 C320 1.287 . S
C320 C319 1.287 . S
C320 C321 1.524 . S
C320 H339 0.913 . S
C321 H297 0.950 . S
C321 C320 1.524 . S
C321 C322 1.415 . S
C322 H298 0.950 . S
C322 C317 1.363 . S
C322 C321 1.415 . S
C323 H299 0.951 . S
C323 C324 1.366 . S
C323 C325 1.388 . S
C324 C323 1.366 . S
C324 C328 1.385 . S
C325 H300 0.951 . S
C325 C323 1.388 . S
C325 C326 1.366 . S
C326 C325 1.366 . S
C326 C327 1.414 . S
C326 C329 1.499 . S
C327 H301 0.950 . S
C327 C326 1.414 . S
C327 C328 1.374 . S
C328 H302 0.950 . S
C328 C324 1.385 . S
C328 C327 1.374 . S
C329 C326 1.499 . S
C329 C330 1.373 . S
C329 C331 1.389 . S
C330 H303 0.950 . S
C330 C316 1.377 . S
C330 C329 1.373 . S
C331 C315 1.377 . S
C331 C329 1.389 . S
C331 C332 1.524 . S
C332 C331 1.524 . S
C332 C333 1.397 . S
C332 C337 1.363 . S
C333 H304 0.950 . S
C333 C332 1.397 . S
C333 C334 1.334 . S
C334 H305 0.950 . S
C334 C333 1.334 . S
C334 C335 1.287 . S
C335 C334 1.287 . S
C335 C336 1.524 . S
C335 H338 0.999 . S
C336 H306 0.950 . S
C336 C335 1.524 . S
C336 C337 1.415 . S
C337 H307 0.950 . S
C337 C332 1.363 . S
C337 C336 1.415 . S
H338 C335 0.999 . S
H339 C320 0.913 . S
H340 C358 0.951 . S
H341 C360 0.951 . S
H342 C362 0.950 . S
H343 C363 0.954 . S
H344 C365 0.950 . S
H345 C368 0.950 . S
H346 C369 0.950 . S
H347 C371 0.950 . S
H348 C372 0.950 . S
H349 C373 0.951 . S
H350 C375 0.951 . S
H351 C377 0.950 . S
H352 C378 0.950 . S
H353 C380 0.950 . S
H354 C383 0.950 . S
H355 C384 0.950 . S
H356 C386 0.950 . S
H357 C387 0.950 . S
C358 H340 0.951 . S
C358 C359 1.366 . S
C358 C360 1.388 . S
C359 C358 1.366 . S
C359 C363 1.385 . S
C360 H341 0.951 . S
C360 C358 1.388 . S
C360 C361 1.366 . S
C361 C360 1.366 . S
C361 C362 1.414 . S
C361 C364 1.499 . S
C362 H342 0.950 . S
C362 C361 1.414 . S
C362 C363 1.374 . S
C363 H343 0.954 . S
C363 C359 1.385 . S
C363 C362 1.374 . S
C364 C361 1.499 . S
C364 C365 1.373 . S
C364 C366 1.389 . S
C365 H344 0.950 . S
C365 C364 1.373 . S
C365 C381 1.377 . S
C366 C364 1.389 . S
C366 C367 1.524 . S
C366 C380 1.377 . S
C367 C366 1.524 . S
C367 C368 1.397 . S
C367 C372 1.363 . S
C368 H345 0.950 . S
C368 C367 1.397 . S
C368 C369 1.334 . S
C369 H346 0.950 . S
C369 C368 1.334 . S
C369 C370 1.287 . S
C370 C369 1.287 . S
C370 C371 1.524 . S
C370 H389 0.913 . S
C371 H347 0.950 . S
C371 C370 1.524 . S
C371 C372 1.415 . S
C372 H348 0.950 . S
C372 C367 1.363 . S
C372 C371 1.415 . S
C373 H349 0.951 . S
C373 C374 1.366 . S
C373 C375 1.388 . S
C374 C373 1.366 . S
C374 C378 1.385 . S
C375 H350 0.951 . S
C375 C373 1.388 . S
C375 C376 1.366 . S
C376 C375 1.366 . S
C376 C377 1.414 . S
C376 C379 1.499 . S
C377 H351 0.950 . S
C377 C376 1.414 . S
C377 C378 1.374 . S
C378 H352 0.950 . S
C378 C374 1.385 . S
C378 C377 1.374 . S
C379 C376 1.499 . S
C379 C380 1.373 . S
C379 C381 1.389 . S
C380 H353 0.950 . S
C380 C366 1.377 . S
C380 C379 1.373 . S
C381 C365 1.377 . S
C381 C379 1.389 . S
C381 C382 1.524 . S
C382 C381 1.524 . S
C382 C383 1.397 . S
C382 C387 1.363 . S
C383 H354 0.950 . S
C383 C382 1.397 . S
C383 C384 1.334 . S
C384 H355 0.950 . S
C384 C383 1.334 . S
C384 C385 1.287 . S
C385 C384 1.287 . S
C385 C386 1.524 . S
C385 H388 0.999 1_655 S
C386 H356 0.950 . S
C386 C385 1.524 . S
C386 C387 1.415 . S
C387 H357 0.950 . S
C387 C382 1.363 . S
C387 C386 1.415 . S
H388 C385 0.999 1_455 S
H389 C370 0.913 . S
H390 C408 0.951 . S
H391 C410 0.951 . S
H392 C412 0.950 . S
H393 C413 0.950 . S
H394 C415 0.950 . S
H395 C418 0.950 . S
H396 C419 0.950 . S
H397 C421 0.950 . S
H398 C422 0.950 . S
H399 C423 0.951 . S
H400 C425 0.951 . S
H401 C427 0.950 . S
H402 C428 0.950 . S
H403 C430 0.950 . S
H404 C433 0.950 . S
H405 C434 0.950 . S
H406 C436 0.950 . S
H407 C437 0.950 . S
C408 H390 0.951 . S
C408 C409 1.366 . S
C408 C410 1.388 . S
C409 C408 1.366 . S
C409 C413 1.385 . S
C410 H391 0.951 . S
C410 C408 1.388 . S
C410 C411 1.366 . S
C411 C410 1.366 . S
C411 C412 1.414 . S
C411 C414 1.499 . S
C412 H392 0.950 . S
C412 C411 1.414 . S
C412 C413 1.374 . S
C413 H393 0.950 . S
C413 C409 1.385 . S
C413 C412 1.374 . S
C414 C411 1.499 . S
C414 C415 1.373 . S
C414 C416 1.389 . S
C415 H394 0.950 . S
C415 C414 1.373 . S
C415 C431 1.377 . S
C416 C414 1.389 . S
C416 C417 1.524 . S
C416 C430 1.377 . S
C417 C416 1.524 . S
C417 C418 1.397 . S
C417 C422 1.363 . S
C418 H395 0.950 . S
C418 C417 1.397 . S
C418 C419 1.334 . S
C419 H396 0.950 . S
C419 C418 1.334 . S
C419 C420 1.287 . S
C420 C419 1.287 . S
C420 C421 1.524 . S
C420 H439 0.913 . S
C421 H397 0.950 . S
C421 C420 1.524 . S
C421 C422 1.415 . S
C422 H398 0.950 . S
C422 C417 1.363 . S
C422 C421 1.415 . S
C423 H399 0.951 . S
C423 C424 1.366 . S
C423 C425 1.388 . S
C424 C423 1.366 . S
C424 C428 1.385 . S
C425 H400 0.951 . S
C425 C423 1.388 . S
C425 C426 1.366 . S
C426 C425 1.366 . S
C426 C427 1.414 . S
C426 C429 1.499 . S
C427 H401 0.950 . S
C427 C426 1.414 . S
C427 C428 1.374 . S
C428 H402 0.950 . S
C428 C424 1.385 . S
C428 C427 1.374 . S
C429 C426 1.499 . S
C429 C430 1.373 . S
C429 C431 1.389 . S
C430 H403 0.950 . S
C430 C416 1.377 . S
C430 C429 1.373 . S
C431 C415 1.377 . S
C431 C429 1.389 . S
C431 C432 1.524 . S
C432 C431 1.524 . S
C432 C433 1.397 . S
C432 C437 1.363 . S
C433 H404 0.950 . S
C433 C432 1.397 . S
C433 C434 1.334 . S
C434 H405 0.950 . S
C434 C433 1.334 . S
C434 C435 1.287 . S
C435 C434 1.287 . S
C435 C436 1.524 . S
C435 H438 0.999 . S
C436 H406 0.950 . S
C436 C435 1.524 . S
C436 C437 1.415 . S
C437 H407 0.950 . S
C437 C432 1.363 . S
C437 C436 1.415 . S
H438 C435 0.999 . S
H439 C420 0.913 . S
H440 C458 0.951 . S
H441 C460 0.951 . S
H442 C462 0.950 . S
H443 C463 0.950 1_554 S
H444 C465 0.950 . S
H445 C468 0.950 . S
H446 C469 0.950 . S
H447 C471 0.950 . S
H448 C472 0.950 . S
H449 C473 0.951 . S
H450 C475 0.951 . S
H451 C477 0.950 . S
H452 C478 0.950 . S
H453 C480 0.950 . S
H454 C483 0.950 . S
H455 C484 0.950 . S
H456 C486 0.950 . S
H457 C487 0.950 . S
C458 H440 0.951 . S
C458 C459 1.366 . S
C458 C460 1.388 . S
C459 C458 1.366 . S
C459 C463 1.385 . S
C460 H441 0.951 . S
C460 C458 1.388 . S
C460 C461 1.366 . S
C461 C460 1.366 . S
C461 C462 1.414 . S
C461 C464 1.499 . S
C462 H442 0.950 . S
C462 C461 1.414 . S
C462 C463 1.374 . S
C463 H443 0.950 1_556 S
C463 C459 1.385 . S
C463 C462 1.374 . S
C464 C461 1.499 . S
C464 C465 1.373 . S
C464 C466 1.389 . S
C465 H444 0.950 . S
C465 C464 1.373 . S
C465 C481 1.377 . S
C466 C464 1.389 . S
C466 C467 1.524 . S
C466 C480 1.377 . S
C467 C466 1.524 . S
C467 C468 1.397 . S
C467 C472 1.363 . S
C468 H445 0.950 . S
C468 C467 1.397 . S
C468 C469 1.334 . S
C469 H446 0.950 . S
C469 C468 1.334 . S
C469 C470 1.287 . S
C470 C469 1.287 . S
C470 C471 1.524 . S
C470 H489 0.913 . S
C471 H447 0.950 . S
C471 C470 1.524 . S
C471 C472 1.415 . S
C472 H448 0.950 . S
C472 C467 1.363 . S
C472 C471 1.415 . S
C473 H449 0.951 . S
C473 C474 1.366 . S
C473 C475 1.388 . S
C474 C473 1.366 . S
C474 C478 1.385 . S
C475 H450 0.951 . S
C475 C473 1.388 . S
C475 C476 1.366 . S
C476 C475 1.366 . S
C476 C477 1.414 . S
C476 C479 1.499 . S
C477 H451 0.950 . S
C477 C476 1.414 . S
C477 C478 1.374 . S
C478 H452 0.950 . S
C478 C474 1.385 . S
C478 C477 1.374 . S
C479 C476 1.499 . S
C479 C480 1.373 . S
C479 C481 1.389 . S
C480 H453 0.950 . S
C480 C466 1.377 . S
C480 C479 1.373 . S
C481 C465 1.377 . S
C481 C479 1.389 . S
C481 C482 1.524 . S
C482 C481 1.524 . S
C482 C483 1.397 . S
C482 C487 1.363 . S
C483 H454 0.950 . S
C483 C482 1.397 . S
C483 C484 1.334 . S
C484 H455 0.950 . S
C484 C483 1.334 . S
C484 C485 1.287 . S
C485 C484 1.287 . S
C485 C486 1.524 . S
C485 H488 0.999 . S
C486 H456 0.950 . S
C486 C485 1.524 . S
C486 C487 1.415 . S
C487 H457 0.950 . S
C487 C482 1.363 . S
C487 C486 1.415 . S
H488 C485 0.999 . S
H489 C470 0.913 . S
H490 C508 0.951 . S
H491 C510 0.951 . S
H492 C512 0.950 . S
H493 C513 0.950 . S
H494 C515 0.950 . S
H495 C518 0.950 . S
H496 C519 0.950 . S
H497 C521 0.950 . S
H498 C522 0.950 . S
H499 C523 0.951 . S
H500 C525 0.951 . S
H501 C527 0.950 . S
H502 C528 0.950 . S
H503 C530 0.950 . S
H504 C533 0.950 . S
H505 C534 0.950 . S
H506 C536 0.950 . S
H507 C537 0.950 . S
C508 H490 0.951 . S
C508 C509 1.366 . S
C508 C510 1.388 . S
C509 C508 1.366 . S
C509 C513 1.385 . S
C510 H491 0.951 . S
C510 C508 1.388 . S
C510 C511 1.366 . S
C511 C510 1.366 . S
C511 C512 1.414 . S
C511 C514 1.499 . S
C512 H492 0.950 . S
C512 C511 1.414 . S
C512 C513 1.374 . S
C513 H493 0.950 . S
C513 C509 1.385 . S
C513 C512 1.374 . S
C514 C511 1.499 . S
C514 C515 1.373 . S
C514 C516 1.389 . S
C515 H494 0.950 . S
C515 C514 1.373 . S
C515 C531 1.377 . S
C516 C514 1.389 . S
C516 C517 1.524 . S
C516 C530 1.377 . S
C517 C516 1.524 . S
C517 C518 1.397 . S
C517 C522 1.363 . S
C518 H495 0.950 . S
C518 C517 1.397 . S
C518 C519 1.334 . S
C519 H496 0.950 . S
C519 C518 1.334 . S
C519 C520 1.287 . S
C520 C519 1.287 . S
C520 C521 1.524 . S
C520 H539 0.913 . S
C521 H497 0.950 . S
C521 C520 1.524 . S
C521 C522 1.415 . S
C522 H498 0.950 . S
C522 C517 1.363 . S
C522 C521 1.415 . S
C523 H499 0.951 . S
C523 C524 1.366 . S
C523 C525 1.388 . S
C524 C523 1.366 . S
C524 C528 1.385 . S
C525 H500 0.951 . S
C525 C523 1.388 . S
C525 C526 1.366 . S
C526 C525 1.366 . S
C526 C527 1.414 . S
C526 C529 1.499 . S
C527 H501 0.950 . S
C527 C526 1.414 . S
C527 C528 1.374 . S
C528 H502 0.950 . S
C528 C524 1.385 . S
C528 C527 1.374 . S
C529 C526 1.499 . S
C529 C530 1.373 . S
C529 C531 1.389 . S
C530 H503 0.950 . S
C530 C516 1.377 . S
C530 C529 1.373 . S
C531 C515 1.377 . S
C531 C529 1.389 . S
C531 C532 1.524 . S
C532 C531 1.524 . S
C532 C533 1.397 . S
C532 C537 1.363 . S
C533 H504 0.950 . S
C533 C532 1.397 . S
C533 C534 1.334 . S
C534 H505 0.950 . S
C534 C533 1.334 . S
C534 C535 1.287 . S
C535 C534 1.287 . S
C535 C536 1.524 . S
C535 H538 0.999 . S
C536 H506 0.950 . S
C536 C535 1.524 . S
C536 C537 1.415 . S
C537 H507 0.950 . S
C537 C532 1.363 . S
C537 C536 1.415 . S
H538 C535 0.999 . S
H539 C520 0.913 . S
H540 C558 0.951 . S
H541 C560 0.951 . S
H542 C562 0.950 . S
H543 C563 0.950 1_554 S
H544 C565 0.950 . S
H545 C568 0.950 . S
H546 C569 0.950 . S
H547 C571 0.950 . S
H548 C572 0.950 . S
H549 C573 0.951 . S
H550 C575 0.951 . S
H551 C577 0.950 . S
H552 C578 0.950 . S
H553 C580 0.950 . S
H554 C583 0.950 . S
H555 C584 0.950 . S
H556 C586 0.950 . S
H557 C587 0.950 . S
C558 H540 0.951 . S
C558 C559 1.366 . S
C558 C560 1.388 . S
C559 C558 1.366 . S
C559 C563 1.385 . S
C560 H541 0.951 . S
C560 C558 1.388 . S
C560 C561 1.366 . S
C561 C560 1.366 . S
C561 C562 1.414 . S
C561 C564 1.499 . S
C562 H542 0.950 . S
C562 C561 1.414 . S
C562 C563 1.374 . S
C563 H543 0.950 1_556 S
C563 C559 1.385 . S
C563 C562 1.374 . S
C564 C561 1.499 . S
C564 C565 1.373 . S
C564 C566 1.389 . S
C565 H544 0.950 . S
C565 C564 1.373 . S
C565 C581 1.377 . S
C566 C564 1.389 . S
C566 C567 1.524 . S
C566 C580 1.377 . S
C567 C566 1.524 . S
C567 C568 1.397 . S
C567 C572 1.363 . S
C568 H545 0.950 . S
C568 C567 1.397 . S
C568 C569 1.334 . S
C569 H546 0.950 . S
C569 C568 1.334 . S
C569 C570 1.287 . S
C570 C569 1.287 . S
C570 C571 1.524 . S
C570 H589 0.913 . S
C571 H547 0.950 . S
C571 C570 1.524 . S
C571 C572 1.415 . S
C572 H548 0.950 . S
C572 C567 1.363 . S
C572 C571 1.415 . S
C573 H549 0.951 . S
C573 C574 1.366 . S
C573 C575 1.388 . S
C574 C573 1.366 . S
C574 C578 1.385 . S
C575 H550 0.951 . S
C575 C573 1.388 . S
C575 C576 1.366 . S
C576 C575 1.366 . S
C576 C577 1.414 . S
C576 C579 1.499 . S
C577 H551 0.950 . S
C577 C576 1.414 . S
C577 C578 1.374 . S
C578 H552 0.950 . S
C578 C574 1.385 . S
C578 C577 1.374 . S
C579 C576 1.499 . S
C579 C580 1.373 . S
C579 C581 1.389 . S
C580 H553 0.950 . S
C580 C566 1.377 . S
C580 C579 1.373 . S
C581 C565 1.377 . S
C581 C579 1.389 . S
C581 C582 1.524 . S
C582 C581 1.524 . S
C582 C583 1.397 . S
C582 C587 1.363 . S
C583 H554 0.950 . S
C583 C582 1.397 . S
C583 C584 1.334 . S
C584 H555 0.950 . S
C584 C583 1.334 . S
C584 C585 1.287 . S
C585 C584 1.287 . S
C585 C586 1.524 . S
C585 H588 0.999 . S
C586 H556 0.950 . S
C586 C585 1.524 . S
C586 C587 1.415 . S
C587 H557 0.950 . S
C587 C582 1.363 . S
C587 C586 1.415 . S
H588 C585 0.999 . S
H589 C570 0.913 . S
H590 C608 0.951 . S
H591 C610 0.951 . S
H592 C612 0.950 . S
H593 C613 0.950 . S
H594 C615 0.950 . S
H595 C618 0.950 . S
H596 C619 0.950 . S
H597 C621 0.950 . S
H598 C622 0.950 . S
H599 C623 0.951 . S
H600 C625 0.951 . S
H601 C627 0.950 . S
H602 C628 0.950 . S
H603 C630 0.950 . S
H604 C633 0.950 . S
H605 C634 0.950 . S
H606 C636 0.950 . S
H607 C637 0.950 . S
C608 H590 0.951 . S
C608 C609 1.366 . S
C608 C610 1.388 . S
C609 C608 1.366 . S
C609 C613 1.385 . S
C610 H591 0.951 . S
C610 C608 1.388 . S
C610 C611 1.366 . S
C611 C610 1.366 . S
C611 C612 1.414 . S
C611 C614 1.499 . S
C612 H592 0.950 . S
C612 C611 1.414 . S
C612 C613 1.374 . S
C613 H593 0.950 . S
C613 C609 1.385 . S
C613 C612 1.374 . S
C614 C611 1.499 . S
C614 C615 1.373 . S
C614 C616 1.389 . S
C615 H594 0.950 . S
C615 C614 1.373 . S
C615 C631 1.377 . S
C616 C614 1.389 . S
C616 C617 1.524 . S
C616 C630 1.377 . S
C617 C616 1.524 . S
C617 C618 1.397 . S
C617 C622 1.363 . S
C618 H595 0.950 . S
C618 C617 1.397 . S
C618 C619 1.334 . S
C619 H596 0.950 . S
C619 C618 1.334 . S
C619 C620 1.287 . S
C620 C619 1.287 . S
C620 C621 1.524 . S
C620 H639 0.913 . S
C621 H597 0.950 . S
C621 C620 1.524 . S
C621 C622 1.415 . S
C622 H598 0.950 . S
C622 C617 1.363 . S
C622 C621 1.415 . S
C623 H599 0.951 . S
C623 C624 1.366 . S
C623 C625 1.388 . S
C624 C623 1.366 . S
C624 C628 1.385 . S
C625 H600 0.951 . S
C625 C623 1.388 . S
C625 C626 1.366 . S
C626 C625 1.366 . S
C626 C627 1.414 . S
C626 C629 1.499 . S
C627 H601 0.950 . S
C627 C626 1.414 . S
C627 C628 1.374 . S
C628 H602 0.950 . S
C628 C624 1.385 . S
C628 C627 1.374 . S
C629 C626 1.499 . S
C629 C630 1.373 . S
C629 C631 1.389 . S
C630 H603 0.950 . S
C630 C616 1.377 . S
C630 C629 1.373 . S
C631 C615 1.377 . S
C631 C629 1.389 . S
C631 C632 1.524 . S
C632 C631 1.524 . S
C632 C633 1.397 . S
C632 C637 1.363 . S
C633 H604 0.950 . S
C633 C632 1.397 . S
C633 C634 1.334 . S
C634 H605 0.950 . S
C634 C633 1.334 . S
C634 C635 1.287 . S
C635 C634 1.287 . S
C635 C636 1.524 . S
C635 H638 0.999 . S
C636 H606 0.950 . S
C636 C635 1.524 . S
C636 C637 1.415 . S
C637 H607 0.950 . S
C637 C632 1.363 . S
C637 C636 1.415 . S
H638 C635 0.999 . S
H639 C620 0.913 . S
H640 C658 0.951 1_554 S
H641 C660 0.951 . S
H642 C662 0.950 . S
H643 C663 0.950 . S
H644 C665 0.950 . S
H645 C668 0.950 1_556 S
H646 C669 0.950 . S
H647 C671 0.950 . S
H648 C672 0.950 . S
H649 C673 0.951 . S
H650 C675 0.951 . S
H651 C677 0.950 . S
H652 C678 0.950 . S
H653 C680 0.950 . S
H654 C683 0.950 . S
H655 C684 0.950 . S
H656 C686 0.950 . S
H657 C687 0.950 . S
C658 H640 0.951 1_556 S
C658 C659 1.366 . S
C658 C660 1.388 . S
C659 C658 1.366 . S
C659 C663 1.385 . S
C660 H641 0.951 . S
C660 C658 1.388 . S
C660 C661 1.366 . S
C661 C660 1.366 . S
C661 C662 1.414 . S
C661 C664 1.499 . S
C662 H642 0.950 . S
C662 C661 1.414 . S
C662 C663 1.374 . S
C663 H643 0.950 . S
C663 C659 1.385 . S
C663 C662 1.374 . S
C664 C661 1.499 . S
C664 C665 1.373 . S
C664 C666 1.389 . S
C665 H644 0.950 . S
C665 C664 1.373 . S
C665 C681 1.377 . S
C666 C664 1.389 . S
C666 C667 1.524 . S
C666 C680 1.377 . S
C667 C666 1.524 . S
C667 C668 1.397 1_556 S
C667 C672 1.363 1_556 S
C668 H645 0.950 1_554 S
C668 C667 1.397 1_554 S
C668 C669 1.334 . S
C669 H646 0.950 . S
C669 C668 1.334 . S
C669 C670 1.287 . S
C670 C669 1.287 . S
C670 C671 1.524 . S
C670 H689 0.913 . S
C671 H647 0.950 . S
C671 C670 1.524 . S
C671 C672 1.415 . S
C672 H648 0.950 . S
C672 C667 1.363 1_554 S
C672 C671 1.415 . S
C673 H649 0.951 . S
C673 C674 1.366 . S
C673 C675 1.388 . S
C674 C673 1.366 . S
C674 C678 1.385 . S
C675 H650 0.951 . S
C675 C673 1.388 . S
C675 C676 1.366 . S
C676 C675 1.366 . S
C676 C677 1.414 . S
C676 C679 1.499 . S
C677 H651 0.950 . S
C677 C676 1.414 . S
C677 C678 1.374 . S
C678 H652 0.950 . S
C678 C674 1.385 . S
C678 C677 1.374 . S
C679 C676 1.499 . S
C679 C680 1.373 . S
C679 C681 1.389 . S
C680 H653 0.950 . S
C680 C666 1.377 . S
C680 C679 1.373 . S
C681 C665 1.377 . S
C681 C679 1.389 . S
C681 C682 1.524 . S
C682 C681 1.524 . S
C682 C683 1.397 . S
C682 C687 1.363 . S
C683 H654 0.950 . S
C683 C682 1.397 . S
C683 C684 1.334 . S
C684 H655 0.950 . S
C684 C683 1.334 . S
C684 C685 1.287 . S
C685 C684 1.287 . S
C685 C686 1.524 . S
C685 H688 0.999 . S
C686 H656 0.950 . S
C686 C685 1.524 . S
C686 C687 1.415 . S
C687 H657 0.950 . S
C687 C682 1.363 . S
C687 C686 1.415 . S
H688 C685 0.999 . S
H689 C670 0.913 . S
H690 C708 0.951 . S
H691 C710 0.951 . S
H692 C712 0.950 . S
H693 C713 0.950 . S
H694 C715 0.950 . S
H695 C718 0.950 . S
H696 C719 0.950 . S
H697 C721 0.950 . S
H698 C722 0.950 . S
H699 C723 0.951 . S
H700 C725 0.951 . S
H701 C727 0.950 . S
H702 C728 0.950 . S
H703 C730 0.950 . S
H704 C733 0.950 . S
H705 C734 0.950 . S
H706 C736 0.950 . S
H707 C737 0.950 . S
C708 H690 0.951 . S
C708 C709 1.366 . S
C708 C710 1.388 . S
C709 C708 1.366 . S
C709 C713 1.385 . S
C710 H691 0.951 . S
C710 C708 1.388 . S
C710 C711 1.366 . S
C711 C710 1.366 . S
C711 C712 1.414 . S
C711 C714 1.499 . S
C712 H692 0.950 . S
C712 C711 1.414 . S
C712 C713 1.374 . S
C713 H693 0.950 . S
C713 C709 1.385 . S
C713 C712 1.374 . S
C714 C711 1.499 . S
C714 C715 1.373 . S
C714 C716 1.389 . S
C715 H694 0.950 . S
C715 C714 1.373 . S
C715 C731 1.377 . S
C716 C714 1.389 . S
C716 C717 1.524 . S
C716 C730 1.377 . S
C717 C716 1.524 . S
C717 C718 1.397 . S
C717 C722 1.363 . S
C718 H695 0.950 . S
C718 C717 1.397 . S
C718 C719 1.334 . S
C719 H696 0.950 . S
C719 C718 1.334 . S
C719 C720 1.287 . S
C720 C719 1.287 . S
C720 C721 1.524 . S
C720 H739 0.913 . S
C721 H697 0.950 . S
C721 C720 1.524 . S
C721 C722 1.415 . S
C722 H698 0.950 . S
C722 C717 1.363 . S
C722 C721 1.415 . S
C723 H699 0.951 . S
C723 C724 1.366 . S
C723 C725 1.388 . S
C724 C723 1.366 . S
C724 C728 1.385 . S
C725 H700 0.951 . S
C725 C723 1.388 . S
C725 C726 1.366 . S
C726 C725 1.366 . S
C726 C727 1.414 . S
C726 C729 1.499 . S
C727 H701 0.950 . S
C727 C726 1.414 . S
C727 C728 1.374 . S
C728 H702 0.950 . S
C728 C724 1.385 . S
C728 C727 1.374 . S
C729 C726 1.499 . S
C729 C730 1.373 . S
C729 C731 1.389 . S
C730 H703 0.950 . S
C730 C716 1.377 . S
C730 C729 1.373 . S
C731 C715 1.377 . S
C731 C729 1.389 . S
C731 C732 1.524 . S
C732 C731 1.524 . S
C732 C733 1.397 . S
C732 C737 1.363 . S
C733 H704 0.950 . S
C733 C732 1.397 . S
C733 C734 1.334 . S
C734 H705 0.950 . S
C734 C733 1.334 . S
C734 C735 1.287 . S
C735 C734 1.287 . S
C735 C736 1.524 . S
C735 H738 0.999 . S
C736 H706 0.950 . S
C736 C735 1.524 . S
C736 C737 1.415 . S
C737 H707 0.950 . S
C737 C732 1.363 . S
C737 C736 1.415 . S
H738 C735 0.999 . S
H739 C720 0.913 . S
H740 C758 0.951 1_554 S
H741 C760 0.951 . S
H742 C762 0.950 . S
H743 C763 0.950 . S
H744 C765 0.950 . S
H745 C768 0.950 . S
H746 C769 0.950 . S
H747 C771 0.950 . S
H748 C772 0.950 . S
H749 C773 0.951 . S
H750 C775 0.951 . S
H751 C777 0.950 . S
H752 C778 0.950 . S
H753 C780 0.950 . S
H754 C783 0.950 . S
H755 C784 0.950 . S
H756 C786 0.950 . S
H757 C787 0.950 . S
C758 H740 0.951 1_556 S
C758 C759 1.366 . S
C758 C760 1.388 . S
C759 C758 1.366 . S
C759 C763 1.385 . S
C760 H741 0.951 . S
C760 C758 1.388 . S
C760 C761 1.366 . S
C761 C760 1.366 . S
C761 C762 1.414 . S
C761 C764 1.499 . S
C762 H742 0.950 . S
C762 C761 1.414 . S
C762 C763 1.374 . S
C763 H743 0.950 . S
C763 C759 1.385 . S
C763 C762 1.374 . S
C764 C761 1.499 . S
C764 C765 1.373 . S
C764 C766 1.389 . S
C765 H744 0.950 . S
C765 C764 1.373 . S
C765 C781 1.377 . S
C766 C764 1.389 . S
C766 C767 1.524 . S
C766 C780 1.377 . S
C767 C766 1.524 . S
C767 C768 1.397 . S
C767 C772 1.363 1_556 S
C768 H745 0.950 . S
C768 C767 1.397 . S
C768 C769 1.334 1_556 S
C769 H746 0.950 . S
C769 C768 1.334 1_554 S
C769 C770 1.287 . S
C770 C769 1.287 . S
C770 C771 1.524 . S
C770 H789 0.913 . S
C771 H747 0.950 . S
C771 C770 1.524 . S
C771 C772 1.415 . S
C772 H748 0.950 . S
C772 C767 1.363 1_554 S
C772 C771 1.415 . S
C773 H749 0.951 . S
C773 C774 1.366 . S
C773 C775 1.388 . S
C774 C773 1.366 . S
C774 C778 1.385 . S
C775 H750 0.951 . S
C775 C773 1.388 . S
C775 C776 1.366 . S
C776 C775 1.366 . S
C776 C777 1.414 . S
C776 C779 1.499 . S
C777 H751 0.950 . S
C777 C776 1.414 . S
C777 C778 1.374 . S
C778 H752 0.950 . S
C778 C774 1.385 . S
C778 C777 1.374 . S
C779 C776 1.499 . S
C779 C780 1.373 . S
C779 C781 1.389 . S
C780 H753 0.950 . S
C780 C766 1.377 . S
C780 C779 1.373 . S
C781 C765 1.377 . S
C781 C779 1.389 . S
C781 C782 1.524 . S
C782 C781 1.524 . S
C782 C783 1.397 . S
C782 C787 1.363 . S
C783 H754 0.950 . S
C783 C782 1.397 . S
C783 C784 1.334 . S
C784 H755 0.950 . S
C784 C783 1.334 . S
C784 C785 1.287 . S
C785 C784 1.287 . S
C785 C786 1.524 . S
C785 H788 0.999 . S
C786 H756 0.950 . S
C786 C785 1.524 . S
C786 C787 1.415 . S
C787 H757 0.950 . S
C787 C782 1.363 . S
C787 C786 1.415 . S
H788 C785 0.999 . S
H789 C770 0.913 . S
H790 C808 0.951 . S
H791 C810 0.951 . S
H792 C812 0.950 . S
H793 C813 0.950 . S
H794 C815 0.950 . S
H795 C818 0.950 . S
H796 C819 0.950 . S
H797 C821 0.950 . S
H798 C822 0.950 . S
H799 C823 0.951 . S
H800 C825 0.951 . S
H801 C827 0.950 . S
H802 C828 0.950 . S
H803 C830 0.950 . S
H804 C833 0.950 . S
H805 C834 0.950 . S
H806 C836 0.950 . S
H807 C837 0.950 . S
C808 H790 0.951 . S
C808 C809 1.366 . S
C808 C810 1.388 . S
C809 C808 1.366 . S
C809 C813 1.385 . S
C810 H791 0.951 . S
C810 C808 1.388 . S
C810 C811 1.366 . S
C811 C810 1.366 . S
C811 C812 1.414 . S
C811 C814 1.499 . S
C812 H792 0.950 . S
C812 C811 1.414 . S
C812 C813 1.374 . S
C813 H793 0.950 . S
C813 C809 1.385 . S
C813 C812 1.374 . S
C814 C811 1.499 . S
C814 C815 1.373 . S
C814 C816 1.389 . S
C815 H794 0.950 . S
C815 C814 1.373 . S
C815 C831 1.377 . S
C816 C814 1.389 . S
C816 C817 1.524 . S
C816 C830 1.377 . S
C817 C816 1.524 . S
C817 C818 1.397 . S
C817 C822 1.363 . S
C818 H795 0.950 . S
C818 C817 1.397 . S
C818 C819 1.334 . S
C819 H796 0.950 . S
C819 C818 1.334 . S
C819 C820 1.287 . S
C820 C819 1.287 . S
C820 C821 1.524 . S
C820 H839 0.913 . S
C821 H797 0.950 . S
C821 C820 1.524 . S
C821 C822 1.415 . S
C822 H798 0.950 . S
C822 C817 1.363 . S
C822 C821 1.415 . S
C823 H799 0.951 . S
C823 C824 1.366 . S
C823 C825 1.388 . S
C824 C823 1.366 . S
C824 C828 1.385 . S
C825 H800 0.951 . S
C825 C823 1.388 . S
C825 C826 1.366 . S
C826 C825 1.366 . S
C826 C827 1.414 . S
C826 C829 1.499 . S
C827 H801 0.950 . S
C827 C826 1.414 . S
C827 C828 1.374 . S
C828 H802 0.950 . S
C828 C824 1.385 . S
C828 C827 1.374 . S
C829 C826 1.499 . S
C829 C830 1.373 . S
C829 C831 1.389 . S
C830 H803 0.950 . S
C830 C816 1.377 . S
C830 C829 1.373 . S
C831 C815 1.377 . S
C831 C829 1.389 . S
C831 C832 1.524 . S
C832 C831 1.524 . S
C832 C833 1.397 . S
C832 C837 1.363 . S
C833 H804 0.950 . S
C833 C832 1.397 . S
C833 C834 1.334 . S
C834 H805 0.950 . S
C834 C833 1.334 . S
C834 C835 1.287 . S
C835 C834 1.287 . S
C835 C836 1.524 . S
C835 H838 0.999 . S
C836 H806 0.950 . S
C836 C835 1.524 . S
C836 C837 1.415 . S
C837 H807 0.950 . S
C837 C832 1.363 . S
C837 C836 1.415 . S
H838 C835 0.999 . S
H839 C820 0.913 . S
H840 C858 0.973 . S
H841 C860 0.951 . S
H842 C862 0.950 . S
H843 C863 0.950 . S
H844 C865 0.950 . S
H845 C868 0.962 . S
H846 C869 0.950 . S
H847 C871 0.950 . S
H848 C872 0.950 1_556 S
H849 C873 0.951 . S
H850 C875 0.951 . S
H851 C877 0.950 1_565 S
H852 C878 0.950 . S
H853 C880 0.950 . S
H854 C883 0.950 . S
H855 C884 0.950 . S
H856 C886 0.937 1_545 S
H857 C887 0.950 . S
C858 H840 0.973 . S
C858 C859 1.366 . S
C858 C860 1.388 . S
C859 C858 1.366 . S
C859 C863 1.385 . S
C860 H841 0.951 . S
C860 C858 1.388 . S
C860 C861 1.366 . S
C861 C860 1.366 . S
C861 C862 1.414 . S
C861 C864 1.499 . S
C862 H842 0.950 . S
C862 C861 1.414 . S
C862 C863 1.374 . S
C863 H843 0.950 . S
C863 C859 1.385 . S
C863 C862 1.374 . S
C864 C861 1.499 . S
C864 C865 1.373 . S
C864 C866 1.389 . S
C865 H844 0.950 . S
C865 C864 1.373 . S
C865 C881 1.377 . S
C866 C864 1.389 . S
C866 C867 1.524 . S
C866 C880 1.377 . S
C867 C866 1.524 . S
C867 C868 1.397 1_556 S
C867 C872 1.363 1_556 S
C868 H845 0.962 . S
C868 C867 1.397 1_554 S
C868 C869 1.334 . S
C869 H846 0.950 . S
C869 C868 1.334 . S
C869 C870 1.287 . S
C870 C869 1.287 . S
C870 C871 1.524 . S
C870 H889 0.913 . S
C871 H847 0.950 . S
C871 C870 1.524 . S
C871 C872 1.415 . S
C872 H848 0.950 1_554 S
C872 C867 1.363 1_554 S
C872 C871 1.415 . S
C873 H849 0.951 . S
C873 C874 1.366 . S
C873 C875 1.388 . S
C874 C873 1.366 . S
C874 C878 1.385 . S
C875 H850 0.951 . S
C875 C873 1.388 . S
C875 C876 1.366 . S
C876 C875 1.366 . S
C876 C877 1.414 . S
C876 C879 1.499 1_545 S
C877 H851 0.950 1_545 S
C877 C876 1.414 . S
C877 C878 1.374 . S
C878 H852 0.950 . S
C878 C874 1.385 . S
C878 C877 1.374 . S
C879 C876 1.499 1_565 S
C879 C880 1.373 . S
C879 C881 1.389 . S
C880 H853 0.950 . S
C880 C866 1.377 . S
C880 C879 1.373 . S
C881 C865 1.377 . S
C881 C879 1.389 . S
C881 C882 1.524 . S
C882 C881 1.524 . S
C882 C883 1.397 . S
C882 C887 1.363 . S
C883 H854 0.950 . S
C883 C882 1.397 . S
C883 C884 1.334 . S
C884 H855 0.950 . S
C884 C883 1.334 . S
C884 C885 1.287 . S
C885 C884 1.287 . S
C885 C886 1.524 . S
C885 H888 0.999 . S
C886 H856 0.937 1_565 S
C886 C885 1.524 . S
C886 C887 1.415 . S
C887 H857 0.950 . S
C887 C882 1.363 . S
C887 C886 1.415 . S
H888 C885 0.999 . S
H889 C870 0.913 . S
H890 C908 0.951 . S
H891 C910 0.951 . S
H892 C912 0.950 . S
H893 C913 0.950 . S
H894 C915 0.950 . S
H895 C918 0.950 . S
H896 C919 0.950 . S
H897 C921 0.950 . S
H898 C922 0.950 . S
H899 C923 0.951 . S
H900 C925 0.951 . S
H901 C927 0.950 1_545 S
H902 C928 0.950 . S
H903 C930 0.950 . S
H904 C933 0.950 . S
H905 C934 0.950 . S
H906 C936 0.950 . S
H907 C937 0.950 . S
C908 H890 0.951 . S
C908 C909 1.366 . S
C908 C910 1.388 . S
C909 C908 1.366 . S
C909 C913 1.385 . S
C910 H891 0.951 . S
C910 C908 1.388 . S
C910 C911 1.366 . S
C911 C910 1.366 . S
C911 C912 1.414 . S
C911 C914 1.499 . S
C912 H892 0.950 . S
C912 C911 1.414 . S
C912 C913 1.374 . S
C913 H893 0.950 . S
C913 C909 1.385 . S
C913 C912 1.374 . S
C914 C911 1.499 . S
C914 C915 1.373 . S
C914 C916 1.389 . S
C915 H894 0.950 . S
C915 C914 1.373 . S
C915 C931 1.378 1_545 S
C916 C914 1.389 . S
C916 C917 1.524 . S
C916 C930 1.377 . S
C917 C916 1.524 . S
C917 C918 1.397 . S
C917 C922 1.363 . S
C918 H895 0.950 . S
C918 C917 1.397 . S
C918 C919 1.334 . S
C919 H896 0.950 . S
C919 C918 1.334 . S
C919 C920 1.287 . S
C920 C919 1.287 . S
C920 C921 1.524 . S
C920 H939 0.913 . S
C921 H897 0.950 . S
C921 C920 1.524 . S
C921 C922 1.415 . S
C922 H898 0.950 . S
C922 C917 1.363 . S
C922 C921 1.415 . S
C923 H899 0.951 . S
C923 C924 1.366 . S
C923 C925 1.388 . S
C924 C923 1.366 . S
C924 C928 1.385 . S
C925 H900 0.951 . S
C925 C923 1.388 . S
C925 C926 1.366 . S
C926 C925 1.366 . S
C926 C927 1.414 . S
C926 C929 1.499 1_565 S
C927 H901 0.950 1_565 S
C927 C926 1.414 . S
C927 C928 1.374 . S
C928 H902 0.950 . S
C928 C924 1.385 . S
C928 C927 1.374 . S
C929 C926 1.499 1_545 S
C929 C930 1.373 . S
C929 C931 1.390 1_545 S
C930 H903 0.950 . S
C930 C916 1.377 . S
C930 C929 1.373 . S
C931 C915 1.378 1_565 S
C931 C929 1.390 1_565 S
C931 C932 1.523 . S
C932 C931 1.523 . S
C932 C933 1.397 . S
C932 C937 1.363 . S
C933 H904 0.950 . S
C933 C932 1.397 . S
C933 C934 1.334 . S
C934 H905 0.950 . S
C934 C933 1.334 . S
C934 C935 1.287 . S
C935 C934 1.287 . S
C935 C936 1.524 . S
C935 H938 0.999 . S
C936 H906 0.950 . S
C936 C935 1.524 . S
C936 C937 1.415 . S
C937 H907 0.950 . S
C937 C932 1.363 . S
C937 C936 1.415 . S
H938 C935 0.999 . S
H939 C920 0.913 . S
H940 C958 0.951 . S
H941 C960 0.951 . S
H942 C962 0.950 . S
H943 C963 0.950 . S
H944 C965 0.950 . S
H945 C968 0.950 . S
H946 C969 0.950 . S
H947 C971 0.950 . S
H948 C972 0.950 . S
H949 C973 0.951 . S
H950 C975 0.951 . S
H951 C977 0.950 1_565 S
H952 C978 0.950 . S
H953 C980 0.950 . S
H954 C983 0.950 . S
H955 C984 0.950 . S
H956 C986 0.950 . S
H957 C987 0.950 . S
C958 H940 0.951 . S
C958 C959 1.366 . S
C958 C960 1.388 . S
C959 C958 1.366 . S
C959 C963 1.385 . S
C960 H941 0.951 . S
C960 C958 1.388 . S
C960 C961 1.366 . S
C961 C960 1.366 . S
C961 C962 1.414 . S
C961 C964 1.499 . S
C962 H942 0.950 . S
C962 C961 1.414 . S
C962 C963 1.374 . S
C963 H943 0.950 . S
C963 C959 1.385 . S
C963 C962 1.374 . S
C964 C961 1.499 . S
C964 C965 1.373 . S
C964 C966 1.389 . S
C965 H944 0.950 . S
C965 C964 1.373 . S
C965 C981 1.377 1_565 S
C966 C964 1.389 . S
C966 C967 1.524 . S
C966 C980 1.377 . S
C967 C966 1.524 . S
C967 C968 1.397 . S
C967 C972 1.363 . S
C968 H945 0.950 . S
C968 C967 1.397 . S
C968 C969 1.334 . S
C969 H946 0.950 . S
C969 C968 1.334 . S
C969 C970 1.287 . S
C970 C969 1.287 . S
C970 C971 1.524 . S
C970 H989 0.913 . S
C971 H947 0.950 . S
C971 C970 1.524 . S
C971 C972 1.415 . S
C972 H948 0.950 . S
C972 C967 1.363 . S
C972 C971 1.415 . S
C973 H949 0.951 . S
C973 C974 1.366 . S
C973 C975 1.388 . S
C974 C973 1.366 . S
C974 C978 1.385 . S
C975 H950 0.951 . S
C975 C973 1.388 . S
C975 C976 1.366 . S
C976 C975 1.366 . S
C976 C977 1.414 . S
C976 C979 1.499 . S
C977 H951 0.950 1_545 S
C977 C976 1.414 . S
C977 C978 1.374 . S
C978 H952 0.950 . S
C978 C974 1.385 . S
C978 C977 1.374 . S
C979 C976 1.499 . S
C979 C980 1.373 1_545 S
C979 C981 1.389 . S
C980 H953 0.950 . S
C980 C966 1.377 . S
C980 C979 1.373 1_565 S
C981 C965 1.377 1_545 S
C981 C979 1.389 . S
C981 C982 1.524 . S
C982 C981 1.524 . S
C982 C983 1.397 . S
C982 C987 1.363 . S
C983 H954 0.950 . S
C983 C982 1.397 . S
C983 C984 1.334 . S
C984 H955 0.950 . S
C984 C983 1.334 . S
C984 C985 1.287 . S
C985 C984 1.287 . S
C985 C986 1.524 . S
C985 H988 0.999 . S
C986 H956 0.950 . S
C986 C985 1.524 . S
C986 C987 1.415 . S
C987 H957 0.950 . S
C987 C982 1.363 . S
C987 C986 1.415 . S
H988 C985 0.999 . S
H989 C970 0.913 . S
H990 C1008 0.951 . S
H991 C1010 0.951 . S
H992 C1012 0.950 . S
H993 C1013 0.950 . S
H994 C1015 0.950 . S
H995 C1018 0.950 . S
H996 C1019 0.950 . S
H997 C1021 0.949 1_565 S
H998 C1022 0.950 . S
H999 C1023 0.951 . S
H1000 C1025 0.951 . S
H1001 C1027 0.950 . S
H1002 C1028 0.950 . S
H1003 C1030 0.950 . S
H1004 C1033 0.950 . S
H1005 C1034 0.950 . S
H1006 C1036 0.950 . S
H1007 C1037 0.950 . S
C1008 H990 0.951 . S
C1008 C1009 1.366 . S
C1008 C1010 1.388 . S
C1009 C1008 1.366 . S
C1009 C1013 1.385 . S
C1010 H991 0.951 . S
C1010 C1008 1.388 . S
C1010 C1011 1.366 . S
C1011 C1010 1.366 . S
C1011 C1012 1.414 . S
C1011 C1014 1.499 . S
C1012 H992 0.950 . S
C1012 C1011 1.414 . S
C1012 C1013 1.374 . S
C1013 H993 0.950 . S
C1013 C1009 1.385 . S
C1013 C1012 1.374 . S
C1014 C1011 1.499 . S
C1014 C1015 1.373 . S
C1014 C1016 1.389 . S
C1015 H994 0.950 . S
C1015 C1014 1.373 . S
C1015 C1031 1.377 . S
C1016 C1014 1.389 . S
C1016 C1017 1.524 . S
C1016 C1030 1.377 1_545 S
C1017 C1016 1.524 . S
C1017 C1018 1.397 . S
C1017 C1022 1.363 . S
C1018 H995 0.950 . S
C1018 C1017 1.397 . S
C1018 C1019 1.334 1_545 S
C1019 H996 0.950 . S
C1019 C1018 1.334 1_565 S
C1019 C1020 1.287 . S
C1020 C1019 1.287 . S
C1020 C1021 1.522 1_565 S
C1020 H1039 0.913 . S
C1021 H997 0.949 1_545 S
C1021 C1020 1.522 1_545 S
C1021 C1022 1.417 . S
C1022 H998 0.950 . S
C1022 C1017 1.363 . S
C1022 C1021 1.417 . S
C1023 H999 0.951 . S
C1023 C1024 1.366 . S
C1023 C1025 1.388 . S
C1024 C1023 1.366 . S
C1024 C1028 1.385 . S
C1025 H1000 0.951 . S
C1025 C1023 1.388 . S
C1025 C1026 1.366 . S
C1026 C1025 1.366 . S
C1026 C1027 1.414 . S
C1026 C1029 1.491 1_565 S
C1027 H1001 0.950 . S
C1027 C1026 1.414 . S
C1027 C1028 1.374 . S
C1028 H1002 0.950 . S
C1028 C1024 1.385 . S
C1028 C1027 1.374 . S
C1029 C1026 1.491 1_545 S
C1029 C1030 1.372 1_545 S
C1029 C1031 1.398 . S
C1030 H1003 0.950 . S
C1030 C1016 1.377 1_565 S
C1030 C1029 1.372 1_565 S
C1031 C1015 1.377 . S
C1031 C1029 1.398 . S
C1031 C1032 1.524 . S
C1032 C1031 1.524 . S
C1032 C1033 1.397 . S
C1032 C1037 1.363 . S
C1033 H1004 0.950 . S
C1033 C1032 1.397 . S
C1033 C1034 1.334 . S
C1034 H1005 0.950 . S
C1034 C1033 1.334 . S
C1034 C1035 1.287 . S
C1035 C1034 1.287 . S
C1035 C1036 1.524 . S
C1035 H1038 0.999 . S
C1036 H1006 0.950 . S
C1036 C1035 1.524 . S
C1036 C1037 1.415 . S
C1037 H1007 0.950 . S
C1037 C1032 1.363 . S
C1037 C1036 1.415 . S
H1038 C1035 0.999 . S
H1039 C1020 0.913 . S
H1040 C1058 0.951 . S
H1041 C1060 0.951 . S
H1042 C1062 0.950 . S
H1043 C1063 0.950 . S
H1044 C1065 0.950 . S
H1045 C1068 0.950 . S
H1046 C1069 0.950 . S
H1047 C1071 0.950 . S
H1048 C1072 0.950 . S
H1049 C1073 0.951 . S
H1050 C1075 0.951 . S
H1051 C1077 0.950 . S
H1052 C1078 0.950 . S
H1053 C1080 0.950 . S
H1054 C1083 0.950 . S
H1055 C1084 0.950 . S
H1056 C1086 0.950 . S
H1057 C1087 0.950 . S
C1058 H1040 0.951 . S
C1058 C1059 1.366 . S
C1058 C1060 1.388 . S
C1059 C1058 1.366 . S
C1059 C1063 1.385 . S
C1060 H1041 0.951 . S
C1060 C1058 1.388 . S
C1060 C1061 1.366 . S
C1061 C1060 1.366 . S
C1061 C1062 1.414 . S
C1061 C1064 1.499 . S
C1062 H1042 0.950 . S
C1062 C1061 1.414 . S
C1062 C1063 1.374 . S
C1063 H1043 0.950 . S
C1063 C1059 1.385 . S
C1063 C1062 1.374 . S
C1064 C1061 1.499 . S
C1064 C1065 1.373 . S
C1064 C1066 1.389 . S
C1065 H1044 0.950 . S
C1065 C1064 1.373 . S
C1065 C1081 1.377 . S
C1066 C1064 1.389 . S
C1066 C1067 1.524 . S
C1066 C1080 1.377 . S
C1067 C1066 1.524 . S
C1067 C1068 1.397 . S
C1067 C1072 1.363 . S
C1068 H1045 0.950 . S
C1068 C1067 1.397 . S
C1068 C1069 1.334 . S
C1069 H1046 0.950 . S
C1069 C1068 1.334 . S
C1069 C1070 1.287 . S
C1070 C1069 1.287 . S
C1070 C1071 1.524 . S
C1070 H1089 0.913 . S
C1071 H1047 0.950 . S
C1071 C1070 1.524 . S
C1071 C1072 1.415 . S
C1072 H1048 0.950 . S
C1072 C1067 1.363 . S
C1072 C1071 1.415 . S
C1073 H1049 0.951 . S
C1073 C1074 1.366 . S
C1073 C1075 1.388 . S
C1074 C1073 1.366 . S
C1074 C1078 1.385 . S
C1075 H1050 0.951 . S
C1075 C1073 1.388 . S
C1075 C1076 1.366 . S
C1076 C1075 1.366 . S
C1076 C1077 1.414 . S
C1076 C1079 1.499 . S
C1077 H1051 0.950 . S
C1077 C1076 1.414 . S
C1077 C1078 1.374 . S
C1078 H1052 0.950 . S
C1078 C1074 1.385 . S
C1078 C1077 1.374 . S
C1079 C1076 1.499 . S
C1079 C1080 1.373 . S
C1079 C1081 1.389 . S
C1080 H1053 0.950 . S
C1080 C1066 1.377 . S
C1080 C1079 1.373 . S
C1081 C1065 1.377 . S
C1081 C1079 1.389 . S
C1081 C1082 1.524 . S
C1082 C1081 1.524 . S
C1082 C1083 1.397 . S
C1082 C1087 1.363 . S
C1083 H1054 0.950 . S
C1083 C1082 1.397 . S
C1083 C1084 1.334 . S
C1084 H1055 0.950 . S
C1084 C1083 1.334 . S
C1084 C1085 1.287 . S
C1085 C1084 1.287 . S
C1085 C1086 1.524 . S
C1085 H1088 0.999 . S
C1086 H1056 0.950 . S
C1086 C1085 1.524 . S
C1086 C1087 1.415 . S
C1087 H1057 0.950 . S
C1087 C1082 1.363 . S
C1087 C1086 1.415 . S
H1088 C1085 0.999 . S
H1089 C1070 0.913 . S
H1090 C1108 0.951 . S
H1091 C1110 0.951 . S
H1092 C1112 0.950 . S
H1093 C1113 0.950 . S
H1094 C1115 0.950 . S
H1095 C1118 0.950 . S
H1096 C1119 0.950 . S
H1097 C1121 0.950 . S
H1098 C1122 0.950 . S
H1099 C1123 0.951 . S
H1100 C1125 0.951 . S
H1101 C1127 0.950 . S
H1102 C1128 0.950 . S
H1103 C1130 0.950 . S
H1104 C1133 0.950 . S
H1105 C1134 0.950 . S
H1106 C1136 0.950 . S
H1107 C1137 0.950 . S
C1108 H1090 0.951 . S
C1108 C1109 1.366 . S
C1108 C1110 1.388 . S
C1109 C1108 1.366 . S
C1109 C1113 1.385 . S
C1110 H1091 0.951 . S
C1110 C1108 1.388 . S
C1110 C1111 1.366 . S
C1111 C1110 1.366 . S
C1111 C1112 1.414 . S
C1111 C1114 1.499 . S
C1112 H1092 0.950 . S
C1112 C1111 1.414 . S
C1112 C1113 1.374 . S
C1113 H1093 0.950 . S
C1113 C1109 1.385 . S
C1113 C1112 1.374 . S
C1114 C1111 1.499 . S
C1114 C1115 1.373 . S
C1114 C1116 1.389 . S
C1115 H1094 0.950 . S
C1115 C1114 1.373 . S
C1115 C1131 1.377 . S
C1116 C1114 1.389 . S
C1116 C1117 1.524 . S
C1116 C1130 1.377 . S
C1117 C1116 1.524 . S
C1117 C1118 1.397 . S
C1117 C1122 1.363 . S
C1118 H1095 0.950 . S
C1118 C1117 1.397 . S
C1118 C1119 1.334 . S
C1119 H1096 0.950 . S
C1119 C1118 1.334 . S
C1119 C1120 1.287 . S
C1120 C1119 1.287 . S
C1120 C1121 1.524 . S
C1120 H1139 0.913 . S
C1121 H1097 0.950 . S
C1121 C1120 1.524 . S
C1121 C1122 1.415 . S
C1122 H1098 0.950 . S
C1122 C1117 1.363 . S
C1122 C1121 1.415 . S
C1123 H1099 0.951 . S
C1123 C1124 1.366 . S
C1123 C1125 1.388 . S
C1124 C1123 1.366 . S
C1124 C1128 1.385 . S
C1125 H1100 0.951 . S
C1125 C1123 1.388 . S
C1125 C1126 1.366 . S
C1126 C1125 1.366 . S
C1126 C1127 1.414 . S
C1126 C1129 1.499 . S
C1127 H1101 0.950 . S
C1127 C1126 1.414 . S
C1127 C1128 1.374 . S
C1128 H1102 0.950 . S
C1128 C1124 1.385 . S
C1128 C1127 1.374 . S
C1129 C1126 1.499 . S
C1129 C1130 1.373 . S
C1129 C1131 1.389 . S
C1130 H1103 0.950 . S
C1130 C1116 1.377 . S
C1130 C1129 1.373 . S
C1131 C1115 1.377 . S
C1131 C1129 1.389 . S
C1131 C1132 1.524 . S
C1132 C1131 1.524 . S
C1132 C1133 1.397 . S
C1132 C1137 1.363 . S
C1133 H1104 0.950 . S
C1133 C1132 1.397 . S
C1133 C1134 1.334 . S
C1134 H1105 0.950 . S
C1134 C1133 1.334 . S
C1134 C1135 1.287 . S
C1135 C1134 1.287 . S
C1135 C1136 1.524 . S
C1135 H1138 0.999 . S
C1136 H1106 0.950 . S
C1136 C1135 1.524 . S
C1136 C1137 1.415 . S
C1137 H1107 0.950 . S
C1137 C1132 1.363 . S
C1137 C1136 1.415 . S
H1138 C1135 0.999 . S
H1139 C1120 0.913 . S
H1140 C1158 0.951 . S
H1141 C1160 0.951 . S
H1142 C1162 0.950 . S
H1143 C1163 0.950 . S
H1144 C1165 0.950 . S
H1145 C1168 0.950 . S
H1146 C1169 0.950 . S
H1147 C1171 0.950 . S
H1148 C1172 0.950 . S
H1149 C1173 0.951 . S
H1150 C1175 0.951 . S
H1151 C1177 0.950 . S
H1152 C1178 0.950 . S
H1153 C1180 0.950 . S
H1154 C1183 0.950 . S
H1155 C1184 0.950 . S
H1156 C1186 0.950 . S
H1157 C1187 0.950 . S
C1158 H1140 0.951 . S
C1158 C1159 1.366 . S
C1158 C1160 1.388 . S
C1159 C1158 1.366 . S
C1159 C1163 1.385 . S
C1160 H1141 0.951 . S
C1160 C1158 1.388 . S
C1160 C1161 1.366 . S
C1161 C1160 1.366 . S
C1161 C1162 1.414 . S
C1161 C1164 1.499 . S
C1162 H1142 0.950 . S
C1162 C1161 1.414 . S
C1162 C1163 1.374 . S
C1163 H1143 0.950 . S
C1163 C1159 1.385 . S
C1163 C1162 1.374 . S
C1164 C1161 1.499 . S
C1164 C1165 1.373 . S
C1164 C1166 1.389 . S
C1165 H1144 0.950 . S
C1165 C1164 1.373 . S
C1165 C1181 1.377 . S
C1166 C1164 1.389 . S
C1166 C1167 1.524 . S
C1166 C1180 1.377 . S
C1167 C1166 1.524 . S
C1167 C1168 1.397 . S
C1167 C1172 1.363 . S
C1168 H1145 0.950 . S
C1168 C1167 1.397 . S
C1168 C1169 1.334 . S
C1169 H1146 0.950 . S
C1169 C1168 1.334 . S
C1169 C1170 1.287 . S
C1170 C1169 1.287 . S
C1170 C1171 1.524 . S
C1170 H1189 0.913 . S
C1171 H1147 0.950 . S
C1171 C1170 1.524 . S
C1171 C1172 1.415 . S
C1172 H1148 0.950 . S
C1172 C1167 1.363 . S
C1172 C1171 1.415 . S
C1173 H1149 0.951 . S
C1173 C1174 1.366 . S
C1173 C1175 1.388 . S
C1174 C1173 1.366 . S
C1174 C1178 1.385 . S
C1175 H1150 0.951 . S
C1175 C1173 1.388 . S
C1175 C1176 1.366 . S
C1176 C1175 1.366 . S
C1176 C1177 1.414 . S
C1176 C1179 1.499 . S
C1177 H1151 0.950 . S
C1177 C1176 1.414 . S
C1177 C1178 1.374 . S
C1178 H1152 0.950 . S
C1178 C1174 1.385 . S
C1178 C1177 1.374 . S
C1179 C1176 1.499 . S
C1179 C1180 1.373 . S
C1179 C1181 1.389 . S
C1180 H1153 0.950 . S
C1180 C1166 1.377 . S
C1180 C1179 1.373 . S
C1181 C1165 1.377 . S
C1181 C1179 1.389 . S
C1181 C1182 1.524 . S
C1182 C1181 1.524 . S
C1182 C1183 1.397 . S
C1182 C1187 1.363 . S
C1183 H1154 0.950 . S
C1183 C1182 1.397 . S
C1183 C1184 1.334 . S
C1184 H1155 0.950 . S
C1184 C1183 1.334 . S
C1184 C1185 1.287 . S
C1185 C1184 1.287 . S
C1185 C1186 1.524 . S
C1185 H1188 0.999 . S
C1186 H1156 0.950 . S
C1186 C1185 1.524 . S
C1186 C1187 1.415 . S
C1187 H1157 0.950 . S
C1187 C1182 1.363 . S
C1187 C1186 1.415 . S
H1188 C1185 0.999 . S
H1189 C1170 0.913 . S
H1190 C1208 0.951 . S
H1191 C1210 0.951 . S
H1192 C1212 0.950 . S
H1193 C1213 0.950 . S
H1194 C1215 0.950 . S
H1195 C1218 0.950 . S
H1196 C1219 0.950 . S
H1197 C1221 0.950 . S
H1198 C1222 0.950 . S
H1199 C1223 0.951 . S
H1200 C1225 0.951 . S
H1201 C1227 0.950 . S
H1202 C1228 0.950 . S
H1203 C1230 0.950 . S
H1204 C1233 0.950 . S
H1205 C1234 0.950 . S
H1206 C1236 0.950 . S
H1207 C1237 0.950 . S
C1208 H1190 0.951 . S
C1208 C1209 1.366 . S
C1208 C1210 1.388 . S
C1209 C1208 1.366 . S
C1209 C1213 1.385 . S
C1210 H1191 0.951 . S
C1210 C1208 1.388 . S
C1210 C1211 1.366 . S
C1211 C1210 1.366 . S
C1211 C1212 1.414 . S
C1211 C1214 1.499 . S
C1212 H1192 0.950 . S
C1212 C1211 1.414 . S
C1212 C1213 1.374 . S
C1213 H1193 0.950 . S
C1213 C1209 1.385 . S
C1213 C1212 1.374 . S
C1214 C1211 1.499 . S
C1214 C1215 1.373 . S
C1214 C1216 1.389 . S
C1215 H1194 0.950 . S
C1215 C1214 1.373 . S
C1215 C1231 1.377 . S
C1216 C1214 1.389 . S
C1216 C1217 1.524 . S
C1216 C1230 1.377 . S
C1217 C1216 1.524 . S
C1217 C1218 1.397 . S
C1217 C1222 1.363 . S
C1218 H1195 0.950 . S
C1218 C1217 1.397 . S
C1218 C1219 1.334 . S
C1219 H1196 0.950 . S
C1219 C1218 1.334 . S
C1219 C1220 1.287 . S
C1220 C1219 1.287 . S
C1220 C1221 1.524 . S
C1220 H1239 0.913 . S
C1221 H1197 0.950 . S
C1221 C1220 1.524 . S
C1221 C1222 1.415 . S
C1222 H1198 0.950 . S
C1222 C1217 1.363 . S
C1222 C1221 1.415 . S
C1223 H1199 0.951 . S
C1223 C1224 1.366 . S
C1223 C1225 1.388 . S
C1224 C1223 1.366 . S
C1224 C1228 1.385 . S
C1225 H1200 0.951 . S
C1225 C1223 1.388 . S
C1225 C1226 1.366 . S
C1226 C1225 1.366 . S
C1226 C1227 1.414 . S
C1226 C1229 1.499 . S
C1227 H1201 0.950 . S
C1227 C1226 1.414 . S
C1227 C1228 1.374 . S
C1228 H1202 0.950 . S
C1228 C1224 1.385 . S
C1228 C1227 1.374 . S
C1229 C1226 1.499 . S
C1229 C1230 1.373 . S
C1229 C1231 1.389 . S
C1230 H1203 0.950 . S
C1230 C1216 1.377 . S
C1230 C1229 1.373 . S
C1231 C1215 1.377 . S
C1231 C1229 1.389 . S
C1231 C1232 1.524 . S
C1232 C1231 1.524 . S
C1232 C1233 1.397 . S
C1232 C1237 1.363 . S
C1233 H1204 0.950 . S
C1233 C1232 1.397 . S
C1233 C1234 1.334 . S
C1234 H1205 0.950 . S
C1234 C1233 1.334 . S
C1234 C1235 1.287 . S
C1235 C1234 1.287 . S
C1235 C1236 1.524 . S
C1235 H1238 0.999 . S
C1236 H1206 0.950 . S
C1236 C1235 1.524 . S
C1236 C1237 1.415 . S
C1237 H1207 0.950 . S
C1237 C1232 1.363 . S
C1237 C1236 1.415 . S
H1238 C1235 0.999 . S
H1239 C1220 0.913 . S
H1240 C1258 0.951 . S
H1241 C1260 0.951 . S
H1242 C1262 0.950 . S
H1243 C1263 0.950 . S
H1244 C1265 0.950 . S
H1245 C1268 0.950 . S
H1246 C1269 0.950 . S
H1247 C1271 0.950 . S
H1248 C1272 0.950 . S
H1249 C1273 0.951 . S
H1250 C1275 0.951 . S
H1251 C1277 0.950 . S
H1252 C1278 0.950 . S
H1253 C1280 0.950 . S
H1254 C1283 0.950 . S
H1255 C1284 0.950 . S
H1256 C1286 0.950 . S
H1257 C1287 0.950 . S
C1258 H1240 0.951 . S
C1258 C1259 1.366 . S
C1258 C1260 1.388 . S
C1259 C1258 1.366 . S
C1259 C1263 1.385 . S
C1260 H1241 0.951 . S
C1260 C1258 1.388 . S
C1260 C1261 1.366 . S
C1261 C1260 1.366 . S
C1261 C1262 1.414 . S
C1261 C1264 1.499 . S
C1262 H1242 0.950 . S
C1262 C1261 1.414 . S
C1262 C1263 1.374 . S
C1263 H1243 0.950 . S
C1263 C1259 1.385 . S
C1263 C1262 1.374 . S
C1264 C1261 1.499 . S
C1264 C1265 1.373 . S
C1264 C1266 1.389 . S
C1265 H1244 0.950 . S
C1265 C1264 1.373 . S
C1265 C1281 1.377 . S
C1266 C1264 1.389 . S
C1266 C1267 1.524 . S
C1266 C1280 1.377 . S
C1267 C1266 1.524 . S
C1267 C1268 1.397 . S
C1267 C1272 1.363 . S
C1268 H1245 0.950 . S
C1268 C1267 1.397 . S
C1268 C1269 1.334 . S
C1269 H1246 0.950 . S
C1269 C1268 1.334 . S
C1269 C1270 1.287 . S
C1270 C1269 1.287 . S
C1270 C1271 1.524 . S
C1270 H1289 0.913 . S
C1271 H1247 0.950 . S
C1271 C1270 1.524 . S
C1271 C1272 1.415 . S
C1272 H1248 0.950 . S
C1272 C1267 1.363 . S
C1272 C1271 1.415 . S
C1273 H1249 0.951 . S
C1273 C1274 1.366 . S
C1273 C1275 1.388 . S
C1274 C1273 1.366 . S
C1274 C1278 1.385 . S
C1275 H1250 0.951 . S
C1275 C1273 1.388 . S
C1275 C1276 1.366 . S
C1276 C1275 1.366 . S
C1276 C1277 1.414 . S
C1276 C1279 1.499 . S
C1277 H1251 0.950 . S
C1277 C1276 1.414 . S
C1277 C1278 1.374 . S
C1278 H1252 0.950 . S
C1278 C1274 1.385 . S
C1278 C1277 1.374 . S
C1279 C1276 1.499 . S
C1279 C1280 1.373 . S
C1279 C1281 1.389 . S
C1280 H1253 0.950 . S
C1280 C1266 1.377 . S
C1280 C1279 1.373 . S
C1281 C1265 1.377 . S
C1281 C1279 1.389 . S
C1281 C1282 1.524 . S
C1282 C1281 1.524 . S
C1282 C1283 1.397 . S
C1282 C1287 1.363 . S
C1283 H1254 0.950 . S
C1283 C1282 1.397 . S
C1283 C1284 1.334 . S
C1284 H1255 0.950 . S
C1284 C1283 1.334 . S
C1284 C1285 1.287 . S
C1285 C1284 1.287 . S
C1285 C1286 1.524 . S
C1285 H1288 0.999 . S
C1286 H1256 0.950 . S
C1286 C1285 1.524 . S
C1286 C1287 1.415 . S
C1287 H1257 0.950 . S
C1287 C1282 1.363 . S
C1287 C1286 1.415 . S
H1288 C1285 0.999 . S
H1289 C1270 0.913 . S
H1290 C1308 0.951 . S
H1291 C1310 0.951 . S
H1292 C1312 0.950 . S
H1293 C1313 0.950 . S
H1294 C1315 0.950 . S
H1295 C1318 0.950 . S
H1296 C1319 0.950 . S
H1297 C1321 0.950 . S
H1298 C1322 0.950 . S
H1299 C1323 0.951 . S
H1300 C1325 0.951 . S
H1301 C1327 0.950 . S
H1302 C1328 0.950 . S
H1303 C1330 0.950 . S
H1304 C1333 0.950 . S
H1305 C1334 0.950 . S
H1306 C1336 0.950 . S
H1307 C1337 0.950 . S
C1308 H1290 0.951 . S
C1308 C1309 1.366 . S
C1308 C1310 1.388 . S
C1309 C1308 1.366 . S
C1309 C1313 1.385 . S
C1310 H1291 0.951 . S
C1310 C1308 1.388 . S
C1310 C1311 1.366 . S
C1311 C1310 1.366 . S
C1311 C1312 1.414 . S
C1311 C1314 1.499 . S
C1312 H1292 0.950 . S
C1312 C1311 1.414 . S
C1312 C1313 1.374 . S
C1313 H1293 0.950 . S
C1313 C1309 1.385 . S
C1313 C1312 1.374 . S
C1314 C1311 1.499 . S
C1314 C1315 1.373 . S
C1314 C1316 1.389 . S
C1315 H1294 0.950 . S
C1315 C1314 1.373 . S
C1315 C1331 1.377 . S
C1316 C1314 1.389 . S
C1316 C1317 1.524 . S
C1316 C1330 1.377 . S
C1317 C1316 1.524 . S
C1317 C1318 1.397 . S
C1317 C1322 1.363 . S
C1318 H1295 0.950 . S
C1318 C1317 1.397 . S
C1318 C1319 1.334 . S
C1319 H1296 0.950 . S
C1319 C1318 1.334 . S
C1319 C1320 1.287 . S
C1320 C1319 1.287 . S
C1320 C1321 1.524 . S
C1320 H1339 0.913 . S
C1321 H1297 0.950 . S
C1321 C1320 1.524 . S
C1321 C1322 1.415 . S
C1322 H1298 0.950 . S
C1322 C1317 1.363 . S
C1322 C1321 1.415 . S
C1323 H1299 0.951 . S
C1323 C1324 1.366 . S
C1323 C1325 1.388 . S
C1324 C1323 1.366 . S
C1324 C1328 1.385 . S
C1325 H1300 0.951 . S
C1325 C1323 1.388 . S
C1325 C1326 1.366 . S
C1326 C1325 1.366 . S
C1326 C1327 1.414 . S
C1326 C1329 1.499 . S
C1327 H1301 0.950 . S
C1327 C1326 1.414 . S
C1327 C1328 1.374 . S
C1328 H1302 0.950 . S
C1328 C1324 1.385 . S
C1328 C1327 1.374 . S
C1329 C1326 1.499 . S
C1329 C1330 1.373 . S
C1329 C1331 1.389 . S
C1330 H1303 0.950 . S
C1330 C1316 1.377 . S
C1330 C1329 1.373 . S
C1331 C1315 1.377 . S
C1331 C1329 1.389 . S
C1331 C1332 1.524 . S
C1332 C1331 1.524 . S
C1332 C1333 1.397 . S
C1332 C1337 1.363 . S
C1333 H1304 0.950 . S
C1333 C1332 1.397 . S
C1333 C1334 1.334 . S
C1334 H1305 0.950 . S
C1334 C1333 1.334 . S
C1334 C1335 1.287 . S
C1335 C1334 1.287 . S
C1335 C1336 1.524 . S
C1335 H1338 0.999 . S
C1336 H1306 0.950 . S
C1336 C1335 1.524 . S
C1336 C1337 1.415 . S
C1337 H1307 0.950 . S
C1337 C1332 1.363 . S
C1337 C1336 1.415 . S
H1338 C1335 0.999 . S
H1339 C1320 0.913 . S
H1340 C1358 0.951 . S
H1341 C1360 0.951 . S
H1342 C1362 0.950 . S
H1343 C1363 0.950 . S
H1344 C1365 0.950 . S
H1345 C1368 0.950 . S
H1346 C1369 0.950 . S
H1347 C1371 0.950 . S
H1348 C1372 0.950 . S
H1349 C1373 0.951 . S
H1350 C1375 0.951 . S
H1351 C1377 0.950 . S
H1352 C1378 0.950 . S
H1353 C1380 0.950 . S
H1354 C1383 0.950 . S
H1355 C1384 0.950 . S
H1356 C1386 0.950 . S
H1357 C1387 0.950 . S
C1358 H1340 0.951 . S
C1358 C1359 1.366 . S
C1358 C1360 1.388 . S
C1359 C1358 1.366 . S
C1359 C1363 1.385 . S
C1360 H1341 0.951 . S
C1360 C1358 1.388 . S
C1360 C1361 1.366 . S
C1361 C1360 1.366 . S
C1361 C1362 1.414 . S
C1361 C1364 1.499 . S
C1362 H1342 0.950 . S
C1362 C1361 1.414 . S
C1362 C1363 1.374 . S
C1363 H1343 0.950 . S
C1363 C1359 1.385 . S
C1363 C1362 1.374 . S
C1364 C1361 1.499 . S
C1364 C1365 1.373 . S
C1364 C1366 1.389 . S
C1365 H1344 0.950 . S
C1365 C1364 1.373 . S
C1365 C1381 1.377 . S
C1366 C1364 1.389 . S
C1366 C1367 1.524 . S
C1366 C1380 1.377 . S
C1367 C1366 1.524 . S
C1367 C1368 1.397 . S
C1367 C1372 1.363 . S
C1368 H1345 0.950 . S
C1368 C1367 1.397 . S
C1368 C1369 1.334 . S
C1369 H1346 0.950 . S
C1369 C1368 1.334 . S
C1369 C1370 1.287 . S
C1370 C1369 1.287 . S
C1370 C1371 1.524 . S
C1370 H1389 0.913 . S
C1371 H1347 0.950 . S
C1371 C1370 1.524 . S
C1371 C1372 1.415 . S
C1372 H1348 0.950 . S
C1372 C1367 1.363 . S
C1372 C1371 1.415 . S
C1373 H1349 0.951 . S
C1373 C1374 1.366 . S
C1373 C1375 1.388 . S
C1374 C1373 1.366 . S
C1374 C1378 1.385 . S
C1375 H1350 0.951 . S
C1375 C1373 1.388 . S
C1375 C1376 1.366 . S
C1376 C1375 1.366 . S
C1376 C1377 1.414 . S
C1376 C1379 1.499 . S
C1377 H1351 0.950 . S
C1377 C1376 1.414 . S
C1377 C1378 1.374 . S
C1378 H1352 0.950 . S
C1378 C1374 1.385 . S
C1378 C1377 1.374 . S
C1379 C1376 1.499 . S
C1379 C1380 1.373 . S
C1379 C1381 1.389 . S
C1380 H1353 0.950 . S
C1380 C1366 1.377 . S
C1380 C1379 1.373 . S
C1381 C1365 1.377 . S
C1381 C1379 1.389 . S
C1381 C1382 1.524 . S
C1382 C1381 1.524 . S
C1382 C1383 1.397 . S
C1382 C1387 1.363 . S
C1383 H1354 0.950 . S
C1383 C1382 1.397 . S
C1383 C1384 1.334 . S
C1384 H1355 0.950 . S
C1384 C1383 1.334 . S
C1384 C1385 1.287 . S
C1385 C1384 1.287 . S
C1385 C1386 1.524 . S
C1385 H1388 0.999 . S
C1386 H1356 0.950 . S
C1386 C1385 1.524 . S
C1386 C1387 1.415 . S
C1387 H1357 0.950 . S
C1387 C1382 1.363 . S
C1387 C1386 1.415 . S
H1388 C1385 0.999 . S
H1389 C1370 0.913 . S
H1390 C1408 0.951 . S
H1391 C1410 0.951 . S
H1392 C1412 0.950 . S
H1393 C1413 0.950 . S
H1394 C1415 0.950 . S
H1395 C1418 0.950 . S
H1396 C1419 0.950 . S
H1397 C1421 0.950 . S
H1398 C1422 0.950 . S
H1399 C1423 0.951 . S
H1400 C1425 0.951 . S
H1401 C1427 0.950 . S
H1402 C1428 0.950 . S
H1403 C1430 0.950 . S
H1404 C1433 0.950 . S
H1405 C1434 0.950 . S
H1406 C1436 0.950 . S
H1407 C1437 0.950 . S
C1408 H1390 0.951 . S
C1408 C1409 1.366 . S
C1408 C1410 1.388 . S
C1409 C1408 1.366 . S
C1409 C1413 1.385 . S
C1410 H1391 0.951 . S
C1410 C1408 1.388 . S
C1410 C1411 1.366 . S
C1411 C1410 1.366 . S
C1411 C1412 1.414 . S
C1411 C1414 1.499 . S
C1412 H1392 0.950 . S
C1412 C1411 1.414 . S
C1412 C1413 1.374 . S
C1413 H1393 0.950 . S
C1413 C1409 1.385 . S
C1413 C1412 1.374 . S
C1414 C1411 1.499 . S
C1414 C1415 1.373 . S
C1414 C1416 1.389 . S
C1415 H1394 0.950 . S
C1415 C1414 1.373 . S
C1415 C1431 1.377 . S
C1416 C1414 1.389 . S
C1416 C1417 1.524 . S
C1416 C1430 1.377 . S
C1417 C1416 1.524 . S
C1417 C1418 1.397 . S
C1417 C1422 1.363 . S
C1418 H1395 0.950 . S
C1418 C1417 1.397 . S
C1418 C1419 1.334 . S
C1419 H1396 0.950 . S
C1419 C1418 1.334 . S
C1419 C1420 1.287 . S
C1420 C1419 1.287 . S
C1420 C1421 1.524 . S
C1420 H1439 0.913 . S
C1421 H1397 0.950 . S
C1421 C1420 1.524 . S
C1421 C1422 1.415 . S
C1422 H1398 0.950 . S
C1422 C1417 1.363 . S
C1422 C1421 1.415 . S
C1423 H1399 0.951 . S
C1423 C1424 1.366 . S
C1423 C1425 1.388 . S
C1424 C1423 1.366 . S
C1424 C1428 1.385 . S
C1425 H1400 0.951 . S
C1425 C1423 1.388 . S
C1425 C1426 1.366 . S
C1426 C1425 1.366 . S
C1426 C1427 1.414 . S
C1426 C1429 1.499 . S
C1427 H1401 0.950 . S
C1427 C1426 1.414 . S
C1427 C1428 1.374 . S
C1428 H1402 0.950 . S
C1428 C1424 1.385 . S
C1428 C1427 1.374 . S
C1429 C1426 1.499 . S
C1429 C1430 1.373 . S
C1429 C1431 1.389 . S
C1430 H1403 0.950 . S
C1430 C1416 1.377 . S
C1430 C1429 1.373 . S
C1431 C1415 1.377 . S
C1431 C1429 1.389 . S
C1431 C1432 1.524 . S
C1432 C1431 1.524 . S
C1432 C1433 1.397 . S
C1432 C1437 1.363 . S
C1433 H1404 0.950 . S
C1433 C1432 1.397 . S
C1433 C1434 1.334 . S
C1434 H1405 0.950 . S
C1434 C1433 1.334 . S
C1434 C1435 1.287 . S
C1435 C1434 1.287 . S
C1435 C1436 1.524 . S
C1435 H1438 0.999 . S
C1436 H1406 0.950 . S
C1436 C1435 1.524 . S
C1436 C1437 1.415 . S
C1437 H1407 0.950 . S
C1437 C1432 1.363 . S
C1437 C1436 1.415 . S
H1438 C1435 0.999 . S
H1439 C1420 0.913 . S
C259 C11 1.483 . S
C274 C195 1.567 . S
C324 C159 1.567 . S
C309 C30 1.485 . S
C374 C182 1.568 . S
C359 C49 1.400 . S
C424 C170 1.568 . S
C409 C68 1.399 . S
C474 C239 1.566 . S
C459 C87 1.484 . S
C524 C203 1.566 . S
C509 C106 1.485 . S
C559 C125 1.400 . S
C574 C226 1.569 . S
C624 C214 1.568 . S
C609 C144 1.398 . S
C659 C2 1.553 1_556 S
C674 C236 1.598 . S
C724 C206 1.598 . S
C709 C21 1.552 . S
C759 C40 1.585 1_556 S
C774 C225 1.624 . S
C809 C59 1.584 . S
C824 C211 1.624 . S
C874 C192 1.597 . S
C859 C78 1.553 1_556 S
C909 C97 1.553 . S
C924 C162 1.597 . S
C974 C181 1.624 . S
C959 C116 1.584 1_556 S
C1024 C167 1.624 . S
C1009 C135 1.584 . S
C1074 C217 1.582 . S
C1059 C6 1.584 . S
C1124 C233 1.582 . S
C1109 C25 1.584 . S
C1159 C44 1.534 . S
C1174 C204 1.544 . S
C1224 C228 1.544 . S
C1209 C63 1.534 . S
C1274 C173 1.581 . S
C1259 C82 1.584 . S
C1309 C101 1.584 . S
C1324 C189 1.582 . S
C1359 C120 1.534 . S
C1374 C160 1.545 . S
C1409 C139 1.535 . S
C1424 C184 1.545 . S
