# Generated by pormake.
# Topology hwx, (6,3)-cn, num edge types: 1
# Building blocks:
#     Node 0, Type 0, BuildingBlock: IZENUY_clean_sbu_0, # of connection points: 6
#     Node 1, Type 0, BuildingBlock: IZENUY_clean_sbu_0, # of connection points: 6
#     Node 2, Type 0, BuildingBlock: IZENUY_clean_sbu_0, # of connection points: 6
#     Node 3, Type 0, BuildingBlock: IZENUY_clean_sbu_0, # of connection points: 6
#     Node 4, Type 1, BuildingBlock: VETTIZ_charged_linker_0, # of connection points: 3
#     Node 5, Type 1, BuildingBlock: VETTIZ_charged_linker_0, # of connection points: 3
#     Node 6, Type 1, BuildingBlock: VETTIZ_charged_linker_0, # of connection points: 3
#     Node 7, Type 1, BuildingBlock: VETTIZ_charged_linker_0, # of connection points: 3
#     Node 8, Type 1, BuildingBlock: VETTIZ_charged_linker_0, # of connection points: 3
#     Node 9, Type 1, BuildingBlock: VETTIZ_charged_linker_0, # of connection points: 3
#     Node 10, Type 1, BuildingBlock: VETTIZ_charged_linker_0, # of connection points: 3
#     Node 11, Type 1, BuildingBlock: VETTIZ_charged_linker_0, # of connection points: 3
#     Edge 12, Type (0, 1), BuildingBlock: CIFDUS_clean_linker_0, # of connection points: 2
#     Edge 13, Type (0, 1), BuildingBlock: CIFDUS_clean_linker_0, # of connection points: 2
#     Edge 14, Type (0, 1), BuildingBlock: CIFDUS_clean_linker_0, # of connection points: 2
#     Edge 15, Type (0, 1), BuildingBlock: CIFDUS_clean_linker_0, # of connection points: 2
#     Edge 16, Type (0, 1), BuildingBlock: CIFDUS_clean_linker_0, # of connection points: 2
#     Edge 17, Type (0, 1), BuildingBlock: CIFDUS_clean_linker_0, # of connection points: 2
#     Edge 18, Type (0, 1), BuildingBlock: CIFDUS_clean_linker_0, # of connection points: 2
#     Edge 19, Type (0, 1), BuildingBlock: CIFDUS_clean_linker_0, # of connection points: 2
#     Edge 20, Type (0, 1), BuildingBlock: CIFDUS_clean_linker_0, # of connection points: 2
#     Edge 21, Type (0, 1), BuildingBlock: CIFDUS_clean_linker_0, # of connection points: 2
#     Edge 22, Type (0, 1), BuildingBlock: CIFDUS_clean_linker_0, # of connection points: 2
#     Edge 23, Type (0, 1), BuildingBlock: CIFDUS_clean_linker_0, # of connection points: 2
#     Edge 24, Type (0, 1), BuildingBlock: CIFDUS_clean_linker_0, # of connection points: 2
#     Edge 25, Type (0, 1), BuildingBlock: CIFDUS_clean_linker_0, # of connection points: 2
#     Edge 26, Type (0, 1), BuildingBlock: CIFDUS_clean_linker_0, # of connection points: 2
#     Edge 27, Type (0, 1), BuildingBlock: CIFDUS_clean_linker_0, # of connection points: 2
#     Edge 28, Type (0, 1), BuildingBlock: CIFDUS_clean_linker_0, # of connection points: 2
#     Edge 29, Type (0, 1), BuildingBlock: CIFDUS_clean_linker_0, # of connection points: 2
#     Edge 30, Type (0, 1), BuildingBlock: CIFDUS_clean_linker_0, # of connection points: 2
#     Edge 31, Type (0, 1), BuildingBlock: CIFDUS_clean_linker_0, # of connection points: 2
#     Edge 32, Type (0, 1), BuildingBlock: CIFDUS_clean_linker_0, # of connection points: 2
#     Edge 33, Type (0, 1), BuildingBlock: CIFDUS_clean_linker_0, # of connection points: 2
#     Edge 34, Type (0, 1), BuildingBlock: CIFDUS_clean_linker_0, # of connection points: 2
#     Edge 35, Type (0, 1), BuildingBlock: CIFDUS_clean_linker_0, # of connection points: 2
# Relax obj value: 0.054
# Max RMSD: 0.078
# Mean RMSD: 0.070
data_MOF--net-hwx--node1-IZENUY_clean_sbu_0--node2-VETTIZ_charged_linker_0--edge1-CIFDUS_clean_linker_0
_symmetry_space_group_name_H-M    P1
_symmetry_Int_Tables_number       1
_symmetry_cell_setting            triclinic
loop_
_symmetry_equiv_pos_as_xyz
'x, y, z'
_cell_length_a     51.619642
_cell_length_b     51.684172
_cell_length_c     25.276516
_cell_angle_alpha  90.205765
_cell_angle_beta   89.928395
_cell_angle_gamma 89.993491
loop_
_atom_site_label
_atom_site_type_symbol
_atom_site_fract_x
_atom_site_fract_y
_atom_site_fract_z
_atom_type_partial_charge
Fe0 Fe 0.24561 0.22796 0.0635 0.0
Fe1 Fe 0.23968 0.22482 0.94339 0.0
O2 O 0.23428 0.21135 0.00676 0.0
Fe3 Fe 0.21752 0.1815 0.01342 0.0
O4 O 0.19238 0.1963 0.05407 0.0
O5 O 0.21919 0.21731 0.10623 0.0
O6 O 0.22599 0.25594 0.04875 0.0
C7 C 0.22736 0.26861 0.00646 0.0
C8 C 0.25703 0.17868 0.09205 0.0
O9 O 0.23769 0.25878 0.96555 0.0
C10 C 0.24797 0.17121 0.92718 0.0
O11 O 0.27428 0.24177 0.03104 0.0
O12 O 0.27448 0.22384 0.95226 0.0
O13 O 0.23574 0.17115 0.07235 0.0
O14 O 0.26572 0.20097 0.08258 0.0
C15 C 0.19 0.20734 0.93192 0.0
O16 O 0.24276 0.19353 0.90974 0.0
O17 O 0.24132 0.16449 0.97321 0.0
C18 C 0.28635 0.23452 0.98997 0.0
O19 O 0.20523 0.22643 0.93036 0.0
O20 O 0.19625 0.1868 0.95608 0.0
C21 C 0.19672 0.20906 0.09579 0.0
Fe22 Fe 0.25481 0.71852 0.56893 0.0
Fe23 Fe 0.28598 0.67656 0.51094 0.0
O24 O 0.26495 0.70381 0.50908 0.0
Fe25 Fe 0.25373 0.71656 0.44834 0.0
O26 O 0.25388 0.75046 0.47171 0.0
O27 O 0.2707 0.74844 0.5516 0.0
O28 O 0.28369 0.71004 0.60623 0.0
C29 C 0.30652 0.70545 0.59121 0.0
C30 C 0.20968 0.72173 0.5071 0.0
O31 O 0.31071 0.69425 0.54768 0.0
C32 C 0.25254 0.66211 0.43152 0.0
O33 O 0.23852 0.68924 0.58878 0.0
O34 O 0.27142 0.66328 0.57183 0.0
O35 O 0.21996 0.71179 0.46668 0.0
O36 O 0.2237 0.73014 0.54417 0.0
C37 C 0.3044 0.70568 0.42283 0.0
O38 O 0.26334 0.65653 0.47465 0.0
O39 O 0.25189 0.68514 0.41462 0.0
C40 C 0.24947 0.66752 0.5931 0.0
O41 O 0.30365 0.68514 0.45013 0.0
O42 O 0.28637 0.72211 0.42509 0.0
C43 C 0.26573 0.76104 0.5102 0.0
Fe44 Fe 0.7577 0.78841 0.95111 0.0
Fe45 Fe 0.75893 0.79362 0.07151 0.0
O46 O 0.7663 0.80614 0.00837 0.0
Fe47 Fe 0.78238 0.83629 0.00274 0.0
O48 O 0.76625 0.84547 0.94083 0.0
O49 O 0.73763 0.81466 0.92754 0.0
O50 O 0.72819 0.77452 0.98026 0.0
C51 C 0.71447 0.7817 0.01929 0.0
C52 C 0.80739 0.80821 0.92622 0.0
O53 O 0.72446 0.79387 0.05755 0.0
C54 C 0.80762 0.81202 0.08851 0.0
O55 O 0.77717 0.76083 0.97097 0.0
O56 O 0.76189 0.75947 0.05188 0.0
O57 O 0.80935 0.82159 0.96781 0.0
O58 O 0.78566 0.79917 0.91193 0.0
C59 C 0.74971 0.8475 0.08402 0.0
O60 O 0.79292 0.79254 0.08866 0.0
O61 O 0.80142 0.83237 0.06373 0.0
C62 C 0.77388 0.74886 0.01382 0.0
O63 O 0.75474 0.82543 0.10312 0.0
O64 O 0.75651 0.8531 0.03755 0.0
C65 C 0.74529 0.83755 0.92035 0.0
Fe66 Fe 0.7198 0.34027 0.47152 0.0
Fe67 Fe 0.73883 0.29668 0.54416 0.0
O68 O 0.73522 0.30987 0.48009 0.0
Fe69 Fe 0.74694 0.29275 0.42419 0.0
O70 O 0.76858 0.319 0.40723 0.0
O71 O 0.73921 0.34955 0.41353 0.0
O72 O 0.74368 0.35654 0.5118 0.0
C73 C 0.74927 0.35036 0.55859 0.0
C74 C 0.69915 0.31326 0.38902 0.0
O75 O 0.74331 0.3283 0.57693 0.0
C76 C 0.7262 0.25288 0.48025 0.0
O77 O 0.69775 0.33676 0.52803 0.0
O78 O 0.7041 0.29693 0.55495 0.0
O79 O 0.7216 0.30449 0.37941 0.0
O80 O 0.69474 0.32594 0.43075 0.0
C81 C 0.78562 0.28355 0.50136 0.0
O82 O 0.73507 0.26276 0.52254 0.0
O83 O 0.72633 0.26529 0.43744 0.0
C84 C 0.68996 0.31674 0.55186 0.0
O85 O 0.77387 0.29539 0.53784 0.0
O86 O 0.77421 0.27769 0.45873 0.0
C87 C 0.76124 0.3418 0.398 0.0
C88 C 0.1833 0.56446 0.8296 0.0
C89 C 0.182 0.5916 0.82763 0.0
C90 C 0.17751 0.60561 0.87468 0.0
C91 C 0.17909 0.56594 0.92515 0.0
C92 C 0.18173 0.55207 0.87865 0.0
C93 C 0.1842 0.52349 0.88827 0.0
H94 H 0.20625 0.42555 0.05779 0.0
C95 C 0.18121 0.54763 0.96961 0.0
C96 C 0.18384 0.52269 0.94839 0.0
H97 H 0.19425 0.42203 0.88845 0.0
H98 H 0.18552 0.46762 0.8868 0.0
H99 H 0.2382 0.47963 0.06001 0.0
H100 H 0.15646 0.46448 0.0801 0.0
H101 H 0.16615 0.48767 0.12721 0.0
H102 H 0.17987 0.45558 0.1293 0.0
H103 H 0.22559 0.46252 0.11616 0.0
H104 H 0.22657 0.4973 0.1148 0.0
C105 C 0.21058 0.51447 0.8653 0.0
C106 C 0.16026 0.5098 0.86379 0.0
C107 C 0.18945 0.58335 0.15531 0.0
C108 C 0.19442 0.57222 0.2049 0.0
C109 C 0.19639 0.54502 0.20836 0.0
C110 C 0.1939 0.52935 0.16299 0.0
C111 C 0.18953 0.54099 0.11353 0.0
C112 C 0.18704 0.56756 0.11069 0.0
C113 C 0.18293 0.57694 0.05528 0.0
C114 C 0.18326 0.55164 0.02496 0.0
C115 C 0.18733 0.53056 0.05898 0.0
C116 C 0.20618 0.59458 0.04055 0.0
C117 C 0.15607 0.59033 0.05257 0.0
C118 C 0.20152 0.4346 0.02045 0.0
C119 C 0.20149 0.42017 0.97298 0.0
C120 C 0.19514 0.43274 0.92533 0.0
C121 C 0.1899 0.45924 0.92444 0.0
C122 C 0.19106 0.47356 0.97162 0.0
C123 C 0.19615 0.46121 0.01885 0.0
C124 C 0.19563 0.47973 0.06513 0.0
C125 C 0.18966 0.50516 0.03755 0.0
C126 C 0.18745 0.50133 0.98267 0.0
C127 C 0.22281 0.47983 0.09088 0.0
C128 C 0.17353 0.47149 0.10287 0.0
H129 H 0.17338 0.60474 0.95791 0.0
H130 H 0.18632 0.55321 0.79388 0.0
H131 H 0.14357 0.52326 0.85958 0.0
H132 H 0.15286 0.49399 0.88916 0.0
H133 H 0.16469 0.50193 0.82384 0.0
H134 H 0.22613 0.52852 0.87561 0.0
H135 H 0.20974 0.51298 0.82149 0.0
H136 H 0.21716 0.49575 0.88106 0.0
H137 H 0.18838 0.60415 0.15064 0.0
H138 H 0.19997 0.53586 0.24611 0.0
H139 H 0.19579 0.50883 0.16802 0.0
H140 H 0.22447 0.58714 0.05809 0.0
H141 H 0.20324 0.6146 0.05553 0.0
H142 H 0.21007 0.59536 0.9977 0.0
H143 H 0.14221 0.58153 0.08107 0.0
H144 H 0.14666 0.58801 0.01354 0.0
H145 H 0.15755 0.61125 0.06227 0.0
H146 H 0.17654 0.62654 0.87421 0.0
C147 C 0.17596 0.59292 0.92336 0.0
C148 C 0.04349 0.75118 0.51566 0.0
C149 C 0.05872 0.74937 0.46943 0.0
C150 C 0.04864 0.75891 0.42151 0.0
C151 C 0.00941 0.7725 0.46621 0.0
C152 C 0.01901 0.76287 0.51317 0.0
C153 C 0.00051 0.7671 0.55862 0.0
H154 H 0.88238 0.80876 0.64103 0.0
C155 C 0.98403 0.78445 0.47716 0.0
C156 C 0.9787 0.78162 0.53137 0.0
H157 H 0.9405 0.77019 0.73446 0.0
H158 H 0.97027 0.77085 0.65968 0.0
H159 H 0.91944 0.84903 0.58944 0.0
H160 H 0.89059 0.7758 0.53444 0.0
H161 H 0.88673 0.79865 0.48356 0.0
H162 H 0.8709 0.80395 0.54578 0.0
H163 H 0.88867 0.84651 0.55708 0.0
H164 H 0.91825 0.85174 0.52024 0.0
C165 C 0.01412 0.78397 0.60096 0.0
C166 C 0.9917 0.74025 0.57874 0.0
C167 C 0.93014 0.81948 0.32549 0.0
C168 C 0.90593 0.83184 0.32397 0.0
C169 C 0.89389 0.83931 0.37162 0.0
C170 C 0.90498 0.83298 0.42033 0.0
C171 C 0.92831 0.81901 0.42134 0.0
C172 C 0.94111 0.81354 0.3746 0.0
C173 C 0.96653 0.80008 0.38382 0.0
C174 C 0.9661 0.79715 0.44364 0.0
C175 C 0.94342 0.80777 0.46508 0.0
C176 C 0.98862 0.81824 0.36502 0.0
C177 C 0.96568 0.77351 0.35528 0.0
C178 C 0.90157 0.80052 0.64524 0.0
C179 C 0.90914 0.78906 0.69288 0.0
C180 C 0.93435 0.77896 0.6977 0.0
C181 C 0.95143 0.77922 0.65423 0.0
C182 C 0.94311 0.7898 0.60582 0.0
C183 C 0.91873 0.80076 0.60256 0.0
C184 C 0.91296 0.81144 0.54879 0.0
C185 C 0.93757 0.80437 0.51941 0.0
C186 C 0.95516 0.79153 0.55267 0.0
C187 C 0.90946 0.84118 0.55383 0.0
C188 C 0.88899 0.79692 0.5267 0.0
H189 H 0.01775 0.77749 0.38209 0.0
H190 H 0.05055 0.74387 0.55306 0.0
H191 H 0.98842 0.72675 0.54501 0.0
H192 H 0.97311 0.74086 0.60021 0.0
H193 H 0.00664 0.73151 0.60475 0.0
H194 H 0.02616 0.7992 0.58197 0.0
H195 H 0.02705 0.77209 0.62621 0.0
H196 H 0.00032 0.79455 0.62649 0.0
H197 H 0.9399 0.81389 0.28924 0.0
H198 H 0.87517 0.8488 0.37118 0.0
H199 H 0.89446 0.83835 0.45526 0.0
H200 H 0.9825 0.83888 0.36543 0.0
H201 H 0.9948 0.81348 0.32402 0.0
H202 H 0.0057 0.81763 0.39145 0.0
H203 H 0.94654 0.76406 0.36124 0.0
H204 H 0.98008 0.75963 0.37046 0.0
H205 H 0.96872 0.77577 0.31202 0.0
H206 H 0.06003 0.7582 0.38553 0.0
C207 C 0.02415 0.77043 0.41969 0.0
C208 C 0.81314 0.46136 0.16365 0.0
C209 C 0.81066 0.43445 0.17045 0.0
C210 C 0.81333 0.41807 0.12606 0.0
C211 C 0.81798 0.45522 0.06889 0.0
C212 C 0.81687 0.47129 0.11261 0.0
C213 C 0.81879 0.49941 0.09764 0.0
H214 H 0.8102 0.59093 0.90886 0.0
C215 C 0.81922 0.47155 0.02119 0.0
C216 C 0.82006 0.49746 0.03755 0.0
H217 H 0.82291 0.60105 0.07698 0.0
H218 H 0.82644 0.55506 0.08768 0.0
H219 H 0.85605 0.54705 0.89715 0.0
H220 H 0.77307 0.54016 0.91409 0.0
H221 H 0.78387 0.52013 0.86186 0.0
H222 H 0.78819 0.55453 0.85726 0.0
H223 H 0.83444 0.55404 0.84348 0.0
H224 H 0.84549 0.52152 0.85648 0.0
C225 C 0.8441 0.51062 0.12152 0.0
C226 C 0.79378 0.51313 0.11677 0.0
C227 C 0.80911 0.42884 0.84202 0.0
C228 C 0.80739 0.43813 0.78996 0.0
C229 C 0.80973 0.46505 0.78144 0.0
C230 C 0.8132 0.48227 0.82411 0.0
C231 C 0.81437 0.47253 0.87595 0.0
C232 C 0.81276 0.44615 0.88387 0.0
C233 C 0.81447 0.43892 0.94113 0.0
C234 C 0.81744 0.46531 0.96665 0.0
C235 C 0.81706 0.48504 0.92855 0.0
C236 C 0.83895 0.42193 0.94889 0.0
C237 C 0.78858 0.42567 0.95671 0.0
C238 C 0.81397 0.58329 0.94792 0.0
C239 C 0.8154 0.59981 0.99238 0.0
C240 C 0.82069 0.58888 0.04232 0.0
C241 C 0.8229 0.56211 0.04854 0.0
C242 C 0.8199 0.54586 0.00446 0.0
C243 C 0.81648 0.55645 0.95486 0.0
C244 C 0.81545 0.53593 0.91231 0.0
C245 C 0.81798 0.51139 0.94499 0.0
C246 C 0.82006 0.51745 0.9991 0.0
C247 C 0.83892 0.53978 0.87495 0.0
C248 C 0.78884 0.53771 0.88446 0.0
H249 H 0.81822 0.41476 0.04335 0.0
H250 H 0.81159 0.47441 0.19713 0.0
H251 H 0.7764 0.50155 0.10591 0.0
H252 H 0.79086 0.53231 0.09891 0.0
H253 H 0.79384 0.51553 0.16047 0.0
H254 H 0.8585 0.49517 0.13008 0.0
H255 H 0.84027 0.52107 0.15919 0.0
H256 H 0.85419 0.52378 0.09377 0.0
H257 H 0.8069 0.40845 0.85064 0.0
H258 H 0.80886 0.47285 0.74178 0.0
H259 H 0.81459 0.5025 0.81518 0.0
H260 H 0.8543 0.42689 0.91967 0.0
H261 H 0.83441 0.40106 0.94388 0.0
H262 H 0.84821 0.425 0.98786 0.0
H263 H 0.77193 0.43488 0.93612 0.0
H264 H 0.78389 0.42746 0.99913 0.0
H265 H 0.78869 0.40485 0.94571 0.0
H266 H 0.81127 0.39731 0.12996 0.0
C267 C 0.81708 0.42828 0.07553 0.0
C268 C 0.06876 0.19596 0.33427 0.0
C269 C 0.09588 0.19467 0.33025 0.0
C270 C 0.11091 0.19403 0.37668 0.0
C271 C 0.07227 0.19829 0.43008 0.0
C272 C 0.0574 0.1979 0.38462 0.0
C273 C 0.02903 0.20136 0.39655 0.0
H274 H 0.93418 0.22688 0.57442 0.0
C275 C 0.05486 0.20238 0.47568 0.0
C276 C 0.02947 0.20403 0.45652 0.0
H277 H 0.92785 0.21666 0.40489 0.0
H278 H 0.97326 0.20723 0.39921 0.0
H279 H 0.97287 0.17867 0.59381 0.0
H280 H 0.98876 0.25988 0.5707 0.0
H281 H 0.00645 0.24853 0.62554 0.0
H282 H 0.97166 0.24773 0.62737 0.0
H283 H 0.96684 0.20217 0.64483 0.0
H284 H 0.99834 0.18751 0.63626 0.0
C285 C 0.01464 0.17654 0.37857 0.0
C286 C 0.01979 0.22654 0.36917 0.0
C287 C 0.09381 0.21479 0.65764 0.0
C288 C 0.08319 0.219 0.70794 0.0
C289 C 0.05609 0.21946 0.71421 0.0
C290 C 0.03974 0.2166 0.67008 0.0
C291 C 0.05071 0.21304 0.6195 0.0
C292 C 0.07734 0.21162 0.61435 0.0
C293 C 0.0858 0.20662 0.55848 0.0
C294 C 0.05991 0.20575 0.53041 0.0
C295 C 0.03939 0.20988 0.56602 0.0
C296 C 0.09986 0.18008 0.55662 0.0
C297 C 0.10253 0.22992 0.54041 0.0
C298 C 0.94265 0.22274 0.5361 0.0
C299 C 0.92729 0.22247 0.49009 0.0
C300 C 0.93906 0.21661 0.4411 0.0
C301 C 0.96556 0.21134 0.43774 0.0
C302 C 0.98072 0.21214 0.48373 0.0
C303 C 0.96926 0.21751 0.53198 0.0
C304 C 0.98864 0.21742 0.57653 0.0
C305 C 0.01358 0.21154 0.54675 0.0
C306 C 0.00872 0.20855 0.49235 0.0
C307 C 0.98135 0.19547 0.61533 0.0
C308 C 0.98895 0.24472 0.60185 0.0
H309 H 0.11188 0.19557 0.46013 0.0
H310 H 0.05682 0.19663 0.2991 0.0
H311 H 0.03543 0.24135 0.36884 0.0
H312 H 0.00353 0.23604 0.38993 0.0
H313 H 0.01414 0.2228 0.32746 0.0
H314 H 0.02679 0.15906 0.38519 0.0
H315 H 0.0099 0.17728 0.33575 0.0
H316 H 0.99672 0.17294 0.40133 0.0
H317 H 0.11462 0.21391 0.65216 0.0
H318 H 0.04766 0.2225 0.753 0.0
H319 H 0.01923 0.21746 0.6769 0.0
H320 H 0.09247 0.16683 0.5878 0.0
H321 H 0.12103 0.18234 0.5629 0.0
H322 H 0.09651 0.1695 0.51913 0.0
H323 H 0.09467 0.24839 0.55655 0.0
H324 H 0.10271 0.23262 0.49715 0.0
H325 H 0.12281 0.228 0.55452 0.0
H326 H 0.13183 0.19274 0.3743 0.0
C327 C 0.09927 0.19569 0.42647 0.0
C328 C 0.69841 0.96187 0.69159 0.0
C329 C 0.69931 0.93475 0.69673 0.0
C330 C 0.69519 0.91923 0.65152 0.0
C331 C 0.69255 0.9574 0.59675 0.0
C332 C 0.69495 0.97274 0.6413 0.0
C333 C 0.69495 0.00111 0.62789 0.0
H334 H 0.69528 0.09513 0.44207 0.0
C335 C 0.69247 0.97442 0.55 0.0
C336 C 0.69354 1.00007 0.56777 0.0
H337 H 0.69525 0.10302 0.61293 0.0
H338 H 0.69384 0.05706 0.62198 0.0
H339 H 0.73841 0.05069 0.44376 0.0
H340 H 0.65517 0.04458 0.43087 0.0
H341 H 0.67066 0.02601 0.38096 0.0
H342 H 0.67508 0.06049 0.38248 0.0
H343 H 0.72191 0.05747 0.38292 0.0
H344 H 0.73128 0.02497 0.40069 0.0
C345 C 0.72085 0.01295 0.64738 0.0
C346 C 0.67039 0.01352 0.65259 0.0
C347 C 0.70279 0.93322 0.37017 0.0
C348 C 0.71013 0.9428 0.3205 0.0
C349 C 0.70972 0.96981 0.31231 0.0
C350 C 0.70382 0.9869 0.35429 0.0
C351 C 0.69864 0.97683 0.40497 0.0
C352 C 0.69788 0.95033 0.41172 0.0
C353 C 0.69465 0.94259 0.4684 0.0
C354 C 0.69384 0.96879 0.49516 0.0
C355 C 0.69575 0.98892 0.45807 0.0
C356 C 0.71881 0.92649 0.48484 0.0
C357 C 0.66845 0.92818 0.47378 0.0
C358 C 0.69506 0.08707 0.48151 0.0
C359 C 0.69487 0.10323 0.52677 0.0
C360 C 0.69452 0.09148 0.57715 0.0
C361 C 0.69401 0.06458 0.58252 0.0
C362 C 0.69441 0.04888 0.53719 0.0
C363 C 0.69506 0.06007 0.48766 0.0
C364 C 0.69695 0.04002 0.44421 0.0
C365 C 0.6958 0.01508 0.47592 0.0
C366 C 0.69455 0.02052 0.53043 0.0
C367 C 0.72337 0.04341 0.41593 0.0
C368 C 0.6733 0.04287 0.40729 0.0
H369 H 0.6894 0.91745 0.5689 0.0
H370 H 0.70107 0.97435 0.72566 0.0
H371 H 0.65424 0.9993 0.65511 0.0
H372 H 0.66253 0.02948 0.62845 0.0
H373 H 0.67423 0.0207 0.69329 0.0
H374 H 0.73718 0.99931 0.6403 0.0
H375 H 0.72013 0.01716 0.69048 0.0
H376 H 0.72632 0.03077 0.62622 0.0
H377 H 0.70239 0.91259 0.3777 0.0
H378 H 0.71516 0.97774 0.27428 0.0
H379 H 0.70437 0.00728 0.34623 0.0
H380 H 0.73609 0.93156 0.46062 0.0
H381 H 0.71532 0.90543 0.47976 0.0
H382 H 0.72509 0.93026 0.52589 0.0
H383 H 0.65352 0.93692 0.44761 0.0
H384 H 0.66018 0.92951 0.51406 0.0
H385 H 0.67042 0.90749 0.46246 0.0
H386 H 0.69602 0.89833 0.65397 0.0
C387 C 0.69164 0.93039 0.60181 0.0
C388 C 0.58667 0.29445 0.13221 0.0
C389 C 0.61364 0.29811 0.12889 0.0
C390 C 0.62499 0.30318 0.07932 0.0
C391 C 0.58329 0.29895 0.03686 0.0
C392 C 0.5719 0.29483 0.08562 0.0
C393 C 0.54317 0.29015 0.08093 0.0
H394 H 0.43773 0.27574 0.9237 0.0
C395 C 0.56312 0.29648 0.99596 0.0
C396 C 0.53952 0.29132 0.02125 0.0
H397 H 0.44134 0.27372 0.09471 0.0
H398 H 0.4873 0.28137 0.09155 0.0
H399 H 0.47862 0.324 0.90633 0.0
H400 H 0.48742 0.24103 0.90598 0.0
H401 H 0.50886 0.2533 0.85835 0.0
H402 H 0.4744 0.25788 0.85007 0.0
H403 H 0.46385 0.30308 0.85811 0.0
H404 H 0.49654 0.31436 0.85005 0.0
C405 C 0.52892 0.31252 0.10975 0.0
C406 C 0.5372 0.26289 0.10311 0.0
C407 C 0.58934 0.30236 0.80365 0.0
C408 C 0.57635 0.2974 0.75613 0.0
C409 C 0.54988 0.29092 0.7571 0.0
C410 C 0.53645 0.28962 0.80548 0.0
C411 C 0.54987 0.29433 0.85307 0.0
C412 C 0.57594 0.30038 0.85137 0.0
C413 C 0.58781 0.30263 0.90527 0.0
C414 C 0.56451 0.29734 0.94001 0.0
C415 C 0.54226 0.29284 0.90948 0.0
C416 C 0.59782 0.33071 0.91223 0.0
C417 C 0.60894 0.28136 0.91049 0.0
C418 C 0.44842 0.27675 0.96049 0.0
C419 C 0.43572 0.27429 0.00953 0.0
C420 C 0.45046 0.27601 0.0564 0.0
C421 C 0.47723 0.2803 0.05453 0.0
C422 C 0.48957 0.28276 0.00527 0.0
C423 C 0.47521 0.28091 0.95929 0.0
C424 C 0.49172 0.28356 0.9105 0.0
C425 C 0.5182 0.28806 0.93488 0.0
C426 C 0.51683 0.28744 0.99044 0.0
C427 C 0.48224 0.3074 0.87915 0.0
C428 C 0.49053 0.25776 0.87912 0.0
H429 H 0.61993 0.30743 0.99702 0.0
H430 H 0.57745 0.29058 0.16987 0.0
H431 H 0.5527 0.24896 0.09185 0.0
H432 H 0.51917 0.25448 0.08715 0.0
H433 H 0.53598 0.26327 0.14699 0.0
H434 H 0.53975 0.33102 0.1057 0.0
H435 H 0.52687 0.30846 0.15268 0.0
H436 H 0.50962 0.31658 0.0929 0.0
H437 H 0.60988 0.30673 0.80377 0.0
H438 H 0.53971 0.28683 0.72056 0.0
H439 H 0.51627 0.28466 0.80409 0.0
H440 H 0.58425 0.34478 0.89381 0.0
H441 H 0.61704 0.33323 0.89313 0.0
H442 H 0.59915 0.33677 0.95409 0.0
H443 H 0.605 0.26461 0.8839 0.0
H444 H 0.60968 0.27277 0.95046 0.0
H445 H 0.62841 0.28896 0.9001 0.0
H446 H 0.64564 0.3066 0.076 0.0
C447 C 0.61 0.3037 0.03345 0.0
C448 C 0.292 0.06048 0.33499 0.0
C449 C 0.29583 0.08747 0.33313 0.0
C450 C 0.30107 0.10069 0.38107 0.0
C451 C 0.29551 0.06108 0.43074 0.0
C452 C 0.29239 0.04776 0.38378 0.0
C453 C 0.28953 0.01914 0.39219 0.0
H454 H 0.27416 0.91857 0.55885 0.0
C455 C 0.29323 0.04238 0.47456 0.0
C456 C 0.29037 0.01768 0.45216 0.0
H457 H 0.28103 0.91717 0.3882 0.0
H458 H 0.28691 0.96328 0.38734 0.0
H459 H 0.3212 0.95819 0.57883 0.0
H460 H 0.23892 0.97076 0.56495 0.0
H461 H 0.25035 0.98895 0.61898 0.0
H462 H 0.2532 0.95425 0.62008 0.0
H463 H 0.29904 0.9495 0.63059 0.0
H464 H 0.31241 0.98169 0.62596 0.0
C465 C 0.31306 0.00535 0.36614 0.0
C466 C 0.26284 0.01073 0.37003 0.0
C467 C 0.28319 0.07505 0.66322 0.0
C468 C 0.27909 0.06264 0.71209 0.0
C469 C 0.27921 0.03533 0.71333 0.0
C470 C 0.28243 0.02076 0.6668 0.0
C471 C 0.28561 0.03354 0.61822 0.0
C472 C 0.28655 0.06024 0.61722 0.0
C473 C 0.29099 0.07059 0.56237 0.0
C474 C 0.29153 0.04569 0.53029 0.0
C475 C 0.28816 0.02405 0.56314 0.0
C476 C 0.31748 0.08475 0.56128 0.0
C477 C 0.26765 0.08791 0.54761 0.0
C478 C 0.27721 0.92818 0.52135 0.0
C479 C 0.27691 0.91415 0.47346 0.0
C480 C 0.2807 0.92751 0.42555 0.0
C481 C 0.28433 0.95432 0.42513 0.0
C482 C 0.28421 0.96809 0.47311 0.0
C483 C 0.28093 0.95504 0.52022 0.0
C484 C 0.28153 0.97301 0.56726 0.0
C485 C 0.28605 0.99892 0.54048 0.0
C486 C 0.2873 0.99583 0.48534 0.0
C487 C 0.30458 0.96524 0.603 0.0
C488 C 0.25474 0.97172 0.59477 0.0
H489 H 0.30423 0.09896 0.46467 0.0
H490 H 0.28804 0.04937 0.29959 0.0
H491 H 0.24764 0.02504 0.38105 0.0
H492 H 0.25604 0.99209 0.38595 0.0
H493 H 0.26334 0.00935 0.32617 0.0
H494 H 0.33003 0.01851 0.36252 0.0
H495 H 0.30829 0.9983 0.32575 0.0
H496 H 0.32027 0.98896 0.39009 0.0
H497 H 0.28307 0.09593 0.66026 0.0
H498 H 0.27674 0.02513 0.75033 0.0
H499 H 0.28208 1.00009 0.67039 0.0
H500 H 0.33058 0.07778 0.59312 0.0
H501 H 0.31505 0.10595 0.5668 0.0
H502 H 0.3283 0.08109 0.52413 0.0
H503 H 0.24911 0.07795 0.55707 0.0
H504 H 0.26679 0.09258 0.50517 0.0
H505 H 0.26812 0.10641 0.57011 0.0
H506 H 0.30528 0.12119 0.38138 0.0
C507 C 0.30072 0.08771 0.42968 0.0
C508 C 0.55766 0.7188 0.03717 0.0
C509 C 0.5729 0.72113 0.99117 0.0
C510 C 0.56123 0.71722 0.94139 0.0
C511 C 0.51984 0.70944 0.98336 0.0
C512 C 0.53123 0.71291 0.03232 0.0
C513 C 0.51202 0.70989 0.07682 0.0
H514 H 0.3868 0.69602 0.15361 0.0
C515 C 0.49198 0.70459 0.99152 0.0
C516 C 0.48717 0.70481 0.04623 0.0
H517 H 0.45428 0.70161 0.25383 0.0
H518 H 0.48205 0.70329 0.17639 0.0
H519 H 0.40384 0.73762 0.0687 0.0
H520 H 0.41191 0.65484 0.0734 0.0
H521 H 0.40368 0.66294 0.00816 0.0
H522 H 0.38146 0.67046 0.06118 0.0
H523 H 0.37705 0.71616 0.05764 0.0
H524 H 0.39797 0.72626 0.00432 0.0
C525 C 0.51089 0.7357 0.10795 0.0
C526 C 0.52014 0.68626 0.1105 0.0
C527 C 0.43285 0.69554 0.83176 0.0
C528 C 0.40582 0.69399 0.82688 0.0
C529 C 0.3904 0.69277 0.87281 0.0
C530 C 0.40167 0.69347 0.9231 0.0
C531 C 0.42869 0.6957 0.92763 0.0
C532 C 0.44382 0.69664 0.88246 0.0
C533 C 0.47202 0.70039 0.89506 0.0
C534 C 0.47132 0.70119 0.95516 0.0
C535 C 0.44594 0.69832 0.97395 0.0
C536 C 0.4808 0.72658 0.871 0.0
C537 C 0.48702 0.67648 0.87418 0.0
C538 C 0.40756 0.69778 0.1588 0.0
C539 C 0.41842 0.69903 0.20965 0.0
C540 C 0.44554 0.70068 0.21492 0.0
C541 C 0.46157 0.70173 0.16998 0.0
C542 C 0.45034 0.70088 0.11928 0.0
C543 C 0.42377 0.69849 0.11448 0.0
C544 C 0.41518 0.69672 0.05783 0.0
C545 C 0.44092 0.69866 0.02919 0.0
C546 C 0.46145 0.70146 0.06524 0.0
C547 C 0.39742 0.72023 0.04618 0.0
C548 C 0.40219 0.66998 0.04934 0.0
H549 H 0.52724 0.70877 0.8982 0.0
H550 H 0.56613 0.72139 0.07601 0.0
H551 H 0.5298 0.67127 0.08569 0.0
H552 H 0.5034 0.67623 0.12843 0.0
H553 H 0.53391 0.69199 0.14217 0.0
H554 H 0.51031 0.75239 0.08029 0.0
H555 H 0.52823 0.73801 0.13352 0.0
H556 H 0.49343 0.73758 0.1328 0.0
H557 H 0.44506 0.69688 0.79699 0.0
H558 H 0.3695 0.69149 0.86967 0.0
H559 H 0.38884 0.69266 0.95646 0.0
H560 H 0.46441 0.74052 0.86869 0.0
H561 H 0.48851 0.72395 0.83029 0.0
H562 H 0.49545 0.73663 0.89539 0.0
H563 H 0.47568 0.65845 0.88069 0.0
H564 H 0.50555 0.67327 0.89495 0.0
H565 H 0.49082 0.67809 0.83105 0.0
H566 H 0.57238 0.71924 0.90532 0.0
C567 C 0.53489 0.71132 0.93728 0.0
H568 H 0.1529 0.17987 0.11122 0.0
H569 H 0.19548 0.24528 0.17288 0.0
H570 H 0.16656 0.24769 0.24864 0.0
H571 H 0.13197 0.22903 0.30162 0.0
H572 H 0.08903 0.16347 0.24331 0.0
H573 H 0.11499 0.16343 0.16165 0.0
C574 C 0.15553 0.19487 0.14085 0.0
C575 C 0.17656 0.21211 0.13685 0.0
C576 C 0.13893 0.19598 0.18507 0.0
C577 C 0.17971 0.2315 0.17546 0.0
C578 C 0.16319 0.23293 0.21884 0.0
C579 C 0.12823 0.21484 0.27079 0.0
C580 C 0.10905 0.19603 0.27844 0.0
C581 C 0.14325 0.21487 0.22474 0.0
C582 C 0.10388 0.17804 0.23807 0.0
C583 C 0.11876 0.17798 0.19164 0.0
H584 H 0.20355 0.67081 0.64521 0.0
H585 H 0.26986 0.6209 0.62306 0.0
H586 H 0.25307 0.5914 0.69008 0.0
H587 H 0.22185 0.58213 0.76079 0.0
H588 H 0.15643 0.63279 0.78484 0.0
H589 H 0.17062 0.65971 0.7109 0.0
C590 C 0.2143 0.65339 0.65468 0.0
C591 C 0.23815 0.6483 0.62967 0.0
C592 C 0.20475 0.63674 0.69371 0.0
C593 C 0.25158 0.62545 0.64201 0.0
C594 C 0.24201 0.60857 0.68038 0.0
C595 C 0.21037 0.59872 0.74901 0.0
C596 C 0.18817 0.60555 0.7782 0.0
C597 C 0.21892 0.61433 0.70726 0.0
C598 C 0.1737 0.62732 0.76314 0.0
C599 C 0.18181 0.64269 0.72097 0.0
H600 H 0.82822 0.85363 0.13859 0.0
H601 H 0.83664 0.77104 0.11996 0.0
H602 H 0.87079 0.7707 0.18684 0.0
H603 H 0.89494 0.79314 0.2566 0.0
H604 H 0.8837 0.87491 0.28132 0.0
H605 H 0.85411 0.87651 0.2056 0.0
C606 C 0.83786 0.83566 0.14859 0.0
C607 C 0.82997 0.81238 0.12463 0.0
C608 C 0.85684 0.83549 0.18826 0.0
C609 C 0.84234 0.78915 0.13828 0.0
C610 C 0.86184 0.78895 0.17641 0.0
C611 C 0.88646 0.81139 0.24448 0.0
C612 C 0.89151 0.83391 0.27386 0.0
C613 C 0.8688 0.8119 0.20249 0.0
C614 C 0.88004 0.85739 0.25887 0.0
C615 C 0.8631 0.85826 0.21585 0.0
H616 H 0.78371 0.34365 0.63816 0.0
H617 H 0.73848 0.40185 0.55871 0.0
H618 H 0.75349 0.43464 0.62156 0.0
H619 H 0.77714 0.44601 0.70261 0.0
H620 H 0.82538 0.38851 0.77749 0.0
H621 H 0.81145 0.35629 0.71307 0.0
C622 C 0.77727 0.36356 0.63462 0.0
C623 C 0.75982 0.37032 0.59442 0.0
C624 C 0.78639 0.38241 0.67019 0.0
C625 C 0.75192 0.39622 0.58947 0.0
C626 C 0.76044 0.41495 0.62544 0.0
C627 C 0.78512 0.42663 0.70429 0.0
C628 C 0.80188 0.41971 0.74581 0.0
C629 C 0.77744 0.4082 0.66638 0.0
C630 C 0.81182 0.39432 0.74711 0.0
C631 C 0.80399 0.37583 0.71005 0.0
H632 H 0.70148 0.28536 0.29844 0.0
H633 H 0.65118 0.33629 0.38714 0.0
H634 H 0.61924 0.33471 0.31581 0.0
H635 H 0.60691 0.32093 0.22542 0.0
H636 H 0.65801 0.27048 0.13771 0.0
H637 H 0.68831 0.26979 0.21158 0.0
C638 C 0.68352 0.29609 0.30239 0.0
C639 C 0.67891 0.31116 0.34781 0.0
C640 C 0.6654 0.29525 0.26126 0.0
C641 C 0.65533 0.32464 0.35244 0.0
C642 C 0.63705 0.32378 0.31164 0.0
C643 C 0.62453 0.30954 0.22296 0.0
C644 C 0.63041 0.29602 0.1761 0.0
C645 C 0.64205 0.30943 0.2655 0.0
C646 C 0.65331 0.28138 0.17314 0.0
C647 C 0.6706 0.28093 0.21534 0.0
H648 H 0.23566 0.12026 0.91537 0.0
H649 H 0.28572 0.18019 0.8555 0.0
H650 H 0.3019 0.15089 0.78695 0.0
H651 H 0.29958 0.10948 0.74035 0.0
H652 H 0.2459 0.05101 0.79379 0.0
H653 H 0.23404 0.07808 0.86915 0.0
C654 C 0.25042 0.12667 0.88778 0.0
C655 C 0.25955 0.15226 0.89034 0.0
C656 C 0.25895 0.10999 0.84719 0.0
C657 C 0.27838 0.16056 0.85401 0.0
C658 C 0.2876 0.14384 0.81483 0.0
C659 C 0.28514 0.10263 0.76815 0.0
C660 C 0.27358 0.0782 0.76075 0.0
C661 C 0.27758 0.11872 0.81028 0.0
C662 C 0.25545 0.06952 0.79843 0.0
C663 C 0.24842 0.08513 0.84144 0.0
H664 H 0.34963 0.67843 0.41214 0.0
H665 H 0.30592 0.74113 0.34331 0.0
H666 H 0.33781 0.74514 0.27291 0.0
H667 H 0.37685 0.72951 0.22785 0.0
H668 H 0.42155 0.66775 0.29641 0.0
H669 H 0.39073 0.66486 0.37013 0.0
C670 C 0.34717 0.69307 0.38193 0.0
C671 C 0.32521 0.70926 0.38292 0.0
C672 C 0.36574 0.69542 0.34138 0.0
C673 C 0.32253 0.72833 0.34367 0.0
C674 C 0.34075 0.73063 0.30318 0.0
C675 C 0.37985 0.7155 0.25911 0.0
C676 C 0.40122 0.69871 0.25663 0.0
C677 C 0.36219 0.71405 0.30121 0.0
C678 C 0.40521 0.6809 0.29767 0.0
C679 C 0.38755 0.67917 0.3396 0.0
H680 H 0.75721 0.88688 0.89187 0.0
H681 H 0.70143 0.82601 0.86436 0.0
H682 H 0.68031 0.85223 0.79699 0.0
H683 H 0.6798 0.89086 0.74097 0.0
H684 H 0.73693 0.95068 0.76545 0.0
H685 H 0.75479 0.9268 0.84004 0.0
C686 C 0.74033 0.87937 0.87144 0.0
C687 C 0.73121 0.85432 0.88266 0.0
C688 C 0.72839 0.89444 0.83234 0.0
C689 C 0.70909 0.84509 0.85617 0.0
C690 C 0.69695 0.86009 0.81763 0.0
C691 C 0.69608 0.89874 0.7628 0.0
C692 C 0.70713 0.92241 0.74724 0.0
C693 C 0.70678 0.88453 0.8046 0.0
C694 C 0.72785 0.93263 0.77674 0.0
C695 C 0.7383 0.91883 0.81908 0.0
H696 H 0.81007 0.78029 0.83533 0.0
H697 H 0.85614 0.82865 0.93825 0.0
H698 H 0.89285 0.82492 0.87751 0.0
H699 H 0.91094 0.81022 0.7916 0.0
H700 H 0.86382 0.76331 0.68842 0.0
H701 H 0.82858 0.76387 0.75302 0.0
C702 C 0.82814 0.78998 0.84471 0.0
C703 C 0.83017 0.80498 0.89102 0.0
C704 C 0.84906 0.78792 0.80952 0.0
C705 C 0.8539 0.81713 0.90266 0.0
C706 C 0.87495 0.815 0.86796 0.0
C707 C 0.89309 0.79978 0.784 0.0
C708 C 0.88983 0.7867 0.73568 0.0
C709 C 0.87264 0.80074 0.82086 0.0
C710 C 0.8666 0.77347 0.72556 0.0
C711 C 0.84646 0.77388 0.76231 0.0
H712 H 0.75137 0.39138 0.36834 0.0
H713 H 0.80587 0.32888 0.34564 0.0
H714 H 0.82806 0.35365 0.27731 0.0
H715 H 0.82925 0.39105 0.21781 0.0
H716 H 0.77375 0.45272 0.23825 0.0
H717 H 0.75519 0.43059 0.31454 0.0
C718 C 0.76825 0.38324 0.34885 0.0
C719 C 0.77661 0.3581 0.3615 0.0
C720 C 0.78079 0.39746 0.30917 0.0
C721 C 0.79879 0.34806 0.33635 0.0
C722 C 0.81151 0.3622 0.29719 0.0
C723 C 0.81325 0.39974 0.23931 0.0
C724 C 0.80273 0.42335 0.22203 0.0
C725 C 0.80224 0.3866 0.28229 0.0
C726 C 0.78233 0.43465 0.25089 0.0
C727 C 0.77152 0.42187 0.29421 0.0
H728 H 0.17522 0.24407 0.86127 0.0
H729 H 0.15114 0.17132 0.92889 0.0
H730 H 0.11394 0.16998 0.86931 0.0
H731 H 0.09033 0.18766 0.79242 0.0
H732 H 0.11626 0.25889 0.72203 0.0
H733 H 0.15044 0.26286 0.78857 0.0
C734 C 0.16172 0.22803 0.86345 0.0
C735 C 0.16616 0.20771 0.89923 0.0
C736 C 0.14066 0.22712 0.82845 0.0
C737 C 0.14836 0.18713 0.90144 0.0
C738 C 0.12705 0.18633 0.86737 0.0
C739 C 0.10319 0.20426 0.79262 0.0
C740 C 0.10086 0.22307 0.75298 0.0
C741 C 0.12328 0.20596 0.82999 0.0
C742 C 0.11777 0.24432 0.7526 0.0
C743 C 0.13733 0.2465 0.79038 0.0
H744 H 0.21148 0.66417 0.36536 0.0
H745 H 0.27115 0.61294 0.42201 0.0
H746 H 0.25712 0.57947 0.35957 0.0
H747 H 0.2303 0.56642 0.28351 0.0
H748 H 0.16887 0.61687 0.23102 0.0
H749 H 0.18114 0.64891 0.29729 0.0
C750 C 0.22127 0.64559 0.36418 0.0
C751 C 0.24251 0.6411 0.39755 0.0
C752 C 0.21288 0.62636 0.32879 0.0
C753 C 0.25477 0.61683 0.39651 0.0
C754 C 0.2468 0.59773 0.36074 0.0
C755 C 0.21917 0.58412 0.28733 0.0
C756 C 0.19903 0.58939 0.25141 0.0
C757 C 0.22616 0.60246 0.32601 0.0
C758 C 0.18492 0.61256 0.25708 0.0
C759 C 0.19186 0.6309 0.29511 0.0
H760 H 0.35068 0.67701 0.60702 0.0
H761 H 0.30871 0.74404 0.66263 0.0
H762 H 0.33739 0.74763 0.73867 0.0
H763 H 0.37078 0.72882 0.79485 0.0
H764 H 0.41306 0.66169 0.74211 0.0
H765 H 0.38811 0.66102 0.65934 0.0
C766 C 0.34831 0.69273 0.63515 0.0
C767 C 0.32747 0.71005 0.62969 0.0
C768 C 0.36462 0.69439 0.67968 0.0
C769 C 0.32446 0.7303 0.66646 0.0
C770 C 0.34077 0.73234 0.71002 0.0
C771 C 0.37464 0.71422 0.76489 0.0
C772 C 0.39328 0.6951 0.77448 0.0
C773 C 0.36027 0.71398 0.71798 0.0
C774 C 0.3986 0.6765 0.73533 0.0
C775 C 0.38432 0.6761 0.68823 0.0
H776 H 0.75859 0.85133 0.1884 0.0
H777 H 0.7205 0.8903 0.05968 0.0
H778 H 0.7051 0.92401 0.12096 0.0
H779 H 0.70167 0.94159 0.21268 0.0
H780 H 0.74303 0.90291 0.3381 0.0
H781 H 0.75788 0.87 0.27658 0.0
C782 C 0.74677 0.86711 0.17372 0.0
C783 C 0.74031 0.86813 0.11987 0.0
C784 C 0.73855 0.8865 0.20869 0.0
C785 C 0.72556 0.88905 0.10117 0.0
C786 C 0.71679 0.9083 0.13617 0.0
C787 C 0.71411 0.92608 0.2263 0.0
C788 C 0.72057 0.9244 0.28034 0.0
C789 C 0.72308 0.90717 0.19023 0.0
C790 C 0.73696 0.90427 0.29719 0.0
C791 C 0.74565 0.88546 0.26197 0.0
H792 H 0.65863 0.27676 0.57949 0.0
H793 H 0.6672 0.35953 0.5941 0.0
H794 H 0.63016 0.3613 0.65409 0.0
H795 H 0.59854 0.33866 0.71008 0.0
H796 H 0.58905 0.25622 0.69461 0.0
H797 H 0.6229 0.2549 0.62645 0.0
C798 C 0.65217 0.29518 0.59545 0.0
C799 C 0.66583 0.31791 0.58313 0.0
C800 C 0.63069 0.29609 0.62955 0.0
C801 C 0.65705 0.34175 0.6032 0.0
C802 C 0.63592 0.34278 0.6376 0.0
C803 C 0.60345 0.32058 0.69051 0.0
C804 C 0.59148 0.29759 0.70675 0.0
C805 C 0.623 0.32001 0.65199 0.0
C806 C 0.59794 0.27415 0.68192 0.0
C807 C 0.61744 0.27339 0.64351 0.0
H808 H 0.27808 0.13043 0.10079 0.0
H809 H 0.2561 0.19811 0.19023 0.0
H810 H 0.26656 0.17616 0.27281 0.0
H811 H 0.2788 0.13706 0.31929 0.0
H812 H 0.30609 0.07058 0.23104 0.0
H813 H 0.29625 0.09257 0.14844 0.0
C814 C 0.276 0.14033 0.13846 0.0
C815 C 0.26642 0.16573 0.13987 0.0
C816 C 0.28262 0.12775 0.18589 0.0
C817 C 0.2637 0.17857 0.18856 0.0
C818 C 0.26954 0.16601 0.23569 0.0
C819 C 0.28343 0.12743 0.28234 0.0
C820 C 0.29289 0.10187 0.28222 0.0
C821 C 0.2787 0.1405 0.23486 0.0
C822 C 0.29805 0.08989 0.23307 0.0
C823 C 0.29266 0.10256 0.1855 0.0
H824 H 0.23982 0.30559 0.93462 0.0
H825 H 0.19744 0.29352 0.07978 0.0
H826 H 0.1857 0.33928 0.08248 0.0
H827 H 0.18758 0.38283 0.04371 0.0
H828 H 0.23152 0.39491 0.90047 0.0
H829 H 0.2423 0.34906 0.89682 0.0
C830 C 0.2279 0.31292 0.9667 0.0
C831 C 0.21953 0.29614 0.00687 0.0
C832 C 0.22148 0.33929 0.96842 0.0
C833 C 0.20424 0.30604 0.0484 0.0
C834 C 0.1975 0.33221 0.05001 0.0
C835 C 0.19972 0.37547 0.01199 0.0
C836 C 0.20854 0.3923 0.97226 0.0
C837 C 0.20613 0.34905 0.01038 0.0
C838 C 0.22404 0.38235 0.93109 0.0
C839 C 0.23036 0.35613 0.92908 0.0
H840 H 0.17262 0.70745 0.43522 0.0
H841 H 0.1831 0.74707 0.5845 0.0
H842 H 0.13728 0.75764 0.58734 0.0
H843 H 0.09476 0.75811 0.54542 0.0
H844 H 0.08332 0.71813 0.39713 0.0
H845 H 0.12893 0.70541 0.39594 0.0
C846 C 0.16485 0.7183 0.46844 0.0
C847 C 0.18143 0.72667 0.5092 0.0
C848 C 0.1383 0.7244 0.47001 0.0
C849 C 0.17093 0.74051 0.55226 0.0
C850 C 0.14466 0.7466 0.55404 0.0
C851 C 0.10206 0.74616 0.51335 0.0
C852 C 0.08564 0.73922 0.47134 0.0
C853 C 0.12823 0.73893 0.51288 0.0
C854 C 0.09562 0.72408 0.42964 0.0
C855 C 0.12169 0.71673 0.42898 0.0
H856 H 0.80085 0.71919 0.94235 0.0
H857 H 0.76245 0.71587 0.0942 0.0
H858 H 0.77175 0.66988 0.1002 0.0
H859 H 0.78939 0.63042 0.06191 0.0
H860 H 0.82961 0.633 0.9122 0.0
H861 H 0.8204 0.67932 0.90535 0.0
C862 C 0.79459 0.70842 0.97681 0.0
C863 C 0.78086 0.72107 0.01762 0.0
C864 C 0.80008 0.68178 0.98026 0.0
C865 C 0.77302 0.70677 0.06211 0.0
C866 C 0.77827 0.68038 0.06561 0.0
C867 C 0.79662 0.64109 0.02812 0.0
C868 C 0.81034 0.62813 0.98783 0.0
C869 C 0.79166 0.6677 0.02488 0.0
C870 C 0.81879 0.64233 0.94365 0.0
C871 C 0.81367 0.66888 0.93985 0.0
H872 H 0.80835 0.24252 0.4542 0.0
H873 H 0.82264 0.30337 0.5677 0.0
H874 H 0.86767 0.28893 0.57676 0.0
H875 H 0.90353 0.26051 0.54784 0.0
H876 H 0.88796 0.19881 0.43668 0.0
H877 H 0.8428 0.21219 0.43123 0.0
C878 C 0.8213 0.25264 0.48099 0.0
C879 C 0.81234 0.27418 0.50971 0.0
C880 C 0.84692 0.24413 0.48625 0.0
C881 C 0.82917 0.28677 0.54504 0.0
C882 C 0.85489 0.27855 0.55013 0.0
C883 C 0.89015 0.24971 0.52317 0.0
C884 C 0.89925 0.22892 0.49208 0.0
C885 C 0.86406 0.25742 0.52041 0.0
C886 C 0.88164 0.21524 0.4601 0.0
C887 C 0.85578 0.2228 0.45709 0.0
H888 H 0.69891 0.22523 0.55239 0.0
H889 H 0.74011 0.21829 0.4046 0.0
H890 H 0.73368 0.17143 0.405 0.0
H891 H 0.71882 0.13234 0.45026 0.0
H892 H 0.67311 0.1397 0.59298 0.0
H893 H 0.67916 0.18633 0.59188 0.0
C894 C 0.70625 0.21339 0.52017 0.0
C895 C 0.72008 0.22503 0.47876 0.0
C896 C 0.70196 0.18652 0.52 0.0
C897 C 0.7293 0.20967 0.43681 0.0
C898 C 0.72573 0.18289 0.43713 0.0
C899 C 0.7096 0.14401 0.48059 0.0
C900 C 0.69603 0.13208 0.52232 0.0
C901 C 0.71234 0.17106 0.47886 0.0
C902 C 0.68452 0.14796 0.56131 0.0
C903 C 0.68773 0.17478 0.56054 0.0
H904 H 0.31553 0.26561 0.05297 0.0
H905 H 0.32021 0.21562 0.91603 0.0
H906 H 0.36677 0.22359 0.90989 0.0
H907 H 0.40627 0.24381 0.94486 0.0
H908 H 0.40107 0.29507 0.07978 0.0
H909 H 0.35461 0.28713 0.08567 0.0
C910 C 0.32669 0.25646 0.02169 0.0
C911 C 0.31438 0.24001 0.98509 0.0
C912 C 0.3534 0.26118 0.01825 0.0
C913 C 0.32916 0.22845 0.94465 0.0
C914 C 0.35581 0.23293 0.94118 0.0
C915 C 0.39496 0.25353 0.97515 0.0
C916 C 0.40727 0.2699 0.012 0.0
C917 C 0.36814 0.24919 0.97789 0.0
C918 C 0.39226 0.28199 0.05148 0.0
C919 C 0.36563 0.27762 0.05468 0.0
H920 H 0.24756 0.79659 0.44034 0.0
H921 H 0.29587 0.78871 0.5787 0.0
H922 H 0.30367 0.83527 0.57944 0.0
H923 H 0.29662 0.87828 0.54113 0.0
H924 H 0.24708 0.88623 0.40468 0.0
H925 H 0.24019 0.83957 0.40263 0.0
C926 C 0.25989 0.80502 0.47054 0.0
C927 C 0.27106 0.78916 0.50942 0.0
C928 C 0.26411 0.83184 0.4711 0.0
C929 C 0.28691 0.80046 0.5484 0.0
C930 C 0.29141 0.8271 0.54888 0.0
C931 C 0.28411 0.86984 0.51126 0.0
C932 C 0.27247 0.88576 0.47305 0.0
C933 C 0.27999 0.84299 0.51061 0.0
C934 C 0.25662 0.87442 0.43412 0.0
C935 C 0.25253 0.84773 0.43306 0.0
H936 H 0.69203 0.74328 0.96273 0.0
H937 H 0.67587 0.80014 0.0838 0.0
H938 H 0.63075 0.78562 0.0877 0.0
H939 H 0.59557 0.7577 0.05405 0.0
H940 H 0.61278 0.70024 0.9347 0.0
H941 H 0.65788 0.71414 0.93282 0.0
C942 C 0.67866 0.75258 0.98995 0.0
C943 C 0.68724 0.77292 0.02259 0.0
C944 C 0.65294 0.74402 0.99228 0.0
C945 C 0.66973 0.78446 0.05816 0.0
C946 C 0.64394 0.77618 0.0604 0.0
C947 C 0.60929 0.74798 0.02825 0.0
C948 C 0.60075 0.72813 0.99418 0.0
C949 C 0.6353 0.75604 0.02742 0.0
C950 C 0.61873 0.71587 0.96063 0.0
C951 C 0.64455 0.72374 0.95962 0.0
loop_
_geom_bond_atom_site_label_1
_geom_bond_atom_site_label_2
_geom_bond_distance
_geom_bond_site_symmetry_2
_ccdc_geom_bond_type
Fe0 O2 1.918 . S
Fe0 O5 1.997 . S
Fe0 O6 2.002 . S
Fe0 O11 1.976 . S
Fe0 O14 1.996 . S
Fe1 O2 1.918 1_556 S
Fe1 O9 1.997 . S
Fe1 O12 1.996 . S
Fe1 O16 1.976 . S
Fe1 O19 2.002 . S
O2 Fe0 1.918 . S
O2 Fe1 1.918 1_554 S
O2 Fe3 1.918 1_554 S
Fe3 O2 1.918 1_556 S
Fe3 O4 1.997 1_556 S
Fe3 O13 1.970 1_556 S
Fe3 O17 2.001 . S
Fe3 O20 2.002 . S
O4 Fe3 1.997 1_554 S
O4 C21 1.295 . S
O5 Fe0 1.997 . S
O5 C21 1.235 . S
O6 Fe0 2.002 . S
O6 C7 1.295 . S
C7 O6 1.295 . S
C7 O9 1.235 1_554 S
C8 O13 1.287 . S
C8 O14 1.255 . S
O9 Fe1 1.997 . S
O9 C7 1.235 1_556 S
C10 O16 1.287 . S
C10 O17 1.255 . S
O11 Fe0 1.976 . S
O11 C18 1.287 1_554 S
O12 Fe1 1.996 . S
O12 C18 1.255 . S
O13 Fe3 1.970 1_554 S
O13 C8 1.287 . S
O14 Fe0 1.996 . S
O14 C8 1.255 . S
C15 O19 1.295 . S
C15 O20 1.235 . S
O16 Fe1 1.976 . S
O16 C10 1.287 . S
O17 Fe3 2.001 . S
O17 C10 1.255 . S
C18 O11 1.287 1_556 S
C18 O12 1.255 . S
O19 Fe1 2.002 . S
O19 C15 1.295 . S
O20 Fe3 2.002 . S
O20 C15 1.235 . S
C21 O4 1.295 . S
C21 O5 1.235 . S
Fe22 O24 1.918 . S
Fe22 O27 1.997 . S
Fe22 O28 2.002 . S
Fe22 O33 1.976 . S
Fe22 O36 1.996 . S
Fe23 O24 1.918 . S
Fe23 O31 1.997 . S
Fe23 O34 1.996 . S
Fe23 O38 1.976 . S
Fe23 O41 2.002 . S
O24 Fe22 1.918 . S
O24 Fe23 1.918 . S
O24 Fe25 1.918 . S
Fe25 O24 1.918 . S
Fe25 O26 2.002 . S
Fe25 O35 1.976 . S
Fe25 O39 1.996 . S
Fe25 O42 1.997 . S
O26 Fe25 2.002 . S
O26 C43 1.295 . S
O27 Fe22 1.997 . S
O27 C43 1.235 . S
O28 Fe22 2.002 . S
O28 C29 1.295 . S
C29 O28 1.295 . S
C29 O31 1.235 . S
C30 O35 1.287 . S
C30 O36 1.255 . S
O31 Fe23 1.997 . S
O31 C29 1.235 . S
C32 O38 1.287 . S
C32 O39 1.255 . S
O33 Fe22 1.976 . S
O33 C40 1.287 . S
O34 Fe23 1.996 . S
O34 C40 1.255 . S
O35 Fe25 1.976 . S
O35 C30 1.287 . S
O36 Fe22 1.996 . S
O36 C30 1.255 . S
C37 O41 1.295 . S
C37 O42 1.235 . S
O38 Fe23 1.976 . S
O38 C32 1.287 . S
O39 Fe25 1.996 . S
O39 C32 1.255 . S
C40 O33 1.287 . S
C40 O34 1.255 . S
O41 Fe23 2.002 . S
O41 C37 1.295 . S
O42 Fe25 1.997 . S
O42 C37 1.235 . S
C43 O26 1.295 . S
C43 O27 1.235 . S
Fe44 O46 1.918 1_556 S
Fe44 O49 1.997 . S
Fe44 O50 2.002 . S
Fe44 O55 1.976 . S
Fe44 O58 1.996 . S
Fe45 O46 1.918 . S
Fe45 O53 1.997 . S
Fe45 O56 1.996 . S
Fe45 O60 1.976 . S
Fe45 O63 2.002 . S
O46 Fe44 1.918 1_554 S
O46 Fe45 1.918 . S
O46 Fe47 1.918 . S
Fe47 O46 1.918 . S
Fe47 O48 1.994 1_554 S
Fe47 O57 1.967 1_554 S
Fe47 O61 2.005 . S
Fe47 O64 2.006 . S
O48 Fe47 1.994 1_556 S
O48 C65 1.295 . S
O49 Fe44 1.997 . S
O49 C65 1.235 . S
O50 Fe44 2.002 . S
O50 C51 1.295 . S
C51 O50 1.295 . S
C51 O53 1.235 1_556 S
C52 O57 1.287 . S
C52 O58 1.255 . S
O53 Fe45 1.997 . S
O53 C51 1.235 1_554 S
C54 O60 1.287 . S
C54 O61 1.255 . S
O55 Fe44 1.976 . S
O55 C62 1.287 1_556 S
O56 Fe45 1.996 . S
O56 C62 1.255 . S
O57 Fe47 1.967 1_556 S
O57 C52 1.287 . S
O58 Fe44 1.996 . S
O58 C52 1.255 . S
C59 O63 1.295 . S
C59 O64 1.235 . S
O60 Fe45 1.976 . S
O60 C54 1.287 . S
O61 Fe47 2.005 . S
O61 C54 1.255 . S
C62 O55 1.287 1_554 S
C62 O56 1.255 . S
O63 Fe45 2.002 . S
O63 C59 1.295 . S
O64 Fe47 2.006 . S
O64 C59 1.235 . S
C65 O48 1.295 . S
C65 O49 1.235 . S
Fe66 O68 1.918 . S
Fe66 O71 1.997 . S
Fe66 O72 2.002 . S
Fe66 O77 1.976 . S
Fe66 O80 1.996 . S
Fe67 O68 1.918 . S
Fe67 O75 1.997 . S
Fe67 O78 1.996 . S
Fe67 O82 1.976 . S
Fe67 O85 2.002 . S
O68 Fe66 1.918 . S
O68 Fe67 1.918 . S
O68 Fe69 1.918 . S
Fe69 O68 1.918 . S
Fe69 O70 2.002 . S
Fe69 O79 1.976 . S
Fe69 O83 1.996 . S
Fe69 O86 1.997 . S
O70 Fe69 2.002 . S
O70 C87 1.295 . S
O71 Fe66 1.997 . S
O71 C87 1.235 . S
O72 Fe66 2.002 . S
O72 C73 1.295 . S
C73 O72 1.295 . S
C73 O75 1.235 . S
C74 O79 1.287 . S
C74 O80 1.255 . S
O75 Fe67 1.997 . S
O75 C73 1.235 . S
C76 O82 1.287 . S
C76 O83 1.255 . S
O77 Fe66 1.976 . S
O77 C84 1.287 . S
O78 Fe67 1.996 . S
O78 C84 1.255 . S
O79 Fe69 1.976 . S
O79 C74 1.287 . S
O80 Fe66 1.996 . S
O80 C74 1.255 . S
C81 O85 1.295 . S
C81 O86 1.235 . S
O82 Fe67 1.976 . S
O82 C76 1.287 . S
O83 Fe69 1.996 . S
O83 C76 1.255 . S
C84 O77 1.287 . S
C84 O78 1.255 . S
O85 Fe67 2.002 . S
O85 C81 1.295 . S
O86 Fe69 1.997 . S
O86 C81 1.235 . S
C87 O70 1.295 . S
C87 O71 1.235 . S
C88 C89 1.391 . S
C88 C92 1.391 . S
C88 H130 0.948 . S
C89 C88 1.391 . S
C89 C90 1.391 . S
C90 C89 1.391 . S
C90 H146 0.947 . S
C90 C147 1.392 . S
C91 C92 1.391 . S
C91 C95 1.397 . S
C91 C147 1.419 . S
C92 C88 1.391 . S
C92 C91 1.391 . S
C92 C93 1.399 . S
C93 C92 1.399 . S
C93 C96 1.396 . S
C93 C105 1.453 . S
C93 C106 1.684 . S
H94 C118 0.948 . S
C95 C91 1.397 . S
C95 C96 1.394 . S
C95 C114 1.723 1_556 S
C96 C93 1.396 . S
C96 C95 1.394 . S
C96 C126 1.723 . S
H97 C120 0.947 . S
H98 C121 0.948 . S
H99 C127 0.982 . S
H100 C128 0.979 . S
H101 C128 0.980 . S
H102 C128 0.983 . S
H103 C127 0.979 . S
H104 C127 0.977 . S
C105 C93 1.453 . S
C105 H134 0.982 . S
C105 H135 0.979 . S
C105 H136 0.977 . S
C106 C93 1.684 . S
C106 H131 0.979 . S
C106 H132 0.980 . S
C106 H133 0.983 . S
C107 C108 1.391 . S
C107 C112 1.391 . S
C107 H137 0.948 . S
C108 C107 1.391 . S
C108 C109 1.391 . S
C109 C108 1.391 . S
C109 C110 1.392 . S
C109 H138 0.947 . S
C110 C109 1.392 . S
C110 C111 1.419 . S
C110 H139 0.948 . S
C111 C110 1.419 . S
C111 C112 1.391 . S
C111 C115 1.397 . S
C112 C107 1.391 . S
C112 C111 1.391 . S
C112 C113 1.399 . S
C113 C112 1.399 . S
C113 C114 1.396 . S
C113 C116 1.453 . S
C113 C117 1.684 . S
C114 C95 1.723 1_554 S
C114 C113 1.396 . S
C114 C115 1.394 . S
C115 C111 1.397 . S
C115 C114 1.394 . S
C115 C125 1.723 . S
C116 C113 1.453 . S
C116 H140 0.982 . S
C116 H141 0.979 . S
C116 H142 0.977 1_554 S
C117 C113 1.684 . S
C117 H143 0.979 . S
C117 H144 0.980 1_554 S
C117 H145 0.983 . S
C118 H94 0.948 . S
C118 C119 1.391 1_554 S
C118 C123 1.391 . S
C119 C118 1.391 1_556 S
C119 C120 1.391 . S
C120 H97 0.947 . S
C120 C119 1.391 . S
C120 C121 1.392 . S
C121 H98 0.948 . S
C121 C120 1.392 . S
C121 C122 1.419 . S
C122 C121 1.419 . S
C122 C123 1.391 1_556 S
C122 C126 1.397 . S
C123 C118 1.391 . S
C123 C122 1.391 1_554 S
C123 C124 1.399 . S
C124 C123 1.399 . S
C124 C125 1.396 . S
C124 C127 1.453 . S
C124 C128 1.684 . S
C125 C115 1.723 . S
C125 C124 1.396 . S
C125 C126 1.394 1_554 S
C126 C96 1.723 . S
C126 C122 1.397 . S
C126 C125 1.394 1_556 S
C127 H99 0.982 . S
C127 H103 0.979 . S
C127 H104 0.977 . S
C127 C124 1.453 . S
C128 H100 0.979 . S
C128 H101 0.980 . S
C128 H102 0.983 . S
C128 C124 1.684 . S
H129 C147 0.948 . S
H130 C88 0.948 . S
H131 C106 0.979 . S
H132 C106 0.980 . S
H133 C106 0.983 . S
H134 C105 0.982 . S
H135 C105 0.979 . S
H136 C105 0.977 . S
H137 C107 0.948 . S
H138 C109 0.947 . S
H139 C110 0.948 . S
H140 C116 0.982 . S
H141 C116 0.979 . S
H142 C116 0.977 1_556 S
H143 C117 0.979 . S
H144 C117 0.980 1_556 S
H145 C117 0.983 . S
H146 C90 0.947 . S
C147 C90 1.392 . S
C147 C91 1.419 . S
C147 H129 0.948 . S
C148 C149 1.391 . S
C148 C152 1.391 . S
C148 H190 0.948 . S
C149 C148 1.391 . S
C149 C150 1.391 . S
C150 C149 1.391 . S
C150 H206 0.947 . S
C150 C207 1.392 . S
C151 C152 1.391 . S
C151 C155 1.397 . S
C151 C207 1.419 . S
C152 C148 1.391 . S
C152 C151 1.391 . S
C152 C153 1.399 . S
C153 C152 1.399 . S
C153 C156 1.396 . S
C153 C165 1.453 . S
C153 C166 1.684 . S
H154 C178 0.948 . S
C155 C151 1.397 . S
C155 C156 1.394 . S
C155 C174 1.723 1_455 S
C156 C153 1.396 . S
C156 C155 1.394 . S
C156 C186 1.723 1_455 S
H157 C180 0.947 . S
H158 C181 0.948 . S
H159 C187 0.982 . S
H160 C188 0.979 . S
H161 C188 0.980 . S
H162 C188 0.983 . S
H163 C187 0.979 . S
H164 C187 0.977 . S
C165 C153 1.453 . S
C165 H194 0.982 . S
C165 H195 0.979 . S
C165 H196 0.977 . S
C166 C153 1.684 . S
C166 H191 0.979 . S
C166 H192 0.980 . S
C166 H193 0.983 . S
C167 C168 1.391 . S
C167 C172 1.391 . S
C167 H197 0.948 . S
C168 C167 1.391 . S
C168 C169 1.391 . S
C169 C168 1.391 . S
C169 C170 1.392 . S
C169 H198 0.947 . S
C170 C169 1.392 . S
C170 C171 1.419 . S
C170 H199 0.948 . S
C171 C170 1.419 . S
C171 C172 1.391 . S
C171 C175 1.397 . S
C172 C167 1.391 . S
C172 C171 1.391 . S
C172 C173 1.399 . S
C173 C172 1.399 . S
C173 C174 1.396 . S
C173 C176 1.453 1_655 S
C173 C177 1.681 1_655 S
C174 C155 1.723 1_655 S
C174 C173 1.396 . S
C174 C175 1.394 . S
C175 C171 1.397 . S
C175 C174 1.394 . S
C175 C185 1.723 . S
C176 C173 1.453 1_455 S
C176 H200 0.982 . S
C176 H201 0.979 . S
C176 H202 0.977 . S
C177 C173 1.681 1_455 S
C177 H203 0.976 1_455 S
C177 H204 0.986 . S
C177 H205 0.983 . S
C178 H154 0.948 . S
C178 C179 1.391 . S
C178 C183 1.391 . S
C179 C178 1.391 . S
C179 C180 1.391 . S
C180 H157 0.947 . S
C180 C179 1.391 . S
C180 C181 1.392 . S
C181 H158 0.948 . S
C181 C180 1.392 . S
C181 C182 1.419 . S
C182 C181 1.419 . S
C182 C183 1.391 . S
C182 C186 1.397 . S
C183 C178 1.391 . S
C183 C182 1.391 . S
C183 C184 1.399 . S
C184 C183 1.399 . S
C184 C185 1.396 . S
C184 C187 1.453 . S
C184 C188 1.684 . S
C185 C175 1.723 . S
C185 C184 1.396 . S
C185 C186 1.394 . S
C186 C156 1.723 1_655 S
C186 C182 1.397 . S
C186 C185 1.394 . S
C187 H159 0.982 . S
C187 H163 0.979 . S
C187 H164 0.977 . S
C187 C184 1.453 . S
C188 H160 0.979 . S
C188 H161 0.980 . S
C188 H162 0.983 . S
C188 C184 1.684 . S
H189 C207 0.948 . S
H190 C148 0.948 . S
H191 C166 0.979 . S
H192 C166 0.980 . S
H193 C166 0.983 . S
H194 C165 0.982 . S
H195 C165 0.979 . S
H196 C165 0.977 . S
H197 C167 0.948 . S
H198 C169 0.947 . S
H199 C170 0.948 . S
H200 C176 0.982 . S
H201 C176 0.979 . S
H202 C176 0.977 . S
H203 C177 0.976 1_655 S
H204 C177 0.986 . S
H205 C177 0.983 . S
H206 C150 0.947 . S
C207 C150 1.392 . S
C207 C151 1.419 . S
C207 H189 0.948 . S
C208 C209 1.391 . S
C208 C212 1.391 . S
C208 H250 0.948 . S
C209 C208 1.391 . S
C209 C210 1.391 . S
C210 C209 1.391 . S
C210 H266 0.947 . S
C210 C267 1.392 . S
C211 C212 1.391 . S
C211 C215 1.397 . S
C211 C267 1.419 . S
C212 C208 1.391 . S
C212 C211 1.391 . S
C212 C213 1.399 . S
C213 C212 1.399 . S
C213 C216 1.396 . S
C213 C225 1.453 . S
C213 C226 1.684 . S
H214 C238 0.948 . S
C215 C211 1.397 . S
C215 C216 1.394 . S
C215 C234 1.723 1_554 S
C216 C213 1.396 . S
C216 C215 1.394 . S
C216 C246 1.723 . S
H217 C240 0.947 . S
H218 C241 0.948 . S
H219 C247 0.982 . S
H220 C248 0.979 . S
H221 C248 0.980 . S
H222 C248 0.983 . S
H223 C247 0.979 . S
H224 C247 0.977 . S
C225 C213 1.453 . S
C225 H254 0.982 . S
C225 H255 0.979 . S
C225 H256 0.977 . S
C226 C213 1.684 . S
C226 H251 0.979 . S
C226 H252 0.980 . S
C226 H253 0.983 . S
C227 C228 1.391 . S
C227 C232 1.391 . S
C227 H257 0.948 . S
C228 C227 1.391 . S
C228 C229 1.391 . S
C229 C228 1.391 . S
C229 C230 1.392 . S
C229 H258 0.947 . S
C230 C229 1.392 . S
C230 C231 1.419 . S
C230 H259 0.948 . S
C231 C230 1.419 . S
C231 C232 1.391 . S
C231 C235 1.397 . S
C232 C227 1.391 . S
C232 C231 1.391 . S
C232 C233 1.399 . S
C233 C232 1.399 . S
C233 C234 1.396 . S
C233 C236 1.453 . S
C233 C237 1.684 . S
C234 C215 1.723 1_556 S
C234 C233 1.396 . S
C234 C235 1.394 . S
C235 C231 1.397 . S
C235 C234 1.394 . S
C235 C245 1.723 . S
C236 C233 1.453 . S
C236 H260 0.982 . S
C236 H261 0.979 . S
C236 H262 0.977 1_556 S
C237 C233 1.684 . S
C237 H263 0.979 . S
C237 H264 0.980 1_556 S
C237 H265 0.983 . S
C238 H214 0.948 . S
C238 C239 1.391 1_556 S
C238 C243 1.391 . S
C239 C238 1.391 1_554 S
C239 C240 1.391 . S
C240 H217 0.947 . S
C240 C239 1.391 . S
C240 C241 1.392 . S
C241 H218 0.948 . S
C241 C240 1.392 . S
C241 C242 1.419 . S
C242 C241 1.419 . S
C242 C243 1.391 1_554 S
C242 C246 1.397 . S
C243 C238 1.391 . S
C243 C242 1.391 1_556 S
C243 C244 1.399 . S
C244 C243 1.399 . S
C244 C245 1.396 . S
C244 C247 1.453 . S
C244 C248 1.684 . S
C245 C235 1.723 . S
C245 C244 1.396 . S
C245 C246 1.394 1_556 S
C246 C216 1.723 . S
C246 C242 1.397 . S
C246 C245 1.394 1_554 S
C247 H219 0.982 . S
C247 H223 0.979 . S
C247 H224 0.977 . S
C247 C244 1.453 . S
C248 H220 0.979 . S
C248 H221 0.980 . S
C248 H222 0.983 . S
C248 C244 1.684 . S
H249 C267 0.948 . S
H250 C208 0.948 . S
H251 C226 0.979 . S
H252 C226 0.980 . S
H253 C226 0.983 . S
H254 C225 0.982 . S
H255 C225 0.979 . S
H256 C225 0.977 . S
H257 C227 0.948 . S
H258 C229 0.947 . S
H259 C230 0.948 . S
H260 C236 0.982 . S
H261 C236 0.979 . S
H262 C236 0.977 1_554 S
H263 C237 0.979 . S
H264 C237 0.980 1_554 S
H265 C237 0.983 . S
H266 C210 0.947 . S
C267 C210 1.392 . S
C267 C211 1.419 . S
C267 H249 0.948 . S
C268 C269 1.391 . S
C268 C272 1.391 . S
C268 H310 0.948 . S
C269 C268 1.391 . S
C269 C270 1.391 . S
C270 C269 1.391 . S
C270 H326 0.947 . S
C270 C327 1.392 . S
C271 C272 1.391 . S
C271 C275 1.397 . S
C271 C327 1.419 . S
C272 C268 1.391 . S
C272 C271 1.391 . S
C272 C273 1.399 . S
C273 C272 1.399 . S
C273 C276 1.396 . S
C273 C285 1.453 1_455 S
C273 C286 1.667 1_455 S
H274 C298 0.948 . S
C275 C271 1.397 . S
C275 C276 1.394 . S
C275 C294 1.723 . S
C276 C273 1.396 . S
C276 C275 1.394 . S
C276 C306 1.723 1_455 S
H277 C300 0.947 . S
H278 C301 0.948 . S
H279 C307 0.982 . S
H280 C308 0.979 . S
H281 C308 0.980 . S
H282 C308 0.983 . S
H283 C307 0.979 . S
H284 C307 0.977 . S
C285 C273 1.453 1_655 S
C285 H314 0.982 . S
C285 H315 0.979 . S
C285 H316 0.977 . S
C286 C273 1.667 1_655 S
C286 H311 0.962 1_655 S
C286 H312 1.015 . S
C286 H313 0.983 . S
C287 C288 1.391 . S
C287 C292 1.391 . S
C287 H317 0.948 . S
C288 C287 1.391 . S
C288 C289 1.391 . S
C289 C288 1.391 . S
C289 C290 1.392 . S
C289 H318 0.947 . S
C290 C289 1.392 . S
C290 C291 1.419 . S
C290 H319 0.948 . S
C291 C290 1.419 . S
C291 C292 1.391 . S
C291 C295 1.397 . S
C292 C287 1.391 . S
C292 C291 1.391 . S
C292 C293 1.399 . S
C293 C292 1.399 . S
C293 C294 1.396 . S
C293 C296 1.453 . S
C293 C297 1.684 . S
C294 C275 1.723 . S
C294 C293 1.396 . S
C294 C295 1.394 . S
C295 C291 1.397 . S
C295 C294 1.394 . S
C295 C305 1.723 1_455 S
C296 C293 1.453 . S
C296 H320 0.982 . S
C296 H321 0.979 . S
C296 H322 0.977 . S
C297 C293 1.684 . S
C297 H323 0.979 . S
C297 H324 0.980 . S
C297 H325 0.983 . S
C298 H274 0.948 . S
C298 C299 1.391 . S
C298 C303 1.391 . S
C299 C298 1.391 . S
C299 C300 1.391 . S
C300 H277 0.947 . S
C300 C299 1.391 . S
C300 C301 1.392 . S
C301 H278 0.948 . S
C301 C300 1.392 . S
C301 C302 1.419 . S
C302 C301 1.419 . S
C302 C303 1.391 . S
C302 C306 1.397 . S
C303 C298 1.391 . S
C303 C302 1.391 . S
C303 C304 1.399 . S
C304 C303 1.399 . S
C304 C305 1.396 . S
C304 C307 1.453 . S
C304 C308 1.684 . S
C305 C295 1.723 1_655 S
C305 C304 1.396 . S
C305 C306 1.394 . S
C306 C276 1.723 1_655 S
C306 C302 1.397 . S
C306 C305 1.394 . S
C307 H279 0.982 . S
C307 H283 0.979 . S
C307 H284 0.977 . S
C307 C304 1.453 . S
C308 H280 0.979 . S
C308 H281 0.980 . S
C308 H282 0.983 . S
C308 C304 1.684 . S
H309 C327 0.948 . S
H310 C268 0.948 . S
H311 C286 0.962 1_455 S
H312 C286 1.015 . S
H313 C286 0.983 . S
H314 C285 0.982 . S
H315 C285 0.979 . S
H316 C285 0.977 . S
H317 C287 0.948 . S
H318 C289 0.947 . S
H319 C290 0.948 . S
H320 C296 0.982 . S
H321 C296 0.979 . S
H322 C296 0.977 . S
H323 C297 0.979 . S
H324 C297 0.980 . S
H325 C297 0.983 . S
H326 C270 0.947 . S
C327 C270 1.392 . S
C327 C271 1.419 . S
C327 H309 0.948 . S
C328 C329 1.391 . S
C328 C332 1.391 . S
C328 H370 0.948 . S
C329 C328 1.391 . S
C329 C330 1.391 . S
C330 C329 1.391 . S
C330 H386 0.947 . S
C330 C387 1.392 . S
C331 C332 1.391 . S
C331 C335 1.397 . S
C331 C387 1.419 . S
C332 C328 1.391 . S
C332 C331 1.391 . S
C332 C333 1.399 . S
C333 C332 1.399 . S
C333 C336 1.397 1_565 S
C333 C345 1.453 1_565 S
C333 C346 1.684 1_565 S
H334 C358 0.948 . S
C335 C331 1.397 . S
C335 C336 1.397 1_565 S
C335 C354 1.723 . S
C336 C333 1.397 1_545 S
C336 C335 1.397 1_545 S
C336 C366 1.721 . S
H337 C360 0.947 . S
H338 C361 0.948 . S
H339 C367 0.982 . S
H340 C368 0.979 . S
H341 C368 0.980 . S
H342 C368 0.983 . S
H343 C367 0.979 . S
H344 C367 0.977 . S
C345 C333 1.453 1_545 S
C345 H374 0.982 . S
C345 H375 0.979 . S
C345 H376 0.977 . S
C346 C333 1.684 1_545 S
C346 H371 0.979 . S
C346 H372 0.980 . S
C346 H373 0.983 . S
C347 C348 1.391 . S
C347 C352 1.391 . S
C347 H377 0.948 . S
C348 C347 1.391 . S
C348 C349 1.391 . S
C349 C348 1.391 . S
C349 C350 1.392 . S
C349 H378 0.947 . S
C350 C349 1.392 . S
C350 C351 1.419 . S
C350 H379 0.948 1_565 S
C351 C350 1.419 . S
C351 C352 1.391 . S
C351 C355 1.397 . S
C352 C347 1.391 . S
C352 C351 1.391 . S
C352 C353 1.399 . S
C353 C352 1.399 . S
C353 C354 1.396 . S
C353 C356 1.453 . S
C353 C357 1.684 . S
C354 C335 1.723 . S
C354 C353 1.396 . S
C354 C355 1.394 . S
C355 C351 1.397 . S
C355 C354 1.394 . S
C355 C365 1.723 1_565 S
C356 C353 1.453 . S
C356 H380 0.982 . S
C356 H381 0.979 . S
C356 H382 0.977 . S
C357 C353 1.684 . S
C357 H383 0.979 . S
C357 H384 0.980 . S
C357 H385 0.983 . S
C358 H334 0.948 . S
C358 C359 1.391 . S
C358 C363 1.391 . S
C359 C358 1.391 . S
C359 C360 1.391 . S
C360 H337 0.947 . S
C360 C359 1.391 . S
C360 C361 1.392 . S
C361 H338 0.948 . S
C361 C360 1.392 . S
C361 C362 1.419 . S
C362 C361 1.419 . S
C362 C363 1.391 . S
C362 C366 1.397 . S
C363 C358 1.391 . S
C363 C362 1.391 . S
C363 C364 1.399 . S
C364 C363 1.399 . S
C364 C365 1.396 . S
C364 C367 1.453 . S
C364 C368 1.684 . S
C365 C355 1.723 1_545 S
C365 C364 1.396 . S
C365 C366 1.394 . S
C366 C336 1.721 . S
C366 C362 1.397 . S
C366 C365 1.394 . S
C367 H339 0.982 . S
C367 H343 0.979 . S
C367 H344 0.977 . S
C367 C364 1.453 . S
C368 H340 0.979 . S
C368 H341 0.980 . S
C368 H342 0.983 . S
C368 C364 1.684 . S
H369 C387 0.948 . S
H370 C328 0.948 . S
H371 C346 0.979 . S
H372 C346 0.980 . S
H373 C346 0.983 . S
H374 C345 0.982 . S
H375 C345 0.979 . S
H376 C345 0.977 . S
H377 C347 0.948 . S
H378 C349 0.947 . S
H379 C350 0.948 1_545 S
H380 C356 0.982 . S
H381 C356 0.979 . S
H382 C356 0.977 . S
H383 C357 0.979 . S
H384 C357 0.980 . S
H385 C357 0.983 . S
H386 C330 0.947 . S
C387 C330 1.392 . S
C387 C331 1.419 . S
C387 H369 0.948 . S
C388 C389 1.391 . S
C388 C392 1.391 . S
C388 H430 0.948 . S
C389 C388 1.391 . S
C389 C390 1.391 . S
C390 C389 1.391 . S
C390 H446 0.947 . S
C390 C447 1.392 . S
C391 C392 1.391 . S
C391 C395 1.397 . S
C391 C447 1.419 . S
C392 C388 1.391 . S
C392 C391 1.391 . S
C392 C393 1.399 . S
C393 C392 1.399 . S
C393 C396 1.396 . S
C393 C405 1.453 . S
C393 C406 1.684 . S
H394 C418 0.948 . S
C395 C391 1.397 . S
C395 C396 1.394 . S
C395 C414 1.723 1_554 S
C396 C393 1.396 . S
C396 C395 1.394 . S
C396 C426 1.723 . S
H397 C420 0.947 . S
H398 C421 0.948 . S
H399 C427 0.982 . S
H400 C428 0.979 . S
H401 C428 0.980 . S
H402 C428 0.983 . S
H403 C427 0.979 . S
H404 C427 0.977 . S
C405 C393 1.453 . S
C405 H434 0.982 . S
C405 H435 0.979 . S
C405 H436 0.977 . S
C406 C393 1.684 . S
C406 H431 0.979 . S
C406 H432 0.980 . S
C406 H433 0.983 . S
C407 C408 1.391 . S
C407 C412 1.391 . S
C407 H437 0.948 . S
C408 C407 1.391 . S
C408 C409 1.391 . S
C409 C408 1.391 . S
C409 C410 1.392 . S
C409 H438 0.947 . S
C410 C409 1.392 . S
C410 C411 1.419 . S
C410 H439 0.948 . S
C411 C410 1.419 . S
C411 C412 1.391 . S
C411 C415 1.397 . S
C412 C407 1.391 . S
C412 C411 1.391 . S
C412 C413 1.399 . S
C413 C412 1.399 . S
C413 C414 1.396 . S
C413 C416 1.453 . S
C413 C417 1.684 . S
C414 C395 1.723 1_556 S
C414 C413 1.396 . S
C414 C415 1.394 . S
C415 C411 1.397 . S
C415 C414 1.394 . S
C415 C425 1.723 . S
C416 C413 1.453 . S
C416 H440 0.982 . S
C416 H441 0.979 . S
C416 H442 0.977 1_556 S
C417 C413 1.684 . S
C417 H443 0.979 . S
C417 H444 0.980 1_556 S
C417 H445 0.983 . S
C418 H394 0.948 . S
C418 C419 1.391 1_556 S
C418 C423 1.391 . S
C419 C418 1.391 1_554 S
C419 C420 1.391 . S
C420 H397 0.947 . S
C420 C419 1.391 . S
C420 C421 1.392 . S
C421 H398 0.948 . S
C421 C420 1.392 . S
C421 C422 1.419 . S
C422 C421 1.419 . S
C422 C423 1.391 1_554 S
C422 C426 1.397 . S
C423 C418 1.391 . S
C423 C422 1.391 1_556 S
C423 C424 1.399 . S
C424 C423 1.399 . S
C424 C425 1.396 . S
C424 C427 1.453 . S
C424 C428 1.684 . S
C425 C415 1.723 . S
C425 C424 1.396 . S
C425 C426 1.394 1_556 S
C426 C396 1.723 . S
C426 C422 1.397 . S
C426 C425 1.394 1_554 S
C427 H399 0.982 . S
C427 H403 0.979 . S
C427 H404 0.977 . S
C427 C424 1.453 . S
C428 H400 0.979 . S
C428 H401 0.980 . S
C428 H402 0.983 . S
C428 C424 1.684 . S
H429 C447 0.948 . S
H430 C388 0.948 . S
H431 C406 0.979 . S
H432 C406 0.980 . S
H433 C406 0.983 . S
H434 C405 0.982 . S
H435 C405 0.979 . S
H436 C405 0.977 . S
H437 C407 0.948 . S
H438 C409 0.947 . S
H439 C410 0.948 . S
H440 C416 0.982 . S
H441 C416 0.979 . S
H442 C416 0.977 1_554 S
H443 C417 0.979 . S
H444 C417 0.980 1_554 S
H445 C417 0.983 . S
H446 C390 0.947 . S
C447 C390 1.392 . S
C447 C391 1.419 . S
C447 H429 0.948 . S
C448 C449 1.391 . S
C448 C452 1.391 . S
C448 H490 0.948 . S
C449 C448 1.391 . S
C449 C450 1.391 . S
C450 C449 1.391 . S
C450 H506 0.947 . S
C450 C507 1.392 . S
C451 C452 1.391 . S
C451 C455 1.397 . S
C451 C507 1.419 . S
C452 C448 1.391 . S
C452 C451 1.391 . S
C452 C453 1.399 . S
C453 C452 1.399 . S
C453 C456 1.396 . S
C453 C465 1.453 1_545 S
C453 C466 1.684 1_545 S
H454 C478 0.948 . S
C455 C451 1.397 . S
C455 C456 1.394 . S
C455 C474 1.723 . S
C456 C453 1.396 . S
C456 C455 1.394 . S
C456 C486 1.723 1_545 S
H457 C480 0.947 . S
H458 C481 0.948 . S
H459 C487 0.982 . S
H460 C488 0.979 . S
H461 C488 0.980 . S
H462 C488 0.983 . S
H463 C487 0.979 . S
H464 C487 0.977 . S
C465 C453 1.453 1_565 S
C465 H494 0.982 1_565 S
C465 H495 0.979 . S
C465 H496 0.977 . S
C466 C453 1.684 1_565 S
C466 H491 0.979 . S
C466 H492 0.980 . S
C466 H493 0.983 . S
C467 C468 1.391 . S
C467 C472 1.391 . S
C467 H497 0.948 . S
C468 C467 1.391 . S
C468 C469 1.391 . S
C469 C468 1.391 . S
C469 C470 1.392 . S
C469 H498 0.947 . S
C470 C469 1.392 . S
C470 C471 1.419 . S
C470 H499 0.948 . S
C471 C470 1.419 . S
C471 C472 1.391 . S
C471 C475 1.397 . S
C472 C467 1.391 . S
C472 C471 1.391 . S
C472 C473 1.399 . S
C473 C472 1.399 . S
C473 C474 1.396 . S
C473 C476 1.453 . S
C473 C477 1.684 . S
C474 C455 1.723 . S
C474 C473 1.396 . S
C474 C475 1.394 . S
C475 C471 1.397 . S
C475 C474 1.394 . S
C475 C485 1.723 1_545 S
C476 C473 1.453 . S
C476 H500 0.982 . S
C476 H501 0.979 . S
C476 H502 0.977 . S
C477 C473 1.684 . S
C477 H503 0.979 . S
C477 H504 0.980 . S
C477 H505 0.983 . S
C478 H454 0.948 . S
C478 C479 1.391 . S
C478 C483 1.391 . S
C479 C478 1.391 . S
C479 C480 1.391 . S
C480 H457 0.947 . S
C480 C479 1.391 . S
C480 C481 1.392 . S
C481 H458 0.948 . S
C481 C480 1.392 . S
C481 C482 1.419 . S
C482 C481 1.419 . S
C482 C483 1.391 . S
C482 C486 1.397 . S
C483 C478 1.391 . S
C483 C482 1.391 . S
C483 C484 1.399 . S
C484 C483 1.399 . S
C484 C485 1.396 . S
C484 C487 1.453 . S
C484 C488 1.684 . S
C485 C475 1.723 1_565 S
C485 C484 1.396 . S
C485 C486 1.394 . S
C486 C456 1.723 1_565 S
C486 C482 1.397 . S
C486 C485 1.394 . S
C487 H459 0.982 . S
C487 H463 0.979 . S
C487 H464 0.977 . S
C487 C484 1.453 . S
C488 H460 0.979 . S
C488 H461 0.980 . S
C488 H462 0.983 . S
C488 C484 1.684 . S
H489 C507 0.948 . S
H490 C448 0.948 . S
H491 C466 0.979 . S
H492 C466 0.980 . S
H493 C466 0.983 . S
H494 C465 0.982 1_545 S
H495 C465 0.979 . S
H496 C465 0.977 . S
H497 C467 0.948 . S
H498 C469 0.947 . S
H499 C470 0.948 . S
H500 C476 0.982 . S
H501 C476 0.979 . S
H502 C476 0.977 . S
H503 C477 0.979 . S
H504 C477 0.980 . S
H505 C477 0.983 . S
H506 C450 0.947 . S
C507 C450 1.392 . S
C507 C451 1.419 . S
C507 H489 0.948 . S
C508 C509 1.391 1_554 S
C508 C512 1.391 . S
C508 H550 0.948 . S
C509 C508 1.391 1_556 S
C509 C510 1.391 . S
C510 C509 1.391 . S
C510 H566 0.947 . S
C510 C567 1.392 . S
C511 C512 1.391 1_556 S
C511 C515 1.397 . S
C511 C567 1.419 . S
C512 C508 1.391 . S
C512 C511 1.391 1_554 S
C512 C513 1.399 . S
C513 C512 1.399 . S
C513 C516 1.396 . S
C513 C525 1.453 . S
C513 C526 1.684 . S
H514 C538 0.948 . S
C515 C511 1.397 . S
C515 C516 1.394 1_556 S
C515 C534 1.723 . S
C516 C513 1.396 . S
C516 C515 1.394 1_554 S
C516 C546 1.723 . S
H517 C540 0.947 . S
H518 C541 0.948 . S
H519 C547 0.982 . S
H520 C548 0.979 . S
H521 C548 0.980 1_556 S
H522 C548 0.983 . S
H523 C547 0.979 . S
H524 C547 0.977 1_556 S
C525 C513 1.453 . S
C525 H554 0.982 . S
C525 H555 0.979 . S
C525 H556 0.977 . S
C526 C513 1.684 . S
C526 H551 0.979 . S
C526 H552 0.980 . S
C526 H553 0.983 . S
C527 C528 1.391 . S
C527 C532 1.391 . S
C527 H557 0.948 . S
C528 C527 1.391 . S
C528 C529 1.391 . S
C529 C528 1.391 . S
C529 C530 1.392 . S
C529 H558 0.947 . S
C530 C529 1.392 . S
C530 C531 1.419 . S
C530 H559 0.948 . S
C531 C530 1.419 . S
C531 C532 1.391 . S
C531 C535 1.397 . S
C532 C527 1.391 . S
C532 C531 1.391 . S
C532 C533 1.399 . S
C533 C532 1.399 . S
C533 C534 1.396 . S
C533 C536 1.453 . S
C533 C537 1.684 . S
C534 C515 1.723 . S
C534 C533 1.396 . S
C534 C535 1.394 . S
C535 C531 1.397 . S
C535 C534 1.394 . S
C535 C545 1.723 1_556 S
C536 C533 1.453 . S
C536 H560 0.982 . S
C536 H561 0.979 . S
C536 H562 0.977 . S
C537 C533 1.684 . S
C537 H563 0.979 . S
C537 H564 0.980 . S
C537 H565 0.983 . S
C538 H514 0.948 . S
C538 C539 1.391 . S
C538 C543 1.391 . S
C539 C538 1.391 . S
C539 C540 1.391 . S
C540 H517 0.947 . S
C540 C539 1.391 . S
C540 C541 1.392 . S
C541 H518 0.948 . S
C541 C540 1.392 . S
C541 C542 1.419 . S
C542 C541 1.419 . S
C542 C543 1.391 . S
C542 C546 1.397 . S
C543 C538 1.391 . S
C543 C542 1.391 . S
C543 C544 1.399 . S
C544 C543 1.399 . S
C544 C545 1.396 . S
C544 C547 1.453 . S
C544 C548 1.684 . S
C545 C535 1.723 1_554 S
C545 C544 1.396 . S
C545 C546 1.394 . S
C546 C516 1.723 . S
C546 C542 1.397 . S
C546 C545 1.394 . S
C547 H519 0.982 . S
C547 H523 0.979 . S
C547 H524 0.977 1_554 S
C547 C544 1.453 . S
C548 H520 0.979 . S
C548 H521 0.980 1_554 S
C548 H522 0.983 . S
C548 C544 1.684 . S
H549 C567 0.948 . S
H550 C508 0.948 . S
H551 C526 0.979 . S
H552 C526 0.980 . S
H553 C526 0.983 . S
H554 C525 0.982 . S
H555 C525 0.979 . S
H556 C525 0.977 . S
H557 C527 0.948 . S
H558 C529 0.947 . S
H559 C530 0.948 . S
H560 C536 0.982 . S
H561 C536 0.979 . S
H562 C536 0.977 . S
H563 C537 0.979 . S
H564 C537 0.980 . S
H565 C537 0.983 . S
H566 C510 0.947 . S
C567 C510 1.392 . S
C567 C511 1.419 . S
C567 H549 0.948 . S
H568 C574 0.930 . S
H569 C577 0.930 . S
H570 C578 0.930 . S
H571 C579 0.930 . S
H572 C582 0.930 . S
H573 C583 0.930 . S
C574 H568 0.930 . S
C574 C575 1.355 . S
C574 C576 1.415 . S
C575 C574 1.355 . S
C575 C577 1.419 . S
C576 C574 1.415 . S
C576 C581 1.425 . S
C576 C583 1.409 . S
C577 H569 0.930 . S
C577 C575 1.419 . S
C577 C578 1.362 . S
C578 H570 0.930 . S
C578 C577 1.362 . S
C578 C581 1.409 . S
C579 H571 0.930 . S
C579 C580 1.355 . S
C579 C581 1.415 . S
C580 C579 1.355 . S
C580 C582 1.419 . S
C581 C576 1.425 . S
C581 C578 1.409 . S
C581 C579 1.415 . S
C582 H572 0.930 . S
C582 C580 1.419 . S
C582 C583 1.362 . S
C583 H573 0.930 . S
C583 C576 1.409 . S
C583 C582 1.362 . S
H584 C590 0.930 . S
H585 C593 0.930 . S
H586 C594 0.930 . S
H587 C595 0.930 . S
H588 C598 0.930 . S
H589 C599 0.930 . S
C590 H584 0.930 . S
C590 C591 1.355 . S
C590 C592 1.415 . S
C591 C590 1.355 . S
C591 C593 1.419 . S
C592 C590 1.415 . S
C592 C597 1.425 . S
C592 C599 1.409 . S
C593 H585 0.930 . S
C593 C591 1.419 . S
C593 C594 1.362 . S
C594 H586 0.930 . S
C594 C593 1.362 . S
C594 C597 1.409 . S
C595 H587 0.930 . S
C595 C596 1.355 . S
C595 C597 1.415 . S
C596 C595 1.355 . S
C596 C598 1.419 . S
C597 C592 1.425 . S
C597 C594 1.409 . S
C597 C595 1.415 . S
C598 H588 0.930 . S
C598 C596 1.419 . S
C598 C599 1.362 . S
C599 H589 0.930 . S
C599 C592 1.409 . S
C599 C598 1.362 . S
H600 C606 0.930 . S
H601 C609 0.930 . S
H602 C610 0.930 . S
H603 C611 0.930 . S
H604 C614 0.930 . S
H605 C615 0.930 . S
C606 H600 0.930 . S
C606 C607 1.355 . S
C606 C608 1.415 . S
C607 C606 1.355 . S
C607 C609 1.419 . S
C608 C606 1.415 . S
C608 C613 1.425 . S
C608 C615 1.409 . S
C609 H601 0.930 . S
C609 C607 1.419 . S
C609 C610 1.362 . S
C610 H602 0.930 . S
C610 C609 1.362 . S
C610 C613 1.409 . S
C611 H603 0.930 . S
C611 C612 1.355 . S
C611 C613 1.415 . S
C612 C611 1.355 . S
C612 C614 1.419 . S
C613 C608 1.425 . S
C613 C610 1.409 . S
C613 C611 1.415 . S
C614 H604 0.930 . S
C614 C612 1.419 . S
C614 C615 1.362 . S
C615 H605 0.930 . S
C615 C608 1.409 . S
C615 C614 1.362 . S
H616 C622 0.930 . S
H617 C625 0.930 . S
H618 C626 0.930 . S
H619 C627 0.930 . S
H620 C630 0.930 . S
H621 C631 0.930 . S
C622 H616 0.930 . S
C622 C623 1.355 . S
C622 C624 1.415 . S
C623 C622 1.355 . S
C623 C625 1.419 . S
C624 C622 1.415 . S
C624 C629 1.425 . S
C624 C631 1.409 . S
C625 H617 0.930 . S
C625 C623 1.419 . S
C625 C626 1.362 . S
C626 H618 0.930 . S
C626 C625 1.362 . S
C626 C629 1.409 . S
C627 H619 0.930 . S
C627 C628 1.355 . S
C627 C629 1.415 . S
C628 C627 1.355 . S
C628 C630 1.419 . S
C629 C624 1.425 . S
C629 C626 1.409 . S
C629 C627 1.415 . S
C630 H620 0.930 . S
C630 C628 1.419 . S
C630 C631 1.362 . S
C631 H621 0.930 . S
C631 C624 1.409 . S
C631 C630 1.362 . S
H632 C638 0.930 . S
H633 C641 0.930 . S
H634 C642 0.930 . S
H635 C643 0.930 . S
H636 C646 0.930 . S
H637 C647 0.930 . S
C638 H632 0.930 . S
C638 C639 1.355 . S
C638 C640 1.415 . S
C639 C638 1.355 . S
C639 C641 1.419 . S
C640 C638 1.415 . S
C640 C645 1.425 . S
C640 C647 1.409 . S
C641 H633 0.930 . S
C641 C639 1.419 . S
C641 C642 1.362 . S
C642 H634 0.930 . S
C642 C641 1.362 . S
C642 C645 1.409 . S
C643 H635 0.930 . S
C643 C644 1.355 . S
C643 C645 1.415 . S
C644 C643 1.355 . S
C644 C646 1.419 . S
C645 C640 1.425 . S
C645 C642 1.409 . S
C645 C643 1.415 . S
C646 H636 0.930 . S
C646 C644 1.419 . S
C646 C647 1.362 . S
C647 H637 0.930 . S
C647 C640 1.409 . S
C647 C646 1.362 . S
H648 C654 0.930 . S
H649 C657 0.930 . S
H650 C658 0.930 . S
H651 C659 0.930 . S
H652 C662 0.930 . S
H653 C663 0.930 . S
C654 H648 0.930 . S
C654 C655 1.355 . S
C654 C656 1.415 . S
C655 C654 1.355 . S
C655 C657 1.419 . S
C656 C654 1.415 . S
C656 C661 1.425 . S
C656 C663 1.409 . S
C657 H649 0.930 . S
C657 C655 1.419 . S
C657 C658 1.362 . S
C658 H650 0.930 . S
C658 C657 1.362 . S
C658 C661 1.409 . S
C659 H651 0.930 . S
C659 C660 1.355 . S
C659 C661 1.415 . S
C660 C659 1.355 . S
C660 C662 1.419 . S
C661 C656 1.425 . S
C661 C658 1.409 . S
C661 C659 1.415 . S
C662 H652 0.930 . S
C662 C660 1.419 . S
C662 C663 1.362 . S
C663 H653 0.930 . S
C663 C656 1.409 . S
C663 C662 1.362 . S
H664 C670 0.930 . S
H665 C673 0.930 . S
H666 C674 0.930 . S
H667 C675 0.930 . S
H668 C678 0.930 . S
H669 C679 0.930 . S
C670 H664 0.930 . S
C670 C671 1.355 . S
C670 C672 1.415 . S
C671 C670 1.355 . S
C671 C673 1.419 . S
C672 C670 1.415 . S
C672 C677 1.425 . S
C672 C679 1.409 . S
C673 H665 0.930 . S
C673 C671 1.419 . S
C673 C674 1.362 . S
C674 H666 0.930 . S
C674 C673 1.362 . S
C674 C677 1.409 . S
C675 H667 0.930 . S
C675 C676 1.355 . S
C675 C677 1.415 . S
C676 C675 1.355 . S
C676 C678 1.419 . S
C677 C672 1.425 . S
C677 C674 1.409 . S
C677 C675 1.415 . S
C678 H668 0.930 . S
C678 C676 1.419 . S
C678 C679 1.362 . S
C679 H669 0.930 . S
C679 C672 1.409 . S
C679 C678 1.362 . S
H680 C686 0.930 . S
H681 C689 0.930 . S
H682 C690 0.930 . S
H683 C691 0.930 . S
H684 C694 0.930 . S
H685 C695 0.930 . S
C686 H680 0.930 . S
C686 C687 1.355 . S
C686 C688 1.415 . S
C687 C686 1.355 . S
C687 C689 1.419 . S
C688 C686 1.415 . S
C688 C693 1.425 . S
C688 C695 1.409 . S
C689 H681 0.930 . S
C689 C687 1.419 . S
C689 C690 1.362 . S
C690 H682 0.930 . S
C690 C689 1.362 . S
C690 C693 1.409 . S
C691 H683 0.930 . S
C691 C692 1.355 . S
C691 C693 1.415 . S
C692 C691 1.355 . S
C692 C694 1.419 . S
C693 C688 1.425 . S
C693 C690 1.409 . S
C693 C691 1.415 . S
C694 H684 0.930 . S
C694 C692 1.419 . S
C694 C695 1.362 . S
C695 H685 0.930 . S
C695 C688 1.409 . S
C695 C694 1.362 . S
H696 C702 0.930 . S
H697 C705 0.930 . S
H698 C706 0.930 . S
H699 C707 0.930 . S
H700 C710 0.930 . S
H701 C711 0.930 . S
C702 H696 0.930 . S
C702 C703 1.355 . S
C702 C704 1.415 . S
C703 C702 1.355 . S
C703 C705 1.419 . S
C704 C702 1.415 . S
C704 C709 1.425 . S
C704 C711 1.409 . S
C705 H697 0.930 . S
C705 C703 1.419 . S
C705 C706 1.362 . S
C706 H698 0.930 . S
C706 C705 1.362 . S
C706 C709 1.409 . S
C707 H699 0.930 . S
C707 C708 1.355 . S
C707 C709 1.415 . S
C708 C707 1.355 . S
C708 C710 1.419 . S
C709 C704 1.425 . S
C709 C706 1.409 . S
C709 C707 1.415 . S
C710 H700 0.930 . S
C710 C708 1.419 . S
C710 C711 1.362 . S
C711 H701 0.930 . S
C711 C704 1.409 . S
C711 C710 1.362 . S
H712 C718 0.930 . S
H713 C721 0.930 . S
H714 C722 0.930 . S
H715 C723 0.930 . S
H716 C726 0.930 . S
H717 C727 0.930 . S
C718 H712 0.930 . S
C718 C719 1.355 . S
C718 C720 1.415 . S
C719 C718 1.355 . S
C719 C721 1.419 . S
C720 C718 1.415 . S
C720 C725 1.425 . S
C720 C727 1.409 . S
C721 H713 0.930 . S
C721 C719 1.419 . S
C721 C722 1.362 . S
C722 H714 0.930 . S
C722 C721 1.362 . S
C722 C725 1.409 . S
C723 H715 0.930 . S
C723 C724 1.355 . S
C723 C725 1.415 . S
C724 C723 1.355 . S
C724 C726 1.419 . S
C725 C720 1.425 . S
C725 C722 1.409 . S
C725 C723 1.415 . S
C726 H716 0.930 . S
C726 C724 1.419 . S
C726 C727 1.362 . S
C727 H717 0.930 . S
C727 C720 1.409 . S
C727 C726 1.362 . S
H728 C734 0.930 . S
H729 C737 0.930 . S
H730 C738 0.930 . S
H731 C739 0.930 . S
H732 C742 0.930 . S
H733 C743 0.930 . S
C734 H728 0.930 . S
C734 C735 1.355 . S
C734 C736 1.415 . S
C735 C734 1.355 . S
C735 C737 1.419 . S
C736 C734 1.415 . S
C736 C741 1.425 . S
C736 C743 1.409 . S
C737 H729 0.930 . S
C737 C735 1.419 . S
C737 C738 1.362 . S
C738 H730 0.930 . S
C738 C737 1.362 . S
C738 C741 1.409 . S
C739 H731 0.930 . S
C739 C740 1.355 . S
C739 C741 1.415 . S
C740 C739 1.355 . S
C740 C742 1.419 . S
C741 C736 1.425 . S
C741 C738 1.409 . S
C741 C739 1.415 . S
C742 H732 0.930 . S
C742 C740 1.419 . S
C742 C743 1.362 . S
C743 H733 0.930 . S
C743 C736 1.409 . S
C743 C742 1.362 . S
H744 C750 0.930 . S
H745 C753 0.930 . S
H746 C754 0.930 . S
H747 C755 0.930 . S
H748 C758 0.930 . S
H749 C759 0.930 . S
C750 H744 0.930 . S
C750 C751 1.355 . S
C750 C752 1.415 . S
C751 C750 1.355 . S
C751 C753 1.419 . S
C752 C750 1.415 . S
C752 C757 1.425 . S
C752 C759 1.409 . S
C753 H745 0.930 . S
C753 C751 1.419 . S
C753 C754 1.362 . S
C754 H746 0.930 . S
C754 C753 1.362 . S
C754 C757 1.409 . S
C755 H747 0.930 . S
C755 C756 1.355 . S
C755 C757 1.415 . S
C756 C755 1.355 . S
C756 C758 1.419 . S
C757 C752 1.425 . S
C757 C754 1.409 . S
C757 C755 1.415 . S
C758 H748 0.930 . S
C758 C756 1.419 . S
C758 C759 1.362 . S
C759 H749 0.930 . S
C759 C752 1.409 . S
C759 C758 1.362 . S
H760 C766 0.930 . S
H761 C769 0.930 . S
H762 C770 0.930 . S
H763 C771 0.930 . S
H764 C774 0.930 . S
H765 C775 0.930 . S
C766 H760 0.930 . S
C766 C767 1.355 . S
C766 C768 1.415 . S
C767 C766 1.355 . S
C767 C769 1.419 . S
C768 C766 1.415 . S
C768 C773 1.425 . S
C768 C775 1.409 . S
C769 H761 0.930 . S
C769 C767 1.419 . S
C769 C770 1.362 . S
C770 H762 0.930 . S
C770 C769 1.362 . S
C770 C773 1.409 . S
C771 H763 0.930 . S
C771 C772 1.355 . S
C771 C773 1.415 . S
C772 C771 1.355 . S
C772 C774 1.419 . S
C773 C768 1.425 . S
C773 C770 1.409 . S
C773 C771 1.415 . S
C774 H764 0.930 . S
C774 C772 1.419 . S
C774 C775 1.362 . S
C775 H765 0.930 . S
C775 C768 1.409 . S
C775 C774 1.362 . S
H776 C782 0.930 . S
H777 C785 0.930 . S
H778 C786 0.930 . S
H779 C787 0.930 . S
H780 C790 0.930 . S
H781 C791 0.930 . S
C782 H776 0.930 . S
C782 C783 1.355 . S
C782 C784 1.415 . S
C783 C782 1.355 . S
C783 C785 1.419 . S
C784 C782 1.415 . S
C784 C789 1.425 . S
C784 C791 1.409 . S
C785 H777 0.930 . S
C785 C783 1.419 . S
C785 C786 1.362 . S
C786 H778 0.930 . S
C786 C785 1.362 . S
C786 C789 1.409 . S
C787 H779 0.930 . S
C787 C788 1.355 . S
C787 C789 1.415 . S
C788 C787 1.355 . S
C788 C790 1.419 . S
C789 C784 1.425 . S
C789 C786 1.409 . S
C789 C787 1.415 . S
C790 H780 0.930 . S
C790 C788 1.419 . S
C790 C791 1.362 . S
C791 H781 0.930 . S
C791 C784 1.409 . S
C791 C790 1.362 . S
H792 C798 0.930 . S
H793 C801 0.930 . S
H794 C802 0.930 . S
H795 C803 0.930 . S
H796 C806 0.930 . S
H797 C807 0.930 . S
C798 H792 0.930 . S
C798 C799 1.355 . S
C798 C800 1.415 . S
C799 C798 1.355 . S
C799 C801 1.419 . S
C800 C798 1.415 . S
C800 C805 1.425 . S
C800 C807 1.409 . S
C801 H793 0.930 . S
C801 C799 1.419 . S
C801 C802 1.362 . S
C802 H794 0.930 . S
C802 C801 1.362 . S
C802 C805 1.409 . S
C803 H795 0.930 . S
C803 C804 1.355 . S
C803 C805 1.415 . S
C804 C803 1.355 . S
C804 C806 1.419 . S
C805 C800 1.425 . S
C805 C802 1.409 . S
C805 C803 1.415 . S
C806 H796 0.930 . S
C806 C804 1.419 . S
C806 C807 1.362 . S
C807 H797 0.930 . S
C807 C800 1.409 . S
C807 C806 1.362 . S
H808 C814 0.930 . S
H809 C817 0.930 . S
H810 C818 0.930 . S
H811 C819 0.930 . S
H812 C822 0.930 . S
H813 C823 0.930 . S
C814 H808 0.930 . S
C814 C815 1.355 . S
C814 C816 1.415 . S
C815 C814 1.355 . S
C815 C817 1.419 . S
C816 C814 1.415 . S
C816 C821 1.425 . S
C816 C823 1.409 . S
C817 H809 0.930 . S
C817 C815 1.419 . S
C817 C818 1.362 . S
C818 H810 0.930 . S
C818 C817 1.362 . S
C818 C821 1.409 . S
C819 H811 0.930 . S
C819 C820 1.355 . S
C819 C821 1.415 . S
C820 C819 1.355 . S
C820 C822 1.419 . S
C821 C816 1.425 . S
C821 C818 1.409 . S
C821 C819 1.415 . S
C822 H812 0.930 . S
C822 C820 1.419 . S
C822 C823 1.362 . S
C823 H813 0.930 . S
C823 C816 1.409 . S
C823 C822 1.362 . S
H824 C830 0.930 . S
H825 C833 0.930 . S
H826 C834 0.930 . S
H827 C835 0.930 . S
H828 C838 0.930 . S
H829 C839 0.930 . S
C830 H824 0.930 . S
C830 C831 1.355 1_556 S
C830 C832 1.415 . S
C831 C830 1.355 1_554 S
C831 C833 1.419 . S
C832 C830 1.415 . S
C832 C837 1.425 1_556 S
C832 C839 1.409 . S
C833 H825 0.930 . S
C833 C831 1.419 . S
C833 C834 1.362 . S
C834 H826 0.930 . S
C834 C833 1.362 . S
C834 C837 1.409 . S
C835 H827 0.930 . S
C835 C836 1.355 1_554 S
C835 C837 1.415 . S
C836 C835 1.355 1_556 S
C836 C838 1.419 . S
C837 C832 1.425 1_554 S
C837 C834 1.409 . S
C837 C835 1.415 . S
C838 H828 0.930 . S
C838 C836 1.419 . S
C838 C839 1.362 . S
C839 H829 0.930 . S
C839 C832 1.409 . S
C839 C838 1.362 . S
H840 C846 0.930 . S
H841 C849 0.930 . S
H842 C850 0.930 . S
H843 C851 0.930 . S
H844 C854 0.930 . S
H845 C855 0.930 . S
C846 H840 0.930 . S
C846 C847 1.355 . S
C846 C848 1.415 . S
C847 C846 1.355 . S
C847 C849 1.419 . S
C848 C846 1.415 . S
C848 C853 1.425 . S
C848 C855 1.409 . S
C849 H841 0.930 . S
C849 C847 1.419 . S
C849 C850 1.362 . S
C850 H842 0.930 . S
C850 C849 1.362 . S
C850 C853 1.409 . S
C851 H843 0.930 . S
C851 C852 1.355 . S
C851 C853 1.415 . S
C852 C851 1.355 . S
C852 C854 1.419 . S
C853 C848 1.425 . S
C853 C850 1.409 . S
C853 C851 1.415 . S
C854 H844 0.930 . S
C854 C852 1.419 . S
C854 C855 1.362 . S
C855 H845 0.930 . S
C855 C848 1.409 . S
C855 C854 1.362 . S
H856 C862 0.930 . S
H857 C865 0.930 . S
H858 C866 0.930 . S
H859 C867 0.930 . S
H860 C870 0.930 . S
H861 C871 0.930 . S
C862 H856 0.930 . S
C862 C863 1.355 1_556 S
C862 C864 1.415 . S
C863 C862 1.355 1_554 S
C863 C865 1.419 . S
C864 C862 1.415 . S
C864 C869 1.425 1_556 S
C864 C871 1.409 . S
C865 H857 0.930 . S
C865 C863 1.419 . S
C865 C866 1.362 . S
C866 H858 0.930 . S
C866 C865 1.362 . S
C866 C869 1.409 . S
C867 H859 0.930 . S
C867 C868 1.349 1_554 S
C867 C869 1.415 . S
C868 C867 1.349 1_556 S
C868 C870 1.426 . S
C869 C864 1.425 1_554 S
C869 C866 1.409 . S
C869 C867 1.415 . S
C870 H860 0.930 . S
C870 C868 1.426 . S
C870 C871 1.362 . S
C871 H861 0.930 . S
C871 C864 1.409 . S
C871 C870 1.362 . S
H872 C878 0.930 . S
H873 C881 0.930 . S
H874 C882 0.930 . S
H875 C883 0.930 . S
H876 C886 0.930 . S
H877 C887 0.930 . S
C878 H872 0.930 . S
C878 C879 1.355 . S
C878 C880 1.415 . S
C879 C878 1.355 . S
C879 C881 1.419 . S
C880 C878 1.415 . S
C880 C885 1.425 . S
C880 C887 1.409 . S
C881 H873 0.930 . S
C881 C879 1.419 . S
C881 C882 1.362 . S
C882 H874 0.930 . S
C882 C881 1.362 . S
C882 C885 1.409 . S
C883 H875 0.930 . S
C883 C884 1.355 . S
C883 C885 1.415 . S
C884 C883 1.355 . S
C884 C886 1.419 . S
C885 C880 1.425 . S
C885 C882 1.409 . S
C885 C883 1.415 . S
C886 H876 0.930 . S
C886 C884 1.419 . S
C886 C887 1.362 . S
C887 H877 0.930 . S
C887 C880 1.409 . S
C887 C886 1.362 . S
H888 C894 0.930 . S
H889 C897 0.930 . S
H890 C898 0.930 . S
H891 C899 0.930 . S
H892 C902 0.930 . S
H893 C903 0.930 . S
C894 H888 0.930 . S
C894 C895 1.355 . S
C894 C896 1.415 . S
C895 C894 1.355 . S
C895 C897 1.419 . S
C896 C894 1.415 . S
C896 C901 1.425 . S
C896 C903 1.409 . S
C897 H889 0.930 . S
C897 C895 1.419 . S
C897 C898 1.362 . S
C898 H890 0.930 . S
C898 C897 1.362 . S
C898 C901 1.409 . S
C899 H891 0.930 . S
C899 C900 1.355 . S
C899 C901 1.415 . S
C900 C899 1.355 . S
C900 C902 1.419 . S
C901 C896 1.425 . S
C901 C898 1.409 . S
C901 C899 1.415 . S
C902 H892 0.930 . S
C902 C900 1.419 . S
C902 C903 1.362 . S
C903 H893 0.930 . S
C903 C896 1.409 . S
C903 C902 1.362 . S
H904 C910 0.930 . S
H905 C913 0.930 . S
H906 C914 0.930 . S
H907 C915 0.930 . S
H908 C918 0.930 . S
H909 C919 0.930 . S
C910 H904 0.930 . S
C910 C911 1.355 1_554 S
C910 C912 1.415 . S
C911 C910 1.355 1_556 S
C911 C913 1.419 . S
C912 C910 1.415 . S
C912 C917 1.425 1_554 S
C912 C919 1.409 . S
C913 H905 0.930 . S
C913 C911 1.419 . S
C913 C914 1.362 . S
C914 H906 0.930 . S
C914 C913 1.362 . S
C914 C917 1.409 . S
C915 H907 0.930 . S
C915 C916 1.355 1_556 S
C915 C917 1.415 . S
C916 C915 1.355 1_554 S
C916 C918 1.419 . S
C917 C912 1.425 1_556 S
C917 C914 1.409 . S
C917 C915 1.415 . S
C918 H908 0.930 . S
C918 C916 1.419 . S
C918 C919 1.362 . S
C919 H909 0.930 . S
C919 C912 1.409 . S
C919 C918 1.362 . S
H920 C926 0.930 . S
H921 C929 0.930 . S
H922 C930 0.930 . S
H923 C931 0.930 . S
H924 C934 0.930 . S
H925 C935 0.930 . S
C926 H920 0.930 . S
C926 C927 1.355 . S
C926 C928 1.415 . S
C927 C926 1.355 . S
C927 C929 1.419 . S
C928 C926 1.415 . S
C928 C933 1.425 . S
C928 C935 1.409 . S
C929 H921 0.930 . S
C929 C927 1.419 . S
C929 C930 1.362 . S
C930 H922 0.930 . S
C930 C929 1.362 . S
C930 C933 1.409 . S
C931 H923 0.930 . S
C931 C932 1.355 . S
C931 C933 1.415 . S
C932 C931 1.355 . S
C932 C934 1.419 . S
C933 C928 1.425 . S
C933 C930 1.409 . S
C933 C931 1.415 . S
C934 H924 0.930 . S
C934 C932 1.419 . S
C934 C935 1.362 . S
C935 H925 0.930 . S
C935 C928 1.409 . S
C935 C934 1.362 . S
H936 C942 0.930 . S
H937 C945 0.930 . S
H938 C946 0.930 . S
H939 C947 0.930 . S
H940 C950 0.930 . S
H941 C951 0.930 . S
C942 H936 0.930 . S
C942 C943 1.355 1_556 S
C942 C944 1.415 . S
C943 C942 1.355 1_554 S
C943 C945 1.419 . S
C944 C942 1.415 . S
C944 C949 1.425 1_556 S
C944 C951 1.409 . S
C945 H937 0.930 . S
C945 C943 1.419 . S
C945 C946 1.362 . S
C946 H938 0.930 . S
C946 C945 1.362 . S
C946 C949 1.409 . S
C947 H939 0.930 . S
C947 C948 1.355 1_554 S
C947 C949 1.415 . S
C948 C947 1.355 1_556 S
C948 C950 1.419 . S
C949 C944 1.425 1_554 S
C949 C946 1.409 . S
C949 C947 1.415 . S
C950 H940 0.930 . S
C950 C948 1.419 . S
C950 C951 1.362 . S
C951 H941 0.930 . S
C951 C944 1.409 . S
C951 C950 1.362 . S
C575 C21 1.647 . S
C580 C269 1.573 . S
C591 C40 1.766 . S
C596 C89 1.717 . S
C612 C168 1.490 . S
C607 C54 1.626 . S
C623 C73 1.806 . S
C628 C228 1.717 . S
C644 C389 1.458 . S
C639 C74 1.596 . S
C660 C468 1.609 . S
C655 C10 1.757 . S
C676 C539 1.655 . S
C671 C37 1.632 . S
C692 C329 1.692 . S
C687 C65 1.809 . S
C703 C52 1.607 . S
C708 C179 1.511 . S
C719 C87 1.798 . S
C724 C209 1.590 . S
C735 C15 1.656 . S
C740 C288 1.600 . S
C756 C108 1.739 . S
C751 C32 1.761 . S
C767 C29 1.624 . S
C772 C528 1.630 . S
C788 C348 1.755 . S
C783 C59 1.800 . S
C804 C408 1.512 . S
C799 C84 1.607 . S
C815 C8 1.763 . S
C820 C449 1.638 . S
C836 C119 1.788 . S
C831 C7 1.858 . S
C852 C149 1.562 . S
C847 C30 1.668 . S
C863 C62 1.881 . S
C868 C239 1.772 1_556 S
C879 C81 1.672 . S
C884 C299 1.606 . S
C900 C359 1.846 . S
C895 C76 1.881 . S
C911 C18 1.693 . S
C916 C419 1.605 . S
C927 C43 1.859 . S
C932 C479 1.677 . S
C943 C51 1.674 1_554 S
C948 C509 1.660 . S
