# Generated by pormake.
# Topology rtl, (3,6)-cn, num edge types: 1
# Building blocks:
#     Node 0, Type 0, BuildingBlock: ESEHIV_clean_linker_0, # of connection points: 3
#     Node 1, Type 0, BuildingBlock: ESEHIV_clean_linker_0, # of connection points: 3
#     Node 2, Type 0, BuildingBlock: ESEHIV_clean_linker_0, # of connection points: 3
#     Node 3, Type 0, BuildingBlock: ESEHIV_clean_linker_0, # of connection points: 3
#     Node 4, Type 1, BuildingBlock: KUMBOL_clean_sbu_1, # of connection points: 6
#     Node 5, Type 1, BuildingBlock: KUMBOL_clean_sbu_1, # of connection points: 6
#     Edge 6, Type (0, 1), BuildingBlock: XUDNAN_clean_linker_2, # of connection points: 2
#     Edge 7, Type (0, 1), BuildingBlock: XUDNAN_clean_linker_2, # of connection points: 2
#     Edge 8, Type (0, 1), BuildingBlock: XUDNAN_clean_linker_2, # of connection points: 2
#     Edge 9, Type (0, 1), BuildingBlock: XUDNAN_clean_linker_2, # of connection points: 2
#     Edge 10, Type (0, 1), BuildingBlock: XUDNAN_clean_linker_2, # of connection points: 2
#     Edge 11, Type (0, 1), BuildingBlock: XUDNAN_clean_linker_2, # of connection points: 2
#     Edge 12, Type (0, 1), BuildingBlock: XUDNAN_clean_linker_2, # of connection points: 2
#     Edge 13, Type (0, 1), BuildingBlock: XUDNAN_clean_linker_2, # of connection points: 2
#     Edge 14, Type (0, 1), BuildingBlock: XUDNAN_clean_linker_2, # of connection points: 2
#     Edge 15, Type (0, 1), BuildingBlock: XUDNAN_clean_linker_2, # of connection points: 2
#     Edge 16, Type (0, 1), BuildingBlock: XUDNAN_clean_linker_2, # of connection points: 2
#     Edge 17, Type (0, 1), BuildingBlock: XUDNAN_clean_linker_2, # of connection points: 2
# Relax obj value: 0.018
# Max RMSD: 0.117
# Mean RMSD: 0.069
data_MOF--net-rtl--node1-KUMBOL_clean_sbu_1--node2-ESEHIV_clean_linker_0--edge1-XUDNAN_clean_linker_2
_symmetry_space_group_name_H-M    P1
_symmetry_Int_Tables_number       1
_symmetry_cell_setting            triclinic
loop_
_symmetry_equiv_pos_as_xyz
'x, y, z'
_cell_length_a     30.769022
_cell_length_b     31.501446
_cell_length_c     28.018832
_cell_angle_alpha  77.299392
_cell_angle_beta   99.565983
_cell_angle_gamma 90.555571
loop_
_atom_site_label
_atom_site_type_symbol
_atom_site_fract_x
_atom_site_fract_y
_atom_site_fract_z
_atom_type_partial_charge
H0 H 0.13257 0.87409 0.0213 0.0
H1 H 0.24917 0.79855 0.09907 0.0
H2 H 0.21929 0.82613 0.93928 0.0
C3 C 0.1627 0.85669 0.02093 0.0
C4 C 0.17377 0.85337 0.97535 0.0
C5 C 0.18976 0.83712 0.06586 0.0
C6 C 0.22804 0.81347 0.06461 0.0
C7 C 0.23945 0.80965 0.01901 0.0
C8 C 0.21204 0.83001 0.97467 0.0
H9 H 0.63852 0.63367 0.64636 0.0
H10 H 0.72675 0.71716 0.56778 0.0
H11 H 0.71223 0.72698 0.71549 0.0
C12 C 0.66329 0.65843 0.64548 0.0
C13 C 0.67397 0.67815 0.68608 0.0
C14 C 0.68247 0.6722 0.6028 0.0
C15 C 0.71287 0.70584 0.60128 0.0
C16 C 0.72414 0.72604 0.64156 0.0
C17 C 0.70469 0.71152 0.68426 0.0
H18 H 0.8687 0.13805 0.07556 0.0
H19 H 0.79777 0.21791 0.14462 0.0
H20 H 0.77 0.23087 0.98647 0.0
C21 C 0.84326 0.16246 0.0725 0.0
C22 C 0.82082 0.18326 0.0254 0.0
C23 C 0.83471 0.17417 0.1158 0.0
C24 C 0.80297 0.20721 0.11174 0.0
C25 C 0.78042 0.22866 0.06487 0.0
C26 C 0.78849 0.21533 0.02236 0.0
H27 H 0.36916 0.36919 0.44509 0.0
H28 H 0.28335 0.28264 0.52463 0.0
H29 H 0.28878 0.28267 0.37203 0.0
C30 C 0.34575 0.34318 0.44674 0.0
C31 C 0.33067 0.32777 0.40381 0.0
C32 C 0.32907 0.32683 0.49081 0.0
C33 C 0.29798 0.29372 0.49163 0.0
C34 C 0.28332 0.27692 0.44935 0.0
C35 C 0.29995 0.29443 0.40541 0.0
C36 C 0.97244 0.14586 0.49236 0.0
C37 C 0.89646 0.15645 0.45082 0.0
C38 C 0.93032 0.1303 0.48393 0.0
C39 C 0.90656 0.197 0.42294 0.0
C40 C 0.98219 0.18767 0.46669 0.0
C41 C 0.94948 0.21244 0.43058 0.0
N42 N 1.00251 0.12194 0.52916 0.0
C43 C 0.04113 0.13988 0.5457 0.0
C44 C 0.02368 0.20429 0.48009 0.0
C45 C 0.05291 0.18067 0.52052 0.0
Gd46 Gd 0.03206 0.94933 0.52498 0.0
Gd47 Gd 0.98086 0.05232 0.56659 0.0
N48 N 0.92164 0.09103 0.51138 0.0
C49 C 0.85315 0.14198 0.44861 0.0
C50 C 0.87933 0.07735 0.5108 0.0
C51 C 0.84451 0.10235 0.47892 0.0
H52 H 0.87275 0.0469 0.53472 0.0
H53 H 0.81105 0.09124 0.47801 0.0
H54 H 0.13074 0.99071 0.50025 0.0
H55 H 0.0632 0.12258 0.57813 0.0
H56 H 0.20737 0.98784 0.54328 0.0
H57 H 0.82604 0.16168 0.42459 0.0
H58 H 0.88113 0.21727 0.39665 0.0
H59 H 0.98511 0.86176 0.58221 0.0
H60 H 0.03256 0.23618 0.46115 0.0
H61 H 0.08425 0.19407 0.53268 0.0
H62 H 0.20983 0.87503 0.68993 0.0
H63 H 0.95647 0.24443 0.41009 0.0
H64 H 0.07744 0.79581 0.708 0.0
H65 H 1.00303 0.80171 0.65674 0.0
N66 N 0.04807 0.88955 0.59241 0.0
C67 C 0.08965 0.88567 0.61845 0.0
C68 C 0.01755 0.85905 0.60444 0.0
C69 C 0.06965 0.82205 0.6754 0.0
C70 C 0.02764 0.82523 0.64655 0.0
C71 C 0.10151 0.85208 0.66106 0.0
H72 H 0.15453 0.82371 0.72037 0.0
N73 N 0.10803 0.94555 0.55902 0.0
C74 C 0.12047 0.91492 0.60156 0.0
C75 C 0.19567 0.9386 0.60615 0.0
C76 C 0.16449 0.91087 0.62655 0.0
C77 C 0.13922 0.9698 0.53672 0.0
C78 C 0.18312 0.9676 0.56053 0.0
O79 O 0.95111 0.03853 0.49119 0.0
O80 O 0.01049 0.01027 0.46743 0.0
O81 O 0.0668 0.91687 0.4806 0.0
O82 O 0.99724 0.90783 0.47994 0.0
O83 O 0.94201 0.99066 0.57747 0.0
O84 O 0.95856 0.9457 0.52629 0.0
O85 O 0.0187 0.94626 0.60241 0.0
O86 O 0.03998 0.0131 0.61325 0.0
O87 O 0.94666 0.03609 0.62964 0.0
O88 O 0.97472 0.09938 0.61176 0.0
O89 O 0.0581 0.01679 0.49927 0.0
O90 O 0.05435 0.04814 0.56506 0.0
C91 C 0.97228 0.03132 0.45649 0.0
C92 C 0.93354 0.9578 0.55536 0.0
C93 C 0.02295 0.91424 0.40387 0.0
C94 C 0.04449 0.909 0.32503 0.0
C95 C 0.98194 0.95541 0.32607 0.0
C96 C 0.98857 0.94364 0.37771 0.0
C97 C 0.00947 0.93817 0.29983 0.0
C98 C 0.05088 0.8971 0.37736 0.0
C99 C 0.03075 0.90277 0.4587 0.0
C100 C 0.17627 0.87837 0.67 0.0
C101 C 0.14481 0.84907 0.68728 0.0
H102 H 0.2298 0.93662 0.62425 0.0
C103 C 0.03713 0.97134 0.63097 0.0
C104 C 0.07088 0.04613 0.52529 0.0
C105 C 0.97025 0.06995 0.69582 0.0
C106 C 0.95756 0.08382 0.77478 0.0
C107 C 0.02306 0.04305 0.77076 0.0
C108 C 0.01007 0.04811 0.71962 0.0
C109 C 0.99696 0.06065 0.79833 0.0
C110 C 0.94427 0.08803 0.72337 0.0
C111 C 0.95452 0.07288 0.64275 0.0
H112 H 0.95527 0.97796 0.30626 0.0
H113 H 0.9668 0.95768 0.39713 0.0
H114 H 1.00291 0.94736 0.25969 0.0
H115 H 0.07796 0.87517 0.39759 0.0
H116 H 0.05354 0.02566 0.78903 0.0
H117 H 0.03094 0.03501 0.69869 0.0
H118 H 0.00811 0.05706 0.83781 0.0
H119 H 0.9135 0.10501 0.70486 0.0
C120 C 0.64385 0.53781 0.07825 0.0
C121 C 0.64991 0.61138 0.03068 0.0
C122 C 0.62444 0.57797 0.05344 0.0
C123 C 0.69517 0.60374 0.03289 0.0
C124 C 0.68928 0.53004 0.08061 0.0
C125 C 0.71476 0.56313 0.05757 0.0
N126 N 0.61843 0.50654 0.10047 0.0
C127 C 0.63655 0.46735 0.12711 0.0
C128 C 0.7078 0.48932 0.1064 0.0
C129 C 0.68134 0.45794 0.12997 0.0
Gd130 Gd 0.44972 0.4828 0.99361 0.0
Gd131 Gd 0.54348 0.52498 0.09181 0.0
N132 N 0.58034 0.58412 0.05114 0.0
C133 C 0.62912 0.65152 0.00651 0.0
C134 C 0.56023 0.62373 0.02955 0.0
C135 C 0.58417 0.6578 0.00629 0.0
H136 H 0.52567 0.62887 0.02975 0.0
H137 H 0.56798 0.68891 0.98833 0.0
H138 H 0.50096 0.38249 0.01953 0.0
H139 H 0.61634 0.44334 0.14621 0.0
H140 H 0.49255 0.30976 0.06998 0.0
H141 H 0.64754 0.67796 0.98838 0.0
H142 H 0.71531 0.629 0.01552 0.0
H143 H 0.35578 0.5374 0.9843 0.0
H144 H 0.74254 0.482 0.10887 0.0
H145 H 0.69547 0.42659 0.15053 0.0
H146 H 0.35264 0.31838 0.12147 0.0
H147 H 0.74971 0.55774 0.05893 0.0
H148 H 0.2682 0.45212 0.06137 0.0
H149 H 0.28339 0.52438 0.01192 0.0
N150 N 0.3804 0.47309 0.01736 0.0
C151 C 0.37267 0.43297 0.04391 0.0
C152 C 0.34902 0.50571 0.0055 0.0
C153 C 0.29973 0.45755 0.04898 0.0
C154 C 0.30818 0.49843 0.0211 0.0
C155 C 0.33214 0.42423 0.06081 0.0
H156 H 0.29472 0.37567 0.10313 0.0
N157 N 0.44441 0.41023 0.03736 0.0
C158 C 0.40584 0.4009 0.0549 0.0
C159 C 0.43103 0.32633 0.08934 0.0
C160 C 0.39852 0.3589 0.08216 0.0
C161 C 0.47387 0.37733 0.03981 0.0
C162 C 0.4684 0.33536 0.0671 0.0
O163 O 0.55458 0.53837 0.01103 0.0
O164 O 0.4862 0.54099 0.96059 0.0
O165 O 0.45374 0.45146 0.93274 0.0
O166 O 0.39891 0.49519 0.92775 0.0
O167 O 0.47952 0.56528 0.06715 0.0
O168 O 0.44254 0.55474 0.99047 0.0
O169 O 0.43563 0.49029 0.06813 0.0
O170 O 0.5011 0.46876 0.11876 0.0
O171 O 0.52614 0.56458 0.14072 0.0
O172 O 0.58059 0.51799 0.16638 0.0
O173 O 0.52043 0.45888 0.00524 0.0
O174 O 0.54116 0.4546 0.08822 0.0
C175 C 0.52815 0.55038 0.96793 0.0
C176 C 0.45045 0.57684 0.0259 0.0
C177 C 0.38672 0.43775 0.88552 0.0
C178 C 0.36029 0.40486 0.81518 0.0
C179 C 0.33217 0.38168 0.89281 0.0
C180 C 0.35907 0.41115 0.9136 0.0
C181 C 0.33271 0.37846 0.84396 0.0
C182 C 0.38728 0.43451 0.83647 0.0
C183 C 0.41634 0.46808 0.90698 0.0
C184 C 0.35857 0.35034 0.10006 0.0
C185 C 0.32547 0.38289 0.08938 0.0
H186 H 0.42667 0.29366 0.11004 0.0
C187 C 0.45804 0.47295 0.11204 0.0
C188 C 0.54734 0.44425 0.04709 0.0
C189 C 0.5858 0.58163 0.19772 0.0
C190 C 0.61648 0.61068 0.26995 0.0
C191 C 0.63435 0.64297 0.18853 0.0
C192 C 0.60791 0.61326 0.16788 0.0
C193 C 0.63881 0.64168 0.23915 0.0
C194 C 0.59007 0.58046 0.24876 0.0
C195 C 0.55891 0.54936 0.17619 0.0
H196 H 0.31078 0.36129 0.91461 0.0
H197 H 0.35832 0.41303 0.95147 0.0
H198 H 0.31111 0.35574 0.82852 0.0
H199 H 0.4093 0.45464 0.81521 0.0
H200 H 0.6516 0.66701 0.16521 0.0
H201 H 0.60494 0.61506 0.1287 0.0
H202 H 0.66024 0.66471 0.25423 0.0
H203 H 0.57247 0.55636 0.27168 0.0
H204 H 0.27153 0.20913 0.52739 0.0
H205 H 0.2154 0.26866 0.37458 0.0
H206 H 0.15734 0.21439 0.37713 0.0
H207 H 0.24765 0.09769 0.52327 0.0
H208 H 0.23301 0.08419 0.58438 0.0
H209 H 0.27218 0.126 0.57 0.0
H210 H 0.2245 0.18061 0.59729 0.0
H211 H 0.18488 0.13924 0.6115 0.0
H212 H 0.16744 0.19016 0.56888 0.0
H213 H 0.10464 0.15456 0.39605 0.0
H214 H 0.0592 0.09468 0.4316 0.0
H215 H 0.14577 0.07659 0.57352 0.0
C216 C 0.24701 0.21105 0.49441 0.0
C217 C 0.2487 0.24321 0.45054 0.0
C218 C 0.2159 0.2439 0.40827 0.0
C219 C 0.1824 0.21338 0.40945 0.0
C220 C 0.18168 0.18251 0.4533 0.0
C221 C 0.2129 0.18124 0.49514 0.0
C222 C 0.20352 0.1457 0.53815 0.0
C223 C 0.24135 0.11137 0.55492 0.0
C224 C 0.19454 0.16509 0.58151 0.0
C225 C 0.16216 0.12717 0.51386 0.0
C226 C 0.1504 0.14871 0.46476 0.0
C227 C 0.11366 0.13735 0.43436 0.0
C228 C 0.08827 0.10308 0.45465 0.0
C229 C 0.09938 0.08092 0.50488 0.0
C230 C 0.13672 0.09316 0.53494 0.0
H231 H 0.2709 0.73145 0.08096 0.0
H232 H 0.2965 0.82706 0.95193 0.0
H233 H 0.35471 0.7786 0.94119 0.0
H234 H 0.38794 0.69676 0.12732 0.0
H235 H 0.37419 0.64086 0.149 0.0
H236 H 0.33597 0.68414 0.14812 0.0
H237 H 0.27536 0.64884 0.09469 0.0
H238 H 0.31351 0.60582 0.09488 0.0
H239 H 0.28559 0.6382 0.03682 0.0
H240 H 0.40393 0.71656 0.93851 0.0
H241 H 0.44747 0.64806 0.95061 0.0
H242 H 0.39522 0.59564 0.08522 0.0
C243 C 0.28946 0.74278 0.05121 0.0
C244 C 0.27856 0.78297 0.01693 0.0
C245 C 0.30342 0.79607 0.97806 0.0
C246 C 0.33679 0.76888 0.97179 0.0
C247 C 0.34568 0.729 0.00525 0.0
C248 C 0.3234 0.7163 0.0448 0.0
C249 C 0.33904 0.6714 0.07498 0.0
C250 C 0.36057 0.67343 0.128 0.0
C251 C 0.30111 0.63918 0.07533 0.0
C252 C 0.37283 0.66054 0.04553 0.0
C253 C 0.37592 0.69411 0.00522 0.0
C254 C 0.40248 0.69041 0.97047 0.0
C255 C 0.42681 0.65148 0.97737 0.0
C256 C 0.4248 0.61732 0.01901 0.0
C257 C 0.39773 0.62191 0.05361 0.0
H258 H 0.79743 0.73911 0.59545 0.0
H259 H 0.71628 0.80083 0.67527 0.0
H260 H 0.7604 0.86675 0.66111 0.0
H261 H 0.90105 0.78679 0.63582 0.0
H262 H 0.91861 0.79356 0.57644 0.0
H263 H 0.88264 0.75005 0.59598 0.0
H264 H 0.82635 0.77793 0.5154 0.0
H265 H 0.862 0.82173 0.49589 0.0
H266 H 0.80586 0.83352 0.5006 0.0
H267 H 0.81224 0.92675 0.63657 0.0
H268 H 0.86943 0.97551 0.60595 0.0
H269 H 0.91291 0.87694 0.53612 0.0
C270 C 0.78879 0.76642 0.61001 0.0
C271 C 0.75328 0.76443 0.63675 0.0
C272 C 0.74373 0.80093 0.65559 0.0
C273 C 0.76836 0.8388 0.64728 0.0
C274 C 0.80234 0.8399 0.6198 0.0
C275 C 0.81268 0.80464 0.60157 0.0
C276 C 0.85013 0.81462 0.57215 0.0
C277 C 0.89049 0.78446 0.59656 0.0
C278 C 0.83517 0.81178 0.51779 0.0
C279 C 0.85905 0.86113 0.57643 0.0
C280 C 0.83132 0.87496 0.60435 0.0
C281 C 0.8341 0.91627 0.61461 0.0
C282 C 0.86671 0.94381 0.59686 0.0
C283 C 0.89608 0.93015 0.56875 0.0
C284 C 0.8913 0.8885 0.5576 0.0
H285 H 0.71698 0.24084 0.1205 0.0
H286 H 0.77872 0.30489 0.99611 0.0
H287 H 0.72829 0.36823 0.98144 0.0
H288 H 0.60776 0.27591 0.06725 0.0
H289 H 0.59184 0.2849 0.12338 0.0
H290 H 0.63463 0.24522 0.12682 0.0
H291 H 0.68814 0.28391 0.18397 0.0
H292 H 0.64563 0.32395 0.18068 0.0
H293 H 0.69806 0.34099 0.16354 0.0
H294 H 0.66803 0.42162 0.97509 0.0
H295 H 0.60239 0.46391 0.98018 0.0
H296 H 0.58081 0.36841 0.11069 0.0
C297 C 0.72025 0.26849 0.0907 0.0
C298 C 0.7514 0.26759 0.059 0.0
C299 C 0.75449 0.30436 0.02019 0.0
C300 C 0.72626 0.34071 0.01179 0.0
C301 C 0.69535 0.34021 0.04288 0.0
C302 C 0.69231 0.30536 0.08186 0.0
C303 C 0.65498 0.31294 0.10854 0.0
C304 C 0.62026 0.27764 0.10634 0.0
C305 C 0.67277 0.31561 0.16238 0.0
C306 C 0.63696 0.35685 0.07757 0.0
C307 C 0.66096 0.37198 0.04002 0.0
C308 C 0.64931 0.41047 0.00471 0.0
C309 C 0.61194 0.43408 0.00767 0.0
C310 C 0.5871 0.41935 0.04595 0.0
C311 C 0.5999 0.38049 0.08158 0.0
H312 H 0.15864 0.90954 0.08989 0.0
H313 H 0.19076 0.77231 0.14958 0.0
H314 H 0.16262 0.77684 0.22613 0.0
H315 H 0.18468 0.94451 0.2083 0.0
H316 H 0.13949 0.98385 0.19157 0.0
H317 H 0.16633 0.9705 0.14407 0.0
H318 H 0.09103 0.95059 0.09875 0.0
H319 H 0.06403 0.96362 0.14615 0.0
H320 H 0.05811 0.91057 0.13189 0.0
H321 H 0.12389 0.79511 0.29257 0.0
H322 H 0.0797 0.82572 0.34363 0.0
H323 H 0.07492 0.95138 0.24075 0.0
C324 C 0.16016 0.88051 0.11926 0.0
C325 C 0.1769 0.84055 0.11377 0.0
C326 C 0.17857 0.80339 0.15321 0.0
C327 C 0.16251 0.80562 0.19673 0.0
C328 C 0.1453 0.84536 0.20042 0.0
C329 C 0.14446 0.88223 0.16286 0.0
C330 C 0.12241 0.92048 0.17475 0.0
C331 C 0.15519 0.95699 0.18 0.0
C332 C 0.08147 0.93727 0.13556 0.0
C333 C 0.10979 0.89913 0.22423 0.0
C334 C 0.12353 0.8559 0.23869 0.0
C335 C 0.11358 0.8291 0.28196 0.0
C336 C 0.0886 0.84687 0.31088 0.0
C337 C 0.07372 0.89102 0.29638 0.0
C338 C 0.08527 0.91742 0.25279 0.0
H339 H 0.69908 0.628 0.78067 0.0
H340 H 0.59023 0.70431 0.68224 0.0
H341 H 0.54332 0.68445 0.74688 0.0
H342 H 0.63485 0.54081 0.83042 0.0
H343 H 0.66535 0.53048 0.89275 0.0
H344 H 0.6923 0.55398 0.84115 0.0
H345 H 0.71533 0.62018 0.88043 0.0
H346 H 0.68967 0.59502 0.93249 0.0
H347 H 0.67377 0.64988 0.89927 0.0
H348 H 0.50671 0.65243 0.81784 0.0
H349 H 0.48136 0.6095 0.89207 0.0
H350 H 0.61321 0.55312 0.94738 0.0
C351 C 0.66561 0.64104 0.77343 0.0
C352 C 0.64808 0.668 0.72692 0.0
C353 C 0.60403 0.68388 0.7179 0.0
C354 C 0.57729 0.67285 0.75436 0.0
C355 C 0.59515 0.64584 0.79968 0.0
C356 C 0.63826 0.6301 0.80959 0.0
C357 C 0.64797 0.59928 0.86037 0.0
C358 C 0.66087 0.55343 0.85588 0.0
C359 C 0.68381 0.61722 0.89519 0.0
C360 C 0.60344 0.59973 0.87694 0.0
C361 C 0.57367 0.62706 0.84129 0.0
C362 C 0.52979 0.63129 0.8463 0.0
C363 C 0.51568 0.60659 0.88855 0.0
C364 C 0.54529 0.57803 0.92555 0.0
C365 C 0.58998 0.57512 0.91999 0.0
H366 H 0.80764 0.14403 0.20634 0.0
H367 H 0.92376 0.15998 0.13535 0.0
H368 H 0.96975 0.12461 0.21429 0.0
H369 H 0.86 0.16439 0.32676 0.0
H370 H 0.82612 0.12391 0.35806 0.0
H371 H 0.80653 0.15272 0.29558 0.0
H372 H 0.79462 0.07505 0.27633 0.0
H373 H 0.81957 0.04901 0.33865 0.0
H374 H 0.84168 0.03852 0.28658 0.0
H375 H 1.00248 0.08458 0.2975 0.0
H376 H 0.0231 0.04769 0.38458 0.0
H377 H 0.88821 0.06206 0.40755 0.0
C378 C 0.8428 0.14034 0.20765 0.0
C379 C 0.862 0.15429 0.16445 0.0
C380 C 0.90811 0.14871 0.16757 0.0
C381 C 0.93459 0.12885 0.21232 0.0
C382 C 0.91463 0.11498 0.2539 0.0
C383 C 0.86997 0.12061 0.25233 0.0
C384 C 0.85738 0.10246 0.30294 0.0
C385 C 0.83637 0.13811 0.32196 0.0
C386 C 0.82648 0.06398 0.30098 0.0
C387 C 0.90231 0.08717 0.3335 0.0
C388 C 0.93443 0.09389 0.30372 0.0
C389 C 0.97792 0.08002 0.32156 0.0
C390 C 0.98927 0.05918 0.37141 0.0
C391 C 0.95767 0.05324 0.4037 0.0
C392 C 0.91339 0.06729 0.38428 0.0
H393 H 0.34306 0.28535 0.58963 0.0
H394 H 0.34032 0.41333 0.49164 0.0
H395 H 0.35336 0.44672 0.56431 0.0
H396 H 0.28262 0.31628 0.67294 0.0
H397 H 0.31299 0.28108 0.72765 0.0
H398 H 0.30872 0.26666 0.66838 0.0
H399 H 0.3939 0.26136 0.67871 0.0
H400 H 0.39847 0.27553 0.73822 0.0
H401 H 0.42607 0.30712 0.69087 0.0
H402 H 0.36072 0.46676 0.64729 0.0
H403 H 0.36228 0.47175 0.73428 0.0
H404 H 0.35855 0.3309 0.77798 0.0
C405 C 0.34552 0.32039 0.58336 0.0
C406 C 0.34095 0.3466 0.53474 0.0
C407 C 0.34463 0.39235 0.5284 0.0
C408 C 0.35173 0.4117 0.56949 0.0
C409 C 0.35511 0.38494 0.61676 0.0
C410 C 0.3523 0.34025 0.62391 0.0
C411 C 0.35452 0.31903 0.67832 0.0
C412 C 0.31219 0.29432 0.68733 0.0
C413 C 0.3957 0.28899 0.69766 0.0
C414 C 0.35806 0.35885 0.70056 0.0
C415 C 0.35879 0.39651 0.66451 0.0
C416 C 0.36066 0.43744 0.67592 0.0
C417 C 0.3617 0.43993 0.72548 0.0
C418 C 0.36064 0.40174 0.76304 0.0
C419 C 0.35905 0.36073 0.75015 0.0
H420 H 0.66075 0.71638 0.50617 0.0
H421 H 0.67351 0.58601 0.59931 0.0
H422 H 0.6537 0.55537 0.52454 0.0
H423 H 0.56803 0.69604 0.41602 0.0
H424 H 0.58806 0.7309 0.36458 0.0
H425 H 0.60091 0.74205 0.42566 0.0
H426 H 0.68431 0.74015 0.42101 0.0
H427 H 0.67173 0.72899 0.35999 0.0
H428 H 0.70843 0.69274 0.40831 0.0
H429 H 0.63697 0.53938 0.43812 0.0
H430 H 0.62419 0.53946 0.34858 0.0
H431 H 0.62043 0.68079 0.31365 0.0
C432 C 0.65944 0.68136 0.51089 0.0
C433 C 0.66895 0.65351 0.55848 0.0
C434 C 0.66613 0.6079 0.56316 0.0
C435 C 0.65501 0.59026 0.52093 0.0
C436 C 0.64638 0.61872 0.47444 0.0
C437 C 0.64821 0.66332 0.46934 0.0
C438 C 0.63853 0.68698 0.41542 0.0
C439 C 0.59637 0.71568 0.40481 0.0
C440 C 0.67811 0.71378 0.40032 0.0
C441 C 0.6318 0.64874 0.39074 0.0
C442 C 0.63623 0.6096 0.42525 0.0
C443 C 0.63296 0.56988 0.41082 0.0
C444 C 0.62544 0.57026 0.35984 0.0
C445 C 0.62133 0.61011 0.32389 0.0
C446 C 0.62394 0.64971 0.33998 0.0
H447 H 0.85031 0.10539 0.00942 0.0
H448 H 0.8233 0.24171 0.93719 0.0
H449 H 0.84918 0.22901 0.86314 0.0
H450 H 0.95177 0.09913 0.96771 0.0
H451 H 0.9455 0.04402 0.95981 0.0
H452 H 0.91929 0.06196 0.00505 0.0
H453 H 0.84358 0.03885 0.9642 0.0
H454 H 0.86959 0.02073 0.91884 0.0
H455 H 0.82438 0.06001 0.89893 0.0
H456 H 0.88203 0.20329 0.79853 0.0
H457 H 0.92271 0.16661 0.74938 0.0
H458 H 0.9335 0.04854 0.86516 0.0
C459 C 0.84961 0.13266 0.9781 0.0
C460 C 0.83393 0.17447 0.97938 0.0
C461 C 0.83365 0.209 0.93708 0.0
C462 C 0.84871 0.20225 0.89475 0.0
C463 C 0.86447 0.16092 0.89518 0.0
C464 C 0.86526 0.12672 0.93578 0.0
C465 C 0.88701 0.08635 0.92801 0.0
C466 C 0.92835 0.07205 0.96748 0.0
C467 C 0.85417 0.0493 0.92745 0.0
C468 C 0.89898 0.10352 0.87707 0.0
C469 C 0.88505 0.14642 0.85852 0.0
C470 C 0.89287 0.16961 0.81249 0.0
C471 C 0.91584 0.14849 0.78478 0.0
C472 C 0.93116 0.10478 0.80343 0.0
C473 C 0.92234 0.08204 0.8501 0.0
H474 H 0.41186 0.33102 0.37385 0.0
H475 H 0.27575 0.37646 0.32643 0.0
H476 H 0.29444 0.41988 0.24798 0.0
H477 H 0.46288 0.42902 0.32223 0.0
H478 H 0.50561 0.40247 0.3016 0.0
H479 H 0.48205 0.3747 0.3543 0.0
H480 H 0.46177 0.31024 0.31177 0.0
H481 H 0.48578 0.33766 0.25926 0.0
H482 H 0.42945 0.32071 0.25029 0.0
H483 H 0.32844 0.46235 0.17858 0.0
H484 H 0.37344 0.49416 0.11568 0.0
H485 H 0.48687 0.41623 0.20245 0.0
C486 C 0.38614 0.34994 0.34661 0.0
C487 C 0.34237 0.35064 0.35581 0.0
C488 C 0.30934 0.37552 0.31964 0.0
C489 C 0.31971 0.40036 0.27523 0.0
C490 C 0.36317 0.39941 0.26729 0.0
C491 C 0.39576 0.37426 0.30139 0.0
C492 C 0.4395 0.37823 0.28252 0.0
C493 C 0.47458 0.39724 0.31724 0.0
C494 C 0.45503 0.33408 0.27555 0.0
C495 C 0.42645 0.41005 0.23295 0.0
C496 C 0.38234 0.4221 0.22538 0.0
C497 C 0.36277 0.45245 0.18358 0.0
C498 C 0.38863 0.47017 0.14788 0.0
C499 C 0.4333 0.45666 0.15322 0.0
C500 C 0.45266 0.42677 0.19693 0.0
H501 H 0.1953 0.90848 0.89315 0.0
H502 H 0.08616 0.83931 0.95127 0.0
H503 H 0.03818 0.86464 0.86981 0.0
H504 H 0.1297 0.00254 0.81608 0.0
H505 H 0.16084 0.00883 0.76596 0.0
H506 H 0.18725 0.98688 0.82892 0.0
H507 H 0.21293 0.91865 0.8049 0.0
H508 H 0.1873 0.93882 0.74137 0.0
H509 H 0.17331 0.88621 0.77513 0.0
H510 H 0.00504 0.89033 0.78017 0.0
H511 H 0.98598 0.92193 0.69 0.0
H512 H 0.11473 0.97901 0.69129 0.0
C513 C 0.16111 0.89924 0.88874 0.0
C514 C 0.1442 0.87205 0.92822 0.0
C515 C 0.09943 0.86046 0.92143 0.0
C516 C 0.07209 0.87454 0.87534 0.0
C517 C 0.08993 0.90076 0.83685 0.0
C518 C 0.13317 0.91368 0.84327 0.0
C519 C 0.14433 0.9415 0.79568 0.0
C520 C 0.15619 0.98768 0.80201 0.0
C521 C 0.18166 0.92001 0.7782 0.0
C522 C 0.10084 0.94146 0.76119 0.0
C523 C 0.07003 0.91746 0.78564 0.0
C524 C 0.02851 0.90996 0.76085 0.0
C525 C 0.01804 0.92779 0.7098 0.0
C526 C 0.04867 0.95338 0.68451 0.0
C527 C 0.0905 0.96039 0.71042 0.0
loop_
_geom_bond_atom_site_label_1
_geom_bond_atom_site_label_2
_geom_bond_distance
_geom_bond_site_symmetry_2
_ccdc_geom_bond_type
H0 C3 0.931 . S
H1 C6 0.928 . S
H2 C8 0.930 . S
C3 H0 0.931 . S
C3 C4 1.413 1_554 S
C3 C5 1.360 . S
C4 C3 1.413 1_556 S
C4 C8 1.429 . S
C5 C3 1.360 . S
C5 C6 1.372 . S
C6 H1 0.928 . S
C6 C5 1.372 . S
C6 C7 1.404 . S
C7 C6 1.404 . S
C7 C8 1.391 1_554 S
C8 H2 0.930 . S
C8 C4 1.429 . S
C8 C7 1.391 1_556 S
H9 C12 0.931 . S
H10 C15 0.928 . S
H11 C17 0.930 . S
C12 H9 0.931 . S
C12 C13 1.413 . S
C12 C14 1.360 . S
C13 C12 1.413 . S
C13 C17 1.429 . S
C14 C12 1.360 . S
C14 C15 1.372 . S
C15 H10 0.928 . S
C15 C14 1.372 . S
C15 C16 1.404 . S
C16 C15 1.404 . S
C16 C17 1.391 . S
C17 H11 0.930 . S
C17 C13 1.429 . S
C17 C16 1.391 . S
H18 C21 0.931 . S
H19 C24 0.928 . S
H20 C26 0.930 1_556 S
C21 H18 0.931 . S
C21 C22 1.413 . S
C21 C23 1.360 . S
C22 C21 1.413 . S
C22 C26 1.429 . S
C23 C21 1.360 . S
C23 C24 1.372 . S
C24 H19 0.928 . S
C24 C23 1.372 . S
C24 C25 1.404 . S
C25 C24 1.404 . S
C25 C26 1.391 . S
C26 H20 0.930 1_554 S
C26 C22 1.429 . S
C26 C25 1.391 . S
H27 C30 0.931 . S
H28 C33 0.928 . S
H29 C35 0.930 . S
C30 H27 0.931 . S
C30 C31 1.413 . S
C30 C32 1.360 . S
C31 C30 1.413 . S
C31 C35 1.429 . S
C32 C30 1.360 . S
C32 C33 1.372 . S
C33 H28 0.928 . S
C33 C32 1.372 . S
C33 C34 1.404 . S
C34 C33 1.404 . S
C34 C35 1.391 . S
C35 H29 0.930 . S
C35 C31 1.429 . S
C35 C34 1.391 . S
C36 C38 1.422 . S
C36 C40 1.415 . S
C36 N42 1.369 . S
C37 C38 1.421 . S
C37 C39 1.417 . S
C37 C49 1.422 . S
C38 C36 1.422 . S
C38 C37 1.421 . S
C38 N48 1.359 . S
C39 C37 1.417 . S
C39 C41 1.329 . S
C39 H58 0.930 . S
C40 C36 1.415 . S
C40 C41 1.437 . S
C40 C44 1.413 . S
C41 C39 1.329 . S
C41 C40 1.437 . S
C41 H63 0.929 . S
N42 C36 1.369 . S
N42 C43 1.338 . S
N42 Gd47 2.622 . S
C43 N42 1.338 . S
C43 C45 1.378 . S
C43 H55 0.929 1_655 S
C44 C40 1.413 . S
C44 C45 1.348 . S
C44 H60 0.931 . S
C45 C43 1.378 . S
C45 C44 1.348 . S
C45 H61 0.930 1_655 S
Gd46 N66 2.622 . S
Gd46 N73 2.570 . S
Gd46 O80 2.345 1_465 S
Gd46 O81 2.468 . S
Gd46 O82 2.427 . S
Gd46 O84 2.388 1_455 S
Gd46 O85 2.386 . S
Gd46 O89 2.307 1_565 S
Gd46 C99 2.805 . S
Gd47 N42 2.622 . S
Gd47 N48 2.570 . S
Gd47 O79 2.386 . S
Gd47 O83 2.307 1_545 S
Gd47 O86 2.353 1_655 S
Gd47 O87 2.468 . S
Gd47 O88 2.427 . S
Gd47 O90 2.388 1_655 S
Gd47 C111 2.805 . S
N48 C38 1.359 . S
N48 Gd47 2.570 . S
N48 C50 1.343 . S
C49 C37 1.422 . S
C49 C51 1.321 . S
C49 H57 0.931 . S
C50 N48 1.343 . S
C50 C51 1.390 . S
C50 H52 0.931 . S
C51 C49 1.321 . S
C51 C50 1.390 . S
C51 H53 0.930 . S
H52 C50 0.931 . S
H53 C51 0.930 . S
H54 C77 0.931 . S
H55 C43 0.929 1_455 S
H56 C78 0.930 . S
H57 C49 0.931 . S
H58 C39 0.930 . S
H59 C68 0.929 1_655 S
H60 C44 0.931 . S
H61 C45 0.930 1_455 S
H62 C100 0.930 . S
H63 C41 0.929 . S
H64 C69 0.931 . S
H65 C70 0.930 1_655 S
N66 Gd46 2.622 . S
N66 C67 1.369 . S
N66 C68 1.338 . S
C67 N66 1.369 . S
C67 C71 1.415 . S
C67 C74 1.422 . S
C68 H59 0.929 1_455 S
C68 N66 1.338 . S
C68 C70 1.378 . S
C69 H64 0.931 . S
C69 C70 1.348 . S
C69 C71 1.413 . S
C70 H65 0.930 1_455 S
C70 C68 1.378 . S
C70 C69 1.348 . S
C71 C67 1.415 . S
C71 C69 1.413 . S
C71 C101 1.437 . S
H72 C101 0.929 . S
N73 Gd46 2.570 . S
N73 C74 1.359 . S
N73 C77 1.343 . S
C74 C67 1.422 . S
C74 N73 1.359 . S
C74 C76 1.421 . S
C75 C76 1.422 . S
C75 C78 1.321 . S
C75 H102 0.931 . S
C76 C74 1.421 . S
C76 C75 1.422 . S
C76 C100 1.417 . S
C77 H54 0.931 . S
C77 N73 1.343 . S
C77 C78 1.390 . S
C78 H56 0.930 . S
C78 C75 1.321 . S
C78 C77 1.390 . S
O79 Gd47 2.386 . S
O79 C91 1.265 . S
O80 Gd46 2.345 1_645 S
O80 C91 1.254 . S
O81 Gd46 2.468 . S
O81 C99 1.263 . S
O82 Gd46 2.427 . S
O82 C99 1.252 . S
O83 Gd47 2.307 1_565 S
O83 C92 1.261 . S
O84 Gd46 2.388 1_655 S
O84 C92 1.252 . S
O85 Gd46 2.386 . S
O85 C103 1.265 . S
O86 Gd47 2.353 1_455 S
O86 C103 1.242 1_545 S
O87 Gd47 2.468 . S
O87 C111 1.263 . S
O88 Gd47 2.427 . S
O88 C111 1.252 . S
O89 Gd46 2.307 1_545 S
O89 C104 1.261 . S
O90 Gd47 2.388 1_455 S
O90 C104 1.252 . S
C91 O79 1.265 . S
C91 O80 1.254 . S
C92 O83 1.261 . S
C92 O84 1.252 . S
C93 C96 1.394 . S
C93 C98 1.370 . S
C93 C99 1.500 . S
C94 C97 1.383 . S
C94 C98 1.395 . S
C95 C96 1.396 . S
C95 C97 1.365 . S
C95 H112 0.929 . S
C96 C93 1.394 . S
C96 C95 1.396 . S
C96 H113 0.930 . S
C97 C94 1.383 . S
C97 C95 1.365 . S
C97 H114 0.931 . S
C98 C93 1.370 . S
C98 C94 1.395 . S
C98 H115 0.930 . S
C99 Gd46 2.805 . S
C99 O81 1.263 . S
C99 O82 1.252 . S
C99 C93 1.500 . S
C100 H62 0.930 . S
C100 C76 1.417 . S
C100 C101 1.329 . S
C101 C71 1.437 . S
C101 H72 0.929 . S
C101 C100 1.329 . S
H102 C75 0.931 . S
C103 O85 1.265 . S
C103 O86 1.242 1_565 S
C104 O89 1.261 . S
C104 O90 1.252 . S
C105 C108 1.394 . S
C105 C110 1.370 . S
C105 C111 1.500 . S
C106 C109 1.383 . S
C106 C110 1.395 . S
C107 C108 1.396 . S
C107 C109 1.365 . S
C107 H116 0.929 . S
C108 C105 1.394 . S
C108 C107 1.396 . S
C108 H117 0.930 . S
C109 C106 1.383 . S
C109 C107 1.365 . S
C109 H118 0.931 . S
C110 C105 1.370 . S
C110 C106 1.395 . S
C110 H119 0.930 . S
C111 Gd47 2.805 . S
C111 O87 1.263 . S
C111 O88 1.252 . S
C111 C105 1.500 . S
H112 C95 0.929 . S
H113 C96 0.930 . S
H114 C97 0.931 . S
H115 C98 0.930 . S
H116 C107 0.929 . S
H117 C108 0.930 . S
H118 C109 0.931 . S
H119 C110 0.930 . S
C120 C122 1.422 . S
C120 C124 1.415 . S
C120 N126 1.369 . S
C121 C122 1.421 . S
C121 C123 1.417 . S
C121 C133 1.422 . S
C122 C120 1.422 . S
C122 C121 1.421 . S
C122 N132 1.359 . S
C123 C121 1.417 . S
C123 C125 1.329 . S
C123 H142 0.930 . S
C124 C120 1.415 . S
C124 C125 1.437 . S
C124 C128 1.413 . S
C125 C123 1.329 . S
C125 C124 1.437 . S
C125 H147 0.929 . S
N126 C120 1.369 . S
N126 C127 1.338 . S
N126 Gd131 2.622 . S
C127 N126 1.338 . S
C127 C129 1.378 . S
C127 H139 0.929 . S
C128 C124 1.413 . S
C128 C129 1.348 . S
C128 H144 0.931 . S
C129 C127 1.378 . S
C129 C128 1.348 . S
C129 H145 0.930 . S
Gd130 N150 2.622 . S
Gd130 N157 2.570 1_556 S
Gd130 O164 2.353 . S
Gd130 O165 2.468 . S
Gd130 O166 2.427 . S
Gd130 O168 2.388 1_556 S
Gd130 O169 2.386 1_556 S
Gd130 O173 2.307 1_556 S
Gd130 C183 2.805 . S
Gd131 N126 2.622 . S
Gd131 N132 2.570 . S
Gd131 O163 2.386 . S
Gd131 O167 2.307 . S
Gd131 O170 2.353 . S
Gd131 O171 2.468 . S
Gd131 O172 2.427 . S
Gd131 O174 2.388 . S
Gd131 C195 2.805 . S
N132 C122 1.359 . S
N132 Gd131 2.570 . S
N132 C134 1.343 . S
C133 C121 1.422 . S
C133 C135 1.321 . S
C133 H141 0.931 . S
C134 N132 1.343 . S
C134 C135 1.390 . S
C134 H136 0.931 . S
C135 C133 1.321 . S
C135 C134 1.390 . S
C135 H137 0.930 . S
H136 C134 0.931 . S
H137 C135 0.930 . S
H138 C161 0.931 . S
H139 C127 0.929 . S
H140 C162 0.930 . S
H141 C133 0.931 . S
H142 C123 0.930 . S
H143 C152 0.929 . S
H144 C128 0.931 . S
H145 C129 0.930 . S
H146 C184 0.930 . S
H147 C125 0.929 . S
H148 C153 0.931 . S
H149 C154 0.930 . S
N150 Gd130 2.622 . S
N150 C151 1.369 1_556 S
N150 C152 1.338 . S
C151 N150 1.369 1_554 S
C151 C155 1.415 . S
C151 C158 1.422 . S
C152 H143 0.929 . S
C152 N150 1.338 . S
C152 C154 1.378 . S
C153 H148 0.931 . S
C153 C154 1.348 1_554 S
C153 C155 1.413 . S
C154 H149 0.930 . S
C154 C152 1.378 . S
C154 C153 1.348 1_556 S
C155 C151 1.415 . S
C155 C153 1.413 . S
C155 C185 1.437 . S
H156 C185 0.929 . S
N157 Gd130 2.570 1_554 S
N157 C158 1.359 . S
N157 C161 1.343 . S
C158 C151 1.422 . S
C158 N157 1.359 . S
C158 C160 1.421 . S
C159 C160 1.422 . S
C159 C162 1.321 . S
C159 H186 0.931 . S
C160 C158 1.421 . S
C160 C159 1.422 . S
C160 C184 1.417 . S
C161 H138 0.931 . S
C161 N157 1.343 . S
C161 C162 1.390 . S
C162 H140 0.930 . S
C162 C159 1.321 . S
C162 C161 1.390 . S
O163 Gd131 2.386 . S
O163 C175 1.265 1_554 S
O164 Gd130 2.353 . S
O164 C175 1.242 . S
O165 Gd130 2.468 . S
O165 C183 1.263 . S
O166 Gd130 2.427 . S
O166 C183 1.252 . S
O167 Gd131 2.307 . S
O167 C176 1.261 . S
O168 Gd130 2.388 1_554 S
O168 C176 1.252 . S
O169 Gd130 2.386 1_554 S
O169 C187 1.265 . S
O170 Gd131 2.353 . S
O170 C187 1.242 . S
O171 Gd131 2.468 . S
O171 C195 1.263 . S
O172 Gd131 2.427 . S
O172 C195 1.252 . S
O173 Gd130 2.307 1_554 S
O173 C188 1.261 . S
O174 Gd131 2.388 . S
O174 C188 1.252 . S
C175 O163 1.265 1_556 S
C175 O164 1.242 . S
C176 O167 1.261 . S
C176 O168 1.252 . S
C177 C180 1.394 . S
C177 C182 1.370 . S
C177 C183 1.500 . S
C178 C181 1.383 . S
C178 C182 1.395 . S
C179 C180 1.396 . S
C179 C181 1.365 . S
C179 H196 0.929 . S
C180 C177 1.394 . S
C180 C179 1.396 . S
C180 H197 0.930 . S
C181 C178 1.383 . S
C181 C179 1.365 . S
C181 H198 0.931 . S
C182 C177 1.370 . S
C182 C178 1.395 . S
C182 H199 0.930 . S
C183 Gd130 2.805 . S
C183 O165 1.263 . S
C183 O166 1.252 . S
C183 C177 1.500 . S
C184 H146 0.930 . S
C184 C160 1.417 . S
C184 C185 1.329 . S
C185 C155 1.437 . S
C185 H156 0.929 . S
C185 C184 1.329 . S
H186 C159 0.931 . S
C187 O169 1.265 . S
C187 O170 1.242 . S
C188 O173 1.261 . S
C188 O174 1.252 . S
C189 C192 1.394 . S
C189 C194 1.370 . S
C189 C195 1.500 . S
C190 C193 1.383 . S
C190 C194 1.395 . S
C191 C192 1.396 . S
C191 C193 1.365 . S
C191 H200 0.929 . S
C192 C189 1.394 . S
C192 C191 1.396 . S
C192 H201 0.930 . S
C193 C190 1.383 . S
C193 C191 1.365 . S
C193 H202 0.931 . S
C194 C189 1.370 . S
C194 C190 1.395 . S
C194 H203 0.930 . S
C195 Gd131 2.805 . S
C195 O171 1.263 . S
C195 O172 1.252 . S
C195 C189 1.500 . S
H196 C179 0.929 . S
H197 C180 0.930 . S
H198 C181 0.931 . S
H199 C182 0.930 . S
H200 C191 0.929 . S
H201 C192 0.930 . S
H202 C193 0.931 . S
H203 C194 0.930 . S
H204 C216 0.930 . S
H205 C218 0.930 . S
H206 C219 0.930 . S
H207 C223 0.959 . S
H208 C223 0.959 . S
H209 C223 0.961 . S
H210 C224 0.960 . S
H211 C224 0.961 . S
H212 C224 0.959 . S
H213 C227 0.929 . S
H214 C228 0.931 . S
H215 C230 0.930 . S
C216 H204 0.930 . S
C216 C217 1.399 . S
C216 C221 1.399 . S
C217 C216 1.399 . S
C217 C218 1.376 . S
C218 H205 0.930 . S
C218 C217 1.376 . S
C218 C219 1.388 . S
C219 H206 0.930 . S
C219 C218 1.388 . S
C219 C220 1.390 . S
C220 C219 1.390 . S
C220 C221 1.394 . S
C220 C226 1.465 . S
C221 C216 1.399 . S
C221 C220 1.394 . S
C221 C222 1.516 . S
C222 C221 1.516 . S
C222 C223 1.502 . S
C222 C224 1.561 . S
C222 C225 1.526 . S
C223 H207 0.959 . S
C223 H208 0.959 . S
C223 H209 0.961 . S
C223 C222 1.502 . S
C224 H210 0.960 . S
C224 H211 0.961 . S
C224 H212 0.959 . S
C224 C222 1.561 . S
C225 C222 1.526 . S
C225 C226 1.396 . S
C225 C230 1.390 . S
C226 C220 1.465 . S
C226 C225 1.396 . S
C226 C227 1.399 . S
C227 H213 0.929 . S
C227 C226 1.399 . S
C227 C228 1.385 . S
C228 H214 0.931 . S
C228 C227 1.385 . S
C228 C229 1.389 . S
C229 C228 1.389 . S
C229 C230 1.387 . S
C230 H215 0.930 . S
C230 C225 1.390 . S
C230 C229 1.387 . S
H231 C243 0.930 . S
H232 C245 0.930 . S
H233 C246 0.930 . S
H234 C250 0.959 . S
H235 C250 0.959 . S
H236 C250 0.961 . S
H237 C251 0.960 . S
H238 C251 0.961 . S
H239 C251 0.959 . S
H240 C254 0.929 . S
H241 C255 0.931 . S
H242 C257 0.930 . S
C243 H231 0.930 . S
C243 C244 1.399 . S
C243 C248 1.399 . S
C244 C243 1.399 . S
C244 C245 1.376 1_554 S
C245 H232 0.930 . S
C245 C244 1.376 1_556 S
C245 C246 1.388 . S
C246 H233 0.930 . S
C246 C245 1.388 . S
C246 C247 1.390 1_556 S
C247 C246 1.390 1_554 S
C247 C248 1.394 . S
C247 C253 1.465 . S
C248 C243 1.399 . S
C248 C247 1.394 . S
C248 C249 1.516 . S
C249 C248 1.516 . S
C249 C250 1.502 . S
C249 C251 1.561 . S
C249 C252 1.526 . S
C250 H234 0.959 . S
C250 H235 0.959 . S
C250 H236 0.961 . S
C250 C249 1.502 . S
C251 H237 0.960 . S
C251 H238 0.961 . S
C251 H239 0.959 . S
C251 C249 1.561 . S
C252 C249 1.526 . S
C252 C253 1.396 . S
C252 C257 1.390 . S
C253 C247 1.465 . S
C253 C252 1.396 . S
C253 C254 1.399 1_554 S
C254 H240 0.929 . S
C254 C253 1.399 1_556 S
C254 C255 1.385 . S
C255 H241 0.931 . S
C255 C254 1.385 . S
C255 C256 1.389 1_556 S
C256 C255 1.389 1_554 S
C256 C257 1.387 . S
C257 H242 0.930 . S
C257 C252 1.390 . S
C257 C256 1.387 . S
H258 C270 0.930 . S
H259 C272 0.930 . S
H260 C273 0.930 . S
H261 C277 0.959 . S
H262 C277 0.959 . S
H263 C277 0.961 . S
H264 C278 0.960 . S
H265 C278 0.961 . S
H266 C278 0.959 . S
H267 C281 0.929 . S
H268 C282 0.931 . S
H269 C284 0.930 . S
C270 H258 0.930 . S
C270 C271 1.399 . S
C270 C275 1.399 . S
C271 C270 1.399 . S
C271 C272 1.376 . S
C272 H259 0.930 . S
C272 C271 1.376 . S
C272 C273 1.388 . S
C273 H260 0.930 . S
C273 C272 1.388 . S
C273 C274 1.390 . S
C274 C273 1.390 . S
C274 C275 1.394 . S
C274 C280 1.465 . S
C275 C270 1.399 . S
C275 C274 1.394 . S
C275 C276 1.516 . S
C276 C275 1.516 . S
C276 C277 1.502 . S
C276 C278 1.561 . S
C276 C279 1.526 . S
C277 H261 0.959 . S
C277 H262 0.959 . S
C277 H263 0.961 . S
C277 C276 1.502 . S
C278 H264 0.960 . S
C278 H265 0.961 . S
C278 H266 0.959 . S
C278 C276 1.561 . S
C279 C276 1.526 . S
C279 C280 1.396 . S
C279 C284 1.390 . S
C280 C274 1.465 . S
C280 C279 1.396 . S
C280 C281 1.399 . S
C281 H267 0.929 . S
C281 C280 1.399 . S
C281 C282 1.385 . S
C282 H268 0.931 . S
C282 C281 1.385 . S
C282 C283 1.389 . S
C283 C282 1.389 . S
C283 C284 1.387 . S
C284 H269 0.930 . S
C284 C279 1.390 . S
C284 C283 1.387 . S
H285 C297 0.930 . S
H286 C299 0.930 1_556 S
H287 C300 0.930 . S
H288 C304 0.959 . S
H289 C304 0.959 . S
H290 C304 0.961 . S
H291 C305 0.960 . S
H292 C305 0.961 . S
H293 C305 0.959 . S
H294 C308 0.929 . S
H295 C309 0.931 . S
H296 C311 0.930 . S
C297 H285 0.930 . S
C297 C298 1.399 . S
C297 C302 1.399 . S
C298 C297 1.399 . S
C298 C299 1.376 . S
C299 H286 0.930 1_554 S
C299 C298 1.376 . S
C299 C300 1.388 1_554 S
C300 H287 0.930 . S
C300 C299 1.388 1_556 S
C300 C301 1.390 1_556 S
C301 C300 1.390 1_554 S
C301 C302 1.394 . S
C301 C307 1.465 . S
C302 C297 1.399 . S
C302 C301 1.394 . S
C302 C303 1.516 . S
C303 C302 1.516 . S
C303 C304 1.502 . S
C303 C305 1.561 . S
C303 C306 1.526 . S
C304 H288 0.959 . S
C304 H289 0.959 . S
C304 H290 0.961 . S
C304 C303 1.502 . S
C305 H291 0.960 . S
C305 H292 0.961 . S
C305 H293 0.959 . S
C305 C303 1.561 . S
C306 C303 1.526 . S
C306 C307 1.396 . S
C306 C311 1.390 . S
C307 C301 1.465 . S
C307 C306 1.396 . S
C307 C308 1.399 1_554 S
C308 H294 0.929 . S
C308 C307 1.399 1_556 S
C308 C309 1.385 . S
C309 H295 0.931 . S
C309 C308 1.385 . S
C309 C310 1.389 1_556 S
C310 C309 1.389 1_554 S
C310 C311 1.387 . S
C311 H296 0.930 . S
C311 C306 1.390 . S
C311 C310 1.387 . S
H312 C324 0.930 . S
H313 C326 0.930 . S
H314 C327 0.930 . S
H315 C331 0.959 . S
H316 C331 0.959 1_545 S
H317 C331 0.961 1_545 S
H318 C332 0.960 . S
H319 C332 0.961 . S
H320 C332 0.959 1_565 S
H321 C335 0.929 . S
H322 C336 0.931 . S
H323 C338 0.930 . S
C324 H312 0.930 . S
C324 C325 1.399 . S
C324 C329 1.399 . S
C325 C324 1.399 . S
C325 C326 1.376 . S
C326 H313 0.930 . S
C326 C325 1.376 . S
C326 C327 1.388 . S
C327 H314 0.930 . S
C327 C326 1.388 . S
C327 C328 1.390 . S
C328 C327 1.390 . S
C328 C329 1.394 . S
C328 C334 1.465 . S
C329 C324 1.399 . S
C329 C328 1.394 . S
C329 C330 1.516 . S
C330 C329 1.516 . S
C330 C331 1.502 . S
C330 C332 1.561 1_565 S
C330 C333 1.526 . S
C331 H315 0.959 . S
C331 H316 0.959 1_565 S
C331 H317 0.961 1_565 S
C331 C330 1.502 . S
C332 H318 0.960 . S
C332 H319 0.961 . S
C332 H320 0.959 1_545 S
C332 C330 1.561 1_545 S
C333 C330 1.526 . S
C333 C334 1.396 . S
C333 C338 1.390 . S
C334 C328 1.465 . S
C334 C333 1.396 . S
C334 C335 1.399 . S
C335 H321 0.929 . S
C335 C334 1.399 . S
C335 C336 1.385 . S
C336 H322 0.931 . S
C336 C335 1.385 . S
C336 C337 1.389 . S
C337 C336 1.389 . S
C337 C338 1.387 . S
C338 H323 0.930 . S
C338 C333 1.390 . S
C338 C337 1.387 . S
H339 C351 0.930 . S
H340 C353 0.930 . S
H341 C354 0.930 . S
H342 C358 0.959 . S
H343 C358 0.959 . S
H344 C358 0.961 . S
H345 C359 0.960 . S
H346 C359 0.961 . S
H347 C359 0.959 . S
H348 C362 0.929 . S
H349 C363 0.931 . S
H350 C365 0.930 . S
C351 H339 0.930 . S
C351 C352 1.399 . S
C351 C356 1.399 . S
C352 C351 1.399 . S
C352 C353 1.376 . S
C353 H340 0.930 . S
C353 C352 1.376 . S
C353 C354 1.388 . S
C354 H341 0.930 . S
C354 C353 1.388 . S
C354 C355 1.390 . S
C355 C354 1.390 . S
C355 C356 1.394 . S
C355 C361 1.465 . S
C356 C351 1.399 . S
C356 C355 1.394 . S
C356 C357 1.516 . S
C357 C356 1.516 . S
C357 C358 1.502 . S
C357 C359 1.561 . S
C357 C360 1.526 . S
C358 H342 0.959 . S
C358 H343 0.959 . S
C358 H344 0.961 . S
C358 C357 1.502 . S
C359 H345 0.960 . S
C359 H346 0.961 . S
C359 H347 0.959 . S
C359 C357 1.561 . S
C360 C357 1.526 . S
C360 C361 1.396 . S
C360 C365 1.390 . S
C361 C355 1.465 . S
C361 C360 1.396 . S
C361 C362 1.399 . S
C362 H348 0.929 . S
C362 C361 1.399 . S
C362 C363 1.385 . S
C363 H349 0.931 . S
C363 C362 1.385 . S
C363 C364 1.389 . S
C364 C363 1.389 . S
C364 C365 1.387 . S
C365 H350 0.930 . S
C365 C360 1.390 . S
C365 C364 1.387 . S
H366 C378 0.930 . S
H367 C380 0.930 . S
H368 C381 0.930 . S
H369 C385 0.959 . S
H370 C385 0.959 . S
H371 C385 0.961 . S
H372 C386 0.960 . S
H373 C386 0.961 . S
H374 C386 0.959 . S
H375 C389 0.929 . S
H376 C390 0.931 . S
H377 C392 0.930 . S
C378 H366 0.930 . S
C378 C379 1.399 . S
C378 C383 1.399 . S
C379 C378 1.399 . S
C379 C380 1.376 . S
C380 H367 0.930 . S
C380 C379 1.376 . S
C380 C381 1.388 . S
C381 H368 0.930 . S
C381 C380 1.388 . S
C381 C382 1.390 . S
C382 C381 1.390 . S
C382 C383 1.394 . S
C382 C388 1.465 . S
C383 C378 1.399 . S
C383 C382 1.394 . S
C383 C384 1.516 . S
C384 C383 1.516 . S
C384 C385 1.502 . S
C384 C386 1.561 . S
C384 C387 1.526 . S
C385 H369 0.959 . S
C385 H370 0.959 . S
C385 H371 0.961 . S
C385 C384 1.502 . S
C386 H372 0.960 . S
C386 H373 0.961 . S
C386 H374 0.959 . S
C386 C384 1.561 . S
C387 C384 1.526 . S
C387 C388 1.396 . S
C387 C392 1.390 . S
C388 C382 1.465 . S
C388 C387 1.396 . S
C388 C389 1.399 . S
C389 H375 0.929 . S
C389 C388 1.399 . S
C389 C390 1.385 . S
C390 H376 0.931 . S
C390 C389 1.385 . S
C390 C391 1.389 . S
C391 C390 1.389 . S
C391 C392 1.387 . S
C392 H377 0.930 . S
C392 C387 1.390 . S
C392 C391 1.387 . S
H393 C405 0.930 . S
H394 C407 0.930 . S
H395 C408 0.930 . S
H396 C412 0.959 . S
H397 C412 0.959 . S
H398 C412 0.961 . S
H399 C413 0.960 . S
H400 C413 0.961 . S
H401 C413 0.959 . S
H402 C416 0.929 . S
H403 C417 0.931 . S
H404 C419 0.930 . S
C405 H393 0.930 . S
C405 C406 1.399 . S
C405 C410 1.399 . S
C406 C405 1.399 . S
C406 C407 1.376 . S
C407 H394 0.930 . S
C407 C406 1.376 . S
C407 C408 1.388 . S
C408 H395 0.930 . S
C408 C407 1.388 . S
C408 C409 1.390 . S
C409 C408 1.390 . S
C409 C410 1.394 . S
C409 C415 1.465 . S
C410 C405 1.399 . S
C410 C409 1.394 . S
C410 C411 1.516 . S
C411 C410 1.516 . S
C411 C412 1.502 . S
C411 C413 1.561 . S
C411 C414 1.526 . S
C412 H396 0.959 . S
C412 H397 0.959 . S
C412 H398 0.961 . S
C412 C411 1.502 . S
C413 H399 0.960 . S
C413 H400 0.961 . S
C413 H401 0.959 . S
C413 C411 1.561 . S
C414 C411 1.526 . S
C414 C415 1.396 . S
C414 C419 1.390 . S
C415 C409 1.465 . S
C415 C414 1.396 . S
C415 C416 1.399 . S
C416 H402 0.929 . S
C416 C415 1.399 . S
C416 C417 1.385 . S
C417 H403 0.931 . S
C417 C416 1.385 . S
C417 C418 1.389 . S
C418 C417 1.389 . S
C418 C419 1.387 . S
C419 H404 0.930 . S
C419 C414 1.390 . S
C419 C418 1.387 . S
H420 C432 0.930 . S
H421 C434 0.930 . S
H422 C435 0.930 . S
H423 C439 0.959 . S
H424 C439 0.959 . S
H425 C439 0.961 . S
H426 C440 0.960 . S
H427 C440 0.961 . S
H428 C440 0.959 . S
H429 C443 0.929 . S
H430 C444 0.931 . S
H431 C446 0.930 . S
C432 H420 0.930 . S
C432 C433 1.399 . S
C432 C437 1.399 . S
C433 C432 1.399 . S
C433 C434 1.376 . S
C434 H421 0.930 . S
C434 C433 1.376 . S
C434 C435 1.388 . S
C435 H422 0.930 . S
C435 C434 1.388 . S
C435 C436 1.390 . S
C436 C435 1.390 . S
C436 C437 1.394 . S
C436 C442 1.465 . S
C437 C432 1.399 . S
C437 C436 1.394 . S
C437 C438 1.516 . S
C438 C437 1.516 . S
C438 C439 1.502 . S
C438 C440 1.561 . S
C438 C441 1.526 . S
C439 H423 0.959 . S
C439 H424 0.959 . S
C439 H425 0.961 . S
C439 C438 1.502 . S
C440 H426 0.960 . S
C440 H427 0.961 . S
C440 H428 0.959 . S
C440 C438 1.561 . S
C441 C438 1.526 . S
C441 C442 1.396 . S
C441 C446 1.390 . S
C442 C436 1.465 . S
C442 C441 1.396 . S
C442 C443 1.399 . S
C443 H429 0.929 . S
C443 C442 1.399 . S
C443 C444 1.385 . S
C444 H430 0.931 . S
C444 C443 1.385 . S
C444 C445 1.389 . S
C445 C444 1.389 . S
C445 C446 1.387 . S
C446 H431 0.930 . S
C446 C441 1.390 . S
C446 C445 1.387 . S
H447 C459 0.930 1_554 S
H448 C461 0.930 . S
H449 C462 0.930 . S
H450 C466 0.959 . S
H451 C466 0.959 1_565 S
H452 C466 0.961 . S
H453 C467 0.960 . S
H454 C467 0.961 . S
H455 C467 0.959 1_545 S
H456 C470 0.929 . S
H457 C471 0.931 . S
H458 C473 0.930 . S
C459 H447 0.930 1_556 S
C459 C460 1.399 . S
C459 C464 1.399 . S
C460 C459 1.399 . S
C460 C461 1.376 . S
C461 H448 0.930 . S
C461 C460 1.376 . S
C461 C462 1.388 . S
C462 H449 0.930 . S
C462 C461 1.388 . S
C462 C463 1.390 . S
C463 C462 1.390 . S
C463 C464 1.394 . S
C463 C469 1.465 . S
C464 C459 1.399 . S
C464 C463 1.394 . S
C464 C465 1.516 . S
C465 C464 1.516 . S
C465 C466 1.502 . S
C465 C467 1.561 1_545 S
C465 C468 1.526 . S
C466 H450 0.959 . S
C466 H451 0.959 1_545 S
C466 H452 0.961 . S
C466 C465 1.502 . S
C467 H453 0.960 . S
C467 H454 0.961 . S
C467 H455 0.959 1_565 S
C467 C465 1.561 1_565 S
C468 C465 1.526 . S
C468 C469 1.396 . S
C468 C473 1.390 . S
C469 C463 1.465 . S
C469 C468 1.396 . S
C469 C470 1.399 . S
C470 H456 0.929 . S
C470 C469 1.399 . S
C470 C471 1.385 . S
C471 H457 0.931 . S
C471 C470 1.385 . S
C471 C472 1.389 . S
C472 C471 1.389 . S
C472 C473 1.387 . S
C473 H458 0.930 . S
C473 C468 1.390 . S
C473 C472 1.387 . S
H474 C486 0.930 . S
H475 C488 0.930 . S
H476 C489 0.930 . S
H477 C493 0.959 . S
H478 C493 0.959 . S
H479 C493 0.961 . S
H480 C494 0.960 . S
H481 C494 0.961 . S
H482 C494 0.959 . S
H483 C497 0.929 . S
H484 C498 0.931 . S
H485 C500 0.930 . S
C486 H474 0.930 . S
C486 C487 1.399 . S
C486 C491 1.399 . S
C487 C486 1.399 . S
C487 C488 1.376 . S
C488 H475 0.930 . S
C488 C487 1.376 . S
C488 C489 1.388 . S
C489 H476 0.930 . S
C489 C488 1.388 . S
C489 C490 1.390 . S
C490 C489 1.390 . S
C490 C491 1.394 . S
C490 C496 1.465 . S
C491 C486 1.399 . S
C491 C490 1.394 . S
C491 C492 1.516 . S
C492 C491 1.516 . S
C492 C493 1.502 . S
C492 C494 1.561 . S
C492 C495 1.526 . S
C493 H477 0.959 . S
C493 H478 0.959 . S
C493 H479 0.961 . S
C493 C492 1.502 . S
C494 H480 0.960 . S
C494 H481 0.961 . S
C494 H482 0.959 . S
C494 C492 1.561 . S
C495 C492 1.526 . S
C495 C496 1.396 . S
C495 C500 1.390 . S
C496 C490 1.465 . S
C496 C495 1.396 . S
C496 C497 1.399 . S
C497 H483 0.929 . S
C497 C496 1.399 . S
C497 C498 1.385 . S
C498 H484 0.931 . S
C498 C497 1.385 . S
C498 C499 1.389 . S
C499 C498 1.389 . S
C499 C500 1.387 . S
C500 H485 0.930 . S
C500 C495 1.390 . S
C500 C499 1.387 . S
H501 C513 0.930 . S
H502 C515 0.930 . S
H503 C516 0.930 . S
H504 C520 0.959 1_565 S
H505 C520 0.959 . S
H506 C520 0.961 . S
H507 C521 0.960 . S
H508 C521 0.961 . S
H509 C521 0.959 . S
H510 C524 0.929 . S
H511 C525 0.931 . S
H512 C527 0.930 1_545 S
C513 H501 0.930 . S
C513 C514 1.399 . S
C513 C518 1.399 . S
C514 C513 1.399 . S
C514 C515 1.376 . S
C515 H502 0.930 . S
C515 C514 1.376 . S
C515 C516 1.388 . S
C516 H503 0.930 . S
C516 C515 1.388 . S
C516 C517 1.390 . S
C517 C516 1.390 . S
C517 C518 1.394 . S
C517 C523 1.465 . S
C518 C513 1.399 . S
C518 C517 1.394 . S
C518 C519 1.516 . S
C519 C518 1.516 . S
C519 C520 1.502 1_565 S
C519 C521 1.561 1_565 S
C519 C522 1.526 . S
C520 H504 0.959 1_545 S
C520 H505 0.959 . S
C520 H506 0.961 . S
C520 C519 1.502 1_545 S
C521 H507 0.960 . S
C521 H508 0.961 . S
C521 H509 0.959 . S
C521 C519 1.561 1_545 S
C522 C519 1.526 . S
C522 C523 1.396 . S
C522 C527 1.390 . S
C523 C517 1.465 . S
C523 C522 1.396 . S
C523 C524 1.399 . S
C524 H510 0.929 . S
C524 C523 1.399 . S
C524 C525 1.385 . S
C525 H511 0.931 . S
C525 C524 1.385 . S
C525 C526 1.389 . S
C526 C525 1.389 . S
C526 C527 1.387 . S
C527 H512 0.930 1_565 S
C527 C522 1.390 . S
C527 C526 1.387 . S
C229 C104 1.567 . S
C217 C34 1.567 . S
C244 C7 1.531 . S
C256 C176 1.503 . S
C271 C16 1.575 . S
C283 C92 1.561 . S
C298 C25 1.534 . S
C310 C188 1.548 . S
C337 C94 1.293 . S
C325 C5 1.512 . S
C364 C175 1.562 . S
C352 C13 1.561 . S
C379 C23 1.541 . S
C391 C91 1.540 . S
C406 C32 1.518 . S
C418 C178 1.345 . S
C445 C190 1.295 . S
C433 C14 1.501 . S
C472 C106 1.328 . S
C460 C22 1.519 1_556 S
C499 C187 1.550 . S
C487 C31 1.546 . S
C514 C4 1.524 . S
C526 C103 1.543 . S
