# Generated by pormake.
# Topology nom, (4,4)-cn, num edge types: 1
# Building blocks:
#     Node 0, Type 0, BuildingBlock: KUFVIS_clean_linker_0, # of connection points: 4
#     Node 1, Type 0, BuildingBlock: KUFVIS_clean_linker_0, # of connection points: 4
#     Node 2, Type 0, BuildingBlock: KUFVIS_clean_linker_0, # of connection points: 4
#     Node 3, Type 0, BuildingBlock: KUFVIS_clean_linker_0, # of connection points: 4
#     Node 4, Type 0, BuildingBlock: KUFVIS_clean_linker_0, # of connection points: 4
#     Node 5, Type 0, BuildingBlock: KUFVIS_clean_linker_0, # of connection points: 4
#     Node 6, Type 1, BuildingBlock: QUQFOY_clean_sbu_3, # of connection points: 4
#     Node 7, Type 1, BuildingBlock: QUQFOY_clean_sbu_3, # of connection points: 4
#     Node 8, Type 1, BuildingBlock: QUQFOY_clean_sbu_3, # of connection points: 4
#     Node 9, Type 1, BuildingBlock: QUQFOY_clean_sbu_3, # of connection points: 4
#     Node 10, Type 1, BuildingBlock: QUQFOY_clean_sbu_3, # of connection points: 4
#     Node 11, Type 1, BuildingBlock: QUQFOY_clean_sbu_3, # of connection points: 4
#     Edge 12, Type (0, 1), BuildingBlock: AJUNOK_clean_linker_0, # of connection points: 2
#     Edge 13, Type (0, 1), BuildingBlock: AJUNOK_clean_linker_0, # of connection points: 2
#     Edge 14, Type (0, 1), BuildingBlock: AJUNOK_clean_linker_0, # of connection points: 2
#     Edge 15, Type (0, 1), BuildingBlock: AJUNOK_clean_linker_0, # of connection points: 2
#     Edge 16, Type (0, 1), BuildingBlock: AJUNOK_clean_linker_0, # of connection points: 2
#     Edge 17, Type (0, 1), BuildingBlock: AJUNOK_clean_linker_0, # of connection points: 2
#     Edge 18, Type (0, 1), BuildingBlock: AJUNOK_clean_linker_0, # of connection points: 2
#     Edge 19, Type (0, 1), BuildingBlock: AJUNOK_clean_linker_0, # of connection points: 2
#     Edge 20, Type (0, 1), BuildingBlock: AJUNOK_clean_linker_0, # of connection points: 2
#     Edge 21, Type (0, 1), BuildingBlock: AJUNOK_clean_linker_0, # of connection points: 2
#     Edge 22, Type (0, 1), BuildingBlock: AJUNOK_clean_linker_0, # of connection points: 2
#     Edge 23, Type (0, 1), BuildingBlock: AJUNOK_clean_linker_0, # of connection points: 2
#     Edge 24, Type (0, 1), BuildingBlock: AJUNOK_clean_linker_0, # of connection points: 2
#     Edge 25, Type (0, 1), BuildingBlock: AJUNOK_clean_linker_0, # of connection points: 2
#     Edge 26, Type (0, 1), BuildingBlock: AJUNOK_clean_linker_0, # of connection points: 2
#     Edge 27, Type (0, 1), BuildingBlock: AJUNOK_clean_linker_0, # of connection points: 2
#     Edge 28, Type (0, 1), BuildingBlock: AJUNOK_clean_linker_0, # of connection points: 2
#     Edge 29, Type (0, 1), BuildingBlock: AJUNOK_clean_linker_0, # of connection points: 2
#     Edge 30, Type (0, 1), BuildingBlock: AJUNOK_clean_linker_0, # of connection points: 2
#     Edge 31, Type (0, 1), BuildingBlock: AJUNOK_clean_linker_0, # of connection points: 2
#     Edge 32, Type (0, 1), BuildingBlock: AJUNOK_clean_linker_0, # of connection points: 2
#     Edge 33, Type (0, 1), BuildingBlock: AJUNOK_clean_linker_0, # of connection points: 2
#     Edge 34, Type (0, 1), BuildingBlock: AJUNOK_clean_linker_0, # of connection points: 2
#     Edge 35, Type (0, 1), BuildingBlock: AJUNOK_clean_linker_0, # of connection points: 2
# Relax obj value: 0.003
# Max RMSD: 0.049
# Mean RMSD: 0.035
data_MOF--net-nom--node1-QUQFOY_clean_sbu_3--node2-KUFVIS_clean_linker_0--edge1-AJUNOK_clean_linker_0
_symmetry_space_group_name_H-M    P1
_symmetry_Int_Tables_number       1
_symmetry_cell_setting            triclinic
loop_
_symmetry_equiv_pos_as_xyz
'x, y, z'
_cell_length_a     33.839019
_cell_length_b     34.825185
_cell_length_c     36.634262
_cell_angle_alpha  89.889232
_cell_angle_beta   89.924107
_cell_angle_gamma 120.15854
loop_
_atom_site_label
_atom_site_type_symbol
_atom_site_fract_x
_atom_site_fract_y
_atom_site_fract_z
_atom_type_partial_charge
H0 H 0.178 0.62452 0.31763 0.0
H1 H 0.07118 0.59356 0.24053 0.0
H2 H 0.03944 0.53403 0.34848 0.0
H3 H 0.97277 0.53444 0.33681 0.0
H4 H 0.87108 0.46337 0.25541 0.0
H5 H 1.01246 0.52516 0.22619 0.0
C6 C 0.14199 0.6062 0.31057 0.0
C7 C 0.11013 0.57918 0.33673 0.0
C8 C 0.12818 0.61111 0.27589 0.0
C9 C 0.0815 0.58865 0.26728 0.0
C10 C 0.0486 0.55987 0.29305 0.0
C11 C 0.06353 0.55589 0.32812 0.0
C12 C 0.99925 0.53304 0.28297 0.0
C13 C 0.96434 0.52214 0.30913 0.0
C14 C 0.91813 0.49565 0.29945 0.0
C15 C 0.90676 0.48146 0.26339 0.0
C16 C 0.94061 0.49257 0.23698 0.0
C17 C 0.98668 0.51779 0.24685 0.0
H18 H 0.56897 0.16484 0.49044 0.0
H19 H 0.49937 0.06589 0.40899 0.0
H20 H 0.51312 0.02847 0.51961 0.0
H21 H 0.4549 0.96304 0.50531 0.0
H22 H 0.43038 0.86884 0.42098 0.0
H23 H 0.50175 1.00674 0.39437 0.0
C24 C 0.55048 0.13007 0.48263 0.0
C25 C 0.54102 0.09756 0.50881 0.0
C26 C 0.53648 0.11873 0.44663 0.0
C27 C 0.5113 0.07377 0.43682 0.0
C28 C 0.50278 0.03989 0.4627 0.0
C29 C 0.51781 0.05269 0.499 0.0
C30 C 0.48116 0.99201 0.45147 0.0
C31 C 0.45907 0.95668 0.4771 0.0
C32 C 0.44238 0.9124 0.4663 0.0
C33 C 0.4453 0.90313 0.42969 0.0
C34 C 0.46576 0.93706 0.40394 0.0
C35 C 0.48425 0.98122 0.41481 0.0
H36 H 0.57579 0.41285 0.60399 0.0
H37 H 0.51039 0.44968 0.68555 0.0
H38 H 0.51921 0.49342 0.5731 0.0
H39 H 0.45643 0.49515 0.58796 0.0
H40 H 0.43347 0.5725 0.66656 0.0
H41 H 0.51368 0.51401 0.69669 0.0
C42 C 0.55778 0.43014 0.61156 0.0
C43 C 0.54756 0.45218 0.58482 0.0
C44 C 0.54531 0.42998 0.64784 0.0
C45 C 0.52096 0.45133 0.65743 0.0
C46 C 0.51108 0.47495 0.63072 0.0
C47 C 0.52476 0.47489 0.59423 0.0
C48 C 0.48861 0.5012 0.6408 0.0
C49 C 0.46273 0.50962 0.61494 0.0
C50 C 0.44458 0.53692 0.62375 0.0
C51 C 0.44996 0.55378 0.65905 0.0
C52 C 0.47408 0.54487 0.68537 0.0
C53 C 0.49387 0.51921 0.67616 0.0
H54 H 0.18187 0.5782 0.75361 0.0
H55 H 0.07999 0.51249 0.83643 0.0
H56 H 0.04077 0.52114 0.72558 0.0
H57 H 0.98096 0.45455 0.74005 0.0
H58 H 0.87458 0.42404 0.81759 0.0
H59 H 1.01361 0.51183 0.84851 0.0
C60 C 0.14623 0.56147 0.76187 0.0
C61 C 0.11242 0.55026 0.73553 0.0
C62 C 0.13477 0.54894 0.79834 0.0
C63 C 0.08847 0.52393 0.80849 0.0
C64 C 0.05363 0.51341 0.78245 0.0
C65 C 0.0664 0.52765 0.74607 0.0
C66 C 1.00412 0.48749 0.79268 0.0
C67 C 0.97093 0.45961 0.76687 0.0
C68 C 0.92426 0.43804 0.77551 0.0
C69 C 0.91061 0.44226 0.81046 0.0
C70 C 0.9427 0.46786 0.83689 0.0
C71 C 0.98935 0.49091 0.828 0.0
H72 H 0.49472 0.87694 -0.00723 0.0
H73 H 0.56099 0.9751 0.90967 0.0
H74 H 0.54853 1.01311 0.02038 0.0
H75 H 0.6044 0.07883 0.00586 0.0
H76 H 0.63093 0.17278 0.92067 0.0
H77 H 0.56138 0.03493 0.89453 0.0
C78 C 0.513 0.91162 -0.01547 0.0
C79 C 0.52245 0.94432 0.01033 0.0
C80 C 0.52561 0.92267 0.94818 0.0
C81 C 0.55001 0.96757 0.93778 0.0
C82 C 0.55879 1.00166 0.96342 0.0
C83 C 0.54436 0.98901 -5e-05 0.0
C84 C 0.58015 0.04956 0.95187 0.0
C85 C 0.60103 0.08495 -0.02258 0.0
C86 C 0.61745 0.1291 0.96629 0.0
C87 C 0.61624 0.13848 0.92944 0.0
C88 C 0.59744 0.1046 0.90367 0.0
C89 C 0.5783 0.0604 0.91495 0.0
H90 H 0.46882 0.61989 0.10285 0.0
H91 H 0.53459 0.58431 0.18489 0.0
H92 H 0.52915 0.54246 0.07242 0.0
H93 H 0.59189 0.54138 0.08778 0.0
H94 H 0.61674 0.46587 0.16717 0.0
H95 H 0.53332 0.52116 0.19636 0.0
C96 C 0.48696 0.60278 0.1106 0.0
C97 C 0.49878 0.58202 0.08387 0.0
C98 C 0.49894 0.60288 0.14699 0.0
C99 C 0.52418 0.58247 0.15674 0.0
C100 C 0.53535 0.55975 0.13015 0.0
C101 C 0.52229 0.56003 0.09353 0.0
C102 C 0.55886 0.5345 0.14049 0.0
C103 C 0.58565 0.52696 0.11484 0.0
C104 C 0.60481 0.5006 0.124 0.0
C105 C 0.59955 0.48387 0.15942 0.0
C106 C 0.57463 0.49204 0.18553 0.0
C107 C 0.55378 0.51665 0.17597 0.0
C108 C 0.75251 0.46064 0.37327 0.0
O109 O 0.75003 0.4936 0.38517 0.0
Cd110 Cd 0.68085 0.48996 0.40487 0.0
O111 O 0.71664 0.42233 0.37129 0.0
Cd112 Cd 0.63315 0.38496 0.38606 0.0
C113 C 0.61554 0.44967 0.32723 0.0
O114 O 0.64508 0.42535 0.44222 0.0
O115 O 0.57495 0.38691 0.42566 0.0
O116 O 0.63894 0.31995 0.40191 0.0
C117 C 0.60364 0.41226 0.44911 0.0
O118 O 0.63616 0.48134 0.34989 0.0
C119 C 0.60118 0.29149 0.38782 0.0
O120 O 0.61269 0.41228 0.33277 0.0
O121 O 0.57843 0.30649 0.37188 0.0
C122 C 0.31614 0.56952 0.54526 0.0
O123 O 0.28004 0.53632 0.53311 0.0
Cd124 Cd 0.21445 0.53946 0.51345 0.0
O125 O 0.31942 0.60765 0.54673 0.0
Cd126 Cd 0.27358 0.64351 0.53031 0.0
C127 C 0.19157 0.58013 0.59115 0.0
O128 O 0.24203 0.60234 0.47416 0.0
O129 O 0.20971 0.63788 0.49394 0.0
O130 O 0.34449 0.70932 0.51097 0.0
C131 C 0.21268 0.61413 0.46917 0.0
O132 O 0.17928 0.54823 0.56874 0.0
C133 C 0.33637 0.73754 0.52592 0.0
O134 O 0.22691 0.6177 0.5849 0.0
O135 O 0.29938 0.72207 0.54393 0.0
C136 C 0.76315 0.30281 0.7041 0.0
O137 O 0.76192 0.26826 0.69154 0.0
Cd138 Cd 0.69187 0.20207 0.67633 0.0
O139 O 0.72628 0.30371 0.70892 0.0
Cd140 Cd 0.64227 0.25782 0.70029 0.0
C141 C 0.63548 0.17986 0.75877 0.0
O142 O 0.64743 0.22597 0.64327 0.0
O143 O 0.58001 0.19627 0.66663 0.0
O144 O 0.64612 0.32751 0.68477 0.0
C145 C 0.60539 0.19736 0.64075 0.0
O146 O 0.65459 0.16864 0.73439 0.0
C147 C 0.61034 0.31997 0.70202 0.0
O148 O 0.62993 0.21307 0.75402 0.0
O149 O 0.58925 0.28341 0.71926 0.0
C150 C 0.29919 0.58228 0.87288 0.0
O151 O 0.30082 0.54902 0.88526 0.0
Cd152 Cd 0.36937 0.55125 0.90459 0.0
O153 O 0.3356 0.62016 0.87048 0.0
Cd154 Cd 0.41897 0.65552 0.88528 0.0
C155 C 0.43444 0.58985 0.82646 0.0
O156 O 0.40746 0.61539 0.94197 0.0
O157 O 0.47688 0.65082 0.92282 0.0
O158 O 0.4161 0.72169 0.90255 0.0
C159 C 0.44888 0.62711 0.94744 0.0
O160 O 0.4135 0.5585 0.84949 0.0
C161 C 0.45393 0.74958 0.88801 0.0
O162 O 0.43811 0.62763 0.83163 0.0
O163 O 0.47525 0.73377 0.87101 0.0
C164 C 0.73641 0.4709 0.04712 0.0
O165 O 0.77296 0.50458 0.03595 0.0
Cd166 Cd 0.83946 0.50251 0.01659 0.0
O167 O 0.73311 0.43272 0.04791 0.0
Cd168 Cd 0.77962 0.39759 0.03154 0.0
C169 C 0.86039 0.45894 0.09357 0.0
O170 O 0.81308 0.44091 -0.02379 0.0
O171 O 0.84406 0.40396 -0.00409 0.0
O172 O 0.70926 0.33214 0.01117 0.0
C173 C 0.84218 0.42869 -0.02858 0.0
O174 O 0.87348 0.49172 0.07179 0.0
C175 C 0.71707 0.30369 0.02612 0.0
O176 O 0.82495 0.42182 0.08661 0.0
O177 O 0.75381 0.31881 0.04428 0.0
C178 C 0.2918 0.74549 0.2056 0.0
O179 O 0.29631 0.78191 0.1941 0.0
Cd180 Cd 0.36849 0.84562 0.17853 0.0
O181 O 0.32671 0.7409 0.20934 0.0
Cd182 Cd 0.41101 0.78209 0.20025 0.0
C183 C 0.4261 0.86253 0.2596 0.0
O184 O 0.4076 0.81681 0.1443 0.0
O185 O 0.47528 0.84047 0.16523 0.0
O186 O 0.40325 0.71086 0.18404 0.0
C187 C 0.45015 0.84267 0.14071 0.0
O188 O 0.40832 0.87638 0.23614 0.0
C189 C 0.43804 0.71624 0.20156 0.0
O190 O 0.42786 0.82737 0.25403 0.0
O191 O 0.46014 0.75216 0.2193 0.0
C192 C 0.20087 0.63422 0.24286 0.0
C193 C 0.16399 0.641 0.24989 0.0
C194 C 0.24111 0.66738 0.22669 0.0
C195 C 0.24614 0.70875 0.21699 0.0
H196 H 0.19951 0.60391 0.25187 0.0
H197 H 0.26919 0.66112 0.22333 0.0
S198 S 0.15697 0.74071 0.22597 0.0
N199 N 0.13299 0.69005 0.24325 0.0
N200 N 0.2085 0.7527 0.21237 0.0
C201 C 0.20805 0.71462 0.22141 0.0
C202 C 0.16697 0.68063 0.23796 0.0
C203 C 0.59764 0.18544 0.41567 0.0
C204 C 0.55062 0.15565 0.42033 0.0
C205 C 0.61365 0.22851 0.40245 0.0
C206 C 0.58319 0.24329 0.39313 0.0
H207 H 0.62233 0.17658 0.42521 0.0
H208 H 0.65022 0.25118 0.40162 0.0
S209 S 0.45652 0.17567 0.39551 0.0
N210 N 0.47366 0.14194 0.41119 0.0
N211 N 0.50349 0.22278 0.3854 0.0
C212 C 0.53594 0.21235 0.3943 0.0
C213 C 0.51969 0.16848 0.40814 0.0
C214 C 0.37723 0.51123 0.58249 0.0
C215 C 0.4172 0.5463 0.59751 0.0
C216 C 0.34576 0.51931 0.56413 0.0
C217 C 0.35308 0.56276 0.56018 0.0
H218 H 0.36893 0.47719 0.58679 0.0
H219 H 0.31449 0.49096 0.55443 0.0
S220 S 0.45649 0.66642 0.58999 0.0
N221 N 0.46531 0.62618 0.60377 0.0
N222 N 0.40637 0.64162 0.56939 0.0
C223 C 0.39463 0.5983 0.57296 0.0
C224 C 0.4266 0.58999 0.59158 0.0
C225 C 0.88543 0.369 0.73815 0.0
C226 C 0.88849 0.40891 0.7494 0.0
C227 C 0.84556 0.33565 0.72154 0.0
C228 C 0.80742 0.34109 0.71585 0.0
H229 H 0.91271 0.36236 0.74442 0.0
H230 H 0.84378 0.30448 0.71506 0.0
S231 S 0.80217 0.44312 0.73509 0.0
N232 N 0.85304 0.45457 0.74979 0.0
N233 N 0.77815 0.39224 0.71852 0.0
C234 C 0.81176 0.38243 0.72444 0.0
C235 C 0.85231 0.41625 0.74122 0.0
C236 C 0.46229 0.85695 0.91829 0.0
C237 C 0.50966 0.88557 0.92198 0.0
C238 C 0.44459 0.81389 0.90466 0.0
C239 C 0.47362 0.79792 0.89397 0.0
H240 H 0.43867 0.86673 0.92878 0.0
H241 H 0.40783 0.79214 0.90451 0.0
S242 S 0.60049 0.86219 0.89377 0.0
N243 N 0.58539 0.8969 0.91072 0.0
N244 N 0.55236 0.81606 0.88418 0.0
C245 C 0.52117 0.82768 0.89435 0.0
C246 C 0.53917 0.87156 0.90861 0.0
C247 C 0.67321 0.52756 0.08346 0.0
C248 C 0.63307 0.49202 0.09801 0.0
C249 C 0.70548 0.52019 0.06555 0.0
C250 C 0.69879 0.47698 0.0616 0.0
H251 H 0.68099 0.56142 0.08779 0.0
H252 H 0.73682 0.54887 0.0562 0.0
S253 S 0.59536 0.37231 0.09037 0.0
N254 N 0.5856 0.41199 0.10392 0.0
N255 N 0.64596 0.39784 0.07033 0.0
C256 C 0.65711 0.44098 0.07391 0.0
C257 C 0.62435 0.44858 0.09209 0.0
C258 C 0.43787 0.84465 0.49279 0.0
C259 C 0.42084 0.87411 0.49179 0.0
C260 C 0.41135 0.80135 0.50626 0.0
C261 C 0.36684 0.78588 0.51954 0.0
H262 H 0.47068 0.85411 0.48049 0.0
H263 H 0.42496 0.77913 0.50438 0.0
S264 S 0.30899 0.85218 0.52754 0.0
N265 N 0.35883 0.88658 0.5085 0.0
N266 N 0.30896 0.80531 0.53472 0.0
C267 C 0.35105 0.81636 0.52184 0.0
C268 C 0.3781 0.86051 0.50777 0.0
C269 C 0.60676 0.42349 0.6783 0.0
C270 C 0.55967 0.40744 0.67442 0.0
C271 C 0.62289 0.39566 0.69016 0.0
C272 C 0.5925 0.35092 0.69895 0.0
H273 H 0.63131 0.45656 0.66876 0.0
H274 H 0.65945 0.40851 0.69012 0.0
S275 S 0.46589 0.29502 0.69879 0.0
N276 N 0.48284 0.34588 0.68411 0.0
N277 N 0.513 0.2935 0.7075 0.0
C278 C 0.54531 0.33584 0.69896 0.0
C279 C 0.5289 0.3642 0.68641 0.0
C280 C 0.17567 0.52465 0.84079 0.0
C281 C 0.17234 0.55927 0.82426 0.0
C282 C 0.21619 0.53279 0.85796 0.0
C283 C 0.2549 0.57588 0.85915 0.0
H284 H 0.14786 0.49069 0.83846 0.0
H285 H 0.2177 0.50464 0.86887 0.0
S286 S 0.26038 0.67879 0.8245 0.0
N287 N 0.20862 0.63867 0.81357 0.0
N288 N 0.2848 0.65431 0.84582 0.0
C289 C 0.25059 0.61122 0.84495 0.0
C290 C 0.20933 0.60282 0.82752 0.0
C291 C 0.68061 0.18343 0.0063 0.0
C292 C 0.63662 0.1671 -0.00817 0.0
C293 C 0.7054 0.22689 0.02014 0.0
C294 C 0.68714 0.25545 0.01939 0.0
H295 H 0.69726 0.16385 0.00429 0.0
H296 H 0.74028 0.23918 0.02891 0.0
S297 S 0.57026 0.22531 -0.01013 0.0
N298 N 0.57354 0.18032 -0.018 0.0
N299 N 0.62002 0.2619 0.00754 0.0
C300 C 0.64171 0.23798 0.00786 0.0
C301 C 0.61647 0.19379 -0.00578 0.0
C302 C 0.43757 0.61131 0.17573 0.0
C303 C 0.48444 0.62556 0.17331 0.0
C304 C 0.4226 0.63999 0.18772 0.0
C305 C 0.45394 0.68379 0.19817 0.0
H306 H 0.41253 0.57916 0.16502 0.0
H307 H 0.38637 0.62866 0.18656 0.0
S308 S 0.58 0.73452 0.2025 0.0
N309 N 0.56177 0.68412 0.18631 0.0
N310 N 0.53374 0.73802 0.20998 0.0
C311 C 0.50063 0.6968 0.19969 0.0
C312 C 0.51588 0.66759 0.187 0.0
C313 C 0.87604 0.51979 0.34072 0.0
C314 C 0.88041 0.48524 0.32534 0.0
C315 C 0.83519 0.51121 0.35765 0.0
C316 C 0.79719 0.46775 0.35975 0.0
H317 H 0.90326 0.55394 0.3376 0.0
H318 H 0.83283 0.53924 0.36764 0.0
S319 S 0.79457 0.36511 0.32835 0.0
N320 N 0.84593 0.4057 0.31678 0.0
N321 N 0.7691 0.38924 0.34858 0.0
C322 C 0.80256 0.43259 0.34674 0.0
C323 C 0.84417 0.44143 0.32956 0.0
C324 C 0.12175 0.60135 0.40189 0.0
C325 C 0.12729 0.57775 0.37328 0.0
C326 C 0.14844 0.61165 0.4335 0.0
C327 C 0.18153 0.59868 0.4374 0.0
H328 H 0.09884 0.6144 0.39879 0.0
H329 H 0.14437 0.63147 0.4543 0.0
S330 S 0.20492 0.53174 0.37126 0.0
N331 N 0.16496 0.53851 0.35159 0.0
N332 N 0.21499 0.55723 0.41101 0.0
C333 C 0.18511 0.57251 0.40978 0.0
C334 C 0.15799 0.56219 0.37769 0.0
C335 C 0.60323 0.14001 0.55276 0.0
C336 C 0.55631 0.11248 0.54629 0.0
C337 C 0.61876 0.16594 0.58423 0.0
C338 C 0.58783 0.16544 0.61022 0.0
H339 H 0.62794 0.14358 0.5322 0.0
H340 H 0.65522 0.18795 0.58735 0.0
S341 S 0.46137 0.09521 0.60713 0.0
N342 N 0.47912 0.0833 0.56906 0.0
N343 N 0.508 0.13186 0.62875 0.0
C344 C 0.54081 0.13568 0.60514 0.0
C345 C 0.5251 0.10917 0.573 0.0
C346 C 0.45436 0.52712 0.75094 0.0
C347 C 0.47413 0.55921 0.72325 0.0
C348 C 0.44359 0.53788 0.7849 0.0
C349 C 0.45221 0.58114 0.79232 0.0
H350 H 0.44446 0.49286 0.74556 0.0
H351 H 0.42644 0.51149 0.80479 0.0
S352 S 0.51075 0.67862 0.73027 0.0
N353 N 0.50716 0.63681 0.70644 0.0
N354 N 0.48718 0.65749 0.77025 0.0
C355 C 0.47528 0.61428 0.76562 0.0
C356 C 0.48617 0.60319 0.73108 0.0
C357 C 0.89248 0.47934 0.87944 0.0
C358 C 0.92591 0.46726 0.87413 0.0
C359 C 0.86692 0.4683 0.9117 0.0
C360 C 0.87352 0.4443 0.93965 0.0
H361 H 0.88442 0.49538 0.85766 0.0
H362 H 0.84041 0.47694 0.91397 0.0
S363 S 0.96019 0.40867 0.94003 0.0
N364 N 0.96687 0.43317 0.90003 0.0
N365 N 0.9189 0.41223 0.961 0.0
C366 C 0.90881 0.43435 0.93547 0.0
C367 C 0.93507 0.44596 0.90262 0.0
C368 C 0.53484 0.92343 0.07198 0.0
C369 C 0.50651 0.92964 0.04772 0.0
C370 C 0.51659 0.8968 0.10311 0.0
C371 C 0.46936 0.8751 0.1105 0.0
H372 H 0.57068 0.93682 0.06558 0.0
H373 H 0.53927 0.89129 0.12035 0.0
S374 S 0.38211 0.88536 0.05678 0.0
N375 N 0.43034 0.91565 0.03416 0.0
N376 N 0.39556 0.86555 0.09268 0.0
C377 C 0.44128 0.88355 0.08748 0.0
C378 C 0.46002 0.91087 0.05602 0.0
C379 C 0.59388 0.51051 0.25097 0.0
C380 C 0.57483 0.47816 0.22357 0.0
C381 C 0.60493 0.50041 0.2851 0.0
C382 C 0.5973 0.45756 0.293 0.0
H383 H 0.60302 0.54453 0.24521 0.0
H384 H 0.62153 0.52702 0.30474 0.0
S385 S 0.54085 0.35946 0.23185 0.0
N386 N 0.54351 0.40066 0.20754 0.0
N387 N 0.56396 0.38118 0.27169 0.0
C388 C 0.5749 0.42409 0.26659 0.0
C389 C 0.56375 0.43452 0.23187 0.0
C390 C 0.44138 0.93701 0.33997 0.0
C391 C 0.46455 0.92513 0.36523 0.0
C392 C 0.43079 0.91802 0.30516 0.0
C393 C 0.44296 0.88646 0.29456 0.0
H394 H 0.42899 0.95906 0.34791 0.0
H395 H 0.41103 0.92662 0.28715 0.0
S396 S 0.511 0.85033 0.34925 0.0
N397 N 0.50435 0.88453 0.3763 0.0
N398 N 0.48473 0.84869 0.31085 0.0
C399 C 0.46915 0.87689 0.31884 0.0
C400 C 0.47989 0.89628 0.3542 0.0
C401 C 0.52935 0.42184 0.52195 0.0
C402 C 0.56175 0.45074 0.54718 0.0
C403 C 0.5432 0.41073 0.48951 0.0
C404 C 0.58987 0.42806 0.4815 0.0
H405 H 0.49321 0.40572 0.52836 0.0
H406 H 0.51713 0.38697 0.4714 0.0
S407 S 0.68764 0.50914 0.53768 0.0
N408 N 0.64185 0.49923 0.56127 0.0
N409 N 0.66837 0.47895 0.50029 0.0
C410 C 0.62249 0.45916 0.50573 0.0
C411 C 0.60828 0.47035 0.53862 0.0
C412 C 0.16163 0.60102 0.68596 0.0
C413 C 0.12603 0.55899 0.69667 0.0
C414 C 0.18122 0.60794 0.6512 0.0
C415 C 0.16612 0.573 0.62586 0.0
H416 H 0.17559 0.62837 0.70512 0.0
H417 H 0.20956 0.64064 0.64475 0.0
S418 S 0.07093 0.4573 0.63992 0.0
N419 N 0.07441 0.48256 0.67885 0.0
N420 N 0.11065 0.49542 0.61321 0.0
C421 C 0.12868 0.53132 0.63562 0.0
C422 C 0.10875 0.52437 0.67109 0.0
C423 C 0.58587 0.1465 0.85383 0.0
C424 C 0.60003 0.11664 0.86476 0.0
C425 C 0.59598 0.16537 0.81898 0.0
C426 C 0.62078 0.15517 0.79374 0.0
H427 H 0.56835 0.15664 0.87291 0.0
H428 H 0.58545 0.18921 0.81229 0.0
S429 S 0.66224 0.07572 0.8085 0.0
N430 N 0.63741 0.07541 0.8474 0.0
N431 N 0.65624 0.11044 0.78146 0.0
C432 C 0.63285 0.12329 0.80372 0.0
C433 C 0.62246 0.10409 0.83934 0.0
C434 C 0.44085 0.56985 0.03715 0.0
C435 C 0.48678 0.58524 0.04583 0.0
C436 C 0.42898 0.58234 0.00457 0.0
C437 C 0.46267 0.61095 -0.0204 0.0
H438 H 0.41411 0.54991 0.05661 0.0
H439 H 0.39316 0.57079 -0.00032 0.0
S440 S 0.5878 0.65711 -0.01133 0.0
N441 N 0.56594 0.62782 0.02636 0.0
N442 N 0.54389 0.65145 0.96468 0.0
C443 C 0.50866 0.62445 -0.01293 0.0
C444 C 0.52066 0.61149 0.02032 0.0
C445 C 0.94136 0.51559 0.17256 0.0
C446 C 0.92673 0.48138 0.1985 0.0
C447 C 0.92102 0.50757 0.13806 0.0
C448 C 0.8853 0.46502 0.12832 0.0
H449 H 0.96676 0.54931 0.17971 0.0
H450 H 0.93213 0.53545 0.11958 0.0
S451 S 0.84002 0.36288 0.18515 0.0
N452 N 0.87861 0.40267 0.21118 0.0
N453 N 0.84016 0.38715 0.14635 0.0
C454 C 0.87274 0.42987 0.15329 0.0
C455 C 0.89351 0.43818 0.18839 0.0
loop_
_geom_bond_atom_site_label_1
_geom_bond_atom_site_label_2
_geom_bond_distance
_geom_bond_site_symmetry_2
_ccdc_geom_bond_type
H0 C6 0.930 . S
H1 C9 0.931 . S
H2 C11 0.931 . S
H3 C13 0.930 . S
H4 C15 0.930 . S
H5 C17 0.931 . S
C6 H0 0.930 . S
C6 C7 1.380 . S
C6 C8 1.394 . S
C7 C6 1.380 . S
C7 C11 1.382 . S
C8 C6 1.394 . S
C8 C9 1.400 . S
C9 H1 0.931 . S
C9 C8 1.400 . S
C9 C10 1.375 . S
C10 C9 1.375 . S
C10 C11 1.415 . S
C10 C12 1.501 1_455 S
C11 H2 0.931 . S
C11 C7 1.382 . S
C11 C10 1.415 . S
C12 C10 1.501 1_655 S
C12 C13 1.384 . S
C12 C17 1.408 . S
C13 H3 0.930 . S
C13 C12 1.384 . S
C13 C14 1.389 . S
C14 C13 1.389 . S
C14 C15 1.405 . S
C15 H4 0.930 . S
C15 C14 1.405 . S
C15 C16 1.364 . S
C16 C15 1.364 . S
C16 C17 1.400 . S
C17 H5 0.931 . S
C17 C12 1.408 . S
C17 C16 1.400 . S
H18 C24 0.930 . S
H19 C27 0.931 . S
H20 C29 0.931 . S
H21 C31 0.930 . S
H22 C33 0.930 . S
H23 C35 0.931 . S
C24 H18 0.930 . S
C24 C25 1.380 . S
C24 C26 1.394 . S
C25 C24 1.380 . S
C25 C29 1.382 . S
C26 C24 1.394 . S
C26 C27 1.400 . S
C27 H19 0.931 . S
C27 C26 1.400 . S
C27 C28 1.375 . S
C28 C27 1.375 . S
C28 C29 1.415 . S
C28 C30 1.501 1_545 S
C29 H20 0.931 . S
C29 C25 1.382 . S
C29 C28 1.415 . S
C30 C28 1.501 1_565 S
C30 C31 1.384 . S
C30 C35 1.408 . S
C31 H21 0.930 . S
C31 C30 1.384 . S
C31 C32 1.389 . S
C32 C31 1.389 . S
C32 C33 1.405 . S
C33 H22 0.930 . S
C33 C32 1.405 . S
C33 C34 1.364 . S
C34 C33 1.364 . S
C34 C35 1.400 . S
C35 H23 0.931 . S
C35 C30 1.408 . S
C35 C34 1.400 . S
H36 C42 0.930 . S
H37 C45 0.931 . S
H38 C47 0.931 . S
H39 C49 0.930 . S
H40 C51 0.930 . S
H41 C53 0.931 . S
C42 H36 0.930 . S
C42 C43 1.380 . S
C42 C44 1.394 . S
C43 C42 1.380 . S
C43 C47 1.382 . S
C44 C42 1.394 . S
C44 C45 1.400 . S
C45 H37 0.931 . S
C45 C44 1.400 . S
C45 C46 1.375 . S
C46 C45 1.375 . S
C46 C47 1.415 . S
C46 C48 1.501 . S
C47 H38 0.931 . S
C47 C43 1.382 . S
C47 C46 1.415 . S
C48 C46 1.501 . S
C48 C49 1.384 . S
C48 C53 1.408 . S
C49 H39 0.930 . S
C49 C48 1.384 . S
C49 C50 1.389 . S
C50 C49 1.389 . S
C50 C51 1.405 . S
C51 H40 0.930 . S
C51 C50 1.405 . S
C51 C52 1.364 . S
C52 C51 1.364 . S
C52 C53 1.400 . S
C53 H41 0.931 . S
C53 C48 1.408 . S
C53 C52 1.400 . S
H54 C60 0.930 . S
H55 C63 0.931 . S
H56 C65 0.931 . S
H57 C67 0.930 . S
H58 C69 0.930 . S
H59 C71 0.931 . S
C60 H54 0.930 . S
C60 C61 1.380 . S
C60 C62 1.394 . S
C61 C60 1.380 . S
C61 C65 1.382 . S
C62 C60 1.394 . S
C62 C63 1.400 . S
C63 H55 0.931 . S
C63 C62 1.400 . S
C63 C64 1.375 . S
C64 C63 1.375 . S
C64 C65 1.415 . S
C64 C66 1.501 1_455 S
C65 H56 0.931 . S
C65 C61 1.382 . S
C65 C64 1.415 . S
C66 C64 1.501 1_655 S
C66 C67 1.384 . S
C66 C71 1.408 . S
C67 H57 0.930 . S
C67 C66 1.384 . S
C67 C68 1.389 . S
C68 C67 1.389 . S
C68 C69 1.405 . S
C69 H58 0.930 . S
C69 C68 1.405 . S
C69 C70 1.364 . S
C70 C69 1.364 . S
C70 C71 1.400 . S
C71 H59 0.931 . S
C71 C66 1.408 . S
C71 C70 1.400 . S
H72 C78 0.930 . S
H73 C81 0.931 . S
H74 C83 0.931 . S
H75 C85 0.930 . S
H76 C87 0.930 . S
H77 C89 0.931 . S
C78 H72 0.930 . S
C78 C79 1.380 . S
C78 C80 1.394 1_554 S
C79 C78 1.380 . S
C79 C83 1.382 . S
C80 C78 1.394 1_556 S
C80 C81 1.400 . S
C81 H73 0.931 . S
C81 C80 1.400 . S
C81 C82 1.375 . S
C82 C81 1.375 . S
C82 C83 1.415 1_556 S
C82 C84 1.501 1_565 S
C83 H74 0.931 . S
C83 C79 1.382 . S
C83 C82 1.415 1_554 S
C84 C82 1.501 1_545 S
C84 C85 1.384 1_556 S
C84 C89 1.408 . S
C85 H75 0.930 . S
C85 C84 1.384 1_554 S
C85 C86 1.397 . S
C86 C85 1.397 . S
C86 C87 1.379 1_554 S
C87 H76 0.930 . S
C87 C86 1.379 1_556 S
C87 C88 1.364 . S
C88 C87 1.364 . S
C88 C89 1.400 . S
C89 H77 0.931 . S
C89 C84 1.408 . S
C89 C88 1.400 . S
H90 C96 0.930 . S
H91 C99 0.931 . S
H92 C101 0.931 . S
H93 C103 0.930 . S
H94 C105 0.930 . S
H95 C107 0.931 . S
C96 H90 0.930 . S
C96 C97 1.380 . S
C96 C98 1.394 . S
C97 C96 1.380 . S
C97 C101 1.382 . S
C98 C96 1.394 . S
C98 C99 1.400 . S
C99 H91 0.931 . S
C99 C98 1.400 . S
C99 C100 1.375 . S
C100 C99 1.375 . S
C100 C101 1.415 . S
C100 C102 1.501 . S
C101 H92 0.931 . S
C101 C97 1.382 . S
C101 C100 1.415 . S
C102 C100 1.501 . S
C102 C103 1.384 . S
C102 C107 1.408 . S
C103 H93 0.930 . S
C103 C102 1.384 . S
C103 C104 1.389 . S
C104 C103 1.389 . S
C104 C105 1.405 . S
C105 H94 0.930 . S
C105 C104 1.405 . S
C105 C106 1.364 . S
C106 C105 1.364 . S
C106 C107 1.400 . S
C107 H95 0.931 . S
C107 C102 1.408 . S
C107 C106 1.400 . S
C108 O109 1.306 . S
C108 O111 1.160 . S
O109 C108 1.306 . S
O109 Cd110 2.228 . S
Cd110 O109 2.228 . S
Cd110 O114 2.273 . S
Cd110 O118 2.277 . S
O111 C108 1.160 . S
O111 Cd112 2.203 . S
Cd112 O111 2.203 . S
Cd112 O114 2.411 . S
Cd112 O115 2.333 . S
Cd112 O116 2.352 . S
Cd112 O120 2.277 . S
Cd112 O121 2.356 . S
C113 O118 1.209 . S
C113 O120 1.226 . S
O114 Cd110 2.273 . S
O114 Cd112 2.411 . S
O114 C117 1.320 . S
O115 Cd112 2.333 . S
O115 C117 1.214 . S
O116 Cd112 2.352 . S
O116 C119 1.258 . S
C117 O114 1.320 . S
C117 O115 1.214 . S
O118 Cd110 2.277 . S
O118 C113 1.209 . S
C119 O116 1.258 . S
C119 O121 1.282 . S
O120 Cd112 2.277 . S
O120 C113 1.226 . S
O121 Cd112 2.356 . S
O121 C119 1.282 . S
C122 O123 1.306 . S
C122 O125 1.160 . S
O123 C122 1.306 . S
O123 Cd124 2.228 . S
Cd124 O123 2.228 . S
Cd124 O128 2.273 . S
Cd124 O132 2.277 . S
O125 C122 1.160 . S
O125 Cd126 2.203 . S
Cd126 O125 2.203 . S
Cd126 O128 2.411 . S
Cd126 O129 2.333 . S
Cd126 O130 2.352 . S
Cd126 O134 2.277 . S
Cd126 O135 2.356 . S
C127 O132 1.209 . S
C127 O134 1.226 . S
O128 Cd124 2.273 . S
O128 Cd126 2.411 . S
O128 C131 1.320 . S
O129 Cd126 2.333 . S
O129 C131 1.214 . S
O130 Cd126 2.352 . S
O130 C133 1.258 . S
C131 O128 1.320 . S
C131 O129 1.214 . S
O132 Cd124 2.277 . S
O132 C127 1.209 . S
C133 O130 1.258 . S
C133 O135 1.282 . S
O134 Cd126 2.277 . S
O134 C127 1.226 . S
O135 Cd126 2.356 . S
O135 C133 1.282 . S
C136 O137 1.306 . S
C136 O139 1.160 . S
O137 C136 1.306 . S
O137 Cd138 2.228 . S
Cd138 O137 2.228 . S
Cd138 O142 2.273 . S
Cd138 O146 2.277 . S
O139 C136 1.160 . S
O139 Cd140 2.203 . S
Cd140 O139 2.203 . S
Cd140 O142 2.411 . S
Cd140 O143 2.333 . S
Cd140 O144 2.352 . S
Cd140 O148 2.277 . S
Cd140 O149 2.356 . S
C141 O146 1.209 . S
C141 O148 1.226 . S
O142 Cd138 2.273 . S
O142 Cd140 2.411 . S
O142 C145 1.320 . S
O143 Cd140 2.333 . S
O143 C145 1.214 . S
O144 Cd140 2.352 . S
O144 C147 1.258 . S
C145 O142 1.320 . S
C145 O143 1.214 . S
O146 Cd138 2.277 . S
O146 C141 1.209 . S
C147 O144 1.258 . S
C147 O149 1.282 . S
O148 Cd140 2.277 . S
O148 C141 1.226 . S
O149 Cd140 2.356 . S
O149 C147 1.282 . S
C150 O151 1.306 . S
C150 O153 1.160 . S
O151 C150 1.306 . S
O151 Cd152 2.228 . S
Cd152 O151 2.228 . S
Cd152 O156 2.273 . S
Cd152 O160 2.277 . S
O153 C150 1.160 . S
O153 Cd154 2.203 . S
Cd154 O153 2.203 . S
Cd154 O156 2.411 . S
Cd154 O157 2.333 . S
Cd154 O158 2.352 . S
Cd154 O162 2.277 . S
Cd154 O163 2.356 . S
C155 O160 1.209 . S
C155 O162 1.226 . S
O156 Cd152 2.273 . S
O156 Cd154 2.411 . S
O156 C159 1.320 . S
O157 Cd154 2.333 . S
O157 C159 1.214 . S
O158 Cd154 2.352 . S
O158 C161 1.258 . S
C159 O156 1.320 . S
C159 O157 1.214 . S
O160 Cd152 2.277 . S
O160 C155 1.209 . S
C161 O158 1.258 . S
C161 O163 1.282 . S
O162 Cd154 2.277 . S
O162 C155 1.226 . S
O163 Cd154 2.356 . S
O163 C161 1.282 . S
C164 O165 1.306 . S
C164 O167 1.160 . S
O165 C164 1.306 . S
O165 Cd166 2.228 . S
Cd166 O165 2.228 . S
Cd166 O170 2.273 . S
Cd166 O174 2.277 . S
O167 C164 1.160 . S
O167 Cd168 2.203 . S
Cd168 O167 2.203 . S
Cd168 O170 2.411 . S
Cd168 O171 2.333 . S
Cd168 O172 2.352 . S
Cd168 O176 2.277 . S
Cd168 O177 2.356 . S
C169 O174 1.209 . S
C169 O176 1.226 . S
O170 Cd166 2.273 . S
O170 Cd168 2.411 . S
O170 C173 1.320 . S
O171 Cd168 2.333 . S
O171 C173 1.214 . S
O172 Cd168 2.352 . S
O172 C175 1.258 . S
C173 O170 1.320 . S
C173 O171 1.214 . S
O174 Cd166 2.277 . S
O174 C169 1.209 . S
C175 O172 1.258 . S
C175 O177 1.282 . S
O176 Cd168 2.277 . S
O176 C169 1.226 . S
O177 Cd168 2.356 . S
O177 C175 1.282 . S
C178 O179 1.306 . S
C178 O181 1.160 . S
O179 C178 1.306 . S
O179 Cd180 2.228 . S
Cd180 O179 2.228 . S
Cd180 O184 2.273 . S
Cd180 O188 2.277 . S
O181 C178 1.160 . S
O181 Cd182 2.203 . S
Cd182 O181 2.203 . S
Cd182 O184 2.411 . S
Cd182 O185 2.333 . S
Cd182 O186 2.352 . S
Cd182 O190 2.277 . S
Cd182 O191 2.356 . S
C183 O188 1.209 . S
C183 O190 1.226 . S
O184 Cd180 2.273 . S
O184 Cd182 2.411 . S
O184 C187 1.320 . S
O185 Cd182 2.333 . S
O185 C187 1.214 . S
O186 Cd182 2.352 . S
O186 C189 1.258 . S
C187 O184 1.320 . S
C187 O185 1.214 . S
O188 Cd180 2.277 . S
O188 C183 1.209 . S
C189 O186 1.258 . S
C189 O191 1.282 . S
O190 Cd182 2.277 . S
O190 C183 1.226 . S
O191 Cd182 2.356 . S
O191 C189 1.282 . S
C192 C193 1.369 . S
C192 C194 1.419 . S
C192 H196 0.930 . S
C193 C192 1.369 . S
C193 C202 1.429 . S
C194 C192 1.419 . S
C194 C195 1.363 . S
C194 H197 0.929 . S
C195 C194 1.363 . S
C195 C201 1.428 . S
H196 C192 0.930 . S
H197 C194 0.929 . S
S198 N199 1.613 . S
S198 N200 1.610 . S
N199 S198 1.613 . S
N199 C202 1.350 . S
N200 S198 1.610 . S
N200 C201 1.351 . S
C201 C195 1.428 . S
C201 N200 1.351 . S
C201 C202 1.434 . S
C202 C193 1.429 . S
C202 N199 1.350 . S
C202 C201 1.434 . S
C203 C204 1.369 . S
C203 C205 1.419 . S
C203 H207 0.930 . S
C204 C203 1.369 . S
C204 C213 1.429 . S
C205 C203 1.419 . S
C205 C206 1.363 . S
C205 H208 0.929 . S
C206 C205 1.363 . S
C206 C212 1.428 . S
H207 C203 0.930 . S
H208 C205 0.929 . S
S209 N210 1.613 . S
S209 N211 1.610 . S
N210 S209 1.613 . S
N210 C213 1.350 . S
N211 S209 1.610 . S
N211 C212 1.351 . S
C212 C206 1.428 . S
C212 N211 1.351 . S
C212 C213 1.434 . S
C213 C204 1.429 . S
C213 N210 1.350 . S
C213 C212 1.434 . S
C214 C215 1.369 . S
C214 C216 1.419 . S
C214 H218 0.930 . S
C215 C214 1.369 . S
C215 C224 1.429 . S
C216 C214 1.419 . S
C216 C217 1.363 . S
C216 H219 0.929 . S
C217 C216 1.363 . S
C217 C223 1.428 . S
H218 C214 0.930 . S
H219 C216 0.929 . S
S220 N221 1.613 . S
S220 N222 1.610 . S
N221 S220 1.613 . S
N221 C224 1.350 . S
N222 S220 1.610 . S
N222 C223 1.351 . S
C223 C217 1.428 . S
C223 N222 1.351 . S
C223 C224 1.434 . S
C224 C215 1.429 . S
C224 N221 1.350 . S
C224 C223 1.434 . S
C225 C226 1.369 . S
C225 C227 1.419 . S
C225 H229 0.930 . S
C226 C225 1.369 . S
C226 C235 1.429 . S
C227 C225 1.419 . S
C227 C228 1.363 . S
C227 H230 0.929 . S
C228 C227 1.363 . S
C228 C234 1.428 . S
H229 C225 0.930 . S
H230 C227 0.929 . S
S231 N232 1.613 . S
S231 N233 1.610 . S
N232 S231 1.613 . S
N232 C235 1.350 . S
N233 S231 1.610 . S
N233 C234 1.351 . S
C234 C228 1.428 . S
C234 N233 1.351 . S
C234 C235 1.434 . S
C235 C226 1.429 . S
C235 N232 1.350 . S
C235 C234 1.434 . S
C236 C237 1.369 . S
C236 C238 1.419 . S
C236 H240 0.930 . S
C237 C236 1.369 . S
C237 C246 1.429 . S
C238 C236 1.419 . S
C238 C239 1.363 . S
C238 H241 0.929 . S
C239 C238 1.363 . S
C239 C245 1.428 . S
H240 C236 0.930 . S
H241 C238 0.929 . S
S242 N243 1.613 . S
S242 N244 1.610 . S
N243 S242 1.613 . S
N243 C246 1.350 . S
N244 S242 1.610 . S
N244 C245 1.351 . S
C245 C239 1.428 . S
C245 N244 1.351 . S
C245 C246 1.434 . S
C246 C237 1.429 . S
C246 N243 1.350 . S
C246 C245 1.434 . S
C247 C248 1.369 . S
C247 C249 1.419 . S
C247 H251 0.930 . S
C248 C247 1.369 . S
C248 C257 1.429 . S
C249 C247 1.419 . S
C249 C250 1.363 . S
C249 H252 0.929 . S
C250 C249 1.363 . S
C250 C256 1.428 . S
H251 C247 0.930 . S
H252 C249 0.929 . S
S253 N254 1.613 . S
S253 N255 1.610 . S
N254 S253 1.613 . S
N254 C257 1.350 . S
N255 S253 1.610 . S
N255 C256 1.351 . S
C256 C250 1.428 . S
C256 N255 1.351 . S
C256 C257 1.434 . S
C257 C248 1.429 . S
C257 N254 1.350 . S
C257 C256 1.434 . S
C258 C259 1.369 . S
C258 C260 1.419 . S
C258 H262 0.930 . S
C259 C258 1.369 . S
C259 C268 1.429 . S
C260 C258 1.419 . S
C260 C261 1.363 . S
C260 H263 0.929 . S
C261 C260 1.363 . S
C261 C267 1.428 . S
H262 C258 0.930 . S
H263 C260 0.929 . S
S264 N265 1.613 . S
S264 N266 1.610 . S
N265 S264 1.613 . S
N265 C268 1.350 . S
N266 S264 1.610 . S
N266 C267 1.351 . S
C267 C261 1.428 . S
C267 N266 1.351 . S
C267 C268 1.434 . S
C268 C259 1.429 . S
C268 N265 1.350 . S
C268 C267 1.434 . S
C269 C270 1.369 . S
C269 C271 1.419 . S
C269 H273 0.930 . S
C270 C269 1.369 . S
C270 C279 1.429 . S
C271 C269 1.419 . S
C271 C272 1.363 . S
C271 H274 0.929 . S
C272 C271 1.363 . S
C272 C278 1.428 . S
H273 C269 0.930 . S
H274 C271 0.929 . S
S275 N276 1.613 . S
S275 N277 1.610 . S
N276 S275 1.613 . S
N276 C279 1.350 . S
N277 S275 1.610 . S
N277 C278 1.351 . S
C278 C272 1.428 . S
C278 N277 1.351 . S
C278 C279 1.434 . S
C279 C270 1.429 . S
C279 N276 1.350 . S
C279 C278 1.434 . S
C280 C281 1.369 . S
C280 C282 1.419 . S
C280 H284 0.930 . S
C281 C280 1.369 . S
C281 C290 1.429 . S
C282 C280 1.419 . S
C282 C283 1.363 . S
C282 H285 0.929 . S
C283 C282 1.363 . S
C283 C289 1.428 . S
H284 C280 0.930 . S
H285 C282 0.929 . S
S286 N287 1.613 . S
S286 N288 1.610 . S
N287 S286 1.613 . S
N287 C290 1.350 . S
N288 S286 1.610 . S
N288 C289 1.351 . S
C289 C283 1.428 . S
C289 N288 1.351 . S
C289 C290 1.434 . S
C290 C281 1.429 . S
C290 N287 1.350 . S
C290 C289 1.434 . S
C291 C292 1.369 . S
C291 C293 1.419 . S
C291 H295 0.930 . S
C292 C291 1.369 . S
C292 C301 1.429 1_554 S
C293 C291 1.419 . S
C293 C294 1.363 . S
C293 H296 0.929 . S
C294 C293 1.363 . S
C294 C300 1.428 . S
H295 C291 0.930 . S
H296 C293 0.929 . S
S297 N298 1.613 . S
S297 N299 1.610 . S
N298 S297 1.613 . S
N298 C301 1.350 . S
N299 S297 1.610 . S
N299 C300 1.351 1_556 S
C300 C294 1.428 . S
C300 N299 1.351 1_554 S
C300 C301 1.434 1_554 S
C301 C292 1.429 1_556 S
C301 N298 1.350 . S
C301 C300 1.434 1_556 S
C302 C303 1.369 . S
C302 C304 1.419 . S
C302 H306 0.930 . S
C303 C302 1.369 . S
C303 C312 1.429 . S
C304 C302 1.419 . S
C304 C305 1.363 . S
C304 H307 0.929 . S
C305 C304 1.363 . S
C305 C311 1.428 . S
H306 C302 0.930 . S
H307 C304 0.929 . S
S308 N309 1.613 . S
S308 N310 1.610 . S
N309 S308 1.613 . S
N309 C312 1.350 . S
N310 S308 1.610 . S
N310 C311 1.351 . S
C311 C305 1.428 . S
C311 N310 1.351 . S
C311 C312 1.434 . S
C312 C303 1.429 . S
C312 N309 1.350 . S
C312 C311 1.434 . S
C313 C314 1.369 . S
C313 C315 1.419 . S
C313 H317 0.930 . S
C314 C313 1.369 . S
C314 C323 1.429 . S
C315 C313 1.419 . S
C315 C316 1.363 . S
C315 H318 0.929 . S
C316 C315 1.363 . S
C316 C322 1.428 . S
H317 C313 0.930 . S
H318 C315 0.929 . S
S319 N320 1.613 . S
S319 N321 1.610 . S
N320 S319 1.613 . S
N320 C323 1.350 . S
N321 S319 1.610 . S
N321 C322 1.351 . S
C322 C316 1.428 . S
C322 N321 1.351 . S
C322 C323 1.434 . S
C323 C314 1.429 . S
C323 N320 1.350 . S
C323 C322 1.434 . S
C324 C325 1.369 . S
C324 C326 1.419 . S
C324 H328 0.930 . S
C325 C324 1.369 . S
C325 C334 1.429 . S
C326 C324 1.419 . S
C326 C327 1.363 . S
C326 H329 0.929 . S
C327 C326 1.363 . S
C327 C333 1.428 . S
H328 C324 0.930 . S
H329 C326 0.929 . S
S330 N331 1.613 . S
S330 N332 1.610 . S
N331 S330 1.613 . S
N331 C334 1.350 . S
N332 S330 1.610 . S
N332 C333 1.351 . S
C333 C327 1.428 . S
C333 N332 1.351 . S
C333 C334 1.434 . S
C334 C325 1.429 . S
C334 N331 1.350 . S
C334 C333 1.434 . S
C335 C336 1.369 . S
C335 C337 1.419 . S
C335 H339 0.930 . S
C336 C335 1.369 . S
C336 C345 1.429 . S
C337 C335 1.419 . S
C337 C338 1.363 . S
C337 H340 0.929 . S
C338 C337 1.363 . S
C338 C344 1.428 . S
H339 C335 0.930 . S
H340 C337 0.929 . S
S341 N342 1.613 . S
S341 N343 1.610 . S
N342 S341 1.613 . S
N342 C345 1.350 . S
N343 S341 1.610 . S
N343 C344 1.351 . S
C344 C338 1.428 . S
C344 N343 1.351 . S
C344 C345 1.434 . S
C345 C336 1.429 . S
C345 N342 1.350 . S
C345 C344 1.434 . S
C346 C347 1.369 . S
C346 C348 1.419 . S
C346 H350 0.930 . S
C347 C346 1.369 . S
C347 C356 1.429 . S
C348 C346 1.419 . S
C348 C349 1.363 . S
C348 H351 0.929 . S
C349 C348 1.363 . S
C349 C355 1.428 . S
H350 C346 0.930 . S
H351 C348 0.929 . S
S352 N353 1.613 . S
S352 N354 1.610 . S
N353 S352 1.613 . S
N353 C356 1.350 . S
N354 S352 1.610 . S
N354 C355 1.351 . S
C355 C349 1.428 . S
C355 N354 1.351 . S
C355 C356 1.434 . S
C356 C347 1.429 . S
C356 N353 1.350 . S
C356 C355 1.434 . S
C357 C358 1.369 . S
C357 C359 1.419 . S
C357 H361 0.930 . S
C358 C357 1.369 . S
C358 C367 1.429 . S
C359 C357 1.419 . S
C359 C360 1.363 . S
C359 H362 0.929 1_556 S
C360 C359 1.363 . S
C360 C366 1.428 . S
H361 C357 0.930 . S
H362 C359 0.929 1_554 S
S363 N364 1.613 . S
S363 N365 1.610 . S
N364 S363 1.613 . S
N364 C367 1.350 . S
N365 S363 1.610 . S
N365 C366 1.351 . S
C366 C360 1.428 . S
C366 N365 1.351 . S
C366 C367 1.434 . S
C367 C358 1.429 . S
C367 N364 1.350 . S
C367 C366 1.434 . S
C368 C369 1.369 . S
C368 C370 1.419 . S
C368 H372 0.930 . S
C369 C368 1.369 . S
C369 C378 1.429 . S
C370 C368 1.419 . S
C370 C371 1.363 . S
C370 H373 0.929 . S
C371 C370 1.363 . S
C371 C377 1.428 . S
H372 C368 0.930 . S
H373 C370 0.929 . S
S374 N375 1.613 . S
S374 N376 1.610 . S
N375 S374 1.613 . S
N375 C378 1.350 . S
N376 S374 1.610 . S
N376 C377 1.351 . S
C377 C371 1.428 . S
C377 N376 1.351 . S
C377 C378 1.434 . S
C378 C369 1.429 . S
C378 N375 1.350 . S
C378 C377 1.434 . S
C379 C380 1.369 . S
C379 C381 1.419 . S
C379 H383 0.930 . S
C380 C379 1.369 . S
C380 C389 1.429 . S
C381 C379 1.419 . S
C381 C382 1.363 . S
C381 H384 0.929 . S
C382 C381 1.363 . S
C382 C388 1.428 . S
H383 C379 0.930 . S
H384 C381 0.929 . S
S385 N386 1.613 . S
S385 N387 1.610 . S
N386 S385 1.613 . S
N386 C389 1.350 . S
N387 S385 1.610 . S
N387 C388 1.351 . S
C388 C382 1.428 . S
C388 N387 1.351 . S
C388 C389 1.434 . S
C389 C380 1.429 . S
C389 N386 1.350 . S
C389 C388 1.434 . S
C390 C391 1.369 . S
C390 C392 1.419 . S
C390 H394 0.930 . S
C391 C390 1.369 . S
C391 C400 1.429 . S
C392 C390 1.419 . S
C392 C393 1.363 . S
C392 H395 0.929 . S
C393 C392 1.363 . S
C393 C399 1.428 . S
H394 C390 0.930 . S
H395 C392 0.929 . S
S396 N397 1.613 . S
S396 N398 1.610 . S
N397 S396 1.613 . S
N397 C400 1.350 . S
N398 S396 1.610 . S
N398 C399 1.351 . S
C399 C393 1.428 . S
C399 N398 1.351 . S
C399 C400 1.434 . S
C400 C391 1.429 . S
C400 N397 1.350 . S
C400 C399 1.434 . S
C401 C402 1.369 . S
C401 C403 1.419 . S
C401 H405 0.930 . S
C402 C401 1.369 . S
C402 C411 1.429 . S
C403 C401 1.419 . S
C403 C404 1.363 . S
C403 H406 0.929 . S
C404 C403 1.363 . S
C404 C410 1.428 . S
H405 C401 0.930 . S
H406 C403 0.929 . S
S407 N408 1.613 . S
S407 N409 1.610 . S
N408 S407 1.613 . S
N408 C411 1.350 . S
N409 S407 1.610 . S
N409 C410 1.351 . S
C410 C404 1.428 . S
C410 N409 1.351 . S
C410 C411 1.434 . S
C411 C402 1.429 . S
C411 N408 1.350 . S
C411 C410 1.434 . S
C412 C413 1.369 . S
C412 C414 1.419 . S
C412 H416 0.930 . S
C413 C412 1.369 . S
C413 C422 1.429 . S
C414 C412 1.419 . S
C414 C415 1.363 . S
C414 H417 0.929 . S
C415 C414 1.363 . S
C415 C421 1.428 . S
H416 C412 0.930 . S
H417 C414 0.929 . S
S418 N419 1.613 . S
S418 N420 1.610 . S
N419 S418 1.613 . S
N419 C422 1.350 . S
N420 S418 1.610 . S
N420 C421 1.351 . S
C421 C415 1.428 . S
C421 N420 1.351 . S
C421 C422 1.434 . S
C422 C413 1.429 . S
C422 N419 1.350 . S
C422 C421 1.434 . S
C423 C424 1.369 . S
C423 C425 1.419 . S
C423 H427 0.930 . S
C424 C423 1.369 . S
C424 C433 1.429 . S
C425 C423 1.419 . S
C425 C426 1.363 . S
C425 H428 0.929 . S
C426 C425 1.363 . S
C426 C432 1.428 . S
H427 C423 0.930 . S
H428 C425 0.929 . S
S429 N430 1.613 . S
S429 N431 1.610 . S
N430 S429 1.613 . S
N430 C433 1.350 . S
N431 S429 1.610 . S
N431 C432 1.351 . S
C432 C426 1.428 . S
C432 N431 1.351 . S
C432 C433 1.434 . S
C433 C424 1.429 . S
C433 N430 1.350 . S
C433 C432 1.434 . S
C434 C435 1.369 . S
C434 C436 1.419 . S
C434 H438 0.930 . S
C435 C434 1.369 . S
C435 C444 1.429 . S
C436 C434 1.419 . S
C436 C437 1.363 1_554 S
C436 H439 0.929 . S
C437 C436 1.363 1_556 S
C437 C443 1.428 1_556 S
H438 C434 0.930 . S
H439 C436 0.929 . S
S440 N441 1.631 . S
S440 N442 1.600 1_554 S
N441 S440 1.631 . S
N441 C444 1.350 . S
N442 S440 1.600 1_556 S
N442 C443 1.351 1_556 S
C443 C437 1.428 1_554 S
C443 N442 1.351 1_554 S
C443 C444 1.434 . S
C444 C435 1.429 . S
C444 N441 1.350 . S
C444 C443 1.434 . S
C445 C446 1.369 . S
C445 C447 1.419 . S
C445 H449 0.930 . S
C446 C445 1.369 . S
C446 C455 1.429 . S
C447 C445 1.419 . S
C447 C448 1.363 . S
C447 H450 0.929 . S
C448 C447 1.363 . S
C448 C454 1.428 . S
H449 C445 0.930 . S
H450 C447 0.929 . S
S451 N452 1.613 . S
S451 N453 1.610 . S
N452 S451 1.613 . S
N452 C455 1.350 . S
N453 S451 1.610 . S
N453 C454 1.351 . S
C454 C448 1.428 . S
C454 N453 1.351 . S
C454 C455 1.434 . S
C455 C446 1.429 . S
C455 N452 1.350 . S
C455 C454 1.434 . S
C195 C178 1.566 . S
C193 C8 1.520 . S
C204 C26 1.519 . S
C206 C119 1.565 . S
C215 C50 1.510 . S
C217 C122 1.564 . S
C226 C68 1.524 . S
C228 C136 1.571 . S
C239 C161 1.564 . S
C237 C80 1.516 . S
C248 C104 1.505 . S
C250 C164 1.559 . S
C259 C32 1.500 . S
C261 C133 1.551 . S
C270 C44 1.505 . S
C272 C147 1.555 . S
C281 C62 1.503 . S
C283 C150 1.544 . S
C294 C175 1.547 . S
C292 C86 1.500 . S
C305 C189 1.553 . S
C303 C98 1.512 . S
C316 C108 1.548 . S
C314 C14 1.499 . S
C325 C7 1.460 . S
C327 C131 1.502 . S
C336 C25 1.453 . S
C338 C145 1.510 . S
C349 C155 1.508 . S
C347 C52 1.465 . S
C358 C70 1.453 . S
C360 C173 1.500 1_556 S
C371 C187 1.510 . S
C369 C79 1.462 . S
C382 C113 1.509 . S
C380 C106 1.458 . S
C393 C183 1.527 . S
C391 C34 1.469 . S
C402 C43 1.463 . S
C404 C117 1.517 . S
C415 C127 1.521 . S
C413 C61 1.465 . S
C424 C88 1.467 . S
C426 C141 1.528 . S
C435 C97 1.460 . S
C437 C159 1.515 . S
C446 C16 1.468 . S
C448 C169 1.521 . S
