# Generated by pormake.
# Topology hwx, (6,3)-cn, num edge types: 1
# Building blocks:
#     Node 0, Type 0, BuildingBlock: IZENUY_clean_sbu_0, # of connection points: 6
#     Node 1, Type 0, BuildingBlock: IZENUY_clean_sbu_0, # of connection points: 6
#     Node 2, Type 0, BuildingBlock: IZENUY_clean_sbu_0, # of connection points: 6
#     Node 3, Type 0, BuildingBlock: IZENUY_clean_sbu_0, # of connection points: 6
#     Node 4, Type 1, BuildingBlock: MIDCAF_clean_linker_0, # of connection points: 3
#     Node 5, Type 1, BuildingBlock: MIDCAF_clean_linker_0, # of connection points: 3
#     Node 6, Type 1, BuildingBlock: MIDCAF_clean_linker_0, # of connection points: 3
#     Node 7, Type 1, BuildingBlock: MIDCAF_clean_linker_0, # of connection points: 3
#     Node 8, Type 1, BuildingBlock: MIDCAF_clean_linker_0, # of connection points: 3
#     Node 9, Type 1, BuildingBlock: MIDCAF_clean_linker_0, # of connection points: 3
#     Node 10, Type 1, BuildingBlock: MIDCAF_clean_linker_0, # of connection points: 3
#     Node 11, Type 1, BuildingBlock: MIDCAF_clean_linker_0, # of connection points: 3
#     Edge 12, Type (0, 1), None
#     Edge 13, Type (0, 1), None
#     Edge 14, Type (0, 1), None
#     Edge 15, Type (0, 1), None
#     Edge 16, Type (0, 1), None
#     Edge 17, Type (0, 1), None
#     Edge 18, Type (0, 1), None
#     Edge 19, Type (0, 1), None
#     Edge 20, Type (0, 1), None
#     Edge 21, Type (0, 1), None
#     Edge 22, Type (0, 1), None
#     Edge 23, Type (0, 1), None
#     Edge 24, Type (0, 1), None
#     Edge 25, Type (0, 1), None
#     Edge 26, Type (0, 1), None
#     Edge 27, Type (0, 1), None
#     Edge 28, Type (0, 1), None
#     Edge 29, Type (0, 1), None
#     Edge 30, Type (0, 1), None
#     Edge 31, Type (0, 1), None
#     Edge 32, Type (0, 1), None
#     Edge 33, Type (0, 1), None
#     Edge 34, Type (0, 1), None
#     Edge 35, Type (0, 1), None
# Relax obj value: 0.053
# Max RMSD: 0.077
# Mean RMSD: 0.069
data_MOF--net-hwx--node1-IZENUY_clean_sbu_0--node2-MIDCAF_clean_linker_0--edge1-none
_symmetry_space_group_name_H-M    P1
_symmetry_Int_Tables_number       1
_symmetry_cell_setting            triclinic
loop_
_symmetry_equiv_pos_as_xyz
'x, y, z'
_cell_length_a     31.671719
_cell_length_b     31.731746
_cell_length_c     15.427653
_cell_angle_alpha  89.830564
_cell_angle_beta   90.16656
_cell_angle_gamma 90.003598
loop_
_atom_site_label
_atom_site_type_symbol
_atom_site_fract_x
_atom_site_fract_y
_atom_site_fract_z
_atom_type_partial_charge
Fe0 Fe 0.2544 0.21882 0.10405 0.0
Fe1 Fe 0.25415 0.22133 0.90597 0.0
O2 O 0.24069 0.19548 0.00369 0.0
Fe3 Fe 0.2135 0.14656 0.00099 0.0
O4 O 0.16931 0.16779 0.06272 0.0
O5 O 0.20868 0.19804 0.16227 0.0
O6 O 0.2233 0.26567 0.08021 0.0
C7 C 0.22836 0.28829 0.0136 0.0
C8 C 0.27249 0.13637 0.13882 0.0
O9 O 0.24894 0.27463 0.94946 0.0
C10 C 0.26888 0.13525 0.86738 0.0
O11 O 0.30308 0.24348 0.06444 0.0
O12 O 0.31001 0.21925 0.93214 0.0
O13 O 0.23903 0.12568 0.09923 0.0
O14 O 0.28616 0.17367 0.1346 0.0
C15 C 0.17497 0.19365 0.86577 0.0
O16 O 0.2618 0.17287 0.84414 0.0
O17 O 0.25537 0.12154 0.939 0.0
C18 C 0.32609 0.23433 0.00025 0.0
O19 O 0.19912 0.22499 0.87382 0.0
O20 O 0.18354 0.15882 0.90204 0.0
C21 C 0.1733 0.18458 0.1363 0.0
Fe22 Fe 0.24126 0.7213 0.60253 0.0
Fe23 Fe 0.28247 0.64673 0.50878 0.0
O24 O 0.25522 0.69561 0.50522 0.0
Fe25 Fe 0.24196 0.71912 0.40449 0.0
O26 O 0.27286 0.76601 0.42889 0.0
O27 O 0.24644 0.77466 0.5589 0.0
O28 O 0.29613 0.72509 0.63562 0.0
C29 C 0.32035 0.69379 0.64425 0.0
C30 C 0.16972 0.7342 0.50678 0.0
O31 O 0.31199 0.65896 0.60817 0.0
C32 C 0.22416 0.63663 0.36978 0.0
O33 O 0.23352 0.67278 0.66456 0.0
O34 O 0.24035 0.62159 0.57018 0.0
O35 O 0.19302 0.74356 0.44303 0.0
O36 O 0.18552 0.71906 0.57531 0.0
C37 C 0.32325 0.685 0.37397 0.0
O38 O 0.2574 0.62591 0.41025 0.0
O39 O 0.21047 0.67394 0.37336 0.0
C40 C 0.22653 0.63521 0.64146 0.0
O41 O 0.32691 0.66804 0.44766 0.0
O42 O 0.288 0.69857 0.34732 0.0
C43 C 0.26745 0.78847 0.49536 0.0
Fe44 Fe 0.74104 0.78782 0.90318 0.0
Fe45 Fe 0.74226 0.79019 0.1012 0.0
O46 O 0.75525 0.81362 0.00039 0.0
Fe47 Fe 0.7824 0.86255 0.99672 0.0
O48 O 0.74017 0.88757 0.93495 0.0
O49 O 0.73306 0.83625 0.84089 0.0
O50 O 0.68535 0.79 0.93049 0.0
C51 C 0.6698 0.77491 0.99914 0.0
C52 C 0.82006 0.81539 0.86147 0.0
O53 O 0.69335 0.76552 0.06271 0.0
C54 C 0.82344 0.82464 0.13205 0.0
O55 O 0.74647 0.73451 0.94711 0.0
O56 O 0.77326 0.74337 0.07709 0.0
O57 O 0.81181 0.85022 0.89757 0.0
O58 O 0.79584 0.7841 0.87 0.0
C59 C 0.72427 0.87268 0.13538 0.0
O60 O 0.78828 0.81096 0.15849 0.0
O61 O 0.82697 0.84145 0.05824 0.0
C62 C 0.76771 0.72083 0.01071 0.0
O63 O 0.71068 0.83531 0.13196 0.0
O64 O 0.7574 0.88345 0.09498 0.0
C65 C 0.72622 0.87388 0.86368 0.0
Fe66 Fe 0.71357 0.36272 0.50535 0.0
Fe67 Fe 0.75437 0.28779 0.60015 0.0
O68 O 0.74067 0.31376 0.50253 0.0
Fe69 Fe 0.75411 0.29049 0.40209 0.0
O70 O 0.78595 0.33558 0.37192 0.0
O71 O 0.73904 0.38367 0.40739 0.0
O72 O 0.75556 0.38761 0.56771 0.0
C73 C 0.76919 0.37384 0.63932 0.0
C74 C 0.67311 0.32505 0.36952 0.0
O75 O 0.76228 0.33616 0.66225 0.0
C76 C 0.72811 0.221 0.49216 0.0
O77 O 0.68373 0.35035 0.60406 0.0
O78 O 0.69943 0.28418 0.63241 0.0
O79 O 0.7084 0.31147 0.34377 0.0
O80 O 0.66925 0.34168 0.44323 0.0
C81 C 0.82602 0.27479 0.50565 0.0
O82 O 0.74892 0.23454 0.55637 0.0
O83 O 0.72291 0.2437 0.42565 0.0
C84 C 0.67527 0.31552 0.64036 0.0
O85 O 0.81019 0.28982 0.57389 0.0
O86 O 0.80276 0.26561 0.44164 0.0
C87 C 0.77239 0.37294 0.36787 0.0
C88 C 0.18125 0.62286 0.23636 0.0
C89 C 0.20623 0.6074 0.30484 0.0
C90 C 0.21756 0.56455 0.30547 0.0
C91 C 0.20662 0.53842 0.23615 0.0
H92 H 0.18603 0.41224 0.14825 0.0
H93 H 0.20312 0.33722 0.15079 0.0
H94 H 0.22215 0.34014 0.87361 0.0
H95 H 0.20508 0.41461 0.87072 0.0
H96 H 0.21349 0.50372 0.7727 0.0
H97 H 0.23248 0.54861 0.64943 0.0
H98 H 0.17916 0.65615 0.78072 0.0
H99 H 0.16026 0.61181 0.90272 0.0
H100 H 0.15353 0.61039 0.1125 0.0
H101 H 0.17177 0.65565 0.23406 0.0
H102 H 0.23644 0.5516 0.35781 0.0
H103 H 0.21772 0.50613 0.23648 0.0
N104 N 0.18549 0.48773 0.08377 0.0
N105 N 0.18664 0.48739 0.93145 0.0
N106 N 0.17967 0.55104 0.00638 0.0
C107 C 0.18761 0.46594 0.00809 0.0
C108 C 0.18234 0.52999 0.9302 0.0
C109 C 0.18125 0.53032 0.08327 0.0
C110 C 0.19458 0.4197 0.00933 0.0
C111 C 0.19359 0.39682 0.08772 0.0
C112 C 0.20328 0.35377 0.08929 0.0
C113 C 0.21451 0.33284 0.01265 0.0
C114 C 0.21414 0.35542 0.93408 0.0
C115 C 0.20418 0.39823 0.93237 0.0
C116 C 0.18614 0.55434 0.8484 0.0
C117 C 0.20493 0.53675 0.77422 0.0
C118 C 0.21583 0.56245 0.70357 0.0
C119 C 0.20812 0.60606 0.70621 0.0
C120 C 0.18628 0.6228 0.77737 0.0
C121 C 0.17542 0.5973 0.84747 0.0
C122 C 0.18468 0.55485 0.16433 0.0
C123 C 0.17086 0.59693 0.16653 0.0
C124 C 0.86076 0.84948 0.74289 0.0
C125 C 0.8533 0.8139 0.79499 0.0
C126 C 0.87548 0.77645 0.77842 0.0
C127 C 0.90396 0.77439 0.70931 0.0
H128 H 0.038 0.75084 0.6335 0.0
H129 H 0.11181 0.72985 0.63803 0.0
H130 H 0.12459 0.76289 0.36737 0.0
H131 H 0.05074 0.78387 0.36262 0.0
H132 H 0.95156 0.78564 0.25482 0.0
H133 H 0.9034 0.79108 0.12962 0.0
H134 H 0.81827 0.8667 0.28148 0.0
H135 H 0.86579 0.86225 0.40477 0.0
H136 H 0.89183 0.87424 0.6306 0.0
H137 H 0.84381 0.87864 0.75387 0.0
H138 H 0.8702 0.74864 0.81784 0.0
H139 H 0.91991 0.74493 0.69591 0.0
N140 N 0.9728 0.78888 0.57281 0.0
N141 N 0.97504 0.7965 0.42101 0.0
N142 N 0.91508 0.81753 0.49828 0.0
C143 C 0.99416 0.78488 0.49684 0.0
C144 C 0.93532 0.81288 0.42157 0.0
C145 C 0.9334 0.80548 0.57363 0.0
C146 C 0.03835 0.76935 0.49774 0.0
C147 C 0.05643 0.75351 0.57472 0.0
C148 C 0.09883 0.74142 0.57743 0.0
C149 C 0.12427 0.74509 0.50338 0.0
C150 C 0.10599 0.75999 0.42589 0.0
C151 C 0.06351 0.77188 0.42304 0.0
C152 C 0.91212 0.82279 0.34037 0.0
C153 C 0.92321 0.80449 0.26049 0.0
C154 C 0.89582 0.80763 0.18888 0.0
C155 C 0.85724 0.82903 0.19681 0.0
C156 C 0.84784 0.84986 0.27427 0.0
C157 C 0.87505 0.84707 0.34497 0.0
C158 C 0.90947 0.80935 0.65455 0.0
C159 C 0.88809 0.847 0.67241 0.0
C160 C 0.80902 0.38614 0.77623 0.0
C161 C 0.78744 0.40292 0.70434 0.0
C162 C 0.77996 0.44659 0.7009 0.0
C163 C 0.79091 0.47231 0.77133 0.0
H164 H 0.78997 0.59484 0.86743 0.0
H165 H 0.77272 0.6693 0.87065 0.0
H166 H 0.79457 0.67171 0.14718 0.0
H167 H 0.81186 0.59677 0.1443 0.0
H168 H 0.77938 0.50337 0.23324 0.0
H169 H 0.76059 0.45802 0.35501 0.0
H170 H 0.82477 0.3537 0.23316 0.0
H171 H 0.84305 0.39885 0.11112 0.0
H172 H 0.83499 0.39712 0.90177 0.0
H173 H 0.81596 0.35275 0.78027 0.0
H174 H 0.76351 0.46047 0.6462 0.0
H175 H 0.78258 0.5054 0.76907 0.0
N176 N 0.80939 0.52183 0.92819 0.0
N177 N 0.81127 0.5215 0.08051 0.0
N178 N 0.81661 0.45818 0.00398 0.0
C179 C 0.80884 0.54329 0.00462 0.0
C180 C 0.81541 0.47893 0.08058 0.0
C181 C 0.81363 0.47919 0.9275 0.0
C182 C 0.8019 0.58954 0.00569 0.0
C183 C 0.79147 0.61113 0.92897 0.0
C184 C 0.7814 0.65392 0.93089 0.0
C185 C 0.78174 0.67633 0.00943 0.0
C186 C 0.79384 0.65529 0.08574 0.0
C187 C 0.80364 0.61228 0.08396 0.0
C188 C 0.81214 0.4545 0.16199 0.0
C189 C 0.79037 0.47105 0.23344 0.0
C190 C 0.77939 0.44499 0.30302 0.0
C191 C 0.79054 0.40211 0.30299 0.0
C192 C 0.81544 0.38653 0.23497 0.0
C193 C 0.82584 0.41239 0.16487 0.0
C194 C 0.80955 0.45472 0.84609 0.0
C195 C 0.81997 0.41167 0.84607 0.0
C196 C 0.14923 0.16042 0.27962 0.0
C197 C 0.13962 0.18059 0.20118 0.0
C198 C 0.10072 0.20136 0.19178 0.0
C199 C 0.07317 0.20452 0.26279 0.0
H200 H 0.94494 0.22518 0.36295 0.0
H201 H 0.87103 0.24603 0.36694 0.0
H202 H 0.8841 0.27934 0.63715 0.0
H203 H 0.95793 0.25852 0.63336 0.0
H204 H 0.07501 0.26393 0.69842 0.0
H205 H 0.12447 0.26018 0.82137 0.0
H206 H 0.15146 0.13038 0.75855 0.0
H207 H 0.10369 0.13482 0.6343 0.0
H208 H 0.13123 0.1484 0.41008 0.0
H209 H 0.179 0.14401 0.28798 0.0
H210 H 0.09294 0.21735 0.1317 0.0
H211 H 0.04451 0.22287 0.25587 0.0
N212 N 0.021 0.21291 0.42236 0.0
N213 N 0.02278 0.22017 0.57421 0.0
N214 N 0.08073 0.19177 0.50125 0.0
C215 C 0.00164 0.22434 0.49774 0.0
C216 C 0.06216 0.20361 0.57608 0.0
C217 C 0.06077 0.19658 0.42399 0.0
C218 C 0.95745 0.23987 0.49788 0.0
C219 C 0.93221 0.23722 0.42308 0.0
C220 C 0.8897 0.24902 0.42552 0.0
C221 C 0.87149 0.26393 0.5027 0.0
C222 C 0.89701 0.26773 0.57681 0.0
C223 C 0.93944 0.25574 0.57451 0.0
C224 C 0.0858 0.19962 0.65758 0.0
C225 C 0.09102 0.23449 0.71232 0.0
C226 C 0.11934 0.23241 0.78201 0.0
C227 C 0.14165 0.19502 0.79915 0.0
C228 C 0.13441 0.15948 0.74713 0.0
C229 C 0.10723 0.162 0.67609 0.0
C230 C 0.08436 0.18681 0.34351 0.0
C231 C 0.12183 0.16317 0.34965 0.0
C232 C 0.68124 0.88648 0.26812 0.0
C233 C 0.70632 0.90192 0.20007 0.0
C234 C 0.71771 0.94476 0.19967 0.0
C235 C 0.70673 0.97088 0.26884 0.0
H236 H 0.68573 0.09713 0.35676 0.0
H237 H 0.70275 0.17217 0.3546 0.0
H238 H 0.72198 0.16905 0.63194 0.0
H239 H 0.70497 0.09455 0.63445 0.0
H240 H 0.71314 0.00542 0.7325 0.0
H241 H 0.73205 0.96048 0.85595 0.0
H242 H 0.67905 0.85292 0.72349 0.0
H243 H 0.66023 0.89732 0.6013 0.0
H244 H 0.6534 0.89896 0.39152 0.0
H245 H 0.6717 0.85371 0.27023 0.0
H246 H 0.73667 0.9577 0.14766 0.0
H247 H 0.71787 0.00316 0.26874 0.0
N248 N 0.68541 0.02156 0.42098 0.0
N249 N 0.68646 0.02181 0.57333 0.0
N250 N 0.67958 0.9582 0.49814 0.0
C251 C 0.68746 0.04331 0.49675 0.0
C252 C 0.68219 0.9792 0.57441 0.0
C253 C 0.6812 0.97897 0.42132 0.0
C254 C 0.69437 0.08957 0.49572 0.0
C255 C 0.69331 0.11251 0.4174 0.0
C256 C 0.70296 0.15557 0.41606 0.0
C257 C 0.71423 0.17645 0.49287 0.0
C258 C 0.71393 0.15381 0.57136 0.0
C259 C 0.70401 0.11099 0.57284 0.0
C260 C 0.68595 0.9548 0.6562 0.0
C261 C 0.70463 0.97237 0.73074 0.0
C262 C 0.71549 0.94665 0.8015 0.0
C263 C 0.70785 0.90301 0.79863 0.0
C264 C 0.68612 0.88629 0.72706 0.0
C265 C 0.6753 0.91182 0.65683 0.0
C266 C 0.68468 0.95447 0.34027 0.0
C267 C 0.67081 0.91241 0.33779 0.0
C268 C 0.63415 0.34981 0.75768 0.0
C269 C 0.64187 0.3141 0.70656 0.0
C270 C 0.61989 0.27657 0.72407 0.0
C271 C 0.59144 0.27456 0.79324 0.0
H272 H 0.4572 0.25135 0.87091 0.0
H273 H 0.38342 0.23023 0.86795 0.0
H274 H 0.37178 0.26308 0.13853 0.0
H275 H 0.4456 0.28419 0.14171 0.0
H276 H 0.54423 0.28741 0.24842 0.0
H277 H 0.59254 0.29289 0.3733 0.0
H278 H 0.67913 0.36554 0.21786 0.0
H279 H 0.63147 0.36112 0.09496 0.0
H280 H 0.60295 0.37473 0.86935 0.0
H281 H 0.65093 0.37904 0.74599 0.0
H282 H 0.62537 0.24865 0.68542 0.0
H283 H 0.57571 0.24502 0.80748 0.0
N284 N 0.52267 0.28927 0.93009 0.0
N285 N 0.52105 0.29691 0.08184 0.0
N286 N 0.58073 0.31782 0.00331 0.0
C287 C 0.50161 0.28531 0.00647 0.0
C288 C 0.5608 0.31321 0.08042 0.0
C289 C 0.56209 0.30582 0.92842 0.0
C290 C 0.45742 0.26977 0.00651 0.0
C291 C 0.43903 0.25396 0.93001 0.0
C292 C 0.39664 0.24179 0.92819 0.0
C293 C 0.37153 0.24536 0.00269 0.0
C294 C 0.39012 0.26025 0.07969 0.0
C295 C 0.43258 0.27222 0.08164 0.0
C296 C 0.58437 0.32308 0.16112 0.0
C297 C 0.57298 0.3056 0.24182 0.0
C298 C 0.60046 0.30876 0.31325 0.0
C299 C 0.63947 0.3293 0.3043 0.0
C300 C 0.64925 0.34931 0.22587 0.0
C301 C 0.62194 0.34654 0.15538 0.0
C302 C 0.58574 0.30964 0.8471 0.0
C303 C 0.60684 0.34738 0.82821 0.0
C304 C 0.30885 0.12296 0.73117 0.0
C305 C 0.28716 0.10617 0.80265 0.0
C306 C 0.27961 0.06251 0.80586 0.0
C307 C 0.2906 0.03682 0.73555 0.0
H308 H 0.28984 0.91434 0.63922 0.0
H309 H 0.27253 0.8399 0.63562 0.0
H310 H 0.2942 0.83769 0.35927 0.0
H311 H 0.31155 0.91261 0.36255 0.0
H312 H 0.27954 0.00592 0.27339 0.0
H313 H 0.26081 0.05128 0.15137 0.0
H314 H 0.3247 0.15567 0.27439 0.0
H315 H 0.3429 0.11052 0.39671 0.0
H316 H 0.33495 0.11203 0.60604 0.0
H317 H 0.31584 0.15635 0.72735 0.0
H318 H 0.26307 0.04862 0.86025 0.0
H319 H 0.28221 0.00374 0.73757 0.0
N320 N 0.3092 0.98739 0.57887 0.0
N321 N 0.31119 0.9878 0.42658 0.0
N322 N 0.31652 0.05108 0.50334 0.0
C323 C 0.30868 0.96597 0.50238 0.0
C324 C 0.31536 0.03037 0.42668 0.0
C325 C 0.31348 0.03002 0.57972 0.0
C326 C 0.30169 0.91974 0.5011 0.0
C327 C 0.29129 0.8981 0.57765 0.0
C328 C 0.28118 0.85532 0.5755 0.0
C329 C 0.28145 0.83297 0.49689 0.0
C330 C 0.29351 0.85406 0.42076 0.0
C331 C 0.30335 0.89706 0.42276 0.0
C332 C 0.31214 0.05483 0.34526 0.0
C333 C 0.29048 0.03827 0.27342 0.0
C334 C 0.27954 0.06432 0.20369 0.0
C335 C 0.29063 0.10722 0.20395 0.0
C336 C 0.31542 0.12283 0.27239 0.0
C337 C 0.32578 0.09697 0.34266 0.0
C338 C 0.30935 0.05443 0.66114 0.0
C339 C 0.31984 0.09747 0.66145 0.0
C340 C 0.34788 0.65986 0.23212 0.0
C341 C 0.35709 0.68088 0.30956 0.0
C342 C 0.39554 0.70253 0.31791 0.0
C343 C 0.42301 0.70567 0.24673 0.0
H344 H 0.55141 0.7255 0.14454 0.0
H345 H 0.62534 0.74621 0.13898 0.0
H346 H 0.61114 0.77972 0.8687 0.0
H347 H 0.53729 0.75904 0.87406 0.0
H348 H 0.42059 0.76406 0.81008 0.0
H349 H 0.37108 0.76022 0.68727 0.0
H350 H 0.34328 0.6308 0.75341 0.0
H351 H 0.3911 0.63534 0.87756 0.0
H352 H 0.36607 0.64725 0.10209 0.0
H353 H 0.31842 0.64283 0.22457 0.0
H354 H 0.40298 0.71922 0.37717 0.0
H355 H 0.45126 0.72469 0.25269 0.0
N356 N 0.4751 0.71333 0.08663 0.0
N357 N 0.4727 0.72059 0.93473 0.0
N358 N 0.41507 0.6921 0.00902 0.0
C359 C 0.49414 0.72478 0.01079 0.0
C360 C 0.43333 0.70398 0.93373 0.0
C361 C 0.43535 0.69694 0.08587 0.0
C362 C 0.53833 0.74029 0.0097 0.0
C363 C 0.5639 0.73756 0.08406 0.0
C364 C 0.60641 0.74927 0.08072 0.0
C365 C 0.62432 0.76419 0.00305 0.0
C366 C 0.59847 0.7681 0.92939 0.0
C367 C 0.55604 0.75619 0.9326 0.0
C368 C 0.40939 0.69996 0.85261 0.0
C369 C 0.40437 0.73468 0.797 0.0
C370 C 0.37602 0.73256 0.72738 0.0
C371 C 0.35352 0.69524 0.71116 0.0
C372 C 0.3605 0.65984 0.76413 0.0
C373 C 0.38769 0.66242 0.83512 0.0
C374 C 0.41214 0.68711 0.16685 0.0
C375 C 0.37518 0.66264 0.16188 0.0
loop_
_geom_bond_atom_site_label_1
_geom_bond_atom_site_label_2
_geom_bond_distance
_geom_bond_site_symmetry_2
_ccdc_geom_bond_type
Fe0 O2 1.918 . S
Fe0 O5 1.997 . S
Fe0 O6 2.002 . S
Fe0 O11 1.976 . S
Fe0 O14 1.996 . S
Fe1 O2 1.918 1_556 S
Fe1 O9 1.997 . S
Fe1 O12 1.996 . S
Fe1 O16 1.976 . S
Fe1 O19 2.002 . S
O2 Fe0 1.918 . S
O2 Fe1 1.918 1_554 S
O2 Fe3 1.918 . S
Fe3 O2 1.918 . S
Fe3 O4 2.002 . S
Fe3 O13 1.976 . S
Fe3 O17 1.996 1_554 S
Fe3 O20 1.997 1_554 S
O4 Fe3 2.002 . S
O4 C21 1.295 . S
O5 Fe0 1.997 . S
O5 C21 1.235 . S
O6 Fe0 2.002 . S
O6 C7 1.295 . S
C7 O6 1.295 . S
C7 O9 1.235 1_554 S
C8 O13 1.287 . S
C8 O14 1.255 . S
O9 Fe1 1.997 . S
O9 C7 1.235 1_556 S
C10 O16 1.287 . S
C10 O17 1.255 . S
O11 Fe0 1.976 . S
O11 C18 1.287 . S
O12 Fe1 1.996 . S
O12 C18 1.255 1_556 S
O13 Fe3 1.976 . S
O13 C8 1.287 . S
O14 Fe0 1.996 . S
O14 C8 1.255 . S
C15 O19 1.295 . S
C15 O20 1.235 . S
O16 Fe1 1.976 . S
O16 C10 1.287 . S
O17 Fe3 1.996 1_556 S
O17 C10 1.255 . S
C18 O11 1.287 . S
C18 O12 1.255 1_554 S
O19 Fe1 2.002 . S
O19 C15 1.295 . S
O20 Fe3 1.997 1_556 S
O20 C15 1.235 . S
C21 O4 1.295 . S
C21 O5 1.235 . S
Fe22 O24 1.918 . S
Fe22 O27 1.997 . S
Fe22 O28 2.002 . S
Fe22 O33 1.976 . S
Fe22 O36 1.996 . S
Fe23 O24 1.918 . S
Fe23 O31 1.997 . S
Fe23 O34 1.996 . S
Fe23 O38 1.976 . S
Fe23 O41 2.002 . S
O24 Fe22 1.918 . S
O24 Fe23 1.918 . S
O24 Fe25 1.918 . S
Fe25 O24 1.918 . S
Fe25 O26 2.002 . S
Fe25 O35 1.976 . S
Fe25 O39 1.996 . S
Fe25 O42 1.997 . S
O26 Fe25 2.002 . S
O26 C43 1.295 . S
O27 Fe22 1.997 . S
O27 C43 1.235 . S
O28 Fe22 2.002 . S
O28 C29 1.295 . S
C29 O28 1.295 . S
C29 O31 1.235 . S
C30 O35 1.287 . S
C30 O36 1.255 . S
O31 Fe23 1.997 . S
O31 C29 1.235 . S
C32 O38 1.287 . S
C32 O39 1.255 . S
O33 Fe22 1.976 . S
O33 C40 1.287 . S
O34 Fe23 1.996 . S
O34 C40 1.255 . S
O35 Fe25 1.976 . S
O35 C30 1.287 . S
O36 Fe22 1.996 . S
O36 C30 1.255 . S
C37 O41 1.295 . S
C37 O42 1.235 . S
O38 Fe23 1.976 . S
O38 C32 1.287 . S
O39 Fe25 1.996 . S
O39 C32 1.255 . S
C40 O33 1.287 . S
C40 O34 1.255 . S
O41 Fe23 2.002 . S
O41 C37 1.295 . S
O42 Fe25 1.997 . S
O42 C37 1.235 . S
C43 O26 1.295 . S
C43 O27 1.235 . S
Fe44 O46 1.918 1_556 S
Fe44 O49 1.997 . S
Fe44 O50 2.002 . S
Fe44 O55 1.976 . S
Fe44 O58 1.996 . S
Fe45 O46 1.918 . S
Fe45 O53 1.997 . S
Fe45 O56 1.996 . S
Fe45 O60 1.976 . S
Fe45 O63 2.002 . S
O46 Fe44 1.918 1_554 S
O46 Fe45 1.918 . S
O46 Fe47 1.918 . S
Fe47 O46 1.918 . S
Fe47 O48 2.002 1_554 S
Fe47 O57 1.976 1_554 S
Fe47 O61 1.996 . S
Fe47 O64 1.997 . S
O48 Fe47 2.002 1_556 S
O48 C65 1.295 . S
O49 Fe44 1.997 . S
O49 C65 1.235 . S
O50 Fe44 2.002 . S
O50 C51 1.283 1_556 S
C51 O50 1.283 1_554 S
C51 O53 1.247 . S
C52 O57 1.287 . S
C52 O58 1.255 . S
O53 Fe45 1.997 . S
O53 C51 1.247 . S
C54 O60 1.287 . S
C54 O61 1.255 . S
O55 Fe44 1.976 . S
O55 C62 1.287 1_556 S
O56 Fe45 1.996 . S
O56 C62 1.255 . S
O57 Fe47 1.976 1_556 S
O57 C52 1.287 . S
O58 Fe44 1.996 . S
O58 C52 1.255 . S
C59 O63 1.295 . S
C59 O64 1.235 . S
O60 Fe45 1.976 . S
O60 C54 1.287 . S
O61 Fe47 1.996 . S
O61 C54 1.255 . S
C62 O55 1.287 1_554 S
C62 O56 1.255 . S
O63 Fe45 2.002 . S
O63 C59 1.295 . S
O64 Fe47 1.997 . S
O64 C59 1.235 . S
C65 O48 1.295 . S
C65 O49 1.235 . S
Fe66 O68 1.918 . S
Fe66 O71 1.997 . S
Fe66 O72 2.002 . S
Fe66 O77 1.976 . S
Fe66 O80 1.996 . S
Fe67 O68 1.918 . S
Fe67 O75 1.997 . S
Fe67 O78 1.996 . S
Fe67 O82 1.976 . S
Fe67 O85 2.002 . S
O68 Fe66 1.918 . S
O68 Fe67 1.918 . S
O68 Fe69 1.918 . S
Fe69 O68 1.918 . S
Fe69 O70 2.002 . S
Fe69 O79 1.976 . S
Fe69 O83 1.996 . S
Fe69 O86 1.997 . S
O70 Fe69 2.002 . S
O70 C87 1.295 . S
O71 Fe66 1.997 . S
O71 C87 1.235 . S
O72 Fe66 2.002 . S
O72 C73 1.295 . S
C73 O72 1.295 . S
C73 O75 1.235 . S
C74 O79 1.287 . S
C74 O80 1.255 . S
O75 Fe67 1.997 . S
O75 C73 1.235 . S
C76 O82 1.287 . S
C76 O83 1.255 . S
O77 Fe66 1.976 . S
O77 C84 1.287 . S
O78 Fe67 1.996 . S
O78 C84 1.255 . S
O79 Fe69 1.976 . S
O79 C74 1.287 . S
O80 Fe66 1.996 . S
O80 C74 1.255 . S
C81 O85 1.295 . S
C81 O86 1.235 . S
O82 Fe67 1.976 . S
O82 C76 1.287 . S
O83 Fe69 1.996 . S
O83 C76 1.255 . S
C84 O77 1.287 . S
C84 O78 1.255 . S
O85 Fe67 2.002 . S
O85 C81 1.295 . S
O86 Fe69 1.997 . S
O86 C81 1.235 . S
C87 O70 1.295 . S
C87 O71 1.235 . S
C88 C89 1.384 . S
C88 H101 0.947 . S
C88 C123 1.382 . S
C89 C88 1.384 . S
C89 C90 1.378 . S
C90 C89 1.378 . S
C90 C91 1.378 . S
C90 H102 0.952 . S
C91 C90 1.378 . S
C91 H103 0.950 . S
C91 C122 1.383 . S
H92 C111 0.947 . S
H93 C112 0.946 . S
H94 C114 0.953 . S
H95 C115 0.945 . S
H96 C117 0.952 . S
H97 C118 0.949 . S
H98 C120 0.950 . S
H99 C121 0.948 . S
H100 C123 0.951 . S
H101 C88 0.947 . S
H102 C90 0.952 . S
H103 C91 0.950 . S
N104 C107 1.388 . S
N104 C109 1.363 . S
N105 C107 1.365 1_556 S
N105 C108 1.372 . S
N106 C108 1.361 . S
N106 C109 1.377 1_556 S
C107 N104 1.388 . S
C107 N105 1.365 1_554 S
C107 C110 1.480 1_554 S
C108 N105 1.372 . S
C108 N106 1.361 . S
C108 C116 1.457 . S
C109 N104 1.363 . S
C109 N106 1.377 1_554 S
C109 C122 1.479 . S
C110 C107 1.480 1_556 S
C110 C111 1.383 1_556 S
C110 C115 1.385 . S
C111 H92 0.947 . S
C111 C110 1.383 1_554 S
C111 C112 1.388 . S
C112 H93 0.946 . S
C112 C111 1.388 . S
C112 C113 1.384 1_554 S
C113 C112 1.384 1_556 S
C113 C114 1.377 . S
C114 H94 0.953 . S
C114 C113 1.377 . S
C114 C115 1.369 . S
C115 H95 0.945 . S
C115 C110 1.385 . S
C115 C114 1.369 . S
C116 C108 1.457 . S
C116 C117 1.372 . S
C116 C121 1.364 . S
C117 H96 0.952 . S
C117 C116 1.372 . S
C117 C118 1.389 . S
C118 H97 0.949 . S
C118 C117 1.389 . S
C118 C119 1.387 . S
C119 C118 1.387 . S
C119 C120 1.372 . S
C120 H98 0.950 . S
C120 C119 1.372 . S
C120 C121 1.379 . S
C121 H99 0.948 . S
C121 C116 1.364 . S
C121 C120 1.379 . S
C122 C91 1.383 . S
C122 C109 1.479 . S
C122 C123 1.398 . S
C123 C88 1.382 . S
C123 H100 0.951 . S
C123 C122 1.398 . S
C124 C125 1.384 . S
C124 H137 0.947 . S
C124 C159 1.382 . S
C125 C124 1.384 . S
C125 C126 1.378 . S
C126 C125 1.378 . S
C126 C127 1.378 . S
C126 H138 0.952 . S
C127 C126 1.378 . S
C127 H139 0.950 . S
C127 C158 1.383 . S
H128 C147 0.947 . S
H129 C148 0.946 . S
H130 C150 0.953 . S
H131 C151 0.945 . S
H132 C153 0.952 . S
H133 C154 0.949 . S
H134 C156 0.950 . S
H135 C157 0.948 . S
H136 C159 0.951 . S
H137 C124 0.947 . S
H138 C126 0.952 . S
H139 C127 0.950 . S
N140 C143 1.382 1_655 S
N140 C145 1.363 . S
N141 C143 1.371 1_655 S
N141 C144 1.372 . S
N142 C144 1.361 . S
N142 C145 1.377 . S
C143 N140 1.382 1_455 S
C143 N141 1.371 1_455 S
C143 C146 1.480 . S
C144 N141 1.372 . S
C144 N142 1.361 . S
C144 C152 1.457 . S
C145 N140 1.363 . S
C145 N142 1.377 . S
C145 C158 1.479 . S
C146 C143 1.480 . S
C146 C147 1.383 . S
C146 C151 1.385 . S
C147 H128 0.947 . S
C147 C146 1.383 . S
C147 C148 1.388 . S
C148 H129 0.946 . S
C148 C147 1.388 . S
C148 C149 1.384 . S
C149 C148 1.384 . S
C149 C150 1.377 . S
C150 H130 0.953 . S
C150 C149 1.377 . S
C150 C151 1.369 . S
C151 H131 0.945 . S
C151 C146 1.385 . S
C151 C150 1.369 . S
C152 C144 1.457 . S
C152 C153 1.372 . S
C152 C157 1.364 . S
C153 H132 0.952 . S
C153 C152 1.372 . S
C153 C154 1.389 . S
C154 H133 0.949 . S
C154 C153 1.389 . S
C154 C155 1.387 . S
C155 C154 1.387 . S
C155 C156 1.372 . S
C156 H134 0.950 . S
C156 C155 1.372 . S
C156 C157 1.379 . S
C157 H135 0.948 . S
C157 C152 1.364 . S
C157 C156 1.379 . S
C158 C127 1.383 . S
C158 C145 1.479 . S
C158 C159 1.398 . S
C159 C124 1.382 . S
C159 H136 0.951 . S
C159 C158 1.398 . S
C160 C161 1.384 . S
C160 H173 0.947 . S
C160 C195 1.382 . S
C161 C160 1.384 . S
C161 C162 1.378 . S
C162 C161 1.378 . S
C162 C163 1.378 . S
C162 H174 0.952 . S
C163 C162 1.378 . S
C163 H175 0.950 . S
C163 C194 1.383 . S
H164 C183 0.947 . S
H165 C184 0.946 . S
H166 C186 0.953 . S
H167 C187 0.945 . S
H168 C189 0.952 . S
H169 C190 0.949 . S
H170 C192 0.950 . S
H171 C193 0.948 . S
H172 C195 0.951 . S
H173 C160 0.947 . S
H174 C162 0.952 . S
H175 C163 0.950 . S
N176 C179 1.382 1_556 S
N176 C181 1.363 . S
N177 C179 1.371 . S
N177 C180 1.372 . S
N178 C180 1.361 . S
N178 C181 1.377 1_554 S
C179 N176 1.382 1_554 S
C179 N177 1.371 . S
C179 C182 1.480 . S
C180 N177 1.372 . S
C180 N178 1.361 . S
C180 C188 1.457 . S
C181 N176 1.363 . S
C181 N178 1.377 1_556 S
C181 C194 1.479 . S
C182 C179 1.480 . S
C182 C183 1.383 1_554 S
C182 C187 1.385 . S
C183 H164 0.947 . S
C183 C182 1.383 1_556 S
C183 C184 1.388 . S
C184 H165 0.946 . S
C184 C183 1.388 . S
C184 C185 1.384 1_556 S
C185 C184 1.384 1_554 S
C185 C186 1.377 . S
C186 H166 0.953 . S
C186 C185 1.377 . S
C186 C187 1.369 . S
C187 H167 0.945 . S
C187 C182 1.385 . S
C187 C186 1.369 . S
C188 C180 1.457 . S
C188 C189 1.372 . S
C188 C193 1.364 . S
C189 H168 0.952 . S
C189 C188 1.372 . S
C189 C190 1.389 . S
C190 H169 0.949 . S
C190 C189 1.389 . S
C190 C191 1.387 . S
C191 C190 1.387 . S
C191 C192 1.372 . S
C192 H170 0.950 . S
C192 C191 1.372 . S
C192 C193 1.379 . S
C193 H171 0.948 . S
C193 C188 1.364 . S
C193 C192 1.379 . S
C194 C163 1.383 . S
C194 C181 1.479 . S
C194 C195 1.398 . S
C195 C160 1.382 . S
C195 H172 0.951 . S
C195 C194 1.398 . S
C196 C197 1.384 . S
C196 H209 0.947 . S
C196 C231 1.382 . S
C197 C196 1.384 . S
C197 C198 1.378 . S
C198 C197 1.378 . S
C198 C199 1.378 . S
C198 H210 0.952 . S
C199 C198 1.378 . S
C199 H211 0.950 . S
C199 C230 1.383 . S
H200 C219 0.947 . S
H201 C220 0.946 . S
H202 C222 0.953 . S
H203 C223 0.945 . S
H204 C225 0.952 . S
H205 C226 0.949 . S
H206 C228 0.950 . S
H207 C229 0.948 . S
H208 C231 0.951 . S
H209 C196 0.947 . S
H210 C198 0.952 . S
H211 C199 0.950 . S
N212 C215 1.382 . S
N212 C217 1.363 1_655 S
N213 C215 1.371 . S
N213 C216 1.372 1_655 S
N214 C216 1.361 . S
N214 C217 1.377 . S
C215 N212 1.382 . S
C215 N213 1.371 . S
C215 C218 1.480 . S
C216 N213 1.372 1_455 S
C216 N214 1.361 . S
C216 C224 1.457 . S
C217 N212 1.363 1_455 S
C217 N214 1.377 . S
C217 C230 1.479 . S
C218 C215 1.480 . S
C218 C219 1.383 . S
C218 C223 1.385 . S
C219 H200 0.947 . S
C219 C218 1.383 . S
C219 C220 1.388 . S
C220 H201 0.946 . S
C220 C219 1.388 . S
C220 C221 1.384 . S
C221 C220 1.384 . S
C221 C222 1.377 . S
C222 H202 0.953 . S
C222 C221 1.377 . S
C222 C223 1.369 . S
C223 H203 0.945 . S
C223 C218 1.385 . S
C223 C222 1.369 . S
C224 C216 1.457 . S
C224 C225 1.372 . S
C224 C229 1.364 . S
C225 H204 0.952 . S
C225 C224 1.372 . S
C225 C226 1.389 . S
C226 H205 0.949 . S
C226 C225 1.389 . S
C226 C227 1.387 . S
C227 C226 1.387 . S
C227 C228 1.372 . S
C228 H206 0.950 . S
C228 C227 1.372 . S
C228 C229 1.379 . S
C229 H207 0.948 . S
C229 C224 1.364 . S
C229 C228 1.379 . S
C230 C199 1.383 . S
C230 C217 1.479 . S
C230 C231 1.398 . S
C231 C196 1.382 . S
C231 H208 0.951 . S
C231 C230 1.398 . S
C232 C233 1.384 . S
C232 H245 0.947 . S
C232 C267 1.382 . S
C233 C232 1.384 . S
C233 C234 1.378 . S
C234 C233 1.378 . S
C234 C235 1.378 . S
C234 H246 0.952 . S
C235 C234 1.378 . S
C235 H247 0.958 . S
C235 C266 1.383 . S
H236 C255 0.947 . S
H237 C256 0.946 . S
H238 C258 0.953 . S
H239 C259 0.945 . S
H240 C261 0.952 . S
H241 C262 0.949 . S
H242 C264 0.950 . S
H243 C265 0.948 . S
H244 C267 0.951 . S
H245 C232 0.947 . S
H246 C234 0.952 . S
H247 C235 0.958 . S
N248 C251 1.382 . S
N248 C253 1.363 1_545 S
N249 C251 1.371 . S
N249 C252 1.372 1_545 S
N250 C252 1.361 . S
N250 C253 1.377 . S
C251 N248 1.382 . S
C251 N249 1.371 . S
C251 C254 1.480 . S
C252 N249 1.372 1_565 S
C252 N250 1.361 . S
C252 C260 1.457 . S
C253 N248 1.363 1_565 S
C253 N250 1.377 . S
C253 C266 1.479 . S
C254 C251 1.480 . S
C254 C255 1.383 . S
C254 C259 1.385 . S
C255 H236 0.947 . S
C255 C254 1.383 . S
C255 C256 1.388 . S
C256 H237 0.946 . S
C256 C255 1.388 . S
C256 C257 1.384 . S
C257 C256 1.384 . S
C257 C258 1.377 . S
C258 H238 0.953 . S
C258 C257 1.377 . S
C258 C259 1.369 . S
C259 H239 0.945 . S
C259 C254 1.385 . S
C259 C258 1.369 . S
C260 C252 1.457 . S
C260 C261 1.372 . S
C260 C265 1.364 . S
C261 H240 0.952 . S
C261 C260 1.372 . S
C261 C262 1.389 . S
C262 H241 0.949 . S
C262 C261 1.389 . S
C262 C263 1.387 . S
C263 C262 1.387 . S
C263 C264 1.372 . S
C264 H242 0.950 . S
C264 C263 1.372 . S
C264 C265 1.379 . S
C265 H243 0.948 . S
C265 C260 1.364 . S
C265 C264 1.379 . S
C266 C235 1.383 . S
C266 C253 1.479 . S
C266 C267 1.398 . S
C267 C232 1.382 . S
C267 H244 0.951 . S
C267 C266 1.398 . S
C268 C269 1.384 . S
C268 H281 0.947 . S
C268 C303 1.382 . S
C269 C268 1.384 . S
C269 C270 1.378 . S
C270 C269 1.378 . S
C270 C271 1.378 . S
C270 H282 0.952 . S
C271 C270 1.378 . S
C271 H283 0.950 . S
C271 C302 1.383 . S
H272 C291 0.947 . S
H273 C292 0.946 . S
H274 C294 0.953 . S
H275 C295 0.945 . S
H276 C297 0.952 . S
H277 C298 0.949 . S
H278 C300 0.950 . S
H279 C301 0.948 . S
H280 C303 0.951 . S
H281 C268 0.947 . S
H282 C270 0.952 . S
H283 C271 0.950 . S
N284 C287 1.382 1_556 S
N284 C289 1.363 . S
N285 C287 1.371 . S
N285 C288 1.372 . S
N286 C288 1.361 . S
N286 C289 1.377 1_554 S
C287 N284 1.382 1_554 S
C287 N285 1.371 . S
C287 C290 1.480 . S
C288 N285 1.372 . S
C288 N286 1.361 . S
C288 C296 1.457 . S
C289 N284 1.363 . S
C289 N286 1.377 1_556 S
C289 C302 1.479 . S
C290 C287 1.480 . S
C290 C291 1.383 1_554 S
C290 C295 1.385 . S
C291 H272 0.947 . S
C291 C290 1.383 1_556 S
C291 C292 1.388 . S
C292 H273 0.946 . S
C292 C291 1.388 . S
C292 C293 1.384 1_556 S
C293 C292 1.384 1_554 S
C293 C294 1.377 . S
C294 H274 0.953 . S
C294 C293 1.377 . S
C294 C295 1.369 . S
C295 H275 0.945 . S
C295 C290 1.385 . S
C295 C294 1.369 . S
C296 C288 1.457 . S
C296 C297 1.372 . S
C296 C301 1.364 . S
C297 H276 0.952 . S
C297 C296 1.372 . S
C297 C298 1.389 . S
C298 H277 0.949 . S
C298 C297 1.389 . S
C298 C299 1.387 . S
C299 C298 1.387 . S
C299 C300 1.372 . S
C300 H278 0.950 . S
C300 C299 1.372 . S
C300 C301 1.379 . S
C301 H279 0.948 . S
C301 C296 1.364 . S
C301 C300 1.379 . S
C302 C271 1.383 . S
C302 C289 1.479 . S
C302 C303 1.398 . S
C303 C268 1.382 . S
C303 H280 0.951 . S
C303 C302 1.398 . S
C304 C305 1.384 . S
C304 H317 0.947 . S
C304 C339 1.382 . S
C305 C304 1.384 . S
C305 C306 1.378 . S
C306 C305 1.378 . S
C306 C307 1.378 . S
C306 H318 0.952 . S
C307 C306 1.378 . S
C307 H319 0.950 . S
C307 C338 1.383 . S
H308 C327 0.947 . S
H309 C328 0.946 . S
H310 C330 0.953 . S
H311 C331 0.945 . S
H312 C333 0.952 . S
H313 C334 0.949 . S
H314 C336 0.950 . S
H315 C337 0.948 . S
H316 C339 0.951 . S
H317 C304 0.947 . S
H318 C306 0.952 . S
H319 C307 0.950 . S
N320 C323 1.382 . S
N320 C325 1.363 1_565 S
N321 C323 1.371 . S
N321 C324 1.372 1_565 S
N322 C324 1.361 . S
N322 C325 1.377 . S
C323 N320 1.382 . S
C323 N321 1.371 . S
C323 C326 1.480 . S
C324 N321 1.372 1_545 S
C324 N322 1.361 . S
C324 C332 1.457 . S
C325 N320 1.363 1_545 S
C325 N322 1.377 . S
C325 C338 1.479 . S
C326 C323 1.480 . S
C326 C327 1.383 . S
C326 C331 1.385 . S
C327 H308 0.947 . S
C327 C326 1.383 . S
C327 C328 1.388 . S
C328 H309 0.946 . S
C328 C327 1.388 . S
C328 C329 1.384 . S
C329 C328 1.384 . S
C329 C330 1.377 . S
C330 H310 0.953 . S
C330 C329 1.377 . S
C330 C331 1.369 . S
C331 H311 0.945 . S
C331 C326 1.385 . S
C331 C330 1.369 . S
C332 C324 1.457 . S
C332 C333 1.372 . S
C332 C337 1.364 . S
C333 H312 0.952 . S
C333 C332 1.372 . S
C333 C334 1.389 . S
C334 H313 0.949 . S
C334 C333 1.389 . S
C334 C335 1.387 . S
C335 C334 1.387 . S
C335 C336 1.372 . S
C336 H314 0.950 . S
C336 C335 1.372 . S
C336 C337 1.379 . S
C337 H315 0.948 . S
C337 C332 1.364 . S
C337 C336 1.379 . S
C338 C307 1.383 . S
C338 C325 1.479 . S
C338 C339 1.398 . S
C339 C304 1.382 . S
C339 H316 0.951 . S
C339 C338 1.398 . S
C340 C341 1.384 . S
C340 H353 0.947 . S
C340 C375 1.382 . S
C341 C340 1.384 . S
C341 C342 1.378 . S
C342 C341 1.378 . S
C342 C343 1.378 . S
C342 H354 0.952 . S
C343 C342 1.378 . S
C343 H355 0.950 . S
C343 C374 1.383 . S
H344 C363 0.947 . S
H345 C364 0.946 . S
H346 C366 0.953 . S
H347 C367 0.945 . S
H348 C369 0.952 . S
H349 C370 0.949 . S
H350 C372 0.950 . S
H351 C373 0.948 . S
H352 C375 0.951 . S
H353 C340 0.947 . S
H354 C342 0.952 . S
H355 C343 0.950 . S
N356 C359 1.382 . S
N356 C361 1.363 . S
N357 C359 1.371 1_556 S
N357 C360 1.372 . S
N358 C360 1.361 . S
N358 C361 1.377 1_556 S
C359 N356 1.382 . S
C359 N357 1.371 1_554 S
C359 C362 1.480 1_554 S
C360 N357 1.372 . S
C360 N358 1.361 . S
C360 C368 1.457 . S
C361 N356 1.363 . S
C361 N358 1.377 1_554 S
C361 C374 1.479 . S
C362 C359 1.480 1_556 S
C362 C363 1.377 1_556 S
C362 C367 1.391 . S
C363 H344 0.947 . S
C363 C362 1.377 1_554 S
C363 C364 1.388 . S
C364 H345 0.946 . S
C364 C363 1.388 . S
C364 C365 1.382 1_554 S
C365 C364 1.382 1_556 S
C365 C366 1.379 . S
C366 H346 0.953 . S
C366 C365 1.379 . S
C366 C367 1.369 . S
C367 H347 0.945 . S
C367 C362 1.391 . S
C367 C366 1.369 . S
C368 C360 1.457 . S
C368 C369 1.372 . S
C368 C373 1.364 . S
C369 H348 0.952 . S
C369 C368 1.372 . S
C369 C370 1.389 . S
C370 H349 0.949 . S
C370 C369 1.389 . S
C370 C371 1.387 . S
C371 C370 1.387 . S
C371 C372 1.372 . S
C372 H350 0.950 . S
C372 C371 1.372 . S
C372 C373 1.379 . S
C373 H351 0.948 . S
C373 C368 1.364 . S
C373 C372 1.379 . S
C374 C343 1.383 . S
C374 C361 1.479 . S
C374 C375 1.398 . S
C375 C340 1.382 . S
C375 H352 0.951 . S
C375 C374 1.398 . S
C21 C197 2.011 . S
C40 C119 2.368 . S
C155 C54 2.127 . S
C73 C161 2.610 . S
C299 C74 2.125 . S
C305 C10 2.543 . S
C341 C37 2.011 . S
C263 C65 2.435 . S
C52 C125 2.184 . S
C87 C191 2.604 . S
C15 C227 2.000 . S
C89 C32 2.393 . S
C29 C371 1.999 . S
C233 C59 2.469 . S
C269 C84 2.186 . S
C8 C335 2.523 . S
C113 C7 2.489 1_556 S
C149 C30 2.172 . S
C62 C185 2.673 . S
C81 C221 1.906 . S
C257 C76 2.490 . S
C18 C293 2.172 . S
C43 C329 2.673 . S
C51 C365 1.905 1_554 S
