# Generated by pormake.
# Topology pyr, (3,6)-cn, num edge types: 1
# Building blocks:
#     Node 0, Type 0, BuildingBlock: BELTOD_clean_linker_0, # of connection points: 3
#     Node 1, Type 0, BuildingBlock: BELTOD_clean_linker_0, # of connection points: 3
#     Node 2, Type 0, BuildingBlock: BELTOD_clean_linker_0, # of connection points: 3
#     Node 3, Type 0, BuildingBlock: BELTOD_clean_linker_0, # of connection points: 3
#     Node 4, Type 0, BuildingBlock: BELTOD_clean_linker_0, # of connection points: 3
#     Node 5, Type 0, BuildingBlock: BELTOD_clean_linker_0, # of connection points: 3
#     Node 6, Type 0, BuildingBlock: BELTOD_clean_linker_0, # of connection points: 3
#     Node 7, Type 0, BuildingBlock: BELTOD_clean_linker_0, # of connection points: 3
#     Node 8, Type 1, BuildingBlock: JUFBIX_clean_sbu_0, # of connection points: 6
#     Node 9, Type 1, BuildingBlock: JUFBIX_clean_sbu_0, # of connection points: 6
#     Node 10, Type 1, BuildingBlock: JUFBIX_clean_sbu_0, # of connection points: 6
#     Node 11, Type 1, BuildingBlock: JUFBIX_clean_sbu_0, # of connection points: 6
#     Edge 12, Type (0, 1), BuildingBlock: AJUNOK_clean_linker_0, # of connection points: 2
#     Edge 13, Type (0, 1), BuildingBlock: AJUNOK_clean_linker_0, # of connection points: 2
#     Edge 14, Type (0, 1), BuildingBlock: AJUNOK_clean_linker_0, # of connection points: 2
#     Edge 15, Type (0, 1), BuildingBlock: AJUNOK_clean_linker_0, # of connection points: 2
#     Edge 16, Type (0, 1), BuildingBlock: AJUNOK_clean_linker_0, # of connection points: 2
#     Edge 17, Type (0, 1), BuildingBlock: AJUNOK_clean_linker_0, # of connection points: 2
#     Edge 18, Type (0, 1), BuildingBlock: AJUNOK_clean_linker_0, # of connection points: 2
#     Edge 19, Type (0, 1), BuildingBlock: AJUNOK_clean_linker_0, # of connection points: 2
#     Edge 20, Type (0, 1), BuildingBlock: AJUNOK_clean_linker_0, # of connection points: 2
#     Edge 21, Type (0, 1), BuildingBlock: AJUNOK_clean_linker_0, # of connection points: 2
#     Edge 22, Type (0, 1), BuildingBlock: AJUNOK_clean_linker_0, # of connection points: 2
#     Edge 23, Type (0, 1), BuildingBlock: AJUNOK_clean_linker_0, # of connection points: 2
#     Edge 24, Type (0, 1), BuildingBlock: AJUNOK_clean_linker_0, # of connection points: 2
#     Edge 25, Type (0, 1), BuildingBlock: AJUNOK_clean_linker_0, # of connection points: 2
#     Edge 26, Type (0, 1), BuildingBlock: AJUNOK_clean_linker_0, # of connection points: 2
#     Edge 27, Type (0, 1), BuildingBlock: AJUNOK_clean_linker_0, # of connection points: 2
#     Edge 28, Type (0, 1), BuildingBlock: AJUNOK_clean_linker_0, # of connection points: 2
#     Edge 29, Type (0, 1), BuildingBlock: AJUNOK_clean_linker_0, # of connection points: 2
#     Edge 30, Type (0, 1), BuildingBlock: AJUNOK_clean_linker_0, # of connection points: 2
#     Edge 31, Type (0, 1), BuildingBlock: AJUNOK_clean_linker_0, # of connection points: 2
#     Edge 32, Type (0, 1), BuildingBlock: AJUNOK_clean_linker_0, # of connection points: 2
#     Edge 33, Type (0, 1), BuildingBlock: AJUNOK_clean_linker_0, # of connection points: 2
#     Edge 34, Type (0, 1), BuildingBlock: AJUNOK_clean_linker_0, # of connection points: 2
#     Edge 35, Type (0, 1), BuildingBlock: AJUNOK_clean_linker_0, # of connection points: 2
# Relax obj value: 0.077
# Max RMSD: 0.102
# Mean RMSD: 0.044
data_MOF--net-pyr--node1-JUFBIX_clean_sbu_0--node2-BELTOD_clean_linker_0--edge1-AJUNOK_clean_linker_0
_symmetry_space_group_name_H-M    P1
_symmetry_Int_Tables_number       1
_symmetry_cell_setting            triclinic
loop_
_symmetry_equiv_pos_as_xyz
'x, y, z'
_cell_length_a     32.945765
_cell_length_b     31.227209
_cell_length_c     32.813343
_cell_angle_alpha  82.273896
_cell_angle_beta   90.291362
_cell_angle_gamma 91.326689
loop_
_atom_site_label
_atom_site_type_symbol
_atom_site_fract_x
_atom_site_fract_y
_atom_site_fract_z
_atom_type_partial_charge
P0 P 0.22115 0.17881 0.20718 0.0
H1 H 0.27487 0.21049 0.13848 0.0
H2 H 0.32752 0.17672 0.1021 0.0
H3 H 0.29884 0.05374 0.17363 0.0
H4 H 0.24492 0.08732 0.209 0.0
H5 H 0.16283 0.2364 0.23521 0.0
H6 H 0.12013 0.29268 0.2008 0.0
H7 H 0.16372 0.26622 0.08298 0.0
H8 H 0.20338 0.20659 0.11775 0.0
H9 H 0.24859 0.12518 0.28176 0.0
H10 H 0.13392 0.15516 0.22217 0.0
O11 O 0.25244 0.20916 0.23209 0.0
H12 H 0.21293 0.08957 0.34266 0.0
H13 H 0.09806 0.1225 0.28405 0.0
C14 C 0.25464 0.15135 0.17559 0.0
C15 C 0.27869 0.17592 0.14534 0.0
C16 C 0.30913 0.15665 0.12474 0.0
C17 C 0.31717 0.11247 0.13472 0.0
C18 C 0.29322 0.08781 0.16511 0.0
C19 C 0.26215 0.107 0.18518 0.0
C20 C 0.18675 0.21719 0.17934 0.0
C21 C 0.16276 0.24208 0.20191 0.0
C22 C 0.13884 0.27501 0.18209 0.0
C23 C 0.13956 0.28546 0.139 0.0
C24 C 0.16261 0.25951 0.11621 0.0
C25 C 0.18575 0.22552 0.13617 0.0
C26 C 0.19415 0.14374 0.24749 0.0
C27 C 0.21571 0.12391 0.28163 0.0
C28 C 0.19518 0.10418 0.31683 0.0
C29 C 0.15247 0.10465 0.31917 0.0
C30 C 0.13091 0.12188 0.28375 0.0
C31 C 0.15151 0.14087 0.24822 0.0
P32 P 0.46998 0.9189 0.5919 0.0
H33 H 0.52291 0.97796 0.63209 0.0
H34 H 0.52284 0.99736 0.70232 0.0
H35 H 0.42912 0.90059 0.73638 0.0
H36 H 0.42984 0.88057 0.66693 0.0
H37 H 0.44885 0.87197 0.52412 0.0
H38 H 0.45329 0.79585 0.5144 0.0
H39 H 0.50706 0.7671 0.63493 0.0
H40 H 0.50256 0.84327 0.64466 0.0
H41 H 0.43486 1.00222 0.56113 0.0
H42 H 0.39265 0.87135 0.6002 0.0
O43 O 0.50271 0.94934 0.56126 0.0
H44 H 0.36435 0.02642 0.55862 0.0
H45 H 0.32272 0.89539 0.59788 0.0
C46 C 0.47649 0.92771 0.64447 0.0
C47 C 0.50308 0.96025 0.65494 0.0
C48 C 0.50295 0.97141 0.69483 0.0
C49 C 0.47567 0.95064 0.72416 0.0
C50 C 0.45015 0.91715 0.71397 0.0
C51 C 0.45067 0.90567 0.67443 0.0
C52 C 0.47507 0.86314 0.58515 0.0
C53 C 0.46157 0.84928 0.54846 0.0
C54 C 0.464 0.80591 0.54298 0.0
C55 C 0.48041 0.77583 0.57402 0.0
C56 C 0.49385 0.78971 0.61083 0.0
C57 C 0.49148 0.83322 0.61626 0.0
C58 C 0.41889 0.93489 0.5799 0.0
C59 C 0.41043 0.97855 0.56782 0.0
C60 C 0.37031 0.99234 0.56655 0.0
C61 C 0.33842 0.96262 0.57803 0.0
C62 C 0.34693 0.91879 0.58887 0.0
C63 C 0.38685 0.90504 0.58981 0.0
P64 P 0.71549 0.33536 0.8465 0.0
H65 H 0.79197 0.30285 0.88032 0.0
H66 H 0.84522 0.33239 0.9212 0.0
H67 H 0.77363 0.44527 0.92796 0.0
H68 H 0.71982 0.41501 0.88723 0.0
H69 H 0.68578 0.25155 0.82762 0.0
H70 H 0.64444 0.19375 0.86533 0.0
H71 H 0.63238 0.2697 0.96514 0.0
H72 H 0.67489 0.32743 0.92731 0.0
H73 H 0.73365 0.4228 0.80457 0.0
H74 H 0.63178 0.33288 0.81562 0.0
O75 O 0.74248 0.31186 0.8131 0.0
H76 H 0.69774 0.46922 0.7507 0.0
H77 H 0.5966 0.37801 0.76081 0.0
C78 C 0.7523 0.35713 0.87989 0.0
C79 C 0.78754 0.33389 0.89071 0.0
C80 C 0.81804 0.35083 0.91408 0.0
C81 C 0.81385 0.39129 0.92768 0.0
C82 C 0.77768 0.41386 0.91824 0.0
C83 C 0.74704 0.39678 0.89468 0.0
C84 C 0.68419 0.29344 0.87503 0.0
C85 C 0.67458 0.25576 0.85775 0.0
C86 C 0.6506 0.2228 0.87923 0.0
C87 C 0.63544 0.22682 0.91847 0.0
C88 C 0.64432 0.26516 0.93537 0.0
C89 C 0.66844 0.29825 0.91374 0.0
C90 C 0.68518 0.37473 0.81502 0.0
C91 C 0.70317 0.41354 0.79624 0.0
C92 C 0.68285 0.43971 0.76485 0.0
C93 C 0.64451 0.427 0.75081 0.0
C94 C 0.62592 0.38899 0.77093 0.0
C95 C 0.64611 0.36309 0.8025 0.0
P96 P 0.93807 0.69772 0.42132 0.0
H97 H 1.00991 0.74783 0.39315 0.0
H98 H 0.05089 0.79591 0.43004 0.0
H99 H 1.00393 0.73129 0.54528 0.0
H100 H 0.96245 0.68367 0.50819 0.0
H101 H 0.8891 0.69389 0.34892 0.0
H102 H 0.89563 0.65438 0.28998 0.0
H103 H 1.01297 0.60996 0.33446 0.0
H104 H 1.00628 0.64976 0.3937 0.0
H105 H 0.87905 0.71084 0.48366 0.0
H106 H 0.92284 0.60375 0.42713 0.0
O107 O 0.91287 0.74327 0.40805 0.0
H108 H 0.81989 0.66722 0.50947 0.0
H109 H 0.86332 0.56027 0.45241 0.0
C110 C 0.98266 0.71281 0.44789 0.0
C111 C 1.01027 0.74225 0.42646 0.0
C112 C 0.03393 0.76965 0.44767 0.0
C113 C 0.02992 0.76778 0.49047 0.0
C114 C 1.00726 0.73351 0.51223 0.0
C115 C 0.98341 0.70633 0.49096 0.0
C116 C 0.9477 0.67556 0.3749 0.0
C117 C 0.91672 0.67659 0.34543 0.0
C118 C 0.92023 0.65371 0.31209 0.0
C119 C 0.95481 0.62943 0.30781 0.0
C120 C 0.98629 0.62907 0.33694 0.0
C121 C 0.98261 0.65184 0.37056 0.0
C122 C 0.90447 0.66098 0.45242 0.0
C123 C 0.87668 0.67746 0.47809 0.0
C124 C 0.84307 0.65237 0.49312 0.0
C125 C 0.837 0.61059 0.48249 0.0
C126 C 0.86739 0.59249 0.4608 0.0
C127 C 0.90122 0.61748 0.44614 0.0
P128 P 0.85937 0.87709 0.89395 0.0
H129 H 0.82266 0.95748 0.90893 0.0
H130 H 0.75553 0.97533 0.93212 0.0
H131 H 0.71341 0.84458 0.92576 0.0
H132 H 0.7814 0.82648 0.90295 0.0
H133 H 0.88843 0.84017 0.975 0.0
H134 H 0.91483 0.76972 1.00219 0.0
H135 H 0.88456 0.72193 0.88808 0.0
H136 H 0.85863 0.79332 0.86058 0.0
H137 H 0.82823 0.93611 0.82297 0.0
H138 H 0.92757 0.84902 0.84849 0.0
O139 O 0.88876 0.90942 0.91875 0.0
H140 H 0.85825 0.96317 0.75573 0.0
H141 H 0.95673 0.87475 0.78131 0.0
C142 C 0.8074 0.89046 0.90465 0.0
C143 C 0.79903 0.93258 0.91214 0.0
C144 C 0.76058 0.94281 0.9255 0.0
C145 C 0.72918 0.91135 0.93107 0.0
C146 C 0.73692 0.86958 0.92162 0.0
C147 C 0.77578 0.85919 0.90862 0.0
C148 C 0.87206 0.82236 0.91549 0.0
C149 C 0.88695 0.81449 0.95587 0.0
C150 C 0.90188 0.77396 0.97155 0.0
C151 C 0.9018 0.73999 0.9474 0.0
C152 C 0.88538 0.74747 0.90738 0.0
C153 C 0.87032 0.78818 0.89171 0.0
C154 C 0.87495 0.8896 0.8406 0.0
C155 C 0.85574 0.92179 0.81372 0.0
C156 C 0.87304 0.9374 0.7753 0.0
C157 C 0.91026 0.92162 0.76337 0.0
C158 C 0.92849 0.88826 0.78978 0.0
C159 C 0.91135 0.8729 0.82805 0.0
P160 P 0.66716 0.24248 0.34028 0.0
H161 H 0.69006 0.3218 0.37115 0.0
H162 H 0.65965 0.3623 0.42127 0.0
H163 H 0.56459 0.26449 0.44431 0.0
H164 H 0.59486 0.22431 0.39329 0.0
H165 H 0.73238 0.20401 0.29989 0.0
H166 H 0.7886 0.15804 0.32621 0.0
H167 H 0.75373 0.17108 0.45053 0.0
H168 H 0.6977 0.21695 0.42421 0.0
H169 H 0.61762 0.24292 0.26636 0.0
H170 H 0.64245 0.15513 0.37625 0.0
O171 O 0.68103 0.27859 0.3003 0.0
H172 H 0.58309 0.18478 0.2365 0.0
H173 H 0.60697 0.09665 0.34677 0.0
C174 C 0.6444 0.27055 0.37815 0.0
C175 C 0.66276 0.309 0.38707 0.0
C176 C 0.64565 0.33176 0.4161 0.0
C177 C 0.61015 0.31606 0.43715 0.0
C178 C 0.59206 0.27709 0.42859 0.0
C179 C 0.60928 0.25426 0.3994 0.0
C180 C 0.71142 0.21441 0.36007 0.0
C181 C 0.73733 0.19755 0.33279 0.0
C182 C 0.76908 0.17104 0.34778 0.0
C183 C 0.77514 0.16092 0.39032 0.0
C184 C 0.74972 0.1787 0.41758 0.0
C185 C 0.71782 0.205 0.40255 0.0
C186 C 0.63327 0.20294 0.323 0.0
C187 C 0.61456 0.2114 0.28453 0.0
C188 C 0.59433 0.1782 0.26773 0.0
C189 C 0.59218 0.13616 0.28944 0.0
C190 C 0.60823 0.12872 0.32943 0.0
C191 C 0.62857 0.16201 0.34617 0.0
P192 P 0.36381 0.62131 0.16888 0.0
H193 H 0.30402 0.6753 0.12008 0.0
H194 H 0.23476 0.65997 0.09818 0.0
H195 H 0.23661 0.5357 0.1738 0.0
H196 H 0.3055 0.55175 0.19644 0.0
H197 H 0.39989 0.66094 0.09132 0.0
H198 H 0.42815 0.73298 0.06796 0.0
H199 H 0.39527 0.77414 0.18362 0.0
H200 H 0.36767 0.7014 0.20725 0.0
H201 H 0.43821 0.58194 0.20149 0.0
H202 H 0.3288 0.62747 0.25096 0.0
O203 O 0.38539 0.58832 0.13974 0.0
H204 H 0.46491 0.56292 0.27077 0.0
H205 H 0.35604 0.60957 0.32102 0.0
C206 C 0.30974 0.61513 0.16083 0.0
C207 C 0.28914 0.64534 0.13308 0.0
C208 C 0.24959 0.63634 0.12015 0.0
C209 C 0.22988 0.59674 0.1344 0.0
C210 C 0.25033 0.56697 0.16297 0.0
C211 C 0.28982 0.5761 0.17599 0.0
C212 C 0.38245 0.6755 0.15138 0.0
C213 C 0.39888 0.68533 0.11181 0.0
C214 C 0.41486 0.72664 0.09836 0.0
C215 C 0.41458 0.75911 0.12416 0.0
C216 C 0.3969 0.74953 0.16341 0.0
C217 C 0.38089 0.70806 0.17686 0.0
C218 C 0.38109 0.60521 0.22102 0.0
C219 C 0.41967 0.58745 0.22736 0.0
C220 C 0.43512 0.57691 0.26708 0.0
C221 C 0.41257 0.58434 0.3016 0.0
C222 C 0.37386 0.60248 0.29521 0.0
C223 C 0.35829 0.61291 0.2552 0.0
P224 P 0.09762 0.37634 0.63864 0.0
H225 H 0.12346 0.33051 0.57223 0.0
H226 H 0.09182 0.26979 0.54403 0.0
H227 H 0.9807 0.28866 0.60728 0.0
H228 H 1.01158 0.35145 0.6337 0.0
H229 H 0.16191 0.41915 0.67758 0.0
H230 H 0.22595 0.45318 0.65268 0.0
H231 H 0.19074 0.44029 0.52792 0.0
H232 H 0.1254 0.40752 0.55301 0.0
H233 H 0.0464 0.35167 0.7097 0.0
H234 H 0.08258 0.46961 0.63339 0.0
O235 O 0.11843 0.33836 0.67249 0.0
H236 H 0.02478 0.39302 0.76298 0.0
H237 H 0.06046 0.51157 0.68682 0.0
C238 C 0.06966 0.34656 0.60419 0.0
C239 C 0.09139 0.32398 0.57759 0.0
C240 C 0.0734 0.28891 0.56171 0.0
C241 C 0.03389 0.27505 0.57336 0.0
C242 C 1.011 0.29946 0.59739 0.0
C243 C 0.02875 0.33528 0.61251 0.0
C244 C 0.13971 0.40935 0.61729 0.0
C245 C 0.16748 0.42452 0.64475 0.0
C246 C 0.2039 0.44427 0.6305 0.0
C247 C 0.21332 0.44876 0.58851 0.0
C248 C 0.18415 0.43665 0.56053 0.0
C249 C 0.14713 0.41751 0.57487 0.0
C250 C 0.06696 0.40753 0.66819 0.0
C251 C 0.04803 0.38664 0.7037 0.0
C252 C 0.03536 0.41045 0.73408 0.0
C253 C 0.0412 0.45559 0.72917 0.0
C254 C 0.05589 0.47679 0.69144 0.0
C255 C 0.06852 0.45283 0.66094 0.0
Co256 Co 0.99955 0.01942 0.52478 0.0
C257 C 0.03785 0.9406 0.53079 0.0
Co258 Co 0.05779 0.01757 0.55773 0.0
C259 C 0.93326 0.05262 0.47416 0.0
C260 C 0.92204 0.98695 0.50046 0.0
N261 N 0.95028 0.01918 0.49789 0.0
N262 N 0.89545 0.04276 0.46206 0.0
C263 C 0.8882 1.00141 0.47846 0.0
H264 H 0.94783 0.08414 0.46689 0.0
H265 H 0.92516 0.95562 0.51861 0.0
C266 C 0.01935 0.09615 0.5528 0.0
N267 N 0.10682 0.01807 0.58462 0.0
C268 C 0.14271 0.00675 0.57033 0.0
C269 C 0.11527 0.03075 0.62151 0.0
N270 N 0.17332 0.01216 0.59659 0.0
C271 C 0.15626 0.02681 0.62911 0.0
C272 C 0.0651 0.04457 0.47297 0.0
O273 O 0.99327 0.07842 0.53156 0.0
O274 O 0.04959 0.07488 0.56757 0.0
O275 O 0.08417 0.03881 0.50696 0.0
O276 O 0.02696 0.03688 0.47304 0.0
O277 O 0.06608 0.95977 0.54813 0.0
H278 H 0.09311 0.04236 0.64139 0.0
H279 H 0.14618 0.99414 0.54141 0.0
O280 O 1.00619 0.96092 0.51853 0.0
O281 O 0.97239 1.00165 0.57658 0.0
O282 O 0.03104 0.99653 0.60817 0.0
C283 C 0.99256 0.99239 0.60969 0.0
H284 H 0.85973 0.98375 0.47672 0.0
H285 H 0.17236 0.03446 0.65615 0.0
Co286 Co 0.5002 0.99979 1.00196 0.0
C287 C 0.48766 0.92755 0.06163 0.0
Co288 Co 0.53369 1.00264 0.05948 0.0
C289 C 0.48545 0.99923 0.91579 0.0
C290 C 0.43179 0.98381 0.95179 0.0
N291 N 0.47122 0.99554 0.95456 0.0
N292 N 0.45656 0.9899 0.88886 0.0
C293 C 0.42273 0.98009 0.91148 0.0
H294 H 0.51678 0.00724 0.9077 0.0
H295 H 0.41147 0.97643 0.97771 0.0
C296 C 0.54676 0.07482 0.99984 0.0
N297 N 0.56291 0.00693 0.10695 0.0
C298 C 0.54845 0.01189 0.14437 0.0
C299 C 0.60338 0.01342 0.10963 0.0
N300 N 0.57807 0.02278 0.16983 0.0
C301 C 0.61275 0.02304 0.1482 0.0
C302 C 0.57791 0.96511 1.00126 0.0
O303 O 0.52213 0.05476 0.97872 0.0
O304 O 0.55523 0.05787 0.03622 0.0
O305 O 0.57873 0.97553 0.03738 0.0
O306 O 0.54568 0.97198 0.9801 0.0
O307 O 0.51235 0.94764 0.0826 0.0
H308 H 0.62437 0.01462 0.08426 0.0
H309 H 0.51652 0.01002 0.15204 0.0
O310 O 0.47853 0.94468 0.02546 0.0
O311 O 0.455 0.02772 0.02374 0.0
O312 O 0.48818 0.02988 0.08119 0.0
C313 C 0.45616 0.03781 0.06003 0.0
H314 H 0.39416 0.96843 0.90027 0.0
H315 H 0.64229 0.03355 0.15819 0.0
Co316 Co 0.55475 0.53756 0.51832 0.0
C317 C 0.48939 0.54141 0.46307 0.0
Co318 Co 0.49745 0.51135 0.54637 0.0
C319 C 0.64041 0.54993 0.50346 0.0
C320 C 0.60507 0.59444 0.46334 0.0
N321 N 0.60188 0.56126 0.49417 0.0
N322 N 0.66734 0.57483 0.47978 0.0
C323 C 0.64538 0.60273 0.45431 0.0
H324 H 0.64864 0.52392 0.52695 0.0
H325 H 0.57976 0.61192 0.44874 0.0
C326 C 0.56294 0.5062 0.6014 0.0
N327 N 0.45017 0.48713 0.56967 0.0
C328 C 0.4116 0.49883 0.56082 0.0
C329 C 0.44695 0.44931 0.59483 0.0
N330 N 0.38468 0.46923 0.57879 0.0
C331 C 0.4066 0.43813 0.60037 0.0
C332 C 0.54539 0.45138 0.51487 0.0
O333 O 0.58188 0.52523 0.57018 0.0
O334 O 0.52518 0.49791 0.59801 0.0
O335 O 0.51144 0.45597 0.53174 0.0
O336 O 0.56905 0.48371 0.50595 0.0
O337 O 0.47003 0.52454 0.49478 0.0
H338 H 0.47234 0.43002 0.60666 0.0
H339 H 0.40344 0.52707 0.53978 0.0
O340 O 0.52719 0.54924 0.46651 0.0
O341 O 0.54083 0.59173 0.53071 0.0
O342 O 0.48389 0.56712 0.56041 0.0
C343 C 0.50822 0.59864 0.54877 0.0
H344 H 0.65774 0.62811 0.43174 0.0
H345 H 0.39424 0.40887 0.61779 0.0
Co346 Co 0.03007 0.50611 1.00626 0.0
C347 C 0.95227 0.46647 1.00824 0.0
Co348 Co 0.99829 0.50408 0.065 0.0
C349 C 0.03626 0.51225 0.91902 0.0
C350 C 0.0936 0.49836 0.94824 0.0
N351 N 0.05474 0.50694 0.95603 0.0
N352 N 0.0617 0.50616 0.88838 0.0
C353 C 0.09797 0.49787 0.90664 0.0
H354 H 1.00441 0.51939 0.91493 0.0
H355 H 0.11673 0.49101 0.97149 0.0
C356 C 0.0765 0.54268 0.06348 0.0
N357 N 0.97385 0.50382 0.11518 0.0
C358 C 0.97491 0.53712 0.13729 0.0
C359 C 0.95603 0.47078 0.13984 0.0
N360 N 0.95959 0.52608 0.1753 0.0
C361 C 0.94709 0.48447 0.17693 0.0
C362 C 0.04708 0.43299 0.06189 0.0
O363 O 0.07635 0.53539 0.02628 0.0
O364 O 0.04495 0.53263 0.08505 0.0
O365 O 0.02246 0.45023 0.08416 0.0
O366 O 0.05442 0.45136 0.0256 0.0
O367 O 0.95178 0.47516 0.04501 0.0
H368 H 0.9514 0.43847 0.13197 0.0
H369 H 0.98745 0.56871 0.12574 0.0
O370 O 0.98388 0.47652 0.98667 0.0
O371 O 1.00572 0.56076 0.98714 0.0
O372 O 0.97439 0.55827 0.04591 0.0
C373 C 0.98135 0.57771 1.01 0.0
H374 H 0.12514 0.4895 0.89134 0.0
H375 H 0.93407 0.46486 0.20359 0.0
C376 C 0.094 0.06476 0.35898 0.0
C377 C 0.13064 0.08915 0.35879 0.0
C378 C 0.07274 0.05082 0.39577 0.0
C379 C 0.08738 0.06028 0.43405 0.0
H380 H 0.08175 0.05597 0.33048 0.0
H381 H 0.04491 0.03194 0.39424 0.0
S382 S 0.17947 0.1267 0.45049 0.0
N383 N 0.17858 0.12501 0.40044 0.0
N384 N 0.13965 0.09766 0.46917 0.0
C385 C 0.12365 0.08503 0.4343 0.0
C386 C 0.14498 0.09969 0.39689 0.0
C387 C 0.50401 0.95931 0.79326 0.0
C388 C 0.47199 0.96498 0.76488 0.0
C389 C 0.49921 0.96884 0.83346 0.0
C390 C 0.46231 0.98455 0.84639 0.0
H391 H 0.53235 0.94598 0.78477 0.0
H392 H 0.52402 0.96227 0.85495 0.0
S393 S 0.37147 0.01046 0.78127 0.0
N394 N 0.40368 0.99054 0.75073 0.0
N395 N 0.39491 0.0096 0.82598 0.0
C396 C 0.43087 0.99238 0.81743 0.0
C397 C 0.43567 0.98231 0.77671 0.0
C398 C 0.58311 0.45916 0.71295 0.0
C399 C 0.62506 0.45116 0.71352 0.0
C400 C 0.56353 0.47819 0.67703 0.0
C401 C 0.58507 0.49032 0.64013 0.0
H402 H 0.56509 0.45007 0.7404 0.0
H403 H 0.53109 0.48281 0.67807 0.0
S404 S 0.69514 0.47489 0.62462 0.0
N405 N 0.68721 0.45583 0.67338 0.0
N406 N 0.65084 0.49234 0.60651 0.0
C407 C 0.62718 0.48323 0.64049 0.0
C408 C 0.64703 0.46353 0.67695 0.0
C409 C 0.92546 0.57333 0.26825 0.0
C410 C 0.95697 0.60313 0.27382 0.0
C411 C 0.92665 0.54813 0.23611 0.0
C412 C 0.95914 0.55225 0.20818 0.0
H413 H 0.89983 0.56928 0.28909 0.0
H414 H 0.90172 0.52567 0.23272 0.0
S415 S 0.04905 0.62616 0.20972 0.0
N416 N 0.02127 0.6358 0.24906 0.0
N417 N 0.02397 0.58824 0.18875 0.0
C418 C 0.99088 0.58205 0.21352 0.0
C419 C 0.98971 0.60748 0.2464 0.0
C420 C 0.38302 0.07249 0.13915 0.0
C421 C 0.35177 0.09286 0.11491 0.0
C422 C 0.41672 0.05539 0.12116 0.0
C423 C 0.42035 0.05719 0.07811 0.0
H424 H 0.38174 0.07037 0.17235 0.0
H425 H 0.43993 0.04022 0.14128 0.0
S426 S 0.34622 0.10648 1.00097 0.0
N427 N 0.3265 0.11373 0.04565 0.0
N428 N 0.3891 0.08096 1.01183 0.0
C429 C 0.38901 0.07714 0.05357 0.0
C430 C 0.35503 0.09515 0.07193 0.0
C431 C 0.27668 0.96792 0.62017 0.0
C432 C 0.29664 0.97738 0.58214 0.0
C433 C 0.23667 0.98038 0.62494 0.0
C434 C 0.21514 1.00212 0.59168 0.0
H435 H 0.29215 0.95068 0.64641 0.0
H436 H 0.22207 0.97197 0.65451 0.0
S437 S 0.2543 0.03578 0.48619 0.0
N438 N 0.29259 0.01079 0.51105 0.0
N439 N 0.21704 0.03413 0.51992 0.0
C440 C 0.23495 0.01235 0.55364 0.0
C441 C 0.27587 1.00007 0.54891 0.0
C442 C 0.88779 0.41085 0.93326 0.0
C443 C 0.84831 0.41039 0.94957 0.0
C444 C 0.92098 0.42854 0.95273 0.0
C445 C 0.91639 0.44627 0.98967 0.0
H446 H 0.89304 0.39787 0.9048 0.0
H447 H 0.95059 0.42821 0.93862 0.0
S448 S 0.81952 0.45177 0.04599 0.0
N449 N 0.80659 0.42834 1.00544 0.0
N450 N 0.86893 0.46158 0.04217 0.0
C451 C 0.87712 0.44554 1.00668 0.0
C452 C 0.84314 0.42777 0.98657 0.0
C453 C 0.77601 0.58425 0.44831 0.0
C454 C 0.7957 0.59114 0.48511 0.0
C455 C 0.7341 0.57666 0.44722 0.0
C456 C 0.71067 0.57491 0.48296 0.0
H457 H 0.7926 0.58789 0.41957 0.0
H458 H 0.71953 0.57396 0.41798 0.0
S459 S 0.74809 0.5863 0.58767 0.0
N460 N 0.7892 0.59248 0.55863 0.0
N461 N 0.71009 0.57738 0.55661 0.0
C462 C 0.73024 0.57865 0.52046 0.0
C463 C 0.77291 0.58705 0.52151 0.0
C464 C 0.09535 0.32195 0.0814 0.0
C465 C 0.11708 0.32385 0.1184 0.0
C466 C 0.07312 0.35744 0.0626 0.0
C467 C 0.07117 0.39578 0.08054 0.0
H468 H 0.0949 0.2926 0.06719 0.0
H469 H 0.05664 0.35452 0.03443 0.0
S470 S 0.12656 0.4202 0.17354 0.0
N471 N 0.13865 0.37005 0.16908 0.0
N472 N 0.09521 0.43508 0.13512 0.0
C473 C 0.09339 0.39858 0.11672 0.0
C474 C 0.11671 0.3631 0.13529 0.0
C475 C 0.57968 0.17016 0.92105 0.0
C476 C 0.61089 0.19059 0.94133 0.0
C477 C 0.55836 0.13369 0.94059 0.0
C478 C 0.56734 0.11592 0.98132 0.0
H479 H 0.57194 0.18217 0.88952 0.0
H480 H 0.53517 0.11886 0.92322 0.0
S481 S 0.64607 0.15773 0.04835 0.0
N482 N 0.64945 0.19061 1.00463 0.0
N483 N 0.60925 0.12258 0.04163 0.0
C484 C 0.59783 0.13675 1.00235 0.0
C485 C 0.61956 0.17392 0.98236 0.0
C486 C 1.00327 0.82614 0.52582 0.0
C487 C 0.03699 0.80788 0.50908 0.0
C488 C 1.00463 0.86873 0.53415 0.0
C489 C 0.03993 0.89449 0.52676 0.0
H490 H 0.97456 0.80846 0.52981 0.0
H491 H 0.97734 0.88208 0.54521 0.0
S492 S 0.13781 0.86094 0.48752 0.0
N493 N 0.10763 0.81781 0.48816 0.0
N494 N 0.11051 0.89819 0.50518 0.0
C495 C 0.07482 0.876 0.51281 0.0
C496 C 0.07322 0.83259 0.50352 0.0
C497 C 0.47007 0.69591 0.59422 0.0
C498 C 0.48602 0.73067 0.56676 0.0
C499 C 0.47612 0.65292 0.58777 0.0
C500 C 0.49899 0.64358 0.55412 0.0
H501 H 0.45283 0.70204 0.62078 0.0
H502 H 0.46378 0.62694 0.60974 0.0
S503 S 0.54652 0.72345 0.47312 0.0
N504 N 0.52503 0.75306 0.50466 0.0
N505 N 0.53641 0.67278 0.49233 0.0
C506 C 0.5146 0.67825 0.52627 0.0
C507 C 0.50814 0.72169 0.53265 0.0
C508 C 0.91022 0.94719 0.68682 0.0
C509 C 0.93121 0.94109 0.72459 0.0
C510 C 0.93005 0.96417 0.64998 0.0
C511 C 0.97169 0.97597 0.64936 0.0
H512 H 0.87839 0.93797 0.68558 0.0
H513 H 0.91264 0.96749 0.62168 0.0
S514 S 0.0394 0.97053 0.7408 0.0
N515 N 0.99524 0.95126 0.75948 0.0
N516 N 0.03244 0.98261 0.69077 0.0
C517 C 0.99268 0.97106 0.6872 0.0
C518 C 0.97251 0.95381 0.72458 0.0
C519 C 0.608 0.06589 0.26625 0.0
C520 C 0.58049 0.09952 0.26724 0.0
C521 C 0.60466 0.03797 0.23643 0.0
C522 C 0.57378 0.04267 0.2066 0.0
H523 H 0.63435 0.06342 0.28625 0.0
H524 H 0.62811 0.01455 0.23475 0.0
S525 S 0.48954 0.12035 0.20132 0.0
N526 N 0.51765 0.13153 0.2405 0.0
N527 N 0.51187 0.0799 0.18349 0.0
C528 C 0.54362 0.07328 0.20998 0.0
C529 C 0.54694 0.10157 0.24056 0.0
C530 C 0.47107 0.58641 0.35081 0.0
C531 C 0.43048 0.57421 0.3437 0.0
C532 C 0.4896 0.57578 0.38934 0.0
C533 C 0.46842 0.55245 0.42269 0.0
H534 H 0.48879 0.60451 0.32632 0.0
H535 H 0.5209 0.58604 0.39291 0.0
S536 S 0.36149 0.51215 0.42028 0.0
N537 N 0.36975 0.53695 0.37326 0.0
N538 N 0.40424 0.51739 0.44581 0.0
C539 C 0.42762 0.54032 0.41616 0.0
C540 C 0.40875 0.55114 0.37676 0.0
C541 C 0.07537 0.50149 0.77599 0.0
C542 C 0.04042 0.47827 0.766 0.0
C543 C 0.08086 0.51301 0.81543 0.0
C544 C 0.05166 0.50181 0.84632 0.0
H545 H 0.10009 0.50797 0.75423 0.0
H546 H 0.10911 0.52888 0.82244 0.0
S547 S 0.95207 0.4467 0.83369 0.0
N548 N 0.97391 0.44944 0.78822 0.0
N549 N 0.98453 0.46993 0.86284 0.0
C550 C 1.01507 0.48171 0.83572 0.0
C551 C 1.00943 0.47019 0.79541 0.0
C552 C 0.6893 0.93994 0.9862 0.0
C553 C 0.68956 0.92211 0.94902 0.0
C554 C 0.65304 0.95241 1.00319 0.0
C555 C 0.61526 0.94831 0.9835 0.0
H556 H 0.71752 0.94445 1.00233 0.0
H557 H 0.65493 0.96636 0.03164 0.0
S558 S 0.59923 0.90298 0.88543 0.0
N559 N 0.64873 0.90018 0.89328 0.0
N560 N 0.5806 0.92422 0.92466 0.0
C561 C 0.61502 0.93005 0.94641 0.0
C562 C 0.65206 0.91676 0.92939 0.0
C563 C 0.83526 0.14313 0.4354 0.0
C564 C 0.80714 0.13086 0.40655 0.0
C565 C 0.8647 0.1145 0.45261 0.0
C566 C 0.86666 0.07244 0.44197 0.0
H567 H 0.83434 0.17503 0.44485 0.0
H568 H 0.88534 0.12492 0.4753 0.0
S569 S 0.80046 0.02493 0.36735 0.0
N570 N 0.78331 0.07418 0.36763 0.0
N571 N 0.8389 0.02034 0.40004 0.0
C572 C 0.83905 0.05995 0.41282 0.0
C573 C 0.80927 0.08922 0.39502 0.0
C574 C 0.18256 0.59172 0.07456 0.0
C575 C 0.1894 0.58536 0.11738 0.0
C576 C 0.1458 0.57869 0.05746 0.0
C577 C 0.11401 0.55922 0.08244 0.0
H578 H 0.20631 0.60576 0.05391 0.0
H579 H 0.14248 0.5835 0.02431 0.0
S580 S 0.11608 0.53624 0.19661 0.0
N581 N 0.16076 0.55928 0.18443 0.0
N582 N 0.09194 0.53467 0.1526 0.0
C583 C 0.12015 0.5535 0.12542 0.0
C584 C 0.15771 0.56649 0.14276 0.0
C585 C 0.27555 0.49611 0.58797 0.0
C586 C 0.25574 0.45933 0.576 0.0
C587 C 0.31797 0.50078 0.58617 0.0
C588 C 0.34161 0.46839 0.57318 0.0
H589 H 0.25828 0.52014 0.60088 0.0
H590 H 0.33255 0.52831 0.59747 0.0
S591 S 0.3046 0.3684 0.53481 0.0
N592 N 0.26297 0.39198 0.54742 0.0
N593 N 0.34272 0.40078 0.54462 0.0
C594 C 0.32216 0.43299 0.55875 0.0
C595 C 0.27912 0.42849 0.55994 0.0
C596 C 0.94847 0.67871 0.93939 0.0
C597 C 0.92041 0.69768 0.96342 0.0
C598 C 0.96809 0.64023 0.95467 0.0
C599 C 0.96043 0.61887 0.99465 0.0
H600 H 0.956 0.69421 0.90874 0.0
H601 H 0.98957 0.62727 0.93492 0.0
S602 S 0.88741 0.6537 0.06911 0.0
N603 N 0.88445 0.69093 0.0285 0.0
N604 N 0.92129 0.61923 0.05739 0.0
C605 C 0.93187 0.63721 0.01875 0.0
C606 C 0.91194 0.67636 1.00315 0.0
C607 C 0.42349 0.82368 0.07024 0.0
C608 C 0.43274 0.80267 0.10974 0.0
C609 C 0.44125 0.86393 0.05518 0.0
C610 C 0.46922 0.88494 0.07889 0.0
H611 H 0.40216 0.80894 0.05076 0.0
H612 H 0.43295 0.87858 0.02455 0.0
S613 S 0.50446 0.84305 0.1842 0.0
N614 N 0.47224 0.80544 0.17211 0.0
N615 N 0.50539 0.88121 0.14415 0.0
C616 C 0.47865 0.86431 0.1186 0.0
C617 C 0.46046 0.82326 0.13393 0.0
C618 C 1.01179 0.21761 0.53116 0.0
C619 C 0.02171 0.23015 0.56959 0.0
C620 C 1.00818 0.17366 0.52635 0.0
C621 C 1.01576 0.1414 0.55957 0.0
H622 H 1.00841 0.24182 0.50451 0.0
H623 H 1.00194 0.16493 0.49603 0.0
S624 S 0.04061 0.1579 0.66663 0.0
N625 N 0.03663 0.20722 0.64168 0.0
N626 N 0.03123 0.12478 0.63232 0.0
C627 C 0.0242 0.15367 0.59833 0.0
C628 C 0.02686 0.19811 0.60341 0.0
C629 C 0.54984 0.35408 0.45932 0.0
C630 C 0.59075 0.34257 0.46533 0.0
C631 C 0.53357 0.38717 0.47877 0.0
C632 C 0.55794 0.40959 0.5044 0.0
H633 H 0.53124 0.33977 0.43718 0.0
H634 H 0.50298 0.39753 0.47111 0.0
S635 S 0.66385 0.38592 0.53663 0.0
N636 N 0.65287 0.35133 0.50405 0.0
N637 N 0.62256 0.41432 0.53956 0.0
C638 C 0.59753 0.39577 0.51352 0.0
C639 C 0.61391 0.36195 0.49423 0.0
loop_
_geom_bond_atom_site_label_1
_geom_bond_atom_site_label_2
_geom_bond_distance
_geom_bond_site_symmetry_2
_ccdc_geom_bond_type
P0 O11 1.490 . S
P0 C14 1.812 . S
P0 C20 1.803 . S
P0 C26 1.819 . S
H1 C15 0.941 . S
H2 C16 0.939 . S
H3 C18 0.940 . S
H4 C19 0.940 . S
H5 C21 0.939 . S
H6 C22 0.942 . S
H7 C24 0.940 . S
H8 C25 0.939 . S
H9 C27 0.941 . S
H10 C31 0.939 . S
O11 P0 1.490 . S
H12 C28 0.939 . S
H13 C30 0.940 . S
C14 P0 1.812 . S
C14 C15 1.389 . S
C14 C19 1.391 . S
C15 H1 0.941 . S
C15 C14 1.389 . S
C15 C16 1.397 . S
C16 H2 0.939 . S
C16 C15 1.397 . S
C16 C17 1.378 . S
C17 C16 1.378 . S
C17 C18 1.378 . S
C18 H3 0.940 . S
C18 C17 1.378 . S
C18 C19 1.396 . S
C19 H4 0.940 . S
C19 C14 1.391 . S
C19 C18 1.396 . S
C20 P0 1.803 . S
C20 C21 1.378 . S
C20 C25 1.400 . S
C21 H5 0.939 . S
C21 C20 1.378 . S
C21 C22 1.361 . S
C22 H6 0.942 . S
C22 C21 1.361 . S
C22 C23 1.369 . S
C23 C22 1.369 . S
C23 C24 1.404 . S
C24 H7 0.940 . S
C24 C23 1.404 . S
C24 C25 1.389 . S
C25 H8 0.939 . S
C25 C20 1.400 . S
C25 C24 1.389 . S
C26 P0 1.819 . S
C26 C27 1.391 . S
C26 C31 1.391 . S
C27 H9 0.941 . S
C27 C26 1.391 . S
C27 C28 1.396 . S
C28 H12 0.939 . S
C28 C27 1.396 . S
C28 C29 1.397 . S
C29 C28 1.397 . S
C29 C30 1.385 . S
C30 H13 0.940 . S
C30 C29 1.385 . S
C30 C31 1.388 . S
C31 H10 0.939 . S
C31 C26 1.391 . S
C31 C30 1.388 . S
P32 O43 1.490 . S
P32 C46 1.812 . S
P32 C52 1.803 . S
P32 C58 1.819 . S
H33 C47 0.941 . S
H34 C48 0.939 . S
H35 C50 0.940 . S
H36 C51 0.940 . S
H37 C53 0.939 . S
H38 C54 0.942 . S
H39 C56 0.940 . S
H40 C57 0.939 . S
H41 C59 0.941 . S
H42 C63 0.939 . S
O43 P32 1.490 . S
H44 C60 0.939 . S
H45 C62 0.940 . S
C46 P32 1.812 . S
C46 C47 1.389 . S
C46 C51 1.391 . S
C47 H33 0.941 . S
C47 C46 1.389 . S
C47 C48 1.397 . S
C48 H34 0.939 . S
C48 C47 1.397 . S
C48 C49 1.378 . S
C49 C48 1.378 . S
C49 C50 1.378 . S
C50 H35 0.940 . S
C50 C49 1.378 . S
C50 C51 1.396 . S
C51 H36 0.940 . S
C51 C46 1.391 . S
C51 C50 1.396 . S
C52 P32 1.803 . S
C52 C53 1.378 . S
C52 C57 1.400 . S
C53 H37 0.939 . S
C53 C52 1.378 . S
C53 C54 1.361 . S
C54 H38 0.942 . S
C54 C53 1.361 . S
C54 C55 1.369 . S
C55 C54 1.369 . S
C55 C56 1.404 . S
C56 H39 0.940 . S
C56 C55 1.404 . S
C56 C57 1.389 . S
C57 H40 0.939 . S
C57 C52 1.400 . S
C57 C56 1.389 . S
C58 P32 1.819 . S
C58 C59 1.391 . S
C58 C63 1.391 . S
C59 H41 0.941 . S
C59 C58 1.391 . S
C59 C60 1.396 . S
C60 H44 0.939 . S
C60 C59 1.396 . S
C60 C61 1.397 . S
C61 C60 1.397 . S
C61 C62 1.385 . S
C62 H45 0.940 . S
C62 C61 1.385 . S
C62 C63 1.388 . S
C63 H42 0.939 . S
C63 C58 1.391 . S
C63 C62 1.388 . S
P64 O75 1.490 . S
P64 C78 1.812 . S
P64 C84 1.803 . S
P64 C90 1.819 . S
H65 C79 0.941 . S
H66 C80 0.939 . S
H67 C82 0.940 . S
H68 C83 0.940 . S
H69 C85 0.939 . S
H70 C86 0.942 . S
H71 C88 0.940 . S
H72 C89 0.939 . S
H73 C91 0.941 . S
H74 C95 0.939 . S
O75 P64 1.490 . S
H76 C92 0.939 . S
H77 C94 0.940 . S
C78 P64 1.812 . S
C78 C79 1.389 . S
C78 C83 1.391 . S
C79 H65 0.941 . S
C79 C78 1.389 . S
C79 C80 1.397 . S
C80 H66 0.939 . S
C80 C79 1.397 . S
C80 C81 1.378 . S
C81 C80 1.378 . S
C81 C82 1.378 . S
C82 H67 0.940 . S
C82 C81 1.378 . S
C82 C83 1.396 . S
C83 H68 0.940 . S
C83 C78 1.391 . S
C83 C82 1.396 . S
C84 P64 1.803 . S
C84 C85 1.378 . S
C84 C89 1.400 . S
C85 H69 0.939 . S
C85 C84 1.378 . S
C85 C86 1.361 . S
C86 H70 0.942 . S
C86 C85 1.361 . S
C86 C87 1.369 . S
C87 C86 1.369 . S
C87 C88 1.404 . S
C88 H71 0.940 . S
C88 C87 1.404 . S
C88 C89 1.389 . S
C89 H72 0.939 . S
C89 C84 1.400 . S
C89 C88 1.389 . S
C90 P64 1.819 . S
C90 C91 1.391 . S
C90 C95 1.391 . S
C91 H73 0.941 . S
C91 C90 1.391 . S
C91 C92 1.396 . S
C92 H76 0.939 . S
C92 C91 1.396 . S
C92 C93 1.397 . S
C93 C92 1.397 . S
C93 C94 1.385 . S
C94 H77 0.940 . S
C94 C93 1.385 . S
C94 C95 1.388 . S
C95 H74 0.939 . S
C95 C90 1.391 . S
C95 C94 1.388 . S
P96 O107 1.490 . S
P96 C110 1.812 . S
P96 C116 1.803 . S
P96 C122 1.819 . S
H97 C111 0.941 . S
H98 C112 0.939 . S
H99 C114 0.940 . S
H100 C115 0.940 . S
H101 C117 0.939 . S
H102 C118 0.942 . S
H103 C120 0.940 . S
H104 C121 0.939 . S
H105 C123 0.941 . S
H106 C127 0.939 . S
O107 P96 1.490 . S
H108 C124 0.939 . S
H109 C126 0.940 . S
C110 P96 1.812 . S
C110 C111 1.389 . S
C110 C115 1.391 . S
C111 H97 0.941 . S
C111 C110 1.389 . S
C111 C112 1.397 . S
C112 H98 0.939 . S
C112 C111 1.397 . S
C112 C113 1.378 . S
C113 C112 1.378 . S
C113 C114 1.378 . S
C114 H99 0.940 . S
C114 C113 1.378 . S
C114 C115 1.396 . S
C115 H100 0.940 . S
C115 C110 1.391 . S
C115 C114 1.396 . S
C116 P96 1.803 . S
C116 C117 1.378 . S
C116 C121 1.400 . S
C117 H101 0.939 . S
C117 C116 1.378 . S
C117 C118 1.361 . S
C118 H102 0.942 . S
C118 C117 1.361 . S
C118 C119 1.369 . S
C119 C118 1.369 . S
C119 C120 1.404 . S
C120 H103 0.940 . S
C120 C119 1.404 . S
C120 C121 1.389 . S
C121 H104 0.939 . S
C121 C116 1.400 . S
C121 C120 1.389 . S
C122 P96 1.819 . S
C122 C123 1.391 . S
C122 C127 1.391 . S
C123 H105 0.941 . S
C123 C122 1.391 . S
C123 C124 1.396 . S
C124 H108 0.939 . S
C124 C123 1.396 . S
C124 C125 1.397 . S
C125 C124 1.397 . S
C125 C126 1.385 . S
C126 H109 0.940 . S
C126 C125 1.385 . S
C126 C127 1.388 . S
C127 H106 0.939 . S
C127 C122 1.391 . S
C127 C126 1.388 . S
P128 O139 1.490 . S
P128 C142 1.812 . S
P128 C148 1.803 . S
P128 C154 1.819 . S
H129 C143 0.941 . S
H130 C144 0.954 . S
H131 C146 0.940 . S
H132 C147 0.940 . S
H133 C149 0.939 . S
H134 C150 0.942 . S
H135 C152 0.940 . S
H136 C153 0.939 . S
H137 C155 0.941 . S
H138 C159 0.939 . S
O139 P128 1.490 . S
H140 C156 0.939 1_545 S
H141 C158 0.940 . S
C142 P128 1.812 . S
C142 C143 1.389 . S
C142 C147 1.391 . S
C143 H129 0.941 . S
C143 C142 1.389 . S
C143 C144 1.397 . S
C144 H130 0.954 . S
C144 C143 1.397 . S
C144 C145 1.378 . S
C145 C144 1.378 . S
C145 C146 1.378 . S
C146 H131 0.940 . S
C146 C145 1.378 . S
C146 C147 1.396 . S
C147 H132 0.940 . S
C147 C142 1.391 . S
C147 C146 1.396 . S
C148 P128 1.803 . S
C148 C149 1.378 . S
C148 C153 1.400 . S
C149 H133 0.939 . S
C149 C148 1.378 . S
C149 C150 1.361 . S
C150 H134 0.942 . S
C150 C149 1.361 . S
C150 C151 1.369 . S
C151 C150 1.369 . S
C151 C152 1.404 . S
C152 H135 0.940 . S
C152 C151 1.404 . S
C152 C153 1.389 . S
C153 H136 0.939 . S
C153 C148 1.400 . S
C153 C152 1.389 . S
C154 P128 1.819 . S
C154 C155 1.391 . S
C154 C159 1.391 . S
C155 H137 0.941 . S
C155 C154 1.391 . S
C155 C156 1.396 . S
C156 H140 0.939 1_565 S
C156 C155 1.396 . S
C156 C157 1.397 . S
C157 C156 1.397 . S
C157 C158 1.385 . S
C158 H141 0.940 . S
C158 C157 1.385 . S
C158 C159 1.388 . S
C159 H138 0.939 . S
C159 C154 1.391 . S
C159 C158 1.388 . S
P160 O171 1.490 . S
P160 C174 1.812 . S
P160 C180 1.803 . S
P160 C186 1.819 . S
H161 C175 0.941 . S
H162 C176 0.939 . S
H163 C178 0.940 . S
H164 C179 0.940 . S
H165 C181 0.939 . S
H166 C182 0.942 . S
H167 C184 0.940 . S
H168 C185 0.939 . S
H169 C187 0.941 . S
H170 C191 0.939 . S
O171 P160 1.490 . S
H172 C188 0.939 . S
H173 C190 0.940 . S
C174 P160 1.812 . S
C174 C175 1.389 . S
C174 C179 1.391 . S
C175 H161 0.941 . S
C175 C174 1.389 . S
C175 C176 1.397 . S
C176 H162 0.939 . S
C176 C175 1.397 . S
C176 C177 1.378 . S
C177 C176 1.378 . S
C177 C178 1.378 . S
C178 H163 0.940 . S
C178 C177 1.378 . S
C178 C179 1.396 . S
C179 H164 0.940 . S
C179 C174 1.391 . S
C179 C178 1.396 . S
C180 P160 1.803 . S
C180 C181 1.378 . S
C180 C185 1.400 . S
C181 H165 0.939 . S
C181 C180 1.378 . S
C181 C182 1.361 . S
C182 H166 0.942 . S
C182 C181 1.361 . S
C182 C183 1.369 . S
C183 C182 1.369 . S
C183 C184 1.404 . S
C184 H167 0.940 . S
C184 C183 1.404 . S
C184 C185 1.389 . S
C185 H168 0.939 . S
C185 C180 1.400 . S
C185 C184 1.389 . S
C186 P160 1.819 . S
C186 C187 1.391 . S
C186 C191 1.391 . S
C187 H169 0.941 . S
C187 C186 1.391 . S
C187 C188 1.396 . S
C188 H172 0.939 . S
C188 C187 1.396 . S
C188 C189 1.397 . S
C189 C188 1.397 . S
C189 C190 1.385 . S
C190 H173 0.940 . S
C190 C189 1.385 . S
C190 C191 1.388 . S
C191 H170 0.939 . S
C191 C186 1.391 . S
C191 C190 1.388 . S
P192 O203 1.490 . S
P192 C206 1.812 . S
P192 C212 1.803 . S
P192 C218 1.819 . S
H193 C207 0.941 . S
H194 C208 0.939 . S
H195 C210 0.940 . S
H196 C211 0.940 . S
H197 C213 0.939 . S
H198 C214 0.942 . S
H199 C216 0.940 . S
H200 C217 0.939 . S
H201 C219 0.941 . S
H202 C223 0.939 . S
O203 P192 1.490 . S
H204 C220 0.939 . S
H205 C222 0.940 . S
C206 P192 1.812 . S
C206 C207 1.389 . S
C206 C211 1.391 . S
C207 H193 0.941 . S
C207 C206 1.389 . S
C207 C208 1.397 . S
C208 H194 0.939 . S
C208 C207 1.397 . S
C208 C209 1.378 . S
C209 C208 1.378 . S
C209 C210 1.378 . S
C210 H195 0.940 . S
C210 C209 1.378 . S
C210 C211 1.396 . S
C211 H196 0.940 . S
C211 C206 1.391 . S
C211 C210 1.396 . S
C212 P192 1.803 . S
C212 C213 1.378 . S
C212 C217 1.400 . S
C213 H197 0.939 . S
C213 C212 1.378 . S
C213 C214 1.361 . S
C214 H198 0.942 . S
C214 C213 1.361 . S
C214 C215 1.369 . S
C215 C214 1.369 . S
C215 C216 1.404 . S
C216 H199 0.940 . S
C216 C215 1.404 . S
C216 C217 1.389 . S
C217 H200 0.939 . S
C217 C212 1.400 . S
C217 C216 1.389 . S
C218 P192 1.819 . S
C218 C219 1.391 . S
C218 C223 1.391 . S
C219 H201 0.941 . S
C219 C218 1.391 . S
C219 C220 1.396 . S
C220 H204 0.939 . S
C220 C219 1.396 . S
C220 C221 1.397 . S
C221 C220 1.397 . S
C221 C222 1.385 . S
C222 H205 0.940 . S
C222 C221 1.385 . S
C222 C223 1.388 . S
C223 H202 0.939 . S
C223 C218 1.391 . S
C223 C222 1.388 . S
P224 O235 1.490 . S
P224 C238 1.812 . S
P224 C244 1.803 . S
P224 C250 1.819 . S
H225 C239 0.941 . S
H226 C240 0.939 . S
H227 C242 0.940 . S
H228 C243 0.940 . S
H229 C245 0.939 . S
H230 C246 0.942 . S
H231 C248 0.940 . S
H232 C249 0.939 . S
H233 C251 0.941 . S
H234 C255 0.939 . S
O235 P224 1.490 . S
H236 C252 0.939 . S
H237 C254 0.940 . S
C238 P224 1.812 . S
C238 C239 1.389 . S
C238 C243 1.391 . S
C239 H225 0.941 . S
C239 C238 1.389 . S
C239 C240 1.397 . S
C240 H226 0.939 . S
C240 C239 1.397 . S
C240 C241 1.378 . S
C241 C240 1.378 . S
C241 C242 1.378 . S
C242 H227 0.940 . S
C242 C241 1.378 . S
C242 C243 1.396 . S
C243 H228 0.940 . S
C243 C238 1.391 . S
C243 C242 1.396 . S
C244 P224 1.803 . S
C244 C245 1.378 . S
C244 C249 1.400 . S
C245 H229 0.939 . S
C245 C244 1.378 . S
C245 C246 1.361 . S
C246 H230 0.942 . S
C246 C245 1.361 . S
C246 C247 1.369 . S
C247 C246 1.369 . S
C247 C248 1.404 . S
C248 H231 0.940 . S
C248 C247 1.404 . S
C248 C249 1.389 . S
C249 H232 0.939 . S
C249 C244 1.400 . S
C249 C248 1.389 . S
C250 P224 1.819 . S
C250 C251 1.391 . S
C250 C255 1.391 . S
C251 H233 0.941 . S
C251 C250 1.391 . S
C251 C252 1.396 . S
C252 H236 0.939 . S
C252 C251 1.396 . S
C252 C253 1.397 . S
C253 C252 1.397 . S
C253 C254 1.385 . S
C254 H237 0.940 . S
C254 C253 1.385 . S
C254 C255 1.388 . S
C255 H234 0.939 . S
C255 C250 1.391 . S
C255 C254 1.388 . S
Co256 N261 2.057 . S
Co256 O273 2.021 . S
Co256 O276 2.062 . S
Co256 O280 2.117 1_545 S
Co256 O281 2.020 . S
C257 O277 1.259 1_655 S
C257 O280 1.258 . S
Co258 N267 2.057 . S
Co258 O274 2.117 1_565 S
Co258 O275 2.020 1_565 S
Co258 O277 2.021 . S
Co258 O282 2.062 . S
C259 N261 1.316 . S
C259 N262 1.347 . S
C259 H264 0.931 . S
C260 N261 1.375 . S
C260 C263 1.350 . S
C260 H265 0.930 1_545 S
N261 Co256 2.057 . S
N261 C259 1.316 . S
N261 C260 1.375 . S
N262 C259 1.347 . S
N262 C263 1.373 . S
C263 C260 1.350 . S
C263 N262 1.373 . S
C263 H284 0.931 . S
H264 C259 0.931 . S
H265 C260 0.930 1_565 S
C266 O273 1.259 1_455 S
C266 O274 1.258 . S
N267 Co258 2.057 . S
N267 C268 1.316 . S
N267 C269 1.375 1_565 S
C268 N267 1.316 . S
C268 N270 1.347 . S
C268 H279 0.931 . S
C269 N267 1.375 1_545 S
C269 C271 1.350 1_545 S
C269 H278 0.930 . S
N270 C268 1.347 . S
N270 C271 1.373 . S
C271 C269 1.350 1_565 S
C271 N270 1.373 . S
C271 H285 0.931 1_565 S
C272 O275 1.256 . S
C272 O276 1.255 1_455 S
O273 Co256 2.021 . S
O273 C266 1.259 1_655 S
O274 Co258 2.117 1_545 S
O274 C266 1.258 . S
O275 Co258 2.020 1_545 S
O275 C272 1.256 . S
O276 Co256 2.062 . S
O276 C272 1.255 1_655 S
O277 C257 1.259 1_455 S
O277 Co258 2.021 . S
H278 C269 0.930 . S
H279 C268 0.931 . S
O280 Co256 2.117 1_565 S
O280 C257 1.258 . S
O281 Co256 2.020 . S
O281 C283 1.256 1_545 S
O282 Co258 2.062 . S
O282 C283 1.255 1_455 S
C283 O281 1.256 1_565 S
C283 O282 1.255 1_655 S
H284 C263 0.931 . S
H285 C271 0.931 1_545 S
Co286 N291 2.057 1_545 S
Co286 O303 2.021 . S
Co286 O306 2.062 1_545 S
Co286 O310 2.117 1_546 S
Co286 O311 2.020 . S
C287 O307 1.259 . S
C287 O310 1.258 . S
Co288 N297 2.057 . S
Co288 O304 2.117 . S
Co288 O305 2.020 1_545 S
Co288 O307 2.021 1_545 S
Co288 O312 2.062 . S
C289 N291 1.316 . S
C289 N292 1.347 . S
C289 H294 0.931 1_565 S
C290 N291 1.375 . S
C290 C293 1.350 . S
C290 H295 0.930 . S
N291 Co286 2.057 1_565 S
N291 C289 1.316 . S
N291 C290 1.375 . S
N292 C289 1.347 . S
N292 C293 1.373 . S
C293 C290 1.350 . S
C293 N292 1.373 . S
C293 H314 0.931 . S
H294 C289 0.931 1_545 S
H295 C290 0.930 . S
C296 O303 1.259 . S
C296 O304 1.258 1_556 S
N297 Co288 2.057 . S
N297 C298 1.316 . S
N297 C299 1.375 . S
C298 N297 1.316 . S
C298 N300 1.347 . S
C298 H309 0.931 . S
C299 N297 1.375 . S
C299 C301 1.350 . S
C299 H308 0.930 . S
N300 C298 1.347 . S
N300 C301 1.373 . S
C301 C299 1.350 . S
C301 N300 1.373 . S
C301 H315 0.931 . S
C302 O305 1.256 1_556 S
C302 O306 1.255 . S
O303 Co286 2.021 . S
O303 C296 1.259 . S
O304 Co288 2.117 . S
O304 C296 1.258 1_554 S
O305 Co288 2.020 1_565 S
O305 C302 1.256 1_554 S
O306 Co286 2.062 1_565 S
O306 C302 1.255 . S
O307 C287 1.259 . S
O307 Co288 2.021 1_565 S
H308 C299 0.930 . S
H309 C298 0.931 . S
O310 Co286 2.117 1_564 S
O310 C287 1.258 . S
O311 Co286 2.020 . S
O311 C313 1.256 1_556 S
O312 Co288 2.062 . S
O312 C313 1.255 . S
C313 O311 1.256 1_554 S
C313 O312 1.255 . S
H314 C293 0.931 . S
H315 C301 0.931 . S
Co316 N321 2.057 . S
Co316 O333 2.021 . S
Co316 O336 2.062 . S
Co316 O340 2.117 . S
Co316 O341 2.020 . S
C317 O337 1.259 . S
C317 O340 1.258 . S
Co318 N327 2.057 . S
Co318 O334 2.117 . S
Co318 O335 2.020 . S
Co318 O337 2.021 . S
Co318 O342 2.062 . S
C319 N321 1.316 . S
C319 N322 1.347 . S
C319 H324 0.931 . S
C320 N321 1.375 . S
C320 C323 1.350 . S
C320 H325 0.930 . S
N321 Co316 2.057 . S
N321 C319 1.316 . S
N321 C320 1.375 . S
N322 C319 1.347 . S
N322 C323 1.373 . S
C323 C320 1.350 . S
C323 N322 1.373 . S
C323 H344 0.931 . S
H324 C319 0.931 . S
H325 C320 0.930 . S
C326 O333 1.259 . S
C326 O334 1.258 . S
N327 Co318 2.057 . S
N327 C328 1.316 . S
N327 C329 1.375 . S
C328 N327 1.316 . S
C328 N330 1.347 . S
C328 H339 0.931 . S
C329 N327 1.375 . S
C329 C331 1.350 . S
C329 H338 0.930 . S
N330 C328 1.347 . S
N330 C331 1.373 . S
C331 C329 1.350 . S
C331 N330 1.373 . S
C331 H345 0.931 . S
C332 O335 1.256 . S
C332 O336 1.255 . S
O333 Co316 2.021 . S
O333 C326 1.259 . S
O334 Co318 2.117 . S
O334 C326 1.258 . S
O335 Co318 2.020 . S
O335 C332 1.256 . S
O336 Co316 2.062 . S
O336 C332 1.255 . S
O337 C317 1.259 . S
O337 Co318 2.021 . S
H338 C329 0.930 . S
H339 C328 0.931 . S
O340 Co316 2.117 . S
O340 C317 1.258 . S
O341 Co316 2.020 . S
O341 C343 1.256 . S
O342 Co318 2.062 . S
O342 C343 1.255 . S
C343 O341 1.256 . S
C343 O342 1.255 . S
H344 C323 0.931 . S
H345 C331 0.931 . S
Co346 N351 2.057 . S
Co346 O363 2.021 . S
Co346 O366 2.062 . S
Co346 O370 2.117 1_455 S
Co346 O371 2.015 1_455 S
C347 O367 1.259 1_556 S
C347 O370 1.258 . S
Co348 N357 2.057 . S
Co348 O364 2.117 1_655 S
Co348 O365 2.020 1_655 S
Co348 O367 2.021 . S
Co348 O372 2.062 . S
C349 N351 1.316 . S
C349 N352 1.347 . S
C349 H354 0.931 . S
C350 N351 1.375 1_655 S
C350 C353 1.350 1_655 S
C350 H355 0.930 . S
N351 Co346 2.057 . S
N351 C349 1.316 . S
N351 C350 1.375 1_455 S
N352 C349 1.347 . S
N352 C353 1.373 . S
C353 C350 1.350 1_455 S
C353 N352 1.373 . S
C353 H374 0.931 1_455 S
H354 C349 0.931 . S
H355 C350 0.930 . S
C356 O363 1.259 1_554 S
C356 O364 1.258 . S
N357 Co348 2.057 . S
N357 C358 1.316 . S
N357 C359 1.375 1_655 S
C358 N357 1.316 . S
C358 N360 1.347 . S
C358 H369 0.931 . S
C359 N357 1.375 1_455 S
C359 C361 1.350 1_455 S
C359 H368 0.930 . S
N360 C358 1.347 . S
N360 C361 1.373 . S
C361 C359 1.350 1_655 S
C361 N360 1.373 . S
C361 H375 0.931 1_655 S
C362 O365 1.256 . S
C362 O366 1.255 1_554 S
O363 Co346 2.021 . S
O363 C356 1.259 1_556 S
O364 Co348 2.117 1_455 S
O364 C356 1.258 . S
O365 Co348 2.020 1_455 S
O365 C362 1.256 . S
O366 Co346 2.062 . S
O366 C362 1.255 1_556 S
O367 C347 1.259 1_554 S
O367 Co348 2.021 . S
H368 C359 0.930 . S
H369 C358 0.931 . S
O370 Co346 2.117 1_655 S
O370 C347 1.258 . S
O371 Co346 2.015 1_655 S
O371 C373 1.262 . S
O372 Co348 2.062 . S
O372 C373 1.255 1_554 S
C373 O371 1.262 . S
C373 O372 1.255 1_556 S
H374 C353 0.931 1_655 S
H375 C361 0.931 1_455 S
C376 C377 1.369 . S
C376 C378 1.419 . S
C376 H380 0.947 . S
C377 C376 1.369 . S
C377 C386 1.429 . S
C378 C376 1.419 . S
C378 C379 1.363 . S
C378 H381 0.929 1_545 S
C379 C378 1.363 . S
C379 C385 1.428 . S
H380 C376 0.947 . S
H381 C378 0.929 1_565 S
S382 N383 1.613 . S
S382 N384 1.610 . S
N383 S382 1.613 . S
N383 C386 1.350 . S
N384 S382 1.610 . S
N384 C385 1.351 . S
C385 C379 1.428 . S
C385 N384 1.351 . S
C385 C386 1.434 . S
C386 C377 1.429 . S
C386 N383 1.350 . S
C386 C385 1.434 . S
C387 C388 1.369 . S
C387 C389 1.419 . S
C387 H391 0.930 . S
C388 C387 1.369 . S
C388 C397 1.429 . S
C389 C387 1.419 . S
C389 C390 1.363 . S
C389 H392 0.929 . S
C390 C389 1.363 . S
C390 C396 1.428 . S
H391 C387 0.930 . S
H392 C389 0.929 . S
S393 N394 1.613 1_545 S
S393 N395 1.610 . S
N394 S393 1.613 1_565 S
N394 C397 1.350 . S
N395 S393 1.610 . S
N395 C396 1.351 1_545 S
C396 C390 1.428 . S
C396 N395 1.351 1_565 S
C396 C397 1.434 . S
C397 C388 1.429 . S
C397 N394 1.350 . S
C397 C396 1.434 . S
C398 C399 1.369 . S
C398 C400 1.419 . S
C398 H402 0.930 . S
C399 C398 1.369 . S
C399 C408 1.429 . S
C400 C398 1.419 . S
C400 C401 1.363 . S
C400 H403 0.929 . S
C401 C400 1.363 . S
C401 C407 1.428 . S
H402 C398 0.930 . S
H403 C400 0.929 . S
S404 N405 1.613 . S
S404 N406 1.610 . S
N405 S404 1.613 . S
N405 C408 1.350 . S
N406 S404 1.610 . S
N406 C407 1.351 . S
C407 C401 1.428 . S
C407 N406 1.351 . S
C407 C408 1.434 . S
C408 C399 1.429 . S
C408 N405 1.350 . S
C408 C407 1.434 . S
C409 C410 1.369 . S
C409 C411 1.419 . S
C409 H413 0.930 . S
C410 C409 1.369 . S
C410 C419 1.429 . S
C411 C409 1.419 . S
C411 C412 1.363 . S
C411 H414 0.929 . S
C412 C411 1.363 . S
C412 C418 1.428 . S
H413 C409 0.930 . S
H414 C411 0.929 . S
S415 N416 1.613 . S
S415 N417 1.610 . S
N416 S415 1.613 . S
N416 C419 1.350 1_455 S
N417 S415 1.610 . S
N417 C418 1.351 1_455 S
C418 C412 1.428 . S
C418 N417 1.351 1_655 S
C418 C419 1.434 . S
C419 C410 1.429 . S
C419 N416 1.350 1_655 S
C419 C418 1.434 . S
C420 C421 1.369 . S
C420 C422 1.419 . S
C420 H424 0.930 . S
C421 C420 1.369 . S
C421 C430 1.429 . S
C422 C420 1.419 . S
C422 C423 1.363 . S
C422 H425 0.929 . S
C423 C422 1.363 . S
C423 C429 1.428 . S
H424 C420 0.930 . S
H425 C422 0.929 . S
S426 N427 1.620 . S
S426 N428 1.610 . S
N427 S426 1.620 . S
N427 C430 1.344 1_556 S
N428 S426 1.610 . S
N428 C429 1.351 1_556 S
C429 C423 1.428 . S
C429 N428 1.351 1_554 S
C429 C430 1.434 . S
C430 C421 1.429 . S
C430 N427 1.344 1_554 S
C430 C429 1.434 . S
C431 C432 1.369 . S
C431 C433 1.419 . S
C431 H435 0.930 . S
C432 C431 1.369 . S
C432 C441 1.429 . S
C433 C431 1.419 . S
C433 C434 1.363 . S
C433 H436 0.929 . S
C434 C433 1.363 . S
C434 C440 1.428 . S
H435 C431 0.930 . S
H436 C433 0.929 . S
S437 N438 1.617 . S
S437 N439 1.610 . S
N438 S437 1.617 . S
N438 C441 1.345 1_545 S
N439 S437 1.610 . S
N439 C440 1.351 1_545 S
C440 C434 1.428 . S
C440 N439 1.351 1_565 S
C440 C441 1.434 . S
C441 C432 1.429 . S
C441 N438 1.345 1_565 S
C441 C440 1.434 . S
C442 C443 1.369 . S
C442 C444 1.419 . S
C442 H446 0.930 . S
C443 C442 1.369 . S
C443 C452 1.429 . S
C444 C442 1.419 . S
C444 C445 1.363 . S
C444 H447 0.929 . S
C445 C444 1.363 . S
C445 C451 1.428 1_556 S
H446 C442 0.930 . S
H447 C444 0.929 . S
S448 N449 1.613 . S
S448 N450 1.610 . S
N449 S448 1.613 . S
N449 C452 1.350 1_554 S
N450 S448 1.610 . S
N450 C451 1.351 . S
C451 C445 1.428 1_554 S
C451 N450 1.351 . S
C451 C452 1.434 1_554 S
C452 C443 1.429 . S
C452 N449 1.350 1_556 S
C452 C451 1.434 1_556 S
C453 C454 1.369 . S
C453 C455 1.419 . S
C453 H457 0.930 . S
C454 C453 1.369 . S
C454 C463 1.429 . S
C455 C453 1.419 . S
C455 C456 1.363 . S
C455 H458 0.929 . S
C456 C455 1.363 . S
C456 C462 1.428 . S
H457 C453 0.930 . S
H458 C455 0.929 . S
S459 N460 1.613 . S
S459 N461 1.610 . S
N460 S459 1.613 . S
N460 C463 1.350 . S
N461 S459 1.610 . S
N461 C462 1.351 . S
C462 C456 1.428 . S
C462 N461 1.351 . S
C462 C463 1.434 . S
C463 C454 1.429 . S
C463 N460 1.350 . S
C463 C462 1.434 . S
C464 C465 1.369 . S
C464 C466 1.419 . S
C464 H468 0.930 . S
C465 C464 1.369 . S
C465 C474 1.429 . S
C466 C464 1.419 . S
C466 C467 1.363 . S
C466 H469 0.929 1_455 S
C467 C466 1.363 . S
C467 C473 1.428 . S
H468 C464 0.930 . S
H469 C466 0.929 1_655 S
S470 N471 1.613 . S
S470 N472 1.610 . S
N471 S470 1.613 . S
N471 C474 1.350 . S
N472 S470 1.610 . S
N472 C473 1.351 . S
C473 C467 1.428 . S
C473 N472 1.351 . S
C473 C474 1.434 . S
C474 C465 1.429 . S
C474 N471 1.350 . S
C474 C473 1.434 . S
C475 C476 1.369 . S
C475 C477 1.419 . S
C475 H479 0.930 . S
C476 C475 1.369 . S
C476 C485 1.429 . S
C477 C475 1.419 . S
C477 C478 1.363 . S
C477 H480 0.929 . S
C478 C477 1.363 . S
C478 C484 1.428 . S
H479 C475 0.930 . S
H480 C477 0.929 . S
S481 N482 1.613 . S
S481 N483 1.610 . S
N482 S481 1.613 . S
N482 C485 1.350 1_554 S
N483 S481 1.610 . S
N483 C484 1.351 1_554 S
C484 C478 1.428 . S
C484 N483 1.351 1_556 S
C484 C485 1.434 . S
C485 C476 1.429 . S
C485 N482 1.350 1_556 S
C485 C484 1.434 . S
C486 C487 1.369 . S
C486 C488 1.419 . S
C486 H490 0.930 . S
C487 C486 1.369 . S
C487 C496 1.429 1_655 S
C488 C486 1.419 . S
C488 C489 1.363 . S
C488 H491 0.929 . S
C489 C488 1.363 . S
C489 C495 1.428 1_655 S
H490 C486 0.930 . S
H491 C488 0.929 . S
S492 N493 1.613 . S
S492 N494 1.610 . S
N493 S492 1.613 . S
N493 C496 1.350 . S
N494 S492 1.610 . S
N494 C495 1.351 . S
C495 C489 1.428 1_455 S
C495 N494 1.351 . S
C495 C496 1.434 . S
C496 C487 1.429 1_455 S
C496 N493 1.350 . S
C496 C495 1.434 . S
C497 C498 1.369 . S
C497 C499 1.419 . S
C497 H501 0.930 . S
C498 C497 1.369 . S
C498 C507 1.429 . S
C499 C497 1.419 . S
C499 C500 1.363 . S
C499 H502 0.929 . S
C500 C499 1.363 . S
C500 C506 1.428 . S
H501 C497 0.930 . S
H502 C499 0.929 . S
S503 N504 1.613 . S
S503 N505 1.610 . S
N504 S503 1.613 . S
N504 C507 1.350 . S
N505 S503 1.610 . S
N505 C506 1.351 . S
C506 C500 1.428 . S
C506 N505 1.351 . S
C506 C507 1.434 . S
C507 C498 1.429 . S
C507 N504 1.350 . S
C507 C506 1.434 . S
C508 C509 1.369 . S
C508 C510 1.419 . S
C508 H512 0.930 . S
C509 C508 1.369 . S
C509 C518 1.429 . S
C510 C508 1.419 . S
C510 C511 1.363 . S
C510 H513 0.929 . S
C511 C510 1.363 . S
C511 C517 1.428 . S
H512 C508 0.930 . S
H513 C510 0.929 . S
S514 N515 1.613 . S
S514 N516 1.610 . S
N515 S514 1.613 . S
N515 C518 1.350 1_455 S
N516 S514 1.610 . S
N516 C517 1.351 1_455 S
C517 C511 1.428 . S
C517 N516 1.351 1_655 S
C517 C518 1.434 . S
C518 C509 1.429 . S
C518 N515 1.350 1_655 S
C518 C517 1.434 . S
C519 C520 1.369 . S
C519 C521 1.419 . S
C519 H523 0.930 . S
C520 C519 1.369 . S
C520 C529 1.429 . S
C521 C519 1.419 . S
C521 C522 1.363 . S
C521 H524 0.929 . S
C522 C521 1.363 . S
C522 C528 1.428 . S
H523 C519 0.930 . S
H524 C521 0.929 . S
S525 N526 1.613 . S
S525 N527 1.610 . S
N526 S525 1.613 . S
N526 C529 1.350 . S
N527 S525 1.610 . S
N527 C528 1.351 . S
C528 C522 1.428 . S
C528 N527 1.351 . S
C528 C529 1.434 . S
C529 C520 1.429 . S
C529 N526 1.350 . S
C529 C528 1.434 . S
C530 C531 1.369 . S
C530 C532 1.419 . S
C530 H534 0.930 . S
C531 C530 1.369 . S
C531 C540 1.429 . S
C532 C530 1.419 . S
C532 C533 1.363 . S
C532 H535 0.929 . S
C533 C532 1.363 . S
C533 C539 1.428 . S
H534 C530 0.930 . S
H535 C532 0.929 . S
S536 N537 1.613 . S
S536 N538 1.610 . S
N537 S536 1.613 . S
N537 C540 1.350 . S
N538 S536 1.610 . S
N538 C539 1.351 . S
C539 C533 1.428 . S
C539 N538 1.351 . S
C539 C540 1.434 . S
C540 C531 1.429 . S
C540 N537 1.350 . S
C540 C539 1.434 . S
C541 C542 1.369 . S
C541 C543 1.419 . S
C541 H545 0.930 . S
C542 C541 1.369 . S
C542 C551 1.429 . S
C543 C541 1.419 . S
C543 C544 1.363 . S
C543 H546 0.929 . S
C544 C543 1.363 . S
C544 C550 1.428 . S
H545 C541 0.930 . S
H546 C543 0.929 . S
S547 N548 1.613 . S
S547 N549 1.610 1_655 S
N548 S547 1.613 . S
N548 C551 1.350 1_655 S
N549 S547 1.610 1_455 S
N549 C550 1.351 . S
C550 C544 1.428 . S
C550 N549 1.351 . S
C550 C551 1.434 . S
C551 C542 1.429 . S
C551 N548 1.350 1_455 S
C551 C550 1.434 . S
C552 C553 1.369 . S
C552 C554 1.419 1_556 S
C552 H556 0.930 1_556 S
C553 C552 1.369 . S
C553 C562 1.429 . S
C554 C552 1.419 1_554 S
C554 C555 1.363 1_554 S
C554 H557 0.929 . S
C555 C554 1.363 1_556 S
C555 C561 1.428 . S
H556 C552 0.930 1_554 S
H557 C554 0.929 . S
S558 N559 1.613 . S
S558 N560 1.610 . S
N559 S558 1.613 . S
N559 C562 1.350 . S
N560 S558 1.610 . S
N560 C561 1.351 . S
C561 C555 1.428 . S
C561 N560 1.351 . S
C561 C562 1.434 . S
C562 C553 1.429 . S
C562 N559 1.350 . S
C562 C561 1.434 . S
C563 C564 1.369 . S
C563 C565 1.419 . S
C563 H567 0.930 . S
C564 C563 1.369 . S
C564 C573 1.429 . S
C565 C563 1.419 . S
C565 C566 1.363 . S
C565 H568 0.929 . S
C566 C565 1.363 . S
C566 C572 1.428 . S
H567 C563 0.930 . S
H568 C565 0.929 . S
S569 N570 1.613 . S
S569 N571 1.610 . S
N570 S569 1.613 . S
N570 C573 1.350 . S
N571 S569 1.610 . S
N571 C572 1.351 . S
C572 C566 1.428 . S
C572 N571 1.351 . S
C572 C573 1.434 . S
C573 C564 1.429 . S
C573 N570 1.350 . S
C573 C572 1.434 . S
C574 C575 1.369 . S
C574 C576 1.419 . S
C574 H578 0.930 . S
C575 C574 1.369 . S
C575 C584 1.429 . S
C576 C574 1.419 . S
C576 C577 1.363 . S
C576 H579 0.947 . S
C577 C576 1.363 . S
C577 C583 1.428 . S
H578 C574 0.930 . S
H579 C576 0.947 . S
S580 N581 1.613 . S
S580 N582 1.610 . S
N581 S580 1.613 . S
N581 C584 1.350 . S
N582 S580 1.610 . S
N582 C583 1.351 . S
C583 C577 1.428 . S
C583 N582 1.351 . S
C583 C584 1.434 . S
C584 C575 1.429 . S
C584 N581 1.350 . S
C584 C583 1.434 . S
C585 C586 1.369 . S
C585 C587 1.419 . S
C585 H589 0.930 . S
C586 C585 1.369 . S
C586 C595 1.429 . S
C587 C585 1.419 . S
C587 C588 1.363 . S
C587 H590 0.929 . S
C588 C587 1.363 . S
C588 C594 1.428 . S
H589 C585 0.930 . S
H590 C587 0.929 . S
S591 N592 1.613 . S
S591 N593 1.610 . S
N592 S591 1.613 . S
N592 C595 1.350 . S
N593 S591 1.610 . S
N593 C594 1.351 . S
C594 C588 1.428 . S
C594 N593 1.351 . S
C594 C595 1.434 . S
C595 C586 1.429 . S
C595 N592 1.350 . S
C595 C594 1.434 . S
C596 C597 1.369 . S
C596 C598 1.419 . S
C596 H600 0.930 . S
C597 C596 1.369 . S
C597 C606 1.429 1_556 S
C598 C596 1.419 . S
C598 C599 1.363 . S
C598 H601 0.929 . S
C599 C598 1.363 . S
C599 C605 1.428 1_556 S
H600 C596 0.930 . S
H601 C598 0.929 . S
S602 N603 1.613 . S
S602 N604 1.610 . S
N603 S602 1.613 . S
N603 C606 1.350 . S
N604 S602 1.610 . S
N604 C605 1.351 . S
C605 C599 1.428 1_554 S
C605 N604 1.351 . S
C605 C606 1.434 . S
C606 C597 1.429 1_554 S
C606 N603 1.350 . S
C606 C605 1.434 . S
C607 C608 1.369 . S
C607 C609 1.419 . S
C607 H611 0.930 . S
C608 C607 1.369 . S
C608 C617 1.429 . S
C609 C607 1.419 . S
C609 C610 1.363 . S
C609 H612 0.929 . S
C610 C609 1.363 . S
C610 C616 1.428 . S
H611 C607 0.930 . S
H612 C609 0.929 . S
S613 N614 1.613 . S
S613 N615 1.610 . S
N614 S613 1.613 . S
N614 C617 1.350 . S
N615 S613 1.610 . S
N615 C616 1.351 . S
C616 C610 1.428 . S
C616 N615 1.351 . S
C616 C617 1.434 . S
C617 C608 1.429 . S
C617 N614 1.350 . S
C617 C616 1.434 . S
C618 C619 1.369 . S
C618 C620 1.419 . S
C618 H622 0.930 . S
C619 C618 1.369 . S
C619 C628 1.429 . S
C620 C618 1.419 . S
C620 C621 1.363 . S
C620 H623 0.929 . S
C621 C620 1.363 . S
C621 C627 1.428 . S
H622 C618 0.930 . S
H623 C620 0.929 . S
S624 N625 1.613 . S
S624 N626 1.610 . S
N625 S624 1.613 . S
N625 C628 1.350 1_655 S
N626 S624 1.610 . S
N626 C627 1.351 1_655 S
C627 C621 1.428 . S
C627 N626 1.351 1_455 S
C627 C628 1.434 . S
C628 C619 1.429 . S
C628 N625 1.350 1_455 S
C628 C627 1.434 . S
C629 C630 1.369 . S
C629 C631 1.419 . S
C629 H633 0.930 . S
C630 C629 1.369 . S
C630 C639 1.429 . S
C631 C629 1.419 . S
C631 C632 1.363 . S
C631 H634 0.929 . S
C632 C631 1.363 . S
C632 C638 1.428 . S
H633 C629 0.930 . S
H634 C631 0.929 . S
S635 N636 1.613 . S
S635 N637 1.610 . S
N636 S635 1.613 . S
N636 C639 1.350 . S
N637 S635 1.610 . S
N637 C638 1.351 . S
C638 C632 1.428 . S
C638 N637 1.351 . S
C638 C639 1.434 . S
C639 C630 1.429 . S
C639 N636 1.350 . S
C639 C638 1.434 . S
C377 C29 2.058 . S
C379 C272 2.195 . S
C388 C49 1.143 . S
C390 N292 1.129 . S
C401 C326 2.039 . S
C399 C93 1.915 . S
C410 C119 1.236 . S
C412 N360 1.236 . S
C423 C313 2.284 . S
C421 C17 2.177 . S
C434 N270 1.205 . S
C432 C61 1.307 . S
C445 C347 2.033 . S
C443 C81 1.933 . S
C456 N322 1.134 . S
C454 C125 1.037 . S
C465 C23 1.687 . S
C467 C362 1.799 . S
C478 C296 1.713 . S
C476 C87 1.611 . S
C487 C113 1.384 . S
C489 C257 1.495 . S
C498 C55 1.457 . S
C500 C343 1.441 . S
C511 C283 2.139 . S
C509 C157 2.129 . S
C520 C189 1.119 . S
C522 N300 1.178 . S
C531 C221 2.013 . S
C533 C317 2.011 . S
C542 C253 1.264 . S
C544 N352 1.283 . S
C553 C145 2.325 . S
C555 C302 2.321 . S
C566 N262 1.149 . S
C564 C183 1.124 . S
C577 C356 2.057 . S
C575 C209 2.046 . S
C588 N330 1.083 . S
C586 C247 1.000 . S
C597 C151 1.817 . S
C599 C373 1.814 . S
C610 C287 1.723 . S
C608 C215 1.730 . S
C621 C266 1.497 . S
C619 C241 1.368 . S
C630 C177 1.368 . S
C632 C332 1.478 . S
