# Generated by pormake.
# Topology ctn, (3,4)-cn, num edge types: 1
# Building blocks:
#     Node 0, Type 0, BuildingBlock: BELTOD_clean_linker_0, # of connection points: 3
#     Node 1, Type 0, BuildingBlock: BELTOD_clean_linker_0, # of connection points: 3
#     Node 2, Type 0, BuildingBlock: BELTOD_clean_linker_0, # of connection points: 3
#     Node 3, Type 0, BuildingBlock: BELTOD_clean_linker_0, # of connection points: 3
#     Node 4, Type 0, BuildingBlock: BELTOD_clean_linker_0, # of connection points: 3
#     Node 5, Type 0, BuildingBlock: BELTOD_clean_linker_0, # of connection points: 3
#     Node 6, Type 0, BuildingBlock: BELTOD_clean_linker_0, # of connection points: 3
#     Node 7, Type 0, BuildingBlock: BELTOD_clean_linker_0, # of connection points: 3
#     Node 8, Type 0, BuildingBlock: BELTOD_clean_linker_0, # of connection points: 3
#     Node 9, Type 0, BuildingBlock: BELTOD_clean_linker_0, # of connection points: 3
#     Node 10, Type 0, BuildingBlock: BELTOD_clean_linker_0, # of connection points: 3
#     Node 11, Type 0, BuildingBlock: BELTOD_clean_linker_0, # of connection points: 3
#     Node 12, Type 0, BuildingBlock: BELTOD_clean_linker_0, # of connection points: 3
#     Node 13, Type 0, BuildingBlock: BELTOD_clean_linker_0, # of connection points: 3
#     Node 14, Type 0, BuildingBlock: BELTOD_clean_linker_0, # of connection points: 3
#     Node 15, Type 0, BuildingBlock: BELTOD_clean_linker_0, # of connection points: 3
#     Node 16, Type 1, BuildingBlock: KUFVIS_clean_sbu_0, # of connection points: 4
#     Node 17, Type 1, BuildingBlock: KUFVIS_clean_sbu_0, # of connection points: 4
#     Node 18, Type 1, BuildingBlock: KUFVIS_clean_sbu_0, # of connection points: 4
#     Node 19, Type 1, BuildingBlock: KUFVIS_clean_sbu_0, # of connection points: 4
#     Node 20, Type 1, BuildingBlock: KUFVIS_clean_sbu_0, # of connection points: 4
#     Node 21, Type 1, BuildingBlock: KUFVIS_clean_sbu_0, # of connection points: 4
#     Node 22, Type 1, BuildingBlock: KUFVIS_clean_sbu_0, # of connection points: 4
#     Node 23, Type 1, BuildingBlock: KUFVIS_clean_sbu_0, # of connection points: 4
#     Node 24, Type 1, BuildingBlock: KUFVIS_clean_sbu_0, # of connection points: 4
#     Node 25, Type 1, BuildingBlock: KUFVIS_clean_sbu_0, # of connection points: 4
#     Node 26, Type 1, BuildingBlock: KUFVIS_clean_sbu_0, # of connection points: 4
#     Node 27, Type 1, BuildingBlock: KUFVIS_clean_sbu_0, # of connection points: 4
#     Edge 28, Type (0, 1), BuildingBlock: MIFKUJ_clean_linker_0, # of connection points: 2
#     Edge 29, Type (0, 1), BuildingBlock: MIFKUJ_clean_linker_0, # of connection points: 2
#     Edge 30, Type (0, 1), BuildingBlock: MIFKUJ_clean_linker_0, # of connection points: 2
#     Edge 31, Type (0, 1), BuildingBlock: MIFKUJ_clean_linker_0, # of connection points: 2
#     Edge 32, Type (0, 1), BuildingBlock: MIFKUJ_clean_linker_0, # of connection points: 2
#     Edge 33, Type (0, 1), BuildingBlock: MIFKUJ_clean_linker_0, # of connection points: 2
#     Edge 34, Type (0, 1), BuildingBlock: MIFKUJ_clean_linker_0, # of connection points: 2
#     Edge 35, Type (0, 1), BuildingBlock: MIFKUJ_clean_linker_0, # of connection points: 2
#     Edge 36, Type (0, 1), BuildingBlock: MIFKUJ_clean_linker_0, # of connection points: 2
#     Edge 37, Type (0, 1), BuildingBlock: MIFKUJ_clean_linker_0, # of connection points: 2
#     Edge 38, Type (0, 1), BuildingBlock: MIFKUJ_clean_linker_0, # of connection points: 2
#     Edge 39, Type (0, 1), BuildingBlock: MIFKUJ_clean_linker_0, # of connection points: 2
#     Edge 40, Type (0, 1), BuildingBlock: MIFKUJ_clean_linker_0, # of connection points: 2
#     Edge 41, Type (0, 1), BuildingBlock: MIFKUJ_clean_linker_0, # of connection points: 2
#     Edge 42, Type (0, 1), BuildingBlock: MIFKUJ_clean_linker_0, # of connection points: 2
#     Edge 43, Type (0, 1), BuildingBlock: MIFKUJ_clean_linker_0, # of connection points: 2
#     Edge 44, Type (0, 1), BuildingBlock: MIFKUJ_clean_linker_0, # of connection points: 2
#     Edge 45, Type (0, 1), BuildingBlock: MIFKUJ_clean_linker_0, # of connection points: 2
#     Edge 46, Type (0, 1), BuildingBlock: MIFKUJ_clean_linker_0, # of connection points: 2
#     Edge 47, Type (0, 1), BuildingBlock: MIFKUJ_clean_linker_0, # of connection points: 2
#     Edge 48, Type (0, 1), BuildingBlock: MIFKUJ_clean_linker_0, # of connection points: 2
#     Edge 49, Type (0, 1), BuildingBlock: MIFKUJ_clean_linker_0, # of connection points: 2
#     Edge 50, Type (0, 1), BuildingBlock: MIFKUJ_clean_linker_0, # of connection points: 2
#     Edge 51, Type (0, 1), BuildingBlock: MIFKUJ_clean_linker_0, # of connection points: 2
#     Edge 52, Type (0, 1), BuildingBlock: MIFKUJ_clean_linker_0, # of connection points: 2
#     Edge 53, Type (0, 1), BuildingBlock: MIFKUJ_clean_linker_0, # of connection points: 2
#     Edge 54, Type (0, 1), BuildingBlock: MIFKUJ_clean_linker_0, # of connection points: 2
#     Edge 55, Type (0, 1), BuildingBlock: MIFKUJ_clean_linker_0, # of connection points: 2
#     Edge 56, Type (0, 1), BuildingBlock: MIFKUJ_clean_linker_0, # of connection points: 2
#     Edge 57, Type (0, 1), BuildingBlock: MIFKUJ_clean_linker_0, # of connection points: 2
#     Edge 58, Type (0, 1), BuildingBlock: MIFKUJ_clean_linker_0, # of connection points: 2
#     Edge 59, Type (0, 1), BuildingBlock: MIFKUJ_clean_linker_0, # of connection points: 2
#     Edge 60, Type (0, 1), BuildingBlock: MIFKUJ_clean_linker_0, # of connection points: 2
#     Edge 61, Type (0, 1), BuildingBlock: MIFKUJ_clean_linker_0, # of connection points: 2
#     Edge 62, Type (0, 1), BuildingBlock: MIFKUJ_clean_linker_0, # of connection points: 2
#     Edge 63, Type (0, 1), BuildingBlock: MIFKUJ_clean_linker_0, # of connection points: 2
#     Edge 64, Type (0, 1), BuildingBlock: MIFKUJ_clean_linker_0, # of connection points: 2
#     Edge 65, Type (0, 1), BuildingBlock: MIFKUJ_clean_linker_0, # of connection points: 2
#     Edge 66, Type (0, 1), BuildingBlock: MIFKUJ_clean_linker_0, # of connection points: 2
#     Edge 67, Type (0, 1), BuildingBlock: MIFKUJ_clean_linker_0, # of connection points: 2
#     Edge 68, Type (0, 1), BuildingBlock: MIFKUJ_clean_linker_0, # of connection points: 2
#     Edge 69, Type (0, 1), BuildingBlock: MIFKUJ_clean_linker_0, # of connection points: 2
#     Edge 70, Type (0, 1), BuildingBlock: MIFKUJ_clean_linker_0, # of connection points: 2
#     Edge 71, Type (0, 1), BuildingBlock: MIFKUJ_clean_linker_0, # of connection points: 2
#     Edge 72, Type (0, 1), BuildingBlock: MIFKUJ_clean_linker_0, # of connection points: 2
#     Edge 73, Type (0, 1), BuildingBlock: MIFKUJ_clean_linker_0, # of connection points: 2
#     Edge 74, Type (0, 1), BuildingBlock: MIFKUJ_clean_linker_0, # of connection points: 2
#     Edge 75, Type (0, 1), BuildingBlock: MIFKUJ_clean_linker_0, # of connection points: 2
# Relax obj value: 0.013
# Max RMSD: 0.066
# Mean RMSD: 0.034
data_MOF--net-ctn--node1-KUFVIS_clean_sbu_0--node2-BELTOD_clean_linker_0--edge1-MIFKUJ_clean_linker_0
_symmetry_space_group_name_H-M    P1
_symmetry_Int_Tables_number       1
_symmetry_cell_setting            triclinic
loop_
_symmetry_equiv_pos_as_xyz
'x, y, z'
_cell_length_a     78.200453
_cell_length_b     78.492719
_cell_length_c     78.264933
_cell_angle_alpha  90.289979
_cell_angle_beta   90.36839
_cell_angle_gamma 92.209031
loop_
_atom_site_label
_atom_site_type_symbol
_atom_site_fract_x
_atom_site_fract_y
_atom_site_fract_z
_atom_type_partial_charge
P0 P 0.06725 0.06195 0.06081 0.0
H1 H 0.05621 0.07544 0.09351 0.0
H2 H 0.03338 0.06699 0.11312 0.0
H3 H 0.01679 0.02659 0.07837 0.0
H4 H 0.04005 0.03503 0.05886 0.0
H5 H 0.08411 0.05605 0.02787 0.0
H6 H 0.10139 0.03307 0.01746 0.0
H7 H 0.09313 0.00618 0.06498 0.0
H8 H 0.07503 0.02876 0.07479 0.0
H9 H 0.06524 0.09882 0.06064 0.0
H10 H 0.0505 0.05702 0.0271 0.0
O11 O 0.08223 0.07254 0.07237 0.0
H12 H 0.05475 0.11899 0.03993 0.0
H13 H 0.04066 0.07724 0.00575 0.0
C14 C 0.05004 0.05562 0.07492 0.0
C15 C 0.04773 0.06472 0.09012 0.0
C16 C 0.03453 0.05996 0.10127 0.0
C17 C 0.02324 0.04608 0.09736 0.0
C18 C 0.02541 0.03718 0.08189 0.0
C19 C 0.03864 0.042 0.07071 0.0
C20 C 0.07768 0.04386 0.05185 0.0
C21 C 0.08548 0.04493 0.0358 0.0
C22 C 0.09569 0.03186 0.02998 0.0
C23 C 0.09878 0.01766 0.04035 0.0
C24 C 0.09081 0.01664 0.05642 0.0
C25 C 0.08041 0.0296 0.06209 0.0
C26 C 0.0592 0.07646 0.04516 0.0
C27 C 0.05998 0.09399 0.04865 0.0
C28 C 0.05404 0.10555 0.0367 0.0
C29 C 0.04718 0.09985 0.02092 0.0
C30 C 0.04587 0.08215 0.01772 0.0
C31 C 0.05165 0.07055 0.02984 0.0
P32 P 0.33301 0.68074 0.1769 0.0
H33 H 0.35227 0.70257 0.15348 0.0
H34 H 0.34515 0.72783 0.1372 0.0
H35 H 0.29498 0.72671 0.16011 0.0
H36 H 0.3024 0.70162 0.17667 0.0
H37 H 0.36504 0.66695 0.18905 0.0
H38 H 0.38332 0.67336 0.21373 0.0
H39 H 0.34839 0.7114 0.23034 0.0
H40 H 0.3304 0.70523 0.20512 0.0
H41 H 0.30484 0.66631 0.15648 0.0
H42 H 0.31988 0.66694 0.2096 0.0
O43 O 0.344 0.66904 0.16326 0.0
H44 H 0.28026 0.64732 0.16316 0.0
H45 H 0.29549 0.64786 0.21633 0.0
C46 C 0.32774 0.70001 0.16597 0.0
C47 C 0.33975 0.70779 0.15502 0.0
C48 C 0.33562 0.72219 0.14566 0.0
C49 C 0.31939 0.72917 0.14714 0.0
C50 C 0.3076 0.7217 0.15868 0.0
C51 C 0.31177 0.70727 0.16807 0.0
C52 C 0.34647 0.68577 0.19515 0.0
C53 C 0.36135 0.67676 0.19792 0.0
C54 C 0.37174 0.68034 0.21217 0.0
C55 C 0.36735 0.69288 0.22411 0.0
C56 C 0.35232 0.70184 0.2213 0.0
C57 C 0.34197 0.6983 0.20694 0.0
C58 C 0.31414 0.66813 0.18252 0.0
C59 C 0.30277 0.66246 0.1696 0.0
C60 C 0.2888 0.65151 0.17342 0.0
C61 C 0.28594 0.64601 0.19027 0.0
C62 C 0.29721 0.652 0.20326 0.0
C63 C 0.31122 0.66291 0.1994 0.0
P64 P 0.97998 0.49225 0.01966 0.0
H65 H 0.98436 0.48257 0.98405 0.0
H66 H 0.98664 0.45514 0.9696 0.0
H67 H 0.9782 0.42932 0.01767 0.0
H68 H 0.97521 0.45688 0.03184 0.0
H69 H 0.96584 0.51526 0.99468 0.0
H70 H 0.93822 0.52837 0.99174 0.0
H71 H 0.92001 0.50142 0.03644 0.0
H72 H 0.94786 0.48813 0.03924 0.0
H73 H 0.00779 0.47385 0.03495 0.0
H74 H 0.971 0.50972 0.05177 0.0
O75 O 0.99394 0.50516 0.00949 0.0
H76 H 0.02131 0.47483 0.06306 0.0
H77 H 0.98396 0.51023 0.0802 0.0
C78 C 0.98008 0.47177 0.00909 0.0
C79 C 0.98292 0.47099 0.99145 0.0
C80 C 0.98435 0.45526 0.98323 0.0
C81 C 0.98295 0.43994 0.99248 0.0
C82 C 0.97933 0.4408 0.01008 0.0
C83 C 0.97775 0.45658 0.01826 0.0
C84 C 0.9591 0.50112 0.01749 0.0
C85 C 0.95595 0.51215 0.00389 0.0
C86 C 0.94007 0.51955 0.00213 0.0
C87 C 0.92694 0.51604 0.01393 0.0
C88 C 0.92995 0.50457 0.0273 0.0
C89 C 0.94584 0.49698 0.02891 0.0
C90 C 0.98792 0.49116 0.04137 0.0
C91 C 0.00224 0.48151 0.04487 0.0
C92 C 0.00999 0.48209 0.06102 0.0
C93 C 0.0037 0.49251 0.07406 0.0
C94 C 0.98926 0.50213 0.0705 0.0
C95 C 0.9816 0.50162 0.05427 0.0
P96 P 0.67614 0.82613 0.18416 0.0
H97 H 0.69534 0.85083 0.16375 0.0
H98 H 0.71985 0.87008 0.16972 0.0
H99 H 0.72241 0.85043 0.2212 0.0
H100 H 0.69863 0.83039 0.21461 0.0
H101 H 0.65865 0.80811 0.15606 0.0
H102 H 0.667 0.78541 0.13678 0.0
H103 H 0.71525 0.7826 0.16366 0.0
H104 H 0.70659 0.80519 0.18319 0.0
H105 H 0.66848 0.84309 0.21644 0.0
H106 H 0.65679 0.79441 0.19241 0.0
O107 O 0.66278 0.83785 0.17291 0.0
H108 H 0.65014 0.83498 0.24052 0.0
H109 H 0.63799 0.78651 0.21622 0.0
C110 C 0.69479 0.8396 0.18891 0.0
C111 C 0.70123 0.85066 0.17631 0.0
C112 C 0.7152 0.86179 0.17982 0.0
C113 C 0.72299 0.86219 0.1961 0.0
C114 C 0.71684 0.85055 0.20851 0.0
C115 C 0.70304 0.8392 0.20484 0.0
C116 C 0.68214 0.80857 0.17082 0.0
C117 C 0.67103 0.80261 0.15782 0.0
C118 C 0.67586 0.78967 0.14675 0.0
C119 C 0.69193 0.78236 0.14848 0.0
C120 C 0.70279 0.78793 0.16197 0.0
C121 C 0.6979 0.80091 0.17308 0.0
C122 C 0.66456 0.81913 0.20289 0.0
C123 C 0.66234 0.83049 0.21653 0.0
C124 C 0.65177 0.8259 0.23024 0.0
C125 C 0.64273 0.81009 0.23025 0.0
C126 C 0.64485 0.79876 0.21653 0.0
C127 C 0.6557 0.80324 0.20298 0.0
P128 P 0.05315 0.95019 0.45821 0.0
H129 H 0.07688 0.95184 0.48724 0.0
H130 H 0.09851 0.97331 0.49656 0.0
H131 H 0.08234 0.00687 0.45652 0.0
H132 H 0.06071 0.98543 0.44732 0.0
H133 H 0.04086 0.91484 0.45803 0.0
H134 H 0.02951 0.89588 0.48018 0.0
H135 H 0.03123 0.93785 0.51618 0.0
H136 H 0.04266 0.95681 0.49381 0.0
H137 H 0.0516 0.9522 0.42105 0.0
H138 H 0.02025 0.96631 0.46355 0.0
O139 O 0.06585 0.93766 0.44711 0.0
H140 H 0.03056 0.96288 0.40116 0.0
H141 H 0.99912 0.97752 0.44362 0.0
C142 C 0.06684 0.96717 0.46687 0.0
C143 C 0.07765 0.96401 0.48077 0.0
C144 C 0.09005 0.97627 0.48607 0.0
C145 C 0.09213 0.99179 0.47728 0.0
C146 C 0.08111 0.99501 0.4635 0.0
C147 C 0.06861 0.98279 0.45832 0.0
C148 C 0.04304 0.93709 0.4744 0.0
C149 C 0.03869 0.92 0.47066 0.0
C150 C 0.03208 0.90919 0.48332 0.0
C151 C 0.02959 0.91531 0.50001 0.0
C152 C 0.03327 0.93268 0.50352 0.0
C153 C 0.03979 0.94353 0.49076 0.0
C154 C 0.03734 0.95819 0.44376 0.0
C155 C 0.04015 0.95761 0.42611 0.0
C156 C 0.02815 0.96392 0.41473 0.0
C157 C 0.01312 0.97113 0.42075 0.0
C158 C 0.01044 0.97187 0.43852 0.0
C159 C 0.02251 0.96551 0.44994 0.0
P160 P 0.21389 0.70299 0.79874 0.0
H161 H 0.24141 0.71421 0.82177 0.0
H162 H 0.24223 0.73037 0.8484 0.0
H163 H 0.18706 0.73305 0.84658 0.0
H164 H 0.18636 0.71569 0.82072 0.0
H165 H 0.21885 0.6769 0.77286 0.0
H166 H 0.23426 0.6503 0.77303 0.0
H167 H 0.24383 0.65651 0.8271 0.0
H168 H 0.2279 0.68268 0.82706 0.0
H169 H 0.19453 0.73104 0.7861 0.0
H170 H 0.18751 0.67637 0.78909 0.0
O171 O 0.22741 0.71425 0.78639 0.0
H172 H 0.167 0.73269 0.77133 0.0
H173 H 0.16006 0.67793 0.77392 0.0
C174 C 0.21387 0.71377 0.81919 0.0
C175 C 0.22948 0.71807 0.82727 0.0
C176 C 0.22991 0.72755 0.84243 0.0
C177 C 0.21473 0.73337 0.84966 0.0
C178 C 0.19904 0.72872 0.84162 0.0
C179 C 0.19862 0.71888 0.82663 0.0
C180 C 0.22216 0.68184 0.79992 0.0
C181 C 0.22384 0.6723 0.78485 0.0
C182 C 0.23267 0.65713 0.78495 0.0
C183 C 0.24031 0.65143 0.80006 0.0
C184 C 0.23816 0.6607 0.81525 0.0
C185 C 0.22903 0.6757 0.81521 0.0
C186 C 0.19317 0.70359 0.7885 0.0
C187 C 0.18704 0.71939 0.78357 0.0
C188 C 0.17128 0.72033 0.77521 0.0
C189 C 0.16141 0.70544 0.77143 0.0
C190 C 0.16749 0.68959 0.77654 0.0
C191 C 0.18318 0.68869 0.78519 0.0
P192 P 0.98852 0.52082 0.48793 0.0
H193 H 0.01564 0.49939 0.47561 0.0
H194 H 0.02951 0.49658 0.44797 0.0
H195 H 0.99666 0.5343 0.42689 0.0
H196 H 0.98266 0.53692 0.45471 0.0
H197 H 0.96527 0.53874 0.51038 0.0
H198 H 0.96657 0.56737 0.52279 0.0
H199 H 0.0118 0.57974 0.49323 0.0
H200 H 0.01052 0.55099 0.48101 0.0
H201 H 0.97632 0.48801 0.50151 0.0
H202 H 0.95509 0.52971 0.4739 0.0
O203 O 1.00077 0.51157 0.50246 0.0
H204 H 0.94823 0.47355 0.50236 0.0
H205 H 0.9268 0.51507 0.47433 0.0
C206 C 0.99829 0.51856 0.46727 0.0
C207 C 0.01141 0.50709 0.46507 0.0
C208 C 0.01939 0.50553 0.44925 0.0
C209 C 0.01431 0.51532 0.43523 0.0
C210 C 1.00081 0.5265 0.43738 0.0
C211 C 0.99286 0.52808 0.45328 0.0
C212 C 0.98752 0.54284 0.49439 0.0
C213 C 0.97519 0.54775 0.50619 0.0
C214 C 0.97596 0.56415 0.51331 0.0
C215 C 0.98928 0.57588 0.509 0.0
C216 C 1.00144 0.57099 0.49692 0.0
C217 C 1.00061 0.5546 0.48976 0.0
C218 C 0.96774 0.51005 0.48786 0.0
C219 C 0.9656 0.49405 0.49557 0.0
C220 C 0.94951 0.4857 0.49592 0.0
C221 C 0.9352 0.49313 0.48843 0.0
C222 C 0.93748 0.50909 0.48044 0.0
C223 C 0.95364 0.51744 0.48009 0.0
P224 P 0.8314 0.83971 0.82773 0.0
H225 H 0.84306 0.85609 0.79632 0.0
H226 H 0.85979 0.84625 0.7721 0.0
H227 H 0.86058 0.79606 0.79449 0.0
H228 H 0.84362 0.80585 0.81831 0.0
H229 H 0.81232 0.86426 0.84695 0.0
H230 H 0.78759 0.8811 0.84015 0.0
H231 H 0.78379 0.85689 0.79047 0.0
H232 H 0.80829 0.8397 0.79763 0.0
H233 H 0.84907 0.82838 0.85843 0.0
H234 H 0.80364 0.81358 0.82971 0.0
O235 O 0.84517 0.85372 0.837 0.0
H236 H 0.84314 0.80536 0.8786 0.0
H237 H 0.79781 0.7901 0.84961 0.0
C238 C 0.84188 0.83169 0.80902 0.0
C239 C 0.84661 0.8429 0.79583 0.0
C240 C 0.85632 0.83729 0.78208 0.0
C241 C 0.86158 0.82035 0.78133 0.0
C242 C 0.85655 0.80911 0.79448 0.0
C243 C 0.84684 0.81473 0.8082 0.0
C244 C 0.81237 0.85101 0.82268 0.0
C245 C 0.80612 0.86254 0.83461 0.0
C246 C 0.79203 0.87225 0.83065 0.0
C247 C 0.78382 0.87059 0.81464 0.0
C248 C 0.78975 0.85849 0.80293 0.0
C249 C 0.80386 0.84873 0.80695 0.0
C250 C 0.82659 0.8229 0.84279 0.0
C251 C 0.83776 0.82019 0.8565 0.0
C252 C 0.83445 0.80686 0.86794 0.0
C253 C 0.81997 0.79584 0.8658 0.0
C254 C 0.80892 0.7985 0.85184 0.0
C255 C 0.81223 0.81189 0.84043 0.0
P256 P 0.32319 0.33495 0.32722 0.0
H257 H 0.35312 0.35079 0.31063 0.0
H258 H 0.37109 0.34185 0.28713 0.0
H259 H 0.33735 0.29758 0.2789 0.0
H260 H 0.31973 0.30642 0.30288 0.0
H261 H 0.30447 0.36007 0.34614 0.0
H262 H 0.2805 0.37775 0.33886 0.0
H263 H 0.27779 0.3547 0.2886 0.0
H264 H 0.30162 0.33677 0.29616 0.0
H265 H 0.34296 0.30691 0.33963 0.0
H266 H 0.29061 0.32204 0.34219 0.0
O267 O 0.33602 0.3471 0.33977 0.0
H268 H 0.33608 0.28255 0.35804 0.0
H269 H 0.28371 0.29797 0.36089 0.0
C270 C 0.3353 0.32909 0.3087 0.0
C271 C 0.34956 0.33918 0.30374 0.0
C272 C 0.35977 0.33411 0.29017 0.0
C273 C 0.35579 0.31889 0.28114 0.0
C274 C 0.34102 0.30918 0.28576 0.0
C275 C 0.33087 0.31425 0.2994 0.0
C276 C 0.30505 0.34735 0.32159 0.0
C277 C 0.29873 0.35884 0.33354 0.0
C278 C 0.28505 0.369 0.32933 0.0
C279 C 0.27733 0.36783 0.31306 0.0
C280 C 0.28338 0.35589 0.30127 0.0
C281 C 0.2971 0.3457 0.30553 0.0
C282 C 0.31729 0.3162 0.3394 0.0
C283 C 0.32994 0.3049 0.34405 0.0
C284 C 0.32602 0.29106 0.3547 0.0
C285 C 0.30934 0.2883 0.36101 0.0
C286 C 0.29663 0.29957 0.35609 0.0
C287 C 0.30058 0.31341 0.34543 0.0
P288 P 0.48377 0.9906 0.5201 0.0
H289 H 0.48982 0.98036 0.48484 0.0
H290 H 0.49055 0.95275 0.47062 0.0
H291 H 0.4756 0.92791 0.51771 0.0
H292 H 0.47547 0.95578 0.53201 0.0
H293 H 0.47374 0.02323 0.53343 0.0
H294 H 0.44706 0.03833 0.5324 0.0
H295 H 0.42183 0.99437 0.50838 0.0
H296 H 0.44878 0.97954 0.50907 0.0
H297 H 0.51931 0.98722 0.52983 0.0
H298 H 0.47094 0.98993 0.5556 0.0
O299 O 0.49618 0.00377 0.50844 0.0
H300 H 0.53418 0.98678 0.55735 0.0
H301 H 0.48577 0.98982 0.5833 0.0
C302 C 0.48287 0.9701 0.50955 0.0
C303 C 0.4867 0.96899 0.49213 0.0
C304 C 0.48696 0.95314 0.48395 0.0
C305 C 0.4832 0.93801 0.49299 0.0
C306 C 0.47887 0.93924 0.5104 0.0
C307 C 0.47868 0.95516 0.51859 0.0
C308 C 0.46325 1.00026 0.52142 0.0
C309 C 0.46239 0.01677 0.52815 0.0
C310 C 0.44707 0.02537 0.5276 0.0
C311 C 0.43222 0.01762 0.52027 0.0
C312 C 0.43305 1.00084 0.5139 0.0
C313 C 0.44844 0.99226 0.51443 0.0
C314 C 0.49409 0.98899 0.54068 0.0
C315 C 0.51189 0.98774 0.54145 0.0
C316 C 0.52038 0.98757 0.5572 0.0
C317 C 0.5112 0.98853 0.57255 0.0
C318 C 0.49323 0.98904 0.57173 0.0
C319 C 0.48473 0.98923 0.5559 0.0
P320 P 0.17178 0.32841 0.67878 0.0
H321 H 0.18211 0.36379 0.67089 0.0
H322 H 0.20639 0.3822 0.67998 0.0
H323 H 0.22447 0.34177 0.71186 0.0
H324 H 0.20015 0.3233 0.7025 0.0
H325 H 0.1545 0.29621 0.66891 0.0
H326 H 0.16315 0.27216 0.65139 0.0
H327 H 0.21341 0.29623 0.64577 0.0
H328 H 0.20473 0.32009 0.6634 0.0
H329 H 0.14386 0.34592 0.69469 0.0
H330 H 0.17069 0.29971 0.70296 0.0
O331 O 0.1601 0.33893 0.66471 0.0
H332 H 0.12525 0.33915 0.71883 0.0
H333 H 0.15176 0.2925 0.72689 0.0
C334 C 0.18939 0.34215 0.68598 0.0
C335 C 0.19126 0.35887 0.67987 0.0
C336 C 0.20511 0.36944 0.68515 0.0
C337 C 0.21739 0.36346 0.69662 0.0
C338 C 0.21536 0.3467 0.70284 0.0
C339 C 0.20144 0.33617 0.6976 0.0
C340 C 0.17907 0.30976 0.66785 0.0
C341 C 0.16748 0.29614 0.66419 0.0
C342 C 0.1724 0.28248 0.65403 0.0
C343 C 0.18899 0.28226 0.64717 0.0
C344 C 0.20064 0.29585 0.65107 0.0
C345 C 0.19567 0.30953 0.66119 0.0
C346 C 0.15835 0.3231 0.69677 0.0
C347 C 0.14562 0.3342 0.70162 0.0
C348 C 0.13493 0.33026 0.7154 0.0
C349 C 0.1368 0.31514 0.7247 0.0
C350 C 0.14996 0.30427 0.72007 0.0
C351 C 0.1607 0.30828 0.70629 0.0
P352 P 0.83535 0.17766 0.67563 0.0
H353 H 0.85245 0.19654 0.64828 0.0
H354 H 0.84519 0.22176 0.63202 0.0
H355 H 0.79872 0.22548 0.66122 0.0
H356 H 0.80643 0.20054 0.6778 0.0
H357 H 0.8595 0.15811 0.69519 0.0
H358 H 0.87823 0.16514 0.71965 0.0
H359 H 0.86113 0.21677 0.71921 0.0
H360 H 0.84213 0.20961 0.695 0.0
H361 H 0.80294 0.16838 0.65867 0.0
H362 H 0.82667 0.15944 0.70757 0.0
O363 O 0.84586 0.16509 0.6624 0.0
H364 H 0.77823 0.15019 0.66694 0.0
H365 H 0.80221 0.14113 0.71573 0.0
C366 C 0.82975 0.1964 0.66391 0.0
C367 C 0.84067 0.20276 0.65113 0.0
C368 C 0.83645 0.21716 0.64179 0.0
C369 C 0.82123 0.22555 0.64511 0.0
C370 C 0.81056 0.2194 0.65833 0.0
C371 C 0.81486 0.20502 0.66772 0.0
C372 C 0.8495 0.18334 0.69321 0.0
C373 C 0.85983 0.17096 0.70032 0.0
C374 C 0.87047 0.17496 0.7143 0.0
C375 C 0.87116 0.19151 0.72125 0.0
C376 C 0.86097 0.20397 0.71396 0.0
C377 C 0.85008 0.19986 0.70016 0.0
C378 C 0.81655 0.16558 0.68258 0.0
C379 C 0.80275 0.16271 0.67126 0.0
C380 C 0.78866 0.15228 0.67597 0.0
C381 C 0.7883 0.14422 0.69198 0.0
C382 C 0.80219 0.14705 0.70326 0.0
C383 C 0.81617 0.15765 0.69861 0.0
P384 P 0.56374 0.56088 0.56554 0.0
H385 H 0.56436 0.55556 0.60225 0.0
H386 H 0.54287 0.5454 0.62263 0.0
H387 H 0.50632 0.53786 0.58134 0.0
H388 H 0.52822 0.54752 0.56093 0.0
H389 H 0.5967 0.54988 0.57793 0.0
H390 H 0.615 0.52684 0.5697 0.0
H391 H 0.57792 0.51016 0.5314 0.0
H392 H 0.55958 0.53352 0.53972 0.0
H393 H 0.53512 0.58347 0.5634 0.0
H394 H 0.57333 0.56478 0.52937 0.0
O395 O 0.57607 0.57527 0.57611 0.0
H396 H 0.52524 0.60239 0.54113 0.0
H397 H 0.56318 0.58329 0.50678 0.0
C398 C 0.54773 0.55274 0.58016 0.0
C399 C 0.55171 0.55175 0.59759 0.0
C400 C 0.53935 0.54602 0.60925 0.0
C401 C 0.52271 0.5411 0.60371 0.0
C402 C 0.51897 0.54153 0.58608 0.0
C403 C 0.53143 0.54719 0.5744 0.0
C404 C 0.57697 0.54367 0.55914 0.0
C405 C 0.5925 0.54135 0.56769 0.0
C406 C 0.60291 0.52804 0.56308 0.0
C407 C 0.59796 0.51666 0.54985 0.0
C408 C 0.5822 0.51885 0.54147 0.0
C409 C 0.57171 0.53216 0.54621 0.0
C410 C 0.55458 0.57224 0.54791 0.0
C411 C 0.54102 0.58301 0.55093 0.0
C412 C 0.53538 0.59387 0.53814 0.0
C413 C 0.54333 0.59435 0.52206 0.0
C414 C 0.55681 0.58335 0.51902 0.0
C415 C 0.56248 0.57254 0.53188 0.0
P416 P 0.55335 0.44761 0.96276 0.0
H417 H 0.58601 0.44527 0.98057 0.0
H418 H 0.60774 0.46651 0.98989 0.0
H419 H 0.57622 0.50649 0.97092 0.0
H420 H 0.55417 0.48524 0.96278 0.0
H421 H 0.52325 0.42452 0.96179 0.0
H422 H 0.51035 0.40518 0.98276 0.0
H423 H 0.54728 0.42372 0.02051 0.0
H424 H 0.55927 0.44371 0.99984 0.0
H425 H 0.55754 0.45656 0.92705 0.0
H426 H 0.51803 0.45968 0.96495 0.0
O427 O 0.56467 0.43342 0.9522 0.0
H428 H 0.53849 0.46812 0.90562 0.0
H429 H 0.49854 0.4707 0.94337 0.0
C430 C 0.56848 0.46363 0.97097 0.0
C431 C 0.58369 0.45865 0.97871 0.0
C432 C 0.59621 0.47085 0.98386 0.0
C433 C 0.59394 0.48833 0.98105 0.0
C434 C 0.57843 0.49324 0.97359 0.0
C435 C 0.56579 0.48103 0.96874 0.0
C436 C 0.54207 0.43581 0.97924 0.0
C437 C 0.52822 0.42478 0.97474 0.0
C438 C 0.52102 0.4135 0.98672 0.0
C439 C 0.52781 0.41268 0.00339 0.0
C440 C 0.54146 0.42409 0.00794 0.0
C441 C 0.54847 0.43554 0.996 0.0
C442 C 0.53903 0.45676 0.94744 0.0
C443 C 0.54467 0.45959 0.93071 0.0
C444 C 0.53371 0.46615 0.91844 0.0
C445 C 0.51682 0.47005 0.92264 0.0
C446 C 0.51144 0.46785 0.93966 0.0
C447 C 0.52251 0.46137 0.95199 0.0
P448 P 0.71976 0.21234 0.29851 0.0
H449 H 0.73813 0.20873 0.33106 0.0
H450 H 0.73589 0.22337 0.35864 0.0
H451 H 0.69219 0.24967 0.33981 0.0
H452 H 0.69415 0.23478 0.31252 0.0
H453 H 0.74277 0.19725 0.27433 0.0
H454 H 0.75708 0.17024 0.27339 0.0
H455 H 0.73165 0.15467 0.31995 0.0
H456 H 0.71737 0.182 0.32084 0.0
H457 H 0.70384 0.23846 0.27836 0.0
H458 H 0.69278 0.1859 0.29134 0.0
O459 O 0.73365 0.22629 0.28963 0.0
H460 H 0.67743 0.23901 0.26181 0.0
H461 H 0.66652 0.18605 0.27412 0.0
C462 C 0.71603 0.22024 0.31981 0.0
C463 C 0.72769 0.21717 0.33304 0.0
C464 C 0.72647 0.22561 0.34877 0.0
C465 C 0.71386 0.23764 0.35132 0.0
C466 C 0.70204 0.24047 0.33816 0.0
C467 C 0.70311 0.23184 0.32257 0.0
C468 C 0.72937 0.19181 0.29789 0.0
C469 C 0.74026 0.18805 0.28436 0.0
C470 C 0.74833 0.1725 0.28375 0.0
C471 C 0.74557 0.16029 0.29663 0.0
C472 C 0.73424 0.16391 0.30997 0.0
C473 C 0.72607 0.1795 0.31049 0.0
C474 C 0.70042 0.21207 0.28583 0.0
C475 C 0.69583 0.22693 0.27741 0.0
C476 C 0.68071 0.22718 0.26785 0.0
C477 C 0.66987 0.2125 0.26639 0.0
C478 C 0.67447 0.19763 0.27502 0.0
C479 C 0.68957 0.19746 0.28476 0.0
P480 P 0.48695 0.02172 0.98641 0.0
H481 H 0.52274 0.0187 0.97732 0.0
H482 H 0.53743 0.01575 0.95009 0.0
H483 H 0.48917 0.01936 0.92336 0.0
H484 H 0.47466 0.02278 0.95072 0.0
H485 H 0.48153 0.03436 0.02076 0.0
H486 H 0.48387 0.06273 0.03379 0.0
H487 H 0.49832 0.08424 0.98507 0.0
H488 H 0.49567 0.05576 0.97197 0.0
H489 H 0.47197 0.99038 0.97179 0.0
H490 H 0.45391 0.03416 0.99881 0.0
O491 O 0.49719 0.00908 0.9998 0.0
H492 H 0.4432 0.97697 0.97279 0.0
H493 H 0.4253 0.0207 1.00009 0.0
C494 C 0.49757 0.02058 0.96605 0.0
C495 C 0.51533 0.01888 0.96559 0.0
C496 C 0.5237 0.01708 0.94999 0.0
C497 C 0.51447 0.01704 0.93449 0.0
C498 C 0.4967 0.01937 0.93501 0.0
C499 C 0.48835 0.0212 0.95066 0.0
C500 C 0.48845 0.04293 0.99543 0.0
C501 C 0.48512 0.04519 0.01285 0.0
C502 C 0.48638 0.06141 0.02026 0.0
C503 C 0.49125 0.0757 0.01043 0.0
C504 C 0.49463 0.07343 0.99295 0.0
C505 C 0.49309 0.05717 0.98546 0.0
C506 C 0.46515 0.01332 0.98512 0.0
C507 C 0.46178 0.99723 0.9777 0.0
C508 C 0.44534 0.98957 0.9783 0.0
C509 C 0.43202 0.99776 0.9866 0.0
C510 C 0.43536 0.01401 0.99377 0.0
C511 C 0.45176 0.02175 0.99297 0.0
Mn512 Mn 0.25105 0.87025 0.00758 0.0
Mn513 Mn 0.24754 0.88354 0.9668 0.0
C514 C 0.23734 0.85288 0.9873 0.0
C515 C 0.26591 0.8564 0.0291 0.0
C516 C 0.22638 0.89714 0.99594 0.0
O517 O 0.26911 0.88982 0.0061 0.0
O518 O 0.2675 0.89559 0.9779 0.0
C519 C 0.27927 0.87009 0.95239 0.0
N520 N 0.2619 0.87088 0.95214 0.0
C521 C 0.25965 0.85207 0.92778 0.0
C522 C 0.27752 0.85116 0.9277 0.0
C523 C 0.28736 0.86018 0.94008 0.0
C524 C 0.2523 0.86225 0.94029 0.0
H525 H 0.28687 0.87693 0.96194 0.0
C526 C 0.27442 0.89767 0.99272 0.0
O527 O 0.25472 0.86767 0.03266 0.0
O528 O 0.26894 0.8537 0.01305 0.0
N529 N 0.22883 0.87245 0.95471 0.0
C530 C 0.21171 0.87361 0.95738 0.0
C531 C 0.20006 0.86474 0.94653 0.0
C532 C 0.20611 0.85483 0.93302 0.0
C533 C 0.22378 0.85388 0.93048 0.0
C534 C 0.23478 0.86309 0.94164 0.0
H535 H 0.20699 0.88118 0.96776 0.0
O536 O 0.23422 0.85067 0.00342 0.0
O537 O 0.24822 0.8652 0.98364 0.0
O538 O 0.23176 0.88715 0.0074 0.0
O539 O 0.23194 0.89729 0.98062 0.0
C540 C 0.2309 0.84386 0.91755 0.0
C541 C 0.24882 0.84294 0.91621 0.0
H542 H 0.28381 0.84342 0.91831 0.0
H543 H 0.30115 0.85945 0.94017 0.0
H544 H 0.18644 0.86549 0.9486 0.0
H545 H 0.19708 0.84789 0.92477 0.0
H546 H 0.22271 0.83658 0.90875 0.0
H547 H 0.25413 0.83495 0.90642 0.0
Mn548 Mn 0.13296 0.50687 0.25156 0.0
Mn549 Mn 0.11759 0.5465 0.2505 0.0
C550 C 0.14792 0.52846 0.23706 0.0
C551 C 0.14928 0.48598 0.26436 0.0
C552 C 0.10347 0.51737 0.22832 0.0
O553 O 0.11559 0.5063 0.27102 0.0
O554 O 0.10728 0.53339 0.26972 0.0
C555 C 0.13263 0.55984 0.28296 0.0
N556 N 0.13032 0.56129 0.26577 0.0
C557 C 0.14607 0.58822 0.26536 0.0
C558 C 0.14856 0.58707 0.28307 0.0
C559 C 0.14187 0.57278 0.29189 0.0
C560 C 0.1368 0.57491 0.25715 0.0
H561 H 0.12744 0.54891 0.28978 0.0
C562 C 0.10686 0.51859 0.27654 0.0
O563 O 0.13676 0.48201 0.25394 0.0
O564 O 0.15195 0.50206 0.26778 0.0
N565 N 0.12638 0.56089 0.23273 0.0
C566 C 0.12355 0.55962 0.21556 0.0
C567 C 0.12926 0.57295 0.20489 0.0
C568 C 0.13776 0.58743 0.21199 0.0
C569 C 0.14084 0.58829 0.22963 0.0
C570 C 0.13456 0.57477 0.23966 0.0
H571 H 0.11676 0.54865 0.21008 0.0
O572 O 0.15011 0.51254 0.23347 0.0
O573 O 0.13704 0.53137 0.24918 0.0
O574 O 0.11364 0.50618 0.23362 0.0
O575 O 0.10375 0.53261 0.23407 0.0
C576 C 0.14988 0.60203 0.23766 0.0
C577 C 0.1526 0.60193 0.2555 0.0
H578 H 0.15568 0.59702 0.29001 0.0
H579 H 0.14378 0.57178 0.30555 0.0
H580 H 0.12689 0.57216 0.19127 0.0
H581 H 0.14178 0.59789 0.20381 0.0
H582 H 0.15495 0.61264 0.2302 0.0
H583 H 0.15978 0.61244 0.2615 0.0
Mn584 Mn 0.75335 0.63428 1.00034 0.0
Mn585 Mn 0.71971 0.65184 0.98088 0.0
C586 C 0.72707 0.61924 0.99824 0.0
C587 C 0.77825 0.61858 0.99991 0.0
C588 C 0.73203 0.66201 0.01644 0.0
O589 O 0.76468 0.65402 0.98677 0.0
O590 O 0.74131 0.66304 0.97311 0.0
C591 C 0.72591 0.64122 0.94521 0.0
N592 N 0.71552 0.64147 0.9591 0.0
C593 C 0.69193 0.6289 0.94307 0.0
C594 C 0.70234 0.62849 0.92855 0.0
C595 C 0.71947 0.63451 0.92969 0.0
C596 C 0.69921 0.6352 0.9583 0.0
H597 H 0.73894 0.64626 0.94595 0.0
C598 C 0.75743 0.66373 0.97605 0.0
O599 O 0.77529 0.62938 0.01204 0.0
O600 O 0.76693 0.61719 0.98771 0.0
N601 N 0.69786 0.64223 0.98716 0.0
C602 C 0.68955 0.64348 0.00234 0.0
C603 C 0.67245 0.63748 0.00354 0.0
C604 C 0.66393 0.63081 0.98899 0.0
C605 C 0.67266 0.63002 0.97343 0.0
C606 C 0.68983 0.63567 0.97314 0.0
H607 H 0.69591 0.64903 0.01345 0.0
O608 O 0.73824 0.61531 0.00975 0.0
O609 O 0.73167 0.63164 0.98815 0.0
O610 O 0.74377 0.65123 0.01757 0.0
O611 O 0.72264 0.66343 0.00318 0.0
C612 C 0.66486 0.62436 0.95808 0.0
C613 C 0.6745 0.62375 0.94291 0.0
H614 H 0.6973 0.62365 0.91648 0.0
H615 H 0.72758 0.63427 0.91855 0.0
H616 H 0.66578 0.63826 0.01557 0.0
H617 H 0.65064 0.62648 0.98987 0.0
H618 H 0.65137 0.62073 0.95778 0.0
H619 H 0.66834 0.61962 0.93111 0.0
Mn620 Mn 0.87583 0.00444 0.2543 0.0
Mn621 Mn 0.89235 0.96538 0.25123 0.0
C622 C 0.86073 0.98267 0.23984 0.0
C623 C 0.85966 0.02501 0.26775 0.0
C624 C 0.90433 0.99516 0.22943 0.0
O625 O 0.89384 0.00515 0.27331 0.0
O626 O 0.90379 0.97882 0.26989 0.0
C627 C 0.88072 0.95141 0.28447 0.0
N628 N 0.88143 0.95017 0.26712 0.0
C629 C 0.86664 0.92272 0.26738 0.0
C630 C 0.86577 0.92368 0.28525 0.0
C631 C 0.8728 0.93811 0.29382 0.0
C632 C 0.87469 0.93636 0.25875 0.0
H633 H 0.88619 0.96243 0.29112 0.0
C634 C 0.90379 0.99331 0.2775 0.0
O635 O 0.87181 0.02913 0.25717 0.0
O636 O 0.85723 0.00889 0.27101 0.0
N637 N 0.88254 0.95074 0.23391 0.0
C638 C 0.88376 0.95219 0.21661 0.0
C639 C 0.87746 0.93878 0.20614 0.0
C640 C 0.87002 0.92404 0.21356 0.0
C641 C 0.86863 0.92297 0.23136 0.0
C642 C 0.87542 0.9366 0.24116 0.0
H643 H 0.88969 0.96339 0.21087 0.0
O644 O 0.85813 0.99856 0.23655 0.0
O645 O 0.87227 0.97987 0.25149 0.0
O646 O 0.89451 0.00595 0.23601 0.0
O647 O 0.90445 0.97963 0.23411 0.0
C648 C 0.86077 0.90894 0.23978 0.0
C649 C 0.85968 0.90886 0.25777 0.0
H650 H 0.85965 0.91346 0.29251 0.0
H651 H 0.87215 0.93895 0.30761 0.0
H652 H 0.87855 0.93973 0.1924 0.0
H653 H 0.86548 0.91357 0.20547 0.0
H654 H 0.85535 0.89823 0.23252 0.0
H655 H 0.85341 0.8981 0.26408 0.0
Mn656 Mn 0.25554 0.13071 0.50583 0.0
Mn657 Mn 0.21805 0.14099 0.48752 0.0
C658 C 0.23169 0.11228 0.50777 0.0
C659 C 0.28222 0.11822 0.50467 0.0
C660 C 0.23159 0.15692 0.52064 0.0
O661 O 0.26277 0.14973 0.48925 0.0
O662 O 0.23732 0.15389 0.47653 0.0
C663 C 0.22321 0.1264 0.45307 0.0
N664 N 0.21372 0.12738 0.46754 0.0
C665 C 0.19228 0.10755 0.45616 0.0
C666 C 0.20178 0.1064 0.44108 0.0
C667 C 0.21733 0.11582 0.43956 0.0
C668 C 0.19878 0.1183 0.46918 0.0
H669 H 0.23518 0.13362 0.45186 0.0
C670 C 0.25349 0.15691 0.47808 0.0
O671 O 0.27903 0.12999 0.51578 0.0
O672 O 0.2701 0.11414 0.49382 0.0
N673 N 0.19828 0.12935 0.4968 0.0
C674 C 0.19112 0.13123 0.51249 0.0
C675 C 0.17558 0.1225 0.51619 0.0
C676 C 0.16751 0.11205 0.50369 0.0
C677 C 0.17512 0.11031 0.48764 0.0
C678 C 0.19052 0.11947 0.48462 0.0
H679 H 0.19719 0.13934 0.52212 0.0
O680 O 0.24417 0.11138 0.51868 0.0
O681 O 0.23355 0.12386 0.49606 0.0
O682 O 0.24498 0.1482 0.52178 0.0
O683 O 0.221 0.15545 0.50817 0.0
C684 C 0.16815 0.09968 0.47459 0.0
C685 C 0.17676 0.09824 0.45888 0.0
H686 H 0.19731 0.09822 0.43066 0.0
H687 H 0.22477 0.11494 0.428 0.0
H688 H 0.16981 0.12387 0.52863 0.0
H689 H 0.15549 0.1054 0.50657 0.0
H690 H 0.15632 0.09235 0.47659 0.0
H691 H 0.17142 0.08983 0.44905 0.0
Mn692 Mn 0.37469 0.49757 0.75921 0.0
Mn693 Mn 0.39268 0.45922 0.75847 0.0
C694 C 0.3605 0.47417 0.74642 0.0
C695 C 0.35782 0.51821 0.77152 0.0
C696 C 0.40352 0.48792 0.73482 0.0
O697 O 0.39298 0.50019 0.77799 0.0
O698 O 0.40389 0.47409 0.77614 0.0
C699 C 0.38184 0.44698 0.79257 0.0
N700 N 0.3821 0.44489 0.77529 0.0
C701 C 0.36834 0.41708 0.77731 0.0
C702 C 0.36795 0.41889 0.79514 0.0
C703 C 0.37459 0.43398 0.80279 0.0
C704 C 0.37531 0.43063 0.76777 0.0
H705 H 0.38725 0.45842 0.79852 0.0
C706 C 0.40347 0.48902 0.78276 0.0
O707 O 0.36973 0.5222 0.76065 0.0
O708 O 0.35599 0.50225 0.7757 0.0
N709 N 0.38304 0.44343 0.74206 0.0
C710 C 0.38443 0.44368 0.72471 0.0
C711 C 0.37789 0.42974 0.71507 0.0
C712 C 0.37045 0.41551 0.7234 0.0
C713 C 0.36952 0.41541 0.74128 0.0
C714 C 0.37585 0.42984 0.75018 0.0
H715 H 0.39045 0.45445 0.71828 0.0
O716 O 0.35695 0.48957 0.74204 0.0
O717 O 0.37226 0.47291 0.75808 0.0
O718 O 0.39316 0.49863 0.74066 0.0
O719 O 0.40432 0.47278 0.74052 0.0
C720 C 0.36299 0.40139 0.75065 0.0
C721 C 0.36244 0.40222 0.76866 0.0
H722 H 0.36261 0.40876 0.80307 0.0
H723 H 0.37433 0.43549 0.81654 0.0
H724 H 0.37877 0.42987 0.70128 0.0
H725 H 0.36564 0.40467 0.71594 0.0
H726 H 0.35858 0.38984 0.74412 0.0
H727 H 0.35771 0.39127 0.77579 0.0
Mn728 Mn 0.75127 0.37138 0.51136 0.0
Mn729 Mn 0.74673 0.38612 0.47118 0.0
C730 C 0.73746 0.35463 0.49069 0.0
C731 C 0.76641 0.35669 0.5321 0.0
C732 C 0.72523 0.39775 0.50087 0.0
O733 O 0.76923 0.39089 0.51043 0.0
O734 O 0.76569 0.39913 0.48309 0.0
C735 C 0.77973 0.3758 0.45677 0.0
N736 N 0.7623 0.37518 0.45633 0.0
C737 C 0.76186 0.35711 0.43138 0.0
C738 C 0.77981 0.35761 0.43153 0.0
C739 C 0.78877 0.36699 0.44429 0.0
C740 C 0.75354 0.36626 0.44406 0.0
H741 H 0.78669 0.38294 0.46657 0.0
C742 C 0.77329 0.40027 0.49766 0.0
O743 O 0.75529 0.36783 0.53628 0.0
O744 O 0.76919 0.35462 0.51591 0.0
N745 N 0.72904 0.37435 0.45824 0.0
C746 C 0.71177 0.37437 0.46046 0.0
C747 C 0.70096 0.36517 0.44904 0.0
C748 C 0.70799 0.35611 0.43543 0.0
C749 C 0.72579 0.35635 0.43334 0.0
C750 C 0.73593 0.36586 0.44504 0.0
H751 H 0.7063 0.38126 0.47093 0.0
O752 O 0.73443 0.35199 0.50676 0.0
O753 O 0.74823 0.36714 0.48724 0.0
O754 O 0.732 0.38839 0.51214 0.0
O755 O 0.72989 0.39793 0.48525 0.0
C756 C 0.73388 0.34725 0.42032 0.0
C757 C 0.7519 0.34763 0.41934 0.0
H758 H 0.78683 0.35074 0.422 0.0
H759 H 0.80262 0.3674 0.44452 0.0
H760 H 0.68723 0.365 0.45077 0.0
H761 H 0.69961 0.3489 0.42674 0.0
H762 H 0.72638 0.33971 0.41114 0.0
H763 H 0.75798 0.34039 0.40941 0.0
Mn764 Mn 0.63568 0.00647 0.7536 0.0
Mn765 Mn 0.61645 0.04421 0.75401 0.0
C766 C 0.64919 0.03057 0.74181 0.0
C767 C 0.65319 0.98621 0.76585 0.0
C768 C 0.60659 0.01575 0.72917 0.0
O769 O 0.61731 0.00284 0.77189 0.0
O770 O 0.60598 0.0288 0.77136 0.0
C771 C 0.62742 0.05633 0.78839 0.0
N772 N 0.62678 0.05866 0.77117 0.0
C773 C 0.63974 0.08682 0.77382 0.0
C774 C 0.64052 0.08477 0.79159 0.0
C775 C 0.63446 0.06939 0.7989 0.0
C776 C 0.63298 0.07321 0.76398 0.0
H777 H 0.62249 0.04465 0.79408 0.0
C778 C 0.60678 0.01367 0.77729 0.0
O779 O 0.64169 0.98204 0.7544 0.0
O780 O 0.65423 0.00211 0.77055 0.0
N781 N 0.62535 0.06048 0.73797 0.0
C782 C 0.62382 0.06036 0.72061 0.0
C783 C 0.62974 0.07463 0.7113 0.0
C784 C 0.63672 0.08901 0.71995 0.0
C785 C 0.63787 0.08892 0.73784 0.0
C786 C 0.63215 0.07421 0.74641 0.0
H787 H 0.61815 0.04947 0.71392 0.0
O788 O 0.65335 0.0154 0.73711 0.0
O789 O 0.63732 0.0312 0.7533 0.0
O790 O 0.61745 0.00528 0.73452 0.0
O791 O 0.6051 0.03054 0.7357 0.0
C792 C 0.64407 0.10301 0.74752 0.0
C793 C 0.64508 0.10194 0.7655 0.0
H794 H 0.6457 0.09492 0.79975 0.0
H795 H 0.63501 0.06769 0.8126 0.0
H796 H 0.62872 0.07461 0.6975 0.0
H797 H 0.64107 0.10008 0.71275 0.0
H798 H 0.64784 0.11479 0.74123 0.0
H799 H 0.64971 0.1129 0.77285 0.0
Mn800 Mn 0.99892 0.25509 0.87735 0.0
Mn801 Mn 0.96124 0.25282 0.89809 0.0
C802 C 0.97533 0.24064 0.8651 0.0
C803 C 0.01873 0.26811 0.8588 0.0
C804 C 0.99097 0.23106 0.90739 0.0
O805 O 0.00178 0.2744 0.89493 0.0
O806 O 0.976 0.27176 0.90752 0.0
C807 C 0.94751 0.28561 0.88688 0.0
N808 N 0.94584 0.26833 0.88819 0.0
C809 C 0.91714 0.26819 0.87701 0.0
C810 C 0.9185 0.28599 0.87557 0.0
C811 C 0.93381 0.29473 0.88039 0.0
C812 C 0.93133 0.25978 0.88324 0.0
H813 H 0.95916 0.2924 0.89084 0.0
C814 C 0.9908 0.27911 0.90585 0.0
O815 O 0.02335 0.25766 0.8706 0.0
O816 O 0.00259 0.27143 0.85807 0.0
N817 N 0.94553 0.23522 0.89025 0.0
C818 C 0.94664 0.218 0.89161 0.0
C819 C 0.9326 0.20734 0.88672 0.0
C820 C 0.91746 0.21453 0.88093 0.0
C821 C 0.91663 0.23231 0.87979 0.0
C822 C 0.93113 0.24225 0.88443 0.0
H823 H 0.95813 0.21244 0.89641 0.0
O824 O 0.99078 0.23715 0.86066 0.0
O825 O 0.97409 0.25254 0.87661 0.0
O826 O 1.00114 0.23706 0.89607 0.0
O827 O 0.9758 0.23614 0.90925 0.0
C828 C 0.90189 0.24056 0.87449 0.0
C829 C 0.90219 0.25846 0.87279 0.0
H830 H 0.90788 0.29307 0.87078 0.0
H831 H 0.93498 0.30846 0.87931 0.0
H832 H 0.93336 0.19364 0.88763 0.0
H833 H 0.90657 0.2063 0.87736 0.0
H834 H 0.89021 0.23323 0.872 0.0
H835 H 0.89081 0.26461 0.86842 0.0
Mn836 Mn 0.50075 0.75206 0.3789 0.0
Mn837 Mn 0.46203 0.74825 0.39763 0.0
C838 C 0.4786 0.73623 0.36574 0.0
C839 C 0.52067 0.76575 0.361 0.0
C840 C 0.49243 0.72835 0.40907 0.0
O841 O 0.50161 0.77177 0.39609 0.0
O842 O 0.47527 0.76817 0.40736 0.0
C843 C 0.44703 0.77991 0.38487 0.0
N844 N 0.44635 0.76261 0.38636 0.0
C845 C 0.41934 0.76041 0.37147 0.0
C846 C 0.41972 0.7782 0.3698 0.0
C847 C 0.43364 0.78798 0.37651 0.0
C848 C 0.43301 0.75308 0.37998 0.0
H849 H 0.45768 0.78748 0.39003 0.0
C850 C 0.48982 0.77617 0.40627 0.0
O851 O 0.52538 0.75595 0.37332 0.0
O852 O 0.50439 0.76808 0.3594 0.0
N853 N 0.44783 0.72967 0.38927 0.0
C854 C 0.44987 0.71262 0.39121 0.0
C855 C 0.43717 0.70104 0.38503 0.0
C856 C 0.42251 0.70713 0.37705 0.0
C857 C 0.42076 0.72471 0.37505 0.0
C858 C 0.43376 0.73564 0.38161 0.0
H859 H 0.46108 0.70789 0.39743 0.0
O860 O 0.49445 0.7334 0.36224 0.0
O861 O 0.47617 0.74818 0.37695 0.0
O862 O 0.5029 0.73465 0.39817 0.0
O863 O 0.47691 0.73267 0.41003 0.0
C864 C 0.4067 0.7318 0.36671 0.0
C865 C 0.40603 0.74964 0.36486 0.0
H866 H 0.40945 0.78448 0.36331 0.0
H867 H 0.43404 0.80172 0.37526 0.0
H868 H 0.4386 0.68747 0.38652 0.0
H869 H 0.41266 0.6982 0.3726 0.0
H870 H 0.39641 0.72366 0.36155 0.0
H871 H 0.39526 0.75493 0.35824 0.0
Mn872 Mn 0.00303 0.75072 0.63105 0.0
Mn873 Mn 0.98383 0.71417 0.64509 0.0
C874 C 0.00446 0.72601 0.61488 0.0
C875 C 0.00227 0.77665 0.61654 0.0
C876 C 0.01727 0.72901 0.65974 0.0
O877 O 0.98679 0.75882 0.64953 0.0
O878 O 0.97284 0.73398 0.65574 0.0
C879 C 0.94962 0.71745 0.62931 0.0
N880 N 0.964 0.70845 0.63156 0.0
C881 C 0.95272 0.68556 0.61371 0.0
C882 C 0.93775 0.69455 0.61127 0.0
C883 C 0.93622 0.71058 0.61907 0.0
C884 C 0.96564 0.69305 0.62405 0.0
H885 H 0.94842 0.72978 0.63527 0.0
C886 C 0.97508 0.75018 0.65733 0.0
O887 O 0.01344 0.77409 0.6285 0.0
O888 O 0.99123 0.76425 0.61327 0.0
N889 N 0.99308 0.69394 0.63575 0.0
C890 C 0.00868 0.68731 0.6387 0.0
C891 C 0.01237 0.6714 0.63165 0.0
C892 C 0.99995 0.6624 0.62176 0.0
C893 C 0.984 0.66946 0.61889 0.0
C894 C 0.98099 0.68529 0.62641 0.0
H895 H 0.01823 0.6941 0.6464 0.0
O896 O 0.01552 0.73854 0.61268 0.0
O897 O 0.99279 0.72839 0.62632 0.0
O898 O 0.01894 0.74133 0.64927 0.0
O899 O 0.00431 0.71859 0.65974 0.0
C900 C 0.97105 0.66153 0.6087 0.0
C901 C 0.95545 0.66961 0.60605 0.0
H902 H 0.9274 0.68932 0.60334 0.0
H903 H 0.92474 0.71763 0.61718 0.0
H904 H 0.02472 0.66604 0.63388 0.0
H905 H 0.00283 0.65009 0.61641 0.0
H906 H 0.97306 0.64934 0.60263 0.0
H907 H 0.94569 0.66351 0.59798 0.0
Mn908 Mn 0.50083 0.24821 0.13478 0.0
Mn909 Mn 0.4843 0.21197 0.15233 0.0
C910 C 0.50383 0.22234 0.12071 0.0
C911 C 0.49861 0.2728 0.11835 0.0
C912 C 0.51732 0.22958 0.1646 0.0
O913 O 0.48421 0.257 0.15252 0.0
O914 O 0.47298 0.23203 0.16203 0.0
C915 C 0.44917 0.21273 0.13807 0.0
N916 N 0.46394 0.20441 0.1405 0.0
C917 C 0.45214 0.17912 0.12667 0.0
C918 C 0.43676 0.18739 0.12407 0.0
C919 C 0.4353 0.20429 0.12973 0.0
C920 C 0.46553 0.18821 0.13498 0.0
H921 H 0.44799 0.22569 0.1425 0.0
C922 C 0.47379 0.24835 0.16187 0.0
O923 O 0.50986 0.27178 0.1305 0.0
O924 O 0.48836 0.25958 0.11584 0.0
N925 N 0.49378 0.19134 0.14437 0.0
C926 C 0.50972 0.1855 0.14725 0.0
C927 C 0.51325 0.16871 0.14267 0.0
C928 C 0.50036 0.1581 0.1352 0.0
C929 C 0.48417 0.16451 0.13202 0.0
C930 C 0.48129 0.18122 0.13723 0.0
H931 H 0.51958 0.19348 0.1533 0.0
O932 O 0.51405 0.23536 0.11758 0.0
O933 O 0.4919 0.22485 0.13193 0.0
O934 O 0.51748 0.24151 0.15363 0.0
O935 O 0.5053 0.21817 0.16547 0.0
C936 C 0.47075 0.15495 0.12399 0.0
C937 C 0.45479 0.1623 0.12118 0.0
H938 H 0.42603 0.18092 0.11765 0.0
H939 H 0.42349 0.21077 0.12772 0.0
H940 H 0.52579 0.16387 0.14517 0.0
H941 H 0.50297 0.14501 0.1321 0.0
H942 H 0.47262 0.14199 0.11976 0.0
H943 H 0.44464 0.15492 0.11476 0.0
H944 H 0.19125 0.73511 0.87584 0.0
H945 H 0.19235 0.75412 0.90074 0.0
H946 H 0.24097 0.77552 0.88419 0.0
H947 H 0.23958 0.75753 0.85874 0.0
H948 H 0.23752 0.76289 0.921 0.0
H949 H 0.21255 0.79913 0.87771 0.0
H950 H 0.19078 0.80585 0.85609 0.0
H951 H 0.15138 0.80075 0.8939 0.0
H952 H 0.17293 0.79375 0.91569 0.0
H953 H 0.25934 0.83664 0.96727 0.0
H954 H 0.25291 0.81443 0.94609 0.0
H955 H 0.19946 0.81461 0.95961 0.0
H956 H 0.20595 0.83761 0.98047 0.0
H957 H 0.20183 0.81351 0.92661 0.0
H958 H 0.22597 0.78109 0.97087 0.0
H959 H 0.24674 0.77376 0.99324 0.0
H960 H 0.28598 0.76989 0.95546 0.0
H961 H 0.26552 0.77743 0.93288 0.0
C962 C 0.20207 0.74402 0.87727 0.0
C963 C 0.21537 0.74462 0.86516 0.0
C964 C 0.20271 0.75479 0.89161 0.0
C965 C 0.21676 0.76614 0.89427 0.0
C966 C 0.23008 0.76673 0.88238 0.0
C967 C 0.22931 0.75626 0.8679 0.0
C968 C 0.21778 0.77741 0.90949 0.0
C969 C 0.22981 0.77402 0.92225 0.0
C970 C 0.20723 0.7915 0.91134 0.0
C971 C 0.1943 0.79566 0.89824 0.0
C972 C 0.19922 0.79924 0.88135 0.0
C973 C 0.18693 0.80315 0.86908 0.0
C974 C 0.1697 0.80365 0.8736 0.0
C975 C 0.16473 0.8003 0.89041 0.0
C976 C 0.17697 0.79637 0.90272 0.0
C977 C 0.2462 0.83201 0.9656 0.0
C978 C 0.23303 0.83914 0.97499 0.0
C979 C 0.24255 0.81911 0.9537 0.0
C980 C 0.2257 0.81263 0.95134 0.0
C981 C 0.21255 0.81941 0.96117 0.0
C982 C 0.21623 0.83248 0.97306 0.0
C983 C 0.22196 0.79933 0.93808 0.0
C984 C 0.2094 0.80227 0.92564 0.0
C985 C 0.23187 0.78463 0.93667 0.0
C986 C 0.24421 0.77991 0.95018 0.0
C987 C 0.23905 0.77877 0.96734 0.0
C988 C 0.25077 0.77457 0.98006 0.0
C989 C 0.26767 0.77138 0.97578 0.0
C990 C 0.27288 0.77235 0.95876 0.0
C991 C 0.26122 0.77656 0.94598 0.0
H992 H 0.27673 0.76814 0.98565 0.0
H993 H 0.1602 0.8067 0.86408 0.0
H994 H 0.04875 0.51374 0.42994 0.0
H995 H 0.06378 0.51221 0.40273 0.0
H996 H 0.01562 0.51298 0.37564 0.0
H997 H 1.00042 0.51417 0.40291 0.0
H998 H 0.03739 0.48974 0.36158 0.0
H999 H 0.03948 0.54865 0.3789 0.0
H1000 H 0.04542 0.5728 0.39861 0.0
H1001 H 0.0986 0.56114 0.4001 0.0
H1002 H 0.09293 0.53677 0.38057 0.0
H1003 H 0.08504 0.54115 0.29031 0.0
H1004 H 0.06879 0.53856 0.31655 0.0
H1005 H 0.08792 0.48843 0.3247 0.0
H1006 H 0.10431 0.49082 0.29811 0.0
H1007 H 0.08037 0.53581 0.34822 0.0
H1008 H 0.0568 0.46525 0.3478 0.0
H1009 H 0.04922 0.44232 0.32711 0.0
H1010 H 0.03611 0.47958 0.28973 0.0
H1011 H 0.04339 0.5027 0.31026 0.0
C1012 C 0.04132 0.51337 0.41821 0.0
C1013 C 0.02337 0.51411 0.41861 0.0
C1014 C 0.04994 0.51259 0.40266 0.0
C1015 C 0.04084 0.51259 0.38714 0.0
C1016 C 0.0229 0.51296 0.38746 0.0
C1017 C 0.01425 0.51381 0.40304 0.0
C1018 C 0.05011 0.51292 0.37062 0.0
C1019 C 0.04683 0.49977 0.35866 0.0
C1020 C 0.06229 0.5261 0.36672 0.0
C1021 C 0.06575 0.54079 0.37841 0.0
C1022 C 0.05242 0.55116 0.38354 0.0
C1023 C 0.05574 0.5649 0.39466 0.0
C1024 C 0.07237 0.56848 0.40064 0.0
C1025 C 0.08572 0.55834 0.39547 0.0
C1026 C 0.08246 0.54457 0.38437 0.0
C1027 C 0.08579 0.52947 0.29754 0.0
C1028 C 0.0961 0.5162 0.29203 0.0
C1029 C 0.07647 0.52805 0.31262 0.0
C1030 C 0.07712 0.51334 0.32264 0.0
C1031 C 0.08711 0.49987 0.3171 0.0
C1032 C 0.09649 0.50127 0.3019 0.0
C1033 C 0.06775 0.51258 0.33913 0.0
C1034 C 0.07104 0.52567 0.35114 0.0
C1035 C 0.05541 0.49949 0.34292 0.0
C1036 C 0.05084 0.4857 0.33051 0.0
C1037 C 0.05226 0.46854 0.33518 0.0
C1038 C 0.04801 0.45551 0.32348 0.0
C1039 C 0.04225 0.45949 0.30709 0.0
C1040 C 0.04065 0.47651 0.3024 0.0
C1041 C 0.04486 0.48958 0.31405 0.0
H1042 H 0.03898 0.44939 0.29805 0.0
H1043 H 0.07492 0.57912 0.40925 0.0
H1044 H 0.8428 0.77496 0.88137 0.0
H1045 H 0.83674 0.75266 0.90244 0.0
H1046 H 0.78288 0.76224 0.89901 0.0
H1047 H 0.78889 0.78498 0.87852 0.0
H1048 H 0.79235 0.7593 0.9314 0.0
H1049 H 0.80129 0.72755 0.87906 0.0
H1050 H 0.8178 0.71868 0.85402 0.0
H1051 H 0.85731 0.70093 0.88707 0.0
H1052 H 0.84111 0.7099 0.91232 0.0
H1053 H 0.7452 0.6875 0.95448 0.0
H1054 H 0.76086 0.70934 0.93874 0.0
H1055 H 0.80847 0.69219 0.95923 0.0
H1056 H 0.79268 0.66981 0.97542 0.0
H1057 H 0.80815 0.6993 0.9224 0.0
H1058 H 0.79616 0.72705 0.97494 0.0
H1059 H 0.77839 0.73495 0.99943 0.0
H1060 H 0.74392 0.75984 0.96566 0.0
H1061 H 0.76133 0.75186 0.94092 0.0
C1062 C 0.82967 0.77243 0.8852 0.0
C1063 C 0.81632 0.78181 0.8782 0.0
C1064 C 0.82621 0.75954 0.89714 0.0
C1065 C 0.80934 0.75565 0.90225 0.0
C1066 C 0.79602 0.76498 0.89528 0.0
C1067 C 0.79945 0.77788 0.88341 0.0
C1068 C 0.80536 0.74202 0.91494 0.0
C1069 C 0.7958 0.74619 0.92939 0.0
C1070 C 0.81039 0.72499 0.91272 0.0
C1071 C 0.8201 0.71959 0.89756 0.0
C1072 C 0.81356 0.72189 0.88098 0.0
C1073 C 0.82285 0.71682 0.86675 0.0
C1074 C 0.83862 0.7093 0.86895 0.0
C1075 C 0.84511 0.70679 0.88538 0.0
C1076 C 0.83588 0.71186 0.89966 0.0
C1077 C 0.75901 0.68819 0.95579 0.0
C1078 C 0.76764 0.67683 0.9664 0.0
C1079 C 0.76795 0.70081 0.94673 0.0
C1080 C 0.78578 0.70254 0.94796 0.0
C1081 C 0.79465 0.69109 0.95819 0.0
C1082 C 0.78562 0.67837 0.96745 0.0
C1083 C 0.79468 0.71655 0.93845 0.0
C1084 C 0.80512 0.7125 0.92462 0.0
C1085 C 0.79043 0.73372 0.94118 0.0
C1086 C 0.78004 0.7388 0.95605 0.0
C1087 C 0.78474 0.73413 0.97272 0.0
C1088 C 0.77473 0.73863 0.98665 0.0
C1089 C 0.76003 0.74788 0.9841 0.0
C1090 C 0.75532 0.75269 0.96762 0.0
C1091 C 0.76527 0.74821 0.95363 0.0
H1092 H 0.75229 0.75134 0.99491 0.0
H1093 H 0.8458 0.70538 0.85792 0.0
H1094 H 0.01904 0.98877 0.39111 0.0
H1095 H 0.99827 0.99648 0.36941 0.0
H1096 H 0.95722 0.97622 0.4008 0.0
H1097 H 0.97807 0.96774 0.42228 0.0
H1098 H 0.95299 0.96487 0.36997 0.0
H1099 H 0.96326 0.01989 0.39372 0.0
H1100 H 0.98009 0.04489 0.40459 0.0
H1101 H 0.00197 0.05275 0.35494 0.0
H1102 H 0.98545 0.02765 0.34382 0.0
H1103 H 0.90183 0.01644 0.30399 0.0
H1104 H 0.91853 0.01682 0.33072 0.0
H1105 H 0.94831 0.9758 0.31163 0.0
H1106 H 0.93175 0.9752 0.28521 0.0
H1107 H 0.95309 0.02045 0.33998 0.0
H1108 H 0.95165 0.94641 0.34194 0.0
H1109 H 0.93293 0.92244 0.33167 0.0
H1110 H 0.88959 0.95437 0.33292 0.0
H1111 H 0.90798 0.97843 0.34348 0.0
C1112 C 0.00559 0.98594 0.39343 0.0
C1113 C 1.00026 0.97748 0.40841 0.0
C1114 C 0.99368 0.99058 0.38109 0.0
C1115 C 0.97611 0.9871 0.38349 0.0
C1116 C 0.97069 0.97909 0.39865 0.0
C1117 C 0.98263 0.97437 0.411 0.0
C1118 C 0.96365 0.99061 0.36959 0.0
C1119 C 0.95294 0.97709 0.36356 0.0
C1120 C 0.96323 0.00665 0.36136 0.0
C1121 C 0.97318 0.0218 0.36796 0.0
C1122 C 0.97175 0.02687 0.38514 0.0
C1123 C 0.98122 0.04108 0.39134 0.0
C1124 C 0.99211 0.05039 0.38047 0.0
C1125 C 0.99353 0.04553 0.36335 0.0
C1126 C 0.98409 0.03132 0.35708 0.0
C1127 C 0.91213 0.00772 0.30539 0.0
C1128 C 0.91528 0.99563 0.29255 0.0
C1129 C 0.92165 0.00794 0.32067 0.0
C1130 C 0.93442 0.9961 0.32328 0.0
C1131 C 0.93829 0.98483 0.31003 0.0
C1132 C 0.92879 0.98452 0.2949 0.0
C1133 C 0.94309 0.99454 0.34011 0.0
C1134 C 0.95304 0.00836 0.34663 0.0
C1135 C 0.94253 0.9789 0.34907 0.0
C1136 C 0.93124 0.96426 0.3434 0.0
C1137 C 0.93811 0.94827 0.34017 0.0
C1138 C 0.92755 0.93468 0.33426 0.0
C1139 C 0.91009 0.93689 0.33159 0.0
C1140 C 0.90312 0.95268 0.33494 0.0
C1141 C 0.91361 0.9663 0.34089 0.0
H1142 H 0.90196 0.92638 0.32695 0.0
H1143 H 0.99944 0.06138 0.38529 0.0
H1144 H 0.16988 0.26761 0.62124 0.0
H1145 H 0.17804 0.24539 0.60131 0.0
H1146 H 0.22732 0.24326 0.62613 0.0
H1147 H 0.21924 0.26563 0.64613 0.0
H1148 H 0.23102 0.2431 0.59248 0.0
H1149 H 0.196 0.21165 0.63188 0.0
H1150 H 0.17041 0.20504 0.64922 0.0
H1151 H 0.13971 0.20005 0.60365 0.0
H1152 H 0.16509 0.20687 0.58604 0.0
H1153 H 0.2521 0.16684 0.54788 0.0
H1154 H 0.24578 0.1872 0.57056 0.0
H1155 H 0.19653 0.1953 0.54754 0.0
H1156 H 0.20262 0.17495 0.52494 0.0
H1157 H 0.19414 0.19122 0.58193 0.0
H1158 H 0.22929 0.22426 0.54283 0.0
H1159 H 0.2551 0.23068 0.52574 0.0
H1160 H 0.28592 0.23213 0.57137 0.0
H1161 H 0.2603 0.22549 0.58872 0.0
C1162 C 0.18237 0.26226 0.62264 0.0
C1163 C 0.19386 0.26833 0.63538 0.0
C1164 C 0.18704 0.24955 0.6112 0.0
C1165 C 0.20322 0.24245 0.61234 0.0
C1166 C 0.21476 0.24852 0.625 0.0
C1167 C 0.21013 0.26132 0.63641 0.0
C1168 C 0.20816 0.22897 0.60006 0.0
C1169 C 0.2231 0.23162 0.59039 0.0
C1170 C 0.19772 0.21409 0.5971 0.0
C1171 C 0.18243 0.20991 0.60765 0.0
C1172 C 0.18377 0.20927 0.62556 0.0
C1173 C 0.16931 0.20546 0.63544 0.0
C1174 C 0.15344 0.20217 0.62755 0.0
C1175 C 0.15201 0.20262 0.60975 0.0
C1176 C 0.16644 0.20644 0.59981 0.0
C1177 C 0.23992 0.17294 0.54763 0.0
C1178 C 0.22792 0.16926 0.5345 0.0
C1179 C 0.23635 0.18463 0.56058 0.0
C1180 C 0.22072 0.19288 0.56068 0.0
C1181 C 0.20866 0.18909 0.54773 0.0
C1182 C 0.21223 0.17749 0.53476 0.0
C1183 C 0.21684 0.20548 0.57423 0.0
C1184 C 0.20211 0.20265 0.58413 0.0
C1185 C 0.22752 0.22013 0.57746 0.0
C1186 C 0.24291 0.22419 0.56705 0.0
C1187 C 0.24159 0.22581 0.54921 0.0
C1188 C 0.25618 0.22951 0.53947 0.0
C1189 C 0.27215 0.23176 0.54746 0.0
C1190 C 0.27355 0.23036 0.5652 0.0
C1191 C 0.25899 0.22663 0.57499 0.0
H1192 H 0.28343 0.23462 0.5399 0.0
H1193 H 0.14225 0.19922 0.63522 0.0
H1194 H 0.51724 0.55468 0.63544 0.0
H1195 H 0.4964 0.54511 0.65676 0.0
H1196 H 0.47675 0.50617 0.62204 0.0
H1197 H 0.49786 0.51542 0.60069 0.0
H1198 H 0.45088 0.52268 0.63881 0.0
H1199 H 0.50276 0.49512 0.65306 0.0
H1200 H 0.53359 0.49383 0.65951 0.0
H1201 H 0.52766 0.5263 0.70322 0.0
H1202 H 0.49682 0.52798 0.69688 0.0
H1203 H 0.42864 0.46949 0.72012 0.0
H1204 H 0.44788 0.47807 0.69704 0.0
H1205 H 0.42439 0.5268 0.69437 0.0
H1206 H 0.40497 0.51832 0.71745 0.0
H1207 H 0.47167 0.5037 0.69539 0.0
H1208 H 0.42508 0.53981 0.65226 0.0
H1209 H 0.39427 0.53946 0.64517 0.0
H1210 H 0.38958 0.48639 0.6581 0.0
H1211 H 0.42038 0.48636 0.66503 0.0
C1212 C 0.50861 0.54397 0.63234 0.0
C1213 C 0.5094 0.5357 0.61637 0.0
C1214 C 0.49663 0.53859 0.64453 0.0
C1215 C 0.48513 0.52482 0.64106 0.0
C1216 C 0.4855 0.51684 0.62498 0.0
C1217 C 0.49755 0.52218 0.61277 0.0
C1218 C 0.47309 0.51851 0.65442 0.0
C1219 C 0.45541 0.51855 0.65118 0.0
C1220 C 0.479 0.51288 0.67049 0.0
C1221 C 0.49751 0.5118 0.67441 0.0
C1222 C 0.50806 0.50208 0.66398 0.0
C1223 C 0.52553 0.50127 0.66762 0.0
C1224 C 0.53259 0.51001 0.68174 0.0
C1225 C 0.52217 0.51955 0.69227 0.0
C1226 C 0.5047 0.52043 0.68867 0.0
C1227 C 0.42749 0.48204 0.71465 0.0
C1228 C 0.41519 0.4932 0.72071 0.0
C1229 C 0.43856 0.48694 0.70145 0.0
C1230 C 0.43752 0.50303 0.69388 0.0
C1231 C 0.4253 0.51424 0.69988 0.0
C1232 C 0.41424 0.50938 0.71314 0.0
C1233 C 0.44942 0.50813 0.6799 0.0
C1234 C 0.4671 0.50787 0.68303 0.0
C1235 C 0.4435 0.51335 0.66368 0.0
C1236 C 0.425 0.51315 0.65933 0.0
C1237 C 0.41748 0.52805 0.65353 0.0
C1238 C 0.40002 0.52792 0.64954 0.0
C1239 C 0.38996 0.51292 0.65124 0.0
C1240 C 0.39736 0.49801 0.65685 0.0
C1241 C 0.41482 0.49807 0.66083 0.0
H1242 H 0.37645 0.51285 0.64817 0.0
H1243 H 0.54612 0.50936 0.68454 0.0
H1244 H 0.82512 0.22994 0.61063 0.0
H1245 H 0.81741 0.25432 0.59339 0.0
H1246 H 0.79831 0.2792 0.63825 0.0
H1247 H 0.80627 0.25492 0.65572 0.0
H1248 H 0.77619 0.28087 0.61116 0.0
H1249 H 0.83586 0.29273 0.62141 0.0
H1250 H 0.8665 0.28641 0.62224 0.0
H1251 H 0.86595 0.2781 0.56797 0.0
H1252 H 0.83523 0.28413 0.56684 0.0
H1253 H 0.76325 0.35806 0.56693 0.0
H1254 H 0.77412 0.338 0.58785 0.0
H1255 H 0.79796 0.31017 0.54735 0.0
H1256 H 0.78749 0.33036 0.52647 0.0
H1257 H 0.81836 0.3118 0.5744 0.0
H1258 H 0.75873 0.29719 0.56425 0.0
H1259 H 0.72788 0.30255 0.56287 0.0
H1260 H 0.72818 0.3151 0.61634 0.0
H1261 H 0.7591 0.31002 0.61798 0.0
C1262 C 0.81951 0.24068 0.61693 0.0
C1263 C 0.81644 0.24047 0.63463 0.0
C1264 C 0.81506 0.25461 0.60701 0.0
C1265 C 0.80747 0.26869 0.61455 0.0
C1266 C 0.80417 0.26848 0.63216 0.0
C1267 C 0.80867 0.25455 0.64212 0.0
C1268 C 0.80267 0.28342 0.60391 0.0
C1269 C 0.78546 0.28785 0.60336 0.0
C1270 C 0.8147 0.29228 0.59345 0.0
C1271 C 0.8332 0.28875 0.59407 0.0
C1272 C 0.84224 0.28943 0.60967 0.0
C1273 C 0.85963 0.28592 0.61019 0.0
C1274 C 0.86815 0.28182 0.59518 0.0
C1275 C 0.85932 0.28127 0.5796 0.0
C1276 C 0.84193 0.28475 0.579 0.0
C1277 C 0.77099 0.34779 0.56251 0.0
C1278 C 0.77442 0.34575 0.54502 0.0
C1279 C 0.77712 0.33627 0.57448 0.0
C1280 C 0.78661 0.32237 0.56915 0.0
C1281 C 0.79063 0.32075 0.55178 0.0
C1282 C 0.78461 0.3323 0.53984 0.0
C1283 C 0.79182 0.30913 0.58149 0.0
C1284 C 0.80911 0.30495 0.58234 0.0
C1285 C 0.77984 0.30041 0.59215 0.0
C1286 C 0.76125 0.30341 0.59119 0.0
C1287 C 0.75224 0.30122 0.57568 0.0
C1288 C 0.73474 0.30419 0.57486 0.0
C1289 C 0.72609 0.30922 0.58949 0.0
C1290 C 0.7349 0.31124 0.605 0.0
C1291 C 0.75241 0.30831 0.60589 0.0
H1292 H 0.71254 0.31151 0.58883 0.0
H1293 H 0.88161 0.27911 0.59561 0.0
H1294 H 0.50297 0.97246 0.60274 0.0
H1295 H 0.51836 0.97475 0.6301 0.0
H1296 H 0.55566 0.00954 0.60744 0.0
H1297 H 0.54044 0.00726 0.58017 0.0
H1298 H 0.5714 0.98762 0.62664 0.0
H1299 H 0.52322 0.02344 0.63328 0.0
H1300 H 0.49262 0.02998 0.6334 0.0
H1301 H 0.48327 0.99257 0.67243 0.0
H1302 H 0.51379 0.98565 0.67237 0.0
H1303 H 0.58372 0.03553 0.7126 0.0
H1304 H 0.56689 0.02855 0.68708 0.0
H1305 H 0.5871 0.9782 0.68619 0.0
H1306 H 0.60435 0.98519 0.71166 0.0
H1307 H 0.54219 0.00606 0.67929 0.0
H1308 H 0.59134 0.96568 0.64447 0.0
H1309 H 0.62258 0.9623 0.64357 0.0
H1310 H 0.63105 0.01438 0.65954 0.0
H1311 H 0.59989 0.01812 0.66032 0.0
C1312 C 0.51441 0.98065 0.60362 0.0
C1313 C 0.52049 0.98965 0.58924 0.0
C1314 C 0.52322 0.98193 0.61926 0.0
C1315 C 0.53815 0.99241 0.62089 0.0
C1316 C 0.54426 1.00129 0.60651 0.0
C1317 C 0.53554 0.99995 0.59089 0.0
C1318 C 0.54735 0.99442 0.63755 0.0
C1319 C 0.56496 0.99154 0.63817 0.0
C1320 C 0.53907 0.99972 0.6526 0.0
C1321 C 0.52074 0.00389 0.65268 0.0
C1322 C 0.51461 0.01652 0.64179 0.0
C1323 C 0.49729 0.02031 0.64186 0.0
C1324 C 0.486 0.01166 0.65288 0.0
C1325 C 0.49202 0.99924 0.66388 0.0
C1326 C 0.50933 0.99538 0.66383 0.0
C1327 C 0.58458 0.02291 0.7071 0.0
C1328 C 0.59554 0.01097 0.71421 0.0
C1329 C 0.57485 0.01892 0.69248 0.0
C1330 C 0.57581 0.00291 0.68458 0.0
C1331 C 0.58632 0.99074 0.6919 0.0
C1332 C 0.59615 0.99475 0.70652 0.0
C1333 C 0.56624 0.99933 0.66835 0.0
C1334 C 0.54857 0.0019 0.66781 0.0
C1335 C 0.57454 0.99413 0.65327 0.0
C1336 C 0.5933 0.9921 0.65264 0.0
C1337 C 0.59988 0.97641 0.64774 0.0
C1338 C 0.61757 0.97444 0.64726 0.0
C1339 C 0.62879 0.9881 0.65156 0.0
C1340 C 0.62235 0.00379 0.65628 0.0
C1341 C 0.60468 0.00584 0.65676 0.0
H1342 H 0.64247 0.98654 0.6512 0.0
H1343 H 0.4726 0.01462 0.65292 0.0
H1344 H 0.89426 0.21828 0.72562 0.0
H1345 H 0.9115 0.22537 0.75125 0.0
H1346 H 0.88942 0.18129 0.77674 0.0
H1347 H 0.87243 0.17399 0.75112 0.0
H1348 H 0.8878 0.21396 0.79469 0.0
H1349 H 0.92741 0.17814 0.76581 0.0
H1350 H 0.94513 0.16957 0.74152 0.0
H1351 H 0.97294 0.21779 0.74374 0.0
H1352 H 0.95519 0.22675 0.76789 0.0
H1353 H 0.96908 0.20833 0.85355 0.0
H1354 H 0.94857 0.19893 0.83132 0.0
H1355 H 0.92913 0.24955 0.82924 0.0
H1356 H 0.94968 0.25894 0.85143 0.0
H1357 H 0.95099 0.21334 0.79951 0.0
H1358 H 0.8985 0.25057 0.81747 0.0
H1359 H 0.87409 0.25773 0.83563 0.0
H1360 H 0.86919 0.20571 0.85223 0.0
H1361 H 0.89381 0.19839 0.83438 0.0
C1362 C 0.89319 0.21008 0.73668 0.0
C1363 C 0.88204 0.19559 0.73642 0.0
C1364 C 0.90308 0.21408 0.75123 0.0
C1365 C 0.90176 0.2038 0.76582 0.0
C1366 C 0.89066 0.18932 0.76556 0.0
C1367 C 0.88102 0.18515 0.75094 0.0
C1368 C 0.91113 0.20863 0.78172 0.0
C1369 C 0.90164 0.21378 0.79578 0.0
C1370 C 0.92915 0.20857 0.78302 0.0
C1371 C 0.93984 0.20318 0.76854 0.0
C1372 C 0.93718 0.18698 0.76101 0.0
C1373 C 0.94726 0.18204 0.74729 0.0
C1374 C 0.96012 0.19314 0.74106 0.0
C1375 C 0.96296 0.2092 0.74856 0.0
C1376 C 0.9529 0.21422 0.76228 0.0
C1377 C 0.96004 0.21728 0.84872 0.0
C1378 C 0.96071 0.23425 0.85446 0.0
C1379 C 0.94831 0.21192 0.83604 0.0
C1380 C 0.9371 0.22345 0.82871 0.0
C1381 C 0.93725 0.24026 0.83498 0.0
C1382 C 0.94901 0.24563 0.84768 0.0
C1383 C 0.92763 0.21861 0.81274 0.0
C1384 C 0.93716 0.21352 0.79851 0.0
C1385 C 0.90962 0.21891 0.81117 0.0
C1386 C 0.89827 0.22408 0.82506 0.0
C1387 C 0.89259 0.24083 0.82548 0.0
C1388 C 0.87855 0.24485 0.83549 0.0
C1389 C 0.86996 0.23214 0.84491 0.0
C1390 C 0.87578 0.21551 0.84483 0.0
C1391 C 0.88992 0.21148 0.83497 0.0
H1392 H 0.85895 0.23522 0.85249 0.0
H1393 H 0.96791 0.18929 0.73044 0.0
H1394 H 0.49519 0.90822 0.506 0.0
H1395 H 0.49763 0.88087 0.49136 0.0
H1396 H 0.47673 0.90225 0.44543 0.0
H1397 H 0.47342 0.92935 0.46021 0.0
H1398 H 0.46348 0.87195 0.44934 0.0
H1399 H 0.52045 0.89597 0.45064 0.0
H1400 H 0.54664 0.909 0.46367 0.0
H1401 H 0.5527 0.86434 0.49425 0.0
H1402 H 0.5264 0.85113 0.48157 0.0
H1403 H 0.51327 0.80285 0.40182 0.0
H1404 H 0.51406 0.83048 0.41671 0.0
H1405 H 0.47284 0.81266 0.44918 0.0
H1406 H 0.47177 0.78531 0.43432 0.0
H1407 H 0.51841 0.84229 0.44953 0.0
H1408 H 0.44437 0.84332 0.4532 0.0
H1409 H 0.41934 0.83104 0.43745 0.0
H1410 H 0.44929 0.82826 0.3918 0.0
H1411 H 0.47438 0.8408 0.40717 0.0
C1412 C 0.49087 0.90706 0.49286 0.0
C1413 C 0.48418 0.92109 0.4843 0.0
C1414 C 0.49249 0.89144 0.48442 0.0
C1415 C 0.48766 0.88953 0.46716 0.0
C1416 C 0.48066 0.9034 0.4587 0.0
C1417 C 0.47892 0.91897 0.46715 0.0
C1418 C 0.48974 0.87307 0.45796 0.0
C1419 C 0.47551 0.86551 0.44942 0.0
C1420 C 0.50552 0.86475 0.45765 0.0
C1421 C 0.52137 0.87263 0.46527 0.0
C1422 C 0.5273 0.88898 0.46024 0.0
C1423 C 0.54217 0.89639 0.46754 0.0
C1424 C 0.55131 0.88752 0.47981 0.0
C1425 C 0.5456 0.8712 0.48476 0.0
C1426 C 0.53072 0.86374 0.47751 0.0
C1427 C 0.50457 0.80474 0.41231 0.0
C1428 C 0.4923 0.79194 0.4167 0.0
C1429 C 0.50504 0.82053 0.42082 0.0
C1430 C 0.49328 0.82374 0.43383 0.0
C1431 C 0.48181 0.81059 0.43894 0.0
C1432 C 0.48124 0.79493 0.43042 0.0
C1433 C 0.49207 0.84109 0.44136 0.0
C1434 C 0.50642 0.84879 0.44952 0.0
C1435 C 0.47653 0.84979 0.44093 0.0
C1436 C 0.46129 0.84286 0.4314 0.0
C1437 C 0.44557 0.84021 0.43977 0.0
C1438 C 0.43138 0.83318 0.43091 0.0
C1439 C 0.43274 0.82881 0.41365 0.0
C1440 C 0.44826 0.83159 0.40518 0.0
C1441 C 0.46246 0.83866 0.41396 0.0
H1442 H 0.42176 0.82331 0.40683 0.0
H1443 H 0.56282 0.89328 0.48545 0.0
H1444 H 0.10225 0.3196 0.72626 0.0
H1445 H 0.08287 0.31281 0.7498 0.0
H1446 H 0.12482 0.29354 0.779 0.0
H1447 H 0.14441 0.30055 0.75558 0.0
H1448 H 0.09655 0.27221 0.78022 0.0
H1449 H 0.10921 0.33195 0.78858 0.0
H1450 H 0.11179 0.36215 0.78014 0.0
H1451 H 0.05796 0.36187 0.76891 0.0
H1452 H 0.0551 0.33157 0.77706 0.0
H1453 H 0.05335 0.2648 0.85881 0.0
H1454 H 0.07367 0.2739 0.83681 0.0
H1455 H 0.03276 0.29552 0.80787 0.0
H1456 H 0.01236 0.28674 0.83007 0.0
H1457 H 0.06089 0.31595 0.8068 0.0
H1458 H 0.04815 0.25635 0.79753 0.0
H1459 H 0.04526 0.22599 0.80539 0.0
H1460 H 0.09885 0.22584 0.81766 0.0
H1461 H 0.10201 0.25627 0.81008 0.0
C1462 C 0.10744 0.31411 0.73776 0.0
C1463 C 0.12496 0.31074 0.73902 0.0
C1464 C 0.09631 0.3102 0.7512 0.0
C1465 C 0.10241 0.30285 0.76626 0.0
C1466 C 0.11982 0.29922 0.76751 0.0
C1467 C 0.13099 0.30317 0.75406 0.0
C1468 C 0.09056 0.29875 0.78058 0.0
C1469 C 0.08895 0.28182 0.78621 0.0
C1470 C 0.0803 0.3112 0.78811 0.0
C1471 C 0.08197 0.32944 0.78328 0.0
C1472 C 0.09794 0.33829 0.78419 0.0
C1473 C 0.09946 0.35543 0.77947 0.0
C1474 C 0.08506 0.36391 0.77395 0.0
C1475 C 0.06911 0.35528 0.77317 0.0
C1476 C 0.06753 0.33812 0.77785 0.0
C1477 C 0.04867 0.27162 0.84784 0.0
C1478 C 0.0312 0.27495 0.84614 0.0
C1479 C 0.06031 0.27674 0.83522 0.0
C1480 C 0.05472 0.28511 0.8205 0.0
C1481 C 0.03738 0.28901 0.81907 0.0
C1482 C 0.02572 0.28397 0.83176 0.0
C1483 C 0.06688 0.2894 0.80646 0.0
C1484 C 0.06853 0.30634 0.80085 0.0
C1485 C 0.07713 0.27694 0.79889 0.0
C1486 C 0.07528 0.25863 0.8034 0.0
C1487 C 0.05929 0.24987 0.80203 0.0
C1488 C 0.05761 0.23265 0.80641 0.0
C1489 C 0.07185 0.22401 0.81207 0.0
C1490 C 0.08782 0.23256 0.8133 0.0
C1491 C 0.08957 0.24979 0.80895 0.0
H1492 H 0.07053 0.21067 0.81545 0.0
H1493 H 0.08625 0.37719 0.77031 0.0
H1494 H 0.56407 0.61299 0.50032 0.0
H1495 H 0.55587 0.63485 0.48013 0.0
H1496 H 0.50301 0.62701 0.49447 0.0
H1497 H 0.511 0.60452 0.51414 0.0
H1498 H 0.50521 0.63148 0.46102 0.0
H1499 H 0.52826 0.6606 0.51065 0.0
H1500 H 0.54986 0.6676 0.53295 0.0
H1501 H 0.5858 0.68384 0.49452 0.0
H1502 H 0.56448 0.6767 0.47197 0.0
H1503 H 0.47322 0.70929 0.43168 0.0
H1504 H 0.48251 0.68627 0.44994 0.0
H1505 H 0.53403 0.69345 0.43129 0.0
H1506 H 0.52491 0.71665 0.41299 0.0
H1507 H 0.53316 0.68915 0.46609 0.0
H1508 H 0.50912 0.66094 0.41648 0.0
H1509 H 0.48686 0.65467 0.39465 0.0
H1510 H 0.45207 0.63724 0.43362 0.0
H1511 H 0.47405 0.64367 0.45573 0.0
C1512 C 0.55065 0.61564 0.49898 0.0
C1513 C 0.53822 0.60699 0.50897 0.0
C1514 C 0.546 0.62833 0.48755 0.0
C1515 C 0.52885 0.63283 0.48599 0.0
C1516 C 0.51634 0.62386 0.49552 0.0
C1517 C 0.52096 0.61109 0.50689 0.0
C1518 C 0.52399 0.64712 0.47473 0.0
C1519 C 0.5112 0.64413 0.46227 0.0
C1520 C 0.53202 0.66359 0.47608 0.0
C1521 C 0.54483 0.66795 0.48962 0.0
C1522 C 0.54081 0.66554 0.50695 0.0
C1523 C 0.553 0.66955 0.51963 0.0
C1524 C 0.56921 0.67612 0.51515 0.0
C1525 C 0.57325 0.67873 0.49797 0.0
C1526 C 0.56111 0.67471 0.48523 0.0
C1527 C 0.48657 0.70609 0.43147 0.0
C1528 C 0.4983 0.71486 0.42077 0.0
C1529 C 0.49183 0.69283 0.44189 0.0
C1530 C 0.50892 0.68799 0.44182 0.0
C1531 C 0.52077 0.69694 0.4315 0.0
C1532 C 0.51551 0.71019 0.42101 0.0
C1533 C 0.51436 0.6735 0.45248 0.0
C1534 C 0.52724 0.67647 0.46481 0.0
C1535 C 0.50635 0.65706 0.45107 0.0
C1536 C 0.49319 0.65293 0.43778 0.0
C1537 C 0.49669 0.65588 0.42041 0.0
C1538 C 0.48413 0.65229 0.40799 0.0
C1539 C 0.46805 0.6456 0.41275 0.0
C1540 C 0.46453 0.64244 0.42995 0.0
C1541 C 0.47704 0.64604 0.44244 0.0
H1542 H 0.45833 0.64284 0.40311 0.0
H1543 H 0.57862 0.67922 0.52499 0.0
H1544 H 0.88871 0.83782 0.76656 0.0
H1545 H 0.90803 0.82766 0.74464 0.0
H1546 H 0.87958 0.77951 0.74265 0.0
H1547 H 0.86007 0.78964 0.7644 0.0
H1548 H 0.91359 0.77514 0.74526 0.0
H1549 H 0.87646 0.80864 0.71069 0.0
H1550 H 0.86182 0.83465 0.70243 0.0
H1551 H 0.91036 0.86126 0.69613 0.0
H1552 H 0.9253 0.83546 0.70459 0.0
H1553 H 0.94583 0.73716 0.67196 0.0
H1554 H 0.92724 0.75092 0.69215 0.0
H1555 H 0.95894 0.79702 0.68974 0.0
H1556 H 0.97765 0.78336 0.66914 0.0
H1557 H 0.92508 0.80397 0.69001 0.0
H1558 H 0.96234 0.77064 0.72349 0.0
H1559 H 0.97734 0.74487 0.73181 0.0
H1560 H 0.92916 0.71842 0.74068 0.0
H1561 H 0.91385 0.74396 0.73217 0.0
C1562 C 0.88636 0.82518 0.76126 0.0
C1563 C 0.87281 0.81455 0.76728 0.0
C1564 C 0.89747 0.81936 0.74874 0.0
C1565 C 0.89523 0.80284 0.74193 0.0
C1566 C 0.88161 0.79229 0.74777 0.0
C1567 C 0.87049 0.79808 0.76025 0.0
C1568 C 0.90741 0.79625 0.7292 0.0
C1569 C 0.91593 0.78134 0.7331 0.0
C1570 C 0.91095 0.80467 0.71357 0.0
C1571 C 0.90199 0.82017 0.70845 0.0
C1572 C 0.88401 0.82008 0.70769 0.0
C1573 C 0.87566 0.83478 0.70294 0.0
C1574 C 0.88516 0.84962 0.69881 0.0
C1575 C 0.90303 0.84977 0.69937 0.0
C1576 C 0.91144 0.83511 0.70412 0.0
C1577 C 0.94893 0.75024 0.67565 0.0
C1578 C 0.96341 0.75907 0.66902 0.0
C1579 C 0.93826 0.75809 0.68727 0.0
C1580 C 0.94186 0.7749 0.69274 0.0
C1581 C 0.95597 0.784 0.68577 0.0
C1582 C 0.96666 0.77616 0.67402 0.0
C1583 C 0.93099 0.78268 0.70596 0.0
C1584 C 0.92278 0.79783 0.70221 0.0
C1585 C 0.92778 0.77455 0.7218 0.0
C1586 C 0.93695 0.75919 0.72706 0.0
C1587 C 0.95494 0.75929 0.7271 0.0
C1588 C 0.9635 0.74473 0.73187 0.0
C1589 C 0.95421 0.73001 0.73674 0.0
C1590 C 0.93634 0.72983 0.73689 0.0
C1591 C 0.92771 0.74435 0.73212 0.0
H1592 H 0.96086 0.71874 0.74042 0.0
H1593 H 0.87867 0.86098 0.69514 0.0
H1594 H 0.04225 0.91361 0.53261 0.0
H1595 H 0.03549 0.89198 0.55418 0.0
H1596 H 0.99834 0.86785 0.52003 0.0
H1597 H 0.00478 0.88966 0.4985 0.0
H1598 H 0.98706 0.86816 0.55345 0.0
H1599 H 0.03735 0.85261 0.52273 0.0
H1600 H 0.06644 0.85725 0.51126 0.0
H1601 H 0.08634 0.86481 0.56211 0.0
H1602 H 0.05731 0.86046 0.57387 0.0
H1603 H 0.98281 0.78437 0.58861 0.0
H1604 H 0.98554 0.80974 0.57066 0.0
H1605 H 0.02558 0.83041 0.60377 0.0
H1606 H 0.02315 0.80495 0.62156 0.0
H1607 H 0.03509 0.83283 0.57172 0.0
H1608 H 0.98506 0.84693 0.60278 0.0
H1609 H 0.95599 0.8424 0.61432 0.0
H1610 H 0.93554 0.83767 0.5634 0.0
H1611 H 0.96454 0.84193 0.55154 0.0
C1612 C 0.03238 0.90392 0.52981 0.0
C1613 C 0.02414 0.9033 0.51378 0.0
C1614 C 0.02863 0.89148 0.54211 0.0
C1615 C 0.01658 0.87816 0.53863 0.0
C1616 C 0.00773 0.87797 0.52297 0.0
C1617 C 0.01152 0.89037 0.51063 0.0
C1618 C 0.01395 0.86389 0.55087 0.0
C1619 C 0.99751 0.86032 0.55735 0.0
C1620 C 0.02765 0.85388 0.5562 0.0
C1621 C 0.04513 0.8564 0.54916 0.0
C1622 C 0.04791 0.8554 0.53146 0.0
C1623 C 0.06439 0.85795 0.5249 0.0
C1624 C 0.07823 0.86137 0.53594 0.0
C1625 C 0.07561 0.86219 0.55357 0.0
C1626 C 0.05915 0.85967 0.56019 0.0
C1627 C 0.99206 0.7944 0.59218 0.0
C1628 C 0.00278 0.79262 0.6065 0.0
C1629 C 0.99356 0.80895 0.58194 0.0
C1630 C 0.00569 0.82209 0.58591 0.0
C1631 C 0.01615 0.82046 0.60042 0.0
C1632 C 0.01471 0.8059 0.61061 0.0
C1633 C 0.00817 0.83705 0.57444 0.0
C1634 C 0.02462 0.84072 0.568 0.0
C1635 C 0.99446 0.84714 0.56919 0.0
C1636 C 0.977 0.84459 0.57628 0.0
C1637 C 0.97439 0.84478 0.59404 0.0
C1638 C 0.95791 0.84229 0.60064 0.0
C1639 C 0.94393 0.83971 0.5896 0.0
C1640 C 0.94639 0.83965 0.57194 0.0
C1641 C 0.96284 0.84212 0.56527 0.0
H1642 H 0.93119 0.83778 0.59474 0.0
H1643 H 0.09098 0.86334 0.53084 0.0
H1644 H 0.13529 0.7267 0.77755 0.0
H1645 H 0.10917 0.72978 0.76065 0.0
H1646 H 0.12504 0.69041 0.72615 0.0
H1647 H 0.15087 0.68693 0.74339 0.0
H1648 H 0.10441 0.74009 0.73047 0.0
H1649 H 0.09152 0.67027 0.7068 0.0
H1650 H 0.09464 0.64098 0.71733 0.0
H1651 H 0.09273 0.65904 0.76914 0.0
H1652 H 0.08937 0.6884 0.75892 0.0
H1653 H 0.05056 0.7409 0.65819 0.0
H1654 H 0.07362 0.73619 0.67857 0.0
H1655 H 0.03858 0.70699 0.7104 0.0
H1656 H 0.0156 0.71105 0.68965 0.0
H1657 H 0.06678 0.69184 0.70997 0.0
H1658 H 0.05267 0.7494 0.72018 0.0
H1659 H 0.04697 0.77922 0.71302 0.0
H1660 H 0.09825 0.78657 0.69443 0.0
H1661 H 0.10419 0.75672 0.70128 0.0
C1662 C 0.13309 0.71861 0.76643 0.0
C1663 C 0.14507 0.70654 0.7618 0.0
C1664 C 0.11818 0.72039 0.75676 0.0
C1665 C 0.11498 0.71025 0.74215 0.0
C1666 C 0.12695 0.69813 0.73755 0.0
C1667 C 0.14174 0.69617 0.74739 0.0
C1668 C 0.09955 0.71289 0.73133 0.0
C1669 C 0.09617 0.72952 0.72605 0.0
C1670 C 0.08849 0.69921 0.72581 0.0
C1671 C 0.09036 0.68156 0.73207 0.0
C1672 C 0.0917 0.66798 0.72043 0.0
C1673 C 0.09352 0.65137 0.72635 0.0
C1674 C 0.09394 0.64816 0.74389 0.0
C1675 C 0.09248 0.66155 0.75555 0.0
C1676 C 0.09064 0.67818 0.7497 0.0
C1677 C 0.04773 0.73353 0.66956 0.0
C1678 C 0.03119 0.72644 0.67233 0.0
C1679 C 0.06093 0.7309 0.68126 0.0
C1680 C 0.05783 0.72149 0.69624 0.0
C1681 C 0.04134 0.71431 0.69898 0.0
C1682 C 0.02819 0.71669 0.68712 0.0
C1683 C 0.07183 0.71899 0.70891 0.0
C1684 C 0.07497 0.70241 0.71448 0.0
C1685 C 0.08232 0.73279 0.7152 0.0
C1686 C 0.07883 0.75078 0.71111 0.0
C1687 C 0.0627 0.75734 0.71446 0.0
C1688 C 0.05943 0.77425 0.71047 0.0
C1689 C 0.07223 0.78477 0.70324 0.0
C1690 C 0.08834 0.7784 0.70002 0.0
C1691 C 0.09168 0.76149 0.70397 0.0
H1692 H 0.06967 0.79786 0.70016 0.0
H1693 H 0.09536 0.63529 0.74845 0.0
H1694 H 0.01861 0.59165 0.52145 0.0
H1695 H 0.02151 0.61828 0.53767 0.0
H1696 H 0.96709 0.62453 0.53361 0.0
H1697 H 0.96412 0.598 0.51701 0.0
H1698 H 0.98548 0.65481 0.52875 0.0
H1699 H 0.98336 0.60959 0.56972 0.0
H1700 H 0.99185 0.58268 0.58286 0.0
H1701 H 0.04273 0.60378 0.59109 0.0
H1702 H 0.03461 0.63074 0.57776 0.0
H1703 H 0.97705 0.71513 0.59591 0.0
H1704 H 0.97505 0.69086 0.57615 0.0
H1705 H 0.02838 0.6815 0.58532 0.0
H1706 H 0.03011 0.70548 0.60562 0.0
H1707 H 0.01106 0.65295 0.58682 0.0
H1708 H 0.01273 0.69864 0.54669 0.0
H1709 H 0.00406 0.72562 0.53383 0.0
H1710 H 0.95359 0.70394 0.52449 0.0
H1711 H 0.9619 0.67688 0.53749 0.0
C1712 C 0.00728 0.59881 0.52374 0.0
C1713 C 0.99111 0.59266 0.51794 0.0
C1714 C 0.00894 0.61397 0.53316 0.0
C1715 C 0.99449 0.6233 0.53703 0.0
C1716 C 0.97841 0.6175 0.53082 0.0
C1717 C 0.97671 0.60228 0.52144 0.0
C1718 C 0.99615 0.63879 0.54801 0.0
C1719 C 0.99083 0.65439 0.54156 0.0
C1720 C 0.0035 0.63832 0.56456 0.0
C1721 C 0.00843 0.62211 0.57256 0.0
C1722 C 0.99641 0.60843 0.57418 0.0
C1723 C 1.00114 0.59318 0.58169 0.0
C1724 C 0.01783 0.5915 0.58775 0.0
C1725 C 0.02981 0.60509 0.58636 0.0
C1726 C 0.02515 0.62036 0.57883 0.0
C1727 C 0.98827 0.70776 0.59376 0.0
C1728 C 0.00354 0.71166 0.60268 0.0
C1729 C 0.98722 0.69407 0.58226 0.0
C1730 C 0.0016 0.68433 0.57912 0.0
C1731 C 0.01708 0.68872 0.58758 0.0
C1732 C 0.01809 0.7024 0.59914 0.0
C1733 C 1.00025 0.66907 0.56772 0.0
C1734 C 0.00564 0.65346 0.57407 0.0
C1735 C 0.9929 0.66956 0.55112 0.0
C1736 C 0.9879 0.68578 0.54319 0.0
C1737 C 0.99975 0.69966 0.54199 0.0
C1738 C 0.9949 0.71496 0.53466 0.0
C1739 C 0.97827 0.7165 0.52838 0.0
C1740 C 0.96647 0.70273 0.52937 0.0
C1741 C 0.97124 0.6874 0.5367 0.0
H1742 H 0.97455 0.72836 0.52271 0.0
H1743 H 0.02147 0.57968 0.59357 0.0
H1744 H 0.75108 0.8583 0.21701 0.0
H1745 H 0.77391 0.87941 0.22387 0.0
H1746 H 0.75064 0.91566 0.1907 0.0
H1747 H 0.72725 0.89507 0.18443 0.0
H1748 H 0.78718 0.91164 0.18603 0.0
H1749 H 0.74602 0.92235 0.22985 0.0
H1750 H 0.72658 0.91433 0.2534 0.0
H1751 H 0.76897 0.89666 0.28265 0.0
H1752 H 0.78864 0.90434 0.25915 0.0
H1753 H 0.84373 0.9814 0.20935 0.0
H1754 H 0.81994 0.96209 0.20104 0.0
H1755 H 0.82587 0.93443 0.24821 0.0
H1756 H 0.84728 0.95578 0.25763 0.0
H1757 H 0.7962 0.93482 0.24456 0.0
H1758 H 0.83611 0.91769 0.19968 0.0
H1759 H 0.85602 0.9226 0.17553 0.0
H1760 H 0.81747 0.94946 0.14862 0.0
H1761 H 0.79742 0.94451 0.1725 0.0
C1762 C 0.7506 0.87082 0.21135 0.0
C1763 C 0.73721 0.87487 0.20012 0.0
C1764 C 0.76376 0.88284 0.21521 0.0
C1765 C 0.76393 0.89908 0.20779 0.0
C1766 C 0.75077 0.90315 0.19647 0.0
C1767 C 0.73747 0.89126 0.19282 0.0
C1768 C 0.7779 0.91179 0.21181 0.0
C1769 C 0.78917 0.91684 0.1988 0.0
C1770 C 0.78057 0.91831 0.22849 0.0
C1771 C 0.76877 0.91376 0.24266 0.0
C1772 C 0.75118 0.91661 0.24124 0.0
C1773 C 0.74012 0.91216 0.25459 0.0
C1774 C 0.74653 0.90495 0.26949 0.0
C1775 C 0.76402 0.90222 0.27109 0.0
C1776 C 0.77513 0.90664 0.25776 0.0
C1777 C 0.84002 0.97103 0.21781 0.0
C1778 C 0.84814 0.96942 0.23374 0.0
C1779 C 0.82655 0.95973 0.21292 0.0
C1780 C 0.82129 0.9461 0.22357 0.0
C1781 C 0.82955 0.94458 0.23951 0.0
C1782 C 0.84229 0.95648 0.24475 0.0
C1783 C 0.80641 0.93426 0.21893 0.0
C1784 C 0.79464 0.92952 0.2318 0.0
C1785 C 0.80348 0.92775 0.20214 0.0
C1786 C 0.81552 0.93104 0.18796 0.0
C1787 C 0.83208 0.92483 0.18868 0.0
C1788 C 0.84331 0.92755 0.17504 0.0
C1789 C 0.83808 0.93651 0.16066 0.0
C1790 C 0.82154 0.9426 0.1598 0.0
C1791 C 0.81022 0.93977 0.17334 0.0
H1792 H 0.8468 0.93863 0.15013 0.0
H1793 H 0.73795 0.90151 0.27982 0.0
H1794 H 0.76105 0.14418 0.32331 0.0
H1795 H 0.77893 0.11926 0.32194 0.0
H1796 H 0.76973 0.11537 0.26763 0.0
H1797 H 0.75148 0.13988 0.269 0.0
H1798 H 0.76977 0.08436 0.2814 0.0
H1799 H 0.8059 0.13559 0.2836 0.0
H1800 H 0.81691 0.16283 0.29602 0.0
H1801 H 0.83195 0.13695 0.3416 0.0
H1802 H 0.82082 0.10957 0.32952 0.0
H1803 H 0.8619 0.05931 0.26243 0.0
H1804 H 0.84157 0.08053 0.27088 0.0
H1805 H 0.81139 0.04177 0.29709 0.0
H1806 H 0.83161 0.0203 0.28837 0.0
H1807 H 0.8303 0.09299 0.29993 0.0
H1808 H 0.76892 0.05073 0.29217 0.0
H1809 H 0.75867 0.02476 0.27674 0.0
H1810 H 0.79549 0.03478 0.23722 0.0
H1811 H 0.8058 0.06091 0.25231 0.0
C1812 C 0.76256 0.1378 0.31114 0.0
C1813 C 0.75498 0.14414 0.29623 0.0
C1814 C 0.7729 0.12364 0.31035 0.0
C1815 C 0.77589 0.11558 0.29464 0.0
C1816 C 0.76768 0.12139 0.2799 0.0
C1817 C 0.75736 0.13552 0.28067 0.0
C1818 C 0.78831 0.10175 0.29323 0.0
C1819 C 0.78296 0.08619 0.28562 0.0
C1820 C 0.8056 0.10417 0.2985 0.0
C1821 C 0.81236 0.12058 0.30574 0.0
C1822 C 0.81144 0.13573 0.29632 0.0
C1823 C 0.81772 0.15119 0.30329 0.0
C1824 C 0.82508 0.15163 0.31962 0.0
C1825 C 0.82622 0.1366 0.32898 0.0
C1826 C 0.81994 0.12111 0.32208 0.0
C1827 C 0.85104 0.05529 0.27014 0.0
C1828 C 0.84831 0.03808 0.27462 0.0
C1829 C 0.83944 0.06748 0.27501 0.0
C1830 C 0.82482 0.06275 0.28445 0.0
C1831 C 0.82243 0.04569 0.28959 0.0
C1832 C 0.83405 0.03345 0.28467 0.0
C1833 C 0.81178 0.07561 0.28805 0.0
C1834 C 0.81703 0.09101 0.29604 0.0
C1835 C 0.79448 0.07319 0.28278 0.0
C1836 C 0.78825 0.05764 0.27348 0.0
C1837 C 0.77479 0.0474 0.28017 0.0
C1838 C 0.76897 0.03266 0.27148 0.0
C1839 C 0.77647 0.02809 0.25605 0.0
C1840 C 0.78974 0.03829 0.24922 0.0
C1841 C 0.79559 0.05306 0.25784 0.0
H1842 H 0.77196 0.01666 0.24936 0.0
H1843 H 0.82993 0.16361 0.32499 0.0
H1844 H 0.4124 0.99478 0.01529 0.0
H1845 H 0.38467 0.97948 0.01837 0.0
H1846 H 0.3853 0.96577 0.96496 0.0
H1847 H 0.41304 0.98103 0.9618 0.0
H1848 H 0.3535 0.97784 0.97635 0.0
H1849 H 0.39563 0.93723 0.993 0.0
H1850 H 0.41996 0.92751 0.0101 0.0
H1851 H 0.39113 0.93352 0.0561 0.0
H1852 H 0.3667 0.94351 0.03928 0.0
H1853 H 0.29349 0.91058 0.96642 0.0
H1854 H 0.31898 0.92913 0.9678 0.0
H1855 H 0.316 0.93031 0.02281 0.0
H1856 H 0.2905 0.91106 0.02158 0.0
H1857 H 0.34789 0.927 0.01364 0.0
H1858 H 0.30495 0.96513 0.99788 0.0
H1859 H 0.28034 0.97557 0.9817 0.0
H1860 H 0.30987 0.97584 0.93563 0.0
H1861 H 0.33459 0.96516 0.95148 0.0
C1862 C 0.40654 0.98864 0.00417 0.0
C1863 C 0.41489 0.98909 0.9883 0.0
C1864 C 0.39076 0.97982 0.00598 0.0
C1865 C 0.38298 0.97142 0.99191 0.0
C1866 C 0.3911 0.97217 0.97597 0.0
C1867 C 0.40697 0.9808 0.97421 0.0
C1868 C 0.36651 0.96159 0.9938 0.0
C1869 C 0.35227 0.96664 0.98439 0.0
C1870 C 0.36477 0.94739 0.00481 0.0
C1871 C 0.37942 0.9413 0.0149 0.0
C1872 C 0.39453 0.93662 0.00677 0.0
C1873 C 0.40833 0.93103 0.01641 0.0
C1874 C 0.40711 0.92995 0.03418 0.0
C1875 C 0.39207 0.9344 0.04234 0.0
C1876 C 0.37824 0.94001 0.03276 0.0
C1877 C 0.2981 0.91481 0.97888 0.0
C1878 C 0.28979 0.90939 0.99391 0.0
C1879 C 0.31271 0.92555 0.97962 0.0
C1880 C 0.31925 0.93149 0.99538 0.0
C1881 C 0.31113 0.926 0.01048 0.0
C1882 C 0.29654 0.91503 0.00976 0.0
C1883 C 0.33485 0.943 0.99587 0.0
C1884 C 0.34896 0.93831 0.00575 0.0
C1885 C 0.33641 0.9577 0.98546 0.0
C1886 C 0.3216 0.96423 0.97586 0.0
C1887 C 0.30617 0.9673 0.98427 0.0
C1888 C 0.2922 0.97328 0.97516 0.0
C1889 C 0.29354 0.97634 0.95764 0.0
C1890 C 0.30886 0.97346 0.9492 0.0
C1891 C 0.32286 0.96747 0.95825 0.0
H1892 H 0.28271 0.98096 0.95061 0.0
H1893 H 0.4178 0.92562 0.04162 0.0
H1894 H 0.24788 0.35992 0.29482 0.0
H1895 H 0.22494 0.37892 0.28725 0.0
H1896 H 0.25191 0.42056 0.31318 0.0
H1897 H 0.27488 0.40172 0.32072 0.0
H1898 H 0.21863 0.42006 0.32093 0.0
H1899 H 0.25178 0.41706 0.26949 0.0
H1900 H 0.26586 0.40265 0.24562 0.0
H1901 H 0.21741 0.38058 0.22909 0.0
H1902 H 0.20307 0.39468 0.25302 0.0
H1903 H 0.17708 0.4908 0.28547 0.0
H1904 H 0.19727 0.46959 0.29461 0.0
H1905 H 0.16773 0.4304 0.26756 0.0
H1906 H 0.14758 0.4516 0.25818 0.0
H1907 H 0.201 0.42838 0.26064 0.0
H1908 H 0.1676 0.43266 0.31134 0.0
H1909 H 0.15362 0.44728 0.33513 0.0
H1910 H 0.20248 0.46708 0.35306 0.0
H1911 H 0.21674 0.45278 0.32923 0.0
C1912 C 0.249 0.37316 0.2988 0.0
C1913 C 0.26325 0.37927 0.30839 0.0
C1914 C 0.23585 0.384 0.29448 0.0
C1915 C 0.23673 0.40123 0.29954 0.0
C1916 C 0.25088 0.40732 0.3092 0.0
C1917 C 0.264 0.3965 0.31354 0.0
C1918 C 0.223 0.41297 0.29475 0.0
C1919 C 0.2149 0.42201 0.30773 0.0
C1920 C 0.2178 0.41522 0.27756 0.0
C1921 C 0.22639 0.40677 0.26315 0.0
C1922 C 0.24415 0.40902 0.26085 0.0
C1923 C 0.25217 0.40093 0.24729 0.0
C1924 C 0.24254 0.39067 0.23588 0.0
C1925 C 0.22486 0.38851 0.23796 0.0
C1926 C 0.21678 0.39655 0.25151 0.0
C1927 C 0.17476 0.47763 0.28161 0.0
C1928 C 0.1607 0.4729 0.2711 0.0
C1929 C 0.18631 0.4655 0.28689 0.0
C1930 C 0.18398 0.44834 0.28189 0.0
C1931 C 0.16981 0.44354 0.27159 0.0
C1932 C 0.15825 0.45568 0.26629 0.0
C1933 C 0.1967 0.43558 0.28682 0.0
C1934 C 0.20463 0.42635 0.27386 0.0
C1935 C 0.20175 0.43317 0.30402 0.0
C1936 C 0.19322 0.44176 0.3184 0.0
C1937 C 0.17535 0.44024 0.32028 0.0
C1938 C 0.16738 0.44845 0.33379 0.0
C1939 C 0.17715 0.45814 0.34558 0.0
C1940 C 0.19493 0.45959 0.34391 0.0
C1941 C 0.20296 0.45142 0.33041 0.0
H1942 H 0.17096 0.46448 0.35603 0.0
H1943 H 0.24877 0.38442 0.22539 0.0
H1944 H 0.10241 0.00288 0.50915 0.0
H1945 H 0.12673 0.02233 0.51639 0.0
H1946 H 0.13847 0.02767 0.46287 0.0
H1947 H 0.1143 0.00822 0.45558 0.0
H1948 H 0.16703 0.0213 0.48284 0.0
H1949 H 0.1199 0.05911 0.48287 0.0
H1950 H 0.09172 0.06908 0.4916 0.0
H1951 H 0.1088 0.07214 0.54382 0.0
H1952 H 0.13702 0.06196 0.53542 0.0
H1953 H 0.22341 0.09313 0.47998 0.0
H1954 H 0.20059 0.07119 0.47712 0.0
H1955 H 0.18857 0.07708 0.53056 0.0
H1956 H 0.21107 0.09973 0.53314 0.0
H1957 H 0.16051 0.076 0.51362 0.0
H1958 H 0.20836 0.04057 0.51345 0.0
H1959 H 0.23668 0.03077 0.505 0.0
H1960 H 0.21869 0.02308 0.45348 0.0
H1961 H 0.19031 0.03306 0.46157 0.0
C1962 C 0.11018 0.00822 0.49895 0.0
C1963 C 0.1064 0.00409 0.48179 0.0
C1964 C 0.12401 0.01938 0.50309 0.0
C1965 C 0.13437 0.02648 0.49016 0.0
C1966 C 0.13064 0.02233 0.47304 0.0
C1967 C 0.11674 0.01134 0.46889 0.0
C1968 C 0.14926 0.03808 0.49439 0.0
C1969 C 0.16562 0.03338 0.48938 0.0
C1970 C 0.14746 0.05353 0.50346 0.0
C1971 C 0.13048 0.05955 0.50855 0.0
C1972 C 0.11758 0.06173 0.49624 0.0
C1973 C 0.10162 0.06746 0.50112 0.0
C1974 C 0.09845 0.07118 0.51826 0.0
C1975 C 0.11126 0.06922 0.53055 0.0
C1976 C 0.12724 0.06347 0.52574 0.0
C1977 C 0.21581 0.08976 0.49107 0.0
C1978 C 0.21847 0.09846 0.5066 0.0
C1979 C 0.20295 0.07701 0.48953 0.0
C1980 C 0.19286 0.07229 0.50366 0.0
C1981 C 0.19609 0.08051 0.51944 0.0
C1982 C 0.20893 0.0934 0.52094 0.0
C1983 C 0.17836 0.05955 0.5016 0.0
C1984 C 0.16204 0.06395 0.5071 0.0
C1985 C 0.18021 0.0438 0.49301 0.0
C1986 C 0.19723 0.03767 0.4881 0.0
C1987 C 0.21047 0.03689 0.50029 0.0
C1988 C 0.22653 0.03129 0.49557 0.0
C1989 C 0.22949 0.02633 0.47871 0.0
C1990 C 0.21638 0.02693 0.46654 0.0
C1991 C 0.20029 0.03253 0.47119 0.0
H1992 H 0.24194 0.022 0.47508 0.0
H1993 H 0.08609 0.07562 0.52202 0.0
H1994 H 0.78906 0.11253 0.7063 0.0
H1995 H 0.76466 0.09401 0.71488 0.0
H1996 H 0.72994 0.13164 0.69733 0.0
H1997 H 0.75426 0.15019 0.68871 0.0
H1998 H 0.72314 0.11952 0.73041 0.0
H1999 H 0.73411 0.09718 0.67415 0.0
H2000 H 0.75202 0.08484 0.65181 0.0
H2001 H 0.76133 0.04196 0.68396 0.0
H2002 H 0.74365 0.05418 0.70661 0.0
H2003 H 0.65746 0.04228 0.71016 0.0
H2004 H 0.67919 0.06427 0.70295 0.0
H2005 H 0.6902 0.07182 0.75666 0.0
H2006 H 0.66716 0.05138 0.76372 0.0
H2007 H 0.71025 0.06183 0.7066 0.0
H2008 H 0.71043 0.09435 0.76556 0.0
H2009 H 0.69796 0.1121 0.78803 0.0
H2010 H 0.67018 0.13906 0.74993 0.0
H2011 H 0.68173 0.12071 0.72737 0.0
C2012 C 0.77621 0.11684 0.70429 0.0
C2013 C 0.77355 0.13282 0.69686 0.0
C2014 C 0.76231 0.10621 0.70908 0.0
C2015 C 0.7455 0.11143 0.70666 0.0
C2016 C 0.74281 0.12737 0.69926 0.0
C2017 C 0.7567 0.13791 0.69428 0.0
C2018 C 0.73069 0.10058 0.71239 0.0
C2019 C 0.72016 0.10692 0.72512 0.0
C2020 C 0.72711 0.08406 0.70576 0.0
C2021 C 0.7377 0.07668 0.69214 0.0
C2022 C 0.7401 0.0852 0.67652 0.0
C2023 C 0.75018 0.07821 0.66378 0.0
C2024 C 0.75785 0.06265 0.66648 0.0
C2025 C 0.7554 0.05403 0.6819 0.0
C2026 C 0.74534 0.06097 0.69468 0.0
C2027 C 0.66412 0.0492 0.72037 0.0
C2028 C 0.66045 0.04543 0.73746 0.0
C2029 C 0.67664 0.06173 0.7163 0.0
C2030 C 0.68644 0.07018 0.72921 0.0
C2031 C 0.68254 0.06643 0.74635 0.0
C2032 C 0.66947 0.05442 0.75042 0.0
C2033 C 0.70192 0.08093 0.72439 0.0
C2034 C 0.71289 0.07447 0.71186 0.0
C2035 C 0.70602 0.09736 0.73134 0.0
C2036 C 0.69619 0.10556 0.74492 0.0
C2037 C 0.70105 0.10355 0.76209 0.0
C2038 C 0.69426 0.1138 0.77482 0.0
C2039 C 0.68317 0.12662 0.77043 0.0
C2040 C 0.67864 0.12901 0.75333 0.0
C2041 C 0.68501 0.11844 0.74061 0.0
H2042 H 0.67813 0.13474 0.78025 0.0
H2043 H 0.76565 0.05726 0.6566 0.0
H2044 H 0.41888 0.0399 0.5434 0.0
H2045 H 0.3937 0.05701 0.54006 0.0
H2046 H 0.38362 0.03412 0.49062 0.0
H2047 H 0.40929 0.01753 0.4935 0.0
H2048 H 0.37955 0.06718 0.48887 0.0
H2049 H 0.35964 0.02297 0.52641 0.0
H2050 H 0.36003 0.00445 0.55175 0.0
H2051 H 0.35714 0.04825 0.58454 0.0
H2052 H 0.35696 0.06707 0.55939 0.0
H2053 H 0.29333 0.0946 0.48182 0.0
H2054 H 0.31903 0.07783 0.48393 0.0
H2055 H 0.33324 0.1039 0.53083 0.0
H2056 H 0.30762 0.12074 0.5288 0.0
H2057 H 0.33483 0.06894 0.53345 0.0
H2058 H 0.35463 0.11301 0.49515 0.0
H2059 H 0.35336 0.13091 0.4694 0.0
H2060 H 0.35549 0.08636 0.43754 0.0
H2061 H 0.35651 0.06815 0.46311 0.0
C2062 C 0.41139 0.03854 0.53175 0.0
C2063 C 0.41619 0.02728 0.51873 0.0
C2064 C 0.39685 0.04823 0.52994 0.0
C2065 C 0.38658 0.04675 0.51516 0.0
C2066 C 0.39128 0.03547 0.50216 0.0
C2067 C 0.40588 0.02584 0.50393 0.0
C2068 C 0.37117 0.05719 0.51315 0.0
C2069 C 0.36966 0.06735 0.49852 0.0
C2070 C 0.35836 0.05772 0.52585 0.0
C2071 C 0.35846 0.04644 0.54101 0.0
C2072 C 0.35923 0.02867 0.53903 0.0
C2073 C 0.35938 0.01811 0.55336 0.0
C2074 C 0.35866 0.02517 0.56975 0.0
C2075 C 0.35772 0.0428 0.57184 0.0
C2076 C 0.35758 0.05342 0.55755 0.0
C2077 C 0.30202 0.09689 0.49249 0.0
C2078 C 0.29844 0.10903 0.50513 0.0
C2079 C 0.31672 0.08731 0.49367 0.0
C2080 C 0.32809 0.08963 0.50752 0.0
C2081 C 0.32464 0.10188 0.52004 0.0
C2082 C 0.31003 0.11155 0.51881 0.0
C2083 C 0.3433 0.07894 0.50926 0.0
C2084 C 0.34474 0.06872 0.52382 0.0
C2085 C 0.35595 0.07826 0.49644 0.0
C2086 C 0.35547 0.0892 0.48105 0.0
C2087 C 0.35468 0.10701 0.48265 0.0
C2088 C 0.35403 0.11722 0.46809 0.0
C2089 C 0.35429 0.10977 0.45185 0.0
C2090 C 0.35526 0.09211 0.45013 0.0
C2091 C 0.35589 0.08184 0.46465 0.0
H2092 H 0.35378 0.1177 0.44059 0.0
H2093 H 0.35878 0.01698 0.58083 0.0
H2094 H 0.60619 0.50628 0.51752 0.0
H2095 H 0.62659 0.48486 0.50937 0.0
H2096 H 0.63611 0.47433 0.56256 0.0
H2097 H 0.61582 0.49578 0.57077 0.0
H2098 H 0.66532 0.47792 0.54622 0.0
H2099 H 0.6126 0.44619 0.5364 0.0
H2100 H 0.58366 0.4406 0.52445 0.0
H2101 H 0.60377 0.44352 0.47358 0.0
H2102 H 0.63281 0.44936 0.48523 0.0
H2103 H 0.71337 0.40395 0.53321 0.0
H2104 H 0.6908 0.42297 0.54156 0.0
H2105 H 0.6829 0.43619 0.48876 0.0
H2106 H 0.7053 0.41712 0.48024 0.0
H2107 H 0.65264 0.43071 0.50514 0.0
H2108 H 0.70522 0.46309 0.51516 0.0
H2109 H 0.73414 0.46854 0.52722 0.0
H2110 H 0.71405 0.46418 0.57801 0.0
H2111 H 0.68503 0.45846 0.56624 0.0
C2112 C 0.61243 0.49922 0.52747 0.0
C2113 C 0.60941 0.50279 0.5448 0.0
C2114 C 0.62411 0.48697 0.5228 0.0
C2115 C 0.63285 0.47787 0.53535 0.0
C2116 C 0.62961 0.48122 0.55264 0.0
C2117 C 0.61802 0.49351 0.55732 0.0
C2118 C 0.64587 0.46537 0.53051 0.0
C2119 C 0.66244 0.46744 0.53744 0.0
C2120 C 0.6423 0.45191 0.51874 0.0
C2121 C 0.62485 0.44838 0.51169 0.0
C2122 C 0.61083 0.44578 0.52267 0.0
C2123 C 0.59441 0.44254 0.51595 0.0
C2124 C 0.59187 0.44175 0.49827 0.0
C2125 C 0.60575 0.44416 0.48727 0.0
C2126 C 0.62219 0.44741 0.49393 0.0
C2127 C 0.70683 0.41085 0.52334 0.0
C2128 C 0.71129 0.40904 0.50604 0.0
C2129 C 0.69395 0.42178 0.52815 0.0
C2130 C 0.68526 0.43115 0.5158 0.0
C2131 C 0.68943 0.42911 0.49852 0.0
C2132 C 0.70233 0.41824 0.49369 0.0
C2133 C 0.67202 0.44328 0.52089 0.0
C2134 C 0.65545 0.44116 0.51397 0.0
C2135 C 0.67557 0.45668 0.53271 0.0
C2136 C 0.69299 0.46017 0.53981 0.0
C2137 C 0.70699 0.46316 0.5289 0.0
C2138 C 0.7234 0.46632 0.53568 0.0
C2139 C 0.72594 0.46666 0.55337 0.0
C2140 C 0.71207 0.46388 0.56431 0.0
C2141 C 0.69564 0.46069 0.55759 0.0
H2142 H 0.73865 0.46911 0.5586 0.0
H2143 H 0.57915 0.43924 0.49309 0.0
H2144 H 0.7145 0.22687 0.38453 0.0
H2145 H 0.71503 0.24461 0.41046 0.0
H2146 H 0.71495 0.28987 0.37933 0.0
H2147 H 0.7136 0.27218 0.35359 0.0
H2148 H 0.73678 0.26559 0.42299 0.0
H2149 H 0.69795 0.32297 0.39891 0.0
H2150 H 0.67334 0.32812 0.38003 0.0
H2151 H 0.65458 0.27651 0.38702 0.0
H2152 H 0.67894 0.2711 0.40615 0.0
H2153 H 0.75918 0.33957 0.46928 0.0
H2154 H 0.75251 0.31762 0.44784 0.0
H2155 H 0.69965 0.31595 0.46362 0.0
H2156 H 0.70631 0.33867 0.48467 0.0
H2157 H 0.70045 0.31542 0.43083 0.0
H2158 H 0.72778 0.28333 0.4734 0.0
H2159 H 0.75004 0.27651 0.49447 0.0
H2160 H 0.78711 0.2739 0.4544 0.0
H2161 H 0.76513 0.28094 0.43311 0.0
C2162 C 0.71442 0.24061 0.38331 0.0
C2163 C 0.71383 0.24817 0.3671 0.0
C2164 C 0.71475 0.25075 0.3981 0.0
C2165 C 0.71473 0.26863 0.39694 0.0
C2166 C 0.71441 0.27614 0.38068 0.0
C2167 C 0.71373 0.26602 0.36595 0.0
C2168 C 0.7159 0.2795 0.41262 0.0
C2169 C 0.72873 0.2764 0.42473 0.0
C2170 C 0.70516 0.29342 0.41524 0.0
C2171 C 0.69037 0.29659 0.40384 0.0
C2172 C 0.68854 0.31273 0.39648 0.0
C2173 C 0.67464 0.3157 0.38572 0.0
C2174 C 0.66244 0.30263 0.38228 0.0
C2175 C 0.66408 0.2866 0.38964 0.0
C2176 C 0.67794 0.28357 0.40043 0.0
C2177 C 0.7461 0.33463 0.468 0.0
C2178 C 0.73311 0.34117 0.47809 0.0
C2179 C 0.74234 0.32187 0.45596 0.0
C2180 C 0.72559 0.31495 0.45416 0.0
C2181 C 0.71266 0.32112 0.46469 0.0
C2182 C 0.71643 0.33404 0.4767 0.0
C2183 C 0.72161 0.30176 0.44086 0.0
C2184 C 0.70832 0.30446 0.42918 0.0
C2185 C 0.73155 0.28717 0.43893 0.0
C2186 C 0.74481 0.28275 0.45167 0.0
C2187 C 0.7407 0.28139 0.46909 0.0
C2188 C 0.75327 0.27748 0.48107 0.0
C2189 C 0.76998 0.2748 0.47578 0.0
C2190 C 0.77416 0.27598 0.45848 0.0
C2191 C 0.76164 0.2799 0.44644 0.0
H2192 H 0.7797 0.27178 0.48508 0.0
H2193 H 0.65169 0.30495 0.37394 0.0
H2194 H 0.50918 0.03297 0.90383 0.0
H2195 H 0.52391 0.02854 0.87681 0.0
H2196 H 0.55474 0.99079 0.90057 0.0
H2197 H 0.53995 0.99501 0.9276 0.0
H2198 H 0.57413 0.01251 0.88163 0.0
H2199 H 0.52241 0.97882 0.87329 0.0
H2200 H 0.4912 0.97298 0.87276 0.0
H2201 H 0.48544 0.01158 0.8347 0.0
H2202 H 0.51659 0.01783 0.83518 0.0
H2203 H 0.611 0.98949 0.80219 0.0
H2204 H 0.59431 0.98592 0.8285 0.0
H2205 H 0.56062 0.02486 0.81183 0.0
H2206 H 0.57703 0.02841 0.78566 0.0
H2207 H 0.5429 0.99904 0.82755 0.0
H2208 H 0.59348 0.03483 0.83802 0.0
H2209 H 0.62455 0.04149 0.83832 0.0
H2210 H 0.63221 0.99968 0.87236 0.0
H2211 H 0.60117 0.99261 0.87202 0.0
C2212 C 0.51895 0.02358 0.90328 0.0
C2213 C 0.52335 0.01435 0.91793 0.0
C2214 C 0.52739 0.02107 0.88781 0.0
C2215 C 0.54034 0.0092 0.88659 0.0
C2216 C 0.54482 1.00003 0.90119 0.0
C2217 C 0.53639 0.00252 0.91667 0.0
C2218 C 0.54945 0.00665 0.87019 0.0
C2219 C 0.56732 0.00924 0.86988 0.0
C2220 C 0.54057 0.00267 0.85476 0.0
C2221 C 0.52183 0.99889 0.85437 0.0
C2222 C 0.51447 0.98615 0.8649 0.0
C2223 C 0.49679 0.98275 0.86459 0.0
C2224 C 0.48634 0.99192 0.85373 0.0
C2225 C 0.49355 0.00449 0.84312 0.0
C2226 C 0.51122 0.00796 0.84339 0.0
C2227 C 0.59982 0.99702 0.80399 0.0
C2228 C 0.59545 0.00934 0.7919 0.0
C2229 C 0.59036 0.99504 0.81907 0.0
C2230 C 0.57634 0.0053 0.82223 0.0
C2231 C 0.57139 0.01684 0.8097 0.0
C2232 C 0.58086 0.0189 0.79476 0.0
C2233 C 0.56751 0.00506 0.839 0.0
C2234 C 0.5497 0.00203 0.83938 0.0
C2235 C 0.57642 0.00873 0.85448 0.0
C2236 C 0.59504 0.01306 0.85483 0.0
C2237 C 0.6018 0.02698 0.84546 0.0
C2238 C 0.6194 0.03084 0.84565 0.0
C2239 C 0.63036 0.02098 0.85531 0.0
C2240 C 0.62372 0.00728 0.86485 0.0
C2241 C 0.60612 0.00334 0.86467 0.0
H2242 H 0.64398 0.02399 0.85545 0.0
H2243 H 0.47265 0.98927 0.85351 0.0
H2244 H 0.28068 0.26708 0.36158 0.0
H2245 H 0.2735 0.24465 0.38215 0.0
H2246 H 0.32166 0.25462 0.40815 0.0
H2247 H 0.32891 0.27719 0.38767 0.0
H2248 H 0.3142 0.22042 0.4055 0.0
H2249 H 0.28578 0.26981 0.42457 0.0
H2250 H 0.26746 0.29454 0.42184 0.0
H2251 H 0.2245 0.2612 0.4087 0.0
H2252 H 0.24264 0.23628 0.41112 0.0
H2253 H 0.28569 0.17265 0.47967 0.0
H2254 H 0.29751 0.19477 0.46054 0.0
H2255 H 0.25111 0.19165 0.4304 0.0
H2256 H 0.23921 0.16995 0.44937 0.0
H2257 H 0.2598 0.22382 0.43737 0.0
H2258 H 0.2889 0.17448 0.41683 0.0
H2259 H 0.30735 0.14987 0.41985 0.0
H2260 H 0.34913 0.1832 0.43635 0.0
H2261 H 0.33085 0.208 0.43363 0.0
C2262 C 0.28973 0.26457 0.37171 0.0
C2263 C 0.30532 0.27405 0.37302 0.0
C2264 C 0.28563 0.2517 0.38344 0.0
C2265 C 0.29695 0.24809 0.39684 0.0
C2266 C 0.31273 0.25717 0.39792 0.0
C2267 C 0.31686 0.27005 0.38616 0.0
C2268 C 0.292 0.23521 0.40997 0.0
C2269 C 0.30243 0.22127 0.41265 0.0
C2270 C 0.2766 0.23624 0.41924 0.0
C2271 C 0.26561 0.25119 0.41789 0.0
C2272 C 0.27246 0.26776 0.42098 0.0
C2273 C 0.2621 0.28181 0.41951 0.0
C2274 C 0.24484 0.27944 0.41506 0.0
C2275 C 0.23788 0.26302 0.41213 0.0
C2276 C 0.24819 0.24892 0.41357 0.0
C2277 C 0.27807 0.1766 0.4689 0.0
C2278 C 0.26144 0.16957 0.46617 0.0
C2279 C 0.28486 0.18922 0.45795 0.0
C2280 C 0.2752 0.19488 0.444 0.0
C2281 C 0.25877 0.18761 0.44112 0.0
C2282 C 0.25198 0.17514 0.45203 0.0
C2283 C 0.28172 0.20874 0.43258 0.0
C2284 C 0.27162 0.22297 0.43029 0.0
C2285 C 0.29743 0.20795 0.42374 0.0
C2286 C 0.30846 0.19307 0.42521 0.0
C2287 C 0.30199 0.17655 0.42122 0.0
C2288 C 0.31242 0.16257 0.42286 0.0
C2289 C 0.32938 0.16496 0.42835 0.0
C2290 C 0.33598 0.18136 0.43213 0.0
C2291 C 0.32559 0.19538 0.43054 0.0
H2292 H 0.33743 0.15412 0.42962 0.0
H2293 H 0.23684 0.29034 0.41392 0.0
H2294 H 0.49244 0.49445 0.92492 0.0
H2295 H 0.47286 0.50355 0.90242 0.0
H2296 H 0.49462 0.46794 0.86734 0.0
H2297 H 0.5139 0.45861 0.88967 0.0
H2298 H 0.49115 0.49895 0.85273 0.0
H2299 H 0.45647 0.45926 0.88671 0.0
H2300 H 0.4428 0.44909 0.91328 0.0
H2301 H 0.41577 0.49554 0.91713 0.0
H2302 H 0.42947 0.50607 0.89067 0.0
H2303 H 0.43362 0.4741 0.78871 0.0
H2304 H 0.45246 0.47755 0.81337 0.0
H2305 H 0.4201 0.51573 0.83409 0.0
H2306 H 0.40088 0.51226 0.80914 0.0
H2307 H 0.42814 0.49103 0.85782 0.0
H2308 H 0.45888 0.52812 0.82052 0.0
H2309 H 0.47215 0.53766 0.79355 0.0
H2310 H 0.50651 0.49636 0.79569 0.0
H2311 H 0.49329 0.4864 0.82255 0.0
C2312 C 0.49297 0.48847 0.91245 0.0
C2313 C 0.50484 0.47584 0.90912 0.0
C2314 C 0.48181 0.49374 0.89958 0.0
C2315 C 0.48228 0.48643 0.88317 0.0
C2316 C 0.49413 0.47388 0.87984 0.0
C2317 C 0.50521 0.4686 0.89265 0.0
C2318 C 0.47038 0.4915 0.86935 0.0
C2319 C 0.47737 0.49722 0.85383 0.0
C2320 C 0.45237 0.48987 0.87098 0.0
C2321 C 0.44416 0.48354 0.88686 0.0
C2322 C 0.44773 0.46736 0.89331 0.0
C2323 C 0.43996 0.46152 0.90833 0.0
C2324 C 0.42848 0.47169 0.91692 0.0
C2325 C 0.4247 0.4877 0.91048 0.0
C2326 C 0.43246 0.4936 0.89548 0.0
C2327 C 0.43054 0.4834 0.79838 0.0
C2328 C 0.4157 0.49289 0.79696 0.0
C2329 C 0.44141 0.48542 0.81246 0.0
C2330 C 0.4378 0.497 0.82553 0.0
C2331 C 0.42317 0.50677 0.8241 0.0
C2332 C 0.41227 0.50486 0.80981 0.0
C2333 C 0.44897 0.49785 0.84099 0.0
C2334 C 0.44188 0.49323 0.85682 0.0
C2335 C 0.46692 0.5005 0.83966 0.0
C2336 C 0.47503 0.50648 0.82354 0.0
C2337 C 0.4692 0.521 0.81519 0.0
C2338 C 0.47672 0.5265 0.79992 0.0
C2339 C 0.49016 0.51761 0.7929 0.0
C2340 C 0.49611 0.50323 0.80115 0.0
C2341 C 0.48862 0.49768 0.81642 0.0
H2342 H 0.49596 0.52188 0.78108 0.0
H2343 H 0.42247 0.46714 0.92855 0.0
H2344 H 0.68729 0.78227 0.11386 0.0
H2345 H 0.69507 0.76051 0.09328 0.0
H2346 H 0.71698 0.73123 0.13382 0.0
H2347 H 0.70908 0.753 0.15464 0.0
H2348 H 0.73726 0.73223 0.10494 0.0
H2349 H 0.67842 0.71929 0.11818 0.0
H2350 H 0.64806 0.7257 0.12208 0.0
H2351 H 0.64434 0.74011 0.06937 0.0
H2352 H 0.67475 0.73402 0.06521 0.0
H2353 H 0.74322 0.65931 0.04972 0.0
H2354 H 0.73736 0.67829 0.07375 0.0
H2355 H 0.70856 0.71008 0.04019 0.0
H2356 H 0.71387 0.69099 0.01638 0.0
H2357 H 0.69172 0.70551 0.06812 0.0
H2358 H 0.75058 0.72089 0.0551 0.0
H2359 H 0.78112 0.7155 0.05079 0.0
H2360 H 0.78504 0.69738 0.10229 0.0
H2361 H 0.75445 0.70247 0.10684 0.0
C2362 C 0.69363 0.77115 0.11847 0.0
C2363 C 0.69735 0.76929 0.13596 0.0
C2364 C 0.69813 0.75874 0.10666 0.0
C2365 C 0.70637 0.7441 0.11204 0.0
C2366 C 0.71059 0.7424 0.1294 0.0
C2367 C 0.70609 0.75487 0.14127 0.0
C2368 C 0.71023 0.73054 0.09946 0.0
C2369 C 0.72729 0.72616 0.09707 0.0
C2370 C 0.69726 0.72283 0.089 0.0
C2371 C 0.6789 0.72631 0.09142 0.0
C2372 C 0.67116 0.72393 0.10745 0.0
C2373 C 0.65394 0.72749 0.1097 0.0
C2374 C 0.64429 0.73333 0.09599 0.0
C2375 C 0.65183 0.73559 0.07998 0.0
C2376 C 0.66905 0.73206 0.07766 0.0
C2377 C 0.73569 0.67037 0.04746 0.0
C2378 C 0.729 0.67359 0.0311 0.0
C2379 C 0.7324 0.68127 0.06121 0.0
C2380 C 0.72263 0.69575 0.0588 0.0
C2381 C 0.71606 0.69898 0.04244 0.0
C2382 C 0.71915 0.68803 0.0288 0.0
C2383 C 0.71885 0.70747 0.07321 0.0
C2384 C 0.70174 0.71146 0.07604 0.0
C2385 C 0.7318 0.71489 0.08395 0.0
C2386 C 0.75019 0.71188 0.08125 0.0
C2387 C 0.75792 0.71564 0.06546 0.0
C2388 C 0.77525 0.71266 0.06298 0.0
C2389 C 0.785 0.70605 0.07624 0.0
C2390 C 0.77746 0.70247 0.09202 0.0
C2391 C 0.76014 0.70541 0.09456 0.0
H2392 H 0.79841 0.70375 0.0743 0.0
H2393 H 0.63096 0.73609 0.09776 0.0
H2394 H 0.00266 0.06663 0.11595 0.0
H2395 H 0.98167 0.05814 0.13757 0.0
H2396 H 0.99153 0.00525 0.12814 0.0
H2397 H 0.01269 0.01365 0.10654 0.0
H2398 H 0.95752 0.00996 0.13202 0.0
H2399 H 0.00927 0.02567 0.16232 0.0
H2400 H 0.03412 0.04434 0.17042 0.0
H2401 H 1.00047 0.08235 0.1885 0.0
H2402 H 0.9754 0.064 0.18026 0.0
H2403 H 0.92358 0.97522 0.20881 0.0
H2404 H 0.9426 0.98429 0.18572 0.0
H2405 H 0.93072 0.0367 0.19504 0.0
H2406 H 0.91164 0.02777 0.21828 0.0
H2407 H 0.96523 0.03261 0.19101 0.0
H2408 H 0.91336 0.01615 0.16138 0.0
H2409 H 0.88876 0.99697 0.15372 0.0
H2410 H 0.92289 0.95982 0.13477 0.0
H2411 H 0.94773 0.97868 0.14256 0.0
C2412 C 1.00042 0.05318 0.11849 0.0
C2413 C 0.00951 0.04083 0.10961 0.0
C2414 C 0.98838 0.04835 0.13084 0.0
C2415 C 0.9852 0.03106 0.13467 0.0
C2416 C 0.99378 0.01866 0.12542 0.0
C2417 C 0.00584 0.02349 0.11303 0.0
C2418 C 0.97328 0.02598 0.14866 0.0
C2419 C 0.95932 0.01475 0.14496 0.0
C2420 C 0.97542 0.03249 0.16549 0.0
C2421 C 0.99046 0.04354 0.1705 0.0
C2422 C 0.00717 0.03807 0.16789 0.0
C2423 C 0.02129 0.04858 0.17253 0.0
C2424 C 0.01887 0.06454 0.17992 0.0
C2425 C 0.00232 0.07 0.18274 0.0
C2426 C 0.98815 0.05954 0.1781 0.0
C2427 C 0.92498 0.98869 0.20601 0.0
C2428 C 0.91602 1.00075 0.21545 0.0
C2429 C 0.93582 0.99385 0.19272 0.0
C2430 C 0.93796 0.01116 0.18853 0.0
C2431 C 0.92922 0.02327 0.19803 0.0
C2432 C 0.91828 0.01812 0.21128 0.0
C2433 C 0.94948 0.0166 0.17438 0.0
C2434 C 0.96339 0.02787 0.17805 0.0
C2435 C 0.94732 0.01007 0.15756 0.0
C2436 C 0.93241 0.99877 0.15271 0.0
C2437 C 0.91563 0.00383 0.1557 0.0
C2438 C 0.90164 0.99303 0.15132 0.0
C2439 C 0.90426 0.97717 0.1438 0.0
C2440 C 0.92088 0.9721 0.14061 0.0
C2441 C 0.93492 0.98285 0.14499 0.0
H2442 H 0.89342 0.96882 0.14042 0.0
H2443 H 0.02982 0.07266 0.18351 0.0
H2444 H 0.32659 0.7342 0.11336 0.0
H2445 H 0.31888 0.758 0.09534 0.0
H2446 H 0.29352 0.781 0.13793 0.0
H2447 H 0.30128 0.75716 0.15614 0.0
H2448 H 0.27421 0.78193 0.10946 0.0
H2449 H 0.33223 0.79712 0.12409 0.0
H2450 H 0.36311 0.79269 0.12746 0.0
H2451 H 0.36742 0.78417 0.07345 0.0
H2452 H 0.33651 0.78831 0.06978 0.0
H2453 H 0.261 0.85821 0.06367 0.0
H2454 H 0.27148 0.8389 0.0855 0.0
H2455 H 0.29845 0.81142 0.04687 0.0
H2456 H 0.28826 0.83081 0.02505 0.0
H2457 H 0.3174 0.81476 0.0755 0.0
H2458 H 0.25926 0.79703 0.06128 0.0
H2459 H 0.22831 0.80092 0.05766 0.0
H2460 H 0.22428 0.81387 0.11082 0.0
H2461 H 0.25527 0.81027 0.1147 0.0
C2462 C 0.31958 0.74442 0.11899 0.0
C2463 C 0.31468 0.74381 0.13626 0.0
C2464 C 0.31515 0.75803 0.10865 0.0
C2465 C 0.30584 0.77145 0.11533 0.0
C2466 C 0.30075 0.77082 0.1325 0.0
C2467 C 0.30516 0.75716 0.14288 0.0
C2468 C 0.30106 0.78584 0.10419 0.0
C2469 C 0.28369 0.78933 0.10229 0.0
C2470 C 0.31339 0.79528 0.09455 0.0
C2471 C 0.33202 0.7929 0.09669 0.0
C2472 C 0.33974 0.79418 0.11295 0.0
C2473 C 0.35726 0.79174 0.11491 0.0
C2474 C 0.36722 0.78812 0.10068 0.0
C2475 C 0.35969 0.78697 0.08446 0.0
C2476 C 0.34217 0.78938 0.08243 0.0
C2477 C 0.26935 0.84819 0.05986 0.0
C2478 C 0.27372 0.84599 0.0426 0.0
C2479 C 0.27525 0.8371 0.07234 0.0
C2480 C 0.28553 0.82352 0.06779 0.0
C2481 C 0.2905 0.82176 0.05069 0.0
C2482 C 0.28464 0.83286 0.03821 0.0
C2483 C 0.29054 0.8107 0.08064 0.0
C2484 C 0.30795 0.80749 0.08283 0.0
C2485 C 0.27825 0.80148 0.09053 0.0
C2486 C 0.25961 0.80357 0.08823 0.0
C2487 C 0.2518 0.80084 0.07216 0.0
C2488 C 0.23424 0.80296 0.07007 0.0
C2489 C 0.22434 0.80769 0.08399 0.0
C2490 C 0.23197 0.81024 0.10004 0.0
C2491 C 0.24952 0.80815 0.1022 0.0
H2492 H 0.21075 0.80933 0.08235 0.0
H2493 H 0.38078 0.78623 0.10223 0.0
H2494 H 0.01917 0.46732 0.09222 0.0
H2495 H 0.03549 0.47022 0.11882 0.0
H2496 H 0.02447 0.5236 0.12126 0.0
H2497 H 0.00898 0.52105 0.09417 0.0
H2498 H 0.0566 0.52002 0.12846 0.0
H2499 H 0.0042 0.49239 0.14735 0.0
H2500 H 0.98105 0.47015 0.1475 0.0
H2501 H 0.01746 0.43221 0.15902 0.0
H2502 H 0.04087 0.4542 0.15871 0.0
H2503 H 0.08024 0.5379 0.21337 0.0
H2504 H 0.06252 0.53191 0.1882 0.0
H2505 H 0.08159 0.48118 0.18526 0.0
H2506 H 0.09943 0.48699 0.21065 0.0
H2507 H 0.04628 0.48228 0.17833 0.0
H2508 H 0.09853 0.5106 0.16029 0.0
H2509 H 0.12112 0.53339 0.1616 0.0
H2510 H 0.08424 0.5706 0.14914 0.0
H2511 H 0.06137 0.54806 0.14807 0.0
C2512 C 0.02028 0.47972 0.09832 0.0
C2513 C 0.01269 0.49394 0.09095 0.0
C2514 C 0.02948 0.48132 0.1137 0.0
C2515 C 0.03108 0.4971 0.12222 0.0
C2516 C 0.0234 0.51127 0.11498 0.0
C2517 C 0.01434 0.50973 0.09955 0.0
C2518 C 0.04117 0.49902 0.13841 0.0
C2519 C 0.05415 0.51188 0.13941 0.0
C2520 C 0.03837 0.48815 0.15262 0.0
C2521 C 0.02431 0.47491 0.15283 0.0
C2522 C 0.00729 0.47928 0.14978 0.0
C2523 C 0.99411 0.46672 0.14992 0.0
C2524 C 0.99779 0.44977 0.15322 0.0
C2525 C 0.01464 0.44534 0.15644 0.0
C2526 C 0.02786 0.45785 0.15629 0.0
C2527 C 0.08061 0.52537 0.20755 0.0
C2528 C 0.09144 0.51298 0.21403 0.0
C2529 C 0.07046 0.522 0.1931 0.0
C2530 C 0.07093 0.50619 0.1847 0.0
C2531 C 0.08109 0.49349 0.19152 0.0
C2532 C 0.09131 0.49686 0.20602 0.0
C2533 C 0.06144 0.50337 0.16836 0.0
C2534 C 0.04868 0.49035 0.16732 0.0
C2535 C 0.06437 0.51413 0.15413 0.0
C2536 C 0.0782 0.52765 0.15423 0.0
C2537 C 0.09522 0.52366 0.15792 0.0
C2538 C 0.10808 0.53653 0.15862 0.0
C2539 C 0.10411 0.55344 0.15549 0.0
C2540 C 0.08729 0.5575 0.15158 0.0
C2541 C 0.07438 0.54467 0.15091 0.0
H2542 H 0.11408 0.56339 0.15608 0.0
H2543 H 0.98757 0.44007 0.15332 0.0
H2544 H 0.3756 0.72386 0.23918 0.0
H2545 H 0.39381 0.72953 0.26422 0.0
H2546 H 0.40293 0.67585 0.26834 0.0
H2547 H 0.38409 0.66998 0.24388 0.0
H2548 H 0.39733 0.68825 0.29856 0.0
H2549 H 0.43338 0.70494 0.25199 0.0
H2550 H 0.44148 0.72032 0.22568 0.0
H2551 H 0.43691 0.7682 0.2517 0.0
H2552 H 0.42855 0.7531 0.27812 0.0
H2553 H 0.47409 0.70391 0.35311 0.0
H2554 H 0.45423 0.69421 0.33041 0.0
H2555 H 0.43286 0.74398 0.32904 0.0
H2556 H 0.45364 0.75403 0.35067 0.0
H2557 H 0.44519 0.7315 0.2976 0.0
H2558 H 0.38972 0.70514 0.33273 0.0
H2559 H 0.37881 0.68636 0.35575 0.0
H2560 H 0.4224 0.65517 0.35041 0.0
H2561 H 0.433 0.67324 0.32677 0.0
C2562 C 0.38132 0.71323 0.24551 0.0
C2563 C 0.3784 0.69646 0.23941 0.0
C2564 C 0.39193 0.71652 0.25972 0.0
C2565 C 0.4 0.70315 0.26803 0.0
C2566 C 0.39695 0.6864 0.2621 0.0
C2567 C 0.38628 0.68308 0.24798 0.0
C2568 C 0.41134 0.70654 0.28312 0.0
C2569 C 0.40793 0.69759 0.29826 0.0
C2570 C 0.42513 0.71876 0.28284 0.0
C2571 C 0.43019 0.72788 0.26699 0.0
C2572 C 0.43398 0.71875 0.25207 0.0
C2573 C 0.43864 0.72741 0.23714 0.0
C2574 C 0.43967 0.74522 0.23701 0.0
C2575 C 0.43609 0.7544 0.25182 0.0
C2576 C 0.4314 0.7458 0.26678 0.0
C2577 C 0.46483 0.7126 0.34824 0.0
C2578 C 0.4649 0.72953 0.35415 0.0
C2579 C 0.45326 0.70696 0.33547 0.0
C2580 C 0.44146 0.71811 0.32849 0.0
C2581 C 0.44149 0.73499 0.33454 0.0
C2582 C 0.45325 0.7407 0.34702 0.0
C2583 C 0.43111 0.71327 0.31309 0.0
C2584 C 0.43467 0.72208 0.29785 0.0
C2585 C 0.41764 0.7007 0.31318 0.0
C2586 C 0.41259 0.69103 0.3286 0.0
C2587 C 0.3971 0.69444 0.3367 0.0
C2588 C 0.39079 0.68372 0.34961 0.0
C2589 C 0.39998 0.66965 0.35464 0.0
C2590 C 0.41541 0.66619 0.34666 0.0
C2591 C 0.42158 0.67668 0.3335 0.0
H2592 H 0.39513 0.66141 0.3647 0.0
H2593 H 0.44328 0.75191 0.22544 0.0
H2594 H 0.96608 0.40904 0.99799 0.0
H2595 H 0.971 0.38172 0.9841 0.0
H2596 H 0.01057 0.40557 0.9533 0.0
H2597 H 0.00609 0.43285 0.96741 0.0
H2598 H 0.9885 0.38477 0.93428 0.0
H2599 H 0.02159 0.381 0.98575 0.0
H2600 H 0.02682 0.38237 0.01684 0.0
H2601 H 0.98849 0.34256 0.02457 0.0
H2602 H 0.98284 0.34112 0.99354 0.0
H2603 H 0.01418 0.30558 0.90013 0.0
H2604 H 0.01661 0.33284 0.91566 0.0
H2605 H 0.97772 0.31489 0.95078 0.0
H2606 H 0.97533 0.28778 0.93554 0.0
H2607 H 0.00257 0.33333 0.96735 0.0
H2608 H 0.96734 0.3388 0.91714 0.0
H2609 H 0.96103 0.33712 0.88626 0.0
H2610 H 0.00212 0.37356 0.87642 0.0
H2611 H 0.00885 0.37524 0.90726 0.0
C2612 C 0.97598 0.40848 0.98841 0.0
C2613 C 0.98567 0.42323 0.98387 0.0
C2614 C 0.97874 0.39283 0.98044 0.0
C2615 C 0.99125 0.39156 0.96774 0.0
C2616 C 1.00082 0.40625 0.96303 0.0
C2617 C 0.99815 0.42188 0.97107 0.0
C2618 C 0.99418 0.37494 0.95924 0.0
C2619 C 0.99188 0.37359 0.94147 0.0
C2620 C 0.99828 0.36028 0.96866 0.0
C2621 C 0.00169 0.36106 0.98733 0.0
C2622 C 0.01417 0.37263 0.99409 0.0
C2623 C 0.01723 0.3734 0.0117 0.0
C2624 C 0.00796 0.36258 0.02268 0.0
C2625 C 0.99564 0.35094 0.01606 0.0
C2626 C 0.99252 0.35013 0.99846 0.0
C2627 C 0.00642 0.30733 0.91137 0.0
C2628 C 0.99445 0.29455 0.91649 0.0
C2629 C 0.00774 0.32294 0.92017 0.0
C2630 C 0.99716 0.32599 0.93425 0.0
C2631 C 0.98598 0.31287 0.93995 0.0
C2632 C 0.98458 0.29738 0.93114 0.0
C2633 C 0.99674 0.34312 0.94243 0.0
C2634 C 0.99943 0.34456 0.96014 0.0
C2635 C 0.99285 0.35784 0.93299 0.0
C2636 C 0.98873 0.35699 0.91447 0.0
C2637 C 0.97511 0.34635 0.90838 0.0
C2638 C 0.97145 0.34541 0.89089 0.0
C2639 C 0.9812 0.35519 0.87938 0.0
C2640 C 0.9946 0.36597 0.88535 0.0
C2641 C 0.99835 0.36692 0.90283 0.0
H2642 H 0.97834 0.35446 0.86584 0.0
H2643 H 0.01035 0.3632 0.03631 0.0
H2644 H 0.64854 0.81149 0.26471 0.0
H2645 H 0.62801 0.80493 0.28762 0.0
H2646 H 0.58878 0.79308 0.24998 0.0
H2647 H 0.60933 0.79928 0.22705 0.0
H2648 H 0.57968 0.81639 0.27841 0.0
H2649 H 0.60388 0.76153 0.26716 0.0
H2650 H 0.62768 0.74208 0.26395 0.0
H2651 H 0.64392 0.75288 0.31552 0.0
H2652 H 0.62035 0.77261 0.31895 0.0
H2653 H 0.51452 0.77698 0.32869 0.0
H2654 H 0.53556 0.78574 0.30721 0.0
H2655 H 0.57624 0.77972 0.34399 0.0
H2656 H 0.55524 0.77007 0.36521 0.0
H2657 H 0.58557 0.76651 0.31637 0.0
H2658 H 0.56226 0.82029 0.3291 0.0
H2659 H 0.53988 0.84116 0.33338 0.0
H2660 H 0.52376 0.83481 0.28111 0.0
H2661 H 0.5459 0.81372 0.27657 0.0
C2662 C 0.63554 0.80744 0.26137 0.0
C2663 C 0.63051 0.8058 0.24414 0.0
C2664 C 0.62386 0.8037 0.27443 0.0
C2665 C 0.6069 0.79854 0.27046 0.0
C2666 C 0.60181 0.79706 0.25328 0.0
C2667 C 0.61356 0.80048 0.24023 0.0
C2668 C 0.59447 0.7946 0.28424 0.0
C2669 C 0.5808 0.80539 0.28663 0.0
C2670 C 0.59635 0.7806 0.29528 0.0
C2671 C 0.61047 0.7687 0.29324 0.0
C2672 C 0.61262 0.75989 0.27776 0.0
C2673 C 0.62605 0.74879 0.27591 0.0
C2674 C 0.63734 0.74629 0.2895 0.0
C2675 C 0.63519 0.75485 0.30499 0.0
C2676 C 0.62179 0.76599 0.3069 0.0
C2677 C 0.52794 0.77774 0.33225 0.0
C2678 C 0.53323 0.77288 0.34864 0.0
C2679 C 0.53999 0.78283 0.31997 0.0
C2680 C 0.55757 0.78365 0.32396 0.0
C2681 C 0.5628 0.77918 0.34051 0.0
C2682 C 0.55078 0.77374 0.35268 0.0
C2683 C 0.57053 0.78829 0.31068 0.0
C2684 C 0.58436 0.77761 0.30831 0.0
C2685 C 0.56898 0.80262 0.29988 0.0
C2686 C 0.55564 0.8153 0.30255 0.0
C2687 C 0.55386 0.82324 0.31855 0.0
C2688 C 0.54123 0.83513 0.32102 0.0
C2689 C 0.53038 0.83927 0.30754 0.0
C2690 C 0.53216 0.83157 0.29155 0.0
C2691 C 0.54476 0.81966 0.28902 0.0
H2692 H 0.52061 0.84848 0.30947 0.0
H2693 H 0.64772 0.73768 0.28805 0.0
H2694 H 0.06201 0.13116 0.01346 0.0
H2695 H 0.05184 0.1525 0.99369 0.0
H2696 H 0.00987 0.11841 0.97856 0.0
H2697 H 0.01956 0.09711 0.99884 0.0
H2698 H 0.0265 0.13551 0.95068 0.0
H2699 H 1.0011 0.14817 0.00473 0.0
H2700 H 1.00117 0.15385 0.03575 0.0
H2701 H 0.03448 0.19796 0.02851 0.0
H2702 H 0.03482 0.19239 0.99746 0.0
H2703 H 0.97362 0.21593 0.93395 0.0
H2704 H 0.9828 0.19288 0.95222 0.0
H2705 H 0.03057 0.19169 0.92512 0.0
H2706 H 0.02148 0.21474 0.90662 0.0
H2707 H 0.00937 0.19118 0.97406 0.0
H2708 H 0.04304 0.14993 0.92407 0.0
H2709 H 0.04151 0.14364 0.89316 0.0
H2710 H 0.9884 0.15565 0.89237 0.0
H2711 H 0.98955 0.16177 0.9233 0.0
C2712 C 0.0505 0.12818 0.0061 0.0
C2713 C 0.0415 0.11241 0.00799 0.0
C2714 C 0.0448 0.14038 0.99468 0.0
C2715 C 0.03004 0.13708 0.98475 0.0
C2716 C 0.02132 0.12118 0.98609 0.0
C2717 C 0.02693 0.109 0.99767 0.0
C2718 C 0.02344 0.15052 0.97347 0.0
C2719 C 0.02276 0.14769 0.95576 0.0
C2720 C 0.01836 0.16632 0.98014 0.0
C2721 C 0.01811 0.16976 0.99879 0.0
C2722 C 0.00856 0.159 0.00977 0.0
C2723 C 0.0085 0.16221 0.02736 0.0
C2724 C 0.01786 0.17623 0.0341 0.0
C2725 C 0.02726 0.18709 0.02327 0.0
C2726 C 0.02737 0.18392 0.00567 0.0
C2727 C 0.98611 0.21083 0.93182 0.0
C2728 C 0.9968 0.21725 0.91875 0.0
C2729 C 0.99134 0.19764 0.94234 0.0
C2730 C 0.00731 0.19045 0.93998 0.0
C2731 C 0.0181 0.19689 0.92705 0.0
C2732 C 0.0129 0.21014 0.91653 0.0
C2733 C 0.01267 0.17634 0.95117 0.0
C2734 C 0.01314 0.17904 0.96892 0.0
C2735 C 0.01737 0.16037 0.94452 0.0
C2736 C 0.01645 0.15647 0.92596 0.0
C2737 C 0.03102 0.15116 0.91731 0.0
C2738 C 0.03022 0.14763 0.89978 0.0
C2739 C 0.01488 0.1493 0.8908 0.0
C2740 C 1.00029 0.15442 0.89933 0.0
C2741 C 1.00102 0.15794 0.91685 0.0
H2742 H 0.0143 0.14658 0.87723 0.0
H2743 H 0.01779 0.1787 0.04772 0.0
H2744 H 0.37335 0.33789 0.25701 0.0
H2745 H 0.39396 0.328 0.23617 0.0
H2746 H 0.38489 0.2763 0.25326 0.0
H2747 H 0.36493 0.28615 0.27463 0.0
H2748 H 0.41793 0.28299 0.25048 0.0
H2749 H 0.36857 0.29144 0.21475 0.0
H2750 H 0.34528 0.30775 0.20226 0.0
H2751 H 0.38209 0.34372 0.18127 0.0
H2752 H 0.40561 0.32773 0.19383 0.0
H2753 H 0.45095 0.23412 0.18441 0.0
H2754 H 0.43185 0.24845 0.20364 0.0
H2755 H 0.45025 0.29729 0.18486 0.0
H2756 H 0.46958 0.28298 0.1653 0.0
H2757 H 0.41454 0.29489 0.18837 0.0
H2758 H 0.46396 0.28496 0.22254 0.0
H2759 H 0.48702 0.26806 0.23459 0.0
H2760 H 0.44977 0.23446 0.25839 0.0
H2761 H 0.42646 0.25102 0.24627 0.0
C2762 C 0.37578 0.32442 0.2564 0.0
C2763 C 0.36743 0.31284 0.26755 0.0
C2764 C 0.38746 0.31875 0.24433 0.0
C2765 C 0.3909 0.30137 0.24302 0.0
C2766 C 0.38245 0.28977 0.254 0.0
C2767 C 0.37086 0.29542 0.2661 0.0
C2768 C 0.4037 0.29521 0.23065 0.0
C2769 C 0.41705 0.28547 0.23688 0.0
C2770 C 0.40296 0.29889 0.21295 0.0
C2771 C 0.38883 0.3085 0.20539 0.0
C2772 C 0.37169 0.30291 0.20759 0.0
C2773 C 0.35845 0.31208 0.20048 0.0
C2774 C 0.3622 0.32679 0.19102 0.0
C2775 C 0.3792 0.33234 0.18862 0.0
C2776 C 0.39249 0.32322 0.19572 0.0
C2777 C 0.45103 0.24792 0.18428 0.0
C2778 C 0.46197 0.25737 0.17332 0.0
C2779 C 0.44008 0.2561 0.19536 0.0
C2780 C 0.43978 0.27394 0.19586 0.0
C2781 C 0.45035 0.28349 0.18472 0.0
C2782 C 0.46142 0.27529 0.1736 0.0
C2783 C 0.42845 0.28238 0.20821 0.0
C2784 C 0.41545 0.29257 0.20199 0.0
C2785 C 0.42946 0.27909 0.22594 0.0
C2786 C 0.44345 0.26917 0.23339 0.0
C2787 C 0.46068 0.2739 0.23024 0.0
C2788 C 0.4738 0.26439 0.2371 0.0
C2789 C 0.46986 0.25018 0.24722 0.0
C2790 C 0.4528 0.24547 0.25054 0.0
C2791 C 0.43963 0.25493 0.2437 0.0
H2792 H 0.48004 0.24283 0.25252 0.0
H2793 H 0.35193 0.33387 0.18552 0.0
H2794 H 0.52485 0.41503 0.03841 0.0
H2795 H 0.51736 0.39217 0.05842 0.0
H2796 H 0.5084 0.35729 0.01634 0.0
H2797 H 0.51663 0.37974 0.99623 0.0
H2798 H 0.4829 0.35525 0.0436 0.0
H2799 H 0.54424 0.35524 0.03474 0.0
H2800 H 0.57323 0.36874 0.03411 0.0
H2801 H 0.56945 0.38185 0.08726 0.0
H2802 H 0.54031 0.36865 0.08812 0.0
H2803 H 0.48612 0.27519 0.08575 0.0
H2804 H 0.48844 0.29988 0.06683 0.0
H2805 H 0.51206 0.32979 0.10765 0.0
H2806 H 0.51058 0.30489 0.12623 0.0
H2807 H 0.5293 0.33545 0.08126 0.0
H2808 H 0.46917 0.33513 0.09164 0.0
H2809 H 0.43963 0.3231 0.09326 0.0
H2810 H 0.43986 0.31247 0.03939 0.0
H2811 H 0.4695 0.32423 0.03749 0.0
C2812 C 0.52137 0.40251 0.03335 0.0
C2813 C 0.52151 0.3993 0.01561 0.0
C2814 C 0.51695 0.38949 0.04483 0.0
C2815 C 0.51239 0.37304 0.03885 0.0
C2816 C 0.51178 0.36993 0.0212 0.0
C2817 C 0.51642 0.38287 0.00971 0.0
C2818 C 0.50934 0.35882 0.051 0.0
C2819 C 0.49303 0.35077 0.05177 0.0
C2820 C 0.52246 0.35334 0.06193 0.0
C2821 C 0.54003 0.36113 0.06145 0.0
C2822 C 0.54954 0.36113 0.04626 0.0
C2823 C 0.566 0.3687 0.04586 0.0
C2824 C 0.57316 0.37619 0.06062 0.0
C2825 C 0.56388 0.37607 0.07582 0.0
C2826 C 0.54739 0.36854 0.07628 0.0
C2827 C 0.4916 0.28711 0.09072 0.0
C2828 C 0.49819 0.28812 0.10745 0.0
C2829 C 0.49286 0.30127 0.07992 0.0
C2830 C 0.50028 0.31686 0.08579 0.0
C2831 C 0.50636 0.31795 0.10272 0.0
C2832 C 0.50545 0.30371 0.11337 0.0
C2833 C 0.5027 0.33173 0.07411 0.0
C2834 C 0.519 0.3399 0.0733 0.0
C2835 C 0.48945 0.33748 0.06337 0.0
C2836 C 0.47162 0.33042 0.06446 0.0
C2837 C 0.46297 0.33011 0.08016 0.0
C2838 C 0.4462 0.32336 0.08113 0.0
C2839 C 0.43789 0.31699 0.06644 0.0
C2840 C 0.44632 0.31739 0.05076 0.0
C2841 C 0.4631 0.32411 0.04972 0.0
H2842 H 0.42491 0.31177 0.06722 0.0
H2843 H 0.58591 0.38204 0.06029 0.0
H2844 H 0.66481 0.22904 0.23609 0.0
H2845 H 0.63814 0.23143 0.2201 0.0
H2846 H 0.61193 0.19888 0.25646 0.0
H2847 H 0.63847 0.19687 0.27299 0.0
H2848 H 0.60408 0.19114 0.2211 0.0
H2849 H 0.60614 0.23883 0.26002 0.0
H2850 H 0.61949 0.26427 0.27401 0.0
H2851 H 0.62388 0.28923 0.22546 0.0
H2852 H 0.61078 0.26383 0.21113 0.0
H2853 H 0.52054 0.20844 0.19213 0.0
H2854 H 0.54563 0.20528 0.21039 0.0
H2855 H 0.57307 0.24426 0.18177 0.0
H2856 H 0.5479 0.24784 0.16372 0.0
H2857 H 0.57975 0.24824 0.21452 0.0
H2858 H 0.57895 0.20127 0.17514 0.0
H2859 H 0.56614 0.17614 0.16015 0.0
H2860 H 0.56041 0.14993 0.20791 0.0
H2861 H 0.57292 0.17504 0.22324 0.0
C2862 C 0.65338 0.22249 0.24084 0.0
C2863 C 0.65382 0.21292 0.256 0.0
C2864 C 0.63816 0.22379 0.23159 0.0
C2865 C 0.62305 0.21546 0.23719 0.0
C2866 C 0.62348 0.2054 0.25193 0.0
C2867 C 0.6387 0.20421 0.26132 0.0
C2868 C 0.60674 0.21773 0.22783 0.0
C2869 C 0.59858 0.20356 0.21986 0.0
C2870 C 0.59986 0.23402 0.22589 0.0
C2871 C 0.60762 0.24936 0.23449 0.0
C2872 C 0.61008 0.24969 0.2523 0.0
C2873 C 0.61758 0.26411 0.2603 0.0
C2874 C 0.62257 0.27834 0.25063 0.0
C2875 C 0.62003 0.27819 0.23294 0.0
C2876 C 0.61255 0.26379 0.22487 0.0
C2877 C 0.53186 0.21644 0.18976 0.0
C2878 C 0.53219 0.22835 0.17637 0.0
C2879 C 0.54625 0.21455 0.20018 0.0
C2880 C 0.56136 0.22432 0.19728 0.0
C2881 C 0.56158 0.23654 0.18424 0.0
C2882 C 0.54715 0.23855 0.1739 0.0
C2883 C 0.57705 0.22165 0.20763 0.0
C2884 C 0.58514 0.23577 0.21579 0.0
C2885 C 0.58396 0.20533 0.20956 0.0
C2886 C 0.57671 0.1901 0.20036 0.0
C2887 C 0.57486 0.19019 0.18246 0.0
C2888 C 0.56765 0.17595 0.1739 0.0
C2889 C 0.56242 0.16147 0.18308 0.0
C2890 C 0.56444 0.16117 0.20083 0.0
C2891 C 0.57159 0.1754 0.20946 0.0
H2892 H 0.55684 0.15046 0.17643 0.0
H2893 H 0.62838 0.2895 0.25684 0.0
H2894 H 0.46869 0.09074 0.03166 0.0
H2895 H 0.47265 0.11778 0.04716 0.0
H2896 H 0.52192 0.12619 0.02356 0.0
H2897 H 0.51799 0.09908 0.00795 0.0
H2898 H 0.52285 0.13 0.0589 0.0
H2899 H 0.49087 0.15078 0.01202 0.0
H2900 H 0.46711 0.15122 0.9912 0.0
H2901 H 0.43136 0.15729 0.03198 0.0
H2902 H 0.45487 0.15664 0.05309 0.0
H2903 H 0.53149 0.2079 0.10649 0.0
H2904 H 0.53162 0.18565 0.08467 0.0
H2905 H 0.47649 0.18023 0.08767 0.0
H2906 H 0.47648 0.20466 0.10692 0.0
H2907 H 0.48196 0.17667 0.05845 0.0
H2908 H 0.51229 0.14416 0.10394 0.0
H2909 H 0.53537 0.14071 0.12539 0.0
H2910 H 0.57297 0.15493 0.08782 0.0
H2911 H 0.55008 0.15824 0.0663 0.0
C2912 C 0.4803 0.09843 0.02967 0.0
C2913 C 0.49305 0.0928 0.01863 0.0
C2914 C 0.48251 0.11392 0.03844 0.0
C2915 C 0.49754 0.12405 0.03644 0.0
C2916 C 0.5102 0.1186 0.02523 0.0
C2917 C 0.5079 0.10318 0.01627 0.0
C2918 C 0.5004 0.13971 0.04698 0.0
C2919 C 0.51405 0.14036 0.05867 0.0
C2920 C 0.48883 0.15309 0.04682 0.0
C2921 C 0.47464 0.15354 0.03415 0.0
C2922 C 0.47793 0.15208 0.01657 0.0
C2923 C 0.4645 0.15239 0.00471 0.0
C2924 C 0.44773 0.15425 0.01026 0.0
C2925 C 0.44435 0.15584 0.0277 0.0
C2926 C 0.45773 0.15553 0.03961 0.0
C2927 C 0.51944 0.20176 0.10257 0.0
C2928 C 0.50397 0.20724 0.10929 0.0
C2929 C 0.51951 0.18874 0.09025 0.0
C2930 C 0.50413 0.1804 0.08481 0.0
C2931 C 0.48867 0.18609 0.09156 0.0
C2932 C 0.4886 0.19974 0.1031 0.0
C2933 C 0.5038 0.16655 0.07145 0.0
C2934 C 0.49076 0.16635 0.0589 0.0
C2935 C 0.51581 0.15342 0.07096 0.0
C2936 C 0.52952 0.1519 0.08383 0.0
C2937 C 0.52548 0.14683 0.1005 0.0
C2938 C 0.5385 0.1448 0.11257 0.0
C2939 C 0.5556 0.14785 0.10804 0.0
C2940 C 0.55972 0.1527 0.09136 0.0
C2941 C 0.54674 0.15458 0.07922 0.0
H2942 H 0.56566 0.14631 0.11741 0.0
H2943 H 0.43735 0.15449 1.00106 0.0
H2944 H 0.21797 0.39738 0.70534 0.0
H2945 H 0.24273 0.41552 0.71397 0.0
H2946 H 0.27543 0.37286 0.70824 0.0
H2947 H 0.25076 0.35468 0.69969 0.0
H2948 H 0.2821 0.38889 0.73718 0.0
H2949 H 0.27471 0.40582 0.6787 0.0
H2950 H 0.25877 0.41662 0.65398 0.0
H2951 H 0.25047 0.46329 0.681 0.0
H2952 H 0.26618 0.45267 0.70598 0.0
H2953 H 0.3517 0.46213 0.71472 0.0
H2954 H 0.32917 0.44079 0.70748 0.0
H2955 H 0.31736 0.43556 0.76109 0.0
H2956 H 0.34134 0.45498 0.76822 0.0
H2957 H 0.29879 0.44339 0.70915 0.0
H2958 H 0.29551 0.41443 0.77087 0.0
H2959 H 0.30745 0.39744 0.79423 0.0
H2960 H 0.33531 0.36856 0.75775 0.0
H2961 H 0.32434 0.38616 0.73433 0.0
C2962 C 0.23047 0.39191 0.70578 0.0
C2963 C 0.23239 0.37457 0.70186 0.0
C2964 C 0.24462 0.40231 0.71069 0.0
C2965 C 0.261 0.39562 0.7116 0.0
C2966 C 0.26293 0.37832 0.70767 0.0
C2967 C 0.2488 0.36791 0.70285 0.0
C2968 C 0.2761 0.40638 0.7172 0.0
C2969 C 0.28588 0.40077 0.73095 0.0
C2970 C 0.28089 0.42196 0.70927 0.0
C2971 C 0.27147 0.42838 0.69427 0.0
C2972 C 0.26937 0.41834 0.67942 0.0
C2973 C 0.2604 0.42443 0.66535 0.0
C2974 C 0.25357 0.44061 0.66594 0.0
C2975 C 0.25574 0.45075 0.68058 0.0
C2976 C 0.26469 0.44471 0.69469 0.0
C2977 C 0.34466 0.45582 0.72492 0.0
C2978 C 0.34844 0.45986 0.742 0.0
C2979 C 0.33165 0.44369 0.72083 0.0
C2980 C 0.3214 0.43607 0.73369 0.0
C2981 C 0.32534 0.44022 0.75083 0.0
C2982 C 0.33894 0.45168 0.75494 0.0
C2983 C 0.30561 0.42558 0.72883 0.0
C2984 C 0.29536 0.43141 0.71531 0.0
C2985 C 0.30045 0.41004 0.73687 0.0
C2986 C 0.30986 0.40219 0.751 0.0
C2987 C 0.30477 0.40494 0.76795 0.0
C2988 C 0.31128 0.39515 0.78118 0.0
C2989 C 0.32228 0.38204 0.7775 0.0
C2990 C 0.32696 0.37886 0.76061 0.0
C2991 C 0.32092 0.389 0.7474 0.0
H2992 H 0.3271 0.37428 0.78771 0.0
H2993 H 0.24664 0.44531 0.65503 0.0
H2994 H 0.23324 0.61948 0.78698 0.0
H2995 H 0.25289 0.59583 0.78473 0.0
H2996 H 0.29271 0.62688 0.80913 0.0
H2997 H 0.27305 0.65034 0.81184 0.0
H2998 H 0.29733 0.60833 0.77225 0.0
H2999 H 0.28333 0.6018 0.83287 0.0
H3000 H 0.2628 0.59795 0.85645 0.0
H3001 H 0.2425 0.55182 0.83304 0.0
H3002 H 0.26276 0.55557 0.80917 0.0
H3003 H 0.36463 0.55225 0.77567 0.0
H3004 H 0.34455 0.57413 0.78317 0.0
H3005 H 0.30408 0.53543 0.78753 0.0
H3006 H 0.32449 0.51342 0.78115 0.0
H3007 H 0.29856 0.5577 0.8099 0.0
H3008 H 0.31067 0.5619 0.75041 0.0
H3009 H 0.32839 0.5646 0.72454 0.0
H3010 H 0.34866 0.61326 0.74209 0.0
H3011 H 0.33122 0.61075 0.76818 0.0
C3012 C 0.24613 0.62114 0.79203 0.0
C3013 C 0.25162 0.63668 0.79966 0.0
C3014 C 0.25729 0.60766 0.79077 0.0
C3015 C 0.27418 0.60964 0.79683 0.0
C3016 C 0.27967 0.6251 0.80449 0.0
C3017 C 0.26843 0.63844 0.80609 0.0
C3018 C 0.28643 0.59595 0.79429 0.0
C3019 C 0.29781 0.59734 0.78058 0.0
C3020 C 0.28649 0.58137 0.80477 0.0
C3021 C 0.2744 0.57909 0.81914 0.0
C3022 C 0.27436 0.59095 0.83265 0.0
C3023 C 0.2628 0.58876 0.8461 0.0
C3024 C 0.25131 0.57468 0.84621 0.0
C3025 C 0.25139 0.56274 0.83291 0.0
C3026 C 0.2629 0.56489 0.81943 0.0
C3027 C 0.3515 0.54842 0.77846 0.0
C3028 C 0.34608 0.53117 0.77774 0.0
C3029 C 0.33996 0.56095 0.7826 0.0
C3030 C 0.32259 0.55657 0.78541 0.0
C3031 C 0.31734 0.53923 0.78534 0.0
C3032 C 0.32901 0.52663 0.78168 0.0
C3033 C 0.30988 0.57009 0.7879 0.0
C3034 C 0.29826 0.56866 0.80152 0.0
C3035 C 0.30928 0.58448 0.77702 0.0
C3036 C 0.31976 0.58606 0.76133 0.0
C3037 C 0.31899 0.57313 0.74881 0.0
C3038 C 0.32898 0.57463 0.7341 0.0
C3039 C 0.33968 0.58908 0.7317 0.0
C3040 C 0.34038 0.60207 0.74398 0.0
C3041 C 0.33044 0.60062 0.75872 0.0
H3042 H 0.3474 0.59022 0.7203 0.0
H3043 H 0.24238 0.573 0.85663 0.0
H3044 H 0.90412 0.50712 0.49434 0.0
H3045 H 0.87614 0.49228 0.49668 0.0
H3046 H 0.89948 0.44425 0.48729 0.0
H3047 H 0.92733 0.45903 0.48429 0.0
H3048 H 0.87055 0.44529 0.47016 0.0
H3049 H 0.88841 0.45665 0.52785 0.0
H3050 H 0.89861 0.47439 0.55222 0.0
H3051 H 0.8534 0.50361 0.54913 0.0
H3052 H 0.84304 0.48619 0.52457 0.0
H3053 H 0.79814 0.4019 0.52272 0.0
H3054 H 0.82508 0.4189 0.52241 0.0
H3055 H 0.80958 0.44276 0.47559 0.0
H3056 H 0.78285 0.42575 0.47562 0.0
H3057 H 0.8351 0.45266 0.52188 0.0
H3058 H 0.84335 0.44502 0.44883 0.0
H3059 H 0.83365 0.42517 0.42589 0.0
H3060 H 0.82876 0.38445 0.46217 0.0
H3061 H 0.83874 0.40396 0.48525 0.0
C3062 C 0.90327 0.49342 0.49255 0.0
C3063 C 0.91802 0.48427 0.48922 0.0
C3064 C 0.88728 0.48493 0.49407 0.0
C3065 C 0.88572 0.4671 0.49242 0.0
C3066 C 0.90035 0.45799 0.4887 0.0
C3067 C 0.91631 0.46646 0.48714 0.0
C3068 C 0.86889 0.45789 0.49459 0.0
C3069 C 0.86281 0.44696 0.48146 0.0
C3070 C 0.85887 0.45976 0.50947 0.0
C3071 C 0.86503 0.47022 0.52427 0.0
C3072 C 0.88071 0.46694 0.53228 0.0
C3073 C 0.88651 0.47693 0.54615 0.0
C3074 C 0.87668 0.49014 0.55219 0.0
C3075 C 0.86101 0.49338 0.54442 0.0
C3076 C 0.85516 0.48345 0.53053 0.0
C3077 C 0.80033 0.41096 0.5125 0.0
C3078 C 0.7884 0.41226 0.49907 0.0
C3079 C 0.81574 0.42069 0.51236 0.0
C3080 C 0.81947 0.43186 0.49881 0.0
C3081 C 0.80711 0.43398 0.48601 0.0
C3082 C 0.7918 0.42423 0.48607 0.0
C3083 C 0.83669 0.44038 0.49732 0.0
C3084 C 0.84284 0.45111 0.51056 0.0
C3085 C 0.84697 0.43803 0.48272 0.0
C3086 C 0.84163 0.42601 0.46879 0.0
C3087 C 0.84033 0.4318 0.45189 0.0
C3088 C 0.83476 0.42061 0.43886 0.0
C3089 C 0.83054 0.40357 0.44258 0.0
C3090 C 0.83199 0.39766 0.45931 0.0
C3091 C 0.8376 0.40878 0.47236 0.0
H3092 H 0.82616 0.39495 0.43249 0.0
H3093 H 0.88119 0.49786 0.56293 0.0
H3094 H 0.78103 0.90454 0.82193 0.0
H3095 H 0.75766 0.92294 0.81463 0.0
H3096 H 0.73087 0.88077 0.7894 0.0
H3097 H 0.75419 0.86214 0.79683 0.0
H3098 H 0.73038 0.90933 0.77029 0.0
H3099 H 0.71793 0.89476 0.82834 0.0
H3100 H 0.72412 0.89151 0.85906 0.0
H3101 H 0.73495 0.94539 0.86362 0.0
H3102 H 0.72906 0.94893 0.83287 0.0
H3103 H 0.65287 0.95194 0.75935 0.0
H3104 H 0.67379 0.93147 0.76856 0.0
H3105 H 0.70187 0.9714 0.79603 0.0
H3106 H 0.68076 0.99188 0.78716 0.0
H3107 H 0.70079 0.94288 0.81427 0.0
H3108 H 0.71464 0.95737 0.75625 0.0
H3109 H 0.70893 0.96085 0.72547 0.0
H3110 H 0.69592 0.90738 0.72082 0.0
H3111 H 0.70134 0.90362 0.75164 0.0
C3112 C 0.77007 0.89907 0.81503 0.0
C3113 C 0.76947 0.88177 0.8101 0.0
C3114 C 0.75672 0.90965 0.81083 0.0
C3115 C 0.74237 0.90321 0.80166 0.0
C3116 C 0.74179 0.88602 0.79651 0.0
C3117 C 0.75517 0.8754 0.80072 0.0
C3118 C 0.72817 0.91454 0.7972 0.0
C3119 C 0.72371 0.91645 0.77994 0.0
C3120 C 0.71973 0.92416 0.80974 0.0
C3121 C 0.7232 0.92209 0.82826 0.0
C3122 C 0.72176 0.9059 0.83586 0.0
C3123 C 0.72519 0.90401 0.85329 0.0
C3124 C 0.72996 0.91823 0.86328 0.0
C3125 C 0.73127 0.93439 0.85587 0.0
C3126 C 0.72787 0.93634 0.83844 0.0
C3127 C 0.66343 0.95635 0.76746 0.0
C3128 C 0.66519 0.97358 0.77244 0.0
C3129 C 0.67544 0.94464 0.77264 0.0
C3130 C 0.68961 0.94992 0.78275 0.0
C3131 C 0.6911 0.96701 0.78819 0.0
C3132 C 0.67902 0.97872 0.78309 0.0
C3133 C 0.70305 0.93775 0.78735 0.0
C3134 C 0.70738 0.9357 0.80463 0.0
C3135 C 0.71143 0.92803 0.77483 0.0
C3136 C 0.70823 0.93025 0.75628 0.0
C3137 C 0.71044 0.94638 0.74869 0.0
C3138 C 0.70728 0.9484 0.73123 0.0
C3139 C 0.70202 0.93435 0.7212 0.0
C3140 C 0.69997 0.91825 0.72861 0.0
C3141 C 0.70309 0.91616 0.74607 0.0
H3142 H 0.69958 0.93594 0.70769 0.0
H3143 H 0.73261 0.91674 0.87677 0.0
H3144 H 0.6288 0.48482 0.97885 0.0
H3145 H 0.65149 0.50667 0.98332 0.0
H3146 H 0.61387 0.54338 0.99559 0.0
H3147 H 0.59106 0.52146 0.99223 0.0
H3148 H 0.64053 0.54846 0.96505 0.0
H3149 H 0.63291 0.53746 0.02586 0.0
H3150 H 0.6321 0.51862 0.05098 0.0
H3151 H 0.6838 0.50486 0.04143 0.0
H3152 H 0.68481 0.52344 0.01607 0.0
H3153 H 0.70146 0.61043 0.02022 0.0
H3154 H 0.67816 0.58917 0.01573 0.0
H3155 H 0.69761 0.57879 0.96539 0.0
H3156 H 0.71941 0.60146 0.96919 0.0
H3157 H 0.68066 0.55809 0.01366 0.0
H3158 H 0.68229 0.55893 0.94752 0.0
H3159 H 0.67901 0.57069 0.91858 0.0
H3160 H 0.63616 0.59878 0.9354 0.0
H3161 H 0.63998 0.58802 0.96472 0.0
C3162 C 0.62527 0.49737 0.98302 0.0
C3163 C 0.60794 0.50129 0.98507 0.0
C3164 C 0.63832 0.50987 0.98548 0.0
C3165 C 0.63432 0.52657 0.98984 0.0
C3166 C 0.61718 0.53051 0.99228 0.0
C3167 C 0.60414 0.51797 0.99014 0.0
C3168 C 0.6478 0.54032 0.99006 0.0
C3169 C 0.64926 0.55079 0.97574 0.0
C3170 C 0.65946 0.54279 0.00372 0.0
C3171 C 0.65885 0.53166 0.01895 0.0
C3172 C 0.64403 0.53026 0.029 0.0
C3173 C 0.64355 0.51967 0.04331 0.0
C3174 C 0.65787 0.5105 0.04776 0.0
C3175 C 0.67271 0.51195 0.03794 0.0
C3176 C 0.67324 0.52251 0.02361 0.0
C3177 C 0.70027 0.60397 0.00797 0.0
C3178 C 0.71194 0.6078 0.99492 0.0
C3179 C 0.68701 0.59172 0.00538 0.0
C3180 C 0.68561 0.58229 0.99 0.0
C3181 C 0.69744 0.58621 0.97697 0.0
C3182 C 0.71023 0.59904 0.97929 0.0
C3183 C 0.67307 0.56732 0.98883 0.0
C3184 C 0.67189 0.5562 0.00296 0.0
C3185 C 0.6618 0.56402 0.97474 0.0
C3186 C 0.66215 0.57357 0.95855 0.0
C3187 C 0.67276 0.56832 0.94524 0.0
C3188 C 0.67069 0.57467 0.92873 0.0
C3189 C 0.6575 0.58563 0.92519 0.0
C3190 C 0.64651 0.59044 0.93821 0.0
C3191 C 0.64887 0.58454 0.95486 0.0
H3192 H 0.65572 0.59031 0.91234 0.0
H3193 H 0.65748 0.50231 0.05885 0.0
H3194 H 0.26399 0.64656 0.21741 0.0
H3195 H 0.24064 0.62608 0.22403 0.0
H3196 H 0.25204 0.59713 0.17879 0.0
H3197 H 0.27534 0.61762 0.17205 0.0
H3198 H 0.2187 0.59977 0.18154 0.0
H3199 H 0.26357 0.58351 0.21882 0.0
H3200 H 0.28628 0.58758 0.24063 0.0
H3201 H 0.24925 0.60357 0.27705 0.0
H3202 H 0.22634 0.59982 0.25538 0.0
H3203 H 0.16193 0.53019 0.20534 0.0
H3204 H 0.18556 0.54897 0.19593 0.0
H3205 H 0.18516 0.57525 0.24459 0.0
H3206 H 0.16367 0.55452 0.25474 0.0
H3207 H 0.21468 0.57236 0.23835 0.0
H3208 H 0.17122 0.59422 0.19757 0.0
H3209 H 0.14944 0.59052 0.17449 0.0
H3210 H 0.18494 0.56308 0.14435 0.0
H3211 H 0.20683 0.56683 0.16709 0.0
C3212 C 0.26159 0.63578 0.20893 0.0
C3213 C 0.27155 0.63372 0.19422 0.0
C3214 C 0.24825 0.62406 0.21273 0.0
C3215 C 0.2447 0.60991 0.20203 0.0
C3216 C 0.2545 0.60793 0.18724 0.0
C3217 C 0.26779 0.61969 0.18338 0.0
C3218 C 0.23067 0.59729 0.2062 0.0
C3219 C 0.21786 0.59368 0.19394 0.0
C3220 C 0.22952 0.58932 0.22234 0.0
C3221 C 0.24326 0.59153 0.23542 0.0
C3222 C 0.26029 0.58802 0.23144 0.0
C3223 C 0.27319 0.59025 0.24378 0.0
C3224 C 0.26922 0.59587 0.2602 0.0
C3225 C 0.25231 0.59923 0.26432 0.0
C3226 C 0.23936 0.59704 0.25202 0.0
C3227 C 0.16678 0.54017 0.21388 0.0
C3228 C 0.16024 0.54157 0.23048 0.0
C3229 C 0.18017 0.55116 0.2084 0.0
C3230 C 0.18696 0.56418 0.2192 0.0
C3231 C 0.18022 0.56554 0.23578 0.0
C3232 C 0.16749 0.55401 0.2415 0.0
C3233 C 0.20196 0.57547 0.21404 0.0
C3234 C 0.21523 0.57862 0.22603 0.0
C3235 C 0.20357 0.58295 0.19762 0.0
C3236 C 0.19041 0.58052 0.18411 0.0
C3237 C 0.17418 0.58724 0.18608 0.0
C3238 C 0.1619 0.5852 0.17307 0.0
C3239 C 0.16574 0.57639 0.1581 0.0
C3240 C 0.18194 0.5698 0.156 0.0
C3241 C 0.1943 0.57196 0.16889 0.0
H3242 H 0.15619 0.57478 0.14808 0.0
H3243 H 0.27923 0.59759 0.26974 0.0
H3244 H 0.9077 0.52072 0.9851 0.0
H3245 H 0.8818 0.53697 0.98222 0.0
H3246 H 0.88312 0.54779 0.03633 0.0
H3247 H 0.90887 0.53122 0.03931 0.0
H3248 H 0.85138 0.54163 0.02669 0.0
H3249 H 0.89756 0.57739 0.00587 0.0
H3250 H 0.92262 0.585 0.98812 0.0
H3251 H 0.89203 0.57813 0.94267 0.0
H3252 H 0.86682 0.57024 0.96015 0.0
H3253 H 0.80022 0.61458 0.02669 0.0
H3254 H 0.82457 0.59602 0.02832 0.0
H3255 H 0.81527 0.57975 0.97628 0.0
H3256 H 0.79065 0.5982 0.97459 0.0
H3257 H 0.85035 0.58819 0.98408 0.0
H3258 H 0.80366 0.55356 0.00616 0.0
H3259 H 0.77901 0.54706 0.02483 0.0
H3260 H 0.81134 0.55333 0.06915 0.0
H3261 H 0.83615 0.56012 0.05074 0.0
C3262 C 0.90244 0.52653 0.99639 0.0
C3263 C 0.91042 0.52478 0.01242 0.0
C3264 C 0.88765 0.53587 0.99472 0.0
C3265 C 0.88064 0.54395 0.00899 0.0
C3266 C 0.88826 0.54174 0.02511 0.0
C3267 C 0.90297 0.53223 0.02681 0.0
C3268 C 0.8656 0.55496 0.00706 0.0
C3269 C 0.85127 0.55192 0.0175 0.0
C3270 C 0.86524 0.56825 0.99486 0.0
C3271 C 0.88035 0.57305 0.98431 0.0
C3272 C 0.89621 0.57738 0.99208 0.0
C3273 C 0.91043 0.58176 0.98207 0.0
C3274 C 0.90893 0.582 0.96428 0.0
C3275 C 0.89318 0.57791 0.95646 0.0
C3276 C 0.87891 0.57349 0.96641 0.0
C3277 C 0.80336 0.60711 0.01554 0.0
C3278 C 0.79347 0.60786 1.0005 0.0
C3279 C 0.81725 0.59645 0.01653 0.0
C3280 C 0.82166 0.5864 0.00247 0.0
C3281 C 0.81206 0.58738 0.98729 0.0
C3282 C 0.79799 0.5979 0.98636 0.0
C3283 C 0.83625 0.57485 0.00373 0.0
C3284 C 0.85048 0.57782 0.99319 0.0
C3285 C 0.83661 0.56165 0.01597 0.0
C3286 C 0.82173 0.55751 0.02707 0.0
C3287 C 0.80549 0.5537 0.01989 0.0
C3288 C 0.79149 0.54993 0.03043 0.0
C3289 C 0.7936 0.54982 0.04817 0.0
C3290 C 0.80972 0.55344 0.05541 0.0
C3291 C 0.82376 0.55723 0.04493 0.0
H3292 H 0.78275 0.5469 0.05631 0.0
H3293 H 0.91996 0.58539 0.95655 0.0
H3294 H 0.12836 0.02223 0.0218 0.0
H3295 H 0.14869 1.00088 0.01364 0.0
H3296 H 0.11804 0.96201 0.03904 0.0
H3297 H 0.09712 0.98309 0.04663 0.0
H3298 H 0.1541 0.96294 0.04762 0.0
H3299 H 0.11696 0.96162 0.99814 0.0
H3300 H 0.1015 0.97443 0.97416 0.0
H3301 H 0.14908 0.99358 0.95331 0.0
H3302 H 0.16481 0.98109 0.97731 0.0
H3303 H 0.20121 0.89278 0.01975 0.0
H3304 H 0.17863 0.91226 0.02679 0.0
H3305 H 0.19906 0.94835 0.99003 0.0
H3306 H 0.22101 0.92841 0.98226 0.0
H3307 H 0.16709 0.94846 0.98744 0.0
H3308 H 0.20462 0.95216 0.03606 0.0
H3309 H 0.2214 0.9415 0.06028 0.0
H3310 H 0.17543 0.92071 0.08312 0.0
H3311 H 0.15839 0.93107 0.05892 0.0
C3312 C 0.12565 0.0091 0.02537 0.0
C3313 C 0.11095 0.00447 0.03486 0.0
C3314 C 0.13741 0.99693 0.02079 0.0
C3315 C 0.13486 0.97987 0.02572 0.0
C3316 C 0.12028 0.97514 0.03518 0.0
C3317 C 0.10837 0.98726 0.03957 0.0
C3318 C 0.14762 0.96708 0.02126 0.0
C3319 C 0.1568 0.95954 0.03448 0.0
C3320 C 0.15149 0.96313 0.00411 0.0
C3321 C 0.14205 0.97055 0.98961 0.0
C3322 C 0.12412 0.96868 0.98852 0.0
C3323 C 0.1153 0.97586 0.9749 0.0
C3324 C 0.1243 0.98485 0.96224 0.0
C3325 C 0.14213 0.98663 0.96313 0.0
C3326 C 0.151 0.97949 0.97673 0.0
C3327 C 0.20089 0.90489 0.01321 0.0
C3328 C 0.21293 0.9091 1.00051 0.0
C3329 C 0.18802 0.9161 0.01731 0.0
C3330 C 0.18726 0.93202 0.00923 0.0
C3331 C 0.19929 0.93618 0.99649 0.0
C3332 C 0.21189 0.9248 0.99208 0.0
C3333 C 0.17384 0.94426 0.01382 0.0
C3334 C 0.16447 0.95175 1.00061 0.0
C3335 C 0.17005 0.94845 0.03101 0.0
C3336 C 0.18026 0.94224 0.0456 0.0
C3337 C 0.19811 0.94521 0.04619 0.0
C3338 C 0.20766 0.93924 0.05992 0.0
C3339 C 0.19949 0.93039 0.07321 0.0
C3340 C 0.18174 0.92754 0.07281 0.0
C3341 C 0.17213 0.93347 0.0591 0.0
H3342 H 0.20691 0.92578 0.08383 0.0
H3343 H 0.11745 0.9904 0.95171 0.0
loop_
_geom_bond_atom_site_label_1
_geom_bond_atom_site_label_2
_geom_bond_distance
_geom_bond_site_symmetry_2
_ccdc_geom_bond_type
P0 O11 1.490 . S
P0 C14 1.812 . S
P0 C20 1.803 . S
P0 C26 1.819 . S
H1 C15 0.941 . S
H2 C16 0.939 . S
H3 C18 0.940 1_655 S
H4 C19 0.940 . S
H5 C21 0.939 . S
H6 C22 0.942 . S
H7 C24 0.967 . S
H8 C25 0.939 . S
H9 C27 0.941 . S
H10 C31 0.939 . S
O11 P0 1.490 . S
H12 C28 0.939 . S
H13 C30 0.940 1_556 S
C14 P0 1.812 . S
C14 C15 1.389 . S
C14 C19 1.391 . S
C15 H1 0.941 . S
C15 C14 1.389 . S
C15 C16 1.397 . S
C16 H2 0.939 . S
C16 C15 1.397 . S
C16 C17 1.378 . S
C17 C16 1.378 . S
C17 C18 1.378 . S
C18 H3 0.940 1_455 S
C18 C17 1.378 . S
C18 C19 1.396 . S
C19 H4 0.940 . S
C19 C14 1.391 . S
C19 C18 1.396 . S
C20 P0 1.803 . S
C20 C21 1.378 . S
C20 C25 1.400 . S
C21 H5 0.939 . S
C21 C20 1.378 . S
C21 C22 1.361 . S
C22 H6 0.942 . S
C22 C21 1.361 . S
C22 C23 1.421 . S
C23 C22 1.421 . S
C23 C24 1.403 1_545 S
C24 H7 0.967 . S
C24 C23 1.403 1_565 S
C24 C25 1.364 1_565 S
C25 H8 0.939 . S
C25 C20 1.400 . S
C25 C24 1.364 1_545 S
C26 P0 1.819 . S
C26 C27 1.391 . S
C26 C31 1.391 . S
C27 H9 0.941 . S
C27 C26 1.391 . S
C27 C28 1.396 . S
C28 H12 0.939 . S
C28 C27 1.396 . S
C28 C29 1.397 . S
C29 C28 1.397 . S
C29 C30 1.385 . S
C30 H13 0.940 1_554 S
C30 C29 1.385 . S
C30 C31 1.388 . S
C31 H10 0.939 . S
C31 C26 1.391 . S
C31 C30 1.388 . S
P32 O43 1.490 . S
P32 C46 1.812 . S
P32 C52 1.803 . S
P32 C58 1.819 . S
H33 C47 0.941 . S
H34 C48 0.939 . S
H35 C50 0.940 . S
H36 C51 0.940 . S
H37 C53 0.939 . S
H38 C54 0.942 . S
H39 C56 0.940 . S
H40 C57 0.939 . S
H41 C59 0.941 . S
H42 C63 0.939 . S
O43 P32 1.490 . S
H44 C60 0.939 . S
H45 C62 0.940 . S
C46 P32 1.812 . S
C46 C47 1.389 . S
C46 C51 1.391 . S
C47 H33 0.941 . S
C47 C46 1.389 . S
C47 C48 1.397 . S
C48 H34 0.939 . S
C48 C47 1.397 . S
C48 C49 1.378 . S
C49 C48 1.378 . S
C49 C50 1.378 . S
C50 H35 0.940 . S
C50 C49 1.378 . S
C50 C51 1.396 . S
C51 H36 0.940 . S
C51 C46 1.391 . S
C51 C50 1.396 . S
C52 P32 1.803 . S
C52 C53 1.378 . S
C52 C57 1.400 . S
C53 H37 0.939 . S
C53 C52 1.378 . S
C53 C54 1.361 . S
C54 H38 0.942 . S
C54 C53 1.361 . S
C54 C55 1.369 . S
C55 C54 1.369 . S
C55 C56 1.404 . S
C56 H39 0.940 . S
C56 C55 1.404 . S
C56 C57 1.389 . S
C57 H40 0.939 . S
C57 C52 1.400 . S
C57 C56 1.389 . S
C58 P32 1.819 . S
C58 C59 1.391 . S
C58 C63 1.391 . S
C59 H41 0.941 . S
C59 C58 1.391 . S
C59 C60 1.396 . S
C60 H44 0.939 . S
C60 C59 1.396 . S
C60 C61 1.397 . S
C61 C60 1.397 . S
C61 C62 1.385 . S
C62 H45 0.940 . S
C62 C61 1.385 . S
C62 C63 1.388 . S
C63 H42 0.939 . S
C63 C58 1.391 . S
C63 C62 1.388 . S
P64 O75 1.490 . S
P64 C78 1.812 . S
P64 C84 1.803 . S
P64 C90 1.819 . S
H65 C79 0.941 . S
H66 C80 0.939 . S
H67 C82 0.940 . S
H68 C83 0.940 . S
H69 C85 0.939 . S
H70 C86 0.942 . S
H71 C88 0.940 . S
H72 C89 0.939 . S
H73 C91 0.941 . S
H74 C95 0.939 . S
O75 P64 1.490 . S
H76 C92 0.939 . S
H77 C94 0.940 . S
C78 P64 1.812 . S
C78 C79 1.389 1_554 S
C78 C83 1.391 . S
C79 H65 0.941 . S
C79 C78 1.389 1_556 S
C79 C80 1.397 . S
C80 H66 0.939 . S
C80 C79 1.397 . S
C80 C81 1.378 . S
C81 C80 1.378 . S
C81 C82 1.378 1_556 S
C82 H67 0.940 . S
C82 C81 1.378 1_554 S
C82 C83 1.396 . S
C83 H68 0.940 . S
C83 C78 1.391 . S
C83 C82 1.396 . S
C84 P64 1.803 . S
C84 C85 1.378 . S
C84 C89 1.400 . S
C85 H69 0.939 . S
C85 C84 1.378 . S
C85 C86 1.361 . S
C86 H70 0.942 . S
C86 C85 1.361 . S
C86 C87 1.369 . S
C87 C86 1.369 . S
C87 C88 1.404 . S
C88 H71 0.940 . S
C88 C87 1.404 . S
C88 C89 1.389 . S
C89 H72 0.939 . S
C89 C84 1.400 . S
C89 C88 1.389 . S
C90 P64 1.819 . S
C90 C91 1.391 1_655 S
C90 C95 1.391 . S
C91 H73 0.941 . S
C91 C90 1.391 1_455 S
C91 C92 1.396 . S
C92 H76 0.939 . S
C92 C91 1.396 . S
C92 C93 1.397 . S
C93 C92 1.397 . S
C93 C94 1.385 1_455 S
C94 H77 0.940 . S
C94 C93 1.385 1_655 S
C94 C95 1.388 . S
C95 H74 0.939 . S
C95 C90 1.391 . S
C95 C94 1.388 . S
P96 O107 1.490 . S
P96 C110 1.812 . S
P96 C116 1.803 . S
P96 C122 1.819 . S
H97 C111 0.941 . S
H98 C112 0.939 . S
H99 C114 0.940 . S
H100 C115 0.940 . S
H101 C117 0.939 . S
H102 C118 0.942 . S
H103 C120 0.940 . S
H104 C121 0.939 . S
H105 C123 0.941 . S
H106 C127 0.939 . S
O107 P96 1.490 . S
H108 C124 0.939 . S
H109 C126 0.940 . S
C110 P96 1.812 . S
C110 C111 1.389 . S
C110 C115 1.391 . S
C111 H97 0.941 . S
C111 C110 1.389 . S
C111 C112 1.397 . S
C112 H98 0.939 . S
C112 C111 1.397 . S
C112 C113 1.378 . S
C113 C112 1.378 . S
C113 C114 1.378 . S
C114 H99 0.940 . S
C114 C113 1.378 . S
C114 C115 1.396 . S
C115 H100 0.940 . S
C115 C110 1.391 . S
C115 C114 1.396 . S
C116 P96 1.803 . S
C116 C117 1.378 . S
C116 C121 1.400 . S
C117 H101 0.939 . S
C117 C116 1.378 . S
C117 C118 1.361 . S
C118 H102 0.942 . S
C118 C117 1.361 . S
C118 C119 1.369 . S
C119 C118 1.369 . S
C119 C120 1.404 . S
C120 H103 0.940 . S
C120 C119 1.404 . S
C120 C121 1.389 . S
C121 H104 0.939 . S
C121 C116 1.400 . S
C121 C120 1.389 . S
C122 P96 1.819 . S
C122 C123 1.391 . S
C122 C127 1.391 . S
C123 H105 0.941 . S
C123 C122 1.391 . S
C123 C124 1.396 . S
C124 H108 0.939 . S
C124 C123 1.396 . S
C124 C125 1.397 . S
C125 C124 1.397 . S
C125 C126 1.385 . S
C126 H109 0.940 . S
C126 C125 1.385 . S
C126 C127 1.388 . S
C127 H106 0.939 . S
C127 C122 1.391 . S
C127 C126 1.388 . S
P128 O139 1.490 . S
P128 C142 1.812 . S
P128 C148 1.803 . S
P128 C154 1.819 . S
H129 C143 0.941 . S
H130 C144 0.939 . S
H131 C146 0.940 . S
H132 C147 0.940 . S
H133 C149 0.939 . S
H134 C150 0.942 . S
H135 C152 0.940 . S
H136 C153 0.939 . S
H137 C155 0.941 . S
H138 C159 0.939 . S
O139 P128 1.490 . S
H140 C156 0.939 . S
H141 C158 0.940 1_655 S
C142 P128 1.812 . S
C142 C143 1.389 . S
C142 C147 1.391 . S
C143 H129 0.941 . S
C143 C142 1.389 . S
C143 C144 1.397 . S
C144 H130 0.939 . S
C144 C143 1.397 . S
C144 C145 1.378 1_565 S
C145 C144 1.378 1_545 S
C145 C146 1.378 . S
C146 H131 0.940 . S
C146 C145 1.378 . S
C146 C147 1.396 1_545 S
C147 H132 0.940 . S
C147 C142 1.391 . S
C147 C146 1.396 1_565 S
C148 P128 1.803 . S
C148 C149 1.378 . S
C148 C153 1.400 . S
C149 H133 0.939 . S
C149 C148 1.378 . S
C149 C150 1.361 . S
C150 H134 0.942 . S
C150 C149 1.361 . S
C150 C151 1.369 . S
C151 C150 1.369 . S
C151 C152 1.404 . S
C152 H135 0.940 . S
C152 C151 1.404 . S
C152 C153 1.389 . S
C153 H136 0.939 . S
C153 C148 1.400 . S
C153 C152 1.389 . S
C154 P128 1.819 . S
C154 C155 1.391 . S
C154 C159 1.391 . S
C155 H137 0.941 . S
C155 C154 1.391 . S
C155 C156 1.396 . S
C156 H140 0.939 . S
C156 C155 1.396 . S
C156 C157 1.397 . S
C157 C156 1.397 . S
C157 C158 1.385 . S
C158 H141 0.940 1_455 S
C158 C157 1.385 . S
C158 C159 1.388 . S
C159 H138 0.939 . S
C159 C154 1.391 . S
C159 C158 1.388 . S
P160 O171 1.490 . S
P160 C174 1.812 . S
P160 C180 1.803 . S
P160 C186 1.819 . S
H161 C175 0.941 . S
H162 C176 0.939 . S
H163 C178 0.940 . S
H164 C179 0.940 . S
H165 C181 0.939 . S
H166 C182 0.942 . S
H167 C184 0.940 . S
H168 C185 0.939 . S
H169 C187 0.941 . S
H170 C191 0.939 . S
O171 P160 1.490 . S
H172 C188 0.939 . S
H173 C190 0.940 . S
C174 P160 1.812 . S
C174 C175 1.389 . S
C174 C179 1.391 . S
C175 H161 0.941 . S
C175 C174 1.389 . S
C175 C176 1.397 . S
C176 H162 0.939 . S
C176 C175 1.397 . S
C176 C177 1.378 . S
C177 C176 1.378 . S
C177 C178 1.378 . S
C178 H163 0.940 . S
C178 C177 1.378 . S
C178 C179 1.396 . S
C179 H164 0.940 . S
C179 C174 1.391 . S
C179 C178 1.396 . S
C180 P160 1.803 . S
C180 C181 1.378 . S
C180 C185 1.400 . S
C181 H165 0.939 . S
C181 C180 1.378 . S
C181 C182 1.361 . S
C182 H166 0.942 . S
C182 C181 1.361 . S
C182 C183 1.369 . S
C183 C182 1.369 . S
C183 C184 1.404 . S
C184 H167 0.940 . S
C184 C183 1.404 . S
C184 C185 1.389 . S
C185 H168 0.939 . S
C185 C180 1.400 . S
C185 C184 1.389 . S
C186 P160 1.819 . S
C186 C187 1.391 . S
C186 C191 1.391 . S
C187 H169 0.941 . S
C187 C186 1.391 . S
C187 C188 1.396 . S
C188 H172 0.939 . S
C188 C187 1.396 . S
C188 C189 1.397 . S
C189 C188 1.397 . S
C189 C190 1.385 . S
C190 H173 0.940 . S
C190 C189 1.385 . S
C190 C191 1.388 . S
C191 H170 0.939 . S
C191 C186 1.391 . S
C191 C190 1.388 . S
P192 O203 1.490 . S
P192 C206 1.812 . S
P192 C212 1.803 . S
P192 C218 1.819 . S
H193 C207 0.941 . S
H194 C208 0.939 . S
H195 C210 0.940 . S
H196 C211 0.940 . S
H197 C213 0.939 . S
H198 C214 0.942 . S
H199 C216 0.940 . S
H200 C217 0.939 . S
H201 C219 0.941 . S
H202 C223 0.939 . S
O203 P192 1.490 . S
H204 C220 0.939 . S
H205 C222 0.940 . S
C206 P192 1.812 . S
C206 C207 1.389 1_655 S
C206 C211 1.391 . S
C207 H193 0.941 . S
C207 C206 1.389 1_455 S
C207 C208 1.397 . S
C208 H194 0.939 . S
C208 C207 1.397 . S
C208 C209 1.378 . S
C209 C208 1.378 . S
C209 C210 1.378 1_455 S
C210 H195 0.940 . S
C210 C209 1.378 1_655 S
C210 C211 1.396 . S
C211 H196 0.940 . S
C211 C206 1.391 . S
C211 C210 1.396 . S
C212 P192 1.803 . S
C212 C213 1.378 . S
C212 C217 1.400 . S
C213 H197 0.939 . S
C213 C212 1.378 . S
C213 C214 1.361 . S
C214 H198 0.942 . S
C214 C213 1.361 . S
C214 C215 1.369 . S
C215 C214 1.369 . S
C215 C216 1.404 . S
C216 H199 0.940 . S
C216 C215 1.404 . S
C216 C217 1.389 . S
C217 H200 0.939 . S
C217 C212 1.400 . S
C217 C216 1.389 . S
C218 P192 1.819 . S
C218 C219 1.391 . S
C218 C223 1.391 . S
C219 H201 0.941 . S
C219 C218 1.391 . S
C219 C220 1.396 . S
C220 H204 0.939 . S
C220 C219 1.396 . S
C220 C221 1.397 . S
C221 C220 1.397 . S
C221 C222 1.385 . S
C222 H205 0.940 . S
C222 C221 1.385 . S
C222 C223 1.388 . S
C223 H202 0.939 . S
C223 C218 1.391 . S
C223 C222 1.388 . S
P224 O235 1.490 . S
P224 C238 1.812 . S
P224 C244 1.803 . S
P224 C250 1.819 . S
H225 C239 0.941 . S
H226 C240 0.939 . S
H227 C242 0.940 . S
H228 C243 0.940 . S
H229 C245 0.939 . S
H230 C246 0.942 . S
H231 C248 0.940 . S
H232 C249 0.939 . S
H233 C251 0.941 . S
H234 C255 0.939 . S
O235 P224 1.490 . S
H236 C252 0.939 . S
H237 C254 0.940 . S
C238 P224 1.812 . S
C238 C239 1.389 . S
C238 C243 1.391 . S
C239 H225 0.941 . S
C239 C238 1.389 . S
C239 C240 1.397 . S
C240 H226 0.939 . S
C240 C239 1.397 . S
C240 C241 1.378 . S
C241 C240 1.378 . S
C241 C242 1.378 . S
C242 H227 0.940 . S
C242 C241 1.378 . S
C242 C243 1.396 . S
C243 H228 0.940 . S
C243 C238 1.391 . S
C243 C242 1.396 . S
C244 P224 1.803 . S
C244 C245 1.378 . S
C244 C249 1.400 . S
C245 H229 0.939 . S
C245 C244 1.378 . S
C245 C246 1.361 . S
C246 H230 0.942 . S
C246 C245 1.361 . S
C246 C247 1.369 . S
C247 C246 1.369 . S
C247 C248 1.404 . S
C248 H231 0.940 . S
C248 C247 1.404 . S
C248 C249 1.389 . S
C249 H232 0.939 . S
C249 C244 1.400 . S
C249 C248 1.389 . S
C250 P224 1.819 . S
C250 C251 1.391 . S
C250 C255 1.391 . S
C251 H233 0.941 . S
C251 C250 1.391 . S
C251 C252 1.396 . S
C252 H236 0.939 . S
C252 C251 1.396 . S
C252 C253 1.397 . S
C253 C252 1.397 . S
C253 C254 1.385 . S
C254 H237 0.940 . S
C254 C253 1.385 . S
C254 C255 1.388 . S
C255 H234 0.939 . S
C255 C250 1.391 . S
C255 C254 1.388 . S
P256 O267 1.490 . S
P256 C270 1.812 . S
P256 C276 1.803 . S
P256 C282 1.819 . S
H257 C271 0.941 . S
H258 C272 0.939 . S
H259 C274 0.940 . S
H260 C275 0.940 . S
H261 C277 0.939 . S
H262 C278 0.942 . S
H263 C280 0.940 . S
H264 C281 0.939 . S
H265 C283 0.941 . S
H266 C287 0.939 . S
O267 P256 1.490 . S
H268 C284 0.939 . S
H269 C286 0.940 . S
C270 P256 1.812 . S
C270 C271 1.389 . S
C270 C275 1.391 . S
C271 H257 0.941 . S
C271 C270 1.389 . S
C271 C272 1.397 . S
C272 H258 0.939 . S
C272 C271 1.397 . S
C272 C273 1.378 . S
C273 C272 1.378 . S
C273 C274 1.378 . S
C274 H259 0.940 . S
C274 C273 1.378 . S
C274 C275 1.396 . S
C275 H260 0.940 . S
C275 C270 1.391 . S
C275 C274 1.396 . S
C276 P256 1.803 . S
C276 C277 1.378 . S
C276 C281 1.400 . S
C277 H261 0.939 . S
C277 C276 1.378 . S
C277 C278 1.361 . S
C278 H262 0.942 . S
C278 C277 1.361 . S
C278 C279 1.369 . S
C279 C278 1.369 . S
C279 C280 1.404 . S
C280 H263 0.940 . S
C280 C279 1.404 . S
C280 C281 1.389 . S
C281 H264 0.939 . S
C281 C276 1.400 . S
C281 C280 1.389 . S
C282 P256 1.819 . S
C282 C283 1.391 . S
C282 C287 1.391 . S
C283 H265 0.941 . S
C283 C282 1.391 . S
C283 C284 1.396 . S
C284 H268 0.939 . S
C284 C283 1.396 . S
C284 C285 1.397 . S
C285 C284 1.397 . S
C285 C286 1.385 . S
C286 H269 0.940 . S
C286 C285 1.385 . S
C286 C287 1.388 . S
C287 H266 0.939 . S
C287 C282 1.391 . S
C287 C286 1.388 . S
P288 O299 1.490 . S
P288 C302 1.812 . S
P288 C308 1.803 . S
P288 C314 1.819 . S
H289 C303 0.941 . S
H290 C304 0.939 . S
H291 C306 0.940 . S
H292 C307 0.940 . S
H293 C309 0.939 . S
H294 C310 0.942 . S
H295 C312 0.940 . S
H296 C313 0.939 . S
H297 C315 0.941 . S
H298 C319 0.939 . S
O299 P288 1.490 . S
H300 C316 0.939 . S
H301 C318 0.940 . S
C302 P288 1.812 . S
C302 C303 1.389 . S
C302 C307 1.391 . S
C303 H289 0.941 . S
C303 C302 1.389 . S
C303 C304 1.397 . S
C304 H290 0.939 . S
C304 C303 1.397 . S
C304 C305 1.378 . S
C305 C304 1.378 . S
C305 C306 1.378 . S
C306 H291 0.940 . S
C306 C305 1.378 . S
C306 C307 1.396 . S
C307 H292 0.940 . S
C307 C302 1.391 . S
C307 C306 1.396 . S
C308 P288 1.803 . S
C308 C309 1.378 1_565 S
C308 C313 1.400 . S
C309 H293 0.939 . S
C309 C308 1.378 1_545 S
C309 C310 1.361 . S
C310 H294 0.942 . S
C310 C309 1.361 . S
C310 C311 1.369 . S
C311 C310 1.369 . S
C311 C312 1.404 1_545 S
C312 H295 0.940 . S
C312 C311 1.404 1_565 S
C312 C313 1.389 . S
C313 H296 0.939 . S
C313 C308 1.400 . S
C313 C312 1.389 . S
C314 P288 1.819 . S
C314 C315 1.391 . S
C314 C319 1.391 . S
C315 H297 0.941 . S
C315 C314 1.391 . S
C315 C316 1.396 . S
C316 H300 0.939 . S
C316 C315 1.396 . S
C316 C317 1.397 . S
C317 C316 1.397 . S
C317 C318 1.385 . S
C318 H301 0.940 . S
C318 C317 1.385 . S
C318 C319 1.388 . S
C319 H298 0.939 . S
C319 C314 1.391 . S
C319 C318 1.388 . S
P320 O331 1.490 . S
P320 C334 1.812 . S
P320 C340 1.803 . S
P320 C346 1.819 . S
H321 C335 0.941 . S
H322 C336 0.939 . S
H323 C338 0.940 . S
H324 C339 0.940 . S
H325 C341 0.939 . S
H326 C342 0.942 . S
H327 C344 0.940 . S
H328 C345 0.939 . S
H329 C347 0.941 . S
H330 C351 0.939 . S
O331 P320 1.490 . S
H332 C348 0.939 . S
H333 C350 0.940 . S
C334 P320 1.812 . S
C334 C335 1.389 . S
C334 C339 1.391 . S
C335 H321 0.941 . S
C335 C334 1.389 . S
C335 C336 1.397 . S
C336 H322 0.939 . S
C336 C335 1.397 . S
C336 C337 1.378 . S
C337 C336 1.378 . S
C337 C338 1.378 . S
C338 H323 0.940 . S
C338 C337 1.378 . S
C338 C339 1.396 . S
C339 H324 0.940 . S
C339 C334 1.391 . S
C339 C338 1.396 . S
C340 P320 1.803 . S
C340 C341 1.378 . S
C340 C345 1.400 . S
C341 H325 0.939 . S
C341 C340 1.378 . S
C341 C342 1.361 . S
C342 H326 0.942 . S
C342 C341 1.361 . S
C342 C343 1.369 . S
C343 C342 1.369 . S
C343 C344 1.404 . S
C344 H327 0.940 . S
C344 C343 1.404 . S
C344 C345 1.389 . S
C345 H328 0.939 . S
C345 C340 1.400 . S
C345 C344 1.389 . S
C346 P320 1.819 . S
C346 C347 1.391 . S
C346 C351 1.391 . S
C347 H329 0.941 . S
C347 C346 1.391 . S
C347 C348 1.396 . S
C348 H332 0.939 . S
C348 C347 1.396 . S
C348 C349 1.397 . S
C349 C348 1.397 . S
C349 C350 1.385 . S
C350 H333 0.940 . S
C350 C349 1.385 . S
C350 C351 1.388 . S
C351 H330 0.939 . S
C351 C346 1.391 . S
C351 C350 1.388 . S
P352 O363 1.490 . S
P352 C366 1.812 . S
P352 C372 1.803 . S
P352 C378 1.819 . S
H353 C367 0.941 . S
H354 C368 0.939 . S
H355 C370 0.940 . S
H356 C371 0.940 . S
H357 C373 0.939 . S
H358 C374 0.942 . S
H359 C376 0.940 . S
H360 C377 0.939 . S
H361 C379 0.941 . S
H362 C383 0.939 . S
O363 P352 1.490 . S
H364 C380 0.939 . S
H365 C382 0.940 . S
C366 P352 1.812 . S
C366 C367 1.389 . S
C366 C371 1.391 . S
C367 H353 0.941 . S
C367 C366 1.389 . S
C367 C368 1.397 . S
C368 H354 0.939 . S
C368 C367 1.397 . S
C368 C369 1.378 . S
C369 C368 1.378 . S
C369 C370 1.378 . S
C370 H355 0.940 . S
C370 C369 1.378 . S
C370 C371 1.396 . S
C371 H356 0.940 . S
C371 C366 1.391 . S
C371 C370 1.396 . S
C372 P352 1.803 . S
C372 C373 1.378 . S
C372 C377 1.400 . S
C373 H357 0.939 . S
C373 C372 1.378 . S
C373 C374 1.361 . S
C374 H358 0.942 . S
C374 C373 1.361 . S
C374 C375 1.369 . S
C375 C374 1.369 . S
C375 C376 1.404 . S
C376 H359 0.940 . S
C376 C375 1.404 . S
C376 C377 1.389 . S
C377 H360 0.939 . S
C377 C372 1.400 . S
C377 C376 1.389 . S
C378 P352 1.819 . S
C378 C379 1.391 . S
C378 C383 1.391 . S
C379 H361 0.941 . S
C379 C378 1.391 . S
C379 C380 1.396 . S
C380 H364 0.939 . S
C380 C379 1.396 . S
C380 C381 1.397 . S
C381 C380 1.397 . S
C381 C382 1.385 . S
C382 H365 0.940 . S
C382 C381 1.385 . S
C382 C383 1.388 . S
C383 H362 0.939 . S
C383 C378 1.391 . S
C383 C382 1.388 . S
P384 O395 1.490 . S
P384 C398 1.812 . S
P384 C404 1.803 . S
P384 C410 1.819 . S
H385 C399 0.941 . S
H386 C400 0.939 . S
H387 C402 0.940 . S
H388 C403 0.940 . S
H389 C405 0.939 . S
H390 C406 0.942 . S
H391 C408 0.940 . S
H392 C409 0.939 . S
H393 C411 0.941 . S
H394 C415 0.939 . S
O395 P384 1.490 . S
H396 C412 0.939 . S
H397 C414 0.940 . S
C398 P384 1.812 . S
C398 C399 1.389 . S
C398 C403 1.391 . S
C399 H385 0.941 . S
C399 C398 1.389 . S
C399 C400 1.397 . S
C400 H386 0.939 . S
C400 C399 1.397 . S
C400 C401 1.378 . S
C401 C400 1.378 . S
C401 C402 1.378 . S
C402 H387 0.940 . S
C402 C401 1.378 . S
C402 C403 1.396 . S
C403 H388 0.940 . S
C403 C398 1.391 . S
C403 C402 1.396 . S
C404 P384 1.803 . S
C404 C405 1.378 . S
C404 C409 1.400 . S
C405 H389 0.939 . S
C405 C404 1.378 . S
C405 C406 1.361 . S
C406 H390 0.942 . S
C406 C405 1.361 . S
C406 C407 1.369 . S
C407 C406 1.369 . S
C407 C408 1.404 . S
C408 H391 0.940 . S
C408 C407 1.404 . S
C408 C409 1.389 . S
C409 H392 0.939 . S
C409 C404 1.400 . S
C409 C408 1.389 . S
C410 P384 1.819 . S
C410 C411 1.391 . S
C410 C415 1.391 . S
C411 H393 0.941 . S
C411 C410 1.391 . S
C411 C412 1.396 . S
C412 H396 0.939 . S
C412 C411 1.396 . S
C412 C413 1.397 . S
C413 C412 1.397 . S
C413 C414 1.385 . S
C414 H397 0.940 . S
C414 C413 1.385 . S
C414 C415 1.388 . S
C415 H394 0.939 . S
C415 C410 1.391 . S
C415 C414 1.388 . S
P416 O427 1.490 . S
P416 C430 1.812 . S
P416 C436 1.803 . S
P416 C442 1.819 . S
H417 C431 0.941 . S
H418 C432 0.939 . S
H419 C434 0.940 . S
H420 C435 0.940 . S
H421 C437 0.939 . S
H422 C438 0.942 . S
H423 C440 0.940 . S
H424 C441 0.939 . S
H425 C443 0.941 . S
H426 C447 0.939 . S
O427 P416 1.490 . S
H428 C444 0.939 . S
H429 C446 0.940 . S
C430 P416 1.812 . S
C430 C431 1.389 . S
C430 C435 1.391 . S
C431 H417 0.941 . S
C431 C430 1.389 . S
C431 C432 1.397 . S
C432 H418 0.939 . S
C432 C431 1.397 . S
C432 C433 1.378 . S
C433 C432 1.378 . S
C433 C434 1.378 . S
C434 H419 0.940 . S
C434 C433 1.378 . S
C434 C435 1.396 . S
C435 H420 0.940 . S
C435 C430 1.391 . S
C435 C434 1.396 . S
C436 P416 1.803 . S
C436 C437 1.378 . S
C436 C441 1.400 . S
C437 H421 0.939 . S
C437 C436 1.378 . S
C437 C438 1.361 . S
C438 H422 0.942 . S
C438 C437 1.361 . S
C438 C439 1.369 1_556 S
C439 C438 1.369 1_554 S
C439 C440 1.404 . S
C440 H423 0.940 . S
C440 C439 1.404 . S
C440 C441 1.389 1_554 S
C441 H424 0.939 . S
C441 C436 1.400 . S
C441 C440 1.389 1_556 S
C442 P416 1.819 . S
C442 C443 1.391 . S
C442 C447 1.391 . S
C443 H425 0.941 . S
C443 C442 1.391 . S
C443 C444 1.396 . S
C444 H428 0.939 . S
C444 C443 1.396 . S
C444 C445 1.397 . S
C445 C444 1.397 . S
C445 C446 1.385 . S
C446 H429 0.940 . S
C446 C445 1.385 . S
C446 C447 1.388 . S
C447 H426 0.939 . S
C447 C442 1.391 . S
C447 C446 1.388 . S
P448 O459 1.490 . S
P448 C462 1.812 . S
P448 C468 1.803 . S
P448 C474 1.819 . S
H449 C463 0.941 . S
H450 C464 0.939 . S
H451 C466 0.940 . S
H452 C467 0.940 . S
H453 C469 0.939 . S
H454 C470 0.942 . S
H455 C472 0.940 . S
H456 C473 0.939 . S
H457 C475 0.941 . S
H458 C479 0.939 . S
O459 P448 1.490 . S
H460 C476 0.939 . S
H461 C478 0.940 . S
C462 P448 1.812 . S
C462 C463 1.389 . S
C462 C467 1.391 . S
C463 H449 0.941 . S
C463 C462 1.389 . S
C463 C464 1.397 . S
C464 H450 0.939 . S
C464 C463 1.397 . S
C464 C465 1.378 . S
C465 C464 1.378 . S
C465 C466 1.378 . S
C466 H451 0.940 . S
C466 C465 1.378 . S
C466 C467 1.396 . S
C467 H452 0.940 . S
C467 C462 1.391 . S
C467 C466 1.396 . S
C468 P448 1.803 . S
C468 C469 1.378 . S
C468 C473 1.400 . S
C469 H453 0.939 . S
C469 C468 1.378 . S
C469 C470 1.361 . S
C470 H454 0.942 . S
C470 C469 1.361 . S
C470 C471 1.369 . S
C471 C470 1.369 . S
C471 C472 1.404 . S
C472 H455 0.940 . S
C472 C471 1.404 . S
C472 C473 1.389 . S
C473 H456 0.939 . S
C473 C468 1.400 . S
C473 C472 1.389 . S
C474 P448 1.819 . S
C474 C475 1.391 . S
C474 C479 1.391 . S
C475 H457 0.941 . S
C475 C474 1.391 . S
C475 C476 1.396 . S
C476 H460 0.939 . S
C476 C475 1.396 . S
C476 C477 1.397 . S
C477 C476 1.397 . S
C477 C478 1.385 . S
C478 H461 0.940 . S
C478 C477 1.385 . S
C478 C479 1.388 . S
C479 H458 0.939 . S
C479 C474 1.391 . S
C479 C478 1.388 . S
P480 O491 1.490 . S
P480 C494 1.812 . S
P480 C500 1.803 . S
P480 C506 1.819 . S
H481 C495 0.941 . S
H482 C496 0.939 . S
H483 C498 0.940 . S
H484 C499 0.940 . S
H485 C501 0.939 . S
H486 C502 0.942 . S
H487 C504 0.940 . S
H488 C505 0.939 . S
H489 C507 0.961 . S
H490 C511 0.939 . S
O491 P480 1.490 . S
H492 C508 0.939 . S
H493 C510 0.940 . S
C494 P480 1.812 . S
C494 C495 1.389 . S
C494 C499 1.391 . S
C495 H481 0.941 . S
C495 C494 1.389 . S
C495 C496 1.397 . S
C496 H482 0.939 . S
C496 C495 1.397 . S
C496 C497 1.378 . S
C497 C496 1.378 . S
C497 C498 1.378 . S
C498 H483 0.940 . S
C498 C497 1.378 . S
C498 C499 1.396 . S
C499 H484 0.940 . S
C499 C494 1.391 . S
C499 C498 1.396 . S
C500 P480 1.803 . S
C500 C501 1.378 1_556 S
C500 C505 1.400 . S
C501 H485 0.939 . S
C501 C500 1.378 1_554 S
C501 C502 1.361 . S
C502 H486 0.942 . S
C502 C501 1.361 . S
C502 C503 1.369 . S
C503 C502 1.369 . S
C503 C504 1.404 1_554 S
C504 H487 0.940 . S
C504 C503 1.404 1_556 S
C504 C505 1.389 . S
C505 H488 0.939 . S
C505 C500 1.400 . S
C505 C504 1.389 . S
C506 P480 1.819 . S
C506 C507 1.360 1_545 S
C506 C511 1.391 . S
C507 H489 0.961 . S
C507 C506 1.360 1_565 S
C507 C508 1.409 . S
C508 H492 0.939 . S
C508 C507 1.409 . S
C508 C509 1.397 1_565 S
C509 C508 1.397 1_545 S
C509 C510 1.385 . S
C510 H493 0.940 . S
C510 C509 1.385 . S
C510 C511 1.388 . S
C511 H490 0.939 . S
C511 C506 1.391 . S
C511 C510 1.388 . S
Mn512 O517 2.095 . S
Mn512 O527 2.162 . S
Mn512 O528 2.297 . S
Mn512 O536 2.394 . S
Mn512 O537 2.209 1_554 S
Mn512 O538 2.094 . S
Mn513 O518 2.121 . S
Mn513 N520 2.257 . S
Mn513 N529 2.282 . S
Mn513 O537 2.215 . S
Mn513 O539 2.117 . S
C514 O536 1.217 1_556 S
C514 O537 1.283 . S
C515 O527 1.281 . S
C515 O528 1.236 . S
C516 O538 1.240 . S
C516 O539 1.264 1_554 S
O517 Mn512 2.095 . S
O517 C526 1.250 . S
O518 Mn513 2.121 . S
O518 C526 1.258 1_556 S
C519 N520 1.326 . S
C519 C523 1.460 . S
C519 H525 0.929 . S
N520 Mn513 2.257 . S
N520 C519 1.326 . S
N520 C524 1.362 . S
C521 C522 1.258 . S
C521 C524 1.431 . S
C521 C541 1.449 . S
C522 C521 1.258 . S
C522 C523 1.477 . S
C522 H542 0.931 . S
C523 C519 1.460 . S
C523 C522 1.477 . S
C523 H543 0.930 . S
C524 N520 1.362 . S
C524 C521 1.431 . S
C524 C534 1.476 . S
H525 C519 0.929 . S
C526 O517 1.250 . S
C526 O518 1.258 1_554 S
O527 Mn512 2.162 . S
O527 C515 1.281 . S
O528 Mn512 2.297 . S
O528 C515 1.236 . S
N529 Mn513 2.282 . S
N529 C530 1.328 . S
N529 C534 1.318 . S
C530 N529 1.328 . S
C530 C531 1.457 . S
C530 H535 0.929 . S
C531 C530 1.457 . S
C531 C532 1.291 . S
C531 H544 0.931 . S
C532 C531 1.291 . S
C532 C533 1.373 . S
C532 H545 0.929 . S
C533 C532 1.373 . S
C533 C534 1.396 . S
C533 C540 1.403 . S
C534 C524 1.476 . S
C534 N529 1.318 . S
C534 C533 1.396 . S
H535 C530 0.929 . S
O536 Mn512 2.394 . S
O536 C514 1.217 1_554 S
O537 Mn512 2.209 1_556 S
O537 Mn513 2.215 . S
O537 C514 1.283 . S
O538 Mn512 2.094 . S
O538 C516 1.240 . S
O539 Mn513 2.117 . S
O539 C516 1.264 1_556 S
C540 C533 1.403 . S
C540 C541 1.399 . S
C540 H546 0.929 . S
C541 C521 1.449 . S
C541 C540 1.399 . S
C541 H547 0.930 . S
H542 C522 0.931 . S
H543 C523 0.930 . S
H544 C531 0.931 . S
H545 C532 0.929 . S
H546 C540 0.929 . S
H547 C541 0.930 . S
Mn548 O553 2.095 . S
Mn548 O563 2.162 . S
Mn548 O564 2.297 . S
Mn548 O572 2.385 . S
Mn548 O573 2.209 . S
Mn548 O574 2.094 . S
Mn549 O554 2.121 . S
Mn549 N556 2.257 . S
Mn549 N565 2.282 . S
Mn549 O573 2.215 . S
Mn549 O575 2.117 . S
C550 O572 1.234 . S
C550 O573 1.283 . S
C551 O563 1.281 . S
C551 O564 1.236 . S
C552 O574 1.240 . S
C552 O575 1.264 . S
O553 Mn548 2.095 . S
O553 C562 1.250 . S
O554 Mn549 2.121 . S
O554 C562 1.258 . S
C555 N556 1.326 . S
C555 C559 1.460 . S
C555 H561 0.929 . S
N556 Mn549 2.257 . S
N556 C555 1.326 . S
N556 C560 1.362 . S
C557 C558 1.258 . S
C557 C560 1.431 . S
C557 C577 1.449 . S
C558 C557 1.258 . S
C558 C559 1.477 . S
C558 H578 0.931 . S
C559 C555 1.460 . S
C559 C558 1.477 . S
C559 H579 0.930 . S
C560 N556 1.362 . S
C560 C557 1.431 . S
C560 C570 1.476 . S
H561 C555 0.929 . S
C562 O553 1.250 . S
C562 O554 1.258 . S
O563 Mn548 2.162 . S
O563 C551 1.281 . S
O564 Mn548 2.297 . S
O564 C551 1.236 . S
N565 Mn549 2.282 . S
N565 C566 1.328 . S
N565 C570 1.318 . S
C566 N565 1.328 . S
C566 C567 1.457 . S
C566 H571 0.929 . S
C567 C566 1.457 . S
C567 C568 1.291 . S
C567 H580 0.931 . S
C568 C567 1.291 . S
C568 C569 1.373 . S
C568 H581 0.929 . S
C569 C568 1.373 . S
C569 C570 1.396 . S
C569 C576 1.403 . S
C570 C560 1.476 . S
C570 N565 1.318 . S
C570 C569 1.396 . S
H571 C566 0.929 . S
O572 Mn548 2.385 . S
O572 C550 1.234 . S
O573 Mn548 2.209 . S
O573 Mn549 2.215 . S
O573 C550 1.283 . S
O574 Mn548 2.094 . S
O574 C552 1.240 . S
O575 Mn549 2.117 . S
O575 C552 1.264 . S
C576 C569 1.403 . S
C576 C577 1.399 . S
C576 H582 0.929 . S
C577 C557 1.449 . S
C577 C576 1.399 . S
C577 H583 0.930 . S
H578 C558 0.931 . S
H579 C559 0.930 . S
H580 C567 0.931 . S
H581 C568 0.929 . S
H582 C576 0.929 . S
H583 C577 0.930 . S
Mn584 O589 2.095 1_554 S
Mn584 O599 2.162 . S
Mn584 O600 2.297 1_554 S
Mn584 O608 2.385 . S
Mn584 O609 2.209 1_554 S
Mn584 O610 2.094 . S
Mn585 O590 2.121 . S
Mn585 N592 2.257 . S
Mn585 N601 2.282 . S
Mn585 O609 2.215 . S
Mn585 O611 2.117 1_556 S
C586 O608 1.223 1_556 S
C586 O609 1.291 . S
C587 O599 1.281 . S
C587 O600 1.236 1_554 S
C588 O610 1.240 . S
C588 O611 1.264 . S
O589 Mn584 2.095 1_556 S
O589 C598 1.250 . S
O590 Mn585 2.121 . S
O590 C598 1.258 . S
C591 N592 1.326 . S
C591 C595 1.460 . S
C591 H597 0.929 . S
N592 Mn585 2.257 . S
N592 C591 1.326 . S
N592 C596 1.362 . S
C593 C594 1.258 . S
C593 C596 1.431 . S
C593 C613 1.449 . S
C594 C593 1.258 . S
C594 C595 1.477 . S
C594 H614 0.931 . S
C595 C591 1.460 . S
C595 C594 1.477 . S
C595 H615 0.930 . S
C596 N592 1.362 . S
C596 C593 1.431 . S
C596 C606 1.476 . S
H597 C591 0.929 . S
C598 O589 1.250 . S
C598 O590 1.258 . S
O599 Mn584 2.162 . S
O599 C587 1.281 . S
O600 Mn584 2.297 1_556 S
O600 C587 1.236 1_556 S
N601 Mn585 2.282 . S
N601 C602 1.328 1_556 S
N601 C606 1.318 . S
C602 N601 1.328 1_554 S
C602 C603 1.457 . S
C602 H607 0.929 . S
C603 C602 1.457 . S
C603 C604 1.291 . S
C603 H616 0.931 . S
C604 C603 1.291 . S
C604 C605 1.373 1_554 S
C604 H617 0.929 . S
C605 C604 1.373 1_556 S
C605 C606 1.396 . S
C605 C612 1.403 . S
C606 C596 1.476 . S
C606 N601 1.318 . S
C606 C605 1.396 . S
H607 C602 0.929 . S
O608 Mn584 2.385 . S
O608 C586 1.223 1_554 S
O609 Mn584 2.209 1_556 S
O609 Mn585 2.215 . S
O609 C586 1.291 . S
O610 Mn584 2.094 . S
O610 C588 1.240 . S
O611 Mn585 2.117 1_554 S
O611 C588 1.264 . S
C612 C605 1.403 . S
C612 C613 1.399 . S
C612 H618 0.929 . S
C613 C593 1.449 . S
C613 C612 1.399 . S
C613 H619 0.930 . S
H614 C594 0.931 . S
H615 C595 0.930 . S
H616 C603 0.931 . S
H617 C604 0.929 . S
H618 C612 0.929 . S
H619 C613 0.930 . S
Mn620 O625 2.095 . S
Mn620 O635 2.162 . S
Mn620 O636 2.297 . S
Mn620 O644 2.405 . S
Mn620 O645 2.209 1_545 S
Mn620 O646 2.094 . S
Mn621 O626 2.121 . S
Mn621 N628 2.257 . S
Mn621 N637 2.282 . S
Mn621 O645 2.215 . S
Mn621 O647 2.117 . S
C622 O644 1.195 1_565 S
C622 O645 1.283 . S
C623 O635 1.281 . S
C623 O636 1.236 . S
C624 O646 1.240 . S
C624 O647 1.264 1_545 S
O625 Mn620 2.095 . S
O625 C634 1.250 . S
O626 Mn621 2.121 . S
O626 C634 1.258 1_565 S
C627 N628 1.326 . S
C627 C631 1.460 . S
C627 H633 0.929 . S
N628 Mn621 2.257 . S
N628 C627 1.326 . S
N628 C632 1.362 . S
C629 C630 1.258 . S
C629 C632 1.431 . S
C629 C649 1.449 . S
C630 C629 1.258 . S
C630 C631 1.477 . S
C630 H650 0.931 . S
C631 C627 1.460 . S
C631 C630 1.477 . S
C631 H651 0.930 . S
C632 N628 1.362 . S
C632 C629 1.431 . S
C632 C642 1.476 . S
H633 C627 0.929 . S
C634 O625 1.250 . S
C634 O626 1.258 1_545 S
O635 Mn620 2.162 . S
O635 C623 1.281 . S
O636 Mn620 2.297 . S
O636 C623 1.236 . S
N637 Mn621 2.282 . S
N637 C638 1.328 . S
N637 C642 1.318 . S
C638 N637 1.328 . S
C638 C639 1.457 . S
C638 H643 0.929 . S
C639 C638 1.457 . S
C639 C640 1.291 . S
C639 H652 0.931 . S
C640 C639 1.291 . S
C640 C641 1.373 . S
C640 H653 0.929 . S
C641 C640 1.373 . S
C641 C642 1.396 . S
C641 C648 1.403 . S
C642 C632 1.476 . S
C642 N637 1.318 . S
C642 C641 1.396 . S
H643 C638 0.929 . S
O644 Mn620 2.405 . S
O644 C622 1.195 1_545 S
O645 Mn620 2.209 1_565 S
O645 Mn621 2.215 . S
O645 C622 1.283 . S
O646 Mn620 2.094 . S
O646 C624 1.240 . S
O647 Mn621 2.117 . S
O647 C624 1.264 1_565 S
C648 C641 1.403 . S
C648 C649 1.399 . S
C648 H654 0.929 . S
C649 C629 1.449 . S
C649 C648 1.399 . S
C649 H655 0.930 . S
H650 C630 0.931 . S
H651 C631 0.930 . S
H652 C639 0.931 . S
H653 C640 0.929 . S
H654 C648 0.929 . S
H655 C649 0.930 . S
Mn656 O661 2.095 . S
Mn656 O671 2.162 . S
Mn656 O672 2.297 . S
Mn656 O680 2.385 . S
Mn656 O681 2.209 . S
Mn656 O682 2.094 . S
Mn657 O662 2.121 . S
Mn657 N664 2.257 . S
Mn657 N673 2.282 . S
Mn657 O681 2.215 . S
Mn657 O683 2.117 . S
C658 O680 1.234 . S
C658 O681 1.283 . S
C659 O671 1.281 . S
C659 O672 1.236 . S
C660 O682 1.240 . S
C660 O683 1.264 . S
O661 Mn656 2.095 . S
O661 C670 1.250 . S
O662 Mn657 2.121 . S
O662 C670 1.258 . S
C663 N664 1.326 . S
C663 C667 1.460 . S
C663 H669 0.929 . S
N664 Mn657 2.257 . S
N664 C663 1.326 . S
N664 C668 1.362 . S
C665 C666 1.258 . S
C665 C668 1.431 . S
C665 C685 1.449 . S
C666 C665 1.258 . S
C666 C667 1.477 . S
C666 H686 0.931 . S
C667 C663 1.460 . S
C667 C666 1.477 . S
C667 H687 0.930 . S
C668 N664 1.362 . S
C668 C665 1.431 . S
C668 C678 1.476 . S
H669 C663 0.929 . S
C670 O661 1.250 . S
C670 O662 1.258 . S
O671 Mn656 2.162 . S
O671 C659 1.281 . S
O672 Mn656 2.297 . S
O672 C659 1.236 . S
N673 Mn657 2.282 . S
N673 C674 1.328 . S
N673 C678 1.318 . S
C674 N673 1.328 . S
C674 C675 1.457 . S
C674 H679 0.929 . S
C675 C674 1.457 . S
C675 C676 1.291 . S
C675 H688 0.931 . S
C676 C675 1.291 . S
C676 C677 1.373 . S
C676 H689 0.929 . S
C677 C676 1.373 . S
C677 C678 1.396 . S
C677 C684 1.403 . S
C678 C668 1.476 . S
C678 N673 1.318 . S
C678 C677 1.396 . S
H679 C674 0.929 . S
O680 Mn656 2.385 . S
O680 C658 1.234 . S
O681 Mn656 2.209 . S
O681 Mn657 2.215 . S
O681 C658 1.283 . S
O682 Mn656 2.094 . S
O682 C660 1.240 . S
O683 Mn657 2.117 . S
O683 C660 1.264 . S
C684 C677 1.403 . S
C684 C685 1.399 . S
C684 H690 0.929 . S
C685 C665 1.449 . S
C685 C684 1.399 . S
C685 H691 0.930 . S
H686 C666 0.931 . S
H687 C667 0.930 . S
H688 C675 0.931 . S
H689 C676 0.929 . S
H690 C684 0.929 . S
H691 C685 0.930 . S
Mn692 O697 2.095 . S
Mn692 O707 2.162 . S
Mn692 O708 2.297 . S
Mn692 O716 2.385 . S
Mn692 O717 2.209 . S
Mn692 O718 2.094 . S
Mn693 O698 2.121 . S
Mn693 N700 2.257 . S
Mn693 N709 2.282 . S
Mn693 O717 2.215 . S
Mn693 O719 2.117 . S
C694 O716 1.234 . S
C694 O717 1.283 . S
C695 O707 1.281 . S
C695 O708 1.236 . S
C696 O718 1.240 . S
C696 O719 1.264 . S
O697 Mn692 2.095 . S
O697 C706 1.250 . S
O698 Mn693 2.121 . S
O698 C706 1.258 . S
C699 N700 1.326 . S
C699 C703 1.460 . S
C699 H705 0.929 . S
N700 Mn693 2.257 . S
N700 C699 1.326 . S
N700 C704 1.362 . S
C701 C702 1.258 . S
C701 C704 1.431 . S
C701 C721 1.449 . S
C702 C701 1.258 . S
C702 C703 1.477 . S
C702 H722 0.931 . S
C703 C699 1.460 . S
C703 C702 1.477 . S
C703 H723 0.930 . S
C704 N700 1.362 . S
C704 C701 1.431 . S
C704 C714 1.476 . S
H705 C699 0.929 . S
C706 O697 1.250 . S
C706 O698 1.258 . S
O707 Mn692 2.162 . S
O707 C695 1.281 . S
O708 Mn692 2.297 . S
O708 C695 1.236 . S
N709 Mn693 2.282 . S
N709 C710 1.328 . S
N709 C714 1.318 . S
C710 N709 1.328 . S
C710 C711 1.457 . S
C710 H715 0.929 . S
C711 C710 1.457 . S
C711 C712 1.291 . S
C711 H724 0.931 . S
C712 C711 1.291 . S
C712 C713 1.373 . S
C712 H725 0.929 . S
C713 C712 1.373 . S
C713 C714 1.396 . S
C713 C720 1.403 . S
C714 C704 1.476 . S
C714 N709 1.318 . S
C714 C713 1.396 . S
H715 C710 0.929 . S
O716 Mn692 2.385 . S
O716 C694 1.234 . S
O717 Mn692 2.209 . S
O717 Mn693 2.215 . S
O717 C694 1.283 . S
O718 Mn692 2.094 . S
O718 C696 1.240 . S
O719 Mn693 2.117 . S
O719 C696 1.264 . S
C720 C713 1.403 . S
C720 C721 1.399 . S
C720 H726 0.929 . S
C721 C701 1.449 . S
C721 C720 1.399 . S
C721 H727 0.930 . S
H722 C702 0.931 . S
H723 C703 0.930 . S
H724 C711 0.931 . S
H725 C712 0.929 . S
H726 C720 0.929 . S
H727 C721 0.930 . S
Mn728 O733 2.095 . S
Mn728 O743 2.162 . S
Mn728 O744 2.297 . S
Mn728 O752 2.385 . S
Mn728 O753 2.209 . S
Mn728 O754 2.094 . S
Mn729 O734 2.121 . S
Mn729 N736 2.257 . S
Mn729 N745 2.282 . S
Mn729 O753 2.215 . S
Mn729 O755 2.117 . S
C730 O752 1.234 . S
C730 O753 1.283 . S
C731 O743 1.281 . S
C731 O744 1.236 . S
C732 O754 1.240 . S
C732 O755 1.264 . S
O733 Mn728 2.095 . S
O733 C742 1.250 . S
O734 Mn729 2.121 . S
O734 C742 1.258 . S
C735 N736 1.326 . S
C735 C739 1.460 . S
C735 H741 0.929 . S
N736 Mn729 2.257 . S
N736 C735 1.326 . S
N736 C740 1.362 . S
C737 C738 1.258 . S
C737 C740 1.431 . S
C737 C757 1.449 . S
C738 C737 1.258 . S
C738 C739 1.477 . S
C738 H758 0.931 . S
C739 C735 1.460 . S
C739 C738 1.477 . S
C739 H759 0.930 . S
C740 N736 1.362 . S
C740 C737 1.431 . S
C740 C750 1.476 . S
H741 C735 0.929 . S
C742 O733 1.250 . S
C742 O734 1.258 . S
O743 Mn728 2.162 . S
O743 C731 1.281 . S
O744 Mn728 2.297 . S
O744 C731 1.236 . S
N745 Mn729 2.282 . S
N745 C746 1.328 . S
N745 C750 1.318 . S
C746 N745 1.328 . S
C746 C747 1.457 . S
C746 H751 0.929 . S
C747 C746 1.457 . S
C747 C748 1.291 . S
C747 H760 0.931 . S
C748 C747 1.291 . S
C748 C749 1.373 . S
C748 H761 0.929 . S
C749 C748 1.373 . S
C749 C750 1.396 . S
C749 C756 1.403 . S
C750 C740 1.476 . S
C750 N745 1.318 . S
C750 C749 1.396 . S
H751 C746 0.929 . S
O752 Mn728 2.385 . S
O752 C730 1.234 . S
O753 Mn728 2.209 . S
O753 Mn729 2.215 . S
O753 C730 1.283 . S
O754 Mn728 2.094 . S
O754 C732 1.240 . S
O755 Mn729 2.117 . S
O755 C732 1.264 . S
C756 C749 1.403 . S
C756 C757 1.399 . S
C756 H762 0.929 . S
C757 C737 1.449 . S
C757 C756 1.399 . S
C757 H763 0.930 . S
H758 C738 0.931 . S
H759 C739 0.930 . S
H760 C747 0.931 . S
H761 C748 0.929 . S
H762 C756 0.929 . S
H763 C757 0.930 . S
Mn764 O769 2.095 . S
Mn764 O779 2.162 . S
Mn764 O780 2.297 . S
Mn764 O788 2.385 1_565 S
Mn764 O789 2.209 1_565 S
Mn764 O790 2.094 . S
Mn765 O770 2.121 . S
Mn765 N772 2.257 . S
Mn765 N781 2.282 . S
Mn765 O789 2.215 . S
Mn765 O791 2.117 . S
C766 O788 1.234 . S
C766 O789 1.283 . S
C767 O779 1.281 . S
C767 O780 1.236 . S
C768 O790 1.206 1_545 S
C768 O791 1.309 . S
O769 Mn764 2.095 . S
O769 C778 1.250 1_565 S
O770 Mn765 2.121 . S
O770 C778 1.258 . S
C771 N772 1.326 . S
C771 C775 1.460 . S
C771 H777 0.929 . S
N772 Mn765 2.257 . S
N772 C771 1.326 . S
N772 C776 1.362 . S
C773 C774 1.258 . S
C773 C776 1.431 . S
C773 C793 1.449 . S
C774 C773 1.258 . S
C774 C775 1.477 . S
C774 H794 0.931 . S
C775 C771 1.460 . S
C775 C774 1.477 . S
C775 H795 0.930 . S
C776 N772 1.362 . S
C776 C773 1.431 . S
C776 C786 1.476 . S
H777 C771 0.929 . S
C778 O769 1.250 1_545 S
C778 O770 1.258 . S
O779 Mn764 2.162 . S
O779 C767 1.281 . S
O780 Mn764 2.297 . S
O780 C767 1.236 . S
N781 Mn765 2.282 . S
N781 C782 1.328 . S
N781 C786 1.318 . S
C782 N781 1.328 . S
C782 C783 1.457 . S
C782 H787 0.929 . S
C783 C782 1.457 . S
C783 C784 1.291 . S
C783 H796 0.931 . S
C784 C783 1.291 . S
C784 C785 1.373 . S
C784 H797 0.929 . S
C785 C784 1.373 . S
C785 C786 1.396 . S
C785 C792 1.403 . S
C786 C776 1.476 . S
C786 N781 1.318 . S
C786 C785 1.396 . S
H787 C782 0.929 . S
O788 Mn764 2.385 1_545 S
O788 C766 1.234 . S
O789 Mn764 2.209 1_545 S
O789 Mn765 2.215 . S
O789 C766 1.283 . S
O790 Mn764 2.094 . S
O790 C768 1.206 1_565 S
O791 Mn765 2.117 . S
O791 C768 1.309 . S
C792 C785 1.403 . S
C792 C793 1.399 . S
C792 H798 0.929 . S
C793 C773 1.449 . S
C793 C792 1.399 . S
C793 H799 0.930 . S
H794 C774 0.931 . S
H795 C775 0.930 . S
H796 C783 0.931 . S
H797 C784 0.929 . S
H798 C792 0.929 . S
H799 C793 0.930 . S
Mn800 O805 2.095 . S
Mn800 O815 2.162 . S
Mn800 O816 2.297 . S
Mn800 O824 2.395 . S
Mn800 O825 2.209 1_455 S
Mn800 O826 2.094 . S
Mn801 O806 2.121 . S
Mn801 N808 2.257 . S
Mn801 N817 2.282 . S
Mn801 O825 2.215 . S
Mn801 O827 2.117 . S
C802 O824 1.213 1_655 S
C802 O825 1.283 . S
C803 O815 1.281 . S
C803 O816 1.236 . S
C804 O826 1.240 . S
C804 O827 1.264 1_455 S
O805 Mn800 2.095 . S
O805 C814 1.250 . S
O806 Mn801 2.121 . S
O806 C814 1.258 1_655 S
C807 N808 1.326 . S
C807 C811 1.460 . S
C807 H813 0.929 . S
N808 Mn801 2.257 . S
N808 C807 1.326 . S
N808 C812 1.362 . S
C809 C810 1.258 . S
C809 C812 1.431 . S
C809 C829 1.449 . S
C810 C809 1.258 . S
C810 C811 1.477 . S
C810 H830 0.931 . S
C811 C807 1.460 . S
C811 C810 1.477 . S
C811 H831 0.930 . S
C812 N808 1.362 . S
C812 C809 1.431 . S
C812 C822 1.476 . S
H813 C807 0.929 . S
C814 O805 1.250 . S
C814 O806 1.258 1_455 S
O815 Mn800 2.162 . S
O815 C803 1.281 . S
O816 Mn800 2.297 . S
O816 C803 1.236 . S
N817 Mn801 2.282 . S
N817 C818 1.328 . S
N817 C822 1.318 . S
C818 N817 1.328 . S
C818 C819 1.457 . S
C818 H823 0.929 . S
C819 C818 1.457 . S
C819 C820 1.291 . S
C819 H832 0.931 . S
C820 C819 1.291 . S
C820 C821 1.373 . S
C820 H833 0.929 . S
C821 C820 1.373 . S
C821 C822 1.396 . S
C821 C828 1.403 . S
C822 C812 1.476 . S
C822 N817 1.318 . S
C822 C821 1.396 . S
H823 C818 0.929 . S
O824 Mn800 2.395 . S
O824 C802 1.213 1_455 S
O825 Mn800 2.209 1_655 S
O825 Mn801 2.215 . S
O825 C802 1.283 . S
O826 Mn800 2.094 . S
O826 C804 1.240 . S
O827 Mn801 2.117 . S
O827 C804 1.264 1_655 S
C828 C821 1.403 . S
C828 C829 1.399 . S
C828 H834 0.929 . S
C829 C809 1.449 . S
C829 C828 1.399 . S
C829 H835 0.930 . S
H830 C810 0.931 . S
H831 C811 0.930 . S
H832 C819 0.931 . S
H833 C820 0.929 . S
H834 C828 0.929 . S
H835 C829 0.930 . S
Mn836 O841 2.095 . S
Mn836 O851 2.162 . S
Mn836 O852 2.297 . S
Mn836 O860 2.385 . S
Mn836 O861 2.209 . S
Mn836 O862 2.094 . S
Mn837 O842 2.121 . S
Mn837 N844 2.257 . S
Mn837 N853 2.282 . S
Mn837 O861 2.215 . S
Mn837 O863 2.117 . S
C838 O860 1.234 . S
C838 O861 1.283 . S
C839 O851 1.281 . S
C839 O852 1.236 . S
C840 O862 1.240 . S
C840 O863 1.264 . S
O841 Mn836 2.095 . S
O841 C850 1.250 . S
O842 Mn837 2.121 . S
O842 C850 1.258 . S
C843 N844 1.326 . S
C843 C847 1.460 . S
C843 H849 0.929 . S
N844 Mn837 2.257 . S
N844 C843 1.326 . S
N844 C848 1.362 . S
C845 C846 1.258 . S
C845 C848 1.431 . S
C845 C865 1.449 . S
C846 C845 1.258 . S
C846 C847 1.477 . S
C846 H866 0.931 . S
C847 C843 1.460 . S
C847 C846 1.477 . S
C847 H867 0.930 . S
C848 N844 1.362 . S
C848 C845 1.431 . S
C848 C858 1.476 . S
H849 C843 0.929 . S
C850 O841 1.250 . S
C850 O842 1.258 . S
O851 Mn836 2.162 . S
O851 C839 1.281 . S
O852 Mn836 2.297 . S
O852 C839 1.236 . S
N853 Mn837 2.282 . S
N853 C854 1.328 . S
N853 C858 1.318 . S
C854 N853 1.328 . S
C854 C855 1.457 . S
C854 H859 0.929 . S
C855 C854 1.457 . S
C855 C856 1.291 . S
C855 H868 0.931 . S
C856 C855 1.291 . S
C856 C857 1.373 . S
C856 H869 0.929 . S
C857 C856 1.373 . S
C857 C858 1.396 . S
C857 C864 1.403 . S
C858 C848 1.476 . S
C858 N853 1.318 . S
C858 C857 1.396 . S
H859 C854 0.929 . S
O860 Mn836 2.385 . S
O860 C838 1.234 . S
O861 Mn836 2.209 . S
O861 Mn837 2.215 . S
O861 C838 1.283 . S
O862 Mn836 2.094 . S
O862 C840 1.240 . S
O863 Mn837 2.117 . S
O863 C840 1.264 . S
C864 C857 1.403 . S
C864 C865 1.399 . S
C864 H870 0.929 . S
C865 C845 1.449 . S
C865 C864 1.399 . S
C865 H871 0.930 . S
H866 C846 0.931 . S
H867 C847 0.930 . S
H868 C855 0.931 . S
H869 C856 0.929 . S
H870 C864 0.929 . S
H871 C865 0.930 . S
Mn872 O877 2.095 1_455 S
Mn872 O887 2.162 . S
Mn872 O888 2.297 1_455 S
Mn872 O896 2.385 . S
Mn872 O897 2.209 1_455 S
Mn872 O898 2.094 . S
Mn873 O878 2.121 . S
Mn873 N880 2.257 . S
Mn873 N889 2.282 1_655 S
Mn873 O897 2.215 . S
Mn873 O899 2.117 1_655 S
C874 O896 1.234 . S
C874 O897 1.283 1_455 S
C875 O887 1.281 . S
C875 O888 1.236 1_455 S
C876 O898 1.240 . S
C876 O899 1.264 . S
O877 Mn872 2.095 1_655 S
O877 C886 1.250 . S
O878 Mn873 2.121 . S
O878 C886 1.258 . S
C879 N880 1.326 . S
C879 C883 1.460 . S
C879 H885 0.929 . S
N880 Mn873 2.257 . S
N880 C879 1.326 . S
N880 C884 1.362 . S
C881 C882 1.258 . S
C881 C884 1.431 . S
C881 C901 1.449 . S
C882 C881 1.258 . S
C882 C883 1.477 . S
C882 H902 0.931 . S
C883 C879 1.460 . S
C883 C882 1.477 . S
C883 H903 0.930 . S
C884 N880 1.362 . S
C884 C881 1.431 . S
C884 C894 1.476 . S
H885 C879 0.929 . S
C886 O877 1.250 . S
C886 O878 1.258 . S
O887 Mn872 2.162 . S
O887 C875 1.281 . S
O888 Mn872 2.297 1_655 S
O888 C875 1.236 1_655 S
N889 Mn873 2.282 1_455 S
N889 C890 1.328 . S
N889 C894 1.318 1_455 S
C890 N889 1.328 . S
C890 C891 1.457 . S
C890 H895 0.929 . S
C891 C890 1.457 . S
C891 C892 1.291 . S
C891 H904 0.931 . S
C892 C891 1.291 . S
C892 C893 1.373 1_455 S
C892 H905 0.929 . S
C893 C892 1.373 1_655 S
C893 C894 1.396 . S
C893 C900 1.403 . S
C894 C884 1.476 . S
C894 N889 1.318 1_655 S
C894 C893 1.396 . S
H895 C890 0.929 . S
O896 Mn872 2.385 . S
O896 C874 1.234 . S
O897 Mn872 2.209 1_655 S
O897 Mn873 2.215 . S
O897 C874 1.283 1_655 S
O898 Mn872 2.094 . S
O898 C876 1.240 . S
O899 Mn873 2.117 1_455 S
O899 C876 1.264 . S
C900 C893 1.403 . S
C900 C901 1.399 . S
C900 H906 0.929 . S
C901 C881 1.449 . S
C901 C900 1.399 . S
C901 H907 0.930 . S
H902 C882 0.931 . S
H903 C883 0.930 . S
H904 C891 0.931 . S
H905 C892 0.929 . S
H906 C900 0.929 . S
H907 C901 0.930 . S
Mn908 O913 2.095 . S
Mn908 O923 2.162 . S
Mn908 O924 2.297 . S
Mn908 O932 2.385 . S
Mn908 O933 2.209 . S
Mn908 O934 2.094 . S
Mn909 O914 2.121 . S
Mn909 N916 2.257 . S
Mn909 N925 2.282 . S
Mn909 O933 2.215 . S
Mn909 O935 2.117 . S
C910 O932 1.234 . S
C910 O933 1.283 . S
C911 O923 1.281 . S
C911 O924 1.236 . S
C912 O934 1.240 . S
C912 O935 1.264 . S
O913 Mn908 2.095 . S
O913 C922 1.250 . S
O914 Mn909 2.121 . S
O914 C922 1.258 . S
C915 N916 1.326 . S
C915 C919 1.460 . S
C915 H921 0.929 . S
N916 Mn909 2.257 . S
N916 C915 1.326 . S
N916 C920 1.362 . S
C917 C918 1.258 . S
C917 C920 1.431 . S
C917 C937 1.449 . S
C918 C917 1.258 . S
C918 C919 1.477 . S
C918 H938 0.931 . S
C919 C915 1.460 . S
C919 C918 1.477 . S
C919 H939 0.930 . S
C920 N916 1.362 . S
C920 C917 1.431 . S
C920 C930 1.476 . S
H921 C915 0.929 . S
C922 O913 1.250 . S
C922 O914 1.258 . S
O923 Mn908 2.162 . S
O923 C911 1.281 . S
O924 Mn908 2.297 . S
O924 C911 1.236 . S
N925 Mn909 2.282 . S
N925 C926 1.328 . S
N925 C930 1.318 . S
C926 N925 1.328 . S
C926 C927 1.457 . S
C926 H931 0.929 . S
C927 C926 1.457 . S
C927 C928 1.291 . S
C927 H940 0.931 . S
C928 C927 1.291 . S
C928 C929 1.373 . S
C928 H941 0.929 . S
C929 C928 1.373 . S
C929 C930 1.396 . S
C929 C936 1.403 . S
C930 C920 1.476 . S
C930 N925 1.318 . S
C930 C929 1.396 . S
H931 C926 0.929 . S
O932 Mn908 2.385 . S
O932 C910 1.234 . S
O933 Mn908 2.209 . S
O933 Mn909 2.215 . S
O933 C910 1.283 . S
O934 Mn908 2.094 . S
O934 C912 1.240 . S
O935 Mn909 2.117 . S
O935 C912 1.264 . S
C936 C929 1.403 . S
C936 C937 1.399 . S
C936 H942 0.929 . S
C937 C917 1.449 . S
C937 C936 1.399 . S
C937 H943 0.930 . S
H938 C918 0.931 . S
H939 C919 0.930 . S
H940 C927 0.931 . S
H941 C928 0.929 . S
H942 C936 0.929 . S
H943 C937 0.930 . S
H944 C962 0.951 . S
H945 C964 0.951 . S
H946 C966 0.950 . S
H947 C967 0.950 . S
H948 C969 0.950 . S
H949 C972 0.950 . S
H950 C973 0.950 . S
H951 C975 0.950 . S
H952 C976 0.950 . S
H953 C977 0.951 . S
H954 C979 0.951 . S
H955 C981 0.950 . S
H956 C982 0.950 . S
H957 C984 0.950 . S
H958 C987 0.950 . S
H959 C988 0.950 . S
H960 C990 0.950 . S
H961 C991 0.950 . S
C962 H944 0.951 . S
C962 C963 1.366 . S
C962 C964 1.388 . S
C963 C962 1.366 . S
C963 C967 1.385 . S
C964 H945 0.951 . S
C964 C962 1.388 . S
C964 C965 1.366 . S
C965 C964 1.366 . S
C965 C966 1.414 . S
C965 C968 1.499 . S
C966 H946 0.950 . S
C966 C965 1.414 . S
C966 C967 1.374 . S
C967 H947 0.950 . S
C967 C963 1.385 . S
C967 C966 1.374 . S
C968 C965 1.499 . S
C968 C969 1.373 . S
C968 C970 1.389 . S
C969 H948 0.950 . S
C969 C968 1.373 . S
C969 C985 1.377 . S
C970 C968 1.389 . S
C970 C971 1.524 . S
C970 C984 1.377 . S
C971 C970 1.524 . S
C971 C972 1.397 . S
C971 C976 1.363 . S
C972 H949 0.950 . S
C972 C971 1.397 . S
C972 C973 1.334 . S
C973 H950 0.950 . S
C973 C972 1.334 . S
C973 C974 1.287 . S
C974 C973 1.287 . S
C974 C975 1.524 . S
C974 H993 0.913 . S
C975 H951 0.950 . S
C975 C974 1.524 . S
C975 C976 1.415 . S
C976 H952 0.950 . S
C976 C971 1.363 . S
C976 C975 1.415 . S
C977 H953 0.951 . S
C977 C978 1.366 . S
C977 C979 1.388 . S
C978 C977 1.366 . S
C978 C982 1.385 . S
C979 H954 0.951 . S
C979 C977 1.388 . S
C979 C980 1.366 . S
C980 C979 1.366 . S
C980 C981 1.414 . S
C980 C983 1.499 . S
C981 H955 0.950 . S
C981 C980 1.414 . S
C981 C982 1.374 . S
C982 H956 0.950 . S
C982 C978 1.385 . S
C982 C981 1.374 . S
C983 C980 1.499 . S
C983 C984 1.373 . S
C983 C985 1.389 . S
C984 H957 0.950 . S
C984 C970 1.377 . S
C984 C983 1.373 . S
C985 C969 1.377 . S
C985 C983 1.389 . S
C985 C986 1.524 . S
C986 C985 1.524 . S
C986 C987 1.397 . S
C986 C991 1.363 . S
C987 H958 0.950 . S
C987 C986 1.397 . S
C987 C988 1.334 . S
C988 H959 0.950 . S
C988 C987 1.334 . S
C988 C989 1.287 . S
C989 C988 1.287 . S
C989 C990 1.524 . S
C989 H992 0.999 . S
C990 H960 0.950 . S
C990 C989 1.524 . S
C990 C991 1.415 . S
C991 H961 0.950 . S
C991 C986 1.363 . S
C991 C990 1.415 . S
H992 C989 0.999 . S
H993 C974 0.913 . S
H994 C1012 0.951 . S
H995 C1014 0.951 . S
H996 C1016 0.950 . S
H997 C1017 0.950 1_655 S
H998 C1019 0.950 . S
H999 C1022 0.950 . S
H1000 C1023 0.950 . S
H1001 C1025 0.950 . S
H1002 C1026 0.950 . S
H1003 C1027 0.951 . S
H1004 C1029 0.951 . S
H1005 C1031 0.950 . S
H1006 C1032 0.950 . S
H1007 C1034 0.950 . S
H1008 C1037 0.950 . S
H1009 C1038 0.950 . S
H1010 C1040 0.950 . S
H1011 C1041 0.950 . S
C1012 H994 0.951 . S
C1012 C1013 1.366 . S
C1012 C1014 1.388 . S
C1013 C1012 1.366 . S
C1013 C1017 1.385 . S
C1014 H995 0.951 . S
C1014 C1012 1.388 . S
C1014 C1015 1.366 . S
C1015 C1014 1.366 . S
C1015 C1016 1.414 . S
C1015 C1018 1.499 . S
C1016 H996 0.950 . S
C1016 C1015 1.414 . S
C1016 C1017 1.374 . S
C1017 H997 0.950 1_455 S
C1017 C1013 1.385 . S
C1017 C1016 1.374 . S
C1018 C1015 1.499 . S
C1018 C1019 1.373 . S
C1018 C1020 1.389 . S
C1019 H998 0.950 . S
C1019 C1018 1.373 . S
C1019 C1035 1.377 . S
C1020 C1018 1.389 . S
C1020 C1021 1.524 . S
C1020 C1034 1.377 . S
C1021 C1020 1.524 . S
C1021 C1022 1.397 . S
C1021 C1026 1.363 . S
C1022 H999 0.950 . S
C1022 C1021 1.397 . S
C1022 C1023 1.334 . S
C1023 H1000 0.950 . S
C1023 C1022 1.334 . S
C1023 C1024 1.287 . S
C1024 C1023 1.287 . S
C1024 C1025 1.524 . S
C1024 H1043 0.913 . S
C1025 H1001 0.950 . S
C1025 C1024 1.524 . S
C1025 C1026 1.415 . S
C1026 H1002 0.950 . S
C1026 C1021 1.363 . S
C1026 C1025 1.415 . S
C1027 H1003 0.951 . S
C1027 C1028 1.366 . S
C1027 C1029 1.388 . S
C1028 C1027 1.366 . S
C1028 C1032 1.385 . S
C1029 H1004 0.951 . S
C1029 C1027 1.388 . S
C1029 C1030 1.366 . S
C1030 C1029 1.366 . S
C1030 C1031 1.414 . S
C1030 C1033 1.499 . S
C1031 H1005 0.950 . S
C1031 C1030 1.414 . S
C1031 C1032 1.374 . S
C1032 H1006 0.950 . S
C1032 C1028 1.385 . S
C1032 C1031 1.374 . S
C1033 C1030 1.499 . S
C1033 C1034 1.373 . S
C1033 C1035 1.389 . S
C1034 H1007 0.950 . S
C1034 C1020 1.377 . S
C1034 C1033 1.373 . S
C1035 C1019 1.377 . S
C1035 C1033 1.389 . S
C1035 C1036 1.524 . S
C1036 C1035 1.524 . S
C1036 C1037 1.397 . S
C1036 C1041 1.363 . S
C1037 H1008 0.950 . S
C1037 C1036 1.397 . S
C1037 C1038 1.334 . S
C1038 H1009 0.950 . S
C1038 C1037 1.334 . S
C1038 C1039 1.287 . S
C1039 C1038 1.287 . S
C1039 C1040 1.524 . S
C1039 H1042 0.999 . S
C1040 H1010 0.950 . S
C1040 C1039 1.524 . S
C1040 C1041 1.415 . S
C1041 H1011 0.950 . S
C1041 C1036 1.363 . S
C1041 C1040 1.415 . S
H1042 C1039 0.999 . S
H1043 C1024 0.913 . S
H1044 C1062 0.951 . S
H1045 C1064 0.951 . S
H1046 C1066 0.950 . S
H1047 C1067 0.950 . S
H1048 C1069 0.950 . S
H1049 C1072 0.950 . S
H1050 C1073 0.950 . S
H1051 C1075 0.950 . S
H1052 C1076 0.950 . S
H1053 C1077 0.951 . S
H1054 C1079 0.951 . S
H1055 C1081 0.950 . S
H1056 C1082 0.950 . S
H1057 C1084 0.950 . S
H1058 C1087 0.950 . S
H1059 C1088 0.950 . S
H1060 C1090 0.950 . S
H1061 C1091 0.950 . S
C1062 H1044 0.951 . S
C1062 C1063 1.366 . S
C1062 C1064 1.388 . S
C1063 C1062 1.366 . S
C1063 C1067 1.385 . S
C1064 H1045 0.951 . S
C1064 C1062 1.388 . S
C1064 C1065 1.366 . S
C1065 C1064 1.366 . S
C1065 C1066 1.414 . S
C1065 C1068 1.499 . S
C1066 H1046 0.950 . S
C1066 C1065 1.414 . S
C1066 C1067 1.374 . S
C1067 H1047 0.950 . S
C1067 C1063 1.385 . S
C1067 C1066 1.374 . S
C1068 C1065 1.499 . S
C1068 C1069 1.373 . S
C1068 C1070 1.389 . S
C1069 H1048 0.950 . S
C1069 C1068 1.373 . S
C1069 C1085 1.377 . S
C1070 C1068 1.389 . S
C1070 C1071 1.524 . S
C1070 C1084 1.377 . S
C1071 C1070 1.524 . S
C1071 C1072 1.397 . S
C1071 C1076 1.363 . S
C1072 H1049 0.950 . S
C1072 C1071 1.397 . S
C1072 C1073 1.334 . S
C1073 H1050 0.950 . S
C1073 C1072 1.334 . S
C1073 C1074 1.287 . S
C1074 C1073 1.287 . S
C1074 C1075 1.524 . S
C1074 H1093 0.913 . S
C1075 H1051 0.950 . S
C1075 C1074 1.524 . S
C1075 C1076 1.415 . S
C1076 H1052 0.950 . S
C1076 C1071 1.363 . S
C1076 C1075 1.415 . S
C1077 H1053 0.951 . S
C1077 C1078 1.366 . S
C1077 C1079 1.388 . S
C1078 C1077 1.366 . S
C1078 C1082 1.385 . S
C1079 H1054 0.951 . S
C1079 C1077 1.388 . S
C1079 C1080 1.366 . S
C1080 C1079 1.366 . S
C1080 C1081 1.414 . S
C1080 C1083 1.499 . S
C1081 H1055 0.950 . S
C1081 C1080 1.414 . S
C1081 C1082 1.374 . S
C1082 H1056 0.950 . S
C1082 C1078 1.385 . S
C1082 C1081 1.374 . S
C1083 C1080 1.499 . S
C1083 C1084 1.373 . S
C1083 C1085 1.389 . S
C1084 H1057 0.950 . S
C1084 C1070 1.377 . S
C1084 C1083 1.373 . S
C1085 C1069 1.377 . S
C1085 C1083 1.389 . S
C1085 C1086 1.524 . S
C1086 C1085 1.524 . S
C1086 C1087 1.397 . S
C1086 C1091 1.363 . S
C1087 H1058 0.950 . S
C1087 C1086 1.397 . S
C1087 C1088 1.334 . S
C1088 H1059 0.950 . S
C1088 C1087 1.334 . S
C1088 C1089 1.287 . S
C1089 C1088 1.287 . S
C1089 C1090 1.524 . S
C1089 H1092 0.999 . S
C1090 H1060 0.950 . S
C1090 C1089 1.524 . S
C1090 C1091 1.415 . S
C1091 H1061 0.950 . S
C1091 C1086 1.363 . S
C1091 C1090 1.415 . S
H1092 C1089 0.999 . S
H1093 C1074 0.913 . S
H1094 C1112 0.951 1_455 S
H1095 C1114 0.951 . S
H1096 C1116 0.950 . S
H1097 C1117 0.950 . S
H1098 C1119 0.950 . S
H1099 C1122 0.950 . S
H1100 C1123 0.950 . S
H1101 C1125 0.950 . S
H1102 C1126 0.950 . S
H1103 C1127 0.951 . S
H1104 C1129 0.951 . S
H1105 C1131 0.950 . S
H1106 C1132 0.950 . S
H1107 C1134 0.950 . S
H1108 C1137 0.950 . S
H1109 C1138 0.950 . S
H1110 C1140 0.950 . S
H1111 C1141 0.950 . S
C1112 H1094 0.951 1_655 S
C1112 C1113 1.366 . S
C1112 C1114 1.388 . S
C1113 C1112 1.366 . S
C1113 C1117 1.385 . S
C1114 H1095 0.951 . S
C1114 C1112 1.388 . S
C1114 C1115 1.366 . S
C1115 C1114 1.366 . S
C1115 C1116 1.414 . S
C1115 C1118 1.499 . S
C1116 H1096 0.950 . S
C1116 C1115 1.414 . S
C1116 C1117 1.374 . S
C1117 H1097 0.950 . S
C1117 C1113 1.385 . S
C1117 C1116 1.374 . S
C1118 C1115 1.499 . S
C1118 C1119 1.373 . S
C1118 C1120 1.389 1_565 S
C1119 H1098 0.950 . S
C1119 C1118 1.373 . S
C1119 C1135 1.377 . S
C1120 C1118 1.389 1_545 S
C1120 C1121 1.524 . S
C1120 C1134 1.377 . S
C1121 C1120 1.524 . S
C1121 C1122 1.397 . S
C1121 C1126 1.363 . S
C1122 H1099 0.950 . S
C1122 C1121 1.397 . S
C1122 C1123 1.334 . S
C1123 H1100 0.950 . S
C1123 C1122 1.334 . S
C1123 C1124 1.287 . S
C1124 C1123 1.287 . S
C1124 C1125 1.524 . S
C1124 H1143 0.913 . S
C1125 H1101 0.950 . S
C1125 C1124 1.524 . S
C1125 C1126 1.415 . S
C1126 H1102 0.950 . S
C1126 C1121 1.363 . S
C1126 C1125 1.415 . S
C1127 H1103 0.951 . S
C1127 C1128 1.366 1_565 S
C1127 C1129 1.388 . S
C1128 C1127 1.366 1_545 S
C1128 C1132 1.385 . S
C1129 H1104 0.951 . S
C1129 C1127 1.388 . S
C1129 C1130 1.366 . S
C1130 C1129 1.366 . S
C1130 C1131 1.414 1_565 S
C1130 C1133 1.499 . S
C1131 H1105 0.950 . S
C1131 C1130 1.414 1_545 S
C1131 C1132 1.374 . S
C1132 H1106 0.950 . S
C1132 C1128 1.385 . S
C1132 C1131 1.374 . S
C1133 C1130 1.499 . S
C1133 C1134 1.373 1_565 S
C1133 C1135 1.389 . S
C1134 H1107 0.950 . S
C1134 C1120 1.377 . S
C1134 C1133 1.373 1_545 S
C1135 C1119 1.377 . S
C1135 C1133 1.389 . S
C1135 C1136 1.524 . S
C1136 C1135 1.524 . S
C1136 C1137 1.397 . S
C1136 C1141 1.363 . S
C1137 H1108 0.950 . S
C1137 C1136 1.397 . S
C1137 C1138 1.334 . S
C1138 H1109 0.950 . S
C1138 C1137 1.334 . S
C1138 C1139 1.287 . S
C1139 C1138 1.287 . S
C1139 C1140 1.524 . S
C1139 H1142 0.999 . S
C1140 H1110 0.950 . S
C1140 C1139 1.524 . S
C1140 C1141 1.415 . S
C1141 H1111 0.950 . S
C1141 C1136 1.363 . S
C1141 C1140 1.415 . S
H1142 C1139 0.999 . S
H1143 C1124 0.913 . S
H1144 C1162 0.951 . S
H1145 C1164 0.951 . S
H1146 C1166 0.950 . S
H1147 C1167 0.950 . S
H1148 C1169 0.950 . S
H1149 C1172 0.950 . S
H1150 C1173 0.950 . S
H1151 C1175 0.950 . S
H1152 C1176 0.950 . S
H1153 C1177 0.951 . S
H1154 C1179 0.951 . S
H1155 C1181 0.950 . S
H1156 C1182 0.950 . S
H1157 C1184 0.950 . S
H1158 C1187 0.950 . S
H1159 C1188 0.950 . S
H1160 C1190 0.950 . S
H1161 C1191 0.950 . S
C1162 H1144 0.951 . S
C1162 C1163 1.366 . S
C1162 C1164 1.388 . S
C1163 C1162 1.366 . S
C1163 C1167 1.385 . S
C1164 H1145 0.951 . S
C1164 C1162 1.388 . S
C1164 C1165 1.366 . S
C1165 C1164 1.366 . S
C1165 C1166 1.414 . S
C1165 C1168 1.499 . S
C1166 H1146 0.950 . S
C1166 C1165 1.414 . S
C1166 C1167 1.374 . S
C1167 H1147 0.950 . S
C1167 C1163 1.385 . S
C1167 C1166 1.374 . S
C1168 C1165 1.499 . S
C1168 C1169 1.373 . S
C1168 C1170 1.389 . S
C1169 H1148 0.950 . S
C1169 C1168 1.373 . S
C1169 C1185 1.377 . S
C1170 C1168 1.389 . S
C1170 C1171 1.524 . S
C1170 C1184 1.377 . S
C1171 C1170 1.524 . S
C1171 C1172 1.397 . S
C1171 C1176 1.363 . S
C1172 H1149 0.950 . S
C1172 C1171 1.397 . S
C1172 C1173 1.334 . S
C1173 H1150 0.950 . S
C1173 C1172 1.334 . S
C1173 C1174 1.287 . S
C1174 C1173 1.287 . S
C1174 C1175 1.524 . S
C1174 H1193 0.913 . S
C1175 H1151 0.950 . S
C1175 C1174 1.524 . S
C1175 C1176 1.415 . S
C1176 H1152 0.950 . S
C1176 C1171 1.363 . S
C1176 C1175 1.415 . S
C1177 H1153 0.951 . S
C1177 C1178 1.366 . S
C1177 C1179 1.388 . S
C1178 C1177 1.366 . S
C1178 C1182 1.385 . S
C1179 H1154 0.951 . S
C1179 C1177 1.388 . S
C1179 C1180 1.366 . S
C1180 C1179 1.366 . S
C1180 C1181 1.414 . S
C1180 C1183 1.499 . S
C1181 H1155 0.950 . S
C1181 C1180 1.414 . S
C1181 C1182 1.374 . S
C1182 H1156 0.950 . S
C1182 C1178 1.385 . S
C1182 C1181 1.374 . S
C1183 C1180 1.499 . S
C1183 C1184 1.373 . S
C1183 C1185 1.389 . S
C1184 H1157 0.950 . S
C1184 C1170 1.377 . S
C1184 C1183 1.373 . S
C1185 C1169 1.377 . S
C1185 C1183 1.389 . S
C1185 C1186 1.524 . S
C1186 C1185 1.524 . S
C1186 C1187 1.397 . S
C1186 C1191 1.363 . S
C1187 H1158 0.950 . S
C1187 C1186 1.397 . S
C1187 C1188 1.334 . S
C1188 H1159 0.950 . S
C1188 C1187 1.334 . S
C1188 C1189 1.287 . S
C1189 C1188 1.287 . S
C1189 C1190 1.524 . S
C1189 H1192 0.999 . S
C1190 H1160 0.950 . S
C1190 C1189 1.524 . S
C1190 C1191 1.415 . S
C1191 H1161 0.950 . S
C1191 C1186 1.363 . S
C1191 C1190 1.415 . S
H1192 C1189 0.999 . S
H1193 C1174 0.913 . S
H1194 C1212 0.951 . S
H1195 C1214 0.951 . S
H1196 C1216 0.950 . S
H1197 C1217 0.950 . S
H1198 C1219 0.950 . S
H1199 C1222 0.950 . S
H1200 C1223 0.950 . S
H1201 C1225 0.950 . S
H1202 C1226 0.950 . S
H1203 C1227 0.951 . S
H1204 C1229 0.951 . S
H1205 C1231 0.950 . S
H1206 C1232 0.950 . S
H1207 C1234 0.950 . S
H1208 C1237 0.950 . S
H1209 C1238 0.950 . S
H1210 C1240 0.950 . S
H1211 C1241 0.950 . S
C1212 H1194 0.951 . S
C1212 C1213 1.366 . S
C1212 C1214 1.388 . S
C1213 C1212 1.366 . S
C1213 C1217 1.385 . S
C1214 H1195 0.951 . S
C1214 C1212 1.388 . S
C1214 C1215 1.366 . S
C1215 C1214 1.366 . S
C1215 C1216 1.414 . S
C1215 C1218 1.499 . S
C1216 H1196 0.950 . S
C1216 C1215 1.414 . S
C1216 C1217 1.374 . S
C1217 H1197 0.950 . S
C1217 C1213 1.385 . S
C1217 C1216 1.374 . S
C1218 C1215 1.499 . S
C1218 C1219 1.373 . S
C1218 C1220 1.389 . S
C1219 H1198 0.950 . S
C1219 C1218 1.373 . S
C1219 C1235 1.377 . S
C1220 C1218 1.389 . S
C1220 C1221 1.524 . S
C1220 C1234 1.377 . S
C1221 C1220 1.524 . S
C1221 C1222 1.397 . S
C1221 C1226 1.363 . S
C1222 H1199 0.950 . S
C1222 C1221 1.397 . S
C1222 C1223 1.334 . S
C1223 H1200 0.950 . S
C1223 C1222 1.334 . S
C1223 C1224 1.287 . S
C1224 C1223 1.287 . S
C1224 C1225 1.524 . S
C1224 H1243 0.913 . S
C1225 H1201 0.950 . S
C1225 C1224 1.524 . S
C1225 C1226 1.415 . S
C1226 H1202 0.950 . S
C1226 C1221 1.363 . S
C1226 C1225 1.415 . S
C1227 H1203 0.951 . S
C1227 C1228 1.366 . S
C1227 C1229 1.388 . S
C1228 C1227 1.366 . S
C1228 C1232 1.385 . S
C1229 H1204 0.951 . S
C1229 C1227 1.388 . S
C1229 C1230 1.366 . S
C1230 C1229 1.366 . S
C1230 C1231 1.414 . S
C1230 C1233 1.499 . S
C1231 H1205 0.950 . S
C1231 C1230 1.414 . S
C1231 C1232 1.374 . S
C1232 H1206 0.950 . S
C1232 C1228 1.385 . S
C1232 C1231 1.374 . S
C1233 C1230 1.499 . S
C1233 C1234 1.373 . S
C1233 C1235 1.389 . S
C1234 H1207 0.950 . S
C1234 C1220 1.377 . S
C1234 C1233 1.373 . S
C1235 C1219 1.377 . S
C1235 C1233 1.389 . S
C1235 C1236 1.524 . S
C1236 C1235 1.524 . S
C1236 C1237 1.397 . S
C1236 C1241 1.363 . S
C1237 H1208 0.950 . S
C1237 C1236 1.397 . S
C1237 C1238 1.334 . S
C1238 H1209 0.950 . S
C1238 C1237 1.334 . S
C1238 C1239 1.287 . S
C1239 C1238 1.287 . S
C1239 C1240 1.524 . S
C1239 H1242 0.999 . S
C1240 H1210 0.950 . S
C1240 C1239 1.524 . S
C1240 C1241 1.415 . S
C1241 H1211 0.950 . S
C1241 C1236 1.363 . S
C1241 C1240 1.415 . S
H1242 C1239 0.999 . S
H1243 C1224 0.913 . S
H1244 C1262 0.951 . S
H1245 C1264 0.951 . S
H1246 C1266 0.950 . S
H1247 C1267 0.950 . S
H1248 C1269 0.950 . S
H1249 C1272 0.950 . S
H1250 C1273 0.950 . S
H1251 C1275 0.950 . S
H1252 C1276 0.950 . S
H1253 C1277 0.951 . S
H1254 C1279 0.951 . S
H1255 C1281 0.950 . S
H1256 C1282 0.950 . S
H1257 C1284 0.950 . S
H1258 C1287 0.950 . S
H1259 C1288 0.950 . S
H1260 C1290 0.950 . S
H1261 C1291 0.950 . S
C1262 H1244 0.951 . S
C1262 C1263 1.366 . S
C1262 C1264 1.388 . S
C1263 C1262 1.366 . S
C1263 C1267 1.385 . S
C1264 H1245 0.951 . S
C1264 C1262 1.388 . S
C1264 C1265 1.366 . S
C1265 C1264 1.366 . S
C1265 C1266 1.414 . S
C1265 C1268 1.499 . S
C1266 H1246 0.950 . S
C1266 C1265 1.414 . S
C1266 C1267 1.374 . S
C1267 H1247 0.950 . S
C1267 C1263 1.385 . S
C1267 C1266 1.374 . S
C1268 C1265 1.499 . S
C1268 C1269 1.373 . S
C1268 C1270 1.389 . S
C1269 H1248 0.950 . S
C1269 C1268 1.373 . S
C1269 C1285 1.377 . S
C1270 C1268 1.389 . S
C1270 C1271 1.524 . S
C1270 C1284 1.377 . S
C1271 C1270 1.524 . S
C1271 C1272 1.397 . S
C1271 C1276 1.363 . S
C1272 H1249 0.950 . S
C1272 C1271 1.397 . S
C1272 C1273 1.334 . S
C1273 H1250 0.950 . S
C1273 C1272 1.334 . S
C1273 C1274 1.287 . S
C1274 C1273 1.287 . S
C1274 C1275 1.524 . S
C1274 H1293 0.913 . S
C1275 H1251 0.950 . S
C1275 C1274 1.524 . S
C1275 C1276 1.415 . S
C1276 H1252 0.950 . S
C1276 C1271 1.363 . S
C1276 C1275 1.415 . S
C1277 H1253 0.951 . S
C1277 C1278 1.366 . S
C1277 C1279 1.388 . S
C1278 C1277 1.366 . S
C1278 C1282 1.385 . S
C1279 H1254 0.951 . S
C1279 C1277 1.388 . S
C1279 C1280 1.366 . S
C1280 C1279 1.366 . S
C1280 C1281 1.414 . S
C1280 C1283 1.499 . S
C1281 H1255 0.950 . S
C1281 C1280 1.414 . S
C1281 C1282 1.374 . S
C1282 H1256 0.950 . S
C1282 C1278 1.385 . S
C1282 C1281 1.374 . S
C1283 C1280 1.499 . S
C1283 C1284 1.373 . S
C1283 C1285 1.389 . S
C1284 H1257 0.950 . S
C1284 C1270 1.377 . S
C1284 C1283 1.373 . S
C1285 C1269 1.377 . S
C1285 C1283 1.389 . S
C1285 C1286 1.524 . S
C1286 C1285 1.524 . S
C1286 C1287 1.397 . S
C1286 C1291 1.363 . S
C1287 H1258 0.950 . S
C1287 C1286 1.397 . S
C1287 C1288 1.334 . S
C1288 H1259 0.950 . S
C1288 C1287 1.334 . S
C1288 C1289 1.287 . S
C1289 C1288 1.287 . S
C1289 C1290 1.524 . S
C1289 H1292 0.999 . S
C1290 H1260 0.950 . S
C1290 C1289 1.524 . S
C1290 C1291 1.415 . S
C1291 H1261 0.950 . S
C1291 C1286 1.363 . S
C1291 C1290 1.415 . S
H1292 C1289 0.999 . S
H1293 C1274 0.913 . S
H1294 C1312 0.951 . S
H1295 C1314 0.951 . S
H1296 C1316 0.950 . S
H1297 C1317 0.950 . S
H1298 C1319 0.950 . S
H1299 C1322 0.950 . S
H1300 C1323 0.950 . S
H1301 C1325 0.950 . S
H1302 C1326 0.950 . S
H1303 C1327 0.951 . S
H1304 C1329 0.951 . S
H1305 C1331 0.950 . S
H1306 C1332 0.950 . S
H1307 C1334 0.950 . S
H1308 C1337 0.950 . S
H1309 C1338 0.950 . S
H1310 C1340 0.950 . S
H1311 C1341 0.950 . S
C1312 H1294 0.951 . S
C1312 C1313 1.366 . S
C1312 C1314 1.388 . S
C1313 C1312 1.366 . S
C1313 C1317 1.385 . S
C1314 H1295 0.951 . S
C1314 C1312 1.388 . S
C1314 C1315 1.366 . S
C1315 C1314 1.366 . S
C1315 C1316 1.414 . S
C1315 C1318 1.499 . S
C1316 H1296 0.950 . S
C1316 C1315 1.414 . S
C1316 C1317 1.374 . S
C1317 H1297 0.950 . S
C1317 C1313 1.385 . S
C1317 C1316 1.374 . S
C1318 C1315 1.499 . S
C1318 C1319 1.373 . S
C1318 C1320 1.389 . S
C1319 H1298 0.950 . S
C1319 C1318 1.373 . S
C1319 C1335 1.377 . S
C1320 C1318 1.389 . S
C1320 C1321 1.524 . S
C1320 C1334 1.377 . S
C1321 C1320 1.524 . S
C1321 C1322 1.397 1_565 S
C1321 C1326 1.363 . S
C1322 H1299 0.950 . S
C1322 C1321 1.397 1_545 S
C1322 C1323 1.334 . S
C1323 H1300 0.950 . S
C1323 C1322 1.334 . S
C1323 C1324 1.287 . S
C1324 C1323 1.287 . S
C1324 C1325 1.524 1_545 S
C1324 H1343 0.913 . S
C1325 H1301 0.950 . S
C1325 C1324 1.524 1_565 S
C1325 C1326 1.415 . S
C1326 H1302 0.950 . S
C1326 C1321 1.363 . S
C1326 C1325 1.415 . S
C1327 H1303 0.951 . S
C1327 C1328 1.366 1_545 S
C1327 C1329 1.388 . S
C1328 C1327 1.366 1_565 S
C1328 C1332 1.385 . S
C1329 H1304 0.951 . S
C1329 C1327 1.388 . S
C1329 C1330 1.366 1_545 S
C1330 C1329 1.366 1_565 S
C1330 C1331 1.414 . S
C1330 C1333 1.499 . S
C1331 H1305 0.950 . S
C1331 C1330 1.414 . S
C1331 C1332 1.374 . S
C1332 H1306 0.950 . S
C1332 C1328 1.385 . S
C1332 C1331 1.374 . S
C1333 C1330 1.499 . S
C1333 C1334 1.373 . S
C1333 C1335 1.389 . S
C1334 H1307 0.950 . S
C1334 C1320 1.377 . S
C1334 C1333 1.373 . S
C1335 C1319 1.377 . S
C1335 C1333 1.389 . S
C1335 C1336 1.524 . S
C1336 C1335 1.524 . S
C1336 C1337 1.397 . S
C1336 C1341 1.363 . S
C1337 H1308 0.950 . S
C1337 C1336 1.397 . S
C1337 C1338 1.334 . S
C1338 H1309 0.950 . S
C1338 C1337 1.334 . S
C1338 C1339 1.287 . S
C1339 C1338 1.287 . S
C1339 C1340 1.524 . S
C1339 H1342 0.999 . S
C1340 H1310 0.950 . S
C1340 C1339 1.524 . S
C1340 C1341 1.415 . S
C1341 H1311 0.950 . S
C1341 C1336 1.363 . S
C1341 C1340 1.415 . S
H1342 C1339 0.999 . S
H1343 C1324 0.913 . S
H1344 C1362 0.951 . S
H1345 C1364 0.951 . S
H1346 C1366 0.950 . S
H1347 C1367 0.950 . S
H1348 C1369 0.950 . S
H1349 C1372 0.950 . S
H1350 C1373 0.950 . S
H1351 C1375 0.950 . S
H1352 C1376 0.950 . S
H1353 C1377 0.951 . S
H1354 C1379 0.951 . S
H1355 C1381 0.950 . S
H1356 C1382 0.950 . S
H1357 C1384 0.950 . S
H1358 C1387 0.950 . S
H1359 C1388 0.950 . S
H1360 C1390 0.950 . S
H1361 C1391 0.950 . S
C1362 H1344 0.951 . S
C1362 C1363 1.366 . S
C1362 C1364 1.388 . S
C1363 C1362 1.366 . S
C1363 C1367 1.385 . S
C1364 H1345 0.951 . S
C1364 C1362 1.388 . S
C1364 C1365 1.366 . S
C1365 C1364 1.366 . S
C1365 C1366 1.414 . S
C1365 C1368 1.499 . S
C1366 H1346 0.950 . S
C1366 C1365 1.414 . S
C1366 C1367 1.374 . S
C1367 H1347 0.950 . S
C1367 C1363 1.385 . S
C1367 C1366 1.374 . S
C1368 C1365 1.499 . S
C1368 C1369 1.373 . S
C1368 C1370 1.389 . S
C1369 H1348 0.950 . S
C1369 C1368 1.373 . S
C1369 C1385 1.377 . S
C1370 C1368 1.389 . S
C1370 C1371 1.524 . S
C1370 C1384 1.377 . S
C1371 C1370 1.524 . S
C1371 C1372 1.397 . S
C1371 C1376 1.363 . S
C1372 H1349 0.950 . S
C1372 C1371 1.397 . S
C1372 C1373 1.334 . S
C1373 H1350 0.950 . S
C1373 C1372 1.334 . S
C1373 C1374 1.287 . S
C1374 C1373 1.287 . S
C1374 C1375 1.524 . S
C1374 H1393 0.913 . S
C1375 H1351 0.950 . S
C1375 C1374 1.524 . S
C1375 C1376 1.415 . S
C1376 H1352 0.950 . S
C1376 C1371 1.363 . S
C1376 C1375 1.415 . S
C1377 H1353 0.951 . S
C1377 C1378 1.366 . S
C1377 C1379 1.388 . S
C1378 C1377 1.366 . S
C1378 C1382 1.385 . S
C1379 H1354 0.951 . S
C1379 C1377 1.388 . S
C1379 C1380 1.366 . S
C1380 C1379 1.366 . S
C1380 C1381 1.414 . S
C1380 C1383 1.499 . S
C1381 H1355 0.950 . S
C1381 C1380 1.414 . S
C1381 C1382 1.374 . S
C1382 H1356 0.950 . S
C1382 C1378 1.385 . S
C1382 C1381 1.374 . S
C1383 C1380 1.499 . S
C1383 C1384 1.373 . S
C1383 C1385 1.389 . S
C1384 H1357 0.950 . S
C1384 C1370 1.377 . S
C1384 C1383 1.373 . S
C1385 C1369 1.377 . S
C1385 C1383 1.389 . S
C1385 C1386 1.524 . S
C1386 C1385 1.524 . S
C1386 C1387 1.397 . S
C1386 C1391 1.363 . S
C1387 H1358 0.950 . S
C1387 C1386 1.397 . S
C1387 C1388 1.334 . S
C1388 H1359 0.950 . S
C1388 C1387 1.334 . S
C1388 C1389 1.287 . S
C1389 C1388 1.287 . S
C1389 C1390 1.524 . S
C1389 H1392 0.999 . S
C1390 H1360 0.950 . S
C1390 C1389 1.524 . S
C1390 C1391 1.415 . S
C1391 H1361 0.950 . S
C1391 C1386 1.363 . S
C1391 C1390 1.415 . S
H1392 C1389 0.999 . S
H1393 C1374 0.913 . S
H1394 C1412 0.951 . S
H1395 C1414 0.951 . S
H1396 C1416 0.950 . S
H1397 C1417 0.950 . S
H1398 C1419 0.950 . S
H1399 C1422 0.950 . S
H1400 C1423 0.950 . S
H1401 C1425 0.950 . S
H1402 C1426 0.950 . S
H1403 C1427 0.951 . S
H1404 C1429 0.951 . S
H1405 C1431 0.950 . S
H1406 C1432 0.950 . S
H1407 C1434 0.950 . S
H1408 C1437 0.950 . S
H1409 C1438 0.950 . S
H1410 C1440 0.950 . S
H1411 C1441 0.950 . S
C1412 H1394 0.951 . S
C1412 C1413 1.366 . S
C1412 C1414 1.388 . S
C1413 C1412 1.366 . S
C1413 C1417 1.385 . S
C1414 H1395 0.951 . S
C1414 C1412 1.388 . S
C1414 C1415 1.366 . S
C1415 C1414 1.366 . S
C1415 C1416 1.414 . S
C1415 C1418 1.499 . S
C1416 H1396 0.950 . S
C1416 C1415 1.414 . S
C1416 C1417 1.374 . S
C1417 H1397 0.950 . S
C1417 C1413 1.385 . S
C1417 C1416 1.374 . S
C1418 C1415 1.499 . S
C1418 C1419 1.373 . S
C1418 C1420 1.389 . S
C1419 H1398 0.950 . S
C1419 C1418 1.373 . S
C1419 C1435 1.377 . S
C1420 C1418 1.389 . S
C1420 C1421 1.524 . S
C1420 C1434 1.377 . S
C1421 C1420 1.524 . S
C1421 C1422 1.397 . S
C1421 C1426 1.363 . S
C1422 H1399 0.950 . S
C1422 C1421 1.397 . S
C1422 C1423 1.334 . S
C1423 H1400 0.950 . S
C1423 C1422 1.334 . S
C1423 C1424 1.287 . S
C1424 C1423 1.287 . S
C1424 C1425 1.524 . S
C1424 H1443 0.913 . S
C1425 H1401 0.950 . S
C1425 C1424 1.524 . S
C1425 C1426 1.415 . S
C1426 H1402 0.950 . S
C1426 C1421 1.363 . S
C1426 C1425 1.415 . S
C1427 H1403 0.951 . S
C1427 C1428 1.366 . S
C1427 C1429 1.388 . S
C1428 C1427 1.366 . S
C1428 C1432 1.385 . S
C1429 H1404 0.951 . S
C1429 C1427 1.388 . S
C1429 C1430 1.366 . S
C1430 C1429 1.366 . S
C1430 C1431 1.414 . S
C1430 C1433 1.499 . S
C1431 H1405 0.950 . S
C1431 C1430 1.414 . S
C1431 C1432 1.374 . S
C1432 H1406 0.950 . S
C1432 C1428 1.385 . S
C1432 C1431 1.374 . S
C1433 C1430 1.499 . S
C1433 C1434 1.373 . S
C1433 C1435 1.389 . S
C1434 H1407 0.950 . S
C1434 C1420 1.377 . S
C1434 C1433 1.373 . S
C1435 C1419 1.377 . S
C1435 C1433 1.389 . S
C1435 C1436 1.524 . S
C1436 C1435 1.524 . S
C1436 C1437 1.397 . S
C1436 C1441 1.363 . S
C1437 H1408 0.950 . S
C1437 C1436 1.397 . S
C1437 C1438 1.334 . S
C1438 H1409 0.950 . S
C1438 C1437 1.334 . S
C1438 C1439 1.287 . S
C1439 C1438 1.287 . S
C1439 C1440 1.524 . S
C1439 H1442 0.999 . S
C1440 H1410 0.950 . S
C1440 C1439 1.524 . S
C1440 C1441 1.415 . S
C1441 H1411 0.950 . S
C1441 C1436 1.363 . S
C1441 C1440 1.415 . S
H1442 C1439 0.999 . S
H1443 C1424 0.913 . S
H1444 C1462 0.951 . S
H1445 C1464 0.951 . S
H1446 C1466 0.950 . S
H1447 C1467 0.950 . S
H1448 C1469 0.950 . S
H1449 C1472 0.950 . S
H1450 C1473 0.950 . S
H1451 C1475 0.950 . S
H1452 C1476 0.950 . S
H1453 C1477 0.951 . S
H1454 C1479 0.951 . S
H1455 C1481 0.950 . S
H1456 C1482 0.950 . S
H1457 C1484 0.950 . S
H1458 C1487 0.950 . S
H1459 C1488 0.950 . S
H1460 C1490 0.950 . S
H1461 C1491 0.950 . S
C1462 H1444 0.951 . S
C1462 C1463 1.366 . S
C1462 C1464 1.388 . S
C1463 C1462 1.366 . S
C1463 C1467 1.385 . S
C1464 H1445 0.951 . S
C1464 C1462 1.388 . S
C1464 C1465 1.366 . S
C1465 C1464 1.366 . S
C1465 C1466 1.414 . S
C1465 C1468 1.499 . S
C1466 H1446 0.950 . S
C1466 C1465 1.414 . S
C1466 C1467 1.374 . S
C1467 H1447 0.950 . S
C1467 C1463 1.385 . S
C1467 C1466 1.374 . S
C1468 C1465 1.499 . S
C1468 C1469 1.373 . S
C1468 C1470 1.389 . S
C1469 H1448 0.950 . S
C1469 C1468 1.373 . S
C1469 C1485 1.377 . S
C1470 C1468 1.389 . S
C1470 C1471 1.524 . S
C1470 C1484 1.377 . S
C1471 C1470 1.524 . S
C1471 C1472 1.397 . S
C1471 C1476 1.363 . S
C1472 H1449 0.950 . S
C1472 C1471 1.397 . S
C1472 C1473 1.334 . S
C1473 H1450 0.950 . S
C1473 C1472 1.334 . S
C1473 C1474 1.287 . S
C1474 C1473 1.287 . S
C1474 C1475 1.524 . S
C1474 H1493 0.913 . S
C1475 H1451 0.950 . S
C1475 C1474 1.524 . S
C1475 C1476 1.415 . S
C1476 H1452 0.950 . S
C1476 C1471 1.363 . S
C1476 C1475 1.415 . S
C1477 H1453 0.951 . S
C1477 C1478 1.366 . S
C1477 C1479 1.388 . S
C1478 C1477 1.366 . S
C1478 C1482 1.385 . S
C1479 H1454 0.951 . S
C1479 C1477 1.388 . S
C1479 C1480 1.366 . S
C1480 C1479 1.366 . S
C1480 C1481 1.414 . S
C1480 C1483 1.499 . S
C1481 H1455 0.950 . S
C1481 C1480 1.414 . S
C1481 C1482 1.374 . S
C1482 H1456 0.950 . S
C1482 C1478 1.385 . S
C1482 C1481 1.374 . S
C1483 C1480 1.499 . S
C1483 C1484 1.373 . S
C1483 C1485 1.389 . S
C1484 H1457 0.950 . S
C1484 C1470 1.377 . S
C1484 C1483 1.373 . S
C1485 C1469 1.377 . S
C1485 C1483 1.389 . S
C1485 C1486 1.524 . S
C1486 C1485 1.524 . S
C1486 C1487 1.397 . S
C1486 C1491 1.363 . S
C1487 H1458 0.950 . S
C1487 C1486 1.397 . S
C1487 C1488 1.334 . S
C1488 H1459 0.950 . S
C1488 C1487 1.334 . S
C1488 C1489 1.287 . S
C1489 C1488 1.287 . S
C1489 C1490 1.524 . S
C1489 H1492 0.999 . S
C1490 H1460 0.950 . S
C1490 C1489 1.524 . S
C1490 C1491 1.415 . S
C1491 H1461 0.950 . S
C1491 C1486 1.363 . S
C1491 C1490 1.415 . S
H1492 C1489 0.999 . S
H1493 C1474 0.913 . S
H1494 C1512 0.951 . S
H1495 C1514 0.951 . S
H1496 C1516 0.950 . S
H1497 C1517 0.950 . S
H1498 C1519 0.950 . S
H1499 C1522 0.950 . S
H1500 C1523 0.950 . S
H1501 C1525 0.950 . S
H1502 C1526 0.950 . S
H1503 C1527 0.951 . S
H1504 C1529 0.951 . S
H1505 C1531 0.950 . S
H1506 C1532 0.950 . S
H1507 C1534 0.950 . S
H1508 C1537 0.950 . S
H1509 C1538 0.950 . S
H1510 C1540 0.950 . S
H1511 C1541 0.950 . S
C1512 H1494 0.951 . S
C1512 C1513 1.366 . S
C1512 C1514 1.388 . S
C1513 C1512 1.366 . S
C1513 C1517 1.385 . S
C1514 H1495 0.951 . S
C1514 C1512 1.388 . S
C1514 C1515 1.366 . S
C1515 C1514 1.366 . S
C1515 C1516 1.414 . S
C1515 C1518 1.499 . S
C1516 H1496 0.950 . S
C1516 C1515 1.414 . S
C1516 C1517 1.374 . S
C1517 H1497 0.950 . S
C1517 C1513 1.385 . S
C1517 C1516 1.374 . S
C1518 C1515 1.499 . S
C1518 C1519 1.373 . S
C1518 C1520 1.389 . S
C1519 H1498 0.950 . S
C1519 C1518 1.373 . S
C1519 C1535 1.377 . S
C1520 C1518 1.389 . S
C1520 C1521 1.524 . S
C1520 C1534 1.377 . S
C1521 C1520 1.524 . S
C1521 C1522 1.397 . S
C1521 C1526 1.363 . S
C1522 H1499 0.950 . S
C1522 C1521 1.397 . S
C1522 C1523 1.334 . S
C1523 H1500 0.950 . S
C1523 C1522 1.334 . S
C1523 C1524 1.287 . S
C1524 C1523 1.287 . S
C1524 C1525 1.524 . S
C1524 H1543 0.913 . S
C1525 H1501 0.950 . S
C1525 C1524 1.524 . S
C1525 C1526 1.415 . S
C1526 H1502 0.950 . S
C1526 C1521 1.363 . S
C1526 C1525 1.415 . S
C1527 H1503 0.951 . S
C1527 C1528 1.366 . S
C1527 C1529 1.388 . S
C1528 C1527 1.366 . S
C1528 C1532 1.385 . S
C1529 H1504 0.951 . S
C1529 C1527 1.388 . S
C1529 C1530 1.366 . S
C1530 C1529 1.366 . S
C1530 C1531 1.414 . S
C1530 C1533 1.499 . S
C1531 H1505 0.950 . S
C1531 C1530 1.414 . S
C1531 C1532 1.374 . S
C1532 H1506 0.950 . S
C1532 C1528 1.385 . S
C1532 C1531 1.374 . S
C1533 C1530 1.499 . S
C1533 C1534 1.373 . S
C1533 C1535 1.389 . S
C1534 H1507 0.950 . S
C1534 C1520 1.377 . S
C1534 C1533 1.373 . S
C1535 C1519 1.377 . S
C1535 C1533 1.389 . S
C1535 C1536 1.524 . S
C1536 C1535 1.524 . S
C1536 C1537 1.397 . S
C1536 C1541 1.363 . S
C1537 H1508 0.950 . S
C1537 C1536 1.397 . S
C1537 C1538 1.334 . S
C1538 H1509 0.950 . S
C1538 C1537 1.334 . S
C1538 C1539 1.287 . S
C1539 C1538 1.287 . S
C1539 C1540 1.524 . S
C1539 H1542 0.999 . S
C1540 H1510 0.950 . S
C1540 C1539 1.524 . S
C1540 C1541 1.415 . S
C1541 H1511 0.950 . S
C1541 C1536 1.363 . S
C1541 C1540 1.415 . S
H1542 C1539 0.999 . S
H1543 C1524 0.913 . S
H1544 C1562 0.951 . S
H1545 C1564 0.951 . S
H1546 C1566 0.950 . S
H1547 C1567 0.950 . S
H1548 C1569 0.950 . S
H1549 C1572 0.950 . S
H1550 C1573 0.950 . S
H1551 C1575 0.950 . S
H1552 C1576 0.950 . S
H1553 C1577 0.951 . S
H1554 C1579 0.951 . S
H1555 C1581 0.950 . S
H1556 C1582 0.950 . S
H1557 C1584 0.950 . S
H1558 C1587 0.950 . S
H1559 C1588 0.950 . S
H1560 C1590 0.950 . S
H1561 C1591 0.950 . S
C1562 H1544 0.951 . S
C1562 C1563 1.366 . S
C1562 C1564 1.388 . S
C1563 C1562 1.366 . S
C1563 C1567 1.385 . S
C1564 H1545 0.951 . S
C1564 C1562 1.388 . S
C1564 C1565 1.366 . S
C1565 C1564 1.366 . S
C1565 C1566 1.414 . S
C1565 C1568 1.499 . S
C1566 H1546 0.950 . S
C1566 C1565 1.414 . S
C1566 C1567 1.374 . S
C1567 H1547 0.950 . S
C1567 C1563 1.385 . S
C1567 C1566 1.374 . S
C1568 C1565 1.499 . S
C1568 C1569 1.373 . S
C1568 C1570 1.389 . S
C1569 H1548 0.950 . S
C1569 C1568 1.373 . S
C1569 C1585 1.377 . S
C1570 C1568 1.389 . S
C1570 C1571 1.524 . S
C1570 C1584 1.377 . S
C1571 C1570 1.524 . S
C1571 C1572 1.397 . S
C1571 C1576 1.363 . S
C1572 H1549 0.950 . S
C1572 C1571 1.397 . S
C1572 C1573 1.334 . S
C1573 H1550 0.950 . S
C1573 C1572 1.334 . S
C1573 C1574 1.287 . S
C1574 C1573 1.287 . S
C1574 C1575 1.524 . S
C1574 H1593 0.913 . S
C1575 H1551 0.950 . S
C1575 C1574 1.524 . S
C1575 C1576 1.415 . S
C1576 H1552 0.950 . S
C1576 C1571 1.363 . S
C1576 C1575 1.415 . S
C1577 H1553 0.951 . S
C1577 C1578 1.366 . S
C1577 C1579 1.388 . S
C1578 C1577 1.366 . S
C1578 C1582 1.385 . S
C1579 H1554 0.951 . S
C1579 C1577 1.388 . S
C1579 C1580 1.366 . S
C1580 C1579 1.366 . S
C1580 C1581 1.414 . S
C1580 C1583 1.499 . S
C1581 H1555 0.950 . S
C1581 C1580 1.414 . S
C1581 C1582 1.374 . S
C1582 H1556 0.950 . S
C1582 C1578 1.385 . S
C1582 C1581 1.374 . S
C1583 C1580 1.499 . S
C1583 C1584 1.373 . S
C1583 C1585 1.389 . S
C1584 H1557 0.950 . S
C1584 C1570 1.377 . S
C1584 C1583 1.373 . S
C1585 C1569 1.377 . S
C1585 C1583 1.389 . S
C1585 C1586 1.524 . S
C1586 C1585 1.524 . S
C1586 C1587 1.397 . S
C1586 C1591 1.363 . S
C1587 H1558 0.950 . S
C1587 C1586 1.397 . S
C1587 C1588 1.334 . S
C1588 H1559 0.950 . S
C1588 C1587 1.334 . S
C1588 C1589 1.287 . S
C1589 C1588 1.287 . S
C1589 C1590 1.524 . S
C1589 H1592 0.999 . S
C1590 H1560 0.950 . S
C1590 C1589 1.524 . S
C1590 C1591 1.415 . S
C1591 H1561 0.950 . S
C1591 C1586 1.363 . S
C1591 C1590 1.415 . S
H1592 C1589 0.999 . S
H1593 C1574 0.913 . S
H1594 C1612 0.951 . S
H1595 C1614 0.951 . S
H1596 C1616 0.907 1_655 S
H1597 C1617 0.950 . S
H1598 C1619 0.950 1_655 S
H1599 C1622 0.950 . S
H1600 C1623 0.950 . S
H1601 C1625 0.950 . S
H1602 C1626 0.950 . S
H1603 C1627 0.951 . S
H1604 C1629 0.951 . S
H1605 C1631 0.950 . S
H1606 C1632 0.950 . S
H1607 C1634 0.950 . S
H1608 C1637 1.000 . S
H1609 C1638 0.950 . S
H1610 C1640 0.950 . S
H1611 C1641 0.950 . S
C1612 H1594 0.951 . S
C1612 C1613 1.366 . S
C1612 C1614 1.388 . S
C1613 C1612 1.366 . S
C1613 C1617 1.385 . S
C1614 H1595 0.951 . S
C1614 C1612 1.388 . S
C1614 C1615 1.366 . S
C1615 C1614 1.366 . S
C1615 C1616 1.414 . S
C1615 C1618 1.499 . S
C1616 H1596 0.907 1_455 S
C1616 C1615 1.414 . S
C1616 C1617 1.374 . S
C1617 H1597 0.950 . S
C1617 C1613 1.385 . S
C1617 C1616 1.374 . S
C1618 C1615 1.499 . S
C1618 C1619 1.373 . S
C1618 C1620 1.389 . S
C1619 H1598 0.950 1_455 S
C1619 C1618 1.373 . S
C1619 C1635 1.377 . S
C1620 C1618 1.389 . S
C1620 C1621 1.524 . S
C1620 C1634 1.377 . S
C1621 C1620 1.524 . S
C1621 C1622 1.397 . S
C1621 C1626 1.363 . S
C1622 H1599 0.950 . S
C1622 C1621 1.397 . S
C1622 C1623 1.334 . S
C1623 H1600 0.950 . S
C1623 C1622 1.334 . S
C1623 C1624 1.287 . S
C1624 C1623 1.287 . S
C1624 C1625 1.524 . S
C1624 H1643 0.913 . S
C1625 H1601 0.950 . S
C1625 C1624 1.524 . S
C1625 C1626 1.415 . S
C1626 H1602 0.950 . S
C1626 C1621 1.363 . S
C1626 C1625 1.415 . S
C1627 H1603 0.951 . S
C1627 C1628 1.366 1_655 S
C1627 C1629 1.388 . S
C1628 C1627 1.366 1_455 S
C1628 C1632 1.385 . S
C1629 H1604 0.951 . S
C1629 C1627 1.388 . S
C1629 C1630 1.366 1_655 S
C1630 C1629 1.366 1_455 S
C1630 C1631 1.414 . S
C1630 C1633 1.499 . S
C1631 H1605 0.950 . S
C1631 C1630 1.414 . S
C1631 C1632 1.374 . S
C1632 H1606 0.950 . S
C1632 C1628 1.385 . S
C1632 C1631 1.374 . S
C1633 C1630 1.499 . S
C1633 C1634 1.373 . S
C1633 C1635 1.389 . S
C1634 H1607 0.950 . S
C1634 C1620 1.377 . S
C1634 C1633 1.373 . S
C1635 C1619 1.377 . S
C1635 C1633 1.389 . S
C1635 C1636 1.524 1_455 S
C1636 C1635 1.524 1_655 S
C1636 C1637 1.397 . S
C1636 C1641 1.363 . S
C1637 H1608 1.000 . S
C1637 C1636 1.397 . S
C1637 C1638 1.334 . S
C1638 H1609 0.950 . S
C1638 C1637 1.334 . S
C1638 C1639 1.287 . S
C1639 C1638 1.287 . S
C1639 C1640 1.524 . S
C1639 H1642 0.999 . S
C1640 H1610 0.950 . S
C1640 C1639 1.524 . S
C1640 C1641 1.415 . S
C1641 H1611 0.950 . S
C1641 C1636 1.363 . S
C1641 C1640 1.415 . S
H1642 C1639 0.999 . S
H1643 C1624 0.913 . S
H1644 C1662 0.951 . S
H1645 C1664 0.951 . S
H1646 C1666 0.950 . S
H1647 C1667 0.950 . S
H1648 C1669 0.950 . S
H1649 C1672 0.950 . S
H1650 C1673 0.950 . S
H1651 C1675 0.950 . S
H1652 C1676 0.950 . S
H1653 C1677 0.951 . S
H1654 C1679 0.951 . S
H1655 C1681 0.950 . S
H1656 C1682 0.950 . S
H1657 C1684 0.950 . S
H1658 C1687 0.950 . S
H1659 C1688 0.950 . S
H1660 C1690 0.950 . S
H1661 C1691 0.950 . S
C1662 H1644 0.951 . S
C1662 C1663 1.366 . S
C1662 C1664 1.388 . S
C1663 C1662 1.366 . S
C1663 C1667 1.385 . S
C1664 H1645 0.951 . S
C1664 C1662 1.388 . S
C1664 C1665 1.366 . S
C1665 C1664 1.366 . S
C1665 C1666 1.414 . S
C1665 C1668 1.499 . S
C1666 H1646 0.950 . S
C1666 C1665 1.414 . S
C1666 C1667 1.374 . S
C1667 H1647 0.950 . S
C1667 C1663 1.385 . S
C1667 C1666 1.374 . S
C1668 C1665 1.499 . S
C1668 C1669 1.373 . S
C1668 C1670 1.389 . S
C1669 H1648 0.950 . S
C1669 C1668 1.373 . S
C1669 C1685 1.377 . S
C1670 C1668 1.389 . S
C1670 C1671 1.524 . S
C1670 C1684 1.377 . S
C1671 C1670 1.524 . S
C1671 C1672 1.397 . S
C1671 C1676 1.363 . S
C1672 H1649 0.950 . S
C1672 C1671 1.397 . S
C1672 C1673 1.334 . S
C1673 H1650 0.950 . S
C1673 C1672 1.334 . S
C1673 C1674 1.287 . S
C1674 C1673 1.287 . S
C1674 C1675 1.524 . S
C1674 H1693 0.913 . S
C1675 H1651 0.950 . S
C1675 C1674 1.524 . S
C1675 C1676 1.415 . S
C1676 H1652 0.950 . S
C1676 C1671 1.363 . S
C1676 C1675 1.415 . S
C1677 H1653 0.951 . S
C1677 C1678 1.366 . S
C1677 C1679 1.388 . S
C1678 C1677 1.366 . S
C1678 C1682 1.385 . S
C1679 H1654 0.951 . S
C1679 C1677 1.388 . S
C1679 C1680 1.366 . S
C1680 C1679 1.366 . S
C1680 C1681 1.414 . S
C1680 C1683 1.499 . S
C1681 H1655 0.950 . S
C1681 C1680 1.414 . S
C1681 C1682 1.374 . S
C1682 H1656 0.950 . S
C1682 C1678 1.385 . S
C1682 C1681 1.374 . S
C1683 C1680 1.499 . S
C1683 C1684 1.373 . S
C1683 C1685 1.389 . S
C1684 H1657 0.950 . S
C1684 C1670 1.377 . S
C1684 C1683 1.373 . S
C1685 C1669 1.377 . S
C1685 C1683 1.389 . S
C1685 C1686 1.524 . S
C1686 C1685 1.524 . S
C1686 C1687 1.397 . S
C1686 C1691 1.363 . S
C1687 H1658 0.950 . S
C1687 C1686 1.397 . S
C1687 C1688 1.334 . S
C1688 H1659 0.950 . S
C1688 C1687 1.334 . S
C1688 C1689 1.287 . S
C1689 C1688 1.287 . S
C1689 C1690 1.524 . S
C1689 H1692 0.999 . S
C1690 H1660 0.950 . S
C1690 C1689 1.524 . S
C1690 C1691 1.415 . S
C1691 H1661 0.950 . S
C1691 C1686 1.363 . S
C1691 C1690 1.415 . S
H1692 C1689 0.999 . S
H1693 C1674 0.913 . S
H1694 C1712 0.951 1_455 S
H1695 C1714 0.951 1_455 S
H1696 C1716 0.950 . S
H1697 C1717 0.950 . S
H1698 C1719 0.950 . S
H1699 C1722 0.950 . S
H1700 C1723 0.950 . S
H1701 C1725 0.950 . S
H1702 C1726 0.950 . S
H1703 C1727 0.951 . S
H1704 C1729 0.951 . S
H1705 C1731 0.950 . S
H1706 C1732 0.950 . S
H1707 C1734 0.950 . S
H1708 C1737 0.950 . S
H1709 C1738 0.950 . S
H1710 C1740 0.950 . S
H1711 C1741 0.950 . S
C1712 H1694 0.951 1_655 S
C1712 C1713 1.366 . S
C1712 C1714 1.388 . S
C1713 C1712 1.366 . S
C1713 C1717 1.385 . S
C1714 H1695 0.951 1_655 S
C1714 C1712 1.388 . S
C1714 C1715 1.366 . S
C1715 C1714 1.366 . S
C1715 C1716 1.414 . S
C1715 C1718 1.499 . S
C1716 H1696 0.950 . S
C1716 C1715 1.414 . S
C1716 C1717 1.374 . S
C1717 H1697 0.950 . S
C1717 C1713 1.385 . S
C1717 C1716 1.374 . S
C1718 C1715 1.499 . S
C1718 C1719 1.373 . S
C1718 C1720 1.389 1_655 S
C1719 H1698 0.950 . S
C1719 C1718 1.373 . S
C1719 C1735 1.377 . S
C1720 C1718 1.389 1_455 S
C1720 C1721 1.524 . S
C1720 C1734 1.377 . S
C1721 C1720 1.524 . S
C1721 C1722 1.397 . S
C1721 C1726 1.363 . S
C1722 H1699 0.950 . S
C1722 C1721 1.397 . S
C1722 C1723 1.334 . S
C1723 H1700 0.950 . S
C1723 C1722 1.334 . S
C1723 C1724 1.287 . S
C1724 C1723 1.287 . S
C1724 C1725 1.524 . S
C1724 H1743 0.913 . S
C1725 H1701 0.950 . S
C1725 C1724 1.524 . S
C1725 C1726 1.415 . S
C1726 H1702 0.950 . S
C1726 C1721 1.363 . S
C1726 C1725 1.415 . S
C1727 H1703 0.951 . S
C1727 C1728 1.370 1_655 S
C1727 C1729 1.388 . S
C1728 C1727 1.370 1_455 S
C1728 C1732 1.381 . S
C1729 H1704 0.951 . S
C1729 C1727 1.388 . S
C1729 C1730 1.366 . S
C1730 C1729 1.366 . S
C1730 C1731 1.414 1_655 S
C1730 C1733 1.499 . S
C1731 H1705 0.950 . S
C1731 C1730 1.414 1_455 S
C1731 C1732 1.374 . S
C1732 H1706 0.950 . S
C1732 C1728 1.381 . S
C1732 C1731 1.374 . S
C1733 C1730 1.499 . S
C1733 C1734 1.373 1_655 S
C1733 C1735 1.389 . S
C1734 H1707 0.950 . S
C1734 C1720 1.377 . S
C1734 C1733 1.373 1_455 S
C1735 C1719 1.377 . S
C1735 C1733 1.389 . S
C1735 C1736 1.524 . S
C1736 C1735 1.524 . S
C1736 C1737 1.397 . S
C1736 C1741 1.363 . S
C1737 H1708 0.950 . S
C1737 C1736 1.397 . S
C1737 C1738 1.334 . S
C1738 H1709 0.950 . S
C1738 C1737 1.334 . S
C1738 C1739 1.287 . S
C1739 C1738 1.287 . S
C1739 C1740 1.524 . S
C1739 H1742 0.999 . S
C1740 H1710 0.950 . S
C1740 C1739 1.524 . S
C1740 C1741 1.415 . S
C1741 H1711 0.950 . S
C1741 C1736 1.363 . S
C1741 C1740 1.415 . S
H1742 C1739 0.999 . S
H1743 C1724 0.913 . S
H1744 C1762 0.951 . S
H1745 C1764 0.951 . S
H1746 C1766 0.950 . S
H1747 C1767 0.950 . S
H1748 C1769 0.950 . S
H1749 C1772 0.950 . S
H1750 C1773 0.950 . S
H1751 C1775 0.950 . S
H1752 C1776 0.950 . S
H1753 C1777 0.951 . S
H1754 C1779 0.951 . S
H1755 C1781 0.950 . S
H1756 C1782 0.950 . S
H1757 C1784 0.950 . S
H1758 C1787 0.950 . S
H1759 C1788 0.950 . S
H1760 C1790 0.950 . S
H1761 C1791 0.950 . S
C1762 H1744 0.951 . S
C1762 C1763 1.366 . S
C1762 C1764 1.388 . S
C1763 C1762 1.366 . S
C1763 C1767 1.385 . S
C1764 H1745 0.951 . S
C1764 C1762 1.388 . S
C1764 C1765 1.366 . S
C1765 C1764 1.366 . S
C1765 C1766 1.414 . S
C1765 C1768 1.499 . S
C1766 H1746 0.950 . S
C1766 C1765 1.414 . S
C1766 C1767 1.374 . S
C1767 H1747 0.950 . S
C1767 C1763 1.385 . S
C1767 C1766 1.374 . S
C1768 C1765 1.499 . S
C1768 C1769 1.373 . S
C1768 C1770 1.389 . S
C1769 H1748 0.950 . S
C1769 C1768 1.373 . S
C1769 C1785 1.377 . S
C1770 C1768 1.389 . S
C1770 C1771 1.524 . S
C1770 C1784 1.377 . S
C1771 C1770 1.524 . S
C1771 C1772 1.397 . S
C1771 C1776 1.363 . S
C1772 H1749 0.950 . S
C1772 C1771 1.397 . S
C1772 C1773 1.334 . S
C1773 H1750 0.950 . S
C1773 C1772 1.334 . S
C1773 C1774 1.287 . S
C1774 C1773 1.287 . S
C1774 C1775 1.524 . S
C1774 H1793 0.913 . S
C1775 H1751 0.950 . S
C1775 C1774 1.524 . S
C1775 C1776 1.415 . S
C1776 H1752 0.950 . S
C1776 C1771 1.363 . S
C1776 C1775 1.415 . S
C1777 H1753 0.951 . S
C1777 C1778 1.366 . S
C1777 C1779 1.388 . S
C1778 C1777 1.366 . S
C1778 C1782 1.385 . S
C1779 H1754 0.951 . S
C1779 C1777 1.388 . S
C1779 C1780 1.366 . S
C1780 C1779 1.366 . S
C1780 C1781 1.414 . S
C1780 C1783 1.499 . S
C1781 H1755 0.950 . S
C1781 C1780 1.414 . S
C1781 C1782 1.374 . S
C1782 H1756 0.950 . S
C1782 C1778 1.385 . S
C1782 C1781 1.374 . S
C1783 C1780 1.499 . S
C1783 C1784 1.373 . S
C1783 C1785 1.389 . S
C1784 H1757 0.950 . S
C1784 C1770 1.377 . S
C1784 C1783 1.373 . S
C1785 C1769 1.377 . S
C1785 C1783 1.389 . S
C1785 C1786 1.524 . S
C1786 C1785 1.524 . S
C1786 C1787 1.397 . S
C1786 C1791 1.363 . S
C1787 H1758 0.950 . S
C1787 C1786 1.397 . S
C1787 C1788 1.334 . S
C1788 H1759 0.950 . S
C1788 C1787 1.334 . S
C1788 C1789 1.287 . S
C1789 C1788 1.287 . S
C1789 C1790 1.524 . S
C1789 H1792 0.999 . S
C1790 H1760 0.950 . S
C1790 C1789 1.524 . S
C1790 C1791 1.415 . S
C1791 H1761 0.950 . S
C1791 C1786 1.363 . S
C1791 C1790 1.415 . S
H1792 C1789 0.999 . S
H1793 C1774 0.913 . S
H1794 C1812 0.951 . S
H1795 C1814 0.951 . S
H1796 C1816 0.950 . S
H1797 C1817 0.950 . S
H1798 C1819 0.950 . S
H1799 C1822 0.950 . S
H1800 C1823 0.950 . S
H1801 C1825 0.950 . S
H1802 C1826 0.950 . S
H1803 C1827 0.951 . S
H1804 C1829 0.951 . S
H1805 C1831 0.950 . S
H1806 C1832 0.950 . S
H1807 C1834 0.950 . S
H1808 C1837 0.950 . S
H1809 C1838 0.950 . S
H1810 C1840 0.950 . S
H1811 C1841 0.950 . S
C1812 H1794 0.951 . S
C1812 C1813 1.366 . S
C1812 C1814 1.388 . S
C1813 C1812 1.366 . S
C1813 C1817 1.385 . S
C1814 H1795 0.951 . S
C1814 C1812 1.388 . S
C1814 C1815 1.366 . S
C1815 C1814 1.366 . S
C1815 C1816 1.414 . S
C1815 C1818 1.499 . S
C1816 H1796 0.950 . S
C1816 C1815 1.414 . S
C1816 C1817 1.374 . S
C1817 H1797 0.950 . S
C1817 C1813 1.385 . S
C1817 C1816 1.374 . S
C1818 C1815 1.499 . S
C1818 C1819 1.373 . S
C1818 C1820 1.389 . S
C1819 H1798 0.950 . S
C1819 C1818 1.373 . S
C1819 C1835 1.377 . S
C1820 C1818 1.389 . S
C1820 C1821 1.524 . S
C1820 C1834 1.377 . S
C1821 C1820 1.524 . S
C1821 C1822 1.397 . S
C1821 C1826 1.363 . S
C1822 H1799 0.950 . S
C1822 C1821 1.397 . S
C1822 C1823 1.334 . S
C1823 H1800 0.950 . S
C1823 C1822 1.334 . S
C1823 C1824 1.287 . S
C1824 C1823 1.287 . S
C1824 C1825 1.524 . S
C1824 H1843 0.913 . S
C1825 H1801 0.950 . S
C1825 C1824 1.524 . S
C1825 C1826 1.415 . S
C1826 H1802 0.950 . S
C1826 C1821 1.363 . S
C1826 C1825 1.415 . S
C1827 H1803 0.951 . S
C1827 C1828 1.366 . S
C1827 C1829 1.388 . S
C1828 C1827 1.366 . S
C1828 C1832 1.385 . S
C1829 H1804 0.951 . S
C1829 C1827 1.388 . S
C1829 C1830 1.366 . S
C1830 C1829 1.366 . S
C1830 C1831 1.414 . S
C1830 C1833 1.499 . S
C1831 H1805 0.950 . S
C1831 C1830 1.414 . S
C1831 C1832 1.374 . S
C1832 H1806 0.950 . S
C1832 C1828 1.385 . S
C1832 C1831 1.374 . S
C1833 C1830 1.499 . S
C1833 C1834 1.373 . S
C1833 C1835 1.389 . S
C1834 H1807 0.950 . S
C1834 C1820 1.377 . S
C1834 C1833 1.373 . S
C1835 C1819 1.377 . S
C1835 C1833 1.389 . S
C1835 C1836 1.524 . S
C1836 C1835 1.524 . S
C1836 C1837 1.397 . S
C1836 C1841 1.363 . S
C1837 H1808 0.950 . S
C1837 C1836 1.397 . S
C1837 C1838 1.334 . S
C1838 H1809 0.950 . S
C1838 C1837 1.334 . S
C1838 C1839 1.287 . S
C1839 C1838 1.287 . S
C1839 C1840 1.524 . S
C1839 H1842 0.999 . S
C1840 H1810 0.950 . S
C1840 C1839 1.524 . S
C1840 C1841 1.415 . S
C1841 H1811 0.950 . S
C1841 C1836 1.363 . S
C1841 C1840 1.415 . S
H1842 C1839 0.999 . S
H1843 C1824 0.913 . S
H1844 C1862 0.951 1_544 S
H1845 C1864 0.951 1_554 S
H1846 C1866 0.950 . S
H1847 C1867 0.950 . S
H1848 C1869 0.950 . S
H1849 C1872 0.950 . S
H1850 C1873 0.950 . S
H1851 C1875 0.950 . S
H1852 C1876 0.950 . S
H1853 C1877 0.951 . S
H1854 C1879 0.951 . S
H1855 C1881 0.950 . S
H1856 C1882 0.950 . S
H1857 C1884 0.950 . S
H1858 C1887 0.950 . S
H1859 C1888 0.950 . S
H1860 C1890 0.950 . S
H1861 C1891 0.950 . S
C1862 H1844 0.951 1_566 S
C1862 C1863 1.366 . S
C1862 C1864 1.388 . S
C1863 C1862 1.366 . S
C1863 C1867 1.385 . S
C1864 H1845 0.951 1_556 S
C1864 C1862 1.388 . S
C1864 C1865 1.366 . S
C1865 C1864 1.366 . S
C1865 C1866 1.414 . S
C1865 C1868 1.499 . S
C1866 H1846 0.950 . S
C1866 C1865 1.414 . S
C1866 C1867 1.374 . S
C1867 H1847 0.950 . S
C1867 C1863 1.385 . S
C1867 C1866 1.374 . S
C1868 C1865 1.499 . S
C1868 C1869 1.373 . S
C1868 C1870 1.389 1_556 S
C1869 H1848 0.950 . S
C1869 C1868 1.373 . S
C1869 C1885 1.377 . S
C1870 C1868 1.389 1_554 S
C1870 C1871 1.524 . S
C1870 C1884 1.377 . S
C1871 C1870 1.524 . S
C1871 C1872 1.397 . S
C1871 C1876 1.363 . S
C1872 H1849 0.950 . S
C1872 C1871 1.397 . S
C1872 C1873 1.334 . S
C1873 H1850 0.950 . S
C1873 C1872 1.334 . S
C1873 C1874 1.287 . S
C1874 C1873 1.287 . S
C1874 C1875 1.524 . S
C1874 H1893 0.913 . S
C1875 H1851 0.950 . S
C1875 C1874 1.524 . S
C1875 C1876 1.415 . S
C1876 H1852 0.950 . S
C1876 C1871 1.363 . S
C1876 C1875 1.415 . S
C1877 H1853 0.951 . S
C1877 C1878 1.366 1_556 S
C1877 C1879 1.388 . S
C1878 C1877 1.366 1_554 S
C1878 C1882 1.385 . S
C1879 H1854 0.951 . S
C1879 C1877 1.388 . S
C1879 C1880 1.366 . S
C1880 C1879 1.366 . S
C1880 C1881 1.414 1_556 S
C1880 C1883 1.499 . S
C1881 H1855 0.950 . S
C1881 C1880 1.414 1_554 S
C1881 C1882 1.374 . S
C1882 H1856 0.950 . S
C1882 C1878 1.385 . S
C1882 C1881 1.374 . S
C1883 C1880 1.499 . S
C1883 C1884 1.373 1_556 S
C1883 C1885 1.389 . S
C1884 H1857 0.950 . S
C1884 C1870 1.377 . S
C1884 C1883 1.373 1_554 S
C1885 C1869 1.377 . S
C1885 C1883 1.389 . S
C1885 C1886 1.524 . S
C1886 C1885 1.524 . S
C1886 C1887 1.397 . S
C1886 C1891 1.363 . S
C1887 H1858 0.950 . S
C1887 C1886 1.397 . S
C1887 C1888 1.334 . S
C1888 H1859 0.950 . S
C1888 C1887 1.334 . S
C1888 C1889 1.287 . S
C1889 C1888 1.287 . S
C1889 C1890 1.524 . S
C1889 H1892 0.999 . S
C1890 H1860 0.950 . S
C1890 C1889 1.524 . S
C1890 C1891 1.415 . S
C1891 H1861 0.950 . S
C1891 C1886 1.363 . S
C1891 C1890 1.415 . S
H1892 C1889 0.999 . S
H1893 C1874 0.913 . S
H1894 C1912 0.951 . S
H1895 C1914 0.951 . S
H1896 C1916 0.950 . S
H1897 C1917 0.950 . S
H1898 C1919 0.950 . S
H1899 C1922 0.950 . S
H1900 C1923 0.950 . S
H1901 C1925 0.950 . S
H1902 C1926 0.950 . S
H1903 C1927 0.951 . S
H1904 C1929 0.951 . S
H1905 C1931 0.950 . S
H1906 C1932 0.950 . S
H1907 C1934 0.950 . S
H1908 C1937 0.950 . S
H1909 C1938 0.950 . S
H1910 C1940 0.950 . S
H1911 C1941 0.950 . S
C1912 H1894 0.951 . S
C1912 C1913 1.366 . S
C1912 C1914 1.388 . S
C1913 C1912 1.366 . S
C1913 C1917 1.385 . S
C1914 H1895 0.951 . S
C1914 C1912 1.388 . S
C1914 C1915 1.366 . S
C1915 C1914 1.366 . S
C1915 C1916 1.414 . S
C1915 C1918 1.499 . S
C1916 H1896 0.950 . S
C1916 C1915 1.414 . S
C1916 C1917 1.374 . S
C1917 H1897 0.950 . S
C1917 C1913 1.385 . S
C1917 C1916 1.374 . S
C1918 C1915 1.499 . S
C1918 C1919 1.373 . S
C1918 C1920 1.389 . S
C1919 H1898 0.950 . S
C1919 C1918 1.373 . S
C1919 C1935 1.377 . S
C1920 C1918 1.389 . S
C1920 C1921 1.524 . S
C1920 C1934 1.377 . S
C1921 C1920 1.524 . S
C1921 C1922 1.397 . S
C1921 C1926 1.363 . S
C1922 H1899 0.950 . S
C1922 C1921 1.397 . S
C1922 C1923 1.334 . S
C1923 H1900 0.950 . S
C1923 C1922 1.334 . S
C1923 C1924 1.287 . S
C1924 C1923 1.287 . S
C1924 C1925 1.524 . S
C1924 H1943 0.913 . S
C1925 H1901 0.950 . S
C1925 C1924 1.524 . S
C1925 C1926 1.415 . S
C1926 H1902 0.950 . S
C1926 C1921 1.363 . S
C1926 C1925 1.415 . S
C1927 H1903 0.951 . S
C1927 C1928 1.366 . S
C1927 C1929 1.388 . S
C1928 C1927 1.366 . S
C1928 C1932 1.385 . S
C1929 H1904 0.951 . S
C1929 C1927 1.388 . S
C1929 C1930 1.366 . S
C1930 C1929 1.366 . S
C1930 C1931 1.414 . S
C1930 C1933 1.499 . S
C1931 H1905 0.950 . S
C1931 C1930 1.414 . S
C1931 C1932 1.374 . S
C1932 H1906 0.950 . S
C1932 C1928 1.385 . S
C1932 C1931 1.374 . S
C1933 C1930 1.499 . S
C1933 C1934 1.373 . S
C1933 C1935 1.389 . S
C1934 H1907 0.950 . S
C1934 C1920 1.377 . S
C1934 C1933 1.373 . S
C1935 C1919 1.377 . S
C1935 C1933 1.389 . S
C1935 C1936 1.524 . S
C1936 C1935 1.524 . S
C1936 C1937 1.397 . S
C1936 C1941 1.363 . S
C1937 H1908 0.950 . S
C1937 C1936 1.397 . S
C1937 C1938 1.334 . S
C1938 H1909 0.950 . S
C1938 C1937 1.334 . S
C1938 C1939 1.287 . S
C1939 C1938 1.287 . S
C1939 C1940 1.524 . S
C1939 H1942 0.999 . S
C1940 H1910 0.950 . S
C1940 C1939 1.524 . S
C1940 C1941 1.415 . S
C1941 H1911 0.950 . S
C1941 C1936 1.363 . S
C1941 C1940 1.415 . S
H1942 C1939 0.999 . S
H1943 C1924 0.913 . S
H1944 C1962 0.951 . S
H1945 C1964 0.951 . S
H1946 C1966 0.950 . S
H1947 C1967 0.950 . S
H1948 C1969 0.950 . S
H1949 C1972 0.950 . S
H1950 C1973 0.950 . S
H1951 C1975 0.950 . S
H1952 C1976 0.950 . S
H1953 C1977 0.951 . S
H1954 C1979 0.951 . S
H1955 C1981 0.950 . S
H1956 C1982 0.950 . S
H1957 C1984 0.950 . S
H1958 C1987 0.950 . S
H1959 C1988 0.950 . S
H1960 C1990 0.950 . S
H1961 C1991 0.950 . S
C1962 H1944 0.951 . S
C1962 C1963 1.366 . S
C1962 C1964 1.388 . S
C1963 C1962 1.366 . S
C1963 C1967 1.385 . S
C1964 H1945 0.951 . S
C1964 C1962 1.388 . S
C1964 C1965 1.366 . S
C1965 C1964 1.366 . S
C1965 C1966 1.414 . S
C1965 C1968 1.499 . S
C1966 H1946 0.950 . S
C1966 C1965 1.414 . S
C1966 C1967 1.374 . S
C1967 H1947 0.950 . S
C1967 C1963 1.385 . S
C1967 C1966 1.374 . S
C1968 C1965 1.499 . S
C1968 C1969 1.373 . S
C1968 C1970 1.389 . S
C1969 H1948 0.950 . S
C1969 C1968 1.373 . S
C1969 C1985 1.377 . S
C1970 C1968 1.389 . S
C1970 C1971 1.524 . S
C1970 C1984 1.377 . S
C1971 C1970 1.524 . S
C1971 C1972 1.397 . S
C1971 C1976 1.363 . S
C1972 H1949 0.950 . S
C1972 C1971 1.397 . S
C1972 C1973 1.334 . S
C1973 H1950 0.950 . S
C1973 C1972 1.334 . S
C1973 C1974 1.287 . S
C1974 C1973 1.287 . S
C1974 C1975 1.524 . S
C1974 H1993 0.913 . S
C1975 H1951 0.950 . S
C1975 C1974 1.524 . S
C1975 C1976 1.415 . S
C1976 H1952 0.950 . S
C1976 C1971 1.363 . S
C1976 C1975 1.415 . S
C1977 H1953 0.951 . S
C1977 C1978 1.366 . S
C1977 C1979 1.388 . S
C1978 C1977 1.366 . S
C1978 C1982 1.385 . S
C1979 H1954 0.951 . S
C1979 C1977 1.388 . S
C1979 C1980 1.366 . S
C1980 C1979 1.366 . S
C1980 C1981 1.414 . S
C1980 C1983 1.499 . S
C1981 H1955 0.950 . S
C1981 C1980 1.414 . S
C1981 C1982 1.374 . S
C1982 H1956 0.950 . S
C1982 C1978 1.385 . S
C1982 C1981 1.374 . S
C1983 C1980 1.499 . S
C1983 C1984 1.373 . S
C1983 C1985 1.389 . S
C1984 H1957 0.950 . S
C1984 C1970 1.377 . S
C1984 C1983 1.373 . S
C1985 C1969 1.377 . S
C1985 C1983 1.389 . S
C1985 C1986 1.524 . S
C1986 C1985 1.524 . S
C1986 C1987 1.397 . S
C1986 C1991 1.363 . S
C1987 H1958 0.950 . S
C1987 C1986 1.397 . S
C1987 C1988 1.334 . S
C1988 H1959 0.950 . S
C1988 C1987 1.334 . S
C1988 C1989 1.287 . S
C1989 C1988 1.287 . S
C1989 C1990 1.524 . S
C1989 H1992 0.999 . S
C1990 H1960 0.950 . S
C1990 C1989 1.524 . S
C1990 C1991 1.415 . S
C1991 H1961 0.950 . S
C1991 C1986 1.363 . S
C1991 C1990 1.415 . S
H1992 C1989 0.999 . S
H1993 C1974 0.913 . S
H1994 C2012 0.951 . S
H1995 C2014 0.951 . S
H1996 C2016 0.950 . S
H1997 C2017 0.950 . S
H1998 C2019 0.950 . S
H1999 C2022 0.950 . S
H2000 C2023 0.950 . S
H2001 C2025 0.950 . S
H2002 C2026 0.950 . S
H2003 C2027 0.951 . S
H2004 C2029 0.951 . S
H2005 C2031 0.950 . S
H2006 C2032 0.950 . S
H2007 C2034 0.950 . S
H2008 C2037 0.950 . S
H2009 C2038 0.950 . S
H2010 C2040 0.950 . S
H2011 C2041 0.950 . S
C2012 H1994 0.951 . S
C2012 C2013 1.366 . S
C2012 C2014 1.388 . S
C2013 C2012 1.366 . S
C2013 C2017 1.385 . S
C2014 H1995 0.951 . S
C2014 C2012 1.388 . S
C2014 C2015 1.366 . S
C2015 C2014 1.366 . S
C2015 C2016 1.414 . S
C2015 C2018 1.499 . S
C2016 H1996 0.950 . S
C2016 C2015 1.414 . S
C2016 C2017 1.374 . S
C2017 H1997 0.950 . S
C2017 C2013 1.385 . S
C2017 C2016 1.374 . S
C2018 C2015 1.499 . S
C2018 C2019 1.373 . S
C2018 C2020 1.389 . S
C2019 H1998 0.950 . S
C2019 C2018 1.373 . S
C2019 C2035 1.377 . S
C2020 C2018 1.389 . S
C2020 C2021 1.524 . S
C2020 C2034 1.377 . S
C2021 C2020 1.524 . S
C2021 C2022 1.397 . S
C2021 C2026 1.363 . S
C2022 H1999 0.950 . S
C2022 C2021 1.397 . S
C2022 C2023 1.334 . S
C2023 H2000 0.950 . S
C2023 C2022 1.334 . S
C2023 C2024 1.287 . S
C2024 C2023 1.287 . S
C2024 C2025 1.524 . S
C2024 H2043 0.913 . S
C2025 H2001 0.950 . S
C2025 C2024 1.524 . S
C2025 C2026 1.415 . S
C2026 H2002 0.950 . S
C2026 C2021 1.363 . S
C2026 C2025 1.415 . S
C2027 H2003 0.951 . S
C2027 C2028 1.366 . S
C2027 C2029 1.388 . S
C2028 C2027 1.366 . S
C2028 C2032 1.385 . S
C2029 H2004 0.951 . S
C2029 C2027 1.388 . S
C2029 C2030 1.366 . S
C2030 C2029 1.366 . S
C2030 C2031 1.414 . S
C2030 C2033 1.499 . S
C2031 H2005 0.950 . S
C2031 C2030 1.414 . S
C2031 C2032 1.374 . S
C2032 H2006 0.950 . S
C2032 C2028 1.385 . S
C2032 C2031 1.374 . S
C2033 C2030 1.499 . S
C2033 C2034 1.373 . S
C2033 C2035 1.389 . S
C2034 H2007 0.950 . S
C2034 C2020 1.377 . S
C2034 C2033 1.373 . S
C2035 C2019 1.377 . S
C2035 C2033 1.389 . S
C2035 C2036 1.524 . S
C2036 C2035 1.524 . S
C2036 C2037 1.397 . S
C2036 C2041 1.363 . S
C2037 H2008 0.950 . S
C2037 C2036 1.397 . S
C2037 C2038 1.334 . S
C2038 H2009 0.950 . S
C2038 C2037 1.334 . S
C2038 C2039 1.287 . S
C2039 C2038 1.287 . S
C2039 C2040 1.524 . S
C2039 H2042 0.999 . S
C2040 H2010 0.950 . S
C2040 C2039 1.524 . S
C2040 C2041 1.415 . S
C2041 H2011 0.950 . S
C2041 C2036 1.363 . S
C2041 C2040 1.415 . S
H2042 C2039 0.999 . S
H2043 C2024 0.913 . S
H2044 C2062 0.951 . S
H2045 C2064 0.951 . S
H2046 C2066 0.950 . S
H2047 C2067 0.950 . S
H2048 C2069 0.950 . S
H2049 C2072 0.950 . S
H2050 C2073 0.950 1_565 S
H2051 C2075 0.950 . S
H2052 C2076 0.950 . S
H2053 C2077 0.951 . S
H2054 C2079 0.951 . S
H2055 C2081 0.950 . S
H2056 C2082 0.950 . S
H2057 C2084 0.950 . S
H2058 C2087 0.950 . S
H2059 C2088 0.950 . S
H2060 C2090 0.950 . S
H2061 C2091 0.950 . S
C2062 H2044 0.951 . S
C2062 C2063 1.366 . S
C2062 C2064 1.388 . S
C2063 C2062 1.366 . S
C2063 C2067 1.385 . S
C2064 H2045 0.951 . S
C2064 C2062 1.388 . S
C2064 C2065 1.366 . S
C2065 C2064 1.366 . S
C2065 C2066 1.414 . S
C2065 C2068 1.499 . S
C2066 H2046 0.950 . S
C2066 C2065 1.414 . S
C2066 C2067 1.374 . S
C2067 H2047 0.950 . S
C2067 C2063 1.385 . S
C2067 C2066 1.374 . S
C2068 C2065 1.499 . S
C2068 C2069 1.373 . S
C2068 C2070 1.389 . S
C2069 H2048 0.950 . S
C2069 C2068 1.373 . S
C2069 C2085 1.377 . S
C2070 C2068 1.389 . S
C2070 C2071 1.524 . S
C2070 C2084 1.377 . S
C2071 C2070 1.524 . S
C2071 C2072 1.397 . S
C2071 C2076 1.363 . S
C2072 H2049 0.950 . S
C2072 C2071 1.397 . S
C2072 C2073 1.334 . S
C2073 H2050 0.950 1_545 S
C2073 C2072 1.334 . S
C2073 C2074 1.287 . S
C2074 C2073 1.287 . S
C2074 C2075 1.524 . S
C2074 H2093 0.913 1_545 S
C2075 H2051 0.950 . S
C2075 C2074 1.524 . S
C2075 C2076 1.415 . S
C2076 H2052 0.950 . S
C2076 C2071 1.363 . S
C2076 C2075 1.415 . S
C2077 H2053 0.951 . S
C2077 C2078 1.366 . S
C2077 C2079 1.388 . S
C2078 C2077 1.366 . S
C2078 C2082 1.385 . S
C2079 H2054 0.951 . S
C2079 C2077 1.388 . S
C2079 C2080 1.366 . S
C2080 C2079 1.366 . S
C2080 C2081 1.414 . S
C2080 C2083 1.499 . S
C2081 H2055 0.950 . S
C2081 C2080 1.414 . S
C2081 C2082 1.374 . S
C2082 H2056 0.950 . S
C2082 C2078 1.385 . S
C2082 C2081 1.374 . S
C2083 C2080 1.499 . S
C2083 C2084 1.373 . S
C2083 C2085 1.389 . S
C2084 H2057 0.950 . S
C2084 C2070 1.377 . S
C2084 C2083 1.373 . S
C2085 C2069 1.377 . S
C2085 C2083 1.389 . S
C2085 C2086 1.524 . S
C2086 C2085 1.524 . S
C2086 C2087 1.397 . S
C2086 C2091 1.363 . S
C2087 H2058 0.950 . S
C2087 C2086 1.397 . S
C2087 C2088 1.334 . S
C2088 H2059 0.950 . S
C2088 C2087 1.334 . S
C2088 C2089 1.287 . S
C2089 C2088 1.287 . S
C2089 C2090 1.524 . S
C2089 H2092 0.999 . S
C2090 H2060 0.950 . S
C2090 C2089 1.524 . S
C2090 C2091 1.415 . S
C2091 H2061 0.950 . S
C2091 C2086 1.363 . S
C2091 C2090 1.415 . S
H2092 C2089 0.999 . S
H2093 C2074 0.913 1_565 S
H2094 C2112 0.951 . S
H2095 C2114 0.951 . S
H2096 C2116 0.950 . S
H2097 C2117 0.950 . S
H2098 C2119 0.950 . S
H2099 C2122 0.950 . S
H2100 C2123 0.950 . S
H2101 C2125 0.950 . S
H2102 C2126 0.950 . S
H2103 C2127 0.951 . S
H2104 C2129 0.951 . S
H2105 C2131 0.950 . S
H2106 C2132 0.950 . S
H2107 C2134 0.950 . S
H2108 C2137 0.950 . S
H2109 C2138 0.950 . S
H2110 C2140 0.950 . S
H2111 C2141 0.950 . S
C2112 H2094 0.951 . S
C2112 C2113 1.366 . S
C2112 C2114 1.388 . S
C2113 C2112 1.366 . S
C2113 C2117 1.385 . S
C2114 H2095 0.951 . S
C2114 C2112 1.388 . S
C2114 C2115 1.366 . S
C2115 C2114 1.366 . S
C2115 C2116 1.414 . S
C2115 C2118 1.499 . S
C2116 H2096 0.950 . S
C2116 C2115 1.414 . S
C2116 C2117 1.374 . S
C2117 H2097 0.950 . S
C2117 C2113 1.385 . S
C2117 C2116 1.374 . S
C2118 C2115 1.499 . S
C2118 C2119 1.373 . S
C2118 C2120 1.389 . S
C2119 H2098 0.950 . S
C2119 C2118 1.373 . S
C2119 C2135 1.377 . S
C2120 C2118 1.389 . S
C2120 C2121 1.524 . S
C2120 C2134 1.377 . S
C2121 C2120 1.524 . S
C2121 C2122 1.397 . S
C2121 C2126 1.363 . S
C2122 H2099 0.950 . S
C2122 C2121 1.397 . S
C2122 C2123 1.334 . S
C2123 H2100 0.950 . S
C2123 C2122 1.334 . S
C2123 C2124 1.287 . S
C2124 C2123 1.287 . S
C2124 C2125 1.524 . S
C2124 H2143 0.913 . S
C2125 H2101 0.950 . S
C2125 C2124 1.524 . S
C2125 C2126 1.415 . S
C2126 H2102 0.950 . S
C2126 C2121 1.363 . S
C2126 C2125 1.415 . S
C2127 H2103 0.951 . S
C2127 C2128 1.366 . S
C2127 C2129 1.388 . S
C2128 C2127 1.366 . S
C2128 C2132 1.385 . S
C2129 H2104 0.951 . S
C2129 C2127 1.388 . S
C2129 C2130 1.366 . S
C2130 C2129 1.366 . S
C2130 C2131 1.414 . S
C2130 C2133 1.499 . S
C2131 H2105 0.950 . S
C2131 C2130 1.414 . S
C2131 C2132 1.374 . S
C2132 H2106 0.950 . S
C2132 C2128 1.385 . S
C2132 C2131 1.374 . S
C2133 C2130 1.499 . S
C2133 C2134 1.373 . S
C2133 C2135 1.389 . S
C2134 H2107 0.950 . S
C2134 C2120 1.377 . S
C2134 C2133 1.373 . S
C2135 C2119 1.377 . S
C2135 C2133 1.389 . S
C2135 C2136 1.524 . S
C2136 C2135 1.524 . S
C2136 C2137 1.397 . S
C2136 C2141 1.363 . S
C2137 H2108 0.950 . S
C2137 C2136 1.397 . S
C2137 C2138 1.334 . S
C2138 H2109 0.950 . S
C2138 C2137 1.334 . S
C2138 C2139 1.287 . S
C2139 C2138 1.287 . S
C2139 C2140 1.524 . S
C2139 H2142 0.999 . S
C2140 H2110 0.950 . S
C2140 C2139 1.524 . S
C2140 C2141 1.415 . S
C2141 H2111 0.950 . S
C2141 C2136 1.363 . S
C2141 C2140 1.415 . S
H2142 C2139 0.999 . S
H2143 C2124 0.913 . S
H2144 C2162 0.951 . S
H2145 C2164 0.951 . S
H2146 C2166 0.950 . S
H2147 C2167 0.950 . S
H2148 C2169 0.950 . S
H2149 C2172 0.950 . S
H2150 C2173 0.950 . S
H2151 C2175 0.950 . S
H2152 C2176 0.950 . S
H2153 C2177 0.951 . S
H2154 C2179 0.951 . S
H2155 C2181 0.950 . S
H2156 C2182 0.950 . S
H2157 C2184 0.950 . S
H2158 C2187 0.950 . S
H2159 C2188 0.950 . S
H2160 C2190 0.950 . S
H2161 C2191 0.950 . S
C2162 H2144 0.951 . S
C2162 C2163 1.366 . S
C2162 C2164 1.388 . S
C2163 C2162 1.366 . S
C2163 C2167 1.385 . S
C2164 H2145 0.951 . S
C2164 C2162 1.388 . S
C2164 C2165 1.366 . S
C2165 C2164 1.366 . S
C2165 C2166 1.414 . S
C2165 C2168 1.499 . S
C2166 H2146 0.950 . S
C2166 C2165 1.414 . S
C2166 C2167 1.374 . S
C2167 H2147 0.950 . S
C2167 C2163 1.385 . S
C2167 C2166 1.374 . S
C2168 C2165 1.499 . S
C2168 C2169 1.373 . S
C2168 C2170 1.389 . S
C2169 H2148 0.950 . S
C2169 C2168 1.373 . S
C2169 C2185 1.377 . S
C2170 C2168 1.389 . S
C2170 C2171 1.524 . S
C2170 C2184 1.377 . S
C2171 C2170 1.524 . S
C2171 C2172 1.397 . S
C2171 C2176 1.363 . S
C2172 H2149 0.950 . S
C2172 C2171 1.397 . S
C2172 C2173 1.334 . S
C2173 H2150 0.950 . S
C2173 C2172 1.334 . S
C2173 C2174 1.287 . S
C2174 C2173 1.287 . S
C2174 C2175 1.524 . S
C2174 H2193 0.913 . S
C2175 H2151 0.950 . S
C2175 C2174 1.524 . S
C2175 C2176 1.415 . S
C2176 H2152 0.950 . S
C2176 C2171 1.363 . S
C2176 C2175 1.415 . S
C2177 H2153 0.951 . S
C2177 C2178 1.366 . S
C2177 C2179 1.388 . S
C2178 C2177 1.366 . S
C2178 C2182 1.385 . S
C2179 H2154 0.951 . S
C2179 C2177 1.388 . S
C2179 C2180 1.366 . S
C2180 C2179 1.366 . S
C2180 C2181 1.414 . S
C2180 C2183 1.499 . S
C2181 H2155 0.950 . S
C2181 C2180 1.414 . S
C2181 C2182 1.374 . S
C2182 H2156 0.950 . S
C2182 C2178 1.385 . S
C2182 C2181 1.374 . S
C2183 C2180 1.499 . S
C2183 C2184 1.373 . S
C2183 C2185 1.389 . S
C2184 H2157 0.950 . S
C2184 C2170 1.377 . S
C2184 C2183 1.373 . S
C2185 C2169 1.377 . S
C2185 C2183 1.389 . S
C2185 C2186 1.524 . S
C2186 C2185 1.524 . S
C2186 C2187 1.397 . S
C2186 C2191 1.363 . S
C2187 H2158 0.950 . S
C2187 C2186 1.397 . S
C2187 C2188 1.334 . S
C2188 H2159 0.950 . S
C2188 C2187 1.334 . S
C2188 C2189 1.287 . S
C2189 C2188 1.287 . S
C2189 C2190 1.524 . S
C2189 H2192 0.999 . S
C2190 H2160 0.950 . S
C2190 C2189 1.524 . S
C2190 C2191 1.415 . S
C2191 H2161 0.950 . S
C2191 C2186 1.363 . S
C2191 C2190 1.415 . S
H2192 C2189 0.999 . S
H2193 C2174 0.913 . S
H2194 C2212 0.951 . S
H2195 C2214 0.951 . S
H2196 C2216 0.950 1_565 S
H2197 C2217 0.950 . S
H2198 C2219 0.950 . S
H2199 C2222 0.950 . S
H2200 C2223 0.950 . S
H2201 C2225 0.950 . S
H2202 C2226 0.950 . S
H2203 C2227 0.951 . S
H2204 C2229 0.951 . S
H2205 C2231 0.950 . S
H2206 C2232 0.950 . S
H2207 C2234 0.950 . S
H2208 C2237 0.950 . S
H2209 C2238 0.950 . S
H2210 C2240 0.950 . S
H2211 C2241 0.950 . S
C2212 H2194 0.951 . S
C2212 C2213 1.366 . S
C2212 C2214 1.388 . S
C2213 C2212 1.366 . S
C2213 C2217 1.385 . S
C2214 H2195 0.951 . S
C2214 C2212 1.388 . S
C2214 C2215 1.366 . S
C2215 C2214 1.366 . S
C2215 C2216 1.414 . S
C2215 C2218 1.499 . S
C2216 H2196 0.950 1_545 S
C2216 C2215 1.414 . S
C2216 C2217 1.374 . S
C2217 H2197 0.950 . S
C2217 C2213 1.385 . S
C2217 C2216 1.374 . S
C2218 C2215 1.499 . S
C2218 C2219 1.373 . S
C2218 C2220 1.389 . S
C2219 H2198 0.950 . S
C2219 C2218 1.373 . S
C2219 C2235 1.377 . S
C2220 C2218 1.389 . S
C2220 C2221 1.524 . S
C2220 C2234 1.377 . S
C2221 C2220 1.524 . S
C2221 C2222 1.397 . S
C2221 C2226 1.363 . S
C2222 H2199 0.950 . S
C2222 C2221 1.397 . S
C2222 C2223 1.334 . S
C2223 H2200 0.950 . S
C2223 C2222 1.334 . S
C2223 C2224 1.287 . S
C2224 C2223 1.287 . S
C2224 C2225 1.524 . S
C2224 H2243 0.913 . S
C2225 H2201 0.950 . S
C2225 C2224 1.524 . S
C2225 C2226 1.415 . S
C2226 H2202 0.950 . S
C2226 C2221 1.363 . S
C2226 C2225 1.415 . S
C2227 H2203 0.951 . S
C2227 C2228 1.366 1_565 S
C2227 C2229 1.388 . S
C2228 C2227 1.366 1_545 S
C2228 C2232 1.385 . S
C2229 H2204 0.951 . S
C2229 C2227 1.388 . S
C2229 C2230 1.366 1_565 S
C2230 C2229 1.366 1_545 S
C2230 C2231 1.414 . S
C2230 C2233 1.499 . S
C2231 H2205 0.950 . S
C2231 C2230 1.414 . S
C2231 C2232 1.374 . S
C2232 H2206 0.950 . S
C2232 C2228 1.385 . S
C2232 C2231 1.374 . S
C2233 C2230 1.499 . S
C2233 C2234 1.373 . S
C2233 C2235 1.389 . S
C2234 H2207 0.950 . S
C2234 C2220 1.377 . S
C2234 C2233 1.373 . S
C2235 C2219 1.377 . S
C2235 C2233 1.389 . S
C2235 C2236 1.524 . S
C2236 C2235 1.524 . S
C2236 C2237 1.397 . S
C2236 C2241 1.363 1_545 S
C2237 H2208 0.950 . S
C2237 C2236 1.397 . S
C2237 C2238 1.334 . S
C2238 H2209 0.950 . S
C2238 C2237 1.334 . S
C2238 C2239 1.287 . S
C2239 C2238 1.287 . S
C2239 C2240 1.524 1_545 S
C2239 H2242 1.016 . S
C2240 H2210 0.950 . S
C2240 C2239 1.524 1_565 S
C2240 C2241 1.415 . S
C2241 H2211 0.950 . S
C2241 C2236 1.363 1_565 S
C2241 C2240 1.415 . S
H2242 C2239 1.016 . S
H2243 C2224 0.913 . S
H2244 C2262 0.951 . S
H2245 C2264 0.951 . S
H2246 C2266 0.950 . S
H2247 C2267 0.950 . S
H2248 C2269 0.950 . S
H2249 C2272 0.950 . S
H2250 C2273 0.950 . S
H2251 C2275 0.950 . S
H2252 C2276 0.950 . S
H2253 C2277 0.951 . S
H2254 C2279 0.951 . S
H2255 C2281 0.950 . S
H2256 C2282 0.950 . S
H2257 C2284 0.950 . S
H2258 C2287 0.950 . S
H2259 C2288 0.950 . S
H2260 C2290 0.950 . S
H2261 C2291 0.950 . S
C2262 H2244 0.951 . S
C2262 C2263 1.366 . S
C2262 C2264 1.388 . S
C2263 C2262 1.366 . S
C2263 C2267 1.385 . S
C2264 H2245 0.951 . S
C2264 C2262 1.388 . S
C2264 C2265 1.366 . S
C2265 C2264 1.366 . S
C2265 C2266 1.414 . S
C2265 C2268 1.499 . S
C2266 H2246 0.950 . S
C2266 C2265 1.414 . S
C2266 C2267 1.374 . S
C2267 H2247 0.950 . S
C2267 C2263 1.385 . S
C2267 C2266 1.374 . S
C2268 C2265 1.499 . S
C2268 C2269 1.373 . S
C2268 C2270 1.389 . S
C2269 H2248 0.950 . S
C2269 C2268 1.373 . S
C2269 C2285 1.377 . S
C2270 C2268 1.389 . S
C2270 C2271 1.524 . S
C2270 C2284 1.377 . S
C2271 C2270 1.524 . S
C2271 C2272 1.397 . S
C2271 C2276 1.363 . S
C2272 H2249 0.950 . S
C2272 C2271 1.397 . S
C2272 C2273 1.334 . S
C2273 H2250 0.950 . S
C2273 C2272 1.334 . S
C2273 C2274 1.287 . S
C2274 C2273 1.287 . S
C2274 C2275 1.524 . S
C2274 H2293 0.913 . S
C2275 H2251 0.950 . S
C2275 C2274 1.524 . S
C2275 C2276 1.415 . S
C2276 H2252 0.950 . S
C2276 C2271 1.363 . S
C2276 C2275 1.415 . S
C2277 H2253 0.951 . S
C2277 C2278 1.366 . S
C2277 C2279 1.388 . S
C2278 C2277 1.366 . S
C2278 C2282 1.385 . S
C2279 H2254 0.951 . S
C2279 C2277 1.388 . S
C2279 C2280 1.366 . S
C2280 C2279 1.366 . S
C2280 C2281 1.414 . S
C2280 C2283 1.499 . S
C2281 H2255 0.950 . S
C2281 C2280 1.414 . S
C2281 C2282 1.374 . S
C2282 H2256 0.950 . S
C2282 C2278 1.385 . S
C2282 C2281 1.374 . S
C2283 C2280 1.499 . S
C2283 C2284 1.373 . S
C2283 C2285 1.389 . S
C2284 H2257 0.950 . S
C2284 C2270 1.377 . S
C2284 C2283 1.373 . S
C2285 C2269 1.377 . S
C2285 C2283 1.389 . S
C2285 C2286 1.524 . S
C2286 C2285 1.524 . S
C2286 C2287 1.397 . S
C2286 C2291 1.363 . S
C2287 H2258 0.950 . S
C2287 C2286 1.397 . S
C2287 C2288 1.334 . S
C2288 H2259 0.950 . S
C2288 C2287 1.334 . S
C2288 C2289 1.287 . S
C2289 C2288 1.287 . S
C2289 C2290 1.524 . S
C2289 H2292 0.999 . S
C2290 H2260 0.950 . S
C2290 C2289 1.524 . S
C2290 C2291 1.415 . S
C2291 H2261 0.950 . S
C2291 C2286 1.363 . S
C2291 C2290 1.415 . S
H2292 C2289 0.999 . S
H2293 C2274 0.913 . S
H2294 C2312 0.951 . S
H2295 C2314 0.951 . S
H2296 C2316 0.950 . S
H2297 C2317 0.950 . S
H2298 C2319 0.950 . S
H2299 C2322 0.950 . S
H2300 C2323 0.950 . S
H2301 C2325 0.950 . S
H2302 C2326 0.950 . S
H2303 C2327 0.951 . S
H2304 C2329 0.951 . S
H2305 C2331 0.950 . S
H2306 C2332 0.950 . S
H2307 C2334 0.950 . S
H2308 C2337 0.950 . S
H2309 C2338 0.950 . S
H2310 C2340 0.950 . S
H2311 C2341 0.950 . S
C2312 H2294 0.951 . S
C2312 C2313 1.366 . S
C2312 C2314 1.388 . S
C2313 C2312 1.366 . S
C2313 C2317 1.385 . S
C2314 H2295 0.951 . S
C2314 C2312 1.388 . S
C2314 C2315 1.366 . S
C2315 C2314 1.366 . S
C2315 C2316 1.414 . S
C2315 C2318 1.499 . S
C2316 H2296 0.950 . S
C2316 C2315 1.414 . S
C2316 C2317 1.374 . S
C2317 H2297 0.950 . S
C2317 C2313 1.385 . S
C2317 C2316 1.374 . S
C2318 C2315 1.499 . S
C2318 C2319 1.373 . S
C2318 C2320 1.389 . S
C2319 H2298 0.950 . S
C2319 C2318 1.373 . S
C2319 C2335 1.377 . S
C2320 C2318 1.389 . S
C2320 C2321 1.524 . S
C2320 C2334 1.377 . S
C2321 C2320 1.524 . S
C2321 C2322 1.397 . S
C2321 C2326 1.363 . S
C2322 H2299 0.950 . S
C2322 C2321 1.397 . S
C2322 C2323 1.334 . S
C2323 H2300 0.950 . S
C2323 C2322 1.334 . S
C2323 C2324 1.287 . S
C2324 C2323 1.287 . S
C2324 C2325 1.524 . S
C2324 H2343 0.913 . S
C2325 H2301 0.950 . S
C2325 C2324 1.524 . S
C2325 C2326 1.415 . S
C2326 H2302 0.950 . S
C2326 C2321 1.363 . S
C2326 C2325 1.415 . S
C2327 H2303 0.951 . S
C2327 C2328 1.366 . S
C2327 C2329 1.388 . S
C2328 C2327 1.366 . S
C2328 C2332 1.385 . S
C2329 H2304 0.951 . S
C2329 C2327 1.388 . S
C2329 C2330 1.366 . S
C2330 C2329 1.366 . S
C2330 C2331 1.414 . S
C2330 C2333 1.499 . S
C2331 H2305 0.950 . S
C2331 C2330 1.414 . S
C2331 C2332 1.374 . S
C2332 H2306 0.950 . S
C2332 C2328 1.385 . S
C2332 C2331 1.374 . S
C2333 C2330 1.499 . S
C2333 C2334 1.373 . S
C2333 C2335 1.389 . S
C2334 H2307 0.950 . S
C2334 C2320 1.377 . S
C2334 C2333 1.373 . S
C2335 C2319 1.377 . S
C2335 C2333 1.389 . S
C2335 C2336 1.524 . S
C2336 C2335 1.524 . S
C2336 C2337 1.397 . S
C2336 C2341 1.363 . S
C2337 H2308 0.950 . S
C2337 C2336 1.397 . S
C2337 C2338 1.334 . S
C2338 H2309 0.950 . S
C2338 C2337 1.334 . S
C2338 C2339 1.287 . S
C2339 C2338 1.287 . S
C2339 C2340 1.524 . S
C2339 H2342 0.999 . S
C2340 H2310 0.950 . S
C2340 C2339 1.524 . S
C2340 C2341 1.415 . S
C2341 H2311 0.950 . S
C2341 C2336 1.363 . S
C2341 C2340 1.415 . S
H2342 C2339 0.999 . S
H2343 C2324 0.913 . S
H2344 C2362 0.951 . S
H2345 C2364 0.951 . S
H2346 C2366 0.950 . S
H2347 C2367 0.950 . S
H2348 C2369 0.950 . S
H2349 C2372 0.950 . S
H2350 C2373 0.950 . S
H2351 C2375 0.950 . S
H2352 C2376 0.950 . S
H2353 C2377 0.951 . S
H2354 C2379 0.951 . S
H2355 C2381 0.950 . S
H2356 C2382 0.950 . S
H2357 C2384 0.950 . S
H2358 C2387 0.950 . S
H2359 C2388 0.950 . S
H2360 C2390 0.950 . S
H2361 C2391 0.950 . S
C2362 H2344 0.951 . S
C2362 C2363 1.366 . S
C2362 C2364 1.388 . S
C2363 C2362 1.366 . S
C2363 C2367 1.385 . S
C2364 H2345 0.951 . S
C2364 C2362 1.388 . S
C2364 C2365 1.366 . S
C2365 C2364 1.366 . S
C2365 C2366 1.414 . S
C2365 C2368 1.499 . S
C2366 H2346 0.950 . S
C2366 C2365 1.414 . S
C2366 C2367 1.374 . S
C2367 H2347 0.950 . S
C2367 C2363 1.385 . S
C2367 C2366 1.374 . S
C2368 C2365 1.499 . S
C2368 C2369 1.373 . S
C2368 C2370 1.389 . S
C2369 H2348 0.950 . S
C2369 C2368 1.373 . S
C2369 C2385 1.377 . S
C2370 C2368 1.389 . S
C2370 C2371 1.524 . S
C2370 C2384 1.377 . S
C2371 C2370 1.524 . S
C2371 C2372 1.397 . S
C2371 C2376 1.363 . S
C2372 H2349 0.950 . S
C2372 C2371 1.397 . S
C2372 C2373 1.334 . S
C2373 H2350 0.950 . S
C2373 C2372 1.334 . S
C2373 C2374 1.287 . S
C2374 C2373 1.287 . S
C2374 C2375 1.524 . S
C2374 H2393 0.913 . S
C2375 H2351 0.950 . S
C2375 C2374 1.524 . S
C2375 C2376 1.415 . S
C2376 H2352 0.950 . S
C2376 C2371 1.363 . S
C2376 C2375 1.415 . S
C2377 H2353 0.951 . S
C2377 C2378 1.366 . S
C2377 C2379 1.388 . S
C2378 C2377 1.366 . S
C2378 C2382 1.385 . S
C2379 H2354 0.951 . S
C2379 C2377 1.388 . S
C2379 C2380 1.366 . S
C2380 C2379 1.366 . S
C2380 C2381 1.414 . S
C2380 C2383 1.499 . S
C2381 H2355 0.950 . S
C2381 C2380 1.414 . S
C2381 C2382 1.374 . S
C2382 H2356 0.950 . S
C2382 C2378 1.385 . S
C2382 C2381 1.374 . S
C2383 C2380 1.499 . S
C2383 C2384 1.373 . S
C2383 C2385 1.389 . S
C2384 H2357 0.950 . S
C2384 C2370 1.377 . S
C2384 C2383 1.373 . S
C2385 C2369 1.377 . S
C2385 C2383 1.389 . S
C2385 C2386 1.524 . S
C2386 C2385 1.524 . S
C2386 C2387 1.397 . S
C2386 C2391 1.363 . S
C2387 H2358 0.950 . S
C2387 C2386 1.397 . S
C2387 C2388 1.334 . S
C2388 H2359 0.950 . S
C2388 C2387 1.334 . S
C2388 C2389 1.287 . S
C2389 C2388 1.287 . S
C2389 C2390 1.524 . S
C2389 H2392 0.999 . S
C2390 H2360 0.950 . S
C2390 C2389 1.524 . S
C2390 C2391 1.415 . S
C2391 H2361 0.950 . S
C2391 C2386 1.363 . S
C2391 C2390 1.415 . S
H2392 C2389 0.999 . S
H2393 C2374 0.913 . S
H2394 C2412 0.951 . S
H2395 C2414 0.951 . S
H2396 C2416 0.999 . S
H2397 C2417 0.950 . S
H2398 C2419 0.950 . S
H2399 C2422 0.950 . S
H2400 C2423 0.950 . S
H2401 C2425 0.950 . S
H2402 C2426 0.950 . S
H2403 C2427 0.919 1_565 S
H2404 C2429 0.951 1_565 S
H2405 C2431 0.950 . S
H2406 C2432 0.950 . S
H2407 C2434 0.950 . S
H2408 C2437 0.950 . S
H2409 C2438 0.950 . S
H2410 C2440 0.950 1_565 S
H2411 C2441 0.950 1_565 S
C2412 H2394 0.951 . S
C2412 C2413 1.366 . S
C2412 C2414 1.388 . S
C2413 C2412 1.366 . S
C2413 C2417 1.385 . S
C2414 H2395 0.951 . S
C2414 C2412 1.388 . S
C2414 C2415 1.366 . S
C2415 C2414 1.366 . S
C2415 C2416 1.414 . S
C2415 C2418 1.499 . S
C2416 H2396 0.999 . S
C2416 C2415 1.414 . S
C2416 C2417 1.374 . S
C2417 H2397 0.950 . S
C2417 C2413 1.385 . S
C2417 C2416 1.374 . S
C2418 C2415 1.499 . S
C2418 C2419 1.373 . S
C2418 C2420 1.389 . S
C2419 H2398 0.950 . S
C2419 C2418 1.373 . S
C2419 C2435 1.377 . S
C2420 C2418 1.389 . S
C2420 C2421 1.524 . S
C2420 C2434 1.377 . S
C2421 C2420 1.524 . S
C2421 C2422 1.397 . S
C2421 C2426 1.363 . S
C2422 H2399 0.950 . S
C2422 C2421 1.397 . S
C2422 C2423 1.334 1_655 S
C2423 H2400 0.950 . S
C2423 C2422 1.334 1_455 S
C2423 C2424 1.287 . S
C2424 C2423 1.287 . S
C2424 C2425 1.524 . S
C2424 H2443 0.913 . S
C2425 H2401 0.950 . S
C2425 C2424 1.524 . S
C2425 C2426 1.415 1_455 S
C2426 H2402 0.950 . S
C2426 C2421 1.363 . S
C2426 C2425 1.415 1_655 S
C2427 H2403 0.919 1_545 S
C2427 C2428 1.394 . S
C2427 C2429 1.392 . S
C2428 C2427 1.394 . S
C2428 C2432 1.385 . S
C2429 H2404 0.951 1_545 S
C2429 C2427 1.392 . S
C2429 C2430 1.366 . S
C2430 C2429 1.366 . S
C2430 C2431 1.414 . S
C2430 C2433 1.499 . S
C2431 H2405 0.950 . S
C2431 C2430 1.414 . S
C2431 C2432 1.374 . S
C2432 H2406 0.950 . S
C2432 C2428 1.385 . S
C2432 C2431 1.374 . S
C2433 C2430 1.499 . S
C2433 C2434 1.373 . S
C2433 C2435 1.389 . S
C2434 H2407 0.950 . S
C2434 C2420 1.377 . S
C2434 C2433 1.373 . S
C2435 C2419 1.377 . S
C2435 C2433 1.389 . S
C2435 C2436 1.524 . S
C2436 C2435 1.524 . S
C2436 C2437 1.397 . S
C2436 C2441 1.363 . S
C2437 H2408 0.950 . S
C2437 C2436 1.397 . S
C2437 C2438 1.334 . S
C2438 H2409 0.950 . S
C2438 C2437 1.334 . S
C2438 C2439 1.287 . S
C2439 C2438 1.287 . S
C2439 C2440 1.524 . S
C2439 H2442 0.999 . S
C2440 H2410 0.950 1_545 S
C2440 C2439 1.524 . S
C2440 C2441 1.415 . S
C2441 H2411 0.950 1_545 S
C2441 C2436 1.363 . S
C2441 C2440 1.415 . S
H2442 C2439 0.999 . S
H2443 C2424 0.913 . S
H2444 C2462 0.951 . S
H2445 C2464 0.951 . S
H2446 C2466 0.950 . S
H2447 C2467 0.950 . S
H2448 C2469 0.950 . S
H2449 C2472 0.950 . S
H2450 C2473 0.950 . S
H2451 C2475 0.950 . S
H2452 C2476 0.950 . S
H2453 C2477 0.951 . S
H2454 C2479 0.951 . S
H2455 C2481 0.950 . S
H2456 C2482 0.950 . S
H2457 C2484 0.950 . S
H2458 C2487 0.950 . S
H2459 C2488 0.950 . S
H2460 C2490 0.950 . S
H2461 C2491 0.950 . S
C2462 H2444 0.951 . S
C2462 C2463 1.366 . S
C2462 C2464 1.388 . S
C2463 C2462 1.366 . S
C2463 C2467 1.385 . S
C2464 H2445 0.951 . S
C2464 C2462 1.388 . S
C2464 C2465 1.366 . S
C2465 C2464 1.366 . S
C2465 C2466 1.414 . S
C2465 C2468 1.499 . S
C2466 H2446 0.950 . S
C2466 C2465 1.414 . S
C2466 C2467 1.374 . S
C2467 H2447 0.950 . S
C2467 C2463 1.385 . S
C2467 C2466 1.374 . S
C2468 C2465 1.499 . S
C2468 C2469 1.373 . S
C2468 C2470 1.389 . S
C2469 H2448 0.950 . S
C2469 C2468 1.373 . S
C2469 C2485 1.377 . S
C2470 C2468 1.389 . S
C2470 C2471 1.524 . S
C2470 C2484 1.377 . S
C2471 C2470 1.524 . S
C2471 C2472 1.397 . S
C2471 C2476 1.363 . S
C2472 H2449 0.950 . S
C2472 C2471 1.397 . S
C2472 C2473 1.334 . S
C2473 H2450 0.950 . S
C2473 C2472 1.334 . S
C2473 C2474 1.287 . S
C2474 C2473 1.287 . S
C2474 C2475 1.524 . S
C2474 H2493 0.913 . S
C2475 H2451 0.950 . S
C2475 C2474 1.524 . S
C2475 C2476 1.415 . S
C2476 H2452 0.950 . S
C2476 C2471 1.363 . S
C2476 C2475 1.415 . S
C2477 H2453 0.951 . S
C2477 C2478 1.366 . S
C2477 C2479 1.388 . S
C2478 C2477 1.366 . S
C2478 C2482 1.385 . S
C2479 H2454 0.951 . S
C2479 C2477 1.388 . S
C2479 C2480 1.366 . S
C2480 C2479 1.366 . S
C2480 C2481 1.414 . S
C2480 C2483 1.499 . S
C2481 H2455 0.950 . S
C2481 C2480 1.414 . S
C2481 C2482 1.374 . S
C2482 H2456 0.950 . S
C2482 C2478 1.385 . S
C2482 C2481 1.374 . S
C2483 C2480 1.499 . S
C2483 C2484 1.373 . S
C2483 C2485 1.389 . S
C2484 H2457 0.950 . S
C2484 C2470 1.377 . S
C2484 C2483 1.373 . S
C2485 C2469 1.377 . S
C2485 C2483 1.389 . S
C2485 C2486 1.524 . S
C2486 C2485 1.524 . S
C2486 C2487 1.397 . S
C2486 C2491 1.363 . S
C2487 H2458 0.950 . S
C2487 C2486 1.397 . S
C2487 C2488 1.334 . S
C2488 H2459 0.950 . S
C2488 C2487 1.334 . S
C2488 C2489 1.287 . S
C2489 C2488 1.287 . S
C2489 C2490 1.524 . S
C2489 H2492 0.999 . S
C2490 H2460 0.950 . S
C2490 C2489 1.524 . S
C2490 C2491 1.415 . S
C2491 H2461 0.950 . S
C2491 C2486 1.363 . S
C2491 C2490 1.415 . S
H2492 C2489 0.999 . S
H2493 C2474 0.913 . S
H2494 C2512 0.951 . S
H2495 C2514 0.951 . S
H2496 C2516 0.950 . S
H2497 C2517 0.894 1_655 S
H2498 C2519 0.950 . S
H2499 C2522 0.950 . S
H2500 C2523 0.950 . S
H2501 C2525 0.950 . S
H2502 C2526 0.950 . S
H2503 C2527 0.951 . S
H2504 C2529 0.951 . S
H2505 C2531 0.950 . S
H2506 C2532 0.950 . S
H2507 C2534 0.950 . S
H2508 C2537 0.950 . S
H2509 C2538 0.950 . S
H2510 C2540 0.950 . S
H2511 C2541 0.950 . S
C2512 H2494 0.951 . S
C2512 C2513 1.366 . S
C2512 C2514 1.388 . S
C2513 C2512 1.366 . S
C2513 C2517 1.385 . S
C2514 H2495 0.951 . S
C2514 C2512 1.388 . S
C2514 C2515 1.366 . S
C2515 C2514 1.366 . S
C2515 C2516 1.414 . S
C2515 C2518 1.499 . S
C2516 H2496 0.950 . S
C2516 C2515 1.414 . S
C2516 C2517 1.374 . S
C2517 H2497 0.894 1_455 S
C2517 C2513 1.385 . S
C2517 C2516 1.374 . S
C2518 C2515 1.499 . S
C2518 C2519 1.373 . S
C2518 C2520 1.389 . S
C2519 H2498 0.950 . S
C2519 C2518 1.373 . S
C2519 C2535 1.377 . S
C2520 C2518 1.389 . S
C2520 C2521 1.524 . S
C2520 C2534 1.377 . S
C2521 C2520 1.524 . S
C2521 C2522 1.397 . S
C2521 C2526 1.363 . S
C2522 H2499 0.950 . S
C2522 C2521 1.397 . S
C2522 C2523 1.334 . S
C2523 H2500 0.950 . S
C2523 C2522 1.334 . S
C2523 C2524 1.287 . S
C2524 C2523 1.287 . S
C2524 C2525 1.524 . S
C2524 H2543 0.913 . S
C2525 H2501 0.950 . S
C2525 C2524 1.524 . S
C2525 C2526 1.415 . S
C2526 H2502 0.950 . S
C2526 C2521 1.363 . S
C2526 C2525 1.415 . S
C2527 H2503 0.951 . S
C2527 C2528 1.366 . S
C2527 C2529 1.388 . S
C2528 C2527 1.366 . S
C2528 C2532 1.385 . S
C2529 H2504 0.951 . S
C2529 C2527 1.388 . S
C2529 C2530 1.366 . S
C2530 C2529 1.366 . S
C2530 C2531 1.414 . S
C2530 C2533 1.499 . S
C2531 H2505 0.950 . S
C2531 C2530 1.414 . S
C2531 C2532 1.374 . S
C2532 H2506 0.950 . S
C2532 C2528 1.385 . S
C2532 C2531 1.374 . S
C2533 C2530 1.499 . S
C2533 C2534 1.373 . S
C2533 C2535 1.389 . S
C2534 H2507 0.950 . S
C2534 C2520 1.377 . S
C2534 C2533 1.373 . S
C2535 C2519 1.377 . S
C2535 C2533 1.389 . S
C2535 C2536 1.524 . S
C2536 C2535 1.524 . S
C2536 C2537 1.397 . S
C2536 C2541 1.363 . S
C2537 H2508 0.950 . S
C2537 C2536 1.397 . S
C2537 C2538 1.334 . S
C2538 H2509 0.950 . S
C2538 C2537 1.334 . S
C2538 C2539 1.287 . S
C2539 C2538 1.287 . S
C2539 C2540 1.524 . S
C2539 H2542 0.999 . S
C2540 H2510 0.950 . S
C2540 C2539 1.524 . S
C2540 C2541 1.415 . S
C2541 H2511 0.950 . S
C2541 C2536 1.363 . S
C2541 C2540 1.415 . S
H2542 C2539 0.999 . S
H2543 C2524 0.913 . S
H2544 C2562 0.951 . S
H2545 C2564 0.951 . S
H2546 C2566 0.950 . S
H2547 C2567 0.950 . S
H2548 C2569 0.950 . S
H2549 C2572 0.950 . S
H2550 C2573 0.950 . S
H2551 C2575 0.950 . S
H2552 C2576 0.950 . S
H2553 C2577 0.951 . S
H2554 C2579 0.951 . S
H2555 C2581 0.950 . S
H2556 C2582 0.950 . S
H2557 C2584 0.950 . S
H2558 C2587 0.950 . S
H2559 C2588 0.950 . S
H2560 C2590 0.950 . S
H2561 C2591 0.950 . S
C2562 H2544 0.951 . S
C2562 C2563 1.366 . S
C2562 C2564 1.388 . S
C2563 C2562 1.366 . S
C2563 C2567 1.385 . S
C2564 H2545 0.951 . S
C2564 C2562 1.388 . S
C2564 C2565 1.366 . S
C2565 C2564 1.366 . S
C2565 C2566 1.414 . S
C2565 C2568 1.499 . S
C2566 H2546 0.950 . S
C2566 C2565 1.414 . S
C2566 C2567 1.374 . S
C2567 H2547 0.950 . S
C2567 C2563 1.385 . S
C2567 C2566 1.374 . S
C2568 C2565 1.499 . S
C2568 C2569 1.373 . S
C2568 C2570 1.389 . S
C2569 H2548 0.950 . S
C2569 C2568 1.373 . S
C2569 C2585 1.377 . S
C2570 C2568 1.389 . S
C2570 C2571 1.524 . S
C2570 C2584 1.377 . S
C2571 C2570 1.524 . S
C2571 C2572 1.397 . S
C2571 C2576 1.363 . S
C2572 H2549 0.950 . S
C2572 C2571 1.397 . S
C2572 C2573 1.334 . S
C2573 H2550 0.950 . S
C2573 C2572 1.334 . S
C2573 C2574 1.287 . S
C2574 C2573 1.287 . S
C2574 C2575 1.524 . S
C2574 H2593 0.913 . S
C2575 H2551 0.950 . S
C2575 C2574 1.524 . S
C2575 C2576 1.415 . S
C2576 H2552 0.950 . S
C2576 C2571 1.363 . S
C2576 C2575 1.415 . S
C2577 H2553 0.951 . S
C2577 C2578 1.366 . S
C2577 C2579 1.388 . S
C2578 C2577 1.366 . S
C2578 C2582 1.385 . S
C2579 H2554 0.951 . S
C2579 C2577 1.388 . S
C2579 C2580 1.366 . S
C2580 C2579 1.366 . S
C2580 C2581 1.414 . S
C2580 C2583 1.499 . S
C2581 H2555 0.950 . S
C2581 C2580 1.414 . S
C2581 C2582 1.374 . S
C2582 H2556 0.950 . S
C2582 C2578 1.385 . S
C2582 C2581 1.374 . S
C2583 C2580 1.499 . S
C2583 C2584 1.373 . S
C2583 C2585 1.389 . S
C2584 H2557 0.950 . S
C2584 C2570 1.377 . S
C2584 C2583 1.373 . S
C2585 C2569 1.377 . S
C2585 C2583 1.389 . S
C2585 C2586 1.524 . S
C2586 C2585 1.524 . S
C2586 C2587 1.397 . S
C2586 C2591 1.363 . S
C2587 H2558 0.950 . S
C2587 C2586 1.397 . S
C2587 C2588 1.334 . S
C2588 H2559 0.950 . S
C2588 C2587 1.334 . S
C2588 C2589 1.287 . S
C2589 C2588 1.287 . S
C2589 C2590 1.524 . S
C2589 H2592 0.999 . S
C2590 H2560 0.950 . S
C2590 C2589 1.524 . S
C2590 C2591 1.415 . S
C2591 H2561 0.950 . S
C2591 C2586 1.363 . S
C2591 C2590 1.415 . S
H2592 C2589 0.999 . S
H2593 C2574 0.913 . S
H2594 C2612 0.951 1_554 S
H2595 C2614 0.951 . S
H2596 C2616 0.931 1_455 S
H2597 C2617 0.950 . S
H2598 C2619 0.950 . S
H2599 C2622 0.950 . S
H2600 C2623 0.950 . S
H2601 C2625 0.950 . S
H2602 C2626 0.950 . S
H2603 C2627 0.951 . S
H2604 C2629 0.951 . S
H2605 C2631 0.950 . S
H2606 C2632 0.950 . S
H2607 C2634 0.959 . S
H2608 C2637 0.950 . S
H2609 C2638 0.950 . S
H2610 C2640 0.950 . S
H2611 C2641 0.950 . S
C2612 H2594 0.951 1_556 S
C2612 C2613 1.366 . S
C2612 C2614 1.388 . S
C2613 C2612 1.366 . S
C2613 C2617 1.385 . S
C2614 H2595 0.951 . S
C2614 C2612 1.388 . S
C2614 C2615 1.366 . S
C2615 C2614 1.366 . S
C2615 C2616 1.414 . S
C2615 C2618 1.499 . S
C2616 H2596 0.931 1_655 S
C2616 C2615 1.414 . S
C2616 C2617 1.374 . S
C2617 H2597 0.950 . S
C2617 C2613 1.385 . S
C2617 C2616 1.374 . S
C2618 C2615 1.499 . S
C2618 C2619 1.373 . S
C2618 C2620 1.389 . S
C2619 H2598 0.950 . S
C2619 C2618 1.373 . S
C2619 C2635 1.377 . S
C2620 C2618 1.389 . S
C2620 C2621 1.523 . S
C2620 C2634 1.377 . S
C2621 C2620 1.523 . S
C2621 C2622 1.401 1_655 S
C2621 C2626 1.361 . S
C2622 H2599 0.950 . S
C2622 C2621 1.401 1_455 S
C2622 C2623 1.334 1_556 S
C2623 H2600 0.950 . S
C2623 C2622 1.334 1_554 S
C2623 C2624 1.287 . S
C2624 C2623 1.287 . S
C2624 C2625 1.524 1_455 S
C2624 H2643 0.913 . S
C2625 H2601 0.950 . S
C2625 C2624 1.524 1_655 S
C2625 C2626 1.415 1_554 S
C2626 H2602 0.950 . S
C2626 C2621 1.361 . S
C2626 C2625 1.415 1_556 S
C2627 H2603 0.951 . S
C2627 C2628 1.366 . S
C2627 C2629 1.388 . S
C2628 C2627 1.366 . S
C2628 C2632 1.385 1_455 S
C2629 H2604 0.951 . S
C2629 C2627 1.388 . S
C2629 C2630 1.366 1_455 S
C2630 C2629 1.366 1_655 S
C2630 C2631 1.414 . S
C2630 C2633 1.499 . S
C2631 H2605 0.950 . S
C2631 C2630 1.414 . S
C2631 C2632 1.374 . S
C2632 H2606 0.950 . S
C2632 C2628 1.385 1_655 S
C2632 C2631 1.374 . S
C2633 C2630 1.499 . S
C2633 C2634 1.373 . S
C2633 C2635 1.389 . S
C2634 H2607 0.959 . S
C2634 C2620 1.377 . S
C2634 C2633 1.373 . S
C2635 C2619 1.377 . S
C2635 C2633 1.389 . S
C2635 C2636 1.524 . S
C2636 C2635 1.524 . S
C2636 C2637 1.397 . S
C2636 C2641 1.363 . S
C2637 H2608 0.950 . S
C2637 C2636 1.397 . S
C2637 C2638 1.334 . S
C2638 H2609 0.950 . S
C2638 C2637 1.334 . S
C2638 C2639 1.287 . S
C2639 C2638 1.287 . S
C2639 C2640 1.524 . S
C2639 H2642 0.999 . S
C2640 H2610 0.950 . S
C2640 C2639 1.524 . S
C2640 C2641 1.415 . S
C2641 H2611 0.950 . S
C2641 C2636 1.363 . S
C2641 C2640 1.415 . S
H2642 C2639 0.999 . S
H2643 C2624 0.913 . S
H2644 C2662 0.951 . S
H2645 C2664 0.951 . S
H2646 C2666 0.950 . S
H2647 C2667 0.950 . S
H2648 C2669 0.950 . S
H2649 C2672 0.950 . S
H2650 C2673 0.950 . S
H2651 C2675 0.950 . S
H2652 C2676 0.950 . S
H2653 C2677 0.951 . S
H2654 C2679 0.951 . S
H2655 C2681 0.950 . S
H2656 C2682 0.950 . S
H2657 C2684 0.950 . S
H2658 C2687 0.950 . S
H2659 C2688 0.950 . S
H2660 C2690 0.950 . S
H2661 C2691 0.950 . S
C2662 H2644 0.951 . S
C2662 C2663 1.366 . S
C2662 C2664 1.388 . S
C2663 C2662 1.366 . S
C2663 C2667 1.385 . S
C2664 H2645 0.951 . S
C2664 C2662 1.388 . S
C2664 C2665 1.366 . S
C2665 C2664 1.366 . S
C2665 C2666 1.414 . S
C2665 C2668 1.499 . S
C2666 H2646 0.950 . S
C2666 C2665 1.414 . S
C2666 C2667 1.374 . S
C2667 H2647 0.950 . S
C2667 C2663 1.385 . S
C2667 C2666 1.374 . S
C2668 C2665 1.499 . S
C2668 C2669 1.373 . S
C2668 C2670 1.389 . S
C2669 H2648 0.950 . S
C2669 C2668 1.373 . S
C2669 C2685 1.377 . S
C2670 C2668 1.389 . S
C2670 C2671 1.524 . S
C2670 C2684 1.377 . S
C2671 C2670 1.524 . S
C2671 C2672 1.397 . S
C2671 C2676 1.363 . S
C2672 H2649 0.950 . S
C2672 C2671 1.397 . S
C2672 C2673 1.334 . S
C2673 H2650 0.950 . S
C2673 C2672 1.334 . S
C2673 C2674 1.287 . S
C2674 C2673 1.287 . S
C2674 C2675 1.524 . S
C2674 H2693 0.913 . S
C2675 H2651 0.950 . S
C2675 C2674 1.524 . S
C2675 C2676 1.415 . S
C2676 H2652 0.950 . S
C2676 C2671 1.363 . S
C2676 C2675 1.415 . S
C2677 H2653 0.951 . S
C2677 C2678 1.366 . S
C2677 C2679 1.388 . S
C2678 C2677 1.366 . S
C2678 C2682 1.385 . S
C2679 H2654 0.951 . S
C2679 C2677 1.388 . S
C2679 C2680 1.366 . S
C2680 C2679 1.366 . S
C2680 C2681 1.414 . S
C2680 C2683 1.499 . S
C2681 H2655 0.950 . S
C2681 C2680 1.414 . S
C2681 C2682 1.374 . S
C2682 H2656 0.950 . S
C2682 C2678 1.385 . S
C2682 C2681 1.374 . S
C2683 C2680 1.499 . S
C2683 C2684 1.373 . S
C2683 C2685 1.389 . S
C2684 H2657 0.950 . S
C2684 C2670 1.377 . S
C2684 C2683 1.373 . S
C2685 C2669 1.377 . S
C2685 C2683 1.389 . S
C2685 C2686 1.524 . S
C2686 C2685 1.524 . S
C2686 C2687 1.397 . S
C2686 C2691 1.363 . S
C2687 H2658 0.950 . S
C2687 C2686 1.397 . S
C2687 C2688 1.334 . S
C2688 H2659 0.950 . S
C2688 C2687 1.334 . S
C2688 C2689 1.287 . S
C2689 C2688 1.287 . S
C2689 C2690 1.524 . S
C2689 H2692 0.999 . S
C2690 H2660 0.950 . S
C2690 C2689 1.524 . S
C2690 C2691 1.415 . S
C2691 H2661 0.950 . S
C2691 C2686 1.363 . S
C2691 C2690 1.415 . S
H2692 C2689 0.999 . S
H2693 C2674 0.913 . S
H2694 C2712 0.951 1_554 S
H2695 C2714 0.951 . S
H2696 C2716 0.950 . S
H2697 C2717 0.950 . S
H2698 C2719 0.950 . S
H2699 C2722 0.950 . S
H2700 C2723 0.950 . S
H2701 C2725 0.950 . S
H2702 C2726 0.950 . S
H2703 C2727 0.951 1_655 S
H2704 C2729 0.949 1_655 S
H2705 C2731 0.950 . S
H2706 C2732 0.950 . S
H2707 C2734 0.950 . S
H2708 C2737 0.950 . S
H2709 C2738 0.950 . S
H2710 C2740 0.950 . S
H2711 C2741 0.950 . S
C2712 H2694 0.951 1_556 S
C2712 C2713 1.366 . S
C2712 C2714 1.388 . S
C2713 C2712 1.366 . S
C2713 C2717 1.385 . S
C2714 H2695 0.951 . S
C2714 C2712 1.388 . S
C2714 C2715 1.366 . S
C2715 C2714 1.366 . S
C2715 C2716 1.414 . S
C2715 C2718 1.499 . S
C2716 H2696 0.950 . S
C2716 C2715 1.414 . S
C2716 C2717 1.374 . S
C2717 H2697 0.950 . S
C2717 C2713 1.385 . S
C2717 C2716 1.374 . S
C2718 C2715 1.499 . S
C2718 C2719 1.373 . S
C2718 C2720 1.389 . S
C2719 H2698 0.950 . S
C2719 C2718 1.373 . S
C2719 C2735 1.377 . S
C2720 C2718 1.389 . S
C2720 C2721 1.524 . S
C2720 C2734 1.377 . S
C2721 C2720 1.524 . S
C2721 C2722 1.397 1_455 S
C2721 C2726 1.363 . S
C2722 H2699 0.950 . S
C2722 C2721 1.397 1_655 S
C2722 C2723 1.334 1_556 S
C2723 H2700 0.950 . S
C2723 C2722 1.334 1_554 S
C2723 C2724 1.293 . S
C2724 C2723 1.293 . S
C2724 C2725 1.513 1_655 S
C2724 H2743 0.918 . S
C2725 H2701 0.950 . S
C2725 C2724 1.513 1_455 S
C2725 C2726 1.415 1_554 S
C2726 H2702 0.950 . S
C2726 C2721 1.363 . S
C2726 C2725 1.415 1_556 S
C2727 H2703 0.951 1_455 S
C2727 C2728 1.366 . S
C2727 C2729 1.388 . S
C2728 C2727 1.366 . S
C2728 C2732 1.385 . S
C2729 H2704 0.949 1_455 S
C2729 C2727 1.388 . S
C2729 C2730 1.366 . S
C2730 C2729 1.366 . S
C2730 C2731 1.414 . S
C2730 C2733 1.499 . S
C2731 H2705 0.950 . S
C2731 C2730 1.414 . S
C2731 C2732 1.374 . S
C2732 H2706 0.950 . S
C2732 C2728 1.385 . S
C2732 C2731 1.374 . S
C2733 C2730 1.499 . S
C2733 C2734 1.373 . S
C2733 C2735 1.389 . S
C2734 H2707 0.950 . S
C2734 C2720 1.377 . S
C2734 C2733 1.373 . S
C2735 C2719 1.377 . S
C2735 C2733 1.389 . S
C2735 C2736 1.524 . S
C2736 C2735 1.524 . S
C2736 C2737 1.397 . S
C2736 C2741 1.363 . S
C2737 H2708 0.950 . S
C2737 C2736 1.397 . S
C2737 C2738 1.334 . S
C2738 H2709 0.950 . S
C2738 C2737 1.334 . S
C2738 C2739 1.287 . S
C2739 C2738 1.287 . S
C2739 C2740 1.524 . S
C2739 H2742 0.999 . S
C2740 H2710 0.950 . S
C2740 C2739 1.524 . S
C2740 C2741 1.415 . S
C2741 H2711 0.950 . S
C2741 C2736 1.363 . S
C2741 C2740 1.415 . S
H2742 C2739 0.999 . S
H2743 C2724 0.918 . S
H2744 C2762 0.951 . S
H2745 C2764 0.951 . S
H2746 C2766 0.950 . S
H2747 C2767 0.950 . S
H2748 C2769 0.950 . S
H2749 C2772 0.950 . S
H2750 C2773 0.950 . S
H2751 C2775 0.950 . S
H2752 C2776 0.950 . S
H2753 C2777 0.951 . S
H2754 C2779 0.951 . S
H2755 C2781 0.950 . S
H2756 C2782 0.950 . S
H2757 C2784 0.950 . S
H2758 C2787 0.950 . S
H2759 C2788 0.950 . S
H2760 C2790 0.950 . S
H2761 C2791 0.950 . S
C2762 H2744 0.951 . S
C2762 C2763 1.366 . S
C2762 C2764 1.388 . S
C2763 C2762 1.366 . S
C2763 C2767 1.385 . S
C2764 H2745 0.951 . S
C2764 C2762 1.388 . S
C2764 C2765 1.366 . S
C2765 C2764 1.366 . S
C2765 C2766 1.414 . S
C2765 C2768 1.499 . S
C2766 H2746 0.950 . S
C2766 C2765 1.414 . S
C2766 C2767 1.374 . S
C2767 H2747 0.950 . S
C2767 C2763 1.385 . S
C2767 C2766 1.374 . S
C2768 C2765 1.499 . S
C2768 C2769 1.373 . S
C2768 C2770 1.389 . S
C2769 H2748 0.950 . S
C2769 C2768 1.373 . S
C2769 C2785 1.377 . S
C2770 C2768 1.389 . S
C2770 C2771 1.524 . S
C2770 C2784 1.377 . S
C2771 C2770 1.524 . S
C2771 C2772 1.397 . S
C2771 C2776 1.363 . S
C2772 H2749 0.950 . S
C2772 C2771 1.397 . S
C2772 C2773 1.334 . S
C2773 H2750 0.950 . S
C2773 C2772 1.334 . S
C2773 C2774 1.287 . S
C2774 C2773 1.287 . S
C2774 C2775 1.524 . S
C2774 H2793 0.913 . S
C2775 H2751 0.950 . S
C2775 C2774 1.524 . S
C2775 C2776 1.415 . S
C2776 H2752 0.950 . S
C2776 C2771 1.363 . S
C2776 C2775 1.415 . S
C2777 H2753 0.951 . S
C2777 C2778 1.366 . S
C2777 C2779 1.388 . S
C2778 C2777 1.366 . S
C2778 C2782 1.385 . S
C2779 H2754 0.951 . S
C2779 C2777 1.388 . S
C2779 C2780 1.366 . S
C2780 C2779 1.366 . S
C2780 C2781 1.414 . S
C2780 C2783 1.499 . S
C2781 H2755 0.950 . S
C2781 C2780 1.414 . S
C2781 C2782 1.374 . S
C2782 H2756 0.950 . S
C2782 C2778 1.385 . S
C2782 C2781 1.374 . S
C2783 C2780 1.499 . S
C2783 C2784 1.373 . S
C2783 C2785 1.389 . S
C2784 H2757 0.950 . S
C2784 C2770 1.377 . S
C2784 C2783 1.373 . S
C2785 C2769 1.377 . S
C2785 C2783 1.389 . S
C2785 C2786 1.524 . S
C2786 C2785 1.524 . S
C2786 C2787 1.397 . S
C2786 C2791 1.363 . S
C2787 H2758 0.950 . S
C2787 C2786 1.397 . S
C2787 C2788 1.334 . S
C2788 H2759 0.950 . S
C2788 C2787 1.334 . S
C2788 C2789 1.287 . S
C2789 C2788 1.287 . S
C2789 C2790 1.524 . S
C2789 H2792 0.999 . S
C2790 H2760 0.950 . S
C2790 C2789 1.524 . S
C2790 C2791 1.415 . S
C2791 H2761 0.950 . S
C2791 C2786 1.363 . S
C2791 C2790 1.415 . S
H2792 C2789 0.999 . S
H2793 C2774 0.913 . S
H2794 C2812 0.951 . S
H2795 C2814 0.951 . S
H2796 C2816 0.950 . S
H2797 C2817 0.934 1_556 S
H2798 C2819 0.950 . S
H2799 C2822 0.950 . S
H2800 C2823 0.950 . S
H2801 C2825 0.950 . S
H2802 C2826 0.950 . S
H2803 C2827 0.951 . S
H2804 C2829 0.951 . S
H2805 C2831 0.950 . S
H2806 C2832 0.950 . S
H2807 C2834 0.950 . S
H2808 C2837 0.950 . S
H2809 C2838 0.950 . S
H2810 C2840 0.950 . S
H2811 C2841 0.950 . S
C2812 H2794 0.951 . S
C2812 C2813 1.366 . S
C2812 C2814 1.388 . S
C2813 C2812 1.366 . S
C2813 C2817 1.385 . S
C2814 H2795 0.951 . S
C2814 C2812 1.388 . S
C2814 C2815 1.366 . S
C2815 C2814 1.366 . S
C2815 C2816 1.414 . S
C2815 C2818 1.499 . S
C2816 H2796 0.950 . S
C2816 C2815 1.414 . S
C2816 C2817 1.374 . S
C2817 H2797 0.934 1_554 S
C2817 C2813 1.385 . S
C2817 C2816 1.374 . S
C2818 C2815 1.499 . S
C2818 C2819 1.373 . S
C2818 C2820 1.389 . S
C2819 H2798 0.950 . S
C2819 C2818 1.373 . S
C2819 C2835 1.377 . S
C2820 C2818 1.389 . S
C2820 C2821 1.524 . S
C2820 C2834 1.377 . S
C2821 C2820 1.524 . S
C2821 C2822 1.397 . S
C2821 C2826 1.363 . S
C2822 H2799 0.950 . S
C2822 C2821 1.397 . S
C2822 C2823 1.334 . S
C2823 H2800 0.950 . S
C2823 C2822 1.334 . S
C2823 C2824 1.287 . S
C2824 C2823 1.287 . S
C2824 C2825 1.524 . S
C2824 H2843 0.913 . S
C2825 H2801 0.950 . S
C2825 C2824 1.524 . S
C2825 C2826 1.415 . S
C2826 H2802 0.950 . S
C2826 C2821 1.363 . S
C2826 C2825 1.415 . S
C2827 H2803 0.951 . S
C2827 C2828 1.366 . S
C2827 C2829 1.388 . S
C2828 C2827 1.366 . S
C2828 C2832 1.385 . S
C2829 H2804 0.951 . S
C2829 C2827 1.388 . S
C2829 C2830 1.366 . S
C2830 C2829 1.366 . S
C2830 C2831 1.414 . S
C2830 C2833 1.499 . S
C2831 H2805 0.950 . S
C2831 C2830 1.414 . S
C2831 C2832 1.374 . S
C2832 H2806 0.950 . S
C2832 C2828 1.385 . S
C2832 C2831 1.374 . S
C2833 C2830 1.499 . S
C2833 C2834 1.373 . S
C2833 C2835 1.389 . S
C2834 H2807 0.950 . S
C2834 C2820 1.377 . S
C2834 C2833 1.373 . S
C2835 C2819 1.377 . S
C2835 C2833 1.389 . S
C2835 C2836 1.524 . S
C2836 C2835 1.524 . S
C2836 C2837 1.397 . S
C2836 C2841 1.363 . S
C2837 H2808 0.950 . S
C2837 C2836 1.397 . S
C2837 C2838 1.334 . S
C2838 H2809 0.950 . S
C2838 C2837 1.334 . S
C2838 C2839 1.287 . S
C2839 C2838 1.287 . S
C2839 C2840 1.524 . S
C2839 H2842 0.999 . S
C2840 H2810 0.950 . S
C2840 C2839 1.524 . S
C2840 C2841 1.415 . S
C2841 H2811 0.950 . S
C2841 C2836 1.363 . S
C2841 C2840 1.415 . S
H2842 C2839 0.999 . S
H2843 C2824 0.913 . S
H2844 C2862 0.951 . S
H2845 C2864 0.951 . S
H2846 C2866 0.950 . S
H2847 C2867 0.950 . S
H2848 C2869 0.950 . S
H2849 C2872 0.950 . S
H2850 C2873 0.950 . S
H2851 C2875 0.950 . S
H2852 C2876 0.950 . S
H2853 C2877 0.951 . S
H2854 C2879 0.951 . S
H2855 C2881 0.950 . S
H2856 C2882 0.950 . S
H2857 C2884 0.950 . S
H2858 C2887 0.950 . S
H2859 C2888 0.950 . S
H2860 C2890 0.950 . S
H2861 C2891 0.950 . S
C2862 H2844 0.951 . S
C2862 C2863 1.366 . S
C2862 C2864 1.388 . S
C2863 C2862 1.366 . S
C2863 C2867 1.385 . S
C2864 H2845 0.951 . S
C2864 C2862 1.388 . S
C2864 C2865 1.366 . S
C2865 C2864 1.366 . S
C2865 C2866 1.414 . S
C2865 C2868 1.499 . S
C2866 H2846 0.950 . S
C2866 C2865 1.414 . S
C2866 C2867 1.374 . S
C2867 H2847 0.950 . S
C2867 C2863 1.385 . S
C2867 C2866 1.374 . S
C2868 C2865 1.499 . S
C2868 C2869 1.373 . S
C2868 C2870 1.389 . S
C2869 H2848 0.950 . S
C2869 C2868 1.373 . S
C2869 C2885 1.377 . S
C2870 C2868 1.389 . S
C2870 C2871 1.524 . S
C2870 C2884 1.377 . S
C2871 C2870 1.524 . S
C2871 C2872 1.397 . S
C2871 C2876 1.363 . S
C2872 H2849 0.950 . S
C2872 C2871 1.397 . S
C2872 C2873 1.334 . S
C2873 H2850 0.950 . S
C2873 C2872 1.334 . S
C2873 C2874 1.287 . S
C2874 C2873 1.287 . S
C2874 C2875 1.524 . S
C2874 H2893 0.913 . S
C2875 H2851 0.950 . S
C2875 C2874 1.524 . S
C2875 C2876 1.415 . S
C2876 H2852 0.950 . S
C2876 C2871 1.363 . S
C2876 C2875 1.415 . S
C2877 H2853 0.951 . S
C2877 C2878 1.366 . S
C2877 C2879 1.388 . S
C2878 C2877 1.366 . S
C2878 C2882 1.385 . S
C2879 H2854 0.951 . S
C2879 C2877 1.388 . S
C2879 C2880 1.366 . S
C2880 C2879 1.366 . S
C2880 C2881 1.414 . S
C2880 C2883 1.499 . S
C2881 H2855 0.950 . S
C2881 C2880 1.414 . S
C2881 C2882 1.374 . S
C2882 H2856 0.950 . S
C2882 C2878 1.385 . S
C2882 C2881 1.374 . S
C2883 C2880 1.499 . S
C2883 C2884 1.373 . S
C2883 C2885 1.389 . S
C2884 H2857 0.950 . S
C2884 C2870 1.377 . S
C2884 C2883 1.373 . S
C2885 C2869 1.377 . S
C2885 C2883 1.389 . S
C2885 C2886 1.524 . S
C2886 C2885 1.524 . S
C2886 C2887 1.397 . S
C2886 C2891 1.363 . S
C2887 H2858 0.950 . S
C2887 C2886 1.397 . S
C2887 C2888 1.334 . S
C2888 H2859 0.950 . S
C2888 C2887 1.334 . S
C2888 C2889 1.287 . S
C2889 C2888 1.287 . S
C2889 C2890 1.524 . S
C2889 H2892 0.999 . S
C2890 H2860 0.950 . S
C2890 C2889 1.524 . S
C2890 C2891 1.415 . S
C2891 H2861 0.950 . S
C2891 C2886 1.363 . S
C2891 C2890 1.415 . S
H2892 C2889 0.999 . S
H2893 C2874 0.913 . S
H2894 C2912 0.951 . S
H2895 C2914 0.951 . S
H2896 C2916 0.950 . S
H2897 C2917 0.950 . S
H2898 C2919 0.950 . S
H2899 C2922 0.950 . S
H2900 C2923 0.950 . S
H2901 C2925 0.950 . S
H2902 C2926 0.950 . S
H2903 C2927 0.951 . S
H2904 C2929 0.951 . S
H2905 C2931 0.950 . S
H2906 C2932 0.950 . S
H2907 C2934 0.950 . S
H2908 C2937 0.950 . S
H2909 C2938 0.950 . S
H2910 C2940 0.950 . S
H2911 C2941 0.950 . S
C2912 H2894 0.951 . S
C2912 C2913 1.366 . S
C2912 C2914 1.388 . S
C2913 C2912 1.366 . S
C2913 C2917 1.385 . S
C2914 H2895 0.951 . S
C2914 C2912 1.388 . S
C2914 C2915 1.366 . S
C2915 C2914 1.366 . S
C2915 C2916 1.414 . S
C2915 C2918 1.499 . S
C2916 H2896 0.950 . S
C2916 C2915 1.414 . S
C2916 C2917 1.374 . S
C2917 H2897 0.950 . S
C2917 C2913 1.385 . S
C2917 C2916 1.374 . S
C2918 C2915 1.499 . S
C2918 C2919 1.373 . S
C2918 C2920 1.389 . S
C2919 H2898 0.950 . S
C2919 C2918 1.373 . S
C2919 C2935 1.377 . S
C2920 C2918 1.389 . S
C2920 C2921 1.524 . S
C2920 C2934 1.377 . S
C2921 C2920 1.524 . S
C2921 C2922 1.397 . S
C2921 C2926 1.363 . S
C2922 H2899 0.950 . S
C2922 C2921 1.397 . S
C2922 C2923 1.334 . S
C2923 H2900 0.950 . S
C2923 C2922 1.334 . S
C2923 C2924 1.287 . S
C2924 C2923 1.287 . S
C2924 C2925 1.524 . S
C2924 H2943 0.913 . S
C2925 H2901 0.950 . S
C2925 C2924 1.524 . S
C2925 C2926 1.415 . S
C2926 H2902 0.950 . S
C2926 C2921 1.363 . S
C2926 C2925 1.415 . S
C2927 H2903 0.951 . S
C2927 C2928 1.366 . S
C2927 C2929 1.388 . S
C2928 C2927 1.366 . S
C2928 C2932 1.385 . S
C2929 H2904 0.951 . S
C2929 C2927 1.388 . S
C2929 C2930 1.366 . S
C2930 C2929 1.366 . S
C2930 C2931 1.414 . S
C2930 C2933 1.499 . S
C2931 H2905 0.950 . S
C2931 C2930 1.414 . S
C2931 C2932 1.374 . S
C2932 H2906 0.950 . S
C2932 C2928 1.385 . S
C2932 C2931 1.374 . S
C2933 C2930 1.499 . S
C2933 C2934 1.373 . S
C2933 C2935 1.389 . S
C2934 H2907 0.950 . S
C2934 C2920 1.377 . S
C2934 C2933 1.373 . S
C2935 C2919 1.377 . S
C2935 C2933 1.389 . S
C2935 C2936 1.524 . S
C2936 C2935 1.524 . S
C2936 C2937 1.397 . S
C2936 C2941 1.363 . S
C2937 H2908 0.950 . S
C2937 C2936 1.397 . S
C2937 C2938 1.334 . S
C2938 H2909 0.950 . S
C2938 C2937 1.334 . S
C2938 C2939 1.287 . S
C2939 C2938 1.287 . S
C2939 C2940 1.524 . S
C2939 H2942 0.999 . S
C2940 H2910 0.950 . S
C2940 C2939 1.524 . S
C2940 C2941 1.415 . S
C2941 H2911 0.950 . S
C2941 C2936 1.363 . S
C2941 C2940 1.415 . S
H2942 C2939 0.999 . S
H2943 C2924 0.913 . S
H2944 C2962 0.951 . S
H2945 C2964 0.951 . S
H2946 C2966 0.950 . S
H2947 C2967 0.950 . S
H2948 C2969 0.950 . S
H2949 C2972 0.950 . S
H2950 C2973 0.950 . S
H2951 C2975 0.950 . S
H2952 C2976 0.950 . S
H2953 C2977 0.951 . S
H2954 C2979 0.951 . S
H2955 C2981 0.950 . S
H2956 C2982 0.950 . S
H2957 C2984 0.950 . S
H2958 C2987 0.950 . S
H2959 C2988 0.950 . S
H2960 C2990 0.950 . S
H2961 C2991 0.950 . S
C2962 H2944 0.951 . S
C2962 C2963 1.366 . S
C2962 C2964 1.388 . S
C2963 C2962 1.366 . S
C2963 C2967 1.385 . S
C2964 H2945 0.951 . S
C2964 C2962 1.388 . S
C2964 C2965 1.366 . S
C2965 C2964 1.366 . S
C2965 C2966 1.414 . S
C2965 C2968 1.499 . S
C2966 H2946 0.950 . S
C2966 C2965 1.414 . S
C2966 C2967 1.374 . S
C2967 H2947 0.950 . S
C2967 C2963 1.385 . S
C2967 C2966 1.374 . S
C2968 C2965 1.499 . S
C2968 C2969 1.373 . S
C2968 C2970 1.389 . S
C2969 H2948 0.950 . S
C2969 C2968 1.373 . S
C2969 C2985 1.377 . S
C2970 C2968 1.389 . S
C2970 C2971 1.524 . S
C2970 C2984 1.377 . S
C2971 C2970 1.524 . S
C2971 C2972 1.397 . S
C2971 C2976 1.363 . S
C2972 H2949 0.950 . S
C2972 C2971 1.397 . S
C2972 C2973 1.334 . S
C2973 H2950 0.950 . S
C2973 C2972 1.334 . S
C2973 C2974 1.287 . S
C2974 C2973 1.287 . S
C2974 C2975 1.524 . S
C2974 H2993 0.913 . S
C2975 H2951 0.950 . S
C2975 C2974 1.524 . S
C2975 C2976 1.415 . S
C2976 H2952 0.950 . S
C2976 C2971 1.363 . S
C2976 C2975 1.415 . S
C2977 H2953 0.951 . S
C2977 C2978 1.366 . S
C2977 C2979 1.388 . S
C2978 C2977 1.366 . S
C2978 C2982 1.385 . S
C2979 H2954 0.951 . S
C2979 C2977 1.388 . S
C2979 C2980 1.366 . S
C2980 C2979 1.366 . S
C2980 C2981 1.414 . S
C2980 C2983 1.499 . S
C2981 H2955 0.950 . S
C2981 C2980 1.414 . S
C2981 C2982 1.374 . S
C2982 H2956 0.950 . S
C2982 C2978 1.385 . S
C2982 C2981 1.374 . S
C2983 C2980 1.499 . S
C2983 C2984 1.373 . S
C2983 C2985 1.389 . S
C2984 H2957 0.950 . S
C2984 C2970 1.377 . S
C2984 C2983 1.373 . S
C2985 C2969 1.377 . S
C2985 C2983 1.389 . S
C2985 C2986 1.524 . S
C2986 C2985 1.524 . S
C2986 C2987 1.397 . S
C2986 C2991 1.363 . S
C2987 H2958 0.950 . S
C2987 C2986 1.397 . S
C2987 C2988 1.334 . S
C2988 H2959 0.950 . S
C2988 C2987 1.334 . S
C2988 C2989 1.287 . S
C2989 C2988 1.287 . S
C2989 C2990 1.524 . S
C2989 H2992 0.999 . S
C2990 H2960 0.950 . S
C2990 C2989 1.524 . S
C2990 C2991 1.415 . S
C2991 H2961 0.950 . S
C2991 C2986 1.363 . S
C2991 C2990 1.415 . S
H2992 C2989 0.999 . S
H2993 C2974 0.913 . S
H2994 C3012 0.951 . S
H2995 C3014 0.951 . S
H2996 C3016 0.950 . S
H2997 C3017 0.950 . S
H2998 C3019 0.950 . S
H2999 C3022 0.950 . S
H3000 C3023 0.950 . S
H3001 C3025 0.950 . S
H3002 C3026 0.950 . S
H3003 C3027 0.951 . S
H3004 C3029 0.951 . S
H3005 C3031 0.950 . S
H3006 C3032 0.950 . S
H3007 C3034 0.950 . S
H3008 C3037 0.950 . S
H3009 C3038 0.950 . S
H3010 C3040 0.950 . S
H3011 C3041 0.950 . S
C3012 H2994 0.951 . S
C3012 C3013 1.366 . S
C3012 C3014 1.388 . S
C3013 C3012 1.366 . S
C3013 C3017 1.385 . S
C3014 H2995 0.951 . S
C3014 C3012 1.388 . S
C3014 C3015 1.366 . S
C3015 C3014 1.366 . S
C3015 C3016 1.414 . S
C3015 C3018 1.499 . S
C3016 H2996 0.950 . S
C3016 C3015 1.414 . S
C3016 C3017 1.374 . S
C3017 H2997 0.950 . S
C3017 C3013 1.385 . S
C3017 C3016 1.374 . S
C3018 C3015 1.499 . S
C3018 C3019 1.373 . S
C3018 C3020 1.389 . S
C3019 H2998 0.950 . S
C3019 C3018 1.373 . S
C3019 C3035 1.377 . S
C3020 C3018 1.389 . S
C3020 C3021 1.524 . S
C3020 C3034 1.377 . S
C3021 C3020 1.524 . S
C3021 C3022 1.397 . S
C3021 C3026 1.363 . S
C3022 H2999 0.950 . S
C3022 C3021 1.397 . S
C3022 C3023 1.334 . S
C3023 H3000 0.950 . S
C3023 C3022 1.334 . S
C3023 C3024 1.287 . S
C3024 C3023 1.287 . S
C3024 C3025 1.524 . S
C3024 H3043 0.913 . S
C3025 H3001 0.950 . S
C3025 C3024 1.524 . S
C3025 C3026 1.415 . S
C3026 H3002 0.950 . S
C3026 C3021 1.363 . S
C3026 C3025 1.415 . S
C3027 H3003 0.951 . S
C3027 C3028 1.366 . S
C3027 C3029 1.388 . S
C3028 C3027 1.366 . S
C3028 C3032 1.385 . S
C3029 H3004 0.951 . S
C3029 C3027 1.388 . S
C3029 C3030 1.366 . S
C3030 C3029 1.366 . S
C3030 C3031 1.414 . S
C3030 C3033 1.499 . S
C3031 H3005 0.950 . S
C3031 C3030 1.414 . S
C3031 C3032 1.374 . S
C3032 H3006 0.950 . S
C3032 C3028 1.385 . S
C3032 C3031 1.374 . S
C3033 C3030 1.499 . S
C3033 C3034 1.373 . S
C3033 C3035 1.389 . S
C3034 H3007 0.950 . S
C3034 C3020 1.377 . S
C3034 C3033 1.373 . S
C3035 C3019 1.377 . S
C3035 C3033 1.389 . S
C3035 C3036 1.524 . S
C3036 C3035 1.524 . S
C3036 C3037 1.397 . S
C3036 C3041 1.363 . S
C3037 H3008 0.950 . S
C3037 C3036 1.397 . S
C3037 C3038 1.334 . S
C3038 H3009 0.950 . S
C3038 C3037 1.334 . S
C3038 C3039 1.287 . S
C3039 C3038 1.287 . S
C3039 C3040 1.524 . S
C3039 H3042 0.999 . S
C3040 H3010 0.950 . S
C3040 C3039 1.524 . S
C3040 C3041 1.415 . S
C3041 H3011 0.950 . S
C3041 C3036 1.363 . S
C3041 C3040 1.415 . S
H3042 C3039 0.999 . S
H3043 C3024 0.913 . S
H3044 C3062 0.951 . S
H3045 C3064 0.951 . S
H3046 C3066 0.950 . S
H3047 C3067 0.950 . S
H3048 C3069 0.950 . S
H3049 C3072 0.950 . S
H3050 C3073 0.950 . S
H3051 C3075 0.950 . S
H3052 C3076 0.950 . S
H3053 C3077 0.951 . S
H3054 C3079 0.951 . S
H3055 C3081 0.950 . S
H3056 C3082 0.950 . S
H3057 C3084 0.950 . S
H3058 C3087 0.950 . S
H3059 C3088 0.950 . S
H3060 C3090 0.950 . S
H3061 C3091 0.950 . S
C3062 H3044 0.951 . S
C3062 C3063 1.366 . S
C3062 C3064 1.388 . S
C3063 C3062 1.366 . S
C3063 C3067 1.385 . S
C3064 H3045 0.951 . S
C3064 C3062 1.388 . S
C3064 C3065 1.366 . S
C3065 C3064 1.366 . S
C3065 C3066 1.414 . S
C3065 C3068 1.499 . S
C3066 H3046 0.950 . S
C3066 C3065 1.414 . S
C3066 C3067 1.374 . S
C3067 H3047 0.950 . S
C3067 C3063 1.385 . S
C3067 C3066 1.374 . S
C3068 C3065 1.499 . S
C3068 C3069 1.373 . S
C3068 C3070 1.389 . S
C3069 H3048 0.950 . S
C3069 C3068 1.373 . S
C3069 C3085 1.377 . S
C3070 C3068 1.389 . S
C3070 C3071 1.524 . S
C3070 C3084 1.377 . S
C3071 C3070 1.524 . S
C3071 C3072 1.397 . S
C3071 C3076 1.363 . S
C3072 H3049 0.950 . S
C3072 C3071 1.397 . S
C3072 C3073 1.334 . S
C3073 H3050 0.950 . S
C3073 C3072 1.334 . S
C3073 C3074 1.287 . S
C3074 C3073 1.287 . S
C3074 C3075 1.524 . S
C3074 H3093 0.913 . S
C3075 H3051 0.950 . S
C3075 C3074 1.524 . S
C3075 C3076 1.415 . S
C3076 H3052 0.950 . S
C3076 C3071 1.363 . S
C3076 C3075 1.415 . S
C3077 H3053 0.951 . S
C3077 C3078 1.366 . S
C3077 C3079 1.388 . S
C3078 C3077 1.366 . S
C3078 C3082 1.385 . S
C3079 H3054 0.951 . S
C3079 C3077 1.388 . S
C3079 C3080 1.366 . S
C3080 C3079 1.366 . S
C3080 C3081 1.414 . S
C3080 C3083 1.499 . S
C3081 H3055 0.950 . S
C3081 C3080 1.414 . S
C3081 C3082 1.374 . S
C3082 H3056 0.950 . S
C3082 C3078 1.385 . S
C3082 C3081 1.374 . S
C3083 C3080 1.499 . S
C3083 C3084 1.373 . S
C3083 C3085 1.389 . S
C3084 H3057 0.950 . S
C3084 C3070 1.377 . S
C3084 C3083 1.373 . S
C3085 C3069 1.377 . S
C3085 C3083 1.389 . S
C3085 C3086 1.524 . S
C3086 C3085 1.524 . S
C3086 C3087 1.397 . S
C3086 C3091 1.363 . S
C3087 H3058 0.950 . S
C3087 C3086 1.397 . S
C3087 C3088 1.334 . S
C3088 H3059 0.950 . S
C3088 C3087 1.334 . S
C3088 C3089 1.287 . S
C3089 C3088 1.287 . S
C3089 C3090 1.524 . S
C3089 H3092 0.999 . S
C3090 H3060 0.950 . S
C3090 C3089 1.524 . S
C3090 C3091 1.415 . S
C3091 H3061 0.950 . S
C3091 C3086 1.363 . S
C3091 C3090 1.415 . S
H3092 C3089 0.999 . S
H3093 C3074 0.913 . S
H3094 C3112 0.951 . S
H3095 C3114 0.951 . S
H3096 C3116 0.950 . S
H3097 C3117 0.950 . S
H3098 C3119 0.950 . S
H3099 C3122 0.950 . S
H3100 C3123 0.950 . S
H3101 C3125 0.950 . S
H3102 C3126 0.950 . S
H3103 C3127 0.951 . S
H3104 C3129 0.951 . S
H3105 C3131 0.950 . S
H3106 C3132 0.950 . S
H3107 C3134 0.950 . S
H3108 C3137 0.950 . S
H3109 C3138 0.950 . S
H3110 C3140 0.950 . S
H3111 C3141 0.950 . S
C3112 H3094 0.951 . S
C3112 C3113 1.366 . S
C3112 C3114 1.388 . S
C3113 C3112 1.366 . S
C3113 C3117 1.385 . S
C3114 H3095 0.951 . S
C3114 C3112 1.388 . S
C3114 C3115 1.366 . S
C3115 C3114 1.366 . S
C3115 C3116 1.414 . S
C3115 C3118 1.499 . S
C3116 H3096 0.950 . S
C3116 C3115 1.414 . S
C3116 C3117 1.374 . S
C3117 H3097 0.950 . S
C3117 C3113 1.385 . S
C3117 C3116 1.374 . S
C3118 C3115 1.499 . S
C3118 C3119 1.373 . S
C3118 C3120 1.389 . S
C3119 H3098 0.950 . S
C3119 C3118 1.373 . S
C3119 C3135 1.377 . S
C3120 C3118 1.389 . S
C3120 C3121 1.524 . S
C3120 C3134 1.377 . S
C3121 C3120 1.524 . S
C3121 C3122 1.397 . S
C3121 C3126 1.363 . S
C3122 H3099 0.950 . S
C3122 C3121 1.397 . S
C3122 C3123 1.334 . S
C3123 H3100 0.950 . S
C3123 C3122 1.334 . S
C3123 C3124 1.287 . S
C3124 C3123 1.287 . S
C3124 C3125 1.524 . S
C3124 H3143 0.913 . S
C3125 H3101 0.950 . S
C3125 C3124 1.524 . S
C3125 C3126 1.415 . S
C3126 H3102 0.950 . S
C3126 C3121 1.363 . S
C3126 C3125 1.415 . S
C3127 H3103 0.951 . S
C3127 C3128 1.366 . S
C3127 C3129 1.388 . S
C3128 C3127 1.366 . S
C3128 C3132 1.385 . S
C3129 H3104 0.951 . S
C3129 C3127 1.388 . S
C3129 C3130 1.366 . S
C3130 C3129 1.366 . S
C3130 C3131 1.414 . S
C3130 C3133 1.499 . S
C3131 H3105 0.950 . S
C3131 C3130 1.414 . S
C3131 C3132 1.374 . S
C3132 H3106 0.950 . S
C3132 C3128 1.385 . S
C3132 C3131 1.374 . S
C3133 C3130 1.499 . S
C3133 C3134 1.373 . S
C3133 C3135 1.389 . S
C3134 H3107 0.950 . S
C3134 C3120 1.377 . S
C3134 C3133 1.373 . S
C3135 C3119 1.377 . S
C3135 C3133 1.389 . S
C3135 C3136 1.524 . S
C3136 C3135 1.524 . S
C3136 C3137 1.397 . S
C3136 C3141 1.363 . S
C3137 H3108 0.950 . S
C3137 C3136 1.397 . S
C3137 C3138 1.334 . S
C3138 H3109 0.950 . S
C3138 C3137 1.334 . S
C3138 C3139 1.287 . S
C3139 C3138 1.287 . S
C3139 C3140 1.524 . S
C3139 H3142 0.999 . S
C3140 H3110 0.950 . S
C3140 C3139 1.524 . S
C3140 C3141 1.415 . S
C3141 H3111 0.950 . S
C3141 C3136 1.363 . S
C3141 C3140 1.415 . S
H3142 C3139 0.999 . S
H3143 C3124 0.913 . S
H3144 C3162 0.951 . S
H3145 C3164 0.951 . S
H3146 C3166 0.950 . S
H3147 C3167 0.950 . S
H3148 C3169 0.950 . S
H3149 C3172 0.950 . S
H3150 C3173 0.950 . S
H3151 C3175 0.950 . S
H3152 C3176 0.950 1_556 S
H3153 C3177 0.929 1_554 S
H3154 C3179 0.951 . S
H3155 C3181 0.950 . S
H3156 C3182 0.950 . S
H3157 C3184 0.932 1_554 S
H3158 C3187 0.950 . S
H3159 C3188 0.950 . S
H3160 C3190 0.950 . S
H3161 C3191 0.950 . S
C3162 H3144 0.951 . S
C3162 C3163 1.366 . S
C3162 C3164 1.388 . S
C3163 C3162 1.366 . S
C3163 C3167 1.385 . S
C3164 H3145 0.951 . S
C3164 C3162 1.388 . S
C3164 C3165 1.366 . S
C3165 C3164 1.366 . S
C3165 C3166 1.414 . S
C3165 C3168 1.499 . S
C3166 H3146 0.950 . S
C3166 C3165 1.414 . S
C3166 C3167 1.374 . S
C3167 H3147 0.950 . S
C3167 C3163 1.385 . S
C3167 C3166 1.374 . S
C3168 C3165 1.499 . S
C3168 C3169 1.373 . S
C3168 C3170 1.389 . S
C3169 H3148 0.950 . S
C3169 C3168 1.373 . S
C3169 C3185 1.377 . S
C3170 C3168 1.389 . S
C3170 C3171 1.524 1_556 S
C3170 C3184 1.377 . S
C3171 C3170 1.524 1_554 S
C3171 C3172 1.397 . S
C3171 C3176 1.363 . S
C3172 H3149 0.950 . S
C3172 C3171 1.397 . S
C3172 C3173 1.334 . S
C3173 H3150 0.950 . S
C3173 C3172 1.334 . S
C3173 C3174 1.287 . S
C3174 C3173 1.287 . S
C3174 C3175 1.524 . S
C3174 H3193 0.913 . S
C3175 H3151 0.950 . S
C3175 C3174 1.524 . S
C3175 C3176 1.415 . S
C3176 H3152 0.950 1_554 S
C3176 C3171 1.363 . S
C3176 C3175 1.415 . S
C3177 H3153 0.929 1_556 S
C3177 C3178 1.382 . S
C3177 C3179 1.399 . S
C3178 C3177 1.382 . S
C3178 C3182 1.385 . S
C3179 H3154 0.951 . S
C3179 C3177 1.399 . S
C3179 C3180 1.366 . S
C3180 C3179 1.366 . S
C3180 C3181 1.414 . S
C3180 C3183 1.499 . S
C3181 H3155 0.950 . S
C3181 C3180 1.414 . S
C3181 C3182 1.374 . S
C3182 H3156 0.950 . S
C3182 C3178 1.385 . S
C3182 C3181 1.374 . S
C3183 C3180 1.499 . S
C3183 C3184 1.373 . S
C3183 C3185 1.389 . S
C3184 H3157 0.932 1_556 S
C3184 C3170 1.377 . S
C3184 C3183 1.373 . S
C3185 C3169 1.377 . S
C3185 C3183 1.389 . S
C3185 C3186 1.524 . S
C3186 C3185 1.524 . S
C3186 C3187 1.397 . S
C3186 C3191 1.363 . S
C3187 H3158 0.950 . S
C3187 C3186 1.397 . S
C3187 C3188 1.334 . S
C3188 H3159 0.950 . S
C3188 C3187 1.334 . S
C3188 C3189 1.287 . S
C3189 C3188 1.287 . S
C3189 C3190 1.524 . S
C3189 H3192 0.999 . S
C3190 H3160 0.950 . S
C3190 C3189 1.524 . S
C3190 C3191 1.415 . S
C3191 H3161 0.950 . S
C3191 C3186 1.363 . S
C3191 C3190 1.415 . S
H3192 C3189 0.999 . S
H3193 C3174 0.913 . S
H3194 C3212 0.951 . S
H3195 C3214 0.951 . S
H3196 C3216 0.950 . S
H3197 C3217 0.950 . S
H3198 C3219 0.950 . S
H3199 C3222 0.950 . S
H3200 C3223 0.950 . S
H3201 C3225 0.950 . S
H3202 C3226 0.950 . S
H3203 C3227 0.951 . S
H3204 C3229 0.951 . S
H3205 C3231 0.950 . S
H3206 C3232 0.950 . S
H3207 C3234 0.950 . S
H3208 C3237 0.950 . S
H3209 C3238 0.950 . S
H3210 C3240 0.950 . S
H3211 C3241 0.950 . S
C3212 H3194 0.951 . S
C3212 C3213 1.366 . S
C3212 C3214 1.388 . S
C3213 C3212 1.366 . S
C3213 C3217 1.385 . S
C3214 H3195 0.951 . S
C3214 C3212 1.388 . S
C3214 C3215 1.366 . S
C3215 C3214 1.366 . S
C3215 C3216 1.414 . S
C3215 C3218 1.499 . S
C3216 H3196 0.950 . S
C3216 C3215 1.414 . S
C3216 C3217 1.374 . S
C3217 H3197 0.950 . S
C3217 C3213 1.385 . S
C3217 C3216 1.374 . S
C3218 C3215 1.499 . S
C3218 C3219 1.373 . S
C3218 C3220 1.389 . S
C3219 H3198 0.950 . S
C3219 C3218 1.373 . S
C3219 C3235 1.377 . S
C3220 C3218 1.389 . S
C3220 C3221 1.524 . S
C3220 C3234 1.377 . S
C3221 C3220 1.524 . S
C3221 C3222 1.397 . S
C3221 C3226 1.363 . S
C3222 H3199 0.950 . S
C3222 C3221 1.397 . S
C3222 C3223 1.334 . S
C3223 H3200 0.950 . S
C3223 C3222 1.334 . S
C3223 C3224 1.287 . S
C3224 C3223 1.287 . S
C3224 C3225 1.524 . S
C3224 H3243 0.913 . S
C3225 H3201 0.950 . S
C3225 C3224 1.524 . S
C3225 C3226 1.415 . S
C3226 H3202 0.950 . S
C3226 C3221 1.363 . S
C3226 C3225 1.415 . S
C3227 H3203 0.951 . S
C3227 C3228 1.366 . S
C3227 C3229 1.388 . S
C3228 C3227 1.366 . S
C3228 C3232 1.385 . S
C3229 H3204 0.951 . S
C3229 C3227 1.388 . S
C3229 C3230 1.366 . S
C3230 C3229 1.366 . S
C3230 C3231 1.414 . S
C3230 C3233 1.499 . S
C3231 H3205 0.950 . S
C3231 C3230 1.414 . S
C3231 C3232 1.374 . S
C3232 H3206 0.950 . S
C3232 C3228 1.385 . S
C3232 C3231 1.374 . S
C3233 C3230 1.499 . S
C3233 C3234 1.373 . S
C3233 C3235 1.389 . S
C3234 H3207 0.950 . S
C3234 C3220 1.377 . S
C3234 C3233 1.373 . S
C3235 C3219 1.377 . S
C3235 C3233 1.389 . S
C3235 C3236 1.524 . S
C3236 C3235 1.524 . S
C3236 C3237 1.397 . S
C3236 C3241 1.363 . S
C3237 H3208 0.950 . S
C3237 C3236 1.397 . S
C3237 C3238 1.334 . S
C3238 H3209 0.950 . S
C3238 C3237 1.334 . S
C3238 C3239 1.287 . S
C3239 C3238 1.287 . S
C3239 C3240 1.524 . S
C3239 H3242 0.999 . S
C3240 H3210 0.950 . S
C3240 C3239 1.524 . S
C3240 C3241 1.415 . S
C3241 H3211 0.950 . S
C3241 C3236 1.363 . S
C3241 C3240 1.415 . S
H3242 C3239 0.999 . S
H3243 C3224 0.913 . S
H3244 C3262 0.951 1_556 S
H3245 C3264 0.951 1_556 S
H3246 C3266 0.950 . S
H3247 C3267 0.950 . S
H3248 C3269 0.950 . S
H3249 C3272 0.950 . S
H3250 C3273 0.950 . S
H3251 C3275 0.950 . S
H3252 C3276 0.950 . S
H3253 C3277 0.951 . S
H3254 C3279 0.951 . S
H3255 C3281 0.950 . S
H3256 C3282 0.950 . S
H3257 C3284 0.950 1_556 S
H3258 C3287 0.942 . S
H3259 C3288 0.950 . S
H3260 C3290 0.950 . S
H3261 C3291 0.950 . S
C3262 H3244 0.951 1_554 S
C3262 C3263 1.366 . S
C3262 C3264 1.388 . S
C3263 C3262 1.366 . S
C3263 C3267 1.385 . S
C3264 H3245 0.951 1_554 S
C3264 C3262 1.388 . S
C3264 C3265 1.366 . S
C3265 C3264 1.366 . S
C3265 C3266 1.414 . S
C3265 C3268 1.499 . S
C3266 H3246 0.950 . S
C3266 C3265 1.414 . S
C3266 C3267 1.374 . S
C3267 H3247 0.950 . S
C3267 C3263 1.385 . S
C3267 C3266 1.374 . S
C3268 C3265 1.499 . S
C3268 C3269 1.373 . S
C3268 C3270 1.389 . S
C3269 H3248 0.950 . S
C3269 C3268 1.373 . S
C3269 C3285 1.377 . S
C3270 C3268 1.389 . S
C3270 C3271 1.524 . S
C3270 C3284 1.377 . S
C3271 C3270 1.524 . S
C3271 C3272 1.397 . S
C3271 C3276 1.363 1_554 S
C3272 H3249 0.950 . S
C3272 C3271 1.397 . S
C3272 C3273 1.334 . S
C3273 H3250 0.950 . S
C3273 C3272 1.334 . S
C3273 C3274 1.287 1_554 S
C3274 C3273 1.287 1_556 S
C3274 C3275 1.524 . S
C3274 H3293 0.913 . S
C3275 H3251 0.950 . S
C3275 C3274 1.524 . S
C3275 C3276 1.415 . S
C3276 H3252 0.950 . S
C3276 C3271 1.363 1_556 S
C3276 C3275 1.415 . S
C3277 H3253 0.951 . S
C3277 C3278 1.366 . S
C3277 C3279 1.388 . S
C3278 C3277 1.366 . S
C3278 C3282 1.385 1_554 S
C3279 H3254 0.951 . S
C3279 C3277 1.388 . S
C3279 C3280 1.366 . S
C3280 C3279 1.366 . S
C3280 C3281 1.414 1_554 S
C3280 C3283 1.499 . S
C3281 H3255 0.950 . S
C3281 C3280 1.414 1_556 S
C3281 C3282 1.374 . S
C3282 H3256 0.950 . S
C3282 C3278 1.385 1_556 S
C3282 C3281 1.374 . S
C3283 C3280 1.499 . S
C3283 C3284 1.373 . S
C3283 C3285 1.389 . S
C3284 H3257 0.950 1_554 S
C3284 C3270 1.377 . S
C3284 C3283 1.373 . S
C3285 C3269 1.377 . S
C3285 C3283 1.389 . S
C3285 C3286 1.524 . S
C3286 C3285 1.524 . S
C3286 C3287 1.397 . S
C3286 C3291 1.363 . S
C3287 H3258 0.942 . S
C3287 C3286 1.397 . S
C3287 C3288 1.334 . S
C3288 H3259 0.950 . S
C3288 C3287 1.334 . S
C3288 C3289 1.287 . S
C3289 C3288 1.287 . S
C3289 C3290 1.524 . S
C3289 H3292 0.999 . S
C3290 H3260 0.950 . S
C3290 C3289 1.524 . S
C3290 C3291 1.415 . S
C3291 H3261 0.950 . S
C3291 C3286 1.363 . S
C3291 C3290 1.415 . S
H3292 C3289 0.999 . S
H3293 C3274 0.913 . S
H3294 C3312 0.951 1_545 S
H3295 C3314 0.951 . S
H3296 C3316 0.950 . S
H3297 C3317 0.950 . S
H3298 C3319 0.950 . S
H3299 C3322 0.950 . S
H3300 C3323 0.950 . S
H3301 C3325 0.950 1_554 S
H3302 C3326 0.950 . S
H3303 C3327 0.951 . S
H3304 C3329 0.951 . S
H3305 C3331 0.950 . S
H3306 C3332 0.950 . S
H3307 C3334 0.950 . S
H3308 C3337 0.950 . S
H3309 C3338 0.950 . S
H3310 C3340 0.950 . S
H3311 C3341 0.950 . S
C3312 H3294 0.951 1_565 S
C3312 C3313 1.366 . S
C3312 C3314 1.388 . S
C3313 C3312 1.366 . S
C3313 C3317 1.385 . S
C3314 H3295 0.951 . S
C3314 C3312 1.388 . S
C3314 C3315 1.366 . S
C3315 C3314 1.366 . S
C3315 C3316 1.414 . S
C3315 C3318 1.499 . S
C3316 H3296 0.950 . S
C3316 C3315 1.414 . S
C3316 C3317 1.374 . S
C3317 H3297 0.950 . S
C3317 C3313 1.385 . S
C3317 C3316 1.374 . S
C3318 C3315 1.499 . S
C3318 C3319 1.373 . S
C3318 C3320 1.389 . S
C3319 H3298 0.950 . S
C3319 C3318 1.373 . S
C3319 C3335 1.377 . S
C3320 C3318 1.389 . S
C3320 C3321 1.524 . S
C3320 C3334 1.377 . S
C3321 C3320 1.524 . S
C3321 C3322 1.397 1_554 S
C3321 C3326 1.363 . S
C3322 H3299 0.950 . S
C3322 C3321 1.397 1_556 S
C3322 C3323 1.334 . S
C3323 H3300 0.950 . S
C3323 C3322 1.334 . S
C3323 C3324 1.287 1_565 S
C3324 C3323 1.287 1_545 S
C3324 C3325 1.524 . S
C3324 H3343 0.913 . S
C3325 H3301 0.950 1_556 S
C3325 C3324 1.524 . S
C3325 C3326 1.415 1_546 S
C3326 H3302 0.950 . S
C3326 C3321 1.363 . S
C3326 C3325 1.415 1_564 S
C3327 H3303 0.951 . S
C3327 C3328 1.366 . S
C3327 C3329 1.388 . S
C3328 C3327 1.366 . S
C3328 C3332 1.385 . S
C3329 H3304 0.951 . S
C3329 C3327 1.388 . S
C3329 C3330 1.366 . S
C3330 C3329 1.366 . S
C3330 C3331 1.414 . S
C3330 C3333 1.499 . S
C3331 H3305 0.950 . S
C3331 C3330 1.414 . S
C3331 C3332 1.374 . S
C3332 H3306 0.950 . S
C3332 C3328 1.385 . S
C3332 C3331 1.374 . S
C3333 C3330 1.499 . S
C3333 C3334 1.373 . S
C3333 C3335 1.389 . S
C3334 H3307 0.950 . S
C3334 C3320 1.377 . S
C3334 C3333 1.373 . S
C3335 C3319 1.377 . S
C3335 C3333 1.389 . S
C3335 C3336 1.524 . S
C3336 C3335 1.524 . S
C3336 C3337 1.397 . S
C3336 C3341 1.363 . S
C3337 H3308 0.950 . S
C3337 C3336 1.397 . S
C3337 C3338 1.334 . S
C3338 H3309 0.950 . S
C3338 C3337 1.334 . S
C3338 C3339 1.287 . S
C3339 C3338 1.287 . S
C3339 C3340 1.524 . S
C3339 H3342 0.999 . S
C3340 H3310 0.950 . S
C3340 C3339 1.524 . S
C3340 C3341 1.415 . S
C3341 H3311 0.950 . S
C3341 C3336 1.363 . S
C3341 C3340 1.415 . S
H3342 C3339 0.999 . S
H3343 C3324 0.913 . S
C978 C514 1.382 . S
C963 C177 1.339 . S
C1028 C562 1.673 . S
C1013 C209 1.708 . S
C1063 C253 1.339 . S
C1078 C598 1.291 . S
C1128 C634 1.609 . S
C1113 C157 1.621 1_655 S
C1178 C660 1.455 . S
C1163 C343 1.458 . S
C1228 C696 1.588 . S
C1213 C401 1.554 . S
C1263 C369 1.491 . S
C1278 C731 1.499 . S
C1328 C768 1.620 1_565 S
C1313 C317 1.602 . S
C1363 C375 1.433 . S
C1378 C802 1.425 . S
C1428 C850 1.617 . S
C1413 C305 1.651 . S
C1463 C349 1.438 . S
C1478 C803 1.445 . S
C1528 C840 1.637 . S
C1513 C413 1.592 . S
C1563 C241 1.405 . S
C1578 C886 1.356 . S
C1613 C151 1.581 . S
C1628 C875 1.613 . S
C1663 C189 1.413 . S
C1678 C876 1.478 . S
C1713 C215 1.644 . S
C1728 C874 1.657 . S
C1763 C113 1.411 . S
C1778 C622 1.401 . S
C1813 C471 1.345 . S
C1828 C623 1.405 . S
C1878 C526 1.631 . S
C1863 C509 1.654 1_565 S
C1928 C551 1.442 . S
C1913 C279 1.434 . S
C1963 C145 1.569 . S
C1978 C658 1.598 . S
C2028 C766 1.499 . S
C2013 C381 1.503 . S
C2078 C659 1.630 . S
C2063 C311 1.614 . S
C2128 C732 1.624 . S
C2113 C407 1.586 . S
C2178 C730 1.382 . S
C2163 C465 1.339 . S
C2213 C497 1.707 . S
C2228 C778 1.674 . S
C2263 C285 1.340 . S
C2278 C670 1.290 . S
C2328 C706 1.609 . S
C2313 C445 1.622 . S
C2363 C119 1.458 . S
C2378 C588 1.454 . S
C2428 C624 1.588 . S
C2413 C17 1.554 1_655 S
C2478 C515 1.499 . S
C2463 C49 1.491 . S
C2528 C552 1.626 . S
C2513 C93 1.602 . S
C2563 C55 1.433 . S
C2578 C838 1.426 . S
C2613 C81 1.651 . S
C2628 C814 1.616 . S
C2663 C125 1.437 . S
C2678 C839 1.444 . S
C2713 C29 1.592 1_556 S
C2728 C804 1.637 . S
C2778 C922 1.356 . S
C2763 C273 1.405 . S
C2828 C911 1.612 . S
C2813 C439 1.581 . S
C2878 C912 1.478 . S
C2863 C477 1.414 . S
C2913 C503 1.644 . S
C2928 C910 1.658 . S
C2963 C337 1.412 . S
C2978 C694 1.400 . S
C3028 C695 1.405 . S
C3013 C183 1.343 . S
C3078 C742 1.631 . S
C3063 C221 1.654 . S
C3128 C767 1.442 . S
C3113 C247 1.438 . S
C3163 C433 1.569 . S
C3178 C586 1.600 . S
C3228 C550 1.500 . S
C3213 C61 1.506 . S
C3263 C87 1.615 . S
C3278 C587 1.630 . S
C3328 C516 1.624 . S
C3313 C23 1.543 1_565 S
