# Generated by pormake.
# Topology pyr, (3,6)-cn, num edge types: 1
# Building blocks:
#     Node 0, Type 0, BuildingBlock: BELTOD_clean_linker_0, # of connection points: 3
#     Node 1, Type 0, BuildingBlock: BELTOD_clean_linker_0, # of connection points: 3
#     Node 2, Type 0, BuildingBlock: BELTOD_clean_linker_0, # of connection points: 3
#     Node 3, Type 0, BuildingBlock: BELTOD_clean_linker_0, # of connection points: 3
#     Node 4, Type 0, BuildingBlock: BELTOD_clean_linker_0, # of connection points: 3
#     Node 5, Type 0, BuildingBlock: BELTOD_clean_linker_0, # of connection points: 3
#     Node 6, Type 0, BuildingBlock: BELTOD_clean_linker_0, # of connection points: 3
#     Node 7, Type 0, BuildingBlock: BELTOD_clean_linker_0, # of connection points: 3
#     Node 8, Type 1, BuildingBlock: BETDIP_clean_sbu_0, # of connection points: 6
#     Node 9, Type 1, BuildingBlock: BETDIP_clean_sbu_0, # of connection points: 6
#     Node 10, Type 1, BuildingBlock: BETDIP_clean_sbu_0, # of connection points: 6
#     Node 11, Type 1, BuildingBlock: BETDIP_clean_sbu_0, # of connection points: 6
#     Edge 12, Type (0, 1), BuildingBlock: MIFKUJ_clean_linker_0, # of connection points: 2
#     Edge 13, Type (0, 1), BuildingBlock: MIFKUJ_clean_linker_0, # of connection points: 2
#     Edge 14, Type (0, 1), BuildingBlock: MIFKUJ_clean_linker_0, # of connection points: 2
#     Edge 15, Type (0, 1), BuildingBlock: MIFKUJ_clean_linker_0, # of connection points: 2
#     Edge 16, Type (0, 1), BuildingBlock: MIFKUJ_clean_linker_0, # of connection points: 2
#     Edge 17, Type (0, 1), BuildingBlock: MIFKUJ_clean_linker_0, # of connection points: 2
#     Edge 18, Type (0, 1), BuildingBlock: MIFKUJ_clean_linker_0, # of connection points: 2
#     Edge 19, Type (0, 1), BuildingBlock: MIFKUJ_clean_linker_0, # of connection points: 2
#     Edge 20, Type (0, 1), BuildingBlock: MIFKUJ_clean_linker_0, # of connection points: 2
#     Edge 21, Type (0, 1), BuildingBlock: MIFKUJ_clean_linker_0, # of connection points: 2
#     Edge 22, Type (0, 1), BuildingBlock: MIFKUJ_clean_linker_0, # of connection points: 2
#     Edge 23, Type (0, 1), BuildingBlock: MIFKUJ_clean_linker_0, # of connection points: 2
#     Edge 24, Type (0, 1), BuildingBlock: MIFKUJ_clean_linker_0, # of connection points: 2
#     Edge 25, Type (0, 1), BuildingBlock: MIFKUJ_clean_linker_0, # of connection points: 2
#     Edge 26, Type (0, 1), BuildingBlock: MIFKUJ_clean_linker_0, # of connection points: 2
#     Edge 27, Type (0, 1), BuildingBlock: MIFKUJ_clean_linker_0, # of connection points: 2
#     Edge 28, Type (0, 1), BuildingBlock: MIFKUJ_clean_linker_0, # of connection points: 2
#     Edge 29, Type (0, 1), BuildingBlock: MIFKUJ_clean_linker_0, # of connection points: 2
#     Edge 30, Type (0, 1), BuildingBlock: MIFKUJ_clean_linker_0, # of connection points: 2
#     Edge 31, Type (0, 1), BuildingBlock: MIFKUJ_clean_linker_0, # of connection points: 2
#     Edge 32, Type (0, 1), BuildingBlock: MIFKUJ_clean_linker_0, # of connection points: 2
#     Edge 33, Type (0, 1), BuildingBlock: MIFKUJ_clean_linker_0, # of connection points: 2
#     Edge 34, Type (0, 1), BuildingBlock: MIFKUJ_clean_linker_0, # of connection points: 2
#     Edge 35, Type (0, 1), BuildingBlock: MIFKUJ_clean_linker_0, # of connection points: 2
# Relax obj value: 0.104
# Max RMSD: 0.181
# Mean RMSD: 0.084
data_MOF--net-pyr--node1-BETDIP_clean_sbu_0--node2-BELTOD_clean_linker_0--edge1-MIFKUJ_clean_linker_0
_symmetry_space_group_name_H-M    P1
_symmetry_Int_Tables_number       1
_symmetry_cell_setting            triclinic
loop_
_symmetry_equiv_pos_as_xyz
'x, y, z'
_cell_length_a     50.812325
_cell_length_b     56.762017
_cell_length_c     55.814193
_cell_angle_alpha  88.616089
_cell_angle_beta   92.940692
_cell_angle_gamma 102.3183
loop_
_atom_site_label
_atom_site_type_symbol
_atom_site_fract_x
_atom_site_fract_y
_atom_site_fract_z
_atom_type_partial_charge
P0 P 0.35505 0.29146 0.22443 0.0
H1 H 0.39442 0.29603 0.18769 0.0
H2 H 0.41503 0.26667 0.16807 0.0
H3 H 0.37021 0.20967 0.21173 0.0
H4 H 0.34924 0.23876 0.23078 0.0
H5 H 0.33728 0.33694 0.22175 0.0
H6 H 0.30517 0.3521 0.19452 0.0
H7 H 0.29582 0.2884 0.15143 0.0
H8 H 0.32777 0.27327 0.17877 0.0
H9 H 0.36703 0.27068 0.27099 0.0
H10 H 0.29627 0.28241 0.23028 0.0
O11 O 0.37934 0.3134 0.23585 0.0
H12 H 0.33829 0.25035 0.30265 0.0
H13 H 0.26787 0.26276 0.26192 0.0
C14 C 0.37062 0.2697 0.21093 0.0
C15 C 0.38916 0.27722 0.1931 0.0
C16 C 0.40083 0.26048 0.18188 0.0
C17 C 0.39435 0.23599 0.18858 0.0
C18 C 0.37586 0.22852 0.20653 0.0
C19 C 0.36388 0.2452 0.21745 0.0
C20 C 0.3353 0.30425 0.20202 0.0
C21 C 0.32878 0.32652 0.20614 0.0
C22 C 0.3103 0.33505 0.1907 0.0
C23 C 0.29804 0.32141 0.17087 0.0
C24 C 0.30525 0.29943 0.16638 0.0
C25 C 0.32354 0.29079 0.18199 0.0
C26 C 0.3339 0.27813 0.24829 0.0
C27 C 0.34542 0.26916 0.26899 0.0
C28 C 0.32903 0.25753 0.28699 0.0
C29 C 0.30092 0.25515 0.28472 0.0
C30 C 0.28951 0.26465 0.26423 0.0
C31 C 0.30583 0.27586 0.24608 0.0
P32 P 0.24826 0.8012 0.66719 0.0
H33 H 0.29994 0.81286 0.69436 0.0
H34 H 0.31173 0.82237 0.73651 0.0
H35 H 0.22714 0.80619 0.75169 0.0
H36 H 0.21552 0.79705 0.70934 0.0
H37 H 0.25701 0.77849 0.62307 0.0
H38 H 0.26092 0.73759 0.61442 0.0
H39 H 0.23356 0.71421 0.68493 0.0
H40 H 0.23026 0.75547 0.6936 0.0
H41 H 0.23589 0.84621 0.68053 0.0
H42 H 0.198 0.7852 0.63731 0.0
O43 O 0.27377 0.81721 0.65212 0.0
H44 H 0.19906 0.86617 0.66947 0.0
H45 H 0.16112 0.80551 0.6255 0.0
C46 C 0.25688 0.80488 0.69871 0.0
C47 C 0.28396 0.81117 0.7068 0.0
C48 C 0.29066 0.8164 0.73095 0.0
C49 C 0.27033 0.81526 0.74738 0.0
C50 C 0.24322 0.80763 0.73937 0.0
C51 C 0.23656 0.80237 0.71522 0.0
C52 C 0.24411 0.77011 0.65918 0.0
C53 C 0.25134 0.76447 0.63649 0.0
C54 C 0.25333 0.74096 0.63151 0.0
C55 C 0.24794 0.72264 0.64914 0.0
C56 C 0.23838 0.72801 0.67115 0.0
C57 C 0.23642 0.7516 0.67611 0.0
C58 C 0.21948 0.81415 0.65997 0.0
C59 C 0.21946 0.83702 0.66878 0.0
C60 C 0.1985 0.84851 0.66227 0.0
C61 C 0.17729 0.83751 0.64644 0.0
C62 C 0.17708 0.81433 0.63789 0.0
C63 C 0.19817 0.80275 0.64454 0.0
P64 P 0.65083 0.32587 0.8184 0.0
H65 H 0.7082 0.32446 0.82424 0.0
H66 H 0.74624 0.34859 0.84715 0.0
H67 H 0.6935 0.39091 0.87456 0.0
H68 H 0.65526 0.36671 0.85116 0.0
H69 H 0.6107 0.28167 0.80768 0.0
H70 H 0.58874 0.24794 0.83267 0.0
H71 H 0.62333 0.28697 0.8962 0.0
H72 H 0.64541 0.32043 0.87115 0.0
H73 H 0.67095 0.372 0.79461 0.0
H74 H 0.59484 0.32135 0.79782 0.0
O75 O 0.66397 0.30974 0.79944 0.0
H76 H 0.65215 0.39471 0.76313 0.0
H77 H 0.5755 0.34436 0.7664 0.0
C78 C 0.67882 0.34385 0.83581 0.0
C79 C 0.7047 0.33898 0.83503 0.0
C80 C 0.72654 0.35287 0.84811 0.0
C81 C 0.72297 0.37178 0.86259 0.0
C82 C 0.69691 0.37642 0.86365 0.0
C83 C 0.67507 0.36267 0.85024 0.0
C84 C 0.62971 0.30381 0.83735 0.0
C85 C 0.61305 0.28325 0.82701 0.0
C86 C 0.6005 0.26387 0.84139 0.0
C87 C 0.6044 0.26447 0.86658 0.0
C88 C 0.6202 0.28557 0.87691 0.0
C89 C 0.63267 0.30497 0.86249 0.0
C90 C 0.63421 0.34522 0.79922 0.0
C91 C 0.64986 0.36614 0.78912 0.0
C92 C 0.63901 0.37919 0.77092 0.0
C93 C 0.61215 0.37157 0.76202 0.0
C94 C 0.59631 0.35077 0.77251 0.0
C95 C 0.60727 0.33769 0.79079 0.0
P96 P 0.84855 0.68668 0.306 0.0
H97 H 0.87204 0.73638 0.29086 0.0
H98 H 0.89236 0.77295 0.31299 0.0
H99 H 0.89117 0.73093 0.37858 0.0
H100 H 0.87096 0.69432 0.3562 0.0
H101 H 0.83011 0.64058 0.28105 0.0
H102 H 0.84864 0.62062 0.24971 0.0
H103 H 0.9214 0.6761 0.25353 0.0
H104 H 0.9027 0.69586 0.28533 0.0
H105 H 0.80825 0.70043 0.33439 0.0
H106 H 0.83698 0.63538 0.32461 0.0
O107 O 0.82892 0.69882 0.28664 0.0
H108 H 0.77419 0.67889 0.36065 0.0
H109 H 0.80167 0.61308 0.34986 0.0
C110 C 0.86972 0.71241 0.32174 0.0
C111 C 0.87657 0.73488 0.30993 0.0
C112 C 0.88796 0.75595 0.32274 0.0
C113 C 0.89309 0.75521 0.3478 0.0
C114 C 0.88763 0.7324 0.35937 0.0
C115 C 0.87606 0.71131 0.34651 0.0
C116 C 0.86535 0.66926 0.28667 0.0
C117 C 0.85051 0.64801 0.27596 0.0
C118 C 0.86112 0.63665 0.25768 0.0
C119 C 0.88672 0.64651 0.24886 0.0
C120 C 0.90161 0.66786 0.25961 0.0
C121 C 0.89105 0.67907 0.27817 0.0
C122 C 0.82498 0.66957 0.32698 0.0
C123 C 0.8071 0.68136 0.33775 0.0
C124 C 0.78728 0.66884 0.35266 0.0
C125 C 0.78437 0.64389 0.35717 0.0
C126 C 0.803 0.63221 0.34696 0.0
C127 C 0.82318 0.64494 0.33219 0.0
P128 P 0.75919 0.85097 0.88284 0.0
H129 H 0.72854 0.84541 0.92579 0.0
H130 H 0.6827 0.8493 0.93311 0.0
H131 H 0.66666 0.85679 0.85685 0.0
H132 H 0.71252 0.85287 0.84963 0.0
H133 H 0.81351 0.84485 0.89387 0.0
H134 H 0.83202 0.81296 0.914 0.0
H135 H 0.75122 0.77122 0.92265 0.0
H136 H 0.73291 0.80292 0.90155 0.0
H137 H 0.76994 0.89227 0.85042 0.0
H138 H 0.76305 0.81542 0.84637 0.0
O139 O 0.77573 0.87618 0.8962 0.0
H140 H 0.78015 0.89675 0.80813 0.0
H141 H 0.77293 0.81968 0.80373 0.0
C142 C 0.72394 0.84879 0.88722 0.0
C143 C 0.71492 0.84725 0.91061 0.0
C144 C 0.68867 0.84937 0.91475 0.0
C145 C 0.6711 0.85339 0.89553 0.0
C146 C 0.67983 0.85384 0.87199 0.0
C147 C 0.70606 0.85155 0.86787 0.0
C148 C 0.7719 0.82646 0.8967 0.0
C149 C 0.7998 0.82881 0.90009 0.0
C150 C 0.81032 0.81064 0.91179 0.0
C151 C 0.79308 0.78973 0.92042 0.0
C152 C 0.76505 0.7871 0.91629 0.0
C153 C 0.75454 0.8053 0.90439 0.0
C154 C 0.76636 0.85362 0.85158 0.0
C155 C 0.77067 0.87635 0.84038 0.0
C156 C 0.77622 0.87884 0.81613 0.0
C157 C 0.77737 0.85856 0.80256 0.0
C158 C 0.77252 0.83567 0.81378 0.0
C159 C 0.76686 0.83321 0.83811 0.0
P160 P 0.85417 0.30374 0.31245 0.0
H161 H 0.86041 0.34986 0.337 0.0
H162 H 0.82839 0.36868 0.35676 0.0
H163 H 0.76631 0.30439 0.34503 0.0
H164 H 0.79826 0.28596 0.3249 0.0
H165 H 0.89978 0.28195 0.30497 0.0
H166 H 0.91688 0.24935 0.32552 0.0
H167 H 0.85604 0.24403 0.3779 0.0
H168 H 0.83883 0.27632 0.35703 0.0
H169 H 0.83591 0.32367 0.26758 0.0
H170 H 0.82946 0.25342 0.30086 0.0
O171 O 0.87932 0.32557 0.30338 0.0
H172 H 0.80729 0.30539 0.23334 0.0
H173 H 0.80083 0.23515 0.267 0.0
C174 C 0.83156 0.31669 0.32917 0.0
C175 C 0.83993 0.33981 0.33878 0.0
C176 C 0.82164 0.35049 0.35019 0.0
C177 C 0.7947 0.33814 0.35223 0.0
C178 C 0.78674 0.3146 0.3433 0.0
C179 C 0.80502 0.30398 0.3319 0.0
C180 C 0.86832 0.2818 0.32964 0.0
C181 C 0.89041 0.27399 0.3211 0.0
C182 C 0.90018 0.25538 0.33289 0.0
C183 C 0.88784 0.24409 0.35338 0.0
C184 C 0.86583 0.25217 0.36203 0.0
C185 C 0.85609 0.27082 0.35021 0.0
C186 C 0.83535 0.28986 0.28644 0.0
C187 C 0.82865 0.30429 0.26734 0.0
C188 C 0.81211 0.29386 0.24793 0.0
C189 C 0.80195 0.26881 0.2474 0.0
C190 C 0.80877 0.25444 0.26664 0.0
C191 C 0.82518 0.26489 0.28604 0.0
P192 P 0.37728 0.67023 0.19501 0.0
H193 H 0.35248 0.67957 0.14875 0.0
H194 H 0.30925 0.66258 0.12836 0.0
H195 H 0.28431 0.62046 0.19195 0.0
H196 H 0.3272 0.63842 0.21256 0.0
H197 H 0.42797 0.69972 0.17898 0.0
H198 H 0.441 0.74137 0.16552 0.0
H199 H 0.36488 0.75436 0.18717 0.0
H200 H 0.3515 0.71192 0.19961 0.0
H201 H 0.37166 0.62178 0.21478 0.0
H202 H 0.39548 0.694 0.24187 0.0
O203 O 0.39623 0.65702 0.17837 0.0
H204 H 0.38246 0.60543 0.25391 0.0
H205 H 0.40625 0.6777 0.28154 0.0
C206 C 0.34326 0.66035 0.18221 0.0
C207 C 0.33751 0.66704 0.15849 0.0
C208 C 0.31282 0.65701 0.14671 0.0
C209 C 0.29326 0.63975 0.15828 0.0
C210 C 0.29872 0.63374 0.18242 0.0
C211 C 0.32345 0.64394 0.19426 0.0
C212 C 0.38862 0.70251 0.19014 0.0
C213 C 0.41413 0.71153 0.18112 0.0
C214 C 0.42167 0.73562 0.17349 0.0
C215 C 0.40402 0.75157 0.17497 0.0
C216 C 0.37889 0.74268 0.18519 0.0
C217 C 0.37128 0.71842 0.19265 0.0
C218 C 0.38229 0.65912 0.22537 0.0
C219 C 0.37873 0.63415 0.22935 0.0
C220 C 0.38491 0.62479 0.25187 0.0
C221 C 0.39515 0.64014 0.27114 0.0
C222 C 0.39858 0.66527 0.26716 0.0
C223 C 0.39219 0.67465 0.24451 0.0
P224 P 0.15515 0.32747 0.71445 0.0
H225 H 0.13285 0.27679 0.72673 0.0
H226 H 0.1106 0.24195 0.70296 0.0
H227 H 0.10567 0.28868 0.64147 0.0
H228 H 0.12785 0.32363 0.66557 0.0
H229 H 0.18485 0.3787 0.71698 0.0
H230 H 0.22179 0.40196 0.69406 0.0
H231 H 0.21454 0.34204 0.64617 0.0
H232 H 0.17889 0.3188 0.66961 0.0
H233 H 0.14377 0.31624 0.76477 0.0
H234 H 0.13019 0.37106 0.71384 0.0
O235 O 0.17624 0.31384 0.73067 0.0
H236 H 0.12653 0.33643 0.79634 0.0
H237 H 0.11148 0.39119 0.74544 0.0
C238 C 0.13258 0.30298 0.69798 0.0
C239 C 0.12655 0.27971 0.70826 0.0
C240 C 0.11375 0.25966 0.69455 0.0
C241 C 0.10661 0.26221 0.67002 0.0
C242 C 0.11132 0.28579 0.66011 0.0
C243 C 0.12383 0.30592 0.67399 0.0
C244 C 0.17789 0.34722 0.69454 0.0
C245 C 0.19063 0.37083 0.70112 0.0
C246 C 0.21199 0.38413 0.68798 0.0
C247 C 0.22151 0.37402 0.66812 0.0
C248 C 0.20829 0.35053 0.66143 0.0
C249 C 0.1872 0.33729 0.67462 0.0
C250 C 0.13881 0.34215 0.73675 0.0
C251 C 0.13677 0.33259 0.76022 0.0
C252 C 0.12652 0.34421 0.77846 0.0
C253 C 0.11736 0.36576 0.77394 0.0
C254 C 0.11866 0.37497 0.75009 0.0
C255 C 0.12918 0.3633 0.73177 0.0
Tb256 Tb 0.96834 1.0052 0.50972 0.0
Tb257 Tb 0.026 0.02127 0.49205 0.0
C258 C 0.92299 0.97876 0.51626 0.0
C259 C 0.90846 0.96685 0.53698 0.0
C260 C 0.89928 0.94171 0.53705 0.0
C261 C 0.88633 0.92982 0.55679 0.0
C262 C 0.88208 0.94291 0.57676 0.0
C263 C 0.89099 0.96813 0.57656 0.0
C264 C 0.90417 0.98 0.5569 0.0
C265 C 0.99516 0.04365 0.53452 0.0
C266 C 0.01788 0.98924 0.53805 0.0
C267 C 0.0708 0.04128 0.47617 0.0
C268 C 0.08391 0.06216 0.46151 0.0
C269 C 0.09577 0.08443 0.47202 0.0
C270 C 0.11146 0.10281 0.45847 0.0
C271 C 0.11577 0.0991 0.43429 0.0
C272 C 0.10298 0.07722 0.42362 0.0
C273 C 0.08734 0.05896 0.43707 0.0
C274 C 0.99818 0.97825 0.47796 0.0
C275 C 0.97853 0.04453 0.46921 0.0
O276 O 0.94407 0.97044 0.5108 0.0
O277 O 0.92721 1.00239 0.51481 0.0
O278 O 1.00291 0.03254 0.51789 0.0
O279 O 0.97072 0.03219 0.53836 0.0
O280 O 0.99159 0.98438 0.5326 0.0
O281 O 0.03509 1.00589 0.52649 0.0
O282 O 0.0635 0.04518 0.49769 0.0
O283 O 0.05319 0.0245 0.46484 0.0
O284 O 0.98922 0.9973 0.47947 0.0
O285 O 0.02363 0.98319 0.48414 0.0
O286 O 1.0048 0.04652 0.47339 0.0
O287 O 0.96041 0.02731 0.47909 0.0
H288 H 0.90235 0.93122 0.52187 0.0
H289 H 0.87949 0.9104 0.55638 0.0
H290 H 0.88829 0.97864 0.59184 0.0
H291 H 0.91121 0.99939 0.55745 0.0
H292 H 0.09375 0.08738 0.49088 0.0
H293 H 0.1212 0.11947 0.46718 0.0
H294 H 0.10562 0.07398 0.40493 0.0
H295 H 0.07871 0.04198 0.42844 0.0
Tb296 Tb 0.52691 0.02613 0.04515 0.0
Tb297 Tb 0.46731 1.00879 0.02599 0.0
C298 C 0.57285 0.04767 0.06032 0.0
C299 C 0.58691 0.07018 0.07203 0.0
C300 C 0.58796 0.09304 0.06133 0.0
C301 C 0.60376 0.11368 0.07215 0.0
C302 C 0.61882 0.11171 0.0937 0.0
C303 C 0.61676 0.08892 0.10473 0.0
C304 C 0.60111 0.06842 0.09396 0.0
C305 C 0.50091 0.98358 0.06081 0.0
C306 C 0.48029 0.04906 0.06473 0.0
C307 C 0.42164 0.98173 0.01999 0.0
C308 C 0.40577 0.96796 1.00011 0.0
C309 C 0.39869 0.94273 1.00211 0.0
C310 C 0.38491 0.92902 0.98315 0.0
C311 C 0.37766 0.94032 0.96192 0.0
C312 C 0.38416 0.96562 0.96011 0.0
C313 C 0.39822 0.97935 0.979 0.0
C314 C 0.49232 0.04675 1.00049 0.0
C315 C 0.51514 0.99222 1.00083 0.0
O316 O 0.56403 0.04883 0.0379 0.0
O317 O 0.55602 0.03263 0.07342 0.0
O318 O 0.49113 1.00214 0.05722 0.0
O319 O 0.5263 0.98897 0.05654 0.0
O320 O 0.50643 0.05096 0.06218 0.0
O321 O 0.46137 0.03226 0.05433 0.0
O322 O 0.44326 0.97406 0.02749 0.0
O323 O 0.42576 1.00536 0.0188 0.0
O324 O 0.50116 0.03588 0.01797 0.0
O325 O 0.46761 0.03527 0.99603 0.0
O326 O 0.48907 0.98787 1.00496 0.0
O327 O 0.53328 1.00886 1.01239 0.0
H328 H 0.57716 0.09493 0.04441 0.0
H329 H 0.60497 0.13101 0.06324 0.0
H330 H 0.62761 0.08685 0.12161 0.0
H331 H 0.60057 0.05101 0.10257 0.0
H332 H 0.40417 0.93356 0.01827 0.0
H333 H 0.37988 0.90956 0.9851 0.0
H334 H 0.37897 0.97475 0.94384 0.0
H335 H 0.40346 0.99878 0.97692 0.0
Tb336 Tb 0.50625 0.53235 0.52753 0.0
Tb337 Tb 0.50677 0.48538 0.5064 0.0
C338 C 0.49193 0.57 0.5392 0.0
C339 C 0.46814 0.57482 0.55064 0.0
C340 C 0.44185 0.56353 0.54273 0.0
C341 C 0.41954 0.56844 0.5537 0.0
C342 C 0.42311 0.58461 0.57285 0.0
C343 C 0.44944 0.59564 0.5809 0.0
C344 C 0.47174 0.59081 0.56985 0.0
C345 C 0.53108 0.50435 0.5551 0.0
C346 C 0.45664 0.48724 0.53564 0.0
C347 C 0.52123 0.44775 0.49477 0.0
C348 C 0.54397 0.44257 0.48183 0.0
C349 C 0.56302 0.43165 0.49429 0.0
C350 C 0.58505 0.42702 0.4827 0.0
C351 C 0.58836 0.43296 0.4583 0.0
C352 C 0.5692 0.44373 0.44574 0.0
C353 C 0.54728 0.44861 0.45741 0.0
C354 C 0.48165 0.51339 0.47914 0.0
C355 C 0.55625 0.53067 0.49806 0.0
O356 O 0.48776 0.56093 0.51766 0.0
O357 O 0.50799 0.55959 0.55278 0.0
O358 O 0.50972 0.49787 0.54226 0.0
O359 O 0.53873 0.52764 0.55345 0.0
O360 O 0.46545 0.51102 0.53493 0.0
O361 O 0.47133 0.47279 0.52746 0.0
O362 O 0.52768 0.45815 0.51555 0.0
O363 O 0.50316 0.45691 0.48234 0.0
O364 O 0.50319 0.51975 0.49173 0.0
O365 O 0.47408 0.4901 0.48058 0.0
O366 O 0.54738 0.50689 0.49837 0.0
O367 O 0.54181 0.54506 0.5067 0.0
H368 H 0.43845 0.55095 0.52804 0.0
H369 H 0.39951 0.55952 0.54726 0.0
H370 H 0.45279 0.60845 0.5954 0.0
H371 H 0.49183 0.59969 0.57622 0.0
H372 H 0.56088 0.42673 0.51308 0.0
H373 H 0.59927 0.41838 0.49276 0.0
H374 H 0.5713 0.44858 0.42694 0.0
H375 H 0.53302 0.45715 0.4473 0.0
Tb376 Tb 1.00508 0.52817 0.99615 0.0
Tb377 Tb 1.00544 0.48643 0.02843 0.0
C378 C 0.9901 0.5612 0.97203 0.0
C379 C 0.97399 0.579 0.97714 0.0
C380 C 0.95112 0.57281 0.99102 0.0
C381 C 0.93553 0.58975 0.99495 0.0
C382 C 0.94274 0.61319 0.98529 0.0
C383 C 0.96609 0.61951 0.97205 0.0
C384 C 0.98153 0.60252 0.96797 0.0
C385 C 0.05169 0.52926 0.01969 0.0
C386 C 0.98264 0.52829 0.04947 0.0
C387 C 0.01886 0.45388 0.05463 0.0
C388 C 0.03849 0.43826 0.05537 0.0
C389 C 0.06317 0.44517 0.04423 0.0
C390 C 0.08301 0.43156 0.04797 0.0
C391 C 0.07841 0.41091 0.06291 0.0
C392 C 0.05306 0.40342 0.07289 0.0
C393 C 0.03332 0.41702 0.06919 0.0
C394 C 0.9588 0.48554 1.00492 0.0
C395 C 0.02771 0.48663 0.97495 0.0
O396 O 0.97717 0.53863 0.97154 0.0
O397 O 0.01365 0.564 0.98345 0.0
O398 O 0.02853 0.52242 0.02782 0.0
O399 O 0.04916 0.53674 0.9977 0.0
O400 O 0.98489 0.5381 0.02763 0.0
O401 O 0.9908 0.50804 0.05459 0.0
O402 O 0.0289 0.47693 0.05738 0.0
O403 O 0.99952 0.44965 0.03792 0.0
O404 O 0.98199 0.49222 0.99689 0.0
O405 O 0.96129 0.47779 0.02679 0.0
O406 O 0.02752 0.4778 0.99732 0.0
O407 O 0.01764 0.50586 0.96958 0.0
H408 H 0.94506 0.55481 0.99855 0.0
H409 H 0.91775 0.58451 1.00536 0.0
H410 H 0.97193 0.63738 0.96417 0.0
H411 H 0.99917 0.60765 0.95734 0.0
H412 H 0.06748 0.46154 0.03343 0.0
H413 H 0.10236 0.43786 0.04013 0.0
H414 H 0.04873 0.38735 0.08412 0.0
H415 H 0.01432 0.41138 0.07781 0.0
H416 H 0.30136 0.21042 0.30315 0.0
H417 H 0.26941 0.18651 0.33043 0.0
H418 H 0.22865 0.24549 0.33457 0.0
H419 H 0.2604 0.26942 0.30697 0.0
H420 H 0.23854 0.22007 0.38065 0.0
H421 H 0.19985 0.20607 0.30026 0.0
H422 H 0.20031 0.19595 0.2576 0.0
H423 H 0.21644 0.12669 0.27757 0.0
H424 H 0.21652 0.13657 0.32039 0.0
H425 H 0.12005 0.14814 0.4313 0.0
H426 H 0.15136 0.17731 0.40748 0.0
H427 H 0.18624 0.11973 0.38297 0.0
H428 H 0.15494 0.09068 0.40635 0.0
H429 H 0.17748 0.14721 0.34667 0.0
H430 H 0.21826 0.16045 0.42616 0.0
H431 H 0.22 0.16982 0.46919 0.0
H432 H 0.20225 0.23908 0.4519 0.0
H433 H 0.20005 0.22997 0.40874 0.0
C434 C 0.28584 0.2184 0.31018 0.0
C435 C 0.28325 0.2417 0.30297 0.0
C436 C 0.26759 0.20473 0.32565 0.0
C437 C 0.24669 0.21427 0.33437 0.0
C438 C 0.2447 0.23789 0.32801 0.0
C439 C 0.2627 0.25144 0.31221 0.0
C440 C 0.22604 0.19894 0.34897 0.0
C441 C 0.22486 0.20432 0.37323 0.0
C442 C 0.20866 0.17822 0.33926 0.0
C443 C 0.20847 0.17217 0.31353 0.0
C444 C 0.20375 0.18877 0.29556 0.0
C445 C 0.20387 0.18306 0.27135 0.0
C446 C 0.20848 0.16071 0.26487 0.0
C447 C 0.21291 0.14401 0.28261 0.0
C448 C 0.21286 0.14965 0.30685 0.0
C449 C 0.13453 0.14181 0.42092 0.0
C450 C 0.13492 0.11713 0.42051 0.0
C451 C 0.15242 0.15846 0.40736 0.0
C452 C 0.17125 0.15072 0.3935 0.0
C453 C 0.17178 0.12612 0.39336 0.0
C454 C 0.15384 0.10952 0.40669 0.0
C455 C 0.19013 0.16796 0.37866 0.0
C456 C 0.19097 0.163 0.35422 0.0
C457 C 0.20737 0.1889 0.38832 0.0
C458 C 0.20867 0.19441 0.41424 0.0
C459 C 0.21449 0.17759 0.43154 0.0
C460 C 0.21561 0.18287 0.45595 0.0
C461 C 0.21115 0.20501 0.46328 0.0
C462 C 0.20564 0.22193 0.4462 0.0
C463 C 0.20447 0.21672 0.42176 0.0
H464 H 0.21203 0.20907 0.48219 0.0
H465 H 0.20855 0.15632 0.24612 0.0
H466 H 0.24554 0.84399 0.77283 0.0
H467 H 0.26021 0.86223 0.81176 0.0
H468 H 0.32627 0.82534 0.81665 0.0
H469 H 0.31133 0.80651 0.77785 0.0
H470 H 0.30216 0.82684 0.86053 0.0
H471 H 0.3377 0.88122 0.79651 0.0
H472 H 0.33432 0.90465 0.75912 0.0
H473 H 0.2825 0.94367 0.79222 0.0
H474 H 0.28526 0.9202 0.82972 0.0
H475 H 0.39141 0.90113 0.94293 0.0
H476 H 0.36973 0.87749 0.90857 0.0
H477 H 0.31131 0.92265 0.90066 0.0
H478 H 0.3334 0.94671 0.93476 0.0
H479 H 0.32915 0.91619 0.85896 0.0
H480 H 0.29533 0.86371 0.92387 0.0
H481 H 0.29813 0.84018 0.96129 0.0
H482 H 0.3455 0.79757 0.92722 0.0
H483 H 0.3433 0.82107 0.88968 0.0
C484 C 0.2628 0.83927 0.78243 0.0
C485 C 0.27739 0.82392 0.77222 0.0
C486 C 0.27126 0.84986 0.80459 0.0
C487 C 0.29451 0.84537 0.81687 0.0
C488 C 0.30832 0.82908 0.80736 0.0
C489 C 0.2999 0.8185 0.78515 0.0
C490 C 0.3055 0.85901 0.8387 0.0
C491 C 0.3083 0.84635 0.86023 0.0
C492 C 0.31292 0.88449 0.83829 0.0
C493 C 0.31147 0.89879 0.81583 0.0
C494 C 0.32543 0.89467 0.79576 0.0
C495 C 0.32364 0.90798 0.77455 0.0
C496 C 0.30814 0.9256 0.77328 0.0
C497 C 0.29446 0.92999 0.79323 0.0
C498 C 0.29614 0.91671 0.81446 0.0
C499 C 0.37377 0.90583 0.93399 0.0
C500 C 0.364 0.92568 0.94151 0.0
C501 C 0.36134 0.89228 0.91442 0.0
C502 C 0.33861 0.89804 0.90226 0.0
C503 C 0.32879 0.91784 0.9098 0.0
C504 C 0.34142 0.93159 0.92922 0.0
C505 C 0.32585 0.88408 0.88103 0.0
C506 C 0.32281 0.89669 0.85948 0.0
C507 C 0.31812 0.85857 0.8815 0.0
C508 C 0.31933 0.84429 0.90401 0.0
C509 C 0.3065 0.84944 0.9244 0.0
C510 C 0.30796 0.83608 0.94563 0.0
C511 C 0.32203 0.81743 0.94664 0.0
C512 C 0.33462 0.81204 0.92641 0.0
C513 C 0.33325 0.82535 0.90515 0.0
H514 H 0.32314 0.80712 0.96309 0.0
H515 H 0.30679 0.93588 0.75684 0.0
H516 H 0.57737 0.35268 0.72425 0.0
H517 H 0.56194 0.37396 0.68949 0.0
H518 H 0.60798 0.44145 0.71693 0.0
H519 H 0.62248 0.42048 0.75226 0.0
H520 H 0.56177 0.44834 0.69874 0.0
H521 H 0.6296 0.40981 0.67044 0.0
H522 H 0.65107 0.37572 0.66319 0.0
H523 H 0.58109 0.34107 0.62101 0.0
H524 H 0.55905 0.37483 0.62827 0.0
H525 H 0.56878 0.51915 0.59146 0.0
H526 H 0.58075 0.49559 0.62614 0.0
H527 H 0.525 0.43255 0.59925 0.0
H528 H 0.51272 0.45614 0.56459 0.0
H529 H 0.57411 0.42229 0.6166 0.0
H530 H 0.5071 0.46178 0.64389 0.0
H531 H 0.48633 0.49643 0.65058 0.0
H532 H 0.55562 0.52969 0.69436 0.0
H533 H 0.57701 0.49541 0.68762 0.0
C534 C 0.58392 0.3721 0.72317 0.0
C535 C 0.6014 0.38471 0.74123 0.0
C536 C 0.57532 0.38427 0.70301 0.0
C537 C 0.58413 0.40938 0.70015 0.0
C538 C 0.60095 0.42209 0.71846 0.0
C539 C 0.60946 0.40997 0.73865 0.0
C540 C 0.5761 0.42244 0.67812 0.0
C541 C 0.56481 0.44274 0.68083 0.0
C542 C 0.57935 0.415 0.65454 0.0
C543 C 0.59257 0.39472 0.65011 0.0
C544 C 0.61871 0.39483 0.65977 0.0
C545 C 0.631 0.37559 0.65563 0.0
C546 C 0.61742 0.35621 0.64171 0.0
C547 C 0.59156 0.35607 0.63183 0.0
C548 C 0.57917 0.37526 0.63593 0.0
C549 C 0.55918 0.50023 0.59283 0.0
C550 C 0.53978 0.48955 0.57522 0.0
C551 C 0.56596 0.48678 0.61275 0.0
C552 C 0.55364 0.46228 0.61552 0.0
C553 C 0.53482 0.45139 0.59759 0.0
C554 C 0.52781 0.46491 0.57775 0.0
C555 C 0.56011 0.44824 0.63733 0.0
C556 C 0.57104 0.42779 0.63455 0.0
C557 C 0.55663 0.45557 0.66084 0.0
C558 C 0.54376 0.47613 0.66506 0.0
C559 C 0.518 0.47657 0.65479 0.0
C560 C 0.5061 0.49613 0.65862 0.0
C561 C 0.51967 0.51527 0.67284 0.0
C562 C 0.54515 0.51486 0.68332 0.0
C563 C 0.55716 0.49537 0.67952 0.0
H564 H 0.51042 0.53039 0.67578 0.0
H565 H 0.62697 0.34133 0.63852 0.0
H566 H 0.88209 0.59805 0.23981 0.0
H567 H 0.89782 0.57936 0.20577 0.0
H568 H 0.931 0.64964 0.17633 0.0
H569 H 0.91502 0.66852 0.21027 0.0
H570 H 0.90529 0.61925 0.14071 0.0
H571 H 0.97196 0.6157 0.2039 0.0
H572 H 0.98862 0.60601 0.24444 0.0
H573 H 0.9548 0.53083 0.2333 0.0
H574 H 0.9376 0.54012 0.1928 0.0
H575 H 0.97972 0.57614 0.05175 0.0
H576 H 0.96458 0.59704 0.08449 0.0
H577 H 0.94448 0.52983 0.12398 0.0
H578 H 0.96134 0.50928 0.09191 0.0
H579 H 0.96405 0.56035 0.15441 0.0
H580 H 0.89614 0.56344 0.09148 0.0
H581 H 0.87981 0.57281 0.05069 0.0
H582 H 0.9148 0.64789 0.06081 0.0
H583 H 0.93163 0.63895 0.10159 0.0
C584 C 0.89263 0.60965 0.22611 0.0
C585 C 0.89723 0.63496 0.22812 0.0
C586 C 0.90183 0.59885 0.20658 0.0
C587 C 0.9159 0.61293 0.18826 0.0
C588 C 0.92029 0.6382 0.19006 0.0
C589 C 0.91131 0.64903 0.20973 0.0
C590 C 0.92617 0.60126 0.16751 0.0
C591 C 0.91838 0.60656 0.14373 0.0
C592 C 0.94289 0.58427 0.17109 0.0
C593 C 0.95326 0.57863 0.19541 0.0
C594 C 0.96789 0.59712 0.21017 0.0
C595 C 0.97746 0.5917 0.23313 0.0
C596 C 0.97271 0.56783 0.24146 0.0
C597 C 0.95843 0.54932 0.22683 0.0
C598 C 0.94878 0.55465 0.20387 0.0
C599 C 0.97196 0.56575 0.06735 0.0
C600 C 0.97176 0.54089 0.06898 0.0
C601 C 0.963 0.57776 0.08616 0.0
C602 C 0.9526 0.5652 0.10695 0.0
C603 C 0.95228 0.54028 0.10842 0.0
C604 C 0.96187 0.5284 0.08989 0.0
C605 C 0.9428 0.57786 0.12739 0.0
C606 C 0.9508 0.57287 0.15121 0.0
C607 C 0.92609 0.59498 0.12378 0.0
C608 C 0.91536 0.60048 0.09952 0.0
C609 C 0.90044 0.58194 0.08498 0.0
C610 C 0.89111 0.58717 0.06186 0.0
C611 C 0.89637 0.61091 0.05315 0.0
C612 C 0.91083 0.6295 0.06758 0.0
C613 C 0.92022 0.62437 0.09072 0.0
H614 H 0.88914 0.61492 0.03525 0.0
H615 H 0.98015 0.56367 0.25924 0.0
H616 H 0.39638 0.22987 0.1405 0.0
H617 H 0.4131 0.19838 0.12041 0.0
H618 H 0.43564 0.17032 0.18914 0.0
H619 H 0.41863 0.20162 0.20936 0.0
H620 H 0.47554 0.17476 0.1509 0.0
H621 H 0.38172 0.14207 0.16678 0.0
H622 H 0.33337 0.14303 0.16531 0.0
H623 H 0.3324 0.14687 0.08835 0.0
H624 H 0.38088 0.14631 0.0894 0.0
H625 H 0.49702 0.06329 0.11018 0.0
H626 H 0.48329 0.09475 0.13283 0.0
H627 H 0.43295 0.10925 0.07181 0.0
H628 H 0.44487 0.07636 0.05018 0.0
H629 H 0.40767 0.11223 0.1078 0.0
H630 H 0.50037 0.14512 0.0901 0.0
H631 H 0.54897 0.14517 0.09007 0.0
H632 H 0.55338 0.14354 0.1671 0.0
H633 H 0.50477 0.14309 0.1676 0.0
C634 C 0.40521 0.21716 0.15128 0.0
C635 C 0.40616 0.21806 0.17644 0.0
C636 C 0.41467 0.1992 0.13982 0.0
C637 C 0.42551 0.18208 0.15335 0.0
C638 C 0.42738 0.18345 0.17845 0.0
C639 C 0.41753 0.20118 0.18993 0.0
C640 C 0.43346 0.16194 0.1413 0.0
C641 C 0.46079 0.16091 0.14161 0.0
C642 C 0.41417 0.1443 0.12883 0.0
C643 C 0.38497 0.14439 0.12819 0.0
C644 C 0.37125 0.14333 0.14956 0.0
C645 C 0.34381 0.14376 0.1488 0.0
C646 C 0.32984 0.14508 0.12675 0.0
C647 C 0.34326 0.14589 0.10541 0.0
C648 C 0.37071 0.14549 0.10608 0.0
C649 C 0.48284 0.07314 0.10184 0.0
C650 C 0.47183 0.06752 0.07862 0.0
C651 C 0.47522 0.0913 0.11462 0.0
C652 C 0.45754 0.10491 0.10389 0.0
C653 C 0.44657 0.09909 0.08059 0.0
C654 C 0.45337 0.08035 0.06821 0.0
C655 C 0.45007 0.12499 0.11685 0.0
C656 C 0.42268 0.12604 0.11686 0.0
C657 C 0.46946 0.14291 0.1292 0.0
C658 C 0.49886 0.14385 0.12888 0.0
C659 C 0.51169 0.14469 0.10703 0.0
C660 C 0.53923 0.14477 0.10693 0.0
C661 C 0.55421 0.14428 0.12858 0.0
C662 C 0.54174 0.14387 0.15036 0.0
C663 C 0.5142 0.14372 0.15056 0.0
H664 H 0.57547 0.14421 0.12852 0.0
H665 H 0.3086 0.14541 0.1262 0.0
H666 H 0.18483 0.88474 0.63291 0.0
H667 H 0.1508 0.90756 0.62079 0.0
H668 H 0.08821 0.84364 0.62855 0.0
H669 H 0.12245 0.8205 0.64099 0.0
H670 H 0.08097 0.86868 0.58717 0.0
H671 H 0.09566 0.88661 0.66989 0.0
H672 H 0.12198 0.89806 0.70773 0.0
H673 H 0.15664 0.96723 0.67732 0.0
H674 H 0.13085 0.95608 0.63915 0.0
H675 H 0.99151 0.94719 0.55891 0.0
H676 H 0.01164 0.91908 0.58395 0.0
H677 H 0.08904 0.96828 0.58261 0.0
H678 H 0.06916 0.99653 0.55787 0.0
H679 H 0.08018 0.94594 0.62669 0.0
H680 H 0.07167 0.92391 0.5421 0.0
H681 H 0.0454 0.91238 0.50421 0.0
H682 H 0.99857 0.85036 0.53921 0.0
H683 H 0.02426 0.86175 0.57733 0.0
C684 C 0.16382 0.87554 0.63234 0.0
C685 C 0.1563 0.85088 0.63824 0.0
C686 C 0.14438 0.88862 0.6254 0.0
C687 C 0.11694 0.87742 0.62428 0.0
C688 C 0.10929 0.85265 0.62952 0.0
C689 C 0.12884 0.83946 0.63651 0.0
C690 C 0.09666 0.89179 0.61695 0.0
C691 C 0.08028 0.88527 0.59616 0.0
C692 C 0.09593 0.91352 0.6286 0.0
C693 C 0.11138 0.92044 0.65159 0.0
C694 C 0.10902 0.90421 0.67121 0.0
C695 C 0.12383 0.91065 0.69273 0.0
C696 C 0.14099 0.93335 0.69492 0.0
C697 C 0.14333 0.94966 0.6756 0.0
C698 C 0.12858 0.9433 0.65403 0.0
C699 C 0.0127 0.95225 0.56434 0.0
C700 C 0.02883 0.97397 0.55613 0.0
C701 C 0.02416 0.93613 0.57859 0.0
C702 C 0.05189 0.94147 0.58481 0.0
C703 C 0.06761 0.9638 0.57795 0.0
C704 C 0.05623 0.97987 0.56368 0.0
C705 C 0.06526 0.92319 0.59654 0.0
C706 C 0.08037 0.92903 0.61812 0.0
C707 C 0.06478 0.90082 0.58566 0.0
C708 C 0.04963 0.89384 0.56261 0.0
C709 C 0.05561 0.90792 0.54172 0.0
C710 C 0.04081 0.90142 0.5202 0.0
C711 C 0.02015 0.88075 0.5193 0.0
C712 C 0.01441 0.86645 0.5399 0.0
C713 C 0.02909 0.87291 0.56147 0.0
H714 H 0.00871 0.87576 0.50262 0.0
H715 H 0.15245 0.9383 0.71159 0.0
H716 H 0.72592 0.38515 0.90974 0.0
H717 H 0.76525 0.40723 0.93299 0.0
H718 H 0.81235 0.41391 0.87004 0.0
H719 H 0.77329 0.3912 0.84701 0.0
H720 H 0.84128 0.40262 0.90527 0.0
H721 H 0.7885 0.46264 0.89471 0.0
H722 H 0.74812 0.48008 0.89596 0.0
H723 H 0.74822 0.47042 0.9725 0.0
H724 H 0.78841 0.45261 0.97167 0.0
H725 H 0.95309 0.48697 0.95589 0.0
H726 H 0.91245 0.47091 0.93081 0.0
H727 H 0.86729 0.45173 0.99432 0.0
H728 H 0.90787 0.46776 0.01946 0.0
H729 H 0.83805 0.47096 0.958 0.0
H730 H 0.89124 0.40975 0.96687 0.0
H731 H 0.9329 0.39439 0.96434 0.0
H732 H 0.93293 0.40895 0.88848 0.0
H733 H 0.89146 0.42472 0.89063 0.0
C734 C 0.7446 0.39155 0.90082 0.0
C735 C 0.74645 0.3864 0.87651 0.0
C736 C 0.76712 0.40427 0.91412 0.0
C737 C 0.7919 0.41262 0.9033 0.0
C738 C 0.79362 0.40768 0.87893 0.0
C739 C 0.77124 0.39468 0.86574 0.0
C740 C 0.81623 0.42574 0.91749 0.0
C741 C 0.84055 0.41781 0.91646 0.0
C742 C 0.8155 0.44539 0.93251 0.0
C743 C 0.79132 0.45607 0.93309 0.0
C744 C 0.77979 0.46406 0.91179 0.0
C745 C 0.75695 0.47404 0.91242 0.0
C746 C 0.74557 0.47629 0.93429 0.0
C747 C 0.75704 0.46863 0.95557 0.0
C748 C 0.77986 0.45861 0.95503 0.0
C749 C 0.93441 0.47962 0.96449 0.0
C750 C 0.9337 0.47846 0.98965 0.0
C751 C 0.91122 0.47035 0.95015 0.0
C752 C 0.88685 0.45981 0.96067 0.0
C753 C 0.88583 0.4597 0.98578 0.0
C754 C 0.90906 0.46882 1.00012 0.0
C755 C 0.86281 0.44779 0.94566 0.0
C756 C 0.83863 0.45586 0.94663 0.0
C757 C 0.86374 0.42849 0.93032 0.0
C758 C 0.8884 0.41863 0.92895 0.0
C759 C 0.90023 0.40982 0.94967 0.0
C760 C 0.92379 0.40102 0.94831 0.0
C761 C 0.93559 0.40076 0.92627 0.0
C762 C 0.92379 0.4092 0.90554 0.0
C763 C 0.90024 0.41805 0.90682 0.0
H764 H 0.95385 0.39397 0.92525 0.0
H765 H 0.72789 0.48403 0.93475 0.0
H766 H 0.73306 0.6522 0.36035 0.0
H767 H 0.69723 0.63196 0.3857 0.0
H768 H 0.74699 0.58365 0.41264 0.0
H769 H 0.78365 0.60445 0.38792 0.0
H770 H 0.69287 0.55974 0.40151 0.0
H771 H 0.73946 0.62755 0.4475 0.0
H772 H 0.75979 0.67043 0.45459 0.0
H773 H 0.6828 0.68879 0.43985 0.0
H774 H 0.66207 0.64604 0.43232 0.0
H775 H 0.60026 0.51089 0.49126 0.0
H776 H 0.64081 0.52856 0.46984 0.0
H777 H 0.60849 0.59175 0.45297 0.0
H778 H 0.56905 0.57485 0.4759 0.0
H779 H 0.65721 0.60703 0.4609 0.0
H780 H 0.61173 0.54127 0.40919 0.0
H781 H 0.59058 0.49878 0.40052 0.0
H782 H 0.66327 0.47709 0.42546 0.0
H783 H 0.685 0.51945 0.43383 0.0
C784 C 0.73681 0.63755 0.37188 0.0
C785 C 0.7618 0.63041 0.37212 0.0
C786 C 0.71602 0.6258 0.38632 0.0
C787 C 0.71933 0.60635 0.40138 0.0
C788 C 0.74383 0.5986 0.40122 0.0
C789 C 0.76483 0.61053 0.38692 0.0
C790 C 0.69728 0.59458 0.41747 0.0
C791 C 0.68531 0.57002 0.41472 0.0
C792 C 0.6869 0.60791 0.43448 0.0
C793 C 0.69926 0.63361 0.43915 0.0
C794 C 0.7269 0.64075 0.44559 0.0
C795 C 0.73849 0.66503 0.44972 0.0
C796 C 0.72261 0.68233 0.44762 0.0
C797 C 0.69508 0.67537 0.44145 0.0
C798 C 0.6834 0.65112 0.43727 0.0
C799 C 0.60192 0.52862 0.4831 0.0
C800 C 0.58137 0.54145 0.48542 0.0
C801 C 0.62507 0.53867 0.4705 0.0
C802 C 0.62784 0.56144 0.459 0.0
C803 C 0.60726 0.57424 0.46153 0.0
C804 C 0.58454 0.56451 0.47469 0.0
C805 C 0.65203 0.57219 0.44458 0.0
C806 C 0.6646 0.59663 0.4477 0.0
C807 C 0.66272 0.55881 0.4277 0.0
C808 C 0.64992 0.53345 0.42218 0.0
C809 C 0.62319 0.52741 0.41275 0.0
C810 C 0.61115 0.50338 0.40782 0.0
C811 C 0.62564 0.48528 0.4123 0.0
C812 C 0.65216 0.49114 0.42179 0.0
C813 C 0.66441 0.51516 0.42649 0.0
H814 H 0.61637 0.46674 0.40829 0.0
H815 H 0.73162 0.70112 0.45082 0.0
H816 H 0.29166 0.32288 0.1218 0.0
H817 H 0.25456 0.33475 0.09776 0.0
H818 H 0.21827 0.34876 0.16266 0.0
H819 H 0.25509 0.337 0.18665 0.0
H820 H 0.18208 0.3205 0.129 0.0
H821 H 0.25168 0.39439 0.1322 0.0
H822 H 0.29709 0.4186 0.12515 0.0
H823 H 0.28499 0.40428 0.04974 0.0
H824 H 0.23961 0.37968 0.05642 0.0
H825 H 0.09154 0.39529 0.10746 0.0
H826 H 0.12865 0.37612 0.11966 0.0
H827 H 0.15322 0.37943 0.04658 0.0
H828 H 0.11583 0.3989 0.03415 0.0
H829 H 0.19572 0.39366 0.07675 0.0
H830 H 0.12395 0.32529 0.07185 0.0
H831 H 0.07855 0.30058 0.07783 0.0
H832 H 0.09437 0.30247 0.15415 0.0
H833 H 0.13974 0.3275 0.14866 0.0
C834 C 0.27574 0.32852 0.13086 0.0
C835 C 0.27631 0.3292 0.15606 0.0
C836 C 0.25466 0.33533 0.11715 0.0
C837 C 0.23376 0.34263 0.12849 0.0
C838 C 0.23423 0.34315 0.15361 0.0
C839 C 0.25538 0.33664 0.16727 0.0
C840 C 0.21119 0.34984 0.11443 0.0
C841 C 0.18498 0.33652 0.11761 0.0
C842 C 0.21519 0.37014 0.09882 0.0
C843 C 0.24242 0.38495 0.09485 0.0
C844 C 0.25881 0.39621 0.11415 0.0
C845 C 0.28451 0.41005 0.11022 0.0
C846 C 0.29396 0.41291 0.08703 0.0
C847 C 0.27767 0.402 0.06771 0.0
C848 C 0.25196 0.38812 0.07155 0.0
C849 C 0.10449 0.39155 0.09385 0.0
C850 C 0.10053 0.39834 0.06977 0.0
C851 C 0.12575 0.38059 0.10087 0.0
C852 C 0.14343 0.3759 0.08397 0.0
C853 C 0.13971 0.38275 0.05989 0.0
C854 C 0.1184 0.39388 0.05283 0.0
C855 C 0.16638 0.36482 0.09201 0.0
C856 C 0.19271 0.37733 0.08769 0.0
C857 C 0.1625 0.34356 0.10637 0.0
C858 C 0.13524 0.3284 0.10983 0.0
C859 C 0.1177 0.32058 0.08992 0.0
C860 C 0.09197 0.30649 0.09322 0.0
C861 C 0.08357 0.29999 0.11636 0.0
C862 C 0.10091 0.30752 0.13624 0.0
C863 C 0.12665 0.32163 0.13304 0.0
H864 H 0.06363 0.28908 0.11887 0.0
H865 H 0.31386 0.42363 0.08402 0.0
H866 H 0.6283 0.24657 0.90638 0.0
H867 H 0.61066 0.21069 0.93049 0.0
H868 H 0.53782 0.19666 0.88528 0.0
H869 H 0.55502 0.23295 0.86145 0.0
H870 H 0.52605 0.18927 0.93158 0.0
H871 H 0.58819 0.16479 0.88009 0.0
H872 H 0.63206 0.16737 0.86212 0.0
H873 H 0.66908 0.15929 0.93188 0.0
H874 H 0.62547 0.15699 0.95031 0.0
H875 H 0.47318 0.06745 0.96093 0.0
H876 H 0.4936 0.10471 0.94015 0.0
H877 H 0.56258 0.11406 0.99004 0.0
H878 H 0.54194 0.07654 1.01098 0.0
H879 H 0.57788 0.12476 0.94377 0.0
H880 H 0.51586 0.14742 0.99526 0.0
H881 H 0.47218 0.14463 1.01361 0.0
H882 H 0.43532 0.15645 0.94466 0.0
H883 H 0.47871 0.15893 0.92581 0.0
C884 C 0.60836 0.23608 0.90169 0.0
C885 C 0.59316 0.24282 0.88184 0.0
C886 C 0.5984 0.21532 0.91539 0.0
C887 C 0.57298 0.20062 0.90962 0.0
C888 C 0.55752 0.20754 0.89012 0.0
C889 C 0.5675 0.22827 0.87636 0.0
C890 C 0.56254 0.17804 0.92378 0.0
C891 C 0.53728 0.17507 0.93397 0.0
C892 C 0.57742 0.15967 0.92766 0.0
C893 C 0.60363 0.16098 0.9166 0.0
C894 C 0.60573 0.16375 0.89162 0.0
C895 C 0.63054 0.16513 0.88134 0.0
C896 C 0.65336 0.16356 0.89585 0.0
C897 C 0.65139 0.16054 0.92067 0.0
C898 C 0.62663 0.15918 0.93104 0.0
C899 C 0.49276 0.07735 0.96746 0.0
C900 C 0.50601 0.06892 0.9876 0.0
C901 C 0.5044 0.09877 0.95559 0.0
C902 C 0.52957 0.1125 0.96359 0.0
C903 C 0.54316 0.10387 0.98344 0.0
C904 C 0.53142 0.08236 0.9954 0.0
C905 C 0.54127 0.13589 0.95127 0.0
C906 C 0.56672 0.13902 0.94147 0.0
C907 C 0.52662 0.15446 0.94781 0.0
C908 C 0.50051 0.15315 0.95909 0.0
C909 C 0.4984 0.14925 0.98397 0.0
C910 C 0.4737 0.14775 0.99447 0.0
C911 C 0.45098 0.15031 0.9803 0.0
C912 C 0.45293 0.15444 0.95561 0.0
C913 C 0.47759 0.15592 0.94501 0.0
H914 H 0.43186 0.14915 0.98846 0.0
H915 H 0.67255 0.16463 0.88786 0.0
H916 H 0.87816 0.79895 0.34134 0.0
H917 H 0.89364 0.83604 0.3639 0.0
H918 H 0.946 0.80122 0.4088 0.0
H919 H 0.93018 0.76382 0.38644 0.0
H920 H 0.92474 0.82759 0.43605 0.0
H921 H 0.96889 0.84429 0.3619 0.0
H922 H 0.97222 0.84763 0.31797 0.0
H923 H 0.92158 0.8994 0.31482 0.0
H924 H 0.91767 0.89613 0.35871 0.0
H925 H 0.01312 0.93499 0.48132 0.0
H926 H 0.99293 0.89741 0.46063 0.0
H927 H 0.93176 0.93123 0.42735 0.0
H928 H 0.95174 0.96892 0.44855 0.0
H929 H 0.95585 0.90603 0.39445 0.0
H930 H 0.91662 0.89172 0.47061 0.0
H931 H 0.91567 0.88836 0.51465 0.0
H932 H 0.95891 0.83113 0.51431 0.0
H933 H 0.96129 0.8349 0.47039 0.0
C934 C 0.89321 0.79915 0.35583 0.0
C935 C 0.90302 0.77818 0.36175 0.0
C936 C 0.90212 0.82055 0.36882 0.0
C937 C 0.92151 0.82194 0.388 0.0
C938 C 0.93109 0.80093 0.39416 0.0
C939 C 0.92198 0.77941 0.38129 0.0
C940 C 0.93161 0.84511 0.40162 0.0
C941 C 0.9319 0.84464 0.42688 0.0
C942 C 0.94044 0.86776 0.38994 0.0
C943 C 0.94276 0.86977 0.36356 0.0
C944 C 0.9583 0.85625 0.35181 0.0
C945 C 0.96032 0.85815 0.32693 0.0
C946 C 0.94706 0.87367 0.3136 0.0
C947 C 0.93181 0.88736 0.32516 0.0
C948 C 0.9297 0.88551 0.35004 0.0
C949 C 0.99518 0.93438 0.46979 0.0
C950 C 0.98406 0.95502 0.46664 0.0
C951 C 0.98361 0.91281 0.45794 0.0
C952 C 0.96072 0.91126 0.44231 0.0
C953 C 0.94941 0.93183 0.43924 0.0
C954 C 0.96075 0.95337 0.45148 0.0
C955 C 0.94918 0.88839 0.42881 0.0
C956 C 0.94865 0.88896 0.40359 0.0
C957 C 0.94046 0.86582 0.44057 0.0
C958 C 0.93946 0.86383 0.46713 0.0
C959 C 0.92638 0.87871 0.47993 0.0
C960 C 0.92561 0.87675 0.50491 0.0
C961 C 0.93743 0.85969 0.51731 0.0
C962 C 0.95 0.84452 0.50473 0.0
C963 C 0.95115 0.84662 0.47979 0.0
H964 H 0.93673 0.85812 0.53664 0.0
H965 H 0.94865 0.87512 0.29434 0.0
H966 H 0.24188 0.69549 0.60831 0.0
H967 H 0.26482 0.663 0.60038 0.0
H968 H 0.29508 0.66436 0.67408 0.0
H969 H 0.27315 0.69741 0.68192 0.0
H970 H 0.33483 0.67112 0.64454 0.0
H971 H 0.25193 0.61413 0.65084 0.0
H972 H 0.20359 0.59665 0.64314 0.0
H973 H 0.21656 0.59094 0.56828 0.0
H974 H 0.26493 0.60873 0.57545 0.0
H975 H 0.41487 0.58848 0.62049 0.0
H976 H 0.37835 0.60319 0.63806 0.0
H977 H 0.34185 0.6098 0.56739 0.0
H978 H 0.37815 0.59491 0.54975 0.0
H979 H 0.30362 0.59476 0.60021 0.0
H980 H 0.38385 0.65763 0.59301 0.0
H981 H 0.43215 0.67597 0.59979 0.0
H982 H 0.42333 0.67148 0.67597 0.0
H983 H 0.37502 0.65277 0.66963 0.0
C984 C 0.253 0.68856 0.62295 0.0
C985 C 0.25596 0.69929 0.64566 0.0
C986 C 0.26588 0.66979 0.61845 0.0
C987 C 0.28172 0.66126 0.63664 0.0
C988 C 0.28296 0.67067 0.65979 0.0
C989 C 0.27019 0.68947 0.66427 0.0
C990 C 0.30015 0.64544 0.63066 0.0
C991 C 0.32788 0.65409 0.63541 0.0
C992 C 0.29119 0.6236 0.6181 0.0
C993 C 0.26207 0.61295 0.61367 0.0
C994 C 0.24445 0.60935 0.63269 0.0
C995 C 0.21704 0.59934 0.62843 0.0
C996 C 0.207 0.59274 0.60523 0.0
C997 C 0.22436 0.59608 0.58624 0.0
C998 C 0.25179 0.60609 0.5904 0.0
C999 C 0.39891 0.59287 0.60875 0.0
C1000 C 0.39952 0.59085 0.58374 0.0
C1001 C 0.37802 0.60116 0.6188 0.0
C1002 C 0.35761 0.60791 0.60399 0.0
C1003 C 0.35737 0.60464 0.57914 0.0
C1004 C 0.37815 0.59617 0.56909 0.0
C1005 C 0.3381 0.6206 0.61403 0.0
C1006 C 0.31034 0.6115 0.60985 0.0
C1007 C 0.34694 0.64217 0.62703 0.0
C1008 C 0.37593 0.65355 0.63086 0.0
C1009 C 0.39227 0.66039 0.61121 0.0
C1010 C 0.41963 0.67087 0.61497 0.0
C1011 C 0.43082 0.67482 0.6383 0.0
C1012 C 0.41465 0.66836 0.65791 0.0
C1013 C 0.38728 0.65782 0.65425 0.0
H1014 H 0.45201 0.68294 0.64117 0.0
H1015 H 0.18577 0.58498 0.60197 0.0
H1016 H 0.75931 0.88744 0.76841 0.0
H1017 H 0.77469 0.89593 0.7278 0.0
H1018 H 0.82628 0.84483 0.73797 0.0
H1019 H 0.81163 0.83686 0.77904 0.0
H1020 H 0.85339 0.88613 0.72057 0.0
H1021 H 0.77009 0.83308 0.69963 0.0
H1022 H 0.72113 0.81648 0.69961 0.0
H1023 H 0.70579 0.88285 0.66949 0.0
H1024 H 0.75467 0.89999 0.66965 0.0
H1025 H 0.89197 0.90224 0.59938 0.0
H1026 H 0.87158 0.88254 0.63551 0.0
H1027 H 0.82233 0.93554 0.63824 0.0
H1028 H 0.84244 0.95518 0.60198 0.0
H1029 H 0.79401 0.88839 0.64752 0.0
H1030 H 0.87749 0.94222 0.6729 0.0
H1031 H 0.92654 0.95843 0.67285 0.0
H1032 H 0.94124 0.88909 0.6945 0.0
H1033 H 0.89222 0.87238 0.69435 0.0
C1034 C 0.77386 0.87793 0.76198 0.0
C1035 C 0.7844 0.8616 0.77701 0.0
C1036 C 0.78241 0.8826 0.73865 0.0
C1037 C 0.80149 0.87087 0.72975 0.0
C1038 C 0.81148 0.85403 0.74445 0.0
C1039 C 0.80294 0.84936 0.76785 0.0
C1040 C 0.81247 0.87768 0.70583 0.0
C1041 C 0.84042 0.8861 0.7045 0.0
C1042 C 0.79553 0.87811 0.68494 0.0
C1043 C 0.76608 0.86789 0.68483 0.0
C1044 C 0.75628 0.84422 0.69318 0.0
C1045 C 0.72853 0.83469 0.69311 0.0
C1046 C 0.71036 0.84862 0.6846 0.0
C1047 C 0.71989 0.87209 0.6761 0.0
C1048 C 0.74762 0.88171 0.67614 0.0
C1049 C 0.87655 0.9095 0.60752 0.0
C1050 C 0.86887 0.93031 0.59796 0.0
C1051 C 0.86503 0.89831 0.62819 0.0
C1052 C 0.8456 0.9077 0.63959 0.0
C1053 C 0.83731 0.92803 0.62968 0.0
C1054 C 0.84896 0.93933 0.60913 0.0
C1055 C 0.83475 0.89704 0.66247 0.0
C1056 C 0.8069 0.88801 0.66357 0.0
C1057 C 0.85176 0.89593 0.68315 0.0
C1058 C 0.88121 0.90598 0.68333 0.0
C1059 C 0.89118 0.93038 0.67745 0.0
C1060 C 0.91898 0.93967 0.67749 0.0
C1061 C 0.937 0.92478 0.68359 0.0
C1062 C 0.92725 0.90059 0.68973 0.0
C1063 C 0.89947 0.8912 0.68968 0.0
H1064 H 0.95851 0.93201 0.68362 0.0
H1065 H 0.68888 0.84121 0.68455 0.0
H1066 H 0.75967 0.28494 0.22511 0.0
H1067 H 0.72817 0.26496 0.19344 0.0
H1068 H 0.77124 0.20719 0.19304 0.0
H1069 H 0.80313 0.22732 0.22416 0.0
H1070 H 0.75717 0.22012 0.14792 0.0
H1071 H 0.71423 0.20192 0.22389 0.0
H1072 H 0.6964 0.21232 0.26161 0.0
H1073 H 0.64222 0.24893 0.22173 0.0
H1074 H 0.66001 0.23901 0.18377 0.0
H1075 H 0.66979 0.11373 0.11221 0.0
H1076 H 0.69986 0.1472 0.13252 0.0
H1077 H 0.64132 0.19154 0.1192 0.0
H1078 H 0.61067 0.15768 0.09897 0.0
H1079 H 0.66071 0.19317 0.16605 0.0
H1080 H 0.69848 0.20407 0.08954 0.0
H1081 H 0.71589 0.19203 0.05233 0.0
H1082 H 0.77958 0.16825 0.0931 0.0
H1083 H 0.76233 0.1798 0.13061 0.0
C1084 C 0.76266 0.26817 0.21798 0.0
C1085 C 0.78378 0.2576 0.22722 0.0
C1086 C 0.74454 0.25671 0.20003 0.0
C1087 C 0.74722 0.23448 0.19107 0.0
C1088 C 0.76879 0.22433 0.19972 0.0
C1089 C 0.78685 0.23573 0.21765 0.0
C1090 C 0.72706 0.22109 0.17342 0.0
C1091 C 0.73608 0.21419 0.15186 0.0
C1092 C 0.69937 0.21406 0.17824 0.0
C1093 C 0.6887 0.22001 0.20104 0.0
C1094 C 0.69869 0.21237 0.22319 0.0
C1095 C 0.68856 0.21814 0.2446 0.0
C1096 C 0.66826 0.23135 0.24407 0.0
C1097 C 0.65799 0.23876 0.22212 0.0
C1098 C 0.66809 0.23306 0.20065 0.0
C1099 C 0.66322 0.13057 0.1136 0.0
C1100 C 0.63764 0.13293 0.10434 0.0
C1101 C 0.68059 0.1498 0.12497 0.0
C1102 C 0.67294 0.17193 0.12719 0.0
C1103 C 0.64763 0.17461 0.11759 0.0
C1104 C 0.6302 0.15531 0.10601 0.0
C1105 C 0.691 0.19151 0.1409 0.0
C1106 C 0.68163 0.19959 0.16175 0.0
C1107 C 0.7184 0.19956 0.13546 0.0
C1108 C 0.72902 0.19273 0.11292 0.0
C1109 C 0.7161 0.19613 0.0906 0.0
C1110 C 0.72596 0.18941 0.06945 0.0
C1111 C 0.74881 0.17936 0.07036 0.0
C1112 C 0.76189 0.17605 0.09242 0.0
C1113 C 0.7521 0.18272 0.11364 0.0
H1114 H 0.7564 0.17416 0.05396 0.0
H1115 H 0.66043 0.23579 0.26067 0.0
H1116 H 0.43913 0.65733 0.30175 0.0
H1117 H 0.45324 0.63869 0.33888 0.0
H1118 H 0.38366 0.58031 0.33111 0.0
H1119 H 0.36897 0.59921 0.29447 0.0
H1120 H 0.392 0.59238 0.37698 0.0
H1121 H 0.44748 0.57495 0.31526 0.0
H1122 H 0.47932 0.58471 0.28277 0.0
H1123 H 0.53831 0.62657 0.33141 0.0
H1124 H 0.50666 0.61732 0.36413 0.0
H1125 H 0.43619 0.50175 0.44977 0.0
H1126 H 0.42129 0.52584 0.41677 0.0
H1127 H 0.49026 0.58335 0.43184 0.0
H1128 H 0.50517 0.55932 0.46495 0.0
H1129 H 0.48326 0.57397 0.38377 0.0
H1130 H 0.42871 0.58914 0.44622 0.0
H1131 H 0.39713 0.57859 0.4788 0.0
H1132 H 0.3365 0.54061 0.42901 0.0
H1133 H 0.36789 0.55058 0.39618 0.0
C1134 C 0.42656 0.64073 0.3081 0.0
C1135 C 0.40296 0.62976 0.29483 0.0
C1136 C 0.43484 0.62991 0.32928 0.0
C1137 C 0.41982 0.60778 0.33776 0.0
C1138 C 0.39577 0.59726 0.32502 0.0
C1139 C 0.3875 0.60804 0.30386 0.0
C1140 C 0.42937 0.59523 0.35947 0.0
C1141 C 0.41187 0.58817 0.3783 0.0
C1142 C 0.45554 0.59011 0.36169 0.0
C1143 C 0.4746 0.59566 0.34206 0.0
C1144 C 0.46717 0.58639 0.31897 0.0
C1145 C 0.48519 0.59181 0.30053 0.0
C1146 C 0.51079 0.60631 0.30501 0.0
C1147 C 0.51845 0.61538 0.32796 0.0
C1148 C 0.50049 0.61005 0.34646 0.0
C1149 C 0.44807 0.51961 0.44617 0.0
C1150 C 0.47183 0.52861 0.46002 0.0
C1151 C 0.4395 0.53341 0.42731 0.0
C1152 C 0.45453 0.55655 0.42177 0.0
C1153 C 0.47826 0.5656 0.43567 0.0
C1154 C 0.48671 0.55188 0.45469 0.0
C1155 C 0.44581 0.57097 0.40114 0.0
C1156 C 0.46346 0.57834 0.38251 0.0
C1157 C 0.41978 0.57633 0.39911 0.0
C1158 C 0.40076 0.57042 0.41877 0.0
C1159 C 0.40872 0.57837 0.44225 0.0
C1160 C 0.39084 0.57252 0.46076 0.0
C1161 C 0.36485 0.55889 0.45599 0.0
C1162 C 0.35666 0.55114 0.43268 0.0
C1163 C 0.37448 0.5569 0.41411 0.0
H1164 H 0.35103 0.55438 0.47035 0.0
H1165 H 0.52472 0.61048 0.29071 0.0
H1166 H 0.09108 0.34581 0.81451 0.0
H1167 H 0.07728 0.36601 0.84808 0.0
H1168 H 0.10418 0.43485 0.81313 0.0
H1169 H 0.11993 0.41482 0.78006 0.0
H1170 H 0.11707 0.44137 0.85735 0.0
H1171 H 0.03365 0.40382 0.81831 0.0
H1172 H 0.99908 0.37099 0.8003 0.0
H1173 H 0.99304 0.33285 0.86785 0.0
H1174 H 0.02785 0.36531 0.8862 0.0
H1175 H 0.0432 0.50502 0.93058 0.0
H1176 H 0.05864 0.48478 0.89742 0.0
H1177 H 0.05121 0.41972 0.94018 0.0
H1178 H 0.03621 0.44008 0.97375 0.0
H1179 H 0.02813 0.41165 0.8924 0.0
H1180 H 0.11203 0.45176 0.93082 0.0
H1181 H 0.14468 0.48665 0.94759 0.0
H1182 H 0.14714 0.52249 0.87885 0.0
H1183 H 0.11417 0.48794 0.86174 0.0
C1184 C 0.09451 0.36529 0.81385 0.0
C1185 C 0.10699 0.37842 0.79413 0.0
C1186 C 0.08605 0.37692 0.83316 0.0
C1187 C 0.08905 0.40218 0.8334 0.0
C1188 C 0.10137 0.41539 0.81371 0.0
C1189 C 0.11015 0.40376 0.79446 0.0
C1190 C 0.0799 0.41471 0.85426 0.0
C1191 C 0.09741 0.43494 0.86465 0.0
C1192 C 0.05442 0.40649 0.86454 0.0
C1193 C 0.03358 0.38688 0.85356 0.0
C1194 C 0.02511 0.38834 0.82928 0.0
C1195 C 1.00544 0.36981 0.81901 0.0
C1196 C 0.99393 0.34981 0.8329 0.0
C1197 C 1.00201 0.34833 0.8571 0.0
C1198 C 0.0217 0.36679 0.86745 0.0
C1199 C 0.04499 0.48644 0.9331 0.0
C1200 C 0.03846 0.47432 0.95509 0.0
C1201 C 0.0539 0.47484 0.91401 0.0
C1202 C 0.05625 0.45059 0.91606 0.0
C1203 C 0.04964 0.43838 0.93795 0.0
C1204 C 0.04117 0.45013 0.95726 0.0
C1205 C 0.06531 0.43808 0.89531 0.0
C1206 C 0.04776 0.41794 0.88499 0.0
C1207 C 0.09051 0.44662 0.88485 0.0
C1208 C 0.11043 0.46736 0.89506 0.0
C1209 C 0.11936 0.46716 0.91933 0.0
C1210 C 0.13796 0.48686 0.92889 0.0
C1211 C 0.14793 0.5068 0.91431 0.0
C1212 C 0.13937 0.50705 0.89013 0.0
C1213 C 0.12074 0.48741 0.88049 0.0
H1214 H 0.16233 0.52203 0.92175 0.0
H1215 H 0.97869 0.3355 0.82493 0.0
H1216 H 0.63341 0.83203 0.92719 0.0
H1217 H 0.59553 0.84804 0.94042 0.0
H1218 H 0.61366 0.90653 0.88894 0.0
H1219 H 0.65102 0.89045 0.8755 0.0
H1220 H 0.6013 0.88805 0.96213 0.0
H1221 H 0.56132 0.93176 0.87518 0.0
H1222 H 0.55002 0.9213 0.83274 0.0
H1223 H 0.53866 0.84599 0.85092 0.0
H1224 H 0.5495 0.85595 0.89352 0.0
H1225 H 0.56681 0.9949 0.98784 0.0
H1226 H 0.58363 0.96531 0.96549 0.0
H1227 H 0.5026 0.92381 0.95384 0.0
H1228 H 0.48535 0.95343 0.97621 0.0
H1229 H 0.53563 0.92499 0.91365 0.0
H1230 H 0.53571 0.90554 0.99686 0.0
H1231 H 0.5439 0.91417 0.04001 0.0
H1232 H 0.62906 0.93479 0.0303 0.0
H1233 H 0.62134 0.92673 0.98699 0.0
C1234 C 0.62885 0.84798 0.91835 0.0
C1235 C 0.64524 0.86006 0.9004 0.0
C1236 C 0.6072 0.85709 0.92587 0.0
C1237 C 0.60165 0.87847 0.91565 0.0
C1238 C 0.61709 0.88974 0.89678 0.0
C1239 C 0.63855 0.88054 0.88913 0.0
C1240 C 0.58266 0.89099 0.92687 0.0
C1241 C 0.58668 0.89577 0.9515 0.0
C1242 C 0.56316 0.90078 0.9132 0.0
C1243 C 0.55639 0.89464 0.88758 0.0
C1244 C 0.55626 0.91296 0.87017 0.0
C1245 C 0.54997 0.90711 0.84606 0.0
C1246 C 0.54368 0.883 0.83913 0.0
C1247 C 0.54362 0.86467 0.8563 0.0
C1248 C 0.54988 0.87041 0.88043 0.0
C1249 C 0.55242 0.97973 0.98025 0.0
C1250 C 0.52476 0.97638 0.98415 0.0
C1251 C 0.56211 0.96283 0.96746 0.0
C1252 C 0.54436 0.94224 0.95839 0.0
C1253 C 0.51657 0.93958 0.96081 0.0
C1254 C 0.50681 0.9565 0.97366 0.0
C1255 C 0.5554 0.92271 0.94837 0.0
C1256 C 0.54988 0.91672 0.92415 0.0
C1257 C 0.57306 0.91128 0.96248 0.0
C1258 C 0.57792 0.91565 0.98864 0.0
C1259 C 0.55618 0.91205 1.0039 0.0
C1260 C 0.56073 0.91684 0.02839 0.0
C1261 C 0.58698 0.92505 0.03789 0.0
C1262 C 0.60874 0.92843 0.02292 0.0
C1263 C 0.60429 0.92373 0.9984 0.0
H1264 H 0.59047 0.92877 0.05685 0.0
H1265 H 0.53883 0.87851 0.82046 0.0
H1266 H 0.85729 0.20211 0.37069 0.0
H1267 H 0.8729 0.16788 0.38937 0.0
H1268 H 0.95546 0.20483 0.3811 0.0
H1269 H 0.93998 0.23924 0.36247 0.0
H1270 H 0.94764 0.15848 0.36785 0.0
H1271 H 0.92782 0.20084 0.43556 0.0
H1272 H 0.90013 0.22066 0.46017 0.0
H1273 H 0.84156 0.15417 0.46561 0.0
H1274 H 0.86873 0.13403 0.44074 0.0
H1275 H 0.00924 0.08432 0.44794 0.0
H1276 H 0.99361 0.11724 0.42676 0.0
H1277 H 0.91104 0.08047 0.43529 0.0
H1278 H 0.92644 0.04758 0.45687 0.0
H1279 H 0.91895 0.12665 0.44811 0.0
H1280 H 0.93968 0.08422 0.38054 0.0
H1281 H 0.96821 0.06473 0.35651 0.0
H1282 H 0.02602 0.13173 0.35144 0.0
H1283 H 0.99799 0.15156 0.37571 0.0
C1284 C 0.87878 0.2031 0.37312 0.0
C1285 C 0.89739 0.22348 0.3652 0.0
C1286 C 0.88767 0.18348 0.38374 0.0
C1287 C 0.91536 0.18388 0.38683 0.0
C1288 C 0.934 0.20411 0.37884 0.0
C1289 C 0.92512 0.22375 0.36817 0.0
C1290 C 0.92483 0.16309 0.39824 0.0
C1291 C 0.94165 0.1517 0.38553 0.0
C1292 C 0.91656 0.15393 0.4211 0.0
C1293 C 0.90018 0.16599 0.43608 0.0
C1294 C 0.90893 0.1905 0.44183 0.0
C1295 C 0.89335 0.20178 0.45586 0.0
C1296 C 0.86907 0.1887 0.46439 0.0
C1297 C 0.86035 0.16429 0.45896 0.0
C1298 C 0.87585 0.15293 0.44491 0.0
C1299 C 0.98773 0.08304 0.44509 0.0
C1300 C 0.9691 0.06326 0.45417 0.0
C1301 C 0.97884 0.10189 0.43289 0.0
C1302 C 0.95115 0.10127 0.42931 0.0
C1303 C 0.93251 0.08133 0.43788 0.0
C1304 C 0.94137 0.06249 0.45013 0.0
C1305 C 0.94165 0.12194 0.41768 0.0
C1306 C 0.92487 0.13336 0.43039 0.0
C1307 C 0.95004 0.13116 0.39487 0.0
C1308 C 0.96684 0.11932 0.38013 0.0
C1309 C 0.95857 0.09476 0.37445 0.0
C1310 C 0.97463 0.08366 0.36075 0.0
C1311 C 0.99894 0.09697 0.3525 0.0
C1312 C 0.0072 0.12143 0.35786 0.0
C1313 C 0.99121 0.13262 0.37156 0.0
H1314 H 0.01136 0.08834 0.34191 0.0
H1315 H 0.85704 0.19747 0.47526 0.0
H1316 H 0.24178 0.6258 0.1747 0.0
H1317 H 0.20076 0.60541 0.15246 0.0
H1318 H 0.24601 0.60563 0.08917 0.0
H1319 H 0.28707 0.62551 0.11127 0.0
H1320 H 0.19915 0.62005 0.07876 0.0
H1321 H 0.22651 0.55427 0.12264 0.0
H1322 H 0.23904 0.53293 0.15906 0.0
H1323 H 0.16202 0.53263 0.18749 0.0
H1324 H 0.14917 0.55426 0.15135 0.0
H1325 H 0.1031 0.54329 1.00509 0.0
H1326 H 0.14388 0.55994 0.02956 0.0
H1327 H 0.09744 0.55052 0.09302 0.0
H1328 H 0.05683 0.53285 0.06865 0.0
H1329 H 0.14418 0.54133 0.10448 0.0
H1330 H 0.11611 0.60674 0.06217 0.0
H1331 H 0.10267 0.62918 0.02687 0.0
H1332 H 0.17955 0.63203 0.99706 0.0
H1333 H 0.19333 0.60932 0.03205 0.0
C1334 C 0.24311 0.62131 0.15612 0.0
C1335 C 0.2679 0.62748 0.14485 0.0
C1336 C 0.21957 0.60967 0.14339 0.0
C1337 C 0.22024 0.60382 0.11912 0.0
C1338 C 0.24487 0.61003 0.10782 0.0
C1339 C 0.26839 0.62157 0.12052 0.0
C1340 C 0.19533 0.59153 0.10528 0.0
C1341 C 0.18732 0.60269 0.08424 0.0
C1342 C 0.17934 0.56922 0.11275 0.0
C1343 C 0.18699 0.55609 0.1344 0.0
C1344 C 0.21232 0.54981 0.13673 0.0
C1345 C 0.21947 0.53764 0.15731 0.0
C1346 C 0.20137 0.53149 0.1756 0.0
C1347 C 0.17604 0.53744 0.17332 0.0
C1348 C 0.16881 0.54963 0.15279 0.0
C1349 C 0.10168 0.54452 0.02431 0.0
C1350 C 0.07674 0.53696 0.03491 0.0
C1351 C 0.12497 0.55424 0.03829 0.0
C1352 C 0.12377 0.55719 0.06316 0.0
C1353 C 0.09901 0.54865 0.0739 0.0
C1354 C 0.07577 0.53855 0.05995 0.0
C1355 C 0.14807 0.56974 0.07775 0.0
C1356 C 0.15595 0.55869 0.09897 0.0
C1357 C 0.16381 0.59235 0.07062 0.0
C1358 C 0.15565 0.60614 0.04962 0.0
C1359 C 0.13009 0.61202 0.04801 0.0
C1360 C 0.12241 0.6248 0.02807 0.0
C1361 C 0.14022 0.63198 1.00971 0.0
C1362 C 0.16577 0.62644 1.01128 0.0
C1363 C 0.17353 0.61363 0.03117 0.0
H1364 H 0.13424 0.64187 0.99428 0.0
H1365 H 0.20694 0.52206 0.19152 0.0
H1366 H 0.23741 0.42293 0.65783 0.0
H1367 H 0.27679 0.44376 0.63642 0.0
H1368 H 0.29979 0.37592 0.62659 0.0
H1369 H 0.26139 0.35522 0.64886 0.0
H1370 H 0.3431 0.40813 0.63745 0.0
H1371 H 0.26789 0.40663 0.58056 0.0
H1372 H 0.22388 0.41466 0.56621 0.0
H1373 H 0.25421 0.49065 0.57557 0.0
H1374 H 0.29832 0.48303 0.59026 0.0
H1375 H 0.43469 0.43945 0.5447 0.0
H1376 H 0.3949 0.42228 0.56721 0.0
H1377 H 0.38104 0.49354 0.57773 0.0
H1378 H 0.4208 0.51089 0.55507 0.0
H1379 H 0.33371 0.46211 0.56776 0.0
H1380 H 0.40909 0.46433 0.62277 0.0
H1381 H 0.45357 0.45707 0.63657 0.0
H1382 H 0.42334 0.38067 0.63117 0.0
H1383 H 0.37873 0.38748 0.61694 0.0
C1384 C 0.25093 0.41241 0.65132 0.0
C1385 C 0.24573 0.3872 0.65501 0.0
C1386 C 0.27341 0.42438 0.63877 0.0
C1387 C 0.2913 0.4115 0.62936 0.0
C1388 C 0.28641 0.38643 0.63342 0.0
C1389 C 0.26407 0.3745 0.646 0.0
C1390 C 0.31513 0.42387 0.6154 0.0
C1391 C 0.34087 0.41968 0.62205 0.0
C1392 C 0.31277 0.43964 0.59563 0.0
C1393 C 0.2863 0.44424 0.58675 0.0
C1394 C 0.26511 0.42503 0.57972 0.0
C1395 C 0.24016 0.42951 0.5715 0.0
C1396 C 0.23623 0.45314 0.57004 0.0
C1397 C 0.25727 0.47235 0.57674 0.0
C1398 C 0.28225 0.46796 0.585 0.0
C1399 C 0.42314 0.45154 0.55162 0.0
C1400 C 0.43119 0.47665 0.54801 0.0
C1401 C 0.40037 0.44165 0.56467 0.0
C1402 C 0.38498 0.45655 0.57458 0.0
C1403 C 0.39248 0.48157 0.5704 0.0
C1404 C 0.41534 0.4915 0.55741 0.0
C1405 C 0.36146 0.44598 0.5896 0.0
C1406 C 0.33587 0.45057 0.5832 0.0
C1407 C 0.36396 0.43065 0.60966 0.0
C1408 C 0.39062 0.42643 0.61858 0.0
C1409 C 0.41196 0.44598 0.62437 0.0
C1410 C 0.4372 0.44195 0.63229 0.0
C1411 C 0.44131 0.41843 0.63469 0.0
C1412 C 0.42014 0.39888 0.62927 0.0
C1413 C 0.39486 0.40282 0.62129 0.0
H1414 H 0.46088 0.41536 0.6408 0.0
H1415 H 0.2169 0.45657 0.56367 0.0
H1416 H 0.83548 0.79624 0.9535 0.0
H1417 H 0.85785 0.76562 0.97143 0.0
H1418 H 0.79889 0.70987 0.93585 0.0
H1419 H 0.77672 0.74048 0.91715 0.0
H1420 H 0.81595 0.6988 0.98601 0.0
H1421 H 0.8517 0.7262 0.90894 0.0
H1422 H 0.87086 0.75735 0.87941 0.0
H1423 H 0.93797 0.78363 0.92854 0.0
H1424 H 0.91894 0.75284 0.95853 0.0
H1425 H 0.88829 0.6051 0.97705 0.0
H1426 H 0.86026 0.63515 0.97402 0.0
H1427 H 0.92928 0.69061 0.99507 0.0
H1428 H 0.9575 0.66058 0.9977 0.0
H1429 H 0.90676 0.70298 0.95519 0.0
H1430 H 0.87419 0.67368 0.03116 0.0
H1431 H 0.85532 0.64337 0.06154 0.0
H1432 H 0.78368 0.62101 0.0165 0.0
H1433 H 0.80213 0.65116 0.98578 0.0
C1434 C 0.8272 0.77747 0.94946 0.0
C1435 C 0.8046 0.77085 0.93351 0.0
C1436 C 0.83984 0.76 0.95995 0.0
C1437 C 0.83007 0.73557 0.95482 0.0
C1438 C 0.8066 0.72868 0.94009 0.0
C1439 C 0.794 0.7462 0.92942 0.0
C1440 C 0.84612 0.71767 0.96266 0.0
C1441 C 0.83572 0.69948 0.9792 0.0
C1442 C 0.87213 0.71906 0.95416 0.0
C1443 C 0.88375 0.73741 0.93606 0.0
C1444 C 0.87042 0.73876 0.91352 0.0
C1445 C 0.88128 0.75632 0.89669 0.0
C1446 C 0.90558 0.77251 0.90212 0.0
C1447 C 0.91912 0.77111 0.92438 0.0
C1448 C 0.90832 0.7536 0.94129 0.0
C1449 C 0.89731 0.6236 0.98162 0.0
C1450 C 0.92508 0.6306 0.9874 0.0
C1451 C 0.88126 0.64077 0.97996 0.0
C1452 C 0.89264 0.66516 0.98437 0.0
C1453 C 0.92009 0.67191 0.99149 0.0
C1454 C 0.93619 0.65479 0.99294 0.0
C1455 C 0.87679 0.68389 0.97875 0.0
C1456 C 0.88716 0.70228 0.96239 0.0
C1457 C 0.85089 0.68268 0.9876 0.0
C1458 C 0.83964 0.66458 1.00607 0.0
C1459 C 0.85448 0.66221 0.02765 0.0
C1460 C 0.84385 0.64508 0.04496 0.0
C1461 C 0.81838 0.6302 0.0409 0.0
C1462 C 0.80342 0.63253 0.0196 0.0
C1463 C 0.81392 0.64969 1.00226 0.0
H1464 H 0.81022 0.61691 0.05431 0.0
H1465 H 0.91396 0.7861 0.88907 0.0
H1466 H 0.37085 0.77935 0.15296 0.0
H1467 H 0.38356 0.8196 0.13514 0.0
H1468 H 0.46712 0.82116 0.15472 0.0
H1469 H 0.45442 0.7818 0.17414 0.0
H1470 H 0.45983 0.86306 0.16099 0.0
H1471 H 0.43608 0.80874 0.09516 0.0
H1472 H 0.40721 0.777 0.07046 0.0
H1473 H 0.34838 0.82092 0.05951 0.0
H1474 H 0.37676 0.8528 0.08443 0.0
H1475 H 0.5232 0.9451 0.07196 0.0
H1476 H 0.50301 0.90741 0.09219 0.0
H1477 H 0.42807 0.93099 0.09507 0.0
H1478 H 0.44862 0.96948 0.07554 0.0
H1479 H 0.42759 0.87845 0.07785 0.0
H1480 H 0.45596 0.93418 0.14299 0.0
H1481 H 0.48868 0.96539 0.16523 0.0
H1482 H 0.54317 0.9172 0.17466 0.0
H1483 H 0.51093 0.88582 0.15213 0.0
C1484 C 0.39191 0.78836 0.15395 0.0
C1485 C 0.41154 0.7769 0.16498 0.0
C1486 C 0.39924 0.81137 0.14332 0.0
C1487 C 0.42647 0.82346 0.14295 0.0
C1488 C 0.44599 0.81235 0.15449 0.0
C1489 C 0.43866 0.78953 0.16541 0.0
C1490 C 0.4348 0.84754 0.13056 0.0
C1491 C 0.45281 0.86621 0.14275 0.0
C1492 C 0.42553 0.85218 0.1068 0.0
C1493 C 0.40838 0.83302 0.0919 0.0
C1494 C 0.41688 0.81154 0.08765 0.0
C1495 C 0.40062 0.79354 0.07358 0.0
C1496 C 0.37593 0.79691 0.06349 0.0
C1497 C 0.36748 0.81831 0.06739 0.0
C1498 C 0.38364 0.83635 0.08148 0.0
C1499 C 0.50239 0.94234 0.07683 0.0
C1500 C 0.48749 0.96032 0.07202 0.0
C1501 C 0.49087 0.92072 0.08839 0.0
C1502 C 0.46404 0.91633 0.09516 0.0
C1503 C 0.4488 0.93396 0.08992 0.0
C1504 C 0.46053 0.95591 0.07871 0.0
C1505 C 0.45253 0.89354 0.10832 0.0
C1506 C 0.43415 0.87519 0.09621 0.0
C1507 C 0.46183 0.88899 0.13195 0.0
C1508 C 0.48114 0.90774 0.14568 0.0
C1509 C 0.47502 0.93031 0.14962 0.0
C1510 C 0.49346 0.94802 0.16231 0.0
C1511 C 0.51802 0.9433 0.1713 0.0
C1512 C 0.52415 0.92084 0.16766 0.0
C1513 C 0.50579 0.90308 0.15495 0.0
H1514 H 0.53227 0.95703 0.18112 0.0
H1515 H 0.36339 0.78296 0.05259 0.0
H1516 H 0.11841 0.25337 0.62376 0.0
H1517 H 0.1021 0.21709 0.59997 0.0
H1518 H 0.05289 0.18481 0.65773 0.0
H1519 H 0.06963 0.22086 0.68177 0.0
H1520 H 0.07379 0.15192 0.6413 0.0
H1521 H 0.02764 0.20849 0.60199 0.0
H1522 H 0.02317 0.24647 0.58141 0.0
H1523 H 0.07202 0.23202 0.52528 0.0
H1524 H 0.07707 0.19409 0.5457 0.0
H1525 H 0.98248 0.0599 0.5768 0.0
H1526 H 1.00386 0.09661 0.59823 0.0
H1527 H 0.06185 0.11487 0.54345 0.0
H1528 H 0.04049 0.07763 0.52193 0.0
H1529 H 0.03931 0.15458 0.55675 0.0
H1530 H 0.0822 0.09593 0.59601 0.0
H1531 H 0.08402 0.0574 0.6167 0.0
H1532 H 0.03819 0.07559 0.67337 0.0
H1533 H 0.03573 0.11409 0.65284 0.0
C1534 C 0.10384 0.2387 0.63135 0.0
C1535 C 0.09536 0.24033 0.65482 0.0
C1536 C 0.09443 0.21781 0.61762 0.0
C1537 C 0.0758 0.19794 0.62668 0.0
C1538 C 0.06725 0.19961 0.65009 0.0
C1539 C 0.07688 0.22038 0.66392 0.0
C1540 C 0.06565 0.17532 0.61215 0.0
C1541 C 0.06597 0.15266 0.62291 0.0
C1542 C 0.05595 0.17579 0.58781 0.0
C1543 C 0.05298 0.19859 0.57552 0.0
C1544 C 0.0376 0.21351 0.58536 0.0
C1545 C 0.03493 0.23501 0.5737 0.0
C1546 C 0.04737 0.24169 0.55209 0.0
C1547 C 0.06244 0.22685 0.54205 0.0
C1548 C 0.0652 0.20534 0.55364 0.0
C1549 C 0.99995 0.07157 0.56935 0.0
C1550 C 0.00988 0.06561 0.54771 0.0
C1551 C 0.01221 0.09265 0.58169 0.0
C1552 C 0.03466 0.10868 0.57268 0.0
C1553 C 0.04461 0.10288 0.55092 0.0
C1554 C 0.03252 0.08147 0.53868 0.0
C1555 C 0.04724 0.13141 0.58605 0.0
C1556 C 0.04731 0.15399 0.57509 0.0
C1557 C 0.05702 0.13089 0.61029 0.0
C1558 C 0.05859 0.10781 0.62277 0.0
C1559 C 0.07232 0.09163 0.61279 0.0
C1560 C 0.0735 0.06981 0.62451 0.0
C1561 C 0.06118 0.06402 0.64631 0.0
C1562 C 0.0477 0.08008 0.65647 0.0
C1563 C 0.04643 0.10192 0.64481 0.0
H1564 H 0.06212 0.04712 0.65535 0.0
H1565 H 0.04527 0.25834 0.54309 0.0
H1566 H 0.80171 0.3665 0.39215 0.0
H1567 H 0.76864 0.38597 0.40947 0.0
H1568 H 0.70946 0.35554 0.35427 0.0
H1569 H 0.74261 0.33673 0.3364 0.0
H1570 H 0.70849 0.40194 0.36154 0.0
H1571 H 0.70839 0.33097 0.4106 0.0
H1572 H 0.72871 0.30326 0.43664 0.0
H1573 H 0.75639 0.35974 0.48756 0.0
H1574 H 0.73653 0.38789 0.46165 0.0
H1575 H 0.5874 0.41167 0.41482 0.0
H1576 H 0.62475 0.3996 0.39598 0.0
H1577 H 0.67868 0.42939 0.45511 0.0
H1578 H 0.64125 0.44128 0.47414 0.0
H1579 H 0.68435 0.38561 0.44624 0.0
H1580 H 0.68575 0.45686 0.39693 0.0
H1581 H 0.6657 0.48486 0.37088 0.0
H1582 H 0.63555 0.42796 0.32094 0.0
H1583 H 0.6554 0.39968 0.34673 0.0
C1584 C 0.78173 0.36413 0.38359 0.0
C1585 C 0.77474 0.34993 0.36299 0.0
C1586 C 0.76279 0.37511 0.39361 0.0
C1587 C 0.73649 0.37198 0.3833 0.0
C1588 C 0.72961 0.35813 0.36255 0.0
C1589 C 0.74851 0.34718 0.35252 0.0
C1590 C 0.716 0.38293 0.39421 0.0
C1591 C 0.70304 0.39821 0.38001 0.0
C1592 C 0.70933 0.37852 0.41845 0.0
C1593 C 0.72124 0.36161 0.43406 0.0
C1594 C 0.71901 0.33754 0.42726 0.0
C1595 C 0.7304 0.32174 0.44201 0.0
C1596 C 0.74391 0.32975 0.46371 0.0
C1597 C 0.74597 0.35357 0.47073 0.0
C1598 C 0.73463 0.36945 0.45603 0.0
C1599 C 0.60731 0.41598 0.4236 0.0
C1600 C 0.6114 0.42731 0.446 0.0
C1601 C 0.62869 0.40917 0.41277 0.0
C1602 C 0.65463 0.41379 0.424 0.0
C1603 C 0.65885 0.4256 0.44613 0.0
C1604 C 0.63745 0.4323 0.45702 0.0
C1605 C 0.67679 0.40464 0.41359 0.0
C1606 C 0.68999 0.38958 0.42786 0.0
C1607 C 0.6837 0.40926 0.38943 0.0
C1608 C 0.67174 0.42615 0.37389 0.0
C1609 C 0.6746 0.45032 0.38051 0.0
C1610 C 0.66336 0.46623 0.36577 0.0
C1611 C 0.64921 0.45815 0.34437 0.0
C1612 C 0.64645 0.43418 0.33756 0.0
C1613 C 0.65777 0.41823 0.35219 0.0
H1614 H 0.64048 0.47049 0.33301 0.0
H1615 H 0.75271 0.31749 0.47511 0.0
loop_
_geom_bond_atom_site_label_1
_geom_bond_atom_site_label_2
_geom_bond_distance
_geom_bond_site_symmetry_2
_ccdc_geom_bond_type
P0 O11 1.490 . S
P0 C14 1.812 . S
P0 C20 1.803 . S
P0 C26 1.819 . S
H1 C15 0.941 . S
H2 C16 0.939 . S
H3 C18 0.940 . S
H4 C19 0.940 . S
H5 C21 0.939 . S
H6 C22 0.942 . S
H7 C24 0.940 . S
H8 C25 0.939 . S
H9 C27 0.941 . S
H10 C31 0.939 . S
O11 P0 1.490 . S
H12 C28 0.939 . S
H13 C30 0.940 . S
C14 P0 1.812 . S
C14 C15 1.389 . S
C14 C19 1.391 . S
C15 H1 0.941 . S
C15 C14 1.389 . S
C15 C16 1.397 . S
C16 H2 0.939 . S
C16 C15 1.397 . S
C16 C17 1.378 . S
C17 C16 1.378 . S
C17 C18 1.378 . S
C18 H3 0.940 . S
C18 C17 1.378 . S
C18 C19 1.396 . S
C19 H4 0.940 . S
C19 C14 1.391 . S
C19 C18 1.396 . S
C20 P0 1.803 . S
C20 C21 1.378 . S
C20 C25 1.400 . S
C21 H5 0.939 . S
C21 C20 1.378 . S
C21 C22 1.361 . S
C22 H6 0.942 . S
C22 C21 1.361 . S
C22 C23 1.369 . S
C23 C22 1.369 . S
C23 C24 1.404 . S
C24 H7 0.940 . S
C24 C23 1.404 . S
C24 C25 1.389 . S
C25 H8 0.939 . S
C25 C20 1.400 . S
C25 C24 1.389 . S
C26 P0 1.819 . S
C26 C27 1.391 . S
C26 C31 1.391 . S
C27 H9 0.941 . S
C27 C26 1.391 . S
C27 C28 1.396 . S
C28 H12 0.939 . S
C28 C27 1.396 . S
C28 C29 1.397 . S
C29 C28 1.397 . S
C29 C30 1.385 . S
C30 H13 0.940 . S
C30 C29 1.385 . S
C30 C31 1.388 . S
C31 H10 0.939 . S
C31 C26 1.391 . S
C31 C30 1.388 . S
P32 O43 1.490 . S
P32 C46 1.812 . S
P32 C52 1.803 . S
P32 C58 1.819 . S
H33 C47 0.941 . S
H34 C48 0.939 . S
H35 C50 0.940 . S
H36 C51 0.940 . S
H37 C53 0.939 . S
H38 C54 0.942 . S
H39 C56 0.940 . S
H40 C57 0.939 . S
H41 C59 0.941 . S
H42 C63 0.939 . S
O43 P32 1.490 . S
H44 C60 0.939 . S
H45 C62 0.940 . S
C46 P32 1.812 . S
C46 C47 1.389 . S
C46 C51 1.391 . S
C47 H33 0.941 . S
C47 C46 1.389 . S
C47 C48 1.397 . S
C48 H34 0.939 . S
C48 C47 1.397 . S
C48 C49 1.378 . S
C49 C48 1.378 . S
C49 C50 1.378 . S
C50 H35 0.940 . S
C50 C49 1.378 . S
C50 C51 1.396 . S
C51 H36 0.940 . S
C51 C46 1.391 . S
C51 C50 1.396 . S
C52 P32 1.803 . S
C52 C53 1.378 . S
C52 C57 1.400 . S
C53 H37 0.939 . S
C53 C52 1.378 . S
C53 C54 1.361 . S
C54 H38 0.942 . S
C54 C53 1.361 . S
C54 C55 1.369 . S
C55 C54 1.369 . S
C55 C56 1.404 . S
C56 H39 0.940 . S
C56 C55 1.404 . S
C56 C57 1.389 . S
C57 H40 0.939 . S
C57 C52 1.400 . S
C57 C56 1.389 . S
C58 P32 1.819 . S
C58 C59 1.391 . S
C58 C63 1.391 . S
C59 H41 0.941 . S
C59 C58 1.391 . S
C59 C60 1.396 . S
C60 H44 0.939 . S
C60 C59 1.396 . S
C60 C61 1.397 . S
C61 C60 1.397 . S
C61 C62 1.385 . S
C62 H45 0.940 . S
C62 C61 1.385 . S
C62 C63 1.388 . S
C63 H42 0.939 . S
C63 C58 1.391 . S
C63 C62 1.388 . S
P64 O75 1.490 . S
P64 C78 1.812 . S
P64 C84 1.803 . S
P64 C90 1.819 . S
H65 C79 0.941 . S
H66 C80 0.939 . S
H67 C82 0.940 . S
H68 C83 0.940 . S
H69 C85 0.939 . S
H70 C86 0.942 . S
H71 C88 0.940 . S
H72 C89 0.939 . S
H73 C91 0.941 . S
H74 C95 0.939 . S
O75 P64 1.490 . S
H76 C92 0.939 . S
H77 C94 0.940 . S
C78 P64 1.812 . S
C78 C79 1.389 . S
C78 C83 1.391 . S
C79 H65 0.941 . S
C79 C78 1.389 . S
C79 C80 1.397 . S
C80 H66 0.939 . S
C80 C79 1.397 . S
C80 C81 1.378 . S
C81 C80 1.378 . S
C81 C82 1.378 . S
C82 H67 0.940 . S
C82 C81 1.378 . S
C82 C83 1.396 . S
C83 H68 0.940 . S
C83 C78 1.391 . S
C83 C82 1.396 . S
C84 P64 1.803 . S
C84 C85 1.378 . S
C84 C89 1.400 . S
C85 H69 0.939 . S
C85 C84 1.378 . S
C85 C86 1.361 . S
C86 H70 0.942 . S
C86 C85 1.361 . S
C86 C87 1.369 . S
C87 C86 1.369 . S
C87 C88 1.404 . S
C88 H71 0.940 . S
C88 C87 1.404 . S
C88 C89 1.389 . S
C89 H72 0.939 . S
C89 C84 1.400 . S
C89 C88 1.389 . S
C90 P64 1.819 . S
C90 C91 1.391 . S
C90 C95 1.391 . S
C91 H73 0.941 . S
C91 C90 1.391 . S
C91 C92 1.396 . S
C92 H76 0.939 . S
C92 C91 1.396 . S
C92 C93 1.397 . S
C93 C92 1.397 . S
C93 C94 1.385 . S
C94 H77 0.940 . S
C94 C93 1.385 . S
C94 C95 1.388 . S
C95 H74 0.939 . S
C95 C90 1.391 . S
C95 C94 1.388 . S
P96 O107 1.490 . S
P96 C110 1.812 . S
P96 C116 1.803 . S
P96 C122 1.819 . S
H97 C111 0.941 . S
H98 C112 0.939 . S
H99 C114 0.940 . S
H100 C115 0.940 . S
H101 C117 0.939 . S
H102 C118 0.942 . S
H103 C120 0.940 . S
H104 C121 0.939 . S
H105 C123 0.941 . S
H106 C127 0.939 . S
O107 P96 1.490 . S
H108 C124 0.939 . S
H109 C126 0.940 . S
C110 P96 1.812 . S
C110 C111 1.389 . S
C110 C115 1.391 . S
C111 H97 0.941 . S
C111 C110 1.389 . S
C111 C112 1.397 . S
C112 H98 0.939 . S
C112 C111 1.397 . S
C112 C113 1.378 . S
C113 C112 1.378 . S
C113 C114 1.378 . S
C114 H99 0.940 . S
C114 C113 1.378 . S
C114 C115 1.396 . S
C115 H100 0.940 . S
C115 C110 1.391 . S
C115 C114 1.396 . S
C116 P96 1.803 . S
C116 C117 1.378 . S
C116 C121 1.400 . S
C117 H101 0.939 . S
C117 C116 1.378 . S
C117 C118 1.361 . S
C118 H102 0.942 . S
C118 C117 1.361 . S
C118 C119 1.369 . S
C119 C118 1.369 . S
C119 C120 1.404 . S
C120 H103 0.940 . S
C120 C119 1.404 . S
C120 C121 1.389 . S
C121 H104 0.939 . S
C121 C116 1.400 . S
C121 C120 1.389 . S
C122 P96 1.819 . S
C122 C123 1.391 . S
C122 C127 1.391 . S
C123 H105 0.941 . S
C123 C122 1.391 . S
C123 C124 1.396 . S
C124 H108 0.939 . S
C124 C123 1.396 . S
C124 C125 1.397 . S
C125 C124 1.397 . S
C125 C126 1.385 . S
C126 H109 0.940 . S
C126 C125 1.385 . S
C126 C127 1.388 . S
C127 H106 0.939 . S
C127 C122 1.391 . S
C127 C126 1.388 . S
P128 O139 1.490 . S
P128 C142 1.812 . S
P128 C148 1.803 . S
P128 C154 1.819 . S
H129 C143 0.941 . S
H130 C144 0.939 . S
H131 C146 0.940 . S
H132 C147 0.940 . S
H133 C149 0.939 . S
H134 C150 0.942 . S
H135 C152 0.940 . S
H136 C153 0.939 . S
H137 C155 0.941 . S
H138 C159 0.939 . S
O139 P128 1.490 . S
H140 C156 0.939 . S
H141 C158 0.940 . S
C142 P128 1.812 . S
C142 C143 1.389 . S
C142 C147 1.391 . S
C143 H129 0.941 . S
C143 C142 1.389 . S
C143 C144 1.397 . S
C144 H130 0.939 . S
C144 C143 1.397 . S
C144 C145 1.378 . S
C145 C144 1.378 . S
C145 C146 1.378 . S
C146 H131 0.940 . S
C146 C145 1.378 . S
C146 C147 1.396 . S
C147 H132 0.940 . S
C147 C142 1.391 . S
C147 C146 1.396 . S
C148 P128 1.803 . S
C148 C149 1.378 . S
C148 C153 1.400 . S
C149 H133 0.939 . S
C149 C148 1.378 . S
C149 C150 1.361 . S
C150 H134 0.942 . S
C150 C149 1.361 . S
C150 C151 1.369 . S
C151 C150 1.369 . S
C151 C152 1.404 . S
C152 H135 0.940 . S
C152 C151 1.404 . S
C152 C153 1.389 . S
C153 H136 0.939 . S
C153 C148 1.400 . S
C153 C152 1.389 . S
C154 P128 1.819 . S
C154 C155 1.391 . S
C154 C159 1.391 . S
C155 H137 0.941 . S
C155 C154 1.391 . S
C155 C156 1.396 . S
C156 H140 0.939 . S
C156 C155 1.396 . S
C156 C157 1.397 . S
C157 C156 1.397 . S
C157 C158 1.385 . S
C158 H141 0.940 . S
C158 C157 1.385 . S
C158 C159 1.388 . S
C159 H138 0.939 . S
C159 C154 1.391 . S
C159 C158 1.388 . S
P160 O171 1.490 . S
P160 C174 1.812 . S
P160 C180 1.803 . S
P160 C186 1.819 . S
H161 C175 0.941 . S
H162 C176 0.939 . S
H163 C178 0.940 . S
H164 C179 0.940 . S
H165 C181 0.939 . S
H166 C182 0.942 . S
H167 C184 0.940 . S
H168 C185 0.939 . S
H169 C187 0.941 . S
H170 C191 0.939 . S
O171 P160 1.490 . S
H172 C188 0.939 . S
H173 C190 0.940 . S
C174 P160 1.812 . S
C174 C175 1.389 . S
C174 C179 1.391 . S
C175 H161 0.941 . S
C175 C174 1.389 . S
C175 C176 1.397 . S
C176 H162 0.939 . S
C176 C175 1.397 . S
C176 C177 1.378 . S
C177 C176 1.378 . S
C177 C178 1.378 . S
C178 H163 0.940 . S
C178 C177 1.378 . S
C178 C179 1.396 . S
C179 H164 0.940 . S
C179 C174 1.391 . S
C179 C178 1.396 . S
C180 P160 1.803 . S
C180 C181 1.378 . S
C180 C185 1.400 . S
C181 H165 0.939 . S
C181 C180 1.378 . S
C181 C182 1.361 . S
C182 H166 0.942 . S
C182 C181 1.361 . S
C182 C183 1.369 . S
C183 C182 1.369 . S
C183 C184 1.404 . S
C184 H167 0.940 . S
C184 C183 1.404 . S
C184 C185 1.389 . S
C185 H168 0.939 . S
C185 C180 1.400 . S
C185 C184 1.389 . S
C186 P160 1.819 . S
C186 C187 1.391 . S
C186 C191 1.391 . S
C187 H169 0.941 . S
C187 C186 1.391 . S
C187 C188 1.396 . S
C188 H172 0.939 . S
C188 C187 1.396 . S
C188 C189 1.397 . S
C189 C188 1.397 . S
C189 C190 1.385 . S
C190 H173 0.940 . S
C190 C189 1.385 . S
C190 C191 1.388 . S
C191 H170 0.939 . S
C191 C186 1.391 . S
C191 C190 1.388 . S
P192 O203 1.490 . S
P192 C206 1.812 . S
P192 C212 1.803 . S
P192 C218 1.819 . S
H193 C207 0.941 . S
H194 C208 0.939 . S
H195 C210 0.940 . S
H196 C211 0.940 . S
H197 C213 0.939 . S
H198 C214 0.942 . S
H199 C216 0.940 . S
H200 C217 0.939 . S
H201 C219 0.941 . S
H202 C223 0.939 . S
O203 P192 1.490 . S
H204 C220 0.939 . S
H205 C222 0.940 . S
C206 P192 1.812 . S
C206 C207 1.389 . S
C206 C211 1.391 . S
C207 H193 0.941 . S
C207 C206 1.389 . S
C207 C208 1.397 . S
C208 H194 0.939 . S
C208 C207 1.397 . S
C208 C209 1.378 . S
C209 C208 1.378 . S
C209 C210 1.378 . S
C210 H195 0.940 . S
C210 C209 1.378 . S
C210 C211 1.396 . S
C211 H196 0.940 . S
C211 C206 1.391 . S
C211 C210 1.396 . S
C212 P192 1.803 . S
C212 C213 1.378 . S
C212 C217 1.400 . S
C213 H197 0.939 . S
C213 C212 1.378 . S
C213 C214 1.361 . S
C214 H198 0.942 . S
C214 C213 1.361 . S
C214 C215 1.369 . S
C215 C214 1.369 . S
C215 C216 1.404 . S
C216 H199 0.940 . S
C216 C215 1.404 . S
C216 C217 1.389 . S
C217 H200 0.939 . S
C217 C212 1.400 . S
C217 C216 1.389 . S
C218 P192 1.819 . S
C218 C219 1.391 . S
C218 C223 1.391 . S
C219 H201 0.941 . S
C219 C218 1.391 . S
C219 C220 1.396 . S
C220 H204 0.939 . S
C220 C219 1.396 . S
C220 C221 1.397 . S
C221 C220 1.397 . S
C221 C222 1.385 . S
C222 H205 0.940 . S
C222 C221 1.385 . S
C222 C223 1.388 . S
C223 H202 0.939 . S
C223 C218 1.391 . S
C223 C222 1.388 . S
P224 O235 1.490 . S
P224 C238 1.812 . S
P224 C244 1.803 . S
P224 C250 1.819 . S
H225 C239 0.941 . S
H226 C240 0.939 . S
H227 C242 0.940 . S
H228 C243 0.940 . S
H229 C245 0.939 . S
H230 C246 0.942 . S
H231 C248 0.940 . S
H232 C249 0.939 . S
H233 C251 0.941 . S
H234 C255 0.939 . S
O235 P224 1.490 . S
H236 C252 0.939 . S
H237 C254 0.940 . S
C238 P224 1.812 . S
C238 C239 1.389 . S
C238 C243 1.391 . S
C239 H225 0.941 . S
C239 C238 1.389 . S
C239 C240 1.397 . S
C240 H226 0.939 . S
C240 C239 1.397 . S
C240 C241 1.378 . S
C241 C240 1.378 . S
C241 C242 1.378 . S
C242 H227 0.940 . S
C242 C241 1.378 . S
C242 C243 1.396 . S
C243 H228 0.940 . S
C243 C238 1.391 . S
C243 C242 1.396 . S
C244 P224 1.803 . S
C244 C245 1.378 . S
C244 C249 1.400 . S
C245 H229 0.939 . S
C245 C244 1.378 . S
C245 C246 1.361 . S
C246 H230 0.942 . S
C246 C245 1.361 . S
C246 C247 1.369 . S
C247 C246 1.369 . S
C247 C248 1.404 . S
C248 H231 0.940 . S
C248 C247 1.404 . S
C248 C249 1.389 . S
C249 H232 0.939 . S
C249 C244 1.400 . S
C249 C248 1.389 . S
C250 P224 1.819 . S
C250 C251 1.391 . S
C250 C255 1.391 . S
C251 H233 0.941 . S
C251 C250 1.391 . S
C251 C252 1.396 . S
C252 H236 0.939 . S
C252 C251 1.396 . S
C252 C253 1.397 . S
C253 C252 1.397 . S
C253 C254 1.385 . S
C254 H237 0.940 . S
C254 C253 1.385 . S
C254 C255 1.388 . S
C255 H234 0.939 . S
C255 C250 1.391 . S
C255 C254 1.388 . S
Tb256 C258 2.781 1_545 S
Tb256 O276 2.443 1_545 S
Tb256 O277 2.434 1_545 S
Tb256 O278 2.677 1_655 S
Tb256 O279 2.438 1_655 S
Tb256 O280 2.352 1_645 S
Tb256 O284 2.294 1_545 S
Tb256 O287 2.371 . S
Tb257 C267 2.809 . S
Tb257 O278 2.325 . S
Tb257 O281 2.341 1_545 S
Tb257 O282 2.484 . S
Tb257 O283 2.440 . S
Tb257 O284 2.658 1_445 S
Tb257 O285 2.409 1_545 S
Tb257 O286 2.342 1_455 S
C258 Tb256 2.781 1_565 S
C258 C259 1.514 . S
C258 O276 1.248 . S
C258 O277 1.266 . S
C259 C258 1.514 . S
C259 C260 1.359 . S
C259 C264 1.348 . S
C260 C259 1.359 . S
C260 C261 1.380 . S
C260 H288 0.929 . S
C261 C260 1.380 . S
C261 C262 1.347 . S
C261 H289 0.931 . S
C262 C261 1.347 . S
C262 C263 1.369 . S
C263 C262 1.369 . S
C263 C264 1.408 . S
C263 H290 0.930 . S
C264 C259 1.348 . S
C264 C263 1.408 . S
C264 H291 0.930 . S
C265 O278 1.281 . S
C265 O279 1.260 . S
C266 O280 1.236 . S
C266 O281 1.266 . S
C267 Tb257 2.809 . S
C267 C268 1.514 . S
C267 O282 1.248 . S
C267 O283 1.266 . S
C268 C267 1.514 . S
C268 C269 1.359 . S
C268 C273 1.348 . S
C269 C268 1.359 . S
C269 C270 1.380 . S
C269 H292 0.929 . S
C270 C269 1.380 . S
C270 C271 1.347 . S
C270 H293 0.931 . S
C271 C270 1.347 . S
C271 C272 1.369 . S
C272 C271 1.369 . S
C272 C273 1.408 . S
C272 H294 0.930 . S
C273 C268 1.348 . S
C273 C272 1.408 . S
C273 H295 0.930 . S
C274 O284 1.281 . S
C274 O285 1.254 1_655 S
C275 O286 1.274 . S
C275 O287 1.266 . S
O276 Tb256 2.443 1_565 S
O276 C258 1.248 . S
O277 Tb256 2.434 1_565 S
O277 C258 1.266 . S
O278 Tb256 2.677 1_455 S
O278 Tb257 2.325 . S
O278 C265 1.281 . S
O279 Tb256 2.438 1_455 S
O279 C265 1.260 . S
O280 Tb256 2.352 1_465 S
O280 C266 1.236 . S
O281 Tb257 2.341 1_565 S
O281 C266 1.266 . S
O282 Tb257 2.484 . S
O282 C267 1.248 . S
O283 Tb257 2.440 . S
O283 C267 1.266 . S
O284 Tb256 2.294 1_565 S
O284 Tb257 2.658 1_665 S
O284 C274 1.281 . S
O285 Tb257 2.409 1_565 S
O285 C274 1.254 1_455 S
O286 Tb257 2.342 1_655 S
O286 C275 1.274 . S
O287 Tb256 2.371 . S
O287 C275 1.266 . S
H288 C260 0.929 . S
H289 C261 0.931 . S
H290 C263 0.930 . S
H291 C264 0.930 . S
H292 C269 0.929 . S
H293 C270 0.931 . S
H294 C272 0.930 . S
H295 C273 0.930 . S
Tb296 C298 2.809 . S
Tb296 O316 2.484 . S
Tb296 O317 2.440 . S
Tb296 O318 2.658 1_545 S
Tb296 O319 2.409 1_545 S
Tb296 O320 2.378 . S
Tb296 O324 2.325 1_554 S
Tb296 O327 2.341 1_544 S
Tb297 C307 2.809 1_545 S
Tb297 O318 2.325 1_546 S
Tb297 O321 2.341 1_556 S
Tb297 O322 2.484 1_545 S
Tb297 O323 2.440 1_545 S
Tb297 O324 2.658 . S
Tb297 O325 2.409 . S
Tb297 O326 2.378 1_545 S
C298 Tb296 2.809 . S
C298 C299 1.514 . S
C298 O316 1.248 . S
C298 O317 1.266 . S
C299 C298 1.514 . S
C299 C300 1.359 . S
C299 C304 1.348 . S
C300 C299 1.359 . S
C300 C301 1.380 . S
C300 H328 0.929 . S
C301 C300 1.380 . S
C301 C302 1.347 . S
C301 H329 0.931 . S
C302 C301 1.347 . S
C302 C303 1.369 . S
C303 C302 1.369 . S
C303 C304 1.408 . S
C303 H330 0.930 . S
C304 C299 1.348 . S
C304 C303 1.408 . S
C304 H331 0.930 . S
C305 O318 1.281 . S
C305 O319 1.254 . S
C306 O320 1.236 . S
C306 O321 1.266 . S
C307 Tb297 2.809 1_565 S
C307 C308 1.514 . S
C307 O322 1.248 . S
C307 O323 1.266 . S
C308 C307 1.514 . S
C308 C309 1.359 . S
C308 C313 1.348 . S
C309 C308 1.359 . S
C309 C310 1.380 . S
C309 H332 0.929 . S
C310 C309 1.380 . S
C310 C311 1.347 . S
C310 H333 0.931 . S
C311 C310 1.347 . S
C311 C312 1.369 . S
C312 C311 1.369 . S
C312 C313 1.408 . S
C312 H334 0.930 . S
C313 C308 1.348 . S
C313 C312 1.408 . S
C313 H335 0.930 . S
C314 O324 1.281 . S
C314 O325 1.254 . S
C315 O326 1.236 . S
C315 O327 1.266 . S
O316 Tb296 2.484 . S
O316 C298 1.248 . S
O317 Tb296 2.440 . S
O317 C298 1.266 . S
O318 Tb296 2.658 1_565 S
O318 Tb297 2.325 1_564 S
O318 C305 1.281 . S
O319 Tb296 2.409 1_565 S
O319 C305 1.254 . S
O320 Tb296 2.378 . S
O320 C306 1.236 . S
O321 Tb297 2.341 1_554 S
O321 C306 1.266 . S
O322 Tb297 2.484 1_565 S
O322 C307 1.248 . S
O323 Tb297 2.440 1_565 S
O323 C307 1.266 . S
O324 Tb296 2.325 1_556 S
O324 Tb297 2.658 . S
O324 C314 1.281 . S
O325 Tb297 2.409 . S
O325 C314 1.254 . S
O326 Tb297 2.378 1_565 S
O326 C315 1.236 . S
O327 Tb296 2.341 1_566 S
O327 C315 1.266 . S
H328 C300 0.929 . S
H329 C301 0.931 . S
H330 C303 0.930 . S
H331 C304 0.930 . S
H332 C309 0.929 . S
H333 C310 0.931 . S
H334 C312 0.930 . S
H335 C313 0.930 . S
Tb336 C338 2.809 . S
Tb336 O356 2.484 . S
Tb336 O357 2.440 . S
Tb336 O358 2.658 . S
Tb336 O359 2.409 . S
Tb336 O360 2.378 . S
Tb336 O364 2.325 . S
Tb336 O367 2.341 . S
Tb337 C347 2.809 . S
Tb337 O358 2.325 . S
Tb337 O361 2.341 . S
Tb337 O362 2.484 . S
Tb337 O363 2.440 . S
Tb337 O364 2.658 . S
Tb337 O365 2.409 . S
Tb337 O366 2.378 . S
C338 Tb336 2.809 . S
C338 C339 1.514 . S
C338 O356 1.248 . S
C338 O357 1.266 . S
C339 C338 1.514 . S
C339 C340 1.359 . S
C339 C344 1.348 . S
C340 C339 1.359 . S
C340 C341 1.380 . S
C340 H368 0.929 . S
C341 C340 1.380 . S
C341 C342 1.347 . S
C341 H369 0.931 . S
C342 C341 1.347 . S
C342 C343 1.369 . S
C343 C342 1.369 . S
C343 C344 1.408 . S
C343 H370 0.930 . S
C344 C339 1.348 . S
C344 C343 1.408 . S
C344 H371 0.930 . S
C345 O358 1.281 . S
C345 O359 1.254 . S
C346 O360 1.236 . S
C346 O361 1.266 . S
C347 Tb337 2.809 . S
C347 C348 1.514 . S
C347 O362 1.248 . S
C347 O363 1.266 . S
C348 C347 1.514 . S
C348 C349 1.359 . S
C348 C353 1.348 . S
C349 C348 1.359 . S
C349 C350 1.380 . S
C349 H372 0.929 . S
C350 C349 1.380 . S
C350 C351 1.347 . S
C350 H373 0.931 . S
C351 C350 1.347 . S
C351 C352 1.369 . S
C352 C351 1.369 . S
C352 C353 1.408 . S
C352 H374 0.930 . S
C353 C348 1.348 . S
C353 C352 1.408 . S
C353 H375 0.930 . S
C354 O364 1.281 . S
C354 O365 1.254 . S
C355 O366 1.236 . S
C355 O367 1.266 . S
O356 Tb336 2.484 . S
O356 C338 1.248 . S
O357 Tb336 2.440 . S
O357 C338 1.266 . S
O358 Tb336 2.658 . S
O358 Tb337 2.325 . S
O358 C345 1.281 . S
O359 Tb336 2.409 . S
O359 C345 1.254 . S
O360 Tb336 2.378 . S
O360 C346 1.236 . S
O361 Tb337 2.341 . S
O361 C346 1.266 . S
O362 Tb337 2.484 . S
O362 C347 1.248 . S
O363 Tb337 2.440 . S
O363 C347 1.266 . S
O364 Tb336 2.325 . S
O364 Tb337 2.658 . S
O364 C354 1.281 . S
O365 Tb337 2.409 . S
O365 C354 1.254 . S
O366 Tb337 2.378 . S
O366 C355 1.236 . S
O367 Tb336 2.341 . S
O367 C355 1.266 . S
H368 C340 0.929 . S
H369 C341 0.931 . S
H370 C343 0.930 . S
H371 C344 0.930 . S
H372 C349 0.929 . S
H373 C350 0.931 . S
H374 C352 0.930 . S
H375 C353 0.930 . S
Tb376 C378 2.784 1_455 S
Tb376 O396 2.451 1_455 S
Tb376 O397 2.429 1_455 S
Tb376 O398 2.679 1_556 S
Tb376 O399 2.423 1_556 S
Tb376 O400 2.364 1_456 S
Tb376 O404 2.310 1_455 S
Tb376 O407 2.365 . S
Tb377 C387 2.809 . S
Tb377 O398 2.325 . S
Tb377 O401 2.341 1_455 S
Tb377 O402 2.484 . S
Tb377 O403 2.440 . S
Tb377 O404 2.658 1_454 S
Tb377 O405 2.431 1_455 S
Tb377 O406 2.378 1_554 S
C378 Tb376 2.784 1_655 S
C378 C379 1.514 . S
C378 O396 1.248 . S
C378 O397 1.266 . S
C379 C378 1.514 . S
C379 C380 1.359 . S
C379 C384 1.348 . S
C380 C379 1.359 . S
C380 C381 1.380 . S
C380 H408 0.929 . S
C381 C380 1.380 . S
C381 C382 1.347 . S
C381 H409 0.931 . S
C382 C381 1.347 . S
C382 C383 1.369 . S
C383 C382 1.369 . S
C383 C384 1.408 . S
C383 H410 0.930 . S
C384 C379 1.348 . S
C384 C383 1.408 . S
C384 H411 0.930 . S
C385 O398 1.281 . S
C385 O399 1.265 . S
C386 O400 1.236 . S
C386 O401 1.266 . S
C387 Tb377 2.809 . S
C387 C388 1.514 . S
C387 O402 1.248 . S
C387 O403 1.266 . S
C388 C387 1.514 . S
C388 C389 1.359 . S
C388 C393 1.348 . S
C389 C388 1.359 . S
C389 C390 1.380 . S
C389 H412 0.929 . S
C390 C389 1.380 . S
C390 C391 1.347 . S
C390 H413 0.931 . S
C391 C390 1.347 . S
C391 C392 1.369 . S
C392 C391 1.369 . S
C392 C393 1.408 . S
C392 H414 0.930 . S
C393 C388 1.348 . S
C393 C392 1.408 . S
C393 H415 0.930 . S
C394 O404 1.281 . S
C394 O405 1.229 1_556 S
C395 O406 1.236 . S
C395 O407 1.266 . S
O396 Tb376 2.451 1_655 S
O396 C378 1.248 . S
O397 Tb376 2.429 1_655 S
O397 C378 1.266 . S
O398 Tb376 2.679 1_554 S
O398 Tb377 2.325 . S
O398 C385 1.281 . S
O399 Tb376 2.423 1_554 S
O399 C385 1.265 . S
O400 Tb376 2.364 1_654 S
O400 C386 1.236 . S
O401 Tb377 2.341 1_655 S
O401 C386 1.266 . S
O402 Tb377 2.484 . S
O402 C387 1.248 . S
O403 Tb377 2.440 . S
O403 C387 1.266 . S
O404 Tb376 2.310 1_655 S
O404 Tb377 2.658 1_656 S
O404 C394 1.281 . S
O405 Tb377 2.431 1_655 S
O405 C394 1.229 1_554 S
O406 Tb377 2.378 1_556 S
O406 C395 1.236 . S
O407 Tb376 2.365 . S
O407 C395 1.266 . S
H408 C380 0.929 . S
H409 C381 0.931 . S
H410 C383 0.930 . S
H411 C384 0.930 . S
H412 C389 0.929 . S
H413 C390 0.931 . S
H414 C392 0.930 . S
H415 C393 0.930 . S
H416 C434 0.951 . S
H417 C436 0.951 . S
H418 C438 0.950 . S
H419 C439 0.950 . S
H420 C441 0.950 . S
H421 C444 0.950 . S
H422 C445 0.950 . S
H423 C447 0.950 . S
H424 C448 0.950 . S
H425 C449 0.951 . S
H426 C451 0.951 . S
H427 C453 0.950 . S
H428 C454 0.950 . S
H429 C456 0.950 . S
H430 C459 0.950 . S
H431 C460 0.950 . S
H432 C462 0.950 . S
H433 C463 0.950 . S
C434 H416 0.951 . S
C434 C435 1.366 . S
C434 C436 1.388 . S
C435 C434 1.366 . S
C435 C439 1.385 . S
C436 H417 0.951 . S
C436 C434 1.388 . S
C436 C437 1.366 . S
C437 C436 1.366 . S
C437 C438 1.414 . S
C437 C440 1.499 . S
C438 H418 0.950 . S
C438 C437 1.414 . S
C438 C439 1.374 . S
C439 H419 0.950 . S
C439 C435 1.385 . S
C439 C438 1.374 . S
C440 C437 1.499 . S
C440 C441 1.373 . S
C440 C442 1.389 . S
C441 H420 0.950 . S
C441 C440 1.373 . S
C441 C457 1.377 . S
C442 C440 1.389 . S
C442 C443 1.524 . S
C442 C456 1.377 . S
C443 C442 1.524 . S
C443 C444 1.397 . S
C443 C448 1.363 . S
C444 H421 0.950 . S
C444 C443 1.397 . S
C444 C445 1.334 . S
C445 H422 0.950 . S
C445 C444 1.334 . S
C445 C446 1.287 . S
C446 C445 1.287 . S
C446 C447 1.524 . S
C446 H465 0.913 . S
C447 H423 0.950 . S
C447 C446 1.524 . S
C447 C448 1.415 . S
C448 H424 0.950 . S
C448 C443 1.363 . S
C448 C447 1.415 . S
C449 H425 0.951 . S
C449 C450 1.366 . S
C449 C451 1.388 . S
C450 C449 1.366 . S
C450 C454 1.385 . S
C451 H426 0.951 . S
C451 C449 1.388 . S
C451 C452 1.366 . S
C452 C451 1.366 . S
C452 C453 1.414 . S
C452 C455 1.499 . S
C453 H427 0.950 . S
C453 C452 1.414 . S
C453 C454 1.374 . S
C454 H428 0.950 . S
C454 C450 1.385 . S
C454 C453 1.374 . S
C455 C452 1.499 . S
C455 C456 1.373 . S
C455 C457 1.389 . S
C456 H429 0.950 . S
C456 C442 1.377 . S
C456 C455 1.373 . S
C457 C441 1.377 . S
C457 C455 1.389 . S
C457 C458 1.524 . S
C458 C457 1.524 . S
C458 C459 1.397 . S
C458 C463 1.363 . S
C459 H430 0.950 . S
C459 C458 1.397 . S
C459 C460 1.334 . S
C460 H431 0.950 . S
C460 C459 1.334 . S
C460 C461 1.287 . S
C461 C460 1.287 . S
C461 C462 1.524 . S
C461 H464 0.999 . S
C462 H432 0.950 . S
C462 C461 1.524 . S
C462 C463 1.415 . S
C463 H433 0.950 . S
C463 C458 1.363 . S
C463 C462 1.415 . S
H464 C461 0.999 . S
H465 C446 0.913 . S
H466 C484 0.951 . S
H467 C486 0.951 . S
H468 C488 0.950 . S
H469 C489 0.950 . S
H470 C491 0.950 . S
H471 C494 0.950 . S
H472 C495 0.950 . S
H473 C497 0.950 . S
H474 C498 0.950 . S
H475 C499 0.951 . S
H476 C501 0.951 . S
H477 C503 0.950 . S
H478 C504 0.950 . S
H479 C506 0.950 . S
H480 C509 0.950 . S
H481 C510 0.950 . S
H482 C512 0.950 . S
H483 C513 0.950 . S
C484 H466 0.951 . S
C484 C485 1.366 . S
C484 C486 1.388 . S
C485 C484 1.366 . S
C485 C489 1.385 . S
C486 H467 0.951 . S
C486 C484 1.388 . S
C486 C487 1.366 . S
C487 C486 1.366 . S
C487 C488 1.414 . S
C487 C490 1.499 . S
C488 H468 0.950 . S
C488 C487 1.414 . S
C488 C489 1.374 . S
C489 H469 0.950 . S
C489 C485 1.385 . S
C489 C488 1.374 . S
C490 C487 1.499 . S
C490 C491 1.373 . S
C490 C492 1.389 . S
C491 H470 0.950 . S
C491 C490 1.373 . S
C491 C507 1.377 . S
C492 C490 1.389 . S
C492 C493 1.524 . S
C492 C506 1.377 . S
C493 C492 1.524 . S
C493 C494 1.397 . S
C493 C498 1.363 . S
C494 H471 0.950 . S
C494 C493 1.397 . S
C494 C495 1.334 . S
C495 H472 0.950 . S
C495 C494 1.334 . S
C495 C496 1.287 . S
C496 C495 1.287 . S
C496 C497 1.524 . S
C496 H515 0.913 . S
C497 H473 0.950 . S
C497 C496 1.524 . S
C497 C498 1.415 . S
C498 H474 0.950 . S
C498 C493 1.363 . S
C498 C497 1.415 . S
C499 H475 0.951 . S
C499 C500 1.366 . S
C499 C501 1.388 . S
C500 C499 1.366 . S
C500 C504 1.385 . S
C501 H476 0.951 . S
C501 C499 1.388 . S
C501 C502 1.366 . S
C502 C501 1.366 . S
C502 C503 1.414 . S
C502 C505 1.499 . S
C503 H477 0.950 . S
C503 C502 1.414 . S
C503 C504 1.374 . S
C504 H478 0.950 . S
C504 C500 1.385 . S
C504 C503 1.374 . S
C505 C502 1.499 . S
C505 C506 1.373 . S
C505 C507 1.389 . S
C506 H479 0.950 . S
C506 C492 1.377 . S
C506 C505 1.373 . S
C507 C491 1.377 . S
C507 C505 1.389 . S
C507 C508 1.524 . S
C508 C507 1.524 . S
C508 C509 1.397 . S
C508 C513 1.363 . S
C509 H480 0.950 . S
C509 C508 1.397 . S
C509 C510 1.334 . S
C510 H481 0.950 . S
C510 C509 1.334 . S
C510 C511 1.287 . S
C511 C510 1.287 . S
C511 C512 1.524 . S
C511 H514 0.999 . S
C512 H482 0.950 . S
C512 C511 1.524 . S
C512 C513 1.415 . S
C513 H483 0.950 . S
C513 C508 1.363 . S
C513 C512 1.415 . S
H514 C511 0.999 . S
H515 C496 0.913 . S
H516 C534 0.951 . S
H517 C536 0.951 . S
H518 C538 0.950 . S
H519 C539 0.950 . S
H520 C541 0.950 . S
H521 C544 0.950 . S
H522 C545 0.950 . S
H523 C547 0.950 . S
H524 C548 0.950 . S
H525 C549 0.951 . S
H526 C551 0.951 . S
H527 C553 0.950 . S
H528 C554 0.950 . S
H529 C556 0.950 . S
H530 C559 0.950 . S
H531 C560 0.950 . S
H532 C562 0.950 . S
H533 C563 0.950 . S
C534 H516 0.951 . S
C534 C535 1.366 . S
C534 C536 1.388 . S
C535 C534 1.366 . S
C535 C539 1.385 . S
C536 H517 0.951 . S
C536 C534 1.388 . S
C536 C537 1.366 . S
C537 C536 1.366 . S
C537 C538 1.414 . S
C537 C540 1.499 . S
C538 H518 0.950 . S
C538 C537 1.414 . S
C538 C539 1.374 . S
C539 H519 0.950 . S
C539 C535 1.385 . S
C539 C538 1.374 . S
C540 C537 1.499 . S
C540 C541 1.373 . S
C540 C542 1.389 . S
C541 H520 0.950 . S
C541 C540 1.373 . S
C541 C557 1.377 . S
C542 C540 1.389 . S
C542 C543 1.524 . S
C542 C556 1.377 . S
C543 C542 1.524 . S
C543 C544 1.397 . S
C543 C548 1.363 . S
C544 H521 0.950 . S
C544 C543 1.397 . S
C544 C545 1.334 . S
C545 H522 0.950 . S
C545 C544 1.334 . S
C545 C546 1.287 . S
C546 C545 1.287 . S
C546 C547 1.524 . S
C546 H565 0.913 . S
C547 H523 0.950 . S
C547 C546 1.524 . S
C547 C548 1.415 . S
C548 H524 0.950 . S
C548 C543 1.363 . S
C548 C547 1.415 . S
C549 H525 0.951 . S
C549 C550 1.366 . S
C549 C551 1.388 . S
C550 C549 1.366 . S
C550 C554 1.385 . S
C551 H526 0.951 . S
C551 C549 1.388 . S
C551 C552 1.366 . S
C552 C551 1.366 . S
C552 C553 1.414 . S
C552 C555 1.499 . S
C553 H527 0.950 . S
C553 C552 1.414 . S
C553 C554 1.374 . S
C554 H528 0.950 . S
C554 C550 1.385 . S
C554 C553 1.374 . S
C555 C552 1.499 . S
C555 C556 1.373 . S
C555 C557 1.389 . S
C556 H529 0.950 . S
C556 C542 1.377 . S
C556 C555 1.373 . S
C557 C541 1.377 . S
C557 C555 1.389 . S
C557 C558 1.524 . S
C558 C557 1.524 . S
C558 C559 1.397 . S
C558 C563 1.363 . S
C559 H530 0.950 . S
C559 C558 1.397 . S
C559 C560 1.334 . S
C560 H531 0.950 . S
C560 C559 1.334 . S
C560 C561 1.287 . S
C561 C560 1.287 . S
C561 C562 1.524 . S
C561 H564 0.999 . S
C562 H532 0.950 . S
C562 C561 1.524 . S
C562 C563 1.415 . S
C563 H533 0.950 . S
C563 C558 1.363 . S
C563 C562 1.415 . S
H564 C561 0.999 . S
H565 C546 0.913 . S
H566 C584 0.951 . S
H567 C586 0.951 . S
H568 C588 0.950 . S
H569 C589 0.950 . S
H570 C591 0.950 . S
H571 C594 0.950 . S
H572 C595 0.950 . S
H573 C597 0.950 . S
H574 C598 0.950 . S
H575 C599 0.951 . S
H576 C601 0.951 . S
H577 C603 0.950 . S
H578 C604 0.950 . S
H579 C606 0.950 . S
H580 C609 0.950 . S
H581 C610 0.950 . S
H582 C612 0.950 . S
H583 C613 0.950 . S
C584 H566 0.951 . S
C584 C585 1.366 . S
C584 C586 1.388 . S
C585 C584 1.366 . S
C585 C589 1.385 . S
C586 H567 0.951 . S
C586 C584 1.388 . S
C586 C587 1.366 . S
C587 C586 1.366 . S
C587 C588 1.414 . S
C587 C590 1.499 . S
C588 H568 0.950 . S
C588 C587 1.414 . S
C588 C589 1.374 . S
C589 H569 0.950 . S
C589 C585 1.385 . S
C589 C588 1.374 . S
C590 C587 1.499 . S
C590 C591 1.373 . S
C590 C592 1.389 . S
C591 H570 0.950 . S
C591 C590 1.373 . S
C591 C607 1.377 . S
C592 C590 1.389 . S
C592 C593 1.524 . S
C592 C606 1.377 . S
C593 C592 1.524 . S
C593 C594 1.397 . S
C593 C598 1.363 . S
C594 H571 0.950 . S
C594 C593 1.397 . S
C594 C595 1.334 . S
C595 H572 0.950 . S
C595 C594 1.334 . S
C595 C596 1.287 . S
C596 C595 1.287 . S
C596 C597 1.524 . S
C596 H615 0.913 . S
C597 H573 0.950 . S
C597 C596 1.524 . S
C597 C598 1.415 . S
C598 H574 0.950 . S
C598 C593 1.363 . S
C598 C597 1.415 . S
C599 H575 0.951 . S
C599 C600 1.366 . S
C599 C601 1.388 . S
C600 C599 1.366 . S
C600 C604 1.385 . S
C601 H576 0.951 . S
C601 C599 1.388 . S
C601 C602 1.366 . S
C602 C601 1.366 . S
C602 C603 1.414 . S
C602 C605 1.499 . S
C603 H577 0.950 . S
C603 C602 1.414 . S
C603 C604 1.374 . S
C604 H578 0.950 . S
C604 C600 1.385 . S
C604 C603 1.374 . S
C605 C602 1.499 . S
C605 C606 1.373 . S
C605 C607 1.389 . S
C606 H579 0.950 . S
C606 C592 1.377 . S
C606 C605 1.373 . S
C607 C591 1.377 . S
C607 C605 1.389 . S
C607 C608 1.524 . S
C608 C607 1.524 . S
C608 C609 1.397 . S
C608 C613 1.363 . S
C609 H580 0.950 . S
C609 C608 1.397 . S
C609 C610 1.334 . S
C610 H581 0.950 . S
C610 C609 1.334 . S
C610 C611 1.287 . S
C611 C610 1.287 . S
C611 C612 1.524 . S
C611 H614 0.999 . S
C612 H582 0.950 . S
C612 C611 1.524 . S
C612 C613 1.415 . S
C613 H583 0.950 . S
C613 C608 1.363 . S
C613 C612 1.415 . S
H614 C611 0.999 . S
H615 C596 0.913 . S
H616 C634 0.951 . S
H617 C636 0.951 . S
H618 C638 0.950 . S
H619 C639 0.950 . S
H620 C641 0.950 . S
H621 C644 0.950 . S
H622 C645 0.950 . S
H623 C647 0.950 . S
H624 C648 0.950 . S
H625 C649 0.951 . S
H626 C651 0.951 . S
H627 C653 0.950 . S
H628 C654 0.950 . S
H629 C656 0.950 . S
H630 C659 0.950 . S
H631 C660 0.950 . S
H632 C662 0.950 . S
H633 C663 0.950 . S
C634 H616 0.951 . S
C634 C635 1.366 . S
C634 C636 1.388 . S
C635 C634 1.366 . S
C635 C639 1.385 . S
C636 H617 0.951 . S
C636 C634 1.388 . S
C636 C637 1.366 . S
C637 C636 1.366 . S
C637 C638 1.414 . S
C637 C640 1.499 . S
C638 H618 0.950 . S
C638 C637 1.414 . S
C638 C639 1.374 . S
C639 H619 0.950 . S
C639 C635 1.385 . S
C639 C638 1.374 . S
C640 C637 1.499 . S
C640 C641 1.373 . S
C640 C642 1.389 . S
C641 H620 0.950 . S
C641 C640 1.373 . S
C641 C657 1.377 . S
C642 C640 1.389 . S
C642 C643 1.524 . S
C642 C656 1.377 . S
C643 C642 1.524 . S
C643 C644 1.397 . S
C643 C648 1.363 . S
C644 H621 0.950 . S
C644 C643 1.397 . S
C644 C645 1.334 . S
C645 H622 0.950 . S
C645 C644 1.334 . S
C645 C646 1.287 . S
C646 C645 1.287 . S
C646 C647 1.524 . S
C646 H665 0.913 . S
C647 H623 0.950 . S
C647 C646 1.524 . S
C647 C648 1.415 . S
C648 H624 0.950 . S
C648 C643 1.363 . S
C648 C647 1.415 . S
C649 H625 0.951 . S
C649 C650 1.366 . S
C649 C651 1.388 . S
C650 C649 1.366 . S
C650 C654 1.385 . S
C651 H626 0.951 . S
C651 C649 1.388 . S
C651 C652 1.366 . S
C652 C651 1.366 . S
C652 C653 1.414 . S
C652 C655 1.499 . S
C653 H627 0.950 . S
C653 C652 1.414 . S
C653 C654 1.374 . S
C654 H628 0.950 . S
C654 C650 1.385 . S
C654 C653 1.374 . S
C655 C652 1.499 . S
C655 C656 1.373 . S
C655 C657 1.389 . S
C656 H629 0.950 . S
C656 C642 1.377 . S
C656 C655 1.373 . S
C657 C641 1.377 . S
C657 C655 1.389 . S
C657 C658 1.524 . S
C658 C657 1.524 . S
C658 C659 1.397 . S
C658 C663 1.363 . S
C659 H630 0.950 . S
C659 C658 1.397 . S
C659 C660 1.334 . S
C660 H631 0.950 . S
C660 C659 1.334 . S
C660 C661 1.287 . S
C661 C660 1.287 . S
C661 C662 1.524 . S
C661 H664 0.999 . S
C662 H632 0.950 . S
C662 C661 1.524 . S
C662 C663 1.415 . S
C663 H633 0.950 . S
C663 C658 1.363 . S
C663 C662 1.415 . S
H664 C661 0.999 . S
H665 C646 0.913 . S
H666 C684 0.951 . S
H667 C686 0.951 . S
H668 C688 0.950 . S
H669 C689 0.950 . S
H670 C691 0.950 . S
H671 C694 0.950 . S
H672 C695 0.950 . S
H673 C697 0.950 . S
H674 C698 0.950 . S
H675 C699 0.951 . S
H676 C701 0.951 . S
H677 C703 0.950 . S
H678 C704 0.950 . S
H679 C706 0.950 . S
H680 C709 0.950 . S
H681 C710 0.950 . S
H682 C712 0.950 . S
H683 C713 0.950 . S
C684 H666 0.951 . S
C684 C685 1.366 . S
C684 C686 1.388 . S
C685 C684 1.366 . S
C685 C689 1.385 . S
C686 H667 0.951 . S
C686 C684 1.388 . S
C686 C687 1.366 . S
C687 C686 1.366 . S
C687 C688 1.414 . S
C687 C690 1.499 . S
C688 H668 0.950 . S
C688 C687 1.414 . S
C688 C689 1.374 . S
C689 H669 0.950 . S
C689 C685 1.385 . S
C689 C688 1.374 . S
C690 C687 1.499 . S
C690 C691 1.373 . S
C690 C692 1.389 . S
C691 H670 0.950 . S
C691 C690 1.373 . S
C691 C707 1.377 . S
C692 C690 1.389 . S
C692 C693 1.524 . S
C692 C706 1.377 . S
C693 C692 1.524 . S
C693 C694 1.397 . S
C693 C698 1.363 . S
C694 H671 0.950 . S
C694 C693 1.397 . S
C694 C695 1.334 . S
C695 H672 0.950 . S
C695 C694 1.334 . S
C695 C696 1.287 . S
C696 C695 1.287 . S
C696 C697 1.524 . S
C696 H715 0.913 . S
C697 H673 0.950 . S
C697 C696 1.524 . S
C697 C698 1.415 . S
C698 H674 0.950 . S
C698 C693 1.363 . S
C698 C697 1.415 . S
C699 H675 0.951 . S
C699 C700 1.366 . S
C699 C701 1.388 . S
C700 C699 1.366 . S
C700 C704 1.385 . S
C701 H676 0.951 . S
C701 C699 1.388 . S
C701 C702 1.366 . S
C702 C701 1.366 . S
C702 C703 1.414 . S
C702 C705 1.499 . S
C703 H677 0.950 . S
C703 C702 1.414 . S
C703 C704 1.374 . S
C704 H678 0.950 . S
C704 C700 1.385 . S
C704 C703 1.374 . S
C705 C702 1.499 . S
C705 C706 1.373 . S
C705 C707 1.389 . S
C706 H679 0.950 . S
C706 C692 1.377 . S
C706 C705 1.373 . S
C707 C691 1.377 . S
C707 C705 1.389 . S
C707 C708 1.524 . S
C708 C707 1.524 . S
C708 C709 1.397 . S
C708 C713 1.363 . S
C709 H680 0.950 . S
C709 C708 1.397 . S
C709 C710 1.334 . S
C710 H681 0.950 . S
C710 C709 1.334 . S
C710 C711 1.287 . S
C711 C710 1.287 . S
C711 C712 1.524 . S
C711 H714 0.999 . S
C712 H682 0.950 . S
C712 C711 1.524 . S
C712 C713 1.415 . S
C713 H683 0.950 . S
C713 C708 1.363 . S
C713 C712 1.415 . S
H714 C711 0.999 . S
H715 C696 0.913 . S
H716 C734 0.951 . S
H717 C736 0.951 . S
H718 C738 0.950 . S
H719 C739 0.950 . S
H720 C741 0.950 . S
H721 C744 0.950 . S
H722 C745 0.950 . S
H723 C747 0.950 . S
H724 C748 0.950 . S
H725 C749 0.951 . S
H726 C751 0.951 . S
H727 C753 0.950 . S
H728 C754 0.950 . S
H729 C756 0.950 . S
H730 C759 0.950 . S
H731 C760 0.950 . S
H732 C762 0.950 . S
H733 C763 0.950 . S
C734 H716 0.951 . S
C734 C735 1.366 . S
C734 C736 1.388 . S
C735 C734 1.366 . S
C735 C739 1.385 . S
C736 H717 0.951 . S
C736 C734 1.388 . S
C736 C737 1.366 . S
C737 C736 1.366 . S
C737 C738 1.414 . S
C737 C740 1.499 . S
C738 H718 0.950 . S
C738 C737 1.414 . S
C738 C739 1.374 . S
C739 H719 0.950 . S
C739 C735 1.385 . S
C739 C738 1.374 . S
C740 C737 1.499 . S
C740 C741 1.373 . S
C740 C742 1.389 . S
C741 H720 0.950 . S
C741 C740 1.373 . S
C741 C757 1.377 . S
C742 C740 1.389 . S
C742 C743 1.524 . S
C742 C756 1.377 . S
C743 C742 1.524 . S
C743 C744 1.397 . S
C743 C748 1.363 . S
C744 H721 0.950 . S
C744 C743 1.397 . S
C744 C745 1.334 . S
C745 H722 0.950 . S
C745 C744 1.334 . S
C745 C746 1.287 . S
C746 C745 1.287 . S
C746 C747 1.524 . S
C746 H765 0.913 . S
C747 H723 0.950 . S
C747 C746 1.524 . S
C747 C748 1.415 . S
C748 H724 0.950 . S
C748 C743 1.363 . S
C748 C747 1.415 . S
C749 H725 0.951 . S
C749 C750 1.366 . S
C749 C751 1.388 . S
C750 C749 1.366 . S
C750 C754 1.385 . S
C751 H726 0.951 . S
C751 C749 1.388 . S
C751 C752 1.366 . S
C752 C751 1.366 . S
C752 C753 1.414 . S
C752 C755 1.499 . S
C753 H727 0.950 . S
C753 C752 1.414 . S
C753 C754 1.374 . S
C754 H728 0.950 . S
C754 C750 1.385 . S
C754 C753 1.374 . S
C755 C752 1.499 . S
C755 C756 1.373 . S
C755 C757 1.389 . S
C756 H729 0.950 . S
C756 C742 1.377 . S
C756 C755 1.373 . S
C757 C741 1.377 . S
C757 C755 1.389 . S
C757 C758 1.524 . S
C758 C757 1.524 . S
C758 C759 1.397 . S
C758 C763 1.363 . S
C759 H730 0.950 . S
C759 C758 1.397 . S
C759 C760 1.334 . S
C760 H731 0.950 . S
C760 C759 1.334 . S
C760 C761 1.287 . S
C761 C760 1.287 . S
C761 C762 1.524 . S
C761 H764 0.999 . S
C762 H732 0.950 . S
C762 C761 1.524 . S
C762 C763 1.415 . S
C763 H733 0.950 . S
C763 C758 1.363 . S
C763 C762 1.415 . S
H764 C761 0.999 . S
H765 C746 0.913 . S
H766 C784 0.951 . S
H767 C786 0.951 . S
H768 C788 0.950 . S
H769 C789 0.950 . S
H770 C791 0.950 . S
H771 C794 0.950 . S
H772 C795 0.950 . S
H773 C797 0.950 . S
H774 C798 0.950 . S
H775 C799 0.951 . S
H776 C801 0.951 . S
H777 C803 0.950 . S
H778 C804 0.950 . S
H779 C806 0.950 . S
H780 C809 0.950 . S
H781 C810 0.950 . S
H782 C812 0.950 . S
H783 C813 0.950 . S
C784 H766 0.951 . S
C784 C785 1.366 . S
C784 C786 1.388 . S
C785 C784 1.366 . S
C785 C789 1.385 . S
C786 H767 0.951 . S
C786 C784 1.388 . S
C786 C787 1.366 . S
C787 C786 1.366 . S
C787 C788 1.414 . S
C787 C790 1.499 . S
C788 H768 0.950 . S
C788 C787 1.414 . S
C788 C789 1.374 . S
C789 H769 0.950 . S
C789 C785 1.385 . S
C789 C788 1.374 . S
C790 C787 1.499 . S
C790 C791 1.373 . S
C790 C792 1.389 . S
C791 H770 0.950 . S
C791 C790 1.373 . S
C791 C807 1.377 . S
C792 C790 1.389 . S
C792 C793 1.524 . S
C792 C806 1.377 . S
C793 C792 1.524 . S
C793 C794 1.397 . S
C793 C798 1.363 . S
C794 H771 0.950 . S
C794 C793 1.397 . S
C794 C795 1.334 . S
C795 H772 0.950 . S
C795 C794 1.334 . S
C795 C796 1.287 . S
C796 C795 1.287 . S
C796 C797 1.524 . S
C796 H815 0.913 . S
C797 H773 0.950 . S
C797 C796 1.524 . S
C797 C798 1.415 . S
C798 H774 0.950 . S
C798 C793 1.363 . S
C798 C797 1.415 . S
C799 H775 0.951 . S
C799 C800 1.366 . S
C799 C801 1.388 . S
C800 C799 1.366 . S
C800 C804 1.385 . S
C801 H776 0.951 . S
C801 C799 1.388 . S
C801 C802 1.366 . S
C802 C801 1.366 . S
C802 C803 1.414 . S
C802 C805 1.499 . S
C803 H777 0.950 . S
C803 C802 1.414 . S
C803 C804 1.374 . S
C804 H778 0.950 . S
C804 C800 1.385 . S
C804 C803 1.374 . S
C805 C802 1.499 . S
C805 C806 1.373 . S
C805 C807 1.389 . S
C806 H779 0.950 . S
C806 C792 1.377 . S
C806 C805 1.373 . S
C807 C791 1.377 . S
C807 C805 1.389 . S
C807 C808 1.524 . S
C808 C807 1.524 . S
C808 C809 1.397 . S
C808 C813 1.363 . S
C809 H780 0.950 . S
C809 C808 1.397 . S
C809 C810 1.334 . S
C810 H781 0.950 . S
C810 C809 1.334 . S
C810 C811 1.287 . S
C811 C810 1.287 . S
C811 C812 1.524 . S
C811 H814 0.999 . S
C812 H782 0.950 . S
C812 C811 1.524 . S
C812 C813 1.415 . S
C813 H783 0.950 . S
C813 C808 1.363 . S
C813 C812 1.415 . S
H814 C811 0.999 . S
H815 C796 0.913 . S
H816 C834 0.951 . S
H817 C836 0.951 . S
H818 C838 0.950 . S
H819 C839 0.950 . S
H820 C841 0.950 . S
H821 C844 0.950 . S
H822 C845 0.950 . S
H823 C847 0.950 . S
H824 C848 0.950 . S
H825 C849 0.951 . S
H826 C851 0.951 . S
H827 C853 0.950 . S
H828 C854 0.950 . S
H829 C856 0.950 . S
H830 C859 0.950 . S
H831 C860 0.950 . S
H832 C862 0.950 . S
H833 C863 0.950 . S
C834 H816 0.951 . S
C834 C835 1.366 . S
C834 C836 1.388 . S
C835 C834 1.366 . S
C835 C839 1.385 . S
C836 H817 0.951 . S
C836 C834 1.388 . S
C836 C837 1.366 . S
C837 C836 1.366 . S
C837 C838 1.414 . S
C837 C840 1.499 . S
C838 H818 0.950 . S
C838 C837 1.414 . S
C838 C839 1.374 . S
C839 H819 0.950 . S
C839 C835 1.385 . S
C839 C838 1.374 . S
C840 C837 1.499 . S
C840 C841 1.373 . S
C840 C842 1.389 . S
C841 H820 0.950 . S
C841 C840 1.373 . S
C841 C857 1.377 . S
C842 C840 1.389 . S
C842 C843 1.524 . S
C842 C856 1.377 . S
C843 C842 1.524 . S
C843 C844 1.397 . S
C843 C848 1.363 . S
C844 H821 0.950 . S
C844 C843 1.397 . S
C844 C845 1.334 . S
C845 H822 0.950 . S
C845 C844 1.334 . S
C845 C846 1.287 . S
C846 C845 1.287 . S
C846 C847 1.524 . S
C846 H865 0.913 . S
C847 H823 0.950 . S
C847 C846 1.524 . S
C847 C848 1.415 . S
C848 H824 0.950 . S
C848 C843 1.363 . S
C848 C847 1.415 . S
C849 H825 0.951 . S
C849 C850 1.366 . S
C849 C851 1.388 . S
C850 C849 1.366 . S
C850 C854 1.385 . S
C851 H826 0.951 . S
C851 C849 1.388 . S
C851 C852 1.366 . S
C852 C851 1.366 . S
C852 C853 1.414 . S
C852 C855 1.499 . S
C853 H827 0.950 . S
C853 C852 1.414 . S
C853 C854 1.374 . S
C854 H828 0.950 . S
C854 C850 1.385 . S
C854 C853 1.374 . S
C855 C852 1.499 . S
C855 C856 1.373 . S
C855 C857 1.389 . S
C856 H829 0.950 . S
C856 C842 1.377 . S
C856 C855 1.373 . S
C857 C841 1.377 . S
C857 C855 1.389 . S
C857 C858 1.524 . S
C858 C857 1.524 . S
C858 C859 1.397 . S
C858 C863 1.363 . S
C859 H830 0.950 . S
C859 C858 1.397 . S
C859 C860 1.334 . S
C860 H831 0.950 . S
C860 C859 1.334 . S
C860 C861 1.287 . S
C861 C860 1.287 . S
C861 C862 1.524 . S
C861 H864 0.999 . S
C862 H832 0.950 . S
C862 C861 1.524 . S
C862 C863 1.415 . S
C863 H833 0.950 . S
C863 C858 1.363 . S
C863 C862 1.415 . S
H864 C861 0.999 . S
H865 C846 0.913 . S
H866 C884 0.951 . S
H867 C886 0.951 . S
H868 C888 0.950 . S
H869 C889 0.950 . S
H870 C891 0.950 . S
H871 C894 0.950 . S
H872 C895 0.950 . S
H873 C897 0.950 . S
H874 C898 0.950 . S
H875 C899 0.951 . S
H876 C901 0.951 . S
H877 C903 0.950 . S
H878 C904 0.950 . S
H879 C906 0.950 . S
H880 C909 0.950 . S
H881 C910 0.950 . S
H882 C912 0.950 . S
H883 C913 0.950 . S
C884 H866 0.951 . S
C884 C885 1.366 . S
C884 C886 1.388 . S
C885 C884 1.366 . S
C885 C889 1.385 . S
C886 H867 0.951 . S
C886 C884 1.388 . S
C886 C887 1.366 . S
C887 C886 1.366 . S
C887 C888 1.414 . S
C887 C890 1.499 . S
C888 H868 0.950 . S
C888 C887 1.414 . S
C888 C889 1.374 . S
C889 H869 0.950 . S
C889 C885 1.385 . S
C889 C888 1.374 . S
C890 C887 1.499 . S
C890 C891 1.373 . S
C890 C892 1.389 . S
C891 H870 0.950 . S
C891 C890 1.373 . S
C891 C907 1.377 . S
C892 C890 1.389 . S
C892 C893 1.524 . S
C892 C906 1.377 . S
C893 C892 1.524 . S
C893 C894 1.397 . S
C893 C898 1.363 . S
C894 H871 0.950 . S
C894 C893 1.397 . S
C894 C895 1.334 . S
C895 H872 0.950 . S
C895 C894 1.334 . S
C895 C896 1.287 . S
C896 C895 1.287 . S
C896 C897 1.524 . S
C896 H915 0.913 . S
C897 H873 0.950 . S
C897 C896 1.524 . S
C897 C898 1.415 . S
C898 H874 0.950 . S
C898 C893 1.363 . S
C898 C897 1.415 . S
C899 H875 0.951 . S
C899 C900 1.366 . S
C899 C901 1.388 . S
C900 C899 1.366 . S
C900 C904 1.385 . S
C901 H876 0.951 . S
C901 C899 1.388 . S
C901 C902 1.366 . S
C902 C901 1.366 . S
C902 C903 1.414 . S
C902 C905 1.499 . S
C903 H877 0.950 . S
C903 C902 1.414 . S
C903 C904 1.374 . S
C904 H878 0.950 . S
C904 C900 1.385 . S
C904 C903 1.374 . S
C905 C902 1.499 . S
C905 C906 1.373 . S
C905 C907 1.389 . S
C906 H879 0.950 . S
C906 C892 1.377 . S
C906 C905 1.373 . S
C907 C891 1.377 . S
C907 C905 1.389 . S
C907 C908 1.524 . S
C908 C907 1.524 . S
C908 C909 1.397 . S
C908 C913 1.363 . S
C909 H880 0.950 . S
C909 C908 1.397 . S
C909 C910 1.334 . S
C910 H881 0.950 . S
C910 C909 1.334 . S
C910 C911 1.287 . S
C911 C910 1.287 . S
C911 C912 1.524 . S
C911 H914 0.999 . S
C912 H882 0.950 . S
C912 C911 1.524 . S
C912 C913 1.415 . S
C913 H883 0.950 . S
C913 C908 1.363 . S
C913 C912 1.415 . S
H914 C911 0.999 . S
H915 C896 0.913 . S
H916 C934 0.951 . S
H917 C936 0.951 . S
H918 C938 0.950 . S
H919 C939 0.950 . S
H920 C941 0.950 . S
H921 C944 0.950 . S
H922 C945 0.950 . S
H923 C947 0.950 . S
H924 C948 0.950 . S
H925 C949 0.951 . S
H926 C951 0.951 . S
H927 C953 0.950 . S
H928 C954 0.950 . S
H929 C956 0.950 . S
H930 C959 0.950 . S
H931 C960 0.950 . S
H932 C962 0.950 . S
H933 C963 0.950 . S
C934 H916 0.951 . S
C934 C935 1.366 . S
C934 C936 1.388 . S
C935 C934 1.366 . S
C935 C939 1.385 . S
C936 H917 0.951 . S
C936 C934 1.388 . S
C936 C937 1.366 . S
C937 C936 1.366 . S
C937 C938 1.414 . S
C937 C940 1.499 . S
C938 H918 0.950 . S
C938 C937 1.414 . S
C938 C939 1.374 . S
C939 H919 0.950 . S
C939 C935 1.385 . S
C939 C938 1.374 . S
C940 C937 1.499 . S
C940 C941 1.373 . S
C940 C942 1.389 . S
C941 H920 0.950 . S
C941 C940 1.373 . S
C941 C957 1.377 . S
C942 C940 1.389 . S
C942 C943 1.524 . S
C942 C956 1.377 . S
C943 C942 1.524 . S
C943 C944 1.397 . S
C943 C948 1.363 . S
C944 H921 0.950 . S
C944 C943 1.397 . S
C944 C945 1.334 . S
C945 H922 0.950 . S
C945 C944 1.334 . S
C945 C946 1.287 . S
C946 C945 1.287 . S
C946 C947 1.524 . S
C946 H965 0.913 . S
C947 H923 0.950 . S
C947 C946 1.524 . S
C947 C948 1.415 . S
C948 H924 0.950 . S
C948 C943 1.363 . S
C948 C947 1.415 . S
C949 H925 0.951 . S
C949 C950 1.366 . S
C949 C951 1.388 . S
C950 C949 1.366 . S
C950 C954 1.385 . S
C951 H926 0.951 . S
C951 C949 1.388 . S
C951 C952 1.366 . S
C952 C951 1.366 . S
C952 C953 1.414 . S
C952 C955 1.499 . S
C953 H927 0.950 . S
C953 C952 1.414 . S
C953 C954 1.374 . S
C954 H928 0.950 . S
C954 C950 1.385 . S
C954 C953 1.374 . S
C955 C952 1.499 . S
C955 C956 1.373 . S
C955 C957 1.389 . S
C956 H929 0.950 . S
C956 C942 1.377 . S
C956 C955 1.373 . S
C957 C941 1.377 . S
C957 C955 1.389 . S
C957 C958 1.524 . S
C958 C957 1.524 . S
C958 C959 1.397 . S
C958 C963 1.363 . S
C959 H930 0.950 . S
C959 C958 1.397 . S
C959 C960 1.334 . S
C960 H931 0.950 . S
C960 C959 1.334 . S
C960 C961 1.287 . S
C961 C960 1.287 . S
C961 C962 1.524 . S
C961 H964 0.999 . S
C962 H932 0.950 . S
C962 C961 1.524 . S
C962 C963 1.415 . S
C963 H933 0.950 . S
C963 C958 1.363 . S
C963 C962 1.415 . S
H964 C961 0.999 . S
H965 C946 0.913 . S
H966 C984 0.951 . S
H967 C986 0.951 . S
H968 C988 0.950 . S
H969 C989 0.950 . S
H970 C991 0.950 . S
H971 C994 0.950 . S
H972 C995 0.950 . S
H973 C997 0.950 . S
H974 C998 0.950 . S
H975 C999 0.951 . S
H976 C1001 0.951 . S
H977 C1003 0.950 . S
H978 C1004 0.950 . S
H979 C1006 0.950 . S
H980 C1009 0.950 . S
H981 C1010 0.950 . S
H982 C1012 0.950 . S
H983 C1013 0.950 . S
C984 H966 0.951 . S
C984 C985 1.366 . S
C984 C986 1.388 . S
C985 C984 1.366 . S
C985 C989 1.385 . S
C986 H967 0.951 . S
C986 C984 1.388 . S
C986 C987 1.366 . S
C987 C986 1.366 . S
C987 C988 1.414 . S
C987 C990 1.499 . S
C988 H968 0.950 . S
C988 C987 1.414 . S
C988 C989 1.374 . S
C989 H969 0.950 . S
C989 C985 1.385 . S
C989 C988 1.374 . S
C990 C987 1.499 . S
C990 C991 1.373 . S
C990 C992 1.389 . S
C991 H970 0.950 . S
C991 C990 1.373 . S
C991 C1007 1.377 . S
C992 C990 1.389 . S
C992 C993 1.524 . S
C992 C1006 1.377 . S
C993 C992 1.524 . S
C993 C994 1.397 . S
C993 C998 1.363 . S
C994 H971 0.950 . S
C994 C993 1.397 . S
C994 C995 1.334 . S
C995 H972 0.950 . S
C995 C994 1.334 . S
C995 C996 1.287 . S
C996 C995 1.287 . S
C996 C997 1.524 . S
C996 H1015 0.913 . S
C997 H973 0.950 . S
C997 C996 1.524 . S
C997 C998 1.415 . S
C998 H974 0.950 . S
C998 C993 1.363 . S
C998 C997 1.415 . S
C999 H975 0.951 . S
C999 C1000 1.366 . S
C999 C1001 1.388 . S
C1000 C999 1.366 . S
C1000 C1004 1.385 . S
C1001 H976 0.951 . S
C1001 C999 1.388 . S
C1001 C1002 1.366 . S
C1002 C1001 1.366 . S
C1002 C1003 1.414 . S
C1002 C1005 1.499 . S
C1003 H977 0.950 . S
C1003 C1002 1.414 . S
C1003 C1004 1.374 . S
C1004 H978 0.950 . S
C1004 C1000 1.385 . S
C1004 C1003 1.374 . S
C1005 C1002 1.499 . S
C1005 C1006 1.373 . S
C1005 C1007 1.389 . S
C1006 H979 0.950 . S
C1006 C992 1.377 . S
C1006 C1005 1.373 . S
C1007 C991 1.377 . S
C1007 C1005 1.389 . S
C1007 C1008 1.524 . S
C1008 C1007 1.524 . S
C1008 C1009 1.397 . S
C1008 C1013 1.363 . S
C1009 H980 0.950 . S
C1009 C1008 1.397 . S
C1009 C1010 1.334 . S
C1010 H981 0.950 . S
C1010 C1009 1.334 . S
C1010 C1011 1.287 . S
C1011 C1010 1.287 . S
C1011 C1012 1.524 . S
C1011 H1014 0.999 . S
C1012 H982 0.950 . S
C1012 C1011 1.524 . S
C1012 C1013 1.415 . S
C1013 H983 0.950 . S
C1013 C1008 1.363 . S
C1013 C1012 1.415 . S
H1014 C1011 0.999 . S
H1015 C996 0.913 . S
H1016 C1034 0.951 . S
H1017 C1036 0.951 . S
H1018 C1038 0.950 . S
H1019 C1039 0.950 . S
H1020 C1041 0.950 . S
H1021 C1044 0.950 . S
H1022 C1045 0.950 . S
H1023 C1047 0.950 . S
H1024 C1048 0.950 . S
H1025 C1049 0.951 . S
H1026 C1051 0.951 . S
H1027 C1053 0.950 . S
H1028 C1054 0.950 . S
H1029 C1056 0.950 . S
H1030 C1059 0.950 . S
H1031 C1060 0.950 . S
H1032 C1062 0.950 . S
H1033 C1063 0.950 . S
C1034 H1016 0.951 . S
C1034 C1035 1.366 . S
C1034 C1036 1.388 . S
C1035 C1034 1.366 . S
C1035 C1039 1.385 . S
C1036 H1017 0.951 . S
C1036 C1034 1.388 . S
C1036 C1037 1.366 . S
C1037 C1036 1.366 . S
C1037 C1038 1.414 . S
C1037 C1040 1.499 . S
C1038 H1018 0.950 . S
C1038 C1037 1.414 . S
C1038 C1039 1.374 . S
C1039 H1019 0.950 . S
C1039 C1035 1.385 . S
C1039 C1038 1.374 . S
C1040 C1037 1.499 . S
C1040 C1041 1.373 . S
C1040 C1042 1.389 . S
C1041 H1020 0.950 . S
C1041 C1040 1.373 . S
C1041 C1057 1.377 . S
C1042 C1040 1.389 . S
C1042 C1043 1.524 . S
C1042 C1056 1.377 . S
C1043 C1042 1.524 . S
C1043 C1044 1.397 . S
C1043 C1048 1.363 . S
C1044 H1021 0.950 . S
C1044 C1043 1.397 . S
C1044 C1045 1.334 . S
C1045 H1022 0.950 . S
C1045 C1044 1.334 . S
C1045 C1046 1.287 . S
C1046 C1045 1.287 . S
C1046 C1047 1.524 . S
C1046 H1065 0.913 . S
C1047 H1023 0.950 . S
C1047 C1046 1.524 . S
C1047 C1048 1.415 . S
C1048 H1024 0.950 . S
C1048 C1043 1.363 . S
C1048 C1047 1.415 . S
C1049 H1025 0.951 . S
C1049 C1050 1.366 . S
C1049 C1051 1.388 . S
C1050 C1049 1.366 . S
C1050 C1054 1.385 . S
C1051 H1026 0.951 . S
C1051 C1049 1.388 . S
C1051 C1052 1.366 . S
C1052 C1051 1.366 . S
C1052 C1053 1.414 . S
C1052 C1055 1.499 . S
C1053 H1027 0.950 . S
C1053 C1052 1.414 . S
C1053 C1054 1.374 . S
C1054 H1028 0.950 . S
C1054 C1050 1.385 . S
C1054 C1053 1.374 . S
C1055 C1052 1.499 . S
C1055 C1056 1.373 . S
C1055 C1057 1.389 . S
C1056 H1029 0.950 . S
C1056 C1042 1.377 . S
C1056 C1055 1.373 . S
C1057 C1041 1.377 . S
C1057 C1055 1.389 . S
C1057 C1058 1.524 . S
C1058 C1057 1.524 . S
C1058 C1059 1.397 . S
C1058 C1063 1.363 . S
C1059 H1030 0.950 . S
C1059 C1058 1.397 . S
C1059 C1060 1.334 . S
C1060 H1031 0.950 . S
C1060 C1059 1.334 . S
C1060 C1061 1.287 . S
C1061 C1060 1.287 . S
C1061 C1062 1.524 . S
C1061 H1064 0.999 . S
C1062 H1032 0.950 . S
C1062 C1061 1.524 . S
C1062 C1063 1.415 . S
C1063 H1033 0.950 . S
C1063 C1058 1.363 . S
C1063 C1062 1.415 . S
H1064 C1061 0.999 . S
H1065 C1046 0.913 . S
H1066 C1084 0.951 . S
H1067 C1086 0.951 . S
H1068 C1088 0.950 . S
H1069 C1089 0.950 . S
H1070 C1091 0.950 . S
H1071 C1094 0.950 . S
H1072 C1095 0.950 . S
H1073 C1097 0.950 . S
H1074 C1098 0.950 . S
H1075 C1099 0.951 . S
H1076 C1101 0.951 . S
H1077 C1103 0.950 . S
H1078 C1104 0.950 . S
H1079 C1106 0.950 . S
H1080 C1109 0.950 . S
H1081 C1110 0.950 . S
H1082 C1112 0.950 . S
H1083 C1113 0.950 . S
C1084 H1066 0.951 . S
C1084 C1085 1.366 . S
C1084 C1086 1.388 . S
C1085 C1084 1.366 . S
C1085 C1089 1.385 . S
C1086 H1067 0.951 . S
C1086 C1084 1.388 . S
C1086 C1087 1.366 . S
C1087 C1086 1.366 . S
C1087 C1088 1.414 . S
C1087 C1090 1.499 . S
C1088 H1068 0.950 . S
C1088 C1087 1.414 . S
C1088 C1089 1.374 . S
C1089 H1069 0.950 . S
C1089 C1085 1.385 . S
C1089 C1088 1.374 . S
C1090 C1087 1.499 . S
C1090 C1091 1.373 . S
C1090 C1092 1.389 . S
C1091 H1070 0.950 . S
C1091 C1090 1.373 . S
C1091 C1107 1.377 . S
C1092 C1090 1.389 . S
C1092 C1093 1.524 . S
C1092 C1106 1.377 . S
C1093 C1092 1.524 . S
C1093 C1094 1.397 . S
C1093 C1098 1.363 . S
C1094 H1071 0.950 . S
C1094 C1093 1.397 . S
C1094 C1095 1.334 . S
C1095 H1072 0.950 . S
C1095 C1094 1.334 . S
C1095 C1096 1.287 . S
C1096 C1095 1.287 . S
C1096 C1097 1.524 . S
C1096 H1115 0.913 . S
C1097 H1073 0.950 . S
C1097 C1096 1.524 . S
C1097 C1098 1.415 . S
C1098 H1074 0.950 . S
C1098 C1093 1.363 . S
C1098 C1097 1.415 . S
C1099 H1075 0.951 . S
C1099 C1100 1.366 . S
C1099 C1101 1.388 . S
C1100 C1099 1.366 . S
C1100 C1104 1.385 . S
C1101 H1076 0.951 . S
C1101 C1099 1.388 . S
C1101 C1102 1.366 . S
C1102 C1101 1.366 . S
C1102 C1103 1.414 . S
C1102 C1105 1.499 . S
C1103 H1077 0.950 . S
C1103 C1102 1.414 . S
C1103 C1104 1.374 . S
C1104 H1078 0.950 . S
C1104 C1100 1.385 . S
C1104 C1103 1.374 . S
C1105 C1102 1.499 . S
C1105 C1106 1.373 . S
C1105 C1107 1.389 . S
C1106 H1079 0.950 . S
C1106 C1092 1.377 . S
C1106 C1105 1.373 . S
C1107 C1091 1.377 . S
C1107 C1105 1.389 . S
C1107 C1108 1.524 . S
C1108 C1107 1.524 . S
C1108 C1109 1.397 . S
C1108 C1113 1.363 . S
C1109 H1080 0.950 . S
C1109 C1108 1.397 . S
C1109 C1110 1.334 . S
C1110 H1081 0.950 . S
C1110 C1109 1.334 . S
C1110 C1111 1.287 . S
C1111 C1110 1.287 . S
C1111 C1112 1.524 . S
C1111 H1114 0.999 . S
C1112 H1082 0.950 . S
C1112 C1111 1.524 . S
C1112 C1113 1.415 . S
C1113 H1083 0.950 . S
C1113 C1108 1.363 . S
C1113 C1112 1.415 . S
H1114 C1111 0.999 . S
H1115 C1096 0.913 . S
H1116 C1134 0.951 . S
H1117 C1136 0.951 . S
H1118 C1138 0.950 . S
H1119 C1139 0.950 . S
H1120 C1141 0.950 . S
H1121 C1144 0.950 . S
H1122 C1145 0.950 . S
H1123 C1147 0.950 . S
H1124 C1148 0.950 . S
H1125 C1149 0.951 . S
H1126 C1151 0.951 . S
H1127 C1153 0.950 . S
H1128 C1154 0.950 . S
H1129 C1156 0.950 . S
H1130 C1159 0.950 . S
H1131 C1160 0.950 . S
H1132 C1162 0.950 . S
H1133 C1163 0.950 . S
C1134 H1116 0.951 . S
C1134 C1135 1.366 . S
C1134 C1136 1.388 . S
C1135 C1134 1.366 . S
C1135 C1139 1.385 . S
C1136 H1117 0.951 . S
C1136 C1134 1.388 . S
C1136 C1137 1.366 . S
C1137 C1136 1.366 . S
C1137 C1138 1.414 . S
C1137 C1140 1.499 . S
C1138 H1118 0.950 . S
C1138 C1137 1.414 . S
C1138 C1139 1.374 . S
C1139 H1119 0.950 . S
C1139 C1135 1.385 . S
C1139 C1138 1.374 . S
C1140 C1137 1.499 . S
C1140 C1141 1.373 . S
C1140 C1142 1.389 . S
C1141 H1120 0.950 . S
C1141 C1140 1.373 . S
C1141 C1157 1.377 . S
C1142 C1140 1.389 . S
C1142 C1143 1.524 . S
C1142 C1156 1.377 . S
C1143 C1142 1.524 . S
C1143 C1144 1.397 . S
C1143 C1148 1.363 . S
C1144 H1121 0.950 . S
C1144 C1143 1.397 . S
C1144 C1145 1.334 . S
C1145 H1122 0.950 . S
C1145 C1144 1.334 . S
C1145 C1146 1.287 . S
C1146 C1145 1.287 . S
C1146 C1147 1.524 . S
C1146 H1165 0.913 . S
C1147 H1123 0.950 . S
C1147 C1146 1.524 . S
C1147 C1148 1.415 . S
C1148 H1124 0.950 . S
C1148 C1143 1.363 . S
C1148 C1147 1.415 . S
C1149 H1125 0.951 . S
C1149 C1150 1.366 . S
C1149 C1151 1.388 . S
C1150 C1149 1.366 . S
C1150 C1154 1.385 . S
C1151 H1126 0.951 . S
C1151 C1149 1.388 . S
C1151 C1152 1.366 . S
C1152 C1151 1.366 . S
C1152 C1153 1.414 . S
C1152 C1155 1.499 . S
C1153 H1127 0.950 . S
C1153 C1152 1.414 . S
C1153 C1154 1.374 . S
C1154 H1128 0.950 . S
C1154 C1150 1.385 . S
C1154 C1153 1.374 . S
C1155 C1152 1.499 . S
C1155 C1156 1.373 . S
C1155 C1157 1.389 . S
C1156 H1129 0.950 . S
C1156 C1142 1.377 . S
C1156 C1155 1.373 . S
C1157 C1141 1.377 . S
C1157 C1155 1.389 . S
C1157 C1158 1.524 . S
C1158 C1157 1.524 . S
C1158 C1159 1.397 . S
C1158 C1163 1.363 . S
C1159 H1130 0.950 . S
C1159 C1158 1.397 . S
C1159 C1160 1.334 . S
C1160 H1131 0.950 . S
C1160 C1159 1.334 . S
C1160 C1161 1.287 . S
C1161 C1160 1.287 . S
C1161 C1162 1.524 . S
C1161 H1164 0.999 . S
C1162 H1132 0.950 . S
C1162 C1161 1.524 . S
C1162 C1163 1.415 . S
C1163 H1133 0.950 . S
C1163 C1158 1.363 . S
C1163 C1162 1.415 . S
H1164 C1161 0.999 . S
H1165 C1146 0.913 . S
H1166 C1184 0.951 . S
H1167 C1186 0.951 . S
H1168 C1188 0.950 . S
H1169 C1189 0.950 . S
H1170 C1191 0.950 . S
H1171 C1194 0.950 . S
H1172 C1195 0.950 . S
H1173 C1197 0.950 . S
H1174 C1198 0.950 . S
H1175 C1199 0.951 . S
H1176 C1201 0.951 . S
H1177 C1203 0.950 . S
H1178 C1204 0.950 . S
H1179 C1206 0.950 . S
H1180 C1209 0.950 . S
H1181 C1210 0.950 . S
H1182 C1212 0.950 . S
H1183 C1213 0.950 . S
C1184 H1166 0.951 . S
C1184 C1185 1.366 . S
C1184 C1186 1.388 . S
C1185 C1184 1.366 . S
C1185 C1189 1.385 . S
C1186 H1167 0.951 . S
C1186 C1184 1.388 . S
C1186 C1187 1.366 . S
C1187 C1186 1.366 . S
C1187 C1188 1.414 . S
C1187 C1190 1.499 . S
C1188 H1168 0.950 . S
C1188 C1187 1.414 . S
C1188 C1189 1.374 . S
C1189 H1169 0.950 . S
C1189 C1185 1.385 . S
C1189 C1188 1.374 . S
C1190 C1187 1.499 . S
C1190 C1191 1.373 . S
C1190 C1192 1.389 . S
C1191 H1170 0.950 . S
C1191 C1190 1.373 . S
C1191 C1207 1.377 . S
C1192 C1190 1.389 . S
C1192 C1193 1.524 . S
C1192 C1206 1.377 . S
C1193 C1192 1.524 . S
C1193 C1194 1.397 . S
C1193 C1198 1.363 . S
C1194 H1171 0.950 . S
C1194 C1193 1.397 . S
C1194 C1195 1.334 . S
C1195 H1172 0.950 . S
C1195 C1194 1.334 . S
C1195 C1196 1.287 . S
C1196 C1195 1.287 . S
C1196 C1197 1.524 . S
C1196 H1215 0.913 . S
C1197 H1173 0.950 . S
C1197 C1196 1.524 . S
C1197 C1198 1.415 . S
C1198 H1174 0.950 . S
C1198 C1193 1.363 . S
C1198 C1197 1.415 . S
C1199 H1175 0.951 . S
C1199 C1200 1.366 . S
C1199 C1201 1.388 . S
C1200 C1199 1.366 . S
C1200 C1204 1.385 . S
C1201 H1176 0.951 . S
C1201 C1199 1.388 . S
C1201 C1202 1.366 . S
C1202 C1201 1.366 . S
C1202 C1203 1.414 . S
C1202 C1205 1.499 . S
C1203 H1177 0.950 . S
C1203 C1202 1.414 . S
C1203 C1204 1.374 . S
C1204 H1178 0.950 . S
C1204 C1200 1.385 . S
C1204 C1203 1.374 . S
C1205 C1202 1.499 . S
C1205 C1206 1.373 . S
C1205 C1207 1.389 . S
C1206 H1179 0.950 . S
C1206 C1192 1.377 . S
C1206 C1205 1.373 . S
C1207 C1191 1.377 . S
C1207 C1205 1.389 . S
C1207 C1208 1.524 . S
C1208 C1207 1.524 . S
C1208 C1209 1.397 . S
C1208 C1213 1.363 . S
C1209 H1180 0.950 . S
C1209 C1208 1.397 . S
C1209 C1210 1.334 . S
C1210 H1181 0.950 . S
C1210 C1209 1.334 . S
C1210 C1211 1.287 . S
C1211 C1210 1.287 . S
C1211 C1212 1.524 . S
C1211 H1214 0.999 . S
C1212 H1182 0.950 . S
C1212 C1211 1.524 . S
C1212 C1213 1.415 . S
C1213 H1183 0.950 . S
C1213 C1208 1.363 . S
C1213 C1212 1.415 . S
H1214 C1211 0.999 . S
H1215 C1196 0.913 . S
H1216 C1234 0.951 . S
H1217 C1236 0.951 . S
H1218 C1238 0.950 . S
H1219 C1239 0.950 . S
H1220 C1241 0.950 . S
H1221 C1244 0.950 . S
H1222 C1245 0.950 . S
H1223 C1247 0.950 . S
H1224 C1248 0.950 . S
H1225 C1249 0.951 . S
H1226 C1251 0.951 . S
H1227 C1253 0.950 . S
H1228 C1254 0.950 . S
H1229 C1256 0.950 . S
H1230 C1259 0.950 . S
H1231 C1260 0.950 1_554 S
H1232 C1262 0.950 . S
H1233 C1263 0.950 . S
C1234 H1216 0.951 . S
C1234 C1235 1.366 . S
C1234 C1236 1.388 . S
C1235 C1234 1.366 . S
C1235 C1239 1.385 . S
C1236 H1217 0.951 . S
C1236 C1234 1.388 . S
C1236 C1237 1.366 . S
C1237 C1236 1.366 . S
C1237 C1238 1.414 . S
C1237 C1240 1.499 . S
C1238 H1218 0.950 . S
C1238 C1237 1.414 . S
C1238 C1239 1.374 . S
C1239 H1219 0.950 . S
C1239 C1235 1.385 . S
C1239 C1238 1.374 . S
C1240 C1237 1.499 . S
C1240 C1241 1.373 . S
C1240 C1242 1.389 . S
C1241 H1220 0.950 . S
C1241 C1240 1.373 . S
C1241 C1257 1.377 . S
C1242 C1240 1.389 . S
C1242 C1243 1.524 . S
C1242 C1256 1.377 . S
C1243 C1242 1.524 . S
C1243 C1244 1.397 . S
C1243 C1248 1.363 . S
C1244 H1221 0.950 . S
C1244 C1243 1.397 . S
C1244 C1245 1.334 . S
C1245 H1222 0.950 . S
C1245 C1244 1.334 . S
C1245 C1246 1.287 . S
C1246 C1245 1.287 . S
C1246 C1247 1.524 . S
C1246 H1265 0.913 . S
C1247 H1223 0.950 . S
C1247 C1246 1.524 . S
C1247 C1248 1.415 . S
C1248 H1224 0.950 . S
C1248 C1243 1.363 . S
C1248 C1247 1.415 . S
C1249 H1225 0.951 . S
C1249 C1250 1.366 . S
C1249 C1251 1.388 . S
C1250 C1249 1.366 . S
C1250 C1254 1.385 . S
C1251 H1226 0.951 . S
C1251 C1249 1.388 . S
C1251 C1252 1.366 . S
C1252 C1251 1.366 . S
C1252 C1253 1.414 . S
C1252 C1255 1.499 . S
C1253 H1227 0.950 . S
C1253 C1252 1.414 . S
C1253 C1254 1.374 . S
C1254 H1228 0.950 . S
C1254 C1250 1.385 . S
C1254 C1253 1.374 . S
C1255 C1252 1.499 . S
C1255 C1256 1.373 . S
C1255 C1257 1.389 . S
C1256 H1229 0.950 . S
C1256 C1242 1.377 . S
C1256 C1255 1.373 . S
C1257 C1241 1.377 . S
C1257 C1255 1.389 . S
C1257 C1258 1.524 . S
C1258 C1257 1.524 . S
C1258 C1259 1.397 . S
C1258 C1263 1.363 . S
C1259 H1230 0.950 . S
C1259 C1258 1.397 . S
C1259 C1260 1.334 . S
C1260 H1231 0.950 1_556 S
C1260 C1259 1.334 . S
C1260 C1261 1.287 . S
C1261 C1260 1.287 . S
C1261 C1262 1.524 . S
C1261 H1264 0.999 1_556 S
C1262 H1232 0.950 . S
C1262 C1261 1.524 . S
C1262 C1263 1.415 . S
C1263 H1233 0.950 . S
C1263 C1258 1.363 . S
C1263 C1262 1.415 . S
H1264 C1261 0.999 1_554 S
H1265 C1246 0.913 . S
H1266 C1284 0.951 . S
H1267 C1286 0.951 . S
H1268 C1288 0.950 . S
H1269 C1289 0.950 . S
H1270 C1291 0.950 . S
H1271 C1294 0.950 . S
H1272 C1295 0.950 . S
H1273 C1297 0.950 . S
H1274 C1298 0.950 . S
H1275 C1299 0.951 1_455 S
H1276 C1301 0.951 . S
H1277 C1303 0.950 . S
H1278 C1304 0.950 . S
H1279 C1306 0.950 . S
H1280 C1309 0.950 . S
H1281 C1310 0.950 . S
H1282 C1312 0.972 . S
H1283 C1313 0.950 . S
C1284 H1266 0.951 . S
C1284 C1285 1.366 . S
C1284 C1286 1.388 . S
C1285 C1284 1.366 . S
C1285 C1289 1.385 . S
C1286 H1267 0.951 . S
C1286 C1284 1.388 . S
C1286 C1287 1.366 . S
C1287 C1286 1.366 . S
C1287 C1288 1.414 . S
C1287 C1290 1.499 . S
C1288 H1268 0.950 . S
C1288 C1287 1.414 . S
C1288 C1289 1.374 . S
C1289 H1269 0.950 . S
C1289 C1285 1.385 . S
C1289 C1288 1.374 . S
C1290 C1287 1.499 . S
C1290 C1291 1.373 . S
C1290 C1292 1.389 . S
C1291 H1270 0.950 . S
C1291 C1290 1.373 . S
C1291 C1307 1.377 . S
C1292 C1290 1.389 . S
C1292 C1293 1.524 . S
C1292 C1306 1.377 . S
C1293 C1292 1.524 . S
C1293 C1294 1.397 . S
C1293 C1298 1.363 . S
C1294 H1271 0.950 . S
C1294 C1293 1.397 . S
C1294 C1295 1.334 . S
C1295 H1272 0.950 . S
C1295 C1294 1.334 . S
C1295 C1296 1.287 . S
C1296 C1295 1.287 . S
C1296 C1297 1.524 . S
C1296 H1315 0.913 . S
C1297 H1273 0.950 . S
C1297 C1296 1.524 . S
C1297 C1298 1.415 . S
C1298 H1274 0.950 . S
C1298 C1293 1.363 . S
C1298 C1297 1.415 . S
C1299 H1275 0.951 1_655 S
C1299 C1300 1.366 . S
C1299 C1301 1.388 . S
C1300 C1299 1.366 . S
C1300 C1304 1.385 . S
C1301 H1276 0.951 . S
C1301 C1299 1.388 . S
C1301 C1302 1.366 . S
C1302 C1301 1.366 . S
C1302 C1303 1.414 . S
C1302 C1305 1.499 . S
C1303 H1277 0.950 . S
C1303 C1302 1.414 . S
C1303 C1304 1.374 . S
C1304 H1278 0.950 . S
C1304 C1300 1.385 . S
C1304 C1303 1.374 . S
C1305 C1302 1.499 . S
C1305 C1306 1.373 . S
C1305 C1307 1.389 . S
C1306 H1279 0.950 . S
C1306 C1292 1.377 . S
C1306 C1305 1.373 . S
C1307 C1291 1.377 . S
C1307 C1305 1.389 . S
C1307 C1308 1.524 . S
C1308 C1307 1.524 . S
C1308 C1309 1.397 . S
C1308 C1313 1.363 . S
C1309 H1280 0.950 . S
C1309 C1308 1.397 . S
C1309 C1310 1.334 . S
C1310 H1281 0.950 . S
C1310 C1309 1.334 . S
C1310 C1311 1.287 . S
C1311 C1310 1.287 . S
C1311 C1312 1.524 . S
C1311 H1314 0.999 . S
C1312 H1282 0.972 . S
C1312 C1311 1.524 . S
C1312 C1313 1.415 . S
C1313 H1283 0.950 . S
C1313 C1308 1.363 . S
C1313 C1312 1.415 . S
H1314 C1311 0.999 . S
H1315 C1296 0.913 . S
H1316 C1334 0.951 . S
H1317 C1336 0.951 . S
H1318 C1338 0.950 . S
H1319 C1339 0.950 . S
H1320 C1341 0.950 . S
H1321 C1344 0.950 . S
H1322 C1345 0.950 . S
H1323 C1347 0.950 . S
H1324 C1348 0.950 . S
H1325 C1349 0.951 . S
H1326 C1351 0.951 . S
H1327 C1353 0.950 . S
H1328 C1354 0.950 . S
H1329 C1356 0.950 . S
H1330 C1359 0.950 . S
H1331 C1360 0.950 1_556 S
H1332 C1362 0.950 . S
H1333 C1363 0.950 . S
C1334 H1316 0.951 . S
C1334 C1335 1.366 . S
C1334 C1336 1.388 . S
C1335 C1334 1.366 . S
C1335 C1339 1.385 . S
C1336 H1317 0.951 . S
C1336 C1334 1.388 . S
C1336 C1337 1.366 . S
C1337 C1336 1.366 . S
C1337 C1338 1.414 . S
C1337 C1340 1.499 . S
C1338 H1318 0.950 . S
C1338 C1337 1.414 . S
C1338 C1339 1.374 . S
C1339 H1319 0.950 . S
C1339 C1335 1.385 . S
C1339 C1338 1.374 . S
C1340 C1337 1.499 . S
C1340 C1341 1.373 . S
C1340 C1342 1.389 . S
C1341 H1320 0.950 . S
C1341 C1340 1.373 . S
C1341 C1357 1.377 . S
C1342 C1340 1.389 . S
C1342 C1343 1.524 . S
C1342 C1356 1.377 . S
C1343 C1342 1.524 . S
C1343 C1344 1.397 . S
C1343 C1348 1.363 . S
C1344 H1321 0.950 . S
C1344 C1343 1.397 . S
C1344 C1345 1.334 . S
C1345 H1322 0.950 . S
C1345 C1344 1.334 . S
C1345 C1346 1.287 . S
C1346 C1345 1.287 . S
C1346 C1347 1.524 . S
C1346 H1365 0.913 . S
C1347 H1323 0.950 . S
C1347 C1346 1.524 . S
C1347 C1348 1.415 . S
C1348 H1324 0.950 . S
C1348 C1343 1.363 . S
C1348 C1347 1.415 . S
C1349 H1325 0.951 . S
C1349 C1350 1.366 . S
C1349 C1351 1.388 . S
C1350 C1349 1.366 . S
C1350 C1354 1.385 . S
C1351 H1326 0.951 . S
C1351 C1349 1.388 . S
C1351 C1352 1.366 . S
C1352 C1351 1.366 . S
C1352 C1353 1.414 . S
C1352 C1355 1.499 . S
C1353 H1327 0.950 . S
C1353 C1352 1.414 . S
C1353 C1354 1.374 . S
C1354 H1328 0.950 . S
C1354 C1350 1.385 . S
C1354 C1353 1.374 . S
C1355 C1352 1.499 . S
C1355 C1356 1.373 . S
C1355 C1357 1.389 . S
C1356 H1329 0.950 . S
C1356 C1342 1.377 . S
C1356 C1355 1.373 . S
C1357 C1341 1.377 . S
C1357 C1355 1.389 . S
C1357 C1358 1.524 . S
C1358 C1357 1.524 . S
C1358 C1359 1.397 . S
C1358 C1363 1.363 . S
C1359 H1330 0.950 . S
C1359 C1358 1.397 . S
C1359 C1360 1.334 . S
C1360 H1331 0.950 1_554 S
C1360 C1359 1.334 . S
C1360 C1361 1.287 . S
C1361 C1360 1.287 . S
C1361 C1362 1.524 . S
C1361 H1364 0.999 1_554 S
C1362 H1332 0.950 . S
C1362 C1361 1.524 . S
C1362 C1363 1.415 . S
C1363 H1333 0.950 . S
C1363 C1358 1.363 . S
C1363 C1362 1.415 . S
H1364 C1361 0.999 1_556 S
H1365 C1346 0.913 . S
H1366 C1384 0.951 . S
H1367 C1386 0.951 . S
H1368 C1388 0.950 . S
H1369 C1389 0.950 . S
H1370 C1391 0.950 . S
H1371 C1394 0.950 . S
H1372 C1395 0.950 . S
H1373 C1397 0.950 . S
H1374 C1398 0.950 . S
H1375 C1399 0.951 . S
H1376 C1401 0.951 . S
H1377 C1403 0.950 . S
H1378 C1404 0.950 . S
H1379 C1406 0.950 . S
H1380 C1409 0.950 . S
H1381 C1410 0.950 . S
H1382 C1412 0.950 . S
H1383 C1413 0.950 . S
C1384 H1366 0.951 . S
C1384 C1385 1.366 . S
C1384 C1386 1.388 . S
C1385 C1384 1.366 . S
C1385 C1389 1.385 . S
C1386 H1367 0.951 . S
C1386 C1384 1.388 . S
C1386 C1387 1.366 . S
C1387 C1386 1.366 . S
C1387 C1388 1.414 . S
C1387 C1390 1.499 . S
C1388 H1368 0.950 . S
C1388 C1387 1.414 . S
C1388 C1389 1.374 . S
C1389 H1369 0.950 . S
C1389 C1385 1.385 . S
C1389 C1388 1.374 . S
C1390 C1387 1.499 . S
C1390 C1391 1.373 . S
C1390 C1392 1.389 . S
C1391 H1370 0.950 . S
C1391 C1390 1.373 . S
C1391 C1407 1.377 . S
C1392 C1390 1.389 . S
C1392 C1393 1.524 . S
C1392 C1406 1.377 . S
C1393 C1392 1.524 . S
C1393 C1394 1.397 . S
C1393 C1398 1.363 . S
C1394 H1371 0.950 . S
C1394 C1393 1.397 . S
C1394 C1395 1.334 . S
C1395 H1372 0.950 . S
C1395 C1394 1.334 . S
C1395 C1396 1.287 . S
C1396 C1395 1.287 . S
C1396 C1397 1.524 . S
C1396 H1415 0.913 . S
C1397 H1373 0.950 . S
C1397 C1396 1.524 . S
C1397 C1398 1.415 . S
C1398 H1374 0.950 . S
C1398 C1393 1.363 . S
C1398 C1397 1.415 . S
C1399 H1375 0.951 . S
C1399 C1400 1.366 . S
C1399 C1401 1.388 . S
C1400 C1399 1.366 . S
C1400 C1404 1.385 . S
C1401 H1376 0.951 . S
C1401 C1399 1.388 . S
C1401 C1402 1.366 . S
C1402 C1401 1.366 . S
C1402 C1403 1.414 . S
C1402 C1405 1.499 . S
C1403 H1377 0.950 . S
C1403 C1402 1.414 . S
C1403 C1404 1.374 . S
C1404 H1378 0.950 . S
C1404 C1400 1.385 . S
C1404 C1403 1.374 . S
C1405 C1402 1.499 . S
C1405 C1406 1.373 . S
C1405 C1407 1.389 . S
C1406 H1379 0.950 . S
C1406 C1392 1.377 . S
C1406 C1405 1.373 . S
C1407 C1391 1.377 . S
C1407 C1405 1.389 . S
C1407 C1408 1.524 . S
C1408 C1407 1.524 . S
C1408 C1409 1.397 . S
C1408 C1413 1.363 . S
C1409 H1380 0.950 . S
C1409 C1408 1.397 . S
C1409 C1410 1.334 . S
C1410 H1381 0.950 . S
C1410 C1409 1.334 . S
C1410 C1411 1.287 . S
C1411 C1410 1.287 . S
C1411 C1412 1.524 . S
C1411 H1414 0.999 . S
C1412 H1382 0.950 . S
C1412 C1411 1.524 . S
C1412 C1413 1.415 . S
C1413 H1383 0.950 . S
C1413 C1408 1.363 . S
C1413 C1412 1.415 . S
H1414 C1411 0.999 . S
H1415 C1396 0.913 . S
H1416 C1434 0.951 . S
H1417 C1436 0.951 . S
H1418 C1438 0.950 . S
H1419 C1439 0.950 . S
H1420 C1441 0.950 . S
H1421 C1444 0.950 . S
H1422 C1445 0.950 . S
H1423 C1447 0.950 . S
H1424 C1448 0.950 . S
H1425 C1449 0.951 . S
H1426 C1451 0.951 . S
H1427 C1453 0.950 . S
H1428 C1454 0.950 . S
H1429 C1456 0.950 . S
H1430 C1459 0.950 . S
H1431 C1460 0.950 1_554 S
H1432 C1462 0.950 . S
H1433 C1463 0.950 . S
C1434 H1416 0.951 . S
C1434 C1435 1.366 . S
C1434 C1436 1.388 . S
C1435 C1434 1.366 . S
C1435 C1439 1.385 . S
C1436 H1417 0.951 . S
C1436 C1434 1.388 . S
C1436 C1437 1.366 . S
C1437 C1436 1.366 . S
C1437 C1438 1.414 . S
C1437 C1440 1.499 . S
C1438 H1418 0.950 . S
C1438 C1437 1.414 . S
C1438 C1439 1.374 . S
C1439 H1419 0.950 . S
C1439 C1435 1.385 . S
C1439 C1438 1.374 . S
C1440 C1437 1.499 . S
C1440 C1441 1.373 . S
C1440 C1442 1.389 . S
C1441 H1420 0.950 . S
C1441 C1440 1.373 . S
C1441 C1457 1.377 . S
C1442 C1440 1.389 . S
C1442 C1443 1.524 . S
C1442 C1456 1.377 . S
C1443 C1442 1.524 . S
C1443 C1444 1.397 . S
C1443 C1448 1.363 . S
C1444 H1421 0.950 . S
C1444 C1443 1.397 . S
C1444 C1445 1.334 . S
C1445 H1422 0.950 . S
C1445 C1444 1.334 . S
C1445 C1446 1.287 . S
C1446 C1445 1.287 . S
C1446 C1447 1.524 . S
C1446 H1465 0.913 . S
C1447 H1423 0.950 . S
C1447 C1446 1.524 . S
C1447 C1448 1.415 . S
C1448 H1424 0.950 . S
C1448 C1443 1.363 . S
C1448 C1447 1.415 . S
C1449 H1425 0.951 . S
C1449 C1450 1.366 . S
C1449 C1451 1.388 . S
C1450 C1449 1.366 . S
C1450 C1454 1.385 . S
C1451 H1426 0.951 . S
C1451 C1449 1.388 . S
C1451 C1452 1.366 . S
C1452 C1451 1.366 . S
C1452 C1453 1.414 . S
C1452 C1455 1.499 . S
C1453 H1427 0.950 . S
C1453 C1452 1.414 . S
C1453 C1454 1.374 . S
C1454 H1428 0.950 . S
C1454 C1450 1.385 . S
C1454 C1453 1.374 . S
C1455 C1452 1.499 . S
C1455 C1456 1.373 . S
C1455 C1457 1.389 . S
C1456 H1429 0.950 . S
C1456 C1442 1.377 . S
C1456 C1455 1.373 . S
C1457 C1441 1.377 . S
C1457 C1455 1.389 . S
C1457 C1458 1.524 . S
C1458 C1457 1.524 . S
C1458 C1459 1.397 . S
C1458 C1463 1.363 . S
C1459 H1430 0.950 . S
C1459 C1458 1.397 . S
C1459 C1460 1.334 . S
C1460 H1431 0.950 1_556 S
C1460 C1459 1.334 . S
C1460 C1461 1.287 . S
C1461 C1460 1.287 . S
C1461 C1462 1.524 . S
C1461 H1464 0.999 1_556 S
C1462 H1432 0.950 . S
C1462 C1461 1.524 . S
C1462 C1463 1.415 . S
C1463 H1433 0.950 . S
C1463 C1458 1.363 . S
C1463 C1462 1.415 . S
H1464 C1461 0.999 1_554 S
H1465 C1446 0.913 . S
H1466 C1484 0.951 . S
H1467 C1486 0.951 . S
H1468 C1488 0.950 . S
H1469 C1489 0.950 . S
H1470 C1491 0.950 . S
H1471 C1494 0.950 . S
H1472 C1495 0.950 . S
H1473 C1497 0.950 . S
H1474 C1498 0.950 . S
H1475 C1499 0.951 . S
H1476 C1501 0.951 . S
H1477 C1503 0.950 . S
H1478 C1504 0.950 . S
H1479 C1506 0.950 . S
H1480 C1509 0.950 . S
H1481 C1510 0.950 . S
H1482 C1512 0.950 . S
H1483 C1513 0.950 . S
C1484 H1466 0.951 . S
C1484 C1485 1.366 . S
C1484 C1486 1.388 . S
C1485 C1484 1.366 . S
C1485 C1489 1.385 . S
C1486 H1467 0.951 . S
C1486 C1484 1.388 . S
C1486 C1487 1.366 . S
C1487 C1486 1.366 . S
C1487 C1488 1.414 . S
C1487 C1490 1.499 . S
C1488 H1468 0.950 . S
C1488 C1487 1.414 . S
C1488 C1489 1.374 . S
C1489 H1469 0.950 . S
C1489 C1485 1.385 . S
C1489 C1488 1.374 . S
C1490 C1487 1.499 . S
C1490 C1491 1.373 . S
C1490 C1492 1.389 . S
C1491 H1470 0.950 . S
C1491 C1490 1.373 . S
C1491 C1507 1.377 . S
C1492 C1490 1.389 . S
C1492 C1493 1.524 . S
C1492 C1506 1.377 . S
C1493 C1492 1.524 . S
C1493 C1494 1.397 . S
C1493 C1498 1.363 . S
C1494 H1471 0.950 . S
C1494 C1493 1.397 . S
C1494 C1495 1.334 . S
C1495 H1472 0.950 . S
C1495 C1494 1.334 . S
C1495 C1496 1.287 . S
C1496 C1495 1.287 . S
C1496 C1497 1.524 . S
C1496 H1515 0.913 . S
C1497 H1473 0.950 . S
C1497 C1496 1.524 . S
C1497 C1498 1.415 . S
C1498 H1474 0.950 . S
C1498 C1493 1.363 . S
C1498 C1497 1.415 . S
C1499 H1475 0.951 . S
C1499 C1500 1.366 . S
C1499 C1501 1.388 . S
C1500 C1499 1.366 . S
C1500 C1504 1.385 . S
C1501 H1476 0.951 . S
C1501 C1499 1.388 . S
C1501 C1502 1.366 . S
C1502 C1501 1.366 . S
C1502 C1503 1.414 . S
C1502 C1505 1.499 . S
C1503 H1477 0.950 . S
C1503 C1502 1.414 . S
C1503 C1504 1.374 . S
C1504 H1478 0.950 . S
C1504 C1500 1.385 . S
C1504 C1503 1.374 . S
C1505 C1502 1.499 . S
C1505 C1506 1.373 . S
C1505 C1507 1.389 . S
C1506 H1479 0.950 . S
C1506 C1492 1.377 . S
C1506 C1505 1.373 . S
C1507 C1491 1.377 . S
C1507 C1505 1.389 . S
C1507 C1508 1.524 . S
C1508 C1507 1.524 . S
C1508 C1509 1.397 . S
C1508 C1513 1.363 . S
C1509 H1480 0.950 . S
C1509 C1508 1.397 . S
C1509 C1510 1.334 . S
C1510 H1481 0.950 . S
C1510 C1509 1.334 . S
C1510 C1511 1.287 . S
C1511 C1510 1.287 . S
C1511 C1512 1.524 . S
C1511 H1514 0.999 . S
C1512 H1482 0.950 . S
C1512 C1511 1.524 . S
C1512 C1513 1.415 . S
C1513 H1483 0.950 . S
C1513 C1508 1.363 . S
C1513 C1512 1.415 . S
H1514 C1511 0.999 . S
H1515 C1496 0.913 . S
H1516 C1534 0.951 . S
H1517 C1536 0.951 . S
H1518 C1538 0.950 . S
H1519 C1539 0.950 . S
H1520 C1541 0.950 . S
H1521 C1544 0.950 . S
H1522 C1545 0.950 . S
H1523 C1547 0.950 . S
H1524 C1548 0.950 . S
H1525 C1549 0.951 . S
H1526 C1551 0.951 . S
H1527 C1553 0.950 . S
H1528 C1554 0.950 . S
H1529 C1556 0.950 . S
H1530 C1559 0.950 . S
H1531 C1560 0.950 . S
H1532 C1562 0.950 . S
H1533 C1563 0.950 . S
C1534 H1516 0.951 . S
C1534 C1535 1.366 . S
C1534 C1536 1.388 . S
C1535 C1534 1.366 . S
C1535 C1539 1.385 . S
C1536 H1517 0.951 . S
C1536 C1534 1.388 . S
C1536 C1537 1.366 . S
C1537 C1536 1.366 . S
C1537 C1538 1.414 . S
C1537 C1540 1.499 . S
C1538 H1518 0.950 . S
C1538 C1537 1.414 . S
C1538 C1539 1.374 . S
C1539 H1519 0.950 . S
C1539 C1535 1.385 . S
C1539 C1538 1.374 . S
C1540 C1537 1.499 . S
C1540 C1541 1.373 . S
C1540 C1542 1.389 . S
C1541 H1520 0.950 . S
C1541 C1540 1.373 . S
C1541 C1557 1.377 . S
C1542 C1540 1.389 . S
C1542 C1543 1.524 . S
C1542 C1556 1.377 . S
C1543 C1542 1.524 . S
C1543 C1544 1.397 . S
C1543 C1548 1.363 . S
C1544 H1521 0.950 . S
C1544 C1543 1.397 . S
C1544 C1545 1.334 . S
C1545 H1522 0.950 . S
C1545 C1544 1.334 . S
C1545 C1546 1.287 . S
C1546 C1545 1.287 . S
C1546 C1547 1.524 . S
C1546 H1565 0.913 . S
C1547 H1523 0.950 . S
C1547 C1546 1.524 . S
C1547 C1548 1.415 . S
C1548 H1524 0.950 . S
C1548 C1543 1.363 . S
C1548 C1547 1.415 . S
C1549 H1525 0.951 . S
C1549 C1550 1.366 . S
C1549 C1551 1.388 . S
C1550 C1549 1.366 . S
C1550 C1554 1.385 . S
C1551 H1526 0.951 . S
C1551 C1549 1.388 . S
C1551 C1552 1.366 . S
C1552 C1551 1.366 . S
C1552 C1553 1.414 . S
C1552 C1555 1.499 . S
C1553 H1527 0.950 . S
C1553 C1552 1.414 . S
C1553 C1554 1.374 . S
C1554 H1528 0.950 . S
C1554 C1550 1.385 . S
C1554 C1553 1.374 . S
C1555 C1552 1.499 . S
C1555 C1556 1.373 . S
C1555 C1557 1.389 . S
C1556 H1529 0.950 . S
C1556 C1542 1.377 . S
C1556 C1555 1.373 . S
C1557 C1541 1.377 . S
C1557 C1555 1.389 . S
C1557 C1558 1.524 . S
C1558 C1557 1.524 . S
C1558 C1559 1.397 . S
C1558 C1563 1.363 . S
C1559 H1530 0.950 . S
C1559 C1558 1.397 . S
C1559 C1560 1.334 . S
C1560 H1531 0.950 . S
C1560 C1559 1.334 . S
C1560 C1561 1.287 . S
C1561 C1560 1.287 . S
C1561 C1562 1.524 . S
C1561 H1564 0.999 . S
C1562 H1532 0.950 . S
C1562 C1561 1.524 . S
C1562 C1563 1.415 . S
C1563 H1533 0.950 . S
C1563 C1558 1.363 . S
C1563 C1562 1.415 . S
H1564 C1561 0.999 . S
H1565 C1546 0.913 . S
H1566 C1584 0.951 . S
H1567 C1586 0.951 . S
H1568 C1588 0.950 . S
H1569 C1589 0.950 . S
H1570 C1591 0.950 . S
H1571 C1594 0.950 . S
H1572 C1595 0.950 . S
H1573 C1597 0.950 . S
H1574 C1598 0.950 . S
H1575 C1599 0.951 . S
H1576 C1601 0.951 . S
H1577 C1603 0.950 . S
H1578 C1604 0.950 . S
H1579 C1606 0.950 . S
H1580 C1609 0.950 . S
H1581 C1610 0.950 . S
H1582 C1612 0.950 . S
H1583 C1613 0.950 . S
C1584 H1566 0.951 . S
C1584 C1585 1.366 . S
C1584 C1586 1.388 . S
C1585 C1584 1.366 . S
C1585 C1589 1.385 . S
C1586 H1567 0.951 . S
C1586 C1584 1.388 . S
C1586 C1587 1.366 . S
C1587 C1586 1.366 . S
C1587 C1588 1.414 . S
C1587 C1590 1.499 . S
C1588 H1568 0.950 . S
C1588 C1587 1.414 . S
C1588 C1589 1.374 . S
C1589 H1569 0.950 . S
C1589 C1585 1.385 . S
C1589 C1588 1.374 . S
C1590 C1587 1.499 . S
C1590 C1591 1.373 . S
C1590 C1592 1.389 . S
C1591 H1570 0.950 . S
C1591 C1590 1.373 . S
C1591 C1607 1.377 . S
C1592 C1590 1.389 . S
C1592 C1593 1.524 . S
C1592 C1606 1.377 . S
C1593 C1592 1.524 . S
C1593 C1594 1.397 . S
C1593 C1598 1.363 . S
C1594 H1571 0.950 . S
C1594 C1593 1.397 . S
C1594 C1595 1.334 . S
C1595 H1572 0.950 . S
C1595 C1594 1.334 . S
C1595 C1596 1.287 . S
C1596 C1595 1.287 . S
C1596 C1597 1.524 . S
C1596 H1615 0.913 . S
C1597 H1573 0.950 . S
C1597 C1596 1.524 . S
C1597 C1598 1.415 . S
C1598 H1574 0.950 . S
C1598 C1593 1.363 . S
C1598 C1597 1.415 . S
C1599 H1575 0.951 . S
C1599 C1600 1.366 . S
C1599 C1601 1.388 . S
C1600 C1599 1.366 . S
C1600 C1604 1.385 . S
C1601 H1576 0.951 . S
C1601 C1599 1.388 . S
C1601 C1602 1.366 . S
C1602 C1601 1.366 . S
C1602 C1603 1.414 . S
C1602 C1605 1.499 . S
C1603 H1577 0.950 . S
C1603 C1602 1.414 . S
C1603 C1604 1.374 . S
C1604 H1578 0.950 . S
C1604 C1600 1.385 . S
C1604 C1603 1.374 . S
C1605 C1602 1.499 . S
C1605 C1606 1.373 . S
C1605 C1607 1.389 . S
C1606 H1579 0.950 . S
C1606 C1592 1.377 . S
C1606 C1605 1.373 . S
C1607 C1591 1.377 . S
C1607 C1605 1.389 . S
C1607 C1608 1.524 . S
C1608 C1607 1.524 . S
C1608 C1609 1.397 . S
C1608 C1613 1.363 . S
C1609 H1580 0.950 . S
C1609 C1608 1.397 . S
C1609 C1610 1.334 . S
C1610 H1581 0.950 . S
C1610 C1609 1.334 . S
C1610 C1611 1.287 . S
C1611 C1610 1.287 . S
C1611 C1612 1.524 . S
C1611 H1614 0.999 . S
C1612 H1582 0.950 . S
C1612 C1611 1.524 . S
C1612 C1613 1.415 . S
C1613 H1583 0.950 . S
C1613 C1608 1.363 . S
C1613 C1612 1.415 . S
H1614 C1611 0.999 . S
H1615 C1596 0.913 . S
C435 C29 1.296 . S
C450 C271 1.296 . S
C485 C49 1.045 . S
C500 C311 1.130 . S
C550 C345 2.205 . S
C535 C93 2.220 . S
C585 C119 2.576 . S
C600 C386 2.537 . S
C650 C306 1.321 . S
C635 C17 1.329 . S
C700 C266 2.114 . S
C685 C61 1.921 . S
C750 C394 1.462 . S
C735 C81 1.461 . S
C800 C355 1.798 . S
C785 C125 1.856 . S
C835 C23 1.156 . S
C850 C391 1.135 . S
C900 C314 1.901 . S
C885 C87 1.929 . S
C935 C113 2.484 . S
C950 C274 2.409 . S
C985 C55 1.394 . S
C1000 C342 1.515 . S
C1050 C262 1.274 . S
C1035 C157 1.196 . S
C1085 C189 1.219 . S
C1100 C302 1.197 . S
C1135 C221 2.132 . S
C1150 C354 2.165 . S
C1185 C253 2.638 . S
C1200 C395 2.612 . S
C1235 C145 1.354 . S
C1250 C315 1.430 . S
C1300 C275 2.058 . S
C1285 C183 2.052 . S
C1350 C385 1.501 . S
C1335 C209 1.463 . S
C1400 C346 1.759 . S
C1385 C247 1.808 . S
C1435 C151 1.068 . S
C1450 C382 1.133 . S
C1500 C305 1.886 . S
C1485 C215 1.877 . S
C1550 C265 2.380 . S
C1535 C241 2.431 . S
C1585 C177 1.536 . S
C1600 C351 1.531 . S
