# Generated by pormake.
# Topology nom, (4,4)-cn, num edge types: 1
# Building blocks:
#     Node 0, Type 0, BuildingBlock: MIFKUJ_clean_linker_1, # of connection points: 4
#     Node 1, Type 0, BuildingBlock: MIFKUJ_clean_linker_1, # of connection points: 4
#     Node 2, Type 0, BuildingBlock: MIFKUJ_clean_linker_1, # of connection points: 4
#     Node 3, Type 0, BuildingBlock: MIFKUJ_clean_linker_1, # of connection points: 4
#     Node 4, Type 0, BuildingBlock: MIFKUJ_clean_linker_1, # of connection points: 4
#     Node 5, Type 0, BuildingBlock: MIFKUJ_clean_linker_1, # of connection points: 4
#     Node 6, Type 1, BuildingBlock: QUQFOY_clean_sbu_3, # of connection points: 4
#     Node 7, Type 1, BuildingBlock: QUQFOY_clean_sbu_3, # of connection points: 4
#     Node 8, Type 1, BuildingBlock: QUQFOY_clean_sbu_3, # of connection points: 4
#     Node 9, Type 1, BuildingBlock: QUQFOY_clean_sbu_3, # of connection points: 4
#     Node 10, Type 1, BuildingBlock: QUQFOY_clean_sbu_3, # of connection points: 4
#     Node 11, Type 1, BuildingBlock: QUQFOY_clean_sbu_3, # of connection points: 4
#     Edge 12, Type (0, 1), BuildingBlock: XUDNAN_clean_linker_2, # of connection points: 2
#     Edge 13, Type (0, 1), BuildingBlock: XUDNAN_clean_linker_2, # of connection points: 2
#     Edge 14, Type (0, 1), BuildingBlock: XUDNAN_clean_linker_2, # of connection points: 2
#     Edge 15, Type (0, 1), BuildingBlock: XUDNAN_clean_linker_2, # of connection points: 2
#     Edge 16, Type (0, 1), BuildingBlock: XUDNAN_clean_linker_2, # of connection points: 2
#     Edge 17, Type (0, 1), BuildingBlock: XUDNAN_clean_linker_2, # of connection points: 2
#     Edge 18, Type (0, 1), BuildingBlock: XUDNAN_clean_linker_2, # of connection points: 2
#     Edge 19, Type (0, 1), BuildingBlock: XUDNAN_clean_linker_2, # of connection points: 2
#     Edge 20, Type (0, 1), BuildingBlock: XUDNAN_clean_linker_2, # of connection points: 2
#     Edge 21, Type (0, 1), BuildingBlock: XUDNAN_clean_linker_2, # of connection points: 2
#     Edge 22, Type (0, 1), BuildingBlock: XUDNAN_clean_linker_2, # of connection points: 2
#     Edge 23, Type (0, 1), BuildingBlock: XUDNAN_clean_linker_2, # of connection points: 2
#     Edge 24, Type (0, 1), BuildingBlock: XUDNAN_clean_linker_2, # of connection points: 2
#     Edge 25, Type (0, 1), BuildingBlock: XUDNAN_clean_linker_2, # of connection points: 2
#     Edge 26, Type (0, 1), BuildingBlock: XUDNAN_clean_linker_2, # of connection points: 2
#     Edge 27, Type (0, 1), BuildingBlock: XUDNAN_clean_linker_2, # of connection points: 2
#     Edge 28, Type (0, 1), BuildingBlock: XUDNAN_clean_linker_2, # of connection points: 2
#     Edge 29, Type (0, 1), BuildingBlock: XUDNAN_clean_linker_2, # of connection points: 2
#     Edge 30, Type (0, 1), BuildingBlock: XUDNAN_clean_linker_2, # of connection points: 2
#     Edge 31, Type (0, 1), BuildingBlock: XUDNAN_clean_linker_2, # of connection points: 2
#     Edge 32, Type (0, 1), BuildingBlock: XUDNAN_clean_linker_2, # of connection points: 2
#     Edge 33, Type (0, 1), BuildingBlock: XUDNAN_clean_linker_2, # of connection points: 2
#     Edge 34, Type (0, 1), BuildingBlock: XUDNAN_clean_linker_2, # of connection points: 2
#     Edge 35, Type (0, 1), BuildingBlock: XUDNAN_clean_linker_2, # of connection points: 2
# Relax obj value: 0.002
# Max RMSD: 0.099
# Mean RMSD: 0.065
data_MOF--net-nom--node1-QUQFOY_clean_sbu_3--node2-MIFKUJ_clean_linker_1--edge1-XUDNAN_clean_linker_2
_symmetry_space_group_name_H-M    P1
_symmetry_Int_Tables_number       1
_symmetry_cell_setting            triclinic
loop_
_symmetry_equiv_pos_as_xyz
'x, y, z'
_cell_length_a     53.447781
_cell_length_b     54.609355
_cell_length_c     56.684972
_cell_angle_alpha  89.96256
_cell_angle_beta   90.029
_cell_angle_gamma 119.93465
loop_
_atom_site_label
_atom_site_type_symbol
_atom_site_fract_x
_atom_site_fract_y
_atom_site_fract_z
_atom_type_partial_charge
H0 H 0.97461 0.46214 0.25511 0.0
H1 H 0.94217 0.45473 0.22179 0.0
H2 H 0.9157 0.50927 0.25509 0.0
H3 H 0.94837 0.51703 0.28789 0.0
H4 H 0.0206 0.51401 0.26765 0.0
H5 H 0.93668 0.43974 0.31052 0.0
H6 H 0.88696 0.41643 0.3251 0.0
H7 H 0.90266 0.49577 0.35506 0.0
H8 H 0.95251 0.51822 0.3416 0.0
H9 H 0.02994 0.55602 0.36199 0.0
H10 H 0.0657 0.57994 0.39274 0.0
H11 H 0.11625 0.5445 0.36525 0.0
H12 H 0.07922 0.51901 0.33534 0.0
H13 H 0.99482 0.50439 0.35252 0.0
H14 H 0.0723 0.58028 0.31015 0.0
H15 H 0.12198 0.60981 0.29654 0.0
H16 H 0.11842 0.53724 0.26271 0.0
H17 H 0.06882 0.50764 0.27687 0.0
C18 C 0.9637 0.48989 0.27412 0.0
C19 C 0.96146 0.47212 0.25536 0.0
C20 C 0.94285 0.4678 0.23641 0.0
C21 C 0.92653 0.48155 0.23581 0.0
C22 C 0.92819 0.4986 0.25498 0.0
C23 C 0.94663 0.50279 0.27388 0.0
C24 C 0.98578 0.4974 0.29283 0.0
C25 C 0.01498 0.5112 0.28624 0.0
C26 C 0.97855 0.49469 0.31703 0.0
C27 C 0.94821 0.48061 0.32513 0.0
C28 C 0.92929 0.45197 0.32032 0.0
C29 C 0.90082 0.43875 0.32855 0.0
C30 C 0.89069 0.4541 0.34146 0.0
C31 C 0.90976 0.48299 0.3458 0.0
C32 C 0.93826 0.49599 0.33795 0.0
C33 C 0.0519 0.53584 0.34616 0.0
C34 C 0.04856 0.55312 0.36268 0.0
C35 C 0.06932 0.56717 0.38011 0.0
C36 C 0.09417 0.56454 0.38136 0.0
C37 C 0.09735 0.54693 0.36495 0.0
C38 C 0.07633 0.53257 0.34763 0.0
C39 C 0.02976 0.5216 0.3274 0.0
C40 C 0.00056 0.50652 0.33398 0.0
C41 C 0.03703 0.52388 0.30316 0.0
C42 C 0.06707 0.54172 0.29478 0.0
C43 C 0.08231 0.57071 0.29994 0.0
C44 C 0.11058 0.5876 0.29196 0.0
C45 C 0.1241 0.57584 0.27854 0.0
C46 C 0.10868 0.54682 0.27323 0.0
C47 C 0.08033 0.52994 0.28117 0.0
H48 H 0.43799 0.96027 0.54215 0.0
H49 H 0.40929 0.91426 0.55972 0.0
H50 H 0.43749 0.87779 0.50531 0.0
H51 H 0.4697 0.92482 0.49001 0.0
H52 H 0.48864 0.99454 0.53778 0.0
H53 H 0.41571 0.94273 0.47595 0.0
H54 H 0.39077 0.90727 0.44511 0.0
H55 H 0.47267 0.93289 0.41128 0.0
H56 H 0.49739 0.96765 0.44242 0.0
H57 H 0.53734 0.0555 0.44828 0.0
H58 H 0.55364 0.1024 0.43118 0.0
H59 H 0.50812 0.1196 0.48558 0.0
H60 H 0.49041 0.07235 0.50178 0.0
H61 H 0.48746 0.01225 0.45215 0.0
H62 H 0.55954 0.06572 0.51217 0.0
H63 H 0.58408 0.10427 0.54043 0.0
H64 H 0.50254 0.07794 0.57539 0.0
H65 H 0.47869 0.03863 0.54784 0.0
C66 C 0.45572 0.9463 0.51426 0.0
C67 C 0.43856 0.94251 0.5342 0.0
C68 C 0.42148 0.91579 0.54402 0.0
C69 C 0.42001 0.89165 0.53368 0.0
C70 C 0.43782 0.89556 0.51402 0.0
C71 C 0.45591 0.9226 0.50479 0.0
C72 C 0.47297 0.97512 0.50374 0.0
C73 C 0.48807 0.99824 0.51903 0.0
C74 C 0.47362 0.98038 0.47916 0.0
C75 C 0.4584 0.95765 0.46153 0.0
C76 C 0.42827 0.94035 0.46207 0.0
C77 C 0.41406 0.92025 0.44437 0.0
C78 C 0.42975 0.91724 0.42574 0.0
C79 C 0.45998 0.93432 0.42554 0.0
C80 C 0.47413 0.95437 0.44321 0.0
C81 C 0.51315 0.06047 0.47672 0.0
C82 C 0.53082 0.06933 0.45654 0.0
C83 C 0.54013 0.09606 0.44678 0.0
C84 C 0.53228 0.11456 0.45724 0.0
C85 C 0.5148 0.10584 0.47744 0.0
C86 C 0.50494 0.07891 0.48684 0.0
C87 C 0.50178 0.03141 0.48632 0.0
C88 C 0.48814 0.00836 0.47085 0.0
C89 C 0.50233 0.02615 0.5107 0.0
C90 C 0.51735 0.04937 0.52795 0.0
C91 C 0.54708 0.06825 0.52604 0.0
C92 C 0.561 0.09044 0.54213 0.0
C93 C 0.54535 0.09444 0.56027 0.0
C94 C 0.51549 0.07534 0.56204 0.0
C95 C 0.50173 0.05289 0.54621 0.0
H96 H 0.51824 0.55717 0.70822 0.0
H97 H 0.50372 0.57865 0.7392 0.0
H98 H 0.41482 0.51317 0.73023 0.0
H99 H 0.42963 0.49172 0.69901 0.0
H100 H 0.50145 0.49395 0.70975 0.0
H101 H 0.47656 0.55987 0.66628 0.0
H102 H 0.43792 0.56861 0.65305 0.0
H103 H 0.39769 0.48873 0.61613 0.0
H104 H 0.43485 0.47941 0.63042 0.0
H105 H 0.48691 0.46151 0.60823 0.0
H106 H 0.5117 0.45023 0.57792 0.0
H107 H 0.58753 0.48347 0.62239 0.0
H108 H 0.56365 0.49738 0.65144 0.0
H109 H 0.49063 0.5041 0.62406 0.0
H110 H 0.49535 0.43132 0.65942 0.0
H111 H 0.51112 0.3995 0.67495 0.0
H112 H 0.56183 0.46108 0.728 0.0
H113 H 0.54738 0.49377 0.71165 0.0
C114 C 0.47498 0.52303 0.70131 0.0
C115 C 0.4956 0.54757 0.71283 0.0
C116 C 0.48726 0.55988 0.73042 0.0
C117 C 0.45812 0.54766 0.73705 0.0
C118 C 0.43743 0.52295 0.72552 0.0
C119 C 0.4458 0.51077 0.70768 0.0
C120 C 0.48467 0.51004 0.68329 0.0
C121 C 0.4995 0.49635 0.69095 0.0
C122 C 0.47974 0.51115 0.65892 0.0
C123 C 0.45835 0.51867 0.64979 0.0
C124 C 0.45921 0.54413 0.65557 0.0
C125 C 0.43731 0.54927 0.64776 0.0
C126 C 0.4144 0.52911 0.63391 0.0
C127 C 0.4145 0.50436 0.62732 0.0
C128 C 0.43602 0.49915 0.63527 0.0
C129 C 0.52325 0.48027 0.6323 0.0
C130 C 0.50902 0.46673 0.61135 0.0
C131 C 0.52316 0.45983 0.5941 0.0
C132 C 0.55177 0.46581 0.59753 0.0
C133 C 0.56577 0.47896 0.61874 0.0
C134 C 0.55188 0.48651 0.63569 0.0
C135 C 0.50856 0.4886 0.65033 0.0
C136 C 0.49292 0.5016 0.64278 0.0
C137 C 0.51023 0.48428 0.67484 0.0
C138 C 0.52056 0.4653 0.68401 0.0
C139 C 0.51045 0.43841 0.674 0.0
C140 C 0.51927 0.42011 0.68297 0.0
C141 C 0.53767 0.42795 0.7026 0.0
C142 C 0.54753 0.4546 0.71288 0.0
C143 C 0.53924 0.47321 0.70355 0.0
H144 H 0.05488 0.56831 0.76712 0.0
H145 H 0.08522 0.57534 0.73249 0.0
H146 H 0.0993 0.50809 0.75646 0.0
H147 H 0.06895 0.50115 0.79101 0.0
H148 H 0.00382 0.51384 0.77398 0.0
H149 H 0.09386 0.57886 0.82106 0.0
H150 H 0.13982 0.59246 0.84119 0.0
H151 H 0.10389 0.50718 0.86755 0.0
H152 H 0.05835 0.49405 0.84795 0.0
H153 H 0.9549 0.45233 0.8447 0.0
H154 H 0.91562 0.43469 0.87389 0.0
H155 H 0.9397 0.52057 0.89158 0.0
H156 H 0.97926 0.53807 0.86285 0.0
H157 H 0.02593 0.51977 0.85946 0.0
H158 H 0.96321 0.46102 0.77855 0.0
H159 H 0.91296 0.43163 0.76698 0.0
H160 H 0.88994 0.48286 0.80993 0.0
H161 H 0.94072 0.51361 0.81978 0.0
C162 C 0.05982 0.53432 0.78164 0.0
C163 C 0.06512 0.55559 0.76518 0.0
C164 C 0.0825 0.55964 0.74549 0.0
C165 C 0.09444 0.54214 0.74177 0.0
C166 C 0.0902 0.52175 0.75886 0.0
C167 C 0.07307 0.51791 0.77866 0.0
C168 C 0.03751 0.52677 0.80001 0.0
C169 C 0.00872 0.5156 0.79269 0.0
C170 C 0.04369 0.52771 0.82431 0.0
C171 C 0.0727 0.53556 0.8333 0.0
C172 C 0.09617 0.56311 0.83092 0.0
C173 C 0.12234 0.57081 0.84239 0.0
C174 C 0.12519 0.55102 0.85634 0.0
C175 C 0.1021 0.5231 0.85746 0.0
C176 C 0.07613 0.51551 0.84616 0.0
C177 C 0.96974 0.49645 0.85165 0.0
C178 C 0.95182 0.46728 0.85507 0.0
C179 C 0.92954 0.45727 0.8717 0.0
C180 C 0.92471 0.47635 0.88478 0.0
C181 C 0.94297 0.50552 0.88154 0.0
C182 C 0.96554 0.5155 0.86528 0.0
C183 C 0.9925 0.50726 0.83344 0.0
C184 C 0.02119 0.51882 0.84075 0.0
C185 C 0.98599 0.50503 0.80909 0.0
C186 C 0.95575 0.48925 0.80041 0.0
C187 C 0.94744 0.46629 0.78509 0.0
C188 C 0.91854 0.44919 0.77879 0.0
C189 C 0.89715 0.4544 0.78792 0.0
C190 C 0.90572 0.47816 0.80248 0.0
C191 C 0.93477 0.4956 0.80842 0.0
H192 H 0.60255 0.06437 0.01234 0.0
H193 H 0.63323 0.11222 0.02703 0.0
H194 H 0.5666 0.13235 0.01023 0.0
H195 H 0.53623 0.08434 0.99486 0.0
H196 H 0.54849 0.02758 0.03173 0.0
H197 H 0.58984 0.07476 0.95795 0.0
H198 H 0.60001 0.10373 0.92238 0.0
H199 H 0.50904 0.06155 0.90633 0.0
H200 H 0.49861 0.03359 0.94247 0.0
H201 H 0.46504 0.95372 0.95897 0.0
H202 H 0.44317 0.90494 0.94469 0.0
H203 H 0.50585 0.89372 0.98397 0.0
H204 H 0.52885 0.9428 0.99704 0.0
H205 H 0.51289 0.99592 0.95051 0.0
H206 H 0.46952 0.95441 0.02557 0.0
H207 H 0.45699 0.92565 0.06139 0.0
H208 H 0.54757 0.95554 0.07381 0.0
H209 H 0.55984 0.98498 0.03858 0.0
C210 C 0.56716 0.07085 0.00253 0.0
C211 C 0.59469 0.0792 0.01159 0.0
C212 C 0.61209 0.1065 0.02018 0.0
C213 C 0.60221 0.12602 0.02019 0.0
C214 C 0.57493 0.11789 0.01038 0.0
C215 C 0.55754 0.09049 0.00161 0.0
C216 C 0.54795 0.04088 0.99609 0.0
C217 C 0.54078 0.02063 0.01391 0.0
C218 C 0.53692 0.032 0.97306 0.0
C219 C 0.54337 0.05207 0.95314 0.0
C220 C 0.57193 0.07243 0.94735 0.0
C221 C 0.57779 0.0889 0.92695 0.0
C222 C 0.55527 0.08478 0.91176 0.0
C223 C 0.52672 0.06506 0.91785 0.0
C224 C 0.52081 0.04905 0.93842 0.0
C225 C 0.49842 0.95203 0.97944 0.0
C226 C 0.47407 0.9408 0.96461 0.0
C227 C 0.46153 0.91295 0.9565 0.0
C228 C 0.47276 0.89567 0.96343 0.0
C229 C 0.49655 0.90655 0.97872 0.0
C230 C 0.50953 0.93457 0.98635 0.0
C231 C 0.51355 0.98248 0.98614 0.0
C232 C 0.52004 0.00285 0.96843 0.0
C233 C 0.52347 0.99167 0.00936 0.0
C234 C 0.5156 0.9719 0.02952 0.0
C235 C 0.4866 0.95448 0.03593 0.0
C236 C 0.47949 0.93797 0.05637 0.0
C237 C 0.50129 0.93848 0.07069 0.0
C238 C 0.53025 0.95513 0.06359 0.0
C239 C 0.53733 0.97185 0.04335 0.0
H240 H 0.51193 0.48102 0.23069 0.0
H241 H 0.53462 0.46837 0.26231 0.0
H242 H 0.61735 0.51675 0.22795 0.0
H243 H 0.59465 0.52982 0.1967 0.0
H244 H 0.52526 0.53568 0.22011 0.0
H245 H 0.53223 0.45938 0.1793 0.0
H246 H 0.55523 0.43571 0.15921 0.0
H247 H 0.60321 0.50934 0.11538 0.0
H248 H 0.58116 0.53314 0.13571 0.0
H249 H 0.53722 0.56583 0.11988 0.0
H250 H 0.51325 0.57663 0.08833 0.0
H251 H 0.43563 0.54259 0.13053 0.0
H252 H 0.45919 0.53024 0.16141 0.0
H253 H 0.52675 0.51806 0.13456 0.0
H254 H 0.52913 0.59628 0.1702 0.0
H255 H 0.51338 0.62812 0.18567 0.0
H256 H 0.46191 0.56612 0.23829 0.0
H257 H 0.47683 0.53372 0.22223 0.0
C258 C 0.55157 0.50627 0.2113 0.0
C259 C 0.53491 0.48864 0.22987 0.0
C260 C 0.54786 0.48125 0.24782 0.0
C261 C 0.57779 0.49162 0.24766 0.0
C262 C 0.59429 0.50864 0.22868 0.0
C263 C 0.58131 0.51595 0.2107 0.0
C264 C 0.53814 0.51606 0.19353 0.0
C265 C 0.52511 0.53145 0.20139 0.0
C266 C 0.53959 0.51202 0.16905 0.0
C267 C 0.55491 0.49804 0.15896 0.0
C268 C 0.54816 0.47062 0.16572 0.0
C269 C 0.56117 0.45709 0.15423 0.0
C270 C 0.58062 0.47066 0.13563 0.0
C271 C 0.58796 0.49833 0.12947 0.0
C272 C 0.57536 0.51191 0.14107 0.0
C273 C 0.50004 0.54713 0.14307 0.0
C274 C 0.51503 0.56072 0.12237 0.0
C275 C 0.50137 0.5672 0.1044 0.0
C276 C 0.47241 0.56035 0.10676 0.0
C277 C 0.45779 0.54771 0.1279 0.0
C278 C 0.47137 0.54096 0.14575 0.0
C279 C 0.51381 0.53774 0.16102 0.0
C280 C 0.52675 0.52229 0.15326 0.0
C281 C 0.51366 0.54308 0.18546 0.0
C282 C 0.50375 0.5623 0.19472 0.0
C283 C 0.51398 0.58921 0.18475 0.0
C284 C 0.50512 0.60749 0.19367 0.0
C285 C 0.4864 0.59951 0.21312 0.0
C286 C 0.4765 0.57281 0.22336 0.0
C287 C 0.48499 0.55431 0.21418 0.0
C288 C 0.70679 0.40906 0.41446 0.0
O289 O 0.71235 0.43057 0.42688 0.0
Cd290 Cd 0.67618 0.44012 0.44169 0.0
O291 O 0.68079 0.38947 0.41113 0.0
Cd292 Cd 0.63041 0.37493 0.42325 0.0
C293 C 0.63754 0.4294 0.38932 0.0
O294 O 0.64238 0.39808 0.46094 0.0
O295 O 0.59807 0.38172 0.45056 0.0
O296 O 0.62399 0.32992 0.43629 0.0
C297 C 0.61775 0.39472 0.4658 0.0
O298 O 0.65481 0.44528 0.4053 0.0
C299 C 0.60354 0.3147 0.42229 0.0
O300 O 0.62538 0.40253 0.39085 0.0
O301 O 0.59527 0.32745 0.40825 0.0
C302 C 0.27632 0.57831 0.56476 0.0
O303 O 0.25429 0.56141 0.55279 0.0
Cd304 Cd 0.21755 0.5691 0.53668 0.0
O305 O 0.28181 0.60349 0.56891 0.0
Cd306 Cd 0.25677 0.63086 0.55954 0.0
C307 C 0.19766 0.5826 0.5904 0.0
O308 O 0.24105 0.6146 0.51892 0.0
O309 O 0.22367 0.63864 0.53506 0.0
O310 O 0.30287 0.67517 0.55404 0.0
C311 C 0.22598 0.62649 0.51687 0.0
O312 O 0.19124 0.56669 0.57237 0.0
C313 C 0.29614 0.68949 0.56764 0.0
O314 O 0.22078 0.60655 0.59093 0.0
O315 O 0.27212 0.67611 0.57831 0.0
C316 C 0.70524 0.29615 0.74794 0.0
O317 O 0.70835 0.27584 0.74067 0.0
Cd318 Cd 0.66921 0.23351 0.72393 0.0
O319 O 0.68048 0.29416 0.74762 0.0
Cd320 Cd 0.63041 0.25886 0.73669 0.0
C321 C 0.62385 0.20513 0.77084 0.0
O322 O 0.64216 0.24677 0.6984 0.0
O323 O 0.59844 0.21968 0.71043 0.0
O324 O 0.62259 0.29619 0.72154 0.0
C325 C 0.61685 0.22691 0.69394 0.0
O326 O 0.63901 0.20196 0.75516 0.0
C327 C 0.60333 0.29281 0.73632 0.0
O328 O 0.61947 0.22602 0.77014 0.0
O329 O 0.59623 0.27331 0.7515 0.0
C330 C 0.31162 0.59091 0.91909 0.0
O331 O 0.31335 0.56924 0.92457 0.0
Cd332 Cd 0.35632 0.56803 0.93349 0.0
O333 O 0.33394 0.61551 0.91841 0.0
Cd334 Cd 0.38684 0.63736 0.92679 0.0
C335 C 0.39636 0.59841 0.88351 0.0
O336 O 0.37776 0.60704 0.95986 0.0
O337 O 0.42296 0.63582 0.95446 0.0
O338 O 0.38893 0.67963 0.94385 0.0
C339 C 0.40336 0.61615 0.96673 0.0
O340 O 0.38212 0.57624 0.89596 0.0
C341 C 0.40621 0.69655 0.9285 0.0
O342 O 0.40037 0.62222 0.89065 0.0
O343 O 0.41463 0.68602 0.91253 0.0
C344 C 0.71527 0.42372 0.06492 0.0
O345 O 0.73432 0.44516 0.05386 0.0
Cd346 Cd 0.77983 0.45166 0.04188 0.0
O347 O 0.71855 0.40256 0.06923 0.0
Cd348 Cd 0.75447 0.38732 0.05908 0.0
C349 C 0.80514 0.43847 0.09394 0.0
O350 O 0.7662 0.40934 0.02074 0.0
O351 O 0.79355 0.393 0.03163 0.0
O352 O 0.7139 0.34199 0.04746 0.0
C353 C 0.78646 0.40468 0.01568 0.0
O354 O 0.80637 0.45564 0.07814 0.0
C355 C 0.72045 0.32705 0.06039 0.0
O356 O 0.78748 0.41207 0.09204 0.0
O357 O 0.74276 0.34019 0.07327 0.0
C358 C 0.31619 0.72866 0.23385 0.0
O359 O 0.31474 0.749 0.22442 0.0
Cd360 Cd 0.35672 0.79513 0.2211 0.0
O361 O 0.34037 0.73197 0.2407 0.0
Cd362 Cd 0.39218 0.76812 0.24158 0.0
C363 C 0.37794 0.80757 0.27934 0.0
O364 O 0.39615 0.79183 0.20391 0.0
O365 O 0.43205 0.81287 0.22809 0.0
O366 O 0.40366 0.73358 0.22598 0.0
C367 C 0.42154 0.81202 0.20783 0.0
O368 O 0.36665 0.81261 0.26155 0.0
C369 C 0.41813 0.73333 0.24363 0.0
O370 O 0.38842 0.79118 0.2776 0.0
O371 O 0.42085 0.74957 0.26071 0.0
H372 H 0.14854 0.62903 0.25952 0.0
H373 H 0.16784 0.56343 0.27929 0.0
H374 H 0.21862 0.59428 0.26724 0.0
H375 H 0.19656 0.65543 0.20852 0.0
H376 H 0.20684 0.69172 0.21425 0.0
H377 H 0.17164 0.66373 0.22291 0.0
H378 H 0.18152 0.68224 0.26595 0.0
H379 H 0.21668 0.71027 0.25742 0.0
H380 H 0.21323 0.68658 0.28096 0.0
H381 H 0.26791 0.63356 0.25591 0.0
H382 H 0.312 0.6781 0.24552 0.0
H383 H 0.26026 0.7178 0.23274 0.0
C384 C 0.16343 0.62112 0.26125 0.0
C385 C 0.15425 0.59382 0.27032 0.0
C386 C 0.17433 0.58414 0.27211 0.0
C387 C 0.20321 0.60153 0.26539 0.0
C388 C 0.21159 0.62844 0.25674 0.0
C389 C 0.19225 0.63813 0.25454 0.0
C390 C 0.20694 0.66823 0.24553 0.0
C391 C 0.19477 0.66986 0.22136 0.0
C392 C 0.20445 0.68799 0.26354 0.0
C393 C 0.2377 0.67419 0.24345 0.0
C394 C 0.23991 0.65093 0.24991 0.0
C395 C 0.2664 0.65181 0.25055 0.0
C396 C 0.29132 0.67722 0.24467 0.0
C397 C 0.28956 0.70138 0.23817 0.0
C398 C 0.26229 0.69961 0.23728 0.0
H399 H 0.56148 0.1656 0.47934 0.0
H400 H 0.52422 0.12678 0.4121 0.0
H401 H 0.53774 0.17385 0.39555 0.0
H402 H 0.54063 0.21827 0.47887 0.0
H403 H 0.57376 0.24527 0.49189 0.0
H404 H 0.56104 0.2086 0.49827 0.0
H405 H 0.6097 0.21428 0.48394 0.0
H406 H 0.62265 0.25101 0.47765 0.0
H407 H 0.62269 0.22806 0.45482 0.0
H408 H 0.55312 0.22527 0.3873 0.0
H409 H 0.57359 0.27723 0.38675 0.0
H410 H 0.60337 0.28205 0.4587 0.0
C411 C 0.55625 0.16711 0.46112 0.0
C412 C 0.54174 0.14274 0.44695 0.0
C413 C 0.53546 0.14536 0.42313 0.0
C414 C 0.54292 0.17192 0.41366 0.0
C415 C 0.55702 0.1956 0.42818 0.0
C416 C 0.56401 0.19345 0.4513 0.0
C417 C 0.57989 0.22211 0.46304 0.0
C418 C 0.5628 0.22364 0.48427 0.0
C419 C 0.61055 0.22928 0.47028 0.0
C420 C 0.58052 0.24075 0.44302 0.0
C421 C 0.56697 0.2251 0.42312 0.0
C422 C 0.56405 0.23776 0.4027 0.0
C423 C 0.5756 0.26721 0.40257 0.0
C424 C 0.59023 0.28361 0.4226 0.0
C425 C 0.59259 0.27008 0.44302 0.0
H426 H 0.41535 0.57772 0.61816 0.0
H427 H 0.35744 0.48896 0.63374 0.0
H428 H 0.31662 0.49276 0.61823 0.0
H429 H 0.36305 0.60078 0.63424 0.0
H430 H 0.37506 0.62696 0.61117 0.0
H431 H 0.40003 0.61786 0.62437 0.0
H432 H 0.4118 0.60608 0.58304 0.0
H433 H 0.38667 0.61486 0.56973 0.0
H434 H 0.3829 0.58057 0.56477 0.0
H435 H 0.28317 0.50417 0.59805 0.0
H436 H 0.25672 0.52418 0.57792 0.0
H437 H 0.3342 0.60684 0.5775 0.0
C438 C 0.394 0.55925 0.61868 0.0
C439 C 0.38975 0.53288 0.62677 0.0
C440 C 0.36144 0.50918 0.62707 0.0
C441 C 0.33802 0.51115 0.61844 0.0
C442 C 0.34306 0.53709 0.60994 0.0
C443 C 0.37013 0.5609 0.61034 0.0
C444 C 0.36922 0.5861 0.59989 0.0
C445 C 0.37732 0.6093 0.61853 0.0
C446 C 0.38881 0.59757 0.57806 0.0
C447 C 0.33754 0.57244 0.59317 0.0
C448 C 0.32305 0.54411 0.59906 0.0
C449 C 0.2941 0.52641 0.59361 0.0
C450 C 0.27935 0.53797 0.582 0.0
C451 C 0.29339 0.56706 0.57617 0.0
C452 C 0.32289 0.58458 0.58194 0.0
H453 H 0.86988 0.39661 0.7834 0.0
H454 H 0.85381 0.46712 0.78084 0.0
H455 H 0.80233 0.43391 0.77276 0.0
H456 H 0.82408 0.35917 0.73489 0.0
H457 H 0.81229 0.32483 0.74756 0.0
H458 H 0.84737 0.354 0.75478 0.0
H459 H 0.83457 0.34587 0.79926 0.0
H460 H 0.79936 0.31675 0.79217 0.0
H461 H 0.80265 0.34567 0.8098 0.0
H462 H 0.75258 0.39287 0.76436 0.0
H463 H 0.70923 0.34774 0.75386 0.0
H464 H 0.75893 0.30485 0.75947 0.0
C465 C 0.85572 0.40526 0.78092 0.0
C466 C 0.86608 0.43461 0.78282 0.0
C467 C 0.84645 0.44474 0.77988 0.0
C468 C 0.81715 0.42604 0.77517 0.0
C469 C 0.80782 0.3973 0.77332 0.0
C470 C 0.82658 0.387 0.77593 0.0
C471 C 0.81144 0.35537 0.77212 0.0
C472 C 0.82458 0.34792 0.75108 0.0
C473 C 0.81204 0.34002 0.79468 0.0
C474 C 0.78122 0.34947 0.76669 0.0
C475 C 0.77947 0.37386 0.76777 0.0
C476 C 0.75371 0.37365 0.76344 0.0
C477 C 0.72919 0.3479 0.75755 0.0
C478 C 0.73071 0.32278 0.75577 0.0
C479 C 0.75709 0.32368 0.76059 0.0
H480 H 0.452 0.84586 0.98761 0.0
H481 H 0.46768 0.88116 0.91708 0.0
H482 H 0.45171 0.83377 0.90028 0.0
H483 H 0.4754 0.7963 0.97814 0.0
H484 H 0.44765 0.7688 0.99592 0.0
H485 H 0.45964 0.80529 0.00236 0.0
H486 H 0.40709 0.79548 -0.00115 0.0
H487 H 0.39488 0.75888 0.99255 0.0
H488 H 0.3868 0.7795 0.97234 0.0
H489 H 0.43812 0.78351 0.89154 0.0
H490 H 0.42252 0.73258 0.89104 0.0
H491 H 0.41193 0.72915 0.96705 0.0
C492 C 0.45179 0.84344 0.96864 0.0
C493 C 0.46102 0.86697 0.95355 0.0
C494 C 0.46045 0.86323 0.92883 0.0
C495 C 0.45155 0.83648 0.91918 0.0
C496 C 0.44286 0.8137 0.93452 0.0
C497 C 0.4424 0.81679 0.9587 0.0
C498 C 0.43173 0.7888 0.97124 0.0
C499 C 0.455 0.78988 0.98789 0.0
C500 C 0.40344 0.78016 0.98453 0.0
C501 C 0.42675 0.76958 0.95037 0.0
C502 C 0.43358 0.78442 0.92937 0.0
C503 C 0.43229 0.77157 0.90783 0.0
C504 C 0.42355 0.74271 0.90772 0.0
C505 C 0.41578 0.72698 0.92896 0.0
C506 C 0.41732 0.74062 0.95052 0.0
H507 H 0.61234 0.44682 0.15118 0.0
H508 H 0.57659 0.463 0.08836 0.0
H509 H 0.60216 0.44543 0.06355 0.0
H510 H 0.6804 0.47148 0.12938 0.0
H511 H 0.68742 0.4457 0.14305 0.0
H512 H 0.66215 0.45421 0.1563 0.0
H513 H 0.62245 0.40144 0.15518 0.0
H514 H 0.64772 0.3927 0.14203 0.0
H515 H 0.61383 0.38247 0.12762 0.0
H516 H 0.63735 0.43478 0.04557 0.0
H517 H 0.67929 0.42953 0.03522 0.0
H518 H 0.69214 0.41833 0.10904 0.0
C519 C 0.60919 0.44564 0.13225 0.0
C520 C 0.59244 0.45601 0.12157 0.0
C521 C 0.58933 0.45503 0.09676 0.0
C522 C 0.60364 0.44498 0.08257 0.0
C523 C 0.62082 0.43579 0.09349 0.0
C524 C 0.62349 0.4357 0.11776 0.0
C525 C 0.6458 0.42755 0.12474 0.0
C526 C 0.67039 0.45115 0.13921 0.0
C527 C 0.63159 0.39936 0.13819 0.0
C528 C 0.65618 0.42447 0.1006 0.0
C529 C 0.64113 0.42897 0.08287 0.0
C530 C 0.64875 0.4304 0.05921 0.0
C531 C 0.6726 0.42752 0.05349 0.0
C532 C 0.68833 0.423 0.07132 0.0
C533 C 0.67975 0.42089 0.09511 0.0
H534 H 0.42395 0.8426 0.53172 0.0
H535 H 0.36784 0.87399 0.55599 0.0
H536 H 0.33413 0.82723 0.57172 0.0
H537 H 0.36589 0.77808 0.51001 0.0
H538 H 0.38244 0.75728 0.51742 0.0
H539 H 0.40467 0.79433 0.51099 0.0
H540 H 0.43022 0.8018 0.55137 0.0
H541 H 0.40784 0.76476 0.55802 0.0
H542 H 0.40897 0.79095 0.57802 0.0
H543 H 0.30535 0.77708 0.58395 0.0
H544 H 0.28006 0.7252 0.58685 0.0
H545 H 0.35118 0.72432 0.55061 0.0
C546 C 0.40465 0.83989 0.54027 0.0
C547 C 0.39939 0.86276 0.54304 0.0
C548 C 0.3735 0.85762 0.55441 0.0
C549 C 0.35388 0.83088 0.56332 0.0
C550 C 0.35987 0.80908 0.56035 0.0
C551 C 0.38431 0.81307 0.54872 0.0
C552 C 0.38398 0.78528 0.54576 0.0
C553 C 0.38425 0.77834 0.51948 0.0
C554 C 0.40926 0.78574 0.55909 0.0
C555 C 0.3553 0.76508 0.55724 0.0
C556 C 0.34216 0.77945 0.56602 0.0
C557 C 0.3154 0.76555 0.57715 0.0
C558 C 0.30125 0.73605 0.57878 0.0
C559 C 0.3136 0.72068 0.56894 0.0
C560 C 0.34124 0.73549 0.55838 0.0
H561 H 0.563 0.4022 0.67943 0.0
H562 H 0.53107 0.40893 0.74797 0.0
H563 H 0.54313 0.37388 0.76414 0.0
H564 H 0.53875 0.32808 0.68119 0.0
H565 H 0.57049 0.33153 0.66692 0.0
H566 H 0.55884 0.35666 0.6608 0.0
H567 H 0.60916 0.39774 0.67294 0.0
H568 H 0.62102 0.37276 0.67896 0.0
H569 H 0.62359 0.39712 0.70155 0.0
H570 H 0.55695 0.33647 0.77214 0.0
H571 H 0.57605 0.30342 0.77248 0.0
H572 H 0.60157 0.32377 0.69924 0.0
C573 C 0.55857 0.39622 0.69783 0.0
C574 C 0.54602 0.40801 0.71251 0.0
C575 C 0.54078 0.40008 0.73655 0.0
C576 C 0.54742 0.38014 0.74581 0.0
C577 C 0.55961 0.3687 0.73082 0.0
C578 C 0.56551 0.37677 0.70742 0.0
C579 C 0.57965 0.36214 0.69524 0.0
C580 C 0.5608 0.3435 0.67483 0.0
C581 C 0.61017 0.38373 0.68668 0.0
C582 C 0.58064 0.34445 0.71537 0.0
C583 C 0.56868 0.34823 0.73568 0.0
C584 C 0.56657 0.33351 0.7564 0.0
C585 C 0.57734 0.31472 0.75641 0.0
C586 C 0.59042 0.31122 0.73595 0.0
C587 C 0.59191 0.32622 0.71521 0.0
H588 H 0.18247 0.58378 0.8435 0.0
H589 H 0.12673 0.53681 0.90207 0.0
H590 H 0.16922 0.54594 0.92557 0.0
H591 H 0.23126 0.55959 0.84961 0.0
H592 H 0.26326 0.59256 0.84267 0.0
H593 H 0.22886 0.58516 0.83103 0.0
H594 H 0.23549 0.63139 0.84953 0.0
H595 H 0.27006 0.63904 0.86115 0.0
H596 H 0.24275 0.63762 0.88067 0.0
H597 H 0.21585 0.55409 0.94067 0.0
H598 H 0.26561 0.56398 0.9478 0.0
H599 H 0.29281 0.60864 0.88114 0.0
C600 C 0.17934 0.57603 0.86146 0.0
C601 C 0.15129 0.55931 0.87088 0.0
C602 C 0.14799 0.54921 0.89435 0.0
C603 C 0.17199 0.55448 0.90792 0.0
C604 C 0.19924 0.57027 0.89794 0.0
C605 C 0.20321 0.58126 0.87539 0.0
C606 C 0.23491 0.59623 0.8686 0.0
C607 C 0.23985 0.58256 0.84668 0.0
C608 C 0.24648 0.62796 0.86477 0.0
C609 C 0.24786 0.59101 0.89054 0.0
C610 C 0.22679 0.57606 0.90723 0.0
C611 C 0.23271 0.56637 0.92804 0.0
C612 C 0.26091 0.57195 0.93189 0.0
C613 C 0.28285 0.58737 0.91517 0.0
C614 C 0.27641 0.59741 0.8944 0.0
H615 H 0.61056 0.17733 0.0044 0.0
H616 H 0.63432 0.13888 0.06071 0.0
H617 H 0.66594 0.18592 0.07788 0.0
H618 H 0.67901 0.23817 0.99704 0.0
H619 H 0.66524 0.26184 0.99187 0.0
H620 H 0.64361 0.22502 0.98441 0.0
H621 H 0.60205 0.22107 0.01065 0.0
H622 H 0.62353 0.25794 0.01814 0.0
H623 H 0.60905 0.23167 0.04115 0.0
H624 H 0.69705 0.23734 0.08778 0.0
H625 H 0.72426 0.28952 0.09023 0.0
H626 H 0.67858 0.29416 0.02857 0.0
C627 C 0.62205 0.17873 0.02053 0.0
C628 C 0.62012 0.15436 0.03105 0.0
C629 C 0.63586 0.15725 0.05202 0.0
C630 C 0.65372 0.18387 0.06204 0.0
C631 C 0.65542 0.20744 0.05106 0.0
C632 C 0.63986 0.20514 0.03088 0.0
C633 C 0.64597 0.23388 0.02232 0.0
C634 C 0.65925 0.24008 0.99744 0.0
C635 C 0.61852 0.23627 0.02312 0.0
C636 C 0.66772 0.25268 0.04064 0.0
C637 C 0.67286 0.23704 0.05709 0.0
C638 C 0.693 0.24983 0.07515 0.0
C639 C 0.70838 0.27945 0.07638 0.0
C640 C 0.70341 0.29586 0.0597 0.0
C641 C 0.68263 0.28218 0.04175 0.0
H642 H 0.46509 0.62816 0.18856 0.0
H643 H 0.48732 0.61497 0.25917 0.0
H644 H 0.47331 0.64875 0.27491 0.0
H645 H 0.4899 0.70231 0.194 0.0
H646 H 0.4606 0.70064 0.17696 0.0
H647 H 0.47281 0.67582 0.1714 0.0
H648 H 0.42089 0.63416 0.17812 0.0
H649 H 0.40851 0.65884 0.18361 0.0
H650 H 0.40245 0.63225 0.20527 0.0
H651 H 0.45796 0.68516 0.28256 0.0
H652 H 0.4391 0.71839 0.28192 0.0
H653 H 0.42536 0.70585 0.2064 0.0
C654 C 0.46712 0.63252 0.20732 0.0
C655 C 0.4774 0.61916 0.22268 0.0
C656 C 0.47936 0.62497 0.24717 0.0
C657 C 0.4716 0.64419 0.25622 0.0
C658 C 0.46168 0.65715 0.24055 0.0
C659 C 0.45916 0.65133 0.21665 0.0
C660 C 0.44711 0.66735 0.20362 0.0
C661 C 0.46891 0.68774 0.18542 0.0
C662 C 0.41801 0.64693 0.19198 0.0
C663 C 0.44333 0.68321 0.22389 0.0
C664 C 0.45207 0.67728 0.24503 0.0
C665 C 0.45093 0.68985 0.26612 0.0
C666 C 0.44028 0.70874 0.26558 0.0
C667 C 0.43066 0.71457 0.24415 0.0
C668 C 0.43238 0.70167 0.22309 0.0
H669 H 0.87115 0.46491 0.38288 0.0
H670 H 0.84138 0.41226 0.32016 0.0
H671 H 0.7912 0.39113 0.33435 0.0
H672 H 0.81757 0.41528 0.42415 0.0
H673 H 0.81399 0.44251 0.43905 0.0
H674 H 0.8478 0.45079 0.42549 0.0
H675 H 0.84677 0.4903 0.40086 0.0
H676 H 0.81306 0.48223 0.41439 0.0
H677 H 0.81575 0.48176 0.38271 0.0
H678 H 0.74382 0.37784 0.35432 0.0
H679 H 0.70331 0.37591 0.37689 0.0
H680 H 0.76442 0.43986 0.42474 0.0
C681 C 0.8542 0.44896 0.37201 0.0
C682 C 0.86044 0.44026 0.35038 0.0
C683 C 0.83739 0.41897 0.33701 0.0
C684 C 0.80874 0.4069 0.34488 0.0
C685 C 0.80344 0.41638 0.36609 0.0
C686 C 0.82555 0.43705 0.37939 0.0
C687 C 0.81408 0.44527 0.40052 0.0
C688 C 0.82395 0.43802 0.42367 0.0
C689 C 0.82294 0.47675 0.39954 0.0
C690 C 0.78198 0.42643 0.39678 0.0
C691 C 0.77624 0.40952 0.3771 0.0
C692 C 0.74807 0.39087 0.36984 0.0
C693 C 0.72521 0.38988 0.3828 0.0
C694 C 0.73072 0.40778 0.40255 0.0
C695 C 0.75951 0.42593 0.40973 0.0
H696 H 0.12629 0.5464 0.40639 0.0
H697 H 0.1126 0.61798 0.39827 0.0
H698 H 0.14643 0.64232 0.4309 0.0
H699 H 0.13084 0.54739 0.46812 0.0
H700 H 0.15919 0.53868 0.46953 0.0
H701 H 0.13484 0.52719 0.44478 0.0
H702 H 0.17817 0.55189 0.41608 0.0
H703 H 0.20271 0.56336 0.44076 0.0
H704 H 0.20396 0.58889 0.41992 0.0
H705 H 0.17814 0.6571 0.46658 0.0
H706 H 0.20849 0.66268 0.50135 0.0
H707 H 0.20485 0.58351 0.48447 0.0
C708 C 0.13081 0.56742 0.41109 0.0
C709 C 0.11641 0.58006 0.39983 0.0
C710 C 0.12275 0.60749 0.4069 0.0
C711 C 0.14217 0.62164 0.42531 0.0
C712 C 0.15551 0.60836 0.43627 0.0
C713 C 0.15044 0.58205 0.42926 0.0
C714 C 0.16725 0.57228 0.44433 0.0
C715 C 0.1468 0.54476 0.45746 0.0
C716 C 0.18934 0.56892 0.42938 0.0
C717 C 0.18208 0.59698 0.46121 0.0
C718 C 0.17493 0.61752 0.45627 0.0
C719 C 0.18432 0.64141 0.47038 0.0
C720 C 0.20144 0.64436 0.49011 0.0
C721 C 0.20925 0.62372 0.49535 0.0
C722 C 0.19968 0.5999 0.48055 0.0
H723 H 0.53336 0.09545 0.60751 0.0
H724 H 0.59051 0.14807 0.55152 0.0
H725 H 0.61518 0.18735 0.57968 0.0
H726 H 0.52489 0.15093 0.63437 0.0
H727 H 0.52352 0.13815 0.66394 0.0
H728 H 0.51101 0.11378 0.63955 0.0
H729 H 0.54622 0.09625 0.65158 0.0
H730 H 0.55888 0.1206 0.67598 0.0
H731 H 0.58418 0.12141 0.65454 0.0
H732 H 0.63459 0.22054 0.61424 0.0
H733 H 0.64547 0.24608 0.65223 0.0
H734 H 0.573 0.17319 0.68462 0.0
C735 C 0.55079 0.11528 0.60096 0.0
C736 C 0.56003 0.1184 0.57719 0.0
C737 C 0.58334 0.14475 0.56969 0.0
C738 C 0.59738 0.16734 0.58553 0.0
C739 C 0.58766 0.16345 0.60875 0.0
C740 C 0.56472 0.13818 0.6164 0.0
C741 C 0.55809 0.13966 0.64217 0.0
C742 C 0.52757 0.13538 0.64518 0.0
C743 C 0.56209 0.11821 0.65693 0.0
C744 C 0.58102 0.1697 0.64786 0.0
C745 C 0.598 0.18298 0.62839 0.0
C746 C 0.62128 0.21046 0.62955 0.0
C747 C 0.62732 0.22476 0.65118 0.0
C748 C 0.60993 0.21167 0.67124 0.0
C749 C 0.58641 0.18384 0.66947 0.0
H750 H 0.42268 0.52077 0.77472 0.0
H751 H 0.47528 0.6035 0.74323 0.0
H752 H 0.46444 0.62543 0.7769 0.0
H753 H 0.36735 0.53407 0.79942 0.0
H754 H 0.36331 0.51398 0.82581 0.0
H755 H 0.37395 0.50477 0.79858 0.0
H756 H 0.41939 0.50932 0.81915 0.0
H757 H 0.40903 0.51876 0.84638 0.0
H758 H 0.44406 0.54188 0.8338 0.0
H759 H 0.44927 0.63846 0.81456 0.0
H760 H 0.43053 0.64176 0.85348 0.0
H761 H 0.38819 0.55049 0.8607 0.0
C762 C 0.43147 0.54344 0.77473 0.0
C763 C 0.44976 0.56046 0.75636 0.0
C764 C 0.46135 0.59012 0.75721 0.0
C765 C 0.45524 0.60274 0.7762 0.0
C766 C 0.43753 0.58541 0.79422 0.0
C767 C 0.42573 0.5564 0.79363 0.0
C768 C 0.40822 0.54271 0.81566 0.0
C769 C 0.37631 0.52271 0.80949 0.0
C770 C 0.42095 0.52727 0.82956 0.0
C771 C 0.4122 0.56857 0.8288 0.0
C772 C 0.42906 0.59296 0.81607 0.0
C773 C 0.43595 0.61949 0.82466 0.0
C774 C 0.42522 0.62114 0.84683 0.0
C775 C 0.40789 0.59641 0.86023 0.0
C776 C 0.4014 0.56982 0.85098 0.0
H777 H 0.91234 0.44025 0.92219 0.0
H778 H 0.88224 0.48981 0.88456 0.0
H779 H 0.84191 0.47442 0.91282 0.0
H780 H 0.84133 0.38147 0.93881 0.0
H781 H 0.85319 0.37752 0.96762 0.0
H782 H 0.87836 0.39058 0.94339 0.0
H783 H 0.91228 0.43523 0.96766 0.0
H784 H 0.8872 0.42235 0.99192 0.0
H785 H 0.89844 0.45673 0.97958 0.0
H786 H 0.80625 0.45524 0.94542 0.0
H787 H 0.77805 0.43502 0.98167 0.0
H788 H 0.83195 0.39893 -0.00048 0.0
C789 C 0.89695 0.44746 0.9198 0.0
C790 C 0.90012 0.46604 0.90124 0.0
C791 C 0.88004 0.47558 0.89876 0.0
C792 C 0.85708 0.46687 0.91463 0.0
C793 C 0.85468 0.44879 0.93293 0.0
C794 C 0.87409 0.43925 0.93571 0.0
C795 C 0.86749 0.42132 0.95777 0.0
C796 C 0.85962 0.39091 0.95152 0.0
C797 C 0.89286 0.43472 0.97526 0.0
C798 C 0.84152 0.42252 0.96702 0.0
C799 C 0.83437 0.43823 0.95224 0.0
C800 C 0.81154 0.44282 0.95712 0.0
C801 C 0.79567 0.43124 0.97778 0.0
C802 C 0.80282 0.41543 0.99346 0.0
C803 C 0.82595 0.41088 0.98787 0.0
H804 H 0.4547 0.88596 0.08105 0.0
H805 H 0.53124 0.95598 0.1123 0.0
H806 H 0.51964 0.93071 0.15021 0.0
H807 H 0.40913 0.87218 0.13184 0.0
H808 H 0.38999 0.8344 0.12783 0.0
H809 H 0.40488 0.85741 0.10269 0.0
H810 H 0.43344 0.83234 0.09121 0.0
H811 H 0.41866 0.80925 0.11633 0.0
H812 H 0.45722 0.82998 0.11251 0.0
H813 H 0.49996 0.89829 0.18476 0.0
H814 H 0.47255 0.86106 0.21416 0.0
H815 H 0.40748 0.81293 0.16129 0.0
C816 C 0.46897 0.89608 0.09586 0.0
C817 C 0.49411 0.92289 0.0935 0.0
C818 C 0.51225 0.9352 0.11339 0.0
C819 C 0.50574 0.92111 0.13511 0.0
C820 C 0.48086 0.89479 0.13678 0.0
C821 C 0.46267 0.88241 0.11777 0.0
C822 C 0.43696 0.85417 0.12453 0.0
C823 C 0.40856 0.85458 0.12155 0.0
C824 C 0.43656 0.83001 0.1103 0.0
C825 C 0.44358 0.85269 0.15032 0.0
C826 C 0.46909 0.8763 0.15696 0.0
C827 C 0.47991 0.87971 0.17981 0.0
C828 C 0.46419 0.85844 0.19637 0.0
C829 C 0.43785 0.83414 0.19004 0.0
C830 C 0.42747 0.83132 0.16668 0.0
H831 H 0.56014 0.44192 0.27218 0.0
H832 H 0.62729 0.53014 0.26968 0.0
H833 H 0.65005 0.52312 0.30487 0.0
H834 H 0.55314 0.43668 0.33484 0.0
H835 H 0.54763 0.40135 0.3365 0.0
H836 H 0.53705 0.41272 0.31039 0.0
H837 H 0.56877 0.3996 0.28478 0.0
H838 H 0.57937 0.38808 0.31081 0.0
H839 H 0.60649 0.41442 0.29181 0.0
H840 H 0.66401 0.50778 0.34119 0.0
H841 H 0.67026 0.48434 0.37586 0.0
H842 H 0.59477 0.40534 0.35524 0.0
C843 C 0.57969 0.4597 0.27901 0.0
C844 C 0.59205 0.48656 0.26807 0.0
C845 C 0.61771 0.50928 0.27748 0.0
C846 C 0.6307 0.50555 0.29756 0.0
C847 C 0.61788 0.47894 0.308 0.0
C848 C 0.5931 0.4563 0.29902 0.0
C849 C 0.58373 0.43 0.31391 0.0
C850 C 0.5536 0.41958 0.32454 0.0
C851 C 0.58466 0.40665 0.29946 0.0
C852 C 0.60692 0.44156 0.33281 0.0
C853 C 0.6263 0.46986 0.329 0.0
C854 C 0.64913 0.48557 0.3443 0.0
C855 C 0.65239 0.47203 0.36403 0.0
C856 C 0.63303 0.44295 0.36832 0.0
C857 C 0.61003 0.42753 0.35238 0.0
H858 H 0.44525 0.8826 0.40237 0.0
H859 H 0.38074 0.90876 0.40331 0.0
H860 H 0.35818 0.8802 0.36774 0.0
H861 H 0.45543 0.88686 0.34115 0.0
H862 H 0.45996 0.85638 0.33876 0.0
H863 H 0.46923 0.87628 0.36579 0.0
H864 H 0.43478 0.83088 0.38901 0.0
H865 H 0.42546 0.81077 0.36202 0.0
H866 H 0.3975 0.81026 0.38015 0.0
H867 H 0.34589 0.8534 0.32997 0.0
H868 H 0.34315 0.82811 0.2932 0.0
H869 H 0.41512 0.8185 0.31662 0.0
C870 C 0.42618 0.88206 0.39524 0.0
C871 C 0.41467 0.89783 0.40573 0.0
C872 C 0.38965 0.8965 0.39588 0.0
C873 C 0.37677 0.88044 0.37559 0.0
C874 C 0.389 0.86564 0.36545 0.0
C875 C 0.41298 0.86606 0.37503 0.0
C876 C 0.42268 0.84937 0.35997 0.0
C877 C 0.45365 0.86836 0.35088 0.0
C878 C 0.41993 0.8238 0.3736 0.0
C879 C 0.40086 0.84016 0.34009 0.0
C880 C 0.38158 0.8497 0.34369 0.0
C881 C 0.36057 0.84545 0.32711 0.0
C882 C 0.35929 0.83117 0.30623 0.0
C883 C 0.3788 0.82119 0.30211 0.0
C884 C 0.39962 0.82548 0.31945 0.0
H885 H 0.52882 0.42116 0.56591 0.0
H886 H 0.60967 0.49515 0.58637 0.0
H887 H 0.63515 0.4836 0.55622 0.0
H888 H 0.55668 0.37544 0.55167 0.0
H889 H 0.53383 0.36028 0.52622 0.0
H890 H 0.52188 0.3732 0.55046 0.0
H891 H 0.51409 0.40588 0.52192 0.0
H892 H 0.52589 0.39298 0.49757 0.0
H893 H 0.54351 0.43036 0.50351 0.0
H894 H 0.65223 0.46389 0.5243 0.0
H895 H 0.65907 0.43945 0.49043 0.0
H896 H 0.56672 0.38114 0.48794 0.0
C897 C 0.55182 0.4352 0.56401 0.0
C898 C 0.56712 0.45892 0.57897 0.0
C899 C 0.59737 0.47637 0.5758 0.0
C900 C 0.6121 0.47015 0.55852 0.0
C901 C 0.59633 0.44666 0.54421 0.0
C902 C 0.56682 0.42965 0.54653 0.0
C903 C 0.55482 0.4064 0.52814 0.0
C904 C 0.54099 0.3771 0.53983 0.0
C905 C 0.53331 0.40908 0.51182 0.0
C906 C 0.58225 0.41303 0.51512 0.0
C907 C 0.60598 0.43612 0.52491 0.0
C908 C 0.6338 0.4459 0.51638 0.0
C909 C 0.63747 0.43182 0.4972 0.0
C910 C 0.61341 0.40853 0.48653 0.0
C911 C 0.58546 0.39905 0.49565 0.0
H912 H 0.13664 0.5887 0.71825 0.0
H913 H 0.08311 0.49751 0.71366 0.0
H914 H 0.10338 0.49835 0.6744 0.0
H915 H 0.13155 0.60384 0.65757 0.0
H916 H 0.16855 0.63184 0.65519 0.0
H917 H 0.15029 0.62433 0.68321 0.0
H918 H 0.19056 0.61764 0.70225 0.0
H919 H 0.20906 0.62535 0.67433 0.0
H920 H 0.19959 0.59282 0.68947 0.0
H921 H 0.12707 0.50895 0.6352 0.0
H922 H 0.15647 0.52811 0.59938 0.0
H923 H 0.19671 0.61254 0.62938 0.0
C924 C 0.12936 0.56895 0.70897 0.0
C925 C 0.10843 0.543 0.71899 0.0
C926 C 0.09943 0.51755 0.70643 0.0
C927 C 0.11065 0.51783 0.68406 0.0
C928 C 0.13104 0.54372 0.67459 0.0
C929 C 0.14065 0.5688 0.68669 0.0
C930 C 0.16312 0.59362 0.67248 0.0
C931 C 0.15275 0.61464 0.66678 0.0
C932 C 0.19232 0.60821 0.68541 0.0
C933 C 0.1644 0.57853 0.65045 0.0
C934 C 0.14548 0.54979 0.65203 0.0
C935 C 0.14213 0.53139 0.63379 0.0
C936 C 0.15886 0.54254 0.61344 0.0
C937 C 0.17897 0.57184 0.61155 0.0
C938 C 0.18164 0.59005 0.63033 0.0
H939 H 0.58321 0.14168 0.90165 0.0
H940 H 0.54182 0.05866 0.86937 0.0
H941 H 0.55386 0.08063 0.82981 0.0
H942 H 0.55864 0.17399 0.85734 0.0
H943 H 0.59157 0.20765 0.85826 0.0
H944 H 0.5796 0.18549 0.88412 0.0
H945 H 0.6287 0.18686 0.88616 0.0
H946 H 0.6408 0.20897 0.86031 0.0
H947 H 0.64128 0.1762 0.86079 0.0
H948 H 0.57362 0.11108 0.79432 0.0
H949 H 0.59611 0.14862 0.7642 0.0
H950 H 0.6211 0.21242 0.81862 0.0
C951 C 0.57662 0.12828 0.88618 0.0
C952 C 0.56165 0.09854 0.88837 0.0
C953 C 0.55318 0.08149 0.86789 0.0
C954 C 0.55997 0.09376 0.84542 0.0
C955 C 0.57482 0.12311 0.84377 0.0
C956 C 0.5827 0.14022 0.86352 0.0
C957 C 0.59817 0.17121 0.85662 0.0
C958 C 0.58096 0.18542 0.86455 0.0
C959 C 0.62907 0.18672 0.86656 0.0
C960 C 0.59822 0.1688 0.82995 0.0
C961 C 0.58484 0.14081 0.82301 0.0
C962 C 0.58374 0.13306 0.79947 0.0
C963 C 0.59663 0.15447 0.78253 0.0
C964 C 0.60995 0.18324 0.78914 0.0
C965 C 0.61053 0.19051 0.81313 0.0
H966 H 0.49352 0.60479 0.075 0.0
H967 H 0.41655 0.52552 0.09266 0.0
H968 H 0.39114 0.53164 0.059 0.0
H969 H 0.45744 0.642 0.05541 0.0
H970 H 0.48222 0.65974 0.0315 0.0
H971 H 0.49435 0.64978 0.05754 0.0
H972 H 0.51154 0.62187 0.03171 0.0
H973 H 0.49939 0.63168 0.00559 0.0
H974 H 0.48636 0.59492 0.01199 0.0
H975 H 0.37396 0.5457 0.02369 0.0
H976 H 0.36577 0.56704 0.98843 0.0
H977 H 0.45423 0.63638 0.99192 0.0
C978 C 0.47136 0.58864 0.07177 0.0
C979 C 0.45701 0.56478 0.08674 0.0
C980 C 0.42789 0.54431 0.08189 0.0
C981 C 0.4133 0.54745 0.06265 0.0
C982 C 0.42812 0.57107 0.04825 0.0
C983 C 0.45648 0.59132 0.05249 0.0
C984 C 0.46739 0.6145 0.03398 0.0
C985 C 0.47584 0.6432 0.04529 0.0
C986 C 0.49267 0.61581 0.01999 0.0
C987 C 0.44067 0.60405 0.01871 0.0
C988 C 0.41831 0.57898 0.02738 0.0
C989 C 0.3913 0.5653 0.01669 0.0
C990 C 0.38688 0.57763 0.99666 0.0
C991 C 0.40938 0.60336 0.9874 0.0
C992 C 0.43671 0.61662 0.99851 0.0
H993 H 0.8891 0.43442 0.21002 0.0
H994 H 0.92608 0.52542 0.21344 0.0
H995 H 0.8987 0.52392 0.17796 0.0
H996 H 0.88964 0.4293 0.14667 0.0
H997 H 0.85562 0.39674 0.14511 0.0
H998 H 0.87796 0.40473 0.17097 0.0
H999 H 0.83541 0.39844 0.19713 0.0
H1000 H 0.81294 0.39043 0.17134 0.0
H1001 H 0.818 0.4187 0.19072 0.0
H1002 H 0.86876 0.51316 0.14189 0.0
H1003 H 0.83647 0.49358 0.10763 0.0
H1004 H 0.81748 0.40911 0.12737 0.0
C1005 C 0.89142 0.45398 0.20323 0.0
C1006 C 0.90957 0.48003 0.21457 0.0
C1007 C 0.91196 0.5052 0.20526 0.0
C1008 C 0.89663 0.50459 0.18504 0.0
C1009 C 0.87887 0.47862 0.17434 0.0
C1010 C 0.87603 0.45374 0.18309 0.0
C1011 C 0.85523 0.42871 0.16817 0.0
C1012 C 0.87054 0.41401 0.15707 0.0
C1013 C 0.82883 0.40784 0.18271 0.0
C1014 C 0.84704 0.44351 0.14962 0.0
C1015 C 0.86106 0.47231 0.15354 0.0
C1016 C 0.85754 0.49063 0.13866 0.0
C1017 C 0.83917 0.47927 0.11919 0.0
C1018 C 0.82435 0.44978 0.11478 0.0
C1019 C 0.82833 0.4317 0.13032 0.0
loop_
_geom_bond_atom_site_label_1
_geom_bond_atom_site_label_2
_geom_bond_distance
_geom_bond_site_symmetry_2
_ccdc_geom_bond_type
H0 C19 0.949 . S
H1 C20 0.950 . S
H2 C22 0.950 . S
H3 C23 0.950 . S
H4 C25 0.950 . S
H5 C28 0.950 . S
H6 C29 0.950 . S
H7 C31 0.951 . S
H8 C32 0.949 . S
H9 C34 0.949 . S
H10 C35 0.950 . S
H11 C37 0.950 . S
H12 C38 0.950 . S
H13 C40 0.950 1_655 S
H14 C43 0.950 . S
H15 C44 0.950 . S
H16 C46 0.951 . S
H17 C47 0.949 . S
C18 C19 1.376 . S
C18 C23 1.386 . S
C18 C24 1.483 . S
C19 H0 0.949 . S
C19 C18 1.376 . S
C19 C20 1.397 . S
C20 H1 0.950 . S
C20 C19 1.397 . S
C20 C21 1.391 . S
C21 C20 1.391 . S
C21 C22 1.405 . S
C22 H2 0.950 . S
C22 C21 1.405 . S
C22 C23 1.367 . S
C23 H3 0.950 . S
C23 C18 1.386 . S
C23 C22 1.367 . S
C24 C18 1.483 . S
C24 C25 1.382 1_655 S
C24 C26 1.403 . S
C25 H4 0.950 . S
C25 C24 1.382 1_455 S
C25 C41 1.411 . S
C26 C24 1.403 . S
C26 C27 1.489 . S
C26 C40 1.411 1_655 S
C27 C26 1.489 . S
C27 C28 1.383 . S
C27 C32 1.382 . S
C28 H5 0.950 . S
C28 C27 1.383 . S
C28 C29 1.395 . S
C29 H6 0.950 . S
C29 C28 1.395 . S
C29 C30 1.288 . S
C30 C29 1.288 . S
C30 C31 1.392 . S
C31 H7 0.951 . S
C31 C30 1.392 . S
C31 C32 1.392 . S
C32 H8 0.949 . S
C32 C27 1.382 . S
C32 C31 1.392 . S
C33 C34 1.376 . S
C33 C38 1.386 . S
C33 C39 1.483 . S
C34 H9 0.949 . S
C34 C33 1.376 . S
C34 C35 1.397 . S
C35 H10 0.950 . S
C35 C34 1.397 . S
C35 C36 1.391 . S
C36 C35 1.391 . S
C36 C37 1.405 . S
C37 H11 0.950 . S
C37 C36 1.405 . S
C37 C38 1.367 . S
C38 H12 0.950 . S
C38 C33 1.386 . S
C38 C37 1.367 . S
C39 C33 1.483 . S
C39 C40 1.382 . S
C39 C41 1.403 . S
C40 H13 0.950 1_455 S
C40 C26 1.411 1_455 S
C40 C39 1.382 . S
C41 C25 1.411 . S
C41 C39 1.403 . S
C41 C42 1.489 . S
C42 C41 1.489 . S
C42 C43 1.383 . S
C42 C47 1.382 . S
C43 H14 0.950 . S
C43 C42 1.383 . S
C43 C44 1.395 . S
C44 H15 0.950 . S
C44 C43 1.395 . S
C44 C45 1.288 . S
C45 C44 1.288 . S
C45 C46 1.392 . S
C46 H16 0.951 . S
C46 C45 1.392 . S
C46 C47 1.392 . S
C47 H17 0.949 . S
C47 C42 1.382 . S
C47 C46 1.392 . S
H48 C67 0.949 . S
H49 C68 0.950 . S
H50 C70 0.950 . S
H51 C71 0.950 . S
H52 C73 0.950 1_565 S
H53 C76 0.950 . S
H54 C77 0.950 . S
H55 C79 0.951 . S
H56 C80 0.949 . S
H57 C82 0.949 . S
H58 C83 0.950 . S
H59 C85 0.950 . S
H60 C86 0.950 . S
H61 C88 0.950 . S
H62 C91 0.950 . S
H63 C92 0.950 . S
H64 C94 0.951 . S
H65 C95 0.949 . S
C66 C67 1.376 . S
C66 C71 1.386 . S
C66 C72 1.483 . S
C67 H48 0.949 . S
C67 C66 1.376 . S
C67 C68 1.397 . S
C68 H49 0.950 . S
C68 C67 1.397 . S
C68 C69 1.391 . S
C69 C68 1.391 . S
C69 C70 1.405 . S
C70 H50 0.950 . S
C70 C69 1.405 . S
C70 C71 1.367 . S
C71 H51 0.950 . S
C71 C66 1.386 . S
C71 C70 1.367 . S
C72 C66 1.483 . S
C72 C73 1.382 1_565 S
C72 C74 1.403 . S
C73 H52 0.950 1_545 S
C73 C72 1.382 1_545 S
C73 C89 1.411 . S
C74 C72 1.403 . S
C74 C75 1.489 . S
C74 C88 1.411 1_565 S
C75 C74 1.489 . S
C75 C76 1.383 . S
C75 C80 1.382 . S
C76 H53 0.950 . S
C76 C75 1.383 . S
C76 C77 1.395 . S
C77 H54 0.950 . S
C77 C76 1.395 . S
C77 C78 1.288 . S
C78 C77 1.288 . S
C78 C79 1.392 . S
C79 H55 0.951 . S
C79 C78 1.392 . S
C79 C80 1.392 . S
C80 H56 0.949 . S
C80 C75 1.382 . S
C80 C79 1.392 . S
C81 C82 1.376 . S
C81 C86 1.386 . S
C81 C87 1.483 . S
C82 H57 0.949 . S
C82 C81 1.376 . S
C82 C83 1.397 . S
C83 H58 0.950 . S
C83 C82 1.397 . S
C83 C84 1.391 . S
C84 C83 1.391 . S
C84 C85 1.405 . S
C85 H59 0.950 . S
C85 C84 1.405 . S
C85 C86 1.367 . S
C86 H60 0.950 . S
C86 C81 1.386 . S
C86 C85 1.367 . S
C87 C81 1.483 . S
C87 C88 1.382 . S
C87 C89 1.403 . S
C88 H61 0.950 . S
C88 C74 1.411 1_545 S
C88 C87 1.382 . S
C89 C73 1.411 . S
C89 C87 1.403 . S
C89 C90 1.489 . S
C90 C89 1.489 . S
C90 C91 1.383 . S
C90 C95 1.382 . S
C91 H62 0.950 . S
C91 C90 1.383 . S
C91 C92 1.395 . S
C92 H63 0.950 . S
C92 C91 1.395 . S
C92 C93 1.288 . S
C93 C92 1.288 . S
C93 C94 1.392 . S
C94 H64 0.951 . S
C94 C93 1.392 . S
C94 C95 1.392 . S
C95 H65 0.949 . S
C95 C90 1.382 . S
C95 C94 1.392 . S
H96 C115 0.949 . S
H97 C116 0.950 . S
H98 C118 0.950 . S
H99 C119 0.950 . S
H100 C121 0.950 . S
H101 C124 0.950 . S
H102 C125 0.950 . S
H103 C127 0.951 . S
H104 C128 0.949 . S
H105 C130 0.949 . S
H106 C131 0.950 . S
H107 C133 0.950 . S
H108 C134 0.950 . S
H109 C136 0.950 . S
H110 C139 0.950 . S
H111 C140 0.950 . S
H112 C142 0.951 . S
H113 C143 0.949 . S
C114 C115 1.376 . S
C114 C119 1.386 . S
C114 C120 1.483 . S
C115 H96 0.949 . S
C115 C114 1.376 . S
C115 C116 1.397 . S
C116 H97 0.950 . S
C116 C115 1.397 . S
C116 C117 1.391 . S
C117 C116 1.391 . S
C117 C118 1.405 . S
C118 H98 0.950 . S
C118 C117 1.405 . S
C118 C119 1.367 . S
C119 H99 0.950 . S
C119 C114 1.386 . S
C119 C118 1.367 . S
C120 C114 1.483 . S
C120 C121 1.382 . S
C120 C122 1.403 . S
C121 H100 0.950 . S
C121 C120 1.382 . S
C121 C137 1.411 . S
C122 C120 1.403 . S
C122 C123 1.489 . S
C122 C136 1.411 . S
C123 C122 1.489 . S
C123 C124 1.383 . S
C123 C128 1.382 . S
C124 H101 0.950 . S
C124 C123 1.383 . S
C124 C125 1.395 . S
C125 H102 0.950 . S
C125 C124 1.395 . S
C125 C126 1.288 . S
C126 C125 1.288 . S
C126 C127 1.392 . S
C127 H103 0.951 . S
C127 C126 1.392 . S
C127 C128 1.392 . S
C128 H104 0.949 . S
C128 C123 1.382 . S
C128 C127 1.392 . S
C129 C130 1.376 . S
C129 C134 1.386 . S
C129 C135 1.483 . S
C130 H105 0.949 . S
C130 C129 1.376 . S
C130 C131 1.397 . S
C131 H106 0.950 . S
C131 C130 1.397 . S
C131 C132 1.391 . S
C132 C131 1.391 . S
C132 C133 1.405 . S
C133 H107 0.950 . S
C133 C132 1.405 . S
C133 C134 1.367 . S
C134 H108 0.950 . S
C134 C129 1.386 . S
C134 C133 1.367 . S
C135 C129 1.483 . S
C135 C136 1.382 . S
C135 C137 1.403 . S
C136 H109 0.950 . S
C136 C122 1.411 . S
C136 C135 1.382 . S
C137 C121 1.411 . S
C137 C135 1.403 . S
C137 C138 1.489 . S
C138 C137 1.489 . S
C138 C139 1.383 . S
C138 C143 1.382 . S
C139 H110 0.950 . S
C139 C138 1.383 . S
C139 C140 1.395 . S
C140 H111 0.950 . S
C140 C139 1.395 . S
C140 C141 1.288 . S
C141 C140 1.288 . S
C141 C142 1.392 . S
C142 H112 0.951 . S
C142 C141 1.392 . S
C142 C143 1.392 . S
C143 H113 0.949 . S
C143 C138 1.382 . S
C143 C142 1.392 . S
H144 C163 0.949 . S
H145 C164 0.950 . S
H146 C166 0.950 . S
H147 C167 0.950 . S
H148 C169 0.937 1_655 S
H149 C172 0.950 . S
H150 C173 0.950 . S
H151 C175 0.951 . S
H152 C176 0.949 . S
H153 C178 0.949 . S
H154 C179 0.950 . S
H155 C181 0.950 . S
H156 C182 0.950 . S
H157 C184 0.950 . S
H158 C187 0.950 . S
H159 C188 0.950 . S
H160 C190 0.951 . S
H161 C191 0.949 . S
C162 C163 1.376 . S
C162 C167 1.386 . S
C162 C168 1.483 . S
C163 H144 0.949 . S
C163 C162 1.376 . S
C163 C164 1.397 . S
C164 H145 0.950 . S
C164 C163 1.397 . S
C164 C165 1.391 . S
C165 C164 1.391 . S
C165 C166 1.405 . S
C166 H146 0.950 . S
C166 C165 1.405 . S
C166 C167 1.367 . S
C167 H147 0.950 . S
C167 C162 1.386 . S
C167 C166 1.367 . S
C168 C162 1.483 . S
C168 C169 1.419 . S
C168 C170 1.403 . S
C169 H148 0.937 1_455 S
C169 C168 1.419 . S
C169 C185 1.387 1_455 S
C170 C168 1.403 . S
C170 C171 1.489 . S
C170 C184 1.411 . S
C171 C170 1.489 . S
C171 C172 1.383 . S
C171 C176 1.382 . S
C172 H149 0.950 . S
C172 C171 1.383 . S
C172 C173 1.395 . S
C173 H150 0.950 . S
C173 C172 1.395 . S
C173 C174 1.288 . S
C174 C173 1.288 . S
C174 C175 1.392 . S
C175 H151 0.951 . S
C175 C174 1.392 . S
C175 C176 1.392 . S
C176 H152 0.949 . S
C176 C171 1.382 . S
C176 C175 1.392 . S
C177 C178 1.376 . S
C177 C182 1.386 . S
C177 C183 1.483 . S
C178 H153 0.949 . S
C178 C177 1.376 . S
C178 C179 1.397 . S
C179 H154 0.950 . S
C179 C178 1.397 . S
C179 C180 1.391 . S
C180 C179 1.391 . S
C180 C181 1.405 . S
C181 H155 0.950 . S
C181 C180 1.405 . S
C181 C182 1.367 . S
C182 H156 0.950 . S
C182 C177 1.386 . S
C182 C181 1.367 . S
C183 C177 1.483 . S
C183 C184 1.382 1_655 S
C183 C185 1.403 . S
C184 H157 0.950 . S
C184 C170 1.411 . S
C184 C183 1.382 1_455 S
C185 C169 1.387 1_655 S
C185 C183 1.403 . S
C185 C186 1.489 . S
C186 C185 1.489 . S
C186 C187 1.383 . S
C186 C191 1.382 . S
C187 H158 0.950 . S
C187 C186 1.383 . S
C187 C188 1.395 . S
C188 H159 0.950 . S
C188 C187 1.395 . S
C188 C189 1.288 . S
C189 C188 1.288 . S
C189 C190 1.392 . S
C190 H160 0.951 . S
C190 C189 1.392 . S
C190 C191 1.392 . S
C191 H161 0.949 . S
C191 C186 1.382 . S
C191 C190 1.392 . S
H192 C211 0.949 . S
H193 C212 0.950 . S
H194 C214 0.950 . S
H195 C215 0.948 1_556 S
H196 C217 0.950 . S
H197 C220 0.950 . S
H198 C221 0.950 . S
H199 C223 0.951 . S
H200 C224 0.949 . S
H201 C226 0.949 . S
H202 C227 0.950 . S
H203 C229 0.950 . S
H204 C230 0.950 . S
H205 C232 0.960 . S
H206 C235 0.950 . S
H207 C236 0.950 . S
H208 C238 0.951 . S
H209 C239 0.949 . S
C210 C211 1.376 . S
C210 C215 1.387 . S
C210 C216 1.483 1_554 S
C211 H192 0.949 . S
C211 C210 1.376 . S
C211 C212 1.397 . S
C212 H193 0.950 . S
C212 C211 1.397 . S
C212 C213 1.391 . S
C213 C212 1.391 . S
C213 C214 1.405 . S
C214 H194 0.950 . S
C214 C213 1.405 . S
C214 C215 1.369 . S
C215 H195 0.948 1_554 S
C215 C210 1.387 . S
C215 C214 1.369 . S
C216 C210 1.483 1_556 S
C216 C217 1.382 1_556 S
C216 C218 1.403 . S
C217 H196 0.950 . S
C217 C216 1.382 1_554 S
C217 C233 1.411 1_545 S
C218 C216 1.403 . S
C218 C219 1.489 . S
C218 C232 1.375 1_545 S
C219 C218 1.489 . S
C219 C220 1.383 . S
C219 C224 1.382 . S
C220 H197 0.950 . S
C220 C219 1.383 . S
C220 C221 1.395 . S
C221 H198 0.950 . S
C221 C220 1.395 . S
C221 C222 1.288 . S
C222 C221 1.288 . S
C222 C223 1.392 . S
C223 H199 0.951 . S
C223 C222 1.392 . S
C223 C224 1.392 . S
C224 H200 0.949 . S
C224 C219 1.382 . S
C224 C223 1.392 . S
C225 C226 1.376 . S
C225 C230 1.386 . S
C225 C231 1.483 . S
C226 H201 0.949 . S
C226 C225 1.376 . S
C226 C227 1.397 . S
C227 H202 0.950 . S
C227 C226 1.397 . S
C227 C228 1.391 . S
C228 C227 1.391 . S
C228 C229 1.405 . S
C229 H203 0.950 . S
C229 C228 1.405 . S
C229 C230 1.367 . S
C230 H204 0.950 . S
C230 C225 1.386 . S
C230 C229 1.367 . S
C231 C225 1.483 . S
C231 C232 1.410 . S
C231 C233 1.403 1_556 S
C232 H205 0.960 . S
C232 C218 1.375 1_565 S
C232 C231 1.410 . S
C233 C217 1.411 1_565 S
C233 C231 1.403 1_554 S
C233 C234 1.489 . S
C234 C233 1.489 . S
C234 C235 1.383 . S
C234 C239 1.382 . S
C235 H206 0.950 . S
C235 C234 1.383 . S
C235 C236 1.395 . S
C236 H207 0.950 . S
C236 C235 1.395 . S
C236 C237 1.288 . S
C237 C236 1.288 . S
C237 C238 1.392 . S
C238 H208 0.951 . S
C238 C237 1.392 . S
C238 C239 1.392 . S
C239 H209 0.949 . S
C239 C234 1.382 . S
C239 C238 1.392 . S
H240 C259 0.949 . S
H241 C260 0.950 . S
H242 C262 0.950 . S
H243 C263 0.950 . S
H244 C265 0.950 . S
H245 C268 0.950 . S
H246 C269 0.950 . S
H247 C271 0.951 . S
H248 C272 0.949 . S
H249 C274 0.949 . S
H250 C275 0.950 . S
H251 C277 0.950 . S
H252 C278 0.950 . S
H253 C280 0.950 . S
H254 C283 0.950 . S
H255 C284 0.950 . S
H256 C286 0.951 . S
H257 C287 0.949 . S
C258 C259 1.376 . S
C258 C263 1.386 . S
C258 C264 1.483 . S
C259 H240 0.949 . S
C259 C258 1.376 . S
C259 C260 1.397 . S
C260 H241 0.950 . S
C260 C259 1.397 . S
C260 C261 1.391 . S
C261 C260 1.391 . S
C261 C262 1.405 . S
C262 H242 0.950 . S
C262 C261 1.405 . S
C262 C263 1.367 . S
C263 H243 0.950 . S
C263 C258 1.386 . S
C263 C262 1.367 . S
C264 C258 1.483 . S
C264 C265 1.382 . S
C264 C266 1.403 . S
C265 H244 0.950 . S
C265 C264 1.382 . S
C265 C281 1.411 . S
C266 C264 1.403 . S
C266 C267 1.489 . S
C266 C280 1.411 . S
C267 C266 1.489 . S
C267 C268 1.383 . S
C267 C272 1.382 . S
C268 H245 0.950 . S
C268 C267 1.383 . S
C268 C269 1.395 . S
C269 H246 0.950 . S
C269 C268 1.395 . S
C269 C270 1.288 . S
C270 C269 1.288 . S
C270 C271 1.392 . S
C271 H247 0.951 . S
C271 C270 1.392 . S
C271 C272 1.392 . S
C272 H248 0.949 . S
C272 C267 1.382 . S
C272 C271 1.392 . S
C273 C274 1.376 . S
C273 C278 1.386 . S
C273 C279 1.483 . S
C274 H249 0.949 . S
C274 C273 1.376 . S
C274 C275 1.397 . S
C275 H250 0.950 . S
C275 C274 1.397 . S
C275 C276 1.391 . S
C276 C275 1.391 . S
C276 C277 1.405 . S
C277 H251 0.950 . S
C277 C276 1.405 . S
C277 C278 1.367 . S
C278 H252 0.950 . S
C278 C273 1.386 . S
C278 C277 1.367 . S
C279 C273 1.483 . S
C279 C280 1.382 . S
C279 C281 1.403 . S
C280 H253 0.950 . S
C280 C266 1.411 . S
C280 C279 1.382 . S
C281 C265 1.411 . S
C281 C279 1.403 . S
C281 C282 1.489 . S
C282 C281 1.489 . S
C282 C283 1.383 . S
C282 C287 1.382 . S
C283 H254 0.950 . S
C283 C282 1.383 . S
C283 C284 1.395 . S
C284 H255 0.950 . S
C284 C283 1.395 . S
C284 C285 1.288 . S
C285 C284 1.288 . S
C285 C286 1.392 . S
C286 H256 0.951 . S
C286 C285 1.392 . S
C286 C287 1.392 . S
C287 H257 0.949 . S
C287 C282 1.382 . S
C287 C286 1.392 . S
C288 O289 1.306 . S
C288 O291 1.160 . S
O289 C288 1.306 . S
O289 Cd290 2.228 . S
Cd290 O289 2.228 . S
Cd290 O294 2.273 . S
Cd290 O298 2.277 . S
O291 C288 1.160 . S
O291 Cd292 2.203 . S
Cd292 O291 2.203 . S
Cd292 O294 2.411 . S
Cd292 O295 2.333 . S
Cd292 O296 2.352 . S
Cd292 O300 2.277 . S
Cd292 O301 2.356 . S
C293 O298 1.209 . S
C293 O300 1.226 . S
O294 Cd290 2.273 . S
O294 Cd292 2.411 . S
O294 C297 1.320 . S
O295 Cd292 2.333 . S
O295 C297 1.214 . S
O296 Cd292 2.352 . S
O296 C299 1.258 . S
C297 O294 1.320 . S
C297 O295 1.214 . S
O298 Cd290 2.277 . S
O298 C293 1.209 . S
C299 O296 1.258 . S
C299 O301 1.282 . S
O300 Cd292 2.277 . S
O300 C293 1.226 . S
O301 Cd292 2.356 . S
O301 C299 1.282 . S
C302 O303 1.306 . S
C302 O305 1.160 . S
O303 C302 1.306 . S
O303 Cd304 2.228 . S
Cd304 O303 2.228 . S
Cd304 O308 2.273 . S
Cd304 O312 2.277 . S
O305 C302 1.160 . S
O305 Cd306 2.203 . S
Cd306 O305 2.203 . S
Cd306 O308 2.411 . S
Cd306 O309 2.333 . S
Cd306 O310 2.352 . S
Cd306 O314 2.277 . S
Cd306 O315 2.356 . S
C307 O312 1.209 . S
C307 O314 1.226 . S
O308 Cd304 2.273 . S
O308 Cd306 2.411 . S
O308 C311 1.320 . S
O309 Cd306 2.333 . S
O309 C311 1.214 . S
O310 Cd306 2.352 . S
O310 C313 1.258 . S
C311 O308 1.320 . S
C311 O309 1.214 . S
O312 Cd304 2.277 . S
O312 C307 1.209 . S
C313 O310 1.258 . S
C313 O315 1.282 . S
O314 Cd306 2.277 . S
O314 C307 1.226 . S
O315 Cd306 2.356 . S
O315 C313 1.282 . S
C316 O317 1.306 . S
C316 O319 1.160 . S
O317 C316 1.306 . S
O317 Cd318 2.228 . S
Cd318 O317 2.228 . S
Cd318 O322 2.273 . S
Cd318 O326 2.277 . S
O319 C316 1.160 . S
O319 Cd320 2.203 . S
Cd320 O319 2.203 . S
Cd320 O322 2.411 . S
Cd320 O323 2.333 . S
Cd320 O324 2.352 . S
Cd320 O328 2.277 . S
Cd320 O329 2.356 . S
C321 O326 1.209 . S
C321 O328 1.226 . S
O322 Cd318 2.273 . S
O322 Cd320 2.411 . S
O322 C325 1.320 . S
O323 Cd320 2.333 . S
O323 C325 1.214 . S
O324 Cd320 2.352 . S
O324 C327 1.258 . S
C325 O322 1.320 . S
C325 O323 1.214 . S
O326 Cd318 2.277 . S
O326 C321 1.209 . S
C327 O324 1.258 . S
C327 O329 1.282 . S
O328 Cd320 2.277 . S
O328 C321 1.226 . S
O329 Cd320 2.356 . S
O329 C327 1.282 . S
C330 O331 1.306 . S
C330 O333 1.160 . S
O331 C330 1.306 . S
O331 Cd332 2.228 . S
Cd332 O331 2.228 . S
Cd332 O336 2.273 . S
Cd332 O340 2.277 . S
O333 C330 1.160 . S
O333 Cd334 2.203 . S
Cd334 O333 2.203 . S
Cd334 O336 2.411 . S
Cd334 O337 2.333 . S
Cd334 O338 2.352 . S
Cd334 O342 2.277 . S
Cd334 O343 2.356 . S
C335 O340 1.209 . S
C335 O342 1.226 . S
O336 Cd332 2.273 . S
O336 Cd334 2.411 . S
O336 C339 1.320 . S
O337 Cd334 2.333 . S
O337 C339 1.214 . S
O338 Cd334 2.352 . S
O338 C341 1.258 . S
C339 O336 1.320 . S
C339 O337 1.214 . S
O340 Cd332 2.277 . S
O340 C335 1.209 . S
C341 O338 1.258 . S
C341 O343 1.282 . S
O342 Cd334 2.277 . S
O342 C335 1.226 . S
O343 Cd334 2.356 . S
O343 C341 1.282 . S
C344 O345 1.306 . S
C344 O347 1.160 . S
O345 C344 1.306 . S
O345 Cd346 2.228 . S
Cd346 O345 2.228 . S
Cd346 O350 2.273 . S
Cd346 O354 2.277 . S
O347 C344 1.160 . S
O347 Cd348 2.203 . S
Cd348 O347 2.203 . S
Cd348 O350 2.411 . S
Cd348 O351 2.333 . S
Cd348 O352 2.352 . S
Cd348 O356 2.277 . S
Cd348 O357 2.356 . S
C349 O354 1.209 . S
C349 O356 1.226 . S
O350 Cd346 2.273 . S
O350 Cd348 2.411 . S
O350 C353 1.320 . S
O351 Cd348 2.333 . S
O351 C353 1.214 . S
O352 Cd348 2.352 . S
O352 C355 1.258 . S
C353 O350 1.320 . S
C353 O351 1.214 . S
O354 Cd346 2.277 . S
O354 C349 1.209 . S
C355 O352 1.258 . S
C355 O357 1.282 . S
O356 Cd348 2.277 . S
O356 C349 1.226 . S
O357 Cd348 2.356 . S
O357 C355 1.282 . S
C358 O359 1.306 . S
C358 O361 1.160 . S
O359 C358 1.306 . S
O359 Cd360 2.228 . S
Cd360 O359 2.228 . S
Cd360 O364 2.273 . S
Cd360 O368 2.277 . S
O361 C358 1.160 . S
O361 Cd362 2.203 . S
Cd362 O361 2.203 . S
Cd362 O364 2.411 . S
Cd362 O365 2.333 . S
Cd362 O366 2.352 . S
Cd362 O370 2.277 . S
Cd362 O371 2.356 . S
C363 O368 1.209 . S
C363 O370 1.226 . S
O364 Cd360 2.273 . S
O364 Cd362 2.411 . S
O364 C367 1.320 . S
O365 Cd362 2.333 . S
O365 C367 1.214 . S
O366 Cd362 2.352 . S
O366 C369 1.258 . S
C367 O364 1.320 . S
C367 O365 1.214 . S
O368 Cd360 2.277 . S
O368 C363 1.209 . S
C369 O366 1.258 . S
C369 O371 1.282 . S
O370 Cd362 2.277 . S
O370 C363 1.226 . S
O371 Cd362 2.356 . S
O371 C369 1.282 . S
H372 C384 0.930 . S
H373 C386 0.930 . S
H374 C387 0.930 . S
H375 C391 0.959 . S
H376 C391 0.959 . S
H377 C391 0.961 . S
H378 C392 0.960 . S
H379 C392 0.961 . S
H380 C392 0.959 . S
H381 C395 0.929 . S
H382 C396 0.931 . S
H383 C398 0.930 . S
C384 H372 0.930 . S
C384 C385 1.399 . S
C384 C389 1.399 . S
C385 C384 1.399 . S
C385 C386 1.376 . S
C386 H373 0.930 . S
C386 C385 1.376 . S
C386 C387 1.388 . S
C387 H374 0.930 . S
C387 C386 1.388 . S
C387 C388 1.390 . S
C388 C387 1.390 . S
C388 C389 1.394 . S
C388 C394 1.465 . S
C389 C384 1.399 . S
C389 C388 1.394 . S
C389 C390 1.516 . S
C390 C389 1.516 . S
C390 C391 1.502 . S
C390 C392 1.561 . S
C390 C393 1.526 . S
C391 H375 0.959 . S
C391 H376 0.959 . S
C391 H377 0.961 . S
C391 C390 1.502 . S
C392 H378 0.960 . S
C392 H379 0.961 . S
C392 H380 0.959 . S
C392 C390 1.561 . S
C393 C390 1.526 . S
C393 C394 1.396 . S
C393 C398 1.390 . S
C394 C388 1.465 . S
C394 C393 1.396 . S
C394 C395 1.399 . S
C395 H381 0.929 . S
C395 C394 1.399 . S
C395 C396 1.385 . S
C396 H382 0.931 . S
C396 C395 1.385 . S
C396 C397 1.389 . S
C397 C396 1.389 . S
C397 C398 1.387 . S
C398 H383 0.930 . S
C398 C393 1.390 . S
C398 C397 1.387 . S
H399 C411 0.930 . S
H400 C413 0.930 . S
H401 C414 0.930 . S
H402 C418 0.959 . S
H403 C418 0.959 . S
H404 C418 0.961 . S
H405 C419 0.960 . S
H406 C419 0.961 . S
H407 C419 0.959 . S
H408 C422 0.929 . S
H409 C423 0.931 . S
H410 C425 0.930 . S
C411 H399 0.930 . S
C411 C412 1.399 . S
C411 C416 1.399 . S
C412 C411 1.399 . S
C412 C413 1.376 . S
C413 H400 0.930 . S
C413 C412 1.376 . S
C413 C414 1.388 . S
C414 H401 0.930 . S
C414 C413 1.388 . S
C414 C415 1.390 . S
C415 C414 1.390 . S
C415 C416 1.394 . S
C415 C421 1.465 . S
C416 C411 1.399 . S
C416 C415 1.394 . S
C416 C417 1.516 . S
C417 C416 1.516 . S
C417 C418 1.502 . S
C417 C419 1.561 . S
C417 C420 1.526 . S
C418 H402 0.959 . S
C418 H403 0.959 . S
C418 H404 0.961 . S
C418 C417 1.502 . S
C419 H405 0.960 . S
C419 H406 0.961 . S
C419 H407 0.959 . S
C419 C417 1.561 . S
C420 C417 1.526 . S
C420 C421 1.396 . S
C420 C425 1.390 . S
C421 C415 1.465 . S
C421 C420 1.396 . S
C421 C422 1.399 . S
C422 H408 0.929 . S
C422 C421 1.399 . S
C422 C423 1.385 . S
C423 H409 0.931 . S
C423 C422 1.385 . S
C423 C424 1.389 . S
C424 C423 1.389 . S
C424 C425 1.387 . S
C425 H410 0.930 . S
C425 C420 1.390 . S
C425 C424 1.387 . S
H426 C438 0.930 . S
H427 C440 0.930 . S
H428 C441 0.930 . S
H429 C445 0.959 . S
H430 C445 0.959 . S
H431 C445 0.961 . S
H432 C446 0.960 . S
H433 C446 0.961 . S
H434 C446 0.959 . S
H435 C449 0.929 . S
H436 C450 0.931 . S
H437 C452 0.930 . S
C438 H426 0.930 . S
C438 C439 1.399 . S
C438 C443 1.399 . S
C439 C438 1.399 . S
C439 C440 1.376 . S
C440 H427 0.930 . S
C440 C439 1.376 . S
C440 C441 1.388 . S
C441 H428 0.930 . S
C441 C440 1.388 . S
C441 C442 1.390 . S
C442 C441 1.390 . S
C442 C443 1.394 . S
C442 C448 1.465 . S
C443 C438 1.399 . S
C443 C442 1.394 . S
C443 C444 1.516 . S
C444 C443 1.516 . S
C444 C445 1.502 . S
C444 C446 1.561 . S
C444 C447 1.526 . S
C445 H429 0.959 . S
C445 H430 0.959 . S
C445 H431 0.961 . S
C445 C444 1.502 . S
C446 H432 0.960 . S
C446 H433 0.961 . S
C446 H434 0.959 . S
C446 C444 1.561 . S
C447 C444 1.526 . S
C447 C448 1.396 . S
C447 C452 1.390 . S
C448 C442 1.465 . S
C448 C447 1.396 . S
C448 C449 1.399 . S
C449 H435 0.929 . S
C449 C448 1.399 . S
C449 C450 1.385 . S
C450 H436 0.931 . S
C450 C449 1.385 . S
C450 C451 1.389 . S
C451 C450 1.389 . S
C451 C452 1.387 . S
C452 H437 0.930 . S
C452 C447 1.390 . S
C452 C451 1.387 . S
H453 C465 0.930 . S
H454 C467 0.930 . S
H455 C468 0.930 . S
H456 C472 0.959 . S
H457 C472 0.959 . S
H458 C472 0.961 . S
H459 C473 0.960 . S
H460 C473 0.961 . S
H461 C473 0.959 . S
H462 C476 0.929 . S
H463 C477 0.931 . S
H464 C479 0.930 . S
C465 H453 0.930 . S
C465 C466 1.399 . S
C465 C470 1.399 . S
C466 C465 1.399 . S
C466 C467 1.376 . S
C467 H454 0.930 . S
C467 C466 1.376 . S
C467 C468 1.388 . S
C468 H455 0.930 . S
C468 C467 1.388 . S
C468 C469 1.390 . S
C469 C468 1.390 . S
C469 C470 1.394 . S
C469 C475 1.465 . S
C470 C465 1.399 . S
C470 C469 1.394 . S
C470 C471 1.516 . S
C471 C470 1.516 . S
C471 C472 1.502 . S
C471 C473 1.561 . S
C471 C474 1.526 . S
C472 H456 0.959 . S
C472 H457 0.959 . S
C472 H458 0.961 . S
C472 C471 1.502 . S
C473 H459 0.960 . S
C473 H460 0.961 . S
C473 H461 0.959 . S
C473 C471 1.561 . S
C474 C471 1.526 . S
C474 C475 1.396 . S
C474 C479 1.390 . S
C475 C469 1.465 . S
C475 C474 1.396 . S
C475 C476 1.399 . S
C476 H462 0.929 . S
C476 C475 1.399 . S
C476 C477 1.385 . S
C477 H463 0.931 . S
C477 C476 1.385 . S
C477 C478 1.389 . S
C478 C477 1.389 . S
C478 C479 1.387 . S
C479 H464 0.930 . S
C479 C474 1.390 . S
C479 C478 1.387 . S
H480 C492 0.930 . S
H481 C494 0.930 . S
H482 C495 0.930 . S
H483 C499 0.959 . S
H484 C499 0.959 . S
H485 C499 0.961 . S
H486 C500 0.960 1_554 S
H487 C500 0.961 . S
H488 C500 0.959 . S
H489 C503 0.929 . S
H490 C504 0.931 . S
H491 C506 0.930 . S
C492 H480 0.930 . S
C492 C493 1.399 . S
C492 C497 1.399 . S
C493 C492 1.399 . S
C493 C494 1.376 . S
C494 H481 0.930 . S
C494 C493 1.376 . S
C494 C495 1.388 . S
C495 H482 0.930 . S
C495 C494 1.388 . S
C495 C496 1.390 . S
C496 C495 1.390 . S
C496 C497 1.394 . S
C496 C502 1.465 . S
C497 C492 1.399 . S
C497 C496 1.394 . S
C497 C498 1.516 . S
C498 C497 1.516 . S
C498 C499 1.502 . S
C498 C500 1.561 . S
C498 C501 1.526 . S
C499 H483 0.959 . S
C499 H484 0.959 . S
C499 H485 0.961 . S
C499 C498 1.502 . S
C500 H486 0.960 1_556 S
C500 H487 0.961 . S
C500 H488 0.959 . S
C500 C498 1.561 . S
C501 C498 1.526 . S
C501 C502 1.396 . S
C501 C506 1.390 . S
C502 C496 1.465 . S
C502 C501 1.396 . S
C502 C503 1.399 . S
C503 H489 0.929 . S
C503 C502 1.399 . S
C503 C504 1.385 . S
C504 H490 0.931 . S
C504 C503 1.385 . S
C504 C505 1.389 . S
C505 C504 1.389 . S
C505 C506 1.387 . S
C506 H491 0.930 . S
C506 C501 1.390 . S
C506 C505 1.387 . S
H507 C519 0.930 . S
H508 C521 0.930 . S
H509 C522 0.930 . S
H510 C526 0.959 . S
H511 C526 0.959 . S
H512 C526 0.961 . S
H513 C527 0.960 . S
H514 C527 0.961 . S
H515 C527 0.959 . S
H516 C530 0.929 . S
H517 C531 0.931 . S
H518 C533 0.930 . S
C519 H507 0.930 . S
C519 C520 1.399 . S
C519 C524 1.399 . S
C520 C519 1.399 . S
C520 C521 1.376 . S
C521 H508 0.930 . S
C521 C520 1.376 . S
C521 C522 1.388 . S
C522 H509 0.930 . S
C522 C521 1.388 . S
C522 C523 1.390 . S
C523 C522 1.390 . S
C523 C524 1.394 . S
C523 C529 1.465 . S
C524 C519 1.399 . S
C524 C523 1.394 . S
C524 C525 1.516 . S
C525 C524 1.516 . S
C525 C526 1.502 . S
C525 C527 1.561 . S
C525 C528 1.526 . S
C526 H510 0.959 . S
C526 H511 0.959 . S
C526 H512 0.961 . S
C526 C525 1.502 . S
C527 H513 0.960 . S
C527 H514 0.961 . S
C527 H515 0.959 . S
C527 C525 1.561 . S
C528 C525 1.526 . S
C528 C529 1.396 . S
C528 C533 1.390 . S
C529 C523 1.465 . S
C529 C528 1.396 . S
C529 C530 1.399 . S
C530 H516 0.929 . S
C530 C529 1.399 . S
C530 C531 1.385 . S
C531 H517 0.931 . S
C531 C530 1.385 . S
C531 C532 1.389 . S
C532 C531 1.389 . S
C532 C533 1.387 . S
C533 H518 0.930 . S
C533 C528 1.390 . S
C533 C532 1.387 . S
H534 C546 0.930 . S
H535 C548 0.930 . S
H536 C549 0.930 . S
H537 C553 0.959 . S
H538 C553 0.959 . S
H539 C553 0.961 . S
H540 C554 0.960 . S
H541 C554 0.961 . S
H542 C554 0.959 . S
H543 C557 0.929 . S
H544 C558 0.931 . S
H545 C560 0.930 . S
C546 H534 0.930 . S
C546 C547 1.399 . S
C546 C551 1.399 . S
C547 C546 1.399 . S
C547 C548 1.376 . S
C548 H535 0.930 . S
C548 C547 1.376 . S
C548 C549 1.388 . S
C549 H536 0.930 . S
C549 C548 1.388 . S
C549 C550 1.390 . S
C550 C549 1.390 . S
C550 C551 1.394 . S
C550 C556 1.465 . S
C551 C546 1.399 . S
C551 C550 1.394 . S
C551 C552 1.516 . S
C552 C551 1.516 . S
C552 C553 1.502 . S
C552 C554 1.561 . S
C552 C555 1.526 . S
C553 H537 0.959 . S
C553 H538 0.959 . S
C553 H539 0.961 . S
C553 C552 1.502 . S
C554 H540 0.960 . S
C554 H541 0.961 . S
C554 H542 0.959 . S
C554 C552 1.561 . S
C555 C552 1.526 . S
C555 C556 1.396 . S
C555 C560 1.390 . S
C556 C550 1.465 . S
C556 C555 1.396 . S
C556 C557 1.399 . S
C557 H543 0.929 . S
C557 C556 1.399 . S
C557 C558 1.385 . S
C558 H544 0.931 . S
C558 C557 1.385 . S
C558 C559 1.389 . S
C559 C558 1.389 . S
C559 C560 1.387 . S
C560 H545 0.930 . S
C560 C555 1.390 . S
C560 C559 1.387 . S
H561 C573 0.930 . S
H562 C575 0.930 . S
H563 C576 0.930 . S
H564 C580 0.959 . S
H565 C580 0.959 . S
H566 C580 0.961 . S
H567 C581 0.960 . S
H568 C581 0.961 . S
H569 C581 0.959 . S
H570 C584 0.929 . S
H571 C585 0.931 . S
H572 C587 0.930 . S
C573 H561 0.930 . S
C573 C574 1.399 . S
C573 C578 1.399 . S
C574 C573 1.399 . S
C574 C575 1.376 . S
C575 H562 0.930 . S
C575 C574 1.376 . S
C575 C576 1.388 . S
C576 H563 0.930 . S
C576 C575 1.388 . S
C576 C577 1.390 . S
C577 C576 1.390 . S
C577 C578 1.394 . S
C577 C583 1.465 . S
C578 C573 1.399 . S
C578 C577 1.394 . S
C578 C579 1.516 . S
C579 C578 1.516 . S
C579 C580 1.502 . S
C579 C581 1.561 . S
C579 C582 1.526 . S
C580 H564 0.959 . S
C580 H565 0.959 . S
C580 H566 0.961 . S
C580 C579 1.502 . S
C581 H567 0.960 . S
C581 H568 0.961 . S
C581 H569 0.959 . S
C581 C579 1.561 . S
C582 C579 1.526 . S
C582 C583 1.396 . S
C582 C587 1.390 . S
C583 C577 1.465 . S
C583 C582 1.396 . S
C583 C584 1.399 . S
C584 H570 0.929 . S
C584 C583 1.399 . S
C584 C585 1.385 . S
C585 H571 0.931 . S
C585 C584 1.385 . S
C585 C586 1.389 . S
C586 C585 1.389 . S
C586 C587 1.387 . S
C587 H572 0.930 . S
C587 C582 1.390 . S
C587 C586 1.387 . S
H588 C600 0.930 . S
H589 C602 0.930 . S
H590 C603 0.930 . S
H591 C607 0.959 . S
H592 C607 0.959 . S
H593 C607 0.961 . S
H594 C608 0.960 . S
H595 C608 0.961 . S
H596 C608 0.959 . S
H597 C611 0.929 . S
H598 C612 0.931 . S
H599 C614 0.930 . S
C600 H588 0.930 . S
C600 C601 1.399 . S
C600 C605 1.399 . S
C601 C600 1.399 . S
C601 C602 1.376 . S
C602 H589 0.930 . S
C602 C601 1.376 . S
C602 C603 1.388 . S
C603 H590 0.930 . S
C603 C602 1.388 . S
C603 C604 1.390 . S
C604 C603 1.390 . S
C604 C605 1.394 . S
C604 C610 1.465 . S
C605 C600 1.399 . S
C605 C604 1.394 . S
C605 C606 1.516 . S
C606 C605 1.516 . S
C606 C607 1.502 . S
C606 C608 1.561 . S
C606 C609 1.526 . S
C607 H591 0.959 . S
C607 H592 0.959 . S
C607 H593 0.961 . S
C607 C606 1.502 . S
C608 H594 0.960 . S
C608 H595 0.961 . S
C608 H596 0.959 . S
C608 C606 1.561 . S
C609 C606 1.526 . S
C609 C610 1.396 . S
C609 C614 1.390 . S
C610 C604 1.465 . S
C610 C609 1.396 . S
C610 C611 1.399 . S
C611 H597 0.929 . S
C611 C610 1.399 . S
C611 C612 1.385 . S
C612 H598 0.931 . S
C612 C611 1.385 . S
C612 C613 1.389 . S
C613 C612 1.389 . S
C613 C614 1.387 . S
C614 H599 0.930 . S
C614 C609 1.390 . S
C614 C613 1.387 . S
H615 C627 0.930 . S
H616 C629 0.930 . S
H617 C630 0.930 . S
H618 C634 0.959 . S
H619 C634 0.959 1_556 S
H620 C634 0.961 1_556 S
H621 C635 0.960 . S
H622 C635 0.961 . S
H623 C635 0.959 1_554 S
H624 C638 0.929 . S
H625 C639 0.931 . S
H626 C641 0.930 . S
C627 H615 0.930 . S
C627 C628 1.399 . S
C627 C632 1.399 . S
C628 C627 1.399 . S
C628 C629 1.376 . S
C629 H616 0.930 . S
C629 C628 1.376 . S
C629 C630 1.388 . S
C630 H617 0.930 . S
C630 C629 1.388 . S
C630 C631 1.390 . S
C631 C630 1.390 . S
C631 C632 1.394 . S
C631 C637 1.465 . S
C632 C627 1.399 . S
C632 C631 1.394 . S
C632 C633 1.516 . S
C633 C632 1.516 . S
C633 C634 1.502 . S
C633 C635 1.561 1_554 S
C633 C636 1.526 . S
C634 H618 0.959 . S
C634 H619 0.959 1_554 S
C634 H620 0.961 1_554 S
C634 C633 1.502 . S
C635 H621 0.960 . S
C635 H622 0.961 . S
C635 H623 0.959 1_556 S
C635 C633 1.561 1_556 S
C636 C633 1.526 . S
C636 C637 1.396 . S
C636 C641 1.390 . S
C637 C631 1.465 . S
C637 C636 1.396 . S
C637 C638 1.399 . S
C638 H624 0.929 . S
C638 C637 1.399 . S
C638 C639 1.385 . S
C639 H625 0.931 . S
C639 C638 1.385 . S
C639 C640 1.389 . S
C640 C639 1.389 . S
C640 C641 1.387 . S
C641 H626 0.930 . S
C641 C636 1.390 . S
C641 C640 1.387 . S
H642 C654 0.930 . S
H643 C656 0.930 . S
H644 C657 0.930 . S
H645 C661 0.959 . S
H646 C661 0.959 . S
H647 C661 0.961 . S
H648 C662 0.960 . S
H649 C662 0.961 . S
H650 C662 0.959 . S
H651 C665 0.929 . S
H652 C666 0.931 . S
H653 C668 0.930 . S
C654 H642 0.930 . S
C654 C655 1.399 . S
C654 C659 1.399 . S
C655 C654 1.399 . S
C655 C656 1.376 . S
C656 H643 0.930 . S
C656 C655 1.376 . S
C656 C657 1.388 . S
C657 H644 0.930 . S
C657 C656 1.388 . S
C657 C658 1.390 . S
C658 C657 1.390 . S
C658 C659 1.394 . S
C658 C664 1.465 . S
C659 C654 1.399 . S
C659 C658 1.394 . S
C659 C660 1.516 . S
C660 C659 1.516 . S
C660 C661 1.502 . S
C660 C662 1.561 . S
C660 C663 1.526 . S
C661 H645 0.959 . S
C661 H646 0.959 . S
C661 H647 0.961 . S
C661 C660 1.502 . S
C662 H648 0.960 . S
C662 H649 0.961 . S
C662 H650 0.959 . S
C662 C660 1.561 . S
C663 C660 1.526 . S
C663 C664 1.396 . S
C663 C668 1.390 . S
C664 C658 1.465 . S
C664 C663 1.396 . S
C664 C665 1.399 . S
C665 H651 0.929 . S
C665 C664 1.399 . S
C665 C666 1.385 . S
C666 H652 0.931 . S
C666 C665 1.385 . S
C666 C667 1.389 . S
C667 C666 1.389 . S
C667 C668 1.387 . S
C668 H653 0.930 . S
C668 C663 1.390 . S
C668 C667 1.387 . S
H669 C681 0.930 . S
H670 C683 0.930 . S
H671 C684 0.930 . S
H672 C688 0.959 . S
H673 C688 0.959 . S
H674 C688 0.961 . S
H675 C689 0.960 . S
H676 C689 0.961 . S
H677 C689 0.959 . S
H678 C692 0.929 . S
H679 C693 0.931 . S
H680 C695 0.930 . S
C681 H669 0.930 . S
C681 C682 1.399 . S
C681 C686 1.399 . S
C682 C681 1.399 . S
C682 C683 1.376 . S
C683 H670 0.930 . S
C683 C682 1.376 . S
C683 C684 1.388 . S
C684 H671 0.930 . S
C684 C683 1.388 . S
C684 C685 1.390 . S
C685 C684 1.390 . S
C685 C686 1.394 . S
C685 C691 1.465 . S
C686 C681 1.399 . S
C686 C685 1.394 . S
C686 C687 1.516 . S
C687 C686 1.516 . S
C687 C688 1.502 . S
C687 C689 1.561 . S
C687 C690 1.526 . S
C688 H672 0.959 . S
C688 H673 0.959 . S
C688 H674 0.961 . S
C688 C687 1.502 . S
C689 H675 0.960 . S
C689 H676 0.961 . S
C689 H677 0.959 . S
C689 C687 1.561 . S
C690 C687 1.526 . S
C690 C691 1.396 . S
C690 C695 1.390 . S
C691 C685 1.465 . S
C691 C690 1.396 . S
C691 C692 1.399 . S
C692 H678 0.929 . S
C692 C691 1.399 . S
C692 C693 1.385 . S
C693 H679 0.931 . S
C693 C692 1.385 . S
C693 C694 1.389 . S
C694 C693 1.389 . S
C694 C695 1.387 . S
C695 H680 0.930 . S
C695 C690 1.390 . S
C695 C694 1.387 . S
H696 C708 0.930 . S
H697 C710 0.930 . S
H698 C711 0.930 . S
H699 C715 0.959 . S
H700 C715 0.959 . S
H701 C715 0.961 . S
H702 C716 0.960 . S
H703 C716 0.961 . S
H704 C716 0.959 . S
H705 C719 0.929 . S
H706 C720 0.931 . S
H707 C722 0.930 . S
C708 H696 0.930 . S
C708 C709 1.399 . S
C708 C713 1.399 . S
C709 C708 1.399 . S
C709 C710 1.376 . S
C710 H697 0.930 . S
C710 C709 1.376 . S
C710 C711 1.388 . S
C711 H698 0.930 . S
C711 C710 1.388 . S
C711 C712 1.390 . S
C712 C711 1.390 . S
C712 C713 1.394 . S
C712 C718 1.465 . S
C713 C708 1.399 . S
C713 C712 1.394 . S
C713 C714 1.516 . S
C714 C713 1.516 . S
C714 C715 1.502 . S
C714 C716 1.561 . S
C714 C717 1.526 . S
C715 H699 0.959 . S
C715 H700 0.959 . S
C715 H701 0.961 . S
C715 C714 1.502 . S
C716 H702 0.960 . S
C716 H703 0.961 . S
C716 H704 0.959 . S
C716 C714 1.561 . S
C717 C714 1.526 . S
C717 C718 1.396 . S
C717 C722 1.390 . S
C718 C712 1.465 . S
C718 C717 1.396 . S
C718 C719 1.399 . S
C719 H705 0.929 . S
C719 C718 1.399 . S
C719 C720 1.385 . S
C720 H706 0.931 . S
C720 C719 1.385 . S
C720 C721 1.389 . S
C721 C720 1.389 . S
C721 C722 1.387 . S
C722 H707 0.930 . S
C722 C717 1.390 . S
C722 C721 1.387 . S
H723 C735 0.930 . S
H724 C737 0.930 . S
H725 C738 0.930 . S
H726 C742 0.959 . S
H727 C742 0.959 . S
H728 C742 0.961 . S
H729 C743 0.960 . S
H730 C743 0.961 . S
H731 C743 0.959 . S
H732 C746 0.929 . S
H733 C747 0.931 . S
H734 C749 0.930 . S
C735 H723 0.930 . S
C735 C736 1.399 . S
C735 C740 1.399 . S
C736 C735 1.399 . S
C736 C737 1.376 . S
C737 H724 0.930 . S
C737 C736 1.376 . S
C737 C738 1.388 . S
C738 H725 0.930 . S
C738 C737 1.388 . S
C738 C739 1.390 . S
C739 C738 1.390 . S
C739 C740 1.394 . S
C739 C745 1.465 . S
C740 C735 1.399 . S
C740 C739 1.394 . S
C740 C741 1.516 . S
C741 C740 1.516 . S
C741 C742 1.502 . S
C741 C743 1.561 . S
C741 C744 1.526 . S
C742 H726 0.959 . S
C742 H727 0.959 . S
C742 H728 0.961 . S
C742 C741 1.502 . S
C743 H729 0.960 . S
C743 H730 0.961 . S
C743 H731 0.959 . S
C743 C741 1.561 . S
C744 C741 1.526 . S
C744 C745 1.396 . S
C744 C749 1.390 . S
C745 C739 1.465 . S
C745 C744 1.396 . S
C745 C746 1.399 . S
C746 H732 0.929 . S
C746 C745 1.399 . S
C746 C747 1.385 . S
C747 H733 0.931 . S
C747 C746 1.385 . S
C747 C748 1.389 . S
C748 C747 1.389 . S
C748 C749 1.387 . S
C749 H734 0.930 . S
C749 C744 1.390 . S
C749 C748 1.387 . S
H750 C762 0.930 . S
H751 C764 0.930 . S
H752 C765 0.930 . S
H753 C769 0.959 . S
H754 C769 0.959 . S
H755 C769 0.961 . S
H756 C770 0.960 . S
H757 C770 0.961 . S
H758 C770 0.959 . S
H759 C773 0.929 . S
H760 C774 0.931 . S
H761 C776 0.930 . S
C762 H750 0.930 . S
C762 C763 1.399 . S
C762 C767 1.399 . S
C763 C762 1.399 . S
C763 C764 1.376 . S
C764 H751 0.930 . S
C764 C763 1.376 . S
C764 C765 1.388 . S
C765 H752 0.930 . S
C765 C764 1.388 . S
C765 C766 1.390 . S
C766 C765 1.390 . S
C766 C767 1.394 . S
C766 C772 1.465 . S
C767 C762 1.399 . S
C767 C766 1.394 . S
C767 C768 1.516 . S
C768 C767 1.516 . S
C768 C769 1.502 . S
C768 C770 1.561 . S
C768 C771 1.526 . S
C769 H753 0.959 . S
C769 H754 0.959 . S
C769 H755 0.961 . S
C769 C768 1.502 . S
C770 H756 0.960 . S
C770 H757 0.961 . S
C770 H758 0.959 . S
C770 C768 1.561 . S
C771 C768 1.526 . S
C771 C772 1.396 . S
C771 C776 1.390 . S
C772 C766 1.465 . S
C772 C771 1.396 . S
C772 C773 1.399 . S
C773 H759 0.929 . S
C773 C772 1.399 . S
C773 C774 1.385 . S
C774 H760 0.931 . S
C774 C773 1.385 . S
C774 C775 1.389 . S
C775 C774 1.389 . S
C775 C776 1.387 . S
C776 H761 0.930 . S
C776 C771 1.390 . S
C776 C775 1.387 . S
H777 C789 0.930 . S
H778 C791 0.930 . S
H779 C792 0.930 . S
H780 C796 0.959 1_556 S
H781 C796 0.959 . S
H782 C796 0.961 1_556 S
H783 C797 0.960 1_556 S
H784 C797 0.961 . S
H785 C797 0.959 1_556 S
H786 C800 0.929 . S
H787 C801 0.929 . S
H788 C803 0.930 . S
C789 H777 0.930 . S
C789 C790 1.399 . S
C789 C794 1.399 . S
C790 C789 1.399 . S
C790 C791 1.376 . S
C791 H778 0.930 . S
C791 C790 1.376 . S
C791 C792 1.388 . S
C792 H779 0.930 . S
C792 C791 1.388 . S
C792 C793 1.390 . S
C793 C792 1.390 . S
C793 C794 1.394 . S
C793 C799 1.465 . S
C794 C789 1.399 . S
C794 C793 1.394 . S
C794 C795 1.516 . S
C795 C794 1.516 . S
C795 C796 1.502 1_556 S
C795 C797 1.561 1_556 S
C795 C798 1.526 . S
C796 H780 0.959 1_554 S
C796 H781 0.959 . S
C796 H782 0.961 1_554 S
C796 C795 1.502 1_554 S
C797 H783 0.960 1_554 S
C797 H784 0.961 . S
C797 H785 0.959 1_554 S
C797 C795 1.561 1_554 S
C798 C795 1.526 . S
C798 C799 1.396 . S
C798 C803 1.390 1_556 S
C799 C793 1.465 . S
C799 C798 1.396 . S
C799 C800 1.399 . S
C800 H786 0.929 . S
C800 C799 1.399 . S
C800 C801 1.386 1_556 S
C801 H787 0.929 . S
C801 C800 1.386 1_554 S
C801 C802 1.389 . S
C802 C801 1.389 . S
C802 C803 1.387 . S
C803 H788 0.930 . S
C803 C798 1.390 1_554 S
C803 C802 1.387 . S
H804 C816 0.930 . S
H805 C818 0.930 . S
H806 C819 0.930 . S
H807 C823 0.959 . S
H808 C823 0.959 . S
H809 C823 0.961 . S
H810 C824 0.960 . S
H811 C824 0.961 . S
H812 C824 0.959 . S
H813 C827 0.929 . S
H814 C828 0.931 . S
H815 C830 0.930 . S
C816 H804 0.930 . S
C816 C817 1.399 . S
C816 C821 1.399 . S
C817 C816 1.399 . S
C817 C818 1.376 . S
C818 H805 0.930 . S
C818 C817 1.376 . S
C818 C819 1.388 . S
C819 H806 0.930 . S
C819 C818 1.388 . S
C819 C820 1.390 . S
C820 C819 1.390 . S
C820 C821 1.394 . S
C820 C826 1.465 . S
C821 C816 1.399 . S
C821 C820 1.394 . S
C821 C822 1.516 . S
C822 C821 1.516 . S
C822 C823 1.502 . S
C822 C824 1.561 . S
C822 C825 1.526 . S
C823 H807 0.959 . S
C823 H808 0.959 . S
C823 H809 0.961 . S
C823 C822 1.502 . S
C824 H810 0.960 . S
C824 H811 0.961 . S
C824 H812 0.959 . S
C824 C822 1.561 . S
C825 C822 1.526 . S
C825 C826 1.396 . S
C825 C830 1.390 . S
C826 C820 1.465 . S
C826 C825 1.396 . S
C826 C827 1.399 . S
C827 H813 0.929 . S
C827 C826 1.399 . S
C827 C828 1.385 . S
C828 H814 0.931 . S
C828 C827 1.385 . S
C828 C829 1.389 . S
C829 C828 1.389 . S
C829 C830 1.387 . S
C830 H815 0.930 . S
C830 C825 1.390 . S
C830 C829 1.387 . S
H831 C843 0.930 . S
H832 C845 0.930 . S
H833 C846 0.930 . S
H834 C850 0.959 . S
H835 C850 0.959 . S
H836 C850 0.961 . S
H837 C851 0.960 . S
H838 C851 0.961 . S
H839 C851 0.959 . S
H840 C854 0.929 . S
H841 C855 0.931 . S
H842 C857 0.930 . S
C843 H831 0.930 . S
C843 C844 1.399 . S
C843 C848 1.399 . S
C844 C843 1.399 . S
C844 C845 1.376 . S
C845 H832 0.930 . S
C845 C844 1.376 . S
C845 C846 1.388 . S
C846 H833 0.930 . S
C846 C845 1.388 . S
C846 C847 1.390 . S
C847 C846 1.390 . S
C847 C848 1.394 . S
C847 C853 1.465 . S
C848 C843 1.399 . S
C848 C847 1.394 . S
C848 C849 1.516 . S
C849 C848 1.516 . S
C849 C850 1.502 . S
C849 C851 1.561 . S
C849 C852 1.526 . S
C850 H834 0.959 . S
C850 H835 0.959 . S
C850 H836 0.961 . S
C850 C849 1.502 . S
C851 H837 0.960 . S
C851 H838 0.961 . S
C851 H839 0.959 . S
C851 C849 1.561 . S
C852 C849 1.526 . S
C852 C853 1.396 . S
C852 C857 1.390 . S
C853 C847 1.465 . S
C853 C852 1.396 . S
C853 C854 1.399 . S
C854 H840 0.929 . S
C854 C853 1.399 . S
C854 C855 1.385 . S
C855 H841 0.931 . S
C855 C854 1.385 . S
C855 C856 1.389 . S
C856 C855 1.389 . S
C856 C857 1.387 . S
C857 H842 0.930 . S
C857 C852 1.390 . S
C857 C856 1.387 . S
H858 C870 0.930 . S
H859 C872 0.930 . S
H860 C873 0.930 . S
H861 C877 0.959 . S
H862 C877 0.959 . S
H863 C877 0.961 . S
H864 C878 0.960 . S
H865 C878 0.961 . S
H866 C878 0.959 . S
H867 C881 0.929 . S
H868 C882 0.931 . S
H869 C884 0.930 . S
C870 H858 0.930 . S
C870 C871 1.399 . S
C870 C875 1.399 . S
C871 C870 1.399 . S
C871 C872 1.376 . S
C872 H859 0.930 . S
C872 C871 1.376 . S
C872 C873 1.388 . S
C873 H860 0.930 . S
C873 C872 1.388 . S
C873 C874 1.390 . S
C874 C873 1.390 . S
C874 C875 1.394 . S
C874 C880 1.465 . S
C875 C870 1.399 . S
C875 C874 1.394 . S
C875 C876 1.516 . S
C876 C875 1.516 . S
C876 C877 1.502 . S
C876 C878 1.561 . S
C876 C879 1.526 . S
C877 H861 0.959 . S
C877 H862 0.959 . S
C877 H863 0.961 . S
C877 C876 1.502 . S
C878 H864 0.960 . S
C878 H865 0.961 . S
C878 H866 0.959 . S
C878 C876 1.561 . S
C879 C876 1.526 . S
C879 C880 1.396 . S
C879 C884 1.390 . S
C880 C874 1.465 . S
C880 C879 1.396 . S
C880 C881 1.399 . S
C881 H867 0.929 . S
C881 C880 1.399 . S
C881 C882 1.385 . S
C882 H868 0.931 . S
C882 C881 1.385 . S
C882 C883 1.389 . S
C883 C882 1.389 . S
C883 C884 1.387 . S
C884 H869 0.930 . S
C884 C879 1.390 . S
C884 C883 1.387 . S
H885 C897 0.930 . S
H886 C899 0.930 . S
H887 C900 0.930 . S
H888 C904 0.959 . S
H889 C904 0.959 . S
H890 C904 0.961 . S
H891 C905 0.960 . S
H892 C905 0.961 . S
H893 C905 0.959 . S
H894 C908 0.929 . S
H895 C909 0.931 . S
H896 C911 0.930 . S
C897 H885 0.930 . S
C897 C898 1.399 . S
C897 C902 1.399 . S
C898 C897 1.399 . S
C898 C899 1.376 . S
C899 H886 0.930 . S
C899 C898 1.376 . S
C899 C900 1.388 . S
C900 H887 0.930 . S
C900 C899 1.388 . S
C900 C901 1.390 . S
C901 C900 1.390 . S
C901 C902 1.394 . S
C901 C907 1.465 . S
C902 C897 1.399 . S
C902 C901 1.394 . S
C902 C903 1.516 . S
C903 C902 1.516 . S
C903 C904 1.502 . S
C903 C905 1.561 . S
C903 C906 1.526 . S
C904 H888 0.959 . S
C904 H889 0.959 . S
C904 H890 0.961 . S
C904 C903 1.502 . S
C905 H891 0.960 . S
C905 H892 0.961 . S
C905 H893 0.959 . S
C905 C903 1.561 . S
C906 C903 1.526 . S
C906 C907 1.396 . S
C906 C911 1.390 . S
C907 C901 1.465 . S
C907 C906 1.396 . S
C907 C908 1.399 . S
C908 H894 0.929 . S
C908 C907 1.399 . S
C908 C909 1.385 . S
C909 H895 0.931 . S
C909 C908 1.385 . S
C909 C910 1.389 . S
C910 C909 1.389 . S
C910 C911 1.387 . S
C911 H896 0.930 . S
C911 C906 1.390 . S
C911 C910 1.387 . S
H912 C924 0.930 . S
H913 C926 0.930 . S
H914 C927 0.930 . S
H915 C931 0.959 . S
H916 C931 0.959 . S
H917 C931 0.961 . S
H918 C932 0.960 . S
H919 C932 0.961 . S
H920 C932 0.959 . S
H921 C935 0.929 . S
H922 C936 0.931 . S
H923 C938 0.930 . S
C924 H912 0.930 . S
C924 C925 1.399 . S
C924 C929 1.399 . S
C925 C924 1.399 . S
C925 C926 1.376 . S
C926 H913 0.930 . S
C926 C925 1.376 . S
C926 C927 1.388 . S
C927 H914 0.930 . S
C927 C926 1.388 . S
C927 C928 1.390 . S
C928 C927 1.390 . S
C928 C929 1.394 . S
C928 C934 1.465 . S
C929 C924 1.399 . S
C929 C928 1.394 . S
C929 C930 1.516 . S
C930 C929 1.516 . S
C930 C931 1.502 . S
C930 C932 1.561 . S
C930 C933 1.526 . S
C931 H915 0.959 . S
C931 H916 0.959 . S
C931 H917 0.961 . S
C931 C930 1.502 . S
C932 H918 0.960 . S
C932 H919 0.961 . S
C932 H920 0.959 . S
C932 C930 1.561 . S
C933 C930 1.526 . S
C933 C934 1.396 . S
C933 C938 1.390 . S
C934 C928 1.465 . S
C934 C933 1.396 . S
C934 C935 1.399 . S
C935 H921 0.929 . S
C935 C934 1.399 . S
C935 C936 1.385 . S
C936 H922 0.931 . S
C936 C935 1.385 . S
C936 C937 1.389 . S
C937 C936 1.389 . S
C937 C938 1.387 . S
C938 H923 0.930 . S
C938 C933 1.390 . S
C938 C937 1.387 . S
H939 C951 0.930 . S
H940 C953 0.930 . S
H941 C954 0.930 . S
H942 C958 0.959 . S
H943 C958 0.959 . S
H944 C958 0.961 . S
H945 C959 0.960 . S
H946 C959 0.961 . S
H947 C959 0.959 . S
H948 C962 0.929 . S
H949 C963 0.931 . S
H950 C965 0.930 . S
C951 H939 0.930 . S
C951 C952 1.399 . S
C951 C956 1.399 . S
C952 C951 1.399 . S
C952 C953 1.376 . S
C953 H940 0.930 . S
C953 C952 1.376 . S
C953 C954 1.388 . S
C954 H941 0.930 . S
C954 C953 1.388 . S
C954 C955 1.390 . S
C955 C954 1.390 . S
C955 C956 1.394 . S
C955 C961 1.465 . S
C956 C951 1.399 . S
C956 C955 1.394 . S
C956 C957 1.516 . S
C957 C956 1.516 . S
C957 C958 1.502 . S
C957 C959 1.561 . S
C957 C960 1.526 . S
C958 H942 0.959 . S
C958 H943 0.959 . S
C958 H944 0.961 . S
C958 C957 1.502 . S
C959 H945 0.960 . S
C959 H946 0.961 . S
C959 H947 0.959 . S
C959 C957 1.561 . S
C960 C957 1.526 . S
C960 C961 1.396 . S
C960 C965 1.390 . S
C961 C955 1.465 . S
C961 C960 1.396 . S
C961 C962 1.399 . S
C962 H948 0.929 . S
C962 C961 1.399 . S
C962 C963 1.385 . S
C963 H949 0.931 . S
C963 C962 1.385 . S
C963 C964 1.389 . S
C964 C963 1.389 . S
C964 C965 1.387 . S
C965 H950 0.930 . S
C965 C960 1.390 . S
C965 C964 1.387 . S
H966 C978 0.930 . S
H967 C980 0.930 . S
H968 C981 0.930 . S
H969 C985 0.959 . S
H970 C985 0.959 . S
H971 C985 0.961 . S
H972 C986 0.960 . S
H973 C986 0.961 . S
H974 C986 0.959 . S
H975 C989 0.929 . S
H976 C990 0.931 . S
H977 C992 0.930 . S
C978 H966 0.930 . S
C978 C979 1.399 . S
C978 C983 1.399 . S
C979 C978 1.399 . S
C979 C980 1.376 . S
C980 H967 0.930 . S
C980 C979 1.376 . S
C980 C981 1.388 . S
C981 H968 0.930 . S
C981 C980 1.388 . S
C981 C982 1.390 . S
C982 C981 1.390 . S
C982 C983 1.394 . S
C982 C988 1.465 1_554 S
C983 C978 1.399 . S
C983 C982 1.394 . S
C983 C984 1.516 . S
C984 C983 1.516 . S
C984 C985 1.502 . S
C984 C986 1.561 . S
C984 C987 1.526 1_554 S
C985 H969 0.959 . S
C985 H970 0.959 . S
C985 H971 0.961 . S
C985 C984 1.502 . S
C986 H972 0.960 . S
C986 H973 0.961 . S
C986 H974 0.959 . S
C986 C984 1.561 . S
C987 C984 1.526 1_556 S
C987 C988 1.396 . S
C987 C992 1.390 . S
C988 C982 1.465 1_556 S
C988 C987 1.396 . S
C988 C989 1.399 . S
C989 H975 0.929 . S
C989 C988 1.399 . S
C989 C990 1.385 . S
C990 H976 0.931 . S
C990 C989 1.385 . S
C990 C991 1.389 . S
C991 C990 1.389 . S
C991 C992 1.387 . S
C992 H977 0.930 . S
C992 C987 1.390 . S
C992 C991 1.387 . S
H993 C1005 0.930 . S
H994 C1007 0.930 . S
H995 C1008 0.930 . S
H996 C1012 0.959 . S
H997 C1012 0.959 . S
H998 C1012 0.961 . S
H999 C1013 0.960 . S
H1000 C1013 0.961 . S
H1001 C1013 0.959 . S
H1002 C1016 0.929 . S
H1003 C1017 0.931 . S
H1004 C1019 0.930 . S
C1005 H993 0.930 . S
C1005 C1006 1.399 . S
C1005 C1010 1.399 . S
C1006 C1005 1.399 . S
C1006 C1007 1.376 . S
C1007 H994 0.930 . S
C1007 C1006 1.376 . S
C1007 C1008 1.388 . S
C1008 H995 0.930 . S
C1008 C1007 1.388 . S
C1008 C1009 1.390 . S
C1009 C1008 1.390 . S
C1009 C1010 1.394 . S
C1009 C1015 1.465 . S
C1010 C1005 1.399 . S
C1010 C1009 1.394 . S
C1010 C1011 1.516 . S
C1011 C1010 1.516 . S
C1011 C1012 1.502 . S
C1011 C1013 1.561 . S
C1011 C1014 1.526 . S
C1012 H996 0.959 . S
C1012 H997 0.959 . S
C1012 H998 0.961 . S
C1012 C1011 1.502 . S
C1013 H999 0.960 . S
C1013 H1000 0.961 . S
C1013 H1001 0.959 . S
C1013 C1011 1.561 . S
C1014 C1011 1.526 . S
C1014 C1015 1.396 . S
C1014 C1019 1.390 . S
C1015 C1009 1.465 . S
C1015 C1014 1.396 . S
C1015 C1016 1.399 . S
C1016 H1002 0.929 . S
C1016 C1015 1.399 . S
C1016 C1017 1.385 . S
C1017 H1003 0.931 . S
C1017 C1016 1.385 . S
C1017 C1018 1.389 . S
C1018 C1017 1.389 . S
C1018 C1019 1.387 . S
C1019 H1004 0.930 . S
C1019 C1014 1.390 . S
C1019 C1018 1.387 . S
C397 C358 1.612 . S
C385 C45 1.608 . S
C412 C84 1.620 . S
C424 C299 1.612 . S
C439 C126 1.530 . S
C451 C302 1.591 . S
C466 C189 1.612 . S
C478 C316 1.611 . S
C505 C341 1.612 . S
C493 C228 1.621 . S
C520 C270 1.574 . S
C532 C344 1.595 . S
C547 C69 1.532 . S
C559 C313 1.585 . S
C574 C141 1.595 . S
C586 C327 1.587 . S
C601 C174 1.549 . S
C613 C330 1.572 . S
C640 C355 1.579 . S
C628 C213 1.581 . S
C667 C369 1.590 . S
C655 C285 1.597 . S
C694 C288 1.577 . S
C682 C30 1.542 . S
C709 C36 1.475 . S
C721 C311 1.463 . S
C736 C93 1.487 . S
C748 C325 1.478 . S
C775 C335 1.496 . S
C763 C117 1.481 . S
C790 C180 1.474 . S
C802 C353 1.477 . S
C829 C367 1.478 . S
C817 C237 1.476 . S
C856 C293 1.490 . S
C844 C261 1.496 . S
C883 C363 1.514 . S
C871 C78 1.517 . S
C898 C132 1.506 . S
C910 C297 1.507 . S
C937 C307 1.502 . S
C925 C165 1.512 . S
C952 C222 1.516 . S
C964 C321 1.515 . S
C979 C276 1.507 . S
C991 C339 1.506 . S
C1006 C21 1.502 . S
C1018 C349 1.502 . S
