# Generated by pormake.
# Topology csq, (4,8)-cn, num edge types: 1
# Building blocks:
#     Node 0, Type 0, BuildingBlock: GIZVER_clean_linker_0, # of connection points: 4
#     Node 1, Type 0, BuildingBlock: GIZVER_clean_linker_0, # of connection points: 4
#     Node 2, Type 0, BuildingBlock: GIZVER_clean_linker_0, # of connection points: 4
#     Node 3, Type 0, BuildingBlock: GIZVER_clean_linker_0, # of connection points: 4
#     Node 4, Type 0, BuildingBlock: GIZVER_clean_linker_0, # of connection points: 4
#     Node 5, Type 0, BuildingBlock: GIZVER_clean_linker_0, # of connection points: 4
#     Node 6, Type 1, BuildingBlock: TAGTUT_clean_sbu_3, # of connection points: 8
#     Node 7, Type 1, BuildingBlock: TAGTUT_clean_sbu_3, # of connection points: 8
#     Node 8, Type 1, BuildingBlock: TAGTUT_clean_sbu_3, # of connection points: 8
#     Edge 9, Type (0, 1), BuildingBlock: CIFDUS_clean_linker_0, # of connection points: 2
#     Edge 10, Type (0, 1), BuildingBlock: CIFDUS_clean_linker_0, # of connection points: 2
#     Edge 11, Type (0, 1), BuildingBlock: CIFDUS_clean_linker_0, # of connection points: 2
#     Edge 12, Type (0, 1), BuildingBlock: CIFDUS_clean_linker_0, # of connection points: 2
#     Edge 13, Type (0, 1), BuildingBlock: CIFDUS_clean_linker_0, # of connection points: 2
#     Edge 14, Type (0, 1), BuildingBlock: CIFDUS_clean_linker_0, # of connection points: 2
#     Edge 15, Type (0, 1), BuildingBlock: CIFDUS_clean_linker_0, # of connection points: 2
#     Edge 16, Type (0, 1), BuildingBlock: CIFDUS_clean_linker_0, # of connection points: 2
#     Edge 17, Type (0, 1), BuildingBlock: CIFDUS_clean_linker_0, # of connection points: 2
#     Edge 18, Type (0, 1), BuildingBlock: CIFDUS_clean_linker_0, # of connection points: 2
#     Edge 19, Type (0, 1), BuildingBlock: CIFDUS_clean_linker_0, # of connection points: 2
#     Edge 20, Type (0, 1), BuildingBlock: CIFDUS_clean_linker_0, # of connection points: 2
#     Edge 21, Type (0, 1), BuildingBlock: CIFDUS_clean_linker_0, # of connection points: 2
#     Edge 22, Type (0, 1), BuildingBlock: CIFDUS_clean_linker_0, # of connection points: 2
#     Edge 23, Type (0, 1), BuildingBlock: CIFDUS_clean_linker_0, # of connection points: 2
#     Edge 24, Type (0, 1), BuildingBlock: CIFDUS_clean_linker_0, # of connection points: 2
#     Edge 25, Type (0, 1), BuildingBlock: CIFDUS_clean_linker_0, # of connection points: 2
#     Edge 26, Type (0, 1), BuildingBlock: CIFDUS_clean_linker_0, # of connection points: 2
#     Edge 27, Type (0, 1), BuildingBlock: CIFDUS_clean_linker_0, # of connection points: 2
#     Edge 28, Type (0, 1), BuildingBlock: CIFDUS_clean_linker_0, # of connection points: 2
#     Edge 29, Type (0, 1), BuildingBlock: CIFDUS_clean_linker_0, # of connection points: 2
#     Edge 30, Type (0, 1), BuildingBlock: CIFDUS_clean_linker_0, # of connection points: 2
#     Edge 31, Type (0, 1), BuildingBlock: CIFDUS_clean_linker_0, # of connection points: 2
#     Edge 32, Type (0, 1), BuildingBlock: CIFDUS_clean_linker_0, # of connection points: 2
# Relax obj value: 0.039
# Max RMSD: 0.113
# Mean RMSD: 0.081
data_MOF--net-csq--node1-TAGTUT_clean_sbu_3--node2-GIZVER_clean_linker_0--edge1-CIFDUS_clean_linker_0
_symmetry_space_group_name_H-M    P1
_symmetry_Int_Tables_number       1
_symmetry_cell_setting            triclinic
loop_
_symmetry_equiv_pos_as_xyz
'x, y, z'
_cell_length_a     49.21377
_cell_length_b     48.260586
_cell_length_c     16.062436
_cell_angle_alpha  93.149456
_cell_angle_beta   92.871933
_cell_angle_gamma 119.88173
loop_
_atom_site_label
_atom_site_type_symbol
_atom_site_fract_x
_atom_site_fract_y
_atom_site_fract_z
_atom_type_partial_charge
H0 H 0.23448 0.51164 0.04701 0.0
H1 H 0.24335 0.54348 0.3082 0.0
H2 H 0.15216 0.48111 0.18205 0.0
H3 H 0.28226 0.56217 0.11352 0.0
H4 H 0.28787 0.57034 0.22515 0.0
H5 H 0.30742 0.53575 0.05337 0.0
H6 H 0.33576 0.4818 0.20225 0.0
H7 H 0.28798 0.52639 0.31269 0.0
C8 C 0.22365 0.51121 0.10438 0.0
C9 C 0.19076 0.49317 0.10519 0.0
C10 C 0.24274 0.52964 0.1771 0.0
C11 C 0.2289 0.52918 0.25202 0.0
C12 C 0.19622 0.51109 0.25329 0.0
C13 C 0.1775 0.49343 0.18036 0.0
C14 C 0.27767 0.55071 0.17342 0.0
C15 C 0.29357 0.53109 0.18031 0.0
C16 C 0.30758 0.5255 0.11163 0.0
C17 C 0.32358 0.50841 0.12049 0.0
C18 C 0.32324 0.4949 0.19517 0.0
C19 C 0.31117 0.50188 0.26486 0.0
C20 C 0.29625 0.51992 0.25773 0.0
H21 H 0.80774 0.25504 0.97557 0.0
H22 H 0.827 0.24759 0.2358 0.0
H23 H 0.8587 0.33989 0.14677 0.0
H24 H 0.80784 0.206 0.02796 0.0
H25 H 0.80741 0.20124 0.13746 0.0
H26 H 0.76201 0.2028 0.94646 0.0
H27 H 0.67343 0.15361 0.05199 0.0
H28 H 0.75831 0.17813 0.2009 0.0
C29 C 0.81678 0.26624 0.03865 0.0
C30 C 0.83238 0.29987 0.05335 0.0
C31 C 0.81408 0.2471 0.10457 0.0
C32 C 0.82747 0.26189 0.18556 0.0
C33 C 0.84327 0.29532 0.20028 0.0
C34 C 0.84493 0.31396 0.13494 0.0
C35 C 0.79965 0.21131 0.08689 0.0
C36 C 0.76428 0.19511 0.07745 0.0
C37 C 0.74867 0.19349 -0.00014 0.0
C38 C 0.71573 0.17779 0.98949 0.0
C39 C 0.69887 0.16552 0.05885 0.0
C40 C 0.71351 0.16312 0.13268 0.0
C41 C 0.74653 0.17932 0.14355 0.0
H42 H 0.57028 0.82297 0.94863 0.0
H43 H 0.52962 0.78932 0.17916 0.0
H44 H 0.50185 0.84516 0.03553 0.0
H45 H 0.59616 0.80659 0.05261 0.0
H46 H 0.58171 0.79737 0.15277 0.0
H47 H 0.58466 0.76481 0.94675 0.0
H48 H 0.53431 0.66728 0.00587 0.0
H49 H 0.53732 0.74148 0.17366 0.0
C50 C 0.55304 0.81963 0.99235 0.0
C51 C 0.53435 0.83383 0.98083 0.0
C52 C 0.55093 0.80296 0.06344 0.0
C53 C 0.53011 0.8008 0.12268 0.0
C54 C 0.51268 0.81644 0.11432 0.0
C55 C 0.51396 0.83166 0.04127 0.0
C56 C 0.5744 0.79237 0.08439 0.0
C57 C 0.56099 0.75702 0.06058 0.0
C58 C 0.56934 0.74722 0.98687 0.0
C59 C 0.55961 0.71491 0.96789 0.0
C60 C 0.5405 0.69209 0.02022 0.0
C61 C 0.53224 0.70113 0.09479 0.0
C62 C 0.54258 0.73389 0.11489 0.0
H63 H 0.75605 0.56598 0.90643 0.0
H64 H 0.77905 0.59266 0.17093 0.0
H65 H 0.68573 0.51965 0.07703 0.0
H66 H 0.80897 0.60737 0.96053 0.0
H67 H 0.81965 0.61702 0.07145 0.0
H68 H 0.82659 0.57427 0.89218 0.0
H69 H 0.83558 0.50457 0.02614 0.0
H70 H 0.81894 0.57356 0.15703 0.0
C71 C 0.74888 0.56233 0.96937 0.0
C72 C 0.71723 0.54208 0.98315 0.0
C73 C 0.77161 0.57902 0.03724 0.0
C74 C 0.7621 0.57774 0.11907 0.0
C75 C 0.73066 0.55688 0.13355 0.0
C76 C 0.70956 0.53696 0.06584 0.0
C77 C 0.80589 0.59698 0.02184 0.0
C78 C 0.81792 0.57373 0.02286 0.0
C79 C 0.82605 0.56321 0.94937 0.0
C80 C 0.83475 0.53948 0.95201 0.0
C81 C 0.83205 0.52489 0.02648 0.0
C82 C 0.83211 0.54057 0.10253 0.0
C83 C 0.82198 0.56301 0.09953 0.0
H84 H 0.25147 0.79564 0.96929 0.0
H85 H 0.27039 0.8053 0.2371 0.0
H86 H 0.30863 0.88891 0.10331 0.0
H87 H 0.2482 0.75111 0.04604 0.0
H88 H 0.25483 0.75529 0.15714 0.0
H89 H 0.19779 0.73768 0.97857 0.0
H90 H 0.11962 0.68775 0.12733 0.0
H91 H 0.21238 0.74792 0.24672 0.0
C92 C 0.26094 0.81079 0.02775 0.0
C93 C 0.27905 0.84435 0.0267 0.0
C94 C 0.25737 0.7966 0.1039 0.0
C95 C 0.27138 0.8161 0.17903 0.0
C96 C 0.28969 0.84928 0.17804 0.0
C97 C 0.29261 0.8633 0.10289 0.0
C98 C 0.24345 0.76096 0.10428 0.0
C99 C 0.20859 0.74446 0.11138 0.0
C100 C 0.188 0.73207 0.0383 0.0
C101 C 0.15575 0.71049 0.04192 0.0
C102 C 0.14401 0.70511 0.12135 0.0
C103 C 0.16406 0.71937 0.19518 0.0
C104 C 0.19652 0.73857 0.19001 0.0
H105 H 0.53715 0.30757 0.07754 0.0
H106 H 0.50039 0.28417 0.31638 0.0
H107 H 0.46714 0.32981 0.14823 0.0
H108 H 0.56693 0.29954 0.19019 0.0
H109 H 0.55568 0.29859 0.29438 0.0
H110 H 0.53923 0.24949 0.09129 0.0
H111 H 0.50924 0.16208 0.20709 0.0
H112 H 0.52912 0.2477 0.35697 0.0
C113 C 0.52055 0.30616 0.12132 0.0
C114 C 0.49972 0.3173 0.101 0.0
C115 C 0.52094 0.29457 0.19978 0.0
C116 C 0.49988 0.29343 0.25682 0.0
C117 C 0.48103 0.30722 0.24133 0.0
C118 C 0.48032 0.31788 0.1615 0.0
C119 C 0.54663 0.28791 0.22878 0.0
C120 C 0.53482 0.25244 0.22421 0.0
C121 C 0.5328 0.23643 0.14656 0.0
C122 C 0.5242 0.2041 0.141 0.0
C123 C 0.51593 0.18724 0.21219 0.0
C124 C 0.51729 0.20245 0.29027 0.0
C125 C 0.52715 0.2354 0.29654 0.0
C126 C 0.06062 0.49087 0.52788 0.0
C127 C 0.04172 0.44165 0.81527 0.0
C128 C 0.94519 0.41767 0.75626 0.0
Mg129 Mg 0.02243 0.51976 0.42962 0.0
Mg130 Mg 0.99901 0.56107 0.54242 0.0
O131 O 0.99498 0.52061 0.51666 0.0
Mg132 Mg 0.00686 0.50183 0.60857 0.0
O133 O 0.01983 0.48137 0.69455 0.0
Mg134 Mg 0.00505 0.43817 0.63196 0.0
Mg135 Mg 0.00636 0.48052 0.80176 0.0
C136 C 0.95679 0.52111 0.68197 0.0
O137 O 0.03502 0.54912 0.69105 0.0
O138 O 0.99051 0.53078 0.34125 0.0
O139 O 0.0219 0.53179 0.81919 0.0
O140 O 0.05875 0.57337 0.45558 0.0
O141 O 0.97698 0.56005 0.42565 0.0
O142 O 0.04686 0.60047 0.54888 0.0
O143 O 0.97882 0.45246 0.53598 0.0
O144 O 0.98806 0.46592 0.4056 0.0
C145 C 0.97541 0.44476 0.45738 0.0
C146 C 0.97545 0.54588 0.35449 0.0
O147 O 0.9652 0.49972 0.67522 0.0
O148 O 0.03344 0.43073 0.73801 0.0
O149 O 0.96919 0.54684 0.64407 0.0
O150 O 0.96002 0.41214 0.70075 0.0
O151 O 0.03406 0.46077 0.85192 0.0
O152 O 0.95731 0.44491 0.79858 0.0
O153 O 0.04771 0.50806 0.53562 0.0
O154 O 0.04975 0.46432 0.56145 0.0
C155 C 0.06588 0.59914 0.50005 0.0
C156 C 0.03407 0.55429 0.76994 0.0
C157 C 0.49236 0.05224 0.49343 0.0
C158 C 0.57645 0.0288 0.36507 0.0
C159 C 0.51955 0.93514 0.45863 0.0
Mg160 Mg 0.45261 0.02144 0.65294 0.0
Mg161 Mg 0.47804 0.99223 0.80097 0.0
O162 O 0.46975 0.99325 0.6872 0.0
Mg163 Mg 0.5022 0.00393 0.60739 0.0
O164 O 0.53233 0.01453 0.52129 0.0
Mg165 Mg 0.50196 0.99319 0.41979 0.0
Mg166 Mg 0.5628 0.00251 0.53878 0.0
C167 C 0.50922 0.9533 0.72897 0.0
O168 O 0.54505 0.03924 0.69763 0.0
O169 O 0.41188 0.9932 0.7375 0.0
O170 O 0.58335 0.03007 0.65775 0.0
O171 O 0.48208 0.05996 0.76147 0.0
O172 O 0.42966 0.96995 0.82638 0.0
O173 O 0.50371 0.0411 0.85115 0.0
O174 O 0.46241 0.97112 0.50889 0.0
O175 O 0.42596 0.983 0.5461 0.0
C176 C 0.43475 0.96738 0.49842 0.0
C177 C 0.40774 0.97419 0.7947 0.0
O178 O 0.5091 0.96256 0.65531 0.0
O179 O 0.54701 0.0187 0.34639 0.0
O180 O 0.50088 0.96372 0.79224 0.0
O181 O 0.50605 0.9477 0.41812 0.0
O182 O 0.5871 0.02448 0.4344 0.0
O183 O 0.54124 0.95135 0.51731 0.0
O184 O 0.49379 0.04422 0.56767 0.0
O185 O 0.49618 0.03774 0.42962 0.0
C186 C 0.50009 0.06383 0.82661 0.0
C187 C 0.57364 0.04514 0.70461 0.0
C188 C 0.53998 0.5713 0.71534 0.0
C189 C 0.44642 0.48581 0.86583 0.0
C190 C 0.4761 0.41984 0.76905 0.0
Mg191 Mg 0.56719 0.56242 0.54478 0.0
Mg192 Mg 0.51894 0.51004 0.39193 0.0
O193 O 0.53525 0.51684 0.50385 0.0
Mg194 Mg 0.50747 0.50431 0.59809 0.0
O195 O 0.48245 0.49398 0.69676 0.0
Mg196 Mg 0.51474 0.50171 0.78953 0.0
Mg197 Mg 0.4449 0.45432 0.6897 0.0
C198 C 0.47379 0.44203 0.46183 0.0
O199 O 0.4663 0.50472 0.52972 0.0
O200 O 0.59756 0.55993 0.4423 0.0
O201 O 0.42452 0.46179 0.57516 0.0
O202 O 0.54566 0.58404 0.45841 0.0
O203 O 0.56348 0.51959 0.34744 0.0
O204 O 0.50875 0.54789 0.36369 0.0
O205 O 0.54509 0.50257 0.68131 0.0
O206 O 0.5882 0.54104 0.63271 0.0
C207 C 0.57492 0.51871 0.68098 0.0
C208 C 0.59163 0.54059 0.3769 0.0
O209 O 0.48388 0.4525 0.53901 0.0
O210 O 0.4767 0.49941 0.87729 0.0
O211 O 0.48173 0.46033 0.40142 0.0
O212 O 0.49717 0.44806 0.79869 0.0
O213 O 0.43057 0.46728 0.80025 0.0
O214 O 0.45355 0.41542 0.71667 0.0
O215 O 0.53218 0.55702 0.64198 0.0
O216 O 0.53422 0.55564 0.78009 0.0
C217 C 0.52461 0.57661 0.39824 0.0
C218 C 0.43651 0.48544 0.52924 0.0
H219 H 0.16586 0.54351 0.27697 0.0
H220 H 0.18861 0.47793 0.38987 0.0
H221 H 0.14894 0.46673 0.48965 0.0
H222 H 0.10351 0.47085 0.53207 0.0
H223 H 0.08026 0.53559 0.41456 0.0
H224 H 0.12436 0.552 0.32931 0.0
C225 C 0.16276 0.52764 0.32548 0.0
C226 C 0.18014 0.51181 0.32743 0.0
C227 C 0.13934 0.52063 0.38021 0.0
C228 C 0.17575 0.49074 0.38881 0.0
C229 C 0.1528 0.48404 0.44478 0.0
C230 C 0.10816 0.48861 0.48796 0.0
C231 C 0.08827 0.50163 0.47889 0.0
C232 C 0.13367 0.49796 0.43891 0.0
C233 C 0.09501 0.52507 0.42264 0.0
C234 C 0.12028 0.53449 0.37376 0.0
H235 H 0.66283 0.10437 0.08889 0.0
H236 H 0.71929 0.16828 0.30558 0.0
H237 H 0.68245 0.13046 0.3968 0.0
H238 H 0.63224 0.08148 0.41307 0.0
H239 H 0.57273 0.02223 0.19433 0.0
H240 H 0.61239 0.05713 0.10426 0.0
C241 C 0.66691 0.11055 0.15607 0.0
C242 C 0.69337 0.13968 0.19033 0.0
C243 C 0.64492 0.08979 0.20708 0.0
C244 C 0.69906 0.14623 0.27763 0.0
C245 C 0.67788 0.12475 0.32955 0.0
C246 C 0.62811 0.07614 0.34559 0.0
C247 C 0.59985 0.0493 0.30982 0.0
C248 C 0.65045 0.09683 0.2947 0.0
C249 C 0.59433 0.04281 0.22269 0.0
C250 C 0.617 0.06264 0.17158 0.0
H251 H 0.55099 0.70578 0.25958 0.0
H252 H 0.48179 0.64028 0.06397 0.0
H253 H 0.47008 0.59507 0.14607 0.0
H254 H 0.48661 0.57354 0.26198 0.0
H255 H 0.55583 0.63979 0.45751 0.0
H256 H 0.55989 0.68493 0.38784 0.0
C257 C 0.53246 0.6818 0.23635 0.0
C258 C 0.5177 0.6764 0.15518 0.0
C259 C 0.52633 0.65578 0.28317 0.0
C260 C 0.49381 0.64505 0.12594 0.0
C261 C 0.48727 0.61911 0.17259 0.0
C262 C 0.50211 0.5978 0.29024 0.0
C263 C 0.52153 0.60306 0.36374 0.0
C264 C 0.50456 0.62402 0.24946 0.0
C265 C 0.54104 0.6348 0.40004 0.0
C266 C 0.54344 0.66082 0.36023 0.0
H267 H 0.84675 0.4944 0.14671 0.0
H268 H 0.86588 0.59016 0.22656 0.0
H269 H 0.91362 0.60091 0.30534 0.0
H270 H 0.95374 0.58655 0.33661 0.0
H271 H 0.9388 0.49412 0.24219 0.0
H272 H 0.88762 0.48062 0.17362 0.0
C273 C 0.86146 0.51798 0.17952 0.0
C274 C 0.85289 0.54182 0.17564 0.0
C275 C 0.89083 0.52554 0.21762 0.0
C276 C 0.8713 0.57104 0.22608 0.0
C277 C 0.89936 0.57774 0.26988 0.0
C278 C 0.93954 0.56368 0.29953 0.0
C279 C 0.95007 0.54148 0.29363 0.0
C280 C 0.91004 0.55584 0.26237 0.0
C281 C 0.93148 0.51189 0.24595 0.0
C282 C 0.90192 0.50387 0.20861 0.0
H283 H 0.35131 0.87119 0.18899 0.0
H284 H 0.27766 0.87016 0.32522 0.0
H285 H 0.31682 0.90663 0.43855 0.0
H286 H 0.3718 0.94027 0.49378 0.0
H287 H 0.44564 0.94077 0.35817 0.0
H288 H 0.40635 0.90256 0.24852 0.0
C289 C 0.34402 0.87889 0.24407 0.0
C290 C 0.31207 0.86857 0.24974 0.0
C291 C 0.36651 0.89966 0.30787 0.0
C292 C 0.30232 0.87811 0.32061 0.0
C293 C 0.32463 0.89892 0.3847 0.0
C294 C 0.37937 0.93212 0.4401 0.0
C295 C 0.41157 0.94365 0.43315 0.0
C296 C 0.35677 0.91017 0.37817 0.0
C297 C 0.42098 0.93235 0.36442 0.0
C298 C 0.39858 0.91058 0.30189 0.0
H299 H 0.4312 0.31853 0.23766 0.0
H300 H 0.50236 0.31967 0.41006 0.0
H301 H 0.49671 0.35501 0.5096 0.0
H302 H 0.48602 0.39905 0.5274 0.0
H303 H 0.42561 0.40795 0.34051 0.0
H304 H 0.4132 0.35665 0.26752 0.0
C305 C 0.44554 0.32639 0.29691 0.0
C306 C 0.46855 0.31759 0.31257 0.0
C307 C 0.4448 0.34972 0.35125 0.0
C308 C 0.48482 0.3261 0.39325 0.0
C309 C 0.48202 0.347 0.45084 0.0
C310 C 0.46912 0.38903 0.47265 0.0
C311 C 0.4572 0.40729 0.43812 0.0
C312 C 0.46426 0.36105 0.42738 0.0
C313 C 0.43536 0.3943 0.36725 0.0
C314 C 0.42847 0.36512 0.32528 0.0
H315 H 0.49719 0.82649 0.84024 0.0
H316 H 0.58392 0.8938 0.98502 0.0
H317 H 0.58658 0.93766 0.90957 0.0
H318 H 0.55904 0.9578 0.82059 0.0
H319 H 0.47335 0.89063 0.67174 0.0
H320 H 0.47562 0.84565 0.72872 0.0
C321 C 0.51725 0.85057 0.85263 0.0
C322 C 0.54042 0.85703 0.91764 0.0
C323 C 0.51853 0.8757 0.80898 0.0
C324 C 0.56609 0.88833 0.93441 0.0
C325 C 0.56742 0.91343 0.8919 0.0
C326 C 0.54158 0.93324 0.79845 0.0
C327 C 0.51609 0.92735 0.74225 0.0
C328 C 0.54309 0.9076 0.83162 0.0
C329 C 0.49334 0.89558 0.71437 0.0
C330 C 0.49448 0.86991 0.74763 0.0
H331 H 0.65764 0.53096 -0.00352 0.0
H332 H 0.71806 0.52826 0.81292 0.0
H333 H 0.67803 0.51897 0.70151 0.0
H334 H 0.62783 0.5167 0.65772 0.0
H335 H 0.56665 0.51292 0.84543 0.0
H336 H 0.60481 0.51731 0.95537 0.0
C337 C 0.66207 0.52667 0.93312 0.0
C338 C 0.6914 0.53048 0.91445 0.0
C339 C 0.63867 0.51995 0.87007 0.0
C340 C 0.69624 0.52633 0.83007 0.0
C341 C 0.67322 0.52071 0.76611 0.0
C342 C 0.62276 0.51619 0.72277 0.0
C343 C 0.59486 0.51493 0.74423 0.0
C344 C 0.64471 0.51839 0.78559 0.0
C345 C 0.58798 0.5138 0.82789 0.0
C346 C 0.60989 0.51658 0.89063 0.0
H347 H 0.09118 0.67992 0.00935 0.0
H348 H 0.17479 0.69231 0.89976 0.0
H349 H 0.14269 0.64949 0.79318 0.0
H350 H 0.09244 0.60102 0.74865 0.0
H351 H 0.01073 0.58086 0.8774 0.0
H352 H 0.04038 0.63299 0.96024 0.0
C353 C 0.10265 0.67327 0.963 0.0
C354 C 0.13578 0.68938 0.96568 0.0
C355 C 0.08421 0.64635 0.90573 0.0
C356 C 0.14958 0.68113 0.90093 0.0
C357 C 0.13117 0.65598 0.83986 0.0
C358 C 0.08106 0.60852 0.79354 0.0
C359 C 0.04975 0.58747 0.80774 0.0
C360 C 0.09872 0.6374 0.84439 0.0
C361 C 0.03504 0.59691 0.86636 0.0
C362 C 0.05196 0.62659 0.9136 0.0
H363 H 0.55537 0.17236 0.11966 0.0
H364 H 0.49419 0.19845 0.98799 0.0
H365 H 0.48556 0.16003 0.86893 0.0
H366 H 0.48811 0.11278 0.81562 0.0
H367 H 0.54566 0.08391 0.95598 0.0
H368 H 0.56337 0.12994 0.0582 0.0
C369 C 0.54063 0.16996 0.06402 0.0
C370 C 0.52486 0.18743 0.06244 0.0
C371 C 0.53484 0.14709 -0.00174 0.0
C372 C 0.50633 0.18492 0.99011 0.0
C373 C 0.50122 0.16283 0.92267 0.0
C374 C 0.50497 0.11688 0.86769 0.0
C375 C 0.51504 0.0946 0.87913 0.0
C376 C 0.51419 0.14275 0.92796 0.0
C377 C 0.53711 0.10039 0.94653 0.0
C378 C 0.54727 0.1267 0.00504 0.0
H379 H 0.38475 0.52604 0.14828 0.0
H380 H 0.30828 0.48816 0.95375 0.0
H381 H 0.34044 0.47845 0.85752 0.0
H382 H 0.38822 0.47707 0.83338 0.0
H383 H 0.46489 0.51419 0.02788 0.0
H384 H 0.43424 0.52756 0.12108 0.0
C385 C 0.37526 0.51584 0.08448 0.0
C386 C 0.34411 0.50736 0.0579 0.0
C387 C 0.39358 0.50975 0.03075 0.0
C388 C 0.33216 0.49482 0.9751 0.0
C389 C 0.35043 0.48903 0.92069 0.0
C390 C 0.39833 0.48788 0.89638 0.0
C391 C 0.42864 0.494 0.92433 0.0
C392 C 0.38079 0.49565 0.94869 0.0
C393 C 0.44152 0.50886 0.00529 0.0
C394 C 0.42405 0.51658 0.0583 0.0
H395 H 0.85222 0.29138 0.90382 0.0
H396 H 0.83251 0.35658 0.0472 0.0
H397 H 0.8627 0.39884 0.95757 0.0
H398 H 0.90301 0.41973 0.85709 0.0
H399 H 0.92171 0.35387 0.71267 0.0
H400 H 0.88282 0.30931 0.78235 0.0
C401 C 0.85339 0.31437 0.91359 0.0
C402 C 0.8409 0.32105 0.98373 0.0
C403 C 0.8711 0.33871 0.86238 0.0
C404 C 0.84266 0.35107 -0.00503 0.0
C405 C 0.86 0.37531 0.94388 0.0
C406 C 0.89804 0.39552 0.83942 0.0
C407 C 0.91597 0.39037 0.78157 0.0
C408 C 0.87577 0.36988 0.88039 0.0
C409 C 0.90867 0.35872 0.75795 0.0
C410 C 0.88648 0.33313 0.7981 0.0
H411 H 0.88056 0.52366 0.97462 0.0
H412 H 0.83057 0.54403 0.7802 0.0
H413 H 0.86344 0.53876 0.67807 0.0
H414 H 0.908 0.5306 0.64678 0.0
H415 H 0.952 0.50376 0.84045 0.0
H416 H 0.91758 0.50704 0.94045 0.0
C417 C 0.8752 0.52541 0.90958 0.0
C418 C 0.85217 0.5336 0.8858 0.0
C419 C 0.89293 0.52085 0.85112 0.0
C420 C 0.84798 0.53787 0.80116 0.0
C421 C 0.86664 0.53462 0.74253 0.0
C422 C 0.90952 0.5249 0.71064 0.0
C423 C 0.93247 0.51715 0.73706 0.0
C424 C 0.88939 0.52644 0.7672 0.0
C425 C 0.93434 0.50956 0.81918 0.0
C426 C 0.91491 0.51174 0.87621 0.0
H427 H 0.28679 0.90132 0.98072 0.0
H428 H 0.29999 0.82242 0.89937 0.0
H429 H 0.33852 0.85594 0.80689 0.0
H430 H 0.37717 0.91032 0.77673 0.0
H431 H 0.36746 0.99061 0.86445 0.0
H432 H 0.31925 0.95423 0.92814 0.0
C433 C 0.2974 0.89124 0.94064 0.0
C434 C 0.29108 0.85965 0.94863 0.0
C435 C 0.321 0.91126 0.8912 0.0
C436 C 0.30438 0.8466 0.89496 0.0
C437 C 0.32692 0.86597 0.84302 0.0
C438 C 0.364 0.91966 0.8083 0.0
C439 C 0.37584 0.95289 0.81788 0.0
C440 C 0.33682 0.89875 0.84514 0.0
C441 C 0.35867 0.96501 0.85731 0.0
C442 C 0.33126 0.94424 0.8937 0.0
H443 H 0.4513 0.30731 0.98941 0.0
H444 H 0.55202 0.36483 0.04083 0.0
H445 H 0.5541 0.39952 0.93304 0.0
H446 H 0.52647 0.41787 0.83904 0.0
H447 H 0.42574 0.3605 0.78649 0.0
H448 H 0.42452 0.32112 0.87831 0.0
C449 C 0.47376 0.32703 0.97552 0.0
C450 C 0.50146 0.33357 0.02345 0.0
C451 C 0.47473 0.34707 0.91373 0.0
C452 C 0.53041 0.35909 0.00458 0.0
C453 C 0.53157 0.37913 0.9434 0.0
C454 C 0.50431 0.39637 0.84615 0.0
C455 C 0.47617 0.39237 0.80662 0.0
C456 C 0.50377 0.374 0.89968 0.0
C457 C 0.44773 0.36421 0.81589 0.0
C458 C 0.447 0.34181 0.86911 0.0
H459 H 0.13382 0.43772 0.08591 0.0
H460 H 0.19946 0.5139 0.94755 0.0
H461 H 0.15873 0.49807 0.8335 0.0
H462 H 0.1023 0.47172 0.78924 0.0
H463 H 0.03512 0.40412 0.94191 0.0
H464 H 0.07807 0.40783 0.03531 0.0
C465 C 0.13933 0.45081 0.03062 0.0
C466 C 0.16948 0.47769 0.02699 0.0
C467 C 0.11512 0.4435 0.96862 0.0
C468 C 0.17655 0.49325 0.95292 0.0
C469 C 0.15307 0.48452 0.88792 0.0
C470 C 0.09726 0.45712 0.84166 0.0
C471 C 0.06599 0.43755 0.85922 0.0
C472 C 0.12195 0.46106 0.89751 0.0
C473 C 0.05923 0.41911 0.92765 0.0
C474 C 0.08373 0.42141 0.98094 0.0
H475 H 0.65996 0.17296 0.93527 0.0
H476 H 0.73098 0.15213 0.85683 0.0
H477 H 0.69221 0.10864 0.75795 0.0
H478 H 0.63693 0.06984 0.71675 0.0
H479 H 0.56478 0.08711 0.80455 0.0
H480 H 0.60486 0.13718 0.88215 0.0
C481 C 0.66708 0.15941 0.89478 0.0
C482 C 0.69805 0.16505 0.90579 0.0
C483 C 0.64409 0.13243 0.84414 0.0
C484 C 0.70729 0.14823 0.85069 0.0
C485 C 0.6849 0.12269 0.79561 0.0
C486 C 0.62981 0.08435 0.75323 0.0
C487 C 0.59768 0.07406 0.75727 0.0
C488 C 0.65299 0.11329 0.79635 0.0
C489 C 0.58918 0.09381 0.803 0.0
C490 C 0.61214 0.12275 0.84602 0.0
H491 H 0.53546 0.69372 0.80764 0.0
H492 H 0.61126 0.70961 0.98566 0.0
H493 H 0.61635 0.66751 0.90949 0.0
H494 H 0.58873 0.6171 0.81763 0.0
H495 H 0.51337 0.60133 0.63773 0.0
H496 H 0.51879 0.65277 0.68777 0.0
C497 C 0.55426 0.68916 0.82645 0.0
C498 C 0.57273 0.70414 0.90204 0.0
C499 C 0.55638 0.6643 0.78361 0.0
C500 C 0.59694 0.6982 0.9271 0.0
C501 C 0.59946 0.67377 0.88444 0.0
C502 C 0.57439 0.62564 0.78759 0.0
C503 C 0.5502 0.6055 0.72621 0.0
C504 C 0.5777 0.65515 0.81654 0.0
C505 C 0.53194 0.61659 0.68603 0.0
C506 C 0.53492 0.64586 0.71486 0.0
H507 H 0.46497 0.14652 0.31009 0.0
H508 H 0.55664 0.21433 0.43068 0.0
H509 H 0.5541 0.17371 0.52031 0.0
H510 H 0.53074 0.11579 0.5407 0.0
H511 H 0.44178 0.04756 0.4068 0.0
H512 H 0.43796 0.09108 0.34671 0.0
C513 C 0.48385 0.15268 0.3583 0.0
C514 C 0.51103 0.18324 0.36351 0.0
C515 C 0.48289 0.12874 0.40597 0.0
C516 C 0.5354 0.19104 0.4259 0.0
C517 C 0.53412 0.16762 0.47621 0.0
C518 C 0.51004 0.11075 0.50086 0.0
C519 C 0.48643 0.07868 0.47831 0.0
C520 C 0.50875 0.13591 0.46349 0.0
C521 C 0.46003 0.07215 0.42521 0.0
C522 C 0.45798 0.097 0.3905 0.0
H523 H 0.3647 0.54485 0.3469 0.0
H524 H 0.28671 0.44917 0.3535 0.0
H525 H 0.31965 0.43553 0.44226 0.0
H526 H 0.37288 0.44848 0.49584 0.0
H527 H 0.45209 0.54198 0.46532 0.0
H528 H 0.41684 0.5584 0.404 0.0
C529 C 0.35466 0.52152 0.37142 0.0
C530 C 0.32344 0.49818 0.34575 0.0
C531 C 0.37447 0.51299 0.41367 0.0
C532 C 0.31058 0.46764 0.37475 0.0
C533 C 0.32964 0.45967 0.42332 0.0
C534 C 0.38241 0.47241 0.47559 0.0
C535 C 0.41511 0.49379 0.48433 0.0
C536 C 0.36202 0.48165 0.43908 0.0
C537 C 0.42709 0.52478 0.45804 0.0
C538 C 0.40693 0.53442 0.42406 0.0
H539 H 0.90492 0.31898 0.22142 0.0
H540 H 0.8267 0.3114 0.34733 0.0
H541 H 0.86304 0.35476 0.45306 0.0
H542 H 0.91623 0.40176 0.49013 0.0
H543 H 0.99264 0.41321 0.34818 0.0
H544 H 0.95833 0.36133 0.26877 0.0
C545 C 0.89606 0.32607 0.27417 0.0
C546 C 0.8635 0.31217 0.27778 0.0
C547 C 0.91688 0.35221 0.33054 0.0
C548 C 0.85183 0.32168 0.34465 0.0
C549 C 0.87258 0.3467 0.40414 0.0
C550 C 0.92539 0.39228 0.44343 0.0
C551 C 0.95665 0.41101 0.42416 0.0
C552 C 0.90504 0.36324 0.395 0.0
C553 C 0.96849 0.39903 0.36316 0.0
C554 C 0.94891 0.36949 0.31782 0.0
H555 H 0.53924 0.83247 0.27452 0.0
H556 H 0.45832 0.81919 0.12105 0.0
H557 H 0.44897 0.85058 0.22843 0.0
H558 H 0.47153 0.8917 0.34781 0.0
H559 H 0.55398 0.90646 0.49671 0.0
H560 H 0.55405 0.8633 0.41075 0.0
C561 C 0.51867 0.83508 0.26568 0.0
C562 C 0.50003 0.82424 0.1886 0.0
C563 C 0.51401 0.85387 0.32646 0.0
C564 C 0.47352 0.82801 0.17889 0.0
C565 C 0.46823 0.84604 0.24016 0.0
C566 C 0.48904 0.88491 0.3629 0.0
C567 C 0.51343 0.90307 0.42649 0.0
C568 C 0.48959 0.8608 0.31148 0.0
C569 C 0.53532 0.89334 0.44699 0.0
C570 C 0.53551 0.86877 0.39746 0.0
H571 H 0.68719 0.50838 0.21472 0.0
H572 H 0.74239 0.61156 0.22714 0.0
H573 H 0.70484 0.61588 0.31331 0.0
H574 H 0.65086 0.59017 0.36005 0.0
H575 H 0.59197 0.48721 0.31951 0.0
H576 H 0.63522 0.48291 0.26538 0.0
C577 C 0.6913 0.53185 0.23755 0.0
C578 C 0.71708 0.55953 0.21239 0.0
C579 C 0.66794 0.53413 0.27849 0.0
C580 C 0.72272 0.58977 0.24508 0.0
C581 C 0.7008 0.59226 0.29272 0.0
C582 C 0.64764 0.56688 0.33929 0.0
C583 C 0.61811 0.53911 0.34201 0.0
C584 C 0.67238 0.56463 0.30524 0.0
C585 C 0.61423 0.509 0.31584 0.0
C586 C 0.63906 0.50647 0.28593 0.0
H587 H 0.17772 0.68657 0.30456 0.0
H588 H 0.11939 0.72855 0.26316 0.0
H589 H 0.08742 0.69993 0.37487 0.0
H590 H 0.06972 0.65457 0.46156 0.0
H591 H 0.1242 0.60763 0.48811 0.0
H592 H 0.16451 0.64695 0.40779 0.0
C593 C 0.15872 0.6903 0.32242 0.0
C594 C 0.15082 0.70955 0.27625 0.0
C595 C 0.13956 0.67252 0.38377 0.0
C596 C 0.12582 0.71383 0.29836 0.0
C597 C 0.10746 0.69732 0.36178 0.0
C598 C 0.09114 0.65395 0.45289 0.0
C599 C 0.09421 0.6285 0.48093 0.0
C600 C 0.11317 0.6754 0.40199 0.0
C601 C 0.12159 0.62727 0.46757 0.0
C602 C 0.14442 0.6495 0.42077 0.0
loop_
_geom_bond_atom_site_label_1
_geom_bond_atom_site_label_2
_geom_bond_distance
_geom_bond_site_symmetry_2
_ccdc_geom_bond_type
H0 C8 0.930 . S
H1 C11 0.930 . S
H2 C13 0.930 . S
H3 C14 0.970 . S
H4 C14 0.970 . S
H5 C16 0.930 . S
H6 C18 0.930 . S
H7 C20 0.930 . S
C8 H0 0.930 . S
C8 C9 1.382 . S
C8 C10 1.426 . S
C9 C8 1.382 . S
C9 C13 1.389 . S
C10 C8 1.426 . S
C10 C11 1.375 . S
C10 C14 1.532 . S
C11 H1 0.930 . S
C11 C10 1.375 . S
C11 C12 1.416 . S
C12 C11 1.416 . S
C12 C13 1.371 . S
C13 H2 0.930 . S
C13 C9 1.389 . S
C13 C12 1.371 . S
C14 H3 0.970 . S
C14 H4 0.970 . S
C14 C10 1.532 . S
C14 C15 1.499 . S
C15 C14 1.499 . S
C15 C16 1.370 . S
C15 C20 1.415 . S
C16 H5 0.930 . S
C16 C15 1.370 . S
C16 C17 1.407 . S
C17 C16 1.407 . S
C17 C18 1.365 . S
C18 H6 0.930 . S
C18 C17 1.365 . S
C18 C19 1.393 . S
C19 C18 1.393 . S
C19 C20 1.387 . S
C20 H7 0.930 . S
C20 C15 1.415 . S
C20 C19 1.387 . S
H21 C29 0.930 1_556 S
H22 C32 0.930 . S
H23 C34 0.930 . S
H24 C35 0.970 . S
H25 C35 0.970 . S
H26 C37 0.930 1_556 S
H27 C39 0.930 . S
H28 C41 0.930 . S
C29 H21 0.930 1_554 S
C29 C30 1.382 . S
C29 C31 1.426 . S
C30 C29 1.382 . S
C30 C34 1.389 . S
C31 C29 1.426 . S
C31 C32 1.375 . S
C31 C35 1.532 . S
C32 H22 0.930 . S
C32 C31 1.375 . S
C32 C33 1.416 . S
C33 C32 1.416 . S
C33 C34 1.371 . S
C34 H23 0.930 . S
C34 C30 1.389 . S
C34 C33 1.371 . S
C35 H24 0.970 . S
C35 H25 0.970 . S
C35 C31 1.532 . S
C35 C36 1.499 . S
C36 C35 1.499 . S
C36 C37 1.370 . S
C36 C41 1.415 . S
C37 H26 0.930 1_554 S
C37 C36 1.370 . S
C37 C38 1.407 . S
C38 C37 1.407 . S
C38 C39 1.365 . S
C39 H27 0.930 . S
C39 C38 1.365 . S
C39 C40 1.393 . S
C40 C39 1.393 . S
C40 C41 1.387 . S
C41 H28 0.930 . S
C41 C36 1.415 . S
C41 C40 1.387 . S
H42 C50 0.930 . S
H43 C53 0.930 . S
H44 C55 0.930 . S
H45 C56 0.970 . S
H46 C56 0.970 . S
H47 C58 0.930 . S
H48 C60 0.930 . S
H49 C62 0.930 . S
C50 H42 0.930 . S
C50 C51 1.382 . S
C50 C52 1.426 1_556 S
C51 C50 1.382 . S
C51 C55 1.389 1_556 S
C52 C50 1.426 1_554 S
C52 C53 1.375 . S
C52 C56 1.532 . S
C53 H43 0.930 . S
C53 C52 1.375 . S
C53 C54 1.416 . S
C54 C53 1.416 . S
C54 C55 1.371 . S
C55 H44 0.930 . S
C55 C51 1.389 1_554 S
C55 C54 1.371 . S
C56 H45 0.970 . S
C56 H46 0.970 . S
C56 C52 1.532 . S
C56 C57 1.499 . S
C57 C56 1.499 . S
C57 C58 1.370 1_554 S
C57 C62 1.415 . S
C58 H47 0.930 . S
C58 C57 1.370 1_556 S
C58 C59 1.407 . S
C59 C58 1.407 . S
C59 C60 1.365 1_556 S
C60 H48 0.930 . S
C60 C59 1.365 1_554 S
C60 C61 1.393 . S
C61 C60 1.393 . S
C61 C62 1.387 . S
C62 H49 0.930 . S
C62 C57 1.415 . S
C62 C61 1.387 . S
H63 C71 0.930 . S
H64 C74 0.930 . S
H65 C76 0.930 . S
H66 C77 0.970 1_556 S
H67 C77 0.970 . S
H68 C79 0.930 . S
H69 C81 0.930 . S
H70 C83 0.930 . S
C71 H63 0.930 . S
C71 C72 1.382 . S
C71 C73 1.426 1_556 S
C72 C71 1.382 . S
C72 C76 1.389 1_556 S
C73 C71 1.426 1_554 S
C73 C74 1.375 . S
C73 C77 1.532 . S
C74 H64 0.930 . S
C74 C73 1.375 . S
C74 C75 1.416 . S
C75 C74 1.416 . S
C75 C76 1.371 . S
C76 H65 0.930 . S
C76 C72 1.389 1_554 S
C76 C75 1.371 . S
C77 H66 0.970 1_554 S
C77 H67 0.970 . S
C77 C73 1.532 . S
C77 C78 1.499 . S
C78 C77 1.499 . S
C78 C79 1.370 1_554 S
C78 C83 1.415 . S
C79 H68 0.930 . S
C79 C78 1.370 1_556 S
C79 C80 1.407 . S
C80 C79 1.407 . S
C80 C81 1.365 1_556 S
C81 H69 0.930 . S
C81 C80 1.365 1_554 S
C81 C82 1.393 . S
C82 C81 1.393 . S
C82 C83 1.387 . S
C83 H70 0.930 . S
C83 C78 1.415 . S
C83 C82 1.387 . S
H84 C92 0.930 1_556 S
H85 C95 0.930 . S
H86 C97 0.930 . S
H87 C98 0.970 . S
H88 C98 0.970 . S
H89 C100 0.930 1_556 S
H90 C102 0.930 . S
H91 C104 0.930 . S
C92 H84 0.930 1_554 S
C92 C93 1.382 . S
C92 C94 1.426 . S
C93 C92 1.382 . S
C93 C97 1.389 . S
C94 C92 1.426 . S
C94 C95 1.375 . S
C94 C98 1.532 . S
C95 H85 0.930 . S
C95 C94 1.375 . S
C95 C96 1.416 . S
C96 C95 1.416 . S
C96 C97 1.371 . S
C97 H86 0.930 . S
C97 C93 1.389 . S
C97 C96 1.371 . S
C98 H87 0.970 . S
C98 H88 0.970 . S
C98 C94 1.532 . S
C98 C99 1.499 . S
C99 C98 1.499 . S
C99 C100 1.370 . S
C99 C104 1.415 . S
C100 H89 0.930 1_554 S
C100 C99 1.370 . S
C100 C101 1.407 . S
C101 C100 1.407 . S
C101 C102 1.365 . S
C102 H90 0.930 . S
C102 C101 1.365 . S
C102 C103 1.393 . S
C103 C102 1.393 . S
C103 C104 1.387 . S
C104 H91 0.930 . S
C104 C99 1.415 . S
C104 C103 1.387 . S
H105 C113 0.930 . S
H106 C116 0.930 . S
H107 C118 0.930 . S
H108 C119 0.970 . S
H109 C119 0.970 . S
H110 C121 0.930 . S
H111 C123 0.930 . S
H112 C125 0.930 . S
C113 H105 0.930 . S
C113 C114 1.382 . S
C113 C115 1.426 . S
C114 C113 1.382 . S
C114 C118 1.389 . S
C115 C113 1.426 . S
C115 C116 1.375 . S
C115 C119 1.532 . S
C116 H106 0.930 . S
C116 C115 1.375 . S
C116 C117 1.416 . S
C117 C116 1.416 . S
C117 C118 1.371 . S
C118 H107 0.930 . S
C118 C114 1.389 . S
C118 C117 1.371 . S
C119 H108 0.970 . S
C119 H109 0.970 . S
C119 C115 1.532 . S
C119 C120 1.499 . S
C120 C119 1.499 . S
C120 C121 1.370 . S
C120 C125 1.415 . S
C121 H110 0.930 . S
C121 C120 1.370 . S
C121 C122 1.407 . S
C122 C121 1.407 . S
C122 C123 1.365 . S
C123 H111 0.930 . S
C123 C122 1.365 . S
C123 C124 1.393 . S
C124 C123 1.393 . S
C124 C125 1.387 . S
C125 H112 0.930 . S
C125 C120 1.415 . S
C125 C124 1.387 . S
C126 O153 1.312 . S
C126 O154 1.208 . S
C127 O148 1.331 . S
C127 O151 1.244 . S
C128 O150 1.264 . S
C128 O152 1.273 . S
Mg129 O131 1.936 1_455 S
Mg129 O138 2.081 1_455 S
Mg129 O140 2.023 . S
Mg129 O144 2.031 1_455 S
Mg129 O153 2.291 . S
Mg130 O131 1.963 . S
Mg130 O141 1.942 . S
Mg130 O142 1.955 1_655 S
Mg130 O149 1.986 . S
O131 Mg129 1.936 1_655 S
O131 Mg130 1.963 . S
O131 Mg132 1.915 1_655 S
Mg132 O131 1.915 1_455 S
Mg132 O133 1.915 . S
Mg132 O137 2.013 . S
Mg132 O143 2.114 1_455 S
Mg132 O147 2.013 1_455 S
Mg132 O153 2.114 . S
O133 Mg132 1.915 . S
O133 Mg134 1.936 . S
O133 Mg135 1.963 . S
Mg134 O133 1.936 . S
Mg134 O143 2.291 1_455 S
Mg134 O148 2.081 . S
Mg134 O150 2.023 1_455 S
Mg134 O154 2.031 . S
Mg135 O133 1.963 . S
Mg135 O139 1.986 . S
Mg135 O151 1.942 . S
Mg135 O152 1.955 1_455 S
C136 O147 1.191 . S
C136 O149 1.307 . S
O137 Mg132 2.013 . S
O137 C156 1.191 . S
O138 Mg129 2.081 1_655 S
O138 C146 1.331 . S
O139 Mg135 1.986 . S
O139 C156 1.307 . S
O140 Mg129 2.023 . S
O140 C155 1.264 . S
O141 Mg130 1.942 . S
O141 C146 1.244 . S
O142 Mg130 1.955 1_455 S
O142 C155 1.273 . S
O143 Mg132 2.114 1_655 S
O143 Mg134 2.291 1_655 S
O143 C145 1.312 . S
O144 Mg129 2.031 1_655 S
O144 C145 1.208 . S
C145 O143 1.312 . S
C145 O144 1.208 . S
C146 O138 1.331 . S
C146 O141 1.244 . S
O147 Mg132 2.013 1_655 S
O147 C136 1.191 . S
O148 C127 1.331 . S
O148 Mg134 2.081 . S
O149 Mg130 1.986 . S
O149 C136 1.307 . S
O150 C128 1.264 . S
O150 Mg134 2.023 1_655 S
O151 C127 1.244 . S
O151 Mg135 1.942 . S
O152 C128 1.273 . S
O152 Mg135 1.955 1_655 S
O153 C126 1.312 . S
O153 Mg129 2.291 . S
O153 Mg132 2.114 . S
O154 C126 1.208 . S
O154 Mg134 2.031 . S
C155 O140 1.264 . S
C155 O142 1.273 . S
C156 O137 1.191 . S
C156 O139 1.307 . S
C157 O184 1.312 . S
C157 O185 1.208 . S
C158 O179 1.331 . S
C158 O182 1.244 . S
C159 O181 1.264 . S
C159 O183 1.273 . S
Mg160 O162 1.936 1_545 S
Mg160 O169 2.081 1_545 S
Mg160 O171 2.023 . S
Mg160 O175 2.031 1_545 S
Mg160 O184 2.291 . S
Mg161 O162 1.963 . S
Mg161 O172 1.942 . S
Mg161 O173 1.955 1_565 S
Mg161 O180 1.986 . S
O162 Mg160 1.936 1_565 S
O162 Mg161 1.963 . S
O162 Mg163 1.915 1_565 S
Mg163 O162 1.915 1_545 S
Mg163 O164 1.915 . S
Mg163 O168 2.013 . S
Mg163 O174 2.114 1_545 S
Mg163 O178 2.013 1_545 S
Mg163 O184 2.114 . S
O164 Mg163 1.915 . S
O164 Mg165 1.936 . S
O164 Mg166 1.963 . S
Mg165 O164 1.936 . S
Mg165 O174 2.291 1_545 S
Mg165 O179 2.081 . S
Mg165 O181 2.023 1_545 S
Mg165 O185 2.031 . S
Mg166 O164 1.963 . S
Mg166 O170 1.986 . S
Mg166 O182 1.942 . S
Mg166 O183 1.955 1_545 S
C167 O178 1.191 . S
C167 O180 1.307 . S
O168 Mg163 2.013 . S
O168 C187 1.191 . S
O169 Mg160 2.081 1_565 S
O169 C177 1.331 . S
O170 Mg166 1.986 . S
O170 C187 1.307 . S
O171 Mg160 2.023 . S
O171 C186 1.264 . S
O172 Mg161 1.942 . S
O172 C177 1.244 . S
O173 Mg161 1.955 1_545 S
O173 C186 1.273 . S
O174 Mg163 2.114 1_565 S
O174 Mg165 2.291 1_565 S
O174 C176 1.312 . S
O175 Mg160 2.031 1_565 S
O175 C176 1.208 . S
C176 O174 1.312 . S
C176 O175 1.208 . S
C177 O169 1.331 . S
C177 O172 1.244 . S
O178 Mg163 2.013 1_565 S
O178 C167 1.191 . S
O179 C158 1.331 . S
O179 Mg165 2.081 . S
O180 Mg161 1.986 . S
O180 C167 1.307 . S
O181 C159 1.264 . S
O181 Mg165 2.023 1_565 S
O182 C158 1.244 . S
O182 Mg166 1.942 . S
O183 C159 1.273 . S
O183 Mg166 1.955 1_565 S
O184 C157 1.312 . S
O184 Mg160 2.291 . S
O184 Mg163 2.114 . S
O185 C157 1.208 . S
O185 Mg165 2.031 . S
C186 O171 1.264 . S
C186 O173 1.273 . S
C187 O168 1.191 . S
C187 O170 1.307 . S
C188 O215 1.312 . S
C188 O216 1.208 . S
C189 O210 1.331 . S
C189 O213 1.244 . S
C190 O212 1.264 . S
C190 O214 1.273 . S
Mg191 O193 1.936 . S
Mg191 O200 2.081 . S
Mg191 O202 2.023 . S
Mg191 O206 2.031 . S
Mg191 O215 2.291 . S
Mg192 O193 1.963 . S
Mg192 O203 1.942 . S
Mg192 O204 1.955 . S
Mg192 O211 1.986 . S
O193 Mg191 1.936 . S
O193 Mg192 1.963 . S
O193 Mg194 1.915 . S
Mg194 O193 1.915 . S
Mg194 O195 1.915 . S
Mg194 O199 2.013 . S
Mg194 O205 2.114 . S
Mg194 O209 2.013 . S
Mg194 O215 2.114 . S
O195 Mg194 1.915 . S
O195 Mg196 1.936 . S
O195 Mg197 1.963 . S
Mg196 O195 1.936 . S
Mg196 O205 2.291 . S
Mg196 O210 2.081 . S
Mg196 O212 2.023 . S
Mg196 O216 2.031 . S
Mg197 O195 1.963 . S
Mg197 O201 1.986 . S
Mg197 O213 1.942 . S
Mg197 O214 1.955 . S
C198 O209 1.191 . S
C198 O211 1.307 . S
O199 Mg194 2.013 . S
O199 C218 1.191 . S
O200 Mg191 2.081 . S
O200 C208 1.331 . S
O201 Mg197 1.986 . S
O201 C218 1.307 . S
O202 Mg191 2.023 . S
O202 C217 1.264 . S
O203 Mg192 1.942 . S
O203 C208 1.244 . S
O204 Mg192 1.955 . S
O204 C217 1.273 . S
O205 Mg194 2.114 . S
O205 Mg196 2.291 . S
O205 C207 1.312 . S
O206 Mg191 2.031 . S
O206 C207 1.208 . S
C207 O205 1.312 . S
C207 O206 1.208 . S
C208 O200 1.331 . S
C208 O203 1.244 . S
O209 Mg194 2.013 . S
O209 C198 1.191 . S
O210 C189 1.331 . S
O210 Mg196 2.081 . S
O211 Mg192 1.986 . S
O211 C198 1.307 . S
O212 C190 1.264 . S
O212 Mg196 2.023 . S
O213 C189 1.244 . S
O213 Mg197 1.942 . S
O214 C190 1.273 . S
O214 Mg197 1.955 . S
O215 C188 1.312 . S
O215 Mg191 2.291 . S
O215 Mg194 2.114 . S
O216 C188 1.208 . S
O216 Mg196 2.031 . S
C217 O202 1.264 . S
C217 O204 1.273 . S
C218 O199 1.191 . S
C218 O201 1.307 . S
H219 C225 0.930 . S
H220 C228 0.930 . S
H221 C229 0.930 . S
H222 C230 0.930 . S
H223 C233 0.930 . S
H224 C234 0.930 . S
C225 H219 0.930 . S
C225 C226 1.355 . S
C225 C227 1.415 . S
C226 C225 1.355 . S
C226 C228 1.419 . S
C227 C225 1.415 . S
C227 C232 1.425 . S
C227 C234 1.409 . S
C228 H220 0.930 . S
C228 C226 1.419 . S
C228 C229 1.362 . S
C229 H221 0.930 . S
C229 C228 1.362 . S
C229 C232 1.409 . S
C230 H222 0.930 . S
C230 C231 1.355 . S
C230 C232 1.415 . S
C231 C230 1.355 . S
C231 C233 1.419 . S
C232 C227 1.425 . S
C232 C229 1.409 . S
C232 C230 1.415 . S
C233 H223 0.930 . S
C233 C231 1.419 . S
C233 C234 1.362 . S
C234 H224 0.930 . S
C234 C227 1.409 . S
C234 C233 1.362 . S
H235 C241 0.930 . S
H236 C244 0.930 . S
H237 C245 0.930 . S
H238 C246 0.930 . S
H239 C249 0.930 . S
H240 C250 0.930 . S
C241 H235 0.930 . S
C241 C242 1.355 . S
C241 C243 1.415 . S
C242 C241 1.355 . S
C242 C244 1.419 . S
C243 C241 1.415 . S
C243 C248 1.425 . S
C243 C250 1.409 . S
C244 H236 0.930 . S
C244 C242 1.419 . S
C244 C245 1.362 . S
C245 H237 0.930 . S
C245 C244 1.362 . S
C245 C248 1.409 . S
C246 H238 0.930 . S
C246 C247 1.355 . S
C246 C248 1.415 . S
C247 C246 1.355 . S
C247 C249 1.419 . S
C248 C243 1.425 . S
C248 C245 1.409 . S
C248 C246 1.415 . S
C249 H239 0.930 . S
C249 C247 1.419 . S
C249 C250 1.362 . S
C250 H240 0.930 . S
C250 C243 1.409 . S
C250 C249 1.362 . S
H251 C257 0.930 . S
H252 C260 0.930 . S
H253 C261 0.930 . S
H254 C262 0.930 . S
H255 C265 0.930 . S
H256 C266 0.930 . S
C257 H251 0.930 . S
C257 C258 1.355 . S
C257 C259 1.415 . S
C258 C257 1.355 . S
C258 C260 1.419 . S
C259 C257 1.415 . S
C259 C264 1.425 . S
C259 C266 1.409 . S
C260 H252 0.930 . S
C260 C258 1.419 . S
C260 C261 1.362 . S
C261 H253 0.930 . S
C261 C260 1.362 . S
C261 C264 1.409 . S
C262 H254 0.930 . S
C262 C263 1.355 . S
C262 C264 1.415 . S
C263 C262 1.355 . S
C263 C265 1.419 . S
C264 C259 1.425 . S
C264 C261 1.409 . S
C264 C262 1.415 . S
C265 H255 0.930 . S
C265 C263 1.419 . S
C265 C266 1.362 . S
C266 H256 0.930 . S
C266 C259 1.409 . S
C266 C265 1.362 . S
H267 C273 0.930 . S
H268 C276 0.930 . S
H269 C277 0.930 . S
H270 C278 0.930 . S
H271 C281 0.930 . S
H272 C282 0.930 . S
C273 H267 0.930 . S
C273 C274 1.355 . S
C273 C275 1.415 . S
C274 C273 1.355 . S
C274 C276 1.419 . S
C275 C273 1.415 . S
C275 C280 1.425 . S
C275 C282 1.409 . S
C276 H268 0.930 . S
C276 C274 1.419 . S
C276 C277 1.362 . S
C277 H269 0.930 . S
C277 C276 1.362 . S
C277 C280 1.409 . S
C278 H270 0.930 . S
C278 C279 1.355 . S
C278 C280 1.415 . S
C279 C278 1.355 . S
C279 C281 1.419 . S
C280 C275 1.425 . S
C280 C277 1.409 . S
C280 C278 1.415 . S
C281 H271 0.930 . S
C281 C279 1.419 . S
C281 C282 1.362 . S
C282 H272 0.930 . S
C282 C275 1.409 . S
C282 C281 1.362 . S
H283 C289 0.930 . S
H284 C292 0.930 . S
H285 C293 0.930 . S
H286 C294 0.930 . S
H287 C297 0.930 . S
H288 C298 0.930 . S
C289 H283 0.930 . S
C289 C290 1.355 . S
C289 C291 1.415 . S
C290 C289 1.355 . S
C290 C292 1.419 . S
C291 C289 1.415 . S
C291 C296 1.425 . S
C291 C298 1.409 . S
C292 H284 0.930 . S
C292 C290 1.419 . S
C292 C293 1.362 . S
C293 H285 0.930 . S
C293 C292 1.362 . S
C293 C296 1.409 . S
C294 H286 0.930 . S
C294 C295 1.355 . S
C294 C296 1.415 . S
C295 C294 1.355 . S
C295 C297 1.419 . S
C296 C291 1.425 . S
C296 C293 1.409 . S
C296 C294 1.415 . S
C297 H287 0.930 . S
C297 C295 1.419 . S
C297 C298 1.362 . S
C298 H288 0.930 . S
C298 C291 1.409 . S
C298 C297 1.362 . S
H299 C305 0.930 . S
H300 C308 0.930 . S
H301 C309 0.930 . S
H302 C310 0.930 . S
H303 C313 0.930 . S
H304 C314 0.930 . S
C305 H299 0.930 . S
C305 C306 1.355 . S
C305 C307 1.415 . S
C306 C305 1.355 . S
C306 C308 1.419 . S
C307 C305 1.415 . S
C307 C312 1.425 . S
C307 C314 1.409 . S
C308 H300 0.930 . S
C308 C306 1.419 . S
C308 C309 1.362 . S
C309 H301 0.930 . S
C309 C308 1.362 . S
C309 C312 1.409 . S
C310 H302 0.930 . S
C310 C311 1.355 . S
C310 C312 1.415 . S
C311 C310 1.355 . S
C311 C313 1.419 . S
C312 C307 1.425 . S
C312 C309 1.409 . S
C312 C310 1.415 . S
C313 H303 0.930 . S
C313 C311 1.419 . S
C313 C314 1.362 . S
C314 H304 0.930 . S
C314 C307 1.409 . S
C314 C313 1.362 . S
H315 C321 0.930 . S
H316 C324 0.930 . S
H317 C325 0.930 . S
H318 C326 0.930 . S
H319 C329 0.930 . S
H320 C330 0.930 . S
C321 H315 0.930 . S
C321 C322 1.355 . S
C321 C323 1.415 . S
C322 C321 1.355 . S
C322 C324 1.419 . S
C323 C321 1.415 . S
C323 C328 1.425 . S
C323 C330 1.409 . S
C324 H316 0.930 . S
C324 C322 1.419 . S
C324 C325 1.362 . S
C325 H317 0.930 . S
C325 C324 1.362 . S
C325 C328 1.409 . S
C326 H318 0.930 . S
C326 C327 1.355 . S
C326 C328 1.415 . S
C327 C326 1.355 . S
C327 C329 1.419 . S
C328 C323 1.425 . S
C328 C325 1.409 . S
C328 C326 1.415 . S
C329 H319 0.930 . S
C329 C327 1.419 . S
C329 C330 1.362 . S
C330 H320 0.930 . S
C330 C323 1.409 . S
C330 C329 1.362 . S
H331 C337 0.930 . S
H332 C340 0.930 . S
H333 C341 0.930 . S
H334 C342 0.930 . S
H335 C345 0.930 . S
H336 C346 0.930 . S
C337 H331 0.930 . S
C337 C338 1.355 . S
C337 C339 1.415 . S
C338 C337 1.355 . S
C338 C340 1.419 . S
C339 C337 1.415 . S
C339 C344 1.425 . S
C339 C346 1.409 . S
C340 H332 0.930 . S
C340 C338 1.419 . S
C340 C341 1.362 . S
C341 H333 0.930 . S
C341 C340 1.362 . S
C341 C344 1.409 . S
C342 H334 0.930 . S
C342 C343 1.355 . S
C342 C344 1.415 . S
C343 C342 1.355 . S
C343 C345 1.419 . S
C344 C339 1.425 . S
C344 C341 1.409 . S
C344 C342 1.415 . S
C345 H335 0.930 . S
C345 C343 1.419 . S
C345 C346 1.362 . S
C346 H336 0.930 . S
C346 C339 1.409 . S
C346 C345 1.362 . S
H347 C353 0.930 . S
H348 C356 0.930 . S
H349 C357 0.930 . S
H350 C358 0.930 . S
H351 C361 0.930 . S
H352 C362 0.930 . S
C353 H347 0.930 . S
C353 C354 1.355 . S
C353 C355 1.415 . S
C354 C353 1.355 . S
C354 C356 1.419 . S
C355 C353 1.415 . S
C355 C360 1.425 . S
C355 C362 1.409 . S
C356 H348 0.930 . S
C356 C354 1.419 . S
C356 C357 1.362 . S
C357 H349 0.930 . S
C357 C356 1.362 . S
C357 C360 1.409 . S
C358 H350 0.930 . S
C358 C359 1.355 . S
C358 C360 1.415 . S
C359 C358 1.355 . S
C359 C361 1.419 . S
C360 C355 1.425 . S
C360 C357 1.409 . S
C360 C358 1.415 . S
C361 H351 0.930 . S
C361 C359 1.419 . S
C361 C362 1.362 . S
C362 H352 0.930 . S
C362 C355 1.409 . S
C362 C361 1.362 . S
H363 C369 0.930 . S
H364 C372 0.930 . S
H365 C373 0.930 . S
H366 C374 0.930 . S
H367 C377 0.930 . S
H368 C378 0.930 . S
C369 H363 0.930 . S
C369 C370 1.355 . S
C369 C371 1.415 1_554 S
C370 C369 1.355 . S
C370 C372 1.419 1_554 S
C371 C369 1.415 1_556 S
C371 C376 1.425 . S
C371 C378 1.409 1_556 S
C372 H364 0.930 . S
C372 C370 1.419 1_556 S
C372 C373 1.362 . S
C373 H365 0.930 . S
C373 C372 1.362 . S
C373 C376 1.409 . S
C374 H366 0.930 . S
C374 C375 1.355 . S
C374 C376 1.415 . S
C375 C374 1.355 . S
C375 C377 1.419 . S
C376 C371 1.425 . S
C376 C373 1.409 . S
C376 C374 1.415 . S
C377 H367 0.930 . S
C377 C375 1.419 . S
C377 C378 1.362 1_556 S
C378 H368 0.930 . S
C378 C371 1.409 1_554 S
C378 C377 1.362 1_554 S
H379 C385 0.930 . S
H380 C388 0.930 . S
H381 C389 0.930 . S
H382 C390 0.930 . S
H383 C393 0.930 . S
H384 C394 0.930 . S
C385 H379 0.930 . S
C385 C386 1.355 1_556 S
C385 C387 1.415 . S
C386 C385 1.355 1_554 S
C386 C388 1.419 . S
C387 C385 1.415 . S
C387 C392 1.425 1_556 S
C387 C394 1.409 . S
C388 H380 0.930 . S
C388 C386 1.419 . S
C388 C389 1.362 . S
C389 H381 0.930 . S
C389 C388 1.362 . S
C389 C392 1.409 . S
C390 H382 0.930 . S
C390 C391 1.355 . S
C390 C392 1.415 1_556 S
C391 C390 1.355 . S
C391 C393 1.419 . S
C392 C387 1.425 1_554 S
C392 C389 1.409 . S
C392 C390 1.415 1_554 S
C393 H383 0.930 . S
C393 C391 1.419 . S
C393 C394 1.362 . S
C394 H384 0.930 . S
C394 C387 1.409 . S
C394 C393 1.362 . S
H395 C401 0.930 . S
H396 C404 0.930 1_554 S
H397 C405 0.930 . S
H398 C406 0.930 . S
H399 C409 0.930 . S
H400 C410 0.930 . S
C401 H395 0.930 . S
C401 C402 1.355 . S
C401 C403 1.415 . S
C402 C401 1.355 . S
C402 C404 1.419 . S
C403 C401 1.415 . S
C403 C408 1.425 . S
C403 C410 1.409 . S
C404 H396 0.930 1_556 S
C404 C402 1.419 . S
C404 C405 1.362 . S
C405 H397 0.930 . S
C405 C404 1.362 . S
C405 C408 1.409 . S
C406 H398 0.930 . S
C406 C407 1.355 . S
C406 C408 1.415 . S
C407 C406 1.355 . S
C407 C409 1.419 . S
C408 C403 1.425 . S
C408 C405 1.409 . S
C408 C406 1.415 . S
C409 H399 0.930 . S
C409 C407 1.419 . S
C409 C410 1.362 . S
C410 H400 0.930 . S
C410 C403 1.409 . S
C410 C409 1.362 . S
H411 C417 0.930 . S
H412 C420 0.930 . S
H413 C421 0.930 . S
H414 C422 0.930 . S
H415 C425 0.930 . S
H416 C426 0.930 . S
C417 H411 0.930 . S
C417 C418 1.355 . S
C417 C419 1.415 . S
C418 C417 1.355 . S
C418 C420 1.419 . S
C419 C417 1.415 . S
C419 C424 1.425 . S
C419 C426 1.409 . S
C420 H412 0.930 . S
C420 C418 1.419 . S
C420 C421 1.362 . S
C421 H413 0.930 . S
C421 C420 1.362 . S
C421 C424 1.409 . S
C422 H414 0.930 . S
C422 C423 1.355 . S
C422 C424 1.415 . S
C423 C422 1.355 . S
C423 C425 1.419 . S
C424 C419 1.425 . S
C424 C421 1.409 . S
C424 C422 1.415 . S
C425 H415 0.930 . S
C425 C423 1.419 . S
C425 C426 1.362 . S
C426 H416 0.930 . S
C426 C419 1.409 . S
C426 C425 1.362 . S
H427 C433 0.930 . S
H428 C436 0.930 . S
H429 C437 0.930 . S
H430 C438 0.930 . S
H431 C441 0.930 . S
H432 C442 0.930 . S
C433 H427 0.930 . S
C433 C434 1.355 . S
C433 C435 1.415 . S
C434 C433 1.355 . S
C434 C436 1.419 1_556 S
C435 C433 1.415 . S
C435 C440 1.425 . S
C435 C442 1.409 . S
C436 H428 0.930 . S
C436 C434 1.419 1_554 S
C436 C437 1.362 . S
C437 H429 0.930 . S
C437 C436 1.362 . S
C437 C440 1.409 1_554 S
C438 H430 0.930 . S
C438 C439 1.355 . S
C438 C440 1.415 . S
C439 C438 1.355 . S
C439 C441 1.419 . S
C440 C435 1.425 . S
C440 C437 1.409 1_556 S
C440 C438 1.415 . S
C441 H431 0.930 . S
C441 C439 1.419 . S
C441 C442 1.362 . S
C442 H432 0.930 . S
C442 C435 1.409 . S
C442 C441 1.362 . S
H443 C449 0.930 . S
H444 C452 0.930 . S
H445 C453 0.930 . S
H446 C454 0.930 . S
H447 C457 0.930 . S
H448 C458 0.930 . S
C449 H443 0.930 . S
C449 C450 1.355 1_556 S
C449 C451 1.415 . S
C450 C449 1.355 1_554 S
C450 C452 1.419 . S
C451 C449 1.415 . S
C451 C456 1.425 . S
C451 C458 1.409 . S
C452 H444 0.930 . S
C452 C450 1.419 . S
C452 C453 1.362 . S
C453 H445 0.930 . S
C453 C452 1.362 . S
C453 C456 1.409 1_554 S
C454 H446 0.930 . S
C454 C455 1.355 . S
C454 C456 1.415 . S
C455 C454 1.355 . S
C455 C457 1.419 . S
C456 C451 1.425 . S
C456 C453 1.409 1_556 S
C456 C454 1.415 . S
C457 H447 0.930 . S
C457 C455 1.419 . S
C457 C458 1.362 . S
C458 H448 0.930 . S
C458 C451 1.409 . S
C458 C457 1.362 . S
H459 C465 0.930 . S
H460 C468 0.930 . S
H461 C469 0.930 . S
H462 C470 0.930 . S
H463 C473 0.930 . S
H464 C474 0.930 . S
C465 H459 0.930 . S
C465 C466 1.355 . S
C465 C467 1.415 1_554 S
C466 C465 1.355 . S
C466 C468 1.419 1_554 S
C467 C465 1.415 1_556 S
C467 C472 1.425 . S
C467 C474 1.409 1_556 S
C468 H460 0.930 . S
C468 C466 1.419 1_556 S
C468 C469 1.362 . S
C469 H461 0.930 . S
C469 C468 1.362 . S
C469 C472 1.409 . S
C470 H462 0.930 . S
C470 C471 1.355 . S
C470 C472 1.415 . S
C471 C470 1.355 . S
C471 C473 1.419 . S
C472 C467 1.425 . S
C472 C469 1.409 . S
C472 C470 1.415 . S
C473 H463 0.930 . S
C473 C471 1.419 . S
C473 C474 1.362 1_556 S
C474 H464 0.930 . S
C474 C467 1.409 1_554 S
C474 C473 1.362 1_554 S
H475 C481 0.930 1_554 S
H476 C484 0.930 . S
H477 C485 0.930 . S
H478 C486 0.930 . S
H479 C489 0.930 . S
H480 C490 0.930 . S
C481 H475 0.930 1_556 S
C481 C482 1.355 . S
C481 C483 1.415 . S
C482 C481 1.355 . S
C482 C484 1.419 . S
C483 C481 1.415 . S
C483 C488 1.425 . S
C483 C490 1.409 . S
C484 H476 0.930 . S
C484 C482 1.419 . S
C484 C485 1.362 . S
C485 H477 0.930 . S
C485 C484 1.362 . S
C485 C488 1.409 . S
C486 H478 0.930 . S
C486 C487 1.355 . S
C486 C488 1.415 . S
C487 C486 1.355 . S
C487 C489 1.419 . S
C488 C483 1.425 . S
C488 C485 1.409 . S
C488 C486 1.415 . S
C489 H479 0.930 . S
C489 C487 1.419 . S
C489 C490 1.362 . S
C490 H480 0.930 . S
C490 C483 1.409 . S
C490 C489 1.362 . S
H491 C497 0.930 . S
H492 C500 0.930 . S
H493 C501 0.930 . S
H494 C502 0.930 . S
H495 C505 0.930 . S
H496 C506 0.930 . S
C497 H491 0.930 . S
C497 C498 1.355 . S
C497 C499 1.415 . S
C498 C497 1.355 . S
C498 C500 1.419 . S
C499 C497 1.415 . S
C499 C504 1.425 . S
C499 C506 1.409 . S
C500 H492 0.930 . S
C500 C498 1.419 . S
C500 C501 1.362 . S
C501 H493 0.930 . S
C501 C500 1.362 . S
C501 C504 1.409 . S
C502 H494 0.930 . S
C502 C503 1.355 . S
C502 C504 1.415 . S
C503 C502 1.355 . S
C503 C505 1.419 . S
C504 C499 1.425 . S
C504 C501 1.409 . S
C504 C502 1.415 . S
C505 H495 0.930 . S
C505 C503 1.419 . S
C505 C506 1.362 . S
C506 H496 0.930 . S
C506 C499 1.409 . S
C506 C505 1.362 . S
H507 C513 0.930 . S
H508 C516 0.930 . S
H509 C517 0.930 . S
H510 C518 0.930 . S
H511 C521 0.930 . S
H512 C522 0.930 . S
C513 H507 0.930 . S
C513 C514 1.355 . S
C513 C515 1.415 . S
C514 C513 1.355 . S
C514 C516 1.419 . S
C515 C513 1.415 . S
C515 C520 1.425 . S
C515 C522 1.409 . S
C516 H508 0.930 . S
C516 C514 1.419 . S
C516 C517 1.362 . S
C517 H509 0.930 . S
C517 C516 1.362 . S
C517 C520 1.409 . S
C518 H510 0.930 . S
C518 C519 1.355 . S
C518 C520 1.415 . S
C519 C518 1.355 . S
C519 C521 1.419 . S
C520 C515 1.425 . S
C520 C517 1.409 . S
C520 C518 1.415 . S
C521 H511 0.930 . S
C521 C519 1.419 . S
C521 C522 1.362 . S
C522 H512 0.930 . S
C522 C515 1.409 . S
C522 C521 1.362 . S
H523 C529 0.930 . S
H524 C532 0.930 . S
H525 C533 0.930 . S
H526 C534 0.930 . S
H527 C537 0.930 . S
H528 C538 0.930 . S
C529 H523 0.930 . S
C529 C530 1.355 . S
C529 C531 1.415 . S
C530 C529 1.355 . S
C530 C532 1.419 . S
C531 C529 1.415 . S
C531 C536 1.425 . S
C531 C538 1.409 . S
C532 H524 0.930 . S
C532 C530 1.419 . S
C532 C533 1.362 . S
C533 H525 0.930 . S
C533 C532 1.362 . S
C533 C536 1.409 . S
C534 H526 0.930 . S
C534 C535 1.355 . S
C534 C536 1.415 . S
C535 C534 1.355 . S
C535 C537 1.419 . S
C536 C531 1.425 . S
C536 C533 1.409 . S
C536 C534 1.415 . S
C537 H527 0.930 . S
C537 C535 1.419 . S
C537 C538 1.362 . S
C538 H528 0.930 . S
C538 C531 1.409 . S
C538 C537 1.362 . S
H539 C545 0.930 . S
H540 C548 0.930 . S
H541 C549 0.930 . S
H542 C550 0.930 . S
H543 C553 0.930 . S
H544 C554 0.930 . S
C545 H539 0.930 . S
C545 C546 1.355 . S
C545 C547 1.415 . S
C546 C545 1.355 . S
C546 C548 1.419 . S
C547 C545 1.415 . S
C547 C552 1.425 . S
C547 C554 1.409 . S
C548 H540 0.930 . S
C548 C546 1.419 . S
C548 C549 1.362 . S
C549 H541 0.930 . S
C549 C548 1.362 . S
C549 C552 1.409 . S
C550 H542 0.930 . S
C550 C551 1.355 . S
C550 C552 1.415 . S
C551 C550 1.355 . S
C551 C553 1.419 . S
C552 C547 1.425 . S
C552 C549 1.409 . S
C552 C550 1.415 . S
C553 H543 0.930 . S
C553 C551 1.419 . S
C553 C554 1.362 . S
C554 H544 0.930 . S
C554 C547 1.409 . S
C554 C553 1.362 . S
H555 C561 0.930 . S
H556 C564 0.930 . S
H557 C565 0.930 . S
H558 C566 0.930 . S
H559 C569 0.930 . S
H560 C570 0.930 . S
C561 H555 0.930 . S
C561 C562 1.355 . S
C561 C563 1.415 . S
C562 C561 1.355 . S
C562 C564 1.419 . S
C563 C561 1.415 . S
C563 C568 1.425 . S
C563 C570 1.409 . S
C564 H556 0.930 . S
C564 C562 1.419 . S
C564 C565 1.362 . S
C565 H557 0.930 . S
C565 C564 1.362 . S
C565 C568 1.409 . S
C566 H558 0.930 . S
C566 C567 1.355 . S
C566 C568 1.415 . S
C567 C566 1.355 . S
C567 C569 1.419 . S
C568 C563 1.425 . S
C568 C565 1.409 . S
C568 C566 1.415 . S
C569 H559 0.930 . S
C569 C567 1.419 . S
C569 C570 1.362 . S
C570 H560 0.930 . S
C570 C563 1.409 . S
C570 C569 1.362 . S
H571 C577 0.930 . S
H572 C580 0.930 . S
H573 C581 0.930 . S
H574 C582 0.930 . S
H575 C585 0.930 . S
H576 C586 0.930 . S
C577 H571 0.930 . S
C577 C578 1.355 . S
C577 C579 1.415 . S
C578 C577 1.355 . S
C578 C580 1.419 . S
C579 C577 1.415 . S
C579 C584 1.425 . S
C579 C586 1.409 . S
C580 H572 0.930 . S
C580 C578 1.419 . S
C580 C581 1.362 . S
C581 H573 0.930 . S
C581 C580 1.362 . S
C581 C584 1.409 . S
C582 H574 0.930 . S
C582 C583 1.355 . S
C582 C584 1.415 . S
C583 C582 1.355 . S
C583 C585 1.419 . S
C584 C579 1.425 . S
C584 C581 1.409 . S
C584 C582 1.415 . S
C585 H575 0.930 . S
C585 C583 1.419 . S
C585 C586 1.362 . S
C586 H576 0.930 . S
C586 C579 1.409 . S
C586 C585 1.362 . S
H587 C593 0.930 . S
H588 C596 0.930 . S
H589 C597 0.930 . S
H590 C598 0.930 . S
H591 C601 0.930 . S
H592 C602 0.930 . S
C593 H587 0.930 . S
C593 C594 1.355 . S
C593 C595 1.415 . S
C594 C593 1.355 . S
C594 C596 1.419 . S
C595 C593 1.415 . S
C595 C600 1.425 . S
C595 C602 1.409 . S
C596 H588 0.930 . S
C596 C594 1.419 . S
C596 C597 1.362 . S
C597 H589 0.930 . S
C597 C596 1.362 . S
C597 C600 1.409 . S
C598 H590 0.930 . S
C598 C599 1.355 . S
C598 C600 1.415 . S
C599 C598 1.355 . S
C599 C601 1.419 . S
C600 C595 1.425 . S
C600 C597 1.409 . S
C600 C598 1.415 . S
C601 H591 0.930 . S
C601 C599 1.419 . S
C601 C602 1.362 . S
C602 H592 0.930 . S
C602 C595 1.409 . S
C602 C601 1.362 . S
C226 C12 1.635 . S
C231 C126 1.727 . S
C242 C40 1.467 . S
C247 C158 1.497 . S
C263 C217 1.822 . S
C258 C61 1.844 . S
C279 C146 1.435 . S
C274 C82 1.409 . S
C290 C96 1.603 . S
C295 C176 1.640 . S
C311 C198 1.358 . S
C306 C117 1.132 . S
C327 C167 1.770 . S
C322 C51 1.709 . S
C338 C72 1.376 . S
C343 C207 1.311 . S
C359 C156 1.629 . S
C354 C101 1.504 1_556 S
C370 C122 1.469 . S
C375 C186 1.494 . S
C386 C17 1.697 . S
C391 C189 1.801 . S
C407 C128 1.575 . S
C402 C30 1.551 1_556 S
C423 C136 1.689 . S
C418 C80 1.702 . S
C439 C177 1.486 . S
C434 C93 1.370 1_556 S
C455 C190 1.831 . S
C450 C114 1.777 . S
C471 C127 1.382 . S
C466 C9 1.405 . S
C487 C187 1.623 . S
C482 C38 1.613 1_556 S
C498 C59 1.246 . S
C503 C188 1.346 . S
C519 C157 1.639 . S
C514 C124 1.650 . S
C535 C218 1.319 . S
C530 C19 1.281 . S
C551 C145 1.544 . S
C546 C33 1.642 . S
C567 C159 1.474 . S
C562 C54 1.513 . S
C578 C75 1.721 . S
C583 C208 1.778 . S
C594 C103 1.548 . S
C599 C155 1.577 . S
