# Generated by pormake.
# Topology ptr, (4,4)-cn, num edge types: 1
# Building blocks:
#     Node 0, Type 0, BuildingBlock: QUQFOY_clean_sbu_3, # of connection points: 4
#     Node 1, Type 0, BuildingBlock: QUQFOY_clean_sbu_3, # of connection points: 4
#     Node 2, Type 0, BuildingBlock: QUQFOY_clean_sbu_3, # of connection points: 4
#     Node 3, Type 0, BuildingBlock: QUQFOY_clean_sbu_3, # of connection points: 4
#     Node 4, Type 0, BuildingBlock: QUQFOY_clean_sbu_3, # of connection points: 4
#     Node 5, Type 0, BuildingBlock: QUQFOY_clean_sbu_3, # of connection points: 4
#     Node 6, Type 0, BuildingBlock: QUQFOY_clean_sbu_3, # of connection points: 4
#     Node 7, Type 0, BuildingBlock: QUQFOY_clean_sbu_3, # of connection points: 4
#     Node 8, Type 0, BuildingBlock: QUQFOY_clean_sbu_3, # of connection points: 4
#     Node 9, Type 0, BuildingBlock: QUQFOY_clean_sbu_3, # of connection points: 4
#     Node 10, Type 0, BuildingBlock: QUQFOY_clean_sbu_3, # of connection points: 4
#     Node 11, Type 0, BuildingBlock: QUQFOY_clean_sbu_3, # of connection points: 4
#     Node 12, Type 0, BuildingBlock: QUQFOY_clean_sbu_3, # of connection points: 4
#     Node 13, Type 0, BuildingBlock: QUQFOY_clean_sbu_3, # of connection points: 4
#     Node 14, Type 0, BuildingBlock: QUQFOY_clean_sbu_3, # of connection points: 4
#     Node 15, Type 0, BuildingBlock: QUQFOY_clean_sbu_3, # of connection points: 4
#     Node 16, Type 0, BuildingBlock: QUQFOY_clean_sbu_3, # of connection points: 4
#     Node 17, Type 0, BuildingBlock: QUQFOY_clean_sbu_3, # of connection points: 4
#     Node 18, Type 1, BuildingBlock: NAWXER_clean_linker_0, # of connection points: 4
#     Node 19, Type 1, BuildingBlock: NAWXER_clean_linker_0, # of connection points: 4
#     Node 20, Type 1, BuildingBlock: NAWXER_clean_linker_0, # of connection points: 4
#     Node 21, Type 1, BuildingBlock: NAWXER_clean_linker_0, # of connection points: 4
#     Node 22, Type 1, BuildingBlock: NAWXER_clean_linker_0, # of connection points: 4
#     Node 23, Type 1, BuildingBlock: NAWXER_clean_linker_0, # of connection points: 4
#     Node 24, Type 1, BuildingBlock: NAWXER_clean_linker_0, # of connection points: 4
#     Node 25, Type 1, BuildingBlock: NAWXER_clean_linker_0, # of connection points: 4
#     Node 26, Type 1, BuildingBlock: NAWXER_clean_linker_0, # of connection points: 4
#     Node 27, Type 1, BuildingBlock: NAWXER_clean_linker_0, # of connection points: 4
#     Node 28, Type 1, BuildingBlock: NAWXER_clean_linker_0, # of connection points: 4
#     Node 29, Type 1, BuildingBlock: NAWXER_clean_linker_0, # of connection points: 4
#     Node 30, Type 1, BuildingBlock: NAWXER_clean_linker_0, # of connection points: 4
#     Node 31, Type 1, BuildingBlock: NAWXER_clean_linker_0, # of connection points: 4
#     Node 32, Type 1, BuildingBlock: NAWXER_clean_linker_0, # of connection points: 4
#     Node 33, Type 1, BuildingBlock: NAWXER_clean_linker_0, # of connection points: 4
#     Node 34, Type 1, BuildingBlock: NAWXER_clean_linker_0, # of connection points: 4
#     Node 35, Type 1, BuildingBlock: NAWXER_clean_linker_0, # of connection points: 4
#     Edge 36, Type (0, 1), BuildingBlock: MIFKUJ_clean_linker_0, # of connection points: 2
#     Edge 37, Type (0, 1), BuildingBlock: MIFKUJ_clean_linker_0, # of connection points: 2
#     Edge 38, Type (0, 1), BuildingBlock: MIFKUJ_clean_linker_0, # of connection points: 2
#     Edge 39, Type (0, 1), BuildingBlock: MIFKUJ_clean_linker_0, # of connection points: 2
#     Edge 40, Type (0, 1), BuildingBlock: MIFKUJ_clean_linker_0, # of connection points: 2
#     Edge 41, Type (0, 1), BuildingBlock: MIFKUJ_clean_linker_0, # of connection points: 2
#     Edge 42, Type (0, 1), BuildingBlock: MIFKUJ_clean_linker_0, # of connection points: 2
#     Edge 43, Type (0, 1), BuildingBlock: MIFKUJ_clean_linker_0, # of connection points: 2
#     Edge 44, Type (0, 1), BuildingBlock: MIFKUJ_clean_linker_0, # of connection points: 2
#     Edge 45, Type (0, 1), BuildingBlock: MIFKUJ_clean_linker_0, # of connection points: 2
#     Edge 46, Type (0, 1), BuildingBlock: MIFKUJ_clean_linker_0, # of connection points: 2
#     Edge 47, Type (0, 1), BuildingBlock: MIFKUJ_clean_linker_0, # of connection points: 2
#     Edge 48, Type (0, 1), BuildingBlock: MIFKUJ_clean_linker_0, # of connection points: 2
#     Edge 49, Type (0, 1), BuildingBlock: MIFKUJ_clean_linker_0, # of connection points: 2
#     Edge 50, Type (0, 1), BuildingBlock: MIFKUJ_clean_linker_0, # of connection points: 2
#     Edge 51, Type (0, 1), BuildingBlock: MIFKUJ_clean_linker_0, # of connection points: 2
#     Edge 52, Type (0, 1), BuildingBlock: MIFKUJ_clean_linker_0, # of connection points: 2
#     Edge 53, Type (0, 1), BuildingBlock: MIFKUJ_clean_linker_0, # of connection points: 2
#     Edge 54, Type (0, 1), BuildingBlock: MIFKUJ_clean_linker_0, # of connection points: 2
#     Edge 55, Type (0, 1), BuildingBlock: MIFKUJ_clean_linker_0, # of connection points: 2
#     Edge 56, Type (0, 1), BuildingBlock: MIFKUJ_clean_linker_0, # of connection points: 2
#     Edge 57, Type (0, 1), BuildingBlock: MIFKUJ_clean_linker_0, # of connection points: 2
#     Edge 58, Type (0, 1), BuildingBlock: MIFKUJ_clean_linker_0, # of connection points: 2
#     Edge 59, Type (0, 1), BuildingBlock: MIFKUJ_clean_linker_0, # of connection points: 2
#     Edge 60, Type (0, 1), BuildingBlock: MIFKUJ_clean_linker_0, # of connection points: 2
#     Edge 61, Type (0, 1), BuildingBlock: MIFKUJ_clean_linker_0, # of connection points: 2
#     Edge 62, Type (0, 1), BuildingBlock: MIFKUJ_clean_linker_0, # of connection points: 2
#     Edge 63, Type (0, 1), BuildingBlock: MIFKUJ_clean_linker_0, # of connection points: 2
#     Edge 64, Type (0, 1), BuildingBlock: MIFKUJ_clean_linker_0, # of connection points: 2
#     Edge 65, Type (0, 1), BuildingBlock: MIFKUJ_clean_linker_0, # of connection points: 2
#     Edge 66, Type (0, 1), BuildingBlock: MIFKUJ_clean_linker_0, # of connection points: 2
#     Edge 67, Type (0, 1), BuildingBlock: MIFKUJ_clean_linker_0, # of connection points: 2
#     Edge 68, Type (0, 1), BuildingBlock: MIFKUJ_clean_linker_0, # of connection points: 2
#     Edge 69, Type (0, 1), BuildingBlock: MIFKUJ_clean_linker_0, # of connection points: 2
#     Edge 70, Type (0, 1), BuildingBlock: MIFKUJ_clean_linker_0, # of connection points: 2
#     Edge 71, Type (0, 1), BuildingBlock: MIFKUJ_clean_linker_0, # of connection points: 2
#     Edge 72, Type (0, 1), BuildingBlock: MIFKUJ_clean_linker_0, # of connection points: 2
#     Edge 73, Type (0, 1), BuildingBlock: MIFKUJ_clean_linker_0, # of connection points: 2
#     Edge 74, Type (0, 1), BuildingBlock: MIFKUJ_clean_linker_0, # of connection points: 2
#     Edge 75, Type (0, 1), BuildingBlock: MIFKUJ_clean_linker_0, # of connection points: 2
#     Edge 76, Type (0, 1), BuildingBlock: MIFKUJ_clean_linker_0, # of connection points: 2
#     Edge 77, Type (0, 1), BuildingBlock: MIFKUJ_clean_linker_0, # of connection points: 2
#     Edge 78, Type (0, 1), BuildingBlock: MIFKUJ_clean_linker_0, # of connection points: 2
#     Edge 79, Type (0, 1), BuildingBlock: MIFKUJ_clean_linker_0, # of connection points: 2
#     Edge 80, Type (0, 1), BuildingBlock: MIFKUJ_clean_linker_0, # of connection points: 2
#     Edge 81, Type (0, 1), BuildingBlock: MIFKUJ_clean_linker_0, # of connection points: 2
#     Edge 82, Type (0, 1), BuildingBlock: MIFKUJ_clean_linker_0, # of connection points: 2
#     Edge 83, Type (0, 1), BuildingBlock: MIFKUJ_clean_linker_0, # of connection points: 2
#     Edge 84, Type (0, 1), BuildingBlock: MIFKUJ_clean_linker_0, # of connection points: 2
#     Edge 85, Type (0, 1), BuildingBlock: MIFKUJ_clean_linker_0, # of connection points: 2
#     Edge 86, Type (0, 1), BuildingBlock: MIFKUJ_clean_linker_0, # of connection points: 2
#     Edge 87, Type (0, 1), BuildingBlock: MIFKUJ_clean_linker_0, # of connection points: 2
#     Edge 88, Type (0, 1), BuildingBlock: MIFKUJ_clean_linker_0, # of connection points: 2
#     Edge 89, Type (0, 1), BuildingBlock: MIFKUJ_clean_linker_0, # of connection points: 2
#     Edge 90, Type (0, 1), BuildingBlock: MIFKUJ_clean_linker_0, # of connection points: 2
#     Edge 91, Type (0, 1), BuildingBlock: MIFKUJ_clean_linker_0, # of connection points: 2
#     Edge 92, Type (0, 1), BuildingBlock: MIFKUJ_clean_linker_0, # of connection points: 2
#     Edge 93, Type (0, 1), BuildingBlock: MIFKUJ_clean_linker_0, # of connection points: 2
#     Edge 94, Type (0, 1), BuildingBlock: MIFKUJ_clean_linker_0, # of connection points: 2
#     Edge 95, Type (0, 1), BuildingBlock: MIFKUJ_clean_linker_0, # of connection points: 2
#     Edge 96, Type (0, 1), BuildingBlock: MIFKUJ_clean_linker_0, # of connection points: 2
#     Edge 97, Type (0, 1), BuildingBlock: MIFKUJ_clean_linker_0, # of connection points: 2
#     Edge 98, Type (0, 1), BuildingBlock: MIFKUJ_clean_linker_0, # of connection points: 2
#     Edge 99, Type (0, 1), BuildingBlock: MIFKUJ_clean_linker_0, # of connection points: 2
#     Edge 100, Type (0, 1), BuildingBlock: MIFKUJ_clean_linker_0, # of connection points: 2
#     Edge 101, Type (0, 1), BuildingBlock: MIFKUJ_clean_linker_0, # of connection points: 2
#     Edge 102, Type (0, 1), BuildingBlock: MIFKUJ_clean_linker_0, # of connection points: 2
#     Edge 103, Type (0, 1), BuildingBlock: MIFKUJ_clean_linker_0, # of connection points: 2
#     Edge 104, Type (0, 1), BuildingBlock: MIFKUJ_clean_linker_0, # of connection points: 2
#     Edge 105, Type (0, 1), BuildingBlock: MIFKUJ_clean_linker_0, # of connection points: 2
#     Edge 106, Type (0, 1), BuildingBlock: MIFKUJ_clean_linker_0, # of connection points: 2
#     Edge 107, Type (0, 1), BuildingBlock: MIFKUJ_clean_linker_0, # of connection points: 2
# Relax obj value: 0.029
# Max RMSD: 0.134
# Mean RMSD: 0.051
data_MOF--net-ptr--node1-QUQFOY_clean_sbu_3--node2-NAWXER_clean_linker_0--edge1-MIFKUJ_clean_linker_0
_symmetry_space_group_name_H-M    P1
_symmetry_Int_Tables_number       1
_symmetry_cell_setting            triclinic
loop_
_symmetry_equiv_pos_as_xyz
'x, y, z'
_cell_length_a     109.41985
_cell_length_b     109.99933
_cell_length_c     81.067073
_cell_angle_alpha  90.371874
_cell_angle_beta   89.489628
_cell_angle_gamma 120.57356
loop_
_atom_site_label
_atom_site_type_symbol
_atom_site_fract_x
_atom_site_fract_y
_atom_site_fract_z
_atom_type_partial_charge
C0 C 0.97334 0.31691 0.99569 0.0
O1 O 0.96625 0.32255 0.00033 0.0
Cd2 Cd 0.97724 0.34608 0.01108 0.0
O3 O 0.98673 0.32335 0.99773 0.0
Cd4 Cd 0.0057 0.34569 0.01018 0.0
C5 C 0.00157 0.36416 0.97996 0.0
O6 O 0.99291 0.34903 0.03314 0.0
O7 O 0.01291 0.36719 0.02584 0.0
O8 O 0.01276 0.33217 0.02674 0.0
C9 C 0.00261 0.36168 0.03598 0.0
O10 O 0.99019 0.36106 0.98774 0.0
C11 C 0.02548 0.33794 0.02159 0.0
O12 O 0.00952 0.35954 0.98482 0.0
O13 O 0.02917 0.34732 0.01048 0.0
C14 C 0.64128 0.67748 0.02501 0.0
O15 O 0.62803 0.67051 0.02227 0.0
Cd16 Cd 0.61654 0.64886 0.00676 0.0
O17 O 0.64936 0.67326 0.01923 0.0
Cd18 Cd 0.64745 0.65359 0.00215 0.0
C19 C 0.62608 0.62912 0.03017 0.0
O20 O 0.63018 0.6524 0.98217 0.0
O21 O 0.63447 0.63533 0.98135 0.0
O22 O 0.66974 0.67114 0.98936 0.0
C23 C 0.62827 0.64127 0.97508 0.0
O24 O 0.61628 0.6309 0.0245 0.0
C25 C 0.67585 0.66401 0.99074 0.0
O26 O 0.63887 0.63677 0.02521 0.0
O27 O 0.66883 0.65207 0.99777 0.0
C28 C 0.31354 0.96619 0.02061 0.0
O29 O 0.31885 0.95892 0.01551 0.0
Cd30 Cd 0.34286 0.97043 0.00567 0.0
O31 O 0.32053 0.97957 0.01931 0.0
Cd32 Cd 0.34307 -0.00138 0.00762 0.0
C33 C 0.36057 0.99346 0.03779 0.0
O34 O 0.34566 0.98627 0.98373 0.0
O35 O 0.36429 0.00574 0.99119 0.0
O36 O 0.32771 0.00592 0.99555 0.0
C37 C 0.35836 0.99586 0.9807 0.0
O38 O 0.35767 0.98236 0.02967 0.0
C39 C 0.33548 0.01895 -0.00121 0.0
O40 O 0.35602 0.00146 0.03308 0.0
O41 O 0.3469 0.02269 0.00659 0.0
C42 C 0.96612 0.65044 -7e-05 0.0
O43 O 0.95943 0.63823 0.00633 0.0
Cd44 Cd 0.97167 0.62707 0.01706 0.0
O45 O 0.97959 0.65787 0.00079 0.0
Cd46 Cd 1e-05 0.65782 0.01354 0.0
C47 C 0.99577 0.63369 0.98503 0.0
O48 O 0.98823 0.64235 0.03704 0.0
O49 O 0.00939 0.64671 0.03109 0.0
O50 O 0.00531 0.67936 0.02738 0.0
C51 C -0.0014 0.64071 0.0405 0.0
O52 O 0.98472 0.62542 0.99342 0.0
C53 C 0.01789 0.68685 0.02193 0.0
O54 O 0.00354 0.64665 0.98907 0.0
O55 O 0.02234 0.6809 0.01202 0.0
C56 C 0.3235 0.35665 0.02495 0.0
O57 O 0.32979 0.36995 0.02317 0.0
Cd58 Cd 0.35305 0.38343 0.01167 0.0
O59 O 0.32915 0.3497 0.0196 0.0
Cd60 Cd 0.3506 0.35377 0.00414 0.0
C61 C 0.37105 0.37243 0.03641 0.0
O62 O 0.35264 0.37227 0.98602 0.0
O63 O 0.37031 0.3687 0.98561 0.0
O64 O 0.33567 0.33357 0.98675 0.0
C65 C 0.36443 0.37509 0.97968 0.0
O66 O 0.36807 0.38184 0.03261 0.0
C67 C 0.3417 0.32666 0.99022 0.0
O68 O 0.36609 0.36098 0.02823 0.0
O69 O 0.35192 0.33232 0.00036 0.0
C70 C 0.68362 0.02672 0.99809 0.0
O71 O 0.67892 0.03425 0.00411 0.0
Cd72 Cd 0.6558 0.02448 0.01636 0.0
O73 O 0.6767 0.01335 -0.00012 0.0
Cd74 Cd 0.65514 0.99487 0.01461 0.0
C75 C 0.63529 -0.00044 0.98661 0.0
O76 O 0.65411 0.00895 0.03768 0.0
O77 O 0.63571 0.98826 0.03405 0.0
O78 O 0.67097 0.9877 0.026 0.0
C79 C 0.64183 -0.00049 0.04251 0.0
O80 O 0.63937 0.01118 0.99419 0.0
C81 C 0.66296 0.97459 0.02331 0.0
O82 O 0.6397 0.99131 0.99089 0.0
O83 O 0.65133 0.97079 0.01596 0.0
C84 C 0.63471 0.65224 0.32493 0.0
O85 O 0.6276 0.65812 0.32847 0.0
Cd86 Cd 0.63764 0.6806 0.34191 0.0
O87 O 0.64761 0.65781 0.32941 0.0
Cd88 Cd 0.66544 0.67842 0.34573 0.0
C89 C 0.66654 0.70073 0.31646 0.0
O90 O 0.64934 0.67955 0.36616 0.0
O91 O 0.67078 0.69726 0.36549 0.0
O92 O 0.67046 0.66164 0.35898 0.0
C93 C 0.65865 0.69123 0.37234 0.0
O94 O 0.65434 0.69759 0.32198 0.0
C95 C 0.68386 0.66905 0.3575 0.0
O96 O 0.67307 0.69488 0.32232 0.0
O97 O 0.68881 0.68082 0.35015 0.0
C98 C 0.31391 0.01475 0.36256 0.0
O99 O 0.30074 0.00927 0.35981 0.0
Cd100 Cd 0.28667 0.98635 0.34797 0.0
O101 O 0.3204 0.00839 0.35805 0.0
Cd102 Cd 0.31474 0.98637 0.34286 0.0
C103 C 0.29421 0.9667 0.37445 0.0
O104 O 0.29776 0.98554 0.32265 0.0
O105 O 0.2981 0.96629 0.32603 0.0
O106 O 0.33667 0.00041 0.32728 0.0
C107 C 0.29369 0.97307 0.31786 0.0
O108 O 0.28524 0.9698 0.36901 0.0
C109 C 0.34128 0.99201 0.32915 0.0
O110 O 0.30643 0.97189 0.36777 0.0
O111 O 0.3337 0.98107 0.33781 0.0
C112 C 0.99063 0.30354 0.3571 0.0
O113 O 0.997 0.29677 0.35438 0.0
Cd114 Cd 0.01926 0.30634 0.34013 0.0
O115 O 0.99602 0.31628 0.35231 0.0
Cd116 Cd 0.01741 0.3342 0.3374 0.0
C117 C 0.04 0.33425 0.36565 0.0
O118 O 0.01665 0.31775 0.31661 0.0
O119 O 0.03501 0.33869 0.31569 0.0
O120 O 0.0016 0.34146 0.32613 0.0
C121 C 0.02795 0.32654 0.30922 0.0
O122 O 0.03745 0.3226 0.35923 0.0
C123 C 0.01013 0.35461 0.32793 0.0
O124 O 0.03339 0.34034 0.36092 0.0
O125 O 0.02199 0.35829 0.33457 0.0
C126 C 0.63454 0.97396 0.32478 0.0
O127 O 0.62852 0.96074 0.32717 0.0
Cd128 Cd 0.64001 0.94957 0.33941 0.0
O129 O 0.64716 0.98221 0.32979 0.0
Cd130 Cd 0.66618 0.981 0.34506 0.0
C131 C 0.66925 0.96216 0.31374 0.0
O132 O 0.65086 0.96233 0.36422 0.0
O133 O 0.6729 0.96811 0.36392 0.0
O134 O 0.67057 0.00103 0.36225 0.0
C135 C 0.66065 0.96085 0.37034 0.0
O136 O 0.65713 0.95211 0.31825 0.0
C137 C 0.68331 0.00906 0.35756 0.0
O138 O 0.67518 0.97402 0.32117 0.0
O139 O 0.68817 0.00411 0.34685 0.0
C140 C 0.98417 0.68038 0.36236 0.0
O141 O 0.98872 0.69341 0.36019 0.0
Cd142 Cd 0.01215 0.70929 0.3505 0.0
O143 O 0.99165 0.67502 0.35807 0.0
Cd144 Cd 0.01452 0.68272 0.34351 0.0
C145 C 0.03244 0.70209 0.37648 0.0
O146 O 0.01462 0.69997 0.32467 0.0
O147 O 0.03463 0.70077 0.32749 0.0
O148 O 0.00323 0.66298 0.32447 0.0
C149 C 0.02733 0.70491 0.31986 0.0
O150 O 0.02816 0.71042 0.37222 0.0
C151 C 0.01053 0.65746 0.3284 0.0
O152 O 0.02881 0.69082 0.36838 0.0
O153 O 0.01969 0.66359 0.33966 0.0
C154 C 0.34933 0.36652 0.32867 0.0
O155 O 0.34305 0.37326 0.33216 0.0
Cd156 Cd 0.32036 0.36307 0.34554 0.0
O157 O 0.34389 0.35363 0.3329 0.0
Cd158 Cd 0.32259 0.33525 0.34814 0.0
C159 C 0.30036 0.33517 0.31914 0.0
O160 O 0.32077 0.35041 0.36912 0.0
O161 O 0.30297 0.32912 0.36737 0.0
O162 O 0.33749 0.32925 0.36404 0.0
C163 C 0.30886 0.34092 0.37477 0.0
O164 O 0.30351 0.34712 0.32521 0.0
C165 C 0.33148 0.31641 0.35964 0.0
O166 O 0.30616 0.32845 0.32456 0.0
O167 O 0.32137 0.3122 0.34942 0.0
C168 C 0.30225 0.9894 0.66246 0.0
O169 O 0.29527 0.99543 0.66598 0.0
Cd170 Cd 0.3052 0.01825 0.67836 0.0
O171 O 0.31535 0.99518 0.66622 0.0
Cd172 Cd 0.3337 0.01679 0.68094 0.0
C173 C 0.33278 0.03775 0.65106 0.0
O174 O 0.3179 0.0177 0.70182 0.0
O175 O 0.33903 0.03583 0.70065 0.0
O176 O 0.34066 0.00141 0.6942 0.0
C177 C 0.32703 0.02954 0.70779 0.0
O178 O 0.32077 0.03464 0.65718 0.0
C179 C 0.3539 0.00936 0.69173 0.0
O180 O 0.33974 0.03234 0.65683 0.0
O181 O 0.35779 0.02069 0.68378 0.0
C182 C 0.97303 0.33931 0.68708 0.0
O183 O 0.9601 0.33169 0.68297 0.0
Cd184 Cd 0.95078 0.31081 0.66619 0.0
O185 O 0.9822 0.33614 0.68233 0.0
Cd186 Cd 0.983 0.31755 0.66559 0.0
C187 C 0.95966 0.29121 0.6908 0.0
O188 O 0.96717 0.31669 0.64395 0.0
O189 O 0.97305 0.30077 0.64252 0.0
O190 O 0.00618 0.33645 0.65619 0.0
C191 C 0.96661 0.30642 0.63614 0.0
O192 O 0.95006 0.29253 0.68371 0.0
C193 C 0.01244 0.32947 0.65767 0.0
O194 O 0.97277 0.29968 0.68768 0.0
O195 O 0.00511 0.31702 0.66336 0.0
C196 C 0.66149 0.63976 0.69799 0.0
O197 O 0.66764 0.63282 0.69507 0.0
Cd198 Cd 0.68929 0.64227 0.67968 0.0
O199 O 0.66652 0.65217 0.69221 0.0
Cd200 Cd 0.68659 0.66897 0.67451 0.0
C201 C 0.71049 0.67206 0.70259 0.0
O202 O 0.68607 0.65185 0.65469 0.0
O203 O 0.70445 0.67282 0.65364 0.0
O204 O 0.66926 0.67373 0.6623 0.0
C205 C 0.69742 0.66061 0.64731 0.0
O206 O 0.70758 0.65986 0.69768 0.0
C207 C 0.67711 0.68707 0.66248 0.0
O208 O 0.70386 0.67782 0.69687 0.0
O209 O 0.6894 0.6921 0.66864 0.0
C210 C 0.29709 0.31217 0.66312 0.0
O211 O 0.29017 0.29902 0.66615 0.0
Cd212 Cd 0.30068 0.28669 0.67819 0.0
O213 O 0.31007 0.31966 0.66725 0.0
Cd214 Cd 0.32862 0.31733 0.68171 0.0
C215 C 0.32886 0.29631 0.65126 0.0
O216 O 0.31336 0.29974 0.702 0.0
O217 O 0.33489 0.30399 0.70029 0.0
O218 O 0.334 0.33813 0.69769 0.0
C219 C 0.32288 0.29751 0.70742 0.0
O220 O 0.31686 0.287 0.6571 0.0
C221 C 0.3469 0.34543 0.69327 0.0
O222 O 0.33551 0.30871 0.65738 0.0
O223 O 0.35146 0.33969 0.68323 0.0
C224 C 0.65647 0.02117 0.6872 0.0
O225 O 0.66217 0.03361 0.6815 0.0
Cd226 Cd 0.68463 0.04476 0.66769 0.0
O227 O 0.66198 0.01355 0.68453 0.0
Cd228 Cd 0.68185 0.01453 0.66847 0.0
C229 C 0.70506 0.0386 0.69512 0.0
O230 O 0.68248 0.02918 0.64586 0.0
O231 O 0.70092 0.02703 0.64818 0.0
O232 O 0.66536 0.99235 0.65548 0.0
C233 C 0.69426 0.03157 0.63996 0.0
O234 O 0.702 0.04709 0.68825 0.0
C235 C 0.67157 0.98579 0.65974 0.0
O236 O 0.69886 0.02565 0.69086 0.0
O237 O 0.68261 0.99253 0.66856 0.0
C238 C 0.00815 0.69595 0.6615 0.0
O239 O 0.00256 0.70332 0.66508 0.0
Cd240 Cd 0.97974 0.69441 0.67775 0.0
O241 O 0.00198 0.6829 0.66535 0.0
Cd242 Cd 0.98017 0.66538 0.68086 0.0
C243 C 0.95858 0.66662 0.65175 0.0
O244 O 0.98049 0.68206 0.70128 0.0
O245 O 0.96222 0.66106 0.7021 0.0
O246 O 0.99523 0.65753 0.69337 0.0
C247 C 0.96889 0.67336 0.70822 0.0
O248 O 0.96218 0.67874 0.65765 0.0
C249 C 0.98652 0.64442 0.69148 0.0
O250 O 0.96402 0.6596 0.65728 0.0
O251 O 0.97501 0.64103 0.68411 0.0
C252 C 0.19785 0.30893 0.13628 0.0
C253 C 0.19684 0.30061 0.12255 0.0
C254 C 0.18579 0.30588 0.14545 0.0
C255 C 0.17252 0.29431 0.14123 0.0
C256 C 0.18358 0.2889 0.11848 0.0
C257 C 0.17148 0.28585 0.12768 0.0
C258 C 0.15959 0.29196 0.14988 0.0
C259 C 0.18632 0.28523 0.18643 0.0
C260 C 0.19083 0.29483 0.1997 0.0
C261 C 0.17552 0.28376 0.17596 0.0
C262 C 0.16912 0.29194 0.17853 0.0
C263 C 0.18401 0.30256 0.20256 0.0
C264 C 0.17328 0.30111 0.19214 0.0
C265 C 0.15818 0.29128 0.16725 0.0
C266 C 0.1005 0.2857 0.17767 0.0
C267 C 0.10422 0.29539 0.19075 0.0
C268 C 0.11094 0.28422 0.16937 0.0
C269 C 0.12525 0.29247 0.17399 0.0
C270 C 0.11847 0.30324 0.19566 0.0
C271 C 0.12885 0.30176 0.1874 0.0
C272 C 0.13668 0.29176 0.165 0.0
C273 C 0.11837 0.30951 0.12986 0.0
C274 C 0.11319 0.30199 0.11504 0.0
C275 C 0.12651 0.30653 0.14042 0.0
C276 C 0.12924 0.29563 0.13668 0.0
C277 C 0.11631 0.29142 0.11097 0.0
C278 C 0.12426 0.28826 0.12172 0.0
C279 C 0.13822 0.29268 0.14763 0.0
H280 H 0.20795 0.31796 0.13978 0.0
H281 H 0.18679 0.3128 0.15557 0.0
H282 H 0.18248 0.28241 0.10784 0.0
H283 H 0.16128 0.27702 0.12408 0.0
H284 H 0.19133 0.27908 0.18393 0.0
H285 H 0.17226 0.27633 0.16581 0.0
H286 H 0.18697 0.30979 0.2129 0.0
H287 H 0.16843 0.30744 0.19452 0.0
H288 H 0.08958 0.27948 0.17366 0.0
H289 H 0.10787 0.27676 0.15927 0.0
H290 H 0.12162 0.31054 0.20595 0.0
H291 H 0.1398 0.30814 0.1913 0.0
H292 H 0.11638 0.31792 0.1331 0.0
H293 H 0.13081 0.3129 0.15142 0.0
H294 H 0.11247 0.28551 0.09958 0.0
H295 H 0.12649 0.28002 0.11837 0.0
N296 N 0.14954 0.29256 0.14077 0.0
N297 N 0.14676 0.2912 0.17407 0.0
C298 C 0.69164 0.88247 0.13297 0.0
C299 C 0.69926 0.8882 0.11824 0.0
C300 C 0.69516 0.87466 0.1434 0.0
C301 C 0.70636 0.87243 0.13927 0.0
C302 C 0.71051 0.88601 0.11418 0.0
C303 C 0.71392 0.87805 0.12452 0.0
C304 C 0.70948 0.86336 0.14965 0.0
C305 C 0.72133 0.90292 0.17848 0.0
C306 C 0.71537 0.90061 0.19436 0.0
C307 C 0.72073 0.89172 0.16949 0.0
C308 C 0.71365 0.87794 0.176 0.0
C309 C 0.70881 0.88702 0.20112 0.0
C310 C 0.70791 0.8758 0.19202 0.0
C311 C 0.71236 0.86564 0.16672 0.0
C312 C 0.71872 0.81552 0.18574 0.0
C313 C 0.71235 0.81326 0.20141 0.0
C314 C 0.71888 0.82557 0.17508 0.0
C315 C 0.7122 0.83317 0.1797 0.0
C316 C 0.70618 0.82122 0.20624 0.0
C317 C 0.70608 0.83103 0.19551 0.0
C318 C 0.71166 0.84356 0.16856 0.0
C319 C 0.68945 0.80259 0.14001 0.0
C320 C 0.69615 0.80282 0.12503 0.0
C321 C 0.69375 0.81506 0.14883 0.0
C322 C 0.70493 0.82797 0.14295 0.0
C323 C 0.70739 0.81576 0.11922 0.0
C324 C 0.71167 0.82823 0.12805 0.0
C325 C 0.70877 0.84134 0.15149 0.0
H326 H 0.68296 0.88405 0.13643 0.0
H327 H 0.689 0.87018 0.15457 0.0
H328 H 0.71646 0.89017 0.10282 0.0
H329 H 0.72246 0.87626 0.12102 0.0
H330 H 0.72652 0.91339 0.17312 0.0
H331 H 0.72585 0.89389 0.15751 0.0
H332 H 0.70405 0.88501 0.21332 0.0
H333 H 0.70249 0.86536 0.19747 0.0
H334 H 0.7237 0.80962 0.18182 0.0
H335 H 0.72421 0.82738 0.16327 0.0
H336 H 0.70111 0.81962 0.21822 0.0
H337 H 0.70095 0.83678 0.19949 0.0
H338 H 0.68081 0.79279 0.14484 0.0
H339 H 0.68814 0.81465 0.16009 0.0
H340 H 0.71261 0.81631 0.1076 0.0
H341 H 0.72016 0.83812 0.12316 0.0
N342 N 0.70793 0.85138 0.14272 0.0
N343 N 0.71331 0.85562 0.17541 0.0
C344 C 0.10751 0.80819 0.12711 0.0
C345 C 0.10256 0.81204 0.11335 0.0
C346 C 0.11671 0.81843 0.13824 0.0
C347 C 0.12074 0.83269 0.13619 0.0
C348 C 0.10669 0.82626 0.11108 0.0
C349 C 0.11564 0.83648 0.12245 0.0
C350 C 0.1315 0.8439 0.14701 0.0
C351 C 0.09771 0.81581 0.18502 0.0
C352 C 0.10243 0.8088 0.19534 0.0
C353 C 0.10719 0.82644 0.1743 0.0
C354 C 0.12152 0.83023 0.17384 0.0
C355 C 0.11669 0.81228 0.1942 0.0
C356 C 0.12615 0.823 0.18374 0.0
C357 C 0.13212 0.84246 0.16425 0.0
C358 C 0.18017 0.89875 0.1865 0.0
C359 C 0.18712 0.89411 0.19706 0.0
C360 C 0.16946 0.88925 0.17594 0.0
C361 C 0.16546 0.87493 0.17583 0.0
C362 C 0.18318 0.87977 0.19664 0.0
C363 C 0.17236 0.87028 0.1863 0.0
C364 C 0.15381 0.86455 0.16533 0.0
C365 C 0.19011 0.8902 0.131 0.0
C366 C 0.18738 0.8971 0.11829 0.0
C367 C 0.17909 0.88034 0.14091 0.0
C368 C 0.16514 0.87737 0.13857 0.0
C369 C 0.17342 0.8941 0.11587 0.0
C370 C 0.16237 0.8843 0.12593 0.0
C371 C 0.15328 0.86604 0.14813 0.0
H372 H 0.10469 0.79731 0.12887 0.0
H373 H 0.12108 0.81519 0.14804 0.0
H374 H 0.10304 0.82944 0.10048 0.0
H375 H 0.11877 0.84741 0.12037 0.0
H376 H 0.08684 0.81348 0.18566 0.0
H377 H 0.10347 0.83204 0.16685 0.0
H378 H 0.12063 0.80685 0.20158 0.0
H379 H 0.13717 0.82575 0.18348 0.0
H380 H 0.18277 0.90966 0.18663 0.0
H381 H 0.16411 0.89301 0.1681 0.0
H382 H 0.1885 0.87584 0.20424 0.0
H383 H 0.16948 0.85928 0.18634 0.0
H384 H 0.2007 0.89199 0.13284 0.0
H385 H 0.18145 0.87467 0.15 0.0
H386 H 0.17102 0.89924 0.10611 0.0
H387 H 0.15165 0.88199 0.12372 0.0
N388 N 0.1421 0.85571 0.13966 0.0
N389 N 0.14326 0.85281 0.17267 0.0
C390 C 0.30974 0.11655 0.83938 0.0
C391 C 0.29843 0.10807 0.82874 0.0
C392 C 0.30903 0.12627 0.84992 0.0
C393 C 0.29699 0.12769 0.85007 0.0
C394 C 0.28631 0.10943 0.82909 0.0
C395 C 0.28567 0.11925 0.83954 0.0
C396 C 0.29668 0.13873 0.86021 0.0
C397 C 0.29546 0.10668 0.89543 0.0
C398 C 0.30646 0.11216 0.9071 0.0
C399 C 0.29308 0.11573 0.88573 0.0
C400 C 0.30186 0.13044 0.88724 0.0
C401 C 0.31499 0.12689 0.90883 0.0
C402 C 0.31272 0.1359 0.899 0.0
C403 C 0.29955 0.14035 0.8773 0.0
C404 C 0.29291 0.19001 0.89562 0.0
C405 C 0.30486 0.19735 0.90582 0.0
C406 C 0.29096 0.17845 0.88623 0.0
C407 C 0.30093 0.17403 0.88688 0.0
C408 C 0.31475 0.19279 0.90646 0.0
C409 C 0.31274 0.18119 0.89721 0.0
C410 C 0.29912 0.16181 0.87717 0.0
C411 C 0.30921 0.19564 0.83982 0.0
C412 C 0.29867 0.19225 0.82795 0.0
C413 C 0.30827 0.18534 0.85056 0.0
C414 C 0.29666 0.17148 0.84982 0.0
C415 C 0.28695 0.17841 0.82734 0.0
C416 C 0.28602 0.16809 0.83812 0.0
C417 C 0.29636 0.16026 0.86008 0.0
H418 H 0.31936 0.11603 0.83922 0.0
H419 H 0.31806 0.13295 0.85764 0.0
H420 H 0.27733 0.10296 0.82123 0.0
H421 H 0.27634 0.12028 0.83939 0.0
H422 H 0.28873 0.0954 0.8937 0.0
H423 H 0.28431 0.1112 0.87717 0.0
H424 H 0.32333 0.1315 0.91794 0.0
H425 H 0.31952 0.1472 0.90059 0.0
H426 H 0.28496 0.19308 0.89503 0.0
H427 H 0.28161 0.17288 0.8786 0.0
H428 H 0.32421 0.19832 0.91392 0.0
H429 H 0.32057 0.17796 0.89788 0.0
H430 H 0.31832 0.20622 0.84066 0.0
H431 H 0.31686 0.18813 0.85911 0.0
H432 H 0.27876 0.17545 0.81818 0.0
H433 H 0.27709 0.15741 0.83716 0.0
N434 N 0.29513 0.14872 0.85229 0.0
N435 N 0.30066 0.15184 0.88506 0.0
C436 C 0.90066 0.18657 0.88587 0.0
C437 C 0.8953 0.19228 0.8975 0.0
C438 C 0.8914 0.17474 0.87643 0.0
C439 C 0.87662 0.16859 0.87825 0.0
C440 C 0.88053 0.18573 0.89966 0.0
C441 C 0.87133 0.17408 0.89014 0.0
C442 C 0.86639 0.15622 0.86838 0.0
C443 C 0.89108 0.19046 0.83071 0.0
C444 C 0.89695 0.18667 0.81758 0.0
C445 C 0.88174 0.18026 0.84189 0.0
C446 C 0.87847 0.16616 0.84049 0.0
C447 C 0.8937 0.1726 0.81616 0.0
C448 C 0.88457 0.16246 0.82753 0.0
C449 C 0.86746 0.15492 0.85111 0.0
C450 C 0.80925 0.11149 0.83196 0.0
C451 C 0.812 0.10437 0.81934 0.0
C452 C 0.81995 0.12036 0.84285 0.0
C453 C 0.83358 0.12218 0.84148 0.0
C454 C 0.82555 0.1059 0.81823 0.0
C455 C 0.83628 0.11483 0.82913 0.0
C456 C 0.84538 0.133 0.85153 0.0
C457 C 0.81554 0.10009 0.88793 0.0
C458 C 0.80902 0.10512 0.89888 0.0
C459 C 0.82697 0.10948 0.87797 0.0
C460 C 0.8321 0.12405 0.87881 0.0
C461 C 0.8142 0.11973 0.89955 0.0
C462 C 0.82568 0.12908 0.88976 0.0
C463 C 0.84437 0.13429 0.86873 0.0
H464 H 0.91198 0.19133 0.88389 0.0
H465 H 0.89578 0.17046 0.8677 0.0
H466 H 0.876 0.18955 0.9088 0.0
H467 H 0.86 0.16943 0.89199 0.0
H468 H 0.89319 0.20117 0.83186 0.0
H469 H 0.87672 0.18334 0.85125 0.0
H470 H 0.89806 0.16942 0.80611 0.0
H471 H 0.88204 0.15163 0.826 0.0
H472 H 0.7989 0.11046 0.83316 0.0
H473 H 0.81768 0.12624 0.85192 0.0
H474 H 0.82802 0.10067 0.80852 0.0
H475 H 0.84678 0.11626 0.82768 0.0
H476 H 0.81196 0.08894 0.88723 0.0
H477 H 0.83193 0.10539 0.86982 0.0
H478 H 0.80929 0.12399 0.90751 0.0
H479 H 0.82943 0.14027 0.89057 0.0
N480 N 0.85487 0.14584 0.87642 0.0
N481 N 0.85693 0.14329 0.84344 0.0
C482 C 0.81303 0.71709 0.89359 0.0
C483 C 0.80613 0.70556 0.9044 0.0
C484 C 0.82478 0.71916 0.88429 0.0
C485 C 0.82958 0.70951 0.88534 0.0
C486 C 0.8111 0.69609 0.90564 0.0
C487 C 0.82268 0.69804 0.89621 0.0
C488 C 0.84208 0.71139 0.87582 0.0
C489 C 0.81089 0.70567 0.83637 0.0
C490 C 0.81506 0.71777 0.8267 0.0
C491 C 0.82038 0.7051 0.84724 0.0
C492 C 0.83426 0.71658 0.8487 0.0
C493 C 0.82893 0.72937 0.82844 0.0
C494 C 0.83849 0.72871 0.83922 0.0
C495 C 0.84464 0.7154 0.85903 0.0
C496 C 0.88436 0.69727 0.83742 0.0
C497 C 0.89531 0.70893 0.82897 0.0
C498 C 0.87485 0.69882 0.84751 0.0
C499 C 0.87594 0.71202 0.84928 0.0
C500 C 0.89641 0.72221 0.83092 0.0
C501 C 0.8867 0.72369 0.84084 0.0
C502 C 0.86527 0.71328 0.85924 0.0
C503 C 0.89451 0.71052 0.89588 0.0
C504 C 0.88802 0.69774 0.90472 0.0
C505 C 0.88637 0.71425 0.88629 0.0
C506 C 0.8716 0.70531 0.88544 0.0
C507 C 0.87322 0.68876 0.90363 0.0
C508 C 0.8651 0.69259 0.89423 0.0
C509 C 0.86272 0.70929 0.87596 0.0
H510 H 0.8095 0.72464 0.89257 0.0
H511 H 0.83018 0.72838 0.87648 0.0
H512 H 0.80589 0.68703 0.91375 0.0
H513 H 0.82617 0.69046 0.89734 0.0
H514 H 0.80045 0.69639 0.8351 0.0
H515 H 0.81702 0.69548 0.85414 0.0
H516 H 0.83247 0.73891 0.82135 0.0
H517 H 0.84921 0.73764 0.84009 0.0
H518 H 0.88285 0.68681 0.83593 0.0
H519 H 0.8664 0.6896 0.85364 0.0
H520 H 0.90478 0.73147 0.82481 0.0
H521 H 0.88764 0.73394 0.84201 0.0
H522 H 0.90584 0.71779 0.89663 0.0
H523 H 0.89157 0.72425 0.87983 0.0
H524 H 0.86787 0.67871 0.90996 0.0
H525 H 0.85371 0.68552 0.89369 0.0
N526 N 0.85124 0.70848 0.88358 0.0
N527 N 0.85617 0.71624 0.85139 0.0
C528 C 0.76631 0.61992 0.45896 0.0
C529 C 0.77215 0.63042 0.4467 0.0
C530 C 0.77507 0.617 0.46858 0.0
C531 C 0.78988 0.62477 0.46641 0.0
C532 C 0.78692 0.63772 0.44411 0.0
C533 C 0.79567 0.63493 0.45386 0.0
C534 C 0.79956 0.62239 0.47684 0.0
C535 C 0.77649 0.63594 0.5118 0.0
C536 C 0.76877 0.62611 0.52426 0.0
C537 C 0.78609 0.63433 0.50193 0.0
C538 C 0.78788 0.62266 0.50407 0.0
C539 C 0.7707 0.61454 0.52652 0.0
C540 C 0.7802 0.61285 0.51652 0.0
C541 C 0.79845 0.62113 0.49422 0.0
C542 C 0.8551 0.63082 0.51399 0.0
C543 C 0.85126 0.62167 0.52757 0.0
C544 C 0.84479 0.62985 0.50314 0.0
C545 C 0.83043 0.61953 0.50543 0.0
C546 C 0.83689 0.61132 0.52982 0.0
C547 C 0.82658 0.6103 0.51889 0.0
C548 C 0.81928 0.61929 0.49491 0.0
C549 C 0.84649 0.61034 0.46083 0.0
C550 C 0.85365 0.62082 0.44878 0.0
C551 C 0.83555 0.61003 0.47022 0.0
C552 C 0.83171 0.62029 0.46781 0.0
C553 C 0.84961 0.63093 0.44632 0.0
C554 C 0.8387 0.6306 0.45565 0.0
C555 C 0.82025 0.62033 0.47754 0.0
H556 H 0.75499 0.6141 0.46136 0.0
H557 H 0.77026 0.60877 0.47779 0.0
H558 H 0.79179 0.6456 0.43451 0.0
H559 H 0.80703 0.64092 0.45173 0.0
H560 H 0.77541 0.6451 0.51002 0.0
H561 H 0.79229 0.64233 0.4928 0.0
H562 H 0.76485 0.60678 0.53601 0.0
H563 H 0.78156 0.60388 0.51853 0.0
H564 H 0.86602 0.63912 0.51212 0.0
H565 H 0.84803 0.6375 0.49328 0.0
H566 H 0.83359 0.60408 0.54013 0.0
H567 H 0.81555 0.60238 0.52105 0.0
H568 H 0.84928 0.60233 0.4629 0.0
H569 H 0.83006 0.60177 0.4793 0.0
H570 H 0.85509 0.63934 0.43741 0.0
H571 H 0.83592 0.63862 0.45358 0.0
N572 N 0.81044 0.62195 0.46925 0.0
N573 N 0.8083 0.61956 0.50253 0.0
C574 C 0.3577 0.22099 0.46451 0.0
C575 C 0.3656 0.22607 0.44986 0.0
C576 C 0.35986 0.21222 0.47498 0.0
C577 C 0.37036 0.20881 0.47132 0.0
C578 C 0.37574 0.22229 0.44587 0.0
C579 C 0.37812 0.21376 0.45653 0.0
C580 C 0.37251 0.19919 0.4821 0.0
C581 C 0.37948 0.23574 0.51478 0.0
C582 C 0.36943 0.23151 0.52764 0.0
C583 C 0.3808 0.22565 0.50553 0.0
C584 C 0.37206 0.21119 0.50903 0.0
C585 C 0.36099 0.21706 0.5313 0.0
C586 C 0.36233 0.20704 0.52215 0.0
C587 C 0.37296 0.20014 0.49953 0.0
C588 C 0.38108 0.15149 0.51941 0.0
C589 C 0.37104 0.14608 0.53234 0.0
C590 C 0.38222 0.16234 0.50935 0.0
C591 C 0.37327 0.16787 0.51197 0.0
C592 C 0.36254 0.15208 0.5353 0.0
C593 C 0.36367 0.16286 0.52527 0.0
C594 C 0.37359 0.17878 0.50103 0.0
C595 C 0.3592 0.13998 0.47024 0.0
C596 C 0.36793 0.14175 0.45657 0.0
C597 C 0.36085 0.15168 0.47899 0.0
C598 C 0.37153 0.16537 0.47453 0.0
C599 C 0.37836 0.15547 0.45182 0.0
C600 C 0.38013 0.16719 0.46073 0.0
C601 C 0.37316 0.17782 0.48363 0.0
H602 H 0.34961 0.22353 0.46768 0.0
H603 H 0.35314 0.20796 0.48579 0.0
H604 H 0.38191 0.22605 0.43459 0.0
H605 H 0.38606 0.21104 0.45324 0.0
H606 H 0.38617 0.24681 0.51174 0.0
H607 H 0.38861 0.22911 0.49568 0.0
H608 H 0.35339 0.21347 0.54139 0.0
H609 H 0.35558 0.19598 0.52521 0.0
H610 H 0.3878 0.14711 0.51682 0.0
H611 H 0.38997 0.16627 0.49942 0.0
H612 H 0.35494 0.1484 0.54539 0.0
H613 H 0.35677 0.16706 0.52769 0.0
H614 H 0.35085 0.12955 0.47392 0.0
H615 H 0.35366 0.15 0.48913 0.0
H616 H 0.38519 0.15712 0.44129 0.0
H617 H 0.38826 0.17767 0.45691 0.0
N618 N 0.37277 0.18813 0.47486 0.0
N619 N 0.37341 0.18986 0.50823 0.0
C620 C 0.77667 0.13677 0.45666 0.0
C621 C 0.77052 0.13918 0.44289 0.0
C622 C 0.7864 0.14803 0.46634 0.0
C623 C 0.78983 0.16192 0.4628 0.0
C624 C 0.77419 0.15307 0.43903 0.0
C625 C 0.78375 0.16434 0.44893 0.0
C626 C 0.80064 0.17402 0.47257 0.0
C627 C 0.76685 0.14707 0.51085 0.0
C628 C 0.77181 0.14037 0.52138 0.0
C629 C 0.77626 0.15792 0.50031 0.0
C630 C 0.79074 0.1623 0.50031 0.0
C631 C 0.78631 0.14465 0.5209 0.0
C632 C 0.79568 0.15562 0.51068 0.0
C633 C 0.80108 0.17406 0.48997 0.0
C634 C 0.85273 0.23137 0.50542 0.0
C635 C 0.85727 0.22708 0.51921 0.0
C636 C 0.8415 0.22138 0.49578 0.0
C637 C 0.8349 0.20691 0.49952 0.0
C638 C 0.85048 0.21267 0.52312 0.0
C639 C 0.83944 0.20271 0.51338 0.0
C640 C 0.82303 0.19595 0.48956 0.0
C641 C 0.85995 0.21592 0.45481 0.0
C642 C 0.85843 0.22343 0.44181 0.0
C643 C 0.84837 0.20708 0.46474 0.0
C644 C 0.83507 0.20569 0.46202 0.0
C645 C 0.8451 0.22202 0.43905 0.0
C646 C 0.83346 0.2131 0.44901 0.0
C647 C 0.82274 0.19583 0.47213 0.0
H648 H 0.77428 0.12619 0.45964 0.0
H649 H 0.79151 0.14586 0.47631 0.0
H650 H 0.76964 0.15518 0.4284 0.0
H651 H 0.78644 0.17497 0.44573 0.0
H652 H 0.7558 0.14416 0.51099 0.0
H653 H 0.7723 0.16306 0.49243 0.0
H654 H 0.79048 0.1395 0.52841 0.0
H655 H 0.80682 0.15881 0.51072 0.0
H656 H 0.85772 0.24245 0.50227 0.0
H657 H 0.83792 0.225 0.48552 0.0
H658 H 0.85386 0.20908 0.5336 0.0
H659 H 0.83455 0.19165 0.51661 0.0
H660 H 0.87011 0.21689 0.45732 0.0
H661 H 0.84976 0.20118 0.47446 0.0
H662 H 0.84361 0.22756 0.42899 0.0
H663 H 0.82322 0.21198 0.44658 0.0
N664 N 0.81149 0.18498 0.46432 0.0
N665 N 0.81221 0.18499 0.49773 0.0
C666 C 0.98262 0.53273 0.16822 0.0
C667 C 0.99236 0.5387 0.15507 0.0
C668 C 0.98245 0.52225 0.17804 0.0
C669 C 0.99221 0.51774 0.17513 0.0
C670 C 0.00184 0.53387 0.15194 0.0
C671 C 0.00176 0.52351 0.16186 0.0
C672 C 0.99224 0.50665 0.18536 0.0
C673 C 0.00326 0.54293 0.21965 0.0
C674 C 0.99444 0.53975 0.23357 0.0
C675 C 0.00228 0.53212 0.20961 0.0
C676 C 0.99211 0.51794 0.21297 0.0
C677 C 0.98455 0.5256 0.23722 0.0
C678 C 0.98336 0.51479 0.22698 0.0
C679 C 0.99126 0.5063 0.20279 0.0
C680 C 0.00254 0.46065 0.22179 0.0
C681 C 0.99186 0.45342 0.2337 0.0
C682 C 0.00212 0.47054 0.21148 0.0
C683 C 0.99098 0.47333 0.21286 0.0
C684 C 0.98068 0.45618 0.235 0.0
C685 C 0.98032 0.46615 0.22475 0.0
C686 C 0.99098 0.48447 0.20284 0.0
C687 C 0.98308 0.44999 0.16627 0.0
C688 C 0.99494 0.45384 0.15596 0.0
C689 C 0.98235 0.46008 0.17613 0.0
C690 C 0.99336 0.47422 0.17574 0.0
C691 C 0.00604 0.46804 0.1559 0.0
C692 C 0.00516 0.47814 0.16551 0.0
C693 C 0.99248 0.4851 0.18554 0.0
H694 H 0.97519 0.53622 0.17102 0.0
H695 H 0.97467 0.51766 0.18789 0.0
H696 H 0.00925 0.53797 0.14169 0.0
H697 H 0.00924 0.52005 0.1592 0.0
H698 H 0.01115 0.55377 0.21678 0.0
H699 H 0.00964 0.53486 0.19937 0.0
H700 H 0.97765 0.52292 0.24792 0.0
H701 H 0.97561 0.50395 0.23001 0.0
H702 H 0.01125 0.45868 0.22047 0.0
H703 H 0.01067 0.47623 0.20269 0.0
H704 H 0.9724 0.45087 0.2442 0.0
H705 H 0.97174 0.4683 0.22615 0.0
H706 H 0.9742 0.43925 0.16647 0.0
H707 H 0.97305 0.4569 0.18381 0.0
H708 H 0.01549 0.4714 0.14847 0.0
H709 H 0.01378 0.48901 0.16511 0.0
N710 N 0.99302 0.49613 0.17745 0.0
N711 N 0.99045 0.49509 0.2108 0.0
C712 C 0.48356 0.42913 0.17047 0.0
C713 C 0.47995 0.43228 0.15517 0.0
C714 C 0.49479 0.43973 0.17957 0.0
C715 C 0.50216 0.45376 0.1738 0.0
C716 C 0.48769 0.44609 0.14907 0.0
C717 C 0.49862 0.45672 0.15831 0.0
C718 C 0.51372 0.46548 0.18338 0.0
C719 C 0.47564 0.44832 0.21684 0.0
C720 C 0.47673 0.44178 0.23114 0.0
C721 C 0.48752 0.45641 0.20688 0.0
C722 C 0.50072 0.45801 0.21092 0.0
C723 C 0.48997 0.44346 0.23522 0.0
C724 C 0.5019 0.45163 0.22527 0.0
C725 C 0.51338 0.46703 0.20068 0.0
C726 C 0.55799 0.52683 0.21292 0.0
C727 C 0.56424 0.52551 0.22735 0.0
C728 C 0.54888 0.51492 0.20363 0.0
C729 C 0.54607 0.50148 0.20838 0.0
C730 C 0.56136 0.51203 0.23215 0.0
C731 C 0.55232 0.50013 0.22277 0.0
C732 C 0.53562 0.4887 0.19932 0.0
C733 C 0.57088 0.51505 0.16284 0.0
C734 C 0.56609 0.51939 0.14928 0.0
C735 C 0.56115 0.50458 0.17357 0.0
C736 C 0.54648 0.49839 0.17098 0.0
C737 C 0.5514 0.51309 0.14677 0.0
C738 C 0.54174 0.50266 0.1574 0.0
C739 C 0.53578 0.48735 0.18199 0.0
H740 H 0.47776 0.41848 0.17529 0.0
H741 H 0.49765 0.43693 0.19108 0.0
H742 H 0.485 0.44873 0.13731 0.0
H743 H 0.50414 0.46736 0.15343 0.0
H744 H 0.46557 0.44715 0.21331 0.0
H745 H 0.48643 0.46151 0.19607 0.0
H746 H 0.49116 0.43868 0.24627 0.0
H747 H 0.51204 0.45292 0.22873 0.0
H748 H 0.55973 0.53702 0.20913 0.0
H749 H 0.54374 0.51621 0.19298 0.0
H750 H 0.56605 0.5107 0.24319 0.0
H751 H 0.55012 0.48983 0.2268 0.0
H752 H 0.58213 0.51962 0.16504 0.0
H753 H 0.56506 0.50127 0.18381 0.0
H754 H 0.5473 0.51638 0.13671 0.0
H755 H 0.53049 0.4981 0.15517 0.0
N756 N 0.52487 0.47578 0.17479 0.0
N757 N 0.52444 0.47845 0.20799 0.0
C758 C 0.46809 0.02343 0.22221 0.0
C759 C 0.46238 0.01306 0.23463 0.0
C760 C 0.47963 0.02536 0.21264 0.0
C761 C 0.48545 0.01668 0.21491 0.0
C762 C 0.46864 0.0048 0.23731 0.0
C763 C 0.48 0.00657 0.22754 0.0
C764 C 0.49739 0.01815 0.20459 0.0
C765 C 0.46154 0.00702 0.16984 0.0
C766 C 0.46435 0.01751 0.1581 0.0
C767 C 0.47249 0.00772 0.17927 0.0
C768 C 0.48644 0.01907 0.1774 0.0
C769 C 0.47838 0.02874 0.15607 0.0
C770 C 0.48934 0.02946 0.16558 0.0
C771 C 0.49812 0.01981 0.18725 0.0
C772 C 0.54425 0.00852 0.16788 0.0
C773 C 0.55212 0.01932 0.15641 0.0
C774 C 0.53388 0.00883 0.17773 0.0
C775 C 0.53128 0.02004 0.17647 0.0
C776 C 0.54933 0.03043 0.155 0.0
C777 C 0.53894 0.03074 0.16488 0.0
C778 C 0.52018 0.02031 0.18675 0.0
C779 C 0.55469 0.02523 0.22048 0.0
C780 C 0.55018 0.01397 0.23162 0.0
C781 C 0.54476 0.02697 0.21166 0.0
C782 C 0.53016 0.01739 0.21371 0.0
C783 C 0.53555 0.00473 0.23406 0.0
C784 C 0.52566 0.00645 0.22523 0.0
C785 C 0.51942 0.0186 0.20406 0.0
H786 H 0.46354 0.02995 0.21968 0.0
H787 H 0.48394 0.03361 0.20341 0.0
H788 H 0.46485 0.99699 0.24703 0.0
H789 H 0.48444 -0.0001 0.22977 0.0
H790 H 0.45085 0.99828 0.1718 0.0
H791 H 0.47005 -0.00063 0.18801 0.0
H792 H 0.48096 0.03684 0.14692 0.0
H793 H 0.50007 0.03818 0.16376 0.0
H794 H 0.54587 -0.00037 0.169 0.0
H795 H 0.52779 0.00022 0.18622 0.0
H796 H 0.55525 0.03895 0.14635 0.0
H797 H 0.53699 0.0394 0.16361 0.0
H798 H 0.56589 0.03252 0.21832 0.0
H799 H 0.54849 0.03572 0.20315 0.0
H800 H 0.53173 0.99613 0.2428 0.0
H801 H 0.51445 -0.00096 0.22718 0.0
N802 N 0.50805 0.01753 0.21225 0.0
N803 N 0.50955 0.02096 0.17902 0.0
C804 C 0.53715 0.98839 0.80225 0.0
C805 C 0.53397 0.97951 0.78849 0.0
C806 C 0.52625 0.98797 0.81176 0.0
C807 C 0.51198 0.97829 0.80801 0.0
C808 C 0.51974 0.96996 0.78458 0.0
C809 C 0.50883 0.96933 0.79431 0.0
C810 C 0.50031 0.97842 0.81723 0.0
C811 C 0.52485 0.96915 0.85435 0.0
C812 C 0.53071 0.97908 0.86725 0.0
C813 C 0.51471 0.96905 0.84384 0.0
C814 C 0.51044 0.97907 0.8458 0.0
C815 C 0.52597 0.98871 0.86952 0.0
C816 C 0.51599 0.98871 0.85893 0.0
C817 C 0.49999 0.97951 0.83463 0.0
C818 C 0.44434 0.97557 0.84895 0.0
C819 C 0.4487 0.98731 0.85943 0.0
C820 C 0.45432 0.97386 0.83996 0.0
C821 C 0.46884 0.98379 0.84141 0.0
C822 C 0.46329 0.99737 0.8605 0.0
C823 C 0.47325 0.99551 0.85175 0.0
C824 C 0.47954 0.98183 0.83259 0.0
C825 C 0.45947 0.99579 0.79497 0.0
C826 C 0.45153 0.98545 0.78306 0.0
C827 C 0.46855 0.99414 0.8055 0.0
C828 C 0.46983 0.98209 0.80441 0.0
C829 C 0.45293 0.97344 0.78188 0.0
C830 C 0.4621 0.97185 0.79237 0.0
C831 C 0.47969 0.98048 0.81531 0.0
H832 H 0.54806 0.99607 0.80524 0.0
H833 H 0.52901 0.99548 0.82175 0.0
H834 H 0.51708 0.96309 0.77393 0.0
H835 H 0.49791 0.96196 0.791 0.0
H836 H 0.52824 0.96157 0.85221 0.0
H837 H 0.51028 0.96119 0.83414 0.0
H838 H 0.52991 0.99626 0.87958 0.0
H839 H 0.51272 0.9964 0.86091 0.0
H840 H 0.43325 0.96748 0.84801 0.0
H841 H 0.45075 0.96464 0.83216 0.0
H842 H 0.46705 0.0067 0.86812 0.0
H843 H 0.48443 0.00331 0.85294 0.0
H844 H 0.45856 0.00511 0.79624 0.0
H845 H 0.47468 0.00237 0.81441 0.0
H846 H 0.44707 0.96538 0.77269 0.0
H847 H 0.46308 0.96256 0.79119 0.0
N848 N 0.49004 0.97879 0.80828 0.0
N849 N 0.48967 0.9813 0.84158 0.0
C850 C 0.00084 0.54053 0.79845 0.0
C851 C 0.0099 0.54756 0.78502 0.0
C852 C 0.00311 0.53152 0.80836 0.0
C853 C 0.01451 0.52939 0.80506 0.0
C854 C 0.02126 0.54535 0.78171 0.0
C855 C 0.02346 0.53625 0.79156 0.0
C856 C 0.01665 0.51942 0.81504 0.0
C857 C 0.02503 0.55578 0.8485 0.0
C858 C 0.01649 0.5518 0.86281 0.0
C859 C 0.0255 0.54556 0.83855 0.0
C860 C 0.01725 0.53116 0.84258 0.0
C861 C 0.00856 0.5374 0.86698 0.0
C862 C 0.00893 0.52724 0.85698 0.0
C863 C 0.01755 0.52004 0.83245 0.0
C864 C 0.02884 0.47273 0.84795 0.0
C865 C 0.02008 0.46713 0.86197 0.0
C866 C 0.02845 0.4831 0.83844 0.0
C867 C 0.01919 0.48798 0.84267 0.0
C868 C 0.01114 0.47235 0.86642 0.0
C869 C 0.01075 0.48269 0.85691 0.0
C870 C 0.01833 0.49872 0.83257 0.0
C871 C 0.00165 0.46028 0.80044 0.0
C872 C 0.00986 0.46204 0.78625 0.0
C873 C 0.00413 0.47193 0.80995 0.0
C874 C 0.01498 0.48557 0.80558 0.0
C875 C 0.0207 0.47571 0.78186 0.0
C876 C 0.02315 0.48738 0.79138 0.0
C877 C 0.01717 0.49798 0.81521 0.0
H878 H 0.99203 0.54207 0.80135 0.0
H879 H 0.99587 0.52609 0.8185 0.0
H880 H 0.02831 0.55047 0.77132 0.0
H881 H 0.0322 0.5346 0.78866 0.0
H882 H 0.03127 0.56676 0.84491 0.0
H883 H 0.03239 0.54896 0.82781 0.0
H884 H 0.00216 0.53395 0.87812 0.0
H885 H 0.00263 0.51623 0.86052 0.0
H886 H 0.03583 0.46893 0.84417 0.0
H887 H 0.03536 0.48727 0.82776 0.0
H888 H 0.00446 0.46849 0.87732 0.0
H889 H 0.00365 0.48641 0.86056 0.0
H890 H 0.99328 0.44989 0.8042 0.0
H891 H -0.00258 0.4703 0.8206 0.0
H892 H 0.02706 0.47741 0.77086 0.0
H893 H 0.03143 0.49784 0.78766 0.0
N894 N 0.01655 0.50843 0.80711 0.0
N895 N 0.01835 0.50965 0.84048 0.0
C896 C 0.52133 0.56753 0.79262 0.0
C897 C 0.52768 0.56231 0.78175 0.0
C898 C 0.50828 0.55833 0.80013 0.0
C899 C 0.50151 0.54372 0.79713 0.0
C900 C 0.52047 0.54779 0.77812 0.0
C901 C 0.50755 0.53861 0.78574 0.0
C902 C 0.48832 0.53354 0.8059 0.0
C903 C 0.52166 0.55376 0.84509 0.0
C904 C 0.5195 0.5627 0.85568 0.0
C905 C 0.51096 0.54451 0.83443 0.0
C906 C 0.4979 0.54401 0.83409 0.0
C907 C 0.50633 0.5621 0.85533 0.0
C908 C 0.49559 0.55274 0.84473 0.0
C909 C 0.48649 0.53393 0.82312 0.0
C910 C 0.44138 0.4759 0.83904 0.0
C911 C 0.4345 0.47845 0.85218 0.0
C912 C 0.45055 0.48685 0.82858 0.0
C913 C 0.45284 0.50053 0.83083 0.0
C914 C 0.43651 0.49206 0.85417 0.0
C915 C 0.44567 0.50302 0.84364 0.0
C916 C 0.46413 0.51253 0.82144 0.0
C917 C 0.4316 0.48448 0.78421 0.0
C918 C 0.43658 0.47792 0.7733 0.0
C919 C 0.44106 0.49572 0.79421 0.0
C920 C 0.45567 0.5006 0.79347 0.0
C921 C 0.45125 0.48302 0.77246 0.0
C922 C 0.46068 0.4943 0.78233 0.0
C923 C 0.46589 0.51222 0.80418 0.0
H924 H 0.52658 0.57867 0.79565 0.0
H925 H 0.50361 0.56261 0.80845 0.0
H926 H 0.52486 0.54347 0.76945 0.0
H927 H 0.50244 0.52742 0.78303 0.0
H928 H 0.5315 0.55367 0.84528 0.0
H929 H 0.51283 0.5376 0.82658 0.0
H930 H 0.50434 0.56892 0.86317 0.0
H931 H 0.48552 0.55241 0.84471 0.0
H932 H 0.43997 0.46552 0.83713 0.0
H933 H 0.45631 0.48471 0.81919 0.0
H934 H 0.43153 0.49441 0.86431 0.0
H935 H 0.44748 0.51354 0.84578 0.0
H936 H 0.42041 0.48099 0.78498 0.0
H937 H 0.43699 0.50061 0.80249 0.0
H938 H 0.45547 0.47809 0.76446 0.0
H939 H 0.47191 0.49788 0.78157 0.0
N940 N 0.47795 0.52269 0.79713 0.0
N941 N 0.47445 0.52346 0.83021 0.0
C942 C 0.64519 0.78098 0.50416 0.0
C943 C 0.63463 0.77338 0.49234 0.0
C944 C 0.64418 0.7905 0.51473 0.0
C945 C 0.63247 0.79244 0.51392 0.0
C946 C 0.62296 0.77542 0.49147 0.0
C947 C 0.62195 0.78494 0.5021 0.0
C948 C 0.63166 0.80297 0.5246 0.0
C949 C 0.62973 0.76952 0.55813 0.0
C950 C 0.64065 0.77468 0.56988 0.0
C951 C 0.62729 0.77885 0.54904 0.0
C952 C 0.63591 0.7935 0.55132 0.0
C953 C 0.64894 0.78933 0.57246 0.0
C954 C 0.6466 0.79861 0.56328 0.0
C955 C 0.63377 0.80373 0.54184 0.0
C956 C 0.62552 0.85156 0.56354 0.0
C957 C 0.63704 0.85836 0.57446 0.0
C958 C 0.62425 0.84084 0.55303 0.0
C959 C 0.63446 0.83672 0.55331 0.0
C960 C 0.64724 0.85419 0.57457 0.0
C961 C 0.64588 0.8434 0.56424 0.0
C962 C 0.63315 0.82509 0.54283 0.0
C963 C 0.6442 0.86063 0.50753 0.0
C964 C 0.63447 0.85757 0.49473 0.0
C965 C 0.64286 0.84995 0.51793 0.0
C966 C 0.63161 0.83601 0.51593 0.0
C967 C 0.62308 0.84365 0.49291 0.0
C968 C 0.62172 0.83296 0.50335 0.0
C969 C 0.6311 0.82439 0.5256 0.0
H970 H 0.65426 0.77959 0.50524 0.0
H971 H 0.65265 0.79646 0.52343 0.0
H972 H 0.61478 0.76991 0.48233 0.0
H973 H 0.61295 0.78647 0.50108 0.0
H974 H 0.62315 0.7583 0.55581 0.0
H975 H 0.61868 0.7746 0.54027 0.0
H976 H 0.65719 0.79367 0.58169 0.0
H977 H 0.65327 0.80986 0.56545 0.0
H978 H 0.61736 0.85435 0.56328 0.0
H979 H 0.6152 0.83563 0.5449 0.0
H980 H 0.65642 0.85936 0.58252 0.0
H981 H 0.65388 0.84038 0.56463 0.0
H982 H 0.65304 0.87126 0.50933 0.0
H983 H 0.65094 0.85254 0.52713 0.0
H984 H 0.61552 0.8409 0.48301 0.0
H985 H 0.6131 0.82224 0.5014 0.0
N986 N 0.63032 0.81328 0.51718 0.0
N987 N 0.63445 0.81478 0.55021 0.0
C988 C 0.14877 0.76519 0.50647 0.0
C989 C 0.14452 0.76916 0.49215 0.0
C990 C 0.1591 0.77551 0.5168 0.0
C991 C 0.165 0.78993 0.51316 0.0
C992 C 0.15068 0.78356 0.48842 0.0
C993 C 0.16079 0.7938 0.49877 0.0
C994 C 0.17577 0.80126 0.5238 0.0
C995 C 0.13647 0.77767 0.55488 0.0
C996 C 0.13824 0.77253 0.56992 0.0
C997 C 0.14827 0.78716 0.54556 0.0
C998 C 0.16208 0.79127 0.55076 0.0
C999 C 0.15202 0.77695 0.57543 0.0
C1000 C 0.16384 0.78621 0.56589 0.0
C1001 C 0.1747 0.80168 0.54119 0.0
C1002 C 0.21755 0.8618 0.55696 0.0
C1003 C 0.22461 0.8604 0.57056 0.0
C1004 C 0.20821 0.85 0.5477 0.0
C1005 C 0.20599 0.8366 0.55159 0.0
C1006 C 0.22202 0.84691 0.57481 0.0
C1007 C 0.21276 0.8351 0.5654 0.0
C1008 C 0.19624 0.8241 0.54164 0.0
C1009 C 0.23222 0.85415 0.50833 0.0
C1010 C 0.22754 0.85904 0.49521 0.0
C1011 C 0.22247 0.84253 0.51774 0.0
C1012 C 0.20789 0.8357 0.51422 0.0
C1013 C 0.21301 0.85184 0.49141 0.0
C1014 C 0.20332 0.8403 0.50078 0.0
C1015 C 0.19712 0.82377 0.52426 0.0
H1016 H 0.14424 0.75415 0.50955 0.0
H1017 H 0.16243 0.77223 0.52759 0.0
H1018 H 0.14745 0.78694 0.47761 0.0
H1019 H 0.16517 0.80482 0.49565 0.0
H1020 H 0.12595 0.77467 0.55059 0.0
H1021 H 0.14656 0.79144 0.53442 0.0
H1022 H 0.15363 0.7732 0.58707 0.0
H1023 H 0.17437 0.78945 0.57036 0.0
H1024 H 0.21905 0.872 0.55366 0.0
H1025 H 0.20268 0.85135 0.5375 0.0
H1026 H 0.22729 0.84554 0.58526 0.0
H1027 H 0.21102 0.82482 0.56877 0.0
H1028 H 0.24336 0.85946 0.51152 0.0
H1029 H 0.2263 0.83897 0.52781 0.0
H1030 H 0.2091 0.85512 0.48115 0.0
H1031 H 0.19216 0.83512 0.49769 0.0
N1032 N 0.18686 0.81237 0.51612 0.0
N1033 N 0.18512 0.81301 0.54943 0.0
C1034 C 0.23194 0.37766 0.50625 0.0
C1035 C 0.22702 0.36766 0.49339 0.0
C1036 C 0.22241 0.37983 0.51565 0.0
C1037 C 0.20777 0.37197 0.51241 0.0
C1038 C 0.2124 0.36002 0.49002 0.0
C1039 C 0.20292 0.36218 0.49939 0.0
C1040 C 0.19735 0.37391 0.52215 0.0
C1041 C 0.21484 0.35564 0.55752 0.0
C1042 C 0.22288 0.36483 0.57034 0.0
C1043 C 0.20667 0.35888 0.54739 0.0
C1044 C 0.20648 0.37143 0.54977 0.0
C1045 C 0.22273 0.37742 0.5727 0.0
C1046 C 0.21446 0.38063 0.56258 0.0
C1047 C 0.19718 0.37437 0.53956 0.0
C1048 C 0.1389 0.36095 0.55569 0.0
C1049 C 0.14107 0.37021 0.56884 0.0
C1050 C 0.15022 0.36303 0.54565 0.0
C1051 C 0.16396 0.37446 0.54848 0.0
C1052 C 0.15479 0.38176 0.57155 0.0
C1053 C 0.16617 0.38378 0.56155 0.0
C1054 C 0.17614 0.37581 0.5389 0.0
C1055 C 0.15037 0.38433 0.5022 0.0
C1056 C 0.14479 0.37433 0.48935 0.0
C1057 C 0.16048 0.38464 0.51294 0.0
C1058 C 0.1651 0.37489 0.51102 0.0
C1059 C 0.1493 0.36447 0.48773 0.0
C1060 C 0.15941 0.36483 0.49835 0.0
C1061 C 0.17631 0.37533 0.52149 0.0
H1062 H 0.24314 0.38372 0.50915 0.0
H1063 H 0.22649 0.3877 0.52537 0.0
H1064 H 0.20828 0.35247 0.47998 0.0
H1065 H 0.19171 0.35607 0.49653 0.0
H1066 H 0.21484 0.34592 0.55533 0.0
H1067 H 0.20032 0.35146 0.53783 0.0
H1068 H 0.22874 0.38462 0.58259 0.0
H1069 H 0.21427 0.39026 0.56474 0.0
H1070 H 0.12843 0.35201 0.55325 0.0
H1071 H 0.14831 0.35547 0.53594 0.0
H1072 H 0.15679 0.38898 0.5817 0.0
H1073 H 0.17672 0.39252 0.56412 0.0
H1074 H 0.14717 0.39211 0.5037 0.0
H1075 H 0.16491 0.39265 0.52247 0.0
H1076 H 0.14498 0.3564 0.47825 0.0
H1077 H 0.16274 0.35716 0.49669 0.0
N1078 N 0.18689 0.37439 0.51385 0.0
N1079 N 0.18664 0.37539 0.54727 0.0
H1080 H 0.0183 0.39012 0.04051 0.0
H1081 H 0.0166 0.40394 0.06306 0.0
H1082 H 0.98328 0.36582 0.08557 0.0
H1083 H 0.98457 0.35193 0.06257 0.0
H1084 H 0.9765 0.38508 0.08756 0.0
H1085 H 0.01782 0.38388 0.10122 0.0
H1086 H 0.0411 0.38585 0.09695 0.0
H1087 H 0.05993 0.43004 0.08644 0.0
H1088 H 0.03671 0.42831 0.0904 0.0
H1089 H 0.98475 0.42563 0.16205 0.0
H1090 H 0.98546 0.4083 0.14361 0.0
H1091 H 0.00793 0.44066 0.10713 0.0
H1092 H 0.00657 0.45788 0.12491 0.0
H1093 H 0.01974 0.4221 0.11566 0.0
H1094 H 0.97628 0.42113 0.09977 0.0
H1095 H 0.95274 0.41809 0.10566 0.0
H1096 H 0.93789 0.37606 0.12322 0.0
H1097 H 0.96144 0.37894 0.11765 0.0
C1098 C 0.01063 0.38466 0.05028 0.0
C1099 C 0.00161 0.36994 0.04982 0.0
C1100 C 0.00973 0.39257 0.06324 0.0
C1101 C 1e-05 0.38591 0.07623 0.0
C1102 C 0.99091 0.37119 0.07574 0.0
C1103 C 0.99167 0.36327 0.06262 0.0
C1104 C -0.00084 0.39445 0.08998 0.0
C1105 C 0.98594 0.39297 0.09391 0.0
C1106 C 0.01145 0.40479 0.09832 0.0
C1107 C 0.02549 0.40594 0.096 0.0
C1108 C 0.0269 0.394 0.09789 0.0
C1109 C 0.04009 0.39508 0.09554 0.0
C1110 C 0.05198 0.40806 0.0914 0.0
C1111 C 0.05071 0.41999 0.08964 0.0
C1112 C 0.03754 0.41897 0.09196 0.0
C1113 C 0.98968 0.42907 0.15003 0.0
C1114 C 0.99562 0.44323 0.14504 0.0
C1115 C 0.99017 0.41915 0.13958 0.0
C1116 C 0.99679 0.42326 0.12409 0.0
C1117 C 0.00289 0.43735 0.11914 0.0
C1118 C 0.00218 0.4472 0.1294 0.0
C1119 C -0.00279 0.41288 0.1128 0.0
C1120 C 0.01034 0.41404 0.10941 0.0
C1121 C 0.98482 0.40206 0.10524 0.0
C1122 C 0.97066 0.40032 0.10849 0.0
C1123 C 0.96804 0.41129 0.10504 0.0
C1124 C 0.95469 0.40959 0.10828 0.0
C1125 C 0.94384 0.39691 0.11486 0.0
C1126 C 0.94631 0.38589 0.11816 0.0
C1127 C 0.95966 0.38755 0.11495 0.0
H1128 H 0.93351 0.39561 0.11736 0.0
H1129 H 0.06218 0.40887 0.08958 0.0
H1130 H 0.64372 0.62702 0.0524 0.0
H1131 H 0.63698 0.60941 0.07429 0.0
H1132 H 0.5935 0.58857 0.05788 0.0
H1133 H 0.60005 0.60634 0.03655 0.0
H1134 H 0.5936 0.59074 0.08922 0.0
H1135 H 0.617 0.57563 0.05047 0.0
H1136 H 0.63684 0.57829 0.03311 0.0
H1137 H 0.66287 0.58769 0.07607 0.0
H1138 H 0.64322 0.58525 0.09366 0.0
H1139 H 0.56428 0.52018 0.11575 0.0
H1140 H 0.57851 0.54013 0.09749 0.0
H1141 H 0.60525 0.56387 0.13821 0.0
H1142 H 0.59067 0.54411 0.15687 0.0
H1143 H 0.61631 0.5621 0.09809 0.0
H1144 H 0.5911 0.57744 0.1364 0.0
H1145 H 0.56955 0.57232 0.15203 0.0
H1146 H 0.54549 0.56018 0.10721 0.0
H1147 H 0.56689 0.56504 0.09138 0.0
C1148 C 0.63275 0.61862 0.05344 0.0
C1149 C 0.62241 0.6181 0.0428 0.0
C1150 C 0.62891 0.60853 0.06591 0.0
C1151 C 0.61473 0.59759 0.06772 0.0
C1152 C 0.60449 0.59695 0.05686 0.0
C1153 C 0.60826 0.60712 0.04462 0.0
C1154 C 0.61026 0.58698 0.08115 0.0
C1155 C 0.59866 0.58455 0.09111 0.0
C1156 C 0.6169 0.57896 0.08391 0.0
C1157 C 0.62871 0.58043 0.07335 0.0
C1158 C 0.62699 0.57838 0.05619 0.0
C1159 C 0.6382 0.57982 0.04632 0.0
C1160 C 0.65112 0.5832 0.05348 0.0
C1161 C 0.65286 0.5851 0.07054 0.0
C1162 C 0.64169 0.58368 0.08047 0.0
C1163 C 0.57322 0.52961 0.12087 0.0
C1164 C 0.57616 0.53064 0.13785 0.0
C1165 C 0.58142 0.54092 0.11037 0.0
C1166 C 0.59285 0.55342 0.11656 0.0
C1167 C 0.59647 0.55424 0.13325 0.0
C1168 C 0.58814 0.54293 0.14386 0.0
C1169 C 0.59975 0.56599 0.10584 0.0
C1170 C 0.61163 0.56864 0.09637 0.0
C1171 C 0.59331 0.57414 0.10332 0.0
C1172 C 0.58053 0.57147 0.11276 0.0
C1173 C 0.58118 0.57357 0.12992 0.0
C1174 C 0.56901 0.57074 0.1388 0.0
C1175 C 0.55614 0.56589 0.13062 0.0
C1176 C 0.55545 0.56392 0.11353 0.0
C1177 C 0.5676 0.56672 0.1046 0.0
H1178 H 0.54673 0.5637 0.13752 0.0
H1179 H 0.65978 0.58431 0.04581 0.0
H1180 H 0.37443 0.01883 0.05417 0.0
H1181 H 0.39078 0.02511 0.07743 0.0
H1182 H 0.38345 0.98271 0.07805 0.0
H1183 H 0.36722 0.97637 0.05488 0.0
H1184 H 0.38389 0.99347 0.10968 0.0
H1185 H 0.41172 0.00754 0.0588 0.0
H1186 H 0.42 0.02062 0.03259 0.0
H1187 H 0.43556 0.05984 0.05863 0.0
H1188 H 0.42719 0.04696 0.08499 0.0
H1189 H 0.44262 0.99388 0.14384 0.0
H1190 H 0.42371 0.99217 0.12651 0.0
H1191 H 0.44095 0.03707 0.13107 0.0
H1192 H 0.45988 0.03887 0.1487 0.0
H1193 H 0.43475 0.02841 0.09943 0.0
H1194 H 0.41056 0.01507 0.15069 0.0
H1195 H 0.4025 0.00247 0.17719 0.0
H1196 H 0.38004 0.96287 0.1515 0.0
H1197 H 0.38813 0.97521 0.12483 0.0
C1198 C 0.3762 0.01082 0.05938 0.0
C1199 C 0.36962 0.99713 0.0526 0.0
C1200 C 0.38554 0.01442 0.07263 0.0
C1201 C 0.38836 0.00438 0.07937 0.0
C1202 C 0.3814 0.9906 0.07303 0.0
C1203 C 0.37219 0.98703 0.05972 0.0
C1204 C 0.39916 0.00829 0.09237 0.0
C1205 C 0.39502 0.00108 0.10747 0.0
C1206 C 0.4136 0.01856 0.08964 0.0
C1207 C 0.41867 0.02629 0.07382 0.0
C1208 C 0.4168 0.01895 0.05892 0.0
C1209 C 0.42153 0.02632 0.04404 0.0
C1210 C 0.42826 0.04105 0.04394 0.0
C1211 C 0.43031 0.04843 0.05873 0.0
C1212 C 0.42558 0.0411 0.07363 0.0
C1213 C 0.44228 0.00337 0.14141 0.0
C1214 C 0.45273 0.0165 0.14774 0.0
C1215 C 0.43147 0.00238 0.13148 0.0
C1216 C 0.43081 0.01446 0.12769 0.0
C1217 C 0.44124 0.02761 0.1339 0.0
C1218 C 0.45208 0.02862 0.14389 0.0
C1219 C 0.41956 0.01331 0.11662 0.0
C1220 C 0.4236 0.02102 0.10185 0.0
C1221 C 0.40502 0.00359 0.11973 0.0
C1222 C 0.40004 0.99608 0.13574 0.0
C1223 C 0.40399 0.00367 0.15068 0.0
C1224 C 0.3994 0.99657 0.16574 0.0
C1225 C 0.39079 0.98188 0.16603 0.0
C1226 C 0.38672 0.97425 0.15126 0.0
C1227 C 0.39128 0.9813 0.13616 0.0
H1228 H 0.38725 0.9764 0.17771 0.0
H1229 H 0.43192 0.04674 0.03241 0.0
H1230 H 0.38695 0.00992 0.97622 0.0
H1231 H 0.40017 0.00874 0.95257 0.0
H1232 H 0.36087 0.97959 0.92842 0.0
H1233 H 0.34755 0.98024 0.95257 0.0
H1234 H 0.37834 0.97092 0.92407 0.0
H1235 H 0.38208 0.01525 0.91605 0.0
H1236 H 0.3864 0.03893 0.9232 0.0
H1237 H 0.42994 0.05282 0.93387 0.0
H1238 H 0.42585 0.02917 0.92701 0.0
H1239 H 0.42142 0.98017 0.85141 0.0
H1240 H 0.40399 0.98176 0.86906 0.0
H1241 H 0.43488 -4e-05 0.90791 0.0
H1242 H 0.45207 0.99774 0.89088 0.0
H1243 H 0.41895 0.01431 0.90031 0.0
H1244 H 0.41266 0.96775 0.91152 0.0
H1245 H 0.40758 0.94407 0.90298 0.0
H1246 H 0.36729 0.93483 0.88376 0.0
H1247 H 0.37224 0.95856 0.89199 0.0
C1248 C 0.38111 0.0033 0.96585 0.0
C1249 C 0.36623 0.99521 0.96619 0.0
C1250 C 0.38868 0.00271 0.95226 0.0
C1251 C 0.38152 0.99434 0.9385 0.0
C1252 C 0.36662 0.9862 0.93884 0.0
C1253 C 0.35903 0.98657 0.95262 0.0
C1254 C 0.38973 0.99371 0.92418 0.0
C1255 C 0.387 0.98043 0.91864 0.0
C1256 C 0.40107 0.00609 0.91702 0.0
C1257 C 0.40363 0.02039 0.92109 0.0
C1258 C 0.39256 0.02333 0.92002 0.0
C1259 C 0.39497 0.03675 0.92401 0.0
C1260 C 0.40843 0.04737 0.92901 0.0
C1261 C 0.41952 0.04459 0.92999 0.0
C1262 C 0.41717 0.03118 0.92603 0.0
C1263 C 0.42448 0.98438 0.86376 0.0
C1264 C 0.4382 0.98883 0.86968 0.0
C1265 C 0.41455 0.98539 0.87374 0.0
C1266 C 0.41823 0.99102 0.8897 0.0
C1267 C 0.43193 0.99571 0.89554 0.0
C1268 C 0.44177 0.9945 0.88571 0.0
C1269 C 0.40774 0.99161 0.90072 0.0
C1270 C 0.41006 0.00486 0.90557 0.0
C1271 C 0.39589 0.97924 0.90699 0.0
C1272 C 0.3929 0.96497 0.90217 0.0
C1273 C 0.40278 0.96071 0.90533 0.0
C1274 C 0.39991 0.94728 0.90058 0.0
C1275 C 0.38714 0.93797 0.89278 0.0
C1276 C 0.37719 0.94206 0.88977 0.0
C1277 C 0.38002 0.9555 0.89448 0.0
H1278 H 0.38494 0.92757 0.88911 0.0
H1279 H 0.41027 0.05775 0.9321 0.0
H1280 H 0.02765 0.37952 0.96465 0.0
H1281 H 0.03384 0.39615 0.94164 0.0
H1282 H 0.99034 0.3862 0.93931 0.0
H1283 H 0.98411 0.36973 0.96208 0.0
H1284 H 0.00182 0.38783 0.90848 0.0
H1285 H 0.01437 0.41493 0.95963 0.0
H1286 H 0.02731 0.42351 0.98586 0.0
H1287 H 0.06705 0.44132 0.95976 0.0
H1288 H 0.05431 0.43267 0.93339 0.0
H1289 H -0.00278 0.44376 0.8752 0.0
H1290 H -0.00285 0.42561 0.89236 0.0
H1291 H 0.04273 0.4463 0.88803 0.0
H1292 H 0.04293 0.46486 0.87123 0.0
H1293 H 0.03439 0.43886 0.91932 0.0
H1294 H 0.02168 0.41542 0.86755 0.0
H1295 H 0.00868 0.40706 0.84135 0.0
H1296 H 0.9696 0.3823 0.86799 0.0
H1297 H 0.98232 0.39067 0.89436 0.0
C1298 C 0.0194 0.38078 0.95909 0.0
C1299 C 0.00542 0.37339 0.96528 0.0
C1300 C 0.02295 0.3903 0.946 0.0
C1301 C 0.01255 0.39246 0.93884 0.0
C1302 C -0.00148 0.38469 0.94462 0.0
C1303 C 0.99501 0.37533 0.95773 0.0
C1304 C 0.01615 0.40326 0.92589 0.0
C1305 C 0.00894 0.39899 0.91081 0.0
C1306 C 0.02577 0.41778 0.92876 0.0
C1307 C 0.0334 0.423 0.94459 0.0
C1308 C 0.02587 0.42057 0.95951 0.0
C1309 C 0.03316 0.42547 0.97439 0.0
C1310 C 0.04799 0.43291 0.97448 0.0
C1311 C 0.05556 0.43552 0.95968 0.0
C1312 C 0.04831 0.43063 0.94476 0.0
C1313 C 0.00726 0.44452 0.87795 0.0
C1314 C 0.02009 0.4558 0.87188 0.0
C1315 C 0.00718 0.43402 0.88761 0.0
C1316 C 0.01992 0.43447 0.8913 0.0
C1317 C 0.03277 0.44569 0.88525 0.0
C1318 C 0.03285 0.45623 0.87556 0.0
C1319 C 0.01971 0.42347 0.90206 0.0
C1320 C 0.02753 0.42769 0.91674 0.0
C1321 C 0.01067 0.40889 0.89879 0.0
C1322 C 0.00296 0.40374 0.88295 0.0
C1323 C 0.0103 0.40827 0.86783 0.0
C1324 C 0.00298 0.40351 0.85294 0.0
C1325 C 0.98832 0.39417 0.853 0.0
C1326 C 0.98095 0.38954 0.86796 0.0
C1327 C 0.98822 0.39426 0.88288 0.0
H1328 H 0.98267 0.39051 0.84146 0.0
H1329 H 0.05362 0.4367 0.98602 0.0
H1330 H 0.61219 0.65072 0.96051 0.0
H1331 H 0.594 0.63871 0.93937 0.0
H1332 H 0.60312 0.60491 0.93768 0.0
H1333 H 0.62119 0.61675 0.95887 0.0
H1334 H 0.59411 0.62988 0.90763 0.0
H1335 H 0.57191 0.5739 0.93448 0.0
H1336 H 0.57008 0.56262 0.96132 0.0
H1337 H 0.57133 0.59771 0.98646 0.0
H1338 H 0.57295 0.6091 0.95978 0.0
H1339 H 0.54829 0.57778 0.85028 0.0
H1340 H 0.56686 0.59224 0.86999 0.0
H1341 H 0.53501 0.58446 0.90685 0.0
H1342 H 0.5164 0.56927 0.88754 0.0
H1343 H 0.55475 0.58138 0.91994 0.0
H1344 H 0.55452 0.61702 0.88626 0.0
H1345 H 0.55538 0.62867 0.86003 0.0
H1346 H 0.59696 0.6354 0.84988 0.0
H1347 H 0.59629 0.62368 0.876 0.0
C1348 C 0.61038 0.64077 0.95555 0.0
C1349 C 0.61803 0.63461 0.96147 0.0
C1350 C 0.60003 0.63396 0.94343 0.0
C1351 C 0.59711 0.62085 0.93711 0.0
C1352 C 0.60509 0.61493 0.94257 0.0
C1353 C 0.61542 0.62172 0.95466 0.0
C1354 C 0.58527 0.61301 0.9254 0.0
C1355 C 0.58549 0.61928 0.91029 0.0
C1356 C 0.57391 0.59928 0.92902 0.0
C1357 C 0.57269 0.59241 0.94513 0.0
C1358 C 0.57173 0.57918 0.94574 0.0
C1359 C 0.57074 0.57277 0.96092 0.0
C1360 C 0.57064 0.57946 0.97559 0.0
C1361 C 0.57146 0.59256 0.9751 0.0
C1362 C 0.57243 0.599 0.95995 0.0
C1363 C 0.54521 0.57905 0.86261 0.0
C1364 C 0.53081 0.5723 0.86731 0.0
C1365 C 0.55586 0.58749 0.87381 0.0
C1366 C 0.55234 0.58959 0.88986 0.0
C1367 C 0.53799 0.58303 0.89452 0.0
C1368 C 0.52734 0.57446 0.88339 0.0
C1369 C 0.56362 0.59815 0.90201 0.0
C1370 C 0.56333 0.59199 0.91723 0.0
C1371 C 0.57475 0.61206 0.89858 0.0
C1372 C 0.57531 0.61938 0.88304 0.0
C1373 C 0.56382 0.62094 0.87841 0.0
C1374 C 0.56428 0.62756 0.86356 0.0
C1375 C 0.57621 0.63275 0.85328 0.0
C1376 C 0.58773 0.63138 0.85786 0.0
C1377 C 0.58733 0.62477 0.8727 0.0
H1378 H 0.57653 0.63785 0.84178 0.0
H1379 H 0.56989 0.57449 0.98733 0.0
H1380 H 0.97908 0.60837 0.97006 0.0
H1381 H 0.98556 0.59746 0.9482 0.0
H1382 H 0.02746 0.63435 0.9456 0.0
H1383 H 0.02096 0.64558 0.96756 0.0
H1384 H 0.0166 0.62301 0.91451 0.0
H1385 H 0.02382 0.60701 0.96563 0.0
H1386 H 0.01801 0.59774 0.99397 0.0
H1387 H 0.98247 0.55922 0.97608 0.0
H1388 H 0.9879 0.56839 0.94763 0.0
H1389 H 0.03828 0.57832 0.87125 0.0
H1390 H 0.03732 0.59506 0.89057 0.0
H1391 H 0.99266 0.56607 0.89851 0.0
H1392 H 0.99334 0.54957 0.87884 0.0
H1393 H 0.00942 0.57581 0.92782 0.0
H1394 H 0.00159 0.59368 0.87678 0.0
H1395 H 0.00803 0.60351 0.84869 0.0
H1396 H 0.04641 0.63898 0.86703 0.0
H1397 H 0.04029 0.62925 0.89522 0.0
C1398 C 0.98967 0.61426 0.96483 0.0
C1399 C -0.00043 0.62779 0.97073 0.0
C1400 C 0.99335 0.60798 0.95232 0.0
C1401 C 0.00707 0.61497 0.94552 0.0
C1402 C 0.01684 0.62875 0.95078 0.0
C1403 C 0.01311 0.63513 0.96333 0.0
C1404 C 0.01115 0.60742 0.9335 0.0
C1405 C 0.01532 0.61282 0.91749 0.0
C1406 C 0.00946 0.59412 0.93741 0.0
C1407 C 0.00623 0.58844 0.95449 0.0
C1408 C 0.01471 0.5966 0.96774 0.0
C1409 C 0.01148 0.59136 0.98383 0.0
C1410 C -0.00013 0.5779 0.98683 0.0
C1411 C 0.99146 0.56965 0.97374 0.0
C1412 C 0.99462 0.57486 0.95762 0.0
C1413 C 0.02819 0.57562 0.87685 0.0
C1414 C 0.01591 0.5625 0.8736 0.0
C1415 C 0.02769 0.58517 0.88794 0.0
C1416 C 0.01494 0.58173 0.89601 0.0
C1417 C 0.00263 0.56884 0.8925 0.0
C1418 C 0.00307 0.55939 0.88132 0.0
C1419 C 0.01438 0.59116 0.90871 0.0
C1420 C 0.01092 0.5861 0.92491 0.0
C1421 C 0.01692 0.6048 0.90499 0.0
C1422 C 0.02058 0.61065 0.88806 0.0
C1423 C 0.01148 0.6035 0.8748 0.0
C1424 C 0.01505 0.60907 0.85886 0.0
C1425 C 0.02765 0.62184 0.85606 0.0
C1426 C 0.03667 0.62908 0.86921 0.0
C1427 C 0.03315 0.62355 0.88516 0.0
H1428 H 0.03039 0.62613 0.84372 0.0
H1429 H -0.00261 0.57385 -0.0007 0.0
H1430 H 0.35472 0.39111 0.96578 0.0
H1431 H 0.36592 0.40858 0.94381 0.0
H1432 H 0.40037 0.40019 0.94139 0.0
H1433 H 0.38935 0.38286 0.96353 0.0
H1434 H 0.41006 0.42798 0.94123 0.0
H1435 H 0.37439 0.38721 0.91222 0.0
H1436 H 0.35019 0.36754 0.90662 0.0
H1437 H 0.33596 0.39699 0.89936 0.0
H1438 H 0.36005 0.41684 0.90514 0.0
H1439 H 0.44138 0.46011 0.86574 0.0
H1440 H 0.42851 0.44246 0.887 0.0
H1441 H 0.39638 0.45414 0.88844 0.0
H1442 H 0.40905 0.47165 0.86671 0.0
H1443 H 0.385 0.42529 0.88939 0.0
H1444 H 0.42096 0.4661 0.91767 0.0
H1445 H 0.44526 0.48567 0.92304 0.0
H1446 H 0.45898 0.45598 0.9316 0.0
H1447 H 0.4348 0.43622 0.92604 0.0
C1448 C 0.36468 0.39297 0.96055 0.0
C1449 C 0.37115 0.3856 0.96636 0.0
C1450 C 0.37103 0.40291 0.94796 0.0
C1451 C 0.3839 0.40557 0.94085 0.0
C1452 C 0.39043 0.39829 0.9467 0.0
C1453 C 0.3841 0.38837 0.95932 0.0
C1454 C 0.3907 0.41611 0.9275 0.0
C1455 C 0.40464 0.42729 0.92981 0.0
C1456 C 0.38348 0.41541 0.9128 0.0
C1457 C 0.36899 0.4035 0.90929 0.0
C1458 C 0.36608 0.38949 0.90957 0.0
C1459 C 0.35238 0.37831 0.90633 0.0
C1460 C 0.34153 0.38101 0.90269 0.0
C1461 C 0.34437 0.39491 0.90222 0.0
C1462 C 0.35804 0.40613 0.90546 0.0
C1463 C 0.43146 0.45878 0.87035 0.0
C1464 C 0.42622 0.46727 0.86452 0.0
C1465 C 0.42419 0.44879 0.88263 0.0
C1466 C 0.41161 0.44714 0.88944 0.0
C1467 C 0.40613 0.45531 0.88338 0.0
C1468 C 0.41341 0.46536 0.87107 0.0
C1469 C 0.40438 0.43704 0.90308 0.0
C1470 C 0.39038 0.42598 0.90084 0.0
C1471 C 0.41155 0.43782 0.91786 0.0
C1472 C 0.42609 0.44968 0.92129 0.0
C1473 C 0.42918 0.46374 0.92057 0.0
C1474 C 0.44293 0.47487 0.92367 0.0
C1475 C 0.45367 0.47207 0.92762 0.0
C1476 C 0.45066 0.45813 0.92852 0.0
C1477 C 0.43693 0.44697 0.92541 0.0
H1478 H 0.4643 0.4807 0.93002 0.0
H1479 H 0.33094 0.37234 0.90019 0.0
H1480 H 0.62894 0.01702 0.97004 0.0
H1481 H 0.61085 0.01082 0.94921 0.0
H1482 H 0.60001 0.96728 0.95133 0.0
H1483 H 0.61849 0.9735 0.97216 0.0
H1484 H 0.59938 0.97542 0.91964 0.0
H1485 H 0.57938 0.97708 0.97128 0.0
H1486 H 0.5783 0.98686 0.99833 0.0
H1487 H 0.58064 0.02277 0.97457 0.0
H1488 H 0.58195 0.0133 0.94736 0.0
H1489 H 0.5326 0.95679 0.87957 0.0
H1490 H 0.55023 0.95781 0.89885 0.0
H1491 H 0.57104 0.00323 0.89971 0.0
H1492 H 0.55391 0.0024 0.88006 0.0
H1493 H 0.56433 0.99037 0.93126 0.0
H1494 H 0.58617 0.98883 0.8796 0.0
H1495 H 0.58678 0.97835 0.85285 0.0
H1496 H 0.5797 0.94081 0.87739 0.0
H1497 H 0.57885 0.951 0.90429 0.0
C1498 C 0.62279 0.00612 0.96607 0.0
C1499 C 0.62504 0.99572 0.97294 0.0
C1500 C 0.61241 0.00258 0.95415 0.0
C1501 C 0.60385 0.98853 0.94899 0.0
C1502 C 0.60644 0.97817 0.95524 0.0
C1503 C 0.61698 0.98174 0.96714 0.0
C1504 C 0.59195 0.98483 0.93749 0.0
C1505 C 0.59155 0.97843 0.9223 0.0
C1506 C 0.58174 0.9888 0.94093 0.0
C1507 C 0.58085 0.99451 0.95727 0.0
C1508 C 0.57976 0.9871 0.97182 0.0
C1509 C 0.57909 0.99259 0.98718 0.0
C1510 C 0.57943 0.00544 0.98817 0.0
C1511 C 0.58039 0.01282 0.97378 0.0
C1512 C 0.58107 0.00739 0.95838 0.0
C1513 C 0.54107 0.96701 0.88362 0.0
C1514 C 0.54172 0.97951 0.87835 0.0
C1515 C 0.55109 0.96756 0.89469 0.0
C1516 C 0.56188 0.98059 0.90073 0.0
C1517 C 0.56272 0.99306 0.89529 0.0
C1518 C 0.55283 0.99255 0.88413 0.0
C1519 C 0.57205 0.98139 0.91325 0.0
C1520 C 0.57206 0.98719 0.9287 0.0
C1521 C 0.58173 0.97671 0.91009 0.0
C1522 C 0.58227 0.9706 0.89393 0.0
C1523 C 0.58461 0.97828 0.87928 0.0
C1524 C 0.58503 0.97241 0.86409 0.0
C1525 C 0.58323 0.9589 0.86341 0.0
C1526 C 0.58106 0.95126 0.87793 0.0
C1527 C 0.58062 0.95708 0.89315 0.0
H1528 H 0.58357 0.95437 0.85164 0.0
H1529 H 0.57891 0.00967 8e-05 0.0
H1530 H 0.64778 0.02479 0.05606 0.0
H1531 H 0.63376 0.02879 0.07676 0.0
H1532 H 0.60504 0.9838 0.08052 0.0
H1533 H 0.61867 0.97982 0.05941 0.0
H1534 H 0.59038 0.99569 0.0782 0.0
H1535 H 0.62994 0.00421 0.11146 0.0
H1536 H 0.65519 0.01525 0.11897 0.0
H1537 H 0.65891 0.05604 0.12003 0.0
H1538 H 0.63373 0.04526 0.11232 0.0
H1539 H 0.57138 0.01157 0.16492 0.0
H1540 H 0.58777 0.00883 0.14671 0.0
H1541 H 0.57398 0.02343 0.10557 0.0
H1542 H 0.55721 0.0257 0.12354 0.0
H1543 H 0.60997 0.02619 0.12769 0.0
H1544 H 0.57232 0.00466 0.07149 0.0
H1545 H 0.54663 0.99135 0.06576 0.0
H1546 H 0.53842 0.97242 0.11378 0.0
H1547 H 0.56406 0.98545 0.1197 0.0
C1548 C 0.63856 0.01576 0.06146 0.0
C1549 C 0.63428 0.002 0.0561 0.0
C1550 C 0.63058 0.01805 0.07333 0.0
C1551 C 0.61837 0.00659 0.08032 0.0
C1552 C 0.61436 0.99282 0.07527 0.0
C1553 C 0.62218 0.99055 0.06324 0.0
C1554 C 0.6093 0.00888 0.09223 0.0
C1555 C 0.59471 0.00236 0.08902 0.0
C1556 C 0.61485 0.01744 0.10648 0.0
C1557 C 0.62998 0.02394 0.11116 0.0
C1558 C 0.63617 0.01555 0.11318 0.0
C1559 C 0.65047 0.02175 0.11749 0.0
C1560 C 0.65866 0.03634 0.11994 0.0
C1561 C 0.65256 0.04474 0.11811 0.0
C1562 C 0.63827 0.03859 0.11379 0.0
C1563 C 0.5718 0.01414 0.15198 0.0
C1564 C 0.56288 0.01872 0.14565 0.0
C1565 C 0.58128 0.01271 0.14163 0.0
C1566 C 0.58198 0.01577 0.12475 0.0
C1567 C 0.57348 0.02084 0.11852 0.0
C1568 C 0.56398 0.02224 0.12884 0.0
C1569 C 0.59115 0.01307 0.11354 0.0
C1570 C 0.60572 0.01954 0.11685 0.0
C1571 C 0.58554 0.00415 0.0996 0.0
C1572 C 0.5701 0.99616 0.09609 0.0
C1573 C 0.56503 0.99763 0.0808 0.0
C1574 C 0.55048 0.99013 0.07752 0.0
C1575 C 0.5409 0.98108 0.08942 0.0
C1576 C 0.54585 0.97947 0.1046 0.0
C1577 C 0.56039 0.98692 0.10793 0.0
H1578 H 0.52964 0.9753 0.08686 0.0
H1579 H 0.66972 0.04112 0.12328 0.0
H1580 H 0.01992 0.63745 0.05249 0.0
H1581 H 0.01811 0.62043 0.07296 0.0
H1582 H 0.97325 0.60477 0.07837 0.0
H1583 H 0.97507 0.62207 0.05816 0.0
H1584 H 0.98469 0.60629 0.10759 0.0
H1585 H 0.98546 0.58707 0.05488 0.0
H1586 H 0.99431 0.58661 0.02693 0.0
H1587 H 0.03327 0.59304 0.04729 0.0
H1588 H 0.02474 0.59376 0.07535 0.0
H1589 H 0.96969 0.54055 0.14405 0.0
H1590 H 0.97022 0.55848 0.12588 0.0
H1591 H 0.01589 0.5796 0.12355 0.0
H1592 H 0.01555 0.56205 0.14211 0.0
H1593 H 0.0028 0.57446 0.0926 0.0
H1594 H 0.00135 0.59387 0.14564 0.0
H1595 H 0.99148 0.59325 0.17328 0.0
H1596 H 0.95231 0.58503 0.15163 0.0
H1597 H 0.96189 0.58539 0.12384 0.0
C1598 C 0.00968 0.63044 0.05811 0.0
C1599 C -0.00239 0.63101 0.05364 0.0
C1600 C 0.00865 0.62067 0.06975 0.0
C1601 C 0.99549 0.61113 0.07695 0.0
C1602 C 0.9835 0.61199 0.07291 0.0
C1603 C 0.98455 0.62186 0.06136 0.0
C1604 C 0.99426 0.60013 0.08844 0.0
C1605 C 0.98846 0.5992 0.10423 0.0
C1606 C -0.00068 0.59096 0.08411 0.0
C1607 C 0.00451 0.5906 0.06722 0.0
C1608 C 0.99596 0.58851 0.05339 0.0
C1609 C 0.00091 0.58818 0.03753 0.0
C1610 C 0.01435 0.58982 0.03534 0.0
C1611 C 0.02287 0.59179 0.04901 0.0
C1612 C 0.01798 0.59215 0.06489 0.0
C1613 C 0.97987 0.54914 0.13992 0.0
C1614 C 0.99258 0.54981 0.14451 0.0
C1615 C 0.98014 0.55933 0.12948 0.0
C1616 C 0.99309 0.57034 0.12341 0.0
C1617 C 0.00578 0.57113 0.12805 0.0
C1618 C 0.00555 0.56103 0.13859 0.0
C1619 C 0.99345 0.5808 0.11176 0.0
C1620 C -0.00098 0.58156 0.09591 0.0
C1621 C 0.98803 0.58967 0.11598 0.0
C1622 C 0.98228 0.58951 0.13267 0.0
C1623 C 0.99059 0.5918 0.14677 0.0
C1624 C 0.98506 0.59153 0.16247 0.0
C1625 C 0.97126 0.58907 0.16421 0.0
C1626 C 0.96299 0.58692 0.15026 0.0
C1627 C 0.96847 0.58716 0.13453 0.0
H1628 H 0.967 0.58886 0.17638 0.0
H1629 H 0.01816 0.58951 0.02307 0.0
H1630 H 0.3699 0.38288 0.06632 0.0
H1631 H 0.38643 0.38894 0.08919 0.0
H1632 H 0.41045 0.37484 0.06063 0.0
H1633 H 0.39318 0.36774 0.03822 0.0
H1634 H 0.41189 0.36923 0.09054 0.0
H1635 H 0.41948 0.41112 0.06369 0.0
H1636 H 0.41314 0.42796 0.05244 0.0
H1637 H 0.40045 0.43377 0.10074 0.0
H1638 H 0.40656 0.41682 0.11224 0.0
H1639 H 0.48034 0.42221 0.12462 0.0
H1640 H 0.45978 0.40751 0.10704 0.0
H1641 H 0.43165 0.40447 0.14646 0.0
H1642 H 0.4522 0.41881 0.16426 0.0
H1643 H 0.43172 0.41775 0.1128 0.0
H1644 H 0.42753 0.37644 0.13897 0.0
H1645 H 0.43659 0.36116 0.14807 0.0
H1646 H 0.44648 0.35646 0.09791 0.0
H1647 H 0.43767 0.3719 0.08853 0.0
C1648 C 0.37862 0.38092 0.06506 0.0
C1649 C 0.38042 0.37501 0.05053 0.0
C1650 C 0.38812 0.38446 0.07807 0.0
C1651 C 0.39999 0.3828 0.07647 0.0
C1652 C 0.40144 0.37632 0.06216 0.0
C1653 C 0.39163 0.37231 0.04935 0.0
C1654 C 0.41121 0.38847 0.08931 0.0
C1655 C 0.41628 0.37987 0.09529 0.0
C1656 C 0.41697 0.40236 0.09565 0.0
C1657 C 0.41333 0.41259 0.08879 0.0
C1658 C 0.41525 0.41592 0.07189 0.0
C1659 C 0.41171 0.42549 0.06547 0.0
C1660 C 0.40636 0.4319 0.07586 0.0
C1661 C 0.40457 0.42878 0.0927 0.0
C1662 C 0.40808 0.4192 0.09918 0.0
C1663 C 0.46974 0.41802 0.12964 0.0
C1664 C 0.46775 0.42151 0.14573 0.0
C1665 C 0.45805 0.40965 0.11964 0.0
C1666 C 0.44426 0.40491 0.12553 0.0
C1667 C 0.44224 0.40795 0.14181 0.0
C1668 C 0.45392 0.41608 0.15194 0.0
C1669 C 0.43222 0.39849 0.11398 0.0
C1670 C 0.42714 0.40704 0.10815 0.0
C1671 C 0.42682 0.38478 0.10746 0.0
C1672 C 0.43207 0.37545 0.11307 0.0
C1673 C 0.43177 0.37227 0.1299 0.0
C1674 C 0.43683 0.36355 0.1351 0.0
C1675 C 0.44214 0.35787 0.12358 0.0
C1676 C 0.44237 0.36088 0.10682 0.0
C1677 C 0.43734 0.3696 0.10155 0.0
H1678 H 0.44605 0.35112 0.12764 0.0
H1679 H 0.40362 0.4393 0.07087 0.0
H1680 H 0.63297 0.68209 0.38753 0.0
H1681 H 0.62741 0.69418 0.40922 0.0
H1682 H 0.67108 0.72809 0.40922 0.0
H1683 H 0.67673 0.71604 0.38773 0.0
H1684 H 0.66086 0.72057 0.44024 0.0
H1685 H 0.64581 0.73148 0.38941 0.0
H1686 H 0.63235 0.72577 0.36347 0.0
H1687 H 0.59316 0.70339 0.39058 0.0
H1688 H 0.60641 0.70882 0.41668 0.0
H1689 H 0.65858 0.77767 0.47632 0.0
H1690 H 0.66104 0.7617 0.45741 0.0
H1691 H 0.61639 0.73127 0.46271 0.0
H1692 H 0.61384 0.7472 0.48184 0.0
H1693 H 0.62502 0.73463 0.43058 0.0
H1694 H 0.64019 0.72566 0.48175 0.0
H1695 H 0.6538 0.73179 0.5076 0.0
H1696 H 0.69282 0.75062 0.47995 0.0
H1697 H 0.67946 0.7448 0.45393 0.0
C1698 C 0.64139 0.69208 0.39222 0.0
C1699 C 0.65528 0.69814 0.38588 0.0
C1700 C 0.63819 0.699 0.40456 0.0
C1701 C 0.64881 0.7121 0.41071 0.0
C1702 C 0.66273 0.71799 0.40465 0.0
C1703 C 0.66593 0.71111 0.39232 0.0
C1704 C 0.64548 0.71987 0.42327 0.0
C1705 C 0.6531 0.72373 0.43809 0.0
C1706 C 0.63507 0.72365 0.42064 0.0
C1707 C 0.6271 0.72041 0.40497 0.0
C1708 C 0.63433 0.72524 0.38983 0.0
C1709 C 0.62674 0.72207 0.3751 0.0
C1710 C 0.61191 0.71418 0.37537 0.0
C1711 C 0.60464 0.70948 0.39038 0.0
C1712 C 0.61219 0.7126 0.40515 0.0
C1713 C 0.6493 0.76751 0.47364 0.0
C1714 C 0.63603 0.76366 0.4807 0.0
C1715 C 0.65072 0.7584 0.4628 0.0
C1716 C 0.63894 0.74521 0.45884 0.0
C1717 C 0.62562 0.74139 0.46564 0.0
C1718 C 0.62418 0.75052 0.47652 0.0
C1719 C 0.6406 0.73556 0.44742 0.0
C1720 C 0.63266 0.73133 0.43283 0.0
C1721 C 0.65073 0.73144 0.45025 0.0
C1722 C 0.65881 0.73488 0.46588 0.0
C1723 C 0.65168 0.7312 0.48118 0.0
C1724 C 0.65935 0.73461 0.49586 0.0
C1725 C 0.67417 0.74162 0.49542 0.0
C1726 C 0.68134 0.7452 0.48028 0.0
C1727 C 0.67372 0.74183 0.46555 0.0
H1728 H 0.68008 0.74425 0.5068 0.0
H1729 H 0.60605 0.71174 0.36396 0.0
H1730 H 0.27099 0.95719 0.39452 0.0
H1731 H 0.26399 0.94064 0.41739 0.0
H1732 H 0.30123 0.93736 0.40947 0.0
H1733 H 0.30839 0.95402 0.38643 0.0
H1734 H 0.27649 0.91129 0.41286 0.0
H1735 H 0.30037 0.95481 0.44225 0.0
H1736 H 0.30637 0.97897 0.44982 0.0
H1737 H 0.26346 0.96342 0.46597 0.0
H1738 H 0.25714 0.93918 0.45827 0.0
H1739 H 0.25398 0.86616 0.48338 0.0
H1740 H 0.26954 0.88614 0.4655 0.0
H1741 H 0.2391 0.90005 0.46682 0.0
H1742 H 0.22384 0.88051 0.48505 0.0
H1743 H 0.26526 0.92207 0.46856 0.0
H1744 H 0.24054 0.87992 0.43471 0.0
H1745 H 0.23364 0.85572 0.42613 0.0
H1746 H 0.27742 0.86874 0.41772 0.0
H1747 H 0.28459 0.893 0.42646 0.0
C1748 C 0.27776 0.95302 0.39764 0.0
C1749 C 0.29026 0.95694 0.38863 0.0
C1750 C 0.27377 0.94361 0.41079 0.0
C1751 C 0.28217 0.93789 0.41523 0.0
C1752 C 0.29465 0.94172 0.40627 0.0
C1753 C 0.29872 0.95125 0.39315 0.0
C1754 C 0.27747 0.92748 0.42883 0.0
C1755 C 0.27435 0.91372 0.42517 0.0
C1756 C 0.27448 0.93062 0.44479 0.0
C1757 C 0.27826 0.94518 0.44959 0.0
C1758 C 0.29218 0.95655 0.44731 0.0
C1759 C 0.29565 0.97026 0.45164 0.0
C1760 C 0.2853 0.97273 0.45835 0.0
C1761 C 0.27147 0.96149 0.46077 0.0
C1762 C 0.26794 0.94776 0.45645 0.0
C1763 C 0.25074 0.87363 0.48007 0.0
C1764 C 0.2376 0.87166 0.48545 0.0
C1765 C 0.25958 0.88497 0.46976 0.0
C1766 C 0.25538 0.89448 0.46462 0.0
C1767 C 0.24255 0.89283 0.47056 0.0
C1768 C 0.23376 0.88157 0.48085 0.0
C1769 C 0.26386 0.90577 0.45245 0.0
C1770 C 0.2677 0.91971 0.45638 0.0
C1771 C 0.2674 0.90277 0.43669 0.0
C1772 C 0.26311 0.88821 0.43144 0.0
C1773 C 0.2487 0.87759 0.43116 0.0
C1774 C 0.24474 0.86387 0.42625 0.0
C1775 C 0.25509 0.86068 0.42144 0.0
C1776 C 0.26942 0.87122 0.42149 0.0
C1777 C 0.27343 0.88495 0.42642 0.0
H1778 H 0.252 0.85005 0.41763 0.0
H1779 H 0.288 0.98335 0.46168 0.0
H1780 H 0.04292 0.35378 0.38888 0.0
H1781 H 0.05985 0.36305 0.41169 0.0
H1782 H 0.0783 0.33859 0.39469 0.0
H1783 H 0.06113 0.32892 0.3724 0.0
H1784 H 0.07461 0.33554 0.42589 0.0
H1785 H 0.09434 0.3757 0.38929 0.0
H1786 H 0.09417 0.39433 0.3727 0.0
H1787 H 0.08511 0.41094 0.41617 0.0
H1788 H 0.08505 0.39229 0.43299 0.0
H1789 H 0.14395 0.37009 0.4561 0.0
H1790 H 0.12505 0.3661 0.43718 0.0
H1791 H 0.10336 0.37436 0.47636 0.0
H1792 H 0.12204 0.37786 0.49572 0.0
H1793 H 0.10661 0.38651 0.43775 0.0
H1794 H 0.08798 0.34535 0.47412 0.0
H1795 H 0.0906 0.32739 0.48917 0.0
H1796 H 0.09975 0.3133 0.44369 0.0
H1797 H 0.09742 0.33135 0.42842 0.0
C1798 C 0.05065 0.35046 0.38999 0.0
C1799 C 0.05066 0.34058 0.3789 0.0
C1800 C 0.06035 0.3558 0.40299 0.0
C1801 C 0.07042 0.35159 0.40488 0.0
C1802 C 0.07058 0.34193 0.39359 0.0
C1803 C 0.06077 0.33643 0.38081 0.0
C1804 C 0.08056 0.35675 0.41883 0.0
C1805 C 0.08156 0.34671 0.42842 0.0
C1806 C 0.0895 0.37131 0.42246 0.0
C1807 C 0.08952 0.3825 0.41236 0.0
C1808 C 0.09219 0.38325 0.39528 0.0
C1809 C 0.09216 0.39383 0.38584 0.0
C1810 C 0.08958 0.40378 0.39337 0.0
C1811 C 0.08707 0.40321 0.41035 0.0
C1812 C 0.08708 0.39264 0.41985 0.0
C1813 C 0.13519 0.3711 0.46075 0.0
C1814 C 0.13435 0.374 0.47751 0.0
C1815 C 0.1245 0.36898 0.44987 0.0
C1816 C 0.11286 0.3699 0.45545 0.0
C1817 C 0.11235 0.37369 0.47188 0.0
C1818 C 0.12302 0.37568 0.48289 0.0
C1819 C 0.10064 0.36529 0.44439 0.0
C1820 C 0.09934 0.37538 0.43536 0.0
C1821 C 0.09152 0.3508 0.44106 0.0
C1822 C 0.09265 0.33977 0.45017 0.0
C1823 C 0.09067 0.3385 0.46736 0.0
C1824 C 0.09208 0.32829 0.47592 0.0
C1825 C 0.09537 0.31923 0.4674 0.0
C1826 C 0.09722 0.32033 0.45028 0.0
C1827 C 0.09584 0.33053 0.44167 0.0
H1828 H 0.09647 0.31134 0.47405 0.0
H1829 H 0.08957 0.41196 0.38604 0.0
H1830 H 0.05108 0.34343 0.29005 0.0
H1831 H 0.06038 0.33627 0.26677 0.0
H1832 H 0.02611 0.29323 0.27226 0.0
H1833 H 0.01675 0.30029 0.2956 0.0
H1834 H 0.05203 0.29533 0.27026 0.0
H1835 H 0.02616 0.31186 0.24002 0.0
H1836 H 0.0185 0.3286 0.23233 0.0
H1837 H 0.0612 0.35916 0.21813 0.0
H1838 H 0.06917 0.34268 0.22598 0.0
H1839 H 0.07762 0.2751 0.20103 0.0
H1840 H 0.0609 0.27856 0.21783 0.0
H1841 H 0.08992 0.3236 0.21727 0.0
H1842 H 0.10638 0.32025 0.20006 0.0
H1843 H 0.06309 0.31778 0.21501 0.0
H1844 H 0.08947 0.30324 0.24913 0.0
H1845 H 0.09796 0.28735 0.25775 0.0
H1846 H 0.05494 0.25388 0.26541 0.0
H1847 H 0.0462 0.26953 0.25661 0.0
C1848 C 0.04547 0.33246 0.28622 0.0
C1849 C 0.03322 0.32241 0.29467 0.0
C1850 C 0.05074 0.32841 0.27287 0.0
C1851 C 0.04385 0.31425 0.26772 0.0
C1852 C 0.03154 0.30422 0.27602 0.0
C1853 C 0.02622 0.30828 0.28933 0.0
C1854 C 0.05003 0.30982 0.25433 0.0
C1855 C 0.05416 0.29999 0.25805 0.0
C1856 C 0.05304 0.31613 0.23855 0.0
C1857 C 0.04828 0.32606 0.2337 0.0
C1858 C 0.03394 0.32219 0.23538 0.0
C1859 C 0.02954 0.33162 0.23097 0.0
C1860 C 0.03936 0.34494 0.22477 0.0
C1861 C 0.0536 0.34884 0.22294 0.0
C1862 C 0.05807 0.33945 0.22734 0.0
C1863 C 0.08028 0.28575 0.20421 0.0
C1864 C 0.0934 0.2974 0.19945 0.0
C1865 C 0.07078 0.2877 0.21389 0.0
C1866 C 0.07429 0.30132 0.21901 0.0
C1867 C 0.08703 0.31299 0.21352 0.0
C1868 C 0.09649 0.31105 0.20384 0.0
C1869 C 0.0653 0.30348 0.23105 0.0
C1870 C 0.06068 0.3129 0.22711 0.0
C1871 C 0.06193 0.29689 0.2467 0.0
C1872 C 0.06718 0.28749 0.25202 0.0
C1873 C 0.08182 0.29245 0.25253 0.0
C1874 C 0.08668 0.2835 0.25746 0.0
C1875 C 0.07699 0.2696 0.26207 0.0
C1876 C 0.06243 0.26464 0.2618 0.0
C1877 C 0.05752 0.27354 0.25684 0.0
H1878 H 0.08077 0.26268 0.2659 0.0
H1879 H 0.03593 0.35223 0.22137 0.0
H1880 H 0.69454 0.71545 0.30667 0.0
H1881 H 0.70557 0.7351 0.28699 0.0
H1882 H 0.66454 0.72995 0.27699 0.0
H1883 H 0.65356 0.71069 0.29677 0.0
H1884 H 0.70305 0.73886 0.25464 0.0
H1885 H 0.66685 0.76112 0.27376 0.0
H1886 H 0.65394 0.76198 0.29843 0.0
H1887 H 0.68298 0.7576 0.32963 0.0
H1888 H 0.69618 0.75692 0.30517 0.0
H1889 H 0.70275 0.78554 0.19452 0.0
H1890 H 0.69855 0.76692 0.21409 0.0
H1891 H 0.71636 0.7979 0.25314 0.0
H1892 H 0.72006 0.8164 0.2337 0.0
H1893 H 0.693 0.77765 0.26324 0.0
H1894 H 0.73311 0.77988 0.23716 0.0
H1895 H 0.74818 0.78025 0.21414 0.0
H1896 H 0.71582 0.73851 0.19978 0.0
H1897 H 0.70047 0.73796 0.22258 0.0
C1898 C 0.68787 0.71845 0.30016 0.0
C1899 C 0.67321 0.71164 0.30346 0.0
C1900 C 0.69418 0.72965 0.28891 0.0
C1901 C 0.68592 0.73417 0.28077 0.0
C1902 C 0.67118 0.72687 0.28341 0.0
C1903 C 0.66492 0.71583 0.29472 0.0
C1904 C 0.6926 0.74688 0.27006 0.0
C1905 C 0.70092 0.74739 0.25651 0.0
C1906 C 0.69016 0.7582 0.2728 0.0
C1907 C 0.68243 0.75886 0.28761 0.0
C1908 C 0.67052 0.76042 0.28589 0.0
C1909 C 0.66315 0.76086 0.29983 0.0
C1910 C 0.66761 0.75981 0.31558 0.0
C1911 C 0.6795 0.75837 0.31742 0.0
C1912 C 0.68693 0.75794 0.30352 0.0
C1913 C 0.70601 0.78837 0.20723 0.0
C1914 C 0.71167 0.80237 0.21265 0.0
C1915 C 0.70365 0.77775 0.21841 0.0
C1916 C 0.7072 0.78098 0.23513 0.0
C1917 C 0.71346 0.7951 0.24035 0.0
C1918 C 0.71559 0.80567 0.22925 0.0
C1919 C 0.7032 0.76955 0.24745 0.0
C1920 C 0.69531 0.76925 0.26135 0.0
C1921 C 0.70639 0.75866 0.24524 0.0
C1922 C 0.71559 0.75893 0.23152 0.0
C1923 C 0.72916 0.77082 0.22903 0.0
C1924 C 0.73776 0.77105 0.21603 0.0
C1925 C 0.73295 0.75942 0.20549 0.0
C1926 C 0.71953 0.74752 0.20795 0.0
C1927 C 0.71088 0.74723 0.22093 0.0
H1928 H 0.73962 0.75963 0.19543 0.0
H1929 H 0.66188 0.76013 0.32636 0.0
H1930 H 0.28691 0.98591 0.29382 0.0
H1931 H 0.26986 0.97453 0.27143 0.0
H1932 H 0.25972 0.93363 0.2897 0.0
H1933 H 0.2772 0.94496 0.31152 0.0
H1934 H 0.26152 0.93325 0.25846 0.0
H1935 H 0.23792 0.94889 0.296 0.0
H1936 H 0.23516 0.96616 0.31272 0.0
H1937 H 0.23846 0.98954 0.26902 0.0
H1938 H 0.24142 0.97248 0.25206 0.0
H1939 H 0.1921 0.88871 0.22846 0.0
H1940 H 0.21137 0.9043 0.24677 0.0
H1941 H 0.22634 0.93781 0.21105 0.0
H1942 H 0.20748 0.92203 0.1921 0.0
H1943 H 0.22336 0.94398 0.24805 0.0
H1944 H 0.24496 0.92574 0.21073 0.0
H1945 H 0.24582 0.90672 0.19548 0.0
H1946 H 0.24429 0.88639 0.24113 0.0
H1947 H 0.24319 0.90518 0.25664 0.0
C1948 C 0.28103 0.97449 0.29301 0.0
C1949 C 0.28335 0.96631 0.30441 0.0
C1950 C 0.27124 0.96799 0.28027 0.0
C1951 C 0.26332 0.95319 0.27898 0.0
C1952 C 0.2657 0.94505 0.29037 0.0
C1953 C 0.27567 0.95154 0.30288 0.0
C1954 C 0.25263 0.94606 0.26576 0.0
C1955 C 0.25315 0.93558 0.25631 0.0
C1956 C 0.24184 0.94926 0.26262 0.0
C1957 C 0.24006 0.95951 0.27279 0.0
C1958 C 0.23816 0.95777 0.28997 0.0
C1959 C 0.23655 0.96751 0.29949 0.0
C1960 C 0.23668 0.97897 0.29195 0.0
C1961 C 0.23839 0.98068 0.27486 0.0
C1962 C 0.24003 0.97098 0.26528 0.0
C1963 C 0.19955 0.89932 0.22432 0.0
C1964 C 0.19831 0.90401 0.20864 0.0
C1965 C 0.21048 0.90825 0.2349 0.0
C1966 C 0.22025 0.92212 0.23018 0.0
C1967 C 0.21883 0.9271 0.21487 0.0
C1968 C 0.208 0.91808 0.20411 0.0
C1969 C 0.23222 0.93113 0.24117 0.0
C1970 C 0.2319 0.94188 0.25015 0.0
C1971 C 0.24305 0.92803 0.24413 0.0
C1972 C 0.24387 0.9168 0.23483 0.0
C1973 C 0.24468 0.91715 0.21751 0.0
C1974 C 0.24524 0.90642 0.20882 0.0
C1975 C 0.24508 0.89533 0.21732 0.0
C1976 C 0.2444 0.89497 0.23455 0.0
C1977 C 0.24383 0.90567 0.2433 0.0
H1978 H 0.24551 0.88703 0.21057 0.0
H1979 H 0.23542 0.98649 0.29934 0.0
H1980 H 0.69673 0.96841 0.31124 0.0
H1981 H 0.70728 0.9617 0.28877 0.0
H1982 H 0.6682 0.94479 0.26144 0.0
H1983 H 0.65741 0.95048 0.28444 0.0
H1984 H 0.6753 0.92699 0.25992 0.0
H1985 H 0.70183 0.97678 0.25083 0.0
H1986 H 0.7172 0.00196 0.25785 0.0
H1987 H 0.75066 0.99445 0.27134 0.0
H1988 H 0.73543 0.96919 0.2646 0.0
H1989 H 0.70235 0.91508 0.18605 0.0
H1990 H 0.69769 0.93021 0.2043 0.0
H1991 H 0.72315 0.9267 0.24216 0.0
H1992 H 0.72747 0.91122 0.22412 0.0
H1993 H 0.72385 0.956 0.23661 0.0
H1994 H 0.69414 0.90489 0.24808 0.0
H1995 H 0.67853 0.88046 0.2384 0.0
H1996 H 0.65023 0.89231 0.21732 0.0
H1997 H 0.66586 0.9169 0.22661 0.0
C1998 C 0.69052 0.9634 0.30031 0.0
C1999 C 0.67628 0.95987 0.29951 0.0
C2000 C 0.69657 0.95967 0.2874 0.0
C2001 C 0.68862 0.95283 0.27322 0.0
C2002 C 0.67456 0.94994 0.27223 0.0
C2003 C 0.6684 0.95323 0.28533 0.0
C2004 C 0.69439 0.94756 0.26008 0.0
C2005 C 0.68584 0.93353 0.2547 0.0
C2006 C 0.70824 0.95587 0.25329 0.0
C2007 C 0.71744 0.97106 0.25735 0.0
C2008 C 0.71243 0.98048 0.25541 0.0
C2009 C 0.72112 0.99477 0.25932 0.0
C2010 C 0.73488 -0.00021 0.26507 0.0
C2011 C 0.73999 0.99054 0.26689 0.0
C2012 C 0.73134 0.97624 0.26301 0.0
C2013 C 0.70729 0.91793 0.19808 0.0
C2014 C 0.71523 0.91205 0.20378 0.0
C2015 C 0.70465 0.92655 0.20845 0.0
C2016 C 0.71013 0.92956 0.22451 0.0
C2017 C 0.71898 0.92459 0.22973 0.0
C2018 C 0.72137 0.91573 0.2195 0.0
C2019 C 0.70467 0.93571 0.23667 0.0
C2020 C 0.71328 0.94973 0.24185 0.0
C2021 C 0.69077 0.92756 0.24308 0.0
C2022 C 0.68123 0.91273 0.23787 0.0
C2023 C 0.68465 0.9023 0.24126 0.0
C2024 C 0.6758 0.88843 0.23586 0.0
C2025 C 0.66341 0.88484 0.22721 0.0
C2026 C 0.65984 0.89511 0.22399 0.0
C2027 C 0.66869 0.90902 0.22932 0.0
H2028 H 0.65657 0.87409 0.22304 0.0
H2029 H 0.74159 0.01086 0.2681 0.0
H2030 H 0.05537 0.72309 0.31337 0.0
H2031 H 0.06557 0.74095 0.2916 0.0
H2032 H 0.02356 0.72835 0.27446 0.0
H2033 H 0.01323 0.71066 0.29647 0.0
H2034 H 0.04557 0.73137 0.24923 0.0
H2035 H 0.03673 0.75604 0.29274 0.0
H2036 H 0.03778 0.76416 0.32139 0.0
H2037 H 0.08333 0.78632 0.3195 0.0
H2038 H 0.08254 0.77814 0.29091 0.0
H2039 H 0.074 0.78889 0.19254 0.0
H2040 H 0.05866 0.77161 0.21324 0.0
H2041 H 0.09406 0.78738 0.24663 0.0
H2042 H 0.10908 0.80521 0.22663 0.0
H2043 H 0.07207 0.78241 0.2632 0.0
H2044 H 0.08193 0.75642 0.22225 0.0
H2045 H 0.08234 0.74766 0.19428 0.0
H2046 H 0.03694 0.7275 0.19181 0.0
H2047 H 0.03629 0.73629 0.2197 0.0
C2048 C 0.04831 0.72412 0.30496 0.0
C2049 C 0.03351 0.71553 0.30662 0.0
C2050 C 0.05414 0.73432 0.29258 0.0
C2051 C 0.04528 0.73593 0.28152 0.0
C2052 C 0.03052 0.72722 0.28293 0.0
C2053 C 0.02467 0.71719 0.29552 0.0
C2054 C 0.05156 0.74683 0.26857 0.0
C2055 C 0.05116 0.74256 0.25216 0.0
C2056 C 0.05906 0.76134 0.27258 0.0
C2057 C 0.05957 0.76637 0.28973 0.0
C2058 C 0.04697 0.76254 0.29848 0.0
C2059 C 0.04751 0.76717 0.3147 0.0
C2060 C 0.06061 0.77572 0.32228 0.0
C2061 C 0.07319 0.77968 0.31363 0.0
C2062 C 0.0727 0.77507 0.2974 0.0
C2063 C 0.07846 0.7888 0.20438 0.0
C2064 C 0.09285 0.79833 0.2078 0.0
C2065 C 0.06971 0.77881 0.21614 0.0
C2066 C 0.07526 0.77802 0.2314 0.0
C2067 C 0.08952 0.78772 0.23493 0.0
C2068 C 0.09818 0.7978 0.22334 0.0
C2069 C 0.06644 0.76702 0.24374 0.0
C2070 C 0.06635 0.77126 0.26011 0.0
C2071 C 0.05871 0.75245 0.23971 0.0
C2072 C 0.05908 0.74715 0.22297 0.0
C2073 C 0.07205 0.75021 0.21569 0.0
C2074 C 0.07232 0.74523 0.19986 0.0
C2075 C 0.05968 0.73707 0.19125 0.0
C2076 C 0.04673 0.73385 0.19848 0.0
C2077 C 0.0464 0.73882 0.21429 0.0
H2078 H 0.05991 0.73322 0.179 0.0
H2079 H 0.06101 0.7793 0.33484 0.0
H2080 H 0.28646 0.30804 0.30666 0.0
H2081 H 0.2676 0.29825 0.28587 0.0
H2082 H 0.27149 0.33909 0.28067 0.0
H2083 H 0.28995 0.34879 0.30144 0.0
H2084 H 0.24467 0.31944 0.28442 0.0
H2085 H 0.28434 0.32503 0.25136 0.0
H2086 H 0.30389 0.3209 0.24421 0.0
H2087 H 0.27437 0.27631 0.24096 0.0
H2088 H 0.25466 0.28017 0.2483 0.0
H2089 H 0.21246 0.31983 0.21126 0.0
H2090 H 0.23068 0.32356 0.23108 0.0
H2091 H 0.21472 0.27876 0.23233 0.0
H2092 H 0.19617 0.27488 0.21253 0.0
H2093 H 0.24531 0.29609 0.23211 0.0
H2094 H 0.20533 0.29119 0.26245 0.0
H2095 H 0.18601 0.29586 0.26876 0.0
H2096 H 0.21651 0.33967 0.2769 0.0
H2097 H 0.23601 0.33531 0.27039 0.0
C2098 C 0.28335 0.31493 0.30097 0.0
C2099 C 0.28966 0.32918 0.30581 0.0
C2100 C 0.27259 0.30934 0.28907 0.0
C2101 C 0.26811 0.31794 0.28171 0.0
C2102 C 0.27467 0.33221 0.28626 0.0
C2103 C 0.28527 0.33775 0.29816 0.0
C2104 C 0.25625 0.31221 0.2697 0.0
C2105 C 0.24489 0.3144 0.27296 0.0
C2106 C 0.25623 0.30519 0.25498 0.0
C2107 C 0.26806 0.30287 0.25058 0.0
C2108 C 0.28204 0.31434 0.24926 0.0
C2109 C 0.29315 0.31205 0.24514 0.0
C2110 C 0.29039 0.29835 0.24219 0.0
C2111 C 0.2765 0.28692 0.24329 0.0
C2112 C 0.26536 0.28915 0.24742 0.0
C2113 C 0.21277 0.31074 0.21575 0.0
C2114 C 0.2027 0.29703 0.21054 0.0
C2115 C 0.22325 0.3129 0.227 0.0
C2116 C 0.22391 0.30142 0.23334 0.0
C2117 C 0.21435 0.28776 0.22759 0.0
C2118 C 0.20379 0.28557 0.21629 0.0
C2119 C 0.23413 0.30384 0.24665 0.0
C2120 C 0.24506 0.30095 0.2437 0.0
C2121 C 0.23383 0.31028 0.26168 0.0
C2122 C 0.22213 0.31293 0.26582 0.0
C2123 C 0.20792 0.30184 0.26548 0.0
C2124 C 0.19693 0.30443 0.2691 0.0
C2125 C 0.20003 0.31806 0.2732 0.0
C2126 C 0.21412 0.32912 0.27372 0.0
C2127 C 0.22515 0.32659 0.27008 0.0
H2128 H 0.19151 0.32005 0.276 0.0
H2129 H 0.299 0.2966 0.239 0.0
H2130 H 0.31736 0.36611 0.39036 0.0
H2131 H 0.30466 0.37103 0.41192 0.0
H2132 H 0.27137 0.32724 0.41161 0.0
H2133 H 0.28386 0.32232 0.38985 0.0
H2134 H 0.26043 0.34374 0.41088 0.0
H2135 H 0.29579 0.34159 0.44325 0.0
H2136 H 0.32003 0.34783 0.45108 0.0
H2137 H 0.33121 0.39096 0.4585 0.0
H2138 H 0.30708 0.38501 0.45049 0.0
H2139 H 0.22341 0.34244 0.48269 0.0
H2140 H 0.23862 0.33852 0.46386 0.0
H2141 H 0.26845 0.38333 0.46241 0.0
H2142 H 0.25315 0.38739 0.48115 0.0
H2143 H 0.28162 0.36719 0.46415 0.0
H2144 H 0.24604 0.36905 0.43182 0.0
H2145 H 0.22164 0.36251 0.42439 0.0
H2146 H 0.21083 0.31948 0.4171 0.0
H2147 H 0.23513 0.32572 0.42474 0.0
C2148 C 0.30738 0.35752 0.39497 0.0
C2149 C 0.3016 0.34383 0.38839 0.0
C2150 C 0.30016 0.36033 0.40734 0.0
C2151 C 0.28711 0.34948 0.41349 0.0
C2152 C 0.28141 0.33578 0.40705 0.0
C2153 C 0.28858 0.33298 0.39464 0.0
C2154 C 0.27906 0.35246 0.42613 0.0
C2155 C 0.26502 0.34869 0.42262 0.0
C2156 C 0.28516 0.35928 0.44127 0.0
C2157 C 0.29967 0.36288 0.4461 0.0
C2158 C 0.30345 0.35243 0.44642 0.0
C2159 C 0.31716 0.35591 0.45091 0.0
C2160 C 0.32716 0.36979 0.45524 0.0
C2161 C 0.32346 0.38021 0.45512 0.0
C2162 C 0.30976 0.37679 0.45062 0.0
C2163 C 0.2332 0.35148 0.47837 0.0
C2164 C 0.23697 0.36525 0.48324 0.0
C2165 C 0.2419 0.34921 0.46766 0.0
C2166 C 0.25455 0.36066 0.46156 0.0
C2167 C 0.25871 0.37436 0.46698 0.0
C2168 C 0.24998 0.37665 0.4777 0.0
C2169 C 0.263 0.35829 0.44892 0.0
C2170 C 0.27708 0.36223 0.4524 0.0
C2171 C 0.25695 0.35159 0.43374 0.0
C2172 C 0.24237 0.34783 0.429 0.0
C2173 C 0.23843 0.35817 0.42876 0.0
C2174 C 0.22463 0.35452 0.42449 0.0
C2175 C 0.21468 0.34058 0.42031 0.0
C2176 C 0.21854 0.33027 0.42035 0.0
C2177 C 0.23233 0.33386 0.42464 0.0
H2178 H 0.204 0.33778 0.41701 0.0
H2179 H 0.33777 0.37246 0.45872 0.0
H2180 H 0.63518 0.94309 0.38518 0.0
H2181 H 0.6303 0.92579 0.40682 0.0
H2182 H 0.67457 0.93817 0.40735 0.0
H2183 H 0.6795 0.95535 0.38554 0.0
H2184 H 0.65786 0.91001 0.40708 0.0
H2185 H 0.66011 0.94853 0.43795 0.0
H2186 H 0.65379 0.96652 0.44484 0.0
H2187 H 0.61043 0.93399 0.45285 0.0
H2188 H 0.61646 0.9158 0.44578 0.0
H2189 H 0.65949 0.87742 0.48069 0.0
H2190 H 0.66324 0.89513 0.46017 0.0
H2191 H 0.61838 0.8803 0.46042 0.0
H2192 H 0.61457 0.86273 0.4814 0.0
H2193 H 0.63449 0.90921 0.46014 0.0
H2194 H 0.63235 0.8707 0.42972 0.0
H2195 H 0.6387 0.85271 0.42296 0.0
H2196 H 0.68189 0.88528 0.41409 0.0
H2197 H 0.67584 0.90347 0.42103 0.0
C2198 C 0.64389 0.94216 0.38994 0.0
C2199 C 0.65773 0.95059 0.38366 0.0
C2200 C 0.64109 0.93231 0.40236 0.0
C2201 C 0.6521 0.93079 0.40881 0.0
C2202 C 0.66592 0.93918 0.40255 0.0
C2203 C 0.66873 0.94902 0.39011 0.0
C2204 C 0.64916 0.9202 0.42182 0.0
C2205 C 0.65293 0.90996 0.41877 0.0
C2206 C 0.64235 0.91989 0.43688 0.0
C2207 C 0.63871 0.93081 0.44117 0.0
C2208 C 0.6492 0.94521 0.44104 0.0
C2209 C 0.64568 0.95545 0.44501 0.0
C2210 C 0.63171 0.9514 0.44924 0.0
C2211 C 0.62124 0.93711 0.44955 0.0
C2212 C 0.62471 0.92683 0.44558 0.0
C2213 C 0.65043 0.87804 0.47659 0.0
C2214 C 0.63672 0.86866 0.48269 0.0
C2215 C 0.65258 0.88809 0.46473 0.0
C2216 C 0.64106 0.8889 0.45862 0.0
C2217 C 0.6274 0.87979 0.46493 0.0
C2218 C 0.62523 0.86971 0.47682 0.0
C2219 C 0.64333 0.89913 0.44544 0.0
C2220 C 0.63941 0.90927 0.44843 0.0
C2221 C 0.65 0.89936 0.43031 0.0
C2222 C 0.65366 0.88845 0.42604 0.0
C2223 C 0.64322 0.87403 0.42645 0.0
C2224 C 0.64677 0.86379 0.42256 0.0
C2225 C 0.6607 0.86785 0.41813 0.0
C2226 C 0.67111 0.88215 0.41754 0.0
C2227 C 0.66763 0.89243 0.42143 0.0
H2228 H 0.66342 0.85991 0.41513 0.0
H2229 H 0.629 0.95934 0.45231 0.0
H2230 H 0.0351 0.71884 0.40275 0.0
H2231 H 0.05275 0.72692 0.42468 0.0
H2232 H 0.06993 0.70262 0.40345 0.0
H2233 H 0.05182 0.69394 0.38197 0.0
H2234 H 0.07171 0.70237 0.43566 0.0
H2235 H 0.08395 0.73869 0.3946 0.0
H2236 H 0.07974 0.75474 0.37764 0.0
H2237 H 0.0746 0.77386 0.42148 0.0
H2238 H 0.07861 0.7578 0.4387 0.0
H2239 H 0.14531 0.76794 0.45868 0.0
H2240 H 0.12563 0.75329 0.44026 0.0
H2241 H 0.09885 0.73194 0.48225 0.0
H2242 H 0.11861 0.74667 0.50082 0.0
H2243 H 0.10171 0.75448 0.44015 0.0
H2244 H 0.07259 0.69848 0.46843 0.0
H2245 H 0.0782 0.6826 0.48368 0.0
H2246 H 0.12006 0.70335 0.46241 0.0
H2247 H 0.11465 0.71923 0.44689 0.0
C2248 C 0.04254 0.71509 0.40289 0.0
C2249 C 0.04223 0.70592 0.39054 0.0
C2250 C 0.05263 0.71972 0.4154 0.0
C2251 C 0.0629 0.71566 0.41548 0.0
C2252 C 0.06216 0.70594 0.40362 0.0
C2253 C 0.05185 0.70104 0.39131 0.0
C2254 C 0.07504 0.72235 0.42706 0.0
C2255 C 0.07824 0.71376 0.4367 0.0
C2256 C 0.08372 0.73722 0.42826 0.0
C2257 C 0.08145 0.74697 0.41791 0.0
C2258 C 0.08185 0.74627 0.40061 0.0
C2259 C 0.0795 0.75537 0.39096 0.0
C2260 C 0.07687 0.76529 0.39848 0.0
C2261 C 0.07662 0.76616 0.41567 0.0
C2262 C 0.07894 0.75707 0.42538 0.0
C2263 C 0.13529 0.75998 0.46398 0.0
C2264 C 0.13341 0.75855 0.48117 0.0
C2265 C 0.12407 0.75162 0.45345 0.0
C2266 C 0.11076 0.74162 0.45989 0.0
C2267 C 0.10907 0.73954 0.47703 0.0
C2268 C 0.12035 0.74793 0.48761 0.0
C2269 C 0.09843 0.73452 0.44871 0.0
C2270 C 0.09515 0.74308 0.43919 0.0
C2271 C 0.08991 0.71967 0.44743 0.0
C2272 C 0.09325 0.71014 0.45665 0.0
C2273 C 0.08298 0.69963 0.46699 0.0
C2274 C 0.08613 0.69063 0.47568 0.0
C2275 C 0.0995 0.692 0.47406 0.0
C2276 C 0.10973 0.70234 0.46371 0.0
C2277 C 0.10664 0.71136 0.455 0.0
H2278 H 0.10191 0.68502 0.4808 0.0
H2279 H 0.07505 0.77232 0.39098 0.0
H2280 H 0.30115 0.02003 0.72249 0.0
H2281 H 0.29488 0.03213 0.74338 0.0
H2282 H 0.33839 0.06637 0.74441 0.0
H2283 H 0.34467 0.05448 0.72333 0.0
H2284 H 0.30287 0.04064 0.77434 0.0
H2285 H 0.33926 0.09727 0.74904 0.0
H2286 H 0.34951 0.109 0.72246 0.0
H2287 H 0.31523 0.07446 0.6966 0.0
H2288 H 0.30468 0.06262 0.72302 0.0
H2289 H 0.31051 0.09177 0.83355 0.0
H2290 H 0.31395 0.07727 0.81327 0.0
H2291 H 0.29186 0.08727 0.7769 0.0
H2292 H 0.28913 0.10246 0.79678 0.0
H2293 H 0.31453 0.08979 0.76369 0.0
H2294 H 0.27656 0.05415 0.79587 0.0
H2295 H 0.26415 0.04161 0.82131 0.0
H2296 H 0.29721 0.03257 0.83127 0.0
H2297 H 0.3099 0.04522 0.80598 0.0
C2298 C 0.30939 0.03011 0.72723 0.0
C2299 C 0.32338 0.03637 0.72116 0.0
C2300 C 0.3058 0.03698 0.73919 0.0
C2301 C 0.31612 0.05024 0.74529 0.0
C2302 C 0.3302 0.05626 0.73967 0.0
C2303 C 0.33378 0.04944 0.72765 0.0
C2304 C 0.31212 0.05796 0.75716 0.0
C2305 C 0.30541 0.05138 0.77203 0.0
C2306 C 0.31513 0.07185 0.75397 0.0
C2307 C 0.32127 0.079 0.73802 0.0
C2308 C 0.33388 0.09221 0.73769 0.0
C2309 C 0.33975 0.09887 0.72264 0.0
C2310 C 0.33305 0.09246 0.70785 0.0
C2311 C 0.32044 0.07939 0.70806 0.0
C2312 C 0.31452 0.0727 0.72307 0.0
C2313 C 0.30644 0.09095 0.82121 0.0
C2314 C 0.29956 0.09833 0.81683 0.0
C2315 C 0.30826 0.0825 0.80968 0.0
C2316 C 0.30303 0.08104 0.79359 0.0
C2317 C 0.29597 0.0882 0.78924 0.0
C2318 C 0.29427 0.09677 0.80071 0.0
C2319 C 0.30548 0.07258 0.78106 0.0
C2320 C 0.31194 0.07903 0.76604 0.0
C2321 C 0.3019 0.05846 0.78395 0.0
C2322 C 0.29424 0.05073 0.7991 0.0
C2323 C 0.28123 0.04956 0.80354 0.0
C2324 C 0.27414 0.04243 0.81792 0.0
C2325 C 0.2799 0.03633 0.82792 0.0
C2326 C 0.29276 0.03731 0.82352 0.0
C2327 C 0.29989 0.04445 0.80915 0.0
H2328 H 0.27441 0.03081 0.83906 0.0
H2329 H 0.33762 0.09762 0.69621 0.0
H2330 H 0.9354 0.26566 0.69122 0.0
H2331 H 0.92687 0.24786 0.71288 0.0
H2332 H 0.96509 0.2738 0.74063 0.0
H2333 H 0.97402 0.29138 0.71842 0.0
H2334 H 0.95757 0.24758 0.74494 0.0
H2335 H 0.93308 0.27286 0.74934 0.0
H2336 H 0.91913 0.28341 0.74003 0.0
H2337 H 0.88449 0.24229 0.72743 0.0
H2338 H 0.89831 0.2315 0.73645 0.0
H2339 H 0.91998 0.21318 0.82171 0.0
H2340 H 0.93292 0.23098 0.80022 0.0
H2341 H 0.90563 0.20167 0.76315 0.0
H2342 H 0.8929 0.18379 0.78445 0.0
H2343 H 0.90867 0.23073 0.76549 0.0
H2344 H 0.93519 0.20629 0.76168 0.0
H2345 H 0.94976 0.19718 0.77318 0.0
H2346 H 0.98136 0.23911 0.78793 0.0
H2347 H 0.96686 0.24844 0.77673 0.0
C2348 C 0.94205 0.2675 0.70186 0.0
C2349 C 0.9553 0.27996 0.70324 0.0
C2350 C 0.93713 0.25736 0.7143 0.0
C2351 C 0.94512 0.25966 0.72866 0.0
C2352 C 0.95867 0.27182 0.72974 0.0
C2353 C 0.96376 0.28186 0.71706 0.0
C2354 C 0.93903 0.24958 0.74268 0.0
C2355 C 0.94695 0.24406 0.74955 0.0
C2356 C 0.92517 0.24495 0.74883 0.0
C2357 C 0.91678 0.25138 0.74345 0.0
C2358 C 0.92252 0.26607 0.74448 0.0
C2359 C 0.91464 0.2721 0.73927 0.0
C2360 C 0.90095 0.26353 0.73311 0.0
C2361 C 0.8951 0.24891 0.73219 0.0
C2362 C 0.90295 0.24284 0.73737 0.0
C2363 C 0.91689 0.21052 0.80894 0.0
C2364 C 0.90549 0.19712 0.80469 0.0
C2365 C 0.92428 0.22065 0.79672 0.0
C2366 C 0.92022 0.21757 0.78015 0.0
C2367 C 0.90894 0.20417 0.77588 0.0
C2368 C 0.90174 0.19398 0.78802 0.0
C2369 C 0.92707 0.22858 0.76734 0.0
C2370 C 0.9193 0.23433 0.76083 0.0
C2371 C 0.94113 0.23364 0.76186 0.0
C2372 C 0.94985 0.22803 0.76855 0.0
C2373 C 0.94517 0.21354 0.76754 0.0
C2374 C 0.95343 0.20835 0.77396 0.0
C2375 C 0.96645 0.21755 0.78133 0.0
C2376 C 0.97126 0.23199 0.78225 0.0
C2377 C 0.96302 0.23724 0.77585 0.0
H2378 H 0.97284 0.21351 0.7863 0.0
H2379 H 0.89486 0.26821 0.72908 0.0
H2380 H 0.7225 0.69956 0.71313 0.0
H2381 H 0.74174 0.71183 0.73309 0.0
H2382 H 0.74277 0.67355 0.74042 0.0
H2383 H 0.7239 0.66136 0.72036 0.0
H2384 H 0.74441 0.70819 0.76499 0.0
H2385 H 0.77554 0.68026 0.7456 0.0
H2386 H 0.78043 0.67083 0.72031 0.0
H2387 H 0.77306 0.69873 0.6908 0.0
H2388 H 0.76832 0.70847 0.71591 0.0
H2389 H 0.78614 0.70597 0.82898 0.0
H2390 H 0.76984 0.70289 0.80695 0.0
H2391 H 0.80528 0.72723 0.77414 0.0
H2392 H 0.82163 0.72945 0.79575 0.0
H2393 H 0.78785 0.70496 0.75932 0.0
H2394 H 0.78256 0.73931 0.78859 0.0
H2395 H 0.77882 0.75099 0.81255 0.0
H2396 H 0.73714 0.71502 0.81989 0.0
H2397 H 0.74069 0.70303 0.79612 0.0
C2398 C 0.72684 0.69377 0.719 0.0
C2399 C 0.72176 0.67951 0.71503 0.0
C2400 C 0.73781 0.70079 0.73042 0.0
C2401 C 0.74385 0.69367 0.73802 0.0
C2402 C 0.7385 0.67935 0.73442 0.0
C2403 C 0.72766 0.67238 0.72297 0.0
C2404 C 0.75576 0.70105 0.74976 0.0
C2405 C 0.75397 0.7076 0.76374 0.0
C2406 C 0.76844 0.7007 0.74783 0.0
C2407 C 0.77149 0.69503 0.73266 0.0
C2408 C 0.77505 0.68445 0.73372 0.0
C2409 C 0.77777 0.67903 0.71941 0.0
C2410 C 0.77703 0.68415 0.70396 0.0
C2411 C 0.77359 0.69474 0.70278 0.0
C2412 C 0.77087 0.7002 0.71705 0.0
C2413 C 0.7905 0.71068 0.81709 0.0
C2414 C 0.80523 0.71781 0.81413 0.0
C2415 C 0.78114 0.70912 0.80455 0.0
C2416 C 0.7863 0.71493 0.78887 0.0
C2417 C 0.80103 0.72265 0.78613 0.0
C2418 C 0.81039 0.72403 0.79859 0.0
C2419 C 0.77631 0.71166 0.77497 0.0
C2420 C 0.77844 0.70583 0.76054 0.0
C2421 C 0.76417 0.71306 0.77631 0.0
C2422 C 0.76193 0.72024 0.7906 0.0
C2423 C 0.77263 0.73385 0.79538 0.0
C2424 C 0.77054 0.74053 0.80892 0.0
C2425 C 0.75776 0.73375 0.81775 0.0
C2426 C 0.74703 0.72027 0.81303 0.0
C2427 C 0.74907 0.71353 0.79951 0.0
H2428 H 0.75616 0.73894 0.82823 0.0
H2429 H 0.77913 0.67994 0.69289 0.0
H2430 H 0.72372 0.67525 0.63323 0.0
H2431 H 0.73288 0.66804 0.60995 0.0
H2432 H 0.6923 0.62967 0.60504 0.0
H2433 H 0.68322 0.63661 0.62878 0.0
H2434 H 0.71195 0.62358 0.60259 0.0
H2435 H 0.70394 0.65744 0.57695 0.0
H2436 H 0.70491 0.68015 0.57333 0.0
H2437 H 0.75039 0.70165 0.57015 0.0
H2438 H 0.74971 0.67909 0.57398 0.0
H2439 H 0.74891 0.63298 0.51575 0.0
H2440 H 0.73353 0.63707 0.53431 0.0
H2441 H 0.75215 0.62866 0.57622 0.0
H2442 H 0.76725 0.6243 0.55776 0.0
H2443 H 0.73923 0.65603 0.55672 0.0
H2444 H 0.72921 0.61432 0.60725 0.0
H2445 H 0.72587 0.59044 0.60896 0.0
H2446 H 0.71179 0.58234 0.5587 0.0
H2447 H 0.71484 0.60609 0.55676 0.0
C2448 C 0.71672 0.66531 0.62714 0.0
C2449 C 0.70276 0.65649 0.63282 0.0
C2450 C 0.72194 0.66124 0.61375 0.0
C2451 C 0.71321 0.64841 0.60556 0.0
C2452 C 0.69922 0.63963 0.61115 0.0
C2453 C 0.69404 0.64361 0.62469 0.0
C2454 C 0.71896 0.64392 0.59167 0.0
C2455 C 0.71783 0.63064 0.5925 0.0
C2456 C 0.72629 0.65295 0.57823 0.0
C2457 C 0.72677 0.66657 0.57586 0.0
C2458 C 0.71416 0.66702 0.57559 0.0
C2459 C 0.71465 0.67987 0.57348 0.0
C2460 C 0.72771 0.69234 0.57154 0.0
C2461 C 0.74029 0.69198 0.57166 0.0
C2462 C 0.73985 0.67916 0.57377 0.0
C2463 C 0.74964 0.63196 0.52893 0.0
C2464 C 0.75919 0.62823 0.53534 0.0
C2465 C 0.74087 0.63428 0.5395 0.0
C2466 C 0.74154 0.63297 0.55665 0.0
C2467 C 0.75117 0.62937 0.56303 0.0
C2468 C 0.75982 0.6269 0.55248 0.0
C2469 C 0.73263 0.63591 0.56798 0.0
C2470 C 0.73318 0.6489 0.56668 0.0
C2471 C 0.7244 0.62643 0.5807 0.0
C2472 C 0.72236 0.61204 0.58184 0.0
C2473 C 0.72532 0.60742 0.59659 0.0
C2474 C 0.7235 0.59391 0.59759 0.0
C2475 C 0.71866 0.58489 0.58393 0.0
C2476 C 0.71558 0.58935 0.56925 0.0
C2477 C 0.71738 0.60285 0.56819 0.0
H2478 H 0.71726 0.57444 0.58473 0.0
H2479 H 0.72807 0.70228 0.56991 0.0
H2480 H 0.36018 0.05216 0.63918 0.0
H2481 H 0.36959 0.06967 0.61687 0.0
H2482 H 0.32785 0.06349 0.60921 0.0
H2483 H 0.31841 0.04617 0.63139 0.0
H2484 H 0.34184 0.06437 0.5798 0.0
H2485 H 0.351 0.09081 0.63107 0.0
H2486 H 0.36132 0.09828 0.65881 0.0
H2487 H 0.40308 0.11381 0.63861 0.0
H2488 H 0.39296 0.10625 0.61077 0.0
H2489 H 0.34611 0.12335 0.54259 0.0
H2490 H 0.34271 0.1042 0.56054 0.0
H2491 H 0.38805 0.12198 0.56286 0.0
H2492 H 0.39157 0.14158 0.54522 0.0
H2493 H 0.37629 0.11453 0.59294 0.0
H2494 H 0.36756 0.09181 0.54093 0.0
H2495 H 0.35737 0.08456 0.51312 0.0
H2496 H 0.31542 0.06188 0.53404 0.0
H2497 H 0.32533 0.06917 0.56197 0.0
C2498 C 0.353 0.05448 0.63265 0.0
C2499 C 0.33856 0.04783 0.63712 0.0
C2500 C 0.3584 0.06449 0.61995 0.0
C2501 C 0.34942 0.06789 0.61144 0.0
C2502 C 0.33496 0.06099 0.61559 0.0
C2503 C 0.3296 0.05114 0.62836 0.0
C2504 C 0.35498 0.079 0.59859 0.0
C2505 C 0.34936 0.07534 0.58264 0.0
C2506 C 0.36515 0.09323 0.60218 0.0
C2507 C 0.37121 0.0978 0.61889 0.0
C2508 C 0.36237 0.0957 0.63258 0.0
C2509 C 0.36818 0.09998 0.64831 0.0
C2510 C 0.38284 0.10647 0.65048 0.0
C2511 C 0.39172 0.10875 0.63692 0.0
C2512 C 0.38596 0.10447 0.62116 0.0
C2513 C 0.35539 0.12325 0.54695 0.0
C2514 C 0.36912 0.13405 0.54255 0.0
C2515 C 0.35342 0.11218 0.55707 0.0
C2516 C 0.36512 0.11153 0.56288 0.0
C2517 C 0.37887 0.12222 0.55843 0.0
C2518 C 0.38086 0.13336 0.54828 0.0
C2519 C 0.36281 0.09998 0.57422 0.0
C2520 C 0.36903 0.10353 0.58991 0.0
C2521 C 0.35324 0.08562 0.57034 0.0
C2522 C 0.3472 0.08111 0.55356 0.0
C2523 C 0.35615 0.08535 0.5396 0.0
C2524 C 0.35042 0.08122 0.52381 0.0
C2525 C 0.33575 0.07278 0.52182 0.0
C2526 C 0.32678 0.06842 0.53561 0.0
C2527 C 0.33245 0.07253 0.55143 0.0
H2528 H 0.33134 0.0696 0.50958 0.0
H2529 H 0.38733 0.10978 0.66267 0.0
H2530 H 0.96563 0.28652 0.61502 0.0
H2531 H 0.9493 0.27507 0.59207 0.0
H2532 H 0.93005 0.30025 0.60202 0.0
H2533 H 0.94666 0.31205 0.62458 0.0
H2534 H 0.92243 0.25884 0.59271 0.0
H2535 H 0.91515 0.30444 0.56806 0.0
H2536 H 0.92952 0.3302 0.56393 0.0
H2537 H 0.96745 0.32779 0.56161 0.0
H2538 H 0.9533 0.302 0.56548 0.0
H2539 H 0.85761 0.22948 0.55262 0.0
H2540 H 0.87782 0.24484 0.57007 0.0
H2541 H 0.90395 0.26315 0.52674 0.0
H2542 H 0.88356 0.24797 0.50918 0.0
H2543 H 0.91052 0.28293 0.54963 0.0
H2544 H 0.90529 0.23726 0.54798 0.0
H2545 H 0.89262 0.2113 0.54996 0.0
H2546 H 0.8834 0.21369 0.60107 0.0
H2547 H 0.89584 0.23968 0.59934 0.0
C2548 C 0.95803 0.28973 0.61216 0.0
C2549 C 0.9574 0.30016 0.6216 0.0
C2550 C 0.94869 0.28317 0.59906 0.0
C2551 C 0.93849 0.28685 0.5952 0.0
C2552 C 0.938 0.29742 0.60449 0.0
C2553 C 0.94745 0.30411 0.61747 0.0
C2554 C 0.92771 0.27893 0.5823 0.0
C2555 C 0.91991 0.26414 0.58325 0.0
C2556 C 0.92457 0.28578 0.56971 0.0
C2557 C 0.93316 0.30129 0.56721 0.0
C2558 C 0.92655 0.30939 0.56659 0.0
C2559 C 0.93466 0.324 0.56431 0.0
C2560 C 0.9494 0.33063 0.56256 0.0
C2561 C 0.95605 0.32265 0.56303 0.0
C2562 C 0.94798 0.30804 0.56529 0.0
C2563 C 0.86764 0.23687 0.54683 0.0
C2564 C 0.8691 0.23746 0.52958 0.0
C2565 C 0.87918 0.24561 0.55679 0.0
C2566 C 0.89248 0.25491 0.54972 0.0
C2567 C 0.8938 0.25601 0.53246 0.0
C2568 C 0.88217 0.24736 0.52245 0.0
C2569 C 0.90507 0.26293 0.56041 0.0
C2570 C 0.91317 0.27769 0.55904 0.0
C2571 C 0.90879 0.25605 0.57233 0.0
C2572 C 0.90142 0.24042 0.57349 0.0
C2573 C 0.90049 0.23225 0.55962 0.0
C2574 C 0.89335 0.21753 0.5607 0.0
C2575 C 0.88719 0.21085 0.57563 0.0
C2576 C 0.88817 0.21888 0.58952 0.0
C2577 C 0.89528 0.23361 0.5885 0.0
H2578 H 0.88166 0.19945 0.57644 0.0
H2579 H 0.95566 0.34194 0.5608 0.0
H2580 H 0.35602 0.31111 0.63855 0.0
H2581 H 0.36621 0.30351 0.61652 0.0
H2582 H 0.32577 0.26522 0.61043 0.0
H2583 H 0.31566 0.27253 0.63244 0.0
H2584 H 0.34622 0.25939 0.61259 0.0
H2585 H 0.3388 0.29313 0.58275 0.0
H2586 H 0.34201 0.31662 0.57734 0.0
H2587 H 0.38704 0.33417 0.57271 0.0
H2588 H 0.3841 0.3108 0.57831 0.0
H2589 H 0.34464 0.22977 0.5369 0.0
H2590 H 0.34138 0.2446 0.55684 0.0
H2591 H 0.38674 0.27171 0.56065 0.0
H2592 H 0.39014 0.25667 0.54079 0.0
H2593 H 0.36856 0.28563 0.56094 0.0
H2594 H 0.37509 0.25071 0.58846 0.0
H2595 H 0.37093 0.2267 0.59256 0.0
H2596 H 0.32659 0.2111 0.60101 0.0
H2597 H 0.33045 0.235 0.59667 0.0
C2598 C 0.34929 0.30112 0.63242 0.0
C2599 C 0.33505 0.29239 0.63734 0.0
C2600 C 0.35512 0.29681 0.61981 0.0
C2601 C 0.34674 0.28379 0.61182 0.0
C2602 C 0.33247 0.27526 0.61649 0.0
C2603 C 0.32669 0.27948 0.6291 0.0
C2604 C 0.35275 0.27856 0.59903 0.0
C2605 C 0.35107 0.26515 0.6013 0.0
C2606 C 0.3595 0.28623 0.5845 0.0
C2607 C 0.36125 0.30026 0.58116 0.0
C2608 C 0.3494 0.30202 0.58073 0.0
C2609 C 0.35116 0.31531 0.57759 0.0
C2610 C 0.36472 0.32689 0.57474 0.0
C2611 C 0.37654 0.3252 0.57496 0.0
C2612 C 0.37483 0.31194 0.57811 0.0
C2613 C 0.35394 0.23896 0.54184 0.0
C2614 C 0.36765 0.24191 0.53753 0.0
C2615 C 0.35205 0.24747 0.55313 0.0
C2616 C 0.36382 0.25913 0.5603 0.0
C2617 C 0.37755 0.26274 0.55519 0.0
C2618 C 0.37946 0.25416 0.54387 0.0
C2619 C 0.36153 0.26636 0.57439 0.0
C2620 C 0.36395 0.28006 0.57239 0.0
C2621 C 0.35538 0.25897 0.5892 0.0
C2622 C 0.35305 0.24463 0.59212 0.0
C2623 C 0.36444 0.24215 0.59107 0.0
C2624 C 0.36213 0.22856 0.59345 0.0
C2625 C 0.3485 0.21738 0.59701 0.0
C2626 C 0.33714 0.21977 0.59824 0.0
C2627 C 0.33939 0.23334 0.59584 0.0
H2628 H 0.34673 0.20686 0.59885 0.0
H2629 H 0.36607 0.33717 0.57231 0.0
H2630 H 0.72232 0.04648 0.63162 0.0
H2631 H 0.7334 0.0642 0.60981 0.0
H2632 H 0.6922 0.05582 0.59445 0.0
H2633 H 0.68101 0.0383 0.61652 0.0
H2634 H 0.71519 0.05895 0.568 0.0
H2635 H 0.70511 0.08136 0.61418 0.0
H2636 H 0.70569 0.08706 0.64374 0.0
H2637 H 0.75115 0.10721 0.64339 0.0
H2638 H 0.75081 0.10142 0.61386 0.0
H2639 H 0.7438 0.11976 0.51687 0.0
H2640 H 0.72839 0.10096 0.53598 0.0
H2641 H 0.76277 0.11611 0.57078 0.0
H2642 H 0.7777 0.13556 0.55257 0.0
H2643 H 0.74059 0.10882 0.58697 0.0
H2644 H 0.7523 0.08657 0.54325 0.0
H2645 H 0.75377 0.07996 0.51448 0.0
H2646 H 0.70838 0.05883 0.51056 0.0
H2647 H 0.70666 0.06547 0.53926 0.0
C2648 C 0.71561 0.04827 0.62347 0.0
C2649 C 0.70083 0.0411 0.6258 0.0
C2650 C 0.72194 0.05838 0.61105 0.0
C2651 C 0.71357 0.06126 0.60064 0.0
C2652 C 0.69877 0.05365 0.6024 0.0
C2653 C 0.69244 0.04373 0.61502 0.0
C2654 C 0.72042 0.07296 0.58877 0.0
C2655 C 0.72058 0.06989 0.57201 0.0
C2656 C 0.72768 0.08712 0.59421 0.0
C2657 C 0.72791 0.09084 0.61187 0.0
C2658 C 0.71521 0.0869 0.62044 0.0
C2659 C 0.7155 0.09017 0.63718 0.0
C2660 C 0.72845 0.09746 0.64545 0.0
C2661 C 0.74113 0.10155 0.63698 0.0
C2662 C 0.7409 0.09829 0.62024 0.0
C2663 C 0.748 0.11926 0.52872 0.0
C2664 C 0.7621 0.12911 0.53303 0.0
C2665 C 0.73923 0.10836 0.53955 0.0
C2666 C 0.7445 0.10689 0.55469 0.0
C2667 C 0.75844 0.11692 0.55915 0.0
C2668 C 0.76707 0.12796 0.54855 0.0
C2669 C 0.73569 0.09494 0.56598 0.0
C2670 C 0.73512 0.09794 0.58275 0.0
C2671 C 0.72836 0.08069 0.56055 0.0
C2672 C 0.72937 0.07666 0.54332 0.0
C2673 C 0.74264 0.0806 0.53621 0.0
C2674 C 0.74352 0.07683 0.51992 0.0
C2675 C 0.73118 0.06902 0.51068 0.0
C2676 C 0.71793 0.06491 0.51772 0.0
C2677 C 0.717 0.06866 0.53399 0.0
H2678 H 0.73188 0.06611 0.49807 0.0
H2679 H 0.72865 0.09997 0.65842 0.0
H2680 H 0.94434 0.67845 0.63818 0.0
H2681 H 0.92653 0.66889 0.61658 0.0
H2682 H 0.93078 0.63207 0.61303 0.0
H2683 H 0.94855 0.64149 0.63498 0.0
H2684 H 0.92768 0.66284 0.58541 0.0
H2685 H 0.89819 0.60369 0.602 0.0
H2686 H 0.89321 0.58842 0.6263 0.0
H2687 H 0.89712 0.62162 0.65802 0.0
H2688 H 0.90195 0.63701 0.63389 0.0
H2689 H 0.87817 0.62671 0.52178 0.0
H2690 H 0.89669 0.63212 0.5421 0.0
H2691 H 0.86748 0.62663 0.5814 0.0
H2692 H 0.84893 0.62114 0.56119 0.0
H2693 H 0.88364 0.61607 0.59028 0.0
H2694 H 0.89119 0.65943 0.56639 0.0
H2695 H 0.89492 0.6757 0.54355 0.0
H2696 H 0.93299 0.67607 0.52928 0.0
H2697 H 0.92938 0.65964 0.55191 0.0
C2698 C 0.94153 0.66831 0.63285 0.0
C2699 C 0.94788 0.66073 0.63839 0.0
C2700 C 0.93135 0.66288 0.62043 0.0
C2701 C 0.92725 0.64973 0.61322 0.0
C2702 C 0.93366 0.64216 0.61855 0.0
C2703 C 0.94384 0.64759 0.63107 0.0
C2704 C 0.9162 0.64407 0.6002 0.0
C2705 C 0.91811 0.65256 0.58644 0.0
C2706 C 0.90361 0.63073 0.60158 0.0
C2707 C 0.9006 0.62154 0.61616 0.0
C2708 C 0.89796 0.60771 0.61416 0.0
C2709 C 0.89516 0.59904 0.6279 0.0
C2710 C 0.8949 0.60407 0.6437 0.0
C2711 C 0.89739 0.61776 0.64578 0.0
C2712 C 0.90017 0.62647 0.63208 0.0
C2713 C 0.87568 0.62658 0.53476 0.0
C2714 C 0.86211 0.62359 0.53987 0.0
C2715 C 0.88626 0.62964 0.54636 0.0
C2716 C 0.88353 0.62997 0.56327 0.0
C2717 C 0.86983 0.62641 0.56843 0.0
C2718 C 0.85922 0.62326 0.55685 0.0
C2719 C 0.89512 0.63486 0.57556 0.0
C2720 C 0.89332 0.62624 0.58915 0.0
C2721 C 0.90768 0.64823 0.57424 0.0
C2722 C 0.90993 0.65819 0.56072 0.0
C2723 C 0.9003 0.66291 0.55831 0.0
C2724 C 0.9024 0.67217 0.54541 0.0
C2725 C 0.91416 0.67689 0.53494 0.0
C2726 C 0.92388 0.67239 0.53738 0.0
C2727 C 0.92181 0.66311 0.55024 0.0
H2728 H 0.91577 0.68405 0.52497 0.0
H2729 H 0.89275 0.59734 0.65432 0.0
H2730 H 0.97362 0.69973 0.71468 0.0
H2731 H 0.96247 0.70669 0.73601 0.0
H2732 H 0.93977 0.66383 0.75411 0.0
H2733 H 0.95023 0.6567 0.73204 0.0
H2734 H 0.92263 0.67235 0.75412 0.0
H2735 H 0.96984 0.69312 0.77453 0.0
H2736 H 0.99598 0.70748 0.77388 0.0
H2737 H 0.99382 0.74474 0.76462 0.0
H2738 H 0.96766 0.73056 0.765 0.0
H2739 H 0.90572 0.69103 0.83273 0.0
H2740 H 0.9195 0.68603 0.81285 0.0
H2741 H 0.92172 0.71793 0.78036 0.0
H2742 H 0.90716 0.72246 0.79961 0.0
H2743 H 0.94939 0.71527 0.78869 0.0
H2744 H 0.90074 0.69185 0.76705 0.0
H2745 H 0.87486 0.67632 0.77046 0.0
H2746 H 0.88083 0.64237 0.78565 0.0
H2747 H 0.90678 0.6578 0.78257 0.0
C2748 C 0.96632 0.69184 0.72328 0.0
C2749 C 0.9628 0.6777 0.72175 0.0
C2750 C 0.96001 0.69583 0.73557 0.0
C2751 C 0.95043 0.68586 0.74695 0.0
C2752 C 0.94709 0.67175 0.74552 0.0
C2753 C 0.9531 0.66768 0.73294 0.0
C2754 C 0.94341 0.68998 0.75985 0.0
C2755 C 0.9286 0.68165 0.76177 0.0
C2756 C 0.95105 0.70219 0.76986 0.0
C2757 C 0.96678 0.71075 0.76964 0.0
C2758 C 0.97494 0.70436 0.77224 0.0
C2759 C 0.98976 0.71247 0.77194 0.0
C2760 C 0.99656 0.72701 0.76917 0.0
C2761 C 0.98854 0.73347 0.76674 0.0
C2762 C 0.97372 0.72541 0.76701 0.0
C2763 C 0.909 0.69694 0.82132 0.0
C2764 C 0.9051 0.70703 0.81775 0.0
C2765 C 0.91702 0.69416 0.81007 0.0
C2766 C 0.92156 0.70161 0.79519 0.0
C2767 C 0.91834 0.71215 0.79186 0.0
C2768 C 0.91007 0.71476 0.80296 0.0
C2769 C 0.92884 0.69769 0.78268 0.0
C2770 C 0.9436 0.70601 0.78094 0.0
C2771 C 0.92126 0.68531 0.77311 0.0
C2772 C 0.90568 0.67602 0.77477 0.0
C2773 C 0.89654 0.68112 0.77127 0.0
C2774 C 0.88186 0.67233 0.77311 0.0
C2775 C 0.87621 0.65838 0.77832 0.0
C2776 C 0.88522 0.65318 0.78165 0.0
C2777 C 0.89991 0.66194 0.77985 0.0
H2778 H 0.86484 0.65159 0.77973 0.0
H2779 H 0.00803 0.73327 0.76894 0.0
H2780 H 0.34106 0.29018 0.72072 0.0
H2781 H 0.33565 0.27195 0.74127 0.0
H2782 H 0.29226 0.26245 0.74379 0.0
H2783 H 0.29763 0.28083 0.72335 0.0
H2784 H 0.30267 0.26313 0.77422 0.0
H2785 H 0.30028 0.24115 0.72236 0.0
H2786 H 0.30868 0.23888 0.69482 0.0
H2787 H 0.34444 0.23918 0.71666 0.0
H2788 H 0.33636 0.24166 0.74433 0.0
H2789 H 0.27839 0.19785 0.81699 0.0
H2790 H 0.28129 0.21541 0.79645 0.0
H2791 H 0.32554 0.2284 0.79093 0.0
H2792 H 0.32264 0.21072 0.81108 0.0
H2793 H 0.31285 0.22497 0.76138 0.0
H2794 H 0.31562 0.24807 0.81317 0.0
H2795 H 0.30706 0.25029 0.84064 0.0
H2796 H 0.27016 0.24757 0.81873 0.0
H2797 H 0.27841 0.24513 0.79114 0.0
C2798 C 0.33037 0.28425 0.72568 0.0
C2799 C 0.31975 0.28688 0.72034 0.0
C2800 C 0.32728 0.2738 0.73738 0.0
C2801 C 0.3135 0.26571 0.74387 0.0
C2802 C 0.30295 0.26855 0.73889 0.0
C2803 C 0.30603 0.27902 0.72718 0.0
C2804 C 0.31011 0.25422 0.75574 0.0
C2805 C 0.30468 0.25466 0.77134 0.0
C2806 C 0.31292 0.24328 0.75203 0.0
C2807 C 0.31778 0.24172 0.73541 0.0
C2808 C 0.30999 0.24084 0.72128 0.0
C2809 C 0.31469 0.2395 0.70565 0.0
C2810 C 0.3271 0.23892 0.70399 0.0
C2811 C 0.33483 0.23965 0.71797 0.0
C2812 C 0.33019 0.24101 0.73363 0.0
C2813 C 0.28871 0.20441 0.81133 0.0
C2814 C 0.30031 0.20297 0.81572 0.0
C2815 C 0.29038 0.21449 0.7997 0.0
C2816 C 0.30367 0.22328 0.79228 0.0
C2817 C 0.31521 0.22175 0.79654 0.0
C2818 C 0.31356 0.21173 0.80817 0.0
C2819 C 0.30563 0.23401 0.77995 0.0
C2820 C 0.31076 0.2334 0.76423 0.0
C2821 C 0.3025 0.24475 0.78355 0.0
C2822 C 0.29755 0.24626 0.80012 0.0
C2823 C 0.30562 0.24782 0.81423 0.0
C2824 C 0.30084 0.24914 0.82981 0.0
C2825 C 0.28806 0.24903 0.83143 0.0
C2826 C 0.28005 0.24763 0.81746 0.0
C2827 C 0.28478 0.24629 0.80185 0.0
H2828 H 0.28437 0.25005 0.84351 0.0
H2829 H 0.33072 0.23788 0.69188 0.0
H2830 H 0.71759 0.06442 0.71006 0.0
H2831 H 0.73621 0.07375 0.73073 0.0
H2832 H 0.73646 0.03466 0.73012 0.0
H2833 H 0.71748 0.02505 0.70958 0.0
H2834 H 0.73836 0.04408 0.76105 0.0
H2835 H 0.76261 0.06381 0.71044 0.0
H2836 H 0.76721 0.07604 0.68373 0.0
H2837 H 0.77354 0.11344 0.70841 0.0
H2838 H 0.76877 0.10138 0.73526 0.0
H2839 H 0.80415 0.07825 0.8065 0.0
H2840 H 0.78647 0.06537 0.78497 0.0
H2841 H 0.77773 0.09936 0.78215 0.0
H2842 H 0.7954 0.1123 0.8034 0.0
H2843 H 0.78169 0.09071 0.75159 0.0
H2844 H 0.75525 0.06968 0.80196 0.0
H2845 H 0.75073 0.05717 0.82847 0.0
H2846 H 0.7492 0.02183 0.80363 0.0
H2847 H 0.75391 0.03422 0.77699 0.0
C2848 C 0.72157 0.05777 0.71429 0.0
C2849 C 0.7161 0.04401 0.70805 0.0
C2850 C 0.73227 0.06315 0.72608 0.0
C2851 C 0.73793 0.05501 0.73174 0.0
C2852 C 0.7323 0.04115 0.72586 0.0
C2853 C 0.72147 0.03569 0.7141 0.0
C2854 C 0.74973 0.0611 0.74379 0.0
C2855 C 0.74795 0.05414 0.75886 0.0
C2856 C 0.76222 0.07429 0.74099 0.0
C2857 C 0.76523 0.08165 0.72487 0.0
C2858 C 0.76489 0.07462 0.71017 0.0
C2859 C 0.76754 0.08152 0.695 0.0
C2860 C 0.77064 0.0955 0.69437 0.0
C2861 C 0.77113 0.10261 0.70892 0.0
C2862 C 0.76847 0.09575 0.72412 0.0
C2863 C 0.79845 0.08295 0.80125 0.0
C2864 C 0.80108 0.09623 0.8067 0.0
C2865 C 0.78833 0.07557 0.78904 0.0
C2866 C 0.78076 0.0814 0.78204 0.0
C2867 C 0.78344 0.09467 0.78741 0.0
C2868 C 0.79345 0.10199 0.79965 0.0
C2869 C 0.77013 0.07387 0.76896 0.0
C2870 C 0.77217 0.08055 0.75367 0.0
C2871 C 0.75797 0.0604 0.77153 0.0
C2872 C 0.7551 0.05294 0.78752 0.0
C2873 C 0.75408 0.05929 0.80217 0.0
C2874 C 0.75146 0.05222 0.81722 0.0
C2875 C 0.74973 0.03873 0.81774 0.0
C2876 C 0.75057 0.03228 0.80321 0.0
C2877 C 0.75321 0.03933 0.78814 0.0
H2878 H 0.7477 0.03327 0.8294 0.0
H2879 H 0.77268 0.10082 0.68261 0.0
H2880 H 0.02163 0.32306 0.04966 0.0
H2881 H 0.03836 0.31791 0.06302 0.0
H2882 H 0.06867 0.33905 0.02381 0.0
H2883 H 0.05198 0.34458 0.01037 0.0
H2884 H 0.06265 0.30963 0.03596 0.0
H2885 H 0.0771 0.35706 0.05376 0.0
H2886 H 0.07264 0.37543 0.0647 0.0
H2887 H 0.05507 0.35143 0.10907 0.0
H2888 H 0.05922 0.33281 0.09827 0.0
H2889 H 0.11706 0.30743 0.08196 0.0
H2890 H 0.1037 0.31425 0.06392 0.0
H2891 H 0.07657 0.31058 0.10493 0.0
H2892 H 0.09026 0.3043 0.12303 0.0
H2893 H 0.08316 0.3332 0.08938 0.0
H2894 H 0.06625 0.28532 0.07243 0.0
H2895 H 0.06824 0.26523 0.06221 0.0
H2896 H 0.08777 0.28777 0.0175 0.0
H2897 H 0.08606 0.30808 0.02755 0.0
C2898 C 0.03181 0.32656 0.04376 0.0
C2899 C 0.0355 0.33426 0.02896 0.0
C2900 C 0.04135 0.32361 0.05145 0.0
C2901 C 0.05472 0.32814 0.04441 0.0
C2902 C 0.05836 0.33548 0.02938 0.0
C2903 C 0.04886 0.33865 0.02178 0.0
C2904 C 0.06491 0.32552 0.05327 0.0
C2905 C 0.06743 0.31496 0.04747 0.0
C2906 C 0.07069 0.3322 0.06851 0.0
C2907 C 0.06837 0.34348 0.07514 0.0
C2908 C 0.07218 0.35564 0.06579 0.0
C2909 C 0.06972 0.36611 0.07198 0.0
C2910 C 0.06354 0.36458 0.08756 0.0
C2911 C 0.05985 0.3526 0.097 0.0
C2912 C 0.06227 0.34209 0.09086 0.0
C2913 C 0.10817 0.30799 0.08703 0.0
C2914 C 0.10467 0.30535 0.10386 0.0
C2915 C 0.10051 0.31185 0.07673 0.0
C2916 C 0.08901 0.31281 0.08299 0.0
C2917 C 0.08543 0.30999 0.09979 0.0
C2918 C 0.09322 0.30638 0.11013 0.0
C2919 C 0.08083 0.31706 0.07227 0.0
C2920 C 0.07863 0.32794 0.07776 0.0
C2921 C 0.07513 0.31047 0.05689 0.0
C2922 C 0.07618 0.29828 0.05083 0.0
C2923 C 0.07108 0.28604 0.06048 0.0
C2924 C 0.07214 0.2746 0.0547 0.0
C2925 C 0.07817 0.27524 0.03924 0.0
C2926 C 0.08313 0.2873 0.02949 0.0
C2927 C 0.08211 0.29878 0.03522 0.0
H2928 H 0.07898 0.26637 0.03479 0.0
H2929 H 0.06164 0.3727 0.09232 0.0
H2930 H 0.66929 0.696 0.03173 0.0
H2931 H 0.67922 0.71741 0.04857 0.0
H2932 H 0.63706 0.70979 0.05825 0.0
H2933 H 0.62705 0.68853 0.04118 0.0
H2934 H 0.65467 0.73679 0.05106 0.0
H2935 H 0.65542 0.70269 0.08724 0.0
H2936 H 0.66132 0.68475 0.0955 0.0
H2937 H 0.70576 0.7152 0.09062 0.0
H2938 H 0.70012 0.73328 0.08212 0.0
H2939 H 0.66869 0.78255 0.11876 0.0
H2940 H 0.66017 0.76138 0.10174 0.0
H2941 H 0.70338 0.77247 0.09147 0.0
H2942 H 0.712 0.79355 0.10884 0.0
H2943 H 0.6862 0.74425 0.09842 0.0
H2944 H 0.68534 0.77851 0.06301 0.0
H2945 H 0.67931 0.79642 0.05505 0.0
H2946 H 0.6349 0.76553 0.05869 0.0
H2947 H 0.64066 0.74747 0.06691 0.0
C2948 C 0.66212 0.69887 0.03743 0.0
C2949 C 0.64736 0.69052 0.03513 0.0
C2950 C 0.66781 0.71108 0.04712 0.0
C2951 C 0.65887 0.7151 0.05484 0.0
C2952 C 0.64416 0.70687 0.05242 0.0
C2953 C 0.63845 0.6947 0.04268 0.0
C2954 C 0.66481 0.72795 0.06532 0.0
C2955 C 0.66142 0.73833 0.06154 0.0
C2956 C 0.67392 0.73014 0.07873 0.0
C2957 C 0.67734 0.7193 0.08388 0.0
C2958 C 0.66645 0.70553 0.08781 0.0
C2959 C 0.66974 0.69534 0.09255 0.0
C2960 C 0.68391 0.69882 0.09354 0.0
C2961 C 0.6948 0.71251 0.08983 0.0
C2962 C 0.69156 0.72274 0.08506 0.0
C2963 C 0.67638 0.7804 0.11306 0.0
C2964 C 0.69102 0.78973 0.11513 0.0
C2965 C 0.6715 0.76837 0.10321 0.0
C2966 C 0.68115 0.76546 0.09519 0.0
C2967 C 0.69576 0.77457 0.09751 0.0
C2968 C 0.70066 0.78664 0.10733 0.0
C2969 C 0.67593 0.75297 0.08424 0.0
C2970 C 0.67948 0.7427 0.08791 0.0
C2971 C 0.66694 0.75085 0.07075 0.0
C2972 C 0.66344 0.76167 0.06573 0.0
C2973 C 0.67428 0.77556 0.06224 0.0
C2974 C 0.67092 0.78574 0.05766 0.0
C2975 C 0.65673 0.78212 0.05641 0.0
C2976 C 0.64588 0.76831 0.05969 0.0
C2977 C 0.64919 0.7581 0.06429 0.0
H2978 H 0.65414 0.79002 0.05286 0.0
H2979 H 0.68644 0.69092 0.09722 0.0
H2980 H 0.29489 0.93782 0.02394 0.0
H2981 H 0.27184 0.92638 0.03794 0.0
H2982 H 0.27713 0.96716 0.0493 0.0
H2983 H 0.30001 0.97867 0.03506 0.0
H2984 H 0.26628 0.9277 0.06917 0.0
H2985 H 0.24496 0.96472 0.05204 0.0
H2986 H 0.24594 0.97944 0.02867 0.0
H2987 H 0.25334 0.95341 0.9952 0.0
H2988 H 0.25221 0.93841 0.01833 0.0
H2989 H 0.2142 0.91778 0.12636 0.0
H2990 H 0.23443 0.9305 0.10763 0.0
H2991 H 0.20717 0.91022 0.06594 0.0
H2992 H 0.18685 0.89749 0.08462 0.0
H2993 H 0.22761 0.93779 0.05921 0.0
H2994 H 0.22489 0.89609 0.08112 0.0
H2995 H 0.22292 0.87988 0.10322 0.0
H2996 H 0.26211 0.91231 0.12399 0.0
H2997 H 0.2642 0.9288 0.10214 0.0
C2998 C 0.2911 0.94436 0.02929 0.0
C2999 C 0.29931 0.95916 0.02841 0.0
C3000 C 0.27793 0.9378 0.03729 0.0
C3001 C 0.27272 0.94591 0.04455 0.0
C3002 C 0.28082 0.96068 0.04354 0.0
C3003 C 0.29395 0.96725 0.03547 0.0
C3004 C 0.25922 0.93896 0.05403 0.0
C3005 C 0.25783 0.92989 0.06693 0.0
C3006 C 0.24811 0.94167 0.051 0.0
C3007 C 0.24863 0.95052 0.03696 0.0
C3008 C 0.24673 0.9621 0.03969 0.0
C3009 C 0.24733 0.9705 0.02648 0.0
C3010 C 0.24974 0.96739 0.01047 0.0
C3011 C 0.25152 0.95584 0.00762 0.0
C3012 C 0.25093 0.9474 0.02078 0.0
C3013 C 0.21249 0.9162 0.11319 0.0
C3014 C 0.19901 0.90653 0.10694 0.0
C3015 C 0.22403 0.92347 0.10252 0.0
C3016 C 0.22231 0.92108 0.08545 0.0
C3017 C 0.2087 0.91218 0.07909 0.0
C3018 C 0.19711 0.90494 0.08977 0.0
C3019 C 0.23489 0.92683 0.07447 0.0
C3020 C 0.2361 0.93563 0.06136 0.0
C3021 C 0.24575 0.92366 0.07706 0.0
C3022 C 0.24464 0.91371 0.09008 0.0
C3023 C 0.23304 0.89979 0.09046 0.0
C3024 C 0.23191 0.89055 0.10293 0.0
C3025 C 0.24237 0.89507 0.11502 0.0
C3026 C 0.25401 0.90883 0.11462 0.0
C3027 C 0.25518 0.91813 0.10219 0.0
H3028 H 0.24147 0.88791 0.12467 0.0
H3029 H 0.25021 0.97391 0.00026 0.0
H3030 H 0.35299 0.04737 0.99457 0.0
H3031 H 0.34725 0.06361 0.98096 0.0
H3032 H 0.3037 0.02997 0.97595 0.0
H3033 H 0.30953 0.01362 0.98893 0.0
H3034 H 0.3125 0.04237 0.94807 0.0
H3035 H 0.31436 0.05874 0.00323 0.0
H3036 H 0.32452 0.06754 0.03077 0.0
H3037 H 0.35972 0.10423 0.00888 0.0
H3038 H 0.34988 0.09556 0.98117 0.0
H3039 H 0.28674 0.0869 0.92098 0.0
H3040 H 0.29112 0.0713 0.93809 0.0
H3041 H 0.3362 0.10041 0.93463 0.0
H3042 H 0.33202 0.11582 0.91699 0.0
H3043 H 0.32584 0.09042 0.96737 0.0
H3044 H 0.32361 0.07286 0.91203 0.0
H3045 H 0.31255 0.06391 0.88489 0.0
H3046 H 0.27658 0.02895 0.90829 0.0
H3047 H 0.28735 0.03782 0.9356 0.0
C3048 C 0.34215 0.04352 0.9908 0.0
C3049 C 0.33172 0.02924 0.99273 0.0
C3050 C 0.33886 0.05282 0.98307 0.0
C3051 C 0.325 0.04804 0.9775 0.0
C3052 C 0.31447 0.03389 0.98006 0.0
C3053 C 0.31781 0.02457 0.98752 0.0
C3054 C 0.3217 0.05747 0.96793 0.0
C3055 C 0.3152 0.05277 0.95248 0.0
C3056 C 0.32548 0.07118 0.97346 0.0
C3057 C 0.33144 0.07643 0.99011 0.0
C3058 C 0.32433 0.06863 0.00427 0.0
C3059 C 0.33002 0.0736 0.01992 0.0
C3060 C 0.34277 0.08642 0.02157 0.0
C3061 C 0.34985 0.0943 0.00758 0.0
C3062 C 0.34421 0.08937 0.9919 0.0
C3063 C 0.2976 0.08992 0.92365 0.0
C3064 C 0.30902 0.10263 0.91755 0.0
C3065 C 0.30007 0.08104 0.93354 0.0
C3066 C 0.31398 0.08475 0.9376 0.0
C3067 C 0.32539 0.09745 0.93172 0.0
C3068 C 0.32295 0.10626 0.92168 0.0
C3069 C 0.31666 0.07523 0.9477 0.0
C3070 C 0.32307 0.07995 0.96315 0.0
C3071 C 0.31266 0.06148 0.94229 0.0
C3072 C 0.30622 0.05609 0.92587 0.0
C3073 C 0.31329 0.06333 0.9114 0.0
C3074 C 0.30708 0.05826 0.89598 0.0
C3075 C 0.29385 0.04589 0.89487 0.0
C3076 C 0.28682 0.03855 0.90917 0.0
C3077 C 0.29297 0.04358 0.92462 0.0
H3078 H 0.28906 0.04198 0.88292 0.0
H3079 H 0.34716 0.09025 0.0337 0.0
H3080 H 0.94594 0.30226 0.98498 0.0
H3081 H 0.93429 0.28008 0.96976 0.0
H3082 H 0.97239 0.27769 0.97214 0.0
H3083 H 0.98433 0.30021 0.98703 0.0
H3084 H 0.96207 0.27137 0.94229 0.0
H3085 H 0.94266 0.25576 0.99579 0.0
H3086 H 0.93129 0.25561 0.02224 0.0
H3087 H 0.89389 0.24815 0.99664 0.0
H3088 H 0.90511 0.24845 0.97001 0.0
H3089 H 0.92103 0.19934 0.91125 0.0
H3090 H 0.93599 0.21977 0.92883 0.0
H3091 H 0.90608 0.23405 0.92422 0.0
H3092 H 0.8914 0.21411 0.90622 0.0
H3093 H 0.91388 0.23243 0.95733 0.0
H3094 H 0.93529 0.25051 0.90357 0.0
H3095 H 0.94703 0.25007 0.87765 0.0
H3096 H 0.98124 0.25175 0.9051 0.0
H3097 H 0.96959 0.252 0.93121 0.0
C3098 C 0.95184 0.29699 0.98241 0.0
C3099 C 0.96607 0.30301 0.98727 0.0
C3100 C 0.94512 0.28424 0.97375 0.0
C3101 C 0.95238 0.27708 0.97002 0.0
C3102 C 0.96657 0.28301 0.97493 0.0
C3103 C 0.97336 0.29586 0.98347 0.0
C3104 C 0.94523 0.26371 0.96042 0.0
C3105 C 0.95166 0.26273 0.94578 0.0
C3106 C 0.9316 0.25244 0.96488 0.0
C3107 C 0.92478 0.25223 0.98088 0.0
C3108 C 0.93205 0.25419 0.99579 0.0
C3109 C 0.92562 0.25406 0.01082 0.0
C3110 C 0.91189 0.2519 0.01112 0.0
C3111 C 0.90454 0.24983 0.99639 0.0
C3112 C 0.91092 0.24996 0.98132 0.0
C3113 C 0.91775 0.20695 0.91375 0.0
C3114 C 0.90492 0.20499 0.90744 0.0
C3115 C 0.92627 0.21856 0.92387 0.0
C3116 C 0.92205 0.22832 0.92788 0.0
C3117 C 0.90942 0.22653 0.92139 0.0
C3118 C 0.90101 0.21507 0.91117 0.0
C3119 C 0.93057 0.24034 0.93909 0.0
C3120 C 0.92439 0.241 0.95404 0.0
C3121 C 0.94447 0.2512 0.93503 0.0
C3122 C 0.95148 0.25109 0.91934 0.0
C3123 C 0.94524 0.25065 0.90408 0.0
C3124 C 0.9519 0.25046 0.88936 0.0
C3125 C 0.96485 0.25083 0.88973 0.0
C3126 C 0.97119 0.25143 0.90483 0.0
C3127 C 0.96457 0.2516 0.9196 0.0
H3128 H 0.96998 0.2507 0.87832 0.0
H3129 H 0.90693 0.2518 0.02277 0.0
H3130 H 0.68998 0.64954 0.98786 0.0
H3131 H 0.71307 0.65757 0.97473 0.0
H3132 H 0.71713 0.69792 0.96465 0.0
H3133 H 0.69406 0.68999 0.97774 0.0
H3134 H 0.72065 0.66588 0.94256 0.0
H3135 H 0.75283 0.72318 0.96698 0.0
H3136 H 0.75396 0.73689 0.99173 0.0
H3137 H 0.73667 0.69938 0.02125 0.0
H3138 H 0.73561 0.68549 0.99674 0.0
H3139 H 0.78269 0.70595 0.89387 0.0
H3140 H 0.76124 0.70002 0.9099 0.0
H3141 H 0.78007 0.69386 0.9532 0.0
H3142 H 0.80151 0.69978 0.93726 0.0
H3143 H 0.76557 0.70845 0.95968 0.0
H3144 H 0.75816 0.66608 0.93268 0.0
H3145 H 0.75738 0.65175 0.90875 0.0
H3146 H 0.72553 0.65789 0.88629 0.0
H3147 H 0.72628 0.67244 0.91 0.0
C3148 C 0.69584 0.66016 0.98299 0.0
C3149 C 0.6902 0.66913 0.98382 0.0
C3150 C 0.709 0.66471 0.97543 0.0
C3151 C 0.71681 0.67835 0.96877 0.0
C3152 C 0.71132 0.68741 0.96985 0.0
C3153 C 0.69813 0.68284 0.97729 0.0
C3154 C 0.73046 0.68291 0.96015 0.0
C3155 C 0.73046 0.67519 0.94631 0.0
C3156 C 0.74327 0.69501 0.96511 0.0
C3157 C 0.74401 0.70328 0.97998 0.0
C3158 C 0.74931 0.71787 0.97877 0.0
C3159 C 0.74994 0.72567 0.99275 0.0
C3160 C 0.74534 0.719 0.00804 0.0
C3161 C 0.74017 0.70453 0.00939 0.0
C3162 C 0.73953 0.69668 0.99545 0.0
C3163 C 0.78231 0.70353 0.90686 0.0
C3164 C 0.79369 0.70323 0.91432 0.0
C3165 C 0.77006 0.7001 0.91597 0.0
C3166 C 0.76907 0.69641 0.93268 0.0
C3167 C 0.78065 0.69667 0.94031 0.0
C3168 C 0.79282 0.69996 0.93119 0.0
C3169 C 0.75568 0.69152 0.942 0.0
C3170 C 0.75573 0.69918 0.95593 0.0
C3171 C 0.74293 0.67929 0.93723 0.0
C3172 C 0.74238 0.67046 0.92303 0.0
C3173 C 0.75107 0.66446 0.92258 0.0
C3174 C 0.75062 0.65629 0.90907 0.0
C3175 C 0.74144 0.65394 0.89599 0.0
C3176 C 0.73265 0.65973 0.89642 0.0
C3177 C 0.73308 0.66793 0.90989 0.0
H3178 H 0.7411 0.64761 0.88554 0.0
H3179 H 0.74583 0.72506 0.01885 0.0
H3180 H 0.93822 0.64269 0.00349 0.0
H3181 H 0.92526 0.65158 0.98815 0.0
H3182 H 0.96324 0.67909 0.96032 0.0
H3183 H 0.97639 0.67075 0.97621 0.0
H3184 H 0.95062 0.69263 0.96682 0.0
H3185 H 0.93509 0.64663 0.94472 0.0
H3186 H 0.9253 0.62089 0.94537 0.0
H3187 H 0.88632 0.61483 0.96606 0.0
H3188 H 0.89596 0.64056 0.96572 0.0
H3189 H 0.91471 0.70214 0.89856 0.0
H3190 H 0.9284 0.69514 0.91568 0.0
H3191 H 0.8942 0.67688 0.95123 0.0
H3192 H 0.88068 0.68435 0.93466 0.0
H3193 H 0.9048 0.65887 0.94055 0.0
H3194 H 0.92148 0.70605 0.96121 0.0
H3195 H 0.93194 0.73178 0.95846 0.0
H3196 H 0.96981 0.73539 0.93747 0.0
H3197 H 0.95949 0.70963 0.93988 0.0
C3198 C 0.9438 0.65066 0.99414 0.0
C3199 C 0.95829 0.65598 0.99099 0.0
C3200 C 0.93637 0.65569 0.98531 0.0
C3201 C 0.94319 0.6658 0.97282 0.0
C3202 C 0.95773 0.67128 0.96986 0.0
C3203 C 0.96523 0.66648 0.97893 0.0
C3204 C 0.93519 0.67064 0.96275 0.0
C3205 C 0.9407 0.68522 0.96092 0.0
C3206 C 0.92214 0.66101 0.95516 0.0
C3207 C 0.9163 0.64553 0.95535 0.0
C3208 C 0.92447 0.63981 0.94952 0.0
C3209 C 0.91894 0.62522 0.94981 0.0
C3210 C 0.90521 0.61623 0.9558 0.0
C3211 C 0.89696 0.62181 0.96145 0.0
C3212 C 0.90245 0.63639 0.9612 0.0
C3213 C 0.91018 0.69685 0.91015 0.0
C3214 C 0.89655 0.69376 0.91517 0.0
C3215 C 0.91799 0.6928 0.91985 0.0
C3216 C 0.91227 0.68551 0.93467 0.0
C3217 C 0.89873 0.68244 0.93977 0.0
C3218 C 0.891 0.68664 0.9302 0.0
C3219 C 0.92025 0.68076 0.94471 0.0
C3220 C 0.91473 0.66621 0.94649 0.0
C3221 C 0.93341 0.6904 0.95195 0.0
C3222 C 0.93965 0.70589 0.95057 0.0
C3223 C 0.93198 0.71231 0.95587 0.0
C3224 C 0.9379 0.7269 0.9544 0.0
C3225 C 0.95152 0.73521 0.94775 0.0
C3226 C 0.95926 0.72894 0.9426 0.0
C3227 C 0.95339 0.71435 0.94403 0.0
H3228 H 0.95608 0.74651 0.94662 0.0
H3229 H 0.90095 0.60494 0.95601 0.0
H3230 H 0.34874 0.30712 -0.00066 0.0
H3231 H 0.34139 0.28435 0.98622 0.0
H3232 H 0.31748 0.29242 0.95031 0.0
H3233 H 0.32433 0.3149 0.96377 0.0
H3234 H 0.30282 0.26629 0.95917 0.0
H3235 H 0.35099 0.29672 0.94168 0.0
H3236 H 0.37664 0.31333 0.94507 0.0
H3237 H 0.38043 0.28216 0.97251 0.0
H3238 H 0.35475 0.26541 0.96946 0.0
H3239 H 0.29955 0.21822 0.89678 0.0
H3240 H 0.30446 0.23924 0.91255 0.0
H3241 H 0.3208 0.22604 0.95247 0.0
H3242 H 0.31548 0.20475 0.93711 0.0
H3243 H 0.33901 0.25417 0.94212 0.0
H3244 H 0.29013 0.22338 0.95772 0.0
H3245 H 0.26466 0.20718 0.95254 0.0
H3246 H 0.26257 0.23982 0.92622 0.0
H3247 H 0.2881 0.25617 0.93104 0.0
C3248 C 0.34189 0.30401 0.98867 0.0
C3249 C 0.33716 0.31281 0.98253 0.0
C3250 C 0.33774 0.29102 0.98113 0.0
C3251 C 0.32907 0.28676 0.96709 0.0
C3252 C 0.32418 0.29547 0.96111 0.0
C3253 C 0.32814 0.30834 0.96879 0.0
C3254 C 0.32516 0.2733 0.95852 0.0
C3255 C 0.31076 0.26373 0.95528 0.0
C3256 C 0.33548 0.26983 0.95365 0.0
C3257 C 0.35092 0.27987 0.95549 0.0
C3258 C 0.35727 0.29344 0.94854 0.0
C3259 C 0.37182 0.30288 0.95038 0.0
C3260 C 0.38015 0.29882 0.95904 0.0
C3261 C 0.37396 0.2853 0.96583 0.0
C3262 C 0.35941 0.27583 0.96404 0.0
C3263 C 0.30393 0.21963 0.90904 0.0
C3264 C 0.30717 0.2098 0.91564 0.0
C3265 C 0.30679 0.23168 0.91799 0.0
C3266 C 0.31298 0.23415 0.93365 0.0
C3267 C 0.31608 0.22433 0.94036 0.0
C3268 C 0.31311 0.21221 0.93151 0.0
C3269 C 0.31674 0.24727 0.94279 0.0
C3270 C 0.3311 0.25676 0.94609 0.0
C3271 C 0.30642 0.25076 0.94746 0.0
C3272 C 0.29106 0.24096 0.94461 0.0
C3273 C 0.28427 0.22707 0.95071 0.0
C3274 C 0.26982 0.21787 0.94786 0.0
C3275 C 0.26201 0.22246 0.93902 0.0
C3276 C 0.26864 0.23628 0.93305 0.0
C3277 C 0.28309 0.24552 0.93585 0.0
H3278 H 0.25082 0.21532 0.93682 0.0
H3279 H 0.39141 0.30613 0.96045 0.0
H3280 H 0.69241 0.01489 0.97451 0.0
H3281 H 0.71398 0.02674 0.95762 0.0
H3282 H 0.72704 0.06569 0.9839 0.0
H3283 H 0.70518 0.05407 0.00019 0.0
H3284 H 0.73108 0.07132 0.9535 0.0
H3285 H 0.74258 0.04398 0.98919 0.0
H3286 H 0.73909 0.02243 0.00277 0.0
H3287 H 0.73893 0.00441 0.95558 0.0
H3288 H 0.74225 0.02579 0.9417 0.0
H3289 H 0.80345 0.10936 0.93074 0.0
H3290 H 0.78232 0.09439 0.94724 0.0
H3291 H 0.76607 0.06333 0.90833 0.0
H3292 H 0.78694 0.07853 0.8913 0.0
H3293 H 0.76354 0.05288 0.94358 0.0
H3294 H 0.75261 0.08159 0.90862 0.0
H3295 H 0.75751 0.10414 0.89646 0.0
H3296 H 0.75803 0.12057 0.94481 0.0
H3297 H 0.75335 0.09817 0.95727 0.0
C3298 C 0.69995 0.02596 0.97675 0.0
C3299 C 0.6971 0.03356 0.98865 0.0
C3300 C 0.71232 0.03271 0.96714 0.0
C3301 C 0.72228 0.04711 0.96957 0.0
C3302 C 0.71954 0.05461 0.98171 0.0
C3303 C 0.70704 0.04794 0.99105 0.0
C3304 C 0.73523 0.05458 0.95903 0.0
C3305 C 0.73823 0.06731 0.95156 0.0
C3306 C 0.74447 0.04927 0.95608 0.0
C3307 C 0.74251 0.03642 0.9644 0.0
C3308 C 0.7417 0.03538 0.9817 0.0
C3309 C 0.73977 0.0232 0.98946 0.0
C3310 C 0.73875 0.01204 0.98004 0.0
C3311 C 0.7397 0.01305 0.96285 0.0
C3312 C 0.74162 0.0252 0.95504 0.0
C3313 C 0.79538 0.0994 0.92558 0.0
C3314 C 0.79683 0.09529 0.90954 0.0
C3315 C 0.78338 0.0908 0.93513 0.0
C3316 C 0.77265 0.07783 0.92894 0.0
C3317 C 0.7743 0.0733 0.9133 0.0
C3318 C 0.78626 0.082 0.90362 0.0
C3319 C 0.75932 0.06955 0.93844 0.0
C3320 C 0.75629 0.05674 0.9456 0.0
C3321 C 0.75014 0.07486 0.94136 0.0
C3322 C 0.75277 0.08826 0.93388 0.0
C3323 C 0.75389 0.09005 0.91666 0.0
C3324 C 0.75661 0.1028 0.90972 0.0
C3325 C 0.75812 0.11379 0.91986 0.0
C3326 C 0.75687 0.11205 0.93697 0.0
C3327 C 0.75418 0.09933 0.94398 0.0
H3328 H 0.76022 0.12365 0.91446 0.0
H3329 H 0.73725 0.00262 0.98607 0.0
H3330 H 0.68882 0.97985 0.03375 0.0
H3331 H 0.6944 0.96344 0.04718 0.0
H3332 H 0.65107 0.92976 0.04113 0.0
H3333 H 0.64541 0.94612 0.02749 0.0
H3334 H 0.66126 0.93319 0.07371 0.0
H3335 H 0.67554 0.92854 0.01903 0.0
H3336 H 0.68832 0.93717 0.99258 0.0
H3337 H 0.72817 0.95689 0.01796 0.0
H3338 H 0.71562 0.94855 0.0446 0.0
H3339 H 0.6728 0.88076 0.10745 0.0
H3340 H 0.66621 0.894 0.08906 0.0
H3341 H 0.71016 0.92705 0.08548 0.0
H3342 H 0.71682 0.91361 0.10352 0.0
H3343 H 0.69861 0.92277 0.05648 0.0
H3344 H 0.6855 0.9298 0.11071 0.0
H3345 H 0.67372 0.92273 0.13791 0.0
H3346 H 0.633 0.90058 0.1145 0.0
H3347 H 0.64456 0.90736 0.08714 0.0
C3348 C 0.68052 0.9689 0.03504 0.0
C3349 C 0.66666 0.96427 0.02959 0.0
C3350 C 0.68374 0.95953 0.04268 0.0
C3351 C 0.67315 0.94539 0.04512 0.0
C3352 C 0.65938 0.94064 0.03933 0.0
C3353 C 0.65619 0.94998 0.03148 0.0
C3354 C 0.6763 0.93588 0.05471 0.0
C3355 C 0.66922 0.93066 0.06981 0.0
C3356 C 0.68704 0.93304 0.04985 0.0
C3357 C 0.69462 0.93801 0.03383 0.0
C3358 C 0.68702 0.93481 0.01899 0.0
C3359 C 0.69423 0.93963 0.00395 0.0
C3360 C 0.70905 0.9476 0.00359 0.0
C3361 C 0.71669 0.95073 0.01826 0.0
C3362 C 0.70954 0.94594 0.03333 0.0
C3363 C 0.68104 0.89088 0.10278 0.0
C3364 C 0.69531 0.89621 0.107 0.0
C3365 C 0.67726 0.89844 0.09228 0.0
C3366 C 0.68765 0.91165 0.08608 0.0
C3367 C 0.70195 0.91689 0.09009 0.0
C3368 C 0.70575 0.90923 0.10041 0.0
C3369 C 0.68361 0.92008 0.07558 0.0
C3370 C 0.69054 0.92516 0.06034 0.0
C3371 C 0.67289 0.92301 0.08043 0.0
C3372 C 0.6659 0.91896 0.09687 0.0
C3373 C 0.67404 0.92333 0.11136 0.0
C3374 C 0.6674 0.91939 0.1268 0.0
C3375 C 0.65262 0.91118 0.12793 0.0
C3376 C 0.64445 0.90692 0.11361 0.0
C3377 C 0.65103 0.91082 0.09813 0.0
H3378 H 0.6475 0.90814 0.1399 0.0
H3379 H 0.71461 0.95133 0.99194 0.0
H3380 H 0.01209 0.69993 0.04665 0.0
H3381 H 0.02724 0.72354 0.05754 0.0
H3382 H 0.05928 0.73104 0.02104 0.0
H3383 H 0.04422 0.70696 0.01039 0.0
H3384 H 0.07135 0.74002 0.04921 0.0
H3385 H 0.0392 0.74787 0.01938 0.0
H3386 H 0.01617 0.74355 0.00916 0.0
H3387 H 0.00393 0.74782 0.05835 0.0
H3388 H 0.0268 0.75196 0.06893 0.0
H3389 H 0.10808 0.81172 0.08061 0.0
H3390 H 0.09431 0.79265 0.06073 0.0
H3391 H 0.06333 0.7692 0.09861 0.0
H3392 H 0.07725 0.78803 0.1186 0.0
H3393 H 0.05275 0.77138 0.0646 0.0
H3394 H 0.08453 0.75953 0.0935 0.0
H3395 H 0.10827 0.76483 0.10231 0.0
H3396 H 0.12199 0.76976 0.05175 0.0
H3397 H 0.09837 0.76469 0.04266 0.0
C3398 C 0.0223 0.70662 0.04079 0.0
C3399 C 0.02695 0.70158 0.02762 0.0
C3400 C 0.03093 0.7202 0.04697 0.0
C3401 C 0.0443 0.72923 0.03991 0.0
C3402 C 0.04896 0.7243 0.02662 0.0
C3403 C 0.04036 0.71056 0.02054 0.0
C3404 C 0.05364 0.74341 0.04727 0.0
C3405 C 0.06736 0.74701 0.05219 0.0
C3406 C 0.04851 0.7526 0.05124 0.0
C3407 C 0.03471 0.75016 0.04496 0.0
C3408 C 0.03156 0.7478 0.02805 0.0
C3409 C 0.01854 0.74539 0.02218 0.0
C3410 C 0.00859 0.74539 0.0331 0.0
C3411 C 0.01165 0.74782 0.0499 0.0
C3412 C 0.02466 0.75022 0.05584 0.0
C3413 C 0.09823 0.80255 0.08457 0.0
C3414 C 0.09366 0.80126 0.10105 0.0
C3415 C 0.09043 0.79171 0.07327 0.0
C3416 C 0.07784 0.77959 0.07826 0.0
C3417 C 0.073 0.77853 0.09456 0.0
C3418 C 0.08094 0.78922 0.10594 0.0
C3419 C 0.07008 0.76758 0.06685 0.0
C3420 C 0.05673 0.76446 0.06122 0.0
C3421 C 0.07563 0.75899 0.06194 0.0
C3422 C 0.08977 0.76192 0.06742 0.0
C3423 C 0.09266 0.76189 0.08427 0.0
C3424 C 0.10608 0.76482 0.08932 0.0
C3425 C 0.11665 0.76768 0.0776 0.0
C3426 C 0.1138 0.76757 0.06081 0.0
C3427 C 0.1004 0.76467 0.05571 0.0
H3428 H 0.12703 0.76994 0.08153 0.0
H3429 H -0.00149 0.74353 0.02853 0.0
H3430 H 0.30698 0.32833 0.03148 0.0
H3431 H 0.285 0.31656 0.04773 0.0
H3432 H 0.28705 0.35646 0.05484 0.0
H3433 H 0.30899 0.36831 0.03879 0.0
H3434 H 0.28261 0.34214 0.08362 0.0
H3435 H 0.26371 0.33217 0.02816 0.0
H3436 H 0.26102 0.32269 -8e-05 0.0
H3437 H 0.24615 0.28121 0.01936 0.0
H3438 H 0.24893 0.29049 0.04773 0.0
H3439 H 0.21605 0.32689 0.11161 0.0
H3440 H 0.23726 0.33397 0.09495 0.0
H3441 H 0.2274 0.2907 0.09281 0.0
H3442 H 0.20598 0.28349 0.10957 0.0
H3443 H 0.23624 0.30386 0.06289 0.0
H3444 H 0.25295 0.31316 0.11817 0.0
H3445 H 0.25544 0.32237 0.1465 0.0
H3446 H 0.27466 0.36465 0.12781 0.0
H3447 H 0.27209 0.35568 0.09933 0.0
C3448 C 0.3027 0.33459 0.03641 0.0
C3449 C 0.30977 0.34928 0.03388 0.0
C3450 C 0.29013 0.32783 0.04565 0.0
C3451 C 0.28442 0.33565 0.05244 0.0
C3452 C 0.29133 0.35025 0.04973 0.0
C3453 C 0.30385 0.357 0.04051 0.0
C3454 C 0.2715 0.32883 0.0629 0.0
C3455 C 0.27244 0.33384 0.07905 0.0
C3456 C 0.25839 0.31763 0.05711 0.0
C3457 C 0.25669 0.31206 0.04006 0.0
C3458 C 0.25999 0.32105 0.02641 0.0
C3459 C 0.25842 0.31571 0.01038 0.0
C3460 C 0.25346 0.30137 0.00785 0.0
C3461 C 0.25002 0.29233 0.02134 0.0
C3462 C 0.25158 0.29762 0.0374 0.0
C3463 C 0.21845 0.31889 0.10773 0.0
C3464 C 0.20949 0.30467 0.11208 0.0
C3465 C 0.23055 0.32294 0.09817 0.0
C3466 C 0.23403 0.31289 0.09291 0.0
C3467 C 0.22492 0.29861 0.09683 0.0
C3468 C 0.21272 0.29452 0.10637 0.0
C3469 C 0.24728 0.3175 0.08342 0.0
C3470 C 0.24643 0.31203 0.06752 0.0
C3471 C 0.26054 0.32825 0.08946 0.0
C3472 C 0.26224 0.33372 0.10659 0.0
C3473 C 0.25763 0.32441 0.12008 0.0
C3474 C 0.25906 0.32959 0.13618 0.0
C3475 C 0.26519 0.34408 0.13895 0.0
C3476 C 0.26992 0.35343 0.12564 0.0
C3477 C 0.26849 0.3483 0.10952 0.0
H3478 H 0.26628 0.34807 0.15142 0.0
H3479 H 0.25225 0.29725 0.99543 0.0
H3480 H 0.71256 0.68468 0.36221 0.0
H3481 H 0.7275 0.67738 0.37616 0.0
H3482 H 0.69122 0.63555 0.38276 0.0
H3483 H 0.67615 0.64294 0.36933 0.0
H3484 H 0.70497 0.64378 0.41015 0.0
H3485 H 0.71851 0.64314 0.35409 0.0
H3486 H 0.72682 0.65246 0.32608 0.0
H3487 H 0.76607 0.68567 0.34583 0.0
H3488 H 0.75791 0.67665 0.37399 0.0
H3489 H 0.74532 0.61236 0.43486 0.0
H3490 H 0.73027 0.61836 0.41887 0.0
H3491 H 0.76317 0.66224 0.41945 0.0
H3492 H 0.77808 0.65648 0.43595 0.0
H3493 H 0.75101 0.65214 0.38793 0.0
H3494 H 0.73654 0.65249 0.44424 0.0
H3495 H 0.728 0.64233 0.47189 0.0
H3496 H 0.68996 0.60838 0.45076 0.0
H3497 H 0.69838 0.61823 0.42293 0.0
C3498 C 0.7078 0.67389 0.36649 0.0
C3499 C 0.69318 0.66438 0.36468 0.0
C3500 C 0.71637 0.6697 0.37441 0.0
C3501 C 0.71053 0.65585 0.38038 0.0
C3502 C 0.69597 0.64629 0.3783 0.0
C3503 C 0.68738 0.65052 0.37057 0.0
C3504 C 0.71945 0.6515 0.38944 0.0
C3505 C 0.71492 0.6454 0.40513 0.0
C3506 C 0.73259 0.65384 0.38309 0.0
C3507 C 0.73754 0.65929 0.36617 0.0
C3508 C 0.72887 0.65249 0.35247 0.0
C3509 C 0.73356 0.65771 0.33656 0.0
C3510 C 0.74695 0.66967 0.33418 0.0
C3511 C 0.75569 0.67642 0.3477 0.0
C3512 C 0.75104 0.67125 0.36363 0.0
C3513 C 0.74932 0.62331 0.43178 0.0
C3514 C 0.76295 0.63392 0.43674 0.0
C3515 C 0.74073 0.6267 0.42254 0.0
C3516 C 0.74563 0.64074 0.418 0.0
C3517 C 0.75925 0.65133 0.42274 0.0
C3518 C 0.76778 0.64798 0.43212 0.0
C3519 C 0.73648 0.64446 0.40852 0.0
C3520 C 0.741 0.65046 0.39281 0.0
C3521 C 0.72327 0.6419 0.41476 0.0
C3522 C 0.71816 0.63601 0.43149 0.0
C3523 C 0.72641 0.64279 0.44547 0.0
C3524 C 0.72158 0.6371 0.46118 0.0
C3525 C 0.70846 0.6247 0.46308 0.0
C3526 C 0.70013 0.61798 0.44927 0.0
C3527 C 0.70492 0.62361 0.43353 0.0
H3528 H 0.70474 0.62031 0.47525 0.0
H3529 H 0.75056 0.6737 0.32185 0.0
H3530 H 0.34151 0.02864 0.3732 0.0
H3531 H 0.35344 0.05029 0.38974 0.0
H3532 H 0.31567 0.0533 0.38861 0.0
H3533 H 0.30363 0.03166 0.37237 0.0
H3534 H 0.36002 0.07723 0.38503 0.0
H3535 H 0.31058 0.06414 0.42538 0.0
H3536 H 0.28929 0.04314 0.43648 0.0
H3537 H 0.31068 0.01953 0.43385 0.0
H3538 H 0.33216 0.04043 0.42296 0.0
H3539 H 0.36592 0.13812 0.42316 0.0
H3540 H 0.35989 0.11666 0.40768 0.0
H3541 H 0.35898 0.09577 0.45296 0.0
H3542 H 0.36469 0.11714 0.46851 0.0
H3543 H 0.33652 0.07959 0.43659 0.0
H3544 H 0.38559 0.10519 0.42311 0.0
H3545 H 0.40831 0.12538 0.41362 0.0
H3546 H 0.39059 0.12273 0.36577 0.0
H3547 H 0.36768 0.10264 0.37505 0.0
C3548 C 0.33577 0.03395 0.37641 0.0
C3549 C 0.32156 0.02833 0.37159 0.0
C3550 C 0.34262 0.04634 0.38582 0.0
C3551 C 0.33537 0.05328 0.39061 0.0
C3552 C 0.32137 0.04797 0.38531 0.0
C3553 C 0.31452 0.0356 0.37597 0.0
C3554 C 0.3422 0.06588 0.40147 0.0
C3555 C 0.35494 0.07777 0.39634 0.0
C3556 C 0.33577 0.06641 0.41647 0.0
C3557 C 0.32294 0.05383 0.42322 0.0
C3558 C 0.31076 0.05449 0.42724 0.0
C3559 C 0.29865 0.0426 0.43348 0.0
C3560 C 0.29862 0.03 0.43582 0.0
C3561 C 0.3107 0.02928 0.43198 0.0
C3562 C 0.32284 0.04114 0.42575 0.0
C3563 C 0.36468 0.12902 0.42976 0.0
C3564 C 0.36572 0.12926 0.44703 0.0
C3565 C 0.36127 0.11676 0.4209 0.0
C3566 C 0.35909 0.1046 0.42913 0.0
C3567 C 0.36057 0.10499 0.44634 0.0
C3568 C 0.36381 0.11719 0.45521 0.0
C3569 C 0.35418 0.09119 0.41994 0.0
C3570 C 0.34174 0.07909 0.42538 0.0
C3571 C 0.36111 0.09039 0.40548 0.0
C3572 C 0.37488 0.10247 0.39982 0.0
C3573 C 0.3865 0.10898 0.4106 0.0
C3574 C 0.39942 0.1204 0.40525 0.0
C3575 C 0.40088 0.12535 0.38911 0.0
C3576 C 0.38944 0.11888 0.37828 0.0
C3577 C 0.37648 0.10747 0.38357 0.0
H3578 H 0.4109 0.1342 0.385 0.0
H3579 H 0.28923 0.02081 0.44064 0.0
H3580 H 0.97373 0.31455 0.36465 0.0
H3581 H 0.95013 0.30235 0.3774 0.0
H3582 H 0.95222 0.26434 0.38103 0.0
H3583 H 0.9757 0.27635 0.36818 0.0
H3584 H 0.92703 0.25921 0.36861 0.0
H3585 H 0.95753 0.28496 0.4145 0.0
H3586 H 0.97543 0.30634 0.42908 0.0
H3587 H 0.94851 0.32411 0.42589 0.0
H3588 H 0.93052 0.30289 0.41109 0.0
H3589 H 0.87735 0.21697 0.42851 0.0
H3590 H 0.89847 0.23216 0.41214 0.0
H3591 H 0.88839 0.26531 0.41403 0.0
H3592 H 0.86729 0.25019 0.43088 0.0
H3593 H 0.91608 0.275 0.4213 0.0
H3594 H 0.88426 0.24791 0.37847 0.0
H3595 H 0.86626 0.2264 0.36421 0.0
H3596 H 0.8954 0.21117 0.36147 0.0
H3597 H 0.91351 0.23249 0.37593 0.0
C3598 C 0.96919 0.30361 0.36822 0.0
C3599 C 0.97661 0.29642 0.3654 0.0
C3600 C 0.95572 0.29667 0.37552 0.0
C3601 C 0.94948 0.28247 0.38019 0.0
C3602 C 0.95686 0.2753 0.37745 0.0
C3603 C 0.9703 0.28221 0.37017 0.0
C3604 C 0.93519 0.27494 0.38784 0.0
C3605 C 0.92464 0.2626 0.38019 0.0
C3606 C 0.93197 0.27968 0.40261 0.0
C3607 C 0.94277 0.29242 0.41151 0.0
C3608 C 0.95549 0.29348 0.41678 0.0
C3609 C 0.96563 0.30556 0.42511 0.0
C3610 C 0.96313 0.3166 0.42836 0.0
C3611 C 0.95045 0.31556 0.42333 0.0
C3612 C 0.94027 0.30351 0.41498 0.0
C3613 C 0.87963 0.2275 0.42547 0.0
C3614 C 0.87073 0.23243 0.43103 0.0
C3615 C 0.89162 0.23612 0.41597 0.0
C3616 C 0.8949 0.2498 0.41173 0.0
C3617 C 0.88598 0.25475 0.41712 0.0
C3618 C 0.87392 0.24609 0.42663 0.0
C3619 C 0.90804 0.25903 0.40231 0.0
C3620 C 0.91837 0.27172 0.40959 0.0
C3621 C 0.91107 0.25462 0.38717 0.0
C3622 C 0.90022 0.24178 0.37839 0.0
C3623 C 0.8868 0.23993 0.37494 0.0
C3624 C 0.87658 0.22778 0.3668 0.0
C3625 C 0.87968 0.21742 0.36196 0.0
C3626 C 0.89301 0.2192 0.36522 0.0
C3627 C 0.90327 0.23133 0.37337 0.0
H3628 H 0.87175 0.20801 0.35566 0.0
H3629 H 0.97099 0.32593 0.43482 0.0
H3630 H 0.98486 0.34976 0.3158 0.0
H3631 H 0.9801 0.36668 0.30223 0.0
H3632 H 0.02316 0.39993 0.31134 0.0
H3633 H 0.0279 0.38312 0.32531 0.0
H3634 H 0.00524 0.40951 0.31519 0.0
H3635 H 0.01378 0.38287 0.27424 0.0
H3636 H 0.01008 0.36129 0.26022 0.0
H3637 H 0.96694 0.34928 0.24991 0.0
H3638 H 0.97033 0.37071 0.26406 0.0
H3639 H 0.0149 0.45695 0.25056 0.0
H3640 H 0.01624 0.44007 0.26884 0.0
H3641 H 0.97183 0.41026 0.26078 0.0
H3642 H 0.97046 0.42706 0.24229 0.0
H3643 H 0.98886 0.39851 0.25722 0.0
H3644 H 0.98168 0.42703 0.2966 0.0
H3645 H 0.98654 0.44927 0.30988 0.0
H3646 H 0.0285 0.45855 0.3223 0.0
H3647 H 0.02397 0.43645 0.30888 0.0
C3648 C 0.99326 0.36071 0.31511 0.0
C3649 C 0.0068 0.3651 0.32146 0.0
C3650 C 0.99054 0.37035 0.3073 0.0
C3651 C 0.00136 0.3845 0.30549 0.0
C3652 C 0.01468 0.38905 0.31255 0.0
C3653 C 0.01737 0.37943 0.3205 0.0
C3654 C -0.00093 0.39435 0.29544 0.0
C3655 C 0.00177 0.40717 0.30248 0.0
C3656 C 0.99432 0.39118 0.27892 0.0
C3657 C 0.99226 0.37831 0.27037 0.0
C3658 C 0.00347 0.37557 0.26909 0.0
C3659 C 0.00144 0.36338 0.26111 0.0
C3660 C 0.98827 0.3539 0.25423 0.0
C3661 C 0.97712 0.35662 0.25527 0.0
C3662 C 0.9791 0.36879 0.26327 0.0
C3663 C 0.00544 0.44678 0.25265 0.0
C3664 C 0.99258 0.44328 0.24498 0.0
C3665 C 0.00619 0.43721 0.2632 0.0
C3666 C 0.9941 0.42399 0.26626 0.0
C3667 C 0.98125 0.42045 0.25862 0.0
C3668 C 0.98047 0.43006 0.24814 0.0
C3669 C 0.99506 0.41367 0.27695 0.0
C3670 C 0.99218 0.40079 0.26999 0.0
C3671 C -0.00021 0.41687 0.29345 0.0
C3672 C 0.00252 0.43014 0.30161 0.0
C3673 C 0.99199 0.43386 0.30205 0.0
C3674 C 0.99467 0.44644 0.30962 0.0
C3675 C 0.00783 0.45533 0.31689 0.0
C3676 C 0.01832 0.45165 0.31664 0.0
C3677 C 0.01569 0.4391 0.30907 0.0
H3678 H 0.00989 0.46506 0.32275 0.0
H3679 H 0.98672 0.34447 0.24805 0.0
H3680 H 0.60683 0.63603 0.31625 0.0
H3681 H 0.5957 0.6141 0.30041 0.0
H3682 H 0.63612 0.61635 0.2958 0.0
H3683 H 0.6473 0.63815 0.31201 0.0
H3684 H 0.59944 0.60871 0.26999 0.0
H3685 H 0.63085 0.58304 0.29363 0.0
H3686 H 0.6431 0.58259 0.31883 0.0
H3687 H 0.61638 0.59237 0.34825 0.0
H3688 H 0.60385 0.59269 0.32326 0.0
H3689 H 0.58506 0.55174 0.21736 0.0
H3690 H 0.59816 0.57295 0.23435 0.0
H3691 H 0.57637 0.54895 0.27778 0.0
H3692 H 0.56333 0.5277 0.26088 0.0
H3693 H 0.60349 0.56716 0.28458 0.0
H3694 H 0.56533 0.56899 0.25829 0.0
H3695 H 0.55094 0.56845 0.23475 0.0
H3696 H 0.58727 0.60479 0.21391 0.0
H3697 H 0.60193 0.60542 0.23723 0.0
C3698 C 0.61337 0.63185 0.31193 0.0
C3699 C 0.62796 0.63884 0.31544 0.0
C3700 C 0.60698 0.61932 0.30283 0.0
C3701 C 0.61504 0.61351 0.29701 0.0
C3702 C 0.62963 0.6205 0.30039 0.0
C3703 C 0.63602 0.633 0.30961 0.0
C3704 C 0.60815 0.60028 0.28716 0.0
C3705 C 0.60037 0.59965 0.27318 0.0
C3706 C 0.60918 0.58836 0.29141 0.0
C3707 C 0.61653 0.58804 0.30655 0.0
C3708 C 0.62756 0.58504 0.30548 0.0
C3709 C 0.63456 0.58482 0.31973 0.0
C3710 C 0.63055 0.5875 0.33512 0.0
C3711 C 0.61951 0.59035 0.33631 0.0
C3712 C 0.61247 0.59058 0.32211 0.0
C3713 C 0.58311 0.55098 0.23054 0.0
C3714 C 0.5731 0.53808 0.23777 0.0
C3715 C 0.59061 0.5631 0.24023 0.0
C3716 C 0.58809 0.56258 0.2573 0.0
C3717 C 0.5785 0.54959 0.26464 0.0
C3718 C 0.57107 0.53745 0.25497 0.0
C3719 C 0.59489 0.57567 0.26739 0.0
C3720 C 0.60266 0.57627 0.28137 0.0
C3721 C 0.59357 0.58745 0.26338 0.0
C3722 C 0.58475 0.58717 0.24942 0.0
C3723 C 0.57027 0.57681 0.24863 0.0
C3724 C 0.56206 0.57649 0.23534 0.0
C3725 C 0.5682 0.58656 0.22282 0.0
C3726 C 0.58254 0.59699 0.2236 0.0
C3727 C 0.5908 0.59734 0.23686 0.0
H3728 H 0.56182 0.58629 0.21253 0.0
H3729 H 0.63599 0.58733 0.34613 0.0
H3730 H 0.35119 0.97376 0.32611 0.0
H3731 H 0.37209 0.9774 0.31069 0.0
H3732 H 0.38219 0.01965 0.2984 0.0
H3733 H 0.36107 0.0159 0.31336 0.0
H3734 H 0.38447 0.00718 0.27206 0.0
H3735 H 0.40127 0.01278 0.32763 0.0
H3736 H 0.40075 0.00614 0.35673 0.0
H3737 H 0.40156 0.96907 0.34162 0.0
H3738 H 0.4019 0.97539 0.3124 0.0
H3739 H 0.45605 0.03295 0.24562 0.0
H3740 H 0.43543 0.02907 0.2618 0.0
H3741 H 0.42031 0.98448 0.26355 0.0
H3742 H 0.44044 0.98805 0.24662 0.0
H3743 H 0.42084 0.99797 0.29512 0.0
H3744 H 0.40384 0.99256 0.23953 0.0
H3745 H 0.40487 -0.00036 0.21052 0.0
H3746 H 0.40509 0.03713 0.22613 0.0
H3747 H 0.40426 0.03035 0.25527 0.0
C3748 C 0.35794 0.98387 0.32025 0.0
C3749 C 0.3545 0.99455 0.32095 0.0
C3750 C 0.36992 0.98596 0.31148 0.0
C3751 C 0.37881 -0.00114 0.3035 0.0
C3752 C 0.37549 0.00961 0.30442 0.0
C3753 C 0.36344 0.00747 0.31303 0.0
C3754 C 0.39129 0.001 0.29371 0.0
C3755 C 0.39252 0.00537 0.27722 0.0
C3756 C 0.40165 -0.00169 0.30027 0.0
C3757 C 0.40147 0.99449 0.31782 0.0
C3758 C 0.40123 0.00316 0.33051 0.0
C3759 C 0.40099 -0.00054 0.34702 0.0
C3760 C 0.40109 0.98717 0.35102 0.0
C3761 C 0.40146 0.97858 0.3385 0.0
C3762 C 0.40169 0.98222 0.32196 0.0
C3763 C 0.44826 0.02227 0.24919 0.0
C3764 C 0.44996 0.01082 0.24474 0.0
C3765 C 0.43654 0.02011 0.25856 0.0
C3766 C 0.42641 0.0065 0.26384 0.0
C3767 C 0.4281 0.99507 0.25965 0.0
C3768 C 0.43968 0.99718 0.25005 0.0
C3769 C 0.41397 0.00421 0.27366 0.0
C3770 C 0.41277 -0.0002 0.29008 0.0
C3771 C 0.40369 0.00693 0.26709 0.0
C3772 C 0.40415 0.01103 0.24958 0.0
C3773 C 0.40425 0.00238 0.23678 0.0
C3774 C 0.40476 0.00632 0.22032 0.0
C3775 C 0.40509 0.01885 0.21648 0.0
C3776 C 0.40486 0.02744 0.22912 0.0
C3777 C 0.40435 0.02354 0.24561 0.0
H3778 H 0.40549 0.02188 0.20373 0.0
H3779 H 0.4009 0.98433 0.36382 0.0
H3780 H 0.64263 0.00173 0.31986 0.0
H3781 H 0.63036 0.01093 0.30353 0.0
H3782 H 0.5973 0.96838 0.2923 0.0
H3783 H 0.60938 0.9591 0.30854 0.0
H3784 H 0.6074 0.98565 0.26468 0.0
H3785 H 0.59138 0.98683 0.32029 0.0
H3786 H 0.59474 0.99389 0.3496 0.0
H3787 H 0.61643 0.03759 0.33562 0.0
H3788 H 0.61336 0.03078 0.30621 0.0
H3789 H 0.5489 0.9889 0.23689 0.0
H3790 H 0.56554 0.98475 0.25209 0.0
H3791 H 0.59195 0.02947 0.26113 0.0
H3792 H 0.575 0.03368 0.24632 0.0
H3793 H 0.58849 0.01445 0.2887 0.0
H3794 H 0.60227 0.01351 0.23321 0.0
H3795 H 0.599 0.00675 0.20382 0.0
H3796 H 0.58236 0.96336 0.21704 0.0
H3797 H 0.58532 0.96981 0.24653 0.0
C3798 C 0.63271 0.99434 0.31397 0.0
C3799 C 0.62698 0.97968 0.31552 0.0
C3800 C 0.62572 -0.00039 0.30467 0.0
C3801 C 0.61294 0.99032 0.29674 0.0
C3802 C 0.60719 0.97571 0.29829 0.0
C3803 C 0.61409 0.97044 0.30766 0.0
C3804 C 0.60548 0.99567 0.28665 0.0
C3805 C 0.60318 0.99187 0.26993 0.0
C3806 C 0.60046 0.00422 0.2934 0.0
C3807 C 0.60229 0.0083 0.31107 0.0
C3808 C 0.59698 0.99795 0.32347 0.0
C3809 C 0.59881 0.0019 0.3401 0.0
C3810 C 0.60584 0.01618 0.34447 0.0
C3811 C 0.61102 0.02653 0.33222 0.0
C3812 C 0.60923 0.02264 0.31557 0.0
C3813 C 0.55819 0.99786 0.2422 0.0
C3814 C 0.56061 0.01162 0.24045 0.0
C3815 C 0.56778 0.99548 0.25073 0.0
C3816 C 0.58008 0.00682 0.25755 0.0
C3817 C 0.58256 0.02058 0.25587 0.0
C3818 C 0.57293 0.02298 0.24732 0.0
C3819 C 0.59006 0.00409 0.2668 0.0
C3820 C 0.59288 0.00841 0.28335 0.0
C3821 C 0.59566 0.99609 0.25985 0.0
C3822 C 0.59394 0.99214 0.2421 0.0
C3823 C 0.59782 0.00251 0.22986 0.0
C3824 C 0.59604 -0.00127 0.21318 0.0
C3825 C 0.59046 0.98463 0.20857 0.0
C3826 C 0.58668 0.97428 0.22063 0.0
C3827 C 0.58843 0.97799 0.23733 0.0
H3828 H 0.58908 0.98173 0.19564 0.0
H3829 H 0.60724 0.01922 0.35735 0.0
H3830 H 0.01908 0.63929 0.33855 0.0
H3831 H 0.01586 0.61824 0.3241 0.0
H3832 H 0.99507 0.62636 0.28424 0.0
H3833 H -0.00236 0.64691 0.29899 0.0
H3834 H 0.98147 0.60002 0.28979 0.0
H3835 H 0.03093 0.63419 0.28255 0.0
H3836 H 0.05529 0.65152 0.29123 0.0
H3837 H 0.05748 0.61935 0.31848 0.0
H3838 H 0.03304 0.60185 0.31013 0.0
H3839 H 0.99333 0.56295 0.22461 0.0
H3840 H 0.99557 0.58203 0.24257 0.0
H3841 H 0.00111 0.56157 0.28466 0.0
H3842 H -0.00144 0.54229 0.26679 0.0
H3843 H 0.02208 0.59274 0.27954 0.0
H3844 H 0.97199 0.55836 0.28402 0.0
H3845 H 0.94828 0.54191 0.27278 0.0
H3846 H 0.94834 0.57615 0.24755 0.0
H3847 H 0.97217 0.59277 0.25844 0.0
C3848 C 0.0138 0.63653 0.32672 0.0
C3849 C 0.00863 0.64473 0.31987 0.0
C3850 C 0.01203 0.62456 0.31843 0.0
C3851 C 0.00541 0.62081 0.30294 0.0
C3852 C 0.00018 0.62898 0.29618 0.0
C3853 C 0.00169 0.64076 0.3046 0.0
C3854 C 0.00384 0.60839 0.29369 0.0
C3855 C 0.99041 0.59854 0.28746 0.0
C3856 C 0.01542 0.60626 0.29082 0.0
C3857 C 0.0301 0.61676 0.29587 0.0
C3858 C 0.03657 0.63084 0.2905 0.0
C3859 C 0.05039 0.64069 0.29534 0.0
C3860 C 0.05791 0.63655 0.30544 0.0
C3861 C 0.05163 0.62254 0.31068 0.0
C3862 C 0.0378 0.61266 0.30589 0.0
C3863 C 0.99501 0.56255 0.2377 0.0
C3864 C 0.99574 0.5512 0.24439 0.0
C3865 C 0.99626 0.57339 0.24791 0.0
C3866 C -0.00152 0.57313 0.26489 0.0
C3867 C -0.0006 0.5619 0.27157 0.0
C3868 C -0.00213 0.55091 0.26141 0.0
C3869 C -0.00017 0.58464 0.2756 0.0
C3870 C 0.01319 0.59426 0.28206 0.0
C3871 C 0.98828 0.58674 0.27838 0.0
C3872 C 0.97392 0.57678 0.27192 0.0
C3873 C 0.967 0.56236 0.27595 0.0
C3874 C 0.95353 0.55301 0.26967 0.0
C3875 C 0.94682 0.55798 0.25943 0.0
C3876 C 0.95356 0.57231 0.25548 0.0
C3877 C 0.96704 0.5817 0.26171 0.0
H3878 H 0.93639 0.55072 0.25458 0.0
H3879 H 0.06862 0.64419 0.30917 0.0
H3880 H 0.36678 0.35621 0.32047 0.0
H3881 H 0.38877 0.36797 0.30422 0.0
H3882 H 0.3845 0.40465 0.29934 0.0
H3883 H 0.36256 0.39303 0.31545 0.0
H3884 H 0.39045 0.3965 0.2699 0.0
H3885 H 0.40822 0.40485 0.3257 0.0
H3886 H 0.41075 0.39777 0.35368 0.0
H3887 H 0.42765 0.37318 0.33333 0.0
H3888 H 0.42504 0.37997 0.3052 0.0
H3889 H 0.45729 0.44885 0.24123 0.0
H3890 H 0.436 0.43489 0.25797 0.0
H3891 H 0.44621 0.40196 0.26203 0.0
H3892 H 0.46768 0.416 0.24534 0.0
H3893 H 0.43699 0.40616 0.29103 0.0
H3894 H 0.4206 0.39847 0.23554 0.0
H3895 H 0.41806 0.40509 0.20733 0.0
H3896 H 0.39824 0.42739 0.22649 0.0
H3897 H 0.40085 0.42108 0.25486 0.0
C3898 C 0.37054 0.3668 0.31599 0.0
C3899 C 0.36289 0.37367 0.31928 0.0
C3900 C 0.38314 0.37351 0.30675 0.0
C3901 C 0.3883 0.3872 0.30064 0.0
C3902 C 0.38069 0.39407 0.30392 0.0
C3903 C 0.36816 0.38742 0.31319 0.0
C3904 C 0.40146 0.39436 0.29054 0.0
C3905 C 0.40066 0.39874 0.27457 0.0
C3906 C 0.41468 0.39684 0.29644 0.0
C3907 C 0.41628 0.39279 0.31334 0.0
C3908 C 0.41236 0.39784 0.32719 0.0
C3909 C 0.41383 0.3939 0.34307 0.0
C3910 C 0.41932 0.385 0.34528 0.0
C3911 C 0.42338 0.38005 0.3316 0.0
C3912 C 0.42192 0.38395 0.31568 0.0
C3913 C 0.45497 0.4386 0.24562 0.0
C3914 C 0.46408 0.43345 0.24183 0.0
C3915 C 0.4428 0.43063 0.25519 0.0
C3916 C 0.43936 0.41726 0.26101 0.0
C3917 C 0.44863 0.41223 0.25762 0.0
C3918 C 0.46089 0.42026 0.24812 0.0
C3919 C 0.42603 0.40856 0.2705 0.0
C3920 C 0.42678 0.40384 0.2863 0.0
C3921 C 0.41271 0.40565 0.2644 0.0
C3922 C 0.41103 0.40939 0.24734 0.0
C3923 C 0.41579 0.40487 0.23375 0.0
C3924 C 0.41432 0.40856 0.21773 0.0
C3925 C 0.40802 0.41668 0.21512 0.0
C3926 C 0.40313 0.42111 0.22853 0.0
C3927 C 0.40459 0.41747 0.24459 0.0
H3928 H 0.40689 0.41953 0.20271 0.0
H3929 H 0.42045 0.38196 0.35759 0.0
H3930 H 0.32466 0.28999 0.34888 0.0
H3931 H 0.33142 0.27405 0.36141 0.0
H3932 H 0.35416 0.305 0.39938 0.0
H3933 H 0.34801 0.32111 0.38652 0.0
H3934 H 0.36894 0.29407 0.3911 0.0
H3935 H 0.3196 0.27476 0.40489 0.0
H3936 H 0.29418 0.26517 0.39935 0.0
H3937 H 0.29281 0.23135 0.3711 0.0
H3938 H 0.31829 0.24084 0.37631 0.0
H3939 H 0.36603 0.25037 0.45769 0.0
H3940 H 0.36127 0.26518 0.43946 0.0
H3941 H 0.35424 0.23684 0.39891 0.0
H3942 H 0.35935 0.22215 0.41704 0.0
H3943 H 0.3321 0.24507 0.40579 0.0
H3944 H 0.38204 0.26438 0.39554 0.0
H3945 H 0.40699 0.27422 0.40368 0.0
H3946 H 0.40646 0.3086 0.42838 0.0
H3947 H 0.38142 0.29884 0.4206 0.0
C3948 C 0.33117 0.29339 0.35985 0.0
C3949 C 0.33577 0.30678 0.36674 0.0
C3950 C 0.33496 0.28425 0.36706 0.0
C3951 C 0.34314 0.2882 0.38152 0.0
C3952 C 0.34789 0.30167 0.38822 0.0
C3953 C 0.34432 0.31088 0.38088 0.0
C3954 C 0.34666 0.27837 0.38992 0.0
C3955 C 0.36083 0.28339 0.39437 0.0
C3956 C 0.33618 0.26431 0.39399 0.0
C3957 C 0.32088 0.2586 0.39082 0.0
C3958 C 0.3139 0.26534 0.39739 0.0
C3959 C 0.29948 0.25991 0.39433 0.0
C3960 C 0.2919 0.24768 0.38483 0.0
C3961 C 0.29871 0.24083 0.37842 0.0
C3962 C 0.31313 0.24623 0.38143 0.0
C3963 C 0.36353 0.24736 0.44487 0.0
C3964 C 0.36307 0.23517 0.43872 0.0
C3965 C 0.36084 0.25581 0.43449 0.0
C3966 C 0.35743 0.25208 0.41787 0.0
C3967 C 0.35688 0.23987 0.4117 0.0
C3968 C 0.35985 0.23155 0.42201 0.0
C3969 C 0.35424 0.26091 0.40711 0.0
C3970 C 0.34016 0.2557 0.40227 0.0
C3971 C 0.36474 0.27487 0.40298 0.0
C3972 C 0.37981 0.2808 0.40761 0.0
C3973 C 0.3872 0.27397 0.40283 0.0
C3974 C 0.40137 0.27955 0.40736 0.0
C3975 C 0.4083 0.29201 0.41658 0.0
C3976 C 0.40108 0.29894 0.42125 0.0
C3977 C 0.3869 0.2934 0.41677 0.0
H3978 H 0.41927 0.29631 0.42006 0.0
H3979 H 0.28073 0.24349 0.38248 0.0
H3980 H 0.70766 0.0312 0.34479 0.0
H3981 H 0.72216 0.05477 0.35676 0.0
H3982 H 0.69355 0.04243 0.39852 0.0
H3983 H 0.67869 0.01918 0.38617 0.0
H3984 H 0.70059 0.06753 0.39092 0.0
H3985 H 0.72713 0.04415 0.399 0.0
H3986 H 0.7393 0.03135 0.39068 0.0
H3987 H 0.76772 0.06603 0.35972 0.0
H3988 H 0.75561 0.07896 0.36771 0.0
H3989 H 0.74716 0.11464 0.45255 0.0
H3990 H 0.73192 0.09402 0.43539 0.0
H3991 H 0.75683 0.11585 0.39245 0.0
H3992 H 0.772 0.13663 0.40955 0.0
H3993 H 0.75235 0.08771 0.39823 0.0
H3994 H 0.72619 0.11181 0.39384 0.0
H3995 H 0.71413 0.12401 0.40464 0.0
H3996 H 0.68491 0.08689 0.43175 0.0
H3997 H 0.69694 0.07452 0.42131 0.0
C3998 C 0.70447 0.03356 0.35649 0.0
C3999 C 0.69208 0.02335 0.36459 0.0
C4000 C 0.71279 0.04701 0.36338 0.0
C4001 C 0.70911 0.05035 0.37872 0.0
C4002 C 0.69663 0.04017 0.38668 0.0
C4003 C 0.68816 0.02685 0.37964 0.0
C4004 C 0.71825 0.06434 0.38665 0.0
C4005 C 0.71188 0.07185 0.39262 0.0
C4006 C 0.73307 0.0702 0.38862 0.0
C4007 C 0.74036 0.06244 0.3838 0.0
C4008 C 0.73591 0.04899 0.39032 0.0
C4009 C 0.74281 0.04173 0.38568 0.0
C4010 C 0.75424 0.04785 0.37463 0.0
C4011 C 0.75884 0.06128 0.36824 0.0
C4012 C 0.75197 0.06859 0.37283 0.0
C4013 C 0.74927 0.11507 0.43942 0.0
C4014 C 0.76071 0.12718 0.43233 0.0
C4015 C 0.74057 0.10333 0.42965 0.0
C4016 C 0.74326 0.10347 0.41268 0.0
C4017 C 0.75459 0.1156 0.40553 0.0
C4018 C 0.76317 0.12744 0.41525 0.0
C4019 C 0.7346 0.09065 0.40265 0.0
C4020 C 0.74107 0.08339 0.39632 0.0
C4021 C 0.71985 0.08489 0.40067 0.0
C4022 C 0.71255 0.09228 0.40689 0.0
C4023 C 0.71727 0.10628 0.40221 0.0
C4024 C 0.71042 0.11322 0.40825 0.0
C4025 C 0.69878 0.10624 0.4189 0.0
C4026 C 0.69394 0.09229 0.42351 0.0
C4027 C 0.70076 0.0853 0.41752 0.0
H4028 H 0.69349 0.11163 0.42356 0.0
H4029 H 0.75957 0.04221 0.37106 0.0
H4030 H 0.97503 0.65615 0.38004 0.0
H4031 H 0.95245 0.64261 0.39487 0.0
H4032 H 0.93907 0.67078 0.37662 0.0
H4033 H 0.96183 0.68469 0.36253 0.0
H4034 H 0.93369 0.66736 0.40719 0.0
H4035 H 0.92568 0.63543 0.36219 0.0
H4036 H 0.93084 0.62046 0.34408 0.0
H4037 H 0.92857 0.59542 0.38569 0.0
H4038 H 0.92357 0.61036 0.40409 0.0
H4039 H 0.85947 0.62679 0.41603 0.0
H4040 H 0.88152 0.63287 0.40156 0.0
H4041 H 0.89698 0.62268 0.44493 0.0
H4042 H 0.87514 0.61709 0.45982 0.0
H4043 H 0.90158 0.6154 0.40402 0.0
H4044 H 0.91172 0.65065 0.44888 0.0
H4045 H 0.90451 0.66525 0.46472 0.0
H4046 H 0.90095 0.68364 0.41977 0.0
H4047 H 0.90794 0.66897 0.40367 0.0
C4048 C 0.9672 0.65935 0.37911 0.0
C4049 C 0.97018 0.67149 0.37022 0.0
C4050 C 0.95428 0.65157 0.38752 0.0
C4051 C 0.94399 0.6556 0.38678 0.0
C4052 C 0.94686 0.66751 0.37748 0.0
C4053 C 0.95986 0.67544 0.3694 0.0
C4054 C 0.93054 0.64798 0.39633 0.0
C4055 C 0.92674 0.65599 0.40639 0.0
C4056 C 0.92145 0.63311 0.39558 0.0
C4057 C 0.92441 0.62411 0.38454 0.0
C4058 C 0.92639 0.6268 0.36749 0.0
C4059 C 0.92927 0.61831 0.35718 0.0
C4060 C 0.93008 0.60703 0.36374 0.0
C4061 C 0.92797 0.60418 0.38063 0.0
C4062 C 0.9251 0.61265 0.39101 0.0
C4063 C 0.86748 0.62568 0.42246 0.0
C4064 C 0.86569 0.62174 0.43917 0.0
C4065 C 0.87997 0.62899 0.41411 0.0
C4066 C 0.89079 0.62822 0.42224 0.0
C4067 C 0.88864 0.62321 0.43848 0.0
C4068 C 0.87617 0.62003 0.44694 0.0
C4069 C 0.90499 0.63485 0.4146 0.0
C4070 C 0.90881 0.62671 0.4049 0.0
C4071 C 0.91407 0.64961 0.41543 0.0
C4072 C 0.91021 0.65865 0.42511 0.0
C4073 C 0.9093 0.65774 0.44239 0.0
C4074 C 0.90527 0.66603 0.45141 0.0
C4075 C 0.90224 0.67534 0.44326 0.0
C4076 C 0.90328 0.67641 0.42607 0.0
C4077 C 0.90728 0.66812 0.417 0.0
H4078 H 0.89911 0.68175 0.45026 0.0
H4079 H 0.9323 0.60047 0.35573 0.0
H4080 H 0.38276 0.02637 0.69332 0.0
H4081 H 0.39952 0.02137 0.70706 0.0
H4082 H 0.36527 0.9796 0.71934 0.0
H4083 H 0.34841 0.98468 0.70604 0.0
H4084 H 0.38074 0.99132 0.74534 0.0
H4085 H 0.39088 0.98567 0.68916 0.0
H4086 H 0.39707 0.99242 0.66001 0.0
H4087 H 0.43673 0.02838 0.67457 0.0
H4088 H 0.43069 0.02195 0.70384 0.0
H4089 H 0.42437 0.96567 0.77456 0.0
H4090 H 0.40805 0.96892 0.75721 0.0
H4091 H 0.44032 0.01245 0.74937 0.0
H4092 H 0.45676 0.00922 0.76652 0.0
H4093 H 0.42584 -0.00082 0.72066 0.0
H4094 H 0.41508 0.00502 0.77684 0.0
H4095 H 0.4089 0.99798 0.80593 0.0
H4096 H 0.37013 0.96113 0.79095 0.0
H4097 H 0.37619 0.96785 0.76174 0.0
C4098 C 0.37882 0.01606 0.69878 0.0
C4099 C 0.36426 0.00592 0.69861 0.0
C4100 C 0.38843 0.01319 0.70658 0.0
C4101 C 0.38369 5e-05 0.71414 0.0
C4102 C 0.36918 0.98982 0.71364 0.0
C4103 C 0.35956 0.99272 0.70598 0.0
C4104 C 0.3937 0.99724 0.72333 0.0
C4105 C 0.39047 0.99281 0.73981 0.0
C4106 C 0.40659 -0.00049 0.7163 0.0
C4107 C 0.41027 0.00339 0.69871 0.0
C4108 C 0.40087 0.99508 0.68616 0.0
C4109 C 0.40436 -0.00116 0.66961 0.0
C4110 C 0.41727 0.01085 0.66544 0.0
C4111 C 0.42673 0.0191 0.67782 0.0
C4112 C 0.42328 0.01539 0.69439 0.0
C4113 C 0.42804 0.97588 0.76898 0.0
C4114 C 0.44182 0.98721 0.77197 0.0
C4115 C 0.41868 0.97775 0.75916 0.0
C4116 C 0.42295 0.99096 0.75213 0.0
C4117 C 0.43682 0.00218 0.75471 0.0
C4118 C 0.44615 0.00035 0.76461 0.0
C4119 C 0.4128 0.99323 0.74255 0.0
C4120 C 0.41603 0.99761 0.72607 0.0
C4121 C 0.39988 0.99086 0.74953 0.0
C4122 C 0.39617 0.98686 0.7671 0.0
C4123 C 0.40529 0.99536 0.77974 0.0
C4124 C 0.4018 0.99144 0.79625 0.0
C4125 C 0.38915 0.9791 0.80028 0.0
C4126 C 0.37994 0.97067 0.78781 0.0
C4127 C 0.38339 0.97454 0.77127 0.0
H4128 H 0.38646 0.97608 0.81308 0.0
H4129 H 0.41995 0.01374 0.65262 0.0
H4130 H -2e-05 0.3593 0.69634 0.0
H4131 H 0.00717 0.3805 0.71294 0.0
H4132 H 0.96336 0.36927 0.71788 0.0
H4133 H 0.9561 0.34823 0.70107 0.0
H4134 H 0.97956 0.39642 0.7106 0.0
H4135 H 0.98126 0.3646 0.74965 0.0
H4136 H 0.98864 0.34835 0.76022 0.0
H4137 H 0.03229 0.38162 0.7586 0.0
H4138 H 0.02519 0.39803 0.7478 0.0
H4139 H 0.98395 0.44032 0.77684 0.0
H4140 H 0.97885 0.41992 0.75976 0.0
H4141 H 0.0237 0.43547 0.75468 0.0
H4142 H 0.02889 0.45582 0.77214 0.0
H4143 H 0.00837 0.407 0.7613 0.0
H4144 H 0.00626 0.43907 0.72335 0.0
H4145 H -0.00147 0.45518 0.71325 0.0
H4146 H 0.9552 0.42115 0.71322 0.0
H4147 H 0.96265 0.40488 0.72356 0.0
C4148 C 0.99187 0.36132 0.70099 0.0
C4149 C 0.97746 0.35205 0.69738 0.0
C4150 C 0.99599 0.37342 0.71054 0.0
C4151 C 0.98579 0.3764 0.71679 0.0
C4152 C 0.97142 0.36718 0.71318 0.0
C4153 C 0.96729 0.35513 0.70359 0.0
C4154 C 0.99004 0.38924 0.72687 0.0
C4155 C 0.98572 0.39864 0.72179 0.0
C4156 C -0.00159 0.39234 0.74123 0.0
C4157 C 0.0027 0.38249 0.74774 0.0
C4158 C 0.99244 0.36842 0.75141 0.0
C4159 C 0.99658 0.35918 0.75747 0.0
C4160 C 0.01093 0.36394 0.76003 0.0
C4161 C 0.02118 0.37794 0.75658 0.0
C4162 C 0.01711 0.38722 0.7505 0.0
C4163 C 0.99273 0.43934 0.77222 0.0
C4164 C 0.00683 0.44968 0.77584 0.0
C4165 C 0.98981 0.42774 0.76234 0.0
C4166 C 0.0009 0.42627 0.75582 0.0
C4167 C 0.01499 0.43646 0.75956 0.0
C4168 C 0.01793 0.44811 0.76941 0.0
C4169 C -0.00227 0.41404 0.74512 0.0
C4170 C 0.00227 0.40479 0.75007 0.0
C4171 C 0.98951 0.41103 0.73066 0.0
C4172 C 0.98501 0.42078 0.72436 0.0
C4173 C 0.99507 0.43505 0.72131 0.0
C4174 C 0.99074 0.4442 0.71552 0.0
C4175 C 0.97638 0.4392 0.71263 0.0
C4176 C 0.96632 0.42502 0.71548 0.0
C4177 C 0.97059 0.41582 0.72129 0.0
H4178 H 0.97305 0.44631 0.70815 0.0
H4179 H 0.01411 0.35677 0.76473 0.0
H4180 H 0.64816 0.61385 0.71269 0.0
H4181 H 0.62563 0.60257 0.72763 0.0
H4182 H 0.62195 0.63939 0.72033 0.0
H4183 H 0.64467 0.6509 0.70548 0.0
H4184 H 0.61388 0.62858 0.7517 0.0
H4185 H 0.60345 0.61154 0.69628 0.0
H4186 H 0.60619 0.60122 0.67042 0.0
H4187 H 0.5963 0.56322 0.69607 0.0
H4188 H 0.59369 0.57339 0.72215 0.0
H4189 H 0.53841 0.58926 0.76991 0.0
H4190 H 0.56161 0.60432 0.75681 0.0
H4191 H 0.57205 0.57181 0.76362 0.0
H4192 H 0.5492 0.55691 0.77713 0.0
H4193 H 0.57595 0.58193 0.73131 0.0
H4194 H 0.58736 0.59969 0.78704 0.0
H4195 H 0.58442 0.61013 0.81269 0.0
H4196 H 0.59189 0.64691 0.78602 0.0
H4197 H 0.59468 0.6366 0.76014 0.0
C4198 C 0.64263 0.61961 0.71431 0.0
C4199 C 0.64817 0.63324 0.70776 0.0
C4200 C 0.62973 0.61313 0.72283 0.0
C4201 C 0.62204 0.62008 0.72486 0.0
C4202 C 0.62772 0.63385 0.71884 0.0
C4203 C 0.64067 0.64037 0.71031 0.0
C4204 C 0.60786 0.61268 0.73282 0.0
C4205 C 0.60549 0.61849 0.74711 0.0
C4206 C 0.59699 0.59947 0.72688 0.0
C4207 C 0.5985 0.59328 0.7112 0.0
C4208 C 0.60197 0.60102 0.69644 0.0
C4209 C 0.60348 0.59519 0.68173 0.0
C4210 C 0.60145 0.58158 0.68161 0.0
C4211 C 0.59788 0.57376 0.69619 0.0
C4212 C 0.59637 0.57955 0.71093 0.0
C4213 C 0.54574 0.58541 0.76885 0.0
C4214 C 0.54189 0.57182 0.7744 0.0
C4215 C 0.55895 0.59401 0.76134 0.0
C4216 C 0.56847 0.58913 0.75925 0.0
C4217 C 0.56477 0.5757 0.76503 0.0
C4218 C 0.55167 0.56717 0.77264 0.0
C4219 C 0.58207 0.59766 0.75038 0.0
C4220 C 0.5843 0.59207 0.73584 0.0
C4221 C 0.59272 0.61108 0.75606 0.0
C4222 C 0.59106 0.61729 0.77161 0.0
C4223 C 0.58824 0.60994 0.78661 0.0
C4224 C 0.58663 0.61585 0.8012 0.0
C4225 C 0.58792 0.62915 0.80098 0.0
C4226 C 0.59086 0.6366 0.78617 0.0
C4227 C 0.59247 0.63073 0.77153 0.0
H4228 H 0.58668 0.63371 0.81229 0.0
H4229 H 0.60262 0.57709 0.67021 0.0
H4230 H 0.65031 0.67963 0.65317 0.0
H4231 H 0.64282 0.6942 0.63882 0.0
H4232 H 0.68582 0.72946 0.64 0.0
H4233 H 0.69328 0.71506 0.65486 0.0
H4234 H 0.6681 0.73839 0.64565 0.0
H4235 H 0.67163 0.70823 0.60518 0.0
H4236 H 0.66671 0.6856 0.59297 0.0
H4237 H 0.62229 0.6717 0.59082 0.0
H4238 H 0.62693 0.69419 0.60323 0.0
H4239 H 0.66641 0.77839 0.57868 0.0
H4240 H 0.67108 0.76307 0.59582 0.0
H4241 H 0.62616 0.73331 0.59959 0.0
H4242 H 0.62129 0.74882 0.58287 0.0
H4243 H 0.64329 0.72111 0.59216 0.0
H4244 H 0.64093 0.75288 0.63125 0.0
H4245 H 0.64702 0.77623 0.64227 0.0
H4246 H 0.69079 0.78785 0.64564 0.0
H4247 H 0.68499 0.76464 0.6344 0.0
C4248 C 0.65814 0.69053 0.6505 0.0
C4249 C 0.6724 0.69619 0.65503 0.0
C4250 C 0.65386 0.69882 0.64222 0.0
C4251 C 0.66382 0.71283 0.63802 0.0
C4252 C 0.67797 0.71865 0.64306 0.0
C4253 C 0.68222 0.71042 0.65153 0.0
C4254 C 0.65959 0.72132 0.62802 0.0
C4255 C 0.6628 0.73465 0.63389 0.0
C4256 C 0.65243 0.71635 0.61279 0.0
C4257 C 0.64961 0.70283 0.6053 0.0
C4258 C 0.6608 0.7003 0.60222 0.0
C4259 C 0.65807 0.68751 0.59525 0.0
C4260 C 0.64419 0.6772 0.59117 0.0
C4261 C 0.63303 0.67968 0.59402 0.0
C4262 C 0.63571 0.69246 0.60101 0.0
C4263 C 0.65748 0.76867 0.58329 0.0
C4264 C 0.64346 0.76492 0.57953 0.0
C4265 C 0.66019 0.75991 0.59301 0.0
C4266 C 0.64895 0.74717 0.59909 0.0
C4267 C 0.63496 0.74313 0.595 0.0
C4268 C 0.63222 0.75198 0.58538 0.0
C4269 C 0.65192 0.73814 0.60976 0.0
C4270 C 0.64849 0.72475 0.604 0.0
C4271 C 0.65904 0.74313 0.62496 0.0
C4272 C 0.66254 0.75706 0.63185 0.0
C4273 C 0.65187 0.76046 0.63422 0.0
C4274 C 0.65527 0.77366 0.64052 0.0
C4275 C 0.66929 0.78353 0.64462 0.0
C4276 C 0.67993 0.7802 0.64245 0.0
C4277 C 0.6766 0.76701 0.63613 0.0
H4278 H 0.67189 0.79375 0.6495 0.0
H4279 H 0.64209 0.6673 0.58577 0.0
H4280 H 0.27395 0.97277 0.65625 0.0
H4281 H 0.26197 0.95035 0.6415 0.0
H4282 H 0.30206 0.95243 0.63385 0.0
H4283 H 0.31416 0.97481 0.64899 0.0
H4284 H 0.26408 0.94442 0.6109 0.0
H4285 H 0.29627 0.91872 0.63134 0.0
H4286 H 0.31001 0.9187 0.65531 0.0
H4287 H 0.28552 0.92962 0.68725 0.0
H4288 H 0.27152 0.92951 0.66352 0.0
H4289 H 0.24529 0.88608 0.55919 0.0
H4290 H 0.25998 0.9075 0.57527 0.0
H4291 H 0.24054 0.88472 0.62018 0.0
H4292 H 0.22595 0.86319 0.60414 0.0
H4293 H 0.26826 0.90282 0.62476 0.0
H4294 H 0.2289 0.90478 0.60199 0.0
H4295 H 0.21322 0.9039 0.57978 0.0
H4296 H 0.24855 0.93921 0.556 0.0
H4297 H 0.26449 0.94016 0.57797 0.0
C4298 C 0.28025 0.96846 0.65151 0.0
C4299 C 0.29503 0.97561 0.65381 0.0
C4300 C 0.27337 0.95563 0.64304 0.0
C4301 C 0.28108 0.94965 0.63662 0.0
C4302 C 0.29585 0.95673 0.6389 0.0
C4303 C 0.30276 0.96955 0.6475 0.0
C4304 C 0.27361 0.93621 0.62719 0.0
C4305 C 0.26505 0.93535 0.61393 0.0
C4306 C 0.27471 0.9243 0.63123 0.0
C4307 C 0.28297 0.92426 0.64562 0.0
C4308 C 0.2938 0.92107 0.64349 0.0
C4309 C 0.30163 0.92109 0.65703 0.0
C4310 C 0.29868 0.92421 0.67278 0.0
C4311 C 0.28784 0.92726 0.67503 0.0
C4312 C 0.27997 0.92724 0.66154 0.0
C4313 C 0.24421 0.88563 0.5725 0.0
C4314 C 0.23437 0.87302 0.58042 0.0
C4315 C 0.25262 0.89786 0.58167 0.0
C4316 C 0.25119 0.89777 0.59891 0.0
C4317 C 0.24182 0.88503 0.6069 0.0
C4318 C 0.23349 0.87275 0.59773 0.0
C4319 C 0.25881 0.9111 0.60848 0.0
C4320 C 0.2674 0.91194 0.62171 0.0
C4321 C 0.25749 0.92292 0.60468 0.0
C4322 C 0.24791 0.92245 0.59154 0.0
C4323 C 0.23334 0.91229 0.59197 0.0
C4324 C 0.2244 0.91179 0.57943 0.0
C4325 C 0.22989 0.92147 0.56646 0.0
C4326 C 0.24432 0.9317 0.56604 0.0
C4327 C 0.25331 0.93224 0.57853 0.0
H4328 H 0.22296 0.92106 0.55677 0.0
H4329 H 0.30476 0.92423 0.68325 0.0
H4330 H 0.0315 0.3566 0.64864 0.0
H4331 H 0.05501 0.3655 0.63633 0.0
H4332 H 0.05009 0.32416 0.64062 0.0
H4333 H 0.02676 0.3153 0.65342 0.0
H4334 H 0.07651 0.34361 0.64708 0.0
H4335 H 0.04329 0.336 0.60408 0.0
H4336 H 0.025 0.33884 0.59001 0.0
H4337 H 0.05385 0.38355 0.58654 0.0
H4338 H 0.07226 0.38099 0.60079 0.0
H4339 H 0.12158 0.34516 0.58273 0.0
H4340 H 0.10141 0.34037 0.60043 0.0
H4341 H 0.11336 0.38422 0.59796 0.0
H4342 H 0.13358 0.38908 0.58008 0.0
H4343 H 0.08471 0.3657 0.59183 0.0
H4344 H 0.11887 0.37221 0.63265 0.0
H4345 H 0.13684 0.36832 0.64575 0.0
H4346 H 0.10585 0.32443 0.65225 0.0
H4347 H 0.08772 0.328 0.63896 0.0
C4348 C 0.0355 0.34945 0.64715 0.0
C4349 C 0.02723 0.33521 0.65187 0.0
C4350 C 0.04891 0.35453 0.64004 0.0
C4351 C 0.0542 0.34543 0.63722 0.0
C4352 C 0.04622 0.33137 0.64261 0.0
C4353 C 0.03287 0.32631 0.6499 0.0
C4354 C 0.0677 0.35033 0.62798 0.0
C4355 C 0.07826 0.34834 0.63495 0.0
C4356 C 0.07012 0.35677 0.61227 0.0
C4357 C 0.05909 0.35832 0.60366 0.0
C4358 C 0.04569 0.34645 0.60043 0.0
C4359 C 0.03531 0.348 0.5924 0.0
C4360 C 0.03825 0.36137 0.58743 0.0
C4361 C 0.05158 0.3732 0.59043 0.0
C4362 C 0.06199 0.37171 0.59847 0.0
C4363 C 0.1199 0.35378 0.58594 0.0
C4364 C 0.12911 0.36748 0.57998 0.0
C4365 C 0.10845 0.35105 0.59616 0.0
C4366 C 0.10597 0.36197 0.60061 0.0
C4367 C 0.11515 0.37567 0.59471 0.0
C4368 C 0.1267 0.37844 0.58458 0.0
C4369 C 0.09343 0.35885 0.61087 0.0
C4370 C 0.08303 0.36114 0.60405 0.0
C4371 C 0.0911 0.35254 0.62661 0.0
C4372 C 0.10196 0.35036 0.63469 0.0
C4373 C 0.11591 0.3617 0.63675 0.0
C4374 C 0.12612 0.35956 0.64424 0.0
C4375 C 0.1225 0.34613 0.6498 0.0
C4376 C 0.10864 0.33482 0.64792 0.0
C4377 C 0.09839 0.33691 0.64043 0.0
H4378 H 0.13042 0.3445 0.65559 0.0
H4379 H 0.0302 0.36255 0.58122 0.0
H4380 H 0.30892 0.33969 0.65322 0.0
H4381 H 0.29747 0.3503 0.63806 0.0
H4382 H 0.25806 0.31039 0.63844 0.0
H4383 H 0.26943 0.29963 0.65334 0.0
H4384 H 0.26423 0.32203 0.60825 0.0
H4385 H 0.26352 0.33782 0.66402 0.0
H4386 H 0.27454 0.34967 0.69025 0.0
H4387 H 0.30046 0.38868 0.66452 0.0
H4388 H 0.28971 0.37701 0.6381 0.0
H4389 H 0.21398 0.33944 0.58489 0.0
H4390 H 0.22793 0.33239 0.60129 0.0
H4391 H 0.26436 0.37439 0.59708 0.0
H4392 H 0.25033 0.38157 0.58067 0.0
H4393 H 0.26193 0.36363 0.628 0.0
H4394 H 0.26225 0.34879 0.57273 0.0
H4395 H 0.25195 0.33743 0.54607 0.0
H4396 H 0.22798 0.29725 0.57011 0.0
H4397 H 0.23797 0.30842 0.59696 0.0
C4398 C 0.2978 0.33317 0.65015 0.0
C4399 C 0.29009 0.3188 0.65448 0.0
C4400 C 0.29126 0.33928 0.64154 0.0
C4401 C 0.27689 0.33116 0.63724 0.0
C4402 C 0.26917 0.31685 0.64163 0.0
C4403 C 0.27569 0.31072 0.65019 0.0
C4404 C 0.26992 0.33738 0.6277 0.0
C4405 C 0.26359 0.33102 0.61266 0.0
C4406 C 0.26959 0.34946 0.63316 0.0
C4407 C 0.27591 0.35651 0.64907 0.0
C4408 C 0.27164 0.3489 0.66394 0.0
C4409 C 0.27782 0.35559 0.67885 0.0
C4410 C 0.28822 0.36991 0.67904 0.0
C4411 C 0.29241 0.37758 0.66435 0.0
C4412 C 0.28627 0.37094 0.64941 0.0
C4413 C 0.22496 0.34718 0.58745 0.0
C4414 C 0.23114 0.361 0.58132 0.0
C4415 C 0.23291 0.34315 0.59684 0.0
C4416 C 0.24725 0.35279 0.60012 0.0
C4417 C 0.25332 0.36678 0.59461 0.0
C4418 C 0.24531 0.37086 0.58527 0.0
C4419 C 0.2559 0.348 0.6088 0.0
C4420 C 0.26263 0.35467 0.62357 0.0
C4421 C 0.25673 0.33627 0.60305 0.0
C4422 C 0.25078 0.32947 0.58689 0.0
C4423 C 0.25471 0.33755 0.57235 0.0
C4424 C 0.24894 0.33114 0.5572 0.0
C4425 C 0.2393 0.31663 0.5564 0.0
C4426 C 0.23544 0.30849 0.57075 0.0
C4427 C 0.24117 0.31485 0.58594 0.0
H4428 H 0.23484 0.31168 0.54466 0.0
H4429 H 0.29301 0.37506 0.69059 0.0
H4430 H 0.67937 0.96714 0.67052 0.0
H4431 H 0.67179 0.94361 0.65937 0.0
H4432 H 0.64535 0.94857 0.62404 0.0
H4433 H 0.65237 0.97169 0.63557 0.0
H4434 H 0.63204 0.92295 0.63419 0.0
H4435 H 0.67962 0.95449 0.61455 0.0
H4436 H 0.7052 0.97178 0.61714 0.0
H4437 H 0.71077 0.94189 0.64501 0.0
H4438 H 0.68518 0.92448 0.64274 0.0
H4439 H 0.63087 0.87912 0.56794 0.0
H4440 H 0.63476 0.89874 0.58581 0.0
H4441 H 0.65121 0.88375 0.62369 0.0
H4442 H 0.6468 0.86374 0.60627 0.0
H4443 H 0.6691 0.91279 0.61489 0.0
H4444 H 0.62085 0.88026 0.63073 0.0
H4445 H 0.59545 0.86348 0.62585 0.0
H4446 H 0.59141 0.89611 0.60231 0.0
H4447 H 0.61685 0.91304 0.60683 0.0
C4448 C 0.67185 0.96313 0.66048 0.0
C4449 C 0.66653 0.97128 0.65385 0.0
C4450 C 0.66757 0.94972 0.65406 0.0
C4451 C 0.65819 0.9444 0.64065 0.0
C4452 C 0.65259 0.9524 0.63438 0.0
C4453 C 0.65665 0.96566 0.64095 0.0
C4454 C 0.65453 0.93078 0.63267 0.0
C4455 C 0.64017 0.92079 0.62989 0.0
C4456 C 0.66509 0.92781 0.62727 0.0
C4457 C 0.68047 0.93825 0.62865 0.0
C4458 C 0.68629 0.95165 0.62133 0.0
C4459 C 0.70079 0.96146 0.62273 0.0
C4460 C 0.7096 0.95795 0.63128 0.0
C4461 C 0.70393 0.9446 0.63842 0.0
C4462 C 0.68943 0.93476 0.63708 0.0
C4463 C 0.63502 0.87978 0.5802 0.0
C4464 C 0.6386 0.86986 0.5856 0.0
C4465 C 0.63729 0.89105 0.59036 0.0
C4466 C 0.64326 0.89265 0.60603 0.0
C4467 C 0.64664 0.88269 0.61159 0.0
C4468 C 0.64421 0.87133 0.60155 0.0
C4469 C 0.64669 0.90516 0.61624 0.0
C4470 C 0.661 0.91492 0.6194 0.0
C4471 C 0.63611 0.90803 0.62168 0.0
C4472 C 0.62079 0.89789 0.619 0.0
C4473 C 0.61458 0.88383 0.62439 0.0
C4474 C 0.60016 0.8743 0.62171 0.0
C4475 C 0.59183 0.87872 0.61375 0.0
C4476 C 0.59788 0.8927 0.60847 0.0
C4477 C 0.61229 0.90227 0.6111 0.0
H4478 H 0.58067 0.87133 0.61169 0.0
H4479 H 0.72082 0.96556 0.63234 0.0
H4480 H 0.01843 0.68388 0.6401 0.0
H4481 H 0.04091 0.6957 0.62479 0.0
H4482 H 0.05194 0.73502 0.64904 0.0
H4483 H 0.02915 0.72343 0.66349 0.0
H4484 H 0.05837 0.74059 0.61946 0.0
H4485 H 0.06742 0.71343 0.65811 0.0
H4486 H 0.06316 0.69206 0.67285 0.0
H4487 H 0.06577 0.67356 0.62713 0.0
H4488 H 0.06987 0.69475 0.61208 0.0
H4489 H 0.13301 0.77643 0.60181 0.0
H4490 H 0.11116 0.76194 0.61781 0.0
H4491 H 0.09346 0.73287 0.57702 0.0
H4492 H 0.11515 0.74756 0.56078 0.0
H4493 H 0.09092 0.72176 0.61426 0.0
H4494 H 0.08124 0.75042 0.57645 0.0
H4495 H 0.08725 0.77315 0.56382 0.0
H4496 H 0.0877 0.79028 0.61172 0.0
H4497 H 0.08192 0.76769 0.62464 0.0
C4498 C 0.02571 0.69503 0.64218 0.0
C4499 C 0.02204 0.70275 0.65293 0.0
C4500 C 0.03861 0.70178 0.63351 0.0
C4501 C 0.04829 0.71627 0.63587 0.0
C4502 C 0.04468 0.72388 0.64689 0.0
C4503 C 0.03166 0.71723 0.65519 0.0
C4504 C 0.06191 0.72371 0.62643 0.0
C4505 C 0.06549 0.73648 0.61856 0.0
C4506 C 0.07126 0.71837 0.62494 0.0
C4507 C 0.06881 0.70562 0.63395 0.0
C4508 C 0.06698 0.70476 0.65118 0.0
C4509 C 0.06461 0.69269 0.6596 0.0
C4510 C 0.06415 0.68144 0.65093 0.0
C4511 C 0.06611 0.68227 0.63383 0.0
C4512 C 0.06847 0.69431 0.62535 0.0
C4513 C 0.12452 0.76684 0.59637 0.0
C4514 C 0.12569 0.76308 0.5801 0.0
C4515 C 0.11209 0.75861 0.60549 0.0
C4516 C 0.10078 0.74636 0.59856 0.0
C4517 C 0.10214 0.74226 0.58256 0.0
C4518 C 0.11445 0.75066 0.5733 0.0
C4519 C 0.08716 0.73847 0.6076 0.0
C4520 C 0.08366 0.72572 0.61529 0.0
C4521 C 0.07801 0.74393 0.60928 0.0
C4522 C 0.08132 0.75744 0.60151 0.0
C4523 C 0.08277 0.75908 0.58429 0.0
C4524 C 0.0861 0.77193 0.57708 0.0
C4525 C 0.0879 0.78317 0.58697 0.0
C4526 C 0.08632 0.78157 0.60408 0.0
C4527 C 0.08302 0.76875 0.61135 0.0
H4528 H 0.09047 0.79311 0.58136 0.0
H4529 H 0.06232 0.67211 0.65747 0.0
H4530 H 0.96787 0.6161 0.69487 0.0
H4531 H 0.97181 0.59885 0.70914 0.0
H4532 H 0.01519 0.63112 0.71849 0.0
H4533 H 0.01133 0.64846 0.70433 0.0
H4534 H 0.012 0.60491 0.70863 0.0
H4535 H 0.99209 0.62332 0.74803 0.0
H4536 H 0.97428 0.62905 0.75818 0.0
H4537 H 0.94193 0.58524 0.75563 0.0
H4538 H 0.95952 0.57928 0.74524 0.0
H4539 H 0.02947 0.57377 0.77357 0.0
H4540 H 0.02534 0.58936 0.75612 0.0
H4541 H 0.98063 0.55828 0.75478 0.0
H4542 H 0.98469 0.54275 0.77248 0.0
H4543 H 0.98388 0.58319 0.75953 0.0
H4544 H 0.00324 0.56416 0.7213 0.0
H4545 H 0.02047 0.55788 0.71054 0.0
H4546 H 0.05299 0.60169 0.70984 0.0
H4547 H 0.036 0.60822 0.72082 0.0
C4548 C 0.9783 0.61949 0.69978 0.0
C4549 C 0.98927 0.63367 0.69855 0.0
C4550 C 0.98051 0.60963 0.70798 0.0
C4551 C 0.99375 0.61375 0.715 0.0
C4552 C 0.00489 0.62774 0.71317 0.0
C4553 C 0.00265 0.63764 0.70511 0.0
C4554 C 0.9958 0.60366 0.72496 0.0
C4555 C 0.00597 0.60024 0.71985 0.0
C4556 C 0.98765 0.59732 0.73935 0.0
C4557 C 0.97709 0.60088 0.74569 0.0
C4558 C 0.98115 0.61493 0.7495 0.0
C4559 C 0.97111 0.61821 0.75532 0.0
C4560 C 0.95698 0.60752 0.7575 0.0
C4561 C 0.95288 0.59352 0.75391 0.0
C4562 C 0.96288 0.59018 0.74806 0.0
C4563 C 0.01878 0.57023 0.76945 0.0
C4564 C 0.00741 0.55702 0.77437 0.0
C4565 C 0.01643 0.57913 0.75944 0.0
C4566 C 0.0027 0.57493 0.75391 0.0
C4567 C 0.99132 0.56177 0.75888 0.0
C4568 C 0.99364 0.55292 0.76902 0.0
C4569 C 0.00015 0.58439 0.74326 0.0
C4570 C 0.98988 0.58773 0.74826 0.0
C4571 C 0.00813 0.59055 0.72868 0.0
C4572 C 0.01837 0.58667 0.72203 0.0
C4573 C 0.0141 0.57245 0.71897 0.0
C4574 C 0.02381 0.56885 0.71281 0.0
C4575 C 0.03782 0.57938 0.70955 0.0
C4576 C 0.04213 0.59354 0.71239 0.0
C4577 C 0.03246 0.5972 0.71857 0.0
H4578 H 0.04533 0.57656 0.70478 0.0
H4579 H 0.94921 0.61009 0.76201 0.0
H4580 H 0.3412 0.35793 0.71886 0.0
H4581 H 0.35639 0.38151 0.73012 0.0
H4582 H 0.38843 0.38935 0.69348 0.0
H4583 H 0.37341 0.36545 0.68249 0.0
H4584 H 0.40041 0.39838 0.7219 0.0
H4585 H 0.36706 0.4046 0.69134 0.0
H4586 H 0.34342 0.39921 0.68202 0.0
H4587 H 0.3329 0.40558 0.73123 0.0
H4588 H 0.35641 0.41081 0.74091 0.0
H4589 H 0.44024 0.47162 0.74149 0.0
H4590 H 0.42483 0.45013 0.72592 0.0
H4591 H 0.39467 0.43488 0.76613 0.0
H4592 H 0.41023 0.45609 0.7821 0.0
H4593 H 0.38241 0.43087 0.73365 0.0
H4594 H 0.41576 0.42291 0.76381 0.0
H4595 H 0.43975 0.42873 0.77221 0.0
H4596 H 0.45061 0.42638 0.72173 0.0
H4597 H 0.42674 0.42076 0.713 0.0
C4598 C 0.35146 0.36469 0.71313 0.0
C4599 C 0.3561 0.35986 0.69975 0.0
C4600 C 0.3601 0.37822 0.71953 0.0
C4601 C 0.37345 0.38734 0.71245 0.0
C4602 C 0.37814 0.38253 0.69909 0.0
C4603 C 0.36955 0.36889 0.69281 0.0
C4604 C 0.38267 0.40166 0.71948 0.0
C4605 C 0.39653 0.40558 0.72415 0.0
C4606 C 0.37759 0.41101 0.72267 0.0
C4607 C 0.36347 0.408 0.71688 0.0
C4608 C 0.35968 0.40477 0.7002 0.0
C4609 C 0.3463 0.40175 0.69485 0.0
C4610 C 0.33666 0.40202 0.70604 0.0
C4611 C 0.34038 0.40536 0.72259 0.0
C4612 C 0.35374 0.40837 0.72801 0.0
C4613 C 0.43036 0.46369 0.74709 0.0
C4614 C 0.42657 0.46554 0.76316 0.0
C4615 C 0.42153 0.45147 0.73811 0.0
C4616 C 0.40869 0.44092 0.74495 0.0
C4617 C 0.40454 0.44296 0.76065 0.0
C4618 C 0.41343 0.45512 0.76972 0.0
C4619 C 0.39996 0.42741 0.73613 0.0
C4620 C 0.38625 0.42368 0.73117 0.0
C4621 C 0.40522 0.4183 0.73248 0.0
C4622 C 0.41953 0.42157 0.73773 0.0
C4623 C 0.42331 0.42376 0.75448 0.0
C4624 C 0.43688 0.427 0.75931 0.0
C4625 C 0.44672 0.42797 0.7475 0.0
C4626 C 0.44299 0.42565 0.73085 0.0
C4627 C 0.42944 0.42243 0.72596 0.0
H4628 H 0.45722 0.43047 0.75126 0.0
H4629 H 0.3263 0.39967 0.70187 0.0
H4630 H 0.64728 0.00138 0.71151 0.0
H4631 H 0.62589 0.99269 0.7285 0.0
H4632 H 0.61426 0.01893 0.70136 0.0
H4633 H 0.63606 0.02824 0.68505 0.0
H4634 H 0.60986 0.02109 0.73129 0.0
H4635 H 0.5975 0.98124 0.69657 0.0
H4636 H 0.60031 0.9626 0.6832 0.0
H4637 H 0.60011 0.94528 0.73058 0.0
H4638 H 0.59749 0.96394 0.74426 0.0
H4639 H 0.53676 0.98468 0.7556 0.0
H4640 H 0.55722 0.98989 0.73803 0.0
H4641 H 0.57754 0.98293 0.77925 0.0
H4642 H 0.55723 0.97808 0.79703 0.0
H4643 H 0.57692 0.97023 0.74267 0.0
H4644 H 0.59035 0.01248 0.77634 0.0
H4645 H 0.58565 0.03059 0.78766 0.0
H4646 H 0.58165 0.04258 0.73859 0.0
H4647 H 0.58608 0.02434 0.727 0.0
C4648 C 0.6401 0.00523 0.70916 0.0
C4649 C 0.64329 0.01548 0.697 0.0
C4650 C 0.62783 0.00019 0.71879 0.0
C4651 C 0.6183 0.00496 0.71606 0.0
C4652 C 0.62144 0.01509 0.70375 0.0
C4653 C 0.63388 0.0204 0.69442 0.0
C4654 C 0.60534 -0.00013 0.72642 0.0
C4655 C 0.60262 0.00994 0.73356 0.0
C4656 C 0.5959 0.98533 0.72963 0.0
C4657 C 0.59744 0.97407 0.72145 0.0
C4658 C 0.59816 0.97352 0.70415 0.0
C4659 C 0.5997 0.96294 0.69651 0.0
C4660 C 0.60043 0.95279 0.70604 0.0
C4661 C 0.59957 0.95317 0.72322 0.0
C4662 C 0.59804 0.96373 0.73092 0.0
C4663 C 0.5455 0.98403 0.76081 0.0
C4664 C 0.54551 0.981 0.7776 0.0
C4665 C 0.55713 0.98701 0.75081 0.0
C4666 C 0.56879 0.98675 0.75742 0.0
C4667 C 0.56856 0.9831 0.774 0.0
C4668 C 0.55705 0.9804 0.7841 0.0
C4669 C 0.58166 0.99145 0.74732 0.0
C4670 C 0.58428 0.98133 0.74029 0.0
C4671 C 0.59087 0.0059 0.74388 0.0
C4672 C 0.58837 0.01695 0.75083 0.0
C4673 C 0.58832 0.01888 0.76798 0.0
C4674 C 0.58574 0.02918 0.77444 0.0
C4675 C 0.58331 0.0377 0.76385 0.0
C4676 C 0.58351 0.03596 0.74678 0.0
C4677 C 0.58606 0.02564 0.74026 0.0
H4678 H 0.58132 0.04568 0.76887 0.0
H4679 H 0.60162 0.94461 0.7001 0.0
loop_
_geom_bond_atom_site_label_1
_geom_bond_atom_site_label_2
_geom_bond_distance
_geom_bond_site_symmetry_2
_ccdc_geom_bond_type
C0 O1 1.306 1_556 S
C0 O3 1.160 . S
O1 C0 1.306 1_554 S
O1 Cd2 2.228 . S
Cd2 O1 2.228 . S
Cd2 O6 2.273 . S
Cd2 O10 2.277 1_554 S
O3 C0 1.160 . S
O3 Cd4 2.203 1_656 S
Cd4 O3 2.203 1_454 S
Cd4 O6 2.411 1_455 S
Cd4 O7 2.333 . S
Cd4 O8 2.352 . S
Cd4 O12 2.277 1_554 S
Cd4 O13 2.356 . S
C5 O10 1.209 1_455 S
C5 O12 1.226 . S
O6 Cd2 2.273 . S
O6 Cd4 2.411 1_655 S
O6 C9 1.320 1_655 S
O7 Cd4 2.333 . S
O7 C9 1.214 . S
O8 Cd4 2.352 . S
O8 C11 1.258 . S
C9 O6 1.320 1_455 S
C9 O7 1.214 . S
O10 Cd2 2.277 1_556 S
O10 C5 1.209 1_655 S
C11 O8 1.258 . S
C11 O13 1.282 . S
O12 Cd4 2.277 1_556 S
O12 C5 1.226 . S
O13 Cd4 2.356 . S
O13 C11 1.282 . S
C14 O15 1.306 . S
C14 O17 1.160 . S
O15 C14 1.306 . S
O15 Cd16 2.228 . S
Cd16 O15 2.228 . S
Cd16 O20 2.273 1_554 S
Cd16 O24 2.277 . S
O17 C14 1.160 . S
O17 Cd18 2.203 . S
Cd18 O17 2.203 . S
Cd18 O20 2.411 1_554 S
Cd18 O21 2.333 1_554 S
Cd18 O22 2.352 1_554 S
Cd18 O26 2.277 . S
Cd18 O27 2.356 . S
C19 O24 1.209 . S
C19 O26 1.226 . S
O20 Cd16 2.273 1_556 S
O20 Cd18 2.411 1_556 S
O20 C23 1.320 . S
O21 Cd18 2.333 1_556 S
O21 C23 1.214 . S
O22 Cd18 2.352 1_556 S
O22 C25 1.258 . S
C23 O20 1.320 . S
C23 O21 1.214 . S
O24 Cd16 2.277 . S
O24 C19 1.209 . S
C25 O22 1.258 . S
C25 O27 1.282 1_556 S
O26 Cd18 2.277 . S
O26 C19 1.226 . S
O27 Cd18 2.356 . S
O27 C25 1.282 1_554 S
C28 O29 1.306 . S
C28 O31 1.160 . S
O29 C28 1.306 . S
O29 Cd30 2.228 . S
Cd30 O29 2.228 . S
Cd30 O34 2.273 1_554 S
Cd30 O38 2.277 . S
O31 C28 1.160 . S
O31 Cd32 2.203 1_565 S
Cd32 O31 2.203 1_545 S
Cd32 O34 2.411 1_544 S
Cd32 O35 2.333 1_554 S
Cd32 O36 2.352 1_554 S
Cd32 O40 2.277 . S
Cd32 O41 2.356 . S
C33 O38 1.209 1_545 S
C33 O40 1.226 . S
O34 Cd30 2.273 1_556 S
O34 Cd32 2.411 1_566 S
O34 C37 1.320 1_565 S
O35 Cd32 2.333 1_556 S
O35 C37 1.214 . S
O36 Cd32 2.352 1_556 S
O36 C39 1.258 . S
C37 O34 1.320 1_545 S
C37 O35 1.214 . S
O38 Cd30 2.277 . S
O38 C33 1.209 1_565 S
C39 O36 1.258 . S
C39 O41 1.282 1_556 S
O40 Cd32 2.277 . S
O40 C33 1.226 . S
O41 Cd32 2.356 . S
O41 C39 1.282 1_554 S
C42 O43 1.306 1_556 S
C42 O45 1.160 . S
O43 C42 1.306 1_554 S
O43 Cd44 2.228 . S
Cd44 O43 2.228 . S
Cd44 O48 2.273 . S
Cd44 O52 2.277 1_554 S
O45 C42 1.160 . S
O45 Cd46 2.203 1_656 S
Cd46 O45 2.203 1_454 S
Cd46 O48 2.411 1_455 S
Cd46 O49 2.333 . S
Cd46 O50 2.352 . S
Cd46 O54 2.277 1_554 S
Cd46 O55 2.356 . S
C47 O52 1.209 1_455 S
C47 O54 1.226 . S
O48 Cd44 2.273 . S
O48 Cd46 2.411 1_655 S
O48 C51 1.392 . S
O49 Cd46 2.333 . S
O49 C51 1.155 1_455 S
O50 Cd46 2.352 . S
O50 C53 1.258 . S
C51 O48 1.392 . S
C51 O49 1.155 1_655 S
O52 Cd44 2.277 1_556 S
O52 C47 1.209 1_655 S
C53 O50 1.258 . S
C53 O55 1.282 . S
O54 Cd46 2.277 1_556 S
O54 C47 1.226 . S
O55 Cd46 2.356 . S
O55 C53 1.282 . S
C56 O57 1.306 . S
C56 O59 1.160 . S
O57 C56 1.306 . S
O57 Cd58 2.228 . S
Cd58 O57 2.228 . S
Cd58 O62 2.273 1_554 S
Cd58 O66 2.277 . S
O59 C56 1.160 . S
O59 Cd60 2.203 . S
Cd60 O59 2.203 . S
Cd60 O62 2.411 1_554 S
Cd60 O63 2.333 1_554 S
Cd60 O64 2.352 1_554 S
Cd60 O68 2.277 . S
Cd60 O69 2.356 . S
C61 O66 1.209 . S
C61 O68 1.226 . S
O62 Cd58 2.273 1_556 S
O62 Cd60 2.411 1_556 S
O62 C65 1.320 . S
O63 Cd60 2.333 1_556 S
O63 C65 1.214 . S
O64 Cd60 2.352 1_556 S
O64 C67 1.258 . S
C65 O62 1.320 . S
C65 O63 1.214 . S
O66 Cd58 2.277 . S
O66 C61 1.209 . S
C67 O64 1.258 . S
C67 O69 1.282 1_556 S
O68 Cd60 2.277 . S
O68 C61 1.226 . S
O69 Cd60 2.356 . S
O69 C67 1.282 1_554 S
C70 O71 1.306 1_556 S
C70 O73 1.160 . S
O71 C70 1.306 1_554 S
O71 Cd72 2.228 . S
Cd72 O71 2.228 . S
Cd72 O76 2.273 . S
Cd72 O80 2.277 1_554 S
O73 C70 1.160 . S
O73 Cd74 2.203 1_546 S
Cd74 O73 2.203 1_564 S
Cd74 O76 2.411 1_565 S
Cd74 O77 2.333 . S
Cd74 O78 2.352 . S
Cd74 O82 2.277 1_554 S
Cd74 O83 2.356 . S
C75 O80 1.209 1_565 S
C75 O82 1.226 . S
O76 Cd72 2.273 . S
O76 Cd74 2.411 1_545 S
O76 C79 1.320 . S
O77 Cd74 2.333 . S
O77 C79 1.214 1_565 S
O78 Cd74 2.352 . S
O78 C81 1.258 . S
C79 O76 1.320 . S
C79 O77 1.214 1_545 S
O80 Cd72 2.277 1_556 S
O80 C75 1.209 1_545 S
C81 O78 1.258 . S
C81 O83 1.282 . S
O82 Cd74 2.277 1_556 S
O82 C75 1.226 . S
O83 Cd74 2.356 . S
O83 C81 1.282 . S
C84 O85 1.306 . S
C84 O87 1.160 . S
O85 C84 1.306 . S
O85 Cd86 2.228 . S
Cd86 O85 2.228 . S
Cd86 O90 2.273 . S
Cd86 O94 2.277 . S
O87 C84 1.160 . S
O87 Cd88 2.203 . S
Cd88 O87 2.203 . S
Cd88 O90 2.411 . S
Cd88 O91 2.333 . S
Cd88 O92 2.352 . S
Cd88 O96 2.277 . S
Cd88 O97 2.356 . S
C89 O94 1.209 . S
C89 O96 1.226 . S
O90 Cd86 2.273 . S
O90 Cd88 2.411 . S
O90 C93 1.320 . S
O91 Cd88 2.333 . S
O91 C93 1.214 . S
O92 Cd88 2.352 . S
O92 C95 1.258 . S
C93 O90 1.320 . S
C93 O91 1.214 . S
O94 Cd86 2.277 . S
O94 C89 1.209 . S
C95 O92 1.258 . S
C95 O97 1.282 . S
O96 Cd88 2.277 . S
O96 C89 1.226 . S
O97 Cd88 2.356 . S
O97 C95 1.282 . S
C98 O99 1.306 . S
C98 O101 1.160 . S
O99 C98 1.306 . S
O99 Cd100 2.228 1_545 S
Cd100 O99 2.228 1_565 S
Cd100 O104 2.273 . S
Cd100 O108 2.277 . S
O101 C98 1.160 . S
O101 Cd102 2.203 1_545 S
Cd102 O101 2.203 1_565 S
Cd102 O104 2.411 . S
Cd102 O105 2.333 . S
Cd102 O106 2.352 . S
Cd102 O110 2.277 . S
Cd102 O111 2.356 . S
C103 O108 1.209 . S
C103 O110 1.226 . S
O104 Cd100 2.273 . S
O104 Cd102 2.411 . S
O104 C107 1.320 . S
O105 Cd102 2.333 . S
O105 C107 1.214 . S
O106 Cd102 2.352 . S
O106 C109 1.258 . S
C107 O104 1.320 . S
C107 O105 1.214 . S
O108 Cd100 2.277 . S
O108 C103 1.209 . S
C109 O106 1.258 . S
C109 O111 1.282 . S
O110 Cd102 2.277 . S
O110 C103 1.226 . S
O111 Cd102 2.356 . S
O111 C109 1.282 . S
C112 O113 1.306 1_655 S
C112 O115 1.160 1_655 S
O113 C112 1.306 1_455 S
O113 Cd114 2.228 . S
Cd114 O113 2.228 . S
Cd114 O118 2.273 . S
Cd114 O122 2.277 . S
O115 C112 1.160 1_455 S
O115 Cd116 2.203 . S
Cd116 O115 2.203 . S
Cd116 O118 2.411 . S
Cd116 O119 2.333 . S
Cd116 O120 2.352 . S
Cd116 O124 2.277 . S
Cd116 O125 2.356 . S
C117 O122 1.209 . S
C117 O124 1.226 . S
O118 Cd114 2.273 . S
O118 Cd116 2.411 . S
O118 C121 1.320 . S
O119 Cd116 2.333 . S
O119 C121 1.214 . S
O120 Cd116 2.352 . S
O120 C123 1.258 . S
C121 O118 1.320 . S
C121 O119 1.214 . S
O122 Cd114 2.277 . S
O122 C117 1.209 . S
C123 O120 1.258 . S
C123 O125 1.282 . S
O124 Cd116 2.277 . S
O124 C117 1.226 . S
O125 Cd116 2.356 . S
O125 C123 1.282 . S
C126 O127 1.306 . S
C126 O129 1.160 . S
O127 C126 1.306 . S
O127 Cd128 2.228 . S
Cd128 O127 2.228 . S
Cd128 O132 2.273 . S
Cd128 O136 2.277 . S
O129 C126 1.160 . S
O129 Cd130 2.203 . S
Cd130 O129 2.203 . S
Cd130 O132 2.411 . S
Cd130 O133 2.333 . S
Cd130 O134 2.352 1_565 S
Cd130 O138 2.277 . S
Cd130 O139 2.356 1_565 S
C131 O136 1.209 . S
C131 O138 1.226 . S
O132 Cd128 2.273 . S
O132 Cd130 2.411 . S
O132 C135 1.320 . S
O133 Cd130 2.333 . S
O133 C135 1.214 . S
O134 Cd130 2.352 1_545 S
O134 C137 1.258 . S
C135 O132 1.320 . S
C135 O133 1.214 . S
O136 Cd128 2.277 . S
O136 C131 1.209 . S
C137 O134 1.258 . S
C137 O139 1.282 . S
O138 Cd130 2.277 . S
O138 C131 1.226 . S
O139 Cd130 2.356 1_545 S
O139 C137 1.282 . S
C140 O141 1.306 . S
C140 O143 1.160 1_655 S
O141 C140 1.306 . S
O141 Cd142 2.228 1_655 S
Cd142 O141 2.228 1_455 S
Cd142 O146 2.273 . S
Cd142 O150 2.277 . S
O143 C140 1.160 1_455 S
O143 Cd144 2.203 . S
Cd144 O143 2.203 . S
Cd144 O146 2.411 . S
Cd144 O147 2.333 . S
Cd144 O148 2.352 . S
Cd144 O152 2.277 . S
Cd144 O153 2.356 . S
C145 O150 1.209 . S
C145 O152 1.226 . S
O146 Cd142 2.273 . S
O146 Cd144 2.411 . S
O146 C149 1.320 . S
O147 Cd144 2.333 . S
O147 C149 1.214 . S
O148 Cd144 2.352 . S
O148 C151 1.258 . S
C149 O146 1.320 . S
C149 O147 1.214 . S
O150 Cd142 2.277 . S
O150 C145 1.209 . S
C151 O148 1.258 . S
C151 O153 1.282 . S
O152 Cd144 2.277 . S
O152 C145 1.226 . S
O153 Cd144 2.356 . S
O153 C151 1.282 . S
C154 O155 1.306 . S
C154 O157 1.160 . S
O155 C154 1.306 . S
O155 Cd156 2.228 . S
Cd156 O155 2.228 . S
Cd156 O160 2.273 . S
Cd156 O164 2.277 . S
O157 C154 1.160 . S
O157 Cd158 2.203 . S
Cd158 O157 2.203 . S
Cd158 O160 2.411 . S
Cd158 O161 2.333 . S
Cd158 O162 2.352 . S
Cd158 O166 2.277 . S
Cd158 O167 2.356 . S
C159 O164 1.209 . S
C159 O166 1.226 . S
O160 Cd156 2.273 . S
O160 Cd158 2.411 . S
O160 C163 1.320 . S
O161 Cd158 2.333 . S
O161 C163 1.214 . S
O162 Cd158 2.352 . S
O162 C165 1.258 . S
C163 O160 1.320 . S
C163 O161 1.214 . S
O164 Cd156 2.277 . S
O164 C159 1.209 . S
C165 O162 1.258 . S
C165 O167 1.282 . S
O166 Cd158 2.277 . S
O166 C159 1.226 . S
O167 Cd158 2.356 . S
O167 C165 1.282 . S
C168 O169 1.306 . S
C168 O171 1.160 1_565 S
O169 C168 1.306 . S
O169 Cd170 2.228 1_565 S
Cd170 O169 2.228 1_545 S
Cd170 O174 2.273 . S
Cd170 O178 2.277 . S
O171 C168 1.160 1_545 S
O171 Cd172 2.203 . S
Cd172 O171 2.203 . S
Cd172 O174 2.411 . S
Cd172 O175 2.333 . S
Cd172 O176 2.352 . S
Cd172 O180 2.277 . S
Cd172 O181 2.356 . S
C173 O178 1.209 . S
C173 O180 1.226 . S
O174 Cd170 2.273 . S
O174 Cd172 2.411 . S
O174 C177 1.320 . S
O175 Cd172 2.333 . S
O175 C177 1.214 . S
O176 Cd172 2.352 . S
O176 C179 1.258 . S
C177 O174 1.320 . S
C177 O175 1.214 . S
O178 Cd170 2.277 . S
O178 C173 1.209 . S
C179 O176 1.258 . S
C179 O181 1.282 . S
O180 Cd172 2.277 . S
O180 C173 1.226 . S
O181 Cd172 2.356 . S
O181 C179 1.282 . S
C182 O183 1.306 . S
C182 O185 1.160 . S
O183 C182 1.306 . S
O183 Cd184 2.228 . S
Cd184 O183 2.228 . S
Cd184 O188 2.273 . S
Cd184 O192 2.277 . S
O185 C182 1.160 . S
O185 Cd186 2.203 . S
Cd186 O185 2.203 . S
Cd186 O188 2.411 . S
Cd186 O189 2.333 . S
Cd186 O190 2.352 1_655 S
Cd186 O194 2.277 . S
Cd186 O195 2.356 1_655 S
C187 O192 1.209 . S
C187 O194 1.226 . S
O188 Cd184 2.273 . S
O188 Cd186 2.411 . S
O188 C191 1.320 . S
O189 Cd186 2.333 . S
O189 C191 1.214 . S
O190 Cd186 2.352 1_455 S
O190 C193 1.258 . S
C191 O188 1.320 . S
C191 O189 1.214 . S
O192 Cd184 2.277 . S
O192 C187 1.209 . S
C193 O190 1.258 . S
C193 O195 1.282 . S
O194 Cd186 2.277 . S
O194 C187 1.226 . S
O195 Cd186 2.356 1_455 S
O195 C193 1.282 . S
C196 O197 1.306 . S
C196 O199 1.160 . S
O197 C196 1.306 . S
O197 Cd198 2.228 . S
Cd198 O197 2.228 . S
Cd198 O202 2.273 . S
Cd198 O206 2.277 . S
O199 C196 1.160 . S
O199 Cd200 2.203 . S
Cd200 O199 2.203 . S
Cd200 O202 2.411 . S
Cd200 O203 2.333 . S
Cd200 O204 2.352 . S
Cd200 O208 2.277 . S
Cd200 O209 2.356 . S
C201 O206 1.209 . S
C201 O208 1.226 . S
O202 Cd198 2.273 . S
O202 Cd200 2.411 . S
O202 C205 1.320 . S
O203 Cd200 2.333 . S
O203 C205 1.214 . S
O204 Cd200 2.352 . S
O204 C207 1.258 . S
C205 O202 1.320 . S
C205 O203 1.214 . S
O206 Cd198 2.277 . S
O206 C201 1.209 . S
C207 O204 1.258 . S
C207 O209 1.282 . S
O208 Cd200 2.277 . S
O208 C201 1.226 . S
O209 Cd200 2.356 . S
O209 C207 1.282 . S
C210 O211 1.306 . S
C210 O213 1.160 . S
O211 C210 1.306 . S
O211 Cd212 2.228 . S
Cd212 O211 2.228 . S
Cd212 O216 2.273 . S
Cd212 O220 2.277 . S
O213 C210 1.160 . S
O213 Cd214 2.203 . S
Cd214 O213 2.203 . S
Cd214 O216 2.411 . S
Cd214 O217 2.333 . S
Cd214 O218 2.352 . S
Cd214 O222 2.277 . S
Cd214 O223 2.356 . S
C215 O220 1.209 . S
C215 O222 1.226 . S
O216 Cd212 2.273 . S
O216 Cd214 2.411 . S
O216 C219 1.320 . S
O217 Cd214 2.333 . S
O217 C219 1.214 . S
O218 Cd214 2.352 . S
O218 C221 1.258 . S
C219 O216 1.320 . S
C219 O217 1.214 . S
O220 Cd212 2.277 . S
O220 C215 1.209 . S
C221 O218 1.258 . S
C221 O223 1.282 . S
O222 Cd214 2.277 . S
O222 C215 1.226 . S
O223 Cd214 2.356 . S
O223 C221 1.282 . S
C224 O225 1.306 . S
C224 O227 1.160 . S
O225 C224 1.306 . S
O225 Cd226 2.228 . S
Cd226 O225 2.228 . S
Cd226 O230 2.273 . S
Cd226 O234 2.277 . S
O227 C224 1.160 . S
O227 Cd228 2.203 . S
Cd228 O227 2.203 . S
Cd228 O230 2.411 . S
Cd228 O231 2.333 . S
Cd228 O232 2.352 1_545 S
Cd228 O236 2.277 . S
Cd228 O237 2.356 1_545 S
C229 O234 1.209 . S
C229 O236 1.226 . S
O230 Cd226 2.273 . S
O230 Cd228 2.411 . S
O230 C233 1.320 . S
O231 Cd228 2.333 . S
O231 C233 1.214 . S
O232 Cd228 2.352 1_565 S
O232 C235 1.258 . S
C233 O230 1.320 . S
C233 O231 1.214 . S
O234 Cd226 2.277 . S
O234 C229 1.209 . S
C235 O232 1.258 . S
C235 O237 1.282 . S
O236 Cd228 2.277 . S
O236 C229 1.226 . S
O237 Cd228 2.356 1_565 S
O237 C235 1.282 . S
C238 O239 1.306 . S
C238 O241 1.160 . S
O239 C238 1.306 . S
O239 Cd240 2.228 1_455 S
Cd240 O239 2.228 1_655 S
Cd240 O244 2.273 . S
Cd240 O248 2.277 . S
O241 C238 1.160 . S
O241 Cd242 2.203 1_455 S
Cd242 O241 2.203 1_655 S
Cd242 O244 2.411 . S
Cd242 O245 2.333 . S
Cd242 O246 2.352 . S
Cd242 O250 2.277 . S
Cd242 O251 2.356 . S
C243 O248 1.209 . S
C243 O250 1.226 . S
O244 Cd240 2.273 . S
O244 Cd242 2.411 . S
O244 C247 1.320 . S
O245 Cd242 2.333 . S
O245 C247 1.214 . S
O246 Cd242 2.352 . S
O246 C249 1.258 . S
C247 O244 1.320 . S
C247 O245 1.214 . S
O248 Cd240 2.277 . S
O248 C243 1.209 . S
C249 O246 1.258 . S
C249 O251 1.282 . S
O250 Cd242 2.277 . S
O250 C243 1.226 . S
O251 Cd242 2.356 . S
O251 C249 1.282 . S
C252 C253 1.384 . S
C252 C254 1.384 . S
C252 H280 0.931 . S
C253 C252 1.384 . S
C253 C256 1.382 . S
C254 C252 1.384 . S
C254 C255 1.381 . S
C254 H281 0.930 . S
C255 C254 1.381 . S
C255 C257 1.381 . S
C255 C258 1.487 . S
C256 C253 1.382 . S
C256 C257 1.387 . S
C256 H282 0.930 . S
C257 C255 1.381 . S
C257 C256 1.387 . S
C257 H283 0.931 . S
C258 C255 1.487 . S
C258 C265 1.399 . S
C258 N296 1.343 . S
C259 C260 1.384 . S
C259 C261 1.384 . S
C259 H284 0.931 . S
C260 C259 1.384 . S
C260 C263 1.382 . S
C261 C259 1.384 . S
C261 C262 1.381 . S
C261 H285 0.930 . S
C262 C261 1.381 . S
C262 C264 1.381 . S
C262 C265 1.487 . S
C263 C260 1.382 . S
C263 C264 1.387 . S
C263 H286 0.930 . S
C264 C262 1.381 . S
C264 C263 1.387 . S
C264 H287 0.931 . S
C265 C258 1.399 . S
C265 C262 1.487 . S
C265 N297 1.343 . S
C266 C267 1.384 . S
C266 C268 1.384 . S
C266 H288 0.931 . S
C267 C266 1.384 . S
C267 C270 1.382 . S
C268 C266 1.384 . S
C268 C269 1.381 . S
C268 H289 0.930 . S
C269 C268 1.381 . S
C269 C271 1.381 . S
C269 C272 1.487 . S
C270 C267 1.382 . S
C270 C271 1.387 . S
C270 H290 0.930 . S
C271 C269 1.381 . S
C271 C270 1.387 . S
C271 H291 0.931 . S
C272 C269 1.487 . S
C272 C279 1.399 . S
C272 N297 1.343 . S
C273 C274 1.384 . S
C273 C275 1.384 . S
C273 H292 0.931 . S
C274 C273 1.384 . S
C274 C277 1.382 . S
C275 C273 1.384 . S
C275 C276 1.381 . S
C275 H293 0.930 . S
C276 C275 1.381 . S
C276 C278 1.381 . S
C276 C279 1.487 . S
C277 C274 1.382 . S
C277 C278 1.387 . S
C277 H294 0.930 . S
C278 C276 1.381 . S
C278 C277 1.387 . S
C278 H295 0.931 . S
C279 C272 1.399 . S
C279 C276 1.487 . S
C279 N296 1.343 . S
H280 C252 0.931 . S
H281 C254 0.930 . S
H282 C256 0.930 . S
H283 C257 0.931 . S
H284 C259 0.931 . S
H285 C261 0.930 . S
H286 C263 0.930 . S
H287 C264 0.931 . S
H288 C266 0.931 . S
H289 C268 0.930 . S
H290 C270 0.930 . S
H291 C271 0.931 . S
H292 C273 0.931 . S
H293 C275 0.930 . S
H294 C277 0.930 . S
H295 C278 0.931 . S
N296 C258 1.343 . S
N296 C279 1.343 . S
N297 C265 1.343 . S
N297 C272 1.343 . S
C298 C299 1.384 . S
C298 C300 1.384 . S
C298 H326 0.931 . S
C299 C298 1.384 . S
C299 C302 1.382 . S
C300 C298 1.384 . S
C300 C301 1.381 . S
C300 H327 0.930 . S
C301 C300 1.381 . S
C301 C303 1.381 . S
C301 C304 1.487 . S
C302 C299 1.382 . S
C302 C303 1.387 . S
C302 H328 0.930 . S
C303 C301 1.381 . S
C303 C302 1.387 . S
C303 H329 0.931 . S
C304 C301 1.487 . S
C304 C311 1.399 . S
C304 N342 1.343 . S
C305 C306 1.384 . S
C305 C307 1.384 . S
C305 H330 0.931 . S
C306 C305 1.384 . S
C306 C309 1.382 . S
C307 C305 1.384 . S
C307 C308 1.381 . S
C307 H331 0.930 . S
C308 C307 1.381 . S
C308 C310 1.381 . S
C308 C311 1.487 . S
C309 C306 1.382 . S
C309 C310 1.387 . S
C309 H332 0.930 . S
C310 C308 1.381 . S
C310 C309 1.387 . S
C310 H333 0.931 . S
C311 C304 1.399 . S
C311 C308 1.487 . S
C311 N343 1.343 . S
C312 C313 1.384 . S
C312 C314 1.384 . S
C312 H334 0.931 . S
C313 C312 1.384 . S
C313 C316 1.382 . S
C314 C312 1.384 . S
C314 C315 1.381 . S
C314 H335 0.930 . S
C315 C314 1.381 . S
C315 C317 1.381 . S
C315 C318 1.487 . S
C316 C313 1.382 . S
C316 C317 1.387 . S
C316 H336 0.930 . S
C317 C315 1.381 . S
C317 C316 1.387 . S
C317 H337 0.931 . S
C318 C315 1.487 . S
C318 C325 1.399 . S
C318 N343 1.343 . S
C319 C320 1.384 . S
C319 C321 1.384 . S
C319 H338 0.931 . S
C320 C319 1.384 . S
C320 C323 1.382 . S
C321 C319 1.384 . S
C321 C322 1.381 . S
C321 H339 0.930 . S
C322 C321 1.381 . S
C322 C324 1.381 . S
C322 C325 1.487 . S
C323 C320 1.382 . S
C323 C324 1.387 . S
C323 H340 0.930 . S
C324 C322 1.381 . S
C324 C323 1.387 . S
C324 H341 0.931 . S
C325 C318 1.399 . S
C325 C322 1.487 . S
C325 N342 1.343 . S
H326 C298 0.931 . S
H327 C300 0.930 . S
H328 C302 0.930 . S
H329 C303 0.931 . S
H330 C305 0.931 . S
H331 C307 0.930 . S
H332 C309 0.930 . S
H333 C310 0.931 . S
H334 C312 0.931 . S
H335 C314 0.930 . S
H336 C316 0.930 . S
H337 C317 0.931 . S
H338 C319 0.931 . S
H339 C321 0.930 . S
H340 C323 0.930 . S
H341 C324 0.931 . S
N342 C304 1.343 . S
N342 C325 1.343 . S
N343 C311 1.343 . S
N343 C318 1.343 . S
C344 C345 1.384 . S
C344 C346 1.384 . S
C344 H372 0.931 . S
C345 C344 1.384 . S
C345 C348 1.382 . S
C346 C344 1.384 . S
C346 C347 1.381 . S
C346 H373 0.930 . S
C347 C346 1.381 . S
C347 C349 1.381 . S
C347 C350 1.487 . S
C348 C345 1.382 . S
C348 C349 1.387 . S
C348 H374 0.930 . S
C349 C347 1.381 . S
C349 C348 1.387 . S
C349 H375 0.931 . S
C350 C347 1.487 . S
C350 C357 1.399 . S
C350 N388 1.343 . S
C351 C352 1.384 . S
C351 C353 1.384 . S
C351 H376 0.931 . S
C352 C351 1.384 . S
C352 C355 1.382 . S
C353 C351 1.384 . S
C353 C354 1.381 . S
C353 H377 0.930 . S
C354 C353 1.381 . S
C354 C356 1.381 . S
C354 C357 1.487 . S
C355 C352 1.382 . S
C355 C356 1.387 . S
C355 H378 0.930 . S
C356 C354 1.381 . S
C356 C355 1.387 . S
C356 H379 0.931 . S
C357 C350 1.399 . S
C357 C354 1.487 . S
C357 N389 1.343 . S
C358 C359 1.384 . S
C358 C360 1.384 . S
C358 H380 0.931 . S
C359 C358 1.384 . S
C359 C362 1.382 . S
C360 C358 1.384 . S
C360 C361 1.381 . S
C360 H381 0.930 . S
C361 C360 1.381 . S
C361 C363 1.381 . S
C361 C364 1.487 . S
C362 C359 1.382 . S
C362 C363 1.387 . S
C362 H382 0.930 . S
C363 C361 1.381 . S
C363 C362 1.387 . S
C363 H383 0.931 . S
C364 C361 1.487 . S
C364 C371 1.399 . S
C364 N389 1.343 . S
C365 C366 1.384 . S
C365 C367 1.384 . S
C365 H384 0.931 . S
C366 C365 1.384 . S
C366 C369 1.382 . S
C367 C365 1.384 . S
C367 C368 1.381 . S
C367 H385 0.930 . S
C368 C367 1.381 . S
C368 C370 1.381 . S
C368 C371 1.487 . S
C369 C366 1.382 . S
C369 C370 1.387 . S
C369 H386 0.930 . S
C370 C368 1.381 . S
C370 C369 1.387 . S
C370 H387 0.931 . S
C371 C364 1.399 . S
C371 C368 1.487 . S
C371 N388 1.343 . S
H372 C344 0.931 . S
H373 C346 0.930 . S
H374 C348 0.930 . S
H375 C349 0.931 . S
H376 C351 0.931 . S
H377 C353 0.930 . S
H378 C355 0.930 . S
H379 C356 0.931 . S
H380 C358 0.931 . S
H381 C360 0.930 . S
H382 C362 0.930 . S
H383 C363 0.931 . S
H384 C365 0.931 . S
H385 C367 0.930 . S
H386 C369 0.930 . S
H387 C370 0.931 . S
N388 C350 1.343 . S
N388 C371 1.343 . S
N389 C357 1.343 . S
N389 C364 1.343 . S
C390 C391 1.384 . S
C390 C392 1.384 . S
C390 H418 0.931 . S
C391 C390 1.384 . S
C391 C394 1.382 . S
C392 C390 1.384 . S
C392 C393 1.381 . S
C392 H419 0.930 . S
C393 C392 1.381 . S
C393 C395 1.381 . S
C393 C396 1.487 . S
C394 C391 1.382 . S
C394 C395 1.387 . S
C394 H420 0.930 . S
C395 C393 1.381 . S
C395 C394 1.387 . S
C395 H421 0.931 . S
C396 C393 1.487 . S
C396 C403 1.399 . S
C396 N434 1.343 . S
C397 C398 1.384 . S
C397 C399 1.384 . S
C397 H422 0.931 . S
C398 C397 1.384 . S
C398 C401 1.382 . S
C399 C397 1.384 . S
C399 C400 1.381 . S
C399 H423 0.930 . S
C400 C399 1.381 . S
C400 C402 1.381 . S
C400 C403 1.487 . S
C401 C398 1.382 . S
C401 C402 1.387 . S
C401 H424 0.930 . S
C402 C400 1.381 . S
C402 C401 1.387 . S
C402 H425 0.931 . S
C403 C396 1.399 . S
C403 C400 1.487 . S
C403 N435 1.343 . S
C404 C405 1.384 . S
C404 C406 1.384 . S
C404 H426 0.931 . S
C405 C404 1.384 . S
C405 C408 1.382 . S
C406 C404 1.384 . S
C406 C407 1.381 . S
C406 H427 0.930 . S
C407 C406 1.381 . S
C407 C409 1.381 . S
C407 C410 1.487 . S
C408 C405 1.382 . S
C408 C409 1.387 . S
C408 H428 0.930 . S
C409 C407 1.381 . S
C409 C408 1.387 . S
C409 H429 0.931 . S
C410 C407 1.487 . S
C410 C417 1.399 . S
C410 N435 1.343 . S
C411 C412 1.384 . S
C411 C413 1.384 . S
C411 H430 0.931 . S
C412 C411 1.384 . S
C412 C415 1.382 . S
C413 C411 1.384 . S
C413 C414 1.381 . S
C413 H431 0.930 . S
C414 C413 1.381 . S
C414 C416 1.381 . S
C414 C417 1.487 . S
C415 C412 1.382 . S
C415 C416 1.387 . S
C415 H432 0.930 . S
C416 C414 1.381 . S
C416 C415 1.387 . S
C416 H433 0.931 . S
C417 C410 1.399 . S
C417 C414 1.487 . S
C417 N434 1.343 . S
H418 C390 0.931 . S
H419 C392 0.930 . S
H420 C394 0.930 . S
H421 C395 0.931 . S
H422 C397 0.931 . S
H423 C399 0.930 . S
H424 C401 0.930 . S
H425 C402 0.931 . S
H426 C404 0.931 . S
H427 C406 0.930 . S
H428 C408 0.930 . S
H429 C409 0.931 . S
H430 C411 0.931 . S
H431 C413 0.930 . S
H432 C415 0.930 . S
H433 C416 0.931 . S
N434 C396 1.343 . S
N434 C417 1.343 . S
N435 C403 1.343 . S
N435 C410 1.343 . S
C436 C437 1.384 . S
C436 C438 1.384 . S
C436 H464 0.931 . S
C437 C436 1.384 . S
C437 C440 1.382 . S
C438 C436 1.384 . S
C438 C439 1.381 . S
C438 H465 0.930 . S
C439 C438 1.381 . S
C439 C441 1.381 . S
C439 C442 1.487 . S
C440 C437 1.382 . S
C440 C441 1.387 . S
C440 H466 0.930 . S
C441 C439 1.381 . S
C441 C440 1.387 . S
C441 H467 0.931 . S
C442 C439 1.487 . S
C442 C449 1.399 . S
C442 N480 1.343 . S
C443 C444 1.384 . S
C443 C445 1.384 . S
C443 H468 0.931 . S
C444 C443 1.384 . S
C444 C447 1.382 . S
C445 C443 1.384 . S
C445 C446 1.381 . S
C445 H469 0.930 . S
C446 C445 1.381 . S
C446 C448 1.381 . S
C446 C449 1.487 . S
C447 C444 1.382 . S
C447 C448 1.387 . S
C447 H470 0.930 . S
C448 C446 1.381 . S
C448 C447 1.387 . S
C448 H471 0.931 . S
C449 C442 1.399 . S
C449 C446 1.487 . S
C449 N481 1.343 . S
C450 C451 1.384 . S
C450 C452 1.384 . S
C450 H472 0.931 . S
C451 C450 1.384 . S
C451 C454 1.382 . S
C452 C450 1.384 . S
C452 C453 1.381 . S
C452 H473 0.930 . S
C453 C452 1.381 . S
C453 C455 1.381 . S
C453 C456 1.487 . S
C454 C451 1.382 . S
C454 C455 1.387 . S
C454 H474 0.930 . S
C455 C453 1.381 . S
C455 C454 1.387 . S
C455 H475 0.931 . S
C456 C453 1.487 . S
C456 C463 1.399 . S
C456 N481 1.343 . S
C457 C458 1.384 . S
C457 C459 1.384 . S
C457 H476 0.931 . S
C458 C457 1.384 . S
C458 C461 1.382 . S
C459 C457 1.384 . S
C459 C460 1.381 . S
C459 H477 0.930 . S
C460 C459 1.381 . S
C460 C462 1.381 . S
C460 C463 1.487 . S
C461 C458 1.382 . S
C461 C462 1.387 . S
C461 H478 0.930 . S
C462 C460 1.381 . S
C462 C461 1.387 . S
C462 H479 0.931 . S
C463 C456 1.399 . S
C463 C460 1.487 . S
C463 N480 1.343 . S
H464 C436 0.931 . S
H465 C438 0.930 . S
H466 C440 0.930 . S
H467 C441 0.931 . S
H468 C443 0.931 . S
H469 C445 0.930 . S
H470 C447 0.930 . S
H471 C448 0.931 . S
H472 C450 0.931 . S
H473 C452 0.930 . S
H474 C454 0.930 . S
H475 C455 0.931 . S
H476 C457 0.931 . S
H477 C459 0.930 . S
H478 C461 0.930 . S
H479 C462 0.931 . S
N480 C442 1.343 . S
N480 C463 1.343 . S
N481 C449 1.343 . S
N481 C456 1.343 . S
C482 C483 1.384 . S
C482 C484 1.384 . S
C482 H510 0.931 . S
C483 C482 1.384 . S
C483 C486 1.382 . S
C484 C482 1.384 . S
C484 C485 1.381 . S
C484 H511 0.930 . S
C485 C484 1.381 . S
C485 C487 1.381 . S
C485 C488 1.487 . S
C486 C483 1.382 . S
C486 C487 1.387 . S
C486 H512 0.930 . S
C487 C485 1.381 . S
C487 C486 1.387 . S
C487 H513 0.931 . S
C488 C485 1.487 . S
C488 C495 1.399 . S
C488 N526 1.343 . S
C489 C490 1.384 . S
C489 C491 1.384 . S
C489 H514 0.931 . S
C490 C489 1.384 . S
C490 C493 1.382 . S
C491 C489 1.384 . S
C491 C492 1.381 . S
C491 H515 0.930 . S
C492 C491 1.381 . S
C492 C494 1.381 . S
C492 C495 1.487 . S
C493 C490 1.382 . S
C493 C494 1.387 . S
C493 H516 0.930 . S
C494 C492 1.381 . S
C494 C493 1.387 . S
C494 H517 0.931 . S
C495 C488 1.399 . S
C495 C492 1.487 . S
C495 N527 1.343 . S
C496 C497 1.384 . S
C496 C498 1.384 . S
C496 H518 0.931 . S
C497 C496 1.384 . S
C497 C500 1.382 . S
C498 C496 1.384 . S
C498 C499 1.381 . S
C498 H519 0.930 . S
C499 C498 1.381 . S
C499 C501 1.381 . S
C499 C502 1.487 . S
C500 C497 1.382 . S
C500 C501 1.387 . S
C500 H520 0.930 . S
C501 C499 1.381 . S
C501 C500 1.387 . S
C501 H521 0.931 . S
C502 C499 1.487 . S
C502 C509 1.399 . S
C502 N527 1.343 . S
C503 C504 1.384 . S
C503 C505 1.384 . S
C503 H522 0.931 . S
C504 C503 1.384 . S
C504 C507 1.382 . S
C505 C503 1.384 . S
C505 C506 1.381 . S
C505 H523 0.930 . S
C506 C505 1.381 . S
C506 C508 1.381 . S
C506 C509 1.487 . S
C507 C504 1.382 . S
C507 C508 1.387 . S
C507 H524 0.930 . S
C508 C506 1.381 . S
C508 C507 1.387 . S
C508 H525 0.931 . S
C509 C502 1.399 . S
C509 C506 1.487 . S
C509 N526 1.343 . S
H510 C482 0.931 . S
H511 C484 0.930 . S
H512 C486 0.930 . S
H513 C487 0.931 . S
H514 C489 0.931 . S
H515 C491 0.930 . S
H516 C493 0.930 . S
H517 C494 0.931 . S
H518 C496 0.931 . S
H519 C498 0.930 . S
H520 C500 0.930 . S
H521 C501 0.931 . S
H522 C503 0.931 . S
H523 C505 0.930 . S
H524 C507 0.930 . S
H525 C508 0.931 . S
N526 C488 1.343 . S
N526 C509 1.343 . S
N527 C495 1.343 . S
N527 C502 1.343 . S
C528 C529 1.384 . S
C528 C530 1.384 . S
C528 H556 0.931 . S
C529 C528 1.384 . S
C529 C532 1.382 . S
C530 C528 1.384 . S
C530 C531 1.381 . S
C530 H557 0.930 . S
C531 C530 1.381 . S
C531 C533 1.381 . S
C531 C534 1.487 . S
C532 C529 1.382 . S
C532 C533 1.387 . S
C532 H558 0.930 . S
C533 C531 1.381 . S
C533 C532 1.387 . S
C533 H559 0.931 . S
C534 C531 1.487 . S
C534 C541 1.399 . S
C534 N572 1.343 . S
C535 C536 1.384 . S
C535 C537 1.384 . S
C535 H560 0.931 . S
C536 C535 1.384 . S
C536 C539 1.382 . S
C537 C535 1.384 . S
C537 C538 1.381 . S
C537 H561 0.930 . S
C538 C537 1.381 . S
C538 C540 1.381 . S
C538 C541 1.487 . S
C539 C536 1.382 . S
C539 C540 1.387 . S
C539 H562 0.930 . S
C540 C538 1.381 . S
C540 C539 1.387 . S
C540 H563 0.931 . S
C541 C534 1.399 . S
C541 C538 1.487 . S
C541 N573 1.343 . S
C542 C543 1.384 . S
C542 C544 1.384 . S
C542 H564 0.931 . S
C543 C542 1.384 . S
C543 C546 1.382 . S
C544 C542 1.384 . S
C544 C545 1.381 . S
C544 H565 0.930 . S
C545 C544 1.381 . S
C545 C547 1.381 . S
C545 C548 1.487 . S
C546 C543 1.382 . S
C546 C547 1.387 . S
C546 H566 0.930 . S
C547 C545 1.381 . S
C547 C546 1.387 . S
C547 H567 0.931 . S
C548 C545 1.487 . S
C548 C555 1.399 . S
C548 N573 1.343 . S
C549 C550 1.384 . S
C549 C551 1.384 . S
C549 H568 0.931 . S
C550 C549 1.384 . S
C550 C553 1.382 . S
C551 C549 1.384 . S
C551 C552 1.381 . S
C551 H569 0.930 . S
C552 C551 1.381 . S
C552 C554 1.381 . S
C552 C555 1.487 . S
C553 C550 1.382 . S
C553 C554 1.387 . S
C553 H570 0.930 . S
C554 C552 1.381 . S
C554 C553 1.387 . S
C554 H571 0.931 . S
C555 C548 1.399 . S
C555 C552 1.487 . S
C555 N572 1.343 . S
H556 C528 0.931 . S
H557 C530 0.930 . S
H558 C532 0.930 . S
H559 C533 0.931 . S
H560 C535 0.931 . S
H561 C537 0.930 . S
H562 C539 0.930 . S
H563 C540 0.931 . S
H564 C542 0.931 . S
H565 C544 0.930 . S
H566 C546 0.930 . S
H567 C547 0.931 . S
H568 C549 0.931 . S
H569 C551 0.930 . S
H570 C553 0.930 . S
H571 C554 0.931 . S
N572 C534 1.343 . S
N572 C555 1.343 . S
N573 C541 1.343 . S
N573 C548 1.343 . S
C574 C575 1.384 . S
C574 C576 1.384 . S
C574 H602 0.931 . S
C575 C574 1.384 . S
C575 C578 1.382 . S
C576 C574 1.384 . S
C576 C577 1.381 . S
C576 H603 0.930 . S
C577 C576 1.381 . S
C577 C579 1.381 . S
C577 C580 1.487 . S
C578 C575 1.382 . S
C578 C579 1.387 . S
C578 H604 0.930 . S
C579 C577 1.381 . S
C579 C578 1.387 . S
C579 H605 0.931 . S
C580 C577 1.487 . S
C580 C587 1.399 . S
C580 N618 1.343 . S
C581 C582 1.384 . S
C581 C583 1.384 . S
C581 H606 0.931 . S
C582 C581 1.384 . S
C582 C585 1.382 . S
C583 C581 1.384 . S
C583 C584 1.381 . S
C583 H607 0.930 . S
C584 C583 1.381 . S
C584 C586 1.381 . S
C584 C587 1.487 . S
C585 C582 1.382 . S
C585 C586 1.387 . S
C585 H608 0.930 . S
C586 C584 1.381 . S
C586 C585 1.387 . S
C586 H609 0.931 . S
C587 C580 1.399 . S
C587 C584 1.487 . S
C587 N619 1.343 . S
C588 C589 1.384 . S
C588 C590 1.384 . S
C588 H610 0.931 . S
C589 C588 1.384 . S
C589 C592 1.382 . S
C590 C588 1.384 . S
C590 C591 1.381 . S
C590 H611 0.930 . S
C591 C590 1.381 . S
C591 C593 1.381 . S
C591 C594 1.487 . S
C592 C589 1.382 . S
C592 C593 1.387 . S
C592 H612 0.930 . S
C593 C591 1.381 . S
C593 C592 1.387 . S
C593 H613 0.931 . S
C594 C591 1.487 . S
C594 C601 1.399 . S
C594 N619 1.343 . S
C595 C596 1.384 . S
C595 C597 1.384 . S
C595 H614 0.931 . S
C596 C595 1.384 . S
C596 C599 1.382 . S
C597 C595 1.384 . S
C597 C598 1.381 . S
C597 H615 0.930 . S
C598 C597 1.381 . S
C598 C600 1.381 . S
C598 C601 1.487 . S
C599 C596 1.382 . S
C599 C600 1.387 . S
C599 H616 0.930 . S
C600 C598 1.381 . S
C600 C599 1.387 . S
C600 H617 0.931 . S
C601 C594 1.399 . S
C601 C598 1.487 . S
C601 N618 1.343 . S
H602 C574 0.931 . S
H603 C576 0.930 . S
H604 C578 0.930 . S
H605 C579 0.931 . S
H606 C581 0.931 . S
H607 C583 0.930 . S
H608 C585 0.930 . S
H609 C586 0.931 . S
H610 C588 0.931 . S
H611 C590 0.930 . S
H612 C592 0.930 . S
H613 C593 0.931 . S
H614 C595 0.931 . S
H615 C597 0.930 . S
H616 C599 0.930 . S
H617 C600 0.931 . S
N618 C580 1.343 . S
N618 C601 1.343 . S
N619 C587 1.343 . S
N619 C594 1.343 . S
C620 C621 1.384 . S
C620 C622 1.384 . S
C620 H648 0.931 . S
C621 C620 1.384 . S
C621 C624 1.382 . S
C622 C620 1.384 . S
C622 C623 1.381 . S
C622 H649 0.930 . S
C623 C622 1.381 . S
C623 C625 1.381 . S
C623 C626 1.487 . S
C624 C621 1.382 . S
C624 C625 1.387 . S
C624 H650 0.930 . S
C625 C623 1.381 . S
C625 C624 1.387 . S
C625 H651 0.931 . S
C626 C623 1.487 . S
C626 C633 1.399 . S
C626 N664 1.343 . S
C627 C628 1.384 . S
C627 C629 1.384 . S
C627 H652 0.931 . S
C628 C627 1.384 . S
C628 C631 1.382 . S
C629 C627 1.384 . S
C629 C630 1.381 . S
C629 H653 0.930 . S
C630 C629 1.381 . S
C630 C632 1.381 . S
C630 C633 1.487 . S
C631 C628 1.382 . S
C631 C632 1.387 . S
C631 H654 0.930 . S
C632 C630 1.381 . S
C632 C631 1.387 . S
C632 H655 0.931 . S
C633 C626 1.399 . S
C633 C630 1.487 . S
C633 N665 1.343 . S
C634 C635 1.384 . S
C634 C636 1.384 . S
C634 H656 0.931 . S
C635 C634 1.384 . S
C635 C638 1.382 . S
C636 C634 1.384 . S
C636 C637 1.381 . S
C636 H657 0.930 . S
C637 C636 1.381 . S
C637 C639 1.381 . S
C637 C640 1.487 . S
C638 C635 1.382 . S
C638 C639 1.387 . S
C638 H658 0.930 . S
C639 C637 1.381 . S
C639 C638 1.387 . S
C639 H659 0.931 . S
C640 C637 1.487 . S
C640 C647 1.399 . S
C640 N665 1.343 . S
C641 C642 1.384 . S
C641 C643 1.384 . S
C641 H660 0.931 . S
C642 C641 1.384 . S
C642 C645 1.382 . S
C643 C641 1.384 . S
C643 C644 1.381 . S
C643 H661 0.930 . S
C644 C643 1.381 . S
C644 C646 1.381 . S
C644 C647 1.487 . S
C645 C642 1.382 . S
C645 C646 1.387 . S
C645 H662 0.930 . S
C646 C644 1.381 . S
C646 C645 1.387 . S
C646 H663 0.931 . S
C647 C640 1.399 . S
C647 C644 1.487 . S
C647 N664 1.343 . S
H648 C620 0.931 . S
H649 C622 0.930 . S
H650 C624 0.930 . S
H651 C625 0.931 . S
H652 C627 0.931 . S
H653 C629 0.930 . S
H654 C631 0.930 . S
H655 C632 0.931 . S
H656 C634 0.931 . S
H657 C636 0.930 . S
H658 C638 0.930 . S
H659 C639 0.931 . S
H660 C641 0.931 . S
H661 C643 0.930 . S
H662 C645 0.930 . S
H663 C646 0.931 . S
N664 C626 1.343 . S
N664 C647 1.343 . S
N665 C633 1.343 . S
N665 C640 1.343 . S
C666 C667 1.384 . S
C666 C668 1.384 . S
C666 H694 0.931 . S
C667 C666 1.384 . S
C667 C670 1.382 1_655 S
C668 C666 1.384 . S
C668 C669 1.398 . S
C668 H695 0.930 . S
C669 C668 1.398 . S
C669 C671 1.373 1_655 S
C669 C672 1.475 1_655 S
C670 C667 1.382 1_455 S
C670 C671 1.387 . S
C670 H696 0.930 . S
C671 C669 1.373 1_455 S
C671 C670 1.387 . S
C671 H697 0.931 . S
C672 C669 1.475 1_455 S
C672 C679 1.399 1_455 S
C672 N710 1.315 . S
C673 C674 1.384 . S
C673 C675 1.384 . S
C673 H698 0.931 . S
C674 C673 1.384 . S
C674 C677 1.382 1_455 S
C675 C673 1.384 . S
C675 C676 1.381 . S
C675 H699 0.930 . S
C676 C675 1.381 . S
C676 C678 1.381 1_455 S
C676 C679 1.490 1_455 S
C677 C674 1.382 1_655 S
C677 C678 1.387 . S
C677 H700 0.930 . S
C678 C676 1.381 1_655 S
C678 C677 1.387 . S
C678 H701 0.931 . S
C679 C672 1.399 1_655 S
C679 C676 1.490 1_655 S
C679 N711 1.362 . S
C680 C681 1.384 . S
C680 C682 1.384 . S
C680 H702 0.931 . S
C681 C680 1.384 . S
C681 C684 1.382 1_455 S
C682 C680 1.384 . S
C682 C683 1.418 . S
C682 H703 0.930 . S
C683 C682 1.418 . S
C683 C685 1.363 1_455 S
C683 C686 1.466 . S
C684 C681 1.382 1_655 S
C684 C685 1.387 . S
C684 H704 0.930 . S
C685 C683 1.363 1_655 S
C685 C684 1.387 . S
C685 H705 0.931 . S
C686 C683 1.466 . S
C686 C693 1.399 . S
C686 N711 1.325 1_455 S
C687 C688 1.384 . S
C687 C689 1.384 . S
C687 H706 0.931 . S
C688 C687 1.384 . S
C688 C691 1.382 1_655 S
C689 C687 1.384 . S
C689 C690 1.381 1_655 S
C689 H707 0.930 . S
C690 C689 1.381 1_455 S
C690 C692 1.381 . S
C690 C693 1.499 . S
C691 C688 1.382 1_455 S
C691 C692 1.387 . S
C691 H708 0.930 . S
C692 C690 1.381 . S
C692 C691 1.387 . S
C692 H709 0.931 . S
C693 C686 1.399 . S
C693 C690 1.499 . S
C693 N710 1.362 . S
H694 C666 0.931 . S
H695 C668 0.930 . S
H696 C670 0.930 . S
H697 C671 0.931 . S
H698 C673 0.931 . S
H699 C675 0.930 . S
H700 C677 0.930 . S
H701 C678 0.931 . S
H702 C680 0.931 . S
H703 C682 0.930 . S
H704 C684 0.930 . S
H705 C685 0.931 . S
H706 C687 0.931 . S
H707 C689 0.930 . S
H708 C691 0.930 . S
H709 C692 0.931 . S
N710 C672 1.315 . S
N710 C693 1.362 . S
N711 C679 1.362 . S
N711 C686 1.325 1_655 S
C712 C713 1.384 . S
C712 C714 1.384 . S
C712 H740 0.931 . S
C713 C712 1.384 . S
C713 C716 1.382 . S
C714 C712 1.384 . S
C714 C715 1.381 . S
C714 H741 0.930 . S
C715 C714 1.381 . S
C715 C717 1.381 . S
C715 C718 1.487 . S
C716 C713 1.382 . S
C716 C717 1.387 . S
C716 H742 0.930 . S
C717 C715 1.381 . S
C717 C716 1.387 . S
C717 H743 0.931 . S
C718 C715 1.487 . S
C718 C725 1.399 . S
C718 N756 1.343 . S
C719 C720 1.384 . S
C719 C721 1.384 . S
C719 H744 0.931 . S
C720 C719 1.384 . S
C720 C723 1.382 . S
C721 C719 1.384 . S
C721 C722 1.381 . S
C721 H745 0.930 . S
C722 C721 1.381 . S
C722 C724 1.381 . S
C722 C725 1.487 . S
C723 C720 1.382 . S
C723 C724 1.387 . S
C723 H746 0.930 . S
C724 C722 1.381 . S
C724 C723 1.387 . S
C724 H747 0.931 . S
C725 C718 1.399 . S
C725 C722 1.487 . S
C725 N757 1.343 . S
C726 C727 1.384 . S
C726 C728 1.384 . S
C726 H748 0.931 . S
C727 C726 1.384 . S
C727 C730 1.382 . S
C728 C726 1.384 . S
C728 C729 1.381 . S
C728 H749 0.930 . S
C729 C728 1.381 . S
C729 C731 1.381 . S
C729 C732 1.487 . S
C730 C727 1.382 . S
C730 C731 1.387 . S
C730 H750 0.930 . S
C731 C729 1.381 . S
C731 C730 1.387 . S
C731 H751 0.931 . S
C732 C729 1.487 . S
C732 C739 1.399 . S
C732 N757 1.343 . S
C733 C734 1.384 . S
C733 C735 1.384 . S
C733 H752 0.931 . S
C734 C733 1.384 . S
C734 C737 1.382 . S
C735 C733 1.384 . S
C735 C736 1.381 . S
C735 H753 0.930 . S
C736 C735 1.381 . S
C736 C738 1.381 . S
C736 C739 1.487 . S
C737 C734 1.382 . S
C737 C738 1.387 . S
C737 H754 0.930 . S
C738 C736 1.381 . S
C738 C737 1.387 . S
C738 H755 0.931 . S
C739 C732 1.399 . S
C739 C736 1.487 . S
C739 N756 1.343 . S
H740 C712 0.931 . S
H741 C714 0.930 . S
H742 C716 0.930 . S
H743 C717 0.931 . S
H744 C719 0.931 . S
H745 C721 0.930 . S
H746 C723 0.930 . S
H747 C724 0.931 . S
H748 C726 0.931 . S
H749 C728 0.930 . S
H750 C730 0.930 . S
H751 C731 0.931 . S
H752 C733 0.931 . S
H753 C735 0.930 . S
H754 C737 0.930 . S
H755 C738 0.931 . S
N756 C718 1.343 . S
N756 C739 1.343 . S
N757 C725 1.343 . S
N757 C732 1.343 . S
C758 C759 1.384 1_545 S
C758 C760 1.384 . S
C758 H786 0.931 . S
C759 C758 1.384 1_565 S
C759 C762 1.382 . S
C760 C758 1.384 . S
C760 C761 1.381 1_545 S
C760 H787 0.930 . S
C761 C760 1.381 1_565 S
C761 C763 1.381 . S
C761 C764 1.487 . S
C762 C759 1.382 . S
C762 C763 1.387 . S
C762 H788 0.930 . S
C763 C761 1.381 . S
C763 C762 1.387 . S
C763 H789 0.931 . S
C764 C761 1.487 . S
C764 C771 1.399 1_565 S
C764 N802 1.343 . S
C765 C766 1.384 1_565 S
C765 C767 1.384 . S
C765 H790 0.931 . S
C766 C765 1.384 1_545 S
C766 C769 1.382 . S
C767 C765 1.384 . S
C767 C768 1.381 1_565 S
C767 H791 0.930 . S
C768 C767 1.381 1_545 S
C768 C770 1.381 . S
C768 C771 1.487 . S
C769 C766 1.382 . S
C769 C770 1.387 . S
C769 H792 0.930 . S
C770 C768 1.381 . S
C770 C769 1.387 . S
C770 H793 0.931 . S
C771 C764 1.399 1_545 S
C771 C768 1.487 . S
C771 N803 1.343 . S
C772 C773 1.384 1_565 S
C772 C774 1.384 . S
C772 H794 0.931 . S
C773 C772 1.384 1_545 S
C773 C776 1.382 . S
C774 C772 1.384 . S
C774 C775 1.381 1_565 S
C774 H795 0.930 . S
C775 C774 1.381 1_545 S
C775 C777 1.381 . S
C775 C778 1.457 . S
C776 C773 1.382 . S
C776 C777 1.387 . S
C776 H796 0.930 . S
C777 C775 1.381 . S
C777 C776 1.387 . S
C777 H797 0.931 . S
C778 C775 1.457 . S
C778 C785 1.390 1_545 S
C778 N803 1.390 . S
C779 C780 1.384 1_545 S
C779 C781 1.384 . S
C779 H798 0.931 . S
C780 C779 1.384 1_565 S
C780 C783 1.382 . S
C781 C779 1.384 . S
C781 C782 1.381 1_545 S
C781 H799 0.930 . S
C782 C781 1.381 1_565 S
C782 C784 1.381 . S
C782 C785 1.487 . S
C783 C780 1.382 . S
C783 C784 1.387 . S
C783 H800 0.930 . S
C784 C782 1.381 . S
C784 C783 1.387 . S
C784 H801 0.931 . S
C785 C778 1.390 1_565 S
C785 C782 1.487 . S
C785 N802 1.343 . S
H786 C758 0.931 . S
H787 C760 0.930 . S
H788 C762 0.930 . S
H789 C763 0.931 . S
H790 C765 0.931 . S
H791 C767 0.930 . S
H792 C769 0.930 . S
H793 C770 0.931 . S
H794 C772 0.931 . S
H795 C774 0.930 . S
H796 C776 0.930 . S
H797 C777 0.931 . S
H798 C779 0.931 . S
H799 C781 0.930 . S
H800 C783 0.930 . S
H801 C784 0.931 . S
N802 C764 1.343 . S
N802 C785 1.343 . S
N803 C771 1.343 . S
N803 C778 1.390 . S
C804 C805 1.384 . S
C804 C806 1.384 . S
C804 H832 0.931 . S
C805 C804 1.384 . S
C805 C808 1.382 1_545 S
C806 C804 1.384 . S
C806 C807 1.380 . S
C806 H833 0.930 . S
C807 C806 1.380 . S
C807 C809 1.385 1_545 S
C807 C810 1.488 1_545 S
C808 C805 1.382 1_565 S
C808 C809 1.387 . S
C808 H834 0.930 . S
C809 C807 1.385 1_565 S
C809 C808 1.387 . S
C809 H835 0.931 . S
C810 C807 1.488 1_565 S
C810 C817 1.399 1_565 S
C810 N848 1.363 . S
C811 C812 1.384 . S
C811 C813 1.384 . S
C811 H836 0.931 . S
C812 C811 1.384 . S
C812 C815 1.382 1_565 S
C813 C811 1.384 . S
C813 C814 1.391 . S
C813 H837 0.930 . S
C814 C813 1.391 . S
C814 C816 1.376 1_565 S
C814 C817 1.477 1_565 S
C815 C812 1.382 1_545 S
C815 C816 1.387 . S
C815 H838 0.930 . S
C816 C814 1.376 1_545 S
C816 C815 1.387 . S
C816 H839 0.931 . S
C817 C810 1.399 1_545 S
C817 C814 1.477 1_545 S
C817 N849 1.313 . S
C818 C819 1.384 . S
C818 C820 1.384 . S
C818 H840 0.931 . S
C819 C818 1.384 . S
C819 C822 1.382 1_565 S
C820 C818 1.384 . S
C820 C821 1.380 1_565 S
C820 H841 0.930 . S
C821 C820 1.380 1_545 S
C821 C823 1.385 . S
C821 C824 1.497 . S
C822 C819 1.382 1_545 S
C822 C823 1.387 . S
C822 H842 0.930 . S
C823 C821 1.385 . S
C823 C822 1.387 . S
C823 H843 0.931 . S
C824 C821 1.497 . S
C824 C831 1.399 1_545 S
C824 N849 1.363 . S
C825 C826 1.384 . S
C825 C827 1.384 . S
C825 H844 0.931 . S
C826 C825 1.384 . S
C826 C829 1.382 1_545 S
C827 C825 1.384 . S
C827 C828 1.412 . S
C827 H845 0.930 . S
C828 C827 1.412 . S
C828 C830 1.366 1_545 S
C828 C831 1.477 1_545 S
C829 C826 1.382 1_565 S
C829 C830 1.387 . S
C829 H846 0.930 . S
C830 C828 1.366 1_565 S
C830 C829 1.387 . S
C830 H847 0.931 . S
C831 C824 1.399 1_565 S
C831 C828 1.477 1_565 S
C831 N848 1.313 . S
H832 C804 0.931 . S
H833 C806 0.930 . S
H834 C808 0.930 . S
H835 C809 0.931 . S
H836 C811 0.931 . S
H837 C813 0.930 . S
H838 C815 0.930 . S
H839 C816 0.931 . S
H840 C818 0.931 . S
H841 C820 0.930 . S
H842 C822 0.930 . S
H843 C823 0.931 . S
H844 C825 0.931 . S
H845 C827 0.930 . S
H846 C829 0.930 . S
H847 C830 0.931 . S
N848 C810 1.363 . S
N848 C831 1.313 . S
N849 C817 1.313 . S
N849 C824 1.363 . S
C850 C851 1.384 . S
C850 C852 1.384 . S
C850 H878 0.931 . S
C851 C850 1.384 . S
C851 C854 1.382 1_655 S
C852 C850 1.384 . S
C852 C853 1.415 . S
C852 H879 0.930 . S
C853 C852 1.415 . S
C853 C855 1.364 1_655 S
C853 C856 1.467 . S
C854 C851 1.382 1_455 S
C854 C855 1.387 . S
C854 H880 0.930 . S
C855 C853 1.364 1_455 S
C855 C854 1.387 . S
C855 H881 0.931 . S
C856 C853 1.467 . S
C856 C863 1.399 . S
C856 N894 1.325 1_655 S
C857 C858 1.384 . S
C857 C859 1.384 . S
C857 H882 0.931 . S
C858 C857 1.384 . S
C858 C861 1.382 1_455 S
C859 C857 1.384 . S
C859 C860 1.381 1_455 S
C859 H883 0.930 . S
C860 C859 1.381 1_655 S
C860 C862 1.381 . S
C860 C863 1.499 . S
C861 C858 1.382 1_655 S
C861 C862 1.387 . S
C861 H884 0.930 . S
C862 C860 1.381 . S
C862 C861 1.387 . S
C862 H885 0.931 . S
C863 C856 1.399 . S
C863 C860 1.499 . S
C863 N895 1.362 . S
C864 C865 1.384 . S
C864 C866 1.384 . S
C864 H886 0.931 . S
C865 C864 1.384 . S
C865 C868 1.382 1_455 S
C866 C864 1.384 . S
C866 C867 1.395 . S
C866 H887 0.930 . S
C867 C866 1.395 . S
C867 C869 1.374 1_455 S
C867 C870 1.476 1_455 S
C868 C865 1.382 1_655 S
C868 C869 1.387 . S
C868 H888 0.930 . S
C869 C867 1.374 1_655 S
C869 C868 1.387 . S
C869 H889 0.931 . S
C870 C867 1.476 1_655 S
C870 C877 1.399 1_655 S
C870 N895 1.315 . S
C871 C872 1.384 . S
C871 C873 1.384 . S
C871 H890 0.931 . S
C872 C871 1.384 . S
C872 C875 1.382 1_655 S
C873 C871 1.384 . S
C873 C874 1.381 . S
C873 H891 0.930 . S
C874 C873 1.381 . S
C874 C876 1.381 1_655 S
C874 C877 1.490 1_655 S
C875 C872 1.382 1_455 S
C875 C876 1.387 . S
C875 H892 0.930 . S
C876 C874 1.381 1_455 S
C876 C875 1.387 . S
C876 H893 0.931 . S
C877 C870 1.399 1_455 S
C877 C874 1.490 1_455 S
C877 N894 1.362 . S
H878 C850 0.931 . S
H879 C852 0.930 . S
H880 C854 0.930 . S
H881 C855 0.931 . S
H882 C857 0.931 . S
H883 C859 0.930 . S
H884 C861 0.930 . S
H885 C862 0.931 . S
H886 C864 0.931 . S
H887 C866 0.930 . S
H888 C868 0.930 . S
H889 C869 0.931 . S
H890 C871 0.931 . S
H891 C873 0.930 . S
H892 C875 0.930 . S
H893 C876 0.931 . S
N894 C856 1.325 1_455 S
N894 C877 1.362 . S
N895 C863 1.362 . S
N895 C870 1.315 . S
C896 C897 1.384 . S
C896 C898 1.384 . S
C896 H924 0.931 . S
C897 C896 1.384 . S
C897 C900 1.382 . S
C898 C896 1.384 . S
C898 C899 1.381 . S
C898 H925 0.930 . S
C899 C898 1.381 . S
C899 C901 1.381 . S
C899 C902 1.487 . S
C900 C897 1.382 . S
C900 C901 1.387 . S
C900 H926 0.930 . S
C901 C899 1.381 . S
C901 C900 1.387 . S
C901 H927 0.931 . S
C902 C899 1.487 . S
C902 C909 1.399 . S
C902 N940 1.343 . S
C903 C904 1.384 . S
C903 C905 1.384 . S
C903 H928 0.931 . S
C904 C903 1.384 . S
C904 C907 1.382 . S
C905 C903 1.384 . S
C905 C906 1.381 . S
C905 H929 0.930 . S
C906 C905 1.381 . S
C906 C908 1.381 . S
C906 C909 1.487 . S
C907 C904 1.382 . S
C907 C908 1.387 . S
C907 H930 0.930 . S
C908 C906 1.381 . S
C908 C907 1.387 . S
C908 H931 0.931 . S
C909 C902 1.399 . S
C909 C906 1.487 . S
C909 N941 1.343 . S
C910 C911 1.384 . S
C910 C912 1.384 . S
C910 H932 0.931 . S
C911 C910 1.384 . S
C911 C914 1.382 . S
C912 C910 1.384 . S
C912 C913 1.381 . S
C912 H933 0.930 . S
C913 C912 1.381 . S
C913 C915 1.381 . S
C913 C916 1.487 . S
C914 C911 1.382 . S
C914 C915 1.387 . S
C914 H934 0.930 . S
C915 C913 1.381 . S
C915 C914 1.387 . S
C915 H935 0.931 . S
C916 C913 1.487 . S
C916 C923 1.399 . S
C916 N941 1.343 . S
C917 C918 1.384 . S
C917 C919 1.384 . S
C917 H936 0.931 . S
C918 C917 1.384 . S
C918 C921 1.382 . S
C919 C917 1.384 . S
C919 C920 1.381 . S
C919 H937 0.930 . S
C920 C919 1.381 . S
C920 C922 1.381 . S
C920 C923 1.487 . S
C921 C918 1.382 . S
C921 C922 1.387 . S
C921 H938 0.930 . S
C922 C920 1.381 . S
C922 C921 1.387 . S
C922 H939 0.931 . S
C923 C916 1.399 . S
C923 C920 1.487 . S
C923 N940 1.343 . S
H924 C896 0.931 . S
H925 C898 0.930 . S
H926 C900 0.930 . S
H927 C901 0.931 . S
H928 C903 0.931 . S
H929 C905 0.930 . S
H930 C907 0.930 . S
H931 C908 0.931 . S
H932 C910 0.931 . S
H933 C912 0.930 . S
H934 C914 0.930 . S
H935 C915 0.931 . S
H936 C917 0.931 . S
H937 C919 0.930 . S
H938 C921 0.930 . S
H939 C922 0.931 . S
N940 C902 1.343 . S
N940 C923 1.343 . S
N941 C909 1.343 . S
N941 C916 1.343 . S
C942 C943 1.384 . S
C942 C944 1.384 . S
C942 H970 0.931 . S
C943 C942 1.384 . S
C943 C946 1.382 . S
C944 C942 1.384 . S
C944 C945 1.381 . S
C944 H971 0.930 . S
C945 C944 1.381 . S
C945 C947 1.381 . S
C945 C948 1.487 . S
C946 C943 1.382 . S
C946 C947 1.387 . S
C946 H972 0.930 . S
C947 C945 1.381 . S
C947 C946 1.387 . S
C947 H973 0.931 . S
C948 C945 1.487 . S
C948 C955 1.399 . S
C948 N986 1.343 . S
C949 C950 1.384 . S
C949 C951 1.384 . S
C949 H974 0.931 . S
C950 C949 1.384 . S
C950 C953 1.382 . S
C951 C949 1.384 . S
C951 C952 1.381 . S
C951 H975 0.930 . S
C952 C951 1.381 . S
C952 C954 1.381 . S
C952 C955 1.487 . S
C953 C950 1.382 . S
C953 C954 1.387 . S
C953 H976 0.930 . S
C954 C952 1.381 . S
C954 C953 1.387 . S
C954 H977 0.931 . S
C955 C948 1.399 . S
C955 C952 1.487 . S
C955 N987 1.343 . S
C956 C957 1.384 . S
C956 C958 1.384 . S
C956 H978 0.931 . S
C957 C956 1.384 . S
C957 C960 1.382 . S
C958 C956 1.384 . S
C958 C959 1.381 . S
C958 H979 0.930 . S
C959 C958 1.381 . S
C959 C961 1.381 . S
C959 C962 1.487 . S
C960 C957 1.382 . S
C960 C961 1.387 . S
C960 H980 0.930 . S
C961 C959 1.381 . S
C961 C960 1.387 . S
C961 H981 0.931 . S
C962 C959 1.487 . S
C962 C969 1.399 . S
C962 N987 1.343 . S
C963 C964 1.384 . S
C963 C965 1.384 . S
C963 H982 0.931 . S
C964 C963 1.384 . S
C964 C967 1.382 . S
C965 C963 1.384 . S
C965 C966 1.381 . S
C965 H983 0.930 . S
C966 C965 1.381 . S
C966 C968 1.381 . S
C966 C969 1.487 . S
C967 C964 1.382 . S
C967 C968 1.387 . S
C967 H984 0.930 . S
C968 C966 1.381 . S
C968 C967 1.387 . S
C968 H985 0.931 . S
C969 C962 1.399 . S
C969 C966 1.487 . S
C969 N986 1.343 . S
H970 C942 0.931 . S
H971 C944 0.930 . S
H972 C946 0.930 . S
H973 C947 0.931 . S
H974 C949 0.931 . S
H975 C951 0.930 . S
H976 C953 0.930 . S
H977 C954 0.931 . S
H978 C956 0.931 . S
H979 C958 0.930 . S
H980 C960 0.930 . S
H981 C961 0.931 . S
H982 C963 0.931 . S
H983 C965 0.930 . S
H984 C967 0.930 . S
H985 C968 0.931 . S
N986 C948 1.343 . S
N986 C969 1.343 . S
N987 C955 1.343 . S
N987 C962 1.343 . S
C988 C989 1.384 . S
C988 C990 1.384 . S
C988 H1016 0.931 . S
C989 C988 1.384 . S
C989 C992 1.382 . S
C990 C988 1.384 . S
C990 C991 1.381 . S
C990 H1017 0.930 . S
C991 C990 1.381 . S
C991 C993 1.381 . S
C991 C994 1.487 . S
C992 C989 1.382 . S
C992 C993 1.387 . S
C992 H1018 0.930 . S
C993 C991 1.381 . S
C993 C992 1.387 . S
C993 H1019 0.931 . S
C994 C991 1.487 . S
C994 C1001 1.399 . S
C994 N1032 1.343 . S
C995 C996 1.384 . S
C995 C997 1.384 . S
C995 H1020 0.931 . S
C996 C995 1.384 . S
C996 C999 1.382 . S
C997 C995 1.384 . S
C997 C998 1.381 . S
C997 H1021 0.930 . S
C998 C997 1.381 . S
C998 C1000 1.381 . S
C998 C1001 1.487 . S
C999 C996 1.382 . S
C999 C1000 1.387 . S
C999 H1022 0.930 . S
C1000 C998 1.381 . S
C1000 C999 1.387 . S
C1000 H1023 0.931 . S
C1001 C994 1.399 . S
C1001 C998 1.487 . S
C1001 N1033 1.343 . S
C1002 C1003 1.384 . S
C1002 C1004 1.384 . S
C1002 H1024 0.931 . S
C1003 C1002 1.384 . S
C1003 C1006 1.382 . S
C1004 C1002 1.384 . S
C1004 C1005 1.381 . S
C1004 H1025 0.930 . S
C1005 C1004 1.381 . S
C1005 C1007 1.381 . S
C1005 C1008 1.487 . S
C1006 C1003 1.382 . S
C1006 C1007 1.387 . S
C1006 H1026 0.930 . S
C1007 C1005 1.381 . S
C1007 C1006 1.387 . S
C1007 H1027 0.931 . S
C1008 C1005 1.487 . S
C1008 C1015 1.399 . S
C1008 N1033 1.343 . S
C1009 C1010 1.384 . S
C1009 C1011 1.384 . S
C1009 H1028 0.931 . S
C1010 C1009 1.384 . S
C1010 C1013 1.382 . S
C1011 C1009 1.384 . S
C1011 C1012 1.381 . S
C1011 H1029 0.930 . S
C1012 C1011 1.381 . S
C1012 C1014 1.381 . S
C1012 C1015 1.487 . S
C1013 C1010 1.382 . S
C1013 C1014 1.387 . S
C1013 H1030 0.930 . S
C1014 C1012 1.381 . S
C1014 C1013 1.387 . S
C1014 H1031 0.931 . S
C1015 C1008 1.399 . S
C1015 C1012 1.487 . S
C1015 N1032 1.343 . S
H1016 C988 0.931 . S
H1017 C990 0.930 . S
H1018 C992 0.930 . S
H1019 C993 0.931 . S
H1020 C995 0.931 . S
H1021 C997 0.930 . S
H1022 C999 0.930 . S
H1023 C1000 0.931 . S
H1024 C1002 0.931 . S
H1025 C1004 0.930 . S
H1026 C1006 0.930 . S
H1027 C1007 0.931 . S
H1028 C1009 0.931 . S
H1029 C1011 0.930 . S
H1030 C1013 0.930 . S
H1031 C1014 0.931 . S
N1032 C994 1.343 . S
N1032 C1015 1.343 . S
N1033 C1001 1.343 . S
N1033 C1008 1.343 . S
C1034 C1035 1.384 . S
C1034 C1036 1.384 . S
C1034 H1062 0.931 . S
C1035 C1034 1.384 . S
C1035 C1038 1.382 . S
C1036 C1034 1.384 . S
C1036 C1037 1.381 . S
C1036 H1063 0.930 . S
C1037 C1036 1.381 . S
C1037 C1039 1.381 . S
C1037 C1040 1.487 . S
C1038 C1035 1.382 . S
C1038 C1039 1.387 . S
C1038 H1064 0.930 . S
C1039 C1037 1.381 . S
C1039 C1038 1.387 . S
C1039 H1065 0.931 . S
C1040 C1037 1.487 . S
C1040 C1047 1.399 . S
C1040 N1078 1.343 . S
C1041 C1042 1.384 . S
C1041 C1043 1.384 . S
C1041 H1066 0.931 . S
C1042 C1041 1.384 . S
C1042 C1045 1.382 . S
C1043 C1041 1.384 . S
C1043 C1044 1.381 . S
C1043 H1067 0.930 . S
C1044 C1043 1.381 . S
C1044 C1046 1.381 . S
C1044 C1047 1.487 . S
C1045 C1042 1.382 . S
C1045 C1046 1.387 . S
C1045 H1068 0.930 . S
C1046 C1044 1.381 . S
C1046 C1045 1.387 . S
C1046 H1069 0.931 . S
C1047 C1040 1.399 . S
C1047 C1044 1.487 . S
C1047 N1079 1.343 . S
C1048 C1049 1.384 . S
C1048 C1050 1.384 . S
C1048 H1070 0.931 . S
C1049 C1048 1.384 . S
C1049 C1052 1.382 . S
C1050 C1048 1.384 . S
C1050 C1051 1.381 . S
C1050 H1071 0.930 . S
C1051 C1050 1.381 . S
C1051 C1053 1.381 . S
C1051 C1054 1.487 . S
C1052 C1049 1.382 . S
C1052 C1053 1.387 . S
C1052 H1072 0.930 . S
C1053 C1051 1.381 . S
C1053 C1052 1.387 . S
C1053 H1073 0.931 . S
C1054 C1051 1.487 . S
C1054 C1061 1.399 . S
C1054 N1079 1.343 . S
C1055 C1056 1.384 . S
C1055 C1057 1.384 . S
C1055 H1074 0.931 . S
C1056 C1055 1.384 . S
C1056 C1059 1.382 . S
C1057 C1055 1.384 . S
C1057 C1058 1.381 . S
C1057 H1075 0.930 . S
C1058 C1057 1.381 . S
C1058 C1060 1.381 . S
C1058 C1061 1.487 . S
C1059 C1056 1.382 . S
C1059 C1060 1.387 . S
C1059 H1076 0.930 . S
C1060 C1058 1.381 . S
C1060 C1059 1.387 . S
C1060 H1077 0.931 . S
C1061 C1054 1.399 . S
C1061 C1058 1.487 . S
C1061 N1078 1.343 . S
H1062 C1034 0.931 . S
H1063 C1036 0.930 . S
H1064 C1038 0.930 . S
H1065 C1039 0.931 . S
H1066 C1041 0.931 . S
H1067 C1043 0.930 . S
H1068 C1045 0.930 . S
H1069 C1046 0.931 . S
H1070 C1048 0.931 . S
H1071 C1050 0.930 . S
H1072 C1052 0.930 . S
H1073 C1053 0.931 . S
H1074 C1055 0.931 . S
H1075 C1057 0.930 . S
H1076 C1059 0.930 . S
H1077 C1060 0.931 . S
N1078 C1040 1.343 . S
N1078 C1061 1.343 . S
N1079 C1047 1.343 . S
N1079 C1054 1.343 . S
H1080 C1098 0.951 . S
H1081 C1100 0.951 . S
H1082 C1102 0.950 . S
H1083 C1103 0.950 . S
H1084 C1105 0.950 . S
H1085 C1108 0.950 . S
H1086 C1109 0.950 . S
H1087 C1111 0.950 . S
H1088 C1112 0.950 . S
H1089 C1113 0.951 . S
H1090 C1115 0.951 . S
H1091 C1117 0.950 . S
H1092 C1118 0.950 . S
H1093 C1120 0.950 . S
H1094 C1123 0.950 . S
H1095 C1124 0.950 . S
H1096 C1126 0.950 . S
H1097 C1127 0.950 . S
C1098 H1080 0.951 . S
C1098 C1099 1.357 1_455 S
C1098 C1100 1.388 . S
C1099 C1098 1.357 1_655 S
C1099 C1103 1.423 . S
C1100 H1081 0.951 . S
C1100 C1098 1.388 . S
C1100 C1101 1.341 1_455 S
C1101 C1100 1.341 1_655 S
C1101 C1102 1.422 . S
C1101 C1104 1.481 . S
C1102 H1082 0.950 . S
C1102 C1101 1.422 . S
C1102 C1103 1.374 . S
C1103 H1083 0.950 . S
C1103 C1099 1.423 . S
C1103 C1102 1.374 . S
C1104 C1101 1.481 . S
C1104 C1105 1.467 . S
C1104 C1106 1.341 1_655 S
C1105 H1084 0.950 . S
C1105 C1104 1.467 . S
C1105 C1121 1.377 . S
C1106 C1104 1.341 1_455 S
C1106 C1107 1.524 . S
C1106 C1120 1.377 . S
C1107 C1106 1.524 . S
C1107 C1108 1.397 . S
C1107 C1112 1.363 . S
C1108 H1085 0.950 . S
C1108 C1107 1.397 . S
C1108 C1109 1.334 . S
C1109 H1086 0.950 . S
C1109 C1108 1.334 . S
C1109 C1110 1.287 . S
C1110 C1109 1.287 . S
C1110 C1111 1.524 . S
C1110 H1129 0.913 . S
C1111 H1087 0.950 . S
C1111 C1110 1.524 . S
C1111 C1112 1.415 . S
C1112 H1088 0.950 . S
C1112 C1107 1.363 . S
C1112 C1111 1.415 . S
C1113 H1089 0.951 . S
C1113 C1114 1.366 . S
C1113 C1115 1.388 . S
C1114 C1113 1.366 . S
C1114 C1118 1.385 1_655 S
C1115 H1090 0.951 . S
C1115 C1113 1.388 . S
C1115 C1116 1.366 . S
C1116 C1115 1.366 . S
C1116 C1117 1.414 1_655 S
C1116 C1119 1.499 . S
C1117 H1091 0.950 . S
C1117 C1116 1.414 1_455 S
C1117 C1118 1.374 . S
C1118 H1092 0.950 . S
C1118 C1114 1.385 1_455 S
C1118 C1117 1.374 . S
C1119 C1116 1.499 . S
C1119 C1120 1.373 1_655 S
C1119 C1121 1.389 . S
C1120 H1093 0.950 . S
C1120 C1106 1.377 . S
C1120 C1119 1.373 1_455 S
C1121 C1105 1.377 . S
C1121 C1119 1.389 . S
C1121 C1122 1.524 . S
C1122 C1121 1.524 . S
C1122 C1123 1.397 . S
C1122 C1127 1.363 . S
C1123 H1094 0.950 . S
C1123 C1122 1.397 . S
C1123 C1124 1.334 . S
C1124 H1095 0.950 . S
C1124 C1123 1.334 . S
C1124 C1125 1.287 . S
C1125 C1124 1.287 . S
C1125 C1126 1.524 . S
C1125 H1128 0.999 . S
C1126 H1096 0.950 . S
C1126 C1125 1.524 . S
C1126 C1127 1.415 . S
C1127 H1097 0.950 . S
C1127 C1122 1.363 . S
C1127 C1126 1.415 . S
H1128 C1125 0.999 . S
H1129 C1110 0.913 . S
H1130 C1148 0.951 . S
H1131 C1150 0.951 . S
H1132 C1152 0.950 . S
H1133 C1153 0.950 . S
H1134 C1155 0.950 . S
H1135 C1158 0.950 . S
H1136 C1159 0.950 . S
H1137 C1161 0.950 . S
H1138 C1162 0.950 . S
H1139 C1163 0.951 . S
H1140 C1165 0.951 . S
H1141 C1167 0.950 . S
H1142 C1168 0.950 . S
H1143 C1170 0.950 . S
H1144 C1173 0.950 . S
H1145 C1174 0.950 . S
H1146 C1176 0.950 . S
H1147 C1177 0.950 . S
C1148 H1130 0.951 . S
C1148 C1149 1.366 . S
C1148 C1150 1.388 . S
C1149 C1148 1.366 . S
C1149 C1153 1.385 . S
C1150 H1131 0.951 . S
C1150 C1148 1.388 . S
C1150 C1151 1.366 . S
C1151 C1150 1.366 . S
C1151 C1152 1.414 . S
C1151 C1154 1.499 . S
C1152 H1132 0.950 . S
C1152 C1151 1.414 . S
C1152 C1153 1.374 . S
C1153 H1133 0.950 . S
C1153 C1149 1.385 . S
C1153 C1152 1.374 . S
C1154 C1151 1.499 . S
C1154 C1155 1.373 . S
C1154 C1156 1.389 . S
C1155 H1134 0.950 . S
C1155 C1154 1.373 . S
C1155 C1171 1.377 . S
C1156 C1154 1.389 . S
C1156 C1157 1.524 . S
C1156 C1170 1.377 . S
C1157 C1156 1.524 . S
C1157 C1158 1.397 . S
C1157 C1162 1.363 . S
C1158 H1135 0.950 . S
C1158 C1157 1.397 . S
C1158 C1159 1.334 . S
C1159 H1136 0.950 . S
C1159 C1158 1.334 . S
C1159 C1160 1.287 . S
C1160 C1159 1.287 . S
C1160 C1161 1.524 . S
C1160 H1179 0.913 . S
C1161 H1137 0.950 . S
C1161 C1160 1.524 . S
C1161 C1162 1.415 . S
C1162 H1138 0.950 . S
C1162 C1157 1.363 . S
C1162 C1161 1.415 . S
C1163 H1139 0.951 . S
C1163 C1164 1.366 . S
C1163 C1165 1.388 . S
C1164 C1163 1.366 . S
C1164 C1168 1.385 . S
C1165 H1140 0.951 . S
C1165 C1163 1.388 . S
C1165 C1166 1.366 . S
C1166 C1165 1.366 . S
C1166 C1167 1.414 . S
C1166 C1169 1.499 . S
C1167 H1141 0.950 . S
C1167 C1166 1.414 . S
C1167 C1168 1.374 . S
C1168 H1142 0.950 . S
C1168 C1164 1.385 . S
C1168 C1167 1.374 . S
C1169 C1166 1.499 . S
C1169 C1170 1.373 . S
C1169 C1171 1.389 . S
C1170 H1143 0.950 . S
C1170 C1156 1.377 . S
C1170 C1169 1.373 . S
C1171 C1155 1.377 . S
C1171 C1169 1.389 . S
C1171 C1172 1.524 . S
C1172 C1171 1.524 . S
C1172 C1173 1.397 . S
C1172 C1177 1.363 . S
C1173 H1144 0.950 . S
C1173 C1172 1.397 . S
C1173 C1174 1.334 . S
C1174 H1145 0.950 . S
C1174 C1173 1.334 . S
C1174 C1175 1.287 . S
C1175 C1174 1.287 . S
C1175 C1176 1.524 . S
C1175 H1178 0.999 . S
C1176 H1146 0.950 . S
C1176 C1175 1.524 . S
C1176 C1177 1.415 . S
C1177 H1147 0.950 . S
C1177 C1172 1.363 . S
C1177 C1176 1.415 . S
H1178 C1175 0.999 . S
H1179 C1160 0.913 . S
H1180 C1198 0.951 . S
H1181 C1200 0.951 . S
H1182 C1202 0.950 . S
H1183 C1203 0.950 . S
H1184 C1205 0.950 . S
H1185 C1208 0.950 . S
H1186 C1209 0.950 . S
H1187 C1211 0.950 . S
H1188 C1212 0.950 . S
H1189 C1213 0.951 . S
H1190 C1215 0.951 . S
H1191 C1217 0.950 . S
H1192 C1218 0.950 . S
H1193 C1220 0.950 . S
H1194 C1223 0.950 . S
H1195 C1224 0.950 . S
H1196 C1226 0.950 . S
H1197 C1227 0.950 . S
C1198 H1180 0.951 . S
C1198 C1199 1.366 . S
C1198 C1200 1.388 . S
C1199 C1198 1.366 . S
C1199 C1203 1.385 1_545 S
C1200 H1181 0.951 . S
C1200 C1198 1.388 . S
C1200 C1201 1.366 . S
C1201 C1200 1.366 . S
C1201 C1202 1.414 1_545 S
C1201 C1204 1.499 . S
C1202 H1182 0.950 . S
C1202 C1201 1.414 1_565 S
C1202 C1203 1.374 . S
C1203 H1183 0.950 . S
C1203 C1199 1.385 1_565 S
C1203 C1202 1.374 . S
C1204 C1201 1.499 . S
C1204 C1205 1.373 1_545 S
C1204 C1206 1.389 . S
C1205 H1184 0.950 . S
C1205 C1204 1.373 1_565 S
C1205 C1221 1.377 . S
C1206 C1204 1.389 . S
C1206 C1207 1.524 . S
C1206 C1220 1.377 . S
C1207 C1206 1.524 . S
C1207 C1208 1.397 . S
C1207 C1212 1.363 . S
C1208 H1185 0.950 . S
C1208 C1207 1.397 . S
C1208 C1209 1.334 . S
C1209 H1186 0.950 . S
C1209 C1208 1.334 . S
C1209 C1210 1.287 . S
C1210 C1209 1.287 . S
C1210 C1211 1.524 . S
C1210 H1229 0.913 . S
C1211 H1187 0.950 . S
C1211 C1210 1.524 . S
C1211 C1212 1.415 . S
C1212 H1188 0.950 . S
C1212 C1207 1.363 . S
C1212 C1211 1.415 . S
C1213 H1189 0.951 . S
C1213 C1214 1.366 1_565 S
C1213 C1215 1.388 . S
C1214 C1213 1.366 1_545 S
C1214 C1218 1.385 . S
C1215 H1190 0.951 . S
C1215 C1213 1.388 . S
C1215 C1216 1.366 1_565 S
C1216 C1215 1.366 1_545 S
C1216 C1217 1.414 . S
C1216 C1219 1.499 . S
C1217 H1191 0.950 . S
C1217 C1216 1.414 . S
C1217 C1218 1.374 . S
C1218 H1192 0.950 . S
C1218 C1214 1.385 . S
C1218 C1217 1.374 . S
C1219 C1216 1.499 . S
C1219 C1220 1.373 . S
C1219 C1221 1.389 1_545 S
C1220 H1193 0.950 . S
C1220 C1206 1.377 . S
C1220 C1219 1.373 . S
C1221 C1205 1.377 . S
C1221 C1219 1.389 1_565 S
C1221 C1222 1.524 . S
C1222 C1221 1.524 . S
C1222 C1223 1.397 . S
C1222 C1227 1.363 . S
C1223 H1194 0.950 . S
C1223 C1222 1.397 . S
C1223 C1224 1.334 . S
C1224 H1195 0.950 . S
C1224 C1223 1.334 . S
C1224 C1225 1.287 . S
C1225 C1224 1.287 . S
C1225 C1226 1.524 . S
C1225 H1228 0.999 . S
C1226 H1196 0.950 . S
C1226 C1225 1.524 . S
C1226 C1227 1.415 . S
C1227 H1197 0.950 . S
C1227 C1222 1.363 . S
C1227 C1226 1.415 . S
H1228 C1225 0.999 . S
H1229 C1210 0.913 . S
H1230 C1248 0.951 . S
H1231 C1250 0.951 . S
H1232 C1252 0.950 . S
H1233 C1253 0.950 . S
H1234 C1255 0.950 . S
H1235 C1258 0.950 . S
H1236 C1259 0.950 . S
H1237 C1261 0.950 . S
H1238 C1262 0.950 . S
H1239 C1263 0.951 . S
H1240 C1265 0.951 . S
H1241 C1267 0.950 . S
H1242 C1268 0.950 . S
H1243 C1270 0.950 . S
H1244 C1273 0.950 . S
H1245 C1274 0.950 . S
H1246 C1276 0.950 . S
H1247 C1277 0.950 . S
C1248 H1230 0.951 . S
C1248 C1249 1.368 1_565 S
C1248 C1250 1.388 . S
C1249 C1248 1.368 1_545 S
C1249 C1253 1.383 . S
C1250 H1231 0.951 . S
C1250 C1248 1.388 . S
C1250 C1251 1.356 1_565 S
C1251 C1250 1.356 1_545 S
C1251 C1252 1.434 . S
C1251 C1254 1.497 . S
C1252 H1232 0.950 . S
C1252 C1251 1.434 . S
C1252 C1253 1.374 . S
C1253 H1233 0.950 . S
C1253 C1249 1.383 . S
C1253 C1252 1.374 . S
C1254 C1251 1.497 . S
C1254 C1255 1.365 1_545 S
C1254 C1256 1.387 . S
C1255 H1234 0.950 . S
C1255 C1254 1.365 1_565 S
C1255 C1271 1.377 . S
C1256 C1254 1.387 . S
C1256 C1257 1.524 . S
C1256 C1270 1.377 . S
C1257 C1256 1.524 . S
C1257 C1258 1.397 . S
C1257 C1262 1.363 . S
C1258 H1235 0.950 . S
C1258 C1257 1.397 . S
C1258 C1259 1.334 . S
C1259 H1236 0.950 . S
C1259 C1258 1.334 . S
C1259 C1260 1.287 . S
C1260 C1259 1.287 . S
C1260 C1261 1.524 . S
C1260 H1279 0.913 . S
C1261 H1237 0.950 . S
C1261 C1260 1.524 . S
C1261 C1262 1.415 . S
C1262 H1238 0.950 . S
C1262 C1257 1.363 . S
C1262 C1261 1.415 . S
C1263 H1239 0.951 . S
C1263 C1264 1.366 1_545 S
C1263 C1265 1.388 . S
C1264 C1263 1.366 1_565 S
C1264 C1268 1.385 . S
C1265 H1240 0.951 . S
C1265 C1263 1.388 . S
C1265 C1266 1.366 1_545 S
C1266 C1265 1.366 1_565 S
C1266 C1267 1.414 . S
C1266 C1269 1.499 . S
C1267 H1241 0.950 . S
C1267 C1266 1.414 . S
C1267 C1268 1.374 . S
C1268 H1242 0.950 . S
C1268 C1264 1.385 . S
C1268 C1267 1.374 . S
C1269 C1266 1.499 . S
C1269 C1270 1.373 1_565 S
C1269 C1271 1.389 . S
C1270 H1243 0.950 . S
C1270 C1256 1.377 . S
C1270 C1269 1.373 1_545 S
C1271 C1255 1.377 . S
C1271 C1269 1.389 . S
C1271 C1272 1.524 . S
C1272 C1271 1.524 . S
C1272 C1273 1.397 . S
C1272 C1277 1.363 . S
C1273 H1244 0.950 . S
C1273 C1272 1.397 . S
C1273 C1274 1.334 . S
C1274 H1245 0.950 . S
C1274 C1273 1.334 . S
C1274 C1275 1.287 . S
C1275 C1274 1.287 . S
C1275 C1276 1.524 . S
C1275 H1278 0.999 . S
C1276 H1246 0.950 . S
C1276 C1275 1.524 . S
C1276 C1277 1.415 . S
C1277 H1247 0.950 . S
C1277 C1272 1.363 . S
C1277 C1276 1.415 . S
H1278 C1275 0.999 . S
H1279 C1260 0.913 . S
H1280 C1298 0.951 . S
H1281 C1300 0.951 . S
H1282 C1302 0.950 . S
H1283 C1303 0.950 . S
H1284 C1305 0.950 . S
H1285 C1308 0.950 . S
H1286 C1309 0.950 . S
H1287 C1311 0.950 . S
H1288 C1312 0.950 . S
H1289 C1313 0.951 . S
H1290 C1315 0.951 . S
H1291 C1317 0.950 . S
H1292 C1318 0.950 . S
H1293 C1320 0.950 . S
H1294 C1323 0.950 . S
H1295 C1324 0.950 . S
H1296 C1326 0.950 . S
H1297 C1327 0.950 . S
C1298 H1280 0.951 . S
C1298 C1299 1.366 . S
C1298 C1300 1.388 . S
C1299 C1298 1.366 . S
C1299 C1303 1.385 1_455 S
C1300 H1281 0.951 . S
C1300 C1298 1.388 . S
C1300 C1301 1.366 . S
C1301 C1300 1.366 . S
C1301 C1302 1.414 1_455 S
C1301 C1304 1.499 . S
C1302 H1282 0.950 . S
C1302 C1301 1.414 1_655 S
C1302 C1303 1.374 . S
C1303 H1283 0.950 . S
C1303 C1299 1.385 1_655 S
C1303 C1302 1.374 . S
C1304 C1301 1.499 . S
C1304 C1305 1.373 1_455 S
C1304 C1306 1.389 . S
C1305 H1284 0.950 . S
C1305 C1304 1.373 1_655 S
C1305 C1321 1.377 . S
C1306 C1304 1.389 . S
C1306 C1307 1.524 . S
C1306 C1320 1.377 . S
C1307 C1306 1.524 . S
C1307 C1308 1.397 . S
C1307 C1312 1.363 . S
C1308 H1285 0.950 . S
C1308 C1307 1.397 . S
C1308 C1309 1.334 . S
C1309 H1286 0.950 . S
C1309 C1308 1.334 . S
C1309 C1310 1.287 . S
C1310 C1309 1.287 . S
C1310 C1311 1.524 . S
C1310 H1329 0.913 . S
C1311 H1287 0.950 . S
C1311 C1310 1.524 . S
C1311 C1312 1.415 . S
C1312 H1288 0.950 . S
C1312 C1307 1.363 . S
C1312 C1311 1.415 . S
C1313 H1289 0.951 . S
C1313 C1314 1.366 1_655 S
C1313 C1315 1.388 . S
C1314 C1313 1.366 1_455 S
C1314 C1318 1.385 . S
C1315 H1290 0.951 . S
C1315 C1313 1.388 . S
C1315 C1316 1.366 1_655 S
C1316 C1315 1.366 1_455 S
C1316 C1317 1.414 . S
C1316 C1319 1.499 . S
C1317 H1291 0.950 . S
C1317 C1316 1.414 . S
C1317 C1318 1.374 . S
C1318 H1292 0.950 . S
C1318 C1314 1.385 . S
C1318 C1317 1.374 . S
C1319 C1316 1.499 . S
C1319 C1320 1.373 . S
C1319 C1321 1.389 1_455 S
C1320 H1293 0.950 . S
C1320 C1306 1.377 . S
C1320 C1319 1.373 . S
C1321 C1305 1.377 . S
C1321 C1319 1.389 1_655 S
C1321 C1322 1.524 . S
C1322 C1321 1.524 . S
C1322 C1323 1.397 . S
C1322 C1327 1.363 . S
C1323 H1294 0.950 . S
C1323 C1322 1.397 . S
C1323 C1324 1.334 . S
C1324 H1295 0.950 . S
C1324 C1323 1.334 . S
C1324 C1325 1.287 . S
C1325 C1324 1.287 . S
C1325 C1326 1.524 . S
C1325 H1328 0.999 . S
C1326 H1296 0.950 . S
C1326 C1325 1.524 . S
C1326 C1327 1.415 . S
C1327 H1297 0.950 . S
C1327 C1322 1.363 . S
C1327 C1326 1.415 . S
H1328 C1325 0.999 . S
H1329 C1310 0.913 . S
H1330 C1348 0.951 . S
H1331 C1350 0.951 . S
H1332 C1352 0.950 . S
H1333 C1353 0.950 . S
H1334 C1355 0.950 . S
H1335 C1358 0.950 . S
H1336 C1359 0.950 . S
H1337 C1361 0.950 . S
H1338 C1362 0.950 . S
H1339 C1363 0.951 . S
H1340 C1365 0.951 . S
H1341 C1367 0.950 . S
H1342 C1368 0.950 . S
H1343 C1370 0.950 . S
H1344 C1373 0.950 . S
H1345 C1374 0.950 . S
H1346 C1376 0.950 . S
H1347 C1377 0.950 . S
C1348 H1330 0.951 . S
C1348 C1349 1.366 . S
C1348 C1350 1.388 . S
C1349 C1348 1.366 . S
C1349 C1353 1.385 . S
C1350 H1331 0.951 . S
C1350 C1348 1.388 . S
C1350 C1351 1.366 . S
C1351 C1350 1.366 . S
C1351 C1352 1.414 . S
C1351 C1354 1.499 . S
C1352 H1332 0.950 . S
C1352 C1351 1.414 . S
C1352 C1353 1.374 . S
C1353 H1333 0.950 . S
C1353 C1349 1.385 . S
C1353 C1352 1.374 . S
C1354 C1351 1.499 . S
C1354 C1355 1.373 . S
C1354 C1356 1.389 . S
C1355 H1334 0.950 . S
C1355 C1354 1.373 . S
C1355 C1371 1.377 . S
C1356 C1354 1.389 . S
C1356 C1357 1.524 . S
C1356 C1370 1.377 . S
C1357 C1356 1.524 . S
C1357 C1358 1.397 . S
C1357 C1362 1.363 . S
C1358 H1335 0.950 . S
C1358 C1357 1.397 . S
C1358 C1359 1.334 . S
C1359 H1336 0.950 . S
C1359 C1358 1.334 . S
C1359 C1360 1.287 . S
C1360 C1359 1.287 . S
C1360 C1361 1.524 . S
C1360 H1379 0.913 . S
C1361 H1337 0.950 . S
C1361 C1360 1.524 . S
C1361 C1362 1.415 . S
C1362 H1338 0.950 . S
C1362 C1357 1.363 . S
C1362 C1361 1.415 . S
C1363 H1339 0.951 . S
C1363 C1364 1.366 . S
C1363 C1365 1.388 . S
C1364 C1363 1.366 . S
C1364 C1368 1.385 . S
C1365 H1340 0.951 . S
C1365 C1363 1.388 . S
C1365 C1366 1.366 . S
C1366 C1365 1.366 . S
C1366 C1367 1.414 . S
C1366 C1369 1.499 . S
C1367 H1341 0.950 . S
C1367 C1366 1.414 . S
C1367 C1368 1.374 . S
C1368 H1342 0.950 . S
C1368 C1364 1.385 . S
C1368 C1367 1.374 . S
C1369 C1366 1.499 . S
C1369 C1370 1.373 . S
C1369 C1371 1.389 . S
C1370 H1343 0.950 . S
C1370 C1356 1.377 . S
C1370 C1369 1.373 . S
C1371 C1355 1.377 . S
C1371 C1369 1.389 . S
C1371 C1372 1.524 . S
C1372 C1371 1.524 . S
C1372 C1373 1.397 . S
C1372 C1377 1.363 . S
C1373 H1344 0.950 . S
C1373 C1372 1.397 . S
C1373 C1374 1.334 . S
C1374 H1345 0.950 . S
C1374 C1373 1.334 . S
C1374 C1375 1.287 . S
C1375 C1374 1.287 . S
C1375 C1376 1.524 . S
C1375 H1378 0.999 . S
C1376 H1346 0.950 . S
C1376 C1375 1.524 . S
C1376 C1377 1.415 . S
C1377 H1347 0.950 . S
C1377 C1372 1.363 . S
C1377 C1376 1.415 . S
H1378 C1375 0.999 . S
H1379 C1360 0.913 . S
H1380 C1398 0.951 . S
H1381 C1400 0.951 . S
H1382 C1402 0.950 . S
H1383 C1403 0.950 . S
H1384 C1405 0.950 . S
H1385 C1408 0.950 . S
H1386 C1409 0.950 . S
H1387 C1411 0.950 . S
H1388 C1412 0.950 . S
H1389 C1413 0.951 . S
H1390 C1415 0.951 . S
H1391 C1417 0.950 . S
H1392 C1418 0.950 . S
H1393 C1420 0.949 1_655 S
H1394 C1423 0.950 . S
H1395 C1424 0.950 . S
H1396 C1426 0.950 . S
H1397 C1427 0.950 . S
C1398 H1380 0.951 . S
C1398 C1399 1.366 1_655 S
C1398 C1400 1.388 . S
C1399 C1398 1.366 1_455 S
C1399 C1403 1.385 . S
C1400 H1381 0.951 . S
C1400 C1398 1.388 . S
C1400 C1401 1.366 1_655 S
C1401 C1400 1.366 1_455 S
C1401 C1402 1.414 . S
C1401 C1404 1.499 . S
C1402 H1382 0.950 . S
C1402 C1401 1.414 . S
C1402 C1403 1.374 . S
C1403 H1383 0.950 . S
C1403 C1399 1.385 . S
C1403 C1402 1.374 . S
C1404 C1401 1.499 . S
C1404 C1405 1.373 . S
C1404 C1406 1.389 . S
C1405 H1384 0.950 . S
C1405 C1404 1.373 . S
C1405 C1421 1.377 . S
C1406 C1404 1.389 . S
C1406 C1407 1.528 1_455 S
C1406 C1420 1.378 . S
C1407 C1406 1.528 1_655 S
C1407 C1408 1.365 1_655 S
C1407 C1412 1.388 . S
C1408 H1385 0.950 . S
C1408 C1407 1.365 1_455 S
C1408 C1409 1.334 . S
C1409 H1386 0.950 . S
C1409 C1408 1.334 . S
C1409 C1410 1.267 1_455 S
C1410 C1409 1.267 1_655 S
C1410 C1411 1.554 . S
C1410 H1429 0.910 1_556 S
C1411 H1387 0.950 . S
C1411 C1410 1.554 . S
C1411 C1412 1.415 . S
C1412 H1388 0.950 . S
C1412 C1407 1.388 . S
C1412 C1411 1.415 . S
C1413 H1389 0.951 . S
C1413 C1414 1.366 . S
C1413 C1415 1.388 . S
C1414 C1413 1.366 . S
C1414 C1418 1.385 1_455 S
C1415 H1390 0.951 . S
C1415 C1413 1.388 . S
C1415 C1416 1.366 . S
C1416 C1415 1.366 . S
C1416 C1417 1.414 1_455 S
C1416 C1419 1.499 . S
C1417 H1391 0.950 . S
C1417 C1416 1.414 1_655 S
C1417 C1418 1.374 . S
C1418 H1392 0.950 . S
C1418 C1414 1.385 1_655 S
C1418 C1417 1.374 . S
C1419 C1416 1.499 . S
C1419 C1420 1.373 . S
C1419 C1421 1.389 . S
C1420 H1393 0.949 1_455 S
C1420 C1406 1.378 . S
C1420 C1419 1.373 . S
C1421 C1405 1.377 . S
C1421 C1419 1.389 . S
C1421 C1422 1.524 . S
C1422 C1421 1.524 . S
C1422 C1423 1.397 1_455 S
C1422 C1427 1.363 . S
C1423 H1394 0.950 . S
C1423 C1422 1.397 1_655 S
C1423 C1424 1.334 . S
C1424 H1395 0.950 . S
C1424 C1423 1.334 . S
C1424 C1425 1.287 1_655 S
C1425 C1424 1.287 1_455 S
C1425 C1426 1.524 . S
C1425 H1428 0.999 . S
C1426 H1396 0.950 . S
C1426 C1425 1.524 . S
C1426 C1427 1.415 . S
C1427 H1397 0.950 . S
C1427 C1422 1.363 . S
C1427 C1426 1.415 . S
H1428 C1425 0.999 . S
H1429 C1410 0.910 1_554 S
H1430 C1448 0.951 . S
H1431 C1450 0.951 . S
H1432 C1452 0.950 . S
H1433 C1453 0.950 . S
H1434 C1455 0.950 . S
H1435 C1458 0.950 . S
H1436 C1459 0.950 . S
H1437 C1461 0.950 . S
H1438 C1462 0.950 . S
H1439 C1463 0.951 . S
H1440 C1465 0.951 . S
H1441 C1467 0.950 . S
H1442 C1468 0.950 . S
H1443 C1470 0.950 . S
H1444 C1473 0.950 . S
H1445 C1474 0.950 . S
H1446 C1476 0.950 . S
H1447 C1477 0.950 . S
C1448 H1430 0.951 . S
C1448 C1449 1.366 . S
C1448 C1450 1.388 . S
C1449 C1448 1.366 . S
C1449 C1453 1.385 . S
C1450 H1431 0.951 . S
C1450 C1448 1.388 . S
C1450 C1451 1.366 . S
C1451 C1450 1.366 . S
C1451 C1452 1.414 . S
C1451 C1454 1.499 . S
C1452 H1432 0.950 . S
C1452 C1451 1.414 . S
C1452 C1453 1.374 . S
C1453 H1433 0.950 . S
C1453 C1449 1.385 . S
C1453 C1452 1.374 . S
C1454 C1451 1.499 . S
C1454 C1455 1.373 . S
C1454 C1456 1.389 . S
C1455 H1434 0.950 . S
C1455 C1454 1.373 . S
C1455 C1471 1.377 . S
C1456 C1454 1.389 . S
C1456 C1457 1.524 . S
C1456 C1470 1.377 . S
C1457 C1456 1.524 . S
C1457 C1458 1.397 . S
C1457 C1462 1.363 . S
C1458 H1435 0.950 . S
C1458 C1457 1.397 . S
C1458 C1459 1.334 . S
C1459 H1436 0.950 . S
C1459 C1458 1.334 . S
C1459 C1460 1.287 . S
C1460 C1459 1.287 . S
C1460 C1461 1.524 . S
C1460 H1479 0.913 . S
C1461 H1437 0.950 . S
C1461 C1460 1.524 . S
C1461 C1462 1.415 . S
C1462 H1438 0.950 . S
C1462 C1457 1.363 . S
C1462 C1461 1.415 . S
C1463 H1439 0.951 . S
C1463 C1464 1.366 . S
C1463 C1465 1.388 . S
C1464 C1463 1.366 . S
C1464 C1468 1.385 . S
C1465 H1440 0.951 . S
C1465 C1463 1.388 . S
C1465 C1466 1.366 . S
C1466 C1465 1.366 . S
C1466 C1467 1.414 . S
C1466 C1469 1.499 . S
C1467 H1441 0.950 . S
C1467 C1466 1.414 . S
C1467 C1468 1.374 . S
C1468 H1442 0.950 . S
C1468 C1464 1.385 . S
C1468 C1467 1.374 . S
C1469 C1466 1.499 . S
C1469 C1470 1.373 . S
C1469 C1471 1.389 . S
C1470 H1443 0.950 . S
C1470 C1456 1.377 . S
C1470 C1469 1.373 . S
C1471 C1455 1.377 . S
C1471 C1469 1.389 . S
C1471 C1472 1.524 . S
C1472 C1471 1.524 . S
C1472 C1473 1.397 . S
C1472 C1477 1.363 . S
C1473 H1444 0.950 . S
C1473 C1472 1.397 . S
C1473 C1474 1.334 . S
C1474 H1445 0.950 . S
C1474 C1473 1.334 . S
C1474 C1475 1.287 . S
C1475 C1474 1.287 . S
C1475 C1476 1.524 . S
C1475 H1478 0.999 . S
C1476 H1446 0.950 . S
C1476 C1475 1.524 . S
C1476 C1477 1.415 . S
C1477 H1447 0.950 . S
C1477 C1472 1.363 . S
C1477 C1476 1.415 . S
H1478 C1475 0.999 . S
H1479 C1460 0.913 . S
H1480 C1498 0.951 . S
H1481 C1500 0.951 . S
H1482 C1502 0.950 . S
H1483 C1503 0.950 . S
H1484 C1505 0.950 . S
H1485 C1508 0.950 . S
H1486 C1509 0.950 . S
H1487 C1511 0.950 . S
H1488 C1512 0.950 . S
H1489 C1513 0.951 . S
H1490 C1515 0.951 . S
H1491 C1517 0.950 . S
H1492 C1518 0.950 . S
H1493 C1520 0.950 . S
H1494 C1523 0.865 1_545 S
H1495 C1524 0.950 1_545 S
H1496 C1526 0.950 . S
H1497 C1527 0.950 . S
C1498 H1480 0.951 . S
C1498 C1499 1.366 1_545 S
C1498 C1500 1.388 . S
C1499 C1498 1.366 1_565 S
C1499 C1503 1.385 . S
C1500 H1481 0.951 . S
C1500 C1498 1.388 . S
C1500 C1501 1.366 1_545 S
C1501 C1500 1.366 1_565 S
C1501 C1502 1.414 . S
C1501 C1504 1.499 . S
C1502 H1482 0.950 . S
C1502 C1501 1.414 . S
C1502 C1503 1.374 . S
C1503 H1483 0.950 . S
C1503 C1499 1.385 . S
C1503 C1502 1.374 . S
C1504 C1501 1.499 . S
C1504 C1505 1.373 . S
C1504 C1506 1.389 1_565 S
C1505 H1484 0.950 . S
C1505 C1504 1.373 . S
C1505 C1521 1.377 . S
C1506 C1504 1.389 1_545 S
C1506 C1507 1.524 . S
C1506 C1520 1.377 . S
C1507 C1506 1.524 . S
C1507 C1508 1.397 1_545 S
C1507 C1512 1.363 . S
C1508 H1485 0.950 . S
C1508 C1507 1.397 1_565 S
C1508 C1509 1.334 . S
C1509 H1486 0.950 . S
C1509 C1508 1.334 . S
C1509 C1510 1.287 1_565 S
C1510 C1509 1.287 1_545 S
C1510 C1511 1.524 . S
C1510 H1529 0.913 1_556 S
C1511 H1487 0.950 . S
C1511 C1510 1.524 . S
C1511 C1512 1.415 . S
C1512 H1488 0.950 . S
C1512 C1507 1.363 . S
C1512 C1511 1.415 . S
C1513 H1489 0.951 . S
C1513 C1514 1.366 . S
C1513 C1515 1.388 . S
C1514 C1513 1.366 . S
C1514 C1518 1.385 1_565 S
C1515 H1490 0.951 . S
C1515 C1513 1.388 . S
C1515 C1516 1.366 . S
C1516 C1515 1.366 . S
C1516 C1517 1.414 1_565 S
C1516 C1519 1.499 . S
C1517 H1491 0.950 . S
C1517 C1516 1.414 1_545 S
C1517 C1518 1.374 . S
C1518 H1492 0.950 . S
C1518 C1514 1.385 1_545 S
C1518 C1517 1.374 . S
C1519 C1516 1.499 . S
C1519 C1520 1.373 1_565 S
C1519 C1521 1.389 . S
C1520 H1493 0.950 . S
C1520 C1506 1.377 . S
C1520 C1519 1.373 1_545 S
C1521 C1505 1.377 . S
C1521 C1519 1.389 . S
C1521 C1522 1.524 . S
C1522 C1521 1.524 . S
C1522 C1523 1.458 . S
C1522 C1527 1.363 . S
C1523 H1494 0.865 1_565 S
C1523 C1522 1.458 . S
C1523 C1524 1.361 . S
C1524 H1495 0.950 1_565 S
C1524 C1523 1.361 . S
C1524 C1525 1.287 . S
C1525 C1524 1.287 . S
C1525 C1526 1.524 . S
C1525 H1528 0.999 . S
C1526 H1496 0.950 . S
C1526 C1525 1.524 . S
C1526 C1527 1.415 . S
C1527 H1497 0.950 . S
C1527 C1522 1.363 . S
C1527 C1526 1.415 . S
H1528 C1525 0.999 . S
H1529 C1510 0.913 1_554 S
H1530 C1548 0.951 . S
H1531 C1550 0.951 . S
H1532 C1552 0.950 . S
H1533 C1553 0.950 . S
H1534 C1555 0.950 . S
H1535 C1558 0.950 . S
H1536 C1559 0.950 . S
H1537 C1561 0.950 . S
H1538 C1562 0.950 . S
H1539 C1563 0.951 . S
H1540 C1565 0.951 . S
H1541 C1567 0.950 . S
H1542 C1568 0.950 . S
H1543 C1570 0.950 . S
H1544 C1573 0.950 . S
H1545 C1574 0.950 . S
H1546 C1576 0.950 . S
H1547 C1577 0.950 . S
C1548 H1530 0.951 . S
C1548 C1549 1.366 . S
C1548 C1550 1.388 . S
C1549 C1548 1.366 . S
C1549 C1553 1.385 1_545 S
C1550 H1531 0.951 . S
C1550 C1548 1.388 . S
C1550 C1551 1.366 . S
C1551 C1550 1.366 . S
C1551 C1552 1.414 1_545 S
C1551 C1554 1.499 . S
C1552 H1532 0.950 . S
C1552 C1551 1.414 1_565 S
C1552 C1553 1.374 . S
C1553 H1533 0.950 . S
C1553 C1549 1.385 1_565 S
C1553 C1552 1.374 . S
C1554 C1551 1.499 . S
C1554 C1555 1.373 1_545 S
C1554 C1556 1.389 . S
C1555 H1534 0.950 . S
C1555 C1554 1.373 1_565 S
C1555 C1571 1.377 . S
C1556 C1554 1.389 . S
C1556 C1557 1.524 . S
C1556 C1570 1.377 . S
C1557 C1556 1.524 . S
C1557 C1558 1.397 . S
C1557 C1562 1.363 . S
C1558 H1535 0.950 . S
C1558 C1557 1.397 . S
C1558 C1559 1.334 . S
C1559 H1536 0.950 . S
C1559 C1558 1.334 . S
C1559 C1560 1.287 . S
C1560 C1559 1.287 . S
C1560 C1561 1.524 . S
C1560 H1579 0.913 . S
C1561 H1537 0.950 . S
C1561 C1560 1.524 . S
C1561 C1562 1.415 . S
C1562 H1538 0.950 . S
C1562 C1557 1.363 . S
C1562 C1561 1.415 . S
C1563 H1539 0.951 . S
C1563 C1564 1.366 1_565 S
C1563 C1565 1.388 . S
C1564 C1563 1.366 1_545 S
C1564 C1568 1.385 . S
C1565 H1540 0.951 . S
C1565 C1563 1.388 . S
C1565 C1566 1.366 1_565 S
C1566 C1565 1.366 1_545 S
C1566 C1567 1.414 . S
C1566 C1569 1.499 . S
C1567 H1541 0.950 . S
C1567 C1566 1.414 . S
C1567 C1568 1.374 . S
C1568 H1542 0.950 . S
C1568 C1564 1.385 . S
C1568 C1567 1.374 . S
C1569 C1566 1.499 . S
C1569 C1570 1.373 . S
C1569 C1571 1.389 1_545 S
C1570 H1543 0.950 . S
C1570 C1556 1.377 . S
C1570 C1569 1.373 . S
C1571 C1555 1.377 . S
C1571 C1569 1.389 1_565 S
C1571 C1572 1.524 . S
C1572 C1571 1.524 . S
C1572 C1573 1.397 . S
C1572 C1577 1.363 . S
C1573 H1544 0.950 . S
C1573 C1572 1.397 . S
C1573 C1574 1.334 . S
C1574 H1545 0.950 . S
C1574 C1573 1.334 . S
C1574 C1575 1.287 . S
C1575 C1574 1.287 . S
C1575 C1576 1.524 . S
C1575 H1578 0.999 . S
C1576 H1546 0.950 . S
C1576 C1575 1.524 . S
C1576 C1577 1.415 . S
C1577 H1547 0.950 . S
C1577 C1572 1.363 . S
C1577 C1576 1.415 . S
H1578 C1575 0.999 . S
H1579 C1560 0.913 . S
H1580 C1598 0.951 . S
H1581 C1600 0.951 . S
H1582 C1602 0.950 . S
H1583 C1603 0.950 . S
H1584 C1605 0.950 . S
H1585 C1608 0.950 . S
H1586 C1609 0.950 . S
H1587 C1611 0.950 . S
H1588 C1612 0.950 . S
H1589 C1613 0.951 . S
H1590 C1615 0.951 . S
H1591 C1617 0.950 . S
H1592 C1618 0.950 . S
H1593 C1620 0.950 . S
H1594 C1623 0.950 . S
H1595 C1624 0.950 . S
H1596 C1626 0.950 . S
H1597 C1627 0.950 . S
C1598 H1580 0.951 . S
C1598 C1599 1.366 1_455 S
C1598 C1600 1.388 . S
C1599 C1598 1.366 1_655 S
C1599 C1603 1.385 . S
C1600 H1581 0.951 . S
C1600 C1598 1.388 . S
C1600 C1601 1.366 1_455 S
C1601 C1600 1.366 1_655 S
C1601 C1602 1.414 . S
C1601 C1604 1.499 . S
C1602 H1582 0.950 . S
C1602 C1601 1.414 . S
C1602 C1603 1.374 . S
C1603 H1583 0.950 . S
C1603 C1599 1.385 . S
C1603 C1602 1.374 . S
C1604 C1601 1.499 . S
C1604 C1605 1.373 . S
C1604 C1606 1.389 1_655 S
C1605 H1584 0.950 . S
C1605 C1604 1.373 . S
C1605 C1621 1.377 . S
C1606 C1604 1.389 1_455 S
C1606 C1607 1.524 . S
C1606 C1620 1.377 . S
C1607 C1606 1.524 . S
C1607 C1608 1.397 . S
C1607 C1612 1.363 . S
C1608 H1585 0.950 . S
C1608 C1607 1.397 . S
C1608 C1609 1.334 . S
C1609 H1586 0.950 . S
C1609 C1608 1.334 . S
C1609 C1610 1.287 . S
C1610 C1609 1.287 . S
C1610 C1611 1.524 . S
C1610 H1629 0.913 . S
C1611 H1587 0.950 . S
C1611 C1610 1.524 . S
C1611 C1612 1.415 . S
C1612 H1588 0.950 . S
C1612 C1607 1.363 . S
C1612 C1611 1.415 . S
C1613 H1589 0.951 . S
C1613 C1614 1.366 . S
C1613 C1615 1.388 . S
C1614 C1613 1.366 . S
C1614 C1618 1.385 1_655 S
C1615 H1590 0.951 . S
C1615 C1613 1.388 . S
C1615 C1616 1.366 . S
C1616 C1615 1.366 . S
C1616 C1617 1.414 1_655 S
C1616 C1619 1.499 . S
C1617 H1591 0.950 . S
C1617 C1616 1.414 1_455 S
C1617 C1618 1.374 . S
C1618 H1592 0.950 . S
C1618 C1614 1.385 1_455 S
C1618 C1617 1.374 . S
C1619 C1616 1.499 . S
C1619 C1620 1.373 1_655 S
C1619 C1621 1.389 . S
C1620 H1593 0.950 . S
C1620 C1606 1.377 . S
C1620 C1619 1.373 1_455 S
C1621 C1605 1.377 . S
C1621 C1619 1.389 . S
C1621 C1622 1.524 . S
C1622 C1621 1.524 . S
C1622 C1623 1.397 . S
C1622 C1627 1.363 . S
C1623 H1594 0.950 . S
C1623 C1622 1.397 . S
C1623 C1624 1.334 . S
C1624 H1595 0.950 . S
C1624 C1623 1.334 . S
C1624 C1625 1.287 . S
C1625 C1624 1.287 . S
C1625 C1626 1.524 . S
C1625 H1628 0.999 . S
C1626 H1596 0.950 . S
C1626 C1625 1.524 . S
C1626 C1627 1.415 . S
C1627 H1597 0.950 . S
C1627 C1622 1.363 . S
C1627 C1626 1.415 . S
H1628 C1625 0.999 . S
H1629 C1610 0.913 . S
H1630 C1648 0.951 . S
H1631 C1650 0.951 . S
H1632 C1652 0.950 . S
H1633 C1653 0.950 . S
H1634 C1655 0.950 . S
H1635 C1658 0.950 . S
H1636 C1659 0.950 . S
H1637 C1661 0.950 . S
H1638 C1662 0.950 . S
H1639 C1663 0.951 . S
H1640 C1665 0.951 . S
H1641 C1667 0.950 . S
H1642 C1668 0.950 . S
H1643 C1670 0.950 . S
H1644 C1673 0.950 . S
H1645 C1674 0.950 . S
H1646 C1676 0.950 . S
H1647 C1677 0.950 . S
C1648 H1630 0.951 . S
C1648 C1649 1.366 . S
C1648 C1650 1.388 . S
C1649 C1648 1.366 . S
C1649 C1653 1.385 . S
C1650 H1631 0.951 . S
C1650 C1648 1.388 . S
C1650 C1651 1.366 . S
C1651 C1650 1.366 . S
C1651 C1652 1.414 . S
C1651 C1654 1.499 . S
C1652 H1632 0.950 . S
C1652 C1651 1.414 . S
C1652 C1653 1.374 . S
C1653 H1633 0.950 . S
C1653 C1649 1.385 . S
C1653 C1652 1.374 . S
C1654 C1651 1.499 . S
C1654 C1655 1.373 . S
C1654 C1656 1.389 . S
C1655 H1634 0.950 . S
C1655 C1654 1.373 . S
C1655 C1671 1.377 . S
C1656 C1654 1.389 . S
C1656 C1657 1.524 . S
C1656 C1670 1.377 . S
C1657 C1656 1.524 . S
C1657 C1658 1.397 . S
C1657 C1662 1.363 . S
C1658 H1635 0.950 . S
C1658 C1657 1.397 . S
C1658 C1659 1.334 . S
C1659 H1636 0.950 . S
C1659 C1658 1.334 . S
C1659 C1660 1.287 . S
C1660 C1659 1.287 . S
C1660 C1661 1.524 . S
C1660 H1679 0.913 . S
C1661 H1637 0.950 . S
C1661 C1660 1.524 . S
C1661 C1662 1.415 . S
C1662 H1638 0.950 . S
C1662 C1657 1.363 . S
C1662 C1661 1.415 . S
C1663 H1639 0.951 . S
C1663 C1664 1.366 . S
C1663 C1665 1.388 . S
C1664 C1663 1.366 . S
C1664 C1668 1.385 . S
C1665 H1640 0.951 . S
C1665 C1663 1.388 . S
C1665 C1666 1.366 . S
C1666 C1665 1.366 . S
C1666 C1667 1.414 . S
C1666 C1669 1.499 . S
C1667 H1641 0.950 . S
C1667 C1666 1.414 . S
C1667 C1668 1.374 . S
C1668 H1642 0.950 . S
C1668 C1664 1.385 . S
C1668 C1667 1.374 . S
C1669 C1666 1.499 . S
C1669 C1670 1.373 . S
C1669 C1671 1.389 . S
C1670 H1643 0.950 . S
C1670 C1656 1.377 . S
C1670 C1669 1.373 . S
C1671 C1655 1.377 . S
C1671 C1669 1.389 . S
C1671 C1672 1.524 . S
C1672 C1671 1.524 . S
C1672 C1673 1.397 . S
C1672 C1677 1.363 . S
C1673 H1644 0.950 . S
C1673 C1672 1.397 . S
C1673 C1674 1.334 . S
C1674 H1645 0.950 . S
C1674 C1673 1.334 . S
C1674 C1675 1.287 . S
C1675 C1674 1.287 . S
C1675 C1676 1.524 . S
C1675 H1678 0.999 . S
C1676 H1646 0.950 . S
C1676 C1675 1.524 . S
C1676 C1677 1.415 . S
C1677 H1647 0.950 . S
C1677 C1672 1.363 . S
C1677 C1676 1.415 . S
H1678 C1675 0.999 . S
H1679 C1660 0.913 . S
H1680 C1698 0.951 . S
H1681 C1700 0.951 . S
H1682 C1702 0.950 . S
H1683 C1703 0.950 . S
H1684 C1705 0.950 . S
H1685 C1708 0.950 . S
H1686 C1709 0.950 . S
H1687 C1711 0.950 . S
H1688 C1712 0.950 . S
H1689 C1713 0.951 . S
H1690 C1715 0.951 . S
H1691 C1717 0.950 . S
H1692 C1718 0.950 . S
H1693 C1720 0.950 . S
H1694 C1723 0.950 . S
H1695 C1724 0.950 . S
H1696 C1726 0.950 . S
H1697 C1727 0.950 . S
C1698 H1680 0.951 . S
C1698 C1699 1.366 . S
C1698 C1700 1.388 . S
C1699 C1698 1.366 . S
C1699 C1703 1.385 . S
C1700 H1681 0.951 . S
C1700 C1698 1.388 . S
C1700 C1701 1.366 . S
C1701 C1700 1.366 . S
C1701 C1702 1.414 . S
C1701 C1704 1.499 . S
C1702 H1682 0.950 . S
C1702 C1701 1.414 . S
C1702 C1703 1.374 . S
C1703 H1683 0.950 . S
C1703 C1699 1.385 . S
C1703 C1702 1.374 . S
C1704 C1701 1.499 . S
C1704 C1705 1.373 . S
C1704 C1706 1.389 . S
C1705 H1684 0.950 . S
C1705 C1704 1.373 . S
C1705 C1721 1.377 . S
C1706 C1704 1.389 . S
C1706 C1707 1.524 . S
C1706 C1720 1.377 . S
C1707 C1706 1.524 . S
C1707 C1708 1.397 . S
C1707 C1712 1.363 . S
C1708 H1685 0.950 . S
C1708 C1707 1.397 . S
C1708 C1709 1.334 . S
C1709 H1686 0.950 . S
C1709 C1708 1.334 . S
C1709 C1710 1.287 . S
C1710 C1709 1.287 . S
C1710 C1711 1.524 . S
C1710 H1729 0.913 . S
C1711 H1687 0.950 . S
C1711 C1710 1.524 . S
C1711 C1712 1.415 . S
C1712 H1688 0.950 . S
C1712 C1707 1.363 . S
C1712 C1711 1.415 . S
C1713 H1689 0.951 . S
C1713 C1714 1.366 . S
C1713 C1715 1.388 . S
C1714 C1713 1.366 . S
C1714 C1718 1.385 . S
C1715 H1690 0.951 . S
C1715 C1713 1.388 . S
C1715 C1716 1.366 . S
C1716 C1715 1.366 . S
C1716 C1717 1.414 . S
C1716 C1719 1.499 . S
C1717 H1691 0.950 . S
C1717 C1716 1.414 . S
C1717 C1718 1.374 . S
C1718 H1692 0.950 . S
C1718 C1714 1.385 . S
C1718 C1717 1.374 . S
C1719 C1716 1.499 . S
C1719 C1720 1.373 . S
C1719 C1721 1.389 . S
C1720 H1693 0.950 . S
C1720 C1706 1.377 . S
C1720 C1719 1.373 . S
C1721 C1705 1.377 . S
C1721 C1719 1.389 . S
C1721 C1722 1.524 . S
C1722 C1721 1.524 . S
C1722 C1723 1.397 . S
C1722 C1727 1.363 . S
C1723 H1694 0.950 . S
C1723 C1722 1.397 . S
C1723 C1724 1.334 . S
C1724 H1695 0.950 . S
C1724 C1723 1.334 . S
C1724 C1725 1.287 . S
C1725 C1724 1.287 . S
C1725 C1726 1.524 . S
C1725 H1728 0.999 . S
C1726 H1696 0.950 . S
C1726 C1725 1.524 . S
C1726 C1727 1.415 . S
C1727 H1697 0.950 . S
C1727 C1722 1.363 . S
C1727 C1726 1.415 . S
H1728 C1725 0.999 . S
H1729 C1710 0.913 . S
H1730 C1748 0.951 . S
H1731 C1750 0.951 . S
H1732 C1752 0.950 . S
H1733 C1753 0.950 . S
H1734 C1755 0.950 . S
H1735 C1758 0.950 . S
H1736 C1759 0.950 . S
H1737 C1761 0.950 . S
H1738 C1762 0.950 . S
H1739 C1763 0.951 . S
H1740 C1765 0.951 . S
H1741 C1767 0.950 . S
H1742 C1768 0.950 . S
H1743 C1770 0.950 . S
H1744 C1773 0.950 . S
H1745 C1774 0.950 . S
H1746 C1776 0.950 . S
H1747 C1777 0.950 . S
C1748 H1730 0.951 . S
C1748 C1749 1.366 . S
C1748 C1750 1.388 . S
C1749 C1748 1.366 . S
C1749 C1753 1.385 . S
C1750 H1731 0.951 . S
C1750 C1748 1.388 . S
C1750 C1751 1.366 . S
C1751 C1750 1.366 . S
C1751 C1752 1.414 . S
C1751 C1754 1.499 . S
C1752 H1732 0.950 . S
C1752 C1751 1.414 . S
C1752 C1753 1.374 . S
C1753 H1733 0.950 . S
C1753 C1749 1.385 . S
C1753 C1752 1.374 . S
C1754 C1751 1.499 . S
C1754 C1755 1.373 . S
C1754 C1756 1.389 . S
C1755 H1734 0.950 . S
C1755 C1754 1.373 . S
C1755 C1771 1.377 . S
C1756 C1754 1.389 . S
C1756 C1757 1.524 . S
C1756 C1770 1.377 . S
C1757 C1756 1.524 . S
C1757 C1758 1.397 . S
C1757 C1762 1.363 . S
C1758 H1735 0.950 . S
C1758 C1757 1.397 . S
C1758 C1759 1.334 . S
C1759 H1736 0.950 . S
C1759 C1758 1.334 . S
C1759 C1760 1.287 . S
C1760 C1759 1.287 . S
C1760 C1761 1.524 . S
C1760 H1779 0.913 . S
C1761 H1737 0.950 . S
C1761 C1760 1.524 . S
C1761 C1762 1.415 . S
C1762 H1738 0.950 . S
C1762 C1757 1.363 . S
C1762 C1761 1.415 . S
C1763 H1739 0.951 . S
C1763 C1764 1.366 . S
C1763 C1765 1.388 . S
C1764 C1763 1.366 . S
C1764 C1768 1.385 . S
C1765 H1740 0.951 . S
C1765 C1763 1.388 . S
C1765 C1766 1.366 . S
C1766 C1765 1.366 . S
C1766 C1767 1.414 . S
C1766 C1769 1.499 . S
C1767 H1741 0.950 . S
C1767 C1766 1.414 . S
C1767 C1768 1.374 . S
C1768 H1742 0.950 . S
C1768 C1764 1.385 . S
C1768 C1767 1.374 . S
C1769 C1766 1.499 . S
C1769 C1770 1.373 . S
C1769 C1771 1.389 . S
C1770 H1743 0.950 . S
C1770 C1756 1.377 . S
C1770 C1769 1.373 . S
C1771 C1755 1.377 . S
C1771 C1769 1.389 . S
C1771 C1772 1.524 . S
C1772 C1771 1.524 . S
C1772 C1773 1.397 . S
C1772 C1777 1.363 . S
C1773 H1744 0.950 . S
C1773 C1772 1.397 . S
C1773 C1774 1.334 . S
C1774 H1745 0.950 . S
C1774 C1773 1.334 . S
C1774 C1775 1.287 . S
C1775 C1774 1.287 . S
C1775 C1776 1.524 . S
C1775 H1778 0.999 . S
C1776 H1746 0.950 . S
C1776 C1775 1.524 . S
C1776 C1777 1.415 . S
C1777 H1747 0.950 . S
C1777 C1772 1.363 . S
C1777 C1776 1.415 . S
H1778 C1775 0.999 . S
H1779 C1760 0.913 . S
H1780 C1798 0.951 . S
H1781 C1800 0.951 . S
H1782 C1802 0.950 . S
H1783 C1803 0.950 . S
H1784 C1805 0.950 . S
H1785 C1808 0.950 . S
H1786 C1809 0.950 . S
H1787 C1811 0.950 . S
H1788 C1812 0.950 . S
H1789 C1813 0.951 . S
H1790 C1815 0.951 . S
H1791 C1817 0.950 . S
H1792 C1818 0.950 . S
H1793 C1820 0.950 . S
H1794 C1823 0.950 . S
H1795 C1824 0.950 . S
H1796 C1826 0.950 . S
H1797 C1827 0.950 . S
C1798 H1780 0.951 . S
C1798 C1799 1.366 . S
C1798 C1800 1.388 . S
C1799 C1798 1.366 . S
C1799 C1803 1.385 . S
C1800 H1781 0.951 . S
C1800 C1798 1.388 . S
C1800 C1801 1.366 . S
C1801 C1800 1.366 . S
C1801 C1802 1.414 . S
C1801 C1804 1.499 . S
C1802 H1782 0.950 . S
C1802 C1801 1.414 . S
C1802 C1803 1.374 . S
C1803 H1783 0.950 . S
C1803 C1799 1.385 . S
C1803 C1802 1.374 . S
C1804 C1801 1.499 . S
C1804 C1805 1.373 . S
C1804 C1806 1.389 . S
C1805 H1784 0.950 . S
C1805 C1804 1.373 . S
C1805 C1821 1.377 . S
C1806 C1804 1.389 . S
C1806 C1807 1.524 . S
C1806 C1820 1.377 . S
C1807 C1806 1.524 . S
C1807 C1808 1.397 . S
C1807 C1812 1.363 . S
C1808 H1785 0.950 . S
C1808 C1807 1.397 . S
C1808 C1809 1.334 . S
C1809 H1786 0.950 . S
C1809 C1808 1.334 . S
C1809 C1810 1.287 . S
C1810 C1809 1.287 . S
C1810 C1811 1.524 . S
C1810 H1829 0.913 . S
C1811 H1787 0.950 . S
C1811 C1810 1.524 . S
C1811 C1812 1.415 . S
C1812 H1788 0.950 . S
C1812 C1807 1.363 . S
C1812 C1811 1.415 . S
C1813 H1789 0.951 . S
C1813 C1814 1.366 . S
C1813 C1815 1.388 . S
C1814 C1813 1.366 . S
C1814 C1818 1.385 . S
C1815 H1790 0.951 . S
C1815 C1813 1.388 . S
C1815 C1816 1.366 . S
C1816 C1815 1.366 . S
C1816 C1817 1.414 . S
C1816 C1819 1.499 . S
C1817 H1791 0.950 . S
C1817 C1816 1.414 . S
C1817 C1818 1.374 . S
C1818 H1792 0.950 . S
C1818 C1814 1.385 . S
C1818 C1817 1.374 . S
C1819 C1816 1.499 . S
C1819 C1820 1.373 . S
C1819 C1821 1.389 . S
C1820 H1793 0.950 . S
C1820 C1806 1.377 . S
C1820 C1819 1.373 . S
C1821 C1805 1.377 . S
C1821 C1819 1.389 . S
C1821 C1822 1.524 . S
C1822 C1821 1.524 . S
C1822 C1823 1.397 . S
C1822 C1827 1.363 . S
C1823 H1794 0.950 . S
C1823 C1822 1.397 . S
C1823 C1824 1.334 . S
C1824 H1795 0.950 . S
C1824 C1823 1.334 . S
C1824 C1825 1.287 . S
C1825 C1824 1.287 . S
C1825 C1826 1.524 . S
C1825 H1828 0.999 . S
C1826 H1796 0.950 . S
C1826 C1825 1.524 . S
C1826 C1827 1.415 . S
C1827 H1797 0.950 . S
C1827 C1822 1.363 . S
C1827 C1826 1.415 . S
H1828 C1825 0.999 . S
H1829 C1810 0.913 . S
H1830 C1848 0.951 . S
H1831 C1850 0.951 . S
H1832 C1852 0.950 . S
H1833 C1853 0.950 . S
H1834 C1855 0.950 . S
H1835 C1858 0.950 . S
H1836 C1859 0.950 . S
H1837 C1861 0.950 . S
H1838 C1862 0.950 . S
H1839 C1863 0.951 . S
H1840 C1865 0.951 . S
H1841 C1867 0.950 . S
H1842 C1868 0.950 . S
H1843 C1870 0.950 . S
H1844 C1873 0.950 . S
H1845 C1874 0.950 . S
H1846 C1876 0.950 . S
H1847 C1877 0.950 . S
C1848 H1830 0.951 . S
C1848 C1849 1.366 . S
C1848 C1850 1.388 . S
C1849 C1848 1.366 . S
C1849 C1853 1.385 . S
C1850 H1831 0.951 . S
C1850 C1848 1.388 . S
C1850 C1851 1.366 . S
C1851 C1850 1.366 . S
C1851 C1852 1.414 . S
C1851 C1854 1.499 . S
C1852 H1832 0.950 . S
C1852 C1851 1.414 . S
C1852 C1853 1.374 . S
C1853 H1833 0.950 . S
C1853 C1849 1.385 . S
C1853 C1852 1.374 . S
C1854 C1851 1.499 . S
C1854 C1855 1.373 . S
C1854 C1856 1.389 . S
C1855 H1834 0.950 . S
C1855 C1854 1.373 . S
C1855 C1871 1.377 . S
C1856 C1854 1.389 . S
C1856 C1857 1.524 . S
C1856 C1870 1.377 . S
C1857 C1856 1.524 . S
C1857 C1858 1.397 . S
C1857 C1862 1.363 . S
C1858 H1835 0.950 . S
C1858 C1857 1.397 . S
C1858 C1859 1.334 . S
C1859 H1836 0.950 . S
C1859 C1858 1.334 . S
C1859 C1860 1.287 . S
C1860 C1859 1.287 . S
C1860 C1861 1.524 . S
C1860 H1879 0.913 . S
C1861 H1837 0.950 . S
C1861 C1860 1.524 . S
C1861 C1862 1.415 . S
C1862 H1838 0.950 . S
C1862 C1857 1.363 . S
C1862 C1861 1.415 . S
C1863 H1839 0.951 . S
C1863 C1864 1.366 . S
C1863 C1865 1.388 . S
C1864 C1863 1.366 . S
C1864 C1868 1.385 . S
C1865 H1840 0.951 . S
C1865 C1863 1.388 . S
C1865 C1866 1.366 . S
C1866 C1865 1.366 . S
C1866 C1867 1.414 . S
C1866 C1869 1.499 . S
C1867 H1841 0.950 . S
C1867 C1866 1.414 . S
C1867 C1868 1.374 . S
C1868 H1842 0.950 . S
C1868 C1864 1.385 . S
C1868 C1867 1.374 . S
C1869 C1866 1.499 . S
C1869 C1870 1.373 . S
C1869 C1871 1.389 . S
C1870 H1843 0.950 . S
C1870 C1856 1.377 . S
C1870 C1869 1.373 . S
C1871 C1855 1.377 . S
C1871 C1869 1.389 . S
C1871 C1872 1.524 . S
C1872 C1871 1.524 . S
C1872 C1873 1.397 . S
C1872 C1877 1.363 . S
C1873 H1844 0.950 . S
C1873 C1872 1.397 . S
C1873 C1874 1.334 . S
C1874 H1845 0.950 . S
C1874 C1873 1.334 . S
C1874 C1875 1.287 . S
C1875 C1874 1.287 . S
C1875 C1876 1.524 . S
C1875 H1878 0.999 . S
C1876 H1846 0.950 . S
C1876 C1875 1.524 . S
C1876 C1877 1.415 . S
C1877 H1847 0.950 . S
C1877 C1872 1.363 . S
C1877 C1876 1.415 . S
H1878 C1875 0.999 . S
H1879 C1860 0.913 . S
H1880 C1898 0.951 . S
H1881 C1900 0.951 . S
H1882 C1902 0.950 . S
H1883 C1903 0.950 . S
H1884 C1905 0.950 . S
H1885 C1908 0.950 . S
H1886 C1909 0.950 . S
H1887 C1911 0.950 . S
H1888 C1912 0.950 . S
H1889 C1913 0.951 . S
H1890 C1915 0.951 . S
H1891 C1917 0.950 . S
H1892 C1918 0.950 . S
H1893 C1920 0.950 . S
H1894 C1923 0.950 . S
H1895 C1924 0.950 . S
H1896 C1926 0.950 . S
H1897 C1927 0.950 . S
C1898 H1880 0.951 . S
C1898 C1899 1.366 . S
C1898 C1900 1.388 . S
C1899 C1898 1.366 . S
C1899 C1903 1.385 . S
C1900 H1881 0.951 . S
C1900 C1898 1.388 . S
C1900 C1901 1.366 . S
C1901 C1900 1.366 . S
C1901 C1902 1.414 . S
C1901 C1904 1.499 . S
C1902 H1882 0.950 . S
C1902 C1901 1.414 . S
C1902 C1903 1.374 . S
C1903 H1883 0.950 . S
C1903 C1899 1.385 . S
C1903 C1902 1.374 . S
C1904 C1901 1.499 . S
C1904 C1905 1.373 . S
C1904 C1906 1.389 . S
C1905 H1884 0.950 . S
C1905 C1904 1.373 . S
C1905 C1921 1.377 . S
C1906 C1904 1.389 . S
C1906 C1907 1.524 . S
C1906 C1920 1.377 . S
C1907 C1906 1.524 . S
C1907 C1908 1.397 . S
C1907 C1912 1.363 . S
C1908 H1885 0.950 . S
C1908 C1907 1.397 . S
C1908 C1909 1.334 . S
C1909 H1886 0.950 . S
C1909 C1908 1.334 . S
C1909 C1910 1.287 . S
C1910 C1909 1.287 . S
C1910 C1911 1.524 . S
C1910 H1929 0.913 . S
C1911 H1887 0.950 . S
C1911 C1910 1.524 . S
C1911 C1912 1.415 . S
C1912 H1888 0.950 . S
C1912 C1907 1.363 . S
C1912 C1911 1.415 . S
C1913 H1889 0.951 . S
C1913 C1914 1.366 . S
C1913 C1915 1.388 . S
C1914 C1913 1.366 . S
C1914 C1918 1.385 . S
C1915 H1890 0.951 . S
C1915 C1913 1.388 . S
C1915 C1916 1.366 . S
C1916 C1915 1.366 . S
C1916 C1917 1.414 . S
C1916 C1919 1.499 . S
C1917 H1891 0.950 . S
C1917 C1916 1.414 . S
C1917 C1918 1.374 . S
C1918 H1892 0.950 . S
C1918 C1914 1.385 . S
C1918 C1917 1.374 . S
C1919 C1916 1.499 . S
C1919 C1920 1.373 . S
C1919 C1921 1.389 . S
C1920 H1893 0.950 . S
C1920 C1906 1.377 . S
C1920 C1919 1.373 . S
C1921 C1905 1.377 . S
C1921 C1919 1.389 . S
C1921 C1922 1.524 . S
C1922 C1921 1.524 . S
C1922 C1923 1.397 . S
C1922 C1927 1.363 . S
C1923 H1894 0.950 . S
C1923 C1922 1.397 . S
C1923 C1924 1.334 . S
C1924 H1895 0.950 . S
C1924 C1923 1.334 . S
C1924 C1925 1.287 . S
C1925 C1924 1.287 . S
C1925 C1926 1.524 . S
C1925 H1928 0.999 . S
C1926 H1896 0.950 . S
C1926 C1925 1.524 . S
C1926 C1927 1.415 . S
C1927 H1897 0.950 . S
C1927 C1922 1.363 . S
C1927 C1926 1.415 . S
H1928 C1925 0.999 . S
H1929 C1910 0.913 . S
H1930 C1948 0.951 . S
H1931 C1950 0.951 . S
H1932 C1952 0.950 . S
H1933 C1953 0.950 . S
H1934 C1955 0.950 . S
H1935 C1958 0.950 . S
H1936 C1959 0.950 . S
H1937 C1961 0.950 . S
H1938 C1962 0.950 . S
H1939 C1963 0.951 . S
H1940 C1965 0.951 . S
H1941 C1967 0.950 . S
H1942 C1968 0.950 . S
H1943 C1970 0.950 . S
H1944 C1973 0.950 . S
H1945 C1974 0.950 . S
H1946 C1976 0.950 . S
H1947 C1977 0.950 . S
C1948 H1930 0.951 . S
C1948 C1949 1.366 . S
C1948 C1950 1.388 . S
C1949 C1948 1.366 . S
C1949 C1953 1.385 . S
C1950 H1931 0.951 . S
C1950 C1948 1.388 . S
C1950 C1951 1.366 . S
C1951 C1950 1.366 . S
C1951 C1952 1.414 . S
C1951 C1954 1.499 . S
C1952 H1932 0.950 . S
C1952 C1951 1.414 . S
C1952 C1953 1.374 . S
C1953 H1933 0.950 . S
C1953 C1949 1.385 . S
C1953 C1952 1.374 . S
C1954 C1951 1.499 . S
C1954 C1955 1.373 . S
C1954 C1956 1.389 . S
C1955 H1934 0.950 . S
C1955 C1954 1.373 . S
C1955 C1971 1.377 . S
C1956 C1954 1.389 . S
C1956 C1957 1.524 . S
C1956 C1970 1.377 . S
C1957 C1956 1.524 . S
C1957 C1958 1.397 . S
C1957 C1962 1.363 . S
C1958 H1935 0.950 . S
C1958 C1957 1.397 . S
C1958 C1959 1.334 . S
C1959 H1936 0.950 . S
C1959 C1958 1.334 . S
C1959 C1960 1.287 . S
C1960 C1959 1.287 . S
C1960 C1961 1.524 . S
C1960 H1979 0.913 1_565 S
C1961 H1937 0.950 . S
C1961 C1960 1.524 . S
C1961 C1962 1.415 . S
C1962 H1938 0.950 . S
C1962 C1957 1.363 . S
C1962 C1961 1.415 . S
C1963 H1939 0.951 . S
C1963 C1964 1.366 . S
C1963 C1965 1.388 . S
C1964 C1963 1.366 . S
C1964 C1968 1.385 . S
C1965 H1940 0.951 . S
C1965 C1963 1.388 . S
C1965 C1966 1.366 . S
C1966 C1965 1.366 . S
C1966 C1967 1.414 . S
C1966 C1969 1.499 . S
C1967 H1941 0.950 . S
C1967 C1966 1.414 . S
C1967 C1968 1.374 . S
C1968 H1942 0.950 . S
C1968 C1964 1.385 . S
C1968 C1967 1.374 . S
C1969 C1966 1.499 . S
C1969 C1970 1.373 . S
C1969 C1971 1.389 . S
C1970 H1943 0.950 . S
C1970 C1956 1.377 . S
C1970 C1969 1.373 . S
C1971 C1955 1.377 . S
C1971 C1969 1.389 . S
C1971 C1972 1.524 . S
C1972 C1971 1.524 . S
C1972 C1973 1.397 . S
C1972 C1977 1.363 . S
C1973 H1944 0.950 . S
C1973 C1972 1.397 . S
C1973 C1974 1.334 . S
C1974 H1945 0.950 . S
C1974 C1973 1.334 . S
C1974 C1975 1.287 . S
C1975 C1974 1.287 . S
C1975 C1976 1.524 . S
C1975 H1978 0.999 . S
C1976 H1946 0.950 . S
C1976 C1975 1.524 . S
C1976 C1977 1.415 . S
C1977 H1947 0.950 . S
C1977 C1972 1.363 . S
C1977 C1976 1.415 . S
H1978 C1975 0.999 . S
H1979 C1960 0.913 1_545 S
H1980 C1998 0.951 . S
H1981 C2000 0.951 . S
H1982 C2002 0.950 . S
H1983 C2003 0.950 . S
H1984 C2005 0.950 . S
H1985 C2008 0.950 . S
H1986 C2009 0.950 . S
H1987 C2011 0.950 . S
H1988 C2012 0.950 . S
H1989 C2013 0.951 . S
H1990 C2015 0.951 . S
H1991 C2017 0.950 . S
H1992 C2018 0.950 . S
H1993 C2020 0.950 . S
H1994 C2023 0.950 . S
H1995 C2024 0.950 . S
H1996 C2026 0.950 . S
H1997 C2027 0.950 . S
C1998 H1980 0.951 . S
C1998 C1999 1.366 . S
C1998 C2000 1.388 . S
C1999 C1998 1.366 . S
C1999 C2003 1.385 . S
C2000 H1981 0.951 . S
C2000 C1998 1.388 . S
C2000 C2001 1.366 . S
C2001 C2000 1.366 . S
C2001 C2002 1.414 . S
C2001 C2004 1.499 . S
C2002 H1982 0.950 . S
C2002 C2001 1.414 . S
C2002 C2003 1.374 . S
C2003 H1983 0.950 . S
C2003 C1999 1.385 . S
C2003 C2002 1.374 . S
C2004 C2001 1.499 . S
C2004 C2005 1.373 . S
C2004 C2006 1.389 . S
C2005 H1984 0.950 . S
C2005 C2004 1.373 . S
C2005 C2021 1.377 . S
C2006 C2004 1.389 . S
C2006 C2007 1.524 . S
C2006 C2020 1.377 . S
C2007 C2006 1.524 . S
C2007 C2008 1.397 . S
C2007 C2012 1.363 . S
C2008 H1985 0.950 . S
C2008 C2007 1.397 . S
C2008 C2009 1.334 . S
C2009 H1986 0.950 . S
C2009 C2008 1.334 . S
C2009 C2010 1.287 . S
C2010 C2009 1.287 . S
C2010 C2011 1.524 . S
C2010 H2029 0.913 . S
C2011 H1987 0.950 . S
C2011 C2010 1.524 . S
C2011 C2012 1.415 . S
C2012 H1988 0.950 . S
C2012 C2007 1.363 . S
C2012 C2011 1.415 . S
C2013 H1989 0.951 . S
C2013 C2014 1.366 . S
C2013 C2015 1.388 . S
C2014 C2013 1.366 . S
C2014 C2018 1.385 . S
C2015 H1990 0.951 . S
C2015 C2013 1.388 . S
C2015 C2016 1.366 . S
C2016 C2015 1.366 . S
C2016 C2017 1.414 . S
C2016 C2019 1.499 . S
C2017 H1991 0.950 . S
C2017 C2016 1.414 . S
C2017 C2018 1.374 . S
C2018 H1992 0.950 . S
C2018 C2014 1.385 . S
C2018 C2017 1.374 . S
C2019 C2016 1.499 . S
C2019 C2020 1.373 . S
C2019 C2021 1.389 . S
C2020 H1993 0.950 . S
C2020 C2006 1.377 . S
C2020 C2019 1.373 . S
C2021 C2005 1.377 . S
C2021 C2019 1.389 . S
C2021 C2022 1.524 . S
C2022 C2021 1.524 . S
C2022 C2023 1.397 . S
C2022 C2027 1.363 . S
C2023 H1994 0.950 . S
C2023 C2022 1.397 . S
C2023 C2024 1.334 . S
C2024 H1995 0.950 . S
C2024 C2023 1.334 . S
C2024 C2025 1.287 . S
C2025 C2024 1.287 . S
C2025 C2026 1.524 . S
C2025 H2028 0.999 . S
C2026 H1996 0.950 . S
C2026 C2025 1.524 . S
C2026 C2027 1.415 . S
C2027 H1997 0.950 . S
C2027 C2022 1.363 . S
C2027 C2026 1.415 . S
H2028 C2025 0.999 . S
H2029 C2010 0.913 . S
H2030 C2048 0.951 . S
H2031 C2050 0.951 . S
H2032 C2052 0.950 . S
H2033 C2053 0.950 . S
H2034 C2055 0.950 . S
H2035 C2058 0.950 . S
H2036 C2059 0.950 . S
H2037 C2061 0.950 . S
H2038 C2062 0.950 . S
H2039 C2063 0.951 . S
H2040 C2065 0.951 . S
H2041 C2067 0.950 . S
H2042 C2068 0.950 . S
H2043 C2070 0.950 . S
H2044 C2073 0.950 . S
H2045 C2074 0.950 . S
H2046 C2076 0.950 . S
H2047 C2077 0.950 . S
C2048 H2030 0.951 . S
C2048 C2049 1.366 . S
C2048 C2050 1.388 . S
C2049 C2048 1.366 . S
C2049 C2053 1.385 . S
C2050 H2031 0.951 . S
C2050 C2048 1.388 . S
C2050 C2051 1.366 . S
C2051 C2050 1.366 . S
C2051 C2052 1.414 . S
C2051 C2054 1.499 . S
C2052 H2032 0.950 . S
C2052 C2051 1.414 . S
C2052 C2053 1.374 . S
C2053 H2033 0.950 . S
C2053 C2049 1.385 . S
C2053 C2052 1.374 . S
C2054 C2051 1.499 . S
C2054 C2055 1.373 . S
C2054 C2056 1.389 . S
C2055 H2034 0.950 . S
C2055 C2054 1.373 . S
C2055 C2071 1.377 . S
C2056 C2054 1.389 . S
C2056 C2057 1.524 . S
C2056 C2070 1.377 . S
C2057 C2056 1.524 . S
C2057 C2058 1.397 . S
C2057 C2062 1.363 . S
C2058 H2035 0.950 . S
C2058 C2057 1.397 . S
C2058 C2059 1.334 . S
C2059 H2036 0.950 . S
C2059 C2058 1.334 . S
C2059 C2060 1.287 . S
C2060 C2059 1.287 . S
C2060 C2061 1.524 . S
C2060 H2079 0.913 . S
C2061 H2037 0.950 . S
C2061 C2060 1.524 . S
C2061 C2062 1.415 . S
C2062 H2038 0.950 . S
C2062 C2057 1.363 . S
C2062 C2061 1.415 . S
C2063 H2039 0.951 . S
C2063 C2064 1.366 . S
C2063 C2065 1.388 . S
C2064 C2063 1.366 . S
C2064 C2068 1.385 . S
C2065 H2040 0.951 . S
C2065 C2063 1.388 . S
C2065 C2066 1.366 . S
C2066 C2065 1.366 . S
C2066 C2067 1.414 . S
C2066 C2069 1.499 . S
C2067 H2041 0.950 . S
C2067 C2066 1.414 . S
C2067 C2068 1.374 . S
C2068 H2042 0.950 . S
C2068 C2064 1.385 . S
C2068 C2067 1.374 . S
C2069 C2066 1.499 . S
C2069 C2070 1.373 . S
C2069 C2071 1.389 . S
C2070 H2043 0.950 . S
C2070 C2056 1.377 . S
C2070 C2069 1.373 . S
C2071 C2055 1.377 . S
C2071 C2069 1.389 . S
C2071 C2072 1.524 . S
C2072 C2071 1.524 . S
C2072 C2073 1.397 . S
C2072 C2077 1.363 . S
C2073 H2044 0.950 . S
C2073 C2072 1.397 . S
C2073 C2074 1.334 . S
C2074 H2045 0.950 . S
C2074 C2073 1.334 . S
C2074 C2075 1.287 . S
C2075 C2074 1.287 . S
C2075 C2076 1.524 . S
C2075 H2078 0.999 . S
C2076 H2046 0.950 . S
C2076 C2075 1.524 . S
C2076 C2077 1.415 . S
C2077 H2047 0.950 . S
C2077 C2072 1.363 . S
C2077 C2076 1.415 . S
H2078 C2075 0.999 . S
H2079 C2060 0.913 . S
H2080 C2098 0.951 . S
H2081 C2100 0.951 . S
H2082 C2102 0.950 . S
H2083 C2103 0.950 . S
H2084 C2105 0.950 . S
H2085 C2108 0.950 . S
H2086 C2109 0.950 . S
H2087 C2111 0.950 . S
H2088 C2112 0.950 . S
H2089 C2113 0.951 . S
H2090 C2115 0.951 . S
H2091 C2117 0.950 . S
H2092 C2118 0.950 . S
H2093 C2120 0.950 . S
H2094 C2123 0.950 . S
H2095 C2124 0.950 . S
H2096 C2126 0.950 . S
H2097 C2127 0.950 . S
C2098 H2080 0.951 . S
C2098 C2099 1.366 . S
C2098 C2100 1.388 . S
C2099 C2098 1.366 . S
C2099 C2103 1.385 . S
C2100 H2081 0.951 . S
C2100 C2098 1.388 . S
C2100 C2101 1.366 . S
C2101 C2100 1.366 . S
C2101 C2102 1.414 . S
C2101 C2104 1.499 . S
C2102 H2082 0.950 . S
C2102 C2101 1.414 . S
C2102 C2103 1.374 . S
C2103 H2083 0.950 . S
C2103 C2099 1.385 . S
C2103 C2102 1.374 . S
C2104 C2101 1.499 . S
C2104 C2105 1.373 . S
C2104 C2106 1.389 . S
C2105 H2084 0.950 . S
C2105 C2104 1.373 . S
C2105 C2121 1.377 . S
C2106 C2104 1.389 . S
C2106 C2107 1.524 . S
C2106 C2120 1.377 . S
C2107 C2106 1.524 . S
C2107 C2108 1.397 . S
C2107 C2112 1.363 . S
C2108 H2085 0.950 . S
C2108 C2107 1.397 . S
C2108 C2109 1.334 . S
C2109 H2086 0.950 . S
C2109 C2108 1.334 . S
C2109 C2110 1.287 . S
C2110 C2109 1.287 . S
C2110 C2111 1.524 . S
C2110 H2129 0.913 . S
C2111 H2087 0.950 . S
C2111 C2110 1.524 . S
C2111 C2112 1.415 . S
C2112 H2088 0.950 . S
C2112 C2107 1.363 . S
C2112 C2111 1.415 . S
C2113 H2089 0.951 . S
C2113 C2114 1.366 . S
C2113 C2115 1.388 . S
C2114 C2113 1.366 . S
C2114 C2118 1.385 . S
C2115 H2090 0.951 . S
C2115 C2113 1.388 . S
C2115 C2116 1.366 . S
C2116 C2115 1.366 . S
C2116 C2117 1.414 . S
C2116 C2119 1.499 . S
C2117 H2091 0.950 . S
C2117 C2116 1.414 . S
C2117 C2118 1.374 . S
C2118 H2092 0.950 . S
C2118 C2114 1.385 . S
C2118 C2117 1.374 . S
C2119 C2116 1.499 . S
C2119 C2120 1.373 . S
C2119 C2121 1.389 . S
C2120 H2093 0.950 . S
C2120 C2106 1.377 . S
C2120 C2119 1.373 . S
C2121 C2105 1.377 . S
C2121 C2119 1.389 . S
C2121 C2122 1.524 . S
C2122 C2121 1.524 . S
C2122 C2123 1.397 . S
C2122 C2127 1.363 . S
C2123 H2094 0.950 . S
C2123 C2122 1.397 . S
C2123 C2124 1.334 . S
C2124 H2095 0.950 . S
C2124 C2123 1.334 . S
C2124 C2125 1.287 . S
C2125 C2124 1.287 . S
C2125 C2126 1.524 . S
C2125 H2128 0.999 . S
C2126 H2096 0.950 . S
C2126 C2125 1.524 . S
C2126 C2127 1.415 . S
C2127 H2097 0.950 . S
C2127 C2122 1.363 . S
C2127 C2126 1.415 . S
H2128 C2125 0.999 . S
H2129 C2110 0.913 . S
H2130 C2148 0.951 . S
H2131 C2150 0.951 . S
H2132 C2152 0.950 . S
H2133 C2153 0.950 . S
H2134 C2155 0.950 . S
H2135 C2158 0.950 . S
H2136 C2159 0.950 . S
H2137 C2161 0.950 . S
H2138 C2162 0.950 . S
H2139 C2163 0.951 . S
H2140 C2165 0.951 . S
H2141 C2167 0.950 . S
H2142 C2168 0.950 . S
H2143 C2170 0.950 . S
H2144 C2173 0.950 . S
H2145 C2174 0.950 . S
H2146 C2176 0.950 . S
H2147 C2177 0.950 . S
C2148 H2130 0.951 . S
C2148 C2149 1.366 . S
C2148 C2150 1.388 . S
C2149 C2148 1.366 . S
C2149 C2153 1.385 . S
C2150 H2131 0.951 . S
C2150 C2148 1.388 . S
C2150 C2151 1.366 . S
C2151 C2150 1.366 . S
C2151 C2152 1.414 . S
C2151 C2154 1.499 . S
C2152 H2132 0.950 . S
C2152 C2151 1.414 . S
C2152 C2153 1.374 . S
C2153 H2133 0.950 . S
C2153 C2149 1.385 . S
C2153 C2152 1.374 . S
C2154 C2151 1.499 . S
C2154 C2155 1.373 . S
C2154 C2156 1.389 . S
C2155 H2134 0.950 . S
C2155 C2154 1.373 . S
C2155 C2171 1.377 . S
C2156 C2154 1.389 . S
C2156 C2157 1.524 . S
C2156 C2170 1.377 . S
C2157 C2156 1.524 . S
C2157 C2158 1.397 . S
C2157 C2162 1.363 . S
C2158 H2135 0.950 . S
C2158 C2157 1.397 . S
C2158 C2159 1.334 . S
C2159 H2136 0.950 . S
C2159 C2158 1.334 . S
C2159 C2160 1.287 . S
C2160 C2159 1.287 . S
C2160 C2161 1.524 . S
C2160 H2179 0.913 . S
C2161 H2137 0.950 . S
C2161 C2160 1.524 . S
C2161 C2162 1.415 . S
C2162 H2138 0.950 . S
C2162 C2157 1.363 . S
C2162 C2161 1.415 . S
C2163 H2139 0.951 . S
C2163 C2164 1.366 . S
C2163 C2165 1.388 . S
C2164 C2163 1.366 . S
C2164 C2168 1.385 . S
C2165 H2140 0.951 . S
C2165 C2163 1.388 . S
C2165 C2166 1.366 . S
C2166 C2165 1.366 . S
C2166 C2167 1.414 . S
C2166 C2169 1.499 . S
C2167 H2141 0.950 . S
C2167 C2166 1.414 . S
C2167 C2168 1.374 . S
C2168 H2142 0.950 . S
C2168 C2164 1.385 . S
C2168 C2167 1.374 . S
C2169 C2166 1.499 . S
C2169 C2170 1.373 . S
C2169 C2171 1.389 . S
C2170 H2143 0.950 . S
C2170 C2156 1.377 . S
C2170 C2169 1.373 . S
C2171 C2155 1.377 . S
C2171 C2169 1.389 . S
C2171 C2172 1.524 . S
C2172 C2171 1.524 . S
C2172 C2173 1.397 . S
C2172 C2177 1.363 . S
C2173 H2144 0.950 . S
C2173 C2172 1.397 . S
C2173 C2174 1.334 . S
C2174 H2145 0.950 . S
C2174 C2173 1.334 . S
C2174 C2175 1.287 . S
C2175 C2174 1.287 . S
C2175 C2176 1.524 . S
C2175 H2178 0.999 . S
C2176 H2146 0.950 . S
C2176 C2175 1.524 . S
C2176 C2177 1.415 . S
C2177 H2147 0.950 . S
C2177 C2172 1.363 . S
C2177 C2176 1.415 . S
H2178 C2175 0.999 . S
H2179 C2160 0.913 . S
H2180 C2198 0.951 . S
H2181 C2200 0.951 . S
H2182 C2202 0.950 . S
H2183 C2203 0.950 . S
H2184 C2205 0.950 . S
H2185 C2208 0.950 . S
H2186 C2209 0.950 . S
H2187 C2211 0.950 . S
H2188 C2212 0.950 . S
H2189 C2213 0.951 . S
H2190 C2215 0.951 . S
H2191 C2217 0.950 . S
H2192 C2218 0.950 . S
H2193 C2220 0.950 . S
H2194 C2223 0.950 . S
H2195 C2224 0.950 . S
H2196 C2226 0.950 . S
H2197 C2227 0.950 . S
C2198 H2180 0.951 . S
C2198 C2199 1.366 . S
C2198 C2200 1.388 . S
C2199 C2198 1.366 . S
C2199 C2203 1.385 . S
C2200 H2181 0.951 . S
C2200 C2198 1.388 . S
C2200 C2201 1.366 . S
C2201 C2200 1.366 . S
C2201 C2202 1.414 . S
C2201 C2204 1.499 . S
C2202 H2182 0.950 . S
C2202 C2201 1.414 . S
C2202 C2203 1.374 . S
C2203 H2183 0.950 . S
C2203 C2199 1.385 . S
C2203 C2202 1.374 . S
C2204 C2201 1.499 . S
C2204 C2205 1.373 . S
C2204 C2206 1.389 . S
C2205 H2184 0.950 . S
C2205 C2204 1.373 . S
C2205 C2221 1.377 . S
C2206 C2204 1.389 . S
C2206 C2207 1.524 . S
C2206 C2220 1.377 . S
C2207 C2206 1.524 . S
C2207 C2208 1.397 . S
C2207 C2212 1.363 . S
C2208 H2185 0.950 . S
C2208 C2207 1.397 . S
C2208 C2209 1.334 . S
C2209 H2186 0.950 . S
C2209 C2208 1.334 . S
C2209 C2210 1.287 . S
C2210 C2209 1.287 . S
C2210 C2211 1.524 . S
C2210 H2229 0.913 . S
C2211 H2187 0.950 . S
C2211 C2210 1.524 . S
C2211 C2212 1.415 . S
C2212 H2188 0.950 . S
C2212 C2207 1.363 . S
C2212 C2211 1.415 . S
C2213 H2189 0.951 . S
C2213 C2214 1.366 . S
C2213 C2215 1.388 . S
C2214 C2213 1.366 . S
C2214 C2218 1.385 . S
C2215 H2190 0.951 . S
C2215 C2213 1.388 . S
C2215 C2216 1.366 . S
C2216 C2215 1.366 . S
C2216 C2217 1.414 . S
C2216 C2219 1.499 . S
C2217 H2191 0.950 . S
C2217 C2216 1.414 . S
C2217 C2218 1.374 . S
C2218 H2192 0.950 . S
C2218 C2214 1.385 . S
C2218 C2217 1.374 . S
C2219 C2216 1.499 . S
C2219 C2220 1.373 . S
C2219 C2221 1.389 . S
C2220 H2193 0.950 . S
C2220 C2206 1.377 . S
C2220 C2219 1.373 . S
C2221 C2205 1.377 . S
C2221 C2219 1.389 . S
C2221 C2222 1.524 . S
C2222 C2221 1.524 . S
C2222 C2223 1.397 . S
C2222 C2227 1.363 . S
C2223 H2194 0.950 . S
C2223 C2222 1.397 . S
C2223 C2224 1.334 . S
C2224 H2195 0.950 . S
C2224 C2223 1.334 . S
C2224 C2225 1.287 . S
C2225 C2224 1.287 . S
C2225 C2226 1.524 . S
C2225 H2228 0.999 . S
C2226 H2196 0.950 . S
C2226 C2225 1.524 . S
C2226 C2227 1.415 . S
C2227 H2197 0.950 . S
C2227 C2222 1.363 . S
C2227 C2226 1.415 . S
H2228 C2225 0.999 . S
H2229 C2210 0.913 . S
H2230 C2248 0.951 . S
H2231 C2250 0.951 . S
H2232 C2252 0.950 . S
H2233 C2253 0.950 . S
H2234 C2255 0.950 . S
H2235 C2258 0.950 . S
H2236 C2259 0.950 . S
H2237 C2261 0.950 . S
H2238 C2262 0.950 . S
H2239 C2263 0.951 . S
H2240 C2265 0.951 . S
H2241 C2267 0.950 . S
H2242 C2268 0.950 . S
H2243 C2270 0.950 . S
H2244 C2273 0.950 . S
H2245 C2274 0.950 . S
H2246 C2276 0.950 . S
H2247 C2277 0.950 . S
C2248 H2230 0.951 . S
C2248 C2249 1.366 . S
C2248 C2250 1.388 . S
C2249 C2248 1.366 . S
C2249 C2253 1.385 . S
C2250 H2231 0.951 . S
C2250 C2248 1.388 . S
C2250 C2251 1.366 . S
C2251 C2250 1.366 . S
C2251 C2252 1.414 . S
C2251 C2254 1.499 . S
C2252 H2232 0.950 . S
C2252 C2251 1.414 . S
C2252 C2253 1.374 . S
C2253 H2233 0.950 . S
C2253 C2249 1.385 . S
C2253 C2252 1.374 . S
C2254 C2251 1.499 . S
C2254 C2255 1.373 . S
C2254 C2256 1.389 . S
C2255 H2234 0.950 . S
C2255 C2254 1.373 . S
C2255 C2271 1.377 . S
C2256 C2254 1.389 . S
C2256 C2257 1.524 . S
C2256 C2270 1.377 . S
C2257 C2256 1.524 . S
C2257 C2258 1.397 . S
C2257 C2262 1.363 . S
C2258 H2235 0.950 . S
C2258 C2257 1.397 . S
C2258 C2259 1.334 . S
C2259 H2236 0.950 . S
C2259 C2258 1.334 . S
C2259 C2260 1.287 . S
C2260 C2259 1.287 . S
C2260 C2261 1.524 . S
C2260 H2279 0.913 . S
C2261 H2237 0.950 . S
C2261 C2260 1.524 . S
C2261 C2262 1.415 . S
C2262 H2238 0.950 . S
C2262 C2257 1.363 . S
C2262 C2261 1.415 . S
C2263 H2239 0.951 . S
C2263 C2264 1.366 . S
C2263 C2265 1.388 . S
C2264 C2263 1.366 . S
C2264 C2268 1.385 . S
C2265 H2240 0.951 . S
C2265 C2263 1.388 . S
C2265 C2266 1.366 . S
C2266 C2265 1.366 . S
C2266 C2267 1.414 . S
C2266 C2269 1.499 . S
C2267 H2241 0.950 . S
C2267 C2266 1.414 . S
C2267 C2268 1.374 . S
C2268 H2242 0.950 . S
C2268 C2264 1.385 . S
C2268 C2267 1.374 . S
C2269 C2266 1.499 . S
C2269 C2270 1.373 . S
C2269 C2271 1.389 . S
C2270 H2243 0.950 . S
C2270 C2256 1.377 . S
C2270 C2269 1.373 . S
C2271 C2255 1.377 . S
C2271 C2269 1.389 . S
C2271 C2272 1.524 . S
C2272 C2271 1.524 . S
C2272 C2273 1.397 . S
C2272 C2277 1.363 . S
C2273 H2244 0.950 . S
C2273 C2272 1.397 . S
C2273 C2274 1.334 . S
C2274 H2245 0.950 . S
C2274 C2273 1.334 . S
C2274 C2275 1.287 . S
C2275 C2274 1.287 . S
C2275 C2276 1.524 . S
C2275 H2278 0.999 . S
C2276 H2246 0.950 . S
C2276 C2275 1.524 . S
C2276 C2277 1.415 . S
C2277 H2247 0.950 . S
C2277 C2272 1.363 . S
C2277 C2276 1.415 . S
H2278 C2275 0.999 . S
H2279 C2260 0.913 . S
H2280 C2298 0.951 . S
H2281 C2300 0.951 . S
H2282 C2302 0.950 . S
H2283 C2303 0.950 . S
H2284 C2305 0.950 . S
H2285 C2308 0.950 . S
H2286 C2309 0.950 . S
H2287 C2311 0.950 . S
H2288 C2312 0.950 . S
H2289 C2313 0.951 . S
H2290 C2315 0.951 . S
H2291 C2317 0.950 . S
H2292 C2318 0.950 . S
H2293 C2320 0.950 . S
H2294 C2323 0.950 . S
H2295 C2324 0.950 . S
H2296 C2326 0.950 . S
H2297 C2327 0.950 . S
C2298 H2280 0.951 . S
C2298 C2299 1.366 . S
C2298 C2300 1.388 . S
C2299 C2298 1.366 . S
C2299 C2303 1.385 . S
C2300 H2281 0.951 . S
C2300 C2298 1.388 . S
C2300 C2301 1.366 . S
C2301 C2300 1.366 . S
C2301 C2302 1.414 . S
C2301 C2304 1.499 . S
C2302 H2282 0.950 . S
C2302 C2301 1.414 . S
C2302 C2303 1.374 . S
C2303 H2283 0.950 . S
C2303 C2299 1.385 . S
C2303 C2302 1.374 . S
C2304 C2301 1.499 . S
C2304 C2305 1.373 . S
C2304 C2306 1.389 . S
C2305 H2284 0.950 . S
C2305 C2304 1.373 . S
C2305 C2321 1.377 . S
C2306 C2304 1.389 . S
C2306 C2307 1.524 . S
C2306 C2320 1.377 . S
C2307 C2306 1.524 . S
C2307 C2308 1.397 . S
C2307 C2312 1.363 . S
C2308 H2285 0.950 . S
C2308 C2307 1.397 . S
C2308 C2309 1.334 . S
C2309 H2286 0.950 . S
C2309 C2308 1.334 . S
C2309 C2310 1.287 . S
C2310 C2309 1.287 . S
C2310 C2311 1.524 . S
C2310 H2329 0.913 . S
C2311 H2287 0.950 . S
C2311 C2310 1.524 . S
C2311 C2312 1.415 . S
C2312 H2288 0.950 . S
C2312 C2307 1.363 . S
C2312 C2311 1.415 . S
C2313 H2289 0.951 . S
C2313 C2314 1.366 . S
C2313 C2315 1.388 . S
C2314 C2313 1.366 . S
C2314 C2318 1.385 . S
C2315 H2290 0.951 . S
C2315 C2313 1.388 . S
C2315 C2316 1.366 . S
C2316 C2315 1.366 . S
C2316 C2317 1.414 . S
C2316 C2319 1.499 . S
C2317 H2291 0.950 . S
C2317 C2316 1.414 . S
C2317 C2318 1.374 . S
C2318 H2292 0.950 . S
C2318 C2314 1.385 . S
C2318 C2317 1.374 . S
C2319 C2316 1.499 . S
C2319 C2320 1.373 . S
C2319 C2321 1.389 . S
C2320 H2293 0.950 . S
C2320 C2306 1.377 . S
C2320 C2319 1.373 . S
C2321 C2305 1.377 . S
C2321 C2319 1.389 . S
C2321 C2322 1.524 . S
C2322 C2321 1.524 . S
C2322 C2323 1.397 . S
C2322 C2327 1.363 . S
C2323 H2294 0.950 . S
C2323 C2322 1.397 . S
C2323 C2324 1.334 . S
C2324 H2295 0.950 . S
C2324 C2323 1.334 . S
C2324 C2325 1.287 . S
C2325 C2324 1.287 . S
C2325 C2326 1.524 . S
C2325 H2328 0.999 . S
C2326 H2296 0.950 . S
C2326 C2325 1.524 . S
C2326 C2327 1.415 . S
C2327 H2297 0.950 . S
C2327 C2322 1.363 . S
C2327 C2326 1.415 . S
H2328 C2325 0.999 . S
H2329 C2310 0.913 . S
H2330 C2348 0.951 . S
H2331 C2350 0.951 . S
H2332 C2352 0.950 . S
H2333 C2353 0.950 . S
H2334 C2355 0.950 . S
H2335 C2358 0.950 . S
H2336 C2359 0.950 . S
H2337 C2361 0.950 . S
H2338 C2362 0.950 . S
H2339 C2363 0.951 . S
H2340 C2365 0.951 . S
H2341 C2367 0.950 . S
H2342 C2368 0.950 . S
H2343 C2370 0.950 . S
H2344 C2373 0.950 . S
H2345 C2374 0.950 . S
H2346 C2376 0.950 . S
H2347 C2377 0.950 . S
C2348 H2330 0.951 . S
C2348 C2349 1.366 . S
C2348 C2350 1.388 . S
C2349 C2348 1.366 . S
C2349 C2353 1.385 . S
C2350 H2331 0.951 . S
C2350 C2348 1.388 . S
C2350 C2351 1.366 . S
C2351 C2350 1.366 . S
C2351 C2352 1.414 . S
C2351 C2354 1.499 . S
C2352 H2332 0.950 . S
C2352 C2351 1.414 . S
C2352 C2353 1.374 . S
C2353 H2333 0.950 . S
C2353 C2349 1.385 . S
C2353 C2352 1.374 . S
C2354 C2351 1.499 . S
C2354 C2355 1.373 . S
C2354 C2356 1.389 . S
C2355 H2334 0.950 . S
C2355 C2354 1.373 . S
C2355 C2371 1.377 . S
C2356 C2354 1.389 . S
C2356 C2357 1.524 . S
C2356 C2370 1.377 . S
C2357 C2356 1.524 . S
C2357 C2358 1.397 . S
C2357 C2362 1.363 . S
C2358 H2335 0.950 . S
C2358 C2357 1.397 . S
C2358 C2359 1.334 . S
C2359 H2336 0.950 . S
C2359 C2358 1.334 . S
C2359 C2360 1.287 . S
C2360 C2359 1.287 . S
C2360 C2361 1.524 . S
C2360 H2379 0.913 . S
C2361 H2337 0.950 . S
C2361 C2360 1.524 . S
C2361 C2362 1.415 . S
C2362 H2338 0.950 . S
C2362 C2357 1.363 . S
C2362 C2361 1.415 . S
C2363 H2339 0.951 . S
C2363 C2364 1.366 . S
C2363 C2365 1.388 . S
C2364 C2363 1.366 . S
C2364 C2368 1.385 . S
C2365 H2340 0.951 . S
C2365 C2363 1.388 . S
C2365 C2366 1.366 . S
C2366 C2365 1.366 . S
C2366 C2367 1.414 . S
C2366 C2369 1.499 . S
C2367 H2341 0.950 . S
C2367 C2366 1.414 . S
C2367 C2368 1.374 . S
C2368 H2342 0.950 . S
C2368 C2364 1.385 . S
C2368 C2367 1.374 . S
C2369 C2366 1.499 . S
C2369 C2370 1.373 . S
C2369 C2371 1.389 . S
C2370 H2343 0.950 . S
C2370 C2356 1.377 . S
C2370 C2369 1.373 . S
C2371 C2355 1.377 . S
C2371 C2369 1.389 . S
C2371 C2372 1.524 . S
C2372 C2371 1.524 . S
C2372 C2373 1.397 . S
C2372 C2377 1.363 . S
C2373 H2344 0.950 . S
C2373 C2372 1.397 . S
C2373 C2374 1.334 . S
C2374 H2345 0.950 . S
C2374 C2373 1.334 . S
C2374 C2375 1.287 . S
C2375 C2374 1.287 . S
C2375 C2376 1.524 . S
C2375 H2378 0.999 . S
C2376 H2346 0.950 . S
C2376 C2375 1.524 . S
C2376 C2377 1.415 . S
C2377 H2347 0.950 . S
C2377 C2372 1.363 . S
C2377 C2376 1.415 . S
H2378 C2375 0.999 . S
H2379 C2360 0.913 . S
H2380 C2398 0.951 . S
H2381 C2400 0.951 . S
H2382 C2402 0.950 . S
H2383 C2403 0.950 . S
H2384 C2405 0.950 . S
H2385 C2408 0.950 . S
H2386 C2409 0.950 . S
H2387 C2411 0.950 . S
H2388 C2412 0.950 . S
H2389 C2413 0.951 . S
H2390 C2415 0.951 . S
H2391 C2417 0.950 . S
H2392 C2418 0.950 . S
H2393 C2420 0.950 . S
H2394 C2423 0.950 . S
H2395 C2424 0.950 . S
H2396 C2426 0.950 . S
H2397 C2427 0.950 . S
C2398 H2380 0.951 . S
C2398 C2399 1.366 . S
C2398 C2400 1.388 . S
C2399 C2398 1.366 . S
C2399 C2403 1.385 . S
C2400 H2381 0.951 . S
C2400 C2398 1.388 . S
C2400 C2401 1.366 . S
C2401 C2400 1.366 . S
C2401 C2402 1.414 . S
C2401 C2404 1.499 . S
C2402 H2382 0.950 . S
C2402 C2401 1.414 . S
C2402 C2403 1.374 . S
C2403 H2383 0.950 . S
C2403 C2399 1.385 . S
C2403 C2402 1.374 . S
C2404 C2401 1.499 . S
C2404 C2405 1.373 . S
C2404 C2406 1.389 . S
C2405 H2384 0.950 . S
C2405 C2404 1.373 . S
C2405 C2421 1.377 . S
C2406 C2404 1.389 . S
C2406 C2407 1.524 . S
C2406 C2420 1.377 . S
C2407 C2406 1.524 . S
C2407 C2408 1.397 . S
C2407 C2412 1.363 . S
C2408 H2385 0.950 . S
C2408 C2407 1.397 . S
C2408 C2409 1.334 . S
C2409 H2386 0.950 . S
C2409 C2408 1.334 . S
C2409 C2410 1.287 . S
C2410 C2409 1.287 . S
C2410 C2411 1.524 . S
C2410 H2429 0.913 . S
C2411 H2387 0.950 . S
C2411 C2410 1.524 . S
C2411 C2412 1.415 . S
C2412 H2388 0.950 . S
C2412 C2407 1.363 . S
C2412 C2411 1.415 . S
C2413 H2389 0.951 . S
C2413 C2414 1.366 . S
C2413 C2415 1.388 . S
C2414 C2413 1.366 . S
C2414 C2418 1.385 . S
C2415 H2390 0.951 . S
C2415 C2413 1.388 . S
C2415 C2416 1.366 . S
C2416 C2415 1.366 . S
C2416 C2417 1.414 . S
C2416 C2419 1.499 . S
C2417 H2391 0.950 . S
C2417 C2416 1.414 . S
C2417 C2418 1.374 . S
C2418 H2392 0.950 . S
C2418 C2414 1.385 . S
C2418 C2417 1.374 . S
C2419 C2416 1.499 . S
C2419 C2420 1.373 . S
C2419 C2421 1.389 . S
C2420 H2393 0.950 . S
C2420 C2406 1.377 . S
C2420 C2419 1.373 . S
C2421 C2405 1.377 . S
C2421 C2419 1.389 . S
C2421 C2422 1.524 . S
C2422 C2421 1.524 . S
C2422 C2423 1.397 . S
C2422 C2427 1.363 . S
C2423 H2394 0.950 . S
C2423 C2422 1.397 . S
C2423 C2424 1.334 . S
C2424 H2395 0.950 . S
C2424 C2423 1.334 . S
C2424 C2425 1.287 . S
C2425 C2424 1.287 . S
C2425 C2426 1.524 . S
C2425 H2428 0.999 . S
C2426 H2396 0.950 . S
C2426 C2425 1.524 . S
C2426 C2427 1.415 . S
C2427 H2397 0.950 . S
C2427 C2422 1.363 . S
C2427 C2426 1.415 . S
H2428 C2425 0.999 . S
H2429 C2410 0.913 . S
H2430 C2448 0.951 . S
H2431 C2450 0.951 . S
H2432 C2452 0.950 . S
H2433 C2453 0.950 . S
H2434 C2455 0.950 . S
H2435 C2458 0.950 . S
H2436 C2459 0.950 . S
H2437 C2461 0.950 . S
H2438 C2462 0.950 . S
H2439 C2463 0.951 . S
H2440 C2465 0.951 . S
H2441 C2467 0.950 . S
H2442 C2468 0.950 . S
H2443 C2470 0.950 . S
H2444 C2473 0.950 . S
H2445 C2474 0.950 . S
H2446 C2476 0.950 . S
H2447 C2477 0.950 . S
C2448 H2430 0.951 . S
C2448 C2449 1.366 . S
C2448 C2450 1.388 . S
C2449 C2448 1.366 . S
C2449 C2453 1.385 . S
C2450 H2431 0.951 . S
C2450 C2448 1.388 . S
C2450 C2451 1.366 . S
C2451 C2450 1.366 . S
C2451 C2452 1.414 . S
C2451 C2454 1.499 . S
C2452 H2432 0.950 . S
C2452 C2451 1.414 . S
C2452 C2453 1.374 . S
C2453 H2433 0.950 . S
C2453 C2449 1.385 . S
C2453 C2452 1.374 . S
C2454 C2451 1.499 . S
C2454 C2455 1.373 . S
C2454 C2456 1.389 . S
C2455 H2434 0.950 . S
C2455 C2454 1.373 . S
C2455 C2471 1.377 . S
C2456 C2454 1.389 . S
C2456 C2457 1.524 . S
C2456 C2470 1.377 . S
C2457 C2456 1.524 . S
C2457 C2458 1.397 . S
C2457 C2462 1.363 . S
C2458 H2435 0.950 . S
C2458 C2457 1.397 . S
C2458 C2459 1.334 . S
C2459 H2436 0.950 . S
C2459 C2458 1.334 . S
C2459 C2460 1.287 . S
C2460 C2459 1.287 . S
C2460 C2461 1.524 . S
C2460 H2479 0.913 . S
C2461 H2437 0.950 . S
C2461 C2460 1.524 . S
C2461 C2462 1.415 . S
C2462 H2438 0.950 . S
C2462 C2457 1.363 . S
C2462 C2461 1.415 . S
C2463 H2439 0.951 . S
C2463 C2464 1.366 . S
C2463 C2465 1.388 . S
C2464 C2463 1.366 . S
C2464 C2468 1.385 . S
C2465 H2440 0.951 . S
C2465 C2463 1.388 . S
C2465 C2466 1.366 . S
C2466 C2465 1.366 . S
C2466 C2467 1.414 . S
C2466 C2469 1.499 . S
C2467 H2441 0.950 . S
C2467 C2466 1.414 . S
C2467 C2468 1.374 . S
C2468 H2442 0.950 . S
C2468 C2464 1.385 . S
C2468 C2467 1.374 . S
C2469 C2466 1.499 . S
C2469 C2470 1.373 . S
C2469 C2471 1.389 . S
C2470 H2443 0.950 . S
C2470 C2456 1.377 . S
C2470 C2469 1.373 . S
C2471 C2455 1.377 . S
C2471 C2469 1.389 . S
C2471 C2472 1.524 . S
C2472 C2471 1.524 . S
C2472 C2473 1.397 . S
C2472 C2477 1.363 . S
C2473 H2444 0.950 . S
C2473 C2472 1.397 . S
C2473 C2474 1.334 . S
C2474 H2445 0.950 . S
C2474 C2473 1.334 . S
C2474 C2475 1.287 . S
C2475 C2474 1.287 . S
C2475 C2476 1.524 . S
C2475 H2478 0.999 . S
C2476 H2446 0.950 . S
C2476 C2475 1.524 . S
C2476 C2477 1.415 . S
C2477 H2447 0.950 . S
C2477 C2472 1.363 . S
C2477 C2476 1.415 . S
H2478 C2475 0.999 . S
H2479 C2460 0.913 . S
H2480 C2498 0.951 . S
H2481 C2500 0.951 . S
H2482 C2502 0.950 . S
H2483 C2503 0.950 . S
H2484 C2505 0.950 . S
H2485 C2508 0.950 . S
H2486 C2509 0.950 . S
H2487 C2511 0.950 . S
H2488 C2512 0.950 . S
H2489 C2513 0.951 . S
H2490 C2515 0.951 . S
H2491 C2517 0.950 . S
H2492 C2518 0.950 . S
H2493 C2520 0.950 . S
H2494 C2523 0.950 . S
H2495 C2524 0.950 . S
H2496 C2526 0.950 . S
H2497 C2527 0.950 . S
C2498 H2480 0.951 . S
C2498 C2499 1.366 . S
C2498 C2500 1.388 . S
C2499 C2498 1.366 . S
C2499 C2503 1.385 . S
C2500 H2481 0.951 . S
C2500 C2498 1.388 . S
C2500 C2501 1.366 . S
C2501 C2500 1.366 . S
C2501 C2502 1.414 . S
C2501 C2504 1.499 . S
C2502 H2482 0.950 . S
C2502 C2501 1.414 . S
C2502 C2503 1.374 . S
C2503 H2483 0.950 . S
C2503 C2499 1.385 . S
C2503 C2502 1.374 . S
C2504 C2501 1.499 . S
C2504 C2505 1.373 . S
C2504 C2506 1.389 . S
C2505 H2484 0.950 . S
C2505 C2504 1.373 . S
C2505 C2521 1.377 . S
C2506 C2504 1.389 . S
C2506 C2507 1.524 . S
C2506 C2520 1.377 . S
C2507 C2506 1.524 . S
C2507 C2508 1.397 . S
C2507 C2512 1.363 . S
C2508 H2485 0.950 . S
C2508 C2507 1.397 . S
C2508 C2509 1.334 . S
C2509 H2486 0.950 . S
C2509 C2508 1.334 . S
C2509 C2510 1.287 . S
C2510 C2509 1.287 . S
C2510 C2511 1.524 . S
C2510 H2529 0.913 . S
C2511 H2487 0.950 . S
C2511 C2510 1.524 . S
C2511 C2512 1.415 . S
C2512 H2488 0.950 . S
C2512 C2507 1.363 . S
C2512 C2511 1.415 . S
C2513 H2489 0.951 . S
C2513 C2514 1.366 . S
C2513 C2515 1.388 . S
C2514 C2513 1.366 . S
C2514 C2518 1.385 . S
C2515 H2490 0.951 . S
C2515 C2513 1.388 . S
C2515 C2516 1.366 . S
C2516 C2515 1.366 . S
C2516 C2517 1.414 . S
C2516 C2519 1.499 . S
C2517 H2491 0.950 . S
C2517 C2516 1.414 . S
C2517 C2518 1.374 . S
C2518 H2492 0.950 . S
C2518 C2514 1.385 . S
C2518 C2517 1.374 . S
C2519 C2516 1.499 . S
C2519 C2520 1.373 . S
C2519 C2521 1.389 . S
C2520 H2493 0.950 . S
C2520 C2506 1.377 . S
C2520 C2519 1.373 . S
C2521 C2505 1.377 . S
C2521 C2519 1.389 . S
C2521 C2522 1.524 . S
C2522 C2521 1.524 . S
C2522 C2523 1.397 . S
C2522 C2527 1.363 . S
C2523 H2494 0.950 . S
C2523 C2522 1.397 . S
C2523 C2524 1.334 . S
C2524 H2495 0.950 . S
C2524 C2523 1.334 . S
C2524 C2525 1.287 . S
C2525 C2524 1.287 . S
C2525 C2526 1.524 . S
C2525 H2528 0.999 . S
C2526 H2496 0.950 . S
C2526 C2525 1.524 . S
C2526 C2527 1.415 . S
C2527 H2497 0.950 . S
C2527 C2522 1.363 . S
C2527 C2526 1.415 . S
H2528 C2525 0.999 . S
H2529 C2510 0.913 . S
H2530 C2548 0.951 . S
H2531 C2550 0.951 . S
H2532 C2552 0.950 . S
H2533 C2553 0.950 . S
H2534 C2555 0.950 . S
H2535 C2558 0.950 . S
H2536 C2559 0.950 . S
H2537 C2561 0.950 . S
H2538 C2562 0.950 . S
H2539 C2563 0.951 . S
H2540 C2565 0.951 . S
H2541 C2567 0.950 . S
H2542 C2568 0.950 . S
H2543 C2570 0.950 . S
H2544 C2573 0.950 . S
H2545 C2574 0.950 . S
H2546 C2576 0.950 . S
H2547 C2577 0.950 . S
C2548 H2530 0.951 . S
C2548 C2549 1.366 . S
C2548 C2550 1.388 . S
C2549 C2548 1.366 . S
C2549 C2553 1.385 . S
C2550 H2531 0.951 . S
C2550 C2548 1.388 . S
C2550 C2551 1.366 . S
C2551 C2550 1.366 . S
C2551 C2552 1.414 . S
C2551 C2554 1.499 . S
C2552 H2532 0.950 . S
C2552 C2551 1.414 . S
C2552 C2553 1.374 . S
C2553 H2533 0.950 . S
C2553 C2549 1.385 . S
C2553 C2552 1.374 . S
C2554 C2551 1.499 . S
C2554 C2555 1.373 . S
C2554 C2556 1.389 . S
C2555 H2534 0.950 . S
C2555 C2554 1.373 . S
C2555 C2571 1.377 . S
C2556 C2554 1.389 . S
C2556 C2557 1.524 . S
C2556 C2570 1.377 . S
C2557 C2556 1.524 . S
C2557 C2558 1.397 . S
C2557 C2562 1.363 . S
C2558 H2535 0.950 . S
C2558 C2557 1.397 . S
C2558 C2559 1.334 . S
C2559 H2536 0.950 . S
C2559 C2558 1.334 . S
C2559 C2560 1.287 . S
C2560 C2559 1.287 . S
C2560 C2561 1.524 . S
C2560 H2579 0.913 . S
C2561 H2537 0.950 . S
C2561 C2560 1.524 . S
C2561 C2562 1.415 . S
C2562 H2538 0.950 . S
C2562 C2557 1.363 . S
C2562 C2561 1.415 . S
C2563 H2539 0.951 . S
C2563 C2564 1.366 . S
C2563 C2565 1.388 . S
C2564 C2563 1.366 . S
C2564 C2568 1.385 . S
C2565 H2540 0.951 . S
C2565 C2563 1.388 . S
C2565 C2566 1.366 . S
C2566 C2565 1.366 . S
C2566 C2567 1.414 . S
C2566 C2569 1.499 . S
C2567 H2541 0.950 . S
C2567 C2566 1.414 . S
C2567 C2568 1.374 . S
C2568 H2542 0.950 . S
C2568 C2564 1.385 . S
C2568 C2567 1.374 . S
C2569 C2566 1.499 . S
C2569 C2570 1.373 . S
C2569 C2571 1.389 . S
C2570 H2543 0.950 . S
C2570 C2556 1.377 . S
C2570 C2569 1.373 . S
C2571 C2555 1.377 . S
C2571 C2569 1.389 . S
C2571 C2572 1.524 . S
C2572 C2571 1.524 . S
C2572 C2573 1.397 . S
C2572 C2577 1.363 . S
C2573 H2544 0.950 . S
C2573 C2572 1.397 . S
C2573 C2574 1.334 . S
C2574 H2545 0.950 . S
C2574 C2573 1.334 . S
C2574 C2575 1.287 . S
C2575 C2574 1.287 . S
C2575 C2576 1.524 . S
C2575 H2578 0.999 . S
C2576 H2546 0.950 . S
C2576 C2575 1.524 . S
C2576 C2577 1.415 . S
C2577 H2547 0.950 . S
C2577 C2572 1.363 . S
C2577 C2576 1.415 . S
H2578 C2575 0.999 . S
H2579 C2560 0.913 . S
H2580 C2598 0.951 . S
H2581 C2600 0.951 . S
H2582 C2602 0.950 . S
H2583 C2603 0.950 . S
H2584 C2605 0.950 . S
H2585 C2608 0.950 . S
H2586 C2609 0.950 . S
H2587 C2611 0.950 . S
H2588 C2612 0.950 . S
H2589 C2613 0.951 . S
H2590 C2615 0.951 . S
H2591 C2617 0.950 . S
H2592 C2618 0.950 . S
H2593 C2620 0.950 . S
H2594 C2623 0.950 . S
H2595 C2624 0.950 . S
H2596 C2626 0.950 . S
H2597 C2627 0.950 . S
C2598 H2580 0.951 . S
C2598 C2599 1.366 . S
C2598 C2600 1.388 . S
C2599 C2598 1.366 . S
C2599 C2603 1.385 . S
C2600 H2581 0.951 . S
C2600 C2598 1.388 . S
C2600 C2601 1.366 . S
C2601 C2600 1.366 . S
C2601 C2602 1.414 . S
C2601 C2604 1.499 . S
C2602 H2582 0.950 . S
C2602 C2601 1.414 . S
C2602 C2603 1.374 . S
C2603 H2583 0.950 . S
C2603 C2599 1.385 . S
C2603 C2602 1.374 . S
C2604 C2601 1.499 . S
C2604 C2605 1.373 . S
C2604 C2606 1.389 . S
C2605 H2584 0.950 . S
C2605 C2604 1.373 . S
C2605 C2621 1.377 . S
C2606 C2604 1.389 . S
C2606 C2607 1.524 . S
C2606 C2620 1.377 . S
C2607 C2606 1.524 . S
C2607 C2608 1.397 . S
C2607 C2612 1.363 . S
C2608 H2585 0.950 . S
C2608 C2607 1.397 . S
C2608 C2609 1.334 . S
C2609 H2586 0.950 . S
C2609 C2608 1.334 . S
C2609 C2610 1.287 . S
C2610 C2609 1.287 . S
C2610 C2611 1.524 . S
C2610 H2629 0.913 . S
C2611 H2587 0.950 . S
C2611 C2610 1.524 . S
C2611 C2612 1.415 . S
C2612 H2588 0.950 . S
C2612 C2607 1.363 . S
C2612 C2611 1.415 . S
C2613 H2589 0.951 . S
C2613 C2614 1.366 . S
C2613 C2615 1.388 . S
C2614 C2613 1.366 . S
C2614 C2618 1.385 . S
C2615 H2590 0.951 . S
C2615 C2613 1.388 . S
C2615 C2616 1.366 . S
C2616 C2615 1.366 . S
C2616 C2617 1.414 . S
C2616 C2619 1.499 . S
C2617 H2591 0.950 . S
C2617 C2616 1.414 . S
C2617 C2618 1.374 . S
C2618 H2592 0.950 . S
C2618 C2614 1.385 . S
C2618 C2617 1.374 . S
C2619 C2616 1.499 . S
C2619 C2620 1.373 . S
C2619 C2621 1.389 . S
C2620 H2593 0.950 . S
C2620 C2606 1.377 . S
C2620 C2619 1.373 . S
C2621 C2605 1.377 . S
C2621 C2619 1.389 . S
C2621 C2622 1.524 . S
C2622 C2621 1.524 . S
C2622 C2623 1.397 . S
C2622 C2627 1.363 . S
C2623 H2594 0.950 . S
C2623 C2622 1.397 . S
C2623 C2624 1.334 . S
C2624 H2595 0.950 . S
C2624 C2623 1.334 . S
C2624 C2625 1.287 . S
C2625 C2624 1.287 . S
C2625 C2626 1.524 . S
C2625 H2628 0.999 . S
C2626 H2596 0.950 . S
C2626 C2625 1.524 . S
C2626 C2627 1.415 . S
C2627 H2597 0.950 . S
C2627 C2622 1.363 . S
C2627 C2626 1.415 . S
H2628 C2625 0.999 . S
H2629 C2610 0.913 . S
H2630 C2648 0.951 . S
H2631 C2650 0.951 . S
H2632 C2652 0.950 . S
H2633 C2653 0.950 . S
H2634 C2655 0.950 . S
H2635 C2658 0.950 . S
H2636 C2659 0.950 . S
H2637 C2661 0.950 . S
H2638 C2662 0.950 . S
H2639 C2663 0.951 . S
H2640 C2665 0.951 . S
H2641 C2667 0.950 . S
H2642 C2668 0.950 . S
H2643 C2670 0.950 . S
H2644 C2673 0.950 . S
H2645 C2674 0.950 . S
H2646 C2676 0.950 . S
H2647 C2677 0.950 . S
C2648 H2630 0.951 . S
C2648 C2649 1.366 . S
C2648 C2650 1.388 . S
C2649 C2648 1.366 . S
C2649 C2653 1.385 . S
C2650 H2631 0.951 . S
C2650 C2648 1.388 . S
C2650 C2651 1.366 . S
C2651 C2650 1.366 . S
C2651 C2652 1.414 . S
C2651 C2654 1.499 . S
C2652 H2632 0.950 . S
C2652 C2651 1.414 . S
C2652 C2653 1.374 . S
C2653 H2633 0.950 . S
C2653 C2649 1.385 . S
C2653 C2652 1.374 . S
C2654 C2651 1.499 . S
C2654 C2655 1.373 . S
C2654 C2656 1.389 . S
C2655 H2634 0.950 . S
C2655 C2654 1.373 . S
C2655 C2671 1.377 . S
C2656 C2654 1.389 . S
C2656 C2657 1.524 . S
C2656 C2670 1.377 . S
C2657 C2656 1.524 . S
C2657 C2658 1.397 . S
C2657 C2662 1.363 . S
C2658 H2635 0.950 . S
C2658 C2657 1.397 . S
C2658 C2659 1.334 . S
C2659 H2636 0.950 . S
C2659 C2658 1.334 . S
C2659 C2660 1.287 . S
C2660 C2659 1.287 . S
C2660 C2661 1.524 . S
C2660 H2679 0.913 . S
C2661 H2637 0.950 . S
C2661 C2660 1.524 . S
C2661 C2662 1.415 . S
C2662 H2638 0.950 . S
C2662 C2657 1.363 . S
C2662 C2661 1.415 . S
C2663 H2639 0.951 . S
C2663 C2664 1.366 . S
C2663 C2665 1.388 . S
C2664 C2663 1.366 . S
C2664 C2668 1.385 . S
C2665 H2640 0.951 . S
C2665 C2663 1.388 . S
C2665 C2666 1.366 . S
C2666 C2665 1.366 . S
C2666 C2667 1.414 . S
C2666 C2669 1.499 . S
C2667 H2641 0.950 . S
C2667 C2666 1.414 . S
C2667 C2668 1.374 . S
C2668 H2642 0.950 . S
C2668 C2664 1.385 . S
C2668 C2667 1.374 . S
C2669 C2666 1.499 . S
C2669 C2670 1.373 . S
C2669 C2671 1.389 . S
C2670 H2643 0.950 . S
C2670 C2656 1.377 . S
C2670 C2669 1.373 . S
C2671 C2655 1.377 . S
C2671 C2669 1.389 . S
C2671 C2672 1.524 . S
C2672 C2671 1.524 . S
C2672 C2673 1.397 . S
C2672 C2677 1.363 . S
C2673 H2644 0.950 . S
C2673 C2672 1.397 . S
C2673 C2674 1.334 . S
C2674 H2645 0.950 . S
C2674 C2673 1.334 . S
C2674 C2675 1.287 . S
C2675 C2674 1.287 . S
C2675 C2676 1.524 . S
C2675 H2678 0.999 . S
C2676 H2646 0.950 . S
C2676 C2675 1.524 . S
C2676 C2677 1.415 . S
C2677 H2647 0.950 . S
C2677 C2672 1.363 . S
C2677 C2676 1.415 . S
H2678 C2675 0.999 . S
H2679 C2660 0.913 . S
H2680 C2698 0.951 . S
H2681 C2700 0.951 . S
H2682 C2702 0.950 . S
H2683 C2703 0.950 . S
H2684 C2705 0.950 . S
H2685 C2708 0.950 . S
H2686 C2709 0.950 . S
H2687 C2711 0.950 . S
H2688 C2712 0.950 . S
H2689 C2713 0.951 . S
H2690 C2715 0.951 . S
H2691 C2717 0.950 . S
H2692 C2718 0.950 . S
H2693 C2720 0.950 . S
H2694 C2723 0.950 . S
H2695 C2724 0.950 . S
H2696 C2726 0.950 . S
H2697 C2727 0.950 . S
C2698 H2680 0.951 . S
C2698 C2699 1.366 . S
C2698 C2700 1.388 . S
C2699 C2698 1.366 . S
C2699 C2703 1.385 . S
C2700 H2681 0.951 . S
C2700 C2698 1.388 . S
C2700 C2701 1.366 . S
C2701 C2700 1.366 . S
C2701 C2702 1.414 . S
C2701 C2704 1.499 . S
C2702 H2682 0.950 . S
C2702 C2701 1.414 . S
C2702 C2703 1.374 . S
C2703 H2683 0.950 . S
C2703 C2699 1.385 . S
C2703 C2702 1.374 . S
C2704 C2701 1.499 . S
C2704 C2705 1.373 . S
C2704 C2706 1.389 . S
C2705 H2684 0.950 . S
C2705 C2704 1.373 . S
C2705 C2721 1.377 . S
C2706 C2704 1.389 . S
C2706 C2707 1.524 . S
C2706 C2720 1.377 . S
C2707 C2706 1.524 . S
C2707 C2708 1.397 . S
C2707 C2712 1.363 . S
C2708 H2685 0.950 . S
C2708 C2707 1.397 . S
C2708 C2709 1.334 . S
C2709 H2686 0.950 . S
C2709 C2708 1.334 . S
C2709 C2710 1.287 . S
C2710 C2709 1.287 . S
C2710 C2711 1.524 . S
C2710 H2729 0.913 . S
C2711 H2687 0.950 . S
C2711 C2710 1.524 . S
C2711 C2712 1.415 . S
C2712 H2688 0.950 . S
C2712 C2707 1.363 . S
C2712 C2711 1.415 . S
C2713 H2689 0.951 . S
C2713 C2714 1.366 . S
C2713 C2715 1.388 . S
C2714 C2713 1.366 . S
C2714 C2718 1.385 . S
C2715 H2690 0.951 . S
C2715 C2713 1.388 . S
C2715 C2716 1.366 . S
C2716 C2715 1.366 . S
C2716 C2717 1.414 . S
C2716 C2719 1.499 . S
C2717 H2691 0.950 . S
C2717 C2716 1.414 . S
C2717 C2718 1.374 . S
C2718 H2692 0.950 . S
C2718 C2714 1.385 . S
C2718 C2717 1.374 . S
C2719 C2716 1.499 . S
C2719 C2720 1.373 . S
C2719 C2721 1.389 . S
C2720 H2693 0.950 . S
C2720 C2706 1.377 . S
C2720 C2719 1.373 . S
C2721 C2705 1.377 . S
C2721 C2719 1.389 . S
C2721 C2722 1.524 . S
C2722 C2721 1.524 . S
C2722 C2723 1.397 . S
C2722 C2727 1.363 . S
C2723 H2694 0.950 . S
C2723 C2722 1.397 . S
C2723 C2724 1.334 . S
C2724 H2695 0.950 . S
C2724 C2723 1.334 . S
C2724 C2725 1.287 . S
C2725 C2724 1.287 . S
C2725 C2726 1.524 . S
C2725 H2728 0.999 . S
C2726 H2696 0.950 . S
C2726 C2725 1.524 . S
C2726 C2727 1.415 . S
C2727 H2697 0.950 . S
C2727 C2722 1.363 . S
C2727 C2726 1.415 . S
H2728 C2725 0.999 . S
H2729 C2710 0.913 . S
H2730 C2748 0.951 . S
H2731 C2750 0.951 . S
H2732 C2752 0.950 . S
H2733 C2753 0.950 . S
H2734 C2755 0.950 . S
H2735 C2758 0.950 . S
H2736 C2759 0.950 . S
H2737 C2761 0.950 . S
H2738 C2762 0.950 . S
H2739 C2763 0.951 . S
H2740 C2765 0.951 . S
H2741 C2767 0.950 . S
H2742 C2768 0.950 . S
H2743 C2770 0.950 . S
H2744 C2773 0.950 . S
H2745 C2774 0.950 . S
H2746 C2776 0.950 . S
H2747 C2777 0.950 . S
C2748 H2730 0.951 . S
C2748 C2749 1.366 . S
C2748 C2750 1.388 . S
C2749 C2748 1.366 . S
C2749 C2753 1.385 . S
C2750 H2731 0.951 . S
C2750 C2748 1.388 . S
C2750 C2751 1.366 . S
C2751 C2750 1.366 . S
C2751 C2752 1.414 . S
C2751 C2754 1.499 . S
C2752 H2732 0.950 . S
C2752 C2751 1.414 . S
C2752 C2753 1.374 . S
C2753 H2733 0.950 . S
C2753 C2749 1.385 . S
C2753 C2752 1.374 . S
C2754 C2751 1.499 . S
C2754 C2755 1.373 . S
C2754 C2756 1.389 . S
C2755 H2734 0.950 . S
C2755 C2754 1.373 . S
C2755 C2771 1.377 . S
C2756 C2754 1.389 . S
C2756 C2757 1.524 . S
C2756 C2770 1.377 . S
C2757 C2756 1.524 . S
C2757 C2758 1.397 . S
C2757 C2762 1.363 . S
C2758 H2735 0.950 . S
C2758 C2757 1.397 . S
C2758 C2759 1.334 . S
C2759 H2736 0.950 . S
C2759 C2758 1.334 . S
C2759 C2760 1.287 . S
C2760 C2759 1.287 . S
C2760 C2761 1.524 . S
C2760 H2779 0.913 . S
C2761 H2737 0.950 . S
C2761 C2760 1.524 . S
C2761 C2762 1.415 . S
C2762 H2738 0.950 . S
C2762 C2757 1.363 . S
C2762 C2761 1.415 . S
C2763 H2739 0.951 . S
C2763 C2764 1.366 . S
C2763 C2765 1.388 . S
C2764 C2763 1.366 . S
C2764 C2768 1.385 . S
C2765 H2740 0.951 . S
C2765 C2763 1.388 . S
C2765 C2766 1.366 . S
C2766 C2765 1.366 . S
C2766 C2767 1.414 . S
C2766 C2769 1.499 . S
C2767 H2741 0.950 . S
C2767 C2766 1.414 . S
C2767 C2768 1.374 . S
C2768 H2742 0.950 . S
C2768 C2764 1.385 . S
C2768 C2767 1.374 . S
C2769 C2766 1.499 . S
C2769 C2770 1.373 . S
C2769 C2771 1.389 . S
C2770 H2743 0.950 . S
C2770 C2756 1.377 . S
C2770 C2769 1.373 . S
C2771 C2755 1.377 . S
C2771 C2769 1.389 . S
C2771 C2772 1.524 . S
C2772 C2771 1.524 . S
C2772 C2773 1.397 . S
C2772 C2777 1.363 . S
C2773 H2744 0.950 . S
C2773 C2772 1.397 . S
C2773 C2774 1.334 . S
C2774 H2745 0.950 . S
C2774 C2773 1.334 . S
C2774 C2775 1.287 . S
C2775 C2774 1.287 . S
C2775 C2776 1.524 . S
C2775 H2778 0.999 . S
C2776 H2746 0.950 . S
C2776 C2775 1.524 . S
C2776 C2777 1.415 . S
C2777 H2747 0.950 . S
C2777 C2772 1.363 . S
C2777 C2776 1.415 . S
H2778 C2775 0.999 . S
H2779 C2760 0.913 . S
H2780 C2798 0.951 . S
H2781 C2800 0.951 . S
H2782 C2802 0.950 . S
H2783 C2803 0.950 . S
H2784 C2805 0.950 . S
H2785 C2808 0.950 . S
H2786 C2809 0.950 . S
H2787 C2811 0.950 . S
H2788 C2812 0.950 . S
H2789 C2813 0.951 . S
H2790 C2815 0.951 . S
H2791 C2817 0.950 . S
H2792 C2818 0.950 . S
H2793 C2820 0.950 . S
H2794 C2823 0.950 . S
H2795 C2824 0.950 . S
H2796 C2826 0.950 . S
H2797 C2827 0.950 . S
C2798 H2780 0.951 . S
C2798 C2799 1.366 . S
C2798 C2800 1.388 . S
C2799 C2798 1.366 . S
C2799 C2803 1.385 . S
C2800 H2781 0.951 . S
C2800 C2798 1.388 . S
C2800 C2801 1.366 . S
C2801 C2800 1.366 . S
C2801 C2802 1.414 . S
C2801 C2804 1.499 . S
C2802 H2782 0.950 . S
C2802 C2801 1.414 . S
C2802 C2803 1.374 . S
C2803 H2783 0.950 . S
C2803 C2799 1.385 . S
C2803 C2802 1.374 . S
C2804 C2801 1.499 . S
C2804 C2805 1.373 . S
C2804 C2806 1.389 . S
C2805 H2784 0.950 . S
C2805 C2804 1.373 . S
C2805 C2821 1.377 . S
C2806 C2804 1.389 . S
C2806 C2807 1.524 . S
C2806 C2820 1.377 . S
C2807 C2806 1.524 . S
C2807 C2808 1.397 . S
C2807 C2812 1.363 . S
C2808 H2785 0.950 . S
C2808 C2807 1.397 . S
C2808 C2809 1.334 . S
C2809 H2786 0.950 . S
C2809 C2808 1.334 . S
C2809 C2810 1.287 . S
C2810 C2809 1.287 . S
C2810 C2811 1.524 . S
C2810 H2829 0.913 . S
C2811 H2787 0.950 . S
C2811 C2810 1.524 . S
C2811 C2812 1.415 . S
C2812 H2788 0.950 . S
C2812 C2807 1.363 . S
C2812 C2811 1.415 . S
C2813 H2789 0.951 . S
C2813 C2814 1.366 . S
C2813 C2815 1.388 . S
C2814 C2813 1.366 . S
C2814 C2818 1.385 . S
C2815 H2790 0.951 . S
C2815 C2813 1.388 . S
C2815 C2816 1.366 . S
C2816 C2815 1.366 . S
C2816 C2817 1.414 . S
C2816 C2819 1.499 . S
C2817 H2791 0.950 . S
C2817 C2816 1.414 . S
C2817 C2818 1.374 . S
C2818 H2792 0.950 . S
C2818 C2814 1.385 . S
C2818 C2817 1.374 . S
C2819 C2816 1.499 . S
C2819 C2820 1.373 . S
C2819 C2821 1.389 . S
C2820 H2793 0.950 . S
C2820 C2806 1.377 . S
C2820 C2819 1.373 . S
C2821 C2805 1.377 . S
C2821 C2819 1.389 . S
C2821 C2822 1.524 . S
C2822 C2821 1.524 . S
C2822 C2823 1.397 . S
C2822 C2827 1.363 . S
C2823 H2794 0.950 . S
C2823 C2822 1.397 . S
C2823 C2824 1.334 . S
C2824 H2795 0.950 . S
C2824 C2823 1.334 . S
C2824 C2825 1.287 . S
C2825 C2824 1.287 . S
C2825 C2826 1.524 . S
C2825 H2828 0.999 . S
C2826 H2796 0.950 . S
C2826 C2825 1.524 . S
C2826 C2827 1.415 . S
C2827 H2797 0.950 . S
C2827 C2822 1.363 . S
C2827 C2826 1.415 . S
H2828 C2825 0.999 . S
H2829 C2810 0.913 . S
H2830 C2848 0.951 . S
H2831 C2850 0.951 . S
H2832 C2852 0.950 . S
H2833 C2853 0.950 . S
H2834 C2855 0.950 . S
H2835 C2858 0.950 . S
H2836 C2859 0.950 . S
H2837 C2861 0.950 . S
H2838 C2862 0.950 . S
H2839 C2863 0.951 . S
H2840 C2865 0.951 . S
H2841 C2867 0.950 . S
H2842 C2868 0.950 . S
H2843 C2870 0.950 . S
H2844 C2873 0.950 . S
H2845 C2874 0.950 . S
H2846 C2876 0.950 . S
H2847 C2877 0.950 . S
C2848 H2830 0.951 . S
C2848 C2849 1.366 . S
C2848 C2850 1.388 . S
C2849 C2848 1.366 . S
C2849 C2853 1.385 . S
C2850 H2831 0.951 . S
C2850 C2848 1.388 . S
C2850 C2851 1.366 . S
C2851 C2850 1.366 . S
C2851 C2852 1.414 . S
C2851 C2854 1.499 . S
C2852 H2832 0.950 . S
C2852 C2851 1.414 . S
C2852 C2853 1.374 . S
C2853 H2833 0.950 . S
C2853 C2849 1.385 . S
C2853 C2852 1.374 . S
C2854 C2851 1.499 . S
C2854 C2855 1.373 . S
C2854 C2856 1.389 . S
C2855 H2834 0.950 . S
C2855 C2854 1.373 . S
C2855 C2871 1.377 . S
C2856 C2854 1.389 . S
C2856 C2857 1.524 . S
C2856 C2870 1.377 . S
C2857 C2856 1.524 . S
C2857 C2858 1.397 . S
C2857 C2862 1.363 . S
C2858 H2835 0.950 . S
C2858 C2857 1.397 . S
C2858 C2859 1.334 . S
C2859 H2836 0.950 . S
C2859 C2858 1.334 . S
C2859 C2860 1.287 . S
C2860 C2859 1.287 . S
C2860 C2861 1.524 . S
C2860 H2879 0.913 . S
C2861 H2837 0.950 . S
C2861 C2860 1.524 . S
C2861 C2862 1.415 . S
C2862 H2838 0.950 . S
C2862 C2857 1.363 . S
C2862 C2861 1.415 . S
C2863 H2839 0.951 . S
C2863 C2864 1.366 . S
C2863 C2865 1.388 . S
C2864 C2863 1.366 . S
C2864 C2868 1.385 . S
C2865 H2840 0.951 . S
C2865 C2863 1.388 . S
C2865 C2866 1.366 . S
C2866 C2865 1.366 . S
C2866 C2867 1.414 . S
C2866 C2869 1.499 . S
C2867 H2841 0.950 . S
C2867 C2866 1.414 . S
C2867 C2868 1.374 . S
C2868 H2842 0.950 . S
C2868 C2864 1.385 . S
C2868 C2867 1.374 . S
C2869 C2866 1.499 . S
C2869 C2870 1.373 . S
C2869 C2871 1.389 . S
C2870 H2843 0.950 . S
C2870 C2856 1.377 . S
C2870 C2869 1.373 . S
C2871 C2855 1.377 . S
C2871 C2869 1.389 . S
C2871 C2872 1.524 . S
C2872 C2871 1.524 . S
C2872 C2873 1.397 . S
C2872 C2877 1.363 . S
C2873 H2844 0.950 . S
C2873 C2872 1.397 . S
C2873 C2874 1.334 . S
C2874 H2845 0.950 . S
C2874 C2873 1.334 . S
C2874 C2875 1.287 . S
C2875 C2874 1.287 . S
C2875 C2876 1.524 . S
C2875 H2878 0.999 . S
C2876 H2846 0.950 . S
C2876 C2875 1.524 . S
C2876 C2877 1.415 . S
C2877 H2847 0.950 . S
C2877 C2872 1.363 . S
C2877 C2876 1.415 . S
H2878 C2875 0.999 . S
H2879 C2860 0.913 . S
H2880 C2898 0.951 . S
H2881 C2900 0.951 . S
H2882 C2902 0.950 . S
H2883 C2903 0.950 . S
H2884 C2905 0.950 . S
H2885 C2908 0.950 . S
H2886 C2909 0.950 . S
H2887 C2911 0.950 . S
H2888 C2912 0.950 . S
H2889 C2913 0.951 . S
H2890 C2915 0.951 . S
H2891 C2917 0.950 . S
H2892 C2918 0.950 . S
H2893 C2920 0.950 . S
H2894 C2923 0.950 . S
H2895 C2924 0.950 . S
H2896 C2926 0.950 . S
H2897 C2927 0.950 . S
C2898 H2880 0.951 . S
C2898 C2899 1.366 . S
C2898 C2900 1.388 . S
C2899 C2898 1.366 . S
C2899 C2903 1.385 . S
C2900 H2881 0.951 . S
C2900 C2898 1.388 . S
C2900 C2901 1.366 . S
C2901 C2900 1.366 . S
C2901 C2902 1.414 . S
C2901 C2904 1.499 . S
C2902 H2882 0.950 . S
C2902 C2901 1.414 . S
C2902 C2903 1.374 . S
C2903 H2883 0.950 . S
C2903 C2899 1.385 . S
C2903 C2902 1.374 . S
C2904 C2901 1.499 . S
C2904 C2905 1.373 . S
C2904 C2906 1.389 . S
C2905 H2884 0.950 . S
C2905 C2904 1.373 . S
C2905 C2921 1.377 . S
C2906 C2904 1.389 . S
C2906 C2907 1.524 . S
C2906 C2920 1.377 . S
C2907 C2906 1.524 . S
C2907 C2908 1.397 . S
C2907 C2912 1.363 . S
C2908 H2885 0.950 . S
C2908 C2907 1.397 . S
C2908 C2909 1.334 . S
C2909 H2886 0.950 . S
C2909 C2908 1.334 . S
C2909 C2910 1.287 . S
C2910 C2909 1.287 . S
C2910 C2911 1.524 . S
C2910 H2929 0.913 . S
C2911 H2887 0.950 . S
C2911 C2910 1.524 . S
C2911 C2912 1.415 . S
C2912 H2888 0.950 . S
C2912 C2907 1.363 . S
C2912 C2911 1.415 . S
C2913 H2889 0.951 . S
C2913 C2914 1.366 . S
C2913 C2915 1.388 . S
C2914 C2913 1.366 . S
C2914 C2918 1.385 . S
C2915 H2890 0.951 . S
C2915 C2913 1.388 . S
C2915 C2916 1.366 . S
C2916 C2915 1.366 . S
C2916 C2917 1.414 . S
C2916 C2919 1.499 . S
C2917 H2891 0.950 . S
C2917 C2916 1.414 . S
C2917 C2918 1.374 . S
C2918 H2892 0.950 . S
C2918 C2914 1.385 . S
C2918 C2917 1.374 . S
C2919 C2916 1.499 . S
C2919 C2920 1.373 . S
C2919 C2921 1.389 . S
C2920 H2893 0.950 . S
C2920 C2906 1.377 . S
C2920 C2919 1.373 . S
C2921 C2905 1.377 . S
C2921 C2919 1.389 . S
C2921 C2922 1.524 . S
C2922 C2921 1.524 . S
C2922 C2923 1.397 . S
C2922 C2927 1.363 . S
C2923 H2894 0.950 . S
C2923 C2922 1.397 . S
C2923 C2924 1.334 . S
C2924 H2895 0.950 . S
C2924 C2923 1.334 . S
C2924 C2925 1.287 . S
C2925 C2924 1.287 . S
C2925 C2926 1.524 . S
C2925 H2928 0.999 . S
C2926 H2896 0.950 . S
C2926 C2925 1.524 . S
C2926 C2927 1.415 . S
C2927 H2897 0.950 . S
C2927 C2922 1.363 . S
C2927 C2926 1.415 . S
H2928 C2925 0.999 . S
H2929 C2910 0.913 . S
H2930 C2948 0.951 . S
H2931 C2950 0.951 . S
H2932 C2952 0.950 . S
H2933 C2953 0.950 . S
H2934 C2955 0.950 . S
H2935 C2958 0.950 . S
H2936 C2959 0.950 . S
H2937 C2961 0.950 . S
H2938 C2962 0.950 . S
H2939 C2963 0.951 . S
H2940 C2965 0.951 . S
H2941 C2967 0.950 . S
H2942 C2968 0.950 . S
H2943 C2970 0.950 . S
H2944 C2973 0.950 . S
H2945 C2974 0.950 . S
H2946 C2976 0.950 . S
H2947 C2977 0.950 . S
C2948 H2930 0.951 . S
C2948 C2949 1.366 . S
C2948 C2950 1.388 . S
C2949 C2948 1.366 . S
C2949 C2953 1.385 . S
C2950 H2931 0.951 . S
C2950 C2948 1.388 . S
C2950 C2951 1.366 . S
C2951 C2950 1.366 . S
C2951 C2952 1.414 . S
C2951 C2954 1.499 . S
C2952 H2932 0.950 . S
C2952 C2951 1.414 . S
C2952 C2953 1.374 . S
C2953 H2933 0.950 . S
C2953 C2949 1.385 . S
C2953 C2952 1.374 . S
C2954 C2951 1.499 . S
C2954 C2955 1.373 . S
C2954 C2956 1.389 . S
C2955 H2934 0.950 . S
C2955 C2954 1.373 . S
C2955 C2971 1.377 . S
C2956 C2954 1.389 . S
C2956 C2957 1.524 . S
C2956 C2970 1.377 . S
C2957 C2956 1.524 . S
C2957 C2958 1.397 . S
C2957 C2962 1.363 . S
C2958 H2935 0.950 . S
C2958 C2957 1.397 . S
C2958 C2959 1.334 . S
C2959 H2936 0.950 . S
C2959 C2958 1.334 . S
C2959 C2960 1.287 . S
C2960 C2959 1.287 . S
C2960 C2961 1.524 . S
C2960 H2979 0.913 . S
C2961 H2937 0.950 . S
C2961 C2960 1.524 . S
C2961 C2962 1.415 . S
C2962 H2938 0.950 . S
C2962 C2957 1.363 . S
C2962 C2961 1.415 . S
C2963 H2939 0.951 . S
C2963 C2964 1.366 . S
C2963 C2965 1.388 . S
C2964 C2963 1.366 . S
C2964 C2968 1.385 . S
C2965 H2940 0.951 . S
C2965 C2963 1.388 . S
C2965 C2966 1.366 . S
C2966 C2965 1.366 . S
C2966 C2967 1.414 . S
C2966 C2969 1.499 . S
C2967 H2941 0.950 . S
C2967 C2966 1.414 . S
C2967 C2968 1.374 . S
C2968 H2942 0.950 . S
C2968 C2964 1.385 . S
C2968 C2967 1.374 . S
C2969 C2966 1.499 . S
C2969 C2970 1.373 . S
C2969 C2971 1.389 . S
C2970 H2943 0.950 . S
C2970 C2956 1.377 . S
C2970 C2969 1.373 . S
C2971 C2955 1.377 . S
C2971 C2969 1.389 . S
C2971 C2972 1.524 . S
C2972 C2971 1.524 . S
C2972 C2973 1.397 . S
C2972 C2977 1.363 . S
C2973 H2944 0.950 . S
C2973 C2972 1.397 . S
C2973 C2974 1.334 . S
C2974 H2945 0.950 . S
C2974 C2973 1.334 . S
C2974 C2975 1.287 . S
C2975 C2974 1.287 . S
C2975 C2976 1.524 . S
C2975 H2978 0.999 . S
C2976 H2946 0.950 . S
C2976 C2975 1.524 . S
C2976 C2977 1.415 . S
C2977 H2947 0.950 . S
C2977 C2972 1.363 . S
C2977 C2976 1.415 . S
H2978 C2975 0.999 . S
H2979 C2960 0.913 . S
H2980 C2998 0.951 . S
H2981 C3000 0.951 . S
H2982 C3002 0.950 . S
H2983 C3003 0.950 . S
H2984 C3005 0.950 . S
H2985 C3008 0.950 . S
H2986 C3009 0.950 . S
H2987 C3011 0.950 . S
H2988 C3012 0.950 . S
H2989 C3013 0.951 . S
H2990 C3015 0.951 . S
H2991 C3017 0.950 . S
H2992 C3018 0.950 . S
H2993 C3020 0.950 . S
H2994 C3023 0.950 . S
H2995 C3024 0.950 . S
H2996 C3026 0.950 . S
H2997 C3027 0.950 . S
C2998 H2980 0.951 . S
C2998 C2999 1.366 . S
C2998 C3000 1.388 . S
C2999 C2998 1.366 . S
C2999 C3003 1.385 . S
C3000 H2981 0.951 . S
C3000 C2998 1.388 . S
C3000 C3001 1.366 . S
C3001 C3000 1.366 . S
C3001 C3002 1.414 . S
C3001 C3004 1.499 . S
C3002 H2982 0.950 . S
C3002 C3001 1.414 . S
C3002 C3003 1.374 . S
C3003 H2983 0.950 . S
C3003 C2999 1.385 . S
C3003 C3002 1.374 . S
C3004 C3001 1.499 . S
C3004 C3005 1.373 . S
C3004 C3006 1.389 . S
C3005 H2984 0.950 . S
C3005 C3004 1.373 . S
C3005 C3021 1.377 . S
C3006 C3004 1.389 . S
C3006 C3007 1.524 . S
C3006 C3020 1.377 . S
C3007 C3006 1.524 . S
C3007 C3008 1.397 . S
C3007 C3012 1.363 . S
C3008 H2985 0.950 . S
C3008 C3007 1.397 . S
C3008 C3009 1.334 . S
C3009 H2986 0.950 . S
C3009 C3008 1.334 . S
C3009 C3010 1.287 . S
C3010 C3009 1.287 . S
C3010 C3011 1.524 . S
C3010 H3029 0.913 . S
C3011 H2987 0.950 . S
C3011 C3010 1.524 . S
C3011 C3012 1.415 . S
C3012 H2988 0.950 . S
C3012 C3007 1.363 . S
C3012 C3011 1.415 . S
C3013 H2989 0.951 . S
C3013 C3014 1.366 . S
C3013 C3015 1.388 . S
C3014 C3013 1.366 . S
C3014 C3018 1.385 . S
C3015 H2990 0.951 . S
C3015 C3013 1.388 . S
C3015 C3016 1.366 . S
C3016 C3015 1.366 . S
C3016 C3017 1.414 . S
C3016 C3019 1.499 . S
C3017 H2991 0.950 . S
C3017 C3016 1.414 . S
C3017 C3018 1.374 . S
C3018 H2992 0.950 . S
C3018 C3014 1.385 . S
C3018 C3017 1.374 . S
C3019 C3016 1.499 . S
C3019 C3020 1.373 . S
C3019 C3021 1.389 . S
C3020 H2993 0.950 . S
C3020 C3006 1.377 . S
C3020 C3019 1.373 . S
C3021 C3005 1.377 . S
C3021 C3019 1.389 . S
C3021 C3022 1.524 . S
C3022 C3021 1.524 . S
C3022 C3023 1.397 . S
C3022 C3027 1.363 . S
C3023 H2994 0.950 . S
C3023 C3022 1.397 . S
C3023 C3024 1.334 . S
C3024 H2995 0.950 . S
C3024 C3023 1.334 . S
C3024 C3025 1.287 . S
C3025 C3024 1.287 . S
C3025 C3026 1.524 . S
C3025 H3028 0.999 . S
C3026 H2996 0.950 . S
C3026 C3025 1.524 . S
C3026 C3027 1.415 . S
C3027 H2997 0.950 . S
C3027 C3022 1.363 . S
C3027 C3026 1.415 . S
H3028 C3025 0.999 . S
H3029 C3010 0.913 . S
H3030 C3048 0.951 . S
H3031 C3050 0.951 . S
H3032 C3052 0.950 . S
H3033 C3053 0.950 . S
H3034 C3055 0.950 . S
H3035 C3058 0.950 . S
H3036 C3059 0.950 . S
H3037 C3061 0.943 1_554 S
H3038 C3062 0.950 . S
H3039 C3063 0.951 . S
H3040 C3065 0.951 . S
H3041 C3067 0.950 . S
H3042 C3068 0.950 . S
H3043 C3070 0.950 . S
H3044 C3073 0.950 . S
H3045 C3074 0.950 . S
H3046 C3076 0.950 . S
H3047 C3077 0.950 . S
C3048 H3030 0.951 . S
C3048 C3049 1.366 . S
C3048 C3050 1.388 . S
C3049 C3048 1.366 . S
C3049 C3053 1.385 . S
C3050 H3031 0.951 . S
C3050 C3048 1.388 . S
C3050 C3051 1.366 . S
C3051 C3050 1.366 . S
C3051 C3052 1.414 . S
C3051 C3054 1.499 . S
C3052 H3032 0.950 . S
C3052 C3051 1.414 . S
C3052 C3053 1.374 . S
C3053 H3033 0.950 . S
C3053 C3049 1.385 . S
C3053 C3052 1.374 . S
C3054 C3051 1.499 . S
C3054 C3055 1.373 . S
C3054 C3056 1.389 . S
C3055 H3034 0.950 . S
C3055 C3054 1.373 . S
C3055 C3071 1.377 . S
C3056 C3054 1.389 . S
C3056 C3057 1.524 . S
C3056 C3070 1.377 . S
C3057 C3056 1.524 . S
C3057 C3058 1.397 . S
C3057 C3062 1.363 . S
C3058 H3035 0.950 . S
C3058 C3057 1.397 . S
C3058 C3059 1.334 1_556 S
C3059 H3036 0.950 . S
C3059 C3058 1.334 1_554 S
C3059 C3060 1.287 . S
C3060 C3059 1.287 . S
C3060 C3061 1.486 1_554 S
C3060 H3079 0.913 . S
C3061 H3037 0.943 1_556 S
C3061 C3060 1.486 1_556 S
C3061 C3062 1.463 . S
C3062 H3038 0.950 . S
C3062 C3057 1.363 . S
C3062 C3061 1.463 . S
C3063 H3039 0.951 . S
C3063 C3064 1.366 . S
C3063 C3065 1.388 . S
C3064 C3063 1.366 . S
C3064 C3068 1.385 . S
C3065 H3040 0.951 . S
C3065 C3063 1.388 . S
C3065 C3066 1.366 . S
C3066 C3065 1.366 . S
C3066 C3067 1.414 . S
C3066 C3069 1.499 . S
C3067 H3041 0.950 . S
C3067 C3066 1.414 . S
C3067 C3068 1.374 . S
C3068 H3042 0.950 . S
C3068 C3064 1.385 . S
C3068 C3067 1.374 . S
C3069 C3066 1.499 . S
C3069 C3070 1.373 . S
C3069 C3071 1.389 . S
C3070 H3043 0.950 . S
C3070 C3056 1.377 . S
C3070 C3069 1.373 . S
C3071 C3055 1.377 . S
C3071 C3069 1.389 . S
C3071 C3072 1.524 . S
C3072 C3071 1.524 . S
C3072 C3073 1.397 . S
C3072 C3077 1.363 . S
C3073 H3044 0.950 . S
C3073 C3072 1.397 . S
C3073 C3074 1.334 . S
C3074 H3045 0.950 . S
C3074 C3073 1.334 . S
C3074 C3075 1.287 . S
C3075 C3074 1.287 . S
C3075 C3076 1.524 . S
C3075 H3078 0.999 . S
C3076 H3046 0.950 . S
C3076 C3075 1.524 . S
C3076 C3077 1.415 . S
C3077 H3047 0.950 . S
C3077 C3072 1.363 . S
C3077 C3076 1.415 . S
H3078 C3075 0.999 . S
H3079 C3060 0.913 . S
H3080 C3098 0.951 . S
H3081 C3100 0.951 . S
H3082 C3102 0.950 . S
H3083 C3103 0.950 . S
H3084 C3105 0.950 . S
H3085 C3108 0.950 . S
H3086 C3109 0.950 . S
H3087 C3111 0.952 . S
H3088 C3112 0.950 . S
H3089 C3113 0.951 . S
H3090 C3115 0.951 . S
H3091 C3117 0.950 . S
H3092 C3118 0.950 . S
H3093 C3120 0.950 . S
H3094 C3123 0.950 . S
H3095 C3124 0.950 . S
H3096 C3126 0.950 . S
H3097 C3127 0.950 . S
C3098 H3080 0.951 . S
C3098 C3099 1.366 . S
C3098 C3100 1.388 . S
C3099 C3098 1.366 . S
C3099 C3103 1.385 . S
C3100 H3081 0.951 . S
C3100 C3098 1.388 . S
C3100 C3101 1.366 . S
C3101 C3100 1.366 . S
C3101 C3102 1.414 . S
C3101 C3104 1.499 . S
C3102 H3082 0.950 . S
C3102 C3101 1.414 . S
C3102 C3103 1.374 . S
C3103 H3083 0.950 . S
C3103 C3099 1.385 . S
C3103 C3102 1.374 . S
C3104 C3101 1.499 . S
C3104 C3105 1.373 . S
C3104 C3106 1.389 . S
C3105 H3084 0.950 . S
C3105 C3104 1.373 . S
C3105 C3121 1.377 . S
C3106 C3104 1.389 . S
C3106 C3107 1.524 . S
C3106 C3120 1.377 . S
C3107 C3106 1.524 . S
C3107 C3108 1.397 . S
C3107 C3112 1.363 . S
C3108 H3085 0.950 . S
C3108 C3107 1.397 . S
C3108 C3109 1.334 1_556 S
C3109 H3086 0.950 . S
C3109 C3108 1.334 1_554 S
C3109 C3110 1.287 . S
C3110 C3109 1.287 . S
C3110 C3111 1.537 . S
C3110 H3129 0.913 . S
C3111 H3087 0.952 . S
C3111 C3110 1.537 . S
C3111 C3112 1.400 1_554 S
C3112 H3088 0.950 . S
C3112 C3107 1.363 . S
C3112 C3111 1.400 1_556 S
C3113 H3089 0.951 . S
C3113 C3114 1.366 . S
C3113 C3115 1.388 . S
C3114 C3113 1.366 . S
C3114 C3118 1.385 . S
C3115 H3090 0.951 . S
C3115 C3113 1.388 . S
C3115 C3116 1.366 . S
C3116 C3115 1.366 . S
C3116 C3117 1.414 . S
C3116 C3119 1.499 . S
C3117 H3091 0.950 . S
C3117 C3116 1.414 . S
C3117 C3118 1.374 . S
C3118 H3092 0.950 . S
C3118 C3114 1.385 . S
C3118 C3117 1.374 . S
C3119 C3116 1.499 . S
C3119 C3120 1.373 . S
C3119 C3121 1.389 . S
C3120 H3093 0.950 . S
C3120 C3106 1.377 . S
C3120 C3119 1.373 . S
C3121 C3105 1.377 . S
C3121 C3119 1.389 . S
C3121 C3122 1.524 . S
C3122 C3121 1.524 . S
C3122 C3123 1.397 . S
C3122 C3127 1.363 . S
C3123 H3094 0.950 . S
C3123 C3122 1.397 . S
C3123 C3124 1.334 . S
C3124 H3095 0.950 . S
C3124 C3123 1.334 . S
C3124 C3125 1.287 . S
C3125 C3124 1.287 . S
C3125 C3126 1.524 . S
C3125 H3128 0.999 . S
C3126 H3096 0.950 . S
C3126 C3125 1.524 . S
C3126 C3127 1.415 . S
C3127 H3097 0.950 . S
C3127 C3122 1.363 . S
C3127 C3126 1.415 . S
H3128 C3125 0.999 . S
H3129 C3110 0.913 . S
H3130 C3148 0.951 1_554 S
H3131 C3150 0.951 . S
H3132 C3152 0.950 . S
H3133 C3153 0.950 . S
H3134 C3155 0.950 . S
H3135 C3158 0.950 . S
H3136 C3159 0.950 . S
H3137 C3161 0.950 . S
H3138 C3162 0.950 . S
H3139 C3163 0.951 . S
H3140 C3165 0.951 . S
H3141 C3167 0.950 . S
H3142 C3168 0.950 . S
H3143 C3170 0.950 . S
H3144 C3173 0.950 . S
H3145 C3174 0.950 . S
H3146 C3176 0.950 . S
H3147 C3177 0.950 . S
C3148 H3130 0.951 1_556 S
C3148 C3149 1.366 . S
C3148 C3150 1.388 . S
C3149 C3148 1.366 . S
C3149 C3153 1.385 . S
C3150 H3131 0.951 . S
C3150 C3148 1.388 . S
C3150 C3151 1.366 . S
C3151 C3150 1.366 . S
C3151 C3152 1.414 . S
C3151 C3154 1.499 . S
C3152 H3132 0.950 . S
C3152 C3151 1.414 . S
C3152 C3153 1.374 . S
C3153 H3133 0.950 . S
C3153 C3149 1.385 . S
C3153 C3152 1.374 . S
C3154 C3151 1.499 . S
C3154 C3155 1.373 . S
C3154 C3156 1.389 . S
C3155 H3134 0.950 . S
C3155 C3154 1.373 . S
C3155 C3171 1.377 . S
C3156 C3154 1.389 . S
C3156 C3157 1.524 . S
C3156 C3170 1.377 . S
C3157 C3156 1.524 . S
C3157 C3158 1.397 . S
C3157 C3162 1.363 . S
C3158 H3135 0.950 . S
C3158 C3157 1.397 . S
C3158 C3159 1.334 . S
C3159 H3136 0.950 . S
C3159 C3158 1.334 . S
C3159 C3160 1.287 . S
C3160 C3159 1.287 . S
C3160 C3161 1.524 . S
C3160 H3179 0.913 . S
C3161 H3137 0.950 . S
C3161 C3160 1.524 . S
C3161 C3162 1.415 . S
C3162 H3138 0.950 . S
C3162 C3157 1.363 . S
C3162 C3161 1.415 . S
C3163 H3139 0.951 . S
C3163 C3164 1.366 . S
C3163 C3165 1.388 . S
C3164 C3163 1.366 . S
C3164 C3168 1.385 . S
C3165 H3140 0.951 . S
C3165 C3163 1.388 . S
C3165 C3166 1.366 . S
C3166 C3165 1.366 . S
C3166 C3167 1.414 . S
C3166 C3169 1.499 . S
C3167 H3141 0.950 . S
C3167 C3166 1.414 . S
C3167 C3168 1.374 . S
C3168 H3142 0.950 . S
C3168 C3164 1.385 . S
C3168 C3167 1.374 . S
C3169 C3166 1.499 . S
C3169 C3170 1.373 . S
C3169 C3171 1.389 . S
C3170 H3143 0.950 . S
C3170 C3156 1.377 . S
C3170 C3169 1.373 . S
C3171 C3155 1.377 . S
C3171 C3169 1.389 . S
C3171 C3172 1.524 . S
C3172 C3171 1.524 . S
C3172 C3173 1.397 . S
C3172 C3177 1.363 . S
C3173 H3144 0.950 . S
C3173 C3172 1.397 . S
C3173 C3174 1.334 . S
C3174 H3145 0.950 . S
C3174 C3173 1.334 . S
C3174 C3175 1.287 . S
C3175 C3174 1.287 . S
C3175 C3176 1.524 . S
C3175 H3178 0.999 . S
C3176 H3146 0.950 . S
C3176 C3175 1.524 . S
C3176 C3177 1.415 . S
C3177 H3147 0.950 . S
C3177 C3172 1.363 . S
C3177 C3176 1.415 . S
H3178 C3175 0.999 . S
H3179 C3160 0.913 . S
H3180 C3198 0.951 1_554 S
H3181 C3200 0.951 . S
H3182 C3202 0.950 . S
H3183 C3203 0.950 . S
H3184 C3205 0.950 . S
H3185 C3208 0.950 . S
H3186 C3209 0.950 . S
H3187 C3211 0.950 . S
H3188 C3212 0.950 . S
H3189 C3213 0.951 . S
H3190 C3215 0.951 . S
H3191 C3217 0.950 . S
H3192 C3218 0.950 . S
H3193 C3220 0.950 . S
H3194 C3223 0.950 . S
H3195 C3224 0.950 . S
H3196 C3226 0.950 . S
H3197 C3227 0.950 . S
C3198 H3180 0.951 1_556 S
C3198 C3199 1.366 . S
C3198 C3200 1.388 . S
C3199 C3198 1.366 . S
C3199 C3203 1.385 . S
C3200 H3181 0.951 . S
C3200 C3198 1.388 . S
C3200 C3201 1.366 . S
C3201 C3200 1.366 . S
C3201 C3202 1.414 . S
C3201 C3204 1.499 . S
C3202 H3182 0.950 . S
C3202 C3201 1.414 . S
C3202 C3203 1.374 . S
C3203 H3183 0.950 . S
C3203 C3199 1.385 . S
C3203 C3202 1.374 . S
C3204 C3201 1.499 . S
C3204 C3205 1.373 . S
C3204 C3206 1.389 . S
C3205 H3184 0.950 . S
C3205 C3204 1.373 . S
C3205 C3221 1.377 . S
C3206 C3204 1.389 . S
C3206 C3207 1.524 . S
C3206 C3220 1.377 . S
C3207 C3206 1.524 . S
C3207 C3208 1.397 . S
C3207 C3212 1.363 . S
C3208 H3185 0.950 . S
C3208 C3207 1.397 . S
C3208 C3209 1.334 . S
C3209 H3186 0.950 . S
C3209 C3208 1.334 . S
C3209 C3210 1.287 1_556 S
C3210 C3209 1.287 1_554 S
C3210 C3211 1.524 . S
C3210 H3229 0.913 . S
C3211 H3187 0.950 . S
C3211 C3210 1.524 . S
C3211 C3212 1.415 1_554 S
C3212 H3188 0.950 . S
C3212 C3207 1.363 . S
C3212 C3211 1.415 1_556 S
C3213 H3189 0.951 . S
C3213 C3214 1.366 . S
C3213 C3215 1.388 . S
C3214 C3213 1.366 . S
C3214 C3218 1.385 . S
C3215 H3190 0.951 . S
C3215 C3213 1.388 . S
C3215 C3216 1.366 . S
C3216 C3215 1.366 . S
C3216 C3217 1.414 . S
C3216 C3219 1.499 . S
C3217 H3191 0.950 . S
C3217 C3216 1.414 . S
C3217 C3218 1.374 . S
C3218 H3192 0.950 . S
C3218 C3214 1.385 . S
C3218 C3217 1.374 . S
C3219 C3216 1.499 . S
C3219 C3220 1.373 . S
C3219 C3221 1.389 . S
C3220 H3193 0.950 . S
C3220 C3206 1.377 . S
C3220 C3219 1.373 . S
C3221 C3205 1.377 . S
C3221 C3219 1.389 . S
C3221 C3222 1.524 . S
C3222 C3221 1.524 . S
C3222 C3223 1.397 . S
C3222 C3227 1.363 . S
C3223 H3194 0.950 . S
C3223 C3222 1.397 . S
C3223 C3224 1.334 . S
C3224 H3195 0.950 . S
C3224 C3223 1.334 . S
C3224 C3225 1.287 . S
C3225 C3224 1.287 . S
C3225 C3226 1.524 . S
C3225 H3228 0.999 . S
C3226 H3196 0.950 . S
C3226 C3225 1.524 . S
C3226 C3227 1.415 . S
C3227 H3197 0.950 . S
C3227 C3222 1.363 . S
C3227 C3226 1.415 . S
H3228 C3225 0.999 . S
H3229 C3210 0.913 . S
H3230 C3248 0.951 . S
H3231 C3250 0.951 . S
H3232 C3252 0.950 . S
H3233 C3253 0.950 . S
H3234 C3255 0.950 . S
H3235 C3258 0.950 . S
H3236 C3259 0.950 . S
H3237 C3261 0.950 . S
H3238 C3262 0.950 . S
H3239 C3263 0.951 . S
H3240 C3265 0.951 . S
H3241 C3267 0.950 . S
H3242 C3268 0.950 . S
H3243 C3270 0.950 . S
H3244 C3273 0.950 . S
H3245 C3274 0.950 . S
H3246 C3276 0.950 . S
H3247 C3277 0.950 . S
C3248 H3230 0.951 . S
C3248 C3249 1.366 . S
C3248 C3250 1.388 . S
C3249 C3248 1.366 . S
C3249 C3253 1.385 . S
C3250 H3231 0.951 . S
C3250 C3248 1.388 . S
C3250 C3251 1.366 . S
C3251 C3250 1.366 . S
C3251 C3252 1.414 . S
C3251 C3254 1.499 . S
C3252 H3232 0.950 . S
C3252 C3251 1.414 . S
C3252 C3253 1.374 . S
C3253 H3233 0.950 . S
C3253 C3249 1.385 . S
C3253 C3252 1.374 . S
C3254 C3251 1.499 . S
C3254 C3255 1.373 . S
C3254 C3256 1.389 . S
C3255 H3234 0.950 . S
C3255 C3254 1.373 . S
C3255 C3271 1.377 . S
C3256 C3254 1.389 . S
C3256 C3257 1.524 . S
C3256 C3270 1.377 . S
C3257 C3256 1.524 . S
C3257 C3258 1.397 . S
C3257 C3262 1.363 . S
C3258 H3235 0.950 . S
C3258 C3257 1.397 . S
C3258 C3259 1.334 . S
C3259 H3236 0.950 . S
C3259 C3258 1.334 . S
C3259 C3260 1.287 . S
C3260 C3259 1.287 . S
C3260 C3261 1.524 . S
C3260 H3279 0.913 . S
C3261 H3237 0.950 . S
C3261 C3260 1.524 . S
C3261 C3262 1.415 . S
C3262 H3238 0.950 . S
C3262 C3257 1.363 . S
C3262 C3261 1.415 . S
C3263 H3239 0.951 . S
C3263 C3264 1.366 . S
C3263 C3265 1.388 . S
C3264 C3263 1.366 . S
C3264 C3268 1.385 . S
C3265 H3240 0.951 . S
C3265 C3263 1.388 . S
C3265 C3266 1.366 . S
C3266 C3265 1.366 . S
C3266 C3267 1.414 . S
C3266 C3269 1.499 . S
C3267 H3241 0.950 . S
C3267 C3266 1.414 . S
C3267 C3268 1.374 . S
C3268 H3242 0.950 . S
C3268 C3264 1.385 . S
C3268 C3267 1.374 . S
C3269 C3266 1.499 . S
C3269 C3270 1.373 . S
C3269 C3271 1.389 . S
C3270 H3243 0.950 . S
C3270 C3256 1.377 . S
C3270 C3269 1.373 . S
C3271 C3255 1.377 . S
C3271 C3269 1.389 . S
C3271 C3272 1.524 . S
C3272 C3271 1.524 . S
C3272 C3273 1.397 . S
C3272 C3277 1.363 . S
C3273 H3244 0.950 . S
C3273 C3272 1.397 . S
C3273 C3274 1.334 . S
C3274 H3245 0.950 . S
C3274 C3273 1.334 . S
C3274 C3275 1.287 . S
C3275 C3274 1.287 . S
C3275 C3276 1.524 . S
C3275 H3278 0.999 . S
C3276 H3246 0.950 . S
C3276 C3275 1.524 . S
C3276 C3277 1.415 . S
C3277 H3247 0.950 . S
C3277 C3272 1.363 . S
C3277 C3276 1.415 . S
H3278 C3275 0.999 . S
H3279 C3260 0.913 . S
H3280 C3298 0.951 . S
H3281 C3300 0.951 . S
H3282 C3302 0.950 . S
H3283 C3303 0.950 1_554 S
H3284 C3305 0.950 . S
H3285 C3308 0.950 . S
H3286 C3309 0.950 . S
H3287 C3311 0.950 . S
H3288 C3312 0.950 . S
H3289 C3313 0.951 . S
H3290 C3315 0.951 . S
H3291 C3317 0.950 . S
H3292 C3318 0.950 . S
H3293 C3320 0.950 . S
H3294 C3323 0.950 . S
H3295 C3324 0.950 . S
H3296 C3326 0.950 . S
H3297 C3327 0.950 . S
C3298 H3280 0.951 . S
C3298 C3299 1.366 . S
C3298 C3300 1.388 . S
C3299 C3298 1.366 . S
C3299 C3303 1.385 . S
C3300 H3281 0.951 . S
C3300 C3298 1.388 . S
C3300 C3301 1.366 . S
C3301 C3300 1.366 . S
C3301 C3302 1.414 . S
C3301 C3304 1.499 . S
C3302 H3282 0.950 . S
C3302 C3301 1.414 . S
C3302 C3303 1.374 . S
C3303 H3283 0.950 1_556 S
C3303 C3299 1.385 . S
C3303 C3302 1.374 . S
C3304 C3301 1.499 . S
C3304 C3305 1.373 . S
C3304 C3306 1.389 . S
C3305 H3284 0.950 . S
C3305 C3304 1.373 . S
C3305 C3321 1.377 . S
C3306 C3304 1.389 . S
C3306 C3307 1.524 . S
C3306 C3320 1.377 . S
C3307 C3306 1.524 . S
C3307 C3308 1.397 . S
C3307 C3312 1.363 . S
C3308 H3285 0.950 . S
C3308 C3307 1.397 . S
C3308 C3309 1.334 . S
C3309 H3286 0.950 . S
C3309 C3308 1.334 . S
C3309 C3310 1.287 . S
C3310 C3309 1.287 . S
C3310 C3311 1.524 . S
C3310 H3329 0.913 1_545 S
C3311 H3287 0.950 . S
C3311 C3310 1.524 . S
C3311 C3312 1.415 . S
C3312 H3288 0.950 . S
C3312 C3307 1.363 . S
C3312 C3311 1.415 . S
C3313 H3289 0.951 . S
C3313 C3314 1.366 . S
C3313 C3315 1.388 . S
C3314 C3313 1.366 . S
C3314 C3318 1.385 . S
C3315 H3290 0.951 . S
C3315 C3313 1.388 . S
C3315 C3316 1.366 . S
C3316 C3315 1.366 . S
C3316 C3317 1.414 . S
C3316 C3319 1.499 . S
C3317 H3291 0.950 . S
C3317 C3316 1.414 . S
C3317 C3318 1.374 . S
C3318 H3292 0.950 . S
C3318 C3314 1.385 . S
C3318 C3317 1.374 . S
C3319 C3316 1.499 . S
C3319 C3320 1.373 . S
C3319 C3321 1.389 . S
C3320 H3293 0.950 . S
C3320 C3306 1.377 . S
C3320 C3319 1.373 . S
C3321 C3305 1.377 . S
C3321 C3319 1.389 . S
C3321 C3322 1.524 . S
C3322 C3321 1.524 . S
C3322 C3323 1.397 . S
C3322 C3327 1.363 . S
C3323 H3294 0.950 . S
C3323 C3322 1.397 . S
C3323 C3324 1.334 . S
C3324 H3295 0.950 . S
C3324 C3323 1.334 . S
C3324 C3325 1.287 . S
C3325 C3324 1.287 . S
C3325 C3326 1.524 . S
C3325 H3328 0.999 . S
C3326 H3296 0.950 . S
C3326 C3325 1.524 . S
C3326 C3327 1.415 . S
C3327 H3297 0.950 . S
C3327 C3322 1.363 . S
C3327 C3326 1.415 . S
H3328 C3325 0.999 . S
H3329 C3310 0.913 1_565 S
H3330 C3348 0.951 . S
H3331 C3350 0.951 . S
H3332 C3352 0.950 . S
H3333 C3353 0.950 . S
H3334 C3355 0.950 . S
H3335 C3358 0.950 . S
H3336 C3359 0.986 . S
H3337 C3361 0.950 . S
H3338 C3362 0.950 . S
H3339 C3363 0.951 . S
H3340 C3365 0.951 . S
H3341 C3367 0.950 . S
H3342 C3368 0.950 . S
H3343 C3370 0.950 . S
H3344 C3373 0.950 . S
H3345 C3374 0.950 . S
H3346 C3376 0.950 . S
H3347 C3377 0.950 . S
C3348 H3330 0.951 . S
C3348 C3349 1.366 . S
C3348 C3350 1.388 . S
C3349 C3348 1.366 . S
C3349 C3353 1.385 . S
C3350 H3331 0.951 . S
C3350 C3348 1.388 . S
C3350 C3351 1.366 . S
C3351 C3350 1.366 . S
C3351 C3352 1.414 . S
C3351 C3354 1.499 . S
C3352 H3332 0.950 . S
C3352 C3351 1.414 . S
C3352 C3353 1.374 . S
C3353 H3333 0.950 . S
C3353 C3349 1.385 . S
C3353 C3352 1.374 . S
C3354 C3351 1.499 . S
C3354 C3355 1.373 . S
C3354 C3356 1.389 . S
C3355 H3334 0.950 . S
C3355 C3354 1.373 . S
C3355 C3371 1.377 . S
C3356 C3354 1.389 . S
C3356 C3357 1.524 . S
C3356 C3370 1.377 . S
C3357 C3356 1.524 . S
C3357 C3358 1.397 . S
C3357 C3362 1.363 . S
C3358 H3335 0.950 . S
C3358 C3357 1.397 . S
C3358 C3359 1.334 . S
C3359 H3336 0.986 . S
C3359 C3358 1.334 . S
C3359 C3360 1.287 . S
C3360 C3359 1.287 . S
C3360 C3361 1.524 . S
C3360 H3379 0.913 1_554 S
C3361 H3337 0.950 . S
C3361 C3360 1.524 . S
C3361 C3362 1.415 . S
C3362 H3338 0.950 . S
C3362 C3357 1.363 . S
C3362 C3361 1.415 . S
C3363 H3339 0.951 . S
C3363 C3364 1.366 . S
C3363 C3365 1.388 . S
C3364 C3363 1.366 . S
C3364 C3368 1.385 . S
C3365 H3340 0.951 . S
C3365 C3363 1.388 . S
C3365 C3366 1.366 . S
C3366 C3365 1.366 . S
C3366 C3367 1.414 . S
C3366 C3369 1.499 . S
C3367 H3341 0.950 . S
C3367 C3366 1.414 . S
C3367 C3368 1.374 . S
C3368 H3342 0.950 . S
C3368 C3364 1.385 . S
C3368 C3367 1.374 . S
C3369 C3366 1.499 . S
C3369 C3370 1.373 . S
C3369 C3371 1.389 . S
C3370 H3343 0.950 . S
C3370 C3356 1.377 . S
C3370 C3369 1.373 . S
C3371 C3355 1.377 . S
C3371 C3369 1.389 . S
C3371 C3372 1.524 . S
C3372 C3371 1.524 . S
C3372 C3373 1.397 . S
C3372 C3377 1.363 . S
C3373 H3344 0.950 . S
C3373 C3372 1.397 . S
C3373 C3374 1.334 . S
C3374 H3345 0.950 . S
C3374 C3373 1.334 . S
C3374 C3375 1.287 . S
C3375 C3374 1.287 . S
C3375 C3376 1.524 . S
C3375 H3378 0.999 . S
C3376 H3346 0.950 . S
C3376 C3375 1.524 . S
C3376 C3377 1.415 . S
C3377 H3347 0.950 . S
C3377 C3372 1.363 . S
C3377 C3376 1.415 . S
H3378 C3375 0.999 . S
H3379 C3360 0.913 1_556 S
H3380 C3398 0.951 . S
H3381 C3400 0.951 . S
H3382 C3402 0.950 . S
H3383 C3403 0.950 . S
H3384 C3405 0.950 . S
H3385 C3408 0.950 . S
H3386 C3409 0.950 . S
H3387 C3411 0.950 . S
H3388 C3412 0.950 . S
H3389 C3413 0.951 . S
H3390 C3415 0.951 . S
H3391 C3417 0.950 . S
H3392 C3418 0.950 . S
H3393 C3420 0.950 . S
H3394 C3423 0.950 . S
H3395 C3424 0.950 . S
H3396 C3426 0.950 . S
H3397 C3427 0.950 . S
C3398 H3380 0.951 . S
C3398 C3399 1.366 . S
C3398 C3400 1.388 . S
C3399 C3398 1.366 . S
C3399 C3403 1.385 . S
C3400 H3381 0.951 . S
C3400 C3398 1.388 . S
C3400 C3401 1.366 . S
C3401 C3400 1.366 . S
C3401 C3402 1.414 . S
C3401 C3404 1.499 . S
C3402 H3382 0.950 . S
C3402 C3401 1.414 . S
C3402 C3403 1.374 . S
C3403 H3383 0.950 . S
C3403 C3399 1.385 . S
C3403 C3402 1.374 . S
C3404 C3401 1.499 . S
C3404 C3405 1.373 . S
C3404 C3406 1.389 . S
C3405 H3384 0.950 . S
C3405 C3404 1.373 . S
C3405 C3421 1.377 . S
C3406 C3404 1.389 . S
C3406 C3407 1.524 . S
C3406 C3420 1.377 . S
C3407 C3406 1.524 . S
C3407 C3408 1.397 . S
C3407 C3412 1.363 . S
C3408 H3385 0.950 . S
C3408 C3407 1.397 . S
C3408 C3409 1.334 . S
C3409 H3386 0.950 . S
C3409 C3408 1.334 . S
C3409 C3410 1.287 . S
C3410 C3409 1.287 . S
C3410 C3411 1.524 . S
C3410 H3429 0.913 . S
C3411 H3387 0.950 . S
C3411 C3410 1.524 . S
C3411 C3412 1.415 . S
C3412 H3388 0.950 . S
C3412 C3407 1.363 . S
C3412 C3411 1.415 . S
C3413 H3389 0.951 . S
C3413 C3414 1.366 . S
C3413 C3415 1.388 . S
C3414 C3413 1.366 . S
C3414 C3418 1.385 . S
C3415 H3390 0.951 . S
C3415 C3413 1.388 . S
C3415 C3416 1.366 . S
C3416 C3415 1.366 . S
C3416 C3417 1.414 . S
C3416 C3419 1.499 . S
C3417 H3391 0.950 . S
C3417 C3416 1.414 . S
C3417 C3418 1.374 . S
C3418 H3392 0.950 . S
C3418 C3414 1.385 . S
C3418 C3417 1.374 . S
C3419 C3416 1.499 . S
C3419 C3420 1.373 . S
C3419 C3421 1.389 . S
C3420 H3393 0.950 . S
C3420 C3406 1.377 . S
C3420 C3419 1.373 . S
C3421 C3405 1.377 . S
C3421 C3419 1.389 . S
C3421 C3422 1.524 . S
C3422 C3421 1.524 . S
C3422 C3423 1.397 . S
C3422 C3427 1.363 . S
C3423 H3394 0.950 . S
C3423 C3422 1.397 . S
C3423 C3424 1.334 . S
C3424 H3395 0.950 . S
C3424 C3423 1.334 . S
C3424 C3425 1.287 . S
C3425 C3424 1.287 . S
C3425 C3426 1.524 . S
C3425 H3428 0.999 . S
C3426 H3396 0.950 . S
C3426 C3425 1.524 . S
C3426 C3427 1.415 . S
C3427 H3397 0.950 . S
C3427 C3422 1.363 . S
C3427 C3426 1.415 . S
H3428 C3425 0.999 . S
H3429 C3410 0.913 . S
H3430 C3448 0.951 . S
H3431 C3450 0.951 . S
H3432 C3452 0.950 . S
H3433 C3453 0.950 . S
H3434 C3455 0.950 . S
H3435 C3458 0.950 . S
H3436 C3459 0.950 . S
H3437 C3461 0.950 . S
H3438 C3462 0.950 . S
H3439 C3463 0.951 . S
H3440 C3465 0.951 . S
H3441 C3467 0.950 . S
H3442 C3468 0.950 . S
H3443 C3470 0.950 . S
H3444 C3473 0.950 . S
H3445 C3474 0.950 . S
H3446 C3476 0.950 . S
H3447 C3477 0.950 . S
C3448 H3430 0.951 . S
C3448 C3449 1.366 . S
C3448 C3450 1.388 . S
C3449 C3448 1.366 . S
C3449 C3453 1.385 . S
C3450 H3431 0.951 . S
C3450 C3448 1.388 . S
C3450 C3451 1.366 . S
C3451 C3450 1.366 . S
C3451 C3452 1.414 . S
C3451 C3454 1.499 . S
C3452 H3432 0.950 . S
C3452 C3451 1.414 . S
C3452 C3453 1.374 . S
C3453 H3433 0.950 . S
C3453 C3449 1.385 . S
C3453 C3452 1.374 . S
C3454 C3451 1.499 . S
C3454 C3455 1.373 . S
C3454 C3456 1.389 . S
C3455 H3434 0.950 . S
C3455 C3454 1.373 . S
C3455 C3471 1.377 . S
C3456 C3454 1.389 . S
C3456 C3457 1.524 . S
C3456 C3470 1.377 . S
C3457 C3456 1.524 . S
C3457 C3458 1.397 . S
C3457 C3462 1.363 . S
C3458 H3435 0.950 . S
C3458 C3457 1.397 . S
C3458 C3459 1.334 . S
C3459 H3436 0.950 . S
C3459 C3458 1.334 . S
C3459 C3460 1.287 . S
C3460 C3459 1.287 . S
C3460 C3461 1.524 . S
C3460 H3479 0.913 . S
C3461 H3437 0.950 . S
C3461 C3460 1.524 . S
C3461 C3462 1.415 . S
C3462 H3438 0.950 . S
C3462 C3457 1.363 . S
C3462 C3461 1.415 . S
C3463 H3439 0.951 . S
C3463 C3464 1.366 . S
C3463 C3465 1.388 . S
C3464 C3463 1.366 . S
C3464 C3468 1.385 . S
C3465 H3440 0.951 . S
C3465 C3463 1.388 . S
C3465 C3466 1.366 . S
C3466 C3465 1.366 . S
C3466 C3467 1.414 . S
C3466 C3469 1.499 . S
C3467 H3441 0.950 . S
C3467 C3466 1.414 . S
C3467 C3468 1.374 . S
C3468 H3442 0.950 . S
C3468 C3464 1.385 . S
C3468 C3467 1.374 . S
C3469 C3466 1.499 . S
C3469 C3470 1.373 . S
C3469 C3471 1.389 . S
C3470 H3443 0.950 . S
C3470 C3456 1.377 . S
C3470 C3469 1.373 . S
C3471 C3455 1.377 . S
C3471 C3469 1.389 . S
C3471 C3472 1.524 . S
C3472 C3471 1.524 . S
C3472 C3473 1.397 . S
C3472 C3477 1.363 . S
C3473 H3444 0.950 . S
C3473 C3472 1.397 . S
C3473 C3474 1.334 . S
C3474 H3445 0.950 . S
C3474 C3473 1.334 . S
C3474 C3475 1.287 . S
C3475 C3474 1.287 . S
C3475 C3476 1.524 . S
C3475 H3478 0.999 . S
C3476 H3446 0.950 . S
C3476 C3475 1.524 . S
C3476 C3477 1.415 . S
C3477 H3447 0.950 . S
C3477 C3472 1.363 . S
C3477 C3476 1.415 . S
H3478 C3475 0.999 . S
H3479 C3460 0.913 . S
H3480 C3498 0.951 . S
H3481 C3500 0.951 . S
H3482 C3502 0.950 . S
H3483 C3503 0.950 . S
H3484 C3505 0.950 . S
H3485 C3508 0.950 . S
H3486 C3509 0.950 . S
H3487 C3511 0.950 . S
H3488 C3512 0.950 . S
H3489 C3513 0.951 . S
H3490 C3515 0.951 . S
H3491 C3517 0.950 . S
H3492 C3518 0.950 . S
H3493 C3520 0.950 . S
H3494 C3523 0.950 . S
H3495 C3524 0.950 . S
H3496 C3526 0.950 . S
H3497 C3527 0.950 . S
C3498 H3480 0.951 . S
C3498 C3499 1.366 . S
C3498 C3500 1.388 . S
C3499 C3498 1.366 . S
C3499 C3503 1.385 . S
C3500 H3481 0.951 . S
C3500 C3498 1.388 . S
C3500 C3501 1.366 . S
C3501 C3500 1.366 . S
C3501 C3502 1.414 . S
C3501 C3504 1.499 . S
C3502 H3482 0.950 . S
C3502 C3501 1.414 . S
C3502 C3503 1.374 . S
C3503 H3483 0.950 . S
C3503 C3499 1.385 . S
C3503 C3502 1.374 . S
C3504 C3501 1.499 . S
C3504 C3505 1.373 . S
C3504 C3506 1.389 . S
C3505 H3484 0.950 . S
C3505 C3504 1.373 . S
C3505 C3521 1.377 . S
C3506 C3504 1.389 . S
C3506 C3507 1.524 . S
C3506 C3520 1.377 . S
C3507 C3506 1.524 . S
C3507 C3508 1.397 . S
C3507 C3512 1.363 . S
C3508 H3485 0.950 . S
C3508 C3507 1.397 . S
C3508 C3509 1.334 . S
C3509 H3486 0.950 . S
C3509 C3508 1.334 . S
C3509 C3510 1.287 . S
C3510 C3509 1.287 . S
C3510 C3511 1.524 . S
C3510 H3529 0.913 . S
C3511 H3487 0.950 . S
C3511 C3510 1.524 . S
C3511 C3512 1.415 . S
C3512 H3488 0.950 . S
C3512 C3507 1.363 . S
C3512 C3511 1.415 . S
C3513 H3489 0.951 . S
C3513 C3514 1.366 . S
C3513 C3515 1.388 . S
C3514 C3513 1.366 . S
C3514 C3518 1.385 . S
C3515 H3490 0.951 . S
C3515 C3513 1.388 . S
C3515 C3516 1.366 . S
C3516 C3515 1.366 . S
C3516 C3517 1.414 . S
C3516 C3519 1.499 . S
C3517 H3491 0.950 . S
C3517 C3516 1.414 . S
C3517 C3518 1.374 . S
C3518 H3492 0.950 . S
C3518 C3514 1.385 . S
C3518 C3517 1.374 . S
C3519 C3516 1.499 . S
C3519 C3520 1.373 . S
C3519 C3521 1.389 . S
C3520 H3493 0.950 . S
C3520 C3506 1.377 . S
C3520 C3519 1.373 . S
C3521 C3505 1.377 . S
C3521 C3519 1.389 . S
C3521 C3522 1.524 . S
C3522 C3521 1.524 . S
C3522 C3523 1.397 . S
C3522 C3527 1.363 . S
C3523 H3494 0.950 . S
C3523 C3522 1.397 . S
C3523 C3524 1.334 . S
C3524 H3495 0.950 . S
C3524 C3523 1.334 . S
C3524 C3525 1.287 . S
C3525 C3524 1.287 . S
C3525 C3526 1.524 . S
C3525 H3528 0.999 . S
C3526 H3496 0.950 . S
C3526 C3525 1.524 . S
C3526 C3527 1.415 . S
C3527 H3497 0.950 . S
C3527 C3522 1.363 . S
C3527 C3526 1.415 . S
H3528 C3525 0.999 . S
H3529 C3510 0.913 . S
H3530 C3548 0.951 . S
H3531 C3550 0.951 . S
H3532 C3552 0.950 . S
H3533 C3553 0.950 . S
H3534 C3555 0.950 . S
H3535 C3558 0.950 . S
H3536 C3559 0.950 . S
H3537 C3561 0.950 . S
H3538 C3562 0.950 . S
H3539 C3563 0.951 . S
H3540 C3565 0.951 . S
H3541 C3567 0.950 . S
H3542 C3568 0.950 . S
H3543 C3570 0.950 . S
H3544 C3573 0.950 . S
H3545 C3574 0.950 . S
H3546 C3576 0.950 . S
H3547 C3577 0.950 . S
C3548 H3530 0.951 . S
C3548 C3549 1.366 . S
C3548 C3550 1.388 . S
C3549 C3548 1.366 . S
C3549 C3553 1.385 . S
C3550 H3531 0.951 . S
C3550 C3548 1.388 . S
C3550 C3551 1.366 . S
C3551 C3550 1.366 . S
C3551 C3552 1.414 . S
C3551 C3554 1.499 . S
C3552 H3532 0.950 . S
C3552 C3551 1.414 . S
C3552 C3553 1.374 . S
C3553 H3533 0.950 . S
C3553 C3549 1.385 . S
C3553 C3552 1.374 . S
C3554 C3551 1.499 . S
C3554 C3555 1.373 . S
C3554 C3556 1.389 . S
C3555 H3534 0.950 . S
C3555 C3554 1.373 . S
C3555 C3571 1.377 . S
C3556 C3554 1.389 . S
C3556 C3557 1.524 . S
C3556 C3570 1.377 . S
C3557 C3556 1.524 . S
C3557 C3558 1.397 . S
C3557 C3562 1.363 . S
C3558 H3535 0.950 . S
C3558 C3557 1.397 . S
C3558 C3559 1.334 . S
C3559 H3536 0.950 . S
C3559 C3558 1.334 . S
C3559 C3560 1.287 . S
C3560 C3559 1.287 . S
C3560 C3561 1.524 . S
C3560 H3579 0.913 . S
C3561 H3537 0.950 . S
C3561 C3560 1.524 . S
C3561 C3562 1.415 . S
C3562 H3538 0.950 . S
C3562 C3557 1.363 . S
C3562 C3561 1.415 . S
C3563 H3539 0.951 . S
C3563 C3564 1.366 . S
C3563 C3565 1.388 . S
C3564 C3563 1.366 . S
C3564 C3568 1.385 . S
C3565 H3540 0.951 . S
C3565 C3563 1.388 . S
C3565 C3566 1.366 . S
C3566 C3565 1.366 . S
C3566 C3567 1.414 . S
C3566 C3569 1.499 . S
C3567 H3541 0.950 . S
C3567 C3566 1.414 . S
C3567 C3568 1.374 . S
C3568 H3542 0.950 . S
C3568 C3564 1.385 . S
C3568 C3567 1.374 . S
C3569 C3566 1.499 . S
C3569 C3570 1.373 . S
C3569 C3571 1.389 . S
C3570 H3543 0.950 . S
C3570 C3556 1.377 . S
C3570 C3569 1.373 . S
C3571 C3555 1.377 . S
C3571 C3569 1.389 . S
C3571 C3572 1.524 . S
C3572 C3571 1.524 . S
C3572 C3573 1.397 . S
C3572 C3577 1.363 . S
C3573 H3544 0.950 . S
C3573 C3572 1.397 . S
C3573 C3574 1.334 . S
C3574 H3545 0.950 . S
C3574 C3573 1.334 . S
C3574 C3575 1.287 . S
C3575 C3574 1.287 . S
C3575 C3576 1.524 . S
C3575 H3578 0.999 . S
C3576 H3546 0.950 . S
C3576 C3575 1.524 . S
C3576 C3577 1.415 . S
C3577 H3547 0.950 . S
C3577 C3572 1.363 . S
C3577 C3576 1.415 . S
H3578 C3575 0.999 . S
H3579 C3560 0.913 . S
H3580 C3598 0.951 . S
H3581 C3600 0.951 . S
H3582 C3602 0.950 . S
H3583 C3603 0.950 . S
H3584 C3605 0.950 . S
H3585 C3608 0.950 . S
H3586 C3609 0.950 . S
H3587 C3611 0.950 . S
H3588 C3612 0.950 . S
H3589 C3613 0.951 . S
H3590 C3615 0.951 . S
H3591 C3617 0.950 . S
H3592 C3618 0.950 . S
H3593 C3620 0.950 . S
H3594 C3623 0.950 . S
H3595 C3624 0.950 . S
H3596 C3626 0.950 . S
H3597 C3627 0.950 . S
C3598 H3580 0.951 . S
C3598 C3599 1.366 . S
C3598 C3600 1.388 . S
C3599 C3598 1.366 . S
C3599 C3603 1.385 . S
C3600 H3581 0.951 . S
C3600 C3598 1.388 . S
C3600 C3601 1.366 . S
C3601 C3600 1.366 . S
C3601 C3602 1.414 . S
C3601 C3604 1.499 . S
C3602 H3582 0.950 . S
C3602 C3601 1.414 . S
C3602 C3603 1.374 . S
C3603 H3583 0.950 . S
C3603 C3599 1.385 . S
C3603 C3602 1.374 . S
C3604 C3601 1.499 . S
C3604 C3605 1.373 . S
C3604 C3606 1.389 . S
C3605 H3584 0.950 . S
C3605 C3604 1.373 . S
C3605 C3621 1.377 . S
C3606 C3604 1.389 . S
C3606 C3607 1.524 . S
C3606 C3620 1.377 . S
C3607 C3606 1.524 . S
C3607 C3608 1.397 . S
C3607 C3612 1.363 . S
C3608 H3585 0.950 . S
C3608 C3607 1.397 . S
C3608 C3609 1.334 . S
C3609 H3586 0.950 . S
C3609 C3608 1.334 . S
C3609 C3610 1.287 . S
C3610 C3609 1.287 . S
C3610 C3611 1.524 . S
C3610 H3629 0.913 . S
C3611 H3587 0.950 . S
C3611 C3610 1.524 . S
C3611 C3612 1.415 . S
C3612 H3588 0.950 . S
C3612 C3607 1.363 . S
C3612 C3611 1.415 . S
C3613 H3589 0.951 . S
C3613 C3614 1.366 . S
C3613 C3615 1.388 . S
C3614 C3613 1.366 . S
C3614 C3618 1.385 . S
C3615 H3590 0.951 . S
C3615 C3613 1.388 . S
C3615 C3616 1.366 . S
C3616 C3615 1.366 . S
C3616 C3617 1.414 . S
C3616 C3619 1.499 . S
C3617 H3591 0.950 . S
C3617 C3616 1.414 . S
C3617 C3618 1.374 . S
C3618 H3592 0.950 . S
C3618 C3614 1.385 . S
C3618 C3617 1.374 . S
C3619 C3616 1.499 . S
C3619 C3620 1.373 . S
C3619 C3621 1.389 . S
C3620 H3593 0.950 . S
C3620 C3606 1.377 . S
C3620 C3619 1.373 . S
C3621 C3605 1.377 . S
C3621 C3619 1.389 . S
C3621 C3622 1.524 . S
C3622 C3621 1.524 . S
C3622 C3623 1.397 . S
C3622 C3627 1.363 . S
C3623 H3594 0.950 . S
C3623 C3622 1.397 . S
C3623 C3624 1.334 . S
C3624 H3595 0.950 . S
C3624 C3623 1.334 . S
C3624 C3625 1.287 . S
C3625 C3624 1.287 . S
C3625 C3626 1.524 . S
C3625 H3628 0.999 . S
C3626 H3596 0.950 . S
C3626 C3625 1.524 . S
C3626 C3627 1.415 . S
C3627 H3597 0.950 . S
C3627 C3622 1.363 . S
C3627 C3626 1.415 . S
H3628 C3625 0.999 . S
H3629 C3610 0.913 . S
H3630 C3648 0.951 1_655 S
H3631 C3650 0.950 . S
H3632 C3652 0.950 . S
H3633 C3653 0.950 . S
H3634 C3655 0.950 . S
H3635 C3658 0.950 1_455 S
H3636 C3659 0.950 . S
H3637 C3661 0.950 . S
H3638 C3662 0.950 . S
H3639 C3663 0.951 . S
H3640 C3665 0.951 . S
H3641 C3667 0.950 . S
H3642 C3668 0.950 . S
H3643 C3670 0.950 . S
H3644 C3673 0.950 . S
H3645 C3674 0.950 . S
H3646 C3676 0.950 . S
H3647 C3677 0.950 . S
C3648 H3630 0.951 1_455 S
C3648 C3649 1.366 . S
C3648 C3650 1.388 1_455 S
C3649 C3648 1.366 . S
C3649 C3653 1.385 . S
C3650 H3631 0.950 . S
C3650 C3648 1.388 1_655 S
C3650 C3651 1.366 1_655 S
C3651 C3650 1.366 1_455 S
C3651 C3652 1.414 . S
C3651 C3654 1.499 . S
C3652 H3632 0.950 . S
C3652 C3651 1.414 . S
C3652 C3653 1.374 . S
C3653 H3633 0.950 . S
C3653 C3649 1.385 . S
C3653 C3652 1.374 . S
C3654 C3651 1.499 . S
C3654 C3655 1.373 . S
C3654 C3656 1.382 1_455 S
C3655 H3634 0.950 . S
C3655 C3654 1.373 . S
C3655 C3671 1.377 . S
C3656 C3654 1.382 1_655 S
C3656 C3657 1.526 . S
C3656 C3670 1.382 . S
C3657 C3656 1.526 . S
C3657 C3658 1.397 . S
C3657 C3662 1.363 . S
C3658 H3635 0.950 1_655 S
C3658 C3657 1.397 . S
C3658 C3659 1.334 . S
C3659 H3636 0.950 . S
C3659 C3658 1.334 . S
C3659 C3660 1.287 . S
C3660 C3659 1.287 . S
C3660 C3661 1.524 . S
C3660 H3679 0.913 . S
C3661 H3637 0.950 . S
C3661 C3660 1.524 . S
C3661 C3662 1.415 . S
C3662 H3638 0.950 . S
C3662 C3657 1.363 . S
C3662 C3661 1.415 . S
C3663 H3639 0.951 . S
C3663 C3664 1.366 . S
C3663 C3665 1.388 . S
C3664 C3663 1.366 . S
C3664 C3668 1.385 1_455 S
C3665 H3640 0.951 . S
C3665 C3663 1.388 . S
C3665 C3666 1.366 . S
C3666 C3665 1.366 . S
C3666 C3667 1.414 1_455 S
C3666 C3669 1.499 . S
C3667 H3641 0.950 . S
C3667 C3666 1.414 1_655 S
C3667 C3668 1.374 . S
C3668 H3642 0.950 . S
C3668 C3664 1.385 1_655 S
C3668 C3667 1.374 . S
C3669 C3666 1.499 . S
C3669 C3670 1.373 1_455 S
C3669 C3671 1.389 . S
C3670 H3643 0.950 . S
C3670 C3656 1.382 . S
C3670 C3669 1.373 1_655 S
C3671 C3655 1.377 . S
C3671 C3669 1.389 . S
C3671 C3672 1.524 . S
C3672 C3671 1.524 . S
C3672 C3673 1.397 . S
C3672 C3677 1.363 . S
C3673 H3644 0.950 . S
C3673 C3672 1.397 . S
C3673 C3674 1.334 . S
C3674 H3645 0.950 . S
C3674 C3673 1.334 . S
C3674 C3675 1.287 . S
C3675 C3674 1.287 . S
C3675 C3676 1.524 . S
C3675 H3678 0.999 . S
C3676 H3646 0.950 . S
C3676 C3675 1.524 . S
C3676 C3677 1.415 . S
C3677 H3647 0.950 . S
C3677 C3672 1.363 . S
C3677 C3676 1.415 . S
H3678 C3675 0.999 . S
H3679 C3660 0.913 . S
H3680 C3698 0.951 . S
H3681 C3700 0.951 . S
H3682 C3702 0.950 . S
H3683 C3703 0.950 . S
H3684 C3705 0.950 . S
H3685 C3708 0.950 . S
H3686 C3709 0.950 . S
H3687 C3711 0.950 . S
H3688 C3712 0.950 . S
H3689 C3713 0.951 . S
H3690 C3715 0.951 . S
H3691 C3717 0.950 . S
H3692 C3718 0.950 . S
H3693 C3720 0.950 . S
H3694 C3723 0.950 . S
H3695 C3724 0.950 . S
H3696 C3726 0.950 . S
H3697 C3727 0.950 . S
C3698 H3680 0.951 . S
C3698 C3699 1.366 . S
C3698 C3700 1.388 . S
C3699 C3698 1.366 . S
C3699 C3703 1.385 . S
C3700 H3681 0.951 . S
C3700 C3698 1.388 . S
C3700 C3701 1.366 . S
C3701 C3700 1.366 . S
C3701 C3702 1.414 . S
C3701 C3704 1.499 . S
C3702 H3682 0.950 . S
C3702 C3701 1.414 . S
C3702 C3703 1.374 . S
C3703 H3683 0.950 . S
C3703 C3699 1.385 . S
C3703 C3702 1.374 . S
C3704 C3701 1.499 . S
C3704 C3705 1.373 . S
C3704 C3706 1.389 . S
C3705 H3684 0.950 . S
C3705 C3704 1.373 . S
C3705 C3721 1.377 . S
C3706 C3704 1.389 . S
C3706 C3707 1.524 . S
C3706 C3720 1.377 . S
C3707 C3706 1.524 . S
C3707 C3708 1.397 . S
C3707 C3712 1.363 . S
C3708 H3685 0.950 . S
C3708 C3707 1.397 . S
C3708 C3709 1.334 . S
C3709 H3686 0.950 . S
C3709 C3708 1.334 . S
C3709 C3710 1.287 . S
C3710 C3709 1.287 . S
C3710 C3711 1.524 . S
C3710 H3729 0.913 . S
C3711 H3687 0.950 . S
C3711 C3710 1.524 . S
C3711 C3712 1.415 . S
C3712 H3688 0.950 . S
C3712 C3707 1.363 . S
C3712 C3711 1.415 . S
C3713 H3689 0.951 . S
C3713 C3714 1.366 . S
C3713 C3715 1.388 . S
C3714 C3713 1.366 . S
C3714 C3718 1.385 . S
C3715 H3690 0.951 . S
C3715 C3713 1.388 . S
C3715 C3716 1.366 . S
C3716 C3715 1.366 . S
C3716 C3717 1.414 . S
C3716 C3719 1.499 . S
C3717 H3691 0.950 . S
C3717 C3716 1.414 . S
C3717 C3718 1.374 . S
C3718 H3692 0.950 . S
C3718 C3714 1.385 . S
C3718 C3717 1.374 . S
C3719 C3716 1.499 . S
C3719 C3720 1.373 . S
C3719 C3721 1.389 . S
C3720 H3693 0.950 . S
C3720 C3706 1.377 . S
C3720 C3719 1.373 . S
C3721 C3705 1.377 . S
C3721 C3719 1.389 . S
C3721 C3722 1.524 . S
C3722 C3721 1.524 . S
C3722 C3723 1.397 . S
C3722 C3727 1.363 . S
C3723 H3694 0.950 . S
C3723 C3722 1.397 . S
C3723 C3724 1.334 . S
C3724 H3695 0.950 . S
C3724 C3723 1.334 . S
C3724 C3725 1.287 . S
C3725 C3724 1.287 . S
C3725 C3726 1.524 . S
C3725 H3728 0.999 . S
C3726 H3696 0.950 . S
C3726 C3725 1.524 . S
C3726 C3727 1.415 . S
C3727 H3697 0.950 . S
C3727 C3722 1.363 . S
C3727 C3726 1.415 . S
H3728 C3725 0.999 . S
H3729 C3710 0.913 . S
H3730 C3748 0.951 . S
H3731 C3750 0.951 . S
H3732 C3752 0.950 . S
H3733 C3753 0.950 . S
H3734 C3755 0.950 . S
H3735 C3758 0.950 . S
H3736 C3759 0.950 . S
H3737 C3761 0.950 . S
H3738 C3762 0.950 . S
H3739 C3763 0.951 . S
H3740 C3765 0.951 . S
H3741 C3767 0.950 . S
H3742 C3768 0.950 . S
H3743 C3770 0.950 . S
H3744 C3773 0.950 1_565 S
H3745 C3774 0.950 . S
H3746 C3776 0.950 . S
H3747 C3777 0.950 . S
C3748 H3730 0.951 . S
C3748 C3749 1.366 . S
C3748 C3750 1.388 . S
C3749 C3748 1.366 . S
C3749 C3753 1.385 1_565 S
C3750 H3731 0.951 . S
C3750 C3748 1.388 . S
C3750 C3751 1.366 . S
C3751 C3750 1.366 . S
C3751 C3752 1.414 1_565 S
C3751 C3754 1.499 . S
C3752 H3732 0.950 . S
C3752 C3751 1.414 1_545 S
C3752 C3753 1.374 . S
C3753 H3733 0.950 . S
C3753 C3749 1.385 1_545 S
C3753 C3752 1.374 . S
C3754 C3751 1.499 . S
C3754 C3755 1.373 1_565 S
C3754 C3756 1.389 . S
C3755 H3734 0.950 . S
C3755 C3754 1.373 1_545 S
C3755 C3771 1.377 . S
C3756 C3754 1.389 . S
C3756 C3757 1.524 . S
C3756 C3770 1.377 . S
C3757 C3756 1.524 . S
C3757 C3758 1.397 . S
C3757 C3762 1.363 . S
C3758 H3735 0.950 . S
C3758 C3757 1.397 . S
C3758 C3759 1.334 . S
C3759 H3736 0.950 . S
C3759 C3758 1.334 . S
C3759 C3760 1.287 . S
C3760 C3759 1.287 . S
C3760 C3761 1.524 . S
C3760 H3779 0.913 . S
C3761 H3737 0.950 . S
C3761 C3760 1.524 . S
C3761 C3762 1.415 . S
C3762 H3738 0.950 . S
C3762 C3757 1.363 . S
C3762 C3761 1.415 . S
C3763 H3739 0.951 . S
C3763 C3764 1.366 1_545 S
C3763 C3765 1.388 . S
C3764 C3763 1.366 1_565 S
C3764 C3768 1.385 . S
C3765 H3740 0.951 . S
C3765 C3763 1.388 . S
C3765 C3766 1.366 1_545 S
C3766 C3765 1.366 1_565 S
C3766 C3767 1.414 . S
C3766 C3769 1.499 . S
C3767 H3741 0.950 . S
C3767 C3766 1.414 . S
C3767 C3768 1.374 . S
C3768 H3742 0.950 . S
C3768 C3764 1.385 . S
C3768 C3767 1.374 . S
C3769 C3766 1.499 . S
C3769 C3770 1.373 . S
C3769 C3771 1.389 1_565 S
C3770 H3743 0.950 . S
C3770 C3756 1.377 . S
C3770 C3769 1.373 . S
C3771 C3755 1.377 . S
C3771 C3769 1.389 1_545 S
C3771 C3772 1.524 . S
C3772 C3771 1.524 . S
C3772 C3773 1.397 . S
C3772 C3777 1.363 . S
C3773 H3744 0.950 1_545 S
C3773 C3772 1.397 . S
C3773 C3774 1.334 . S
C3774 H3745 0.950 . S
C3774 C3773 1.334 . S
C3774 C3775 1.287 . S
C3775 C3774 1.287 . S
C3775 C3776 1.524 . S
C3775 H3778 0.999 . S
C3776 H3746 0.950 . S
C3776 C3775 1.524 . S
C3776 C3777 1.415 . S
C3777 H3747 0.950 . S
C3777 C3772 1.363 . S
C3777 C3776 1.415 . S
H3778 C3775 0.999 . S
H3779 C3760 0.913 . S
H3780 C3798 0.951 1_545 S
H3781 C3800 0.951 1_545 S
H3782 C3802 0.950 . S
H3783 C3803 0.950 . S
H3784 C3805 0.950 . S
H3785 C3808 0.950 . S
H3786 C3809 0.950 . S
H3787 C3811 0.950 . S
H3788 C3812 0.950 1_545 S
H3789 C3813 0.951 . S
H3790 C3815 0.951 . S
H3791 C3817 0.950 . S
H3792 C3818 0.950 . S
H3793 C3820 0.950 . S
H3794 C3823 0.950 . S
H3795 C3824 0.950 . S
H3796 C3826 0.950 . S
H3797 C3827 0.950 . S
C3798 H3780 0.951 1_565 S
C3798 C3799 1.366 . S
C3798 C3800 1.388 . S
C3799 C3798 1.366 . S
C3799 C3803 1.385 . S
C3800 H3781 0.951 1_565 S
C3800 C3798 1.388 . S
C3800 C3801 1.366 . S
C3801 C3800 1.366 . S
C3801 C3802 1.414 . S
C3801 C3804 1.499 . S
C3802 H3782 0.950 . S
C3802 C3801 1.414 . S
C3802 C3803 1.374 . S
C3803 H3783 0.950 . S
C3803 C3799 1.385 . S
C3803 C3802 1.374 . S
C3804 C3801 1.499 . S
C3804 C3805 1.373 . S
C3804 C3806 1.389 . S
C3805 H3784 0.950 . S
C3805 C3804 1.373 . S
C3805 C3821 1.377 . S
C3806 C3804 1.389 . S
C3806 C3807 1.524 . S
C3806 C3820 1.377 . S
C3807 C3806 1.524 . S
C3807 C3808 1.397 . S
C3807 C3812 1.363 . S
C3808 H3785 0.950 . S
C3808 C3807 1.397 . S
C3808 C3809 1.334 . S
C3809 H3786 0.950 . S
C3809 C3808 1.334 . S
C3809 C3810 1.287 . S
C3810 C3809 1.287 . S
C3810 C3811 1.524 . S
C3810 H3829 0.913 . S
C3811 H3787 0.950 . S
C3811 C3810 1.524 . S
C3811 C3812 1.415 . S
C3812 H3788 0.950 1_565 S
C3812 C3807 1.363 . S
C3812 C3811 1.415 . S
C3813 H3789 0.951 . S
C3813 C3814 1.366 . S
C3813 C3815 1.388 . S
C3814 C3813 1.366 . S
C3814 C3818 1.385 1_565 S
C3815 H3790 0.951 . S
C3815 C3813 1.388 . S
C3815 C3816 1.366 . S
C3816 C3815 1.366 . S
C3816 C3817 1.414 1_565 S
C3816 C3819 1.499 . S
C3817 H3791 0.950 . S
C3817 C3816 1.414 1_545 S
C3817 C3818 1.374 . S
C3818 H3792 0.950 . S
C3818 C3814 1.385 1_545 S
C3818 C3817 1.374 . S
C3819 C3816 1.499 . S
C3819 C3820 1.373 . S
C3819 C3821 1.389 . S
C3820 H3793 0.950 . S
C3820 C3806 1.377 . S
C3820 C3819 1.373 . S
C3821 C3805 1.377 . S
C3821 C3819 1.389 . S
C3821 C3822 1.524 1_565 S
C3822 C3821 1.524 1_545 S
C3822 C3823 1.397 . S
C3822 C3827 1.363 1_545 S
C3823 H3794 0.950 . S
C3823 C3822 1.397 . S
C3823 C3824 1.334 . S
C3824 H3795 0.950 . S
C3824 C3823 1.334 . S
C3824 C3825 1.287 . S
C3825 C3824 1.287 . S
C3825 C3826 1.524 1_545 S
C3825 H3828 0.999 . S
C3826 H3796 0.950 . S
C3826 C3825 1.524 1_565 S
C3826 C3827 1.415 . S
C3827 H3797 0.950 . S
C3827 C3822 1.363 1_565 S
C3827 C3826 1.415 . S
H3828 C3825 0.999 . S
H3829 C3810 0.913 . S
H3830 C3848 0.951 . S
H3831 C3850 0.951 . S
H3832 C3852 0.921 1_655 S
H3833 C3853 1.024 . S
H3834 C3855 0.950 . S
H3835 C3858 0.950 . S
H3836 C3859 0.950 . S
H3837 C3861 0.950 . S
H3838 C3862 0.950 . S
H3839 C3863 0.951 . S
H3840 C3865 0.951 . S
H3841 C3867 0.950 . S
H3842 C3868 0.950 . S
H3843 C3870 0.950 . S
H3844 C3873 0.950 . S
H3845 C3874 0.950 . S
H3846 C3876 0.950 . S
H3847 C3877 0.950 . S
C3848 H3830 0.951 . S
C3848 C3849 1.366 . S
C3848 C3850 1.388 . S
C3849 C3848 1.366 . S
C3849 C3853 1.385 . S
C3850 H3831 0.951 . S
C3850 C3848 1.388 . S
C3850 C3851 1.366 . S
C3851 C3850 1.366 . S
C3851 C3852 1.414 . S
C3851 C3854 1.499 . S
C3852 H3832 0.921 1_455 S
C3852 C3851 1.414 . S
C3852 C3853 1.374 . S
C3853 H3833 1.024 . S
C3853 C3849 1.385 . S
C3853 C3852 1.374 . S
C3854 C3851 1.499 . S
C3854 C3855 1.373 1_455 S
C3854 C3856 1.389 . S
C3855 H3834 0.950 . S
C3855 C3854 1.373 1_655 S
C3855 C3871 1.377 . S
C3856 C3854 1.389 . S
C3856 C3857 1.524 . S
C3856 C3870 1.377 . S
C3857 C3856 1.524 . S
C3857 C3858 1.397 . S
C3857 C3862 1.363 . S
C3858 H3835 0.950 . S
C3858 C3857 1.397 . S
C3858 C3859 1.334 . S
C3859 H3836 0.950 . S
C3859 C3858 1.334 . S
C3859 C3860 1.287 . S
C3860 C3859 1.287 . S
C3860 C3861 1.524 . S
C3860 H3879 0.913 . S
C3861 H3837 0.950 . S
C3861 C3860 1.524 . S
C3861 C3862 1.415 . S
C3862 H3838 0.950 . S
C3862 C3857 1.363 . S
C3862 C3861 1.415 . S
C3863 H3839 0.951 . S
C3863 C3864 1.366 1_655 S
C3863 C3865 1.388 . S
C3864 C3863 1.366 1_455 S
C3864 C3868 1.385 . S
C3865 H3840 0.951 . S
C3865 C3863 1.388 . S
C3865 C3866 1.366 1_655 S
C3866 C3865 1.366 1_455 S
C3866 C3867 1.414 . S
C3866 C3869 1.499 . S
C3867 H3841 0.950 . S
C3867 C3866 1.414 . S
C3867 C3868 1.374 . S
C3868 H3842 0.950 . S
C3868 C3864 1.385 . S
C3868 C3867 1.374 . S
C3869 C3866 1.499 . S
C3869 C3870 1.373 . S
C3869 C3871 1.389 1_455 S
C3870 H3843 0.950 . S
C3870 C3856 1.377 . S
C3870 C3869 1.373 . S
C3871 C3855 1.377 . S
C3871 C3869 1.389 1_655 S
C3871 C3872 1.524 . S
C3872 C3871 1.524 . S
C3872 C3873 1.397 . S
C3872 C3877 1.363 . S
C3873 H3844 0.950 . S
C3873 C3872 1.397 . S
C3873 C3874 1.334 . S
C3874 H3845 0.950 . S
C3874 C3873 1.334 . S
C3874 C3875 1.287 . S
C3875 C3874 1.287 . S
C3875 C3876 1.524 . S
C3875 H3878 0.999 . S
C3876 H3846 0.950 . S
C3876 C3875 1.524 . S
C3876 C3877 1.415 . S
C3877 H3847 0.950 . S
C3877 C3872 1.363 . S
C3877 C3876 1.415 . S
H3878 C3875 0.999 . S
H3879 C3860 0.913 . S
H3880 C3898 0.951 . S
H3881 C3900 0.951 . S
H3882 C3902 0.950 . S
H3883 C3903 0.950 . S
H3884 C3905 0.950 . S
H3885 C3908 0.950 . S
H3886 C3909 0.950 . S
H3887 C3911 0.950 . S
H3888 C3912 0.950 . S
H3889 C3913 0.951 . S
H3890 C3915 0.951 . S
H3891 C3917 0.950 . S
H3892 C3918 0.950 . S
H3893 C3920 0.950 . S
H3894 C3923 0.950 . S
H3895 C3924 0.950 . S
H3896 C3926 0.950 . S
H3897 C3927 0.950 . S
C3898 H3880 0.951 . S
C3898 C3899 1.366 . S
C3898 C3900 1.388 . S
C3899 C3898 1.366 . S
C3899 C3903 1.385 . S
C3900 H3881 0.951 . S
C3900 C3898 1.388 . S
C3900 C3901 1.366 . S
C3901 C3900 1.366 . S
C3901 C3902 1.414 . S
C3901 C3904 1.499 . S
C3902 H3882 0.950 . S
C3902 C3901 1.414 . S
C3902 C3903 1.374 . S
C3903 H3883 0.950 . S
C3903 C3899 1.385 . S
C3903 C3902 1.374 . S
C3904 C3901 1.499 . S
C3904 C3905 1.373 . S
C3904 C3906 1.389 . S
C3905 H3884 0.950 . S
C3905 C3904 1.373 . S
C3905 C3921 1.377 . S
C3906 C3904 1.389 . S
C3906 C3907 1.524 . S
C3906 C3920 1.377 . S
C3907 C3906 1.524 . S
C3907 C3908 1.397 . S
C3907 C3912 1.363 . S
C3908 H3885 0.950 . S
C3908 C3907 1.397 . S
C3908 C3909 1.334 . S
C3909 H3886 0.950 . S
C3909 C3908 1.334 . S
C3909 C3910 1.287 . S
C3910 C3909 1.287 . S
C3910 C3911 1.524 . S
C3910 H3929 0.913 . S
C3911 H3887 0.950 . S
C3911 C3910 1.524 . S
C3911 C3912 1.415 . S
C3912 H3888 0.950 . S
C3912 C3907 1.363 . S
C3912 C3911 1.415 . S
C3913 H3889 0.951 . S
C3913 C3914 1.366 . S
C3913 C3915 1.388 . S
C3914 C3913 1.366 . S
C3914 C3918 1.385 . S
C3915 H3890 0.951 . S
C3915 C3913 1.388 . S
C3915 C3916 1.366 . S
C3916 C3915 1.366 . S
C3916 C3917 1.414 . S
C3916 C3919 1.499 . S
C3917 H3891 0.950 . S
C3917 C3916 1.414 . S
C3917 C3918 1.374 . S
C3918 H3892 0.950 . S
C3918 C3914 1.385 . S
C3918 C3917 1.374 . S
C3919 C3916 1.499 . S
C3919 C3920 1.373 . S
C3919 C3921 1.389 . S
C3920 H3893 0.950 . S
C3920 C3906 1.377 . S
C3920 C3919 1.373 . S
C3921 C3905 1.377 . S
C3921 C3919 1.389 . S
C3921 C3922 1.524 . S
C3922 C3921 1.524 . S
C3922 C3923 1.397 . S
C3922 C3927 1.363 . S
C3923 H3894 0.950 . S
C3923 C3922 1.397 . S
C3923 C3924 1.334 . S
C3924 H3895 0.950 . S
C3924 C3923 1.334 . S
C3924 C3925 1.287 . S
C3925 C3924 1.287 . S
C3925 C3926 1.524 . S
C3925 H3928 0.999 . S
C3926 H3896 0.950 . S
C3926 C3925 1.524 . S
C3926 C3927 1.415 . S
C3927 H3897 0.950 . S
C3927 C3922 1.363 . S
C3927 C3926 1.415 . S
H3928 C3925 0.999 . S
H3929 C3910 0.913 . S
H3930 C3948 0.951 . S
H3931 C3950 0.951 . S
H3932 C3952 0.950 . S
H3933 C3953 0.950 . S
H3934 C3955 0.950 . S
H3935 C3958 0.950 . S
H3936 C3959 0.950 . S
H3937 C3961 0.950 . S
H3938 C3962 0.950 . S
H3939 C3963 0.951 . S
H3940 C3965 0.951 . S
H3941 C3967 0.950 . S
H3942 C3968 0.950 . S
H3943 C3970 0.950 . S
H3944 C3973 0.950 . S
H3945 C3974 0.950 . S
H3946 C3976 0.950 . S
H3947 C3977 0.950 . S
C3948 H3930 0.951 . S
C3948 C3949 1.366 . S
C3948 C3950 1.388 . S
C3949 C3948 1.366 . S
C3949 C3953 1.385 . S
C3950 H3931 0.951 . S
C3950 C3948 1.388 . S
C3950 C3951 1.366 . S
C3951 C3950 1.366 . S
C3951 C3952 1.414 . S
C3951 C3954 1.499 . S
C3952 H3932 0.950 . S
C3952 C3951 1.414 . S
C3952 C3953 1.374 . S
C3953 H3933 0.950 . S
C3953 C3949 1.385 . S
C3953 C3952 1.374 . S
C3954 C3951 1.499 . S
C3954 C3955 1.373 . S
C3954 C3956 1.389 . S
C3955 H3934 0.950 . S
C3955 C3954 1.373 . S
C3955 C3971 1.377 . S
C3956 C3954 1.389 . S
C3956 C3957 1.524 . S
C3956 C3970 1.377 . S
C3957 C3956 1.524 . S
C3957 C3958 1.397 . S
C3957 C3962 1.363 . S
C3958 H3935 0.950 . S
C3958 C3957 1.397 . S
C3958 C3959 1.334 . S
C3959 H3936 0.950 . S
C3959 C3958 1.334 . S
C3959 C3960 1.287 . S
C3960 C3959 1.287 . S
C3960 C3961 1.524 . S
C3960 H3979 0.913 . S
C3961 H3937 0.950 . S
C3961 C3960 1.524 . S
C3961 C3962 1.415 . S
C3962 H3938 0.950 . S
C3962 C3957 1.363 . S
C3962 C3961 1.415 . S
C3963 H3939 0.951 . S
C3963 C3964 1.366 . S
C3963 C3965 1.388 . S
C3964 C3963 1.366 . S
C3964 C3968 1.385 . S
C3965 H3940 0.951 . S
C3965 C3963 1.388 . S
C3965 C3966 1.366 . S
C3966 C3965 1.366 . S
C3966 C3967 1.414 . S
C3966 C3969 1.499 . S
C3967 H3941 0.950 . S
C3967 C3966 1.414 . S
C3967 C3968 1.374 . S
C3968 H3942 0.950 . S
C3968 C3964 1.385 . S
C3968 C3967 1.374 . S
C3969 C3966 1.499 . S
C3969 C3970 1.373 . S
C3969 C3971 1.389 . S
C3970 H3943 0.950 . S
C3970 C3956 1.377 . S
C3970 C3969 1.373 . S
C3971 C3955 1.377 . S
C3971 C3969 1.389 . S
C3971 C3972 1.524 . S
C3972 C3971 1.524 . S
C3972 C3973 1.397 . S
C3972 C3977 1.363 . S
C3973 H3944 0.950 . S
C3973 C3972 1.397 . S
C3973 C3974 1.334 . S
C3974 H3945 0.950 . S
C3974 C3973 1.334 . S
C3974 C3975 1.287 . S
C3975 C3974 1.287 . S
C3975 C3976 1.524 . S
C3975 H3978 0.999 . S
C3976 H3946 0.950 . S
C3976 C3975 1.524 . S
C3976 C3977 1.415 . S
C3977 H3947 0.950 . S
C3977 C3972 1.363 . S
C3977 C3976 1.415 . S
H3978 C3975 0.999 . S
H3979 C3960 0.913 . S
H3980 C3998 0.951 . S
H3981 C4000 0.951 . S
H3982 C4002 0.950 . S
H3983 C4003 0.950 . S
H3984 C4005 0.950 . S
H3985 C4008 0.950 . S
H3986 C4009 0.950 . S
H3987 C4011 0.950 . S
H3988 C4012 0.950 . S
H3989 C4013 0.951 . S
H3990 C4015 0.951 . S
H3991 C4017 0.950 . S
H3992 C4018 0.950 . S
H3993 C4020 0.950 . S
H3994 C4023 0.950 . S
H3995 C4024 0.950 . S
H3996 C4026 0.950 . S
H3997 C4027 0.950 . S
C3998 H3980 0.951 . S
C3998 C3999 1.366 . S
C3998 C4000 1.388 . S
C3999 C3998 1.366 . S
C3999 C4003 1.385 . S
C4000 H3981 0.951 . S
C4000 C3998 1.388 . S
C4000 C4001 1.366 . S
C4001 C4000 1.366 . S
C4001 C4002 1.414 . S
C4001 C4004 1.499 . S
C4002 H3982 0.950 . S
C4002 C4001 1.414 . S
C4002 C4003 1.374 . S
C4003 H3983 0.950 . S
C4003 C3999 1.385 . S
C4003 C4002 1.374 . S
C4004 C4001 1.499 . S
C4004 C4005 1.373 . S
C4004 C4006 1.389 . S
C4005 H3984 0.950 . S
C4005 C4004 1.373 . S
C4005 C4021 1.377 . S
C4006 C4004 1.389 . S
C4006 C4007 1.524 . S
C4006 C4020 1.377 . S
C4007 C4006 1.524 . S
C4007 C4008 1.397 . S
C4007 C4012 1.363 . S
C4008 H3985 0.950 . S
C4008 C4007 1.397 . S
C4008 C4009 1.334 . S
C4009 H3986 0.950 . S
C4009 C4008 1.334 . S
C4009 C4010 1.287 . S
C4010 C4009 1.287 . S
C4010 C4011 1.524 . S
C4010 H4029 0.913 . S
C4011 H3987 0.950 . S
C4011 C4010 1.524 . S
C4011 C4012 1.415 . S
C4012 H3988 0.950 . S
C4012 C4007 1.363 . S
C4012 C4011 1.415 . S
C4013 H3989 0.951 . S
C4013 C4014 1.366 . S
C4013 C4015 1.388 . S
C4014 C4013 1.366 . S
C4014 C4018 1.385 . S
C4015 H3990 0.951 . S
C4015 C4013 1.388 . S
C4015 C4016 1.366 . S
C4016 C4015 1.366 . S
C4016 C4017 1.414 . S
C4016 C4019 1.499 . S
C4017 H3991 0.950 . S
C4017 C4016 1.414 . S
C4017 C4018 1.374 . S
C4018 H3992 0.950 . S
C4018 C4014 1.385 . S
C4018 C4017 1.374 . S
C4019 C4016 1.499 . S
C4019 C4020 1.373 . S
C4019 C4021 1.389 . S
C4020 H3993 0.950 . S
C4020 C4006 1.377 . S
C4020 C4019 1.373 . S
C4021 C4005 1.377 . S
C4021 C4019 1.389 . S
C4021 C4022 1.524 . S
C4022 C4021 1.524 . S
C4022 C4023 1.397 . S
C4022 C4027 1.363 . S
C4023 H3994 0.950 . S
C4023 C4022 1.397 . S
C4023 C4024 1.334 . S
C4024 H3995 0.950 . S
C4024 C4023 1.334 . S
C4024 C4025 1.287 . S
C4025 C4024 1.287 . S
C4025 C4026 1.524 . S
C4025 H4028 0.999 . S
C4026 H3996 0.950 . S
C4026 C4025 1.524 . S
C4026 C4027 1.415 . S
C4027 H3997 0.950 . S
C4027 C4022 1.363 . S
C4027 C4026 1.415 . S
H4028 C4025 0.999 . S
H4029 C4010 0.913 . S
H4030 C4048 0.951 . S
H4031 C4050 0.951 . S
H4032 C4052 0.950 . S
H4033 C4053 0.950 . S
H4034 C4055 0.950 . S
H4035 C4058 0.950 . S
H4036 C4059 0.950 . S
H4037 C4061 0.950 . S
H4038 C4062 0.950 . S
H4039 C4063 0.951 . S
H4040 C4065 0.951 . S
H4041 C4067 0.950 . S
H4042 C4068 0.950 . S
H4043 C4070 0.950 . S
H4044 C4073 0.950 . S
H4045 C4074 0.950 . S
H4046 C4076 0.950 . S
H4047 C4077 0.950 . S
C4048 H4030 0.951 . S
C4048 C4049 1.366 . S
C4048 C4050 1.388 . S
C4049 C4048 1.366 . S
C4049 C4053 1.385 . S
C4050 H4031 0.951 . S
C4050 C4048 1.388 . S
C4050 C4051 1.366 . S
C4051 C4050 1.366 . S
C4051 C4052 1.414 . S
C4051 C4054 1.499 . S
C4052 H4032 0.950 . S
C4052 C4051 1.414 . S
C4052 C4053 1.374 . S
C4053 H4033 0.950 . S
C4053 C4049 1.385 . S
C4053 C4052 1.374 . S
C4054 C4051 1.499 . S
C4054 C4055 1.373 . S
C4054 C4056 1.389 . S
C4055 H4034 0.950 . S
C4055 C4054 1.373 . S
C4055 C4071 1.377 . S
C4056 C4054 1.389 . S
C4056 C4057 1.524 . S
C4056 C4070 1.377 . S
C4057 C4056 1.524 . S
C4057 C4058 1.397 . S
C4057 C4062 1.363 . S
C4058 H4035 0.950 . S
C4058 C4057 1.397 . S
C4058 C4059 1.334 . S
C4059 H4036 0.950 . S
C4059 C4058 1.334 . S
C4059 C4060 1.287 . S
C4060 C4059 1.287 . S
C4060 C4061 1.524 . S
C4060 H4079 0.913 . S
C4061 H4037 0.950 . S
C4061 C4060 1.524 . S
C4061 C4062 1.415 . S
C4062 H4038 0.950 . S
C4062 C4057 1.363 . S
C4062 C4061 1.415 . S
C4063 H4039 0.951 . S
C4063 C4064 1.366 . S
C4063 C4065 1.388 . S
C4064 C4063 1.366 . S
C4064 C4068 1.385 . S
C4065 H4040 0.951 . S
C4065 C4063 1.388 . S
C4065 C4066 1.366 . S
C4066 C4065 1.366 . S
C4066 C4067 1.414 . S
C4066 C4069 1.499 . S
C4067 H4041 0.950 . S
C4067 C4066 1.414 . S
C4067 C4068 1.374 . S
C4068 H4042 0.950 . S
C4068 C4064 1.385 . S
C4068 C4067 1.374 . S
C4069 C4066 1.499 . S
C4069 C4070 1.373 . S
C4069 C4071 1.389 . S
C4070 H4043 0.950 . S
C4070 C4056 1.377 . S
C4070 C4069 1.373 . S
C4071 C4055 1.377 . S
C4071 C4069 1.389 . S
C4071 C4072 1.524 . S
C4072 C4071 1.524 . S
C4072 C4073 1.397 . S
C4072 C4077 1.363 . S
C4073 H4044 0.950 . S
C4073 C4072 1.397 . S
C4073 C4074 1.334 . S
C4074 H4045 0.950 . S
C4074 C4073 1.334 . S
C4074 C4075 1.287 . S
C4075 C4074 1.287 . S
C4075 C4076 1.524 . S
C4075 H4078 0.999 . S
C4076 H4046 0.950 . S
C4076 C4075 1.524 . S
C4076 C4077 1.415 . S
C4077 H4047 0.950 . S
C4077 C4072 1.363 . S
C4077 C4076 1.415 . S
H4078 C4075 0.999 . S
H4079 C4060 0.913 . S
H4080 C4098 0.951 . S
H4081 C4100 0.951 . S
H4082 C4102 0.950 . S
H4083 C4103 1.002 . S
H4084 C4105 0.950 . S
H4085 C4108 0.950 . S
H4086 C4109 0.950 . S
H4087 C4111 0.950 . S
H4088 C4112 0.950 . S
H4089 C4113 0.951 . S
H4090 C4115 0.951 . S
H4091 C4117 0.950 . S
H4092 C4118 0.950 . S
H4093 C4120 0.950 . S
H4094 C4123 0.950 . S
H4095 C4124 0.950 . S
H4096 C4126 0.950 . S
H4097 C4127 0.950 . S
C4098 H4080 0.951 . S
C4098 C4099 1.366 . S
C4098 C4100 1.388 . S
C4099 C4098 1.366 . S
C4099 C4103 1.287 1_545 S
C4100 H4081 0.951 . S
C4100 C4098 1.388 . S
C4100 C4101 1.366 . S
C4101 C4100 1.366 . S
C4101 C4102 1.414 1_545 S
C4101 C4104 1.499 . S
C4102 H4082 0.950 . S
C4102 C4101 1.414 1_565 S
C4102 C4103 1.425 . S
C4103 H4083 1.002 . S
C4103 C4099 1.287 1_565 S
C4103 C4102 1.425 . S
C4104 C4101 1.499 . S
C4104 C4105 1.373 1_545 S
C4104 C4106 1.389 . S
C4105 H4084 0.950 . S
C4105 C4104 1.373 1_565 S
C4105 C4121 1.377 . S
C4106 C4104 1.389 . S
C4106 C4107 1.524 . S
C4106 C4120 1.377 . S
C4107 C4106 1.524 . S
C4107 C4108 1.397 . S
C4107 C4112 1.363 . S
C4108 H4085 0.950 . S
C4108 C4107 1.397 . S
C4108 C4109 1.334 . S
C4109 H4086 0.950 . S
C4109 C4108 1.334 . S
C4109 C4110 1.287 . S
C4110 C4109 1.287 . S
C4110 C4111 1.524 . S
C4110 H4129 0.913 . S
C4111 H4087 0.950 . S
C4111 C4110 1.524 . S
C4111 C4112 1.415 . S
C4112 H4088 0.950 . S
C4112 C4107 1.363 . S
C4112 C4111 1.415 . S
C4113 H4089 0.951 . S
C4113 C4114 1.366 1_565 S
C4113 C4115 1.388 . S
C4114 C4113 1.366 1_545 S
C4114 C4118 1.385 . S
C4115 H4090 0.951 . S
C4115 C4113 1.388 . S
C4115 C4116 1.366 1_565 S
C4116 C4115 1.366 1_545 S
C4116 C4117 1.414 . S
C4116 C4119 1.499 . S
C4117 H4091 0.950 . S
C4117 C4116 1.414 . S
C4117 C4118 1.374 . S
C4118 H4092 0.950 . S
C4118 C4114 1.385 . S
C4118 C4117 1.374 . S
C4119 C4116 1.499 . S
C4119 C4120 1.373 . S
C4119 C4121 1.389 1_545 S
C4120 H4093 0.950 . S
C4120 C4106 1.377 . S
C4120 C4119 1.373 . S
C4121 C4105 1.377 . S
C4121 C4119 1.389 1_565 S
C4121 C4122 1.524 . S
C4122 C4121 1.524 . S
C4122 C4123 1.397 . S
C4122 C4127 1.363 . S
C4123 H4094 0.950 . S
C4123 C4122 1.397 . S
C4123 C4124 1.334 . S
C4124 H4095 0.950 . S
C4124 C4123 1.334 . S
C4124 C4125 1.287 . S
C4125 C4124 1.287 . S
C4125 C4126 1.524 . S
C4125 H4128 0.999 . S
C4126 H4096 0.950 . S
C4126 C4125 1.524 . S
C4126 C4127 1.415 . S
C4127 H4097 0.950 . S
C4127 C4122 1.363 . S
C4127 C4126 1.415 . S
H4128 C4125 0.999 . S
H4129 C4110 0.913 . S
H4130 C4148 0.951 . S
H4131 C4150 0.951 . S
H4132 C4152 0.950 . S
H4133 C4153 0.950 . S
H4134 C4155 0.950 . S
H4135 C4158 0.950 1_655 S
H4136 C4159 0.950 . S
H4137 C4161 0.950 . S
H4138 C4162 0.950 . S
H4139 C4163 0.951 . S
H4140 C4165 0.951 . S
H4141 C4167 0.950 . S
H4142 C4168 0.950 . S
H4143 C4170 0.950 . S
H4144 C4173 0.950 . S
H4145 C4174 0.950 . S
H4146 C4176 0.950 . S
H4147 C4177 0.950 . S
C4148 H4130 0.951 . S
C4148 C4149 1.366 1_455 S
C4148 C4150 1.388 . S
C4149 C4148 1.366 1_655 S
C4149 C4153 1.385 . S
C4150 H4131 0.951 . S
C4150 C4148 1.388 . S
C4150 C4151 1.366 1_455 S
C4151 C4150 1.366 1_655 S
C4151 C4152 1.414 . S
C4151 C4154 1.499 . S
C4152 H4132 0.950 . S
C4152 C4151 1.414 . S
C4152 C4153 1.374 . S
C4153 H4133 0.950 . S
C4153 C4149 1.385 . S
C4153 C4152 1.374 . S
C4154 C4151 1.499 . S
C4154 C4155 1.373 . S
C4154 C4156 1.389 1_655 S
C4155 H4134 0.950 . S
C4155 C4154 1.373 . S
C4155 C4171 1.377 . S
C4156 C4154 1.389 1_455 S
C4156 C4157 1.524 . S
C4156 C4170 1.377 . S
C4157 C4156 1.524 . S
C4157 C4158 1.397 . S
C4157 C4162 1.363 . S
C4158 H4135 0.950 1_455 S
C4158 C4157 1.397 . S
C4158 C4159 1.334 . S
C4159 H4136 0.950 . S
C4159 C4158 1.334 . S
C4159 C4160 1.287 . S
C4160 C4159 1.287 . S
C4160 C4161 1.524 . S
C4160 H4179 0.913 . S
C4161 H4137 0.950 . S
C4161 C4160 1.524 . S
C4161 C4162 1.415 . S
C4162 H4138 0.950 . S
C4162 C4157 1.363 . S
C4162 C4161 1.415 . S
C4163 H4139 0.951 . S
C4163 C4164 1.366 . S
C4163 C4165 1.388 . S
C4164 C4163 1.366 . S
C4164 C4168 1.385 1_655 S
C4165 H4140 0.951 . S
C4165 C4163 1.388 . S
C4165 C4166 1.366 . S
C4166 C4165 1.366 . S
C4166 C4167 1.414 1_655 S
C4166 C4169 1.499 . S
C4167 H4141 0.950 . S
C4167 C4166 1.414 1_455 S
C4167 C4168 1.374 . S
C4168 H4142 0.950 . S
C4168 C4164 1.385 1_455 S
C4168 C4167 1.374 . S
C4169 C4166 1.499 . S
C4169 C4170 1.373 1_655 S
C4169 C4171 1.389 . S
C4170 H4143 0.950 . S
C4170 C4156 1.377 . S
C4170 C4169 1.373 1_455 S
C4171 C4155 1.377 . S
C4171 C4169 1.389 . S
C4171 C4172 1.524 . S
C4172 C4171 1.524 . S
C4172 C4173 1.397 . S
C4172 C4177 1.363 . S
C4173 H4144 0.950 . S
C4173 C4172 1.397 . S
C4173 C4174 1.334 . S
C4174 H4145 0.950 . S
C4174 C4173 1.334 . S
C4174 C4175 1.287 . S
C4175 C4174 1.287 . S
C4175 C4176 1.524 . S
C4175 H4178 0.999 . S
C4176 H4146 0.950 . S
C4176 C4175 1.524 . S
C4176 C4177 1.415 . S
C4177 H4147 0.950 . S
C4177 C4172 1.363 . S
C4177 C4176 1.415 . S
H4178 C4175 0.999 . S
H4179 C4160 0.913 . S
H4180 C4198 0.951 . S
H4181 C4200 0.951 . S
H4182 C4202 0.950 . S
H4183 C4203 0.950 . S
H4184 C4205 0.950 . S
H4185 C4208 0.950 . S
H4186 C4209 0.950 . S
H4187 C4211 0.950 . S
H4188 C4212 0.950 . S
H4189 C4213 0.951 . S
H4190 C4215 0.951 . S
H4191 C4217 0.950 . S
H4192 C4218 0.950 . S
H4193 C4220 0.950 . S
H4194 C4223 0.950 . S
H4195 C4224 0.950 . S
H4196 C4226 0.950 . S
H4197 C4227 0.950 . S
C4198 H4180 0.951 . S
C4198 C4199 1.366 . S
C4198 C4200 1.388 . S
C4199 C4198 1.366 . S
C4199 C4203 1.385 . S
C4200 H4181 0.951 . S
C4200 C4198 1.388 . S
C4200 C4201 1.366 . S
C4201 C4200 1.366 . S
C4201 C4202 1.414 . S
C4201 C4204 1.499 . S
C4202 H4182 0.950 . S
C4202 C4201 1.414 . S
C4202 C4203 1.374 . S
C4203 H4183 0.950 . S
C4203 C4199 1.385 . S
C4203 C4202 1.374 . S
C4204 C4201 1.499 . S
C4204 C4205 1.373 . S
C4204 C4206 1.389 . S
C4205 H4184 0.950 . S
C4205 C4204 1.373 . S
C4205 C4221 1.377 . S
C4206 C4204 1.389 . S
C4206 C4207 1.524 . S
C4206 C4220 1.377 . S
C4207 C4206 1.524 . S
C4207 C4208 1.397 . S
C4207 C4212 1.363 . S
C4208 H4185 0.950 . S
C4208 C4207 1.397 . S
C4208 C4209 1.334 . S
C4209 H4186 0.950 . S
C4209 C4208 1.334 . S
C4209 C4210 1.287 . S
C4210 C4209 1.287 . S
C4210 C4211 1.524 . S
C4210 H4229 0.913 . S
C4211 H4187 0.950 . S
C4211 C4210 1.524 . S
C4211 C4212 1.415 . S
C4212 H4188 0.950 . S
C4212 C4207 1.363 . S
C4212 C4211 1.415 . S
C4213 H4189 0.951 . S
C4213 C4214 1.366 . S
C4213 C4215 1.388 . S
C4214 C4213 1.366 . S
C4214 C4218 1.385 . S
C4215 H4190 0.951 . S
C4215 C4213 1.388 . S
C4215 C4216 1.366 . S
C4216 C4215 1.366 . S
C4216 C4217 1.414 . S
C4216 C4219 1.499 . S
C4217 H4191 0.950 . S
C4217 C4216 1.414 . S
C4217 C4218 1.374 . S
C4218 H4192 0.950 . S
C4218 C4214 1.385 . S
C4218 C4217 1.374 . S
C4219 C4216 1.499 . S
C4219 C4220 1.373 . S
C4219 C4221 1.389 . S
C4220 H4193 0.950 . S
C4220 C4206 1.377 . S
C4220 C4219 1.373 . S
C4221 C4205 1.377 . S
C4221 C4219 1.389 . S
C4221 C4222 1.524 . S
C4222 C4221 1.524 . S
C4222 C4223 1.397 . S
C4222 C4227 1.363 . S
C4223 H4194 0.950 . S
C4223 C4222 1.397 . S
C4223 C4224 1.334 . S
C4224 H4195 0.950 . S
C4224 C4223 1.334 . S
C4224 C4225 1.287 . S
C4225 C4224 1.287 . S
C4225 C4226 1.524 . S
C4225 H4228 0.999 . S
C4226 H4196 0.950 . S
C4226 C4225 1.524 . S
C4226 C4227 1.415 . S
C4227 H4197 0.950 . S
C4227 C4222 1.363 . S
C4227 C4226 1.415 . S
H4228 C4225 0.999 . S
H4229 C4210 0.913 . S
H4230 C4248 0.951 . S
H4231 C4250 0.951 . S
H4232 C4252 0.950 . S
H4233 C4253 0.950 . S
H4234 C4255 0.950 . S
H4235 C4258 0.950 . S
H4236 C4259 0.950 . S
H4237 C4261 0.950 . S
H4238 C4262 0.950 . S
H4239 C4263 0.951 . S
H4240 C4265 0.951 . S
H4241 C4267 0.950 . S
H4242 C4268 0.950 . S
H4243 C4270 0.950 . S
H4244 C4273 0.950 . S
H4245 C4274 0.950 . S
H4246 C4276 0.950 . S
H4247 C4277 0.950 . S
C4248 H4230 0.951 . S
C4248 C4249 1.366 . S
C4248 C4250 1.388 . S
C4249 C4248 1.366 . S
C4249 C4253 1.385 . S
C4250 H4231 0.951 . S
C4250 C4248 1.388 . S
C4250 C4251 1.366 . S
C4251 C4250 1.366 . S
C4251 C4252 1.414 . S
C4251 C4254 1.499 . S
C4252 H4232 0.950 . S
C4252 C4251 1.414 . S
C4252 C4253 1.374 . S
C4253 H4233 0.950 . S
C4253 C4249 1.385 . S
C4253 C4252 1.374 . S
C4254 C4251 1.499 . S
C4254 C4255 1.373 . S
C4254 C4256 1.389 . S
C4255 H4234 0.950 . S
C4255 C4254 1.373 . S
C4255 C4271 1.377 . S
C4256 C4254 1.389 . S
C4256 C4257 1.524 . S
C4256 C4270 1.377 . S
C4257 C4256 1.524 . S
C4257 C4258 1.397 . S
C4257 C4262 1.363 . S
C4258 H4235 0.950 . S
C4258 C4257 1.397 . S
C4258 C4259 1.334 . S
C4259 H4236 0.950 . S
C4259 C4258 1.334 . S
C4259 C4260 1.287 . S
C4260 C4259 1.287 . S
C4260 C4261 1.524 . S
C4260 H4279 0.913 . S
C4261 H4237 0.950 . S
C4261 C4260 1.524 . S
C4261 C4262 1.415 . S
C4262 H4238 0.950 . S
C4262 C4257 1.363 . S
C4262 C4261 1.415 . S
C4263 H4239 0.951 . S
C4263 C4264 1.366 . S
C4263 C4265 1.388 . S
C4264 C4263 1.366 . S
C4264 C4268 1.385 . S
C4265 H4240 0.951 . S
C4265 C4263 1.388 . S
C4265 C4266 1.366 . S
C4266 C4265 1.366 . S
C4266 C4267 1.414 . S
C4266 C4269 1.499 . S
C4267 H4241 0.950 . S
C4267 C4266 1.414 . S
C4267 C4268 1.374 . S
C4268 H4242 0.950 . S
C4268 C4264 1.385 . S
C4268 C4267 1.374 . S
C4269 C4266 1.499 . S
C4269 C4270 1.373 . S
C4269 C4271 1.389 . S
C4270 H4243 0.950 . S
C4270 C4256 1.377 . S
C4270 C4269 1.373 . S
C4271 C4255 1.377 . S
C4271 C4269 1.389 . S
C4271 C4272 1.524 . S
C4272 C4271 1.524 . S
C4272 C4273 1.397 . S
C4272 C4277 1.363 . S
C4273 H4244 0.950 . S
C4273 C4272 1.397 . S
C4273 C4274 1.334 . S
C4274 H4245 0.950 . S
C4274 C4273 1.334 . S
C4274 C4275 1.287 . S
C4275 C4274 1.287 . S
C4275 C4276 1.524 . S
C4275 H4278 0.999 . S
C4276 H4246 0.950 . S
C4276 C4275 1.524 . S
C4276 C4277 1.415 . S
C4277 H4247 0.950 . S
C4277 C4272 1.363 . S
C4277 C4276 1.415 . S
H4278 C4275 0.999 . S
H4279 C4260 0.913 . S
H4280 C4298 0.951 . S
H4281 C4300 0.951 . S
H4282 C4302 0.950 . S
H4283 C4303 0.950 . S
H4284 C4305 0.950 . S
H4285 C4308 0.950 . S
H4286 C4309 0.950 . S
H4287 C4311 0.950 . S
H4288 C4312 0.950 . S
H4289 C4313 0.951 . S
H4290 C4315 0.951 . S
H4291 C4317 0.950 . S
H4292 C4318 0.950 . S
H4293 C4320 0.950 . S
H4294 C4323 0.950 . S
H4295 C4324 0.950 . S
H4296 C4326 0.950 . S
H4297 C4327 0.950 . S
C4298 H4280 0.951 . S
C4298 C4299 1.366 . S
C4298 C4300 1.388 . S
C4299 C4298 1.366 . S
C4299 C4303 1.385 . S
C4300 H4281 0.951 . S
C4300 C4298 1.388 . S
C4300 C4301 1.366 . S
C4301 C4300 1.366 . S
C4301 C4302 1.414 . S
C4301 C4304 1.499 . S
C4302 H4282 0.950 . S
C4302 C4301 1.414 . S
C4302 C4303 1.374 . S
C4303 H4283 0.950 . S
C4303 C4299 1.385 . S
C4303 C4302 1.374 . S
C4304 C4301 1.499 . S
C4304 C4305 1.373 . S
C4304 C4306 1.389 . S
C4305 H4284 0.950 . S
C4305 C4304 1.373 . S
C4305 C4321 1.377 . S
C4306 C4304 1.389 . S
C4306 C4307 1.524 . S
C4306 C4320 1.377 . S
C4307 C4306 1.524 . S
C4307 C4308 1.397 . S
C4307 C4312 1.363 . S
C4308 H4285 0.950 . S
C4308 C4307 1.397 . S
C4308 C4309 1.334 . S
C4309 H4286 0.950 . S
C4309 C4308 1.334 . S
C4309 C4310 1.287 . S
C4310 C4309 1.287 . S
C4310 C4311 1.524 . S
C4310 H4329 0.913 . S
C4311 H4287 0.950 . S
C4311 C4310 1.524 . S
C4311 C4312 1.415 . S
C4312 H4288 0.950 . S
C4312 C4307 1.363 . S
C4312 C4311 1.415 . S
C4313 H4289 0.951 . S
C4313 C4314 1.366 . S
C4313 C4315 1.388 . S
C4314 C4313 1.366 . S
C4314 C4318 1.385 . S
C4315 H4290 0.951 . S
C4315 C4313 1.388 . S
C4315 C4316 1.366 . S
C4316 C4315 1.366 . S
C4316 C4317 1.414 . S
C4316 C4319 1.499 . S
C4317 H4291 0.950 . S
C4317 C4316 1.414 . S
C4317 C4318 1.374 . S
C4318 H4292 0.950 . S
C4318 C4314 1.385 . S
C4318 C4317 1.374 . S
C4319 C4316 1.499 . S
C4319 C4320 1.373 . S
C4319 C4321 1.389 . S
C4320 H4293 0.950 . S
C4320 C4306 1.377 . S
C4320 C4319 1.373 . S
C4321 C4305 1.377 . S
C4321 C4319 1.389 . S
C4321 C4322 1.524 . S
C4322 C4321 1.524 . S
C4322 C4323 1.397 . S
C4322 C4327 1.363 . S
C4323 H4294 0.950 . S
C4323 C4322 1.397 . S
C4323 C4324 1.334 . S
C4324 H4295 0.950 . S
C4324 C4323 1.334 . S
C4324 C4325 1.287 . S
C4325 C4324 1.287 . S
C4325 C4326 1.524 . S
C4325 H4328 0.999 . S
C4326 H4296 0.950 . S
C4326 C4325 1.524 . S
C4326 C4327 1.415 . S
C4327 H4297 0.950 . S
C4327 C4322 1.363 . S
C4327 C4326 1.415 . S
H4328 C4325 0.999 . S
H4329 C4310 0.913 . S
H4330 C4348 0.951 . S
H4331 C4350 0.951 . S
H4332 C4352 0.950 . S
H4333 C4353 0.950 . S
H4334 C4355 0.950 . S
H4335 C4358 0.950 . S
H4336 C4359 0.950 . S
H4337 C4361 0.950 . S
H4338 C4362 0.950 . S
H4339 C4363 0.951 . S
H4340 C4365 0.951 . S
H4341 C4367 0.950 . S
H4342 C4368 0.950 . S
H4343 C4370 0.950 . S
H4344 C4373 0.950 . S
H4345 C4374 0.950 . S
H4346 C4376 0.950 . S
H4347 C4377 0.950 . S
C4348 H4330 0.951 . S
C4348 C4349 1.366 . S
C4348 C4350 1.388 . S
C4349 C4348 1.366 . S
C4349 C4353 1.385 . S
C4350 H4331 0.951 . S
C4350 C4348 1.388 . S
C4350 C4351 1.366 . S
C4351 C4350 1.366 . S
C4351 C4352 1.414 . S
C4351 C4354 1.499 . S
C4352 H4332 0.950 . S
C4352 C4351 1.414 . S
C4352 C4353 1.374 . S
C4353 H4333 0.950 . S
C4353 C4349 1.385 . S
C4353 C4352 1.374 . S
C4354 C4351 1.499 . S
C4354 C4355 1.373 . S
C4354 C4356 1.389 . S
C4355 H4334 0.950 . S
C4355 C4354 1.373 . S
C4355 C4371 1.377 . S
C4356 C4354 1.389 . S
C4356 C4357 1.524 . S
C4356 C4370 1.377 . S
C4357 C4356 1.524 . S
C4357 C4358 1.397 . S
C4357 C4362 1.363 . S
C4358 H4335 0.950 . S
C4358 C4357 1.397 . S
C4358 C4359 1.334 . S
C4359 H4336 0.950 . S
C4359 C4358 1.334 . S
C4359 C4360 1.287 . S
C4360 C4359 1.287 . S
C4360 C4361 1.524 . S
C4360 H4379 0.913 . S
C4361 H4337 0.950 . S
C4361 C4360 1.524 . S
C4361 C4362 1.415 . S
C4362 H4338 0.950 . S
C4362 C4357 1.363 . S
C4362 C4361 1.415 . S
C4363 H4339 0.951 . S
C4363 C4364 1.366 . S
C4363 C4365 1.388 . S
C4364 C4363 1.366 . S
C4364 C4368 1.385 . S
C4365 H4340 0.951 . S
C4365 C4363 1.388 . S
C4365 C4366 1.366 . S
C4366 C4365 1.366 . S
C4366 C4367 1.414 . S
C4366 C4369 1.499 . S
C4367 H4341 0.950 . S
C4367 C4366 1.414 . S
C4367 C4368 1.374 . S
C4368 H4342 0.950 . S
C4368 C4364 1.385 . S
C4368 C4367 1.374 . S
C4369 C4366 1.499 . S
C4369 C4370 1.373 . S
C4369 C4371 1.389 . S
C4370 H4343 0.950 . S
C4370 C4356 1.377 . S
C4370 C4369 1.373 . S
C4371 C4355 1.377 . S
C4371 C4369 1.389 . S
C4371 C4372 1.524 . S
C4372 C4371 1.524 . S
C4372 C4373 1.397 . S
C4372 C4377 1.363 . S
C4373 H4344 0.950 . S
C4373 C4372 1.397 . S
C4373 C4374 1.334 . S
C4374 H4345 0.950 . S
C4374 C4373 1.334 . S
C4374 C4375 1.287 . S
C4375 C4374 1.287 . S
C4375 C4376 1.524 . S
C4375 H4378 0.999 . S
C4376 H4346 0.950 . S
C4376 C4375 1.524 . S
C4376 C4377 1.415 . S
C4377 H4347 0.950 . S
C4377 C4372 1.363 . S
C4377 C4376 1.415 . S
H4378 C4375 0.999 . S
H4379 C4360 0.913 . S
H4380 C4398 0.951 . S
H4381 C4400 0.951 . S
H4382 C4402 0.950 . S
H4383 C4403 0.950 . S
H4384 C4405 0.950 . S
H4385 C4408 0.950 . S
H4386 C4409 0.950 . S
H4387 C4411 0.950 . S
H4388 C4412 0.950 . S
H4389 C4413 0.951 . S
H4390 C4415 0.951 . S
H4391 C4417 0.950 . S
H4392 C4418 0.950 . S
H4393 C4420 0.950 . S
H4394 C4423 0.950 . S
H4395 C4424 0.950 . S
H4396 C4426 0.950 . S
H4397 C4427 0.950 . S
C4398 H4380 0.951 . S
C4398 C4399 1.366 . S
C4398 C4400 1.388 . S
C4399 C4398 1.366 . S
C4399 C4403 1.385 . S
C4400 H4381 0.951 . S
C4400 C4398 1.388 . S
C4400 C4401 1.366 . S
C4401 C4400 1.366 . S
C4401 C4402 1.414 . S
C4401 C4404 1.499 . S
C4402 H4382 0.950 . S
C4402 C4401 1.414 . S
C4402 C4403 1.374 . S
C4403 H4383 0.950 . S
C4403 C4399 1.385 . S
C4403 C4402 1.374 . S
C4404 C4401 1.499 . S
C4404 C4405 1.373 . S
C4404 C4406 1.389 . S
C4405 H4384 0.950 . S
C4405 C4404 1.373 . S
C4405 C4421 1.377 . S
C4406 C4404 1.389 . S
C4406 C4407 1.524 . S
C4406 C4420 1.377 . S
C4407 C4406 1.524 . S
C4407 C4408 1.397 . S
C4407 C4412 1.363 . S
C4408 H4385 0.950 . S
C4408 C4407 1.397 . S
C4408 C4409 1.334 . S
C4409 H4386 0.950 . S
C4409 C4408 1.334 . S
C4409 C4410 1.287 . S
C4410 C4409 1.287 . S
C4410 C4411 1.524 . S
C4410 H4429 0.913 . S
C4411 H4387 0.950 . S
C4411 C4410 1.524 . S
C4411 C4412 1.415 . S
C4412 H4388 0.950 . S
C4412 C4407 1.363 . S
C4412 C4411 1.415 . S
C4413 H4389 0.951 . S
C4413 C4414 1.366 . S
C4413 C4415 1.388 . S
C4414 C4413 1.366 . S
C4414 C4418 1.385 . S
C4415 H4390 0.951 . S
C4415 C4413 1.388 . S
C4415 C4416 1.366 . S
C4416 C4415 1.366 . S
C4416 C4417 1.414 . S
C4416 C4419 1.499 . S
C4417 H4391 0.950 . S
C4417 C4416 1.414 . S
C4417 C4418 1.374 . S
C4418 H4392 0.950 . S
C4418 C4414 1.385 . S
C4418 C4417 1.374 . S
C4419 C4416 1.499 . S
C4419 C4420 1.373 . S
C4419 C4421 1.389 . S
C4420 H4393 0.950 . S
C4420 C4406 1.377 . S
C4420 C4419 1.373 . S
C4421 C4405 1.377 . S
C4421 C4419 1.389 . S
C4421 C4422 1.524 . S
C4422 C4421 1.524 . S
C4422 C4423 1.397 . S
C4422 C4427 1.363 . S
C4423 H4394 0.950 . S
C4423 C4422 1.397 . S
C4423 C4424 1.334 . S
C4424 H4395 0.950 . S
C4424 C4423 1.334 . S
C4424 C4425 1.287 . S
C4425 C4424 1.287 . S
C4425 C4426 1.524 . S
C4425 H4428 0.999 . S
C4426 H4396 0.950 . S
C4426 C4425 1.524 . S
C4426 C4427 1.415 . S
C4427 H4397 0.950 . S
C4427 C4422 1.363 . S
C4427 C4426 1.415 . S
H4428 C4425 0.999 . S
H4429 C4410 0.913 . S
H4430 C4448 0.951 . S
H4431 C4450 0.951 . S
H4432 C4452 0.950 . S
H4433 C4453 0.950 . S
H4434 C4455 0.950 . S
H4435 C4458 0.950 . S
H4436 C4459 0.950 . S
H4437 C4461 0.950 . S
H4438 C4462 0.950 . S
H4439 C4463 0.951 . S
H4440 C4465 0.951 . S
H4441 C4467 0.950 . S
H4442 C4468 0.950 . S
H4443 C4470 0.950 . S
H4444 C4473 0.950 . S
H4445 C4474 0.950 . S
H4446 C4476 0.950 . S
H4447 C4477 0.950 . S
C4448 H4430 0.951 . S
C4448 C4449 1.366 . S
C4448 C4450 1.388 . S
C4449 C4448 1.366 . S
C4449 C4453 1.385 . S
C4450 H4431 0.951 . S
C4450 C4448 1.388 . S
C4450 C4451 1.366 . S
C4451 C4450 1.366 . S
C4451 C4452 1.414 . S
C4451 C4454 1.499 . S
C4452 H4432 0.950 . S
C4452 C4451 1.414 . S
C4452 C4453 1.374 . S
C4453 H4433 0.950 . S
C4453 C4449 1.385 . S
C4453 C4452 1.374 . S
C4454 C4451 1.499 . S
C4454 C4455 1.373 . S
C4454 C4456 1.389 . S
C4455 H4434 0.950 . S
C4455 C4454 1.373 . S
C4455 C4471 1.377 . S
C4456 C4454 1.389 . S
C4456 C4457 1.524 . S
C4456 C4470 1.377 . S
C4457 C4456 1.524 . S
C4457 C4458 1.397 . S
C4457 C4462 1.363 . S
C4458 H4435 0.950 . S
C4458 C4457 1.397 . S
C4458 C4459 1.334 . S
C4459 H4436 0.950 . S
C4459 C4458 1.334 . S
C4459 C4460 1.287 . S
C4460 C4459 1.287 . S
C4460 C4461 1.524 . S
C4460 H4479 0.913 . S
C4461 H4437 0.950 . S
C4461 C4460 1.524 . S
C4461 C4462 1.415 . S
C4462 H4438 0.950 . S
C4462 C4457 1.363 . S
C4462 C4461 1.415 . S
C4463 H4439 0.951 . S
C4463 C4464 1.366 . S
C4463 C4465 1.388 . S
C4464 C4463 1.366 . S
C4464 C4468 1.385 . S
C4465 H4440 0.951 . S
C4465 C4463 1.388 . S
C4465 C4466 1.366 . S
C4466 C4465 1.366 . S
C4466 C4467 1.414 . S
C4466 C4469 1.499 . S
C4467 H4441 0.950 . S
C4467 C4466 1.414 . S
C4467 C4468 1.374 . S
C4468 H4442 0.950 . S
C4468 C4464 1.385 . S
C4468 C4467 1.374 . S
C4469 C4466 1.499 . S
C4469 C4470 1.373 . S
C4469 C4471 1.389 . S
C4470 H4443 0.950 . S
C4470 C4456 1.377 . S
C4470 C4469 1.373 . S
C4471 C4455 1.377 . S
C4471 C4469 1.389 . S
C4471 C4472 1.524 . S
C4472 C4471 1.524 . S
C4472 C4473 1.397 . S
C4472 C4477 1.363 . S
C4473 H4444 0.950 . S
C4473 C4472 1.397 . S
C4473 C4474 1.334 . S
C4474 H4445 0.950 . S
C4474 C4473 1.334 . S
C4474 C4475 1.287 . S
C4475 C4474 1.287 . S
C4475 C4476 1.524 . S
C4475 H4478 0.999 . S
C4476 H4446 0.950 . S
C4476 C4475 1.524 . S
C4476 C4477 1.415 . S
C4477 H4447 0.950 . S
C4477 C4472 1.363 . S
C4477 C4476 1.415 . S
H4478 C4475 0.999 . S
H4479 C4460 0.913 . S
H4480 C4498 0.951 . S
H4481 C4500 0.951 . S
H4482 C4502 0.950 . S
H4483 C4503 0.950 . S
H4484 C4505 0.950 . S
H4485 C4508 0.950 . S
H4486 C4509 0.950 . S
H4487 C4511 0.950 . S
H4488 C4512 0.950 . S
H4489 C4513 0.951 . S
H4490 C4515 0.951 . S
H4491 C4517 0.950 . S
H4492 C4518 0.950 . S
H4493 C4520 0.950 . S
H4494 C4523 0.950 . S
H4495 C4524 0.950 . S
H4496 C4526 0.950 . S
H4497 C4527 0.950 . S
C4498 H4480 0.951 . S
C4498 C4499 1.366 . S
C4498 C4500 1.388 . S
C4499 C4498 1.366 . S
C4499 C4503 1.385 . S
C4500 H4481 0.951 . S
C4500 C4498 1.388 . S
C4500 C4501 1.366 . S
C4501 C4500 1.366 . S
C4501 C4502 1.414 . S
C4501 C4504 1.499 . S
C4502 H4482 0.950 . S
C4502 C4501 1.414 . S
C4502 C4503 1.374 . S
C4503 H4483 0.950 . S
C4503 C4499 1.385 . S
C4503 C4502 1.374 . S
C4504 C4501 1.499 . S
C4504 C4505 1.373 . S
C4504 C4506 1.389 . S
C4505 H4484 0.950 . S
C4505 C4504 1.373 . S
C4505 C4521 1.377 . S
C4506 C4504 1.389 . S
C4506 C4507 1.524 . S
C4506 C4520 1.377 . S
C4507 C4506 1.524 . S
C4507 C4508 1.397 . S
C4507 C4512 1.363 . S
C4508 H4485 0.950 . S
C4508 C4507 1.397 . S
C4508 C4509 1.334 . S
C4509 H4486 0.950 . S
C4509 C4508 1.334 . S
C4509 C4510 1.287 . S
C4510 C4509 1.287 . S
C4510 C4511 1.524 . S
C4510 H4529 0.913 . S
C4511 H4487 0.950 . S
C4511 C4510 1.524 . S
C4511 C4512 1.415 . S
C4512 H4488 0.950 . S
C4512 C4507 1.363 . S
C4512 C4511 1.415 . S
C4513 H4489 0.951 . S
C4513 C4514 1.366 . S
C4513 C4515 1.388 . S
C4514 C4513 1.366 . S
C4514 C4518 1.385 . S
C4515 H4490 0.951 . S
C4515 C4513 1.388 . S
C4515 C4516 1.366 . S
C4516 C4515 1.366 . S
C4516 C4517 1.414 . S
C4516 C4519 1.499 . S
C4517 H4491 0.950 . S
C4517 C4516 1.414 . S
C4517 C4518 1.374 . S
C4518 H4492 0.950 . S
C4518 C4514 1.385 . S
C4518 C4517 1.374 . S
C4519 C4516 1.499 . S
C4519 C4520 1.373 . S
C4519 C4521 1.389 . S
C4520 H4493 0.950 . S
C4520 C4506 1.377 . S
C4520 C4519 1.373 . S
C4521 C4505 1.377 . S
C4521 C4519 1.389 . S
C4521 C4522 1.524 . S
C4522 C4521 1.524 . S
C4522 C4523 1.397 . S
C4522 C4527 1.363 . S
C4523 H4494 0.950 . S
C4523 C4522 1.397 . S
C4523 C4524 1.334 . S
C4524 H4495 0.950 . S
C4524 C4523 1.334 . S
C4524 C4525 1.287 . S
C4525 C4524 1.287 . S
C4525 C4526 1.524 . S
C4525 H4528 0.999 . S
C4526 H4496 0.950 . S
C4526 C4525 1.524 . S
C4526 C4527 1.415 . S
C4527 H4497 0.950 . S
C4527 C4522 1.363 . S
C4527 C4526 1.415 . S
H4528 C4525 0.999 . S
H4529 C4510 0.913 . S
H4530 C4548 0.951 . S
H4531 C4550 0.951 . S
H4532 C4552 0.950 . S
H4533 C4553 0.950 . S
H4534 C4555 0.963 . S
H4535 C4558 0.950 . S
H4536 C4559 0.967 . S
H4537 C4561 0.950 . S
H4538 C4562 0.950 . S
H4539 C4563 0.951 . S
H4540 C4565 0.951 . S
H4541 C4567 0.950 . S
H4542 C4568 0.950 . S
H4543 C4570 0.950 . S
H4544 C4573 0.950 . S
H4545 C4574 0.950 . S
H4546 C4576 0.950 . S
H4547 C4577 0.950 . S
C4548 H4530 0.951 . S
C4548 C4549 1.366 . S
C4548 C4550 1.388 . S
C4549 C4548 1.366 . S
C4549 C4553 1.385 1_655 S
C4550 H4531 0.951 . S
C4550 C4548 1.388 . S
C4550 C4551 1.366 . S
C4551 C4550 1.366 . S
C4551 C4552 1.414 1_655 S
C4551 C4554 1.499 . S
C4552 H4532 0.950 . S
C4552 C4551 1.414 1_455 S
C4552 C4553 1.374 . S
C4553 H4533 0.950 . S
C4553 C4549 1.385 1_455 S
C4553 C4552 1.374 . S
C4554 C4551 1.499 . S
C4554 C4555 1.373 . S
C4554 C4556 1.389 . S
C4555 H4534 0.963 . S
C4555 C4554 1.373 . S
C4555 C4571 1.377 . S
C4556 C4554 1.389 . S
C4556 C4557 1.524 . S
C4556 C4570 1.377 . S
C4557 C4556 1.524 . S
C4557 C4558 1.397 1_655 S
C4557 C4562 1.363 . S
C4558 H4535 0.950 . S
C4558 C4557 1.397 1_455 S
C4558 C4559 1.363 . S
C4559 H4536 0.967 . S
C4559 C4558 1.363 . S
C4559 C4560 1.244 1_455 S
C4560 C4559 1.244 1_655 S
C4560 C4561 1.524 . S
C4560 H4579 0.913 . S
C4561 H4537 0.950 . S
C4561 C4560 1.524 . S
C4561 C4562 1.415 . S
C4562 H4538 0.950 . S
C4562 C4557 1.363 . S
C4562 C4561 1.415 . S
C4563 H4539 0.951 . S
C4563 C4564 1.366 1_455 S
C4563 C4565 1.388 . S
C4564 C4563 1.366 1_655 S
C4564 C4568 1.385 . S
C4565 H4540 0.951 . S
C4565 C4563 1.388 . S
C4565 C4566 1.366 1_455 S
C4566 C4565 1.366 1_655 S
C4566 C4567 1.414 . S
C4566 C4569 1.499 . S
C4567 H4541 0.950 . S
C4567 C4566 1.414 . S
C4567 C4568 1.374 . S
C4568 H4542 0.950 . S
C4568 C4564 1.385 . S
C4568 C4567 1.374 . S
C4569 C4566 1.499 . S
C4569 C4570 1.373 . S
C4569 C4571 1.389 . S
C4570 H4543 0.950 . S
C4570 C4556 1.377 . S
C4570 C4569 1.373 . S
C4571 C4555 1.377 . S
C4571 C4569 1.389 . S
C4571 C4572 1.524 . S
C4572 C4571 1.524 . S
C4572 C4573 1.397 . S
C4572 C4577 1.363 1_655 S
C4573 H4544 0.950 . S
C4573 C4572 1.397 . S
C4573 C4574 1.334 . S
C4574 H4545 0.950 . S
C4574 C4573 1.334 . S
C4574 C4575 1.287 . S
C4575 C4574 1.287 . S
C4575 C4576 1.524 1_655 S
C4575 H4578 1.027 . S
C4576 H4546 0.950 . S
C4576 C4575 1.524 1_455 S
C4576 C4577 1.415 . S
C4577 H4547 0.950 . S
C4577 C4572 1.363 1_455 S
C4577 C4576 1.415 . S
H4578 C4575 1.027 . S
H4579 C4560 0.913 . S
H4580 C4598 0.951 . S
H4581 C4600 0.951 . S
H4582 C4602 0.950 . S
H4583 C4603 0.950 . S
H4584 C4605 0.950 . S
H4585 C4608 0.950 . S
H4586 C4609 0.950 . S
H4587 C4611 0.950 . S
H4588 C4612 0.950 . S
H4589 C4613 0.951 . S
H4590 C4615 0.951 . S
H4591 C4617 0.950 . S
H4592 C4618 0.950 . S
H4593 C4620 0.950 . S
H4594 C4623 0.950 . S
H4595 C4624 0.950 . S
H4596 C4626 0.950 . S
H4597 C4627 0.950 . S
C4598 H4580 0.951 . S
C4598 C4599 1.366 . S
C4598 C4600 1.388 . S
C4599 C4598 1.366 . S
C4599 C4603 1.385 . S
C4600 H4581 0.951 . S
C4600 C4598 1.388 . S
C4600 C4601 1.366 . S
C4601 C4600 1.366 . S
C4601 C4602 1.414 . S
C4601 C4604 1.499 . S
C4602 H4582 0.950 . S
C4602 C4601 1.414 . S
C4602 C4603 1.374 . S
C4603 H4583 0.950 . S
C4603 C4599 1.385 . S
C4603 C4602 1.374 . S
C4604 C4601 1.499 . S
C4604 C4605 1.373 . S
C4604 C4606 1.389 . S
C4605 H4584 0.950 . S
C4605 C4604 1.373 . S
C4605 C4621 1.377 . S
C4606 C4604 1.389 . S
C4606 C4607 1.524 . S
C4606 C4620 1.377 . S
C4607 C4606 1.524 . S
C4607 C4608 1.397 . S
C4607 C4612 1.363 . S
C4608 H4585 0.950 . S
C4608 C4607 1.397 . S
C4608 C4609 1.334 . S
C4609 H4586 0.950 . S
C4609 C4608 1.334 . S
C4609 C4610 1.287 . S
C4610 C4609 1.287 . S
C4610 C4611 1.524 . S
C4610 H4629 0.913 . S
C4611 H4587 0.950 . S
C4611 C4610 1.524 . S
C4611 C4612 1.415 . S
C4612 H4588 0.950 . S
C4612 C4607 1.363 . S
C4612 C4611 1.415 . S
C4613 H4589 0.951 . S
C4613 C4614 1.366 . S
C4613 C4615 1.388 . S
C4614 C4613 1.366 . S
C4614 C4618 1.385 . S
C4615 H4590 0.951 . S
C4615 C4613 1.388 . S
C4615 C4616 1.366 . S
C4616 C4615 1.366 . S
C4616 C4617 1.414 . S
C4616 C4619 1.499 . S
C4617 H4591 0.950 . S
C4617 C4616 1.414 . S
C4617 C4618 1.374 . S
C4618 H4592 0.950 . S
C4618 C4614 1.385 . S
C4618 C4617 1.374 . S
C4619 C4616 1.499 . S
C4619 C4620 1.373 . S
C4619 C4621 1.389 . S
C4620 H4593 0.950 . S
C4620 C4606 1.377 . S
C4620 C4619 1.373 . S
C4621 C4605 1.377 . S
C4621 C4619 1.389 . S
C4621 C4622 1.524 . S
C4622 C4621 1.524 . S
C4622 C4623 1.397 . S
C4622 C4627 1.363 . S
C4623 H4594 0.950 . S
C4623 C4622 1.397 . S
C4623 C4624 1.334 . S
C4624 H4595 0.950 . S
C4624 C4623 1.334 . S
C4624 C4625 1.287 . S
C4625 C4624 1.287 . S
C4625 C4626 1.524 . S
C4625 H4628 0.999 . S
C4626 H4596 0.950 . S
C4626 C4625 1.524 . S
C4626 C4627 1.415 . S
C4627 H4597 0.950 . S
C4627 C4622 1.363 . S
C4627 C4626 1.415 . S
H4628 C4625 0.999 . S
H4629 C4610 0.913 . S
H4630 C4648 0.951 . S
H4631 C4650 0.951 . S
H4632 C4652 0.950 . S
H4633 C4653 0.950 . S
H4634 C4655 0.950 . S
H4635 C4658 0.950 . S
H4636 C4659 0.950 . S
H4637 C4661 0.950 . S
H4638 C4662 0.950 . S
H4639 C4663 0.951 . S
H4640 C4665 0.951 . S
H4641 C4667 0.950 . S
H4642 C4668 0.950 . S
H4643 C4670 0.950 . S
H4644 C4673 0.950 . S
H4645 C4674 0.950 . S
H4646 C4676 0.950 . S
H4647 C4677 0.950 . S
C4648 H4630 0.951 . S
C4648 C4649 1.366 . S
C4648 C4650 1.388 . S
C4649 C4648 1.366 . S
C4649 C4653 1.385 . S
C4650 H4631 0.951 . S
C4650 C4648 1.388 . S
C4650 C4651 1.366 . S
C4651 C4650 1.366 . S
C4651 C4652 1.414 . S
C4651 C4654 1.499 . S
C4652 H4632 0.950 . S
C4652 C4651 1.414 . S
C4652 C4653 1.374 . S
C4653 H4633 0.950 . S
C4653 C4649 1.385 . S
C4653 C4652 1.374 . S
C4654 C4651 1.499 . S
C4654 C4655 1.373 . S
C4654 C4656 1.389 1_545 S
C4655 H4634 0.950 . S
C4655 C4654 1.373 . S
C4655 C4671 1.377 . S
C4656 C4654 1.389 1_565 S
C4656 C4657 1.524 . S
C4656 C4670 1.377 . S
C4657 C4656 1.524 . S
C4657 C4658 1.397 . S
C4657 C4662 1.363 . S
C4658 H4635 0.950 . S
C4658 C4657 1.397 . S
C4658 C4659 1.334 . S
C4659 H4636 0.950 . S
C4659 C4658 1.334 . S
C4659 C4660 1.287 . S
C4660 C4659 1.287 . S
C4660 C4661 1.524 . S
C4660 H4679 0.913 . S
C4661 H4637 0.950 . S
C4661 C4660 1.524 . S
C4661 C4662 1.415 . S
C4662 H4638 0.950 . S
C4662 C4657 1.363 . S
C4662 C4661 1.415 . S
C4663 H4639 0.951 . S
C4663 C4664 1.366 . S
C4663 C4665 1.388 . S
C4664 C4663 1.366 . S
C4664 C4668 1.385 . S
C4665 H4640 0.951 . S
C4665 C4663 1.388 . S
C4665 C4666 1.366 . S
C4666 C4665 1.366 . S
C4666 C4667 1.414 . S
C4666 C4669 1.499 . S
C4667 H4641 0.950 . S
C4667 C4666 1.414 . S
C4667 C4668 1.374 . S
C4668 H4642 0.950 . S
C4668 C4664 1.385 . S
C4668 C4667 1.374 . S
C4669 C4666 1.499 . S
C4669 C4670 1.373 1_545 S
C4669 C4671 1.389 . S
C4670 H4643 0.950 . S
C4670 C4656 1.377 . S
C4670 C4669 1.373 1_565 S
C4671 C4655 1.377 . S
C4671 C4669 1.389 . S
C4671 C4672 1.524 . S
C4672 C4671 1.524 . S
C4672 C4673 1.397 . S
C4672 C4677 1.363 . S
C4673 H4644 0.950 . S
C4673 C4672 1.397 . S
C4673 C4674 1.334 . S
C4674 H4645 0.950 . S
C4674 C4673 1.334 . S
C4674 C4675 1.287 . S
C4675 C4674 1.287 . S
C4675 C4676 1.524 . S
C4675 H4678 0.999 . S
C4676 H4646 0.950 . S
C4676 C4675 1.524 . S
C4676 C4677 1.415 . S
C4677 H4647 0.950 . S
C4677 C4672 1.363 . S
C4677 C4676 1.415 . S
H4678 C4675 0.999 . S
H4679 C4660 0.913 . S
C1099 C9 1.389 1_655 S
C1114 C688 1.433 . S
C1149 C19 1.570 . S
C1164 C734 1.556 . S
C1214 C766 1.492 . S
C1199 C33 1.485 . S
C1249 C37 1.442 . S
C1264 C819 1.453 . S
C1299 C5 1.427 . S
C1314 C865 1.441 . S
C1349 C23 1.602 . S
C1364 C904 1.594 . S
C1399 C47 1.448 . S
C1414 C858 1.453 . S
C1464 C911 1.616 . S
C1449 C65 1.622 . S
C1514 C812 1.456 . S
C1499 C75 1.450 . S
C1549 C79 1.370 . S
C1564 C773 1.378 . S
C1614 C667 1.474 . S
C1599 C51 1.444 . S
C1649 C61 1.592 . S
C1664 C713 1.576 . S
C1699 C93 1.725 . S
C1714 C943 1.714 . S
C1749 C103 1.648 . S
C1764 C1010 1.630 . S
C1814 C1056 1.644 . S
C1799 C117 1.661 . S
C1849 C121 1.606 . S
C1864 C267 1.587 . S
C1899 C89 1.645 . S
C1914 C313 1.625 . S
C1949 C107 1.654 . S
C1964 C359 1.632 . S
C1999 C131 1.591 . S
C2014 C306 1.572 . S
C2049 C149 1.667 . S
C2064 C352 1.646 . S
C2114 C260 1.617 . S
C2099 C159 1.634 . S
C2164 C1035 1.670 . S
C2149 C163 1.691 . S
C2214 C964 1.671 . S
C2199 C135 1.683 . S
C2264 C989 1.652 . S
C2249 C145 1.673 . S
C2299 C177 1.603 . S
C2314 C391 1.594 . S
C2349 C187 1.609 . S
C2364 C444 1.598 . S
C2399 C201 1.677 . S
C2414 C490 1.670 . S
C2449 C205 1.729 . S
C2464 C536 1.719 . S
C2514 C589 1.615 . S
C2499 C173 1.634 . S
C2564 C635 1.673 . S
C2549 C191 1.697 . S
C2614 C582 1.704 . S
C2599 C215 1.724 . S
C2664 C628 1.690 . S
C2649 C233 1.713 . S
C2699 C243 1.614 . S
C2714 C543 1.606 . S
C2764 C497 1.547 . S
C2749 C247 1.556 . S
C2799 C219 1.699 . S
C2814 C412 1.689 . S
C2864 C451 1.637 . S
C2849 C229 1.648 . S
C2914 C274 1.583 . S
C2899 C11 1.595 . S
C2949 C14 1.502 . S
C2964 C320 1.489 . S
C3014 C366 1.666 . S
C2999 C28 1.679 . S
C3064 C398 1.642 . S
C3049 C39 1.668 . S
C3114 C437 1.587 . S
C3099 C0 1.608 . S
C3164 C483 1.440 . S
C3149 C25 1.464 . S
C3199 C42 1.668 . S
C3214 C504 1.647 . S
C3249 C67 1.525 . S
C3264 C405 1.499 . S
C3299 C70 1.550 . S
C3314 C458 1.527 . S
C3349 C81 1.589 . S
C3364 C299 1.585 . S
C3414 C345 1.630 . S
C3399 C53 1.646 . S
C3449 C56 1.543 . S
C3464 C253 1.529 . S
C3514 C529 1.518 . S
C3499 C95 1.540 . S
C3549 C98 1.666 . S
C3564 C596 1.657 . S
C3599 C112 1.741 . S
C3614 C642 1.729 . S
C3664 C681 1.400 . S
C3649 C123 1.389 . S
C3699 C84 1.571 . S
C3714 C727 1.562 . S
C3749 C109 1.324 . S
C3764 C759 1.334 . S
C3799 C126 1.419 . S
C3814 C780 1.425 . S
C3849 C151 1.371 . S
C3864 C674 1.380 . S
C3914 C720 1.535 . S
C3899 C154 1.543 . S
C3949 C165 1.526 . S
C3964 C575 1.512 . S
C3999 C137 1.690 . S
C4014 C621 1.676 . S
C4064 C550 1.682 . S
C4049 C140 1.704 . S
C4114 C826 1.371 . S
C4099 C179 1.360 . S
C4149 C182 1.362 . S
C4164 C872 1.378 . S
C4199 C196 1.639 . S
C4214 C897 1.618 . S
C4264 C950 1.584 . S
C4249 C207 1.610 . S
C4314 C1003 1.651 . S
C4299 C168 1.660 . S
C4349 C193 1.636 . S
C4364 C1049 1.624 . S
C4399 C210 1.627 . S
C4414 C1042 1.615 . S
C4449 C235 1.689 . S
C4464 C957 1.664 . S
C4514 C996 1.617 . S
C4499 C238 1.624 . S
C4564 C851 1.325 . S
C4549 C249 1.313 . S
C4614 C918 1.576 . S
C4599 C221 1.599 . S
C4649 C224 1.394 . S
C4664 C805 1.408 . S
