# Generated by pormake.
# Topology llk, (3,12)-cn, num edge types: 1
# Building blocks:
#     Node 0, Type 0, BuildingBlock: QEWDON_clean_linker_0, # of connection points: 3
#     Node 1, Type 0, BuildingBlock: QEWDON_clean_linker_0, # of connection points: 3
#     Node 2, Type 0, BuildingBlock: QEWDON_clean_linker_0, # of connection points: 3
#     Node 3, Type 0, BuildingBlock: QEWDON_clean_linker_0, # of connection points: 3
#     Node 4, Type 0, BuildingBlock: QEWDON_clean_linker_0, # of connection points: 3
#     Node 5, Type 0, BuildingBlock: QEWDON_clean_linker_0, # of connection points: 3
#     Node 6, Type 0, BuildingBlock: QEWDON_clean_linker_0, # of connection points: 3
#     Node 7, Type 0, BuildingBlock: QEWDON_clean_linker_0, # of connection points: 3
#     Node 8, Type 0, BuildingBlock: QEWDON_clean_linker_0, # of connection points: 3
#     Node 9, Type 0, BuildingBlock: QEWDON_clean_linker_0, # of connection points: 3
#     Node 10, Type 0, BuildingBlock: QEWDON_clean_linker_0, # of connection points: 3
#     Node 11, Type 0, BuildingBlock: QEWDON_clean_linker_0, # of connection points: 3
#     Node 12, Type 0, BuildingBlock: QEWDON_clean_linker_0, # of connection points: 3
#     Node 13, Type 0, BuildingBlock: QEWDON_clean_linker_0, # of connection points: 3
#     Node 14, Type 0, BuildingBlock: QEWDON_clean_linker_0, # of connection points: 3
#     Node 15, Type 0, BuildingBlock: QEWDON_clean_linker_0, # of connection points: 3
#     Node 16, Type 0, BuildingBlock: QEWDON_clean_linker_0, # of connection points: 3
#     Node 17, Type 0, BuildingBlock: QEWDON_clean_linker_0, # of connection points: 3
#     Node 18, Type 0, BuildingBlock: QEWDON_clean_linker_0, # of connection points: 3
#     Node 19, Type 0, BuildingBlock: QEWDON_clean_linker_0, # of connection points: 3
#     Node 20, Type 0, BuildingBlock: QEWDON_clean_linker_0, # of connection points: 3
#     Node 21, Type 0, BuildingBlock: QEWDON_clean_linker_0, # of connection points: 3
#     Node 22, Type 0, BuildingBlock: QEWDON_clean_linker_0, # of connection points: 3
#     Node 23, Type 0, BuildingBlock: QEWDON_clean_linker_0, # of connection points: 3
#     Node 24, Type 1, BuildingBlock: QEWDON_clean_sbu_0, # of connection points: 12
#     Node 25, Type 1, BuildingBlock: QEWDON_clean_sbu_0, # of connection points: 12
#     Node 26, Type 1, BuildingBlock: QEWDON_clean_sbu_0, # of connection points: 12
#     Node 27, Type 1, BuildingBlock: QEWDON_clean_sbu_0, # of connection points: 12
#     Node 28, Type 1, BuildingBlock: QEWDON_clean_sbu_0, # of connection points: 12
#     Node 29, Type 1, BuildingBlock: QEWDON_clean_sbu_0, # of connection points: 12
#     Edge 30, Type (0, 1), BuildingBlock: MIFKUJ_clean_linker_0, # of connection points: 2
#     Edge 31, Type (0, 1), BuildingBlock: MIFKUJ_clean_linker_0, # of connection points: 2
#     Edge 32, Type (0, 1), BuildingBlock: MIFKUJ_clean_linker_0, # of connection points: 2
#     Edge 33, Type (0, 1), BuildingBlock: MIFKUJ_clean_linker_0, # of connection points: 2
#     Edge 34, Type (0, 1), BuildingBlock: MIFKUJ_clean_linker_0, # of connection points: 2
#     Edge 35, Type (0, 1), BuildingBlock: MIFKUJ_clean_linker_0, # of connection points: 2
#     Edge 36, Type (0, 1), BuildingBlock: MIFKUJ_clean_linker_0, # of connection points: 2
#     Edge 37, Type (0, 1), BuildingBlock: MIFKUJ_clean_linker_0, # of connection points: 2
#     Edge 38, Type (0, 1), BuildingBlock: MIFKUJ_clean_linker_0, # of connection points: 2
#     Edge 39, Type (0, 1), BuildingBlock: MIFKUJ_clean_linker_0, # of connection points: 2
#     Edge 40, Type (0, 1), BuildingBlock: MIFKUJ_clean_linker_0, # of connection points: 2
#     Edge 41, Type (0, 1), BuildingBlock: MIFKUJ_clean_linker_0, # of connection points: 2
#     Edge 42, Type (0, 1), BuildingBlock: MIFKUJ_clean_linker_0, # of connection points: 2
#     Edge 43, Type (0, 1), BuildingBlock: MIFKUJ_clean_linker_0, # of connection points: 2
#     Edge 44, Type (0, 1), BuildingBlock: MIFKUJ_clean_linker_0, # of connection points: 2
#     Edge 45, Type (0, 1), BuildingBlock: MIFKUJ_clean_linker_0, # of connection points: 2
#     Edge 46, Type (0, 1), BuildingBlock: MIFKUJ_clean_linker_0, # of connection points: 2
#     Edge 47, Type (0, 1), BuildingBlock: MIFKUJ_clean_linker_0, # of connection points: 2
#     Edge 48, Type (0, 1), BuildingBlock: MIFKUJ_clean_linker_0, # of connection points: 2
#     Edge 49, Type (0, 1), BuildingBlock: MIFKUJ_clean_linker_0, # of connection points: 2
#     Edge 50, Type (0, 1), BuildingBlock: MIFKUJ_clean_linker_0, # of connection points: 2
#     Edge 51, Type (0, 1), BuildingBlock: MIFKUJ_clean_linker_0, # of connection points: 2
#     Edge 52, Type (0, 1), BuildingBlock: MIFKUJ_clean_linker_0, # of connection points: 2
#     Edge 53, Type (0, 1), BuildingBlock: MIFKUJ_clean_linker_0, # of connection points: 2
#     Edge 54, Type (0, 1), BuildingBlock: MIFKUJ_clean_linker_0, # of connection points: 2
#     Edge 55, Type (0, 1), BuildingBlock: MIFKUJ_clean_linker_0, # of connection points: 2
#     Edge 56, Type (0, 1), BuildingBlock: MIFKUJ_clean_linker_0, # of connection points: 2
#     Edge 57, Type (0, 1), BuildingBlock: MIFKUJ_clean_linker_0, # of connection points: 2
#     Edge 58, Type (0, 1), BuildingBlock: MIFKUJ_clean_linker_0, # of connection points: 2
#     Edge 59, Type (0, 1), BuildingBlock: MIFKUJ_clean_linker_0, # of connection points: 2
#     Edge 60, Type (0, 1), BuildingBlock: MIFKUJ_clean_linker_0, # of connection points: 2
#     Edge 61, Type (0, 1), BuildingBlock: MIFKUJ_clean_linker_0, # of connection points: 2
#     Edge 62, Type (0, 1), BuildingBlock: MIFKUJ_clean_linker_0, # of connection points: 2
#     Edge 63, Type (0, 1), BuildingBlock: MIFKUJ_clean_linker_0, # of connection points: 2
#     Edge 64, Type (0, 1), BuildingBlock: MIFKUJ_clean_linker_0, # of connection points: 2
#     Edge 65, Type (0, 1), BuildingBlock: MIFKUJ_clean_linker_0, # of connection points: 2
#     Edge 66, Type (0, 1), BuildingBlock: MIFKUJ_clean_linker_0, # of connection points: 2
#     Edge 67, Type (0, 1), BuildingBlock: MIFKUJ_clean_linker_0, # of connection points: 2
#     Edge 68, Type (0, 1), BuildingBlock: MIFKUJ_clean_linker_0, # of connection points: 2
#     Edge 69, Type (0, 1), BuildingBlock: MIFKUJ_clean_linker_0, # of connection points: 2
#     Edge 70, Type (0, 1), BuildingBlock: MIFKUJ_clean_linker_0, # of connection points: 2
#     Edge 71, Type (0, 1), BuildingBlock: MIFKUJ_clean_linker_0, # of connection points: 2
#     Edge 72, Type (0, 1), BuildingBlock: MIFKUJ_clean_linker_0, # of connection points: 2
#     Edge 73, Type (0, 1), BuildingBlock: MIFKUJ_clean_linker_0, # of connection points: 2
#     Edge 74, Type (0, 1), BuildingBlock: MIFKUJ_clean_linker_0, # of connection points: 2
#     Edge 75, Type (0, 1), BuildingBlock: MIFKUJ_clean_linker_0, # of connection points: 2
#     Edge 76, Type (0, 1), BuildingBlock: MIFKUJ_clean_linker_0, # of connection points: 2
#     Edge 77, Type (0, 1), BuildingBlock: MIFKUJ_clean_linker_0, # of connection points: 2
#     Edge 78, Type (0, 1), BuildingBlock: MIFKUJ_clean_linker_0, # of connection points: 2
#     Edge 79, Type (0, 1), BuildingBlock: MIFKUJ_clean_linker_0, # of connection points: 2
#     Edge 80, Type (0, 1), BuildingBlock: MIFKUJ_clean_linker_0, # of connection points: 2
#     Edge 81, Type (0, 1), BuildingBlock: MIFKUJ_clean_linker_0, # of connection points: 2
#     Edge 82, Type (0, 1), BuildingBlock: MIFKUJ_clean_linker_0, # of connection points: 2
#     Edge 83, Type (0, 1), BuildingBlock: MIFKUJ_clean_linker_0, # of connection points: 2
#     Edge 84, Type (0, 1), BuildingBlock: MIFKUJ_clean_linker_0, # of connection points: 2
#     Edge 85, Type (0, 1), BuildingBlock: MIFKUJ_clean_linker_0, # of connection points: 2
#     Edge 86, Type (0, 1), BuildingBlock: MIFKUJ_clean_linker_0, # of connection points: 2
#     Edge 87, Type (0, 1), BuildingBlock: MIFKUJ_clean_linker_0, # of connection points: 2
#     Edge 88, Type (0, 1), BuildingBlock: MIFKUJ_clean_linker_0, # of connection points: 2
#     Edge 89, Type (0, 1), BuildingBlock: MIFKUJ_clean_linker_0, # of connection points: 2
#     Edge 90, Type (0, 1), BuildingBlock: MIFKUJ_clean_linker_0, # of connection points: 2
#     Edge 91, Type (0, 1), BuildingBlock: MIFKUJ_clean_linker_0, # of connection points: 2
#     Edge 92, Type (0, 1), BuildingBlock: MIFKUJ_clean_linker_0, # of connection points: 2
#     Edge 93, Type (0, 1), BuildingBlock: MIFKUJ_clean_linker_0, # of connection points: 2
#     Edge 94, Type (0, 1), BuildingBlock: MIFKUJ_clean_linker_0, # of connection points: 2
#     Edge 95, Type (0, 1), BuildingBlock: MIFKUJ_clean_linker_0, # of connection points: 2
#     Edge 96, Type (0, 1), BuildingBlock: MIFKUJ_clean_linker_0, # of connection points: 2
#     Edge 97, Type (0, 1), BuildingBlock: MIFKUJ_clean_linker_0, # of connection points: 2
#     Edge 98, Type (0, 1), BuildingBlock: MIFKUJ_clean_linker_0, # of connection points: 2
#     Edge 99, Type (0, 1), BuildingBlock: MIFKUJ_clean_linker_0, # of connection points: 2
#     Edge 100, Type (0, 1), BuildingBlock: MIFKUJ_clean_linker_0, # of connection points: 2
#     Edge 101, Type (0, 1), BuildingBlock: MIFKUJ_clean_linker_0, # of connection points: 2
# Relax obj value: 0.108
# Max RMSD: 0.259
# Mean RMSD: 0.203
data_MOF--net-llk--node1-QEWDON_clean_sbu_0--node2-QEWDON_clean_linker_0--edge1-MIFKUJ_clean_linker_0
_symmetry_space_group_name_H-M    P1
_symmetry_Int_Tables_number       1
_symmetry_cell_setting            triclinic
loop_
_symmetry_equiv_pos_as_xyz
'x, y, z'
_cell_length_a     61.045616
_cell_length_b     62.660943
_cell_length_c     60.592193
_cell_angle_alpha  90.044562
_cell_angle_beta   90.084949
_cell_angle_gamma 89.676867
loop_
_atom_site_label
_atom_site_type_symbol
_atom_site_fract_x
_atom_site_fract_y
_atom_site_fract_z
_atom_type_partial_charge
H0 H 0.02204 0.30839 0.27868 0.0
C1 C 0.02524 0.2935 0.2871 0.0
C2 C 0.03135 0.29403 0.30951 0.0
C3 C 0.02294 0.27395 0.27573 0.0
H4 H 0.03892 0.275 0.33808 0.0
C5 C 0.03467 0.2747 0.32074 0.0
C6 C 0.03205 0.25497 0.31012 0.0
C7 C 0.02682 0.25479 0.2875 0.0
C8 C 0.0157 0.27338 0.25197 0.0
H9 H 0.02533 0.23959 0.27923 0.0
C10 C 0.0201 0.29039 0.23724 0.0
C11 C 0.01284 0.28981 0.21505 0.0
C12 C 0.0038 0.25579 0.24389 0.0
H13 H -0.00096 0.24279 0.25454 0.0
C14 C 0.9974 0.25473 0.22185 0.0
H15 H 0.02894 0.3042 0.24301 0.0
C16 C 0.00197 0.27145 0.20751 0.0
H17 H 0.99687 0.26994 0.19047 0.0
H18 H 0.9886 0.24093 0.21589 0.0
H19 H 0.74902 0.05748 0.2698 0.0
C20 C 0.74123 0.05115 0.25514 0.0
C21 C 0.71861 0.04757 0.25546 0.0
C22 C 0.75377 0.04679 0.23611 0.0
H23 H 0.69083 0.03759 0.23632 0.0
C24 C 0.70833 0.04035 0.23624 0.0
C25 C 0.72019 0.03674 0.21682 0.0
C26 C 0.74296 0.03985 0.21682 0.0
C27 C 0.77807 0.04903 0.23688 0.0
H28 H 0.75218 0.03639 0.20197 0.0
C29 C 0.78948 0.04462 0.25658 0.0
C30 C 0.81218 0.04752 0.25813 0.0
C31 C 0.79006 0.05574 0.21834 0.0
H32 H 0.78189 0.05962 0.20298 0.0
C33 C 0.81282 0.05798 0.2196 0.0
H34 H 0.78078 0.03872 0.27088 0.0
C35 C 0.82387 0.05393 0.23939 0.0
H36 H 0.84142 0.05628 0.24019 0.0
H37 H 0.82187 0.06321 0.20526 0.0
H38 H 0.01851 0.74769 0.29795 0.0
C39 C 0.01846 0.7395 0.28225 0.0
C40 C 0.02339 0.71759 0.2819 0.0
C41 C 0.01294 0.75057 0.26274 0.0
H42 H 0.0253 0.68941 0.26164 0.0
C43 C 0.02216 0.70645 0.26186 0.0
C44 C 0.01621 0.71684 0.24222 0.0
C45 C 0.0124 0.739 0.24266 0.0
C46 C 0.00612 0.77365 0.26369 0.0
H47 H 0.00833 0.747 0.22738 0.0
C48 C 0.01349 0.78736 0.28076 0.0
C49 C 0.00483 0.80811 0.28305 0.0
C50 C 0.9908 0.78181 0.24835 0.0
H51 H 0.98401 0.77195 0.23542 0.0
C52 C 0.98315 0.80275 0.24993 0.0
H53 H 0.02536 0.78185 0.29278 0.0
C54 C 0.98991 0.81576 0.26725 0.0
H55 H 0.9832 0.83177 0.26851 0.0
H56 H 0.97139 0.80873 0.23803 0.0
H57 H 0.27248 0.98625 0.27128 0.0
C58 C 0.28233 0.99072 0.25721 0.0
C59 C 0.30335 0.99911 0.2606 0.0
C60 C 0.27417 0.98705 0.2358 0.0
H61 H 0.33212 0.01098 0.24414 0.0
C62 C 0.31625 0.00363 0.24203 0.0
C63 C 0.3093 0.99816 0.22067 0.0
C64 C 0.28795 0.99042 0.21759 0.0
C65 C 0.25152 0.97884 0.23296 0.0
H66 H 0.28224 0.98663 0.20113 0.0
C67 C 0.23488 0.98601 0.24718 0.0
C68 C 0.21411 0.97646 0.24724 0.0
C69 C 0.24658 0.96306 0.21725 0.0
H70 H 0.25902 0.95702 0.20614 0.0
C71 C 0.22559 0.9543 0.21633 0.0
H72 H 0.2383 0.99888 0.2586 0.0
C73 C 0.20952 0.96069 0.23139 0.0
H74 H 0.19378 0.95281 0.23102 0.0
H75 H 0.22198 0.94198 0.20434 0.0
H76 H 0.98895 0.73388 0.74175 0.0
C77 C 0.99046 0.74885 0.73299 0.0
C78 C 0.99006 0.74846 0.70988 0.0
C79 C 0.99214 0.76833 0.74454 0.0
H80 H 0.99082 0.76706 0.68015 0.0
C81 C 0.99089 0.76757 0.69804 0.0
C82 C 0.9927 0.78718 0.70901 0.0
C83 C 0.99372 0.78743 0.73222 0.0
C84 C 0.9916 0.76876 0.76928 0.0
H85 H 0.99557 0.80259 0.74056 0.0
C86 C -0.00068 0.75128 0.78192 0.0
C87 C 0.9978 0.75147 0.80506 0.0
C88 C 0.98253 0.78642 0.78056 0.0
H89 H 0.97567 0.79987 0.77169 0.0
C90 C 0.98155 0.78677 0.80357 0.0
H91 H 0.0065 0.73743 0.77398 0.0
C92 C 0.98911 0.76939 0.8158 0.0
H93 H 0.98765 0.76968 0.83362 0.0
H94 H 0.97446 0.80042 0.81196 0.0
H95 H 0.28365 0.02447 0.75064 0.0
C96 C 0.29215 0.01732 0.76452 0.0
C97 C 0.31475 0.01405 0.76295 0.0
C98 C 0.2807 0.01201 0.78391 0.0
H99 H 0.34379 0.00368 0.77991 0.0
C100 C 0.3262 0.00582 0.78106 0.0
C101 C 0.31526 1.0006 0.80065 0.0
C102 C 0.29245 0.00364 0.80197 0.0
C103 C 0.2566 0.01558 0.78499 0.0
H104 H 0.2839 0.99928 0.81694 0.0
C105 C 0.24391 0.01309 0.76583 0.0
C106 C 0.22188 0.01952 0.76519 0.0
C107 C 0.24631 0.02283 0.80437 0.0
H108 H 0.25557 0.02514 0.81943 0.0
C109 C 0.22398 0.02797 0.80425 0.0
H110 H 0.25134 0.00654 0.75106 0.0
C111 C 0.21183 0.02661 0.78471 0.0
H112 H 0.19486 0.03171 0.78475 0.0
H113 H 0.21623 0.03372 0.81919 0.0
H114 H 0.00643 0.27757 0.71987 0.0
C115 C 0.00964 0.28548 0.73539 0.0
C116 C 0.01479 0.30732 0.73514 0.0
C117 C 0.00816 0.27414 0.75551 0.0
H118 H 0.02028 0.33516 0.75531 0.0
C119 C 0.01749 0.31808 0.75523 0.0
C120 C 0.01588 0.30731 0.77536 0.0
C121 C 0.0121 0.28528 0.77544 0.0
C122 C 0.00111 0.25122 0.75586 0.0
H123 H 0.01146 0.27716 0.79118 0.0
C124 C 0.00498 0.23744 0.73774 0.0
C125 C 0.99678 0.21644 0.73756 0.0
C126 C 0.98934 0.24318 0.77404 0.0
H127 H 0.98515 0.25316 0.78799 0.0
C128 C 0.98209 0.22214 0.77433 0.0
H129 H 0.01394 0.24307 0.72353 0.0
C130 C 0.98569 0.20886 0.75625 0.0
H131 H 0.97966 0.19265 0.75686 0.0
H132 H 0.97321 0.21621 0.78849 0.0
H133 H 0.74051 0.04914 0.76151 0.0
C134 C 0.75636 0.045 0.75472 0.0
C135 C 0.7576 0.03775 0.7328 0.0
C136 C 0.77548 0.04711 0.76766 0.0
H137 H 0.77937 0.02944 0.7062 0.0
C138 C 0.77822 0.03354 0.72354 0.0
C139 C 0.7974 0.03554 0.73603 0.0
C140 C 0.79584 0.04175 0.7582 0.0
C141 C 0.77449 0.05519 0.79084 0.0
H142 H 0.81062 0.04235 0.76806 0.0
C143 C 0.75624 0.05106 0.80435 0.0
C144 C 0.7553 0.05871 0.8262 0.0
C145 C 0.79186 0.06726 0.79963 0.0
H146 H 0.80588 0.0715 0.78967 0.0
C147 C 0.79133 0.07433 0.82143 0.0
H148 H 0.74263 0.04206 0.79782 0.0
C149 C 0.77327 0.07003 0.83469 0.0
H150 H 0.77341 0.07564 0.8516 0.0
H151 H 0.80491 0.08336 0.82804 0.0
H152 H 0.26894 0.30546 0.02577 0.0
C153 C 0.27724 0.29016 0.02543 0.0
C154 C 0.29979 0.28951 0.02076 0.0
C155 C 0.26561 0.27118 0.02996 0.0
H156 H 0.32842 0.26931 0.01903 0.0
C157 C 0.31085 0.26991 0.02165 0.0
C158 C 0.29978 0.25101 0.02628 0.0
C159 C 0.27711 0.25155 0.02971 0.0
C160 C 0.24184 0.27187 0.03594 0.0
H161 H 0.26869 0.23667 0.03268 0.0
C162 C 0.22771 0.28772 0.02734 0.0
C163 C 0.20558 0.28888 0.03385 0.0
C164 C 0.23319 0.25695 0.05096 0.0
H165 H 0.24348 0.24493 0.0586 0.0
C166 C 0.21114 0.25764 0.05689 0.0
H167 H 0.23377 0.29917 0.01548 0.0
C168 C 0.19741 0.27349 0.04848 0.0
H169 H 0.18055 0.2741 0.054 0.0
H170 H 0.20478 0.2461 0.06848 0.0
H171 H 0.25935 0.73955 0.00508 0.0
C172 C 0.26785 0.75442 0.00803 0.0
C173 C 0.29027 0.75383 0.01312 0.0
C174 C 0.25653 0.77398 0.00632 0.0
H175 H 0.31891 0.77258 0.01991 0.0
C176 C 0.30154 0.77304 0.01621 0.0
C177 C 0.29077 0.79281 0.01391 0.0
C178 C 0.26817 0.7931 0.00941 0.0
C179 C 0.23289 0.77439 0.00012 0.0
H180 H 0.25975 0.80827 0.0078 0.0
C181 C 0.21856 0.75835 0.00753 0.0
C182 C 0.19686 0.75759 -0.0001 0.0
C183 C 0.22473 0.79019 0.98571 0.0
H184 H 0.23528 0.80253 0.97927 0.0
C185 C 0.20295 0.78982 0.9787 0.0
H186 H 0.22438 0.74602 0.01866 0.0
C187 C 0.18913 0.77348 0.98553 0.0
H188 H 0.17244 0.77308 0.97942 0.0
H189 H 0.19691 0.80195 0.96749 0.0
H190 H 0.76562 0.27393 0.01748 0.0
C191 C 0.77996 0.28145 0.0105 0.0
C192 C 0.77872 0.30293 0.00395 0.0
C193 C 0.79997 0.27006 0.00934 0.0
H194 H 0.79679 0.32907 0.98993 0.0
C195 C 0.79762 0.31274 0.99576 0.0
C196 C 0.818 0.30244 0.9964 0.0
C197 C 0.81897 0.28085 0.00233 0.0
C198 C 0.80132 0.24731 0.01655 0.0
H199 H 0.83467 0.27274 0.00216 0.0
C200 C 0.78375 0.23325 0.01278 0.0
C201 C 0.78502 0.21169 0.01935 0.0
C202 C 0.82018 0.23949 0.02731 0.0
H203 H 0.83375 0.24987 0.03122 0.0
C204 C 0.82172 0.21811 0.03346 0.0
H205 H 0.76903 0.23914 0.00484 0.0
C206 C 0.8044 0.20426 0.02941 0.0
H207 H 0.80629 0.1877 0.03414 0.0
H208 H 0.83642 0.21226 0.0415 0.0
H209 H 0.73894 0.76212 0.98729 0.0
C210 C 0.75397 0.75322 0.99002 0.0
C211 C 0.7527 0.73119 0.99318 0.0
C212 C 0.77436 0.76363 0.99058 0.0
H213 H 0.77041 0.70198 0.99697 0.0
C214 C 0.77186 0.71915 0.99566 0.0
C215 C 0.79253 0.72897 0.99605 0.0
C216 C 0.79351 0.75135 0.99396 0.0
C217 C 0.77555 0.78725 0.98761 0.0
H218 H 0.80915 0.75927 0.99535 0.0
C219 C 0.75844 0.80054 0.99512 0.0
C220 C 0.75849 0.8226 0.99094 0.0
C221 C 0.79336 0.79664 0.97661 0.0
H222 H 0.80666 0.78699 0.97018 0.0
C223 C 0.79393 0.81867 0.97318 0.0
H224 H 0.74492 0.79379 0.00426 0.0
C225 C 0.77657 0.8316 0.98016 0.0
H226 H 0.77701 0.84852 0.97653 0.0
H227 H 0.80765 0.82569 0.96459 0.0
H228 H 0.51685 0.79943 0.76014 0.0
C229 C 0.52084 0.78443 0.76806 0.0
C230 C 0.52406 0.78435 0.79097 0.0
C231 C 0.52152 0.76528 0.75579 0.0
H232 H 0.53055 0.76517 0.81954 0.0
C233 C 0.52781 0.76501 0.80186 0.0
C234 C 0.52774 0.74557 0.79039 0.0
C235 C 0.5253 0.74589 0.76727 0.0
C236 C 0.51711 0.76547 0.73137 0.0
H237 H 0.52583 0.73092 0.75842 0.0
C238 C 0.52141 0.78375 0.71836 0.0
C239 C 0.51653 0.78401 0.69566 0.0
C240 C 0.50783 0.74755 0.72085 0.0
H241 H 0.50331 0.73347 0.73004 0.0
C242 C 0.50359 0.74765 0.69821 0.0
H243 H 0.52871 0.79782 0.72559 0.0
C244 C 0.50794 0.76574 0.68564 0.0
H245 H 0.50407 0.76567 0.66818 0.0
H246 H 0.49651 0.73374 0.69043 0.0
H247 H 0.27652 0.54602 0.78695 0.0
C248 C 0.26927 0.54289 0.77094 0.0
C249 C 0.2482 0.53409 0.76981 0.0
C250 C 0.28072 0.54817 0.75151 0.0
H251 H 0.2222 0.52417 0.74822 0.0
C252 C 0.23858 0.53072 0.7491 0.0
C253 C 0.24933 0.53645 0.72957 0.0
C254 C 0.27058 0.54483 0.73088 0.0
C255 C 0.30277 0.55814 0.7528 0.0
H256 H 0.27905 0.54917 0.71585 0.0
C257 C 0.31834 0.55104 0.76837 0.0
C258 C 0.33882 0.56119 0.77049 0.0
C259 C 0.30816 0.57524 0.73885 0.0
H260 H 0.29648 0.58135 0.72693 0.0
C261 C 0.32852 0.58511 0.74054 0.0
H262 H 0.31451 0.53749 0.77873 0.0
C263 C 0.34369 0.57828 0.7563 0.0
H264 H 0.359 0.58681 0.75769 0.0
H265 H 0.3324 0.5984 0.72986 0.0
H266 H 0.47918 0.25632 0.78913 0.0
C267 C 0.48064 0.24814 0.77346 0.0
C268 C 0.4824 0.22577 0.77342 0.0
C269 C 0.47968 0.25965 0.75343 0.0
H270 H 0.48464 0.19754 0.75338 0.0
C271 C 0.48309 0.21479 0.7533 0.0
C272 C 0.48217 0.22571 0.73315 0.0
C273 C 0.48111 0.24813 0.73334 0.0
C274 C 0.47582 0.28337 0.75329 0.0
H275 H 0.48087 0.25647 0.71772 0.0
C276 C 0.48304 0.2967 0.77074 0.0
C277 C 0.4784 0.31885 0.77068 0.0
C278 C 0.46399 0.29281 0.7358 0.0
H279 H 0.45728 0.28333 0.72252 0.0
C280 C 0.4601 0.31472 0.7353 0.0
H281 H 0.49198 0.2899 0.78449 0.0
C282 C 0.46726 0.32765 0.75249 0.0
H283 H 0.46399 0.34463 0.75151 0.0
H284 H 0.4512 0.32169 0.72159 0.0
H285 H 0.74848 0.48529 0.79196 0.0
C286 C 0.75857 0.48794 0.77755 0.0
C287 C 0.78035 0.49413 0.78068 0.0
C288 C 0.75003 0.48516 0.75602 0.0
H289 H 0.81107 0.50086 0.76507 0.0
C290 C 0.79408 0.49646 0.7625 0.0
C291 C 0.78629 0.49289 0.74111 0.0
C292 C 0.76416 0.48792 0.73782 0.0
C293 C 0.72658 0.47928 0.75262 0.0
H294 H 0.75818 0.48598 0.72111 0.0
C295 C 0.71043 0.48615 0.76763 0.0
C296 C 0.68844 0.47996 0.76528 0.0
C297 C 0.72013 0.46643 0.73467 0.0
H298 H 0.732 0.46034 0.72299 0.0
C299 C 0.6982 0.4608 0.73184 0.0
H300 H 0.71502 0.49603 0.78152 0.0
C301 C 0.68244 0.4674 0.74707 0.0
H302 H 0.66559 0.46259 0.74465 0.0
H303 H 0.69347 0.45095 0.71796 0.0
H304 H 0.49998 0.24115 0.25477 0.0
C305 C 0.50095 0.25596 0.24567 0.0
C306 C 0.50386 0.25511 0.22271 0.0
C307 C 0.49883 0.27562 0.2568 0.0
H308 H 0.5063 0.27361 0.19297 0.0
C309 C 0.50431 0.27425 0.21071 0.0
C310 C 0.50178 0.29414 0.22112 0.0
C311 C 0.49956 0.29468 0.24427 0.0
C312 C 0.49434 0.27604 0.28116 0.0
H313 H 0.49793 0.30997 0.25242 0.0
C314 C 0.50211 0.25966 0.29535 0.0
C315 C 0.49564 0.2589 0.31766 0.0
C316 C 0.48085 0.29214 0.29022 0.0
H317 H 0.47396 0.30466 0.28003 0.0
C318 C 0.47523 0.2919 0.31251 0.0
H319 H 0.5126 0.24708 0.28904 0.0
C320 C 0.48236 0.27534 0.3261 0.0
H321 H 0.47729 0.27523 0.34323 0.0
H322 H 0.46479 0.30435 0.31917 0.0
H323 H 0.75788 0.52 0.23594 0.0
C324 C 0.76553 0.51804 0.25195 0.0
C325 C 0.78812 0.51353 0.25314 0.0
C326 C 0.75298 0.52028 0.27142 0.0
H327 H 0.8157 0.50959 0.27515 0.0
C328 C 0.79813 0.51204 0.2739 0.0
C329 C 0.78592 0.51424 0.29321 0.0
C330 C 0.76339 0.51785 0.29202 0.0
C331 C 0.72919 0.52552 0.27052 0.0
H332 H 0.75413 0.5192 0.30721 0.0
C333 C 0.7157 0.51676 0.25403 0.0
C334 C 0.69308 0.52127 0.25348 0.0
C335 C 0.71974 0.53918 0.28637 0.0
H336 H 0.72968 0.5467 0.29895 0.0
C337 C 0.69733 0.54349 0.2861 0.0
H338 H 0.72285 0.50648 0.24158 0.0
C339 C 0.68403 0.53453 0.2699 0.0
H340 H 0.66663 0.53797 0.27028 0.0
H341 H 0.69023 0.55386 0.2985 0.0
H342 H 0.5379 0.77666 0.23204 0.0
C343 C 0.54146 0.78424 0.24769 0.0
C344 C 0.5444 0.8064 0.24822 0.0
C345 C 0.54262 0.77213 0.26728 0.0
H346 H 0.54881 0.83403 0.26853 0.0
C347 C 0.54774 0.81676 0.26835 0.0
C348 C 0.54842 0.80527 0.28819 0.0
C349 C 0.54637 0.78291 0.28746 0.0
C350 C 0.539 0.74849 0.26686 0.0
H351 H 0.54773 0.774 0.30269 0.0
C352 C 0.54507 0.73594 0.2484 0.0
C353 C 0.54096 0.7138 0.2479 0.0
C354 C 0.52883 0.73831 0.28484 0.0
H355 H 0.52319 0.74729 0.29901 0.0
C356 C 0.5252 0.71637 0.28461 0.0
H357 H 0.55313 0.74325 0.23443 0.0
C358 C 0.53117 0.70418 0.26633 0.0
H359 H 0.52746 0.6873 0.26634 0.0
H360 H 0.5173 0.70883 0.29853 0.0
H361 H 0.24866 0.5492 0.24197 0.0
C362 C 0.26471 0.54579 0.23528 0.0
C363 C 0.26679 0.53855 0.2133 0.0
C364 C 0.28336 0.54966 0.2485 0.0
H365 H 0.29056 0.52949 0.18826 0.0
C366 C 0.28802 0.53539 0.20485 0.0
C367 C 0.30645 0.54092 0.21716 0.0
C368 C 0.30423 0.54752 0.23901 0.0
C369 C 0.28112 0.55609 0.27208 0.0
H370 H 0.31886 0.55106 0.24842 0.0
C371 C 0.26428 0.54754 0.28511 0.0
C372 C 0.26235 0.55279 0.30762 0.0
C373 C 0.29603 0.5703 0.2819 0.0
H374 H 0.30889 0.57768 0.27233 0.0
C375 C 0.29445 0.57533 0.30427 0.0
H376 H 0.25256 0.53682 0.27766 0.0
C377 C 0.27782 0.56659 0.31712 0.0
H378 H 0.2771 0.57067 0.33447 0.0
H379 H 0.30613 0.58613 0.31168 0.0
H380 H 0.78548 0.81056 0.50643 0.0
C381 C 0.7926 0.79529 0.50193 0.0
C382 C 0.81442 0.79452 0.4947 0.0
C383 C 0.78044 0.7764 0.50446 0.0
H384 H 0.84143 0.77426 0.48527 0.0
C385 C 0.82427 0.77484 0.4899 0.0
C386 C 0.81278 0.75582 0.49301 0.0
C387 C 0.79084 0.75665 0.49998 0.0
C388 C 0.75774 0.77719 0.51371 0.0
H389 H 0.78209 0.74182 0.50222 0.0
C390 C 0.74304 0.79407 0.50858 0.0
C391 C 0.72234 0.7953 0.51881 0.0
C392 C 0.75099 0.76145 0.52879 0.0
H393 H 0.76187 0.74857 0.53363 0.0
C394 C 0.73032 0.76244 0.5385 0.0
H395 H 0.74778 0.80642 0.49706 0.0
C396 C 0.71614 0.7793 0.53369 0.0
H397 H 0.70029 0.77992 0.5417 0.0
H398 H 0.72542 0.75027 0.55013 0.0
H399 H 0.78423 0.22618 0.48867 0.0
C400 C 0.79259 0.24114 0.49145 0.0
C401 C 0.81523 0.24081 0.49558 0.0
C402 C 0.78095 0.26064 0.49058 0.0
H403 H 0.84396 0.25974 0.50105 0.0
C404 C 0.82643 0.2601 0.49818 0.0
C405 C 0.81554 0.27977 0.49656 0.0
C406 C 0.79269 0.27989 0.49344 0.0
C407 C 0.75686 0.26104 0.48559 0.0
H408 H 0.78419 0.29508 0.49279 0.0
C409 C 0.74276 0.24436 0.49235 0.0
C410 C 0.72023 0.24475 0.48688 0.0
C411 C 0.74784 0.27809 0.47338 0.0
H412 H 0.758 0.2908 0.4671 0.0
C413 C 0.72554 0.27889 0.46862 0.0
H414 H 0.74927 0.23098 0.50159 0.0
C415 C 0.71183 0.26248 0.47535 0.0
H416 H 0.69456 0.26371 0.47143 0.0
H417 H 0.71886 0.29224 0.45943 0.0
H418 H 0.23023 0.77882 0.52521 0.0
C419 C 0.24527 0.78686 0.52096 0.0
C420 C 0.2442 0.80852 0.51536 0.0
C421 C 0.26548 0.77583 0.52122 0.0
H422 H 0.26249 0.83679 0.50896 0.0
C423 C 0.2636 0.81972 0.51144 0.0
C424 C 0.28412 0.8094 0.51143 0.0
C425 C 0.28472 0.78725 0.51572 0.0
C426 C 0.26657 0.75272 0.52791 0.0
H427 H 0.3002 0.77888 0.51458 0.0
C428 C 0.24844 0.73889 0.52518 0.0
C429 C 0.24916 0.7176 0.53285 0.0
C430 C 0.2856 0.74449 0.53808 0.0
H431 H 0.29964 0.75446 0.54134 0.0
C432 C 0.28671 0.72325 0.54484 0.0
H433 H 0.2336 0.74466 0.51745 0.0
C434 C 0.26872 0.70991 0.54228 0.0
H435 H 0.27016 0.69352 0.54776 0.0
H436 H 0.30154 0.71718 0.55244 0.0
H437 H 0.22926 0.25123 0.51378 0.0
C438 C 0.2449 0.24316 0.51549 0.0
C439 C 0.24508 0.22128 0.52 0.0
C440 C 0.26463 0.2544 0.51284 0.0
H441 H 0.26457 0.193 0.52303 0.0
C442 C 0.26498 0.21015 0.52087 0.0
C443 C 0.28503 0.22072 0.51785 0.0
C444 C 0.28465 0.24299 0.51439 0.0
C445 C 0.26413 0.27771 0.50743 0.0
H446 H 0.29999 0.25145 0.51301 0.0
C447 C 0.24705 0.29114 0.51513 0.0
C448 C 0.24561 0.31268 0.50855 0.0
C449 C 0.28016 0.28654 0.49353 0.0
H450 H 0.29321 0.2768 0.48674 0.0
C451 C 0.27919 0.30799 0.4875 0.0
H452 H 0.23483 0.28491 0.5263 0.0
C453 C 0.26202 0.32095 0.49478 0.0
H454 H 0.26131 0.3373 0.48906 0.0
H455 H 0.29154 0.3145 0.47665 0.0
Zn456 Zn 0.97892 0.998 0.46956 0.0
Zn457 Zn 0.97732 0.04935 0.47008 0.0
O458 O -0.00186 0.02417 0.46731 0.0
H459 H 0.01129 0.02337 0.45851 0.0
C460 C 0.96352 0.96834 0.51709 0.0
O461 O 0.95974 0.98633 0.50663 0.0
Zn462 Zn 0.06837 0.04543 0.53826 0.0
Zn463 Zn 0.06591 0.99353 0.5443 0.0
O464 O 0.04814 0.02015 0.53829 0.0
H465 H 0.03246 0.02009 0.53641 0.0
Zn466 Zn 0.98964 0.99605 0.54641 0.0
O467 O 0.99116 0.02244 0.52713 0.0
Zn468 Zn 0.99156 0.0473 0.54819 0.0
H469 H 0.99716 0.0223 0.51239 0.0
Zn470 Zn 0.05493 0.99743 0.47241 0.0
O471 O 0.0468 0.02577 0.48604 0.0
H472 H 0.03589 0.02717 0.49746 0.0
Zn473 Zn 0.0513 0.04832 0.4631 0.0
C474 C 0.0917 0.97451 0.48903 0.0
O475 O 0.10066 0.98955 0.47699 0.0
O476 O 0.94888 0.00497 0.45636 0.0
O477 O 0.94786 0.04053 0.45697 0.0
O478 O 0.09458 0.00246 0.55864 0.0
O479 O 0.09711 0.03754 0.55315 0.0
O480 O 0.97811 0.00311 0.57724 0.0
O481 O 0.97879 0.03863 0.5778 0.0
C482 C 0.00965 0.07532 0.44971 0.0
O483 O 0.06631 1.00067 0.4407 0.0
O484 O 0.06423 0.03577 0.43522 0.0
O485 O 0.05142 0.97029 0.56368 0.0
C486 C 0.93921 0.02258 0.45223 0.0
O487 O 0.99098 0.96858 0.45881 0.0
C488 C 0.03515 0.07044 0.56008 0.0
O489 O 0.97614 0.96834 0.53378 0.0
C490 C 0.10455 0.02008 0.56106 0.0
O491 O 0.07099 0.97435 0.49106 0.0
C492 C 0.96952 0.07226 0.51486 0.0
O493 O 0.98909 0.07458 0.45276 0.0
O494 O 0.02129 0.06064 0.45821 0.0
C495 C 0.97449 0.0208 0.58693 0.0
O496 O 0.05558 0.06901 0.5566 0.0
O497 O 0.02293 0.05647 0.55122 0.0
C498 C 0.07767 0.0703 0.49466 0.0
O499 O 0.97386 0.07141 0.53537 0.0
O500 O 0.97629 0.05712 0.50256 0.0
C501 C 0.06926 0.01703 0.42863 0.0
O502 O 0.0719 0.07055 0.47451 0.0
O503 O 0.07004 0.05559 0.50682 0.0
C504 C 0.03471 0.95902 0.55941 0.0
O505 O 0.02463 0.96137 0.5404 0.0
C506 C 0.00937 0.96627 0.44924 0.0
O507 O 0.02219 0.98287 0.44712 0.0
Zn508 Zn 0.49514 0.06075 0.03283 0.0
Zn509 Zn 0.48846 0.05602 0.98038 0.0
O510 O 0.50111 0.04156 0.00689 0.0
H511 H 0.49954 0.02664 0.01038 0.0
C512 C 0.53051 0.08043 0.0756 0.0
O513 O 0.5275 0.05991 0.0787 0.0
Zn514 Zn 0.54508 0.98061 0.97369 0.0
Zn515 Zn 0.5378 0.99009 0.02459 0.0
O516 O 0.52762 0.99866 0.9936 0.0
H517 H 0.52438 0.01293 0.98869 0.0
Zn518 Zn 0.55417 0.06829 0.03374 0.0
O519 O 0.53594 0.06682 0.00569 0.0
Zn520 Zn 0.55719 0.06114 0.98158 0.0
H521 H 0.52338 0.0761 0.00381 0.0
Zn522 Zn 0.48317 0.97284 0.03745 0.0
O523 O 0.50367 0.96737 0.01112 0.0
H524 H 0.49598 0.96937 0.02488 0.0
Zn525 Zn 0.48439 0.97389 0.98543 0.0
C526 C 0.51202 0.95807 0.07448 0.0
O527 O 0.52792 0.96631 0.06272 0.0
O528 O 0.47512 0.08618 0.02511 0.0
O529 O 0.46736 0.07944 0.98991 0.0
O530 O 0.56051 0.96556 0.02564 0.0
O531 O 0.56455 0.95976 0.98972 0.0
O532 O 0.58621 0.07634 0.02721 0.0
O533 O 0.58608 0.07429 0.99058 0.0
C534 C 0.4712 0.01445 0.96533 0.0
O535 O 0.45087 0.96616 0.02952 0.0
O536 O 0.4539 0.96391 0.99301 0.0
O537 O 0.54623 0.01261 0.04773 0.0
C538 C 0.46445 0.09027 0.00752 0.0
O539 O 0.4825 0.04327 0.05843 0.0
C540 C 0.56791 0.01931 0.95882 0.0
O541 O 0.54068 0.08676 0.05856 0.0
C542 C 0.56923 0.95549 0.00969 0.0
O543 O 0.49242 0.95956 0.06754 0.0
C544 C 0.52657 0.07852 0.94936 0.0
O545 O 0.47104 0.03463 0.96302 0.0
O546 O 0.48397 0.00558 0.97912 0.0
C547 C 0.59566 0.07881 0.00868 0.0
O548 O 0.56457 0.99948 0.95616 0.0
O549 O 0.55868 0.02925 0.9747 0.0
C550 C 0.50996 0.95496 0.94649 0.0
O551 O 0.54662 0.07655 0.95474 0.0
O552 O 0.51186 0.0699 0.96124 0.0
C553 C 0.44271 0.96198 0.01065 0.0
O554 O 0.49289 0.95717 0.95831 0.0
O555 O 0.5281 0.96347 0.95169 0.0
C556 C 0.56447 0.0215 0.04392 0.0
O557 O 0.57345 0.01888 0.0244 0.0
C558 C 0.46695 0.03102 0.05277 0.0
O559 O 0.46114 0.03021 0.0319 0.0
Zn560 Zn 0.97667 0.49558 0.9695 0.0
Zn561 Zn 0.97095 0.54652 0.972 0.0
O562 O 0.99335 0.52317 0.97353 0.0
H563 H 0.00633 0.52405 0.98259 0.0
C564 C 0.97259 0.46184 0.02527 0.0
O565 O 0.98446 0.47348 0.01187 0.0
Zn566 Zn 0.05063 0.55353 0.03666 0.0
Zn567 Zn 0.05205 0.50198 0.04025 0.0
O568 O 0.03158 0.52744 0.03535 0.0
H569 H 0.01826 0.52668 0.02677 0.0
Zn570 Zn 0.97773 0.49871 0.05577 0.0
O571 O 0.97542 0.52212 0.03292 0.0
Zn572 Zn 0.97385 0.54932 0.05034 0.0
H573 H 0.97121 0.5195 0.01779 0.0
Zn574 Zn 0.04871 0.50019 0.9546 0.0
O575 O 0.04831 0.52475 0.97625 0.0
H576 H 0.04794 0.52364 0.99214 0.0
Zn577 Zn 0.04729 0.55073 0.95738 0.0
C578 C 0.07589 0.47268 0.98032 0.0
O579 O 0.08488 0.49141 0.98368 0.0
O580 O 0.94562 0.50078 0.95713 0.0
O581 O 0.94249 0.53612 0.95852 0.0
O582 O 0.08159 0.51123 0.05337 0.0
O583 O 0.07854 0.54664 0.05309 0.0
O584 O 0.96298 0.50831 0.08479 0.0
O585 O 0.95934 0.54339 0.07974 0.0
C586 C 0.00157 0.57187 0.94708 0.0
O587 O 0.06416 0.50905 0.92578 0.0
O588 O 0.06233 0.5445 0.92807 0.0
O589 O 0.04012 0.4746 0.05571 0.0
C590 C 0.93484 0.51787 0.95337 0.0
O591 O 0.99306 0.4703 0.95453 0.0
C592 C 0.01559 0.57602 0.05889 0.0
O593 O 0.96839 0.46879 0.04455 0.0
C594 C 0.08881 0.52962 0.05839 0.0
O595 O 0.05901 0.47154 0.96809 0.0
C596 C 0.95561 0.57029 0.01294 0.0
O597 O 0.98158 0.56998 0.95244 0.0
O598 O 0.0154 0.55912 0.95571 0.0
C599 C 0.9562 0.52658 0.09119 0.0
O600 O 0.03572 0.57699 0.05389 0.0
O601 O 0.0047 0.56015 0.05194 0.0
C602 C 0.06662 0.57506 0.99299 0.0
O603 O 0.95571 0.57088 0.03387 0.0
O604 O 0.96699 0.55617 0.00324 0.0
C605 C 0.06845 0.5275 0.9181 0.0
O606 O 0.06469 0.57349 0.97219 0.0
O607 O 0.05605 0.56204 0.005 0.0
C608 C 0.04551 0.473 0.07594 0.0
O609 O 0.05661 0.48861 0.08504 0.0
C610 C 0.98893 0.46895 0.93404 0.0
O611 O 0.97617 0.48348 0.925 0.0
Zn612 Zn 0.49317 0.47956 0.98901 0.0
Zn613 Zn 0.49158 0.48193 0.04132 0.0
O614 O 0.49704 0.49985 0.01475 0.0
H615 H 0.50057 0.51482 0.01386 0.0
C616 C 0.5361 0.45331 0.95423 0.0
O617 O 0.52329 0.45289 0.97162 0.0
Zn618 Zn 0.55149 0.55406 0.04299 0.0
Zn619 Zn 0.54569 0.55424 0.99161 0.0
O620 O 0.5461 0.53448 0.0178 0.0
H621 H 0.53892 0.52081 0.01844 0.0
Zn622 Zn 0.56688 0.47278 0.98625 0.0
O623 O 0.54609 0.47461 0.01251 0.0
Zn624 Zn 0.56544 0.47669 0.03945 0.0
H625 H 0.53096 0.47026 0.01191 0.0
Zn626 Zn 0.47755 0.56316 0.98351 0.0
O627 O 0.49766 0.56204 0.01021 0.0
H628 H 0.51244 0.56742 0.01002 0.0
Zn629 Zn 0.47813 0.56045 0.03668 0.0
C630 C 0.50126 0.59257 0.95593 0.0
O631 O 0.50256 0.60193 0.9753 0.0
O632 O 0.47364 0.45385 0.99719 0.0
O633 O 0.4712 0.45772 0.03366 0.0
O634 O 0.56308 0.58179 0.99756 0.0
O635 O 0.57011 0.57921 0.03351 0.0
O636 O 0.59632 0.45963 0.99587 0.0
O637 O 0.59457 0.46228 0.03252 0.0
C638 C 0.4738 0.51931 0.0641 0.0
O639 O 0.44689 0.57484 0.99192 0.0
O640 O 0.44803 0.57229 0.02858 0.0
O641 O 0.55456 0.53912 0.96294 0.0
C642 C 0.46587 0.44824 0.01581 0.0
O643 O 0.48488 0.49411 0.95952 0.0
C644 C 0.56975 0.51758 0.06595 0.0
O645 O 0.55508 0.46139 0.95603 0.0
C646 C 0.5724 0.58867 0.01498 0.0
O647 O 0.4913 0.57487 0.95447 0.0
C648 C 0.53143 0.46147 0.06652 0.0
O649 O 0.47774 0.49939 0.06495 0.0
O650 O 0.47853 0.52947 0.04656 0.0
C651 C 0.6044 0.45626 0.01497 0.0
O652 O 0.56549 0.53744 0.06747 0.0
O653 O 0.56652 0.50809 0.04765 0.0
C654 C 0.51132 0.57745 0.06344 0.0
O655 O 0.55212 0.46084 0.06503 0.0
O656 O 0.521 0.47185 0.05186 0.0
C657 C 0.43807 0.57752 0.01081 0.0
O658 O 0.49081 0.5791 0.06058 0.0
O659 O 0.52158 0.56411 0.05149 0.0
C660 C 0.57507 0.53583 0.96193 0.0
O661 O 0.58749 0.54214 0.9784 0.0
C662 C 0.46497 0.50005 0.959 0.0
O663 O 0.4527 0.4967 0.97645 0.0
Zn664 Zn 0.98544 0.50112 0.48154 0.0
Zn665 Zn 0.97617 0.5526 0.48251 0.0
O666 O -0.00144 0.52987 0.4896 0.0
H667 H 0.01054 0.53188 0.49979 0.0
C668 C 0.95855 0.45893 0.52682 0.0
O669 O 0.97979 0.45615 0.52466 0.0
Zn670 Zn 0.05775 0.54723 0.54104 0.0
Zn671 Zn 0.0563 0.49562 0.54039 0.0
O672 O 0.0373 0.52243 0.53896 0.0
H673 H 0.02159 0.52267 0.53707 0.0
Zn674 Zn 0.97151 0.49911 0.55047 0.0
O675 O 0.97524 0.52657 0.53329 0.0
Zn676 Zn 0.97896 0.55066 0.55518 0.0
H677 H 0.96817 0.52762 0.51908 0.0
Zn678 Zn 0.05169 0.4945 0.46953 0.0
O679 O 0.05095 0.52182 0.48721 0.0
H680 H 0.05705 0.52155 0.50189 0.0
Zn681 Zn 0.05085 0.54628 0.46571 0.0
C682 C 0.0829 0.47155 0.49616 0.0
O683 O 0.09113 0.49088 0.49615 0.0
O684 O 0.95422 0.50421 0.46893 0.0
O685 O 0.94993 0.53953 0.46773 0.0
O686 O 0.08783 0.50183 0.55129 0.0
O687 O 0.08626 0.53723 0.55442 0.0
O688 O 0.96348 0.506 0.58258 0.0
O689 O 0.96666 0.54138 0.58472 0.0
C690 C 0.0091 0.57288 0.45703 0.0
O691 O 0.0656 0.50035 0.43927 0.0
O692 O 0.06437 0.53584 0.43705 0.0
O693 O 0.04218 0.46953 0.5558 0.0
C694 C 0.94305 0.52072 0.4638 0.0
O695 O 0.00438 0.47813 0.46522 0.0
C696 C 0.0247 0.57114 0.56553 0.0
O697 O 0.95148 0.47563 0.53647 0.0
C698 C 0.09635 0.51952 0.55701 0.0
O699 O 0.06496 0.46831 0.48604 0.0
C700 C 0.95815 0.57906 0.52445 0.0
O701 O 0.98911 0.57467 0.4625 0.0
O702 O 0.01969 0.55667 0.4639 0.0
C703 C 0.96152 0.52345 0.59322 0.0
O704 O 0.04493 0.56959 0.5608 0.0
O705 O 0.01144 0.55803 0.55659 0.0
C706 C 0.07189 0.57241 0.498 0.0
O707 O 0.96103 0.57598 0.54493 0.0
O708 O 0.9674 0.56611 0.51125 0.0
C709 C 0.06969 0.51766 0.42907 0.0
O710 O 0.0691 0.5706 0.47732 0.0
O711 O 0.06266 0.55873 0.51032 0.0
C712 C 0.04214 0.47074 0.57673 0.0
O713 O 0.05017 0.48792 0.58611 0.0
C714 C 0.00269 0.4785 0.4443 0.0
O715 O 0.9908 0.49365 0.43517 0.0
Zn716 Zn 0.47309 0.99189 0.46828 0.0
Zn717 Zn 0.46757 0.04313 0.46999 0.0
O718 O 0.49004 0.01966 0.46851 0.0
H719 H 0.50532 0.02069 0.46464 0.0
C720 C 0.44696 0.97083 0.51549 0.0
O721 O 0.43679 0.98935 0.51638 0.0
Zn722 Zn 0.55671 0.05641 0.54207 0.0
Zn723 Zn 0.5624 0.00591 0.5425 0.0
O724 O 0.53933 0.02925 0.54441 0.0
H725 H 0.52583 0.02712 0.55236 0.0
Zn726 Zn 0.47921 0.99575 0.53993 0.0
O727 O 0.48821 0.02347 0.52521 0.0
Zn728 Zn 0.48228 0.04772 0.54656 0.0
H729 H 0.4973 0.02439 0.51223 0.0
Zn730 Zn 0.5487 0.99985 0.4714 0.0
O731 O 0.54141 0.02742 0.48779 0.0
H732 H 0.53451 0.02829 0.50206 0.0
Zn733 Zn 0.54208 0.0508 0.46477 0.0
C734 C 0.57252 0.96931 0.49992 0.0
O735 O 0.58262 0.98682 0.50599 0.0
O736 O 0.44126 0.99672 0.45735 0.0
O737 O 0.43862 0.03223 0.45843 0.0
O738 O 0.59095 0.01622 0.55696 0.0
O739 O 0.58576 0.05143 0.55742 0.0
O740 O 0.46415 0.00162 0.56936 0.0
O741 O 0.46878 0.03654 0.57474 0.0
C742 C 0.497 0.07214 0.44911 0.0
O743 O 0.56605 0.00609 0.44338 0.0
O744 O 0.5578 0.04035 0.43739 0.0
O745 O 0.5534 0.97532 0.55222 0.0
C746 C 0.43046 0.01396 0.45414 0.0
O747 O 0.48952 0.96438 0.45742 0.0
C748 C 0.52031 0.07919 0.55973 0.0
O749 O 0.46636 0.96949 0.52306 0.0
C750 C 0.59713 0.03493 0.56229 0.0
O751 O 0.55658 0.97076 0.48647 0.0
C752 C 0.45626 0.06709 0.51295 0.0
O753 O 0.47682 0.06796 0.45156 0.0
O754 O 0.5108 0.05954 0.45811 0.0
C755 C 0.46171 0.01839 0.58098 0.0
O756 O 0.54094 0.08041 0.5576 0.0
O757 O 0.51084 0.06294 0.55166 0.0
C758 C 0.56494 0.07776 0.49608 0.0
O759 O 0.46054 0.06813 0.5334 0.0
O760 O 0.46608 0.05306 0.50143 0.0
C761 C 0.56716 0.02293 0.43175 0.0
O762 O 0.55956 0.07564 0.47594 0.0
O763 O 0.55831 0.06372 0.50965 0.0
C764 C 0.53474 0.97109 0.56037 0.0
O765 O 0.51988 0.98627 0.56163 0.0
C766 C 0.50697 0.96552 0.44601 0.0
O767 O 0.51501 0.98439 0.44136 0.0
H768 H 0.21281 0.21576 0.48971 0.0
H769 H 0.18054 0.19307 0.49299 0.0
H770 H 0.19831 0.17835 0.56036 0.0
H771 H 0.23134 0.20013 0.55649 0.0
H772 H 0.18871 0.14395 0.5417 0.0
H773 H 0.15104 0.21044 0.54515 0.0
H774 H 0.1406 0.2471 0.53451 0.0
H775 H 0.11768 0.22436 0.47177 0.0
H776 H 0.12836 0.18766 0.48185 0.0
H777 H 0.09258 0.07728 0.53724 0.0
H778 H 0.11698 0.10585 0.54973 0.0
H779 H 0.12095 0.12941 0.483 0.0
H780 H 0.09613 0.10182 0.4707 0.0
H781 H 0.11533 0.16165 0.51148 0.0
H782 H 0.16117 0.09697 0.50643 0.0
H783 H 0.17211 0.06049 0.51733 0.0
H784 H 0.17861 0.08079 0.58472 0.0
H785 H 0.16755 0.11738 0.57421 0.0
C786 C 0.20956 0.20789 0.50528 0.0
C787 C 0.22438 0.20959 0.52286 0.0
C788 C 0.19103 0.19507 0.50726 0.0
C789 C 0.18666 0.18424 0.5271 0.0
C790 C 0.20123 0.18654 0.54492 0.0
C791 C 0.22004 0.19898 0.54275 0.0
C792 C 0.16813 0.16898 0.52843 0.0
C793 C 0.17251 0.14806 0.53562 0.0
C794 C 0.14692 0.17414 0.52045 0.0
C795 C 0.14055 0.19626 0.51427 0.0
C796 C 0.14391 0.21327 0.52903 0.0
C797 C 0.13794 0.23407 0.52309 0.0
C798 C 0.1285 0.23806 0.50247 0.0
C799 C 0.12498 0.22125 0.48774 0.0
C800 C 0.13095 0.20044 0.49358 0.0
C801 C 0.09842 0.0887 0.52534 0.0
C802 C 0.09224 0.08729 0.50302 0.0
C803 C 0.11244 0.10497 0.53247 0.0
C804 C 0.12068 0.11984 0.51727 0.0
C805 C 0.11448 0.11838 0.49507 0.0
C806 C 0.10039 0.10242 0.48804 0.0
C807 C 0.13637 0.13666 0.52377 0.0
C808 C 0.1314 0.15787 0.51814 0.0
C809 C 0.15695 0.13182 0.5333 0.0
C810 C 0.16332 0.10981 0.53958 0.0
C811 C 0.16477 0.0936 0.52359 0.0
C812 C 0.17103 0.07293 0.52969 0.0
C813 C 0.17605 0.06834 0.5517 0.0
C814 C 0.17473 0.08438 0.56768 0.0
C815 C 0.16848 0.10508 0.56166 0.0
H816 H 0.18107 0.05237 0.55636 0.0
H817 H 0.12389 0.25417 0.49792 0.0
H818 H 0.84505 0.22838 0.52641 0.0
H819 H 0.87098 0.19866 0.52393 0.0
H820 H 0.84057 0.17802 0.46333 0.0
H821 H 0.81451 0.20799 0.46567 0.0
H822 H 0.85322 0.14401 0.49213 0.0
H823 H 0.88453 0.20614 0.45891 0.0
H824 H 0.89427 0.24425 0.45756 0.0
H825 H 0.93563 0.23631 0.51437 0.0
H826 H 0.92584 0.19822 0.5163 0.0
H827 H 0.94475 0.07497 0.47697 0.0
H828 H 0.91892 0.10349 0.46707 0.0
H829 H 0.93926 0.13935 0.52428 0.0
H830 H 0.96505 0.11112 0.53403 0.0
H831 H 0.93136 0.16549 0.48957 0.0
H832 H 0.89504 0.10744 0.52762 0.0
H833 H 0.88477 0.06969 0.53227 0.0
H834 H 0.85318 0.07032 0.46888 0.0
H835 H 0.86342 0.10808 0.46383 0.0
C836 C 0.8437 0.21734 0.51271 0.0
C837 C 0.82796 0.2206 0.49609 0.0
C838 C 0.85852 0.20041 0.5113 0.0
C839 C 0.85795 0.18646 0.4932 0.0
C840 C 0.84132 0.18874 0.47734 0.0
C841 C 0.82641 0.20576 0.47875 0.0
C842 C 0.8756 0.17039 0.49043 0.0
C843 C 0.87027 0.14867 0.49104 0.0
C844 C 0.89787 0.17654 0.48933 0.0
C845 C 0.90434 0.19932 0.48782 0.0
C846 C 0.89563 0.21253 0.47118 0.0
C847 C 0.90115 0.23414 0.47031 0.0
C848 C 0.91553 0.24271 0.48589 0.0
C849 C 0.92449 0.22965 0.50231 0.0
C850 C 0.91898 0.20804 0.50328 0.0
C851 C 0.94406 0.08911 0.48708 0.0
C852 C 0.95671 0.09062 0.50639 0.0
C853 C 0.92923 0.10537 0.4815 0.0
C854 C 0.92694 0.1234 0.49515 0.0
C855 C 0.94069 0.12557 0.51354 0.0
C856 C 0.95534 0.10933 0.51916 0.0
C857 C 0.90901 0.13911 0.49174 0.0
C858 C 0.91428 0.16081 0.49005 0.0
C859 C 0.88672 0.13296 0.49207 0.0
C860 C 0.88016 0.11046 0.49525 0.0
C861 C 0.88598 0.09948 0.51465 0.0
C862 C 0.88015 0.07811 0.51736 0.0
C863 C 0.86837 0.0676 0.50086 0.0
C864 C 0.86231 0.07848 0.48164 0.0
C865 C 0.86809 0.09987 0.47886 0.0
H866 H 0.86391 0.05103 0.50297 0.0
H867 H 0.91975 0.25945 0.48523 0.0
H868 H 0.82887 0.81576 0.53058 0.0
H869 H 0.85473 0.84538 0.5317 0.0
H870 H 0.85643 0.84634 0.46043 0.0
H871 H 0.83149 0.8157 0.45949 0.0
H872 H 0.8954 0.85089 0.47427 0.0
H873 H 0.8283 0.88554 0.49337 0.0
H874 H 0.7937 0.89137 0.51349 0.0
H875 H 0.82933 0.89844 0.57419 0.0
H876 H 0.86414 0.89235 0.55449 0.0
H877 H 0.94097 0.95978 0.47902 0.0
H878 H 0.91653 0.92947 0.47206 0.0
H879 H 0.93237 0.90364 0.53607 0.0
H880 H 0.95715 0.93339 0.54297 0.0
H881 H 0.88391 0.91357 0.52303 0.0
H882 H 0.95107 0.87675 0.5021 0.0
H883 H 0.98484 0.87175 0.48037 0.0
H884 H 0.94717 0.87127 0.42048 0.0
H885 H 0.91317 0.87663 0.44185 0.0
C886 C 0.83459 0.82256 0.5152 0.0
C887 C 0.82804 0.81385 0.49495 0.0
C888 C 0.84929 0.83952 0.51581 0.0
C889 C 0.85723 0.8485 0.49613 0.0
C890 C 0.8505 0.8398 0.47583 0.0
C891 C 0.83615 0.82247 0.47526 0.0
C892 C 0.87311 0.86643 0.49687 0.0
C893 C 0.89263 0.86475 0.48465 0.0
C894 C 0.86974 0.88453 0.51055 0.0
C895 C 0.84883 0.88833 0.52245 0.0
C896 C 0.82876 0.8882 0.51103 0.0
C897 C 0.8091 0.89157 0.52236 0.0
C898 C 0.80932 0.89523 0.54511 0.0
C899 C 0.82919 0.89559 0.55657 0.0
C900 C 0.84889 0.8922 0.54532 0.0
C901 C 0.9395 0.94744 0.49144 0.0
C902 C 0.95087 0.94902 0.51159 0.0
C903 C 0.92561 0.93018 0.48742 0.0
C904 C 0.9227 0.91446 0.5036 0.0
C905 C 0.93448 0.91566 0.52341 0.0
C906 C 0.94866 0.93264 0.52728 0.0
C907 C 0.90603 0.89771 0.50075 0.0
C908 C 0.8864 0.89973 0.51253 0.0
C909 C 0.90913 0.8802 0.48641 0.0
C910 C 0.9296 0.87736 0.47356 0.0
C911 C 0.95 0.87589 0.48428 0.0
C912 C 0.96918 0.8729 0.47204 0.0
C913 C 0.96813 0.8712 0.44907 0.0
C914 C 0.94793 0.87259 0.43828 0.0
C915 C 0.92871 0.87559 0.45045 0.0
H916 H 0.98295 0.8687 0.43964 0.0
H917 H 0.79408 0.89784 0.55385 0.0
H918 H 0.21024 0.80879 0.54505 0.0
H919 H 0.17759 0.83196 0.54424 0.0
H920 H 0.19801 0.85738 0.48152 0.0
H921 H 0.23034 0.83428 0.4821 0.0
H922 H 0.18684 0.87924 0.53969 0.0
H923 H 0.16465 0.85694 0.4579 0.0
H924 H 0.15337 0.82754 0.43325 0.0
H925 H 0.11072 0.80349 0.48364 0.0
H926 H 0.12209 0.83258 0.50865 0.0
H927 H 0.13416 0.96577 0.47888 0.0
H928 H 0.15535 0.93413 0.48859 0.0
H929 H 0.10173 0.91096 0.52786 0.0
H930 H 0.0798 0.94245 0.51751 0.0
H931 H 0.12393 0.88415 0.48797 0.0
H932 H 0.15585 0.89863 0.57256 0.0
H933 H 0.16884 0.92581 0.5989 0.0
H934 H 0.19114 0.96464 0.54519 0.0
H935 H 0.17957 0.93707 0.51868 0.0
C936 C 0.20737 0.81887 0.53081 0.0
C937 C 0.22289 0.81993 0.51373 0.0
C938 C 0.18874 0.83202 0.53035 0.0
C939 C 0.18523 0.84606 0.51263 0.0
C940 C 0.20011 0.84626 0.49505 0.0
C941 C 0.21874 0.83329 0.49556 0.0
C942 C 0.16866 0.86325 0.51415 0.0
C943 C 0.17286 0.88019 0.52863 0.0
C944 C 0.15049 0.86447 0.49979 0.0
C945 C 0.14449 0.84659 0.48518 0.0
C946 C 0.1531 0.84519 0.46377 0.0
C947 C 0.14665 0.82864 0.44974 0.0
C948 C 0.13141 0.8136 0.45691 0.0
C949 C 0.12262 0.81506 0.47815 0.0
C950 C 0.12913 0.8315 0.49228 0.0
C951 C 0.12694 0.95423 0.48997 0.0
C952 C 0.10529 0.95666 0.49745 0.0
C953 C 0.1392 0.93623 0.49567 0.0
C954 C 0.13036 0.9206 0.50951 0.0
C955 C 0.10896 0.92314 0.51753 0.0
C956 C 0.09647 0.94106 0.51155 0.0
C957 C 0.14262 0.90051 0.51297 0.0
C958 C 0.13758 0.88303 0.49942 0.0
C959 C 0.16017 0.89888 0.52812 0.0
C960 C 0.16594 0.91623 0.54359 0.0
C961 C 0.16328 0.91311 0.56638 0.0
C962 C 0.17063 0.92846 0.58135 0.0
C963 C 0.18039 0.94716 0.57371 0.0
C964 C 0.18321 0.95033 0.55107 0.0
C965 C 0.17628 0.93481 0.53605 0.0
H966 H 0.18601 0.95906 0.58534 0.0
H967 H 0.12635 0.80087 0.44599 0.0
H968 H 0.48114 0.21806 0.23076 0.0
H969 H 0.48207 0.18495 0.20922 0.0
H970 H 0.53001 0.21233 0.16567 0.0
H971 H 0.53026 0.24494 0.1877 0.0
H972 H 0.48586 0.19388 0.14714 0.0
H973 H 0.55088 0.18016 0.19261 0.0
H974 H 0.57047 0.17472 0.22781 0.0
H975 H 0.52682 0.12373 0.24447 0.0
H976 H 0.50678 0.12908 0.20946 0.0
H977 H 0.53453 0.1236 0.07339 0.0
H978 H 0.5246 0.14988 0.10113 0.0
H979 H 0.49963 0.10003 0.14307 0.0
H980 H 0.51002 0.07328 0.1153 0.0
H981 H 0.52479 0.12661 0.16605 0.0
H982 H 0.46452 0.1351 0.11772 0.0
H983 H 0.44502 0.13925 0.08231 0.0
H984 H 0.47696 0.19917 0.07142 0.0
H985 H 0.49697 0.19524 0.10657 0.0
C986 C 0.49231 0.21688 0.21695 0.0
C987 C 0.5055 0.23431 0.21088 0.0
C988 C 0.49267 0.198 0.20459 0.0
C989 C 0.506 0.19637 0.18586 0.0
C990 C 0.51951 0.21344 0.18003 0.0
C991 C 0.51949 0.23211 0.19257 0.0
C992 C 0.50518 0.17737 0.17149 0.0
C993 C 0.49436 0.17914 0.15116 0.0
C994 C 0.51553 0.15797 0.1773 0.0
C995 C 0.52714 0.15523 0.1986 0.0
C996 C 0.54525 0.16802 0.20393 0.0
C997 C 0.55649 0.16489 0.2238 0.0
C998 C 0.54985 0.14891 0.23837 0.0
C999 C 0.53191 0.13611 0.23317 0.0
C1000 C 0.52061 0.13918 0.21333 0.0
C1001 C 0.52678 0.11813 0.08841 0.0
C1002 C 0.52311 0.0963 0.09213 0.0
C1003 C 0.52095 0.13325 0.10423 0.0
C1004 C 0.51105 0.12698 0.12405 0.0
C1005 C 0.50714 0.10521 0.12782 0.0
C1006 C 0.51305 0.08998 0.11194 0.0
C1007 C 0.50613 0.14329 0.14113 0.0
C1008 C 0.51579 0.14108 0.16207 0.0
C1009 C 0.49447 0.16225 0.13595 0.0
C1010 C 0.48236 0.1648 0.11479 0.0
C1011 C 0.46751 0.1491 0.10772 0.0
C1012 C 0.45635 0.15142 0.08769 0.0
C1013 C 0.45979 0.16945 0.07462 0.0
C1014 C 0.47434 0.18522 0.08157 0.0
C1015 C 0.48557 0.18296 0.10157 0.0
H1016 H 0.45118 0.17124 0.05911 0.0
H1017 H 0.55871 0.14633 0.25361 0.0
H1018 H 0.78764 0.5385 0.2159 0.0
H1019 H 0.81536 0.53905 0.18664 0.0
H1020 H 0.84826 0.48533 0.21665 0.0
H1021 H 0.82032 0.48418 0.24541 0.0
H1022 H 0.87495 0.52141 0.21119 0.0
H1023 H 0.82703 0.47711 0.17003 0.0
H1024 H 0.79256 0.46551 0.15267 0.0
H1025 H 0.79237 0.5213 0.11157 0.0
H1026 H 0.8267 0.53343 0.12896 0.0
H1027 H 0.95347 0.49849 0.12553 0.0
H1028 H 0.92422 0.49659 0.15308 0.0
H1029 H 0.89522 0.55408 0.12671 0.0
H1030 H 0.92463 0.55643 0.09946 0.0
H1031 H 0.86655 0.51598 0.12993 0.0
H1032 H 0.9154 0.55983 0.17262 0.0
H1033 H 0.95094 0.56908 0.18935 0.0
H1034 H 0.95001 0.5112 0.22723 0.0
H1035 H 0.91458 0.50145 0.21046 0.0
C1036 C 0.80037 0.52639 0.21585 0.0
C1037 C 0.802 0.51151 0.23314 0.0
C1038 C 0.81625 0.52679 0.19921 0.0
C1039 C 0.83396 0.51239 0.19972 0.0
C1040 C 0.83483 0.49671 0.21615 0.0
C1041 C 0.81889 0.49613 0.23256 0.0
C1042 C 0.85262 0.51491 0.18443 0.0
C1043 C 0.87316 0.51998 0.19343 0.0
C1044 C 0.85014 0.51336 0.1613 0.0
C1045 C 0.82929 0.50635 0.15104 0.0
C1046 C 0.81949 0.48707 0.15751 0.0
C1047 C 0.80002 0.48035 0.1476 0.0
C1048 C 0.79023 0.49271 0.13109 0.0
C1049 C 0.79994 0.51178 0.12441 0.0
C1050 C 0.81941 0.51858 0.13428 0.0
C1051 C 0.94114 0.51099 0.12594 0.0
C1052 C 0.94133 0.52759 0.11034 0.0
C1053 C 0.92443 0.50983 0.14159 0.0
C1054 C 0.90752 0.52508 0.14168 0.0
C1055 C 0.90811 0.54213 0.12674 0.0
C1056 C 0.92504 0.54354 0.11136 0.0
C1057 C 0.88871 0.52263 0.15673 0.0
C1058 C 0.86821 0.51752 0.14769 0.0
C1059 C 0.89125 0.52392 0.17984 0.0
C1060 C 0.91245 0.52981 0.19011 0.0
C1061 C 0.92286 0.54898 0.18437 0.0
C1062 C 0.94297 0.55434 0.19389 0.0
C1063 C 0.95275 0.54071 0.20931 0.0
C1064 C 0.94242 0.52173 0.21527 0.0
C1065 C 0.92231 0.51629 0.20578 0.0
H1066 H 0.96832 0.54488 0.21666 0.0
H1067 H 0.77517 0.48746 0.12341 0.0
H1068 H 0.50756 0.81655 0.22546 0.0
H1069 H 0.50403 0.84248 0.19542 0.0
H1070 H 0.57414 0.85151 0.19589 0.0
H1071 H 0.57738 0.82633 0.22674 0.0
H1072 H 0.5558 0.88816 0.19384 0.0
H1073 H 0.54585 0.82361 0.1533 0.0
H1074 H 0.53014 0.78845 0.14445 0.0
H1075 H 0.46641 0.817 0.13729 0.0
H1076 H 0.48168 0.8523 0.1464 0.0
H1077 H 0.55229 0.94665 0.09098 0.0
H1078 H 0.55993 0.92116 0.12069 0.0
H1079 H 0.49058 0.91417 0.13198 0.0
H1080 H 0.48281 0.9394 0.10234 0.0
H1081 H 0.51123 0.87595 0.12658 0.0
H1082 H 0.52276 0.94097 0.16787 0.0
H1083 H 0.53995 0.97568 0.17567 0.0
H1084 H 0.60308 0.94537 0.17966 0.0
H1085 H 0.58632 0.9105 0.17148 0.0
C1086 C 0.52218 0.82382 0.21878 0.0
C1087 C 0.54275 0.81936 0.22801 0.0
C1088 C 0.52022 0.83859 0.20162 0.0
C1089 C 0.53887 0.84878 0.1931 0.0
C1090 C 0.55952 0.84388 0.20212 0.0
C1091 C 0.56141 0.82939 0.21955 0.0
C1092 C 0.53668 0.86527 0.17557 0.0
C1093 C 0.54637 0.88533 0.17894 0.0
C1094 C 0.52413 0.86178 0.15624 0.0
C1095 C 0.51489 0.84058 0.15071 0.0
C1096 C 0.52846 0.82237 0.14999 0.0
C1097 C 0.51963 0.80242 0.1449 0.0
C1098 C 0.49728 0.80049 0.14036 0.0
C1099 C 0.48372 0.81852 0.14084 0.0
C1100 C 0.49245 0.8385 0.14594 0.0
C1101 C 0.53869 0.93991 0.1 0.0
C1102 C 0.51694 0.94488 0.09415 0.0
C1103 C 0.54309 0.92539 0.117 0.0
C1104 C 0.5258 0.91574 0.12849 0.0
C1105 C 0.50414 0.92133 0.12323 0.0
C1106 C 0.49974 0.9358 0.10629 0.0
C1107 C 0.53004 0.89881 0.14505 0.0
C1108 C 0.52077 0.87866 0.14143 0.0
C1109 C 0.54323 0.90216 0.16393 0.0
C1110 C 0.5533 0.92314 0.16882 0.0
C1111 C 0.54034 0.94172 0.17019 0.0
C1112 C 0.55 0.96143 0.17472 0.0
C1113 C 0.5726 0.96273 0.17812 0.0
C1114 C 0.58558 0.94433 0.17704 0.0
C1115 C 0.576 0.92459 0.17243 0.0
H1116 H 0.58005 0.978 0.18162 0.0
H1117 H 0.49049 0.78503 0.13642 0.0
H1118 H 0.2646 0.54207 0.16785 0.0
H1119 H 0.23355 0.53769 0.14414 0.0
H1120 H 0.19182 0.52833 0.20066 0.0
H1121 H 0.22379 0.52901 0.22476 0.0
H1122 H 0.17522 0.50697 0.1708 0.0
H1123 H 0.19749 0.5788 0.17138 0.0
H1124 H 0.22143 0.61028 0.16908 0.0
H1125 H 0.23577 0.59563 0.10137 0.0
H1126 H 0.21218 0.56389 0.10335 0.0
H1127 H 0.09902 0.56271 0.0856 0.0
H1128 H 0.1267 0.56308 0.11471 0.0
H1129 H 0.14846 0.50026 0.09513 0.0
H1130 H 0.12023 0.49936 0.06646 0.0
H1131 H 0.17087 0.55973 0.10995 0.0
H1132 H 0.15119 0.47693 0.12737 0.0
H1133 H 0.11969 0.45335 0.13474 0.0
H1134 H 0.09048 0.50171 0.1756 0.0
H1135 H 0.12159 0.52566 0.1681 0.0
C1136 C 0.2492 0.53819 0.17558 0.0
C1137 C 0.24718 0.53585 0.19863 0.0
C1138 C 0.23111 0.53631 0.16178 0.0
C1139 C 0.21008 0.53359 0.17055 0.0
C1140 C 0.20782 0.53076 0.19343 0.0
C1141 C 0.2262 0.53157 0.20729 0.0
C1142 C 0.1907 0.53425 0.15564 0.0
C1143 C 0.17437 0.51858 0.15757 0.0
C1144 C 0.18874 0.54991 0.13881 0.0
C1145 C 0.20321 0.56884 0.1376 0.0
C1146 C 0.2059 0.58219 0.15606 0.0
C1147 C 0.21938 0.6001 0.1548 0.0
C1148 C 0.23016 0.60492 0.13511 0.0
C1149 C 0.22744 0.59186 0.11662 0.0
C1150 C 0.214 0.57391 0.1178 0.0
C1151 C 0.1098 0.54902 0.08736 0.0
C1152 C 0.1075 0.531 0.07372 0.0
C1153 C 0.12541 0.54917 0.10417 0.0
C1154 C 0.13908 0.53141 0.10751 0.0
C1155 C 0.13743 0.51374 0.0934 0.0
C1156 C 0.12159 0.51342 0.07678 0.0
C1157 C 0.15625 0.53213 0.12465 0.0
C1158 C 0.17197 0.54817 0.12319 0.0
C1159 C 0.15691 0.51768 0.1425 0.0
C1160 C 0.1385 0.50311 0.14698 0.0
C1161 C 0.13796 0.48254 0.13778 0.0
C1162 C 0.12017 0.46915 0.14194 0.0
C1163 C 0.10304 0.47608 0.15551 0.0
C1164 C 0.10368 0.4964 0.16499 0.0
C1165 C 0.12133 0.50991 0.16072 0.0
H1166 H 0.08931 0.46568 0.15873 0.0
H1167 H 0.24057 0.61881 0.13417 0.0
H1168 H 0.4991 0.79093 0.8274 0.0
H1169 H 0.49662 0.82315 0.85004 0.0
H1170 H 0.54222 0.85484 0.80693 0.0
H1171 H 0.54471 0.82245 0.78402 0.0
H1172 H 0.55149 0.85816 0.85378 0.0
H1173 H 0.49215 0.86895 0.80281 0.0
H1174 H 0.45885 0.85858 0.78249 0.0
H1175 H 0.42433 0.85093 0.84365 0.0
H1176 H 0.45753 0.8609 0.86436 0.0
H1177 H 0.53796 0.95494 0.91152 0.0
H1178 H 0.53977 0.9292 0.88136 0.0
H1179 H 0.48334 0.89675 0.90768 0.0
H1180 H 0.48082 0.92311 0.93732 0.0
H1181 H 0.48089 0.89605 0.86573 0.0
H1182 H 0.53886 0.88023 0.91713 0.0
H1183 H 0.57178 0.88737 0.93956 0.0
H1184 H 0.60832 0.90114 0.88083 0.0
H1185 H 0.57553 0.89436 0.85806 0.0
C1186 C 0.50858 0.80478 0.82274 0.0
C1187 C 0.52213 0.80426 0.80401 0.0
C1188 C 0.50707 0.82317 0.8356 0.0
C1189 C 0.51914 0.84135 0.83004 0.0
C1190 C 0.53275 0.84093 0.81139 0.0
C1191 C 0.53407 0.82254 0.79831 0.0
C1192 C 0.51764 0.86058 0.84413 0.0
C1193 C 0.5362 0.86678 0.85611 0.0
C1194 C 0.49748 0.87127 0.84759 0.0
C1195 C 0.47741 0.8655 0.83514 0.0
C1196 C 0.47752 0.86489 0.81194 0.0
C1197 C 0.45864 0.85911 0.80035 0.0
C1198 C 0.4395 0.85405 0.81177 0.0
C1199 C 0.43917 0.85483 0.83482 0.0
C1200 C 0.45801 0.86056 0.84649 0.0
C1201 C 0.52579 0.94245 0.91075 0.0
C1202 C 0.50944 0.94085 0.92697 0.0
C1203 C 0.52694 0.92765 0.89357 0.0
C1204 C 0.51213 0.91063 0.89261 0.0
C1205 C 0.4951 0.90963 0.90817 0.0
C1206 C 0.49367 0.9247 0.92513 0.0
C1207 C 0.51468 0.89353 0.8758 0.0
C1208 C 0.4963 0.88768 0.86329 0.0
C1209 C 0.53493 0.88285 0.87222 0.0
C1210 C 0.55465 0.88703 0.88591 0.0
C1211 C 0.55386 0.88495 0.90901 0.0
C1212 C 0.57251 0.8889 0.92178 0.0
C1213 C 0.59211 0.89476 0.91163 0.0
C1214 C 0.59311 0.89664 0.88867 0.0
C1215 C 0.5745 0.89274 0.87583 0.0
H1216 H 0.60653 0.89778 0.92154 0.0
H1217 H 0.42491 0.84957 0.80277 0.0
H1218 H 0.22384 0.49893 0.77931 0.0
H1219 H 0.19441 0.49666 0.80649 0.0
H1220 H 0.21257 0.55809 0.83262 0.0
H1221 H 0.24186 0.56068 0.80511 0.0
H1222 H 0.19691 0.52695 0.86531 0.0
H1223 H 0.17691 0.55951 0.7961 0.0
H1224 H 0.17545 0.56088 0.75547 0.0
H1225 H 0.1372 0.50359 0.75436 0.0
H1226 H 0.1389 0.50159 0.79502 0.0
H1227 H 0.09387 0.56159 0.9071 0.0
H1228 H 0.12555 0.56136 0.88246 0.0
H1229 H 0.11069 0.49695 0.86272 0.0
H1230 H 0.07926 0.49673 0.88784 0.0
H1231 H 0.12479 0.52923 0.82719 0.0
H1232 H 0.1453 0.49611 0.89599 0.0
H1233 H 0.14804 0.49356 0.93649 0.0
H1234 H 0.18543 0.55137 0.93825 0.0
H1235 H 0.18257 0.55446 0.89773 0.0
C1236 C 0.2219 0.51173 0.79119 0.0
C1237 C 0.23488 0.53016 0.78985 0.0
C1238 C 0.20513 0.51038 0.80672 0.0
C1239 C 0.20112 0.52738 0.82124 0.0
C1240 C 0.21542 0.54484 0.82147 0.0
C1241 C 0.23218 0.54626 0.80581 0.0
C1242 C 0.18041 0.52814 0.83391 0.0
C1243 C 0.18116 0.52768 0.85702 0.0
C1244 C 0.15987 0.52877 0.82299 0.0
C1245 C 0.15824 0.53027 0.79859 0.0
C1246 C 0.16833 0.54711 0.78719 0.0
C1247 C 0.16746 0.548 0.76416 0.0
C1248 C 0.15629 0.5323 0.75233 0.0
C1249 C 0.14589 0.51572 0.76354 0.0
C1250 C 0.14681 0.51469 0.78659 0.0
C1251 C 0.09698 0.54752 0.89716 0.0
C1252 C 0.08413 0.5291 0.89956 0.0
C1253 C 0.11518 0.5474 0.8832 0.0
C1254 C 0.12054 0.52904 0.87107 0.0
C1255 C 0.10681 0.51122 0.87207 0.0
C1256 C 0.08886 0.51115 0.88639 0.0
C1257 C 0.1413 0.52801 0.85858 0.0
C1258 C 0.14054 0.52849 0.83548 0.0
C1259 C 0.1618 0.52738 0.8695 0.0
C1260 C 0.16343 0.52569 0.89387 0.0
C1261 C 0.15385 0.50843 0.90503 0.0
C1262 C 0.15548 0.50685 0.92799 0.0
C1263 C 0.16683 0.52234 0.93995 0.0
C1264 C 0.1766 0.53942 0.92897 0.0
C1265 C 0.17497 0.54109 0.90601 0.0
H1266 H 0.16811 0.52107 0.95772 0.0
H1267 H 0.15566 0.533 0.73449 0.0
H1268 H 0.5113 0.23025 0.80752 0.0
H1269 H 0.51658 0.20575 0.83877 0.0
H1270 H 0.4613 0.16868 0.81694 0.0
H1271 H 0.45613 0.19297 0.78567 0.0
H1272 H 0.46371 0.1734 0.8636 0.0
H1273 H 0.50862 0.15243 0.80193 0.0
H1274 H 0.536 0.15809 0.77266 0.0
H1275 H 0.58442 0.17358 0.8215 0.0
H1276 H 0.5572 0.16836 0.85106 0.0
H1277 H 0.48882 0.07884 0.92453 0.0
H1278 H 0.47936 0.10345 0.89444 0.0
H1279 H 0.54111 0.13563 0.90336 0.0
H1280 H 0.55108 0.11044 0.93222 0.0
H1281 H 0.53388 0.13308 0.86239 0.0
H1282 H 0.48865 0.15235 0.92482 0.0
H1283 H 0.46118 0.14476 0.95353 0.0
H1284 H 0.4128 0.13286 0.90361 0.0
H1285 H 0.44022 0.13937 0.87457 0.0
C1286 C 0.50001 0.21715 0.80974 0.0
C1287 C 0.48339 0.21338 0.7942 0.0
C1288 C 0.50308 0.20314 0.82748 0.0
C1289 C 0.48943 0.18531 0.83002 0.0
C1290 C 0.47199 0.18233 0.81528 0.0
C1291 C 0.4691 0.19614 0.79742 0.0
C1292 C 0.49442 0.16878 0.84683 0.0
C1293 C 0.47898 0.16446 0.86335 0.0
C1294 C 0.51437 0.15722 0.84645 0.0
C1295 C 0.5308 0.16024 0.8287 0.0
C1296 C 0.52505 0.15724 0.80642 0.0
C1297 C 0.54055 0.16033 0.78978 0.0
C1298 C 0.56192 0.16625 0.79522 0.0
C1299 C 0.56785 0.16903 0.81732 0.0
C1300 C 0.5524 0.166 0.83402 0.0
C1301 C 0.50038 0.0911 0.9199 0.0
C1302 C 0.52065 0.09274 0.93077 0.0
C1303 C 0.49493 0.10525 0.90281 0.0
C1304 C 0.50932 0.12176 0.89686 0.0
C1305 C 0.52968 0.12311 0.90755 0.0
C1306 C 0.53535 0.10868 0.92414 0.0
C1307 C 0.5034 0.13786 0.87973 0.0
C1308 C 0.51864 0.14206 0.86293 0.0
C1309 C 0.48326 0.14931 0.87996 0.0
C1310 C 0.46659 0.14615 0.89749 0.0
C1311 C 0.47219 0.14799 0.91995 0.0
C1312 C 0.45664 0.14383 0.93628 0.0
C1313 C 0.43525 0.13843 0.9304 0.0
C1314 C 0.42938 0.13706 0.90815 0.0
C1315 C 0.44495 0.14088 0.89174 0.0
H1316 H 0.42322 0.1353 0.94307 0.0
H1317 H 0.5739 0.16863 0.78231 0.0
H1318 H 0.79073 0.53216 0.79889 0.0
H1319 H 0.81247 0.53816 0.83234 0.0
H1320 H 0.81412 0.47024 0.84434 0.0
H1321 H 0.79161 0.46443 0.8113 0.0
H1322 H 0.81227 0.48999 0.88206 0.0
H1323 H 0.85574 0.49625 0.81737 0.0
H1324 H 0.86693 0.50945 0.78079 0.0
H1325 H 0.87384 0.5727 0.8071 0.0
H1326 H 0.86227 0.55996 0.84378 0.0
H1327 H 0.91695 0.48247 0.93482 0.0
H1328 H 0.88582 0.48057 0.90961 0.0
H1329 H 0.8762 0.54853 0.91544 0.0
H1330 H 0.90711 0.55055 0.94125 0.0
H1331 H 0.88069 0.53089 0.87057 0.0
H1332 H 0.83949 0.52011 0.93771 0.0
H1333 H 0.83193 0.50257 0.97329 0.0
H1334 H 0.82565 0.44219 0.94042 0.0
H1335 H 0.83345 0.45932 0.90466 0.0
C1336 C 0.79525 0.51865 0.80911 0.0
C1337 C 0.7895 0.49788 0.80282 0.0
C1338 C 0.80782 0.52202 0.82804 0.0
C1339 C 0.81535 0.50461 0.8406 0.0
C1340 C 0.80854 0.48392 0.83491 0.0
C1341 C 0.79567 0.48058 0.81613 0.0
C1342 C 0.83145 0.50782 0.85868 0.0
C1343 C 0.82725 0.49886 0.87948 0.0
C1344 C 0.85107 0.51941 0.85538 0.0
C1345 C 0.85783 0.5272 0.83327 0.0
C1346 C 0.85941 0.51302 0.81531 0.0
C1347 C 0.86586 0.52042 0.79456 0.0
C1348 C 0.87102 0.54192 0.7916 0.0
C1349 C 0.86977 0.55606 0.8094 0.0
C1350 C 0.86325 0.54877 0.83018 0.0
C1351 C 0.90787 0.49694 0.93127 0.0
C1352 C 0.91437 0.51659 0.94029 0.0
C1353 C 0.89015 0.49583 0.91676 0.0
C1354 C 0.87869 0.51438 0.91082 0.0
C1355 C 0.88483 0.53403 0.91998 0.0
C1356 C 0.90244 0.53512 0.93475 0.0
C1357 C 0.86133 0.51326 0.89383 0.0
C1358 C 0.86546 0.52241 0.87317 0.0
C1359 C 0.84206 0.50128 0.89706 0.0
C1360 C 0.83715 0.49099 0.91852 0.0
C1361 C 0.83663 0.50307 0.93808 0.0
C1362 C 0.83225 0.49321 0.95828 0.0
C1363 C 0.82827 0.47129 0.95911 0.0
C1364 C 0.82866 0.45918 0.93974 0.0
C1365 C 0.83303 0.46896 0.91951 0.0
H1366 H 0.82494 0.46368 0.97477 0.0
H1367 H 0.87606 0.5476 0.77554 0.0
H1368 H 0.73436 0.71627 0.03045 0.0
H1369 H 0.70075 0.69544 0.03393 0.0
H1370 H 0.69013 0.7005 0.96365 0.0
H1371 H 0.7235 0.72216 0.96038 0.0
H1372 H 0.65196 0.70255 0.98485 0.0
H1373 H 0.71395 0.6563 0.98584 0.0
H1374 H 0.75023 0.64319 0.99777 0.0
H1375 H 0.72558 0.63286 0.06321 0.0
H1376 H 0.68922 0.64628 0.05177 0.0
H1377 H 0.58429 0.61005 0.97759 0.0
H1378 H 0.61235 0.63729 0.97391 0.0
H1379 H 0.62305 0.6361 0.04431 0.0
H1380 H 0.59522 0.60841 0.04813 0.0
H1381 H 0.66076 0.63236 0.0218 0.0
H1382 H 0.59706 0.67872 0.01793 0.0
H1383 H 0.56128 0.69004 0.00287 0.0
H1384 H 0.58987 0.69737 0.93863 0.0
H1385 H 0.62578 0.68587 0.95326 0.0
C1386 C 0.7246 0.71316 0.01585 0.0
C1387 C 0.73135 0.72058 0.99516 0.0
C1388 C 0.70551 0.70122 0.0178 0.0
C1389 C 0.69318 0.69602 -0.00102 0.0
C1390 C 0.69944 0.70426 0.97837 0.0
C1391 C 0.71844 0.71653 0.97648 0.0
C1392 C 0.67458 0.68098 0.00079 0.0
C1393 C 0.65391 0.68712 0.99274 0.0
C1394 C 0.67712 0.66083 0.01109 0.0
C1395 C 0.6989 0.6525 0.018 0.0
C1396 C 0.7163 0.65137 0.00282 0.0
C1397 C 0.73688 0.64388 0.00949 0.0
C1398 C 0.74022 0.63725 0.03124 0.0
C1399 C 0.72297 0.63804 0.04636 0.0
C1400 C 0.70237 0.64558 0.0398 0.0
C1401 C 0.59236 0.61575 0.99238 0.0
C1402 C 0.58756 0.60696 0.01317 0.0
C1403 C 0.60837 0.63143 0.99023 0.0
C1404 C 0.61969 0.63885 0.00885 0.0
C1405 C 0.61448 0.63059 0.02972 0.0
C1406 C 0.59854 0.61481 0.03188 0.0
C1407 C 0.638 0.65411 0.00637 0.0
C1408 C 0.65874 0.64788 0.01411 0.0
C1409 C 0.63556 0.67391 0.99535 0.0
C1410 C 0.61408 0.6813 0.98667 0.0
C1411 C 0.5957 0.68266 0.00058 0.0
C1412 C 0.57539 0.68912 0.99212 0.0
C1413 C 0.5733 0.69439 0.9698 0.0
C1414 C 0.59152 0.69329 0.95591 0.0
C1415 C 0.61186 0.68684 0.96429 0.0
H1416 H 0.55756 0.69934 0.96328 0.0
H1417 H 0.75617 0.63145 0.03638 0.0
H1418 H 0.28915 0.72098 0.9835 0.0
H1419 H 0.31074 0.68798 0.98417 0.0
H1420 H 0.33986 0.70713 0.046 0.0
H1421 H 0.31864 0.74037 0.04509 0.0
H1422 H 0.37023 0.69395 0.01946 0.0
H1423 H 0.30061 0.66624 0.04176 0.0
H1424 H 0.2609 0.6597 0.03903 0.0
H1425 H 0.27042 0.62725 0.97731 0.0
H1426 H 0.31017 0.63385 0.97952 0.0
H1427 H 0.42056 0.59643 0.04744 0.0
H1428 H 0.39161 0.62345 0.04835 0.0
H1429 H 0.3799 0.61425 0.97884 0.0
H1430 H 0.40928 0.58748 0.97755 0.0
H1431 H 0.3402 0.62119 0.009 0.0
H1432 H 0.40956 0.65101 0.98626 0.0
H1433 H 0.44927 0.65732 0.98955 0.0
H1434 H 0.43959 0.68582 0.05329 0.0
H1435 H 0.39983 0.67933 0.05053 0.0
C1436 C 0.29994 0.71797 0.99737 0.0
C1437 C 0.30223 0.7332 0.01426 0.0
C1438 C 0.31223 0.69909 0.99778 0.0
C1439 C 0.32677 0.69492 0.01527 0.0
C1440 C 0.32878 0.70999 0.03232 0.0
C1441 C 0.31668 0.72896 0.0318 0.0
C1442 C 0.34082 0.67547 0.01522 0.0
C1443 C 0.36354 0.67805 0.01752 0.0
C1444 C 0.33224 0.6547 0.01209 0.0
C1445 C 0.30834 0.65072 0.01072 0.0
C1446 C 0.29422 0.65786 0.02752 0.0
C1447 C 0.2717 0.65411 0.02608 0.0
C1448 C 0.26314 0.64311 0.00798 0.0
C1449 C 0.27707 0.6358 0.99131 0.0
C1450 C 0.2996 0.63952 0.99266 0.0
C1451 C 0.41154 0.59975 0.03241 0.0
C1452 C 0.41745 0.59 0.01233 0.0
C1453 C 0.39502 0.61522 0.03298 0.0
C1454 C 0.38385 0.62093 0.01362 0.0
C1455 C 0.38839 0.61001 0.99394 0.0
C1456 C 0.4052 0.59477 0.99324 0.0
C1457 C 0.36931 0.63986 0.0135 0.0
C1458 C 0.34667 0.63715 0.01106 0.0
C1459 C 0.37788 0.66056 0.01658 0.0
C1460 C 0.40177 0.66441 0.01832 0.0
C1461 C 0.41593 0.65839 0.00109 0.0
C1462 C 0.43844 0.66205 0.00283 0.0
C1463 C 0.44696 0.6719 0.02165 0.0
C1464 C 0.43298 0.67815 0.03875 0.0
C1465 C 0.41046 0.67448 0.0371 0.0
H1466 H 0.46439 0.67475 0.02296 0.0
H1467 H 0.2457 0.64022 0.0069 0.0
H1468 H 0.29758 0.32848 0.04159 0.0
H1469 H 0.32376 0.35789 0.03812 0.0
H1470 H 0.35794 0.32345 0.98696 0.0
H1471 H 0.3314 0.29458 0.98951 0.0
H1472 H 0.38346 0.33572 0.02681 0.0
H1473 H 0.33668 0.3629 0.96984 0.0
H1474 H 0.30187 0.37497 0.95327 0.0
H1475 H 0.2969 0.42502 0.00148 0.0
H1476 H 0.33156 0.41301 0.01859 0.0
H1477 H 0.45959 0.41518 0.98709 0.0
H1478 H 0.42925 0.38961 0.98705 0.0
H1479 H 0.40218 0.41982 0.04492 0.0
H1480 H 0.43279 0.44492 0.04559 0.0
H1481 H 0.3727 0.41046 0.00176 0.0
H1482 H 0.41883 0.38131 0.05994 0.0
H1483 H 0.45441 0.36963 0.07516 0.0
H1484 H 0.46075 0.32321 0.02335 0.0
H1485 H 0.42535 0.33494 0.00758 0.0
C1486 C 0.31022 0.3275 0.02911 0.0
C1487 C 0.31263 0.30906 0.01607 0.0
C1488 C 0.32523 0.34422 0.02726 0.0
C1489 C 0.34286 0.3426 0.01249 0.0
C1490 C 0.34453 0.32483 0.99859 0.0
C1491 C 0.32939 0.30836 0.00014 0.0
C1492 C 0.36067 0.35843 0.01287 0.0
C1493 C 0.38115 0.35201 0.02117 0.0
C1494 C 0.35749 0.3797 0.00578 0.0
C1495 C 0.33655 0.38686 0.9957 0.0
C1496 C 0.32803 0.37631 0.9771 0.0
C1497 C 0.30836 0.38318 0.96756 0.0
C1498 C 0.29713 0.4007 0.97637 0.0
C1499 C 0.30559 0.41141 0.99471 0.0
C1500 C 0.32525 0.40458 0.00433 0.0
C1501 C 0.44728 0.41621 -9e-05 0.0
C1502 C 0.44861 0.43189 0.01645 0.0
C1503 C 0.42997 0.40172 -0.0002 0.0
C1504 C 0.41353 0.40304 0.0159 0.0
C1505 C 0.41474 0.41869 0.03234 0.0
C1506 C 0.43231 0.43284 0.03281 0.0
C1507 C 0.39532 0.38771 0.01579 0.0
C1508 C 0.37487 0.39419 0.0075 0.0
C1509 C 0.39848 0.36647 0.02287 0.0
C1510 C 0.41961 0.35919 0.03242 0.0
C1511 C 0.42793 0.36878 0.05165 0.0
C1512 C 0.44803 0.36212 0.06041 0.0
C1513 C 0.45987 0.34573 0.05019 0.0
C1514 C 0.45158 0.33593 0.03122 0.0
C1515 C 0.4315 0.34258 0.02237 0.0
H1516 H 0.47543 0.34059 0.057 0.0
H1517 H 0.28192 0.40601 0.96895 0.0
H1518 H 0.73509 0.29143 -0.00037 0.0
H1519 H 0.7028 0.31435 0.00509 0.0
H1520 H 0.74512 0.36734 0.02044 0.0
H1521 H 0.77673 0.34438 0.01745 0.0
H1522 H 0.71409 0.36992 0.04593 0.0
H1523 H 0.71817 0.35612 0.96626 0.0
H1524 H 0.71714 0.33326 0.93308 0.0
H1525 H 0.65307 0.31131 0.95099 0.0
H1526 H 0.65383 0.3339 0.98437 0.0
H1527 H 0.63557 0.44825 0.9838 0.0
H1528 H 0.66333 0.41996 0.98442 0.0
H1529 H 0.64309 0.40253 0.0502 0.0
H1530 H 0.61586 0.43117 0.04989 0.0
H1531 H 0.65876 0.37845 0.98658 0.0
H1532 H 0.68285 0.38175 0.07825 0.0
H1533 H 0.68711 0.40824 0.10816 0.0
H1534 H 0.70133 0.4568 0.06034 0.0
H1535 H 0.69697 0.43067 0.03028 0.0
C1536 C 0.73742 0.30789 0.00452 0.0
C1537 C 0.75863 0.31613 0.00753 0.0
C1538 C 0.71895 0.32106 0.00735 0.0
C1539 C 0.72145 0.34277 0.01276 0.0
C1540 C 0.74259 0.35073 0.01623 0.0
C1541 C 0.76082 0.33757 0.01405 0.0
C1542 C 0.70252 0.35773 0.0147 0.0
C1543 C 0.70194 0.37161 0.03295 0.0
C1544 C 0.68652 0.3601 0.99789 0.0
C1545 C 0.68618 0.34647 0.97792 0.0
C1546 C 0.70394 0.3463 0.96318 0.0
C1547 C 0.70339 0.33342 0.94434 0.0
C1548 C 0.68509 0.32078 0.93997 0.0
C1549 C 0.66726 0.32106 0.95441 0.0
C1550 C 0.66774 0.33389 0.97329 0.0
C1551 C 0.63735 0.43862 0.99851 0.0
C1552 C 0.62361 0.44196 0.01678 0.0
C1553 C 0.65307 0.42235 -0.0012 0.0
C1554 C 0.65525 0.40905 0.01732 0.0
C1555 C 0.64193 0.41275 0.03583 0.0
C1556 C 0.62643 0.42921 0.03567 0.0
C1557 C 0.67128 0.39117 0.01713 0.0
C1558 C 0.67092 0.37657 -0.00047 0.0
C1559 C 0.68697 0.38857 0.03406 0.0
C1560 C 0.68941 0.40434 0.05208 0.0
C1561 C 0.68686 0.3981 0.07419 0.0
C1562 C 0.68922 0.41307 0.09115 0.0
C1563 C 0.69438 0.43423 0.08618 0.0
C1564 C 0.69715 0.44048 0.06422 0.0
C1565 C 0.69466 0.42562 0.04721 0.0
H1566 H 0.69634 0.44574 0.09933 0.0
H1567 H 0.68469 0.31083 0.92537 0.0
H1568 H 0.02211 0.71846 0.70845 0.0
H1569 H 0.02391 0.68714 0.6841 0.0
H1570 H 0.95912 0.70155 0.65963 0.0
H1571 H 0.95758 0.73331 0.68351 0.0
H1572 H 0.9713 0.6544 0.67023 0.0
H1573 H 0.99292 0.7176 0.62997 0.0
H1574 H 0.01425 0.75049 0.62545 0.0
H1575 H 0.07409 0.71418 0.62726 0.0
H1576 H 0.05309 0.68109 0.63274 0.0
H1577 H 0.98284 0.58363 0.57797 0.0
H1578 H 0.97282 0.61379 0.60162 0.0
H1579 H 0.04133 0.62585 0.61386 0.0
H1580 H 0.05126 0.59714 0.58906 0.0
H1581 H 0.02314 0.66142 0.60768 0.0
H1582 H 0.00544 0.60052 0.65279 0.0
H1583 H 0.98718 0.56619 0.65998 0.0
H1584 H 0.92431 0.596 0.651 0.0
H1585 H 0.94222 0.63054 0.64367 0.0
C1586 C 0.00813 0.71464 0.69817 0.0
C1587 C 0.98969 0.72808 0.69776 0.0
C1588 C 0.00917 0.69685 0.68431 0.0
C1589 C 0.99163 0.69213 0.67014 0.0
C1590 C 0.97272 0.70493 0.67057 0.0
C1591 C 0.97188 0.723 0.6841 0.0
C1592 C 0.99396 0.67501 0.65354 0.0
C1593 C 0.98237 0.65596 0.65634 0.0
C1594 C 0.00876 0.67703 0.63576 0.0
C1595 C 0.02141 0.69688 0.63205 0.0
C1596 C 0.01063 0.71664 0.62969 0.0
C1597 C 0.02268 0.73533 0.6269 0.0
C1598 C 0.04553 0.73446 0.62602 0.0
C1599 C 0.05638 0.71485 0.62797 0.0
C1600 C 0.04441 0.69612 0.63098 0.0
C1601 C 0.99568 0.59294 0.58534 0.0
C1602 C 0.01778 0.58821 0.58106 0.0
C1603 C 0.98998 0.61003 0.59918 0.0
C1604 C 0.00633 0.62217 0.60964 0.0
C1605 C 0.02837 0.61701 0.60582 0.0
C1606 C 0.03401 0.60039 0.59165 0.0
C1607 C 0.00093 0.64033 0.62455 0.0
C1608 C 0.0119 0.65975 0.62141 0.0
C1609 C 0.98599 0.63844 0.64231 0.0
C1610 C 0.97514 0.618 0.6475 0.0
C1611 C 0.98772 0.59973 0.65233 0.0
C1612 C 0.97746 0.58027 0.65642 0.0
C1613 C 0.95465 0.57895 0.65585 0.0
C1614 C 0.942 0.5971 0.65139 0.0
C1615 C 0.95218 0.61663 0.64733 0.0
H1616 H 0.9468 0.56386 0.65897 0.0
H1617 H 0.05482 0.74896 0.6238 0.0
H1618 H 0.30381 0.00129 0.72142 0.0
H1619 H 0.32612 0.00455 0.68797 0.0
H1620 H 0.37445 0.04005 0.72454 0.0
H1621 H 0.35222 0.03691 0.75796 0.0
H1622 H 0.36658 0.05519 0.68013 0.0
H1623 H 0.38044 0.98859 0.72089 0.0
H1624 H 0.36869 0.95441 0.73706 0.0
H1625 H 0.34561 0.9336 0.67366 0.0
H1626 H 0.35692 0.96781 0.65719 0.0
H1627 H 0.46287 0.0433 0.61802 0.0
H1628 H 0.4361 0.04372 0.64808 0.0
H1629 H 0.40034 0.993 0.61611 0.0
H1630 H 0.42779 0.99152 0.58712 0.0
H1631 H 0.39875 0.98605 0.6562 0.0
H1632 H 0.38481 0.04833 0.6134 0.0
H1633 H 0.39396 0.08179 0.59417 0.0
H1634 H 0.4125 0.1104 0.65579 0.0
H1635 H 0.40369 0.07701 0.67537 0.0
C1636 C 0.31895 0.01021 0.72214 0.0
C1637 C 0.3265 0.01865 0.74223 0.0
C1638 C 0.33165 0.01201 0.7031 0.0
C1639 C 0.35195 0.02237 0.70395 0.0
C1640 C 0.35881 0.03201 0.72364 0.0
C1641 C 0.34622 0.03006 0.7427 0.0
C1642 C 0.36721 0.02119 0.68516 0.0
C1643 C 0.37373 0.04014 0.67486 0.0
C1644 C 0.37589 0.00144 0.67794 0.0
C1645 C 0.3693 0.98084 0.68788 0.0
C1646 C 0.3727 0.97679 0.71044 0.0
C1647 C 0.36614 0.95741 0.71965 0.0
C1648 C 0.35635 0.94187 0.70641 0.0
C1649 C 0.35315 0.94566 0.68391 0.0
C1650 C 0.35963 0.96504 0.67463 0.0
C1651 C 0.44947 0.03203 0.61772 0.0
C1652 C 0.44737 0.01736 0.60037 0.0
C1653 C 0.43404 0.03244 0.6347 0.0
C1654 C 0.41584 0.01878 0.63405 0.0
C1655 C 0.41417 0.00372 0.617 0.0
C1656 C 0.42992 0.00286 0.60045 0.0
C1657 C 0.39845 0.02013 0.65103 0.0
C1658 C 0.39151 1.00118 0.6611 0.0
C1659 C 0.38887 0.03983 0.65746 0.0
C1660 C 0.39373 0.06011 0.64583 0.0
C1661 C 0.39092 0.06173 0.62284 0.0
C1662 C 0.39604 0.08068 0.61188 0.0
C1663 C 0.40385 0.09819 0.62375 0.0
C1664 C 0.40646 0.09682 0.64662 0.0
C1665 C 0.40136 0.0779 0.65767 0.0
H1666 H 0.40784 0.11284 0.61523 0.0
H1667 H 0.3513 0.92686 0.71357 0.0
H1668 H 0.04504 0.3374 0.72447 0.0
H1669 H 0.04457 0.36156 0.69291 0.0
H1670 H 0.98835 0.32907 0.66637 0.0
H1671 H 0.9881 0.30517 0.6985 0.0
H1672 H 0.03255 0.34528 0.63642 0.0
H1673 H 0.96899 0.36532 0.68221 0.0
H1674 H 0.95244 0.37121 0.71886 0.0
H1675 H 0.00167 0.4177 0.73399 0.0
H1676 H 0.01864 0.41188 0.69749 0.0
H1677 H 0.02104 0.43428 0.56344 0.0
H1678 H 0.01091 0.4037 0.58641 0.0
H1679 H 0.037 0.43568 0.64376 0.0
H1680 H 0.04645 0.46634 0.62118 0.0
H1681 H 0.0014 0.41643 0.6549 0.0
H1682 H 0.06634 0.39716 0.61392 0.0
H1683 H 0.08803 0.39142 0.58009 0.0
H1684 H 0.04224 0.34408 0.55825 0.0
H1685 H 0.0201 0.34977 0.59184 0.0
C1686 C 0.03262 0.33526 0.71189 0.0
C1687 C 0.0164 0.31955 0.71418 0.0
C1688 C 0.03251 0.34896 0.69379 0.0
C1689 C 0.01639 0.34707 0.67746 0.0
C1690 C 0.00096 0.33064 0.67885 0.0
C1691 C 0.0009 0.31699 0.69716 0.0
C1692 C 0.0147 0.36379 0.66038 0.0
C1693 C 0.02521 0.36069 0.64007 0.0
C1694 C 0.00576 0.38399 0.66561 0.0
C1695 C 0.99513 0.38807 0.68721 0.0
C1696 C 0.97632 0.37672 0.6934 0.0
C1697 C 0.96686 0.38007 0.71413 0.0
C1698 C 0.97601 0.3948 0.72876 0.0
C1699 C 0.99459 0.4063 0.72264 0.0
C1700 C 0.0041 0.40302 0.70192 0.0
C1701 C 0.02443 0.43482 0.58099 0.0
C1702 C 0.03471 0.45267 0.59047 0.0
C1703 C 0.01869 0.41732 0.59408 0.0
C1704 C 0.02346 0.41725 0.61679 0.0
C1705 C 0.0331 0.43534 0.62631 0.0
C1706 C 0.0386 0.45286 0.61333 0.0
C1707 C 0.01941 0.39815 0.63071 0.0
C1708 C 0.00806 0.40087 0.65068 0.0
C1709 C 0.02799 0.37773 0.62528 0.0
C1710 C 0.04142 0.37408 0.60524 0.0
C1711 C 0.06082 0.38563 0.60183 0.0
C1712 C 0.0732 0.38238 0.58271 0.0
C1713 C 0.06647 0.36745 0.56699 0.0
C1714 C 0.0474 0.35568 0.57041 0.0
C1715 C 0.03493 0.35891 0.58949 0.0
H1716 H 0.07607 0.36498 0.55219 0.0
H1717 H 0.9687 0.39733 0.74482 0.0
H1718 H 0.72191 0.06458 0.72991 0.0
H1719 H 0.69222 0.06302 0.70263 0.0
H1720 H 0.71948 0.00486 0.6761 0.0
H1721 H 0.74854 0.00565 0.70383 0.0
H1722 H 0.71186 0.05151 0.64854 0.0
H1723 H 0.68234 0.98882 0.68724 0.0
H1724 H 0.66879 0.97029 0.72038 0.0
H1725 H 0.62019 0.01926 0.7298 0.0
H1726 H 0.63367 0.0382 0.6968 0.0
H1727 H 0.62937 0.00568 0.57107 0.0
H1728 H 0.65584 0.00684 0.60149 0.0
H1729 H 0.63228 0.06935 0.61976 0.0
H1730 H 0.60621 0.06869 0.58912 0.0
H1731 H 0.63702 0.02114 0.65214 0.0
H1732 H 0.66955 0.08539 0.61464 0.0
H1733 H 0.6824 0.10225 0.58021 0.0
H1734 H 0.72486 0.04866 0.56797 0.0
H1735 H 0.71198 0.03141 0.60221 0.0
C1736 C 0.72119 0.05109 0.71875 0.0
C1737 C 0.73774 0.03538 0.71884 0.0
C1738 C 0.7043 0.05029 0.70314 0.0
C1739 C 0.70381 0.03383 0.68747 0.0
C1740 C 0.71963 0.01762 0.68818 0.0
C1741 C 0.73629 0.01822 0.7039 0.0
C1742 C 0.68845 0.03488 0.66875 0.0
C1743 C 0.69549 0.04491 0.64935 0.0
C1744 C 0.66718 0.02625 0.66989 0.0
C1745 C 0.65926 0.01509 0.68983 0.0
C1746 C 0.66898 0.99579 0.69657 0.0
C1747 C 0.66125 0.98516 0.71526 0.0
C1748 C 0.64371 0.99365 0.72726 0.0
C1749 C 0.63382 0.01274 0.72053 0.0
C1750 C 0.64149 0.02342 0.70184 0.0
C1751 C 0.63018 0.01988 0.58124 0.0
C1752 C 0.61574 0.03711 0.57767 0.0
C1753 C 0.64517 0.02044 0.59865 0.0
C1754 C 0.64581 0.03813 0.61277 0.0
C1755 C 0.63201 0.05564 0.60886 0.0
C1756 C 0.61725 0.05526 0.59127 0.0
C1757 C 0.66041 0.03793 0.6321 0.0
C1758 C 0.6533 0.02797 0.65151 0.0
C1759 C 0.68162 0.0466 0.63102 0.0
C1760 C 0.68969 0.05708 0.61078 0.0
C1761 C 0.68151 0.07718 0.6045 0.0
C1762 C 0.68881 0.0868 0.58506 0.0
C1763 C 0.70439 0.0765 0.57188 0.0
C1764 C 0.71277 0.0566 0.57817 0.0
C1765 C 0.70548 0.0469 0.59759 0.0
H1766 H 0.71 0.08395 0.55682 0.0
H1767 H 0.63773 0.98539 0.74171 0.0
H1768 H 0.06124 0.30472 0.34157 0.0
H1769 H 0.06143 0.33659 0.36483 0.0
H1770 H 0.00691 0.36241 0.32814 0.0
H1771 H 0.00564 0.33008 0.30557 0.0
H1772 H 0.04562 0.39165 0.33863 0.0
H1773 H 0.99345 0.34193 0.37159 0.0
H1774 H 0.98363 0.3068 0.38686 0.0
H1775 H 0.03414 0.31269 0.43587 0.0
H1776 H 0.04449 0.34773 0.42063 0.0
H1777 H 0.99592 0.47204 0.40044 0.0
H1778 H 0.007 0.44162 0.37822 0.0
H1779 H 0.0412 0.41467 0.43412 0.0
H1780 H 0.02937 0.44503 0.45688 0.0
H1781 H 0.0187 0.38492 0.41557 0.0
H1782 H 0.07043 0.4333 0.38732 0.0
H1783 H 0.08481 0.46718 0.37292 0.0
H1784 H 0.04155 0.4633 0.31722 0.0
H1785 H 0.02701 0.42918 0.33113 0.0
C1786 C 0.04915 0.31708 0.33847 0.0
C1787 C 0.03322 0.31461 0.3218 0.0
C1788 C 0.04944 0.33535 0.35169 0.0
C1789 C 0.03412 0.35172 0.34823 0.0
C1790 C 0.01891 0.34991 0.33097 0.0
C1791 C 0.01832 0.33145 0.31799 0.0
C1792 C 0.03321 0.37029 0.36331 0.0
C1793 C 0.03957 0.39029 0.3554 0.0
C1794 C 0.02635 0.36821 0.38548 0.0
C1795 C 0.0199 0.34731 0.39481 0.0
C1796 C 0.00259 0.33564 0.38549 0.0
C1797 C 0.99691 0.31576 0.39417 0.0
C1798 C 0.0083 0.30748 0.41228 0.0
C1799 C 0.02535 0.3191 0.42181 0.0
C1800 C 0.03113 0.33897 0.41317 0.0
C1801 C 0.00604 0.45983 0.40803 0.0
C1802 C 0.01169 0.46098 0.43049 0.0
C1803 C 0.01253 0.44243 0.39519 0.0
C1804 C 0.02524 0.42589 0.40432 0.0
C1805 C 0.03143 0.42722 0.42666 0.0
C1806 C 0.02471 0.44461 0.43963 0.0
C1807 C 0.03054 0.40669 0.39077 0.0
C1808 C 0.02503 0.38643 0.39893 0.0
C1809 C 0.03878 0.40843 0.36899 0.0
C1810 C 0.04749 0.42882 0.36038 0.0
C1811 C 0.06389 0.43973 0.37206 0.0
C1812 C 0.0721 0.45896 0.36398 0.0
C1813 C 0.06394 0.46751 0.34434 0.0
C1814 C 0.04779 0.45668 0.3325 0.0
C1815 C 0.03963 0.43734 0.3404 0.0
H1816 H 0.07014 0.48253 0.33832 0.0
H1817 H 0.00388 0.29209 0.41897 0.0
H1818 H 0.6769 0.06336 0.25972 0.0
H1819 H 0.65325 0.06062 0.29171 0.0
H1820 H 0.70748 0.03662 0.33041 0.0
H1821 H 0.73079 0.03736 0.29775 0.0
H1822 H 0.67529 0.01247 0.3366 0.0
H1823 H 0.68203 0.0882 0.33825 0.0
H1824 H 0.68158 0.12506 0.32401 0.0
H1825 H 0.61337 0.11925 0.30781 0.0
H1826 H 0.61348 0.08224 0.3216 0.0
H1827 H 0.60941 0.01094 0.43339 0.0
H1828 H 0.63739 0.01697 0.40548 0.0
H1829 H 0.58788 0.04144 0.36097 0.0
H1830 H 0.56018 0.03721 0.38991 0.0
H1831 H 0.62038 0.06627 0.36043 0.0
H1832 H 0.61599 0.98809 0.35796 0.0
H1833 H 0.61787 0.95257 0.37548 0.0
H1834 H 0.68394 0.96468 0.39624 0.0
H1835 H 0.68235 1.00033 0.37911 0.0
C1836 C 0.68385 0.05748 0.27502 0.0
C1837 C 0.70565 0.05016 0.27601 0.0
C1838 C 0.67036 0.0563 0.29347 0.0
C1839 C 0.67858 0.04857 0.31359 0.0
C1840 C 0.70074 0.04259 0.31504 0.0
C1841 C 0.71414 0.04327 0.2964 0.0
C1842 C 0.6635 0.04473 0.33232 0.0
C1843 C 0.66352 0.02439 0.34204 0.0
C1844 C 0.6479 0.06012 0.33925 0.0
C1845 C 0.64782 0.08237 0.33083 0.0
C1846 C 0.66698 0.09472 0.33149 0.0
C1847 C 0.66677 0.11565 0.32351 0.0
C1848 C 0.64747 0.12447 0.31497 0.0
C1849 C 0.62832 0.11239 0.31441 0.0
C1850 C 0.62844 0.09144 0.32232 0.0
C1851 C 0.60453 0.01726 0.41747 0.0
C1852 C 0.58276 0.02343 0.41352 0.0
C1853 C 0.62049 0.0206 0.40148 0.0
C1854 C 0.61473 0.02923 0.38088 0.0
C1855 C 0.59272 0.03472 0.37672 0.0
C1856 C 0.57689 0.03218 0.39309 0.0
C1857 C 0.63175 0.03386 0.36416 0.0
C1858 C 0.63216 0.05439 0.35493 0.0
C1859 C 0.64791 0.01873 0.35788 0.0
C1860 C 0.64898 0.99693 0.36738 0.0
C1861 C 0.63089 0.98317 0.36628 0.0
C1862 C 0.63191 0.96302 0.37617 0.0
C1863 C 0.65101 0.95642 0.38702 0.0
C1864 C 0.66916 0.96984 0.38785 0.0
C1865 C 0.66822 0.98999 0.37804 0.0
H1866 H 0.6518 0.94092 0.39482 0.0
H1867 H 0.64735 0.14068 0.30882 0.0
H1868 H 0.05469 0.68679 0.28831 0.0
H1869 H 0.05993 0.66431 0.32087 0.0
H1870 H 0.00935 0.69944 0.355 0.0
H1871 H 0.00358 0.72166 0.32232 0.0
H1872 H 0.0457 0.68805 0.38239 0.0
H1873 H 0.99496 0.65647 0.33128 0.0
H1874 H 0.98279 0.64356 0.29485 0.0
H1875 H 0.03571 0.59814 0.29374 0.0
H1876 H 0.04844 0.61107 0.33004 0.0
H1877 H 0.99701 0.61446 0.45526 0.0
H1878 H 0.00838 0.64102 0.42833 0.0
H1879 H 0.05465 0.59607 0.40076 0.0
H1880 H 0.04301 0.56924 0.42769 0.0
H1881 H 0.0264 0.61211 0.3701 0.0
H1882 H 0.07295 0.64077 0.42563 0.0
H1883 H 0.08273 0.65378 0.46273 0.0
H1884 H 0.03555 0.70453 0.45675 0.0
H1885 H 0.02521 0.69164 0.41973 0.0
C1886 C 0.04475 0.68982 0.30278 0.0
C1887 C 0.02853 0.70585 0.30261 0.0
C1888 C 0.0479 0.67707 0.32141 0.0
C1889 C 0.03492 0.68015 0.34024 0.0
C1890 C 0.01961 0.69691 0.34064 0.0
C1891 C 0.01635 0.7096 0.32195 0.0
C1892 C 0.03573 0.66454 0.35854 0.0
C1893 C 0.04145 0.67145 0.3798 0.0
C1894 C 0.03051 0.64284 0.35497 0.0
C1895 C 0.02283 0.63494 0.33322 0.0
C1896 C 0.00413 0.64388 0.32317 0.0
C1897 C 0.99711 0.63654 0.30256 0.0
C1898 C 0.00852 0.6201 0.29195 0.0
C1899 C 0.02693 0.61092 0.30196 0.0
C1900 C 0.03406 0.61825 0.32254 0.0
C1901 C 0.00998 0.61038 0.44379 0.0
C1902 C 0.01917 0.58976 0.44354 0.0
C1903 C 0.01657 0.62563 0.4285 0.0
C1904 C 0.03246 0.62058 0.41262 0.0
C1905 C 0.04246 0.60033 0.41299 0.0
C1906 C 0.03595 0.58506 0.42847 0.0
C1907 C 0.03635 0.63553 0.39412 0.0
C1908 C 0.03124 0.62856 0.37273 0.0
C1909 C 0.0419 0.65717 0.3977 0.0
C1910 C 0.04823 0.66516 0.41989 0.0
C1911 C 0.06455 0.65463 0.43226 0.0
C1912 C 0.07021 0.66199 0.45329 0.0
C1913 C 0.05976 0.67996 0.4621 0.0
C1914 C 0.04364 0.69062 0.44989 0.0
C1915 C 0.0379 0.68331 0.42886 0.0
H1916 H 0.06417 0.68563 0.47838 0.0
H1917 H 0.00305 0.61442 0.276 0.0
H1918 H 0.28134 0.00817 0.29956 0.0
H1919 H 0.29633 0.00871 0.3368 0.0
H1920 H 0.36127 0.99871 0.31048 0.0
H1921 H 0.34627 0.99519 0.27387 0.0
H1922 H 0.35895 0.97606 0.34289 0.0
H1923 H 0.33818 0.04982 0.33127 0.0
H1924 H 0.31299 0.0798 0.32337 0.0
H1925 H 0.27357 0.06271 0.3792 0.0
H1926 H 0.29843 0.03249 0.38729 0.0
H1927 H 0.41076 0.04602 0.4311 0.0
H1928 H 0.38236 0.04235 0.4033 0.0
H1929 H 0.37383 0.97632 0.42154 0.0
H1930 H 0.40333 0.9796 0.4487 0.0
H1931 H 0.34268 0.03358 0.39675 0.0
H1932 H 0.36587 0.94633 0.37783 0.0
H1933 H 0.39721 0.9215 0.38168 0.0
H1934 H 0.44179 0.97425 0.37983 0.0
H1935 H 0.41071 0.99933 0.37589 0.0
C1936 C 0.29877 0.00568 0.30165 0.0
C1937 C 0.31247 0.00162 0.28337 0.0
C1938 C 0.3074 0.00641 0.32305 0.0
C1939 C 0.33003 0.00398 0.3266 0.0
C1940 C 0.34373 1.00052 0.30835 0.0
C1941 C 0.33508 0.99897 0.28715 0.0
C1942 C 0.33975 0.00445 0.34915 0.0
C1943 C 0.35526 0.98867 0.35463 0.0
C1944 C 0.33504 0.02076 0.36468 0.0
C1945 C 0.31998 0.03875 0.3597 0.0
C1946 C 0.32403 0.05236 0.34174 0.0
C1947 C 0.30985 0.06941 0.33725 0.0
C1948 C 0.29165 0.07311 0.35072 0.0
C1949 C 0.28764 0.05979 0.36875 0.0
C1950 C 0.30177 0.04271 0.37329 0.0
C1951 C 0.40255 0.03081 0.42958 0.0
C1952 C 0.40963 0.01296 0.44176 0.0
C1953 C 0.3862 0.02874 0.41366 0.0
C1954 C 0.37634 0.00889 0.40984 0.0
C1955 C 0.38168 0.99163 0.4237 0.0
C1956 C 0.39844 0.99355 0.43931 0.0
C1957 C 0.36262 0.00591 0.38981 0.0
C1958 C 0.34611 0.02092 0.38501 0.0
C1959 C 0.36727 0.98962 0.37427 0.0
C1960 C 0.38599 0.97467 0.37687 0.0
C1961 C 0.38237 0.95259 0.37827 0.0
C1962 C 0.40008 0.93849 0.38047 0.0
C1963 C 0.42148 0.9463 0.38108 0.0
C1964 C 0.42521 0.96823 0.37946 0.0
C1965 C 0.40757 0.98239 0.37729 0.0
H1966 H 0.43516 0.93536 0.38275 0.0
H1967 H 0.2807 0.08632 0.34724 0.0
H1968 H 0.04885 0.21579 0.29709 0.0
H1969 H 0.05064 0.18275 0.3187 0.0
H1970 H 0.02186 0.21531 0.37429 0.0
H1971 H 0.01865 0.24784 0.35266 0.0
H1972 H 0.06093 0.1899 0.38411 0.0
H1973 H 0.99017 0.18662 0.34838 0.0
H1974 H 0.9649 0.18646 0.31661 0.0
H1975 H 0.99759 0.1312 0.29029 0.0
H1976 H 0.02331 0.13124 0.32179 0.0
H1977 H 0.99736 0.11681 0.44962 0.0
H1978 H 0.00911 0.14482 0.42415 0.0
H1979 H 0.05341 0.10049 0.3927 0.0
H1980 H 0.04235 0.0725 0.41893 0.0
H1981 H 0.01328 0.12812 0.36716 0.0
H1982 H 0.08137 0.12922 0.40704 0.0
H1983 H 0.10492 0.13007 0.44009 0.0
H1984 H 0.07621 0.1899 0.45948 0.0
H1985 H 0.05215 0.18921 0.42672 0.0
C1986 C 0.04264 0.21591 0.31381 0.0
C1987 C 0.03377 0.2347 0.32308 0.0
C1988 C 0.04387 0.19704 0.32618 0.0
C1989 C 0.03656 0.19669 0.34813 0.0
C1990 C 0.02787 0.21534 0.35747 0.0
C1991 C 0.02621 0.23402 0.34505 0.0
C1992 C 0.03733 0.17686 0.36144 0.0
C1993 C 0.05063 0.17632 0.38035 0.0
C1994 C 0.02414 0.15905 0.3563 0.0
C1995 C 0.00889 0.15915 0.33723 0.0
C1996 C 0.99217 0.17461 0.33567 0.0
C1997 C 0.97771 0.1745 0.31775 0.0
C1998 C 0.9797 0.15889 0.30139 0.0
C1999 C 0.99612 0.14332 0.30294 0.0
C2000 C 0.01064 0.14339 0.32082 0.0
C2001 C 0.00997 0.11318 0.43759 0.0
C2002 C 0.01906 0.09259 0.43626 0.0
C2003 C 0.01664 0.12915 0.42308 0.0
C2004 C 0.03213 0.12469 0.40664 0.0
C2005 C 0.04157 0.10423 0.40545 0.0
C2006 C 0.03534 0.08834 0.42045 0.0
C2007 C 0.0368 0.14121 0.38988 0.0
C2008 C 0.02421 0.14134 0.37049 0.0
C2009 C 0.05058 0.15866 0.39463 0.0
C2010 C 0.0647 0.15899 0.41458 0.0
C2011 C 0.0798 0.14238 0.41853 0.0
C2012 C 0.09331 0.14287 0.43718 0.0
C2013 C 0.09196 0.15997 0.45194 0.0
C2014 C 0.07716 0.17663 0.44806 0.0
C2015 C 0.06359 0.1762 0.42945 0.0
H2016 H 0.10243 0.16036 0.46635 0.0
H2017 H 0.96847 0.1588 0.28755 0.0
H2018 H 0.79997 0.06406 0.29772 0.0
H2019 H 0.81741 0.05851 0.33369 0.0
H2020 H 0.86648 0.01847 0.30322 0.0
H2021 H 0.84913 0.0241 0.26703 0.0
H2022 H 0.84603 0.00171 0.34365 0.0
H2023 H 0.88118 0.06531 0.31507 0.0
H2024 H 0.88139 0.10176 0.29977 0.0
H2025 H 0.84753 0.12505 0.35709 0.0
H2026 H 0.84685 0.08865 0.37258 0.0
H2027 H 0.93148 0.99419 0.41982 0.0
H2028 H 0.90513 0.99729 0.39018 0.0
H2029 H 0.87636 0.05258 0.42178 0.0
H2030 H 0.90448 0.05062 0.45071 0.0
H2031 H 0.88156 0.06188 0.38277 0.0
H2032 H 0.84938 0.99981 0.41406 0.0
H2033 H 0.84849 0.96368 0.43015 0.0
H2034 H 0.87393 0.93739 0.36989 0.0
H2035 H 0.87526 0.97336 0.35353 0.0
C2036 C 0.81446 0.05404 0.29872 0.0
C2037 C 0.82324 0.04448 0.27966 0.0
C2038 C 0.82439 0.05092 0.31922 0.0
C2039 C 0.84316 0.03807 0.32103 0.0
C2040 C 0.85193 0.02839 0.30208 0.0
C2041 C 0.84216 0.03174 0.28147 0.0
C2042 C 0.85386 0.0351 0.3427 0.0
C2043 C 0.85397 0.01475 0.35226 0.0
C2044 C 0.86332 0.05237 0.35418 0.0
C2045 C 0.86373 0.07423 0.34484 0.0
C2046 C 0.87358 0.07817 0.3243 0.0
C2047 C 0.87383 0.09883 0.31562 0.0
C2048 C 0.86441 0.1157 0.32741 0.0
C2049 C 0.85478 0.11196 0.34795 0.0
C2050 C 0.85447 0.09132 0.35669 0.0
C2051 C 0.91919 0.00671 0.4208 0.0
C2052 C 0.91996 0.02215 0.43758 0.0
C2053 C 0.9039 0.00836 0.40384 0.0
C2054 C 0.8883 0.02492 0.40378 0.0
C2055 C 0.8882 0.03965 0.42137 0.0
C2056 C 0.90414 0.03847 0.43797 0.0
C2057 C 0.87413 0.02824 0.38404 0.0
C2058 C 0.87333 0.04873 0.37465 0.0
C2059 C 0.86369 0.0111 0.37295 0.0
C2060 C 0.86248 0.98934 0.38259 0.0
C2061 C 0.85485 0.98634 0.40426 0.0
C2062 C 0.85428 0.96588 0.41343 0.0
C2063 C 0.86117 0.94826 0.40106 0.0
C2064 C 0.86858 0.95105 0.37945 0.0
C2065 C 0.86919 0.97147 0.37021 0.0
H2066 H 0.86075 0.93244 0.4082 0.0
H2067 H 0.86463 0.13169 0.32067 0.0
H2068 H 0.97549 0.82655 0.31059 0.0
H2069 H 0.98249 0.85069 0.34132 0.0
H2070 H 0.0521 0.8442 0.3308 0.0
H2071 H 0.04505 0.81931 0.30009 0.0
H2072 H 0.04302 0.84715 0.3748 0.0
H2073 H 0.0263 0.88753 0.31122 0.0
H2074 H 0.0066 0.89844 0.2775 0.0
H2075 H 0.94896 0.91195 0.31568 0.0
H2076 H 0.96821 0.90079 0.34961 0.0
H2077 H 0.04777 0.95487 0.42877 0.0
H2078 H 0.05359 0.92449 0.4038 0.0
H2079 H 0.98816 0.9026 0.4171 0.0
H2080 H 0.98234 0.93233 0.44246 0.0
H2081 H 0.0021 0.91565 0.37018 0.0
H2082 H 0.02277 0.87352 0.43479 0.0
H2083 H 0.04622 0.86506 0.46676 0.0
H2084 H 0.10197 0.85871 0.4241 0.0
H2085 H 0.07888 0.86753 0.39186 0.0
C2086 C 0.99231 0.83018 0.31487 0.0
C2087 C 0.00972 0.82139 0.30273 0.0
C2088 C 0.9963 0.84397 0.33245 0.0
C2089 C 0.01781 0.84969 0.33806 0.0
C2090 C 0.03537 0.84013 0.32668 0.0
C2091 C 0.03135 0.82599 0.30914 0.0
C2092 C 0.02141 0.86658 0.35493 0.0
C2093 C 0.03435 0.86226 0.37366 0.0
C2094 C 0.01041 0.88649 0.35333 0.0
C2095 C -0.00133 0.89316 0.33295 0.0
C2096 C 0.00937 0.89266 0.31241 0.0
C2097 C -0.00171 0.89891 0.29326 0.0
C2098 C 0.97653 0.90585 0.29444 0.0
C2099 C 0.96581 0.90656 0.31479 0.0
C2100 C 0.97681 0.90029 0.33399 0.0
C2101 C 0.03483 0.94325 0.42683 0.0
C2102 C 0.01449 0.94616 0.4374 0.0
C2103 C 0.03825 0.92588 0.41265 0.0
C2104 C 0.02133 0.9113 0.40877 0.0
C2105 C 0.00148 0.91355 0.42016 0.0
C2106 C -0.00183 0.93064 0.43457 0.0
C2107 C 0.02275 0.89579 0.39041 0.0
C2108 C 0.01089 0.90058 0.37124 0.0
C2109 C 0.03527 0.87675 0.39146 0.0
C2110 C 0.0491 0.87148 0.41091 0.0
C2111 C 0.04006 0.8706 0.43222 0.0
C2112 C 0.05329 0.86567 0.4504 0.0
C2113 C 0.0756 0.86143 0.44748 0.0
C2114 C 0.0847 0.86206 0.42635 0.0
C2115 C 0.07153 0.86701 0.40812 0.0
H2116 H 0.08582 0.8576 0.46156 0.0
H2117 H 0.96799 0.91071 0.27959 0.0
H2118 H 0.16905 0.97896 0.24435 0.0
H2119 H 0.14319 0.98676 0.27406 0.0
H2120 H 0.19708 0.99564 0.31928 0.0
H2121 H 0.22276 0.98612 0.29041 0.0
H2122 H 0.16882 0.97473 0.33926 0.0
H2123 H 0.16596 0.03844 0.29668 0.0
H2124 H 0.16144 0.06138 0.26392 0.0
H2125 H 0.09508 0.04013 0.25648 0.0
H2126 H 0.09931 0.01684 0.28905 0.0
H2127 H 0.09059 0.0475 0.40484 0.0
H2128 H 0.11421 0.04183 0.37276 0.0
H2129 H 0.09762 0.975 0.37252 0.0
H2130 H 0.07447 0.98036 0.4049 0.0
H2131 H 0.10764 0.0266 0.33095 0.0
H2132 H 0.13348 0.94927 0.36876 0.0
H2133 H 0.14206 0.93372 0.40529 0.0
H2134 H 0.17038 0.99307 0.42597 0.0
H2135 H 0.16153 0.00901 0.38973 0.0
C2136 C 0.17539 0.98235 0.26066 0.0
C2137 C 0.19807 0.98206 0.26483 0.0
C2138 C 0.16058 0.98711 0.27759 0.0
C2139 C 0.16817 0.99209 0.29888 0.0
C2140 C 0.19077 0.99189 0.30301 0.0
C2141 C 0.20551 0.98674 0.2863 0.0
C2142 C 0.1527 0.99687 0.31712 0.0
C2143 C 0.15546 0.98605 0.33726 0.0
C2144 C 0.13552 0.01205 0.31497 0.0
C2145 C 0.13304 0.0257 0.29513 0.0
C2146 C 0.15048 0.03849 0.28791 0.0
C2147 C 0.14795 0.05159 0.26942 0.0
C2148 C 0.12801 0.05216 0.25808 0.0
C2149 C 0.11054 0.03964 0.26525 0.0
C2150 C 0.11299 0.02649 0.28373 0.0
C2151 C 0.09174 0.03165 0.39777 0.0
C2152 C 0.08085 0.01432 0.40749 0.0
C2153 C 0.10527 0.02845 0.3795 0.0
C2154 C 0.10798 0.00793 0.37063 0.0
C2155 C 0.09617 0.99085 0.37953 0.0
C2156 C 0.08284 0.99397 0.39792 0.0
C2157 C 0.12368 0.00417 0.35252 0.0
C2158 C 0.12096 0.01518 0.33258 0.0
C2159 C 0.14147 0.98992 0.35507 0.0
C2160 C 0.1468 0.98028 0.37669 0.0
C2161 C 0.14155 0.95894 0.38114 0.0
C2162 C 0.14636 0.9501 0.4018 0.0
C2163 C 0.15674 0.9624 0.41795 0.0
C2164 C 0.16226 0.98358 0.4135 0.0
C2165 C 0.15724 0.99255 0.39296 0.0
H2166 H 0.16051 0.95552 0.4339 0.0
H2167 H 0.12607 0.06234 0.24379 0.0
H2168 H 0.96698 0.79864 0.67411 0.0
H2169 H 0.97079 0.82973 0.65015 0.0
H2170 H 0.02453 0.85208 0.69011 0.0
H2171 H 0.02074 0.82092 0.71426 0.0
H2172 H 0.99796 0.88496 0.67708 0.0
H2173 H 0.03411 0.82515 0.64242 0.0
H2174 H 0.03751 0.7889 0.62686 0.0
H2175 H 0.98609 0.80277 0.58051 0.0
H2176 H 0.98218 0.83901 0.596 0.0
H2177 H 0.05226 0.9508 0.59998 0.0
H2178 H 0.04109 0.92382 0.62652 0.0
H2179 H 0.98892 0.90432 0.58297 0.0
H2180 H 0.00021 0.93125 0.55603 0.0
H2181 H 0.01209 0.87071 0.59778 0.0
H2182 H 0.97751 0.93133 0.63052 0.0
H2183 H 0.9751 0.9681 0.64488 0.0
H2184 H 0.02356 0.95331 0.69406 0.0
H2185 H 0.02648 0.91652 0.67982 0.0
C2186 C 0.97958 0.81021 0.67784 0.0
C2187 C 0.99374 0.8072 0.69592 0.0
C2188 C 0.98172 0.82798 0.66415 0.0
C2189 C -0.0018 0.84303 0.6681 0.0
C2190 C 0.01173 0.84063 0.68672 0.0
C2191 C 0.00953 0.82285 0.70052 0.0
C2192 C 0.00192 0.86068 0.6522 0.0
C2193 C 0.00126 0.88186 0.65978 0.0
C2194 C 0.00567 0.85667 0.6295 0.0
C2195 C 0.00771 0.83472 0.62051 0.0
C2196 C 0.02337 0.82039 0.62906 0.0
C2197 C 0.02543 0.79987 0.62022 0.0
C2198 C 0.01202 0.79354 0.60271 0.0
C2199 C 0.99646 0.80769 0.59407 0.0
C2200 C 0.99433 0.82822 0.60287 0.0
C2201 C 0.0383 0.9409 0.59604 0.0
C2202 C 0.02716 0.94316 0.57581 0.0
C2203 C 0.03184 0.92556 0.61135 0.0
C2204 C 0.01401 0.91221 0.60688 0.0
C2205 C 0.00269 0.91452 0.58679 0.0
C2206 C 0.00915 0.92991 0.57142 0.0
C2207 C 0.00817 0.89501 0.62261 0.0
C2208 C 0.00854 0.87387 0.61502 0.0
C2209 C 0.00414 0.8991 0.64525 0.0
C2210 C 0.00233 0.92119 0.65399 0.0
C2211 C 0.98777 0.93595 0.6443 0.0
C2212 C 0.98629 0.9568 0.65244 0.0
C2213 C -0.0008 0.96305 0.67034 0.0
C2214 C 0.01357 0.94845 0.68019 0.0
C2215 C 0.01512 0.92758 0.67211 0.0
H2216 H -0.00196 0.97919 0.67661 0.0
H2217 H 0.01373 0.77771 0.59575 0.0
H2218 H 0.23823 0.03248 0.72566 0.0
H2219 H 0.2203 0.03217 0.68985 0.0
H2220 H 0.161 0.00899 0.71998 0.0
H2221 H 0.17936 0.00816 0.75601 0.0
H2222 H 0.16856 0.98826 0.68313 0.0
H2223 H 0.16615 0.06109 0.70415 0.0
H2224 H 0.17989 0.09579 0.71721 0.0
H2225 H 0.22186 0.10006 0.66059 0.0
H2226 H 0.20859 0.06519 0.64734 0.0
H2227 H 0.09216 0.01494 0.60244 0.0
H2228 H 0.11459 0.01557 0.63565 0.0
H2229 H 0.1719 0.02849 0.59626 0.0
H2230 H 0.1489 0.02838 0.56253 0.0
H2231 H 0.16828 0.05284 0.63572 0.0
H2232 H 0.15939 0.97966 0.61286 0.0
H2233 H 0.1359 0.94969 0.60165 0.0
H2234 H 0.10694 0.94824 0.66604 0.0
H2235 H 0.12881 0.97933 0.67718 0.0
C2236 C 0.22145 0.02703 0.7247 0.0
C2237 C 0.21027 0.02011 0.74368 0.0
C2238 C 0.21114 0.02713 0.70421 0.0
C2239 C 0.18927 0.02076 0.70226 0.0
C2240 C 0.17793 0.01397 0.72115 0.0
C2241 C 0.18834 0.01368 0.74173 0.0
C2242 C 0.17837 0.0211 0.68042 0.0
C2243 C 0.16832 0.00241 0.67282 0.0
C2244 C 0.17836 0.03953 0.6669 0.0
C2245 C 0.1866 0.06039 0.67491 0.0
C2246 C 0.17849 0.06931 0.6946 0.0
C2247 C 0.18615 0.08904 0.70201 0.0
C2248 C 0.2018 0.10009 0.68978 0.0
C2249 C 0.20978 0.09145 0.67008 0.0
C2250 C 0.20219 0.07171 0.6626 0.0
C2251 C 0.10957 0.01795 0.60089 0.0
C2252 C 0.11906 0.02134 0.58015 0.0
C2253 C 0.12232 0.01829 0.61981 0.0
C2254 C 0.14492 0.02152 0.6183 0.0
C2255 C 0.15446 0.02571 0.59762 0.0
C2256 C 0.14148 0.02564 0.57849 0.0
C2257 C 0.15826 0.02012 0.63858 0.0
C2258 C 0.16884 0.03859 0.64588 0.0
C2259 C 0.1579 0.00171 0.6522 0.0
C2260 C 0.14577 0.98203 0.64585 0.0
C2261 C 0.14794 0.97309 0.62464 0.0
C2262 C 0.13486 0.9559 0.61826 0.0
C2263 C 0.12018 0.94689 0.63319 0.0
C2264 C 0.11838 0.95519 0.6545 0.0
C2265 C 0.13099 0.97273 0.6608 0.0
H2266 H 0.11014 0.93354 0.62821 0.0
H2267 H 0.20769 0.11537 0.69553 0.0
H2268 H 0.96558 0.19064 0.71957 0.0
H2269 H 0.96876 0.16731 0.68748 0.0
H2270 H 0.03537 0.18785 0.67786 0.0
H2271 H 0.03239 0.21118 0.71022 0.0
H2272 H 0.01297 0.18632 0.63909 0.0
H2273 H 0.02459 0.14001 0.70111 0.0
H2274 H 0.01601 0.12311 0.73676 0.0
H2275 H 0.95696 0.09718 0.70932 0.0
H2276 H 0.96503 0.1142 0.67357 0.0
H2277 H 0.05845 0.10369 0.57609 0.0
H2278 H 0.04745 0.12999 0.60327 0.0
H2279 H 0.98252 0.10324 0.60498 0.0
H2280 H 0.99358 0.07648 0.57745 0.0
H2281 H -0.00031 0.10856 0.6462 0.0
H2282 H 0.99071 0.15235 0.58256 0.0
H2283 H 0.00103 0.16823 0.54687 0.0
H2284 H 0.05658 0.19812 0.57722 0.0
H2285 H 0.04677 0.18219 0.61305 0.0
C2286 C 0.98101 0.19006 0.7108 0.0
C2287 C -0.00118 0.20262 0.71765 0.0
C2288 C 0.98276 0.17676 0.69238 0.0
C2289 C 0.00238 0.17563 0.68042 0.0
C2290 C 0.02007 0.18847 0.68687 0.0
C2291 C 0.01833 0.20182 0.70534 0.0
C2292 C 0.00445 0.16089 0.6613 0.0
C2293 C 0.01025 0.16929 0.64067 0.0
C2294 C 0.00025 0.13875 0.66322 0.0
C2295 C 0.99527 0.12862 0.68475 0.0
C2296 C 0.00966 0.13089 0.70274 0.0
C2297 C 0.00491 0.12125 0.72296 0.0
C2298 C 0.98591 0.10914 0.72533 0.0
C2299 C 0.97164 0.10661 0.70748 0.0
C2300 C 0.9763 0.11625 0.68723 0.0
C2301 C 0.04171 0.10341 0.58198 0.0
C2302 C 0.02695 0.08769 0.57473 0.0
C2303 C 0.03541 0.11864 0.59748 0.0
C2304 C 0.01412 0.11874 0.60607 0.0
C2305 C -0.00095 0.10347 0.59852 0.0
C2306 C 0.00537 0.08816 0.5828 0.0
C2307 C 0.00846 0.13394 0.62403 0.0
C2308 C 0.00204 0.12563 0.6445 0.0
C2309 C 0.01221 0.15614 0.62198 0.0
C2310 C 0.01805 0.16597 0.6005 0.0
C2311 C 0.0052 0.16221 0.58161 0.0
C2312 C 0.01095 0.17124 0.56135 0.0
C2313 C 0.02946 0.18415 0.55977 0.0
C2314 C 0.04224 0.18812 0.57847 0.0
C2315 C 0.03656 0.17913 0.59877 0.0
H2316 H 0.03389 0.19111 0.54407 0.0
H2317 H 0.98228 0.10167 0.74099 0.0
H2318 H 0.80911 0.00505 0.70576 0.0
H2319 H 0.84344 0.00232 0.68545 0.0
H2320 H 0.86942 0.05534 0.72248 0.0
H2321 H 0.8346 0.05903 0.74194 0.0
H2322 H 0.87647 0.06011 0.67943 0.0
H2323 H 0.88631 0.00222 0.73174 0.0
H2324 H 0.87456 0.96934 0.75058 0.0
H2325 H 0.87152 0.93661 0.68838 0.0
H2326 H 0.88299 0.96934 0.66914 0.0
H2327 H 0.97535 0.05024 0.62038 0.0
H2328 H 0.95086 0.05173 0.65238 0.0
H2329 H 0.9199 0.9935 0.63066 0.0
H2330 H 0.94535 0.99109 0.60004 0.0
H2331 H 0.91896 0.99288 0.67129 0.0
H2332 H 0.89989 0.04806 0.6182 0.0
H2333 H 0.90732 0.07977 0.59531 0.0
H2334 H 0.92301 0.11585 0.65346 0.0
H2335 H 0.91578 0.08429 0.67667 0.0
C2336 C 0.82211 0.01615 0.70959 0.0
C2337 C 0.81908 0.03229 0.72546 0.0
C2338 C 0.84184 0.0144 0.69815 0.0
C2339 C 0.85911 0.02843 0.7027 0.0
C2340 C 0.85634 0.04426 0.71883 0.0
C2341 C 0.8365 0.0462 0.73011 0.0
C2342 C 0.87961 0.02733 0.68971 0.0
C2343 C 0.88604 0.04553 0.67798 0.0
C2344 C 0.89167 0.00813 0.68732 0.0
C2345 C 0.88547 0.98826 0.69901 0.0
C2346 C 0.8831 0.98802 0.72209 0.0
C2347 C 0.87647 0.96941 0.73283 0.0
C2348 C 0.87228 0.9509 0.72069 0.0
C2349 C 0.8748 0.95094 0.69777 0.0
C2350 C 0.88141 0.9695 0.68695 0.0
C2351 C 0.9636 0.03756 0.62283 0.0
C2352 C 0.96212 0.02062 0.60773 0.0
C2353 C 0.94948 0.03851 0.64096 0.0
C2354 C 0.93303 0.02308 0.64362 0.0
C2355 C 0.93237 0.00564 0.62907 0.0
C2356 C 0.94693 0.00429 0.61148 0.0
C2357 C 0.91554 0.02551 0.66045 0.0
C2358 C 0.90966 0.00759 0.67299 0.0
C2359 C 0.90349 0.04476 0.663 0.0
C2360 C 0.9075 0.0638 0.64912 0.0
C2361 C 0.90498 0.06276 0.62607 0.0
C2362 C 0.90915 0.08069 0.61305 0.0
C2363 C 0.91569 0.09979 0.62292 0.0
C2364 C 0.91797 0.10103 0.64584 0.0
C2365 C 0.9138 0.08315 0.65894 0.0
H2366 H 0.91895 0.11364 0.61281 0.0
H2367 H 0.8671 0.93653 0.72903 0.0
H2368 H 0.35266 0.9876 0.22175 0.0
H2369 H 0.37929 0.9897 0.19198 0.0
H2370 H 0.32873 0.01093 0.14729 0.0
H2371 H 0.30187 0.01001 0.1774 0.0
H2372 H 0.36722 0.97067 0.13829 0.0
H2373 H 0.35021 0.04749 0.15121 0.0
H2374 H 0.3448 0.07789 0.17657 0.0
H2375 H 0.40832 0.0666 0.20495 0.0
H2376 H 0.41392 0.03592 0.17994 0.0
H2377 H 0.42849 0.00982 0.04662 0.0
H2378 H 0.40277 0.99877 0.07509 0.0
H2379 H 0.44919 0.01684 0.12547 0.0
H2380 H 0.47476 0.02854 0.09707 0.0
H2381 H 0.41236 0.03597 0.13235 0.0
H2382 H 0.43394 0.96558 0.115 0.0
H2383 H 0.44146 0.93323 0.09316 0.0
H2384 H 0.37311 0.92766 0.07773 0.0
H2385 H 0.36526 0.96074 0.09826 0.0
C2386 C 0.34714 0.99307 0.20572 0.0
C2387 C 0.32514 0.99901 0.20209 0.0
C2388 C 0.36237 0.99396 0.18868 0.0
C2389 C 0.35586 1.00044 0.1676 0.0
C2390 C 0.3339 0.00581 0.16356 0.0
C2391 C 0.31862 0.00524 0.18075 0.0
C2392 C 0.37252 0.00251 0.15024 0.0
C2393 C 0.37689 0.98502 0.13647 0.0
C2394 C 0.38569 0.02085 0.14901 0.0
C2395 C 0.38235 0.03929 0.16394 0.0
C2396 C 0.3629 0.05136 0.16303 0.0
C2397 C 0.35983 0.06867 0.17729 0.0
C2398 C 0.37618 0.07413 0.19242 0.0
C2399 C 0.39565 0.06233 0.19327 0.0
C2400 C 0.39879 0.04499 0.17905 0.0
C2401 C 0.4334 0.01109 0.06375 0.0
C2402 C 0.45344 0.02049 0.06966 0.0
C2403 C 0.41871 0.00462 0.08002 0.0
C2404 C 0.42399 0.00714 0.10241 0.0
C2405 C 0.44471 0.01498 0.10827 0.0
C2406 C 0.45931 0.02163 0.09204 0.0
C2407 C 0.40703 0.00422 0.11955 0.0
C2408 C 0.40269 0.02154 0.13364 0.0
C2409 C 0.3942 0.98549 0.12117 0.0
C2410 C 0.39903 0.96596 0.10799 0.0
C2411 C 0.42053 0.9578 0.10653 0.0
C2412 C 0.42488 0.93931 0.09433 0.0
C2413 C 0.40781 0.92851 0.08387 0.0
C2414 C 0.38636 0.93619 0.08561 0.0
C2415 C 0.38197 0.9549 0.09741 0.0
H2416 H 0.41117 0.91413 0.07453 0.0
H2417 H 0.37378 0.08754 0.20344 0.0
H2418 H 0.98511 0.30391 0.18228 0.0
H2419 H 0.99018 0.33362 0.15691 0.0
H2420 H 0.05131 0.34896 0.18852 0.0
H2421 H 0.0473 0.3183 0.21318 0.0
H2422 H 0.00905 0.38328 0.17957 0.0
H2423 H 0.0646 0.33363 0.14897 0.0
H2424 H 0.07569 0.29871 0.13373 0.0
H2425 H 0.02626 0.30416 0.08351 0.0
H2426 H 0.01465 0.33898 0.09872 0.0
H2427 H 0.05752 0.46462 0.11832 0.0
H2428 H 0.04989 0.43295 0.1401 0.0
H2429 H 0.01435 0.40574 0.08539 0.0
H2430 H 0.02219 0.43756 0.06318 0.0
H2431 H 0.04027 0.37625 0.10429 0.0
H2432 H 0.98645 0.42465 0.12882 0.0
H2433 H 0.97057 0.45863 0.14187 0.0
H2434 H 0.00933 0.45481 0.20094 0.0
H2435 H 0.02571 0.42093 0.18809 0.0
C2436 C -5e-05 0.31318 0.18364 0.0
C2437 C 0.0159 0.30837 0.19982 0.0
C2438 C 0.00267 0.33032 0.16918 0.0
C2439 C 0.02116 0.34332 0.17079 0.0
C2440 C 0.03695 0.33898 0.18703 0.0
C2441 C 0.0345 0.32153 0.20125 0.0
C2442 C 0.02353 0.36187 0.15591 0.0
C2443 C 0.01619 0.38188 0.16324 0.0
C2444 C 0.03165 0.35969 0.13418 0.0
C2445 C 0.03854 0.33872 0.1252 0.0
C2446 C 0.05589 0.32724 0.13488 0.0
C2447 C 0.06233 0.3075 0.12619 0.0
C2448 C 0.05163 0.29917 0.10772 0.0
C2449 C 0.0345 0.3106 0.09786 0.0
C2450 C 0.02799 0.33033 0.10651 0.0
C2451 C 0.04797 0.45201 0.11087 0.0
C2452 C 0.04032 0.45372 0.08903 0.0
C2453 C 0.04357 0.43389 0.1234 0.0
C2454 C 0.03127 0.41709 0.11452 0.0
C2455 C 0.0238 0.41856 0.09262 0.0
C2456 C 0.02823 0.43677 0.07998 0.0
C2457 C 0.02661 0.398 0.12825 0.0
C2458 C 0.03322 0.3778 0.12064 0.0
C2459 C 0.0172 0.39991 0.14953 0.0
C2460 C 0.00746 0.42032 0.15739 0.0
C2461 C 0.99174 0.43114 0.14451 0.0
C2462 C 0.98262 0.45037 0.15188 0.0
C2463 C 0.98897 0.4589 0.1722 0.0
C2464 C 0.00444 0.44819 0.18519 0.0
C2465 C 0.01363 0.42895 0.17789 0.0
H2466 H 0.98188 0.47378 0.17789 0.0
H2467 H 0.05665 0.28391 0.101 0.0
H2468 H 0.72451 0.05381 0.17558 0.0
H2469 H 0.69809 0.05107 0.14531 0.0
H2470 H 0.66083 0.00542 0.1829 0.0
H2471 H 0.6879 0.00705 0.21243 0.0
H2472 H 0.6557 0.99629 0.14271 0.0
H2473 H 0.64897 0.05967 0.18411 0.0
H2474 H 0.6605 0.09298 0.20227 0.0
H2475 H 0.67606 0.12022 0.13925 0.0
H2476 H 0.66496 0.0869 0.1207 0.0
H2477 H 0.55507 0.01959 0.08804 0.0
H2478 H 0.58109 0.02389 0.11842 0.0
H2479 H 0.63055 0.04438 0.07251 0.0
H2480 H 0.60493 0.03964 0.04194 0.0
H2481 H 0.62671 0.06679 0.11868 0.0
H2482 H 0.63906 0.99409 0.08231 0.0
H2483 H 0.62255 0.96081 0.0684 0.0
H2484 H 0.58723 0.95349 0.12907 0.0
H2485 H 0.60416 0.98639 0.14365 0.0
C2486 C 0.71115 0.04259 0.17699 0.0
C2487 C 0.70796 0.03101 0.19653 0.0
C2488 C 0.69586 0.04127 0.15985 0.0
C2489 C 0.67701 0.02868 0.16222 0.0
C2490 C 0.67503 0.01551 0.1808 0.0
C2491 C 0.69046 0.01655 0.19773 0.0
C2492 C 0.65858 0.03046 0.1463 0.0
C2493 C 0.64936 0.01174 0.13767 0.0
C2494 C 0.64974 0.05056 0.14003 0.0
C2495 C 0.65637 0.0707 0.15103 0.0
C2496 C 0.65501 0.0727 0.17413 0.0
C2497 C 0.66145 0.09159 0.18449 0.0
C2498 C 0.66907 0.10869 0.17193 0.0
C2499 C 0.6702 0.10694 0.14896 0.0
C2500 C 0.66384 0.08806 0.13851 0.0
C2501 C 0.57128 0.02559 0.08443 0.0
C2502 C 0.57798 0.02916 0.06253 0.0
C2503 C 0.58611 0.02798 0.10182 0.0
C2504 C 0.60769 0.03426 0.09756 0.0
C2505 C 0.6139 0.03954 0.07602 0.0
C2506 C 0.5992 0.03688 0.0586 0.0
C2507 C 0.62453 0.03275 0.11495 0.0
C2508 C 0.63327 0.05146 0.12387 0.0
C2509 C 0.63224 0.01272 0.12232 0.0
C2510 C 0.62278 0.9926 0.11398 0.0
C2511 C 0.62784 0.98529 0.09268 0.0
C2512 C 0.61839 0.96654 0.08469 0.0
C2513 C 0.60364 0.95517 0.09774 0.0
C2514 C 0.59863 0.96233 0.119 0.0
C2515 C 0.60826 0.98092 0.12719 0.0
H2516 H 0.59619 0.94077 0.09143 0.0
H2517 H 0.67403 0.12331 0.17998 0.0
H2518 H 0.02815 0.72663 0.19951 0.0
H2519 H 0.02302 0.70474 0.16631 0.0
H2520 H 0.99143 0.65639 0.20538 0.0
H2521 H 0.99608 0.67819 0.23836 0.0
H2522 H 0.02312 0.63963 0.17886 0.0
H2523 H 0.96194 0.68831 0.17138 0.0
H2524 H 0.94444 0.72378 0.16874 0.0
H2525 H 0.98222 0.73766 0.11083 0.0
H2526 H 0.00019 0.70237 0.11331 0.0
H2527 H 0.98873 0.57128 0.09451 0.0
H2528 H 0.98321 0.59758 0.12405 0.0
H2529 H 0.01769 0.64465 0.08579 0.0
H2530 H 0.02331 0.61841 0.05641 0.0
H2531 H 0.98354 0.66262 0.11126 0.0
H2532 H 0.04656 0.61754 0.11913 0.0
H2533 H 0.06681 0.58342 0.12084 0.0
H2534 H 0.02889 0.56448 0.17708 0.0
H2535 H 0.00815 0.59839 0.17547 0.0
C2536 C 0.01988 0.71146 0.20097 0.0
C2537 C 0.01276 0.7041 0.22168 0.0
C2538 C 0.01697 0.69895 0.18198 0.0
C2539 C 0.0068 0.67892 0.18335 0.0
C2540 C -0.00056 0.67172 0.20393 0.0
C2541 C 0.00225 0.68418 0.22282 0.0
C2542 C 0.0045 0.66495 0.16361 0.0
C2543 C 0.01413 0.64456 0.16425 0.0
C2544 C 0.99342 0.67161 0.14422 0.0
C2545 C 0.98256 0.69278 0.14266 0.0
C2546 C 0.96665 0.69899 0.15819 0.0
C2547 C 0.95662 0.71905 0.1567 0.0
C2548 C 0.96226 0.73299 0.13966 0.0
C2549 C 0.97789 0.72687 0.12404 0.0
C2550 C 0.98799 0.70683 0.12547 0.0
C2551 C 0.99419 0.58749 0.092 0.0
C2552 C 0.00631 0.59287 0.07317 0.0
C2553 C 0.99127 0.60245 0.10897 0.0
C2554 C 0.0003 0.623 0.10721 0.0
C2555 C 0.01058 0.62893 0.0875 0.0
C2556 C 0.01376 0.61393 0.07072 0.0
C2557 C 0.00175 0.63722 0.1268 0.0
C2558 C 0.99224 0.65766 0.12603 0.0
C2559 C 0.01325 0.63081 0.146 0.0
C2560 C 0.0256 0.61036 0.14699 0.0
C2561 C 0.04237 0.606 0.13171 0.0
C2562 C 0.05397 0.58673 0.13269 0.0
C2563 C 0.04909 0.57176 0.14901 0.0
C2564 C 0.03261 0.57607 0.16442 0.0
C2565 C 0.02093 0.59531 0.16348 0.0
H2566 H 0.05811 0.55686 0.14977 0.0
H2567 H 0.95447 0.74851 0.13854 0.0
H2568 H 0.31084 0.01335 0.84346 0.0
H2569 H 0.33662 0.00703 0.8736 0.0
H2570 H 0.37552 0.96642 0.83131 0.0
H2571 H 0.34919 0.97184 0.80137 0.0
H2572 H 0.37867 0.95243 0.8722 0.0
H2573 H 0.38859 0.01715 0.83568 0.0
H2574 H 0.38031 0.05192 0.81854 0.0
H2575 H 0.36175 0.07738 0.88165 0.0
H2576 H 0.36951 0.04259 0.89914 0.0
H2577 H 0.47888 0.98964 0.92937 0.0
H2578 H 0.45095 0.97699 0.90324 0.0
H2579 H 0.40013 1.00024 0.94659 0.0
H2580 H 0.42795 0.01271 0.97265 0.0
H2581 H 0.40589 0.02072 0.903 0.0
H2582 H 0.39949 0.94856 0.93658 0.0
H2583 H 0.41627 0.91417 0.94749 0.0
H2584 H 0.44007 0.90484 0.88162 0.0
H2585 H 0.42327 0.93902 0.87018 0.0
C2586 C 0.32445 0.00249 0.8408 0.0
C2587 C 0.32821 0.99339 0.81996 0.0
C2588 C 0.33929 0.99905 0.85796 0.0
C2589 C 0.35826 0.98671 0.85447 0.0
C2590 C 0.36109 0.97615 0.83428 0.0
C2591 C 0.34614 0.97942 0.81715 0.0
C2592 C 0.37606 0.98678 0.87105 0.0
C2593 C 0.38463 0.96736 0.87893 0.0
C2594 C 0.38456 0.00625 0.87913 0.0
C2595 C 0.37933 0.02714 0.86868 0.0
C2596 C 0.38246 0.03006 0.84588 0.0
C2597 C 0.37792 0.0498 0.8361 0.0
C2598 C 0.37043 0.06683 0.84899 0.0
C2599 C 0.36748 0.06415 0.87168 0.0
C2600 C 0.37194 0.04442 0.88154 0.0
C2601 C 0.46172 0.99108 0.93367 0.0
C2602 C 0.45533 0.00195 0.95286 0.0
C2603 C 0.44584 0.9839 0.91881 0.0
C2604 C 0.42357 0.98772 0.92309 0.0
C2605 C 0.41726 0.99705 0.94315 0.0
C2606 C 0.43308 0.00419 0.95795 0.0
C2607 C 0.40737 0.98646 0.90512 0.0
C2608 C 0.39953 0.00581 0.89657 0.0
C2609 C 0.40058 0.96702 0.89567 0.0
C2610 C 0.41021 0.94634 0.90256 0.0
C2611 C 0.40834 0.93919 0.92445 0.0
C2612 C 0.41782 0.91975 0.93072 0.0
C2613 C 0.42931 0.90743 0.91533 0.0
C2614 C 0.43118 0.91441 0.89353 0.0
C2615 C 0.42158 0.93374 0.88711 0.0
H2616 H 0.43671 0.89244 0.92028 0.0
H2617 H 0.36699 0.08212 0.8414 0.0
H2618 H 0.98944 0.34042 0.78559 0.0
H2619 H 0.99187 0.36429 0.81729 0.0
H2620 H 0.04544 0.32689 0.84348 0.0
H2621 H 0.04278 0.30249 0.81156 0.0
H2622 H 0.01348 0.34327 0.87638 0.0
H2623 H 0.05999 0.36893 0.81833 0.0
H2624 H 0.0683 0.37708 0.77942 0.0
H2625 H 0.01538 0.42247 0.77766 0.0
H2626 H 0.00657 0.41441 0.81647 0.0
H2627 H 0.01879 0.43774 0.94565 0.0
H2628 H 0.03122 0.40757 0.92285 0.0
H2629 H 0.98923 0.42907 0.86987 0.0
H2630 H 0.97739 0.45922 0.89204 0.0
H2631 H 0.02734 0.41816 0.854 0.0
H2632 H 0.97553 0.38699 0.90678 0.0
H2633 H 0.96351 0.37813 0.94455 0.0
H2634 H 0.02349 0.34363 0.95568 0.0
H2635 H 0.03592 0.35244 0.91802 0.0
C2636 C 0.00157 0.33713 0.79823 0.0
C2637 C 0.01613 0.31986 0.79606 0.0
C2638 C 0.00293 0.35073 0.81633 0.0
C2639 C 0.01907 0.34755 0.8325 0.0
C2640 C 0.03292 0.32962 0.8311 0.0
C2641 C 0.03142 0.31577 0.81293 0.0
C2642 C 0.02214 0.36417 0.84961 0.0
C2643 C 0.01706 0.35958 0.87168 0.0
C2644 C 0.02673 0.38544 0.8434 0.0
C2645 C 0.03263 0.39105 0.82033 0.0
C2646 C 0.05013 0.38065 0.80965 0.0
C2647 C 0.05491 0.38523 0.7876 0.0
C2648 C 0.04237 0.40028 0.77607 0.0
C2649 C 0.0251 0.41085 0.78662 0.0
C2650 C 0.02025 0.40632 0.80866 0.0
C2651 C 0.01235 0.43603 0.92908 0.0
C2652 C 0.99712 0.45088 0.92062 0.0
C2653 C 0.0194 0.41876 0.91611 0.0
C2654 C 0.01108 0.41598 0.89465 0.0
C2655 C 0.99602 0.43092 0.88629 0.0
C2656 C 0.98919 0.44818 0.89905 0.0
C2657 C 0.01741 0.39754 0.88058 0.0
C2658 C 0.02444 0.40179 0.85898 0.0
C2659 C 0.01436 0.37608 0.88723 0.0
C2660 C 0.00673 0.37053 0.9097 0.0
C2661 C 0.98618 0.37759 0.91734 0.0
C2662 C 0.97929 0.37258 0.93871 0.0
C2663 C 0.99275 0.36038 0.95253 0.0
C2664 C 0.01309 0.3531 0.94497 0.0
C2665 C 0.02006 0.35808 0.92361 0.0
H2666 H 0.9874 0.35652 0.96907 0.0
H2667 H 0.04603 0.40374 0.75898 0.0
H2668 H 0.72792 0.02389 0.82732 0.0
H2669 H 0.69393 0.02012 0.84826 0.0
H2670 H 0.70395 0.08189 0.87775 0.0
H2671 H 0.73711 0.08657 0.85594 0.0
H2672 H 0.6938 0.04003 0.90657 0.0
H2673 H 0.67069 0.08559 0.84396 0.0
H2674 H 0.66717 0.09199 0.80394 0.0
H2675 H 0.63065 0.03402 0.7968 0.0
H2676 H 0.63428 0.02711 0.83674 0.0
H2677 H 0.60046 0.04695 0.96839 0.0
H2678 H 0.62892 0.0598 0.94376 0.0
H2679 H 0.60108 0.02231 0.89093 0.0
H2680 H 0.57057 0.01269 0.91482 0.0
H2681 H 0.62064 0.05192 0.87271 0.0
H2682 H 0.64214 0.00274 0.92851 0.0
H2683 H 0.64567 0.9889 0.96645 0.0
H2684 H 0.6854 0.04261 0.98418 0.0
H2685 H 0.68191 0.05689 0.94637 0.0
C2686 C 0.72279 0.03685 0.83798 0.0
C2687 C 0.73531 0.05559 0.83982 0.0
C2688 C 0.70346 0.03456 0.85004 0.0
C2689 C 0.69657 0.05079 0.86437 0.0
C2690 C 0.70916 0.06923 0.86672 0.0
C2691 C 0.72822 0.07174 0.85437 0.0
C2692 C 0.6762 0.04856 0.87707 0.0
C2693 C 0.67778 0.0429 0.89935 0.0
C2694 C 0.65543 0.0513 0.86719 0.0
C2695 C 0.65297 0.05573 0.84328 0.0
C2696 C 0.6621 0.07411 0.83382 0.0
C2697 C 0.66004 0.07785 0.81116 0.0
C2698 C 0.64875 0.06339 0.79783 0.0
C2699 C 0.63942 0.04519 0.80714 0.0
C2700 C 0.64146 0.04137 0.82979 0.0
C2701 C 0.5993 0.04326 0.9511 0.0
C2702 C 0.58277 0.02986 0.94331 0.0
C2703 C 0.61612 0.04973 0.93714 0.0
C2704 C 0.61762 0.04144 0.91563 0.0
C2705 C 0.60042 0.02891 0.90744 0.0
C2706 C 0.58305 0.02331 0.92114 0.0
C2707 C 0.63805 0.04377 0.90262 0.0
C2708 C 0.63658 0.04922 0.88017 0.0
C2709 C 0.65895 0.03976 0.91208 0.0
C2710 C 0.66163 0.03096 0.93467 0.0
C2711 C 0.6516 0.01161 0.94052 0.0
C2712 C 0.65358 0.0037 0.962 0.0
C2713 C 0.66572 0.01489 0.97773 0.0
C2714 C 0.676 0.03397 0.97198 0.0
C2715 C 0.67406 0.04196 0.95051 0.0
H2716 H 0.66719 0.00876 0.99436 0.0
H2717 H 0.64719 0.0663 0.78029 0.0
H2718 H 0.97351 0.71593 0.80982 0.0
H2719 H 0.98046 0.68577 0.83471 0.0
H2720 H 0.04159 0.71408 0.85478 0.0
H2721 H 0.0344 0.74455 0.83003 0.0
H2722 H 0.04317 0.66769 0.84751 0.0
H2723 H 0.00288 0.72074 0.88791 0.0
H2724 H 0.9732 0.74665 0.89516 0.0
H2725 H 0.92563 0.69662 0.89045 0.0
H2726 H 0.95498 0.67048 0.88286 0.0
H2727 H 0.04056 0.59389 0.9423 0.0
H2728 H 0.04665 0.62507 0.91827 0.0
H2729 H 0.98159 0.61792 0.89142 0.0
H2730 H 0.97541 0.5875 0.91526 0.0
H2731 H 0.98811 0.6575 0.90664 0.0
H2732 H 0.0273 0.60532 0.86204 0.0
H2733 H 0.05644 0.57856 0.85586 0.0
H2734 H 0.10539 0.62589 0.86888 0.0
H2735 H 0.0765 0.65286 0.87553 0.0
C2736 C 0.98857 0.71548 0.81931 0.0
C2737 C 0.0035 0.73235 0.81808 0.0
C2738 C 0.9925 0.69835 0.83352 0.0
C2739 C 0.01149 0.69777 0.84664 0.0
C2740 C 0.02689 0.71423 0.84476 0.0
C2741 C 0.02278 0.73157 0.83071 0.0
C2742 C 0.01432 0.68058 0.86321 0.0
C2743 C 0.03137 0.6656 0.86069 0.0
C2744 C -0.00111 0.67788 0.88035 0.0
C2745 C 0.98115 0.69367 0.88461 0.0
C2746 C 0.98608 0.7153 0.88819 0.0
C2747 C 0.9693 0.73002 0.89242 0.0
C2748 C 0.94753 0.7233 0.89325 0.0
C2749 C 0.94249 0.70183 0.88983 0.0
C2750 C 0.95919 0.68705 0.88556 0.0
C2751 C 0.02779 0.59884 0.93099 0.0
C2752 C 0.00742 0.58849 0.93088 0.0
C2753 C 0.03124 0.61662 0.91731 0.0
C2754 C 0.01444 0.62395 0.90324 0.0
C2755 C 0.99466 0.61277 0.90234 0.0
C2756 C 0.99117 0.59534 0.916 0.0
C2757 C 0.01627 0.64397 0.89032 0.0
C2758 C 0.00013 0.65967 0.89366 0.0
C2759 C 0.03241 0.64715 0.87394 0.0
C2760 C 0.04974 0.63104 0.86955 0.0
C2761 C 0.04427 0.60998 0.86376 0.0
C2762 C 0.06074 0.59478 0.86015 0.0
C2763 C 0.08275 0.6005 0.86205 0.0
C2764 C 0.08833 0.62147 0.86747 0.0
C2765 C 0.07192 0.63671 0.87116 0.0
H2766 H 0.09548 0.58872 0.85925 0.0
H2767 H 0.93458 0.73471 0.89658 0.0
H2768 H 0.16276 0.28733 0.02024 0.0
H2769 H 0.13836 0.31749 0.01221 0.0
H2770 H 0.19172 0.36111 0.02314 0.0
H2771 H 0.21605 0.33111 0.03166 0.0
H2772 H 0.15507 0.37305 0.04552 0.0
H2773 H 0.17327 0.35067 0.97145 0.0
H2774 H 0.17615 0.32583 0.93998 0.0
H2775 H 0.10663 0.31591 0.94161 0.0
H2776 H 0.10337 0.34048 0.97329 0.0
H2777 H 0.11599 0.4692 -0.00023 0.0
H2778 H 0.13503 0.43669 0.01081 0.0
H2779 H 0.07861 0.39944 0.99235 0.0
H2780 H 0.05969 0.432 0.98042 0.0
H2781 H 0.11363 0.38239 0.97571 0.0
H2782 H 0.09464 0.40688 0.04788 0.0
H2783 H 0.09136 0.43334 0.07787 0.0
H2784 H 0.16133 0.43975 0.07985 0.0
H2785 H 0.16503 0.41352 0.04969 0.0
C2786 C 0.1693 0.30335 0.02084 0.0
C2787 C 0.19132 0.30684 0.02662 0.0
C2788 C 0.15538 0.32055 0.01613 0.0
C2789 C 0.16324 0.34153 0.01707 0.0
C2790 C 0.18532 0.34503 0.02236 0.0
C2791 C 0.19925 0.32786 0.02701 0.0
C2792 C 0.14833 0.35994 0.01335 0.0
C2793 C 0.14613 0.37522 0.03019 0.0
C2794 C 0.13609 0.36233 0.99367 0.0
C2795 C 0.13812 0.34719 0.97494 0.0
C2796 C 0.15863 0.34299 0.96527 0.0
C2797 C 0.16032 0.32901 0.94735 0.0
C2798 C 0.1416 0.31924 0.93885 0.0
C2799 C 0.12113 0.32345 0.94824 0.0
C2800 C 0.11935 0.3374 0.96618 0.0
C2801 C 0.1075 0.45413 0.99829 0.0
C2802 C 0.08639 0.45315 0.98909 0.0
C2803 C 0.11837 0.43553 0.00478 0.0
C2804 C 0.10818 0.4156 0.00268 0.0
C2805 C 0.0868 0.41464 0.99413 0.0
C2806 C 0.076 0.43325 0.98735 0.0
C2807 C 0.12055 0.39574 0.00774 0.0
C2808 C 0.12228 0.38013 0.99119 0.0
C2809 C 0.13224 0.393 0.02775 0.0
C2810 C 0.1301 0.40832 0.04638 0.0
C2811 C 0.10933 0.41398 0.05465 0.0
C2812 C 0.10739 0.42894 0.07169 0.0
C2813 C 0.12612 0.43828 0.08069 0.0
C2814 C 0.14683 0.43252 0.07283 0.0
C2815 C 0.14886 0.41757 0.05579 0.0
H2816 H 0.12459 0.44998 0.09374 0.0
H2817 H 0.14293 0.30846 0.92495 0.0
H2818 H 0.17943 0.72964 0.9711 0.0
H2819 H 0.15582 0.69933 0.979 0.0
H2820 H 0.15858 0.71402 0.04858 0.0
H2821 H 0.18334 0.74399 0.04063 0.0
H2822 H 0.15972 0.67201 0.04292 0.0
H2823 H 0.11251 0.72722 0.01744 0.0
H2824 H 0.09994 0.75651 0.99329 0.0
H2825 H 0.09571 0.7131 0.93861 0.0
H2826 H 0.10855 0.68362 0.96231 0.0
H2827 H 0.06814 0.59255 0.03511 0.0
H2828 H 0.08862 0.62459 0.04633 0.0
H2829 H 0.11829 0.62709 0.98186 0.0
H2830 H 0.09815 0.59572 0.97067 0.0
H2831 H 0.0934 0.66477 0.99615 0.0
H2832 H 0.14796 0.61174 0.022 0.0
H2833 H 0.159 0.58264 0.04715 0.0
H2834 H 0.14641 0.62297 0.10308 0.0
H2835 H 0.13494 0.65221 0.07825 0.0
C2836 C 0.17496 0.72638 0.98806 0.0
C2837 C 0.18282 0.73922 0.00524 0.0
C2838 C 0.16141 0.70915 0.9926 0.0
C2839 C 0.15485 0.70478 0.01435 0.0
C2840 C 0.16323 0.71723 0.03167 0.0
C2841 C 0.17725 0.73432 0.02714 0.0
C2842 C 0.13914 0.68722 0.01849 0.0
C2843 C 0.14496 0.67065 0.03305 0.0
C2844 C 0.1196 0.68555 0.00598 0.0
C2845 C 0.11153 0.7032 0.99169 0.0
C2846 C 0.10897 0.72393 0.00025 0.0
C2847 C 0.10181 0.74057 0.98663 0.0
C2848 C 0.09703 0.73667 0.96443 0.0
C2849 C 0.09938 0.7161 0.95581 0.0
C2850 C 0.10656 0.6994 0.96935 0.0
C2851 C 0.07923 0.5998 0.02353 0.0
C2852 C 0.08105 0.59191 0.00187 0.0
C2853 C 0.09093 0.61804 0.02995 0.0
C2854 C 0.10466 0.62829 0.01475 0.0
C2855 C 0.10754 0.61954 0.99371 0.0
C2856 C 0.09594 0.60158 0.98736 0.0
C2857 C 0.11484 0.64915 0.01932 0.0
C2858 C 0.10782 0.66648 0.00649 0.0
C2859 C 0.13301 0.65151 0.03354 0.0
C2860 C 0.14033 0.63405 0.0483 0.0
C2861 C 0.14736 0.61434 0.03966 0.0
C2862 C 0.15373 0.59784 0.05385 0.0
C2863 C 0.15332 0.60094 0.07668 0.0
C2864 C 0.14666 0.62058 0.08539 0.0
C2865 C 0.14023 0.63712 0.07127 0.0
H2866 H 0.15822 0.58817 0.08762 0.0
H2867 H 0.09151 0.74958 0.95392 0.0
H2868 H 0.29365 0.21359 0.00381 0.0
H2869 H 0.31959 0.1835 0.00165 0.0
H2870 H 0.36078 0.2139 0.05019 0.0
H2871 H 0.33509 0.24384 0.05226 0.0
H2872 H 0.3832 0.20485 0.01381 0.0
H2873 H 0.33504 0.16867 0.06239 0.0
H2874 H 0.30012 0.15433 0.07613 0.0
H2875 H 0.29519 0.11397 0.01906 0.0
H2876 H 0.32996 0.12833 0.00478 0.0
H2877 H 0.45672 0.1194 0.0402 0.0
H2878 H 0.42635 0.14484 0.04267 0.0
H2879 H 0.40235 0.12412 0.97935 0.0
H2880 H 0.43281 0.09859 0.97647 0.0
H2881 H 0.37072 0.12703 0.02134 0.0
H2882 H 0.41907 0.16847 0.97227 0.0
H2883 H 0.45495 0.18352 0.96191 0.0
H2884 H 0.46057 0.21269 0.02577 0.0
H2885 H 0.4245 0.19827 0.03629 0.0
C2886 C 0.30796 0.21347 0.01441 0.0
C2887 C 0.31259 0.23102 0.02801 0.0
C2888 C 0.32275 0.19635 0.01316 0.0
C2889 C 0.34219 0.19661 0.02562 0.0
C2890 C 0.34599 0.21351 0.04028 0.0
C2891 C 0.33132 0.23054 0.04148 0.0
C2892 C 0.35964 0.18052 0.0219 0.0
C2893 C 0.38041 0.18786 0.01562 0.0
C2894 C 0.35599 0.15834 0.02398 0.0
C2895 C 0.33497 0.14979 0.03236 0.0
C2896 C 0.32639 0.15692 0.05263 0.0
C2897 C 0.30665 0.14875 0.06055 0.0
C2898 C 0.2954 0.13331 0.04843 0.0
C2899 C 0.3039 0.12597 0.02839 0.0
C2900 C 0.32363 0.13412 0.02038 0.0
C2901 C 0.44513 0.12031 0.02668 0.0
C2902 C 0.44719 0.10692 0.00814 0.0
C2903 C 0.42782 0.13484 0.02816 0.0
C2904 C 0.41224 0.1362 0.01124 0.0
C2905 C 0.41426 0.12313 0.99259 0.0
C2906 C 0.43173 0.10869 0.99095 0.0
C2907 C 0.39395 0.15151 0.01322 0.0
C2908 C 0.37319 0.14404 0.01927 0.0
C2909 C 0.39759 0.17361 0.01136 0.0
C2910 C 0.41924 0.18221 0.00509 0.0
C2911 C 0.42803 0.17803 0.9841 0.0
C2912 C 0.44834 0.18648 0.97818 0.0
C2913 C 0.46009 0.19889 0.99322 0.0
C2914 C 0.45146 0.20306 0.01414 0.0
C2915 C 0.43103 0.19489 0.02004 0.0
H2916 H 0.47584 0.20535 0.98862 0.0
H2917 H 0.28013 0.12698 0.0546 0.0
H2918 H 0.85656 0.29247 0.97442 0.0
H2919 H 0.88939 0.31508 0.9713 0.0
H2920 H 0.85745 0.36371 0.01029 0.0
H2921 H 0.82537 0.34145 0.01391 0.0
H2922 H 0.87551 0.3795 0.97185 0.0
H2923 H 0.89367 0.33186 0.03332 0.0
H2924 H 0.90184 0.29671 0.04978 0.0
H2925 H 0.95534 0.28803 0.00465 0.0
H2926 H 0.94727 0.32305 0.98773 0.0
H2927 H 0.94592 0.43534 0.0485 0.0
H2928 H 0.92636 0.40413 0.03497 0.0
H2929 H 0.95577 0.41179 0.97086 0.0
H2930 H 0.97574 0.44314 0.98432 0.0
H2931 H 0.94558 0.36405 0.01035 0.0
H2932 H 0.91594 0.41123 0.94345 0.0
H2933 H 0.90243 0.4462 0.93029 0.0
H2934 H 0.86908 0.45624 0.99185 0.0
H2935 H 0.88216 0.42111 0.00514 0.0
C2936 C 0.85666 0.30798 0.98232 0.0
C2937 C 0.83817 0.31537 0.99397 0.0
C2938 C 0.87534 0.32084 0.98049 0.0
C2939 C 0.87565 0.34116 0.99031 0.0
C2940 C 0.85738 0.34826 0.00224 0.0
C2941 C 0.83898 0.33552 0.00416 0.0
C2942 C 0.89469 0.35555 0.98869 0.0
C2943 C 0.89109 0.37588 0.97971 0.0
C2944 C 0.91497 0.3509 -0.00102 0.0
C2945 C 0.91965 0.32986 0.00904 0.0
C2946 C 0.90701 0.32234 0.02675 0.0
C2947 C 0.91166 0.30247 0.0362 0.0
C2948 C 0.92903 0.2901 0.0282 0.0
C2949 C 0.94184 0.29759 0.01078 0.0
C2950 C 0.93723 0.31744 0.00125 0.0
C2951 C 0.94854 0.43029 0.0316 0.0
C2952 C 0.96235 0.44182 0.01747 0.0
C2953 C 0.93737 0.4124 0.02393 0.0
C2954 C 0.93973 0.4057 0.002 0.0
C2955 C 0.95384 0.41677 0.98788 0.0
C2956 C 0.96518 0.43467 0.9956 0.0
C2957 C 0.92604 0.38799 0.99395 0.0
C2958 C 0.93055 0.36719 0.00131 0.0
C2959 C 0.90641 0.39215 0.98244 0.0
C2960 C 0.90019 0.41384 0.9753 0.0
C2961 C 0.90593 0.42106 0.95421 0.0
C2962 C 0.89828 0.44084 0.94672 0.0
C2963 C 0.88501 0.4535 0.9603 0.0
C2964 C 0.87944 0.44645 0.98141 0.0
C2965 C 0.88693 0.42663 0.98891 0.0
H2966 H 0.87888 0.4687 0.95446 0.0
H2967 H 0.93262 0.27473 0.03555 0.0
H2968 H 0.71551 0.81236 0.98531 0.0
H2969 H 0.68338 0.83446 0.99281 0.0
H2970 H 0.72502 0.88517 0.01598 0.0
H2971 H 0.75744 0.86283 0.00902 0.0
H2972 H 0.6878 0.87973 0.04217 0.0
H2973 H 0.70549 0.88754 0.96543 0.0
H2974 H 0.71365 0.87553 0.92756 0.0
H2975 H 0.65082 0.84529 0.9236 0.0
H2976 H 0.64243 0.8568 0.96161 0.0
H2977 H 0.60697 0.96254 0.03161 0.0
H2978 H 0.63919 0.93909 0.03285 0.0
H2979 H 0.60289 0.8903 0.99835 0.0
H2980 H 0.57123 0.91437 0.99603 0.0
H2981 H 0.63877 0.89562 0.97887 0.0
H2982 H 0.62094 0.88684 0.05591 0.0
H2983 H 0.61254 0.8989 0.09375 0.0
H2984 H 0.67437 0.93104 0.0972 0.0
H2985 H 0.68311 0.91927 0.05933 0.0
C2986 C 0.71788 0.82807 0.99236 0.0
C2987 C 0.73904 0.83585 0.99657 0.0
C2988 C 0.69949 0.84074 0.99648 0.0
C2989 C 0.70186 0.86151 0.00473 0.0
C2990 C 0.72288 0.86918 0.00956 0.0
C2991 C 0.74136 0.85648 0.00541 0.0
C2992 C 0.68236 0.87543 0.00733 0.0
C2993 C 0.67713 0.88342 0.02834 0.0
C2994 C 0.66833 0.87991 0.98931 0.0
C2995 C 0.67344 0.87284 0.96648 0.0
C2996 C 0.6935 0.87814 0.95658 0.0
C2997 C 0.69816 0.87145 0.93507 0.0
C2998 C 0.6828 0.8596 0.92321 0.0
C2999 C 0.66273 0.85443 0.93283 0.0
C3000 C 0.65802 0.86103 0.95435 0.0
C3001 C 0.60582 0.94654 0.02492 0.0
C3002 C 0.58675 0.94 0.01401 0.0
C3003 C 0.62418 0.93313 0.02564 0.0
C3004 C 0.62347 0.91276 0.01592 0.0
C3005 C 0.6039 0.90592 0.00595 0.0
C3006 C 0.58579 0.91956 0.00472 0.0
C3007 C 0.64362 0.89949 0.01391 0.0
C3008 C 0.64919 0.8918 0.99286 0.0
C3009 C 0.65782 0.89525 0.03193 0.0
C3010 C 0.65262 0.90227 0.05474 0.0
C3011 C 0.6327 0.89656 0.0647 0.0
C3012 C 0.62792 0.90328 0.08618 0.0
C3013 C 0.64294 0.91569 0.09788 0.0
C3014 C 0.66279 0.92138 0.08814 0.0
C3015 C 0.66769 0.91464 0.06669 0.0
H3016 H 0.63916 0.92094 0.11447 0.0
H3017 H 0.68642 0.85447 0.90654 0.0
H3018 H 0.83377 0.73668 0.97901 0.0
H3019 H 0.86582 0.71349 0.98039 0.0
H3020 H 0.82885 0.66683 0.01692 0.0
H3021 H 0.79797 0.69105 0.01844 0.0
H3022 H 0.86622 0.66462 0.03106 0.0
H3023 H 0.83926 0.66755 0.9546 0.0
H3024 H 0.82999 0.68668 0.92019 0.0
H3025 H 0.89574 0.71034 0.91616 0.0
H3026 H 0.90539 0.69131 0.95052 0.0
H3027 H 0.91202 0.56757 0.00752 0.0
H3028 H 0.88737 0.59753 -0.00048 0.0
H3029 H 0.943 0.63751 0.98578 0.0
H3030 H 0.96772 0.60731 0.99354 0.0
H3031 H 0.90205 0.64668 0.95986 0.0
H3032 H 0.92902 0.6386 0.03468 0.0
H3033 H 0.93725 0.61693 0.06767 0.0
H3034 H 0.86916 0.60119 0.07389 0.0
H3035 H 0.8606 0.62247 0.04069 0.0
C3036 C 0.83256 0.72178 0.98793 0.0
C3037 C 0.81284 0.71568 0.99816 0.0
C3038 C 0.85089 0.70826 0.98827 0.0
C3039 C 0.84963 0.68793 0.99796 0.0
C3040 C 0.83032 0.68226 0.00901 0.0
C3041 C 0.81237 0.69607 0.00948 0.0
C3042 C 0.86792 0.67214 0.99633 0.0
C3043 C 0.87384 0.6607 0.01539 0.0
C3044 C 0.87861 0.66729 0.9761 0.0
C3045 C 0.87297 0.67818 0.95517 0.0
C3046 C 0.85172 0.67683 0.94634 0.0
C3047 C 0.84641 0.68763 0.92685 0.0
C3048 C 0.86227 0.69971 0.916 0.0
C3049 C 0.8835 0.70092 0.92454 0.0
C3050 C 0.88891 0.6901 0.94399 0.0
C3051 C 0.91887 0.58247 0.00175 0.0
C3052 C 0.94159 0.58529 0.00095 0.0
C3053 C 0.90485 0.59957 0.9973 0.0
C3054 C 0.91345 0.61974 0.99241 0.0
C3055 C 0.93611 0.62203 0.98948 0.0
C3056 C 0.95018 0.60482 0.99384 0.0
C3057 C 0.89915 0.63876 0.99425 0.0
C3058 C 0.89434 0.65084 0.97542 0.0
C3059 C 0.88921 0.64407 0.0146 0.0
C3060 C 0.8942 0.63204 0.03513 0.0
C3061 C 0.91582 0.63046 0.04304 0.0
C3062 C 0.92054 0.61824 0.06177 0.0
C3063 C 0.90374 0.60766 0.07285 0.0
C3064 C 0.88216 0.60939 0.06529 0.0
C3065 C 0.87736 0.62155 0.04654 0.0
H3066 H 0.90743 0.59815 0.08731 0.0
H3067 H 0.85811 0.70813 0.90096 0.0
H3068 H 0.33138 0.80047 0.99689 0.0
H3069 H 0.35253 0.83329 0.99876 0.0
H3070 H 0.29988 0.86429 0.0339 0.0
H3071 H 0.2787 0.83113 0.0328 0.0
H3072 H 0.31918 0.889 0.99764 0.0
H3073 H 0.34044 0.85081 0.06329 0.0
H3074 H 0.35263 0.81904 0.08404 0.0
H3075 H 0.4117 0.81633 0.04574 0.0
H3076 H 0.39971 0.84789 0.02453 0.0
H3077 H 0.40769 0.96527 0.03893 0.0
H3078 H 0.37579 0.94139 0.04016 0.0
H3079 H 0.3999 0.90785 0.98309 0.0
H3080 H 0.4307 0.93242 0.9806 0.0
H3081 H 0.39127 0.88792 0.03572 0.0
H3082 H 0.36456 0.91744 0.96385 0.0
H3083 H 0.35394 0.9487 0.94145 0.0
H3084 H 0.30709 0.96731 0.99078 0.0
H3085 H 0.31777 0.93628 0.01363 0.0
C3086 C 0.32435 0.81411 0.00534 0.0
C3087 C 0.30342 0.81303 0.01496 0.0
C3088 C 0.3364 0.83292 0.0062 0.0
C3089 C 0.32779 0.85112 0.01658 0.0
C3090 C 0.30675 0.85038 0.02578 0.0
C3091 C 0.29469 0.83144 0.0251 0.0
C3092 C 0.34125 0.87063 0.01811 0.0
C3093 C 0.33474 0.8889 0.00631 0.0
C3094 C 0.36165 0.87041 0.02922 0.0
C3095 C 0.36911 0.85166 0.04224 0.0
C3096 C 0.35597 0.84337 0.05921 0.0
C3097 C 0.36285 0.8254 0.07106 0.0
C3098 C 0.38291 0.81566 0.06619 0.0
C3099 C 0.39617 0.8239 0.0495 0.0
C3100 C 0.38935 0.84185 0.03758 0.0
C3101 C 0.40573 0.95326 0.02622 0.0
C3102 C 0.42156 0.95076 0.00956 0.0
C3103 C 0.38769 0.93957 0.02708 0.0
C3104 C 0.38571 0.92291 0.01177 0.0
C3105 C 0.40104 0.9209 0.99475 0.0
C3106 C 0.41858 0.93496 0.99338 0.0
C3107 C 0.3694 0.90592 0.01488 0.0
C3108 C 0.37545 0.88813 0.02752 0.0
C3109 C 0.34881 0.90644 0.00432 0.0
C3110 C 0.34211 0.92476 0.9905 0.0
C3111 C 0.35213 0.92831 0.96998 0.0
C3112 C 0.34609 0.94595 0.9572 0.0
C3113 C 0.32989 0.96002 0.96472 0.0
C3114 C 0.31966 0.95643 0.985 0.0
C3115 C 0.32571 0.93883 0.99787 0.0
H3116 H 0.32522 0.97367 0.9548 0.0
H3117 H 0.3882 0.80174 0.07537 0.0
H3118 H 0.77156 0.17932 0.04654 0.0
H3119 H 0.74082 0.15519 0.04134 0.0
H3120 H 0.7235 0.18743 0.98096 0.0
H3121 H 0.75517 0.21085 0.98508 0.0
H3122 H 0.68802 0.1803 0.01605 0.0
H3123 H 0.74107 0.14546 0.97048 0.0
H3124 H 0.77704 0.13003 0.96087 0.0
H3125 H 0.7711 0.08465 0.01357 0.0
H3126 H 0.73521 0.10007 0.02372 0.0
H3127 H 0.61424 0.0995 0.97396 0.0
H3128 H 0.64765 0.12087 0.97435 0.0
H3129 H 0.65969 0.10262 0.04187 0.0
H3130 H 0.62584 0.08169 0.04196 0.0
H3131 H 0.6976 0.10292 0.00072 0.0
H3132 H 0.64617 0.14227 0.04882 0.0
H3133 H 0.60973 0.15759 0.05682 0.0
H3134 H 0.61255 0.19446 0.99718 0.0
H3135 H 0.64889 0.17901 0.98867 0.0
C3136 C 0.76161 0.18108 0.03185 0.0
C3137 C 0.76607 0.19706 0.01617 0.0
C3138 C 0.74391 0.16736 0.02905 0.0
C3139 C 0.73004 0.16957 0.01077 0.0
C3140 C 0.73409 0.18558 0.99521 0.0
C3141 C 0.75211 0.19905 0.99772 0.0
C3142 C 0.71109 0.15524 0.00832 0.0
C3143 C 0.69008 0.16344 0.01245 0.0
C3144 C 0.7139 0.13325 0.00386 0.0
C3145 C 0.7356 0.12411 0.99805 0.0
C3146 C 0.74756 0.13238 0.98021 0.0
C3147 C 0.7679 0.12359 0.97462 0.0
C3148 C 0.77639 0.10642 0.98665 0.0
C3149 C 0.76453 0.09799 0.00429 0.0
C3150 C 0.74418 0.10674 0.00997 0.0
C3151 C 0.62413 0.09978 0.98882 0.0
C3152 C 0.61734 0.08909 0.00801 0.0
C3153 C 0.64314 0.11203 0.98899 0.0
C3154 C 0.65585 0.11339 0.00818 0.0
C3155 C 0.64989 0.10178 0.02697 0.0
C3156 C 0.6306 0.08988 0.02699 0.0
C3157 C 0.67471 0.12793 0.00889 0.0
C3158 C 0.69562 0.11978 0.00433 0.0
C3159 C 0.67184 0.14997 0.0129 0.0
C3160 C 0.65004 0.15924 0.01794 0.0
C3161 C 0.63888 0.15341 0.03727 0.0
C3162 C 0.61829 0.16217 0.04194 0.0
C3163 C 0.60879 0.17692 0.02747 0.0
C3164 C 0.6199 0.18298 0.00834 0.0
C3165 C 0.64049 0.17423 0.00358 0.0
H3166 H 0.59286 0.18371 0.03112 0.0
H3167 H 0.79212 0.0996 0.98227 0.0
H3168 H 0.50841 0.73691 0.82995 0.0
H3169 H 0.51111 0.70466 0.85203 0.0
H3170 H 0.5501 0.67458 0.80149 0.0
H3171 H 0.54869 0.70758 0.77952 0.0
H3172 H 0.50275 0.65505 0.82906 0.0
H3173 H 0.58041 0.67302 0.83 0.0
H3174 H 0.61126 0.69814 0.83261 0.0
H3175 H 0.58868 0.71892 0.89623 0.0
H3176 H 0.55742 0.69424 0.89376 0.0
H3177 H 0.50643 0.57619 0.91415 0.0
H3178 H 0.5179 0.59539 0.88092 0.0
H3179 H 0.52573 0.65283 0.91946 0.0
H3180 H 0.51531 0.6336 0.95264 0.0
H3181 H 0.5564 0.6515 0.89054 0.0
H3182 H 0.47712 0.63975 0.88794 0.0
H3183 H 0.44449 0.61666 0.88726 0.0
H3184 H 0.4683 0.58573 0.82868 0.0
H3185 H 0.50117 0.60855 0.82915 0.0
C3186 C 0.51799 0.72369 0.82357 0.0
C3187 C 0.52875 0.72514 0.80307 0.0
C3188 C 0.51929 0.70515 0.83617 0.0
C3189 C 0.531 0.6874 0.8285 0.0
C3190 C 0.54116 0.68827 0.80775 0.0
C3191 C 0.54019 0.70708 0.79518 0.0
C3192 C 0.53227 0.66826 0.84275 0.0
C3193 C 0.51487 0.65375 0.84212 0.0
C3194 C 0.54775 0.66701 0.86005 0.0
C3195 C 0.56639 0.68201 0.86152 0.0
C3196 C 0.58183 0.68319 0.84438 0.0
C3197 C 0.59943 0.69729 0.84587 0.0
C3198 C 0.60187 0.71019 0.86453 0.0
C3199 C 0.58673 0.70898 0.88175 0.0
C3200 C 0.56906 0.69494 0.8803 0.0
C3201 C 0.51083 0.59286 0.91553 0.0
C3202 C 0.5097 0.60344 0.93599 0.0
C3203 C 0.51732 0.60384 0.89651 0.0
C3204 C 0.52229 0.62571 0.89754 0.0
C3205 C 0.52199 0.63599 0.91815 0.0
C3206 C 0.51589 0.62497 0.93715 0.0
C3207 C 0.52652 0.6385 0.87728 0.0
C3208 C 0.54477 0.65206 0.877 0.0
C3209 C 0.51166 0.639 0.85927 0.0
C3210 C 0.49168 0.62568 0.85871 0.0
C3211 C 0.47541 0.62798 0.87496 0.0
C3212 C 0.45688 0.61495 0.87461 0.0
C3213 C 0.45436 0.59969 0.85797 0.0
C3214 C 0.4703 0.59753 0.84158 0.0
C3215 C 0.48886 0.61051 0.84186 0.0
H3216 H 0.44003 0.58957 0.85776 0.0
H3217 H 0.61554 0.72107 0.86568 0.0
H3218 H 0.32954 0.54725 0.81235 0.0
H3219 H 0.3551 0.53873 0.84184 0.0
H3220 H 0.40946 0.55345 0.7992 0.0
H3221 H 0.38397 0.56046 0.76887 0.0
H3222 H 0.4197 0.52046 0.82427 0.0
H3223 H 0.39083 0.59009 0.83812 0.0
H3224 H 0.36172 0.61729 0.84195 0.0
H3225 H 0.33406 0.58248 0.89609 0.0
H3226 H 0.36282 0.55492 0.89239 0.0
H3227 H 0.48614 0.51567 0.92248 0.0
H3228 H 0.46928 0.52987 0.88871 0.0
H3229 H 0.40514 0.51887 0.91623 0.0
H3230 H 0.42175 0.50557 0.95004 0.0
H3231 H 0.40568 0.5557 0.89628 0.0
H3232 H 0.43281 0.48363 0.87825 0.0
H3233 H 0.46247 0.45701 0.87384 0.0
H3234 H 0.49464 0.49786 0.82733 0.0
H3235 H 0.46533 0.52484 0.8317 0.0
C3236 C 0.34691 0.54822 0.80894 0.0
C3237 C 0.35458 0.55475 0.78814 0.0
C3238 C 0.36155 0.54365 0.82601 0.0
C3239 C 0.3842 0.54606 0.82295 0.0
C3240 C 0.39204 0.55175 0.80203 0.0
C3241 C 0.37739 0.55599 0.78478 0.0
C3242 C 0.39946 0.54306 0.84184 0.0
C3243 C 0.41685 0.52841 0.83993 0.0
C3244 C 0.39593 0.55356 0.86224 0.0
C3245 C 0.37893 0.5704 0.8649 0.0
C3246 C 0.3785 0.58821 0.85079 0.0
C3247 C 0.36205 0.60368 0.85294 0.0
C3248 C 0.34603 0.6016 0.86923 0.0
C3249 C 0.34648 0.58408 0.88348 0.0
C3250 C 0.36287 0.56855 0.88139 0.0
C3251 C 0.46845 0.51641 0.9213 0.0
C3252 C 0.45525 0.50938 0.93884 0.0
C3253 C 0.45884 0.52444 0.90198 0.0
C3254 C 0.43593 0.52513 0.89978 0.0
C3255 C 0.42285 0.51852 0.91751 0.0
C3256 C 0.43238 0.51084 0.93684 0.0
C3257 C 0.42512 0.53223 0.87907 0.0
C3258 C 0.4087 0.54791 0.88056 0.0
C3259 C 0.42967 0.52276 0.85832 0.0
C3260 C 0.44701 0.50632 0.85546 0.0
C3261 C 0.44626 0.48696 0.86716 0.0
C3262 C 0.463 0.47182 0.86467 0.0
C3263 C 0.48045 0.47579 0.85037 0.0
C3264 C 0.48114 0.49484 0.83844 0.0
C3265 C 0.46447 0.51005 0.84091 0.0
H3266 H 0.49342 0.46411 0.84849 0.0
H3267 H 0.33329 0.61358 0.87084 0.0
H3268 H 0.45448 0.35167 0.78856 0.0
H3269 H 0.46488 0.37597 0.81814 0.0
H3270 H 0.52603 0.34213 0.82619 0.0
H3271 H 0.51606 0.31798 0.79598 0.0
H3272 H 0.505 0.35071 0.86619 0.0
H3273 H 0.52531 0.38899 0.80025 0.0
H3274 H 0.51953 0.40562 0.76382 0.0
H3275 H 0.47015 0.44684 0.79125 0.0
H3276 H 0.47531 0.43015 0.82774 0.0
H3277 H 0.56097 0.44511 0.91752 0.0
H3278 H 0.55069 0.42382 0.88522 0.0
H3279 H 0.48571 0.41607 0.91161 0.0
H3280 H 0.49584 0.43707 0.94411 0.0
H3281 H 0.51027 0.42887 0.85407 0.0
H3282 H 0.48025 0.37428 0.91295 0.0
H3283 H 0.48654 0.35967 0.95031 0.0
H3284 H 0.55517 0.35275 0.93622 0.0
H3285 H 0.54921 0.36761 0.89889 0.0
C3286 C 0.47031 0.34949 0.79635 0.0
C3287 C 0.48454 0.33294 0.7896 0.0
C3288 C 0.47617 0.3634 0.81336 0.0
C3289 C 0.49635 0.36106 0.82419 0.0
C3290 C 0.5104 0.34426 0.81799 0.0
C3291 C 0.50461 0.33039 0.80079 0.0
C3292 C 0.50255 0.37602 0.84216 0.0
C3293 C 0.50617 0.36777 0.86341 0.0
C3294 C 0.5039 0.39838 0.83874 0.0
C3295 C 0.50056 0.40816 0.81669 0.0
C3296 C 0.51304 0.40143 0.79846 0.0
C3297 C 0.5099 0.41089 0.7778 0.0
C3298 C 0.49444 0.42723 0.7752 0.0
C3299 C 0.48209 0.43415 0.79326 0.0
C3300 C 0.48512 0.42469 0.81394 0.0
C3301 C 0.54442 0.43907 0.91637 0.0
C3302 C 0.5293 0.44255 0.93354 0.0
C3303 C 0.53859 0.42694 0.89789 0.0
C3304 C 0.51757 0.41817 0.89624 0.0
C3305 C 0.50213 0.42246 0.91279 0.0
C3306 C 0.50795 0.43449 0.93132 0.0
C3307 C 0.51216 0.40353 0.87785 0.0
C3308 C 0.50886 0.41182 0.85665 0.0
C3309 C 0.51075 0.38131 0.88124 0.0
C3310 C 0.5143 0.37194 0.90329 0.0
C3311 C 0.49664 0.36956 0.91787 0.0
C3312 C 0.50016 0.36133 0.93903 0.0
C3313 C 0.52124 0.35527 0.94563 0.0
C3314 C 0.53885 0.35746 0.93109 0.0
C3315 C 0.53543 0.36582 0.90997 0.0
H3316 H 0.52394 0.34888 0.96201 0.0
H3317 H 0.49207 0.43457 0.7592 0.0
H3318 H 0.65657 0.45442 0.78263 0.0
H3319 H 0.63344 0.46177 0.81474 0.0
H3320 H 0.66171 0.52437 0.82063 0.0
H3321 H 0.68412 0.51768 0.78791 0.0
H3322 H 0.65965 0.48106 0.85937 0.0
H3323 H 0.62427 0.5405 0.8151 0.0
H3324 H 0.60488 0.55235 0.78146 0.0
H3325 H 0.55757 0.50257 0.79 0.0
H3326 H 0.57692 0.49029 0.82354 0.0
H3327 H 0.61769 0.53783 0.94949 0.0
H3328 H 0.63391 0.52467 0.91541 0.0
H3329 H 0.57152 0.49861 0.89572 0.0
H3330 H 0.55492 0.51261 0.92959 0.0
H3331 H 0.5881 0.51892 0.86285 0.0
H3332 H 0.61588 0.4651 0.91058 0.0
H3333 H 0.63332 0.44986 0.94372 0.0
H3334 H 0.69272 0.48341 0.92916 0.0
H3335 H 0.67561 0.49882 0.89581 0.0
C3336 C 0.65739 0.47001 0.79029 0.0
C3337 C 0.67231 0.48542 0.78276 0.0
C3338 C 0.64428 0.47409 0.80871 0.0
C3339 C 0.64591 0.4936 0.81985 0.0
C3340 C 0.66017 0.50928 0.81203 0.0
C3341 C 0.67308 0.50534 0.79348 0.0
C3342 C 0.63425 0.49689 0.84082 0.0
C3343 C 0.64407 0.48945 0.86028 0.0
C3344 C 0.61363 0.50705 0.8417 0.0
C3345 C 0.60221 0.51429 0.82152 0.0
C3346 C 0.60991 0.53193 0.80961 0.0
C3347 C 0.59889 0.53877 0.79062 0.0
C3348 C 0.58006 0.52815 0.78353 0.0
C3349 C 0.57219 0.51072 0.79546 0.0
C3350 C 0.58318 0.50382 0.81443 0.0
C3351 C 0.60746 0.52911 0.93802 0.0
C3352 C 0.58503 0.52633 0.9421 0.0
C3353 C 0.6168 0.52145 0.91859 0.0
C3354 C 0.60402 0.51039 0.90311 0.0
C3355 C 0.58169 0.50712 0.90742 0.0
C3356 C 0.57223 0.5151 0.92674 0.0
C3357 C 0.61376 0.50367 0.88182 0.0
C3358 C 0.60359 0.51035 0.86218 0.0
C3359 C 0.63394 0.49245 0.8808 0.0
C3360 C 0.64441 0.4832 0.90077 0.0
C3361 C 0.63263 0.46931 0.9145 0.0
C3362 C 0.64247 0.46062 0.93332 0.0
C3363 C 0.6641 0.46574 0.93864 0.0
C3364 C 0.67597 0.47946 0.92504 0.0
C3365 C 0.66623 0.48811 0.90612 0.0
H3366 H 0.67166 0.45902 0.95325 0.0
H3367 H 0.57153 0.53349 0.76885 0.0
H3368 H 0.51844 0.33413 0.23068 0.0
H3369 H 0.51862 0.36574 0.20676 0.0
H3370 H 0.48442 0.33067 0.15632 0.0
H3371 H 0.48285 0.2996 0.18036 0.0
H3372 H 0.52668 0.35228 0.1438 0.0
H3373 H 0.45592 0.36351 0.1773 0.0
H3374 H 0.43039 0.36797 0.20847 0.0
H3375 H 0.46583 0.42311 0.23029 0.0
H3376 H 0.49182 0.41876 0.19942 0.0
H3377 H 0.50038 0.43053 0.06346 0.0
H3378 H 0.49093 0.40478 0.09252 0.0
H3379 H 0.52969 0.44018 0.13931 0.0
H3380 H 0.53994 0.46531 0.11011 0.0
H3381 H 0.48473 0.41958 0.15474 0.0
H3382 H 0.55707 0.40698 0.12454 0.0
H3383 H 0.58352 0.4033 0.09403 0.0
H3384 H 0.54642 0.35124 0.06739 0.0
H3385 H 0.51948 0.35493 0.09756 0.0
C3386 C 0.51054 0.33323 0.2147 0.0
C3387 C 0.50096 0.31405 0.20743 0.0
C3388 C 0.51078 0.35129 0.201 0.0
C3389 C 0.50167 0.35044 0.17972 0.0
C3390 C 0.49171 0.33158 0.17261 0.0
C3391 C 0.49105 0.31373 0.18638 0.0
C3392 C 0.50334 0.3688 0.16436 0.0
C3393 C 0.51734 0.3669 0.14611 0.0
C3394 C 0.49151 0.38804 0.16762 0.0
C3395 C 0.476 0.39064 0.18623 0.0
C3396 C 0.45844 0.37643 0.1889 0.0
C3397 C 0.44384 0.37897 0.20647 0.0
C3398 C 0.44653 0.39576 0.2214 0.0
C3399 C 0.4638 0.41008 0.21875 0.0
C3400 C 0.47847 0.40759 0.20121 0.0
C3401 C 0.50619 0.43319 0.08013 0.0
C3402 C 0.52072 0.44991 0.08467 0.0
C3403 C 0.50089 0.41847 0.09667 0.0
C3404 C 0.50963 0.42061 0.11804 0.0
C3405 C 0.52265 0.43835 0.12299 0.0
C3406 C 0.52846 0.45268 0.10634 0.0
C3407 C 0.50787 0.40288 0.13416 0.0
C3408 C 0.494 0.40493 0.1525 0.0
C3409 C 0.51998 0.38379 0.13119 0.0
C3410 C 0.53611 0.38144 0.11308 0.0
C3411 C 0.55441 0.39493 0.11201 0.0
C3412 C 0.56952 0.39281 0.09483 0.0
C3413 C 0.56661 0.3771 0.07873 0.0
C3414 C 0.54861 0.36344 0.07984 0.0
C3415 C 0.53341 0.36554 0.09697 0.0
H3416 H 0.57834 0.37546 0.06545 0.0
H3417 H 0.4352 0.39772 0.23498 0.0
H3418 H 0.65895 0.54133 0.23262 0.0
H3419 H 0.63664 0.52792 0.20234 0.0
H3420 H 0.67388 0.46931 0.20177 0.0
H3421 H 0.69562 0.48198 0.23312 0.0
H3422 H 0.66748 0.49764 0.15862 0.0
H3423 H 0.63003 0.45921 0.21637 0.0
H3424 H 0.61283 0.45677 0.25308 0.0
H3425 H 0.56569 0.50464 0.23456 0.0
H3426 H 0.58281 0.5076 0.19786 0.0
H3427 H 0.59751 0.48314 0.06819 0.0
H3428 H 0.61637 0.46997 0.10126 0.0
H3429 H 0.57965 0.51477 0.14101 0.0
H3430 H 0.56036 0.52721 0.10833 0.0
H3431 H 0.58832 0.48108 0.1647 0.0
H3432 H 0.62777 0.52831 0.11629 0.0
H3433 H 0.64497 0.53953 0.08141 0.0
H3434 H 0.6881 0.48527 0.08391 0.0
H3435 H 0.67067 0.47333 0.1185 0.0
C3436 C 0.66213 0.52536 0.22654 0.0
C3437 C 0.6791 0.51274 0.23544 0.0
C3438 C 0.64944 0.51781 0.20911 0.0
C3439 C 0.65364 0.49765 0.20003 0.0
C3440 C 0.67047 0.48492 0.2087 0.0
C3441 C 0.68296 0.4923 0.22646 0.0
C3442 C 0.6409 0.49071 0.18068 0.0
C3443 C 0.65035 0.49323 0.15982 0.0
C3444 C 0.61845 0.48579 0.18252 0.0
C3445 C 0.60775 0.48365 0.20438 0.0
C3446 C 0.61607 0.46929 0.22016 0.0
C3447 C 0.60632 0.46781 0.24097 0.0
C3448 C 0.58819 0.48055 0.24615 0.0
C3449 C 0.57972 0.49476 0.23051 0.0
C3450 C 0.58941 0.49631 0.20969 0.0
C3451 C 0.59284 0.48944 0.08409 0.0
C3452 C 0.57766 0.50627 0.0857 0.0
C3453 C 0.60374 0.48206 0.10296 0.0
C3454 C 0.59971 0.49168 0.12354 0.0
C3455 C 0.58308 0.50711 0.12534 0.0
C3456 C 0.57219 0.51436 0.1066 0.0
C3457 C 0.61473 0.48852 0.14248 0.0
C3458 C 0.6057 0.48435 0.16332 0.0
C3459 C 0.63743 0.49285 0.14071 0.0
C3460 C 0.64765 0.49971 0.11972 0.0
C3461 C 0.64071 0.51859 0.10922 0.0
C3462 C 0.65049 0.52507 0.0895 0.0
C3463 C 0.66748 0.51298 0.08033 0.0
C3464 C 0.67476 0.49443 0.09089 0.0
C3465 C 0.66491 0.48778 0.11052 0.0
H3466 H 0.67511 0.51805 0.06511 0.0
H3467 H 0.58069 0.47941 0.26228 0.0
H3468 H 0.53224 0.72436 0.205 0.0
H3469 H 0.53388 0.70099 0.1727 0.0
H3470 H 0.56037 0.65025 0.21286 0.0
H3471 H 0.55909 0.67369 0.24526 0.0
H3472 H 0.57851 0.65135 0.16933 0.0
H3473 H 0.50867 0.64987 0.20532 0.0
H3474 H 0.47552 0.66561 0.22207 0.0
H3475 H 0.45868 0.69489 0.16024 0.0
H3476 H 0.49194 0.6796 0.14321 0.0
H3477 H 0.5415 0.56732 0.09542 0.0
H3478 H 0.55267 0.59026 0.12637 0.0
H3479 H 0.51652 0.64281 0.09768 0.0
H3480 H 0.50458 0.6197 0.06766 0.0
H3481 H 0.50472 0.63855 0.13777 0.0
H3482 H 0.57574 0.63975 0.10171 0.0
H3483 H 0.60879 0.62308 0.08568 0.0
H3484 H 0.62304 0.59279 0.14764 0.0
H3485 H 0.59 0.60921 0.16401 0.0
C3486 C 0.53898 0.70844 0.20687 0.0
C3487 C 0.54532 0.70082 0.22776 0.0
C3488 C 0.53981 0.69505 0.18841 0.0
C3489 C 0.547 0.6738 0.19043 0.0
C3490 C 0.55474 0.66657 0.21093 0.0
C3491 C 0.55382 0.67993 0.22945 0.0
C3492 C 0.54408 0.65862 0.1718 0.0
C3493 C 0.56239 0.64839 0.16246 0.0
C3494 C 0.52305 0.65471 0.16292 0.0
C3495 C 0.50291 0.66376 0.17305 0.0
C3496 C 0.49799 0.6598 0.19534 0.0
C3497 C 0.47917 0.66862 0.20488 0.0
C3498 C 0.46503 0.68129 0.19224 0.0
C3499 C 0.46966 0.68511 0.17002 0.0
C3500 C 0.48849 0.67636 0.16041 0.0
C3501 C 0.53649 0.58393 0.09553 0.0
C3502 C 0.52222 0.59182 0.07924 0.0
C3503 C 0.54285 0.59706 0.11321 0.0
C3504 C 0.53542 0.61836 0.11446 0.0
C3505 C 0.52232 0.62644 0.09729 0.0
C3506 C 0.51561 0.61327 0.08004 0.0
C3507 C 0.53926 0.63185 0.1344 0.0
C3508 C 0.52095 0.64157 0.14434 0.0
C3509 C 0.56027 0.63514 0.14376 0.0
C3510 C 0.58031 0.62556 0.13402 0.0
C3511 C 0.58587 0.62945 0.11188 0.0
C3512 C 0.6046 0.62006 0.10274 0.0
C3513 C 0.61796 0.60682 0.11561 0.0
C3514 C 0.61267 0.60304 0.13769 0.0
C3515 C 0.59397 0.61242 0.14692 0.0
H3516 H 0.63243 0.59952 0.10848 0.0
H3517 H 0.45046 0.6881 0.19966 0.0
H3518 H 0.33657 0.50978 0.20833 0.0
H3519 H 0.36973 0.51352 0.18557 0.0
H3520 H 0.35543 0.5805 0.17675 0.0
H3521 H 0.32261 0.57683 0.19976 0.0
H3522 H 0.3628 0.55537 0.13671 0.0
H3523 H 0.39544 0.57028 0.20788 0.0
H3524 H 0.40295 0.56204 0.24697 0.0
H3525 H 0.4345 0.50341 0.2281 0.0
H3526 H 0.42687 0.51113 0.18892 0.0
H3527 H 0.45396 0.55897 0.06746 0.0
H3528 H 0.43123 0.57174 0.09788 0.0
H3529 H 0.44561 0.51394 0.13402 0.0
H3530 H 0.46963 0.50217 0.10478 0.0
H3531 H 0.43905 0.54241 0.16202 0.0
H3532 H 0.4005 0.52019 0.09569 0.0
H3533 H 0.39147 0.52243 0.05605 0.0
H3534 H 0.369 0.58695 0.06473 0.0
H3535 H 0.37827 0.58519 0.10437 0.0
C3536 C 0.34089 0.52531 0.20185 0.0
C3537 C 0.3275 0.5431 0.20583 0.0
C3538 C 0.35966 0.52744 0.18889 0.0
C3539 C 0.36493 0.54732 0.17965 0.0
C3540 C 0.3516 0.56511 0.18386 0.0
C3541 C 0.33305 0.56303 0.19701 0.0
C3542 C 0.38375 0.54928 0.16464 0.0
C3543 C 0.37956 0.55298 0.14223 0.0
C3544 C 0.4054 0.54563 0.17194 0.0
C3545 C 0.41049 0.54125 0.19547 0.0
C3546 C 0.40388 0.55558 0.21207 0.0
C3547 C 0.40816 0.55101 0.23425 0.0
C3548 C 0.41917 0.5322 0.24002 0.0
C3549 C 0.42598 0.51797 0.22361 0.0
C3550 C 0.42172 0.52245 0.20142 0.0
C3551 C 0.45297 0.54943 0.08219 0.0
C3552 C 0.46332 0.52942 0.08343 0.0
C3553 C 0.43975 0.55662 0.09953 0.0
C3554 C 0.4361 0.54347 0.11795 0.0
C3555 C 0.44795 0.52436 0.11997 0.0
C3556 C 0.46155 0.51751 0.10301 0.0
C3557 C 0.41816 0.54784 0.1338 0.0
C3558 C 0.42241 0.54533 0.15645 0.0
C3559 C 0.39639 0.55173 0.1266 0.0
C3560 C 0.39032 0.55265 0.1029 0.0
C3561 C 0.39371 0.53487 0.08911 0.0
C3562 C 0.38859 0.53607 0.06664 0.0
C3563 C 0.37978 0.55487 0.05785 0.0
C3564 C 0.37593 0.57245 0.07154 0.0
C3565 C 0.38113 0.57137 0.094 0.0
H3566 H 0.37588 0.5558 0.04044 0.0
H3567 H 0.42245 0.52868 0.25719 0.0
H3568 H 0.7833 0.51668 0.70327 0.0
H3569 H 0.81268 0.52227 0.67603 0.0
H3570 H 0.8537 0.47724 0.71082 0.0
H3571 H 0.82459 0.47146 0.73773 0.0
H3572 H 0.86304 0.53124 0.70006 0.0
H3573 H 0.85518 0.45378 0.67592 0.0
H3574 H 0.83185 0.42508 0.66105 0.0
H3575 H 0.81123 0.46608 0.60809 0.0
H3576 H 0.83433 0.49506 0.62284 0.0
H3577 H 0.95622 0.49003 0.6214 0.0
H3578 H 0.9266 0.48605 0.64811 0.0
H3579 H 0.90687 0.55139 0.63697 0.0
H3580 H 0.93667 0.55561 0.61054 0.0
H3581 H 0.88449 0.48916 0.6341 0.0
H3582 H 0.87824 0.56886 0.68036 0.0
H3583 H 0.90143 0.59614 0.69805 0.0
H3584 H 0.9516 0.54912 0.70955 0.0
H3585 H 0.92874 0.52162 0.69178 0.0
C3586 C 0.79838 0.50758 0.70464 0.0
C3587 C 0.80189 0.4938 0.72259 0.0
C3588 C 0.81508 0.51081 0.6892 0.0
C3589 C 0.83517 0.50007 0.69153 0.0
C3590 C 0.83817 0.48548 0.70874 0.0
C3591 C 0.82163 0.48229 0.72411 0.0
C3592 C 0.85415 0.5058 0.67796 0.0
C3593 C 0.86766 0.52231 0.68541 0.0
C3594 C 0.86019 0.49382 0.65927 0.0
C3595 C 0.8462 0.47658 0.6506 0.0
C3596 C 0.84549 0.4567 0.66124 0.0
C3597 C 0.83237 0.44038 0.6528 0.0
C3598 C 0.82 0.44378 0.63368 0.0
C3599 C 0.82076 0.46349 0.62293 0.0
C3600 C 0.83386 0.47986 0.63132 0.0
C3601 C 0.94605 0.50377 0.62523 0.0
C3602 C 0.94863 0.52307 0.61376 0.0
C3603 C 0.92908 0.50144 0.64038 0.0
C3604 C 0.91443 0.51835 0.6443 0.0
C3605 C 0.91806 0.53817 0.63425 0.0
C3606 C 0.93518 0.54057 0.6192 0.0
C3607 C 0.89391 0.51439 0.65646 0.0
C3608 C 0.87993 0.49832 0.6486 0.0
C3609 C 0.88759 0.52669 0.67496 0.0
C3610 C 0.90189 0.54328 0.6846 0.0
C3611 C 0.89426 0.56439 0.6866 0.0
C3612 C 0.90732 0.57987 0.69666 0.0
C3613 C 0.92795 0.57435 0.70498 0.0
C3614 C 0.93561 0.55336 0.70313 0.0
C3615 C 0.92268 0.53786 0.69291 0.0
H3616 H 0.93804 0.58635 0.71277 0.0
H3617 H 0.80988 0.43112 0.62716 0.0
H3618 H 0.4934 0.821 0.69903 0.0
H3619 H 0.49543 0.85233 0.67467 0.0
H3620 H 0.54782 0.82228 0.63823 0.0
H3621 H 0.54531 0.79065 0.66213 0.0
H3622 H 0.5534 0.86842 0.65288 0.0
H3623 H 0.50405 0.82016 0.61485 0.0
H3624 H 0.47127 0.79755 0.61178 0.0
H3625 H 0.43008 0.8517 0.62559 0.0
H3626 H 0.46266 0.87456 0.62913 0.0
H3627 H 0.56262 0.93686 0.56212 0.0
H3628 H 0.55864 0.90471 0.58419 0.0
H3629 H 0.49453 0.92563 0.60513 0.0
H3630 H 0.49838 0.95804 0.58305 0.0
H3631 H 0.49408 0.88412 0.59907 0.0
H3632 H 0.54027 0.93308 0.63609 0.0
H3633 H 0.57141 0.95757 0.64045 0.0
H3634 H 0.61644 0.90521 0.63277 0.0
H3635 H 0.58553 0.88043 0.62825 0.0
C3636 C 0.50545 0.82125 0.68592 0.0
C3637 C 0.5193 0.80361 0.68242 0.0
C3638 C 0.50652 0.83902 0.672 0.0
C3639 C 0.5217 0.83951 0.65463 0.0
C3640 C 0.53599 0.82214 0.65155 0.0
C3641 C 0.53459 0.80418 0.66516 0.0
C3642 C 0.52257 0.85809 0.63956 0.0
C3643 C 0.54062 0.87175 0.64088 0.0
C3644 C 0.50541 0.86278 0.62458 0.0
C3645 C 0.48583 0.849 0.62259 0.0
C3646 C 0.48803 0.82719 0.61753 0.0
C3647 C 0.46947 0.81434 0.61563 0.0
C3648 C 0.44861 0.82316 0.61859 0.0
C3649 C 0.44625 0.84486 0.62341 0.0
C3650 C 0.46476 0.85777 0.62534 0.0
C3651 C 0.54753 0.93454 0.57117 0.0
C3652 C 0.53096 0.9502 0.57109 0.0
C3653 C 0.54526 0.91606 0.58379 0.0
C3654 C 0.52643 0.91281 0.59661 0.0
C3655 C 0.50927 0.92781 0.59548 0.0
C3656 C 0.51153 0.94636 0.58288 0.0
C3657 C 0.52516 0.89443 0.61207 0.0
C3658 C 0.50697 0.88085 0.61097 0.0
C3659 C 0.54195 0.89012 0.62769 0.0
C3660 C 0.56057 0.90493 0.63122 0.0
C3661 C 0.55681 0.9268 0.6351 0.0
C3662 C 0.57442 0.94074 0.63769 0.0
C3663 C 0.5959 0.93299 0.63672 0.0
C3664 C 0.59979 0.91123 0.63337 0.0
C3665 C 0.58223 0.89723 0.63078 0.0
H3666 H 0.60951 0.94382 0.63869 0.0
H3667 H 0.43426 0.81319 0.61707 0.0
H3668 H 0.26579 0.52301 0.68951 0.0
H3669 H 0.24529 0.51749 0.65505 0.0
H3670 H 0.1861 0.53902 0.68701 0.0
H3671 H 0.20639 0.54553 0.72091 0.0
H3672 H 0.18288 0.49848 0.66529 0.0
H3673 H 0.20645 0.5708 0.65421 0.0
H3674 H 0.23244 0.60045 0.64986 0.0
H3675 H 0.26158 0.56887 0.59415 0.0
H3676 H 0.23594 0.53884 0.59842 0.0
H3677 H 0.11042 0.54949 0.58592 0.0
H3678 H 0.14232 0.54763 0.61004 0.0
H3679 H 0.1618 0.4881 0.57999 0.0
H3680 H 0.12909 0.48928 0.55628 0.0
H3681 H 0.19028 0.54088 0.59663 0.0
H3682 H 0.16353 0.46591 0.61195 0.0
H3683 H 0.13288 0.441 0.61763 0.0
H3684 H 0.10623 0.48229 0.66753 0.0
H3685 H 0.13641 0.50774 0.66163 0.0
C3686 C 0.24849 0.52691 0.68907 0.0
C3687 C 0.23767 0.53435 0.70811 0.0
C3688 C 0.23682 0.52363 0.66944 0.0
C3689 C 0.21419 0.5276 0.66868 0.0
C3690 C 0.20352 0.53558 0.68741 0.0
C3691 C 0.21515 0.53915 0.70682 0.0
C3692 C 0.20117 0.523 0.64868 0.0
C3693 C 0.18478 0.50747 0.65011 0.0
C3694 C 0.20364 0.53477 0.62896 0.0
C3695 C 0.21961 0.55236 0.62694 0.0
C3696 C 0.21866 0.56999 0.64129 0.0
C3697 C 0.23325 0.58692 0.63877 0.0
C3698 C 0.24875 0.58649 0.62182 0.0
C3699 C 0.24965 0.56913 0.60734 0.0
C3700 C 0.23511 0.55214 0.60982 0.0
C3701 C 0.12156 0.53607 0.58423 0.0
C3702 C 0.11719 0.51943 0.56933 0.0
C3703 C 0.13974 0.53502 0.59808 0.0
C3704 C 0.15408 0.51752 0.59707 0.0
C3705 C 0.15053 0.50142 0.5814 0.0
C3706 C 0.13198 0.50221 0.56779 0.0
C3707 C 0.17215 0.5163 0.6132 0.0
C3708 C 0.18922 0.53106 0.61133 0.0
C3709 C 0.17017 0.50403 0.63264 0.0
C3710 C 0.1519 0.48892 0.63596 0.0
C3711 C 0.15089 0.46986 0.62381 0.0
C3712 C 0.13366 0.45561 0.62713 0.0
C3713 C 0.11753 0.46013 0.64282 0.0
C3714 C 0.11864 0.47888 0.65527 0.0
C3715 C 0.13576 0.49324 0.65189 0.0
H3716 H 0.10424 0.44905 0.64542 0.0
H3717 H 0.25998 0.59965 0.61984 0.0
H3718 H 0.45854 0.18992 0.72432 0.0
H3719 H 0.46 0.16737 0.69154 0.0
H3720 H 0.50533 0.21089 0.66116 0.0
H3721 H 0.50425 0.23354 0.6943 0.0
H3722 H 0.47297 0.19381 0.63117 0.0
H3723 H 0.52639 0.1699 0.68348 0.0
H3724 H 0.53982 0.1593 0.7203 0.0
H3725 H 0.49493 0.1068 0.72104 0.0
H3726 H 0.48095 0.11733 0.68436 0.0
H3727 H 0.52996 0.12121 0.56037 0.0
H3728 H 0.51664 0.14808 0.58636 0.0
H3729 H 0.47209 0.10218 0.61411 0.0
H3730 H 0.48525 0.07516 0.58771 0.0
H3731 H 0.50164 0.12068 0.64476 0.0
H3732 H 0.45027 0.14408 0.58998 0.0
H3733 H 0.43868 0.15512 0.55266 0.0
H3734 H 0.48235 0.20854 0.5555 0.0
H3735 H 0.49433 0.19773 0.59278 0.0
C3736 C 0.46885 0.19475 0.7107 0.0
C3737 C 0.4816 0.21334 0.71212 0.0
C3738 C 0.46952 0.18192 0.69189 0.0
C3739 C 0.48293 0.18733 0.67401 0.0
C3740 C 0.49483 0.20645 0.67479 0.0
C3741 C 0.49421 0.21935 0.69373 0.0
C3742 C 0.48578 0.172 0.6555 0.0
C3743 C 0.47941 0.17789 0.63406 0.0
C3744 C 0.4939 0.15112 0.65935 0.0
C3745 C 0.50245 0.14454 0.68128 0.0
C3746 C 0.51925 0.1562 0.69157 0.0
C3747 C 0.52698 0.15019 0.71241 0.0
C3748 C 0.51819 0.13242 0.72303 0.0
C3749 C 0.50169 0.12058 0.71281 0.0
C3750 C 0.49387 0.12656 0.69199 0.0
C3751 C 0.51688 0.11701 0.5716 0.0
C3752 C 0.50865 0.0961 0.57209 0.0
C3753 C 0.50924 0.1324 0.5864 0.0
C3754 C 0.49341 0.12713 0.60219 0.0
C3755 C 0.4843 0.10656 0.602 0.0
C3756 C 0.49169 0.09119 0.58685 0.0
C3757 C 0.48861 0.14233 0.6204 0.0
C3758 C 0.49487 0.13649 0.64185 0.0
C3759 C 0.48068 0.16326 0.61643 0.0
C3760 C 0.4733 0.17001 0.59413 0.0
C3761 C 0.45749 0.15812 0.5826 0.0
C3762 C 0.45083 0.16435 0.56146 0.0
C3763 C 0.45982 0.18249 0.55169 0.0
C3764 C 0.47541 0.19449 0.56309 0.0
C3765 C 0.4821 0.18835 0.58425 0.0
H3766 H 0.45468 0.18726 0.53531 0.0
H3767 H 0.52418 0.1278 0.73917 0.0
H3768 H 0.81544 0.54286 0.30734 0.0
H3769 H 0.83865 0.5404 0.34012 0.0
H3770 H 0.80617 0.48221 0.35911 0.0
H3771 H 0.78234 0.48509 0.32638 0.0
H3772 H 0.81614 0.50661 0.39488 0.0
H3773 H 0.85336 0.4786 0.33309 0.0
H3774 H 0.86672 0.47724 0.29475 0.0
H3775 H 0.9062 0.53262 0.30641 0.0
H3776 H 0.89273 0.5346 0.34472 0.0
H3777 H 0.92035 0.48386 0.4559 0.0
H3778 H 0.88991 0.47923 0.42996 0.0
H3779 H 0.89018 0.54654 0.41585 0.0
H3780 H 0.9204 0.55157 0.44166 0.0
H3781 H 0.89575 0.51 0.3788 0.0
H3782 H 0.85545 0.53576 0.44311 0.0
H3783 H 0.84205 0.53281 0.48131 0.0
H3784 H 0.80736 0.47575 0.46435 0.0
H3785 H 0.82164 0.47761 0.42638 0.0
C3786 C 0.81305 0.52979 0.31877 0.0
C3787 C 0.79738 0.51407 0.3145 0.0
C3788 C 0.82631 0.52832 0.33737 0.0
C3789 C 0.82443 0.51084 0.35168 0.0
C3790 C 0.8079 0.49572 0.34812 0.0
C3791 C 0.79437 0.49735 0.32955 0.0
C3792 C 0.84072 0.50798 0.36946 0.0
C3793 C 0.83356 0.50697 0.39142 0.0
C3794 C 0.86342 0.5081 0.36477 0.0
C3795 C 0.8719 0.50683 0.34179 0.0
C3796 C 0.86478 0.49059 0.32746 0.0
C3797 C 0.87238 0.4897 0.30572 0.0
C3798 C 0.88728 0.50485 0.29814 0.0
C3799 C 0.89465 0.52089 0.31231 0.0
C3800 C 0.88704 0.5219 0.33405 0.0
C3801 C 0.91364 0.49775 0.44763 0.0
C3802 C 0.92279 0.51809 0.45083 0.0
C3803 C 0.89621 0.49504 0.43297 0.0
C3804 C 0.88776 0.51256 0.42141 0.0
C3805 C 0.89649 0.5329 0.42489 0.0
C3806 C 0.91368 0.53572 0.4397 0.0
C3807 C 0.87113 0.50963 0.40417 0.0
C3808 C 0.87833 0.50933 0.38224 0.0
C3809 C 0.84857 0.50767 0.40898 0.0
C3810 C 0.84016 0.50655 0.43196 0.0
C3811 C 0.84549 0.52225 0.44763 0.0
C3812 C 0.83767 0.52081 0.46925 0.0
C3813 C 0.82403 0.504 0.4753 0.0
C3814 C 0.81813 0.48864 0.45971 0.0
C3815 C 0.82617 0.48984 0.43816 0.0
H3816 H 0.8179 0.50296 0.49201 0.0
H3817 H 0.89313 0.50414 0.2813 0.0
H3818 H 0.52602 0.79704 0.32651 0.0
H3819 H 0.52364 0.81961 0.35934 0.0
H3820 H 0.56961 0.86351 0.33042 0.0
H3821 H 0.57313 0.84038 0.29826 0.0
H3822 H 0.57634 0.86251 0.37216 0.0
H3823 H 0.51229 0.87007 0.32671 0.0
H3824 H 0.47934 0.85822 0.30665 0.0
H3825 H 0.45139 0.83566 0.36724 0.0
H3826 H 0.48434 0.84712 0.38761 0.0
H3827 H 0.54043 0.96296 0.41604 0.0
H3828 H 0.55267 0.93147 0.39568 0.0
H3829 H 0.50837 0.89238 0.43332 0.0
H3830 H 0.49562 0.92393 0.45336 0.0
H3831 H 0.50152 0.88739 0.39118 0.0
H3832 H 0.56702 0.88901 0.43642 0.0
H3833 H 0.60146 0.90275 0.45239 0.0
H3834 H 0.62754 0.91218 0.38756 0.0
H3835 H 0.59331 0.89929 0.37111 0.0
C3836 C 0.53613 0.81116 0.3274 0.0
C3837 C 0.54952 0.81704 0.30955 0.0
C3838 C 0.53452 0.82422 0.34609 0.0
C3839 C 0.54598 0.8436 0.34714 0.0
C3840 C 0.56043 0.84877 0.32998 0.0
C3841 C 0.56226 0.8356 0.31146 0.0
C3842 C 0.54198 0.85922 0.36525 0.0
C3843 C 0.56 0.86809 0.37629 0.0
C3844 C 0.52062 0.86626 0.37087 0.0
C3845 C 0.5009 0.85917 0.35863 0.0
C3846 C 0.4992 0.8624 0.33572 0.0
C3847 C 0.48052 0.85579 0.3243 0.0
C3848 C 0.46332 0.84612 0.33565 0.0
C3849 C 0.46475 0.84309 0.35846 0.0
C3850 C 0.48343 0.84963 0.36995 0.0
C3851 C 0.53354 0.94761 0.42027 0.0
C3852 C 0.51676 0.94603 0.43609 0.0
C3853 C 0.54074 0.92953 0.40873 0.0
C3854 C 0.53153 0.90946 0.41298 0.0
C3855 C 0.51571 0.90768 0.4297 0.0
C3856 C 0.50839 0.92576 0.44113 0.0
C3857 C 0.53597 0.89107 0.39803 0.0
C3858 C 0.51792 0.88166 0.38746 0.0
C3859 C 0.55738 0.88414 0.39235 0.0
C3860 C 0.57743 0.8933 0.4025 0.0
C3861 C 0.57992 0.89441 0.42556 0.0
C3862 C 0.59942 0.90208 0.43472 0.0
C3863 C 0.61654 0.90857 0.42107 0.0
C3864 C 0.61422 0.90745 0.39819 0.0
C3865 C 0.59477 0.89997 0.38892 0.0
H3866 H 0.63165 0.91433 0.42824 0.0
H3867 H 0.44885 0.84104 0.32679 0.0
H3868 H 0.23918 0.57367 0.33989 0.0
H3869 H 0.20636 0.56149 0.35891 0.0
H3870 H 0.20905 0.50206 0.32321 0.0
H3871 H 0.24279 0.51337 0.30509 0.0
H3872 H 0.16676 0.53152 0.32178 0.0
H3873 H 0.21761 0.49263 0.36837 0.0
H3874 H 0.25025 0.48911 0.39215 0.0
H3875 H 0.22383 0.53595 0.43666 0.0
H3876 H 0.19116 0.53998 0.41295 0.0
H3877 H 0.09239 0.48314 0.4135 0.0
H3878 H 0.12408 0.48385 0.38906 0.0
H3879 H 0.11371 0.55105 0.37773 0.0
H3880 H 0.08193 0.55062 0.40217 0.0
H3881 H 0.16008 0.51203 0.40085 0.0
H3882 H 0.1254 0.56122 0.33532 0.0
H3883 H 0.09258 0.56557 0.31177 0.0
H3884 H 0.08777 0.49752 0.30513 0.0
H3885 H 0.12011 0.49282 0.32931 0.0
C3886 C 0.23326 0.55776 0.33648 0.0
C3887 C 0.24361 0.54461 0.32074 0.0
C3888 C 0.21438 0.55092 0.34725 0.0
C3889 C 0.20536 0.531 0.34226 0.0
C3890 C 0.21582 0.51756 0.32708 0.0
C3891 C 0.23498 0.52417 0.31664 0.0
C3892 C 0.18423 0.52492 0.352 0.0
C3893 C 0.16532 0.52699 0.33899 0.0
C3894 C 0.18246 0.51917 0.37444 0.0
C3895 C 0.20205 0.51676 0.38876 0.0
C3896 C 0.21886 0.50234 0.3831 0.0
C3897 C 0.23734 0.50022 0.3966 0.0
C3898 C 0.23914 0.51235 0.41587 0.0
C3899 C 0.22243 0.52659 0.42171 0.0
C3900 C 0.20392 0.52878 0.40826 0.0
C3901 C 0.09637 0.49797 0.4053 0.0
C3902 C 0.08473 0.51689 0.40997 0.0
C3903 C 0.11456 0.49832 0.39141 0.0
C3904 C 0.12117 0.51748 0.38168 0.0
C3905 C 0.10865 0.53605 0.38491 0.0
C3906 C 0.09052 0.53577 0.39892 0.0
C3907 C 0.14264 0.51875 0.37066 0.0
C3908 C 0.1616 0.51607 0.38351 0.0
C3909 C 0.14453 0.52402 0.34816 0.0
C3910 C 0.12503 0.5267 0.33401 0.0
C3911 C 0.11724 0.54722 0.32887 0.0
C3912 C 0.09868 0.54974 0.31555 0.0
C3913 C 0.08805 0.53182 0.30704 0.0
C3914 C 0.09591 0.51136 0.3119 0.0
C3915 C 0.11425 0.50875 0.32552 0.0
H3916 H 0.07376 0.53379 0.29663 0.0
H3917 H 0.25346 0.51068 0.4263 0.0
H3918 H 0.53607 0.24071 0.32562 0.0
H3919 H 0.54452 0.2107 0.35042 0.0
H3920 H 0.47576 0.20487 0.36572 0.0
H3921 H 0.46753 0.23512 0.34181 0.0
H3922 H 0.49779 0.20159 0.40187 0.0
H3923 H 0.507 0.17125 0.32741 0.0
H3924 H 0.52501 0.16936 0.29099 0.0
H3925 H 0.58726 0.15897 0.32243 0.0
H3926 H 0.56966 0.16108 0.35901 0.0
H3927 H 0.46922 0.10032 0.42995 0.0
H3928 H 0.4776 0.13272 0.41019 0.0
H3929 H 0.54674 0.12121 0.41937 0.0
H3930 H 0.53838 0.08781 0.43918 0.0
H3931 H 0.5352 0.13568 0.37601 0.0
H3932 H 0.52531 0.15954 0.44986 0.0
H3933 H 0.5075 0.16009 0.48636 0.0
H3934 H 0.44757 0.1821 0.45675 0.0
H3935 H 0.46493 0.18147 0.42003 0.0
C3936 C 0.52283 0.23292 0.33429 0.0
C3937 C 0.50116 0.24029 0.33189 0.0
C3938 C 0.52764 0.21574 0.34842 0.0
C3939 C 0.51077 0.20533 0.35994 0.0
C3940 C 0.48914 0.21266 0.35725 0.0
C3941 C 0.48441 0.22995 0.34352 0.0
C3942 C 0.51511 0.18679 0.37484 0.0
C3943 C 0.506 0.18722 0.39614 0.0
C3944 C 0.5267 0.16825 0.36794 0.0
C3945 C 0.53707 0.16662 0.34592 0.0
C3946 C 0.52454 0.16869 0.32653 0.0
C3947 C 0.53467 0.16757 0.30587 0.0
C3948 C 0.55728 0.16419 0.30442 0.0
C3949 C 0.56977 0.16169 0.32359 0.0
C3950 C 0.55973 0.16285 0.34428 0.0
C3951 C 0.4863 0.10445 0.42783 0.0
C3952 C 0.50315 0.09146 0.43643 0.0
C3953 C 0.49104 0.12314 0.41654 0.0
C3954 C 0.51276 0.12964 0.41365 0.0
C3955 C 0.52983 0.11655 0.4216 0.0
C3956 C 0.52505 0.09756 0.43299 0.0
C3957 C 0.51686 0.15028 0.40236 0.0
C3958 C 0.52754 0.15028 0.38187 0.0
C3959 C 0.50683 0.16931 0.41 0.0
C3960 C 0.49646 0.17047 0.43217 0.0
C3961 C 0.50833 0.16448 0.45113 0.0
C3962 C 0.4983 0.16478 0.47186 0.0
C3963 C 0.4764 0.17109 0.47387 0.0
C3964 C 0.46452 0.17722 0.45517 0.0
C3965 C 0.47448 0.17698 0.43439 0.0
H3966 H 0.46863 0.17123 0.48992 0.0
H3967 H 0.56515 0.1635 0.28846 0.0
H3968 H 0.7025 0.80778 0.48023 0.0
H3969 H 0.67362 0.83501 0.47589 0.0
H3970 H 0.67966 0.85108 0.54494 0.0
H3971 H 0.70767 0.82341 0.54934 0.0
H3972 H 0.63903 0.84693 0.53589 0.0
H3973 H 0.69903 0.88297 0.49937 0.0
H3974 H 0.72782 0.88788 0.47134 0.0
H3975 H 0.67967 0.88381 0.41977 0.0
H3976 H 0.65065 0.8785 0.44749 0.0
H3977 H 0.605 0.96035 0.52968 0.0
H3978 H 0.62566 0.92693 0.53326 0.0
H3979 H 0.58286 0.89698 0.48606 0.0
H3980 H 0.56212 0.93033 0.4822 0.0
H3981 H 0.63763 0.90498 0.48044 0.0
H3982 H 0.57724 0.87215 0.51789 0.0
H3983 H 0.54898 0.86597 0.5461 0.0
H3984 H 0.59859 0.86324 0.59631 0.0
H3985 H 0.62697 0.87063 0.56865 0.0
C3986 C 0.69781 0.81742 0.49432 0.0
C3987 C 0.70725 0.81359 0.51511 0.0
C3988 C 0.68133 0.83298 0.49186 0.0
C3989 C 0.67439 0.84524 0.51009 0.0
C3990 C 0.6845 0.8418 0.53064 0.0
C3991 C 0.70062 0.82609 0.53315 0.0
C3992 C 0.65598 0.86097 0.50837 0.0
C3993 C 0.6389 0.85976 0.52388 0.0
C3994 C 0.65519 0.87724 0.49213 0.0
C3995 C 0.67272 0.88003 0.47549 0.0
C3996 C 0.69462 0.88287 0.48204 0.0
C3997 C 0.71097 0.88577 0.46621 0.0
C3998 C 0.70559 0.88606 0.44379 0.0
C3999 C 0.68384 0.8835 0.43714 0.0
C4000 C 0.66744 0.88053 0.4529 0.0
C4001 C 0.59967 0.94655 0.52039 0.0
C4002 C 0.58211 0.94814 0.5054 0.0
C4003 C 0.61144 0.92743 0.52254 0.0
C4004 C 0.60586 0.90957 0.5098 0.0
C4005 C 0.58747 0.91064 0.49595 0.0
C4006 C 0.5756 0.92972 0.49383 0.0
C4007 C 0.62132 0.89129 0.50846 0.0
C4008 C 0.63779 0.89205 0.49234 0.0
C4009 C 0.62161 0.8747 0.5242 0.0
C4010 C 0.60425 0.87238 0.54116 0.0
C4011 C 0.58208 0.87095 0.53502 0.0
C4012 C 0.56601 0.8671 0.55094 0.0
C4013 C 0.57195 0.86426 0.57303 0.0
C4014 C 0.59392 0.86564 0.57928 0.0
C4015 C 0.61 0.86977 0.56349 0.0
H4016 H 0.55952 0.86106 0.5853 0.0
H4017 H 0.71827 0.88835 0.43156 0.0
H4018 H 0.71898 0.22033 0.52494 0.0
H4019 H 0.69271 0.19212 0.53417 0.0
H4020 H 0.66128 0.20056 0.471 0.0
H4021 H 0.68762 0.22799 0.46139 0.0
H4022 H 0.63167 0.20052 0.50577 0.0
H4023 H 0.69412 0.15945 0.47969 0.0
H4024 H 0.73243 0.14682 0.48033 0.0
H4025 H 0.72363 0.12287 0.54608 0.0
H4026 H 0.68531 0.13563 0.54595 0.0
H4027 H 0.57204 0.11324 0.47177 0.0
H4028 H 0.59792 0.14165 0.47859 0.0
H4029 H 0.6151 0.11346 0.54124 0.0
H4030 H 0.58908 0.08437 0.5342 0.0
H4031 H 0.65153 0.12443 0.51717 0.0
H4032 H 0.58687 0.16011 0.5405 0.0
H4033 H 0.54794 0.17057 0.53814 0.0
H4034 H 0.56034 0.20377 0.4775 0.0
H4035 H 0.5993 0.19329 0.47934 0.0
C4036 C 0.70666 0.21597 0.5129 0.0
C4037 C 0.7053 0.22672 0.49251 0.0
C4038 C 0.69158 0.19993 0.51827 0.0
C4039 C 0.67488 0.19439 0.50336 0.0
C4040 C 0.67381 0.20477 0.4829 0.0
C4041 C 0.68889 0.22057 0.47748 0.0
C4042 C 0.65823 0.17792 0.50872 0.0
C4043 C 0.63601 0.18389 0.50833 0.0
C4044 C 0.66388 0.15633 0.51282 0.0
C4045 C 0.68696 0.14884 0.51296 0.0
C4046 C 0.70042 0.15173 0.49439 0.0
C4047 C 0.72212 0.14448 0.49463 0.0
C4048 C 0.73049 0.13413 0.51327 0.0
C4049 C 0.71715 0.13094 0.53168 0.0
C4050 C 0.69544 0.13819 0.53154 0.0
C4051 C 0.58107 0.11308 0.48718 0.0
C4052 C 0.57851 0.09637 0.50245 0.0
C4053 C 0.59585 0.12949 0.4911 0.0
C4054 C 0.60837 0.12987 0.51052 0.0
C4055 C 0.60556 0.11353 0.52615 0.0
C4056 C 0.5906 0.09698 0.52221 0.0
C4057 C 0.62498 0.14694 0.51346 0.0
C4058 C 0.64717 0.14115 0.51535 0.0
C4059 C 0.61932 0.16874 0.51082 0.0
C4060 C 0.59606 0.17588 0.51006 0.0
C4061 C 0.58131 0.16963 0.52665 0.0
C4062 C 0.55922 0.17555 0.52539 0.0
C4063 C 0.55168 0.18782 0.50768 0.0
C4064 C 0.56622 0.19429 0.49124 0.0
C4065 C 0.58834 0.18842 0.49241 0.0
H4066 H 0.53455 0.19232 0.50669 0.0
H4067 H 0.74729 0.12851 0.51341 0.0
H4068 H 0.82025 0.72806 0.52645 0.0
H4069 H 0.84525 0.69724 0.52646 0.0
H4070 H 0.85788 0.70675 0.4572 0.0
H4071 H 0.83342 0.73815 0.45732 0.0
H4072 H 0.84928 0.65966 0.47721 0.0
H4073 H 0.89421 0.72317 0.47966 0.0
H4074 H 0.9044 0.75866 0.4938 0.0
H4075 H 0.91265 0.73262 0.55884 0.0
H4076 H 0.90201 0.69704 0.54516 0.0
H4077 H 0.94353 0.58871 0.4823 0.0
H4078 H 0.91864 0.61804 0.47163 0.0
H4079 H 0.91532 0.63843 0.53958 0.0
H4080 H 0.94008 0.60983 0.55016 0.0
H4081 H 0.92067 0.67163 0.51432 0.0
H4082 H 0.87384 0.60988 0.51443 0.0
H4083 H 0.86052 0.57444 0.50306 0.0
H4084 H 0.85409 0.59629 0.43621 0.0
H4085 H 0.86764 0.63181 0.44713 0.0
C4086 C 0.828 0.72326 0.51114 0.0
C4087 C 0.82484 0.73529 0.49184 0.0
C4088 C 0.84231 0.70577 0.51118 0.0
C4089 C 0.85338 0.69979 0.49184 0.0
C4090 C 0.84941 0.71111 0.47225 0.0
C4091 C 0.83547 0.72896 0.47233 0.0
C4092 C 0.87025 0.68271 0.4927 0.0
C4093 C 0.8651 0.66228 0.48489 0.0
C4094 C 0.89062 0.68615 0.50316 0.0
C4095 C 0.89702 0.70751 0.51144 0.0
C4096 C 0.8979 0.72507 0.49703 0.0
C4097 C 0.90382 0.74519 0.50496 0.0
C4098 C 0.9091 0.74791 0.52722 0.0
C4099 C 0.9085 0.7305 0.54161 0.0
C4100 C 0.90252 0.71036 0.53378 0.0
C4101 C 0.93755 0.59956 0.49487 0.0
C4102 C 0.9438 0.5969 0.51707 0.0
C4103 C 0.92323 0.61622 0.4888 0.0
C4104 C 0.91499 0.63042 0.50483 0.0
C4105 C 0.92147 0.6278 0.52688 0.0
C4106 C 0.93564 0.61131 0.53291 0.0
C4107 C 0.8997 0.64822 0.49915 0.0
C4108 C 0.90508 0.66892 0.50618 0.0
C4109 C 0.87946 0.64491 0.48822 0.0
C4110 C 0.87204 0.62339 0.48153 0.0
C4111 C 0.86987 0.60704 0.49725 0.0
C4112 C 0.86221 0.58697 0.49091 0.0
C4113 C 0.85652 0.58314 0.46893 0.0
C4114 C 0.85855 0.5993 0.45322 0.0
C4115 C 0.86622 0.6194 0.45947 0.0
H4116 H 0.85038 0.56772 0.46408 0.0
H4117 H 0.91371 0.76349 0.53332 0.0
H4118 H 0.28924 0.84614 0.48671 0.0
H4119 H 0.32046 0.86935 0.48511 0.0
H4120 H 0.35863 0.82389 0.52261 0.0
H4121 H 0.32619 0.80193 0.52734 0.0
H4122 H 0.37029 0.85822 0.5363 0.0
H4123 H 0.36451 0.83582 0.4621 0.0
H4124 H 0.34721 0.82777 0.42627 0.0
H4125 H 0.33015 0.89388 0.41815 0.0
H4126 H 0.34706 0.9023 0.45407 0.0
H4127 H 0.46031 0.92897 0.51878 0.0
H4128 H 0.43785 0.89706 0.51363 0.0
H4129 H 0.38327 0.93661 0.49368 0.0
H4130 H 0.40563 0.96845 0.49839 0.0
H4131 H 0.38627 0.90016 0.46891 0.0
H4132 H 0.39047 0.91842 0.54844 0.0
H4133 H 0.412 0.92376 0.58252 0.0
H4134 H 0.43825 0.86025 0.57692 0.0
H4135 H 0.41696 0.85461 0.54279 0.0
C4136 C 0.30401 0.84107 0.49513 0.0
C4137 C 0.30466 0.82207 0.50758 0.0
C4138 C 0.3223 0.85426 0.49359 0.0
C4139 C 0.3424 0.84835 0.50319 0.0
C4140 C 0.34345 0.82899 0.51493 0.0
C4141 C 0.32481 0.81616 0.51731 0.0
C4142 C 0.36171 0.86306 0.50204 0.0
C4143 C 0.37397 0.86695 0.52133 0.0
C4144 C 0.36703 0.8746 0.4826 0.0
C4145 C 0.35697 0.86966 0.46086 0.0
C4146 C 0.35697 0.84863 0.45273 0.0
C4147 C 0.34724 0.844 0.4324 0.0
C4148 C 0.33756 0.8603 0.41996 0.0
C4149 C 0.33765 0.88127 0.4278 0.0
C4150 C 0.34735 0.88598 0.44813 0.0
C4151 C 0.44364 0.93086 0.51294 0.0
C4152 C 0.43469 0.95132 0.50927 0.0
C4153 C 0.43077 0.91259 0.51014 0.0
C4154 C 0.40871 0.91445 0.50372 0.0
C4155 C 0.40019 0.93476 0.4988 0.0
C4156 C 0.41301 0.95299 0.50156 0.0
C4157 C 0.39394 0.8956 0.50321 0.0
C4158 C 0.38265 0.89099 0.48363 0.0
C4159 C 0.39009 0.88288 0.5221 0.0
C4160 C 0.40225 0.88615 0.54302 0.0
C4161 C 0.40085 0.90562 0.5545 0.0
C4162 C 0.41301 0.90869 0.57382 0.0
C4163 C 0.4265 0.89236 0.58188 0.0
C4164 C 0.42777 0.87288 0.5707 0.0
C4165 C 0.41564 0.86973 0.55139 0.0
H4166 H 0.43595 0.89478 0.5968 0.0
H4167 H 0.33001 0.85668 0.40423 0.0
H4168 H 0.24549 0.35507 0.52001 0.0
H4169 H 0.21389 0.37839 0.52538 0.0
H4170 H 0.17068 0.32466 0.51758 0.0
H4171 H 0.20227 0.30135 0.51105 0.0
H4172 H 0.15688 0.35567 0.49303 0.0
H4173 H 0.17764 0.3512 0.56846 0.0
H4174 H 0.202 0.35221 0.60093 0.0
H4175 H 0.21578 0.41823 0.58852 0.0
H4176 H 0.19179 0.41756 0.55577 0.0
H4177 H 0.06981 0.43014 0.50249 0.0
H4178 H 0.09281 0.39975 0.51336 0.0
H4179 H 0.14813 0.44178 0.52061 0.0
H4180 H 0.1251 0.47218 0.51083 0.0
H4181 H 0.15055 0.41179 0.55047 0.0
H4182 H 0.13597 0.41297 0.47083 0.0
H4183 H 0.11088 0.41246 0.43885 0.0
H4184 H 0.085 0.35236 0.46025 0.0
H4185 H 0.1098 0.35265 0.4925 0.0
C4186 C 0.22929 0.34815 0.5195 0.0
C4187 C 0.22649 0.32632 0.5149 0.0
C4188 C 0.21118 0.3615 0.5229 0.0
C4189 C 0.1898 0.35331 0.52213 0.0
C4190 C 0.18697 0.33137 0.51833 0.0
C4191 C 0.2051 0.31801 0.51479 0.0
C4192 C 0.17055 0.36802 0.52327 0.0
C4193 C 0.15526 0.36761 0.50591 0.0
C4194 C 0.16842 0.38382 0.5399 0.0
C4195 C 0.183 0.38427 0.55954 0.0
C4196 C 0.186 0.36589 0.57253 0.0
C4197 C 0.19973 0.36642 0.59102 0.0
C4198 C 0.21046 0.38526 0.59676 0.0
C4199 C 0.20747 0.40364 0.58405 0.0
C4200 C 0.19378 0.4032 0.56554 0.0
C4201 C 0.08679 0.43292 0.50674 0.0
C4202 C 0.09574 0.45351 0.50537 0.0
C4203 C 0.09995 0.41552 0.51288 0.0
C4204 C 0.12239 0.41835 0.5172 0.0
C4205 C 0.13093 0.43911 0.51721 0.0
C4206 C 0.11773 0.45651 0.51147 0.0
C4207 C 0.13754 0.39984 0.51986 0.0
C4208 C 0.15201 0.39953 0.5379 0.0
C4209 C 0.13896 0.38338 0.50387 0.0
C4210 C 0.12458 0.38292 0.48414 0.0
C4211 C 0.1249 0.39967 0.46871 0.0
C4212 C 0.11072 0.39943 0.45056 0.0
C4213 C 0.09631 0.38242 0.44755 0.0
C4214 C 0.09615 0.36554 0.46262 0.0
C4215 C 0.11026 0.36572 0.48082 0.0
H4216 H 0.0853 0.38229 0.43353 0.0
H4217 H 0.22107 0.38563 0.61109 0.0
H4218 H 0.29564 0.18445 0.54129 0.0
H4219 H 0.32704 0.16126 0.53654 0.0
H4220 H 0.35507 0.20576 0.49031 0.0
H4221 H 0.32222 0.22799 0.49299 0.0
H4222 H 0.36297 0.16997 0.47495 0.0
H4223 H 0.37504 0.19672 0.54672 0.0
H4224 H 0.36754 0.20701 0.58528 0.0
H4225 H 0.35458 0.14164 0.60167 0.0
H4226 H 0.36164 0.13099 0.56315 0.0
H4227 H 0.46269 0.10362 0.48939 0.0
H4228 H 0.43616 0.13326 0.48635 0.0
H4229 H 0.38651 0.09369 0.51575 0.0
H4230 H 0.41291 0.06436 0.51888 0.0
H4231 H 0.3957 0.13202 0.53886 0.0
H4232 H 0.38222 0.10831 0.46252 0.0
H4233 H 0.39576 0.1006 0.42499 0.0
H4234 H 0.41901 0.16491 0.41919 0.0
H4235 H 0.40568 0.17295 0.45674 0.0
C4236 C 0.30825 0.18933 0.52984 0.0
C4237 C 0.306 0.20814 0.51732 0.0
C4238 C 0.32661 0.17615 0.52751 0.0
C4239 C 0.34388 0.1818 0.51339 0.0
C4240 C 0.34209 0.20093 0.50138 0.0
C4241 C 0.32334 0.21387 0.5032 0.0
C4242 C 0.3631 0.16712 0.51052 0.0
C4243 C 0.3703 0.162 0.48905 0.0
C4244 C 0.37318 0.15674 0.52875 0.0
C4245 C 0.36873 0.16309 0.55196 0.0
C4246 C 0.37042 0.18456 0.5585 0.0
C4247 C 0.36627 0.19045 0.58036 0.0
C4248 C 0.36054 0.175 0.5959 0.0
C4249 C 0.35899 0.1536 0.58961 0.0
C4250 C 0.36309 0.14763 0.56777 0.0
C4251 C 0.44583 0.10105 0.49422 0.0
C4252 C 0.43961 0.08169 0.50399 0.0
C4253 C 0.43076 0.118 0.49268 0.0
C4254 C 0.40941 0.11568 0.50098 0.0
C4255 C 0.40291 0.09581 0.5093 0.0
C4256 C 0.41788 0.079 0.51084 0.0
C4257 C 0.39443 0.13427 0.50348 0.0
C4258 C 0.38831 0.14023 0.52492 0.0
C4259 C 0.386 0.14584 0.48535 0.0
C4260 C 0.39311 0.14118 0.46247 0.0
C4261 C 0.39026 0.12078 0.45325 0.0
C4262 C 0.39787 0.11636 0.43197 0.0
C4263 C 0.40827 0.13225 0.41972 0.0
C4264 C 0.41094 0.15263 0.42868 0.0
C4265 C 0.40331 0.15714 0.44993 0.0
H4266 H 0.41423 0.12877 0.40329 0.0
H4267 H 0.35734 0.1796 0.61282 0.0
H4268 H 0.85563 0.28725 0.47804 0.0
H4269 H 0.87848 0.31879 0.48172 0.0
H4270 H 0.82771 0.3502 0.51915 0.0
H4271 H 0.80488 0.31814 0.51647 0.0
H4272 H 0.85019 0.37526 0.48269 0.0
H4273 H 0.86539 0.33313 0.54825 0.0
H4274 H 0.87489 0.29947 0.56715 0.0
H4275 H 0.93516 0.29576 0.53086 0.0
H4276 H 0.92589 0.3293 0.51156 0.0
H4277 H 0.91368 0.45969 0.52872 0.0
H4278 H 0.88847 0.43062 0.52034 0.0
H4279 H 0.94293 0.39085 0.50057 0.0
H4280 H 0.96828 0.41977 0.50914 0.0
H4281 H 0.91796 0.36971 0.52767 0.0
H4282 H 0.90593 0.41043 0.46314 0.0
H4283 H 0.89677 0.44033 0.4384 0.0
H4284 H 0.83237 0.44427 0.46655 0.0
H4285 H 0.8413 0.41477 0.49185 0.0
C4286 C 0.8493 0.30071 0.48731 0.0
C4287 C 0.8285 0.29991 0.49735 0.0
C4288 C 0.86236 0.31882 0.4892 0.0
C4289 C 0.85485 0.33671 0.50086 0.0
C4290 C 0.83377 0.33648 0.51009 0.0
C4291 C 0.82073 0.31818 0.50847 0.0
C4292 C 0.86952 0.35524 0.50398 0.0
C4293 C 0.8648 0.37432 0.49287 0.0
C4294 C 0.88904 0.3535 0.51641 0.0
C4295 C 0.89487 0.33362 0.52836 0.0
C4296 C 0.88061 0.32507 0.54422 0.0
C4297 C 0.88596 0.30603 0.55502 0.0
C4298 C 0.9056 0.29546 0.55018 0.0
C4299 C 0.91996 0.30396 0.53459 0.0
C4300 C 0.91468 0.323 0.52375 0.0
C4301 C 0.92031 0.44483 0.52237 0.0
C4302 C 0.94306 0.44203 0.51977 0.0
C4303 C 0.90583 0.42824 0.51746 0.0
C4304 C 0.91375 0.40851 0.50977 0.0
C4305 C 0.9364 0.40589 0.50656 0.0
C4306 C 0.95089 0.42248 0.51142 0.0
C4307 C 0.89862 0.39018 0.50656 0.0
C4308 C 0.90329 0.37097 0.51762 0.0
C4309 C 0.87927 0.39171 0.49367 0.0
C4310 C 0.8744 0.41053 0.47962 0.0
C4311 C 0.88996 0.41796 0.46439 0.0
C4312 C 0.88478 0.43482 0.4502 0.0
C4313 C 0.86401 0.44429 0.45096 0.0
C4314 C 0.84848 0.43706 0.46605 0.0
C4315 C 0.8536 0.42027 0.48034 0.0
H4316 H 0.85987 0.45709 0.43973 0.0
H4317 H 0.9097 0.28071 0.55853 0.0
H4318 H 0.21805 0.71475 0.49986 0.0
H4319 H 0.18598 0.69153 0.49857 0.0
H4320 H 0.20375 0.66486 0.56171 0.0
H4321 H 0.23537 0.68842 0.56353 0.0
H4322 H 0.19302 0.63376 0.53199 0.0
H4323 H 0.1622 0.69866 0.55885 0.0
H4324 H 0.1542 0.73725 0.55957 0.0
H4325 H 0.12116 0.73235 0.49717 0.0
H4326 H 0.12929 0.69376 0.49588 0.0
H4327 H 0.0931 0.57484 0.53824 0.0
H4328 H 0.12123 0.60076 0.54904 0.0
H4329 H 0.11183 0.63409 0.48747 0.0
H4330 H 0.08398 0.60845 0.47668 0.0
H4331 H 0.11759 0.66188 0.52137 0.0
H4332 H 0.15279 0.5979 0.49289 0.0
H4333 H 0.16025 0.55917 0.4925 0.0
H4334 H 0.18442 0.56252 0.559 0.0
H4335 H 0.1769 0.60128 0.55983 0.0
C4336 C 0.21502 0.70418 0.51363 0.0
C4337 C 0.22946 0.70351 0.53177 0.0
C4338 C 0.1967 0.69083 0.51283 0.0
C4339 C 0.1924 0.67648 0.5301 0.0
C4340 C 0.20677 0.6757 0.54815 0.0
C4341 C 0.22496 0.68914 0.54906 0.0
C4342 C 0.17307 0.66212 0.52921 0.0
C4343 C 0.17649 0.63994 0.53004 0.0
C4344 C 0.15149 0.67012 0.5265 0.0
C4345 C 0.14658 0.69334 0.52716 0.0
C4346 C 0.15342 0.70584 0.54517 0.0
C4347 C 0.14883 0.72771 0.5457 0.0
C4348 C 0.13724 0.73726 0.52839 0.0
C4349 C 0.13017 0.72494 0.51055 0.0
C4350 C 0.13477 0.70306 0.50991 0.0
C4351 C 0.09684 0.58785 0.52719 0.0
C4352 C 0.08656 0.58936 0.50647 0.0
C4353 C 0.11296 0.60262 0.53333 0.0
C4354 C 0.11887 0.61922 0.51891 0.0
C4355 C 0.10764 0.62142 0.49884 0.0
C4356 C 0.09177 0.60664 0.49265 0.0
C4357 C 0.13762 0.63358 0.52374 0.0
C4358 C 0.1341 0.65575 0.5236 0.0
C4359 C 0.1591 0.62559 0.52713 0.0
C4360 C 0.16406 0.60241 0.52651 0.0
C4361 C 0.15959 0.59035 0.50746 0.0
C4362 C 0.16385 0.5684 0.50715 0.0
C4363 C 0.17274 0.55838 0.52574 0.0
C4364 C 0.1775 0.5703 0.54463 0.0
C4365 C 0.17327 0.59226 0.54502 0.0
H4366 H 0.17598 0.54138 0.52549 0.0
H4367 H 0.13368 0.7542 0.52884 0.0
loop_
_geom_bond_atom_site_label_1
_geom_bond_atom_site_label_2
_geom_bond_distance
_geom_bond_site_symmetry_2
_ccdc_geom_bond_type
H0 C1 0.949 . S
C1 H0 0.949 . S
C1 C2 1.395 . S
C1 C3 1.391 . S
C2 C1 1.395 . S
C2 C5 1.390 . S
C3 C1 1.391 . S
C3 C7 1.387 . S
C3 C8 1.491 . S
H4 C5 0.950 . S
C5 C2 1.390 . S
C5 H4 0.950 . S
C5 C6 1.378 . S
C6 C5 1.378 . S
C6 C7 1.409 . S
C7 C3 1.387 . S
C7 C6 1.409 . S
C7 H9 0.951 . S
C8 C3 1.491 . S
C8 C10 1.382 . S
C8 C12 1.404 . S
H9 C7 0.951 . S
C10 C8 1.382 . S
C10 C11 1.390 . S
C10 H15 0.949 . S
C11 C10 1.390 . S
C11 C16 1.399 . S
C12 C8 1.404 . S
C12 H13 0.950 . S
C12 C14 1.375 . S
H13 C12 0.950 . S
C14 C12 1.375 . S
C14 C16 1.382 . S
C14 H18 0.950 1_455 S
H15 C10 0.949 . S
C16 C11 1.399 . S
C16 C14 1.382 . S
C16 H17 0.952 . S
H17 C16 0.952 . S
H18 C14 0.950 1_655 S
H19 C20 0.949 . S
C20 H19 0.949 . S
C20 C21 1.395 . S
C20 C22 1.391 . S
C21 C20 1.395 . S
C21 C24 1.390 . S
C22 C20 1.391 . S
C22 C26 1.387 . S
C22 C27 1.491 . S
H23 C24 0.950 . S
C24 C21 1.390 . S
C24 H23 0.950 . S
C24 C25 1.378 . S
C25 C24 1.378 . S
C25 C26 1.409 . S
C26 C22 1.387 . S
C26 C25 1.409 . S
C26 H28 0.951 . S
C27 C22 1.491 . S
C27 C29 1.382 . S
C27 C31 1.404 . S
H28 C26 0.951 . S
C29 C27 1.382 . S
C29 C30 1.390 . S
C29 H34 0.949 . S
C30 C29 1.390 . S
C30 C35 1.399 . S
C31 C27 1.404 . S
C31 H32 0.950 . S
C31 C33 1.375 . S
H32 C31 0.950 . S
C33 C31 1.375 . S
C33 C35 1.382 . S
C33 H37 0.950 . S
H34 C29 0.949 . S
C35 C30 1.399 . S
C35 C33 1.382 . S
C35 H36 0.952 . S
H36 C35 0.952 . S
H37 C33 0.950 . S
H38 C39 0.949 . S
C39 H38 0.949 . S
C39 C40 1.395 . S
C39 C41 1.391 . S
C40 C39 1.395 . S
C40 C43 1.390 . S
C41 C39 1.391 . S
C41 C45 1.387 . S
C41 C46 1.491 . S
H42 C43 0.950 . S
C43 C40 1.390 . S
C43 H42 0.950 . S
C43 C44 1.378 . S
C44 C43 1.378 . S
C44 C45 1.409 . S
C45 C41 1.387 . S
C45 C44 1.409 . S
C45 H47 0.951 . S
C46 C41 1.491 . S
C46 C48 1.382 . S
C46 C50 1.404 1_455 S
H47 C45 0.951 . S
C48 C46 1.382 . S
C48 C49 1.390 . S
C48 H53 0.949 . S
C49 C48 1.390 . S
C49 C54 1.399 . S
C50 C46 1.404 1_655 S
C50 H51 0.950 . S
C50 C52 1.375 . S
H51 C50 0.950 . S
C52 C50 1.375 . S
C52 C54 1.382 1_655 S
C52 H56 0.950 . S
H53 C48 0.949 . S
C54 C49 1.399 . S
C54 C52 1.382 1_455 S
C54 H55 0.946 1_455 S
H55 C54 0.946 1_655 S
H56 C52 0.950 . S
H57 C58 0.949 . S
C58 H57 0.949 . S
C58 C59 1.395 1_565 S
C58 C60 1.391 . S
C59 C58 1.395 1_545 S
C59 C62 1.390 . S
C60 C58 1.391 . S
C60 C64 1.387 . S
C60 C65 1.491 . S
H61 C62 0.950 . S
C62 C59 1.390 . S
C62 H61 0.950 . S
C62 C63 1.378 . S
C63 C62 1.378 . S
C63 C64 1.409 1_545 S
C64 C60 1.387 . S
C64 C63 1.409 1_565 S
C64 H66 0.951 . S
C65 C60 1.491 . S
C65 C67 1.370 1_565 S
C65 C69 1.404 . S
H66 C64 0.951 . S
C67 C65 1.370 1_545 S
C67 C68 1.384 1_545 S
C67 H72 0.968 . S
C68 C67 1.384 1_565 S
C68 C73 1.399 . S
C69 C65 1.404 . S
C69 H70 0.950 . S
C69 C71 1.375 . S
H70 C69 0.950 . S
C71 C69 1.375 . S
C71 C73 1.382 . S
C71 H75 0.950 . S
H72 C67 0.968 . S
C73 C68 1.399 . S
C73 C71 1.382 . S
C73 H74 0.952 . S
H74 C73 0.952 . S
H75 C71 0.950 . S
H76 C77 0.949 . S
C77 H76 0.949 . S
C77 C78 1.392 1_655 S
C77 C79 1.391 . S
C78 C77 1.392 1_455 S
C78 C81 1.392 . S
C79 C77 1.391 . S
C79 C83 1.387 . S
C79 C84 1.491 . S
H80 C81 0.950 . S
C81 C78 1.392 . S
C81 H80 0.950 . S
C81 C82 1.379 . S
C82 C81 1.379 . S
C82 C83 1.406 1_455 S
C83 C79 1.387 . S
C83 C82 1.406 1_655 S
C83 H85 0.951 . S
C84 C79 1.491 . S
C84 C86 1.382 . S
C84 C88 1.404 . S
H85 C83 0.951 . S
C86 C84 1.382 . S
C86 C87 1.390 . S
C86 H91 0.949 1_655 S
C87 C86 1.390 . S
C87 C92 1.399 . S
C88 C84 1.404 . S
C88 H89 0.950 . S
C88 C90 1.375 . S
H89 C88 0.950 . S
C90 C88 1.375 . S
C90 C92 1.382 . S
C90 H94 0.950 . S
H91 C86 0.949 1_455 S
C92 C87 1.399 . S
C92 C90 1.382 . S
C92 H93 0.952 . S
H93 C92 0.952 . S
H94 C90 0.950 . S
H95 C96 0.949 . S
C96 H95 0.949 . S
C96 C97 1.395 . S
C96 C98 1.391 . S
C97 C96 1.395 . S
C97 C100 1.390 . S
C98 C96 1.391 . S
C98 C102 1.387 . S
C98 C103 1.491 . S
H99 C100 0.950 . S
C100 C97 1.390 . S
C100 H99 0.950 . S
C100 C101 1.378 . S
C101 C100 1.378 . S
C101 C102 1.409 . S
C102 C98 1.387 . S
C102 C101 1.409 . S
C102 H104 0.951 . S
C103 C98 1.491 . S
C103 C105 1.382 . S
C103 C107 1.404 . S
H104 C102 0.951 . S
C105 C103 1.382 . S
C105 C106 1.390 . S
C105 H110 0.949 1_545 S
C106 C105 1.390 . S
C106 C111 1.399 . S
C107 C103 1.404 . S
C107 H108 0.950 . S
C107 C109 1.375 . S
H108 C107 0.950 . S
C109 C107 1.375 . S
C109 C111 1.382 . S
C109 H113 0.950 . S
H110 C105 0.949 1_565 S
C111 C106 1.399 . S
C111 C109 1.382 . S
C111 H112 0.952 . S
H112 C111 0.952 . S
H113 C109 0.950 . S
H114 C115 0.949 . S
C115 H114 0.949 . S
C115 C116 1.395 . S
C115 C117 1.391 . S
C116 C115 1.395 . S
C116 C119 1.390 . S
C117 C115 1.391 . S
C117 C121 1.387 . S
C117 C122 1.491 . S
H118 C119 0.950 . S
C119 C116 1.390 . S
C119 H118 0.950 . S
C119 C120 1.378 . S
C120 C119 1.378 . S
C120 C121 1.409 . S
C121 C117 1.387 . S
C121 C120 1.409 . S
C121 H123 0.951 . S
C122 C117 1.491 . S
C122 C124 1.382 . S
C122 C126 1.404 1_455 S
H123 C121 0.951 . S
C124 C122 1.382 . S
C124 C125 1.390 . S
C124 H129 0.949 . S
C125 C124 1.390 . S
C125 C130 1.434 . S
C126 C122 1.404 1_655 S
C126 H127 0.950 . S
C126 C128 1.375 . S
H127 C126 0.950 . S
C128 C126 1.375 . S
C128 C130 1.360 1_655 S
C128 H132 0.950 . S
H129 C124 0.949 . S
C130 C125 1.434 . S
C130 C128 1.360 1_455 S
C130 H131 0.942 1_455 S
H131 C130 0.942 1_655 S
H132 C128 0.950 . S
H133 C134 0.949 . S
C134 H133 0.949 . S
C134 C135 1.395 . S
C134 C136 1.391 . S
C135 C134 1.395 . S
C135 C138 1.390 . S
C136 C134 1.391 . S
C136 C140 1.387 . S
C136 C141 1.491 . S
H137 C138 0.950 . S
C138 C135 1.390 . S
C138 H137 0.950 . S
C138 C139 1.378 . S
C139 C138 1.378 . S
C139 C140 1.409 . S
C140 C136 1.387 . S
C140 C139 1.409 . S
C140 H142 0.951 . S
C141 C136 1.491 . S
C141 C143 1.382 . S
C141 C145 1.404 . S
H142 C140 0.951 . S
C143 C141 1.382 . S
C143 C144 1.390 . S
C143 H148 0.949 . S
C144 C143 1.390 . S
C144 C149 1.399 . S
C145 C141 1.404 . S
C145 H146 0.950 . S
C145 C147 1.375 . S
H146 C145 0.950 . S
C147 C145 1.375 . S
C147 C149 1.382 . S
C147 H151 0.950 . S
H148 C143 0.949 . S
C149 C144 1.399 . S
C149 C147 1.382 . S
C149 H150 0.952 . S
H150 C149 0.952 . S
H151 C147 0.950 . S
H152 C153 0.949 . S
C153 H152 0.949 . S
C153 C154 1.395 . S
C153 C155 1.391 . S
C154 C153 1.395 . S
C154 C157 1.390 . S
C155 C153 1.391 . S
C155 C159 1.387 . S
C155 C160 1.491 . S
H156 C157 0.950 . S
C157 C154 1.390 . S
C157 H156 0.950 . S
C157 C158 1.378 . S
C158 C157 1.378 . S
C158 C159 1.409 . S
C159 C155 1.387 . S
C159 C158 1.409 . S
C159 H161 0.951 . S
C160 C155 1.491 . S
C160 C162 1.382 . S
C160 C164 1.404 . S
H161 C159 0.951 . S
C162 C160 1.382 . S
C162 C163 1.390 . S
C162 H167 0.949 . S
C163 C162 1.390 . S
C163 C168 1.399 . S
C164 C160 1.404 . S
C164 H165 0.950 . S
C164 C166 1.375 . S
H165 C164 0.950 . S
C166 C164 1.375 . S
C166 C168 1.382 . S
C166 H170 0.950 . S
H167 C162 0.949 . S
C168 C163 1.399 . S
C168 C166 1.382 . S
C168 H169 0.952 . S
H169 C168 0.952 . S
H170 C166 0.950 . S
H171 C172 0.949 . S
C172 H171 0.949 . S
C172 C173 1.395 . S
C172 C174 1.391 . S
C173 C172 1.395 . S
C173 C176 1.390 . S
C174 C172 1.391 . S
C174 C178 1.387 . S
C174 C179 1.491 . S
H175 C176 0.950 . S
C176 C173 1.390 . S
C176 H175 0.950 . S
C176 C177 1.378 . S
C177 C176 1.378 . S
C177 C178 1.409 . S
C178 C174 1.387 . S
C178 C177 1.409 . S
C178 H180 0.951 . S
C179 C174 1.491 . S
C179 C181 1.382 . S
C179 C183 1.404 1_554 S
H180 C178 0.951 . S
C181 C179 1.382 . S
C181 C182 1.390 . S
C181 H186 0.949 . S
C182 C181 1.390 . S
C182 C187 1.399 1_554 S
C183 C179 1.404 1_556 S
C183 H184 0.950 . S
C183 C185 1.375 . S
H184 C183 0.950 . S
C185 C183 1.375 . S
C185 C187 1.382 . S
C185 H189 0.950 . S
H186 C181 0.949 . S
C187 C182 1.399 1_556 S
C187 C185 1.382 . S
C187 H188 0.952 . S
H188 C187 0.952 . S
H189 C185 0.950 . S
H190 C191 0.949 . S
C191 H190 0.949 . S
C191 C192 1.395 . S
C191 C193 1.391 . S
C192 C191 1.395 . S
C192 C195 1.390 . S
C193 C191 1.391 . S
C193 C197 1.387 . S
C193 C198 1.491 . S
H194 C195 0.950 1_556 S
C195 C192 1.390 . S
C195 H194 0.950 1_554 S
C195 C196 1.378 . S
C196 C195 1.378 . S
C196 C197 1.409 . S
C197 C193 1.387 . S
C197 C196 1.409 . S
C197 H199 0.951 . S
C198 C193 1.491 . S
C198 C200 1.382 . S
C198 C202 1.404 . S
H199 C197 0.951 . S
C200 C198 1.382 . S
C200 C201 1.390 . S
C200 H205 0.949 1_554 S
C201 C200 1.390 . S
C201 C206 1.399 . S
C202 C198 1.404 . S
C202 H203 0.950 . S
C202 C204 1.375 . S
H203 C202 0.950 . S
C204 C202 1.375 . S
C204 C206 1.382 . S
C204 H208 0.950 . S
H205 C200 0.949 1_556 S
C206 C201 1.399 . S
C206 C204 1.382 . S
C206 H207 0.952 . S
H207 C206 0.952 . S
H208 C204 0.950 . S
H209 C210 0.949 . S
C210 H209 0.949 . S
C210 C211 1.392 1_556 S
C210 C212 1.393 . S
C211 C210 1.392 1_554 S
C211 C214 1.390 . S
C212 C210 1.393 . S
C212 C216 1.387 . S
C212 C217 1.491 . S
H213 C214 0.950 . S
C214 C211 1.390 . S
C214 H213 0.950 . S
C214 C215 1.378 . S
C215 C214 1.378 . S
C215 C216 1.409 1_554 S
C216 C212 1.387 . S
C216 C215 1.409 1_556 S
C216 H218 0.951 . S
C217 C212 1.491 . S
C217 C219 1.382 1_556 S
C217 C221 1.404 . S
H218 C216 0.951 . S
C219 C217 1.382 1_554 S
C219 C220 1.390 1_554 S
C219 H224 0.949 . S
C220 C219 1.390 1_556 S
C220 C225 1.399 . S
C221 C217 1.404 . S
C221 H222 0.950 . S
C221 C223 1.375 . S
H222 C221 0.950 . S
C223 C221 1.375 . S
C223 C225 1.382 . S
C223 H227 0.950 . S
H224 C219 0.949 . S
C225 C220 1.399 . S
C225 C223 1.382 . S
C225 H226 0.952 . S
H226 C225 0.952 . S
H227 C223 0.950 . S
H228 C229 0.949 . S
C229 H228 0.949 . S
C229 C230 1.395 . S
C229 C231 1.391 . S
C230 C229 1.395 . S
C230 C233 1.390 . S
C231 C229 1.391 . S
C231 C235 1.387 . S
C231 C236 1.491 . S
H232 C233 0.950 . S
C233 C230 1.390 . S
C233 H232 0.950 . S
C233 C234 1.378 . S
C234 C233 1.378 . S
C234 C235 1.409 . S
C235 C231 1.387 . S
C235 C234 1.409 . S
C235 H237 0.951 . S
C236 C231 1.491 . S
C236 C238 1.382 . S
C236 C240 1.404 . S
H237 C235 0.951 . S
C238 C236 1.382 . S
C238 C239 1.390 . S
C238 H243 0.949 . S
C239 C238 1.390 . S
C239 C244 1.399 . S
C240 C236 1.404 . S
C240 H241 0.950 . S
C240 C242 1.375 . S
H241 C240 0.950 . S
C242 C240 1.375 . S
C242 C244 1.382 . S
C242 H246 0.950 . S
H243 C238 0.949 . S
C244 C239 1.399 . S
C244 C242 1.382 . S
C244 H245 0.952 . S
H245 C244 0.952 . S
H246 C242 0.950 . S
H247 C248 0.949 . S
C248 H247 0.949 . S
C248 C249 1.395 . S
C248 C250 1.391 . S
C249 C248 1.395 . S
C249 C252 1.390 . S
C250 C248 1.391 . S
C250 C254 1.387 . S
C250 C255 1.491 . S
H251 C252 0.950 . S
C252 C249 1.390 . S
C252 H251 0.950 . S
C252 C253 1.378 . S
C253 C252 1.378 . S
C253 C254 1.409 . S
C254 C250 1.387 . S
C254 C253 1.409 . S
C254 H256 0.951 . S
C255 C250 1.491 . S
C255 C257 1.382 . S
C255 C259 1.404 . S
H256 C254 0.951 . S
C257 C255 1.382 . S
C257 C258 1.390 . S
C257 H262 0.949 . S
C258 C257 1.390 . S
C258 C263 1.399 . S
C259 C255 1.404 . S
C259 H260 0.950 . S
C259 C261 1.375 . S
H260 C259 0.950 . S
C261 C259 1.375 . S
C261 C263 1.382 . S
C261 H265 0.950 . S
H262 C257 0.949 . S
C263 C258 1.399 . S
C263 C261 1.382 . S
C263 H264 0.952 . S
H264 C263 0.952 . S
H265 C261 0.950 . S
H266 C267 0.949 . S
C267 H266 0.949 . S
C267 C268 1.395 . S
C267 C269 1.391 . S
C268 C267 1.395 . S
C268 C271 1.390 . S
C269 C267 1.391 . S
C269 C273 1.387 . S
C269 C274 1.491 . S
H270 C271 0.950 . S
C271 C268 1.390 . S
C271 H270 0.950 . S
C271 C272 1.378 . S
C272 C271 1.378 . S
C272 C273 1.409 . S
C273 C269 1.387 . S
C273 C272 1.409 . S
C273 H275 0.951 . S
C274 C269 1.491 . S
C274 C276 1.382 . S
C274 C278 1.404 . S
H275 C273 0.951 . S
C276 C274 1.382 . S
C276 C277 1.390 . S
C276 H281 0.949 . S
C277 C276 1.390 . S
C277 C282 1.399 . S
C278 C274 1.404 . S
C278 H279 0.950 . S
C278 C280 1.375 . S
H279 C278 0.950 . S
C280 C278 1.375 . S
C280 C282 1.382 . S
C280 H284 0.950 . S
H281 C276 0.949 . S
C282 C277 1.399 . S
C282 C280 1.382 . S
C282 H283 0.952 . S
H283 C282 0.952 . S
H284 C280 0.950 . S
H285 C286 0.949 . S
C286 H285 0.949 . S
C286 C287 1.395 . S
C286 C288 1.391 . S
C287 C286 1.395 . S
C287 C290 1.390 . S
C288 C286 1.391 . S
C288 C292 1.387 . S
C288 C293 1.491 . S
H289 C290 0.950 . S
C290 C287 1.390 . S
C290 H289 0.950 . S
C290 C291 1.378 . S
C291 C290 1.378 . S
C291 C292 1.409 . S
C292 C288 1.387 . S
C292 C291 1.409 . S
C292 H294 0.951 . S
C293 C288 1.491 . S
C293 C295 1.382 . S
C293 C297 1.404 . S
H294 C292 0.951 . S
C295 C293 1.382 . S
C295 C296 1.390 . S
C295 H300 0.949 . S
C296 C295 1.390 . S
C296 C301 1.399 . S
C297 C293 1.404 . S
C297 H298 0.950 . S
C297 C299 1.375 . S
H298 C297 0.950 . S
C299 C297 1.375 . S
C299 C301 1.382 . S
C299 H303 0.950 . S
H300 C295 0.949 . S
C301 C296 1.399 . S
C301 C299 1.382 . S
C301 H302 0.952 . S
H302 C301 0.952 . S
H303 C299 0.950 . S
H304 C305 0.949 . S
C305 H304 0.949 . S
C305 C306 1.395 . S
C305 C307 1.391 . S
C306 C305 1.395 . S
C306 C309 1.390 . S
C307 C305 1.391 . S
C307 C311 1.387 . S
C307 C312 1.491 . S
H308 C309 0.950 . S
C309 C306 1.390 . S
C309 H308 0.950 . S
C309 C310 1.378 . S
C310 C309 1.378 . S
C310 C311 1.409 . S
C311 C307 1.387 . S
C311 C310 1.409 . S
C311 H313 0.951 . S
C312 C307 1.491 . S
C312 C314 1.382 . S
C312 C316 1.404 . S
H313 C311 0.951 . S
C314 C312 1.382 . S
C314 C315 1.390 . S
C314 H319 0.949 . S
C315 C314 1.390 . S
C315 C320 1.399 . S
C316 C312 1.404 . S
C316 H317 0.950 . S
C316 C318 1.375 . S
H317 C316 0.950 . S
C318 C316 1.375 . S
C318 C320 1.382 . S
C318 H322 0.950 . S
H319 C314 0.949 . S
C320 C315 1.399 . S
C320 C318 1.382 . S
C320 H321 0.952 . S
H321 C320 0.952 . S
H322 C318 0.950 . S
H323 C324 0.949 . S
C324 H323 0.949 . S
C324 C325 1.395 . S
C324 C326 1.391 . S
C325 C324 1.395 . S
C325 C328 1.390 . S
C326 C324 1.391 . S
C326 C330 1.387 . S
C326 C331 1.491 . S
H327 C328 0.950 . S
C328 C325 1.390 . S
C328 H327 0.950 . S
C328 C329 1.378 . S
C329 C328 1.378 . S
C329 C330 1.409 . S
C330 C326 1.387 . S
C330 C329 1.409 . S
C330 H332 0.951 . S
C331 C326 1.491 . S
C331 C333 1.382 . S
C331 C335 1.404 . S
H332 C330 0.951 . S
C333 C331 1.382 . S
C333 C334 1.390 . S
C333 H338 0.949 . S
C334 C333 1.390 . S
C334 C339 1.399 . S
C335 C331 1.404 . S
C335 H336 0.950 . S
C335 C337 1.375 . S
H336 C335 0.950 . S
C337 C335 1.375 . S
C337 C339 1.382 . S
C337 H341 0.950 . S
H338 C333 0.949 . S
C339 C334 1.399 . S
C339 C337 1.382 . S
C339 H340 0.952 . S
H340 C339 0.952 . S
H341 C337 0.950 . S
H342 C343 0.949 . S
C343 H342 0.949 . S
C343 C344 1.395 . S
C343 C345 1.391 . S
C344 C343 1.395 . S
C344 C347 1.390 . S
C345 C343 1.391 . S
C345 C349 1.387 . S
C345 C350 1.491 . S
H346 C347 0.950 . S
C347 C344 1.390 . S
C347 H346 0.950 . S
C347 C348 1.378 . S
C348 C347 1.378 . S
C348 C349 1.409 . S
C349 C345 1.387 . S
C349 C348 1.409 . S
C349 H351 0.951 . S
C350 C345 1.491 . S
C350 C352 1.382 . S
C350 C354 1.404 . S
H351 C349 0.951 . S
C352 C350 1.382 . S
C352 C353 1.390 . S
C352 H357 0.949 . S
C353 C352 1.390 . S
C353 C358 1.399 . S
C354 C350 1.404 . S
C354 H355 0.950 . S
C354 C356 1.375 . S
H355 C354 0.950 . S
C356 C354 1.375 . S
C356 C358 1.382 . S
C356 H360 0.950 . S
H357 C352 0.949 . S
C358 C353 1.399 . S
C358 C356 1.382 . S
C358 H359 0.952 . S
H359 C358 0.952 . S
H360 C356 0.950 . S
H361 C362 0.949 . S
C362 H361 0.949 . S
C362 C363 1.395 . S
C362 C364 1.391 . S
C363 C362 1.395 . S
C363 C366 1.390 . S
C364 C362 1.391 . S
C364 C368 1.387 . S
C364 C369 1.491 . S
H365 C366 0.950 . S
C366 C363 1.390 . S
C366 H365 0.950 . S
C366 C367 1.378 . S
C367 C366 1.378 . S
C367 C368 1.409 . S
C368 C364 1.387 . S
C368 C367 1.409 . S
C368 H370 0.951 . S
C369 C364 1.491 . S
C369 C371 1.382 . S
C369 C373 1.404 . S
H370 C368 0.951 . S
C371 C369 1.382 . S
C371 C372 1.390 . S
C371 H376 0.949 . S
C372 C371 1.390 . S
C372 C377 1.399 . S
C373 C369 1.404 . S
C373 H374 0.950 . S
C373 C375 1.375 . S
H374 C373 0.950 . S
C375 C373 1.375 . S
C375 C377 1.382 . S
C375 H379 0.950 . S
H376 C371 0.949 . S
C377 C372 1.399 . S
C377 C375 1.382 . S
C377 H378 0.952 . S
H378 C377 0.952 . S
H379 C375 0.950 . S
H380 C381 0.949 . S
C381 H380 0.949 . S
C381 C382 1.395 . S
C381 C383 1.391 . S
C382 C381 1.395 . S
C382 C385 1.390 . S
C383 C381 1.391 . S
C383 C387 1.387 . S
C383 C388 1.491 . S
H384 C385 0.950 . S
C385 C382 1.390 . S
C385 H384 0.950 . S
C385 C386 1.378 . S
C386 C385 1.378 . S
C386 C387 1.409 . S
C387 C383 1.387 . S
C387 C386 1.409 . S
C387 H389 0.951 . S
C388 C383 1.491 . S
C388 C390 1.382 . S
C388 C392 1.404 . S
H389 C387 0.951 . S
C390 C388 1.382 . S
C390 C391 1.390 . S
C390 H395 0.949 . S
C391 C390 1.390 . S
C391 C396 1.399 . S
C392 C388 1.404 . S
C392 H393 0.950 . S
C392 C394 1.375 . S
H393 C392 0.950 . S
C394 C392 1.375 . S
C394 C396 1.382 . S
C394 H398 0.950 . S
H395 C390 0.949 . S
C396 C391 1.399 . S
C396 C394 1.382 . S
C396 H397 0.952 . S
H397 C396 0.952 . S
H398 C394 0.950 . S
H399 C400 0.949 . S
C400 H399 0.949 . S
C400 C401 1.395 . S
C400 C402 1.391 . S
C401 C400 1.395 . S
C401 C404 1.390 . S
C402 C400 1.391 . S
C402 C406 1.387 . S
C402 C407 1.491 . S
H403 C404 0.950 . S
C404 C401 1.390 . S
C404 H403 0.950 . S
C404 C405 1.378 . S
C405 C404 1.378 . S
C405 C406 1.409 . S
C406 C402 1.387 . S
C406 C405 1.409 . S
C406 H408 0.951 . S
C407 C402 1.491 . S
C407 C409 1.382 . S
C407 C411 1.404 . S
H408 C406 0.951 . S
C409 C407 1.382 . S
C409 C410 1.390 . S
C409 H414 0.949 . S
C410 C409 1.390 . S
C410 C415 1.399 . S
C411 C407 1.404 . S
C411 H412 0.950 . S
C411 C413 1.375 . S
H412 C411 0.950 . S
C413 C411 1.375 . S
C413 C415 1.382 . S
C413 H417 0.950 . S
H414 C409 0.949 . S
C415 C410 1.399 . S
C415 C413 1.382 . S
C415 H416 0.952 . S
H416 C415 0.952 . S
H417 C413 0.950 . S
H418 C419 0.949 . S
C419 H418 0.949 . S
C419 C420 1.395 . S
C419 C421 1.391 . S
C420 C419 1.395 . S
C420 C423 1.390 . S
C421 C419 1.391 . S
C421 C425 1.387 . S
C421 C426 1.491 . S
H422 C423 0.950 . S
C423 C420 1.390 . S
C423 H422 0.950 . S
C423 C424 1.378 . S
C424 C423 1.378 . S
C424 C425 1.409 . S
C425 C421 1.387 . S
C425 C424 1.409 . S
C425 H427 0.951 . S
C426 C421 1.491 . S
C426 C428 1.382 . S
C426 C430 1.404 . S
H427 C425 0.951 . S
C428 C426 1.382 . S
C428 C429 1.390 . S
C428 H433 0.949 . S
C429 C428 1.390 . S
C429 C434 1.399 . S
C430 C426 1.404 . S
C430 H431 0.950 . S
C430 C432 1.375 . S
H431 C430 0.950 . S
C432 C430 1.375 . S
C432 C434 1.382 . S
C432 H436 0.950 . S
H433 C428 0.949 . S
C434 C429 1.399 . S
C434 C432 1.382 . S
C434 H435 0.952 . S
H435 C434 0.952 . S
H436 C432 0.950 . S
H437 C438 0.949 . S
C438 H437 0.949 . S
C438 C439 1.395 . S
C438 C440 1.391 . S
C439 C438 1.395 . S
C439 C442 1.390 . S
C440 C438 1.391 . S
C440 C444 1.387 . S
C440 C445 1.491 . S
H441 C442 0.950 . S
C442 C439 1.390 . S
C442 H441 0.950 . S
C442 C443 1.378 . S
C443 C442 1.378 . S
C443 C444 1.409 . S
C444 C440 1.387 . S
C444 C443 1.409 . S
C444 H446 0.951 . S
C445 C440 1.491 . S
C445 C447 1.382 . S
C445 C449 1.404 . S
H446 C444 0.951 . S
C447 C445 1.382 . S
C447 C448 1.390 . S
C447 H452 0.949 . S
C448 C447 1.390 . S
C448 C453 1.399 . S
C449 C445 1.404 . S
C449 H450 0.950 . S
C449 C451 1.375 . S
H450 C449 0.950 . S
C451 C449 1.375 . S
C451 C453 1.382 . S
C451 H455 0.950 . S
H452 C447 0.949 . S
C453 C448 1.399 . S
C453 C451 1.382 . S
C453 H454 0.952 . S
H454 C453 0.952 . S
H455 C451 0.950 . S
Zn456 O458 1.933 1_665 S
Zn456 O476 1.985 1_565 S
Zn456 O487 1.955 1_655 S
Zn457 O458 1.911 1_655 S
Zn457 O477 1.970 . S
Zn457 O493 1.945 1_655 S
Zn457 O500 1.981 . S
O458 Zn456 1.933 1_445 S
O458 Zn457 1.911 1_455 S
O458 H459 0.841 . S
H459 O458 0.841 . S
C460 O461 1.246 . S
C460 O489 1.276 . S
O461 C460 1.246 . S
Zn462 O464 1.911 . S
Zn462 O479 1.970 . S
Zn462 O496 1.945 . S
Zn462 O503 1.981 . S
Zn463 O464 1.933 1_565 S
Zn463 O478 1.993 . S
Zn463 O485 1.955 . S
O464 Zn462 1.911 . S
O464 Zn463 1.933 1_545 S
O464 H465 0.841 . S
H465 O464 0.841 . S
Zn466 O467 1.933 1_565 S
Zn466 O480 1.985 1_565 S
Zn466 O489 1.955 . S
O467 Zn466 1.933 1_545 S
O467 Zn468 1.911 . S
O467 H469 0.841 . S
Zn468 O467 1.911 . S
Zn468 O481 1.970 . S
Zn468 O497 1.981 1_655 S
Zn468 O499 1.945 . S
H469 O467 0.841 . S
Zn470 O471 1.933 1_565 S
Zn470 O483 1.985 . S
Zn470 O491 1.955 . S
O471 Zn470 1.933 1_545 S
O471 H472 0.841 . S
O471 Zn473 1.911 . S
H472 O471 0.841 . S
Zn473 O471 1.911 . S
Zn473 O484 1.970 . S
Zn473 O494 1.981 . S
Zn473 O502 1.945 . S
C474 O475 1.246 . S
C474 O491 1.276 . S
O475 C474 1.246 . S
O476 Zn456 1.985 1_545 S
O476 C486 1.245 . S
O477 Zn457 1.970 . S
O477 C486 1.263 . S
O478 Zn463 1.993 . S
O478 C490 1.209 1_565 S
O479 Zn462 1.970 . S
O479 C490 1.263 . S
O480 Zn466 1.985 1_545 S
O480 C495 1.245 . S
O481 Zn468 1.970 . S
O481 C495 1.263 . S
C482 O493 1.262 . S
C482 O494 1.245 . S
O483 Zn470 1.985 . S
O483 C501 1.245 1_565 S
O484 Zn473 1.970 . S
O484 C501 1.263 . S
O485 Zn463 1.955 . S
O485 C504 1.276 . S
C486 O476 1.245 . S
C486 O477 1.263 . S
O487 Zn456 1.955 1_455 S
O487 C506 1.276 . S
C488 O496 1.262 . S
C488 O497 1.245 . S
O489 C460 1.276 . S
O489 Zn466 1.955 . S
C490 O478 1.209 1_545 S
C490 O479 1.263 . S
O491 Zn470 1.955 . S
O491 C474 1.276 . S
C492 O499 1.262 . S
C492 O500 1.245 . S
O493 Zn457 1.945 1_455 S
O493 C482 1.262 . S
O494 Zn473 1.981 . S
O494 C482 1.245 . S
C495 O480 1.245 . S
C495 O481 1.263 . S
O496 Zn462 1.945 . S
O496 C488 1.262 . S
O497 Zn468 1.981 1_455 S
O497 C488 1.245 . S
C498 O502 1.262 . S
C498 O503 1.245 . S
O499 Zn468 1.945 . S
O499 C492 1.262 . S
O500 Zn457 1.981 . S
O500 C492 1.245 . S
C501 O483 1.245 1_545 S
C501 O484 1.263 . S
O502 Zn473 1.945 . S
O502 C498 1.262 . S
O503 Zn462 1.981 . S
O503 C498 1.245 . S
C504 O485 1.276 . S
C504 O505 1.246 . S
O505 C504 1.246 . S
C506 O487 1.276 . S
C506 O507 1.246 . S
O507 C506 1.246 . S
Zn508 O510 1.933 . S
Zn508 O528 1.985 . S
Zn508 O539 1.955 . S
Zn509 O510 1.911 1_556 S
Zn509 O529 1.970 . S
Zn509 O545 1.945 . S
Zn509 O552 1.981 . S
O510 Zn508 1.933 . S
O510 Zn509 1.911 1_554 S
O510 H511 0.841 . S
H511 O510 0.841 . S
C512 O513 1.246 . S
C512 O541 1.276 . S
O513 C512 1.246 . S
Zn514 O516 1.894 1_566 S
Zn514 O531 1.970 . S
Zn514 O548 1.958 . S
Zn514 O555 1.981 . S
Zn515 O516 1.922 1_565 S
Zn515 O530 1.985 . S
Zn515 O537 1.946 1_565 S
O516 Zn514 1.894 1_544 S
O516 Zn515 1.922 1_545 S
O516 H517 0.880 . S
H517 O516 0.880 . S
Zn518 O519 1.933 . S
Zn518 O532 1.985 . S
Zn518 O541 1.955 . S
O519 Zn518 1.933 . S
O519 Zn520 1.911 1_554 S
O519 H521 0.841 . S
Zn520 O519 1.911 1_556 S
Zn520 O533 1.970 . S
Zn520 O549 1.981 . S
Zn520 O551 1.945 . S
H521 O519 0.841 . S
Zn522 O523 1.933 . S
Zn522 O535 1.985 . S
Zn522 O543 1.955 . S
O523 Zn522 1.933 . S
O523 H524 0.841 . S
O523 Zn525 1.911 1_554 S
H524 O523 0.841 . S
Zn525 O523 1.911 1_556 S
Zn525 O536 1.970 . S
Zn525 O546 1.981 1_565 S
Zn525 O554 1.945 . S
C526 O527 1.246 . S
C526 O543 1.276 . S
O527 C526 1.246 . S
O528 Zn508 1.985 . S
O528 C538 1.245 . S
O529 Zn509 1.970 . S
O529 C538 1.263 1_556 S
O530 Zn515 1.985 . S
O530 C542 1.245 . S
O531 Zn514 1.970 . S
O531 C542 1.263 1_556 S
O532 Zn518 1.985 . S
O532 C547 1.245 . S
O533 Zn520 1.970 . S
O533 C547 1.263 1_556 S
C534 O545 1.262 . S
C534 O546 1.245 . S
O535 Zn522 1.985 . S
O535 C553 1.245 . S
O536 Zn525 1.970 . S
O536 C553 1.263 1_556 S
O537 Zn515 1.946 1_545 S
O537 C556 1.306 . S
C538 O528 1.245 . S
C538 O529 1.263 1_554 S
O539 Zn508 1.955 . S
O539 C558 1.276 . S
C540 O548 1.229 1_545 S
C540 O549 1.245 . S
O541 C512 1.276 . S
O541 Zn518 1.955 . S
C542 O530 1.245 . S
C542 O531 1.263 1_554 S
O543 Zn522 1.955 . S
O543 C526 1.276 . S
C544 O551 1.262 . S
C544 O552 1.245 . S
O545 Zn509 1.945 . S
O545 C534 1.262 . S
O546 Zn525 1.981 1_545 S
O546 C534 1.245 . S
C547 O532 1.245 . S
C547 O533 1.263 1_554 S
O548 Zn514 1.958 . S
O548 C540 1.229 1_565 S
O549 Zn520 1.981 . S
O549 C540 1.245 . S
C550 O554 1.262 . S
C550 O555 1.245 . S
O551 Zn520 1.945 . S
O551 C544 1.262 . S
O552 Zn509 1.981 . S
O552 C544 1.245 . S
C553 O535 1.245 . S
C553 O536 1.263 1_554 S
O554 Zn525 1.945 . S
O554 C550 1.262 . S
O555 Zn514 1.981 . S
O555 C550 1.245 . S
C556 O537 1.306 . S
C556 O557 1.246 . S
O557 C556 1.246 . S
C558 O539 1.276 . S
C558 O559 1.246 . S
O559 C558 1.246 . S
Zn560 O562 1.933 . S
Zn560 O580 1.985 . S
Zn560 O591 1.955 . S
Zn561 O562 1.911 . S
Zn561 O581 1.970 . S
Zn561 O597 1.945 . S
Zn561 O604 1.981 . S
O562 Zn560 1.933 . S
O562 Zn561 1.911 . S
O562 H563 0.841 1_655 S
H563 O562 0.841 1_455 S
C564 O565 1.246 1_554 S
C564 O593 1.276 . S
O565 C564 1.246 1_556 S
Zn566 O568 1.911 . S
Zn566 O583 1.970 . S
Zn566 O600 1.945 . S
Zn566 O607 1.981 . S
Zn567 O568 1.933 . S
Zn567 O582 1.985 . S
Zn567 O589 1.955 . S
O568 Zn566 1.911 . S
O568 Zn567 1.933 . S
O568 H569 0.841 . S
H569 O568 0.841 . S
Zn570 O571 1.933 . S
Zn570 O584 1.985 . S
Zn570 O593 1.955 . S
O571 Zn570 1.933 . S
O571 Zn572 1.911 . S
O571 H573 0.841 . S
Zn572 O571 1.911 . S
Zn572 O585 1.970 . S
Zn572 O601 1.981 1_655 S
Zn572 O603 1.945 . S
H573 O571 0.841 . S
Zn574 O575 1.933 . S
Zn574 O587 1.985 . S
Zn574 O595 1.955 . S
O575 Zn574 1.933 . S
O575 H576 0.841 . S
O575 Zn577 1.911 . S
H576 O575 0.841 . S
Zn577 O575 1.911 . S
Zn577 O588 1.970 . S
Zn577 O598 1.981 . S
Zn577 O606 1.945 . S
C578 O579 1.246 . S
C578 O595 1.276 1_554 S
O579 C578 1.246 . S
O580 Zn560 1.985 . S
O580 C590 1.245 . S
O581 Zn561 1.970 . S
O581 C590 1.263 . S
O582 Zn567 1.985 . S
O582 C594 1.245 . S
O583 Zn566 1.970 . S
O583 C594 1.263 . S
O584 Zn570 1.985 . S
O584 C599 1.245 . S
O585 Zn572 1.970 . S
O585 C599 1.263 . S
C586 O597 1.262 1_455 S
C586 O598 1.245 . S
O587 Zn574 1.985 . S
O587 C605 1.245 . S
O588 Zn577 1.970 . S
O588 C605 1.263 . S
O589 Zn567 1.955 . S
O589 C608 1.276 . S
C590 O580 1.245 . S
C590 O581 1.263 . S
O591 Zn560 1.955 . S
O591 C610 1.276 1_655 S
C592 O600 1.262 . S
C592 O601 1.245 . S
O593 C564 1.276 . S
O593 Zn570 1.955 . S
C594 O582 1.245 . S
C594 O583 1.263 . S
O595 Zn574 1.955 . S
O595 C578 1.276 1_556 S
C596 O603 1.262 . S
C596 O604 1.245 1_554 S
O597 Zn561 1.945 . S
O597 C586 1.262 1_655 S
O598 Zn577 1.981 . S
O598 C586 1.245 . S
C599 O584 1.245 . S
C599 O585 1.263 . S
O600 Zn566 1.945 . S
O600 C592 1.262 . S
O601 Zn572 1.981 1_455 S
O601 C592 1.245 . S
C602 O606 1.262 1_554 S
C602 O607 1.245 . S
O603 Zn572 1.945 . S
O603 C596 1.262 . S
O604 Zn561 1.981 . S
O604 C596 1.245 1_556 S
C605 O587 1.245 . S
C605 O588 1.263 . S
O606 Zn577 1.945 . S
O606 C602 1.262 1_556 S
O607 Zn566 1.981 . S
O607 C602 1.245 . S
C608 O589 1.276 . S
C608 O609 1.246 . S
O609 C608 1.246 . S
C610 O591 1.276 1_455 S
C610 O611 1.246 . S
O611 C610 1.246 . S
Zn612 O614 1.933 1_556 S
Zn612 O632 1.985 . S
Zn612 O643 1.955 . S
Zn613 O614 1.911 . S
Zn613 O633 1.970 . S
Zn613 O649 1.945 . S
Zn613 O656 1.981 . S
O614 Zn612 1.933 1_554 S
O614 Zn613 1.911 . S
O614 H615 0.841 . S
H615 O614 0.841 . S
C616 O617 1.246 . S
C616 O645 1.276 . S
O617 C616 1.246 . S
Zn618 O620 1.911 . S
Zn618 O635 1.970 . S
Zn618 O652 1.945 . S
Zn618 O659 1.981 . S
Zn619 O620 1.933 1_556 S
Zn619 O634 1.985 . S
Zn619 O641 1.955 . S
O620 Zn618 1.911 . S
O620 Zn619 1.933 1_554 S
O620 H621 0.841 . S
H621 O620 0.841 . S
Zn622 O623 1.933 1_556 S
Zn622 O636 1.985 . S
Zn622 O645 1.955 . S
O623 Zn622 1.933 1_554 S
O623 Zn624 1.911 . S
O623 H625 0.841 . S
Zn624 O623 1.911 . S
Zn624 O637 1.970 . S
Zn624 O653 1.981 . S
Zn624 O655 1.945 . S
H625 O623 0.841 . S
Zn626 O627 1.933 1_556 S
Zn626 O639 1.985 . S
Zn626 O647 1.955 . S
O627 Zn626 1.933 1_554 S
O627 H628 0.841 . S
O627 Zn629 1.911 . S
H628 O627 0.841 . S
Zn629 O627 1.911 . S
Zn629 O640 1.970 . S
Zn629 O650 1.981 . S
Zn629 O658 1.945 . S
C630 O631 1.246 . S
C630 O647 1.276 . S
O631 C630 1.246 . S
O632 Zn612 1.985 . S
O632 C642 1.245 1_556 S
O633 Zn613 1.970 . S
O633 C642 1.263 . S
O634 Zn619 1.985 . S
O634 C646 1.245 1_556 S
O635 Zn618 1.970 . S
O635 C646 1.263 . S
O636 Zn622 1.985 . S
O636 C651 1.245 1_556 S
O637 Zn624 1.970 . S
O637 C651 1.263 . S
C638 O649 1.262 . S
C638 O650 1.245 . S
O639 Zn626 1.985 . S
O639 C657 1.245 1_556 S
O640 Zn629 1.970 . S
O640 C657 1.263 . S
O641 Zn619 1.955 . S
O641 C660 1.276 . S
C642 O632 1.245 1_554 S
C642 O633 1.263 . S
O643 Zn612 1.955 . S
O643 C662 1.276 . S
C644 O652 1.262 . S
C644 O653 1.245 . S
O645 C616 1.276 . S
O645 Zn622 1.955 . S
C646 O634 1.245 1_554 S
C646 O635 1.263 . S
O647 Zn626 1.955 . S
O647 C630 1.276 . S
C648 O655 1.262 . S
C648 O656 1.245 . S
O649 Zn613 1.945 . S
O649 C638 1.262 . S
O650 Zn629 1.981 . S
O650 C638 1.245 . S
C651 O636 1.245 1_554 S
C651 O637 1.263 . S
O652 Zn618 1.945 . S
O652 C644 1.262 . S
O653 Zn624 1.981 . S
O653 C644 1.245 . S
C654 O658 1.262 . S
C654 O659 1.245 . S
O655 Zn624 1.945 . S
O655 C648 1.262 . S
O656 Zn613 1.981 . S
O656 C648 1.245 . S
C657 O639 1.245 1_554 S
C657 O640 1.263 . S
O658 Zn629 1.945 . S
O658 C654 1.262 . S
O659 Zn618 1.981 . S
O659 C654 1.245 . S
C660 O641 1.276 . S
C660 O661 1.246 . S
O661 C660 1.246 . S
C662 O643 1.276 . S
C662 O663 1.246 . S
O663 C662 1.246 . S
Zn664 O666 1.933 1_655 S
Zn664 O684 1.985 . S
Zn664 O695 1.955 1_655 S
Zn665 O666 1.911 1_655 S
Zn665 O685 1.970 . S
Zn665 O701 1.953 . S
Zn665 O708 1.981 . S
O666 Zn664 1.933 1_455 S
O666 Zn665 1.911 1_455 S
O666 H667 0.841 . S
H667 O666 0.841 . S
C668 O669 1.246 . S
C668 O697 1.276 . S
O669 C668 1.246 . S
Zn670 O672 1.911 . S
Zn670 O687 1.970 . S
Zn670 O704 1.945 . S
Zn670 O711 1.981 . S
Zn671 O672 1.933 . S
Zn671 O686 1.985 . S
Zn671 O693 1.955 . S
O672 Zn670 1.911 . S
O672 Zn671 1.933 . S
O672 H673 0.841 . S
H673 O672 0.841 . S
Zn674 O675 1.933 . S
Zn674 O688 1.985 . S
Zn674 O697 1.955 . S
O675 Zn674 1.933 . S
O675 Zn676 1.911 . S
O675 H677 0.841 . S
Zn676 O675 1.911 . S
Zn676 O689 1.970 . S
Zn676 O705 1.981 1_655 S
Zn676 O707 1.945 . S
H677 O675 0.841 . S
Zn678 O679 1.933 . S
Zn678 O691 1.985 . S
Zn678 O699 1.955 . S
O679 Zn678 1.933 . S
O679 H680 0.841 . S
O679 Zn681 1.911 . S
H680 O679 0.841 . S
Zn681 O679 1.911 . S
Zn681 O692 1.970 . S
Zn681 O702 1.981 . S
Zn681 O710 1.945 . S
C682 O683 1.246 . S
C682 O699 1.276 . S
O683 C682 1.246 . S
O684 Zn664 1.985 . S
O684 C694 1.245 . S
O685 Zn665 1.970 . S
O685 C694 1.263 . S
O686 Zn671 1.985 . S
O686 C698 1.245 . S
O687 Zn670 1.970 . S
O687 C698 1.263 . S
O688 Zn674 1.985 . S
O688 C703 1.245 . S
O689 Zn676 1.970 . S
O689 C703 1.263 . S
C690 O701 1.240 1_455 S
C690 O702 1.245 . S
O691 Zn678 1.985 . S
O691 C709 1.245 . S
O692 Zn681 1.970 . S
O692 C709 1.263 . S
O693 Zn671 1.955 . S
O693 C712 1.276 . S
C694 O684 1.245 . S
C694 O685 1.263 . S
O695 Zn664 1.955 1_455 S
O695 C714 1.276 . S
C696 O704 1.262 . S
C696 O705 1.245 . S
O697 C668 1.276 . S
O697 Zn674 1.955 . S
C698 O686 1.245 . S
C698 O687 1.263 . S
O699 Zn678 1.955 . S
O699 C682 1.276 . S
C700 O707 1.262 . S
C700 O708 1.245 . S
O701 Zn665 1.953 . S
O701 C690 1.240 1_655 S
O702 Zn681 1.981 . S
O702 C690 1.245 . S
C703 O688 1.245 . S
C703 O689 1.263 . S
O704 Zn670 1.945 . S
O704 C696 1.262 . S
O705 Zn676 1.981 1_455 S
O705 C696 1.245 . S
C706 O710 1.262 . S
C706 O711 1.245 . S
O707 Zn676 1.945 . S
O707 C700 1.262 . S
O708 Zn665 1.981 . S
O708 C700 1.245 . S
C709 O691 1.245 . S
C709 O692 1.263 . S
O710 Zn681 1.945 . S
O710 C706 1.262 . S
O711 Zn670 1.981 . S
O711 C706 1.245 . S
C712 O693 1.276 . S
C712 O713 1.246 . S
O713 C712 1.246 . S
C714 O695 1.276 . S
C714 O715 1.246 . S
O715 C714 1.246 . S
Zn716 O718 1.933 1_565 S
Zn716 O736 1.993 . S
Zn716 O747 1.955 . S
Zn717 O718 1.911 . S
Zn717 O737 1.970 . S
Zn717 O753 1.945 . S
Zn717 O760 1.981 . S
O718 Zn716 1.933 1_545 S
O718 Zn717 1.911 . S
O718 H719 0.841 . S
H719 O718 0.841 . S
C720 O721 1.246 . S
C720 O749 1.276 . S
O721 C720 1.246 . S
Zn722 O724 1.911 . S
Zn722 O739 1.970 . S
Zn722 O756 1.945 . S
Zn722 O763 1.981 . S
Zn723 O724 1.933 1_565 S
Zn723 O738 1.985 1_565 S
Zn723 O745 1.955 . S
O724 Zn722 1.911 . S
O724 Zn723 1.933 1_545 S
O724 H725 0.841 . S
H725 O724 0.841 . S
Zn726 O727 1.933 1_565 S
Zn726 O740 1.991 . S
Zn726 O749 1.955 . S
O727 Zn726 1.933 1_545 S
O727 Zn728 1.911 . S
O727 H729 0.841 . S
Zn728 O727 1.911 . S
Zn728 O741 1.970 . S
Zn728 O757 1.981 . S
Zn728 O759 1.945 . S
H729 O727 0.841 . S
Zn730 O731 1.933 1_565 S
Zn730 O743 1.985 1_565 S
Zn730 O751 1.955 . S
O731 Zn730 1.933 1_545 S
O731 H732 0.841 . S
O731 Zn733 1.911 . S
H732 O731 0.841 . S
Zn733 O731 1.911 . S
Zn733 O744 1.970 . S
Zn733 O754 1.981 . S
Zn733 O762 1.945 . S
C734 O735 1.246 . S
C734 O751 1.276 . S
O735 C734 1.246 . S
O736 Zn716 1.993 . S
O736 C746 1.206 1_565 S
O737 Zn717 1.970 . S
O737 C746 1.263 . S
O738 Zn723 1.985 1_545 S
O738 C750 1.245 . S
O739 Zn722 1.970 . S
O739 C750 1.263 . S
O740 Zn726 1.991 . S
O740 C755 1.217 1_565 S
O741 Zn728 1.970 . S
O741 C755 1.263 . S
C742 O753 1.262 . S
C742 O754 1.245 . S
O743 Zn730 1.985 1_545 S
O743 C761 1.245 . S
O744 Zn733 1.970 . S
O744 C761 1.263 . S
O745 Zn723 1.955 . S
O745 C764 1.276 . S
C746 O736 1.206 1_545 S
C746 O737 1.263 . S
O747 Zn716 1.955 . S
O747 C766 1.276 . S
C748 O756 1.262 . S
C748 O757 1.245 . S
O749 C720 1.276 . S
O749 Zn726 1.955 . S
C750 O738 1.245 . S
C750 O739 1.263 . S
O751 Zn730 1.955 . S
O751 C734 1.276 . S
C752 O759 1.262 . S
C752 O760 1.245 . S
O753 Zn717 1.945 . S
O753 C742 1.262 . S
O754 Zn733 1.981 . S
O754 C742 1.245 . S
C755 O740 1.217 1_545 S
C755 O741 1.263 . S
O756 Zn722 1.945 . S
O756 C748 1.262 . S
O757 Zn728 1.981 . S
O757 C748 1.245 . S
C758 O762 1.262 . S
C758 O763 1.245 . S
O759 Zn728 1.945 . S
O759 C752 1.262 . S
O760 Zn717 1.981 . S
O760 C752 1.245 . S
C761 O743 1.245 . S
C761 O744 1.263 . S
O762 Zn733 1.945 . S
O762 C758 1.262 . S
O763 Zn722 1.981 . S
O763 C758 1.245 . S
C764 O745 1.276 . S
C764 O765 1.246 . S
O765 C764 1.246 . S
C766 O747 1.276 . S
C766 O767 1.246 . S
O767 C766 1.246 . S
H768 C786 0.951 . S
H769 C788 0.951 . S
H770 C790 0.950 . S
H771 C791 0.950 . S
H772 C793 0.950 . S
H773 C796 0.950 . S
H774 C797 0.950 . S
H775 C799 0.950 . S
H776 C800 0.950 . S
H777 C801 0.951 . S
H778 C803 0.951 . S
H779 C805 0.950 . S
H780 C806 0.950 . S
H781 C808 0.950 . S
H782 C811 0.950 . S
H783 C812 0.950 . S
H784 C814 0.950 . S
H785 C815 0.950 . S
C786 H768 0.951 . S
C786 C787 1.366 . S
C786 C788 1.388 . S
C787 C786 1.366 . S
C787 C791 1.385 . S
C788 H769 0.951 . S
C788 C786 1.388 . S
C788 C789 1.366 . S
C789 C788 1.366 . S
C789 C790 1.414 . S
C789 C792 1.499 . S
C790 H770 0.950 . S
C790 C789 1.414 . S
C790 C791 1.374 . S
C791 H771 0.950 . S
C791 C787 1.385 . S
C791 C790 1.374 . S
C792 C789 1.499 . S
C792 C793 1.373 . S
C792 C794 1.389 . S
C793 H772 0.950 . S
C793 C792 1.373 . S
C793 C809 1.377 . S
C794 C792 1.389 . S
C794 C795 1.524 . S
C794 C808 1.377 . S
C795 C794 1.524 . S
C795 C796 1.397 . S
C795 C800 1.363 . S
C796 H773 0.950 . S
C796 C795 1.397 . S
C796 C797 1.334 . S
C797 H774 0.950 . S
C797 C796 1.334 . S
C797 C798 1.287 . S
C798 C797 1.287 . S
C798 C799 1.524 . S
C798 H817 0.913 . S
C799 H775 0.950 . S
C799 C798 1.524 . S
C799 C800 1.415 . S
C800 H776 0.950 . S
C800 C795 1.363 . S
C800 C799 1.415 . S
C801 H777 0.951 . S
C801 C802 1.366 . S
C801 C803 1.388 . S
C802 C801 1.366 . S
C802 C806 1.385 . S
C803 H778 0.951 . S
C803 C801 1.388 . S
C803 C804 1.366 . S
C804 C803 1.366 . S
C804 C805 1.414 . S
C804 C807 1.499 . S
C805 H779 0.950 . S
C805 C804 1.414 . S
C805 C806 1.374 . S
C806 H780 0.950 . S
C806 C802 1.385 . S
C806 C805 1.374 . S
C807 C804 1.499 . S
C807 C808 1.373 . S
C807 C809 1.389 . S
C808 H781 0.950 . S
C808 C794 1.377 . S
C808 C807 1.373 . S
C809 C793 1.377 . S
C809 C807 1.389 . S
C809 C810 1.524 . S
C810 C809 1.524 . S
C810 C811 1.397 . S
C810 C815 1.363 . S
C811 H782 0.950 . S
C811 C810 1.397 . S
C811 C812 1.334 . S
C812 H783 0.950 . S
C812 C811 1.334 . S
C812 C813 1.287 . S
C813 C812 1.287 . S
C813 C814 1.524 . S
C813 H816 0.999 . S
C814 H784 0.950 . S
C814 C813 1.524 . S
C814 C815 1.415 . S
C815 H785 0.950 . S
C815 C810 1.363 . S
C815 C814 1.415 . S
H816 C813 0.999 . S
H817 C798 0.913 . S
H818 C836 0.951 . S
H819 C838 0.951 . S
H820 C840 0.950 . S
H821 C841 0.950 . S
H822 C843 0.950 . S
H823 C846 0.950 . S
H824 C847 0.950 . S
H825 C849 0.950 . S
H826 C850 0.950 . S
H827 C851 0.951 . S
H828 C853 0.951 . S
H829 C855 0.950 . S
H830 C856 0.950 . S
H831 C858 0.950 . S
H832 C861 0.950 . S
H833 C862 0.950 . S
H834 C864 0.950 . S
H835 C865 0.950 . S
C836 H818 0.951 . S
C836 C837 1.366 . S
C836 C838 1.388 . S
C837 C836 1.366 . S
C837 C841 1.385 . S
C838 H819 0.951 . S
C838 C836 1.388 . S
C838 C839 1.366 . S
C839 C838 1.366 . S
C839 C840 1.414 . S
C839 C842 1.499 . S
C840 H820 0.950 . S
C840 C839 1.414 . S
C840 C841 1.374 . S
C841 H821 0.950 . S
C841 C837 1.385 . S
C841 C840 1.374 . S
C842 C839 1.499 . S
C842 C843 1.373 . S
C842 C844 1.389 . S
C843 H822 0.950 . S
C843 C842 1.373 . S
C843 C859 1.377 . S
C844 C842 1.389 . S
C844 C845 1.524 . S
C844 C858 1.377 . S
C845 C844 1.524 . S
C845 C846 1.397 . S
C845 C850 1.363 . S
C846 H823 0.950 . S
C846 C845 1.397 . S
C846 C847 1.334 . S
C847 H824 0.950 . S
C847 C846 1.334 . S
C847 C848 1.287 . S
C848 C847 1.287 . S
C848 C849 1.524 . S
C848 H867 0.913 . S
C849 H825 0.950 . S
C849 C848 1.524 . S
C849 C850 1.415 . S
C850 H826 0.950 . S
C850 C845 1.363 . S
C850 C849 1.415 . S
C851 H827 0.951 . S
C851 C852 1.366 . S
C851 C853 1.388 . S
C852 C851 1.366 . S
C852 C856 1.385 . S
C853 H828 0.951 . S
C853 C851 1.388 . S
C853 C854 1.366 . S
C854 C853 1.366 . S
C854 C855 1.414 . S
C854 C857 1.499 . S
C855 H829 0.950 . S
C855 C854 1.414 . S
C855 C856 1.374 . S
C856 H830 0.950 . S
C856 C852 1.385 . S
C856 C855 1.374 . S
C857 C854 1.499 . S
C857 C858 1.373 . S
C857 C859 1.389 . S
C858 H831 0.950 . S
C858 C844 1.377 . S
C858 C857 1.373 . S
C859 C843 1.377 . S
C859 C857 1.389 . S
C859 C860 1.524 . S
C860 C859 1.524 . S
C860 C861 1.397 . S
C860 C865 1.363 . S
C861 H832 0.950 . S
C861 C860 1.397 . S
C861 C862 1.334 . S
C862 H833 0.950 . S
C862 C861 1.334 . S
C862 C863 1.287 . S
C863 C862 1.287 . S
C863 C864 1.524 . S
C863 H866 0.999 . S
C864 H834 0.950 . S
C864 C863 1.524 . S
C864 C865 1.415 . S
C865 H835 0.950 . S
C865 C860 1.363 . S
C865 C864 1.415 . S
H866 C863 0.999 . S
H867 C848 0.913 . S
H868 C886 0.951 . S
H869 C888 0.951 . S
H870 C890 0.950 . S
H871 C891 0.950 . S
H872 C893 0.950 . S
H873 C896 0.950 . S
H874 C897 0.950 . S
H875 C899 0.950 . S
H876 C900 0.950 . S
H877 C901 0.951 . S
H878 C903 0.951 . S
H879 C905 0.950 . S
H880 C906 0.950 . S
H881 C908 0.950 . S
H882 C911 0.950 . S
H883 C912 0.950 . S
H884 C914 0.950 . S
H885 C915 0.950 . S
C886 H868 0.951 . S
C886 C887 1.366 . S
C886 C888 1.388 . S
C887 C886 1.366 . S
C887 C891 1.385 . S
C888 H869 0.951 . S
C888 C886 1.388 . S
C888 C889 1.366 . S
C889 C888 1.366 . S
C889 C890 1.414 . S
C889 C892 1.499 . S
C890 H870 0.950 . S
C890 C889 1.414 . S
C890 C891 1.374 . S
C891 H871 0.950 . S
C891 C887 1.385 . S
C891 C890 1.374 . S
C892 C889 1.499 . S
C892 C893 1.373 . S
C892 C894 1.389 . S
C893 H872 0.950 . S
C893 C892 1.373 . S
C893 C909 1.377 . S
C894 C892 1.389 . S
C894 C895 1.524 . S
C894 C908 1.377 . S
C895 C894 1.524 . S
C895 C896 1.397 . S
C895 C900 1.363 . S
C896 H873 0.950 . S
C896 C895 1.397 . S
C896 C897 1.334 . S
C897 H874 0.950 . S
C897 C896 1.334 . S
C897 C898 1.287 . S
C898 C897 1.287 . S
C898 C899 1.524 . S
C898 H917 0.913 . S
C899 H875 0.950 . S
C899 C898 1.524 . S
C899 C900 1.415 . S
C900 H876 0.950 . S
C900 C895 1.363 . S
C900 C899 1.415 . S
C901 H877 0.951 . S
C901 C902 1.366 . S
C901 C903 1.388 . S
C902 C901 1.366 . S
C902 C906 1.385 . S
C903 H878 0.951 . S
C903 C901 1.388 . S
C903 C904 1.366 . S
C904 C903 1.366 . S
C904 C905 1.414 . S
C904 C907 1.499 . S
C905 H879 0.950 . S
C905 C904 1.414 . S
C905 C906 1.374 . S
C906 H880 0.950 . S
C906 C902 1.385 . S
C906 C905 1.374 . S
C907 C904 1.499 . S
C907 C908 1.373 . S
C907 C909 1.389 . S
C908 H881 0.950 . S
C908 C894 1.377 . S
C908 C907 1.373 . S
C909 C893 1.377 . S
C909 C907 1.389 . S
C909 C910 1.524 . S
C910 C909 1.524 . S
C910 C911 1.397 . S
C910 C915 1.363 . S
C911 H882 0.950 . S
C911 C910 1.397 . S
C911 C912 1.334 . S
C912 H883 0.950 . S
C912 C911 1.334 . S
C912 C913 1.287 . S
C913 C912 1.287 . S
C913 C914 1.524 . S
C913 H916 0.999 . S
C914 H884 0.950 . S
C914 C913 1.524 . S
C914 C915 1.415 . S
C915 H885 0.950 . S
C915 C910 1.363 . S
C915 C914 1.415 . S
H916 C913 0.999 . S
H917 C898 0.913 . S
H918 C936 0.951 . S
H919 C938 0.951 . S
H920 C940 0.950 . S
H921 C941 0.950 . S
H922 C943 0.950 . S
H923 C946 0.950 . S
H924 C947 0.950 . S
H925 C949 0.950 . S
H926 C950 0.950 . S
H927 C951 0.951 . S
H928 C953 0.951 . S
H929 C955 0.950 . S
H930 C956 0.950 . S
H931 C958 0.950 . S
H932 C961 0.950 . S
H933 C962 0.950 . S
H934 C964 0.950 . S
H935 C965 0.950 . S
C936 H918 0.951 . S
C936 C937 1.366 . S
C936 C938 1.388 . S
C937 C936 1.366 . S
C937 C941 1.385 . S
C938 H919 0.951 . S
C938 C936 1.388 . S
C938 C939 1.366 . S
C939 C938 1.366 . S
C939 C940 1.414 . S
C939 C942 1.499 . S
C940 H920 0.950 . S
C940 C939 1.414 . S
C940 C941 1.374 . S
C941 H921 0.950 . S
C941 C937 1.385 . S
C941 C940 1.374 . S
C942 C939 1.499 . S
C942 C943 1.373 . S
C942 C944 1.389 . S
C943 H922 0.950 . S
C943 C942 1.373 . S
C943 C959 1.377 . S
C944 C942 1.389 . S
C944 C945 1.524 . S
C944 C958 1.377 . S
C945 C944 1.524 . S
C945 C946 1.397 . S
C945 C950 1.363 . S
C946 H923 0.950 . S
C946 C945 1.397 . S
C946 C947 1.334 . S
C947 H924 0.950 . S
C947 C946 1.334 . S
C947 C948 1.287 . S
C948 C947 1.287 . S
C948 C949 1.524 . S
C948 H967 0.913 . S
C949 H925 0.950 . S
C949 C948 1.524 . S
C949 C950 1.415 . S
C950 H926 0.950 . S
C950 C945 1.363 . S
C950 C949 1.415 . S
C951 H927 0.951 . S
C951 C952 1.366 . S
C951 C953 1.388 . S
C952 C951 1.366 . S
C952 C956 1.385 . S
C953 H928 0.951 . S
C953 C951 1.388 . S
C953 C954 1.366 . S
C954 C953 1.366 . S
C954 C955 1.414 . S
C954 C957 1.499 . S
C955 H929 0.950 . S
C955 C954 1.414 . S
C955 C956 1.374 . S
C956 H930 0.950 . S
C956 C952 1.385 . S
C956 C955 1.374 . S
C957 C954 1.499 . S
C957 C958 1.373 . S
C957 C959 1.389 . S
C958 H931 0.950 . S
C958 C944 1.377 . S
C958 C957 1.373 . S
C959 C943 1.377 . S
C959 C957 1.389 . S
C959 C960 1.524 . S
C960 C959 1.524 . S
C960 C961 1.397 . S
C960 C965 1.363 . S
C961 H932 0.950 . S
C961 C960 1.397 . S
C961 C962 1.334 . S
C962 H933 0.950 . S
C962 C961 1.334 . S
C962 C963 1.287 . S
C963 C962 1.287 . S
C963 C964 1.524 . S
C963 H966 0.999 . S
C964 H934 0.950 . S
C964 C963 1.524 . S
C964 C965 1.415 . S
C965 H935 0.950 . S
C965 C960 1.363 . S
C965 C964 1.415 . S
H966 C963 0.999 . S
H967 C948 0.913 . S
H968 C986 0.951 . S
H969 C988 0.951 . S
H970 C990 0.950 . S
H971 C991 0.950 . S
H972 C993 0.950 . S
H973 C996 0.950 . S
H974 C997 0.950 . S
H975 C999 0.950 . S
H976 C1000 0.950 . S
H977 C1001 0.951 . S
H978 C1003 0.951 . S
H979 C1005 0.950 . S
H980 C1006 0.950 . S
H981 C1008 0.950 . S
H982 C1011 0.950 . S
H983 C1012 0.950 . S
H984 C1014 0.950 . S
H985 C1015 0.950 . S
C986 H968 0.951 . S
C986 C987 1.366 . S
C986 C988 1.388 . S
C987 C986 1.366 . S
C987 C991 1.385 . S
C988 H969 0.951 . S
C988 C986 1.388 . S
C988 C989 1.366 . S
C989 C988 1.366 . S
C989 C990 1.414 . S
C989 C992 1.499 . S
C990 H970 0.950 . S
C990 C989 1.414 . S
C990 C991 1.374 . S
C991 H971 0.950 . S
C991 C987 1.385 . S
C991 C990 1.374 . S
C992 C989 1.499 . S
C992 C993 1.373 . S
C992 C994 1.389 . S
C993 H972 0.950 . S
C993 C992 1.373 . S
C993 C1009 1.377 . S
C994 C992 1.389 . S
C994 C995 1.524 . S
C994 C1008 1.377 . S
C995 C994 1.524 . S
C995 C996 1.397 . S
C995 C1000 1.363 . S
C996 H973 0.950 . S
C996 C995 1.397 . S
C996 C997 1.334 . S
C997 H974 0.950 . S
C997 C996 1.334 . S
C997 C998 1.287 . S
C998 C997 1.287 . S
C998 C999 1.524 . S
C998 H1017 0.913 . S
C999 H975 0.950 . S
C999 C998 1.524 . S
C999 C1000 1.415 . S
C1000 H976 0.950 . S
C1000 C995 1.363 . S
C1000 C999 1.415 . S
C1001 H977 0.951 . S
C1001 C1002 1.366 . S
C1001 C1003 1.388 . S
C1002 C1001 1.366 . S
C1002 C1006 1.385 . S
C1003 H978 0.951 . S
C1003 C1001 1.388 . S
C1003 C1004 1.366 . S
C1004 C1003 1.366 . S
C1004 C1005 1.414 . S
C1004 C1007 1.499 . S
C1005 H979 0.950 . S
C1005 C1004 1.414 . S
C1005 C1006 1.374 . S
C1006 H980 0.950 . S
C1006 C1002 1.385 . S
C1006 C1005 1.374 . S
C1007 C1004 1.499 . S
C1007 C1008 1.373 . S
C1007 C1009 1.389 . S
C1008 H981 0.950 . S
C1008 C994 1.377 . S
C1008 C1007 1.373 . S
C1009 C993 1.377 . S
C1009 C1007 1.389 . S
C1009 C1010 1.524 . S
C1010 C1009 1.524 . S
C1010 C1011 1.397 . S
C1010 C1015 1.363 . S
C1011 H982 0.950 . S
C1011 C1010 1.397 . S
C1011 C1012 1.334 . S
C1012 H983 0.950 . S
C1012 C1011 1.334 . S
C1012 C1013 1.287 . S
C1013 C1012 1.287 . S
C1013 C1014 1.524 . S
C1013 H1016 0.999 . S
C1014 H984 0.950 . S
C1014 C1013 1.524 . S
C1014 C1015 1.415 . S
C1015 H985 0.950 . S
C1015 C1010 1.363 . S
C1015 C1014 1.415 . S
H1016 C1013 0.999 . S
H1017 C998 0.913 . S
H1018 C1036 0.951 . S
H1019 C1038 0.951 . S
H1020 C1040 0.950 . S
H1021 C1041 0.950 . S
H1022 C1043 0.950 . S
H1023 C1046 0.950 . S
H1024 C1047 0.950 . S
H1025 C1049 0.950 . S
H1026 C1050 0.950 . S
H1027 C1051 0.951 . S
H1028 C1053 0.951 . S
H1029 C1055 0.950 . S
H1030 C1056 0.950 . S
H1031 C1058 0.950 . S
H1032 C1061 0.950 . S
H1033 C1062 0.950 . S
H1034 C1064 0.950 . S
H1035 C1065 0.950 . S
C1036 H1018 0.951 . S
C1036 C1037 1.366 . S
C1036 C1038 1.388 . S
C1037 C1036 1.366 . S
C1037 C1041 1.385 . S
C1038 H1019 0.951 . S
C1038 C1036 1.388 . S
C1038 C1039 1.366 . S
C1039 C1038 1.366 . S
C1039 C1040 1.414 . S
C1039 C1042 1.499 . S
C1040 H1020 0.950 . S
C1040 C1039 1.414 . S
C1040 C1041 1.374 . S
C1041 H1021 0.950 . S
C1041 C1037 1.385 . S
C1041 C1040 1.374 . S
C1042 C1039 1.499 . S
C1042 C1043 1.373 . S
C1042 C1044 1.389 . S
C1043 H1022 0.950 . S
C1043 C1042 1.373 . S
C1043 C1059 1.377 . S
C1044 C1042 1.389 . S
C1044 C1045 1.524 . S
C1044 C1058 1.377 . S
C1045 C1044 1.524 . S
C1045 C1046 1.397 . S
C1045 C1050 1.363 . S
C1046 H1023 0.950 . S
C1046 C1045 1.397 . S
C1046 C1047 1.334 . S
C1047 H1024 0.950 . S
C1047 C1046 1.334 . S
C1047 C1048 1.287 . S
C1048 C1047 1.287 . S
C1048 C1049 1.524 . S
C1048 H1067 0.913 . S
C1049 H1025 0.950 . S
C1049 C1048 1.524 . S
C1049 C1050 1.415 . S
C1050 H1026 0.950 . S
C1050 C1045 1.363 . S
C1050 C1049 1.415 . S
C1051 H1027 0.951 . S
C1051 C1052 1.366 . S
C1051 C1053 1.388 . S
C1052 C1051 1.366 . S
C1052 C1056 1.385 . S
C1053 H1028 0.951 . S
C1053 C1051 1.388 . S
C1053 C1054 1.366 . S
C1054 C1053 1.366 . S
C1054 C1055 1.414 . S
C1054 C1057 1.499 . S
C1055 H1029 0.950 . S
C1055 C1054 1.414 . S
C1055 C1056 1.374 . S
C1056 H1030 0.950 . S
C1056 C1052 1.385 . S
C1056 C1055 1.374 . S
C1057 C1054 1.499 . S
C1057 C1058 1.373 . S
C1057 C1059 1.389 . S
C1058 H1031 0.950 . S
C1058 C1044 1.377 . S
C1058 C1057 1.373 . S
C1059 C1043 1.377 . S
C1059 C1057 1.389 . S
C1059 C1060 1.524 . S
C1060 C1059 1.524 . S
C1060 C1061 1.397 . S
C1060 C1065 1.363 . S
C1061 H1032 0.950 . S
C1061 C1060 1.397 . S
C1061 C1062 1.334 . S
C1062 H1033 0.950 . S
C1062 C1061 1.334 . S
C1062 C1063 1.287 . S
C1063 C1062 1.287 . S
C1063 C1064 1.524 . S
C1063 H1066 0.999 . S
C1064 H1034 0.950 . S
C1064 C1063 1.524 . S
C1064 C1065 1.415 . S
C1065 H1035 0.950 . S
C1065 C1060 1.363 . S
C1065 C1064 1.415 . S
H1066 C1063 0.999 . S
H1067 C1048 0.913 . S
H1068 C1086 0.951 . S
H1069 C1088 0.951 . S
H1070 C1090 0.950 . S
H1071 C1091 0.950 . S
H1072 C1093 0.950 . S
H1073 C1096 0.950 . S
H1074 C1097 0.950 . S
H1075 C1099 0.950 . S
H1076 C1100 0.950 . S
H1077 C1101 0.951 . S
H1078 C1103 0.951 . S
H1079 C1105 0.950 . S
H1080 C1106 0.950 . S
H1081 C1108 0.950 . S
H1082 C1111 0.950 . S
H1083 C1112 0.950 . S
H1084 C1114 0.950 . S
H1085 C1115 0.950 . S
C1086 H1068 0.951 . S
C1086 C1087 1.366 . S
C1086 C1088 1.388 . S
C1087 C1086 1.366 . S
C1087 C1091 1.385 . S
C1088 H1069 0.951 . S
C1088 C1086 1.388 . S
C1088 C1089 1.366 . S
C1089 C1088 1.366 . S
C1089 C1090 1.414 . S
C1089 C1092 1.499 . S
C1090 H1070 0.950 . S
C1090 C1089 1.414 . S
C1090 C1091 1.374 . S
C1091 H1071 0.950 . S
C1091 C1087 1.385 . S
C1091 C1090 1.374 . S
C1092 C1089 1.499 . S
C1092 C1093 1.373 . S
C1092 C1094 1.389 . S
C1093 H1072 0.950 . S
C1093 C1092 1.373 . S
C1093 C1109 1.377 . S
C1094 C1092 1.389 . S
C1094 C1095 1.524 . S
C1094 C1108 1.377 . S
C1095 C1094 1.524 . S
C1095 C1096 1.397 . S
C1095 C1100 1.363 . S
C1096 H1073 0.950 . S
C1096 C1095 1.397 . S
C1096 C1097 1.334 . S
C1097 H1074 0.950 . S
C1097 C1096 1.334 . S
C1097 C1098 1.287 . S
C1098 C1097 1.287 . S
C1098 C1099 1.524 . S
C1098 H1117 0.913 . S
C1099 H1075 0.950 . S
C1099 C1098 1.524 . S
C1099 C1100 1.415 . S
C1100 H1076 0.950 . S
C1100 C1095 1.363 . S
C1100 C1099 1.415 . S
C1101 H1077 0.951 . S
C1101 C1102 1.366 . S
C1101 C1103 1.388 . S
C1102 C1101 1.366 . S
C1102 C1106 1.385 . S
C1103 H1078 0.951 . S
C1103 C1101 1.388 . S
C1103 C1104 1.366 . S
C1104 C1103 1.366 . S
C1104 C1105 1.414 . S
C1104 C1107 1.499 . S
C1105 H1079 0.950 . S
C1105 C1104 1.414 . S
C1105 C1106 1.374 . S
C1106 H1080 0.950 . S
C1106 C1102 1.385 . S
C1106 C1105 1.374 . S
C1107 C1104 1.499 . S
C1107 C1108 1.373 . S
C1107 C1109 1.389 . S
C1108 H1081 0.950 . S
C1108 C1094 1.377 . S
C1108 C1107 1.373 . S
C1109 C1093 1.377 . S
C1109 C1107 1.389 . S
C1109 C1110 1.524 . S
C1110 C1109 1.524 . S
C1110 C1111 1.397 . S
C1110 C1115 1.363 . S
C1111 H1082 0.950 . S
C1111 C1110 1.397 . S
C1111 C1112 1.334 . S
C1112 H1083 0.950 . S
C1112 C1111 1.334 . S
C1112 C1113 1.287 . S
C1113 C1112 1.287 . S
C1113 C1114 1.524 . S
C1113 H1116 0.999 . S
C1114 H1084 0.950 . S
C1114 C1113 1.524 . S
C1114 C1115 1.415 . S
C1115 H1085 0.950 . S
C1115 C1110 1.363 . S
C1115 C1114 1.415 . S
H1116 C1113 0.999 . S
H1117 C1098 0.913 . S
H1118 C1136 0.951 . S
H1119 C1138 0.951 . S
H1120 C1140 0.950 . S
H1121 C1141 0.950 . S
H1122 C1143 0.950 . S
H1123 C1146 0.950 . S
H1124 C1147 0.950 . S
H1125 C1149 0.950 . S
H1126 C1150 0.950 . S
H1127 C1151 0.951 . S
H1128 C1153 0.951 . S
H1129 C1155 0.950 . S
H1130 C1156 0.950 . S
H1131 C1158 0.950 . S
H1132 C1161 0.950 . S
H1133 C1162 0.950 . S
H1134 C1164 0.950 . S
H1135 C1165 0.950 . S
C1136 H1118 0.951 . S
C1136 C1137 1.366 . S
C1136 C1138 1.388 . S
C1137 C1136 1.366 . S
C1137 C1141 1.385 . S
C1138 H1119 0.951 . S
C1138 C1136 1.388 . S
C1138 C1139 1.366 . S
C1139 C1138 1.366 . S
C1139 C1140 1.414 . S
C1139 C1142 1.499 . S
C1140 H1120 0.950 . S
C1140 C1139 1.414 . S
C1140 C1141 1.374 . S
C1141 H1121 0.950 . S
C1141 C1137 1.385 . S
C1141 C1140 1.374 . S
C1142 C1139 1.499 . S
C1142 C1143 1.373 . S
C1142 C1144 1.389 . S
C1143 H1122 0.950 . S
C1143 C1142 1.373 . S
C1143 C1159 1.377 . S
C1144 C1142 1.389 . S
C1144 C1145 1.524 . S
C1144 C1158 1.377 . S
C1145 C1144 1.524 . S
C1145 C1146 1.397 . S
C1145 C1150 1.363 . S
C1146 H1123 0.950 . S
C1146 C1145 1.397 . S
C1146 C1147 1.334 . S
C1147 H1124 0.950 . S
C1147 C1146 1.334 . S
C1147 C1148 1.287 . S
C1148 C1147 1.287 . S
C1148 C1149 1.524 . S
C1148 H1167 0.913 . S
C1149 H1125 0.950 . S
C1149 C1148 1.524 . S
C1149 C1150 1.415 . S
C1150 H1126 0.950 . S
C1150 C1145 1.363 . S
C1150 C1149 1.415 . S
C1151 H1127 0.951 . S
C1151 C1152 1.366 . S
C1151 C1153 1.388 . S
C1152 C1151 1.366 . S
C1152 C1156 1.385 . S
C1153 H1128 0.951 . S
C1153 C1151 1.388 . S
C1153 C1154 1.366 . S
C1154 C1153 1.366 . S
C1154 C1155 1.414 . S
C1154 C1157 1.499 . S
C1155 H1129 0.950 . S
C1155 C1154 1.414 . S
C1155 C1156 1.374 . S
C1156 H1130 0.950 . S
C1156 C1152 1.385 . S
C1156 C1155 1.374 . S
C1157 C1154 1.499 . S
C1157 C1158 1.373 . S
C1157 C1159 1.389 . S
C1158 H1131 0.950 . S
C1158 C1144 1.377 . S
C1158 C1157 1.373 . S
C1159 C1143 1.377 . S
C1159 C1157 1.389 . S
C1159 C1160 1.524 . S
C1160 C1159 1.524 . S
C1160 C1161 1.397 . S
C1160 C1165 1.363 . S
C1161 H1132 0.950 . S
C1161 C1160 1.397 . S
C1161 C1162 1.334 . S
C1162 H1133 0.950 . S
C1162 C1161 1.334 . S
C1162 C1163 1.287 . S
C1163 C1162 1.287 . S
C1163 C1164 1.524 . S
C1163 H1166 0.999 . S
C1164 H1134 0.950 . S
C1164 C1163 1.524 . S
C1164 C1165 1.415 . S
C1165 H1135 0.950 . S
C1165 C1160 1.363 . S
C1165 C1164 1.415 . S
H1166 C1163 0.999 . S
H1167 C1148 0.913 . S
H1168 C1186 0.951 . S
H1169 C1188 0.951 . S
H1170 C1190 0.950 . S
H1171 C1191 0.950 . S
H1172 C1193 0.950 . S
H1173 C1196 0.950 . S
H1174 C1197 0.950 . S
H1175 C1199 0.950 . S
H1176 C1200 0.950 . S
H1177 C1201 0.951 . S
H1178 C1203 0.951 . S
H1179 C1205 0.950 . S
H1180 C1206 0.950 . S
H1181 C1208 0.950 . S
H1182 C1211 0.950 . S
H1183 C1212 0.950 . S
H1184 C1214 0.950 . S
H1185 C1215 0.950 . S
C1186 H1168 0.951 . S
C1186 C1187 1.366 . S
C1186 C1188 1.388 . S
C1187 C1186 1.366 . S
C1187 C1191 1.385 . S
C1188 H1169 0.951 . S
C1188 C1186 1.388 . S
C1188 C1189 1.366 . S
C1189 C1188 1.366 . S
C1189 C1190 1.414 . S
C1189 C1192 1.499 . S
C1190 H1170 0.950 . S
C1190 C1189 1.414 . S
C1190 C1191 1.374 . S
C1191 H1171 0.950 . S
C1191 C1187 1.385 . S
C1191 C1190 1.374 . S
C1192 C1189 1.499 . S
C1192 C1193 1.373 . S
C1192 C1194 1.389 . S
C1193 H1172 0.950 . S
C1193 C1192 1.373 . S
C1193 C1209 1.377 . S
C1194 C1192 1.389 . S
C1194 C1195 1.524 . S
C1194 C1208 1.377 . S
C1195 C1194 1.524 . S
C1195 C1196 1.397 . S
C1195 C1200 1.363 . S
C1196 H1173 0.950 . S
C1196 C1195 1.397 . S
C1196 C1197 1.334 . S
C1197 H1174 0.950 . S
C1197 C1196 1.334 . S
C1197 C1198 1.287 . S
C1198 C1197 1.287 . S
C1198 C1199 1.524 . S
C1198 H1217 0.913 . S
C1199 H1175 0.950 . S
C1199 C1198 1.524 . S
C1199 C1200 1.415 . S
C1200 H1176 0.950 . S
C1200 C1195 1.363 . S
C1200 C1199 1.415 . S
C1201 H1177 0.951 . S
C1201 C1202 1.366 . S
C1201 C1203 1.388 . S
C1202 C1201 1.366 . S
C1202 C1206 1.385 . S
C1203 H1178 0.951 . S
C1203 C1201 1.388 . S
C1203 C1204 1.366 . S
C1204 C1203 1.366 . S
C1204 C1205 1.414 . S
C1204 C1207 1.499 . S
C1205 H1179 0.950 . S
C1205 C1204 1.414 . S
C1205 C1206 1.374 . S
C1206 H1180 0.950 . S
C1206 C1202 1.385 . S
C1206 C1205 1.374 . S
C1207 C1204 1.499 . S
C1207 C1208 1.373 . S
C1207 C1209 1.389 . S
C1208 H1181 0.950 . S
C1208 C1194 1.377 . S
C1208 C1207 1.373 . S
C1209 C1193 1.377 . S
C1209 C1207 1.389 . S
C1209 C1210 1.524 . S
C1210 C1209 1.524 . S
C1210 C1211 1.397 . S
C1210 C1215 1.363 . S
C1211 H1182 0.950 . S
C1211 C1210 1.397 . S
C1211 C1212 1.334 . S
C1212 H1183 0.950 . S
C1212 C1211 1.334 . S
C1212 C1213 1.287 . S
C1213 C1212 1.287 . S
C1213 C1214 1.524 . S
C1213 H1216 0.999 . S
C1214 H1184 0.950 . S
C1214 C1213 1.524 . S
C1214 C1215 1.415 . S
C1215 H1185 0.950 . S
C1215 C1210 1.363 . S
C1215 C1214 1.415 . S
H1216 C1213 0.999 . S
H1217 C1198 0.913 . S
H1218 C1236 0.951 . S
H1219 C1238 0.951 . S
H1220 C1240 0.950 . S
H1221 C1241 0.950 . S
H1222 C1243 0.950 . S
H1223 C1246 0.950 . S
H1224 C1247 0.950 . S
H1225 C1249 0.950 . S
H1226 C1250 0.950 . S
H1227 C1251 0.951 . S
H1228 C1253 0.951 . S
H1229 C1255 0.950 . S
H1230 C1256 0.950 . S
H1231 C1258 0.950 . S
H1232 C1261 0.950 . S
H1233 C1262 0.950 . S
H1234 C1264 0.950 . S
H1235 C1265 0.950 . S
C1236 H1218 0.951 . S
C1236 C1237 1.366 . S
C1236 C1238 1.388 . S
C1237 C1236 1.366 . S
C1237 C1241 1.385 . S
C1238 H1219 0.951 . S
C1238 C1236 1.388 . S
C1238 C1239 1.366 . S
C1239 C1238 1.366 . S
C1239 C1240 1.414 . S
C1239 C1242 1.499 . S
C1240 H1220 0.950 . S
C1240 C1239 1.414 . S
C1240 C1241 1.374 . S
C1241 H1221 0.950 . S
C1241 C1237 1.385 . S
C1241 C1240 1.374 . S
C1242 C1239 1.499 . S
C1242 C1243 1.373 . S
C1242 C1244 1.389 . S
C1243 H1222 0.950 . S
C1243 C1242 1.373 . S
C1243 C1259 1.377 . S
C1244 C1242 1.389 . S
C1244 C1245 1.524 . S
C1244 C1258 1.377 . S
C1245 C1244 1.524 . S
C1245 C1246 1.397 . S
C1245 C1250 1.363 . S
C1246 H1223 0.950 . S
C1246 C1245 1.397 . S
C1246 C1247 1.334 . S
C1247 H1224 0.950 . S
C1247 C1246 1.334 . S
C1247 C1248 1.287 . S
C1248 C1247 1.287 . S
C1248 C1249 1.524 . S
C1248 H1267 0.913 . S
C1249 H1225 0.950 . S
C1249 C1248 1.524 . S
C1249 C1250 1.415 . S
C1250 H1226 0.950 . S
C1250 C1245 1.363 . S
C1250 C1249 1.415 . S
C1251 H1227 0.951 . S
C1251 C1252 1.366 . S
C1251 C1253 1.388 . S
C1252 C1251 1.366 . S
C1252 C1256 1.385 . S
C1253 H1228 0.951 . S
C1253 C1251 1.388 . S
C1253 C1254 1.366 . S
C1254 C1253 1.366 . S
C1254 C1255 1.414 . S
C1254 C1257 1.499 . S
C1255 H1229 0.950 . S
C1255 C1254 1.414 . S
C1255 C1256 1.374 . S
C1256 H1230 0.950 . S
C1256 C1252 1.385 . S
C1256 C1255 1.374 . S
C1257 C1254 1.499 . S
C1257 C1258 1.373 . S
C1257 C1259 1.389 . S
C1258 H1231 0.950 . S
C1258 C1244 1.377 . S
C1258 C1257 1.373 . S
C1259 C1243 1.377 . S
C1259 C1257 1.389 . S
C1259 C1260 1.524 . S
C1260 C1259 1.524 . S
C1260 C1261 1.397 . S
C1260 C1265 1.363 . S
C1261 H1232 0.950 . S
C1261 C1260 1.397 . S
C1261 C1262 1.334 . S
C1262 H1233 0.950 . S
C1262 C1261 1.334 . S
C1262 C1263 1.287 . S
C1263 C1262 1.287 . S
C1263 C1264 1.524 . S
C1263 H1266 0.999 . S
C1264 H1234 0.950 . S
C1264 C1263 1.524 . S
C1264 C1265 1.415 . S
C1265 H1235 0.950 . S
C1265 C1260 1.363 . S
C1265 C1264 1.415 . S
H1266 C1263 0.999 . S
H1267 C1248 0.913 . S
H1268 C1286 0.951 . S
H1269 C1288 0.951 . S
H1270 C1290 0.950 . S
H1271 C1291 0.950 . S
H1272 C1293 0.950 . S
H1273 C1296 0.950 . S
H1274 C1297 0.950 . S
H1275 C1299 0.950 . S
H1276 C1300 0.950 . S
H1277 C1301 0.951 . S
H1278 C1303 0.951 . S
H1279 C1305 0.950 . S
H1280 C1306 0.950 . S
H1281 C1308 0.950 . S
H1282 C1311 0.950 . S
H1283 C1312 0.950 . S
H1284 C1314 0.950 . S
H1285 C1315 0.950 . S
C1286 H1268 0.951 . S
C1286 C1287 1.366 . S
C1286 C1288 1.388 . S
C1287 C1286 1.366 . S
C1287 C1291 1.385 . S
C1288 H1269 0.951 . S
C1288 C1286 1.388 . S
C1288 C1289 1.366 . S
C1289 C1288 1.366 . S
C1289 C1290 1.414 . S
C1289 C1292 1.499 . S
C1290 H1270 0.950 . S
C1290 C1289 1.414 . S
C1290 C1291 1.374 . S
C1291 H1271 0.950 . S
C1291 C1287 1.385 . S
C1291 C1290 1.374 . S
C1292 C1289 1.499 . S
C1292 C1293 1.373 . S
C1292 C1294 1.389 . S
C1293 H1272 0.950 . S
C1293 C1292 1.373 . S
C1293 C1309 1.377 . S
C1294 C1292 1.389 . S
C1294 C1295 1.524 . S
C1294 C1308 1.377 . S
C1295 C1294 1.524 . S
C1295 C1296 1.397 . S
C1295 C1300 1.363 . S
C1296 H1273 0.950 . S
C1296 C1295 1.397 . S
C1296 C1297 1.334 . S
C1297 H1274 0.950 . S
C1297 C1296 1.334 . S
C1297 C1298 1.287 . S
C1298 C1297 1.287 . S
C1298 C1299 1.524 . S
C1298 H1317 0.913 . S
C1299 H1275 0.950 . S
C1299 C1298 1.524 . S
C1299 C1300 1.415 . S
C1300 H1276 0.950 . S
C1300 C1295 1.363 . S
C1300 C1299 1.415 . S
C1301 H1277 0.951 . S
C1301 C1302 1.366 . S
C1301 C1303 1.388 . S
C1302 C1301 1.366 . S
C1302 C1306 1.385 . S
C1303 H1278 0.951 . S
C1303 C1301 1.388 . S
C1303 C1304 1.366 . S
C1304 C1303 1.366 . S
C1304 C1305 1.414 . S
C1304 C1307 1.499 . S
C1305 H1279 0.950 . S
C1305 C1304 1.414 . S
C1305 C1306 1.374 . S
C1306 H1280 0.950 . S
C1306 C1302 1.385 . S
C1306 C1305 1.374 . S
C1307 C1304 1.499 . S
C1307 C1308 1.373 . S
C1307 C1309 1.389 . S
C1308 H1281 0.950 . S
C1308 C1294 1.377 . S
C1308 C1307 1.373 . S
C1309 C1293 1.377 . S
C1309 C1307 1.389 . S
C1309 C1310 1.524 . S
C1310 C1309 1.524 . S
C1310 C1311 1.397 . S
C1310 C1315 1.363 . S
C1311 H1282 0.950 . S
C1311 C1310 1.397 . S
C1311 C1312 1.334 . S
C1312 H1283 0.950 . S
C1312 C1311 1.334 . S
C1312 C1313 1.287 . S
C1313 C1312 1.287 . S
C1313 C1314 1.524 . S
C1313 H1316 0.999 . S
C1314 H1284 0.950 . S
C1314 C1313 1.524 . S
C1314 C1315 1.415 . S
C1315 H1285 0.950 . S
C1315 C1310 1.363 . S
C1315 C1314 1.415 . S
H1316 C1313 0.999 . S
H1317 C1298 0.913 . S
H1318 C1336 0.951 . S
H1319 C1338 0.951 . S
H1320 C1340 0.950 . S
H1321 C1341 0.950 . S
H1322 C1343 0.950 . S
H1323 C1346 0.950 . S
H1324 C1347 0.950 . S
H1325 C1349 0.950 . S
H1326 C1350 0.950 . S
H1327 C1351 0.951 . S
H1328 C1353 0.951 . S
H1329 C1355 0.950 . S
H1330 C1356 0.950 . S
H1331 C1358 0.950 . S
H1332 C1361 0.950 . S
H1333 C1362 0.950 . S
H1334 C1364 0.950 . S
H1335 C1365 0.950 . S
C1336 H1318 0.951 . S
C1336 C1337 1.366 . S
C1336 C1338 1.388 . S
C1337 C1336 1.366 . S
C1337 C1341 1.385 . S
C1338 H1319 0.951 . S
C1338 C1336 1.388 . S
C1338 C1339 1.366 . S
C1339 C1338 1.366 . S
C1339 C1340 1.414 . S
C1339 C1342 1.499 . S
C1340 H1320 0.950 . S
C1340 C1339 1.414 . S
C1340 C1341 1.374 . S
C1341 H1321 0.950 . S
C1341 C1337 1.385 . S
C1341 C1340 1.374 . S
C1342 C1339 1.499 . S
C1342 C1343 1.373 . S
C1342 C1344 1.389 . S
C1343 H1322 0.950 . S
C1343 C1342 1.373 . S
C1343 C1359 1.377 . S
C1344 C1342 1.389 . S
C1344 C1345 1.524 . S
C1344 C1358 1.377 . S
C1345 C1344 1.524 . S
C1345 C1346 1.397 . S
C1345 C1350 1.363 . S
C1346 H1323 0.950 . S
C1346 C1345 1.397 . S
C1346 C1347 1.334 . S
C1347 H1324 0.950 . S
C1347 C1346 1.334 . S
C1347 C1348 1.287 . S
C1348 C1347 1.287 . S
C1348 C1349 1.524 . S
C1348 H1367 0.913 . S
C1349 H1325 0.950 . S
C1349 C1348 1.524 . S
C1349 C1350 1.415 . S
C1350 H1326 0.950 . S
C1350 C1345 1.363 . S
C1350 C1349 1.415 . S
C1351 H1327 0.951 . S
C1351 C1352 1.366 . S
C1351 C1353 1.388 . S
C1352 C1351 1.366 . S
C1352 C1356 1.385 . S
C1353 H1328 0.951 . S
C1353 C1351 1.388 . S
C1353 C1354 1.366 . S
C1354 C1353 1.366 . S
C1354 C1355 1.414 . S
C1354 C1357 1.499 . S
C1355 H1329 0.950 . S
C1355 C1354 1.414 . S
C1355 C1356 1.374 . S
C1356 H1330 0.950 . S
C1356 C1352 1.385 . S
C1356 C1355 1.374 . S
C1357 C1354 1.499 . S
C1357 C1358 1.373 . S
C1357 C1359 1.389 . S
C1358 H1331 0.950 . S
C1358 C1344 1.377 . S
C1358 C1357 1.373 . S
C1359 C1343 1.377 . S
C1359 C1357 1.389 . S
C1359 C1360 1.524 . S
C1360 C1359 1.524 . S
C1360 C1361 1.397 . S
C1360 C1365 1.363 . S
C1361 H1332 0.950 . S
C1361 C1360 1.397 . S
C1361 C1362 1.334 . S
C1362 H1333 0.950 . S
C1362 C1361 1.334 . S
C1362 C1363 1.287 . S
C1363 C1362 1.287 . S
C1363 C1364 1.524 . S
C1363 H1366 0.999 . S
C1364 H1334 0.950 . S
C1364 C1363 1.524 . S
C1364 C1365 1.415 . S
C1365 H1335 0.950 . S
C1365 C1360 1.363 . S
C1365 C1364 1.415 . S
H1366 C1363 0.999 . S
H1367 C1348 0.913 . S
H1368 C1386 0.951 . S
H1369 C1388 0.951 . S
H1370 C1390 0.950 . S
H1371 C1391 0.950 . S
H1372 C1393 0.950 . S
H1373 C1396 0.950 1_556 S
H1374 C1397 0.950 . S
H1375 C1399 0.950 . S
H1376 C1400 0.950 . S
H1377 C1401 0.951 . S
H1378 C1403 0.951 . S
H1379 C1405 0.950 . S
H1380 C1406 0.950 . S
H1381 C1408 0.950 . S
H1382 C1411 0.950 . S
H1383 C1412 0.933 1_554 S
H1384 C1414 0.950 . S
H1385 C1415 0.950 . S
C1386 H1368 0.951 . S
C1386 C1387 1.366 . S
C1386 C1388 1.388 . S
C1387 C1386 1.366 . S
C1387 C1391 1.385 1_554 S
C1388 H1369 0.951 . S
C1388 C1386 1.388 . S
C1388 C1389 1.366 . S
C1389 C1388 1.366 . S
C1389 C1390 1.414 1_554 S
C1389 C1392 1.499 . S
C1390 H1370 0.950 . S
C1390 C1389 1.414 1_556 S
C1390 C1391 1.374 . S
C1391 H1371 0.950 . S
C1391 C1387 1.385 1_556 S
C1391 C1390 1.374 . S
C1392 C1389 1.499 . S
C1392 C1393 1.373 1_554 S
C1392 C1394 1.389 . S
C1393 H1372 0.950 . S
C1393 C1392 1.373 1_556 S
C1393 C1409 1.377 . S
C1394 C1392 1.389 . S
C1394 C1395 1.524 . S
C1394 C1408 1.377 . S
C1395 C1394 1.524 . S
C1395 C1396 1.397 . S
C1395 C1400 1.363 . S
C1396 H1373 0.950 1_554 S
C1396 C1395 1.397 . S
C1396 C1397 1.334 . S
C1397 H1374 0.950 . S
C1397 C1396 1.334 . S
C1397 C1398 1.287 . S
C1398 C1397 1.287 . S
C1398 C1399 1.524 . S
C1398 H1417 0.913 . S
C1399 H1375 0.950 . S
C1399 C1398 1.524 . S
C1399 C1400 1.415 . S
C1400 H1376 0.950 . S
C1400 C1395 1.363 . S
C1400 C1399 1.415 . S
C1401 H1377 0.951 . S
C1401 C1402 1.366 1_556 S
C1401 C1403 1.388 . S
C1402 C1401 1.366 1_554 S
C1402 C1406 1.385 . S
C1403 H1378 0.951 . S
C1403 C1401 1.388 . S
C1403 C1404 1.366 1_556 S
C1404 C1403 1.366 1_554 S
C1404 C1405 1.414 . S
C1404 C1407 1.499 . S
C1405 H1379 0.950 . S
C1405 C1404 1.414 . S
C1405 C1406 1.374 . S
C1406 H1380 0.950 . S
C1406 C1402 1.385 . S
C1406 C1405 1.374 . S
C1407 C1404 1.499 . S
C1407 C1408 1.373 . S
C1407 C1409 1.389 1_554 S
C1408 H1381 0.950 . S
C1408 C1394 1.377 . S
C1408 C1407 1.373 . S
C1409 C1393 1.377 . S
C1409 C1407 1.389 1_556 S
C1409 C1410 1.524 . S
C1410 C1409 1.524 . S
C1410 C1411 1.397 1_556 S
C1410 C1415 1.363 . S
C1411 H1382 0.950 . S
C1411 C1410 1.397 1_554 S
C1411 C1412 1.327 1_554 S
C1412 H1383 0.933 1_556 S
C1412 C1411 1.327 1_556 S
C1412 C1413 1.312 . S
C1413 C1412 1.312 . S
C1413 C1414 1.524 . S
C1413 H1416 0.999 . S
C1414 H1384 0.950 . S
C1414 C1413 1.524 . S
C1414 C1415 1.415 . S
C1415 H1385 0.950 . S
C1415 C1410 1.363 . S
C1415 C1414 1.415 . S
H1416 C1413 0.999 . S
H1417 C1398 0.913 . S
H1418 C1436 0.951 . S
H1419 C1438 0.951 . S
H1420 C1440 0.950 . S
H1421 C1441 0.950 . S
H1422 C1443 0.950 . S
H1423 C1446 0.950 . S
H1424 C1447 0.950 . S
H1425 C1449 0.950 . S
H1426 C1450 0.950 . S
H1427 C1451 0.951 . S
H1428 C1453 0.951 . S
H1429 C1455 0.950 . S
H1430 C1456 0.950 . S
H1431 C1458 0.950 . S
H1432 C1461 0.984 . S
H1433 C1462 0.950 . S
H1434 C1464 0.950 . S
H1435 C1465 0.950 . S
C1436 H1418 0.951 . S
C1436 C1437 1.366 1_556 S
C1436 C1438 1.388 . S
C1437 C1436 1.366 1_554 S
C1437 C1441 1.385 . S
C1438 H1419 0.951 . S
C1438 C1436 1.388 . S
C1438 C1439 1.366 1_556 S
C1439 C1438 1.366 1_554 S
C1439 C1440 1.414 . S
C1439 C1442 1.499 . S
C1440 H1420 0.950 . S
C1440 C1439 1.414 . S
C1440 C1441 1.374 . S
C1441 H1421 0.950 . S
C1441 C1437 1.385 . S
C1441 C1440 1.374 . S
C1442 C1439 1.499 . S
C1442 C1443 1.373 . S
C1442 C1444 1.389 . S
C1443 H1422 0.950 . S
C1443 C1442 1.373 . S
C1443 C1459 1.377 . S
C1444 C1442 1.389 . S
C1444 C1445 1.524 . S
C1444 C1458 1.377 . S
C1445 C1444 1.524 . S
C1445 C1446 1.397 . S
C1445 C1450 1.363 1_554 S
C1446 H1423 0.950 . S
C1446 C1445 1.397 . S
C1446 C1447 1.334 . S
C1447 H1424 0.950 . S
C1447 C1446 1.334 . S
C1447 C1448 1.287 . S
C1448 C1447 1.287 . S
C1448 C1449 1.524 1_554 S
C1448 H1467 0.913 . S
C1449 H1425 0.950 . S
C1449 C1448 1.524 1_556 S
C1449 C1450 1.415 . S
C1450 H1426 0.950 . S
C1450 C1445 1.363 1_556 S
C1450 C1449 1.415 . S
C1451 H1427 0.951 . S
C1451 C1452 1.366 . S
C1451 C1453 1.388 . S
C1452 C1451 1.366 . S
C1452 C1456 1.385 1_554 S
C1453 H1428 0.951 . S
C1453 C1451 1.388 . S
C1453 C1454 1.366 . S
C1454 C1453 1.366 . S
C1454 C1455 1.414 1_554 S
C1454 C1457 1.499 . S
C1455 H1429 0.950 . S
C1455 C1454 1.414 1_556 S
C1455 C1456 1.374 . S
C1456 H1430 0.950 . S
C1456 C1452 1.385 1_556 S
C1456 C1455 1.374 . S
C1457 C1454 1.499 . S
C1457 C1458 1.373 . S
C1457 C1459 1.389 . S
C1458 H1431 0.950 . S
C1458 C1444 1.377 . S
C1458 C1457 1.373 . S
C1459 C1443 1.377 . S
C1459 C1457 1.389 . S
C1459 C1460 1.524 . S
C1460 C1459 1.524 . S
C1460 C1461 1.362 1_554 S
C1460 C1465 1.363 . S
C1461 H1432 0.984 . S
C1461 C1460 1.362 1_556 S
C1461 C1462 1.336 . S
C1462 H1433 0.950 . S
C1462 C1461 1.336 . S
C1462 C1463 1.287 1_556 S
C1463 C1462 1.287 1_554 S
C1463 C1464 1.524 . S
C1463 H1466 0.999 . S
C1464 H1434 0.950 . S
C1464 C1463 1.524 . S
C1464 C1465 1.415 . S
C1465 H1435 0.950 . S
C1465 C1460 1.363 . S
C1465 C1464 1.415 . S
H1466 C1463 0.999 . S
H1467 C1448 0.913 . S
H1468 C1486 0.951 . S
H1469 C1488 0.951 . S
H1470 C1490 0.950 . S
H1471 C1491 0.950 . S
H1472 C1493 0.950 . S
H1473 C1496 0.950 . S
H1474 C1497 0.950 . S
H1475 C1499 0.950 . S
H1476 C1500 0.950 1_554 S
H1477 C1501 0.957 . S
H1478 C1503 0.951 . S
H1479 C1505 0.950 . S
H1480 C1506 0.950 . S
H1481 C1508 0.950 . S
H1482 C1511 0.950 . S
H1483 C1512 0.950 . S
H1484 C1514 0.950 . S
H1485 C1515 0.950 . S
C1486 H1468 0.951 . S
C1486 C1487 1.366 . S
C1486 C1488 1.388 . S
C1487 C1486 1.366 . S
C1487 C1491 1.385 . S
C1488 H1469 0.951 . S
C1488 C1486 1.388 . S
C1488 C1489 1.366 . S
C1489 C1488 1.366 . S
C1489 C1490 1.414 . S
C1489 C1492 1.499 . S
C1490 H1470 0.950 . S
C1490 C1489 1.414 . S
C1490 C1491 1.374 . S
C1491 H1471 0.950 . S
C1491 C1487 1.385 . S
C1491 C1490 1.374 . S
C1492 C1489 1.499 . S
C1492 C1493 1.373 . S
C1492 C1494 1.389 . S
C1493 H1472 0.950 . S
C1493 C1492 1.373 . S
C1493 C1509 1.377 . S
C1494 C1492 1.389 . S
C1494 C1495 1.524 1_554 S
C1494 C1508 1.377 . S
C1495 C1494 1.524 1_556 S
C1495 C1496 1.397 . S
C1495 C1500 1.363 . S
C1496 H1473 0.950 . S
C1496 C1495 1.397 . S
C1496 C1497 1.334 . S
C1497 H1474 0.950 . S
C1497 C1496 1.334 . S
C1497 C1498 1.287 . S
C1498 C1497 1.287 . S
C1498 C1499 1.524 . S
C1498 H1517 0.913 . S
C1499 H1475 0.950 . S
C1499 C1498 1.524 . S
C1499 C1500 1.415 . S
C1500 H1476 0.950 1_556 S
C1500 C1495 1.363 . S
C1500 C1499 1.415 . S
C1501 H1477 0.957 . S
C1501 C1502 1.366 . S
C1501 C1503 1.388 . S
C1502 C1501 1.366 . S
C1502 C1506 1.385 . S
C1503 H1478 0.951 . S
C1503 C1501 1.388 . S
C1503 C1504 1.366 . S
C1504 C1503 1.366 . S
C1504 C1505 1.414 . S
C1504 C1507 1.499 . S
C1505 H1479 0.950 . S
C1505 C1504 1.414 . S
C1505 C1506 1.374 . S
C1506 H1480 0.950 . S
C1506 C1502 1.385 . S
C1506 C1505 1.374 . S
C1507 C1504 1.499 . S
C1507 C1508 1.373 . S
C1507 C1509 1.389 . S
C1508 H1481 0.950 . S
C1508 C1494 1.377 . S
C1508 C1507 1.373 . S
C1509 C1493 1.377 . S
C1509 C1507 1.389 . S
C1509 C1510 1.524 . S
C1510 C1509 1.524 . S
C1510 C1511 1.397 . S
C1510 C1515 1.363 . S
C1511 H1482 0.950 . S
C1511 C1510 1.397 . S
C1511 C1512 1.334 . S
C1512 H1483 0.950 . S
C1512 C1511 1.334 . S
C1512 C1513 1.287 . S
C1513 C1512 1.287 . S
C1513 C1514 1.524 . S
C1513 H1516 0.999 . S
C1514 H1484 0.950 . S
C1514 C1513 1.524 . S
C1514 C1515 1.415 . S
C1515 H1485 0.950 . S
C1515 C1510 1.363 . S
C1515 C1514 1.415 . S
H1516 C1513 0.999 . S
H1517 C1498 0.913 . S
H1518 C1536 0.951 . S
H1519 C1538 0.951 . S
H1520 C1540 0.953 . S
H1521 C1541 0.946 1_556 S
H1522 C1543 0.950 . S
H1523 C1546 0.950 . S
H1524 C1547 0.950 . S
H1525 C1549 0.950 . S
H1526 C1550 0.950 . S
H1527 C1551 0.951 . S
H1528 C1553 0.951 . S
H1529 C1555 0.950 . S
H1530 C1556 0.950 . S
H1531 C1558 0.950 . S
H1532 C1561 0.950 . S
H1533 C1562 0.950 . S
H1534 C1564 0.950 . S
H1535 C1565 0.950 . S
C1536 H1518 0.951 . S
C1536 C1537 1.366 . S
C1536 C1538 1.388 . S
C1537 C1536 1.366 . S
C1537 C1541 1.385 . S
C1538 H1519 0.951 . S
C1538 C1536 1.388 . S
C1538 C1539 1.366 . S
C1539 C1538 1.366 . S
C1539 C1540 1.414 . S
C1539 C1542 1.499 . S
C1540 H1520 0.953 . S
C1540 C1539 1.414 . S
C1540 C1541 1.374 . S
C1541 H1521 0.946 1_554 S
C1541 C1537 1.385 . S
C1541 C1540 1.374 . S
C1542 C1539 1.499 . S
C1542 C1543 1.373 . S
C1542 C1544 1.389 1_554 S
C1543 H1522 0.950 . S
C1543 C1542 1.373 . S
C1543 C1559 1.377 . S
C1544 C1542 1.389 1_556 S
C1544 C1545 1.524 . S
C1544 C1558 1.377 . S
C1545 C1544 1.524 . S
C1545 C1546 1.397 . S
C1545 C1550 1.363 . S
C1546 H1523 0.950 . S
C1546 C1545 1.397 . S
C1546 C1547 1.334 . S
C1547 H1524 0.950 . S
C1547 C1546 1.334 . S
C1547 C1548 1.287 . S
C1548 C1547 1.287 . S
C1548 C1549 1.524 . S
C1548 H1567 0.913 . S
C1549 H1525 0.950 . S
C1549 C1548 1.524 . S
C1549 C1550 1.415 . S
C1550 H1526 0.950 . S
C1550 C1545 1.363 . S
C1550 C1549 1.415 . S
C1551 H1527 0.951 . S
C1551 C1552 1.366 . S
C1551 C1553 1.388 . S
C1552 C1551 1.366 . S
C1552 C1556 1.385 . S
C1553 H1528 0.951 . S
C1553 C1551 1.388 . S
C1553 C1554 1.366 . S
C1554 C1553 1.366 . S
C1554 C1555 1.414 . S
C1554 C1557 1.499 . S
C1555 H1529 0.950 . S
C1555 C1554 1.414 . S
C1555 C1556 1.374 . S
C1556 H1530 0.950 . S
C1556 C1552 1.385 . S
C1556 C1555 1.374 . S
C1557 C1554 1.499 . S
C1557 C1558 1.373 1_554 S
C1557 C1559 1.389 . S
C1558 H1531 0.950 . S
C1558 C1544 1.377 . S
C1558 C1557 1.373 1_556 S
C1559 C1543 1.377 . S
C1559 C1557 1.389 . S
C1559 C1560 1.524 . S
C1560 C1559 1.524 . S
C1560 C1561 1.397 . S
C1560 C1565 1.363 . S
C1561 H1532 0.950 . S
C1561 C1560 1.397 . S
C1561 C1562 1.334 . S
C1562 H1533 0.950 . S
C1562 C1561 1.334 . S
C1562 C1563 1.287 . S
C1563 C1562 1.287 . S
C1563 C1564 1.524 . S
C1563 H1566 0.999 . S
C1564 H1534 0.950 . S
C1564 C1563 1.524 . S
C1564 C1565 1.415 . S
C1565 H1535 0.950 . S
C1565 C1560 1.363 . S
C1565 C1564 1.415 . S
H1566 C1563 0.999 . S
H1567 C1548 0.913 . S
H1568 C1586 0.951 . S
H1569 C1588 0.951 . S
H1570 C1590 0.950 . S
H1571 C1591 0.950 . S
H1572 C1593 0.950 . S
H1573 C1596 0.950 . S
H1574 C1597 0.950 . S
H1575 C1599 0.950 . S
H1576 C1600 0.950 . S
H1577 C1601 0.951 . S
H1578 C1603 0.951 . S
H1579 C1605 0.950 . S
H1580 C1606 0.950 . S
H1581 C1608 0.950 . S
H1582 C1611 0.950 1_455 S
H1583 C1612 0.950 . S
H1584 C1614 0.950 . S
H1585 C1615 0.950 . S
C1586 H1568 0.951 . S
C1586 C1587 1.366 . S
C1586 C1588 1.388 . S
C1587 C1586 1.366 . S
C1587 C1591 1.385 1_455 S
C1588 H1569 0.951 . S
C1588 C1586 1.388 . S
C1588 C1589 1.366 . S
C1589 C1588 1.366 . S
C1589 C1590 1.414 1_455 S
C1589 C1592 1.499 . S
C1590 H1570 0.950 . S
C1590 C1589 1.414 1_655 S
C1590 C1591 1.374 . S
C1591 H1571 0.950 . S
C1591 C1587 1.385 1_655 S
C1591 C1590 1.374 . S
C1592 C1589 1.499 . S
C1592 C1593 1.373 1_455 S
C1592 C1594 1.389 . S
C1593 H1572 0.950 . S
C1593 C1592 1.373 1_655 S
C1593 C1609 1.377 . S
C1594 C1592 1.389 . S
C1594 C1595 1.524 . S
C1594 C1608 1.377 . S
C1595 C1594 1.524 . S
C1595 C1596 1.397 . S
C1595 C1600 1.363 . S
C1596 H1573 0.950 . S
C1596 C1595 1.397 . S
C1596 C1597 1.334 . S
C1597 H1574 0.950 . S
C1597 C1596 1.334 . S
C1597 C1598 1.287 . S
C1598 C1597 1.287 . S
C1598 C1599 1.524 . S
C1598 H1617 0.913 . S
C1599 H1575 0.950 . S
C1599 C1598 1.524 . S
C1599 C1600 1.415 . S
C1600 H1576 0.950 . S
C1600 C1595 1.363 . S
C1600 C1599 1.415 . S
C1601 H1577 0.951 . S
C1601 C1602 1.366 1_655 S
C1601 C1603 1.388 . S
C1602 C1601 1.366 1_455 S
C1602 C1606 1.385 . S
C1603 H1578 0.951 . S
C1603 C1601 1.388 . S
C1603 C1604 1.366 1_655 S
C1604 C1603 1.366 1_455 S
C1604 C1605 1.414 . S
C1604 C1607 1.499 . S
C1605 H1579 0.950 . S
C1605 C1604 1.414 . S
C1605 C1606 1.374 . S
C1606 H1580 0.950 . S
C1606 C1602 1.385 . S
C1606 C1605 1.374 . S
C1607 C1604 1.499 . S
C1607 C1608 1.373 . S
C1607 C1609 1.389 1_455 S
C1608 H1581 0.950 . S
C1608 C1594 1.377 . S
C1608 C1607 1.373 . S
C1609 C1593 1.377 . S
C1609 C1607 1.389 1_655 S
C1609 C1610 1.524 . S
C1610 C1609 1.524 . S
C1610 C1611 1.397 . S
C1610 C1615 1.363 . S
C1611 H1582 0.950 1_655 S
C1611 C1610 1.397 . S
C1611 C1612 1.334 . S
C1612 H1583 0.950 . S
C1612 C1611 1.334 . S
C1612 C1613 1.287 . S
C1613 C1612 1.287 . S
C1613 C1614 1.524 . S
C1613 H1616 0.999 . S
C1614 H1584 0.950 . S
C1614 C1613 1.524 . S
C1614 C1615 1.415 . S
C1615 H1585 0.950 . S
C1615 C1610 1.363 . S
C1615 C1614 1.415 . S
H1616 C1613 0.999 . S
H1617 C1598 0.913 . S
H1618 C1636 0.951 . S
H1619 C1638 0.951 . S
H1620 C1640 0.950 . S
H1621 C1641 0.950 . S
H1622 C1643 0.950 . S
H1623 C1646 0.950 . S
H1624 C1647 0.950 . S
H1625 C1649 0.950 . S
H1626 C1650 0.950 . S
H1627 C1651 0.951 . S
H1628 C1653 0.951 . S
H1629 C1655 0.950 1_565 S
H1630 C1656 0.950 1_565 S
H1631 C1658 0.950 . S
H1632 C1661 0.950 . S
H1633 C1662 0.950 . S
H1634 C1664 0.950 . S
H1635 C1665 0.950 . S
C1636 H1618 0.951 . S
C1636 C1637 1.366 1_565 S
C1636 C1638 1.388 . S
C1637 C1636 1.366 1_545 S
C1637 C1641 1.385 . S
C1638 H1619 0.951 . S
C1638 C1636 1.388 . S
C1638 C1639 1.366 1_565 S
C1639 C1638 1.366 1_545 S
C1639 C1640 1.414 . S
C1639 C1642 1.499 . S
C1640 H1620 0.950 . S
C1640 C1639 1.414 . S
C1640 C1641 1.374 . S
C1641 H1621 0.950 . S
C1641 C1637 1.385 . S
C1641 C1640 1.374 . S
C1642 C1639 1.499 . S
C1642 C1643 1.373 . S
C1642 C1644 1.389 1_545 S
C1643 H1622 0.950 . S
C1643 C1642 1.373 . S
C1643 C1659 1.377 . S
C1644 C1642 1.389 1_565 S
C1644 C1645 1.524 . S
C1644 C1658 1.377 . S
C1645 C1644 1.524 . S
C1645 C1646 1.397 . S
C1645 C1650 1.363 . S
C1646 H1623 0.950 . S
C1646 C1645 1.397 . S
C1646 C1647 1.334 . S
C1647 H1624 0.950 . S
C1647 C1646 1.334 . S
C1647 C1648 1.287 . S
C1648 C1647 1.287 . S
C1648 C1649 1.524 . S
C1648 H1667 0.913 . S
C1649 H1625 0.950 . S
C1649 C1648 1.524 . S
C1649 C1650 1.415 . S
C1650 H1626 0.950 . S
C1650 C1645 1.363 . S
C1650 C1649 1.415 . S
C1651 H1627 0.951 . S
C1651 C1652 1.366 . S
C1651 C1653 1.388 . S
C1652 C1651 1.366 . S
C1652 C1656 1.385 . S
C1653 H1628 0.951 . S
C1653 C1651 1.388 . S
C1653 C1654 1.366 . S
C1654 C1653 1.366 . S
C1654 C1655 1.414 . S
C1654 C1657 1.499 . S
C1655 H1629 0.950 1_545 S
C1655 C1654 1.414 . S
C1655 C1656 1.374 . S
C1656 H1630 0.950 1_545 S
C1656 C1652 1.385 . S
C1656 C1655 1.374 . S
C1657 C1654 1.499 . S
C1657 C1658 1.373 1_545 S
C1657 C1659 1.389 . S
C1658 H1631 0.950 . S
C1658 C1644 1.377 . S
C1658 C1657 1.373 1_565 S
C1659 C1643 1.377 . S
C1659 C1657 1.389 . S
C1659 C1660 1.524 . S
C1660 C1659 1.524 . S
C1660 C1661 1.397 . S
C1660 C1665 1.363 . S
C1661 H1632 0.950 . S
C1661 C1660 1.397 . S
C1661 C1662 1.334 . S
C1662 H1633 0.950 . S
C1662 C1661 1.334 . S
C1662 C1663 1.287 . S
C1663 C1662 1.287 . S
C1663 C1664 1.524 . S
C1663 H1666 0.999 . S
C1664 H1634 0.950 . S
C1664 C1663 1.524 . S
C1664 C1665 1.415 . S
C1665 H1635 0.950 . S
C1665 C1660 1.363 . S
C1665 C1664 1.415 . S
H1666 C1663 0.999 . S
H1667 C1648 0.913 . S
H1668 C1686 0.951 . S
H1669 C1688 0.951 . S
H1670 C1690 0.950 . S
H1671 C1691 0.950 . S
H1672 C1693 0.950 . S
H1673 C1696 0.950 . S
H1674 C1697 0.950 . S
H1675 C1699 0.950 . S
H1676 C1700 0.949 . S
H1677 C1701 0.951 . S
H1678 C1703 0.951 . S
H1679 C1705 0.950 . S
H1680 C1706 0.950 . S
H1681 C1708 0.950 . S
H1682 C1711 0.950 . S
H1683 C1712 0.950 . S
H1684 C1714 0.950 . S
H1685 C1715 0.950 . S
C1686 H1668 0.951 . S
C1686 C1687 1.366 . S
C1686 C1688 1.388 . S
C1687 C1686 1.366 . S
C1687 C1691 1.385 . S
C1688 H1669 0.951 . S
C1688 C1686 1.388 . S
C1688 C1689 1.366 . S
C1689 C1688 1.366 . S
C1689 C1690 1.414 . S
C1689 C1692 1.499 . S
C1690 H1670 0.950 . S
C1690 C1689 1.414 . S
C1690 C1691 1.374 . S
C1691 H1671 0.950 . S
C1691 C1687 1.385 . S
C1691 C1690 1.374 . S
C1692 C1689 1.499 . S
C1692 C1693 1.373 . S
C1692 C1694 1.389 . S
C1693 H1672 0.950 . S
C1693 C1692 1.373 . S
C1693 C1709 1.377 . S
C1694 C1692 1.389 . S
C1694 C1695 1.524 1_455 S
C1694 C1708 1.377 . S
C1695 C1694 1.524 1_655 S
C1695 C1696 1.397 . S
C1695 C1700 1.363 1_655 S
C1696 H1673 0.950 . S
C1696 C1695 1.397 . S
C1696 C1697 1.334 . S
C1697 H1674 0.950 . S
C1697 C1696 1.334 . S
C1697 C1698 1.287 . S
C1698 C1697 1.287 . S
C1698 C1699 1.524 . S
C1698 H1717 0.913 . S
C1699 H1675 0.950 . S
C1699 C1698 1.524 . S
C1699 C1700 1.416 1_655 S
C1700 H1676 0.949 . S
C1700 C1695 1.363 1_455 S
C1700 C1699 1.416 1_455 S
C1701 H1677 0.951 . S
C1701 C1702 1.366 . S
C1701 C1703 1.388 . S
C1702 C1701 1.366 . S
C1702 C1706 1.385 . S
C1703 H1678 0.951 . S
C1703 C1701 1.388 . S
C1703 C1704 1.366 . S
C1704 C1703 1.366 . S
C1704 C1705 1.414 . S
C1704 C1707 1.499 . S
C1705 H1679 0.950 . S
C1705 C1704 1.414 . S
C1705 C1706 1.374 . S
C1706 H1680 0.950 . S
C1706 C1702 1.385 . S
C1706 C1705 1.374 . S
C1707 C1704 1.499 . S
C1707 C1708 1.373 . S
C1707 C1709 1.389 . S
C1708 H1681 0.950 . S
C1708 C1694 1.377 . S
C1708 C1707 1.373 . S
C1709 C1693 1.377 . S
C1709 C1707 1.389 . S
C1709 C1710 1.524 . S
C1710 C1709 1.524 . S
C1710 C1711 1.397 . S
C1710 C1715 1.363 . S
C1711 H1682 0.950 . S
C1711 C1710 1.397 . S
C1711 C1712 1.334 . S
C1712 H1683 0.950 . S
C1712 C1711 1.334 . S
C1712 C1713 1.287 . S
C1713 C1712 1.287 . S
C1713 C1714 1.524 . S
C1713 H1716 0.999 . S
C1714 H1684 0.950 . S
C1714 C1713 1.524 . S
C1714 C1715 1.415 . S
C1715 H1685 0.950 . S
C1715 C1710 1.363 . S
C1715 C1714 1.415 . S
H1716 C1713 0.999 . S
H1717 C1698 0.913 . S
H1718 C1736 0.951 . S
H1719 C1738 0.951 . S
H1720 C1740 0.950 . S
H1721 C1741 0.950 . S
H1722 C1743 0.950 . S
H1723 C1746 0.950 . S
H1724 C1747 0.950 . S
H1725 C1749 0.944 1_545 S
H1726 C1750 0.950 . S
H1727 C1751 0.951 . S
H1728 C1753 0.951 . S
H1729 C1755 0.950 . S
H1730 C1756 0.950 . S
H1731 C1758 0.950 . S
H1732 C1761 0.950 . S
H1733 C1762 0.950 . S
H1734 C1764 0.950 . S
H1735 C1765 0.950 . S
C1736 H1718 0.951 . S
C1736 C1737 1.366 . S
C1736 C1738 1.388 . S
C1737 C1736 1.366 . S
C1737 C1741 1.385 . S
C1738 H1719 0.951 . S
C1738 C1736 1.388 . S
C1738 C1739 1.366 . S
C1739 C1738 1.366 . S
C1739 C1740 1.414 . S
C1739 C1742 1.499 . S
C1740 H1720 0.950 . S
C1740 C1739 1.414 . S
C1740 C1741 1.374 . S
C1741 H1721 0.950 . S
C1741 C1737 1.385 . S
C1741 C1740 1.374 . S
C1742 C1739 1.499 . S
C1742 C1743 1.373 . S
C1742 C1744 1.389 . S
C1743 H1722 0.950 . S
C1743 C1742 1.373 . S
C1743 C1759 1.377 . S
C1744 C1742 1.389 . S
C1744 C1745 1.524 . S
C1744 C1758 1.377 . S
C1745 C1744 1.524 . S
C1745 C1746 1.397 1_545 S
C1745 C1750 1.363 . S
C1746 H1723 0.950 . S
C1746 C1745 1.397 1_565 S
C1746 C1747 1.334 . S
C1747 H1724 0.950 . S
C1747 C1746 1.334 . S
C1747 C1748 1.287 . S
C1748 C1747 1.287 . S
C1748 C1749 1.524 . S
C1748 H1767 0.913 . S
C1749 H1725 0.944 1_565 S
C1749 C1748 1.524 . S
C1749 C1750 1.415 1_565 S
C1750 H1726 0.950 . S
C1750 C1745 1.363 . S
C1750 C1749 1.415 1_545 S
C1751 H1727 0.951 . S
C1751 C1752 1.366 . S
C1751 C1753 1.388 . S
C1752 C1751 1.366 . S
C1752 C1756 1.385 . S
C1753 H1728 0.951 . S
C1753 C1751 1.388 . S
C1753 C1754 1.366 . S
C1754 C1753 1.366 . S
C1754 C1755 1.414 . S
C1754 C1757 1.499 . S
C1755 H1729 0.950 . S
C1755 C1754 1.414 . S
C1755 C1756 1.374 . S
C1756 H1730 0.950 . S
C1756 C1752 1.385 . S
C1756 C1755 1.374 . S
C1757 C1754 1.499 . S
C1757 C1758 1.373 . S
C1757 C1759 1.389 . S
C1758 H1731 0.950 . S
C1758 C1744 1.377 . S
C1758 C1757 1.373 . S
C1759 C1743 1.377 . S
C1759 C1757 1.389 . S
C1759 C1760 1.524 . S
C1760 C1759 1.524 . S
C1760 C1761 1.397 . S
C1760 C1765 1.363 . S
C1761 H1732 0.950 . S
C1761 C1760 1.397 . S
C1761 C1762 1.334 . S
C1762 H1733 0.950 . S
C1762 C1761 1.334 . S
C1762 C1763 1.287 . S
C1763 C1762 1.287 . S
C1763 C1764 1.524 . S
C1763 H1766 0.999 . S
C1764 H1734 0.950 . S
C1764 C1763 1.524 . S
C1764 C1765 1.415 . S
C1765 H1735 0.950 . S
C1765 C1760 1.363 . S
C1765 C1764 1.415 . S
H1766 C1763 0.999 . S
H1767 C1748 0.913 . S
H1768 C1786 0.951 . S
H1769 C1788 0.951 . S
H1770 C1790 0.950 . S
H1771 C1791 0.950 . S
H1772 C1793 0.950 . S
H1773 C1796 0.950 1_655 S
H1774 C1797 0.950 . S
H1775 C1799 0.950 . S
H1776 C1800 0.950 . S
H1777 C1801 0.951 . S
H1778 C1803 0.951 . S
H1779 C1805 0.950 . S
H1780 C1806 0.950 . S
H1781 C1808 0.950 . S
H1782 C1811 0.950 . S
H1783 C1812 0.950 . S
H1784 C1814 0.950 . S
H1785 C1815 0.950 . S
C1786 H1768 0.951 . S
C1786 C1787 1.366 . S
C1786 C1788 1.388 . S
C1787 C1786 1.366 . S
C1787 C1791 1.385 . S
C1788 H1769 0.951 . S
C1788 C1786 1.388 . S
C1788 C1789 1.366 . S
C1789 C1788 1.366 . S
C1789 C1790 1.414 . S
C1789 C1792 1.499 . S
C1790 H1770 0.950 . S
C1790 C1789 1.414 . S
C1790 C1791 1.374 . S
C1791 H1771 0.950 . S
C1791 C1787 1.385 . S
C1791 C1790 1.374 . S
C1792 C1789 1.499 . S
C1792 C1793 1.373 . S
C1792 C1794 1.389 . S
C1793 H1772 0.950 . S
C1793 C1792 1.373 . S
C1793 C1809 1.377 . S
C1794 C1792 1.389 . S
C1794 C1795 1.524 . S
C1794 C1808 1.377 . S
C1795 C1794 1.524 . S
C1795 C1796 1.397 . S
C1795 C1800 1.363 . S
C1796 H1773 0.950 1_455 S
C1796 C1795 1.397 . S
C1796 C1797 1.334 1_455 S
C1797 H1774 0.950 . S
C1797 C1796 1.334 1_655 S
C1797 C1798 1.287 1_655 S
C1798 C1797 1.287 1_455 S
C1798 C1799 1.524 . S
C1798 H1817 0.923 . S
C1799 H1775 0.950 . S
C1799 C1798 1.524 . S
C1799 C1800 1.415 . S
C1800 H1776 0.950 . S
C1800 C1795 1.363 . S
C1800 C1799 1.415 . S
C1801 H1777 0.951 . S
C1801 C1802 1.366 . S
C1801 C1803 1.388 . S
C1802 C1801 1.366 . S
C1802 C1806 1.385 . S
C1803 H1778 0.951 . S
C1803 C1801 1.388 . S
C1803 C1804 1.366 . S
C1804 C1803 1.366 . S
C1804 C1805 1.414 . S
C1804 C1807 1.499 . S
C1805 H1779 0.950 . S
C1805 C1804 1.414 . S
C1805 C1806 1.374 . S
C1806 H1780 0.950 . S
C1806 C1802 1.385 . S
C1806 C1805 1.374 . S
C1807 C1804 1.499 . S
C1807 C1808 1.373 . S
C1807 C1809 1.389 . S
C1808 H1781 0.950 . S
C1808 C1794 1.377 . S
C1808 C1807 1.373 . S
C1809 C1793 1.377 . S
C1809 C1807 1.389 . S
C1809 C1810 1.524 . S
C1810 C1809 1.524 . S
C1810 C1811 1.397 . S
C1810 C1815 1.363 . S
C1811 H1782 0.950 . S
C1811 C1810 1.397 . S
C1811 C1812 1.334 . S
C1812 H1783 0.950 . S
C1812 C1811 1.334 . S
C1812 C1813 1.287 . S
C1813 C1812 1.287 . S
C1813 C1814 1.524 . S
C1813 H1816 0.999 . S
C1814 H1784 0.950 . S
C1814 C1813 1.524 . S
C1814 C1815 1.415 . S
C1815 H1785 0.950 . S
C1815 C1810 1.363 . S
C1815 C1814 1.415 . S
H1816 C1813 0.999 . S
H1817 C1798 0.923 . S
H1818 C1836 0.951 . S
H1819 C1838 0.951 . S
H1820 C1840 0.950 . S
H1821 C1841 0.950 . S
H1822 C1843 0.950 . S
H1823 C1846 0.950 . S
H1824 C1847 0.950 . S
H1825 C1849 0.950 . S
H1826 C1850 0.950 . S
H1827 C1851 0.951 . S
H1828 C1853 0.951 . S
H1829 C1855 0.950 . S
H1830 C1856 0.950 . S
H1831 C1858 0.950 . S
H1832 C1861 0.950 . S
H1833 C1862 0.950 . S
H1834 C1864 0.950 . S
H1835 C1865 0.950 . S
C1836 H1818 0.951 . S
C1836 C1837 1.366 . S
C1836 C1838 1.388 . S
C1837 C1836 1.366 . S
C1837 C1841 1.385 . S
C1838 H1819 0.951 . S
C1838 C1836 1.388 . S
C1838 C1839 1.366 . S
C1839 C1838 1.366 . S
C1839 C1840 1.414 . S
C1839 C1842 1.499 . S
C1840 H1820 0.950 . S
C1840 C1839 1.414 . S
C1840 C1841 1.374 . S
C1841 H1821 0.950 . S
C1841 C1837 1.385 . S
C1841 C1840 1.374 . S
C1842 C1839 1.499 . S
C1842 C1843 1.373 . S
C1842 C1844 1.389 . S
C1843 H1822 0.950 . S
C1843 C1842 1.373 . S
C1843 C1859 1.377 . S
C1844 C1842 1.389 . S
C1844 C1845 1.524 . S
C1844 C1858 1.377 . S
C1845 C1844 1.524 . S
C1845 C1846 1.397 . S
C1845 C1850 1.363 . S
C1846 H1823 0.950 . S
C1846 C1845 1.397 . S
C1846 C1847 1.334 . S
C1847 H1824 0.950 . S
C1847 C1846 1.334 . S
C1847 C1848 1.287 . S
C1848 C1847 1.287 . S
C1848 C1849 1.524 . S
C1848 H1867 0.913 . S
C1849 H1825 0.950 . S
C1849 C1848 1.524 . S
C1849 C1850 1.415 . S
C1850 H1826 0.950 . S
C1850 C1845 1.363 . S
C1850 C1849 1.415 . S
C1851 H1827 0.951 . S
C1851 C1852 1.366 . S
C1851 C1853 1.388 . S
C1852 C1851 1.366 . S
C1852 C1856 1.385 . S
C1853 H1828 0.951 . S
C1853 C1851 1.388 . S
C1853 C1854 1.366 . S
C1854 C1853 1.366 . S
C1854 C1855 1.414 . S
C1854 C1857 1.499 . S
C1855 H1829 0.950 . S
C1855 C1854 1.414 . S
C1855 C1856 1.374 . S
C1856 H1830 0.950 . S
C1856 C1852 1.385 . S
C1856 C1855 1.374 . S
C1857 C1854 1.499 . S
C1857 C1858 1.373 . S
C1857 C1859 1.389 . S
C1858 H1831 0.950 . S
C1858 C1844 1.377 . S
C1858 C1857 1.373 . S
C1859 C1843 1.377 . S
C1859 C1857 1.389 . S
C1859 C1860 1.524 1_545 S
C1860 C1859 1.524 1_565 S
C1860 C1861 1.397 . S
C1860 C1865 1.363 . S
C1861 H1832 0.950 . S
C1861 C1860 1.397 . S
C1861 C1862 1.334 . S
C1862 H1833 0.950 . S
C1862 C1861 1.334 . S
C1862 C1863 1.287 . S
C1863 C1862 1.287 . S
C1863 C1864 1.524 . S
C1863 H1866 0.999 . S
C1864 H1834 0.950 . S
C1864 C1863 1.524 . S
C1864 C1865 1.415 . S
C1865 H1835 0.950 . S
C1865 C1860 1.363 . S
C1865 C1864 1.415 . S
H1866 C1863 0.999 . S
H1867 C1848 0.913 . S
H1868 C1886 0.951 . S
H1869 C1888 0.951 . S
H1870 C1890 0.950 . S
H1871 C1891 0.950 . S
H1872 C1893 0.950 . S
H1873 C1896 0.950 . S
H1874 C1897 0.950 . S
H1875 C1899 0.950 . S
H1876 C1900 0.950 . S
H1877 C1901 0.951 . S
H1878 C1903 0.951 . S
H1879 C1905 0.950 . S
H1880 C1906 0.950 . S
H1881 C1908 0.950 . S
H1882 C1911 0.950 . S
H1883 C1912 0.950 . S
H1884 C1914 0.950 . S
H1885 C1915 0.950 . S
C1886 H1868 0.951 . S
C1886 C1887 1.366 . S
C1886 C1888 1.388 . S
C1887 C1886 1.366 . S
C1887 C1891 1.385 . S
C1888 H1869 0.951 . S
C1888 C1886 1.388 . S
C1888 C1889 1.366 . S
C1889 C1888 1.366 . S
C1889 C1890 1.414 . S
C1889 C1892 1.499 . S
C1890 H1870 0.950 . S
C1890 C1889 1.414 . S
C1890 C1891 1.374 . S
C1891 H1871 0.950 . S
C1891 C1887 1.385 . S
C1891 C1890 1.374 . S
C1892 C1889 1.499 . S
C1892 C1893 1.373 . S
C1892 C1894 1.389 . S
C1893 H1872 0.950 . S
C1893 C1892 1.373 . S
C1893 C1909 1.377 . S
C1894 C1892 1.389 . S
C1894 C1895 1.524 . S
C1894 C1908 1.377 . S
C1895 C1894 1.524 . S
C1895 C1896 1.397 1_455 S
C1895 C1900 1.363 . S
C1896 H1873 0.950 . S
C1896 C1895 1.397 1_655 S
C1896 C1897 1.334 . S
C1897 H1874 0.950 . S
C1897 C1896 1.334 . S
C1897 C1898 1.287 . S
C1898 C1897 1.287 . S
C1898 C1899 1.524 1_655 S
C1898 H1917 0.913 . S
C1899 H1875 0.950 . S
C1899 C1898 1.524 1_455 S
C1899 C1900 1.415 . S
C1900 H1876 0.950 . S
C1900 C1895 1.363 . S
C1900 C1899 1.415 . S
C1901 H1877 0.951 . S
C1901 C1902 1.366 . S
C1901 C1903 1.388 . S
C1902 C1901 1.366 . S
C1902 C1906 1.385 . S
C1903 H1878 0.951 . S
C1903 C1901 1.388 . S
C1903 C1904 1.366 . S
C1904 C1903 1.366 . S
C1904 C1905 1.414 . S
C1904 C1907 1.499 . S
C1905 H1879 0.950 . S
C1905 C1904 1.414 . S
C1905 C1906 1.374 . S
C1906 H1880 0.950 . S
C1906 C1902 1.385 . S
C1906 C1905 1.374 . S
C1907 C1904 1.499 . S
C1907 C1908 1.373 . S
C1907 C1909 1.389 . S
C1908 H1881 0.950 . S
C1908 C1894 1.377 . S
C1908 C1907 1.373 . S
C1909 C1893 1.377 . S
C1909 C1907 1.389 . S
C1909 C1910 1.524 . S
C1910 C1909 1.524 . S
C1910 C1911 1.397 . S
C1910 C1915 1.363 . S
C1911 H1882 0.950 . S
C1911 C1910 1.397 . S
C1911 C1912 1.334 . S
C1912 H1883 0.950 . S
C1912 C1911 1.334 . S
C1912 C1913 1.287 . S
C1913 C1912 1.287 . S
C1913 C1914 1.524 . S
C1913 H1916 0.999 . S
C1914 H1884 0.950 . S
C1914 C1913 1.524 . S
C1914 C1915 1.415 . S
C1915 H1885 0.950 . S
C1915 C1910 1.363 . S
C1915 C1914 1.415 . S
H1916 C1913 0.999 . S
H1917 C1898 0.913 . S
H1918 C1936 0.945 1_565 S
H1919 C1938 0.951 . S
H1920 C1940 0.950 . S
H1921 C1941 0.950 . S
H1922 C1943 0.950 . S
H1923 C1946 0.950 . S
H1924 C1947 0.950 . S
H1925 C1949 0.950 . S
H1926 C1950 0.950 . S
H1927 C1951 0.951 . S
H1928 C1953 0.951 . S
H1929 C1955 0.950 . S
H1930 C1956 0.950 . S
H1931 C1958 0.950 . S
H1932 C1961 0.950 . S
H1933 C1962 0.950 . S
H1934 C1964 0.950 . S
H1935 C1965 0.950 . S
C1936 H1918 0.945 1_545 S
C1936 C1937 1.366 . S
C1936 C1938 1.388 . S
C1937 C1936 1.366 . S
C1937 C1941 1.385 . S
C1938 H1919 0.951 . S
C1938 C1936 1.388 . S
C1938 C1939 1.366 . S
C1939 C1938 1.366 . S
C1939 C1940 1.414 . S
C1939 C1942 1.499 . S
C1940 H1920 0.950 . S
C1940 C1939 1.414 . S
C1940 C1941 1.374 . S
C1941 H1921 0.950 . S
C1941 C1937 1.385 . S
C1941 C1940 1.374 . S
C1942 C1939 1.499 . S
C1942 C1943 1.373 1_545 S
C1942 C1944 1.389 . S
C1943 H1922 0.950 . S
C1943 C1942 1.373 1_565 S
C1943 C1959 1.377 . S
C1944 C1942 1.389 . S
C1944 C1945 1.524 . S
C1944 C1958 1.377 . S
C1945 C1944 1.524 . S
C1945 C1946 1.397 . S
C1945 C1950 1.363 . S
C1946 H1923 0.950 . S
C1946 C1945 1.397 . S
C1946 C1947 1.334 . S
C1947 H1924 0.950 . S
C1947 C1946 1.334 . S
C1947 C1948 1.287 . S
C1948 C1947 1.287 . S
C1948 C1949 1.524 . S
C1948 H1967 0.913 . S
C1949 H1925 0.950 . S
C1949 C1948 1.524 . S
C1949 C1950 1.415 . S
C1950 H1926 0.950 . S
C1950 C1945 1.363 . S
C1950 C1949 1.415 . S
C1951 H1927 0.951 . S
C1951 C1952 1.366 . S
C1951 C1953 1.388 . S
C1952 C1951 1.366 . S
C1952 C1956 1.385 . S
C1953 H1928 0.951 . S
C1953 C1951 1.388 . S
C1953 C1954 1.366 . S
C1954 C1953 1.366 . S
C1954 C1955 1.414 . S
C1954 C1957 1.499 . S
C1955 H1929 0.950 . S
C1955 C1954 1.414 . S
C1955 C1956 1.374 . S
C1956 H1930 0.950 . S
C1956 C1952 1.385 . S
C1956 C1955 1.374 . S
C1957 C1954 1.499 . S
C1957 C1958 1.373 . S
C1957 C1959 1.389 1_545 S
C1958 H1931 0.950 . S
C1958 C1944 1.377 . S
C1958 C1957 1.373 . S
C1959 C1943 1.377 . S
C1959 C1957 1.389 1_565 S
C1959 C1960 1.524 . S
C1960 C1959 1.524 . S
C1960 C1961 1.397 . S
C1960 C1965 1.363 . S
C1961 H1932 0.950 . S
C1961 C1960 1.397 . S
C1961 C1962 1.334 . S
C1962 H1933 0.950 . S
C1962 C1961 1.334 . S
C1962 C1963 1.287 . S
C1963 C1962 1.287 . S
C1963 C1964 1.524 . S
C1963 H1966 0.999 . S
C1964 H1934 0.950 . S
C1964 C1963 1.524 . S
C1964 C1965 1.415 . S
C1965 H1935 0.950 . S
C1965 C1960 1.363 . S
C1965 C1964 1.415 . S
H1966 C1963 0.999 . S
H1967 C1948 0.913 . S
H1968 C1986 0.951 . S
H1969 C1988 0.951 . S
H1970 C1990 0.950 . S
H1971 C1991 0.950 . S
H1972 C1993 0.950 . S
H1973 C1996 0.950 . S
H1974 C1997 0.950 . S
H1975 C1999 0.950 . S
H1976 C2000 0.950 1_455 S
H1977 C2001 0.951 . S
H1978 C2003 0.951 . S
H1979 C2005 0.950 . S
H1980 C2006 0.950 . S
H1981 C2008 0.950 . S
H1982 C2011 0.950 . S
H1983 C2012 0.950 . S
H1984 C2014 0.950 . S
H1985 C2015 0.950 . S
C1986 H1968 0.951 . S
C1986 C1987 1.366 . S
C1986 C1988 1.388 . S
C1987 C1986 1.366 . S
C1987 C1991 1.385 . S
C1988 H1969 0.951 . S
C1988 C1986 1.388 . S
C1988 C1989 1.366 . S
C1989 C1988 1.366 . S
C1989 C1990 1.414 . S
C1989 C1992 1.499 . S
C1990 H1970 0.950 . S
C1990 C1989 1.414 . S
C1990 C1991 1.374 . S
C1991 H1971 0.950 . S
C1991 C1987 1.385 . S
C1991 C1990 1.374 . S
C1992 C1989 1.499 . S
C1992 C1993 1.373 . S
C1992 C1994 1.389 . S
C1993 H1972 0.950 . S
C1993 C1992 1.373 . S
C1993 C2009 1.377 . S
C1994 C1992 1.389 . S
C1994 C1995 1.547 . S
C1994 C2008 1.377 . S
C1995 C1994 1.547 . S
C1995 C1996 1.378 1_455 S
C1995 C2000 1.358 1_455 S
C1996 H1973 0.950 . S
C1996 C1995 1.378 1_655 S
C1996 C1997 1.334 . S
C1997 H1974 0.950 . S
C1997 C1996 1.334 . S
C1997 C1998 1.287 . S
C1998 C1997 1.287 . S
C1998 C1999 1.524 . S
C1998 H2017 0.913 . S
C1999 H1975 0.950 . S
C1999 C1998 1.524 . S
C1999 C2000 1.415 . S
C2000 H1976 0.950 1_655 S
C2000 C1995 1.358 1_655 S
C2000 C1999 1.415 . S
C2001 H1977 0.951 . S
C2001 C2002 1.366 . S
C2001 C2003 1.388 . S
C2002 C2001 1.366 . S
C2002 C2006 1.385 . S
C2003 H1978 0.951 . S
C2003 C2001 1.388 . S
C2003 C2004 1.366 . S
C2004 C2003 1.366 . S
C2004 C2005 1.414 . S
C2004 C2007 1.499 . S
C2005 H1979 0.950 . S
C2005 C2004 1.414 . S
C2005 C2006 1.374 . S
C2006 H1980 0.950 . S
C2006 C2002 1.385 . S
C2006 C2005 1.374 . S
C2007 C2004 1.499 . S
C2007 C2008 1.373 . S
C2007 C2009 1.389 . S
C2008 H1981 0.950 . S
C2008 C1994 1.377 . S
C2008 C2007 1.373 . S
C2009 C1993 1.377 . S
C2009 C2007 1.389 . S
C2009 C2010 1.524 . S
C2010 C2009 1.524 . S
C2010 C2011 1.397 . S
C2010 C2015 1.363 . S
C2011 H1982 0.950 . S
C2011 C2010 1.397 . S
C2011 C2012 1.334 . S
C2012 H1983 0.950 . S
C2012 C2011 1.334 . S
C2012 C2013 1.287 . S
C2013 C2012 1.287 . S
C2013 C2014 1.524 . S
C2013 H2016 0.999 . S
C2014 H1984 0.950 . S
C2014 C2013 1.524 . S
C2014 C2015 1.415 . S
C2015 H1985 0.950 . S
C2015 C2010 1.363 . S
C2015 C2014 1.415 . S
H2016 C2013 0.999 . S
H2017 C1998 0.913 . S
H2018 C2036 0.951 . S
H2019 C2038 0.951 . S
H2020 C2040 0.950 . S
H2021 C2041 0.950 . S
H2022 C2043 0.950 1_565 S
H2023 C2046 0.950 . S
H2024 C2047 0.950 . S
H2025 C2049 0.950 . S
H2026 C2050 0.950 . S
H2027 C2051 0.951 1_565 S
H2028 C2053 0.976 . S
H2029 C2055 0.950 . S
H2030 C2056 0.950 . S
H2031 C2058 0.950 . S
H2032 C2061 0.950 . S
H2033 C2062 0.950 . S
H2034 C2064 0.950 . S
H2035 C2065 0.950 . S
C2036 H2018 0.951 . S
C2036 C2037 1.366 . S
C2036 C2038 1.388 . S
C2037 C2036 1.366 . S
C2037 C2041 1.385 . S
C2038 H2019 0.951 . S
C2038 C2036 1.388 . S
C2038 C2039 1.366 . S
C2039 C2038 1.366 . S
C2039 C2040 1.414 . S
C2039 C2042 1.499 . S
C2040 H2020 0.950 . S
C2040 C2039 1.414 . S
C2040 C2041 1.374 . S
C2041 H2021 0.950 . S
C2041 C2037 1.385 . S
C2041 C2040 1.374 . S
C2042 C2039 1.499 . S
C2042 C2043 1.373 . S
C2042 C2044 1.389 . S
C2043 H2022 0.950 1_545 S
C2043 C2042 1.373 . S
C2043 C2059 1.377 . S
C2044 C2042 1.389 . S
C2044 C2045 1.524 . S
C2044 C2058 1.377 . S
C2045 C2044 1.524 . S
C2045 C2046 1.397 . S
C2045 C2050 1.363 . S
C2046 H2023 0.950 . S
C2046 C2045 1.397 . S
C2046 C2047 1.334 . S
C2047 H2024 0.950 . S
C2047 C2046 1.334 . S
C2047 C2048 1.287 . S
C2048 C2047 1.287 . S
C2048 C2049 1.524 . S
C2048 H2067 0.913 . S
C2049 H2025 0.950 . S
C2049 C2048 1.524 . S
C2049 C2050 1.415 . S
C2050 H2026 0.950 . S
C2050 C2045 1.363 . S
C2050 C2049 1.415 . S
C2051 H2027 0.951 1_545 S
C2051 C2052 1.366 . S
C2051 C2053 1.388 . S
C2052 C2051 1.366 . S
C2052 C2056 1.385 . S
C2053 H2028 0.976 . S
C2053 C2051 1.388 . S
C2053 C2054 1.366 . S
C2054 C2053 1.366 . S
C2054 C2055 1.414 . S
C2054 C2057 1.499 . S
C2055 H2029 0.950 . S
C2055 C2054 1.414 . S
C2055 C2056 1.374 . S
C2056 H2030 0.950 . S
C2056 C2052 1.385 . S
C2056 C2055 1.374 . S
C2057 C2054 1.499 . S
C2057 C2058 1.373 . S
C2057 C2059 1.389 . S
C2058 H2031 0.950 . S
C2058 C2044 1.377 . S
C2058 C2057 1.373 . S
C2059 C2043 1.377 . S
C2059 C2057 1.389 . S
C2059 C2060 1.524 1_545 S
C2060 C2059 1.524 1_565 S
C2060 C2061 1.397 . S
C2060 C2065 1.363 . S
C2061 H2032 0.950 . S
C2061 C2060 1.397 . S
C2061 C2062 1.334 . S
C2062 H2033 0.950 . S
C2062 C2061 1.334 . S
C2062 C2063 1.287 . S
C2063 C2062 1.287 . S
C2063 C2064 1.524 . S
C2063 H2066 0.999 . S
C2064 H2034 0.950 . S
C2064 C2063 1.524 . S
C2064 C2065 1.415 . S
C2065 H2035 0.950 . S
C2065 C2060 1.363 . S
C2065 C2064 1.415 . S
H2066 C2063 0.999 . S
H2067 C2048 0.913 . S
H2068 C2086 0.951 1_655 S
H2069 C2088 0.951 1_655 S
H2070 C2090 0.950 . S
H2071 C2091 0.950 . S
H2072 C2093 0.950 . S
H2073 C2096 0.950 . S
H2074 C2097 0.950 . S
H2075 C2099 0.950 . S
H2076 C2100 0.950 . S
H2077 C2101 0.951 . S
H2078 C2103 0.951 . S
H2079 C2105 0.950 1_655 S
H2080 C2106 0.950 1_655 S
H2081 C2108 0.950 . S
H2082 C2111 0.950 . S
H2083 C2112 0.950 . S
H2084 C2114 0.950 . S
H2085 C2115 0.950 . S
C2086 H2068 0.951 1_455 S
C2086 C2087 1.366 . S
C2086 C2088 1.388 . S
C2087 C2086 1.366 . S
C2087 C2091 1.385 . S
C2088 H2069 0.951 1_455 S
C2088 C2086 1.388 . S
C2088 C2089 1.366 . S
C2089 C2088 1.366 . S
C2089 C2090 1.414 . S
C2089 C2092 1.499 . S
C2090 H2070 0.950 . S
C2090 C2089 1.414 . S
C2090 C2091 1.374 . S
C2091 H2071 0.950 . S
C2091 C2087 1.385 . S
C2091 C2090 1.374 . S
C2092 C2089 1.499 . S
C2092 C2093 1.373 . S
C2092 C2094 1.389 . S
C2093 H2072 0.950 . S
C2093 C2092 1.373 . S
C2093 C2109 1.377 . S
C2094 C2092 1.389 . S
C2094 C2095 1.524 . S
C2094 C2108 1.377 . S
C2095 C2094 1.524 . S
C2095 C2096 1.397 . S
C2095 C2100 1.363 1_455 S
C2096 H2073 0.950 . S
C2096 C2095 1.397 . S
C2096 C2097 1.334 . S
C2097 H2074 0.950 . S
C2097 C2096 1.334 . S
C2097 C2098 1.287 1_455 S
C2098 C2097 1.287 1_655 S
C2098 C2099 1.524 . S
C2098 H2117 0.913 . S
C2099 H2075 0.950 . S
C2099 C2098 1.524 . S
C2099 C2100 1.415 . S
C2100 H2076 0.950 . S
C2100 C2095 1.363 1_655 S
C2100 C2099 1.415 . S
C2101 H2077 0.951 . S
C2101 C2102 1.366 . S
C2101 C2103 1.388 . S
C2102 C2101 1.366 . S
C2102 C2106 1.385 . S
C2103 H2078 0.951 . S
C2103 C2101 1.388 . S
C2103 C2104 1.366 . S
C2104 C2103 1.366 . S
C2104 C2105 1.414 . S
C2104 C2107 1.499 . S
C2105 H2079 0.950 1_455 S
C2105 C2104 1.414 . S
C2105 C2106 1.374 . S
C2106 H2080 0.950 1_455 S
C2106 C2102 1.385 . S
C2106 C2105 1.374 . S
C2107 C2104 1.499 . S
C2107 C2108 1.373 . S
C2107 C2109 1.389 . S
C2108 H2081 0.950 . S
C2108 C2094 1.377 . S
C2108 C2107 1.373 . S
C2109 C2093 1.377 . S
C2109 C2107 1.389 . S
C2109 C2110 1.524 . S
C2110 C2109 1.524 . S
C2110 C2111 1.397 . S
C2110 C2115 1.363 . S
C2111 H2082 0.950 . S
C2111 C2110 1.397 . S
C2111 C2112 1.334 . S
C2112 H2083 0.950 . S
C2112 C2111 1.334 . S
C2112 C2113 1.287 . S
C2113 C2112 1.287 . S
C2113 C2114 1.524 . S
C2113 H2116 0.999 . S
C2114 H2084 0.950 . S
C2114 C2113 1.524 . S
C2114 C2115 1.415 . S
C2115 H2085 0.950 . S
C2115 C2110 1.363 . S
C2115 C2114 1.415 . S
H2116 C2113 0.999 . S
H2117 C2098 0.913 . S
H2118 C2136 0.951 . S
H2119 C2138 0.951 . S
H2120 C2140 0.950 . S
H2121 C2141 0.950 . S
H2122 C2143 0.955 . S
H2123 C2146 0.950 . S
H2124 C2147 0.950 . S
H2125 C2149 0.950 . S
H2126 C2150 0.950 . S
H2127 C2151 0.951 . S
H2128 C2153 0.951 . S
H2129 C2155 0.950 . S
H2130 C2156 0.950 . S
H2131 C2158 0.950 . S
H2132 C2161 0.950 . S
H2133 C2162 0.950 . S
H2134 C2164 0.950 . S
H2135 C2165 0.950 1_545 S
C2136 H2118 0.951 . S
C2136 C2137 1.366 1_565 S
C2136 C2138 1.388 . S
C2137 C2136 1.366 1_545 S
C2137 C2141 1.385 . S
C2138 H2119 0.951 . S
C2138 C2136 1.388 . S
C2138 C2139 1.366 1_565 S
C2139 C2138 1.366 1_545 S
C2139 C2140 1.414 . S
C2139 C2142 1.499 . S
C2140 H2120 0.950 . S
C2140 C2139 1.414 . S
C2140 C2141 1.374 . S
C2141 H2121 0.950 . S
C2141 C2137 1.385 . S
C2141 C2140 1.374 . S
C2142 C2139 1.499 . S
C2142 C2143 1.369 1_545 S
C2142 C2144 1.389 . S
C2143 H2122 0.955 . S
C2143 C2142 1.369 1_565 S
C2143 C2159 1.376 1_565 S
C2144 C2142 1.389 . S
C2144 C2145 1.524 . S
C2144 C2158 1.377 . S
C2145 C2144 1.524 . S
C2145 C2146 1.397 . S
C2145 C2150 1.363 . S
C2146 H2123 0.950 . S
C2146 C2145 1.397 . S
C2146 C2147 1.334 . S
C2147 H2124 0.950 . S
C2147 C2146 1.334 . S
C2147 C2148 1.287 . S
C2148 C2147 1.287 . S
C2148 C2149 1.524 . S
C2148 H2167 0.913 . S
C2149 H2125 0.950 . S
C2149 C2148 1.524 . S
C2149 C2150 1.415 . S
C2150 H2126 0.950 . S
C2150 C2145 1.363 . S
C2150 C2149 1.415 . S
C2151 H2127 0.951 . S
C2151 C2152 1.366 . S
C2151 C2153 1.388 . S
C2152 C2151 1.366 . S
C2152 C2156 1.385 . S
C2153 H2128 0.951 . S
C2153 C2151 1.388 . S
C2153 C2154 1.366 . S
C2154 C2153 1.366 . S
C2154 C2155 1.414 . S
C2154 C2157 1.499 . S
C2155 H2129 0.950 . S
C2155 C2154 1.414 . S
C2155 C2156 1.374 . S
C2156 H2130 0.950 . S
C2156 C2152 1.385 . S
C2156 C2155 1.374 . S
C2157 C2154 1.499 . S
C2157 C2158 1.373 . S
C2157 C2159 1.388 . S
C2158 H2131 0.950 . S
C2158 C2144 1.377 . S
C2158 C2157 1.373 . S
C2159 C2143 1.376 1_545 S
C2159 C2157 1.388 . S
C2159 C2160 1.526 1_545 S
C2160 C2159 1.526 1_565 S
C2160 C2161 1.397 . S
C2160 C2165 1.363 . S
C2161 H2132 0.950 . S
C2161 C2160 1.397 . S
C2161 C2162 1.334 . S
C2162 H2133 0.950 . S
C2162 C2161 1.334 . S
C2162 C2163 1.287 . S
C2163 C2162 1.287 . S
C2163 C2164 1.524 . S
C2163 H2166 0.999 . S
C2164 H2134 0.950 . S
C2164 C2163 1.524 . S
C2164 C2165 1.415 . S
C2165 H2135 0.950 1_565 S
C2165 C2160 1.363 . S
C2165 C2164 1.415 . S
H2166 C2163 0.999 . S
H2167 C2148 0.913 . S
H2168 C2186 0.951 . S
H2169 C2188 0.951 . S
H2170 C2190 0.950 . S
H2171 C2191 0.950 . S
H2172 C2193 0.950 . S
H2173 C2196 0.950 . S
H2174 C2197 0.950 . S
H2175 C2199 0.950 . S
H2176 C2200 0.950 . S
H2177 C2201 0.951 . S
H2178 C2203 0.951 . S
H2179 C2205 0.950 . S
H2180 C2206 0.950 . S
H2181 C2208 0.950 . S
H2182 C2211 0.950 . S
H2183 C2212 0.950 . S
H2184 C2214 0.950 . S
H2185 C2215 0.950 . S
C2186 H2168 0.951 . S
C2186 C2187 1.366 1_655 S
C2186 C2188 1.388 . S
C2187 C2186 1.366 1_455 S
C2187 C2191 1.385 . S
C2188 H2169 0.951 . S
C2188 C2186 1.388 . S
C2188 C2189 1.366 1_655 S
C2189 C2188 1.366 1_455 S
C2189 C2190 1.414 . S
C2189 C2192 1.499 . S
C2190 H2170 0.950 . S
C2190 C2189 1.414 . S
C2190 C2191 1.374 . S
C2191 H2171 0.950 . S
C2191 C2187 1.385 . S
C2191 C2190 1.374 . S
C2192 C2189 1.499 . S
C2192 C2193 1.373 . S
C2192 C2194 1.389 . S
C2193 H2172 0.950 . S
C2193 C2192 1.373 . S
C2193 C2209 1.377 . S
C2194 C2192 1.389 . S
C2194 C2195 1.524 . S
C2194 C2208 1.377 . S
C2195 C2194 1.524 . S
C2195 C2196 1.397 . S
C2195 C2200 1.363 1_455 S
C2196 H2173 0.950 . S
C2196 C2195 1.397 . S
C2196 C2197 1.334 . S
C2197 H2174 0.950 . S
C2197 C2196 1.334 . S
C2197 C2198 1.287 . S
C2198 C2197 1.287 . S
C2198 C2199 1.524 1_455 S
C2198 H2217 0.913 . S
C2199 H2175 0.950 . S
C2199 C2198 1.524 1_655 S
C2199 C2200 1.415 . S
C2200 H2176 0.950 . S
C2200 C2195 1.363 1_655 S
C2200 C2199 1.415 . S
C2201 H2177 0.951 . S
C2201 C2202 1.366 . S
C2201 C2203 1.388 . S
C2202 C2201 1.366 . S
C2202 C2206 1.385 1_455 S
C2203 H2178 0.951 . S
C2203 C2201 1.388 . S
C2203 C2204 1.366 . S
C2204 C2203 1.366 . S
C2204 C2205 1.414 1_455 S
C2204 C2207 1.499 . S
C2205 H2179 0.950 . S
C2205 C2204 1.414 1_655 S
C2205 C2206 1.374 . S
C2206 H2180 0.950 . S
C2206 C2202 1.385 1_655 S
C2206 C2205 1.374 . S
C2207 C2204 1.499 . S
C2207 C2208 1.373 . S
C2207 C2209 1.389 . S
C2208 H2181 0.950 . S
C2208 C2194 1.377 . S
C2208 C2207 1.373 . S
C2209 C2193 1.377 . S
C2209 C2207 1.389 . S
C2209 C2210 1.524 . S
C2210 C2209 1.524 . S
C2210 C2211 1.397 1_455 S
C2210 C2215 1.363 . S
C2211 H2182 0.950 . S
C2211 C2210 1.397 1_655 S
C2211 C2212 1.334 . S
C2212 H2183 0.950 . S
C2212 C2211 1.334 . S
C2212 C2213 1.262 1_655 S
C2213 C2212 1.262 1_455 S
C2213 C2214 1.556 . S
C2213 H2216 0.998 1_455 S
C2214 H2184 0.950 . S
C2214 C2213 1.556 . S
C2214 C2215 1.415 . S
C2215 H2185 0.950 . S
C2215 C2210 1.363 . S
C2215 C2214 1.415 . S
H2216 C2213 0.998 1_655 S
H2217 C2198 0.913 . S
H2218 C2236 0.951 . S
H2219 C2238 0.951 . S
H2220 C2240 0.950 . S
H2221 C2241 0.950 . S
H2222 C2243 0.950 . S
H2223 C2246 0.950 . S
H2224 C2247 0.950 . S
H2225 C2249 0.950 . S
H2226 C2250 0.950 . S
H2227 C2251 0.951 1_565 S
H2228 C2253 0.951 1_565 S
H2229 C2255 0.950 . S
H2230 C2256 0.950 . S
H2231 C2258 0.950 . S
H2232 C2261 0.950 . S
H2233 C2262 0.950 . S
H2234 C2264 0.950 . S
H2235 C2265 0.950 . S
C2236 H2218 0.951 . S
C2236 C2237 1.366 . S
C2236 C2238 1.388 . S
C2237 C2236 1.366 . S
C2237 C2241 1.385 1_545 S
C2238 H2219 0.951 . S
C2238 C2236 1.388 . S
C2238 C2239 1.366 . S
C2239 C2238 1.366 . S
C2239 C2240 1.414 1_545 S
C2239 C2242 1.499 . S
C2240 H2220 0.950 . S
C2240 C2239 1.414 1_565 S
C2240 C2241 1.374 . S
C2241 H2221 0.950 . S
C2241 C2237 1.385 1_565 S
C2241 C2240 1.374 . S
C2242 C2239 1.499 . S
C2242 C2243 1.373 1_545 S
C2242 C2244 1.389 . S
C2243 H2222 0.950 . S
C2243 C2242 1.373 1_565 S
C2243 C2259 1.377 . S
C2244 C2242 1.389 . S
C2244 C2245 1.524 . S
C2244 C2258 1.377 . S
C2245 C2244 1.524 . S
C2245 C2246 1.397 . S
C2245 C2250 1.363 . S
C2246 H2223 0.950 . S
C2246 C2245 1.397 . S
C2246 C2247 1.334 . S
C2247 H2224 0.950 . S
C2247 C2246 1.334 . S
C2247 C2248 1.287 . S
C2248 C2247 1.287 . S
C2248 C2249 1.524 . S
C2248 H2267 0.913 . S
C2249 H2225 0.950 . S
C2249 C2248 1.524 . S
C2249 C2250 1.415 . S
C2250 H2226 0.950 . S
C2250 C2245 1.363 . S
C2250 C2249 1.415 . S
C2251 H2227 0.951 1_545 S
C2251 C2252 1.366 . S
C2251 C2253 1.388 . S
C2252 C2251 1.366 . S
C2252 C2256 1.385 . S
C2253 H2228 0.951 1_545 S
C2253 C2251 1.388 . S
C2253 C2254 1.366 . S
C2254 C2253 1.366 . S
C2254 C2255 1.414 . S
C2254 C2257 1.499 . S
C2255 H2229 0.950 . S
C2255 C2254 1.414 . S
C2255 C2256 1.374 . S
C2256 H2230 0.950 . S
C2256 C2252 1.385 . S
C2256 C2255 1.374 . S
C2257 C2254 1.499 . S
C2257 C2258 1.373 . S
C2257 C2259 1.389 1_545 S
C2258 H2231 0.950 . S
C2258 C2244 1.377 . S
C2258 C2257 1.373 . S
C2259 C2243 1.377 . S
C2259 C2257 1.389 1_565 S
C2259 C2260 1.524 . S
C2260 C2259 1.524 . S
C2260 C2261 1.397 . S
C2260 C2265 1.363 . S
C2261 H2232 0.950 . S
C2261 C2260 1.397 . S
C2261 C2262 1.334 . S
C2262 H2233 0.950 . S
C2262 C2261 1.334 . S
C2262 C2263 1.287 . S
C2263 C2262 1.287 . S
C2263 C2264 1.524 . S
C2263 H2266 0.999 . S
C2264 H2234 0.950 . S
C2264 C2263 1.524 . S
C2264 C2265 1.415 . S
C2265 H2235 0.950 . S
C2265 C2260 1.363 . S
C2265 C2264 1.415 . S
H2266 C2263 0.999 . S
H2267 C2248 0.913 . S
H2268 C2286 0.951 1_655 S
H2269 C2288 0.951 1_655 S
H2270 C2290 0.950 . S
H2271 C2291 0.950 . S
H2272 C2293 0.950 . S
H2273 C2296 0.950 . S
H2274 C2297 0.950 . S
H2275 C2299 0.950 . S
H2276 C2300 0.950 . S
H2277 C2301 0.951 . S
H2278 C2303 0.951 . S
H2279 C2305 0.950 1_655 S
H2280 C2306 0.950 1_655 S
H2281 C2308 0.950 . S
H2282 C2311 0.950 . S
H2283 C2312 0.950 . S
H2284 C2314 0.950 . S
H2285 C2315 0.950 . S
C2286 H2268 0.951 1_455 S
C2286 C2287 1.366 . S
C2286 C2288 1.388 . S
C2287 C2286 1.366 . S
C2287 C2291 1.385 . S
C2288 H2269 0.951 1_455 S
C2288 C2286 1.388 . S
C2288 C2289 1.366 . S
C2289 C2288 1.366 . S
C2289 C2290 1.414 . S
C2289 C2292 1.499 . S
C2290 H2270 0.950 . S
C2290 C2289 1.414 . S
C2290 C2291 1.374 . S
C2291 H2271 0.950 . S
C2291 C2287 1.385 . S
C2291 C2290 1.374 . S
C2292 C2289 1.499 . S
C2292 C2293 1.373 . S
C2292 C2294 1.389 . S
C2293 H2272 0.950 . S
C2293 C2292 1.373 . S
C2293 C2309 1.377 . S
C2294 C2292 1.389 . S
C2294 C2295 1.524 . S
C2294 C2308 1.377 . S
C2295 C2294 1.524 . S
C2295 C2296 1.397 . S
C2295 C2300 1.363 1_455 S
C2296 H2273 0.950 . S
C2296 C2295 1.397 . S
C2296 C2297 1.334 . S
C2297 H2274 0.950 . S
C2297 C2296 1.334 . S
C2297 C2298 1.287 . S
C2298 C2297 1.287 . S
C2298 C2299 1.524 1_455 S
C2298 H2317 0.913 1_455 S
C2299 H2275 0.950 . S
C2299 C2298 1.524 1_655 S
C2299 C2300 1.415 . S
C2300 H2276 0.950 . S
C2300 C2295 1.363 1_655 S
C2300 C2299 1.415 . S
C2301 H2277 0.951 . S
C2301 C2302 1.366 . S
C2301 C2303 1.388 . S
C2302 C2301 1.366 . S
C2302 C2306 1.385 . S
C2303 H2278 0.951 . S
C2303 C2301 1.388 . S
C2303 C2304 1.366 . S
C2304 C2303 1.366 . S
C2304 C2305 1.414 . S
C2304 C2307 1.499 . S
C2305 H2279 0.950 1_455 S
C2305 C2304 1.414 . S
C2305 C2306 1.374 . S
C2306 H2280 0.950 1_455 S
C2306 C2302 1.385 . S
C2306 C2305 1.374 . S
C2307 C2304 1.499 . S
C2307 C2308 1.373 . S
C2307 C2309 1.389 . S
C2308 H2281 0.950 . S
C2308 C2294 1.377 . S
C2308 C2307 1.373 . S
C2309 C2293 1.377 . S
C2309 C2307 1.389 . S
C2309 C2310 1.524 . S
C2310 C2309 1.524 . S
C2310 C2311 1.397 . S
C2310 C2315 1.363 . S
C2311 H2282 0.950 . S
C2311 C2310 1.397 . S
C2311 C2312 1.334 . S
C2312 H2283 0.950 . S
C2312 C2311 1.334 . S
C2312 C2313 1.287 . S
C2313 C2312 1.287 . S
C2313 C2314 1.524 . S
C2313 H2316 0.999 . S
C2314 H2284 0.950 . S
C2314 C2313 1.524 . S
C2314 C2315 1.415 . S
C2315 H2285 0.950 . S
C2315 C2310 1.363 . S
C2315 C2314 1.415 . S
H2316 C2313 0.999 . S
H2317 C2298 0.913 1_655 S
H2318 C2336 0.951 . S
H2319 C2338 0.951 . S
H2320 C2340 0.950 . S
H2321 C2341 0.950 . S
H2322 C2343 0.950 . S
H2323 C2346 0.950 . S
H2324 C2347 0.950 . S
H2325 C2349 0.950 . S
H2326 C2350 0.950 . S
H2327 C2351 0.951 . S
H2328 C2353 0.951 . S
H2329 C2355 0.950 . S
H2330 C2356 0.979 . S
H2331 C2358 0.950 1_565 S
H2332 C2361 0.950 . S
H2333 C2362 0.950 . S
H2334 C2364 0.950 . S
H2335 C2365 0.950 . S
C2336 H2318 0.951 . S
C2336 C2337 1.366 . S
C2336 C2338 1.388 . S
C2337 C2336 1.366 . S
C2337 C2341 1.385 . S
C2338 H2319 0.951 . S
C2338 C2336 1.388 . S
C2338 C2339 1.366 . S
C2339 C2338 1.366 . S
C2339 C2340 1.414 . S
C2339 C2342 1.499 . S
C2340 H2320 0.950 . S
C2340 C2339 1.414 . S
C2340 C2341 1.374 . S
C2341 H2321 0.950 . S
C2341 C2337 1.385 . S
C2341 C2340 1.374 . S
C2342 C2339 1.499 . S
C2342 C2343 1.373 . S
C2342 C2344 1.389 . S
C2343 H2322 0.950 . S
C2343 C2342 1.373 . S
C2343 C2359 1.377 . S
C2344 C2342 1.389 . S
C2344 C2345 1.524 1_545 S
C2344 C2358 1.377 . S
C2345 C2344 1.524 1_565 S
C2345 C2346 1.397 . S
C2345 C2350 1.363 . S
C2346 H2323 0.950 . S
C2346 C2345 1.397 . S
C2346 C2347 1.334 . S
C2347 H2324 0.950 . S
C2347 C2346 1.334 . S
C2347 C2348 1.287 . S
C2348 C2347 1.287 . S
C2348 C2349 1.524 . S
C2348 H2367 0.913 . S
C2349 H2325 0.950 . S
C2349 C2348 1.524 . S
C2349 C2350 1.415 . S
C2350 H2326 0.950 . S
C2350 C2345 1.363 . S
C2350 C2349 1.415 . S
C2351 H2327 0.951 . S
C2351 C2352 1.366 . S
C2351 C2353 1.388 . S
C2352 C2351 1.366 . S
C2352 C2356 1.385 . S
C2353 H2328 0.951 . S
C2353 C2351 1.388 . S
C2353 C2354 1.366 . S
C2354 C2353 1.366 . S
C2354 C2355 1.414 . S
C2354 C2357 1.499 . S
C2355 H2329 0.950 . S
C2355 C2354 1.414 . S
C2355 C2356 1.374 . S
C2356 H2330 0.979 . S
C2356 C2352 1.385 . S
C2356 C2355 1.374 . S
C2357 C2354 1.499 . S
C2357 C2358 1.373 . S
C2357 C2359 1.389 . S
C2358 H2331 0.950 1_545 S
C2358 C2344 1.377 . S
C2358 C2357 1.373 . S
C2359 C2343 1.377 . S
C2359 C2357 1.389 . S
C2359 C2360 1.524 . S
C2360 C2359 1.524 . S
C2360 C2361 1.397 . S
C2360 C2365 1.363 . S
C2361 H2332 0.950 . S
C2361 C2360 1.397 . S
C2361 C2362 1.334 . S
C2362 H2333 0.950 . S
C2362 C2361 1.334 . S
C2362 C2363 1.287 . S
C2363 C2362 1.287 . S
C2363 C2364 1.524 . S
C2363 H2366 0.999 . S
C2364 H2334 0.950 . S
C2364 C2363 1.524 . S
C2364 C2365 1.415 . S
C2365 H2335 0.950 . S
C2365 C2360 1.363 . S
C2365 C2364 1.415 . S
H2366 C2363 0.999 . S
H2367 C2348 0.913 . S
H2368 C2386 0.951 . S
H2369 C2388 0.951 . S
H2370 C2390 0.946 1_565 S
H2371 C2391 0.954 . S
H2372 C2393 0.950 . S
H2373 C2396 0.950 . S
H2374 C2397 0.950 . S
H2375 C2399 0.950 . S
H2376 C2400 0.950 . S
H2377 C2401 0.951 . S
H2378 C2403 0.951 . S
H2379 C2405 0.950 . S
H2380 C2406 0.950 . S
H2381 C2408 0.950 . S
H2382 C2411 0.950 . S
H2383 C2412 0.950 . S
H2384 C2414 0.950 . S
H2385 C2415 0.950 . S
C2386 H2368 0.951 . S
C2386 C2387 1.366 . S
C2386 C2388 1.388 . S
C2387 C2386 1.366 . S
C2387 C2391 1.382 1_545 S
C2388 H2369 0.951 . S
C2388 C2386 1.388 . S
C2388 C2389 1.366 . S
C2389 C2388 1.366 . S
C2389 C2390 1.420 . S
C2389 C2392 1.499 . S
C2390 H2370 0.946 1_545 S
C2390 C2389 1.420 . S
C2390 C2391 1.372 1_545 S
C2391 H2371 0.954 . S
C2391 C2387 1.382 1_565 S
C2391 C2390 1.372 1_565 S
C2392 C2389 1.499 . S
C2392 C2393 1.373 1_545 S
C2392 C2394 1.389 . S
C2393 H2372 0.950 . S
C2393 C2392 1.373 1_565 S
C2393 C2409 1.377 . S
C2394 C2392 1.389 . S
C2394 C2395 1.524 . S
C2394 C2408 1.377 . S
C2395 C2394 1.524 . S
C2395 C2396 1.397 . S
C2395 C2400 1.363 . S
C2396 H2373 0.950 . S
C2396 C2395 1.397 . S
C2396 C2397 1.334 . S
C2397 H2374 0.950 . S
C2397 C2396 1.334 . S
C2397 C2398 1.287 . S
C2398 C2397 1.287 . S
C2398 C2399 1.524 . S
C2398 H2417 0.913 . S
C2399 H2375 0.950 . S
C2399 C2398 1.524 . S
C2399 C2400 1.415 . S
C2400 H2376 0.950 . S
C2400 C2395 1.363 . S
C2400 C2399 1.415 . S
C2401 H2377 0.951 . S
C2401 C2402 1.366 . S
C2401 C2403 1.388 . S
C2402 C2401 1.366 . S
C2402 C2406 1.385 . S
C2403 H2378 0.951 . S
C2403 C2401 1.388 . S
C2403 C2404 1.366 . S
C2404 C2403 1.366 . S
C2404 C2405 1.414 . S
C2404 C2407 1.499 . S
C2405 H2379 0.950 . S
C2405 C2404 1.414 . S
C2405 C2406 1.374 . S
C2406 H2380 0.950 . S
C2406 C2402 1.385 . S
C2406 C2405 1.374 . S
C2407 C2404 1.499 . S
C2407 C2408 1.373 . S
C2407 C2409 1.389 1_545 S
C2408 H2381 0.950 . S
C2408 C2394 1.377 . S
C2408 C2407 1.373 . S
C2409 C2393 1.377 . S
C2409 C2407 1.389 1_565 S
C2409 C2410 1.524 . S
C2410 C2409 1.524 . S
C2410 C2411 1.397 . S
C2410 C2415 1.363 . S
C2411 H2382 0.950 . S
C2411 C2410 1.397 . S
C2411 C2412 1.334 . S
C2412 H2383 0.950 . S
C2412 C2411 1.334 . S
C2412 C2413 1.287 . S
C2413 C2412 1.287 . S
C2413 C2414 1.524 . S
C2413 H2416 0.999 . S
C2414 H2384 0.950 . S
C2414 C2413 1.524 . S
C2414 C2415 1.415 . S
C2415 H2385 0.950 . S
C2415 C2410 1.363 . S
C2415 C2414 1.415 . S
H2416 C2413 0.999 . S
H2417 C2398 0.913 . S
H2418 C2436 0.951 . S
H2419 C2438 0.951 . S
H2420 C2440 0.950 . S
H2421 C2441 0.950 . S
H2422 C2443 0.950 . S
H2423 C2446 0.950 . S
H2424 C2447 0.950 . S
H2425 C2449 0.950 . S
H2426 C2450 0.950 . S
H2427 C2451 0.951 . S
H2428 C2453 0.951 . S
H2429 C2455 0.950 1_655 S
H2430 C2456 0.950 1_655 S
H2431 C2458 0.950 . S
H2432 C2461 0.950 . S
H2433 C2462 0.950 . S
H2434 C2464 0.950 . S
H2435 C2465 0.950 . S
C2436 H2418 0.951 . S
C2436 C2437 1.366 . S
C2436 C2438 1.388 . S
C2437 C2436 1.366 . S
C2437 C2441 1.385 . S
C2438 H2419 0.951 . S
C2438 C2436 1.388 . S
C2438 C2439 1.366 . S
C2439 C2438 1.366 . S
C2439 C2440 1.414 . S
C2439 C2442 1.499 . S
C2440 H2420 0.950 . S
C2440 C2439 1.414 . S
C2440 C2441 1.374 . S
C2441 H2421 0.950 . S
C2441 C2437 1.385 . S
C2441 C2440 1.374 . S
C2442 C2439 1.499 . S
C2442 C2443 1.373 . S
C2442 C2444 1.389 . S
C2443 H2422 0.950 . S
C2443 C2442 1.373 . S
C2443 C2459 1.377 . S
C2444 C2442 1.389 . S
C2444 C2445 1.524 . S
C2444 C2458 1.377 . S
C2445 C2444 1.524 . S
C2445 C2446 1.397 . S
C2445 C2450 1.363 . S
C2446 H2423 0.950 . S
C2446 C2445 1.397 . S
C2446 C2447 1.334 . S
C2447 H2424 0.950 . S
C2447 C2446 1.334 . S
C2447 C2448 1.287 . S
C2448 C2447 1.287 . S
C2448 C2449 1.524 . S
C2448 H2467 0.913 . S
C2449 H2425 0.950 . S
C2449 C2448 1.524 . S
C2449 C2450 1.415 . S
C2450 H2426 0.950 . S
C2450 C2445 1.363 . S
C2450 C2449 1.415 . S
C2451 H2427 0.951 . S
C2451 C2452 1.366 . S
C2451 C2453 1.388 . S
C2452 C2451 1.366 . S
C2452 C2456 1.385 . S
C2453 H2428 0.951 . S
C2453 C2451 1.388 . S
C2453 C2454 1.366 . S
C2454 C2453 1.366 . S
C2454 C2455 1.414 . S
C2454 C2457 1.499 . S
C2455 H2429 0.950 1_455 S
C2455 C2454 1.414 . S
C2455 C2456 1.374 . S
C2456 H2430 0.950 1_455 S
C2456 C2452 1.385 . S
C2456 C2455 1.374 . S
C2457 C2454 1.499 . S
C2457 C2458 1.373 . S
C2457 C2459 1.389 . S
C2458 H2431 0.950 . S
C2458 C2444 1.377 . S
C2458 C2457 1.373 . S
C2459 C2443 1.377 . S
C2459 C2457 1.389 . S
C2459 C2460 1.524 . S
C2460 C2459 1.524 . S
C2460 C2461 1.397 1_455 S
C2460 C2465 1.363 . S
C2461 H2432 0.950 . S
C2461 C2460 1.397 1_655 S
C2461 C2462 1.334 . S
C2462 H2433 0.950 . S
C2462 C2461 1.334 . S
C2462 C2463 1.287 . S
C2463 C2462 1.287 . S
C2463 C2464 1.524 1_655 S
C2463 H2466 0.999 . S
C2464 H2434 0.950 . S
C2464 C2463 1.524 1_455 S
C2464 C2465 1.415 . S
C2465 H2435 0.950 . S
C2465 C2460 1.363 . S
C2465 C2464 1.415 . S
H2466 C2463 0.999 . S
H2467 C2448 0.913 . S
H2468 C2486 0.951 . S
H2469 C2488 0.951 . S
H2470 C2490 0.950 . S
H2471 C2491 0.950 . S
H2472 C2493 0.989 . S
H2473 C2496 0.950 . S
H2474 C2497 0.950 . S
H2475 C2499 0.950 . S
H2476 C2500 0.950 . S
H2477 C2501 0.951 . S
H2478 C2503 0.951 . S
H2479 C2505 0.950 . S
H2480 C2506 0.950 . S
H2481 C2508 0.950 . S
H2482 C2511 0.950 . S
H2483 C2512 0.950 . S
H2484 C2514 0.950 . S
H2485 C2515 0.950 . S
C2486 H2468 0.951 . S
C2486 C2487 1.366 . S
C2486 C2488 1.388 . S
C2487 C2486 1.366 . S
C2487 C2491 1.385 . S
C2488 H2469 0.951 . S
C2488 C2486 1.388 . S
C2488 C2489 1.366 . S
C2489 C2488 1.366 . S
C2489 C2490 1.414 . S
C2489 C2492 1.499 . S
C2490 H2470 0.950 . S
C2490 C2489 1.414 . S
C2490 C2491 1.374 . S
C2491 H2471 0.950 . S
C2491 C2487 1.385 . S
C2491 C2490 1.374 . S
C2492 C2489 1.499 . S
C2492 C2493 1.373 . S
C2492 C2494 1.389 . S
C2493 H2472 0.989 . S
C2493 C2492 1.373 . S
C2493 C2509 1.377 . S
C2494 C2492 1.389 . S
C2494 C2495 1.524 . S
C2494 C2508 1.377 . S
C2495 C2494 1.524 . S
C2495 C2496 1.397 . S
C2495 C2500 1.363 . S
C2496 H2473 0.950 . S
C2496 C2495 1.397 . S
C2496 C2497 1.334 . S
C2497 H2474 0.950 . S
C2497 C2496 1.334 . S
C2497 C2498 1.287 . S
C2498 C2497 1.287 . S
C2498 C2499 1.524 . S
C2498 H2517 0.913 . S
C2499 H2475 0.950 . S
C2499 C2498 1.524 . S
C2499 C2500 1.415 . S
C2500 H2476 0.950 . S
C2500 C2495 1.363 . S
C2500 C2499 1.415 . S
C2501 H2477 0.951 . S
C2501 C2502 1.366 . S
C2501 C2503 1.388 . S
C2502 C2501 1.366 . S
C2502 C2506 1.385 . S
C2503 H2478 0.951 . S
C2503 C2501 1.388 . S
C2503 C2504 1.366 . S
C2504 C2503 1.366 . S
C2504 C2505 1.414 . S
C2504 C2507 1.499 . S
C2505 H2479 0.950 . S
C2505 C2504 1.414 . S
C2505 C2506 1.374 . S
C2506 H2480 0.950 . S
C2506 C2502 1.385 . S
C2506 C2505 1.374 . S
C2507 C2504 1.499 . S
C2507 C2508 1.373 . S
C2507 C2509 1.389 . S
C2508 H2481 0.950 . S
C2508 C2494 1.377 . S
C2508 C2507 1.373 . S
C2509 C2493 1.377 . S
C2509 C2507 1.389 . S
C2509 C2510 1.524 1_545 S
C2510 C2509 1.524 1_565 S
C2510 C2511 1.397 . S
C2510 C2515 1.363 . S
C2511 H2482 0.950 . S
C2511 C2510 1.397 . S
C2511 C2512 1.334 . S
C2512 H2483 0.950 . S
C2512 C2511 1.334 . S
C2512 C2513 1.287 . S
C2513 C2512 1.287 . S
C2513 C2514 1.524 . S
C2513 H2516 0.999 . S
C2514 H2484 0.950 . S
C2514 C2513 1.524 . S
C2514 C2515 1.415 . S
C2515 H2485 0.950 . S
C2515 C2510 1.363 . S
C2515 C2514 1.415 . S
H2516 C2513 0.999 . S
H2517 C2498 0.913 . S
H2518 C2536 0.951 . S
H2519 C2538 0.951 . S
H2520 C2540 0.950 . S
H2521 C2541 0.950 . S
H2522 C2543 0.950 . S
H2523 C2546 0.950 . S
H2524 C2547 0.950 . S
H2525 C2549 0.950 . S
H2526 C2550 0.950 1_455 S
H2527 C2551 0.950 1_655 S
H2528 C2553 0.951 . S
H2529 C2555 0.950 . S
H2530 C2556 0.950 . S
H2531 C2558 0.950 1_655 S
H2532 C2561 0.950 . S
H2533 C2562 0.950 . S
H2534 C2564 0.950 . S
H2535 C2565 0.950 . S
C2536 H2518 0.951 . S
C2536 C2537 1.366 . S
C2536 C2538 1.388 . S
C2537 C2536 1.366 . S
C2537 C2541 1.385 . S
C2538 H2519 0.951 . S
C2538 C2536 1.388 . S
C2538 C2539 1.366 . S
C2539 C2538 1.366 . S
C2539 C2540 1.414 . S
C2539 C2542 1.499 . S
C2540 H2520 0.950 . S
C2540 C2539 1.414 . S
C2540 C2541 1.374 . S
C2541 H2521 0.950 . S
C2541 C2537 1.385 . S
C2541 C2540 1.374 . S
C2542 C2539 1.499 . S
C2542 C2543 1.373 . S
C2542 C2544 1.389 . S
C2543 H2522 0.950 . S
C2543 C2542 1.373 . S
C2543 C2559 1.377 . S
C2544 C2542 1.389 . S
C2544 C2545 1.524 1_455 S
C2544 C2558 1.377 . S
C2545 C2544 1.524 1_655 S
C2545 C2546 1.397 . S
C2545 C2550 1.363 . S
C2546 H2523 0.950 . S
C2546 C2545 1.397 . S
C2546 C2547 1.334 . S
C2547 H2524 0.950 . S
C2547 C2546 1.334 . S
C2547 C2548 1.287 . S
C2548 C2547 1.287 . S
C2548 C2549 1.524 . S
C2548 H2567 0.913 . S
C2549 H2525 0.950 . S
C2549 C2548 1.524 . S
C2549 C2550 1.415 . S
C2550 H2526 0.950 1_655 S
C2550 C2545 1.363 . S
C2550 C2549 1.415 . S
C2551 H2527 0.950 1_455 S
C2551 C2552 1.366 . S
C2551 C2553 1.388 . S
C2552 C2551 1.366 . S
C2552 C2556 1.385 . S
C2553 H2528 0.951 . S
C2553 C2551 1.388 . S
C2553 C2554 1.366 . S
C2554 C2553 1.366 . S
C2554 C2555 1.414 . S
C2554 C2557 1.499 . S
C2555 H2529 0.950 . S
C2555 C2554 1.414 . S
C2555 C2556 1.374 . S
C2556 H2530 0.950 . S
C2556 C2552 1.385 . S
C2556 C2555 1.374 . S
C2557 C2554 1.499 . S
C2557 C2558 1.373 . S
C2557 C2559 1.389 . S
C2558 H2531 0.950 1_455 S
C2558 C2544 1.377 . S
C2558 C2557 1.373 . S
C2559 C2543 1.377 . S
C2559 C2557 1.389 . S
C2559 C2560 1.524 . S
C2560 C2559 1.524 . S
C2560 C2561 1.397 . S
C2560 C2565 1.363 . S
C2561 H2532 0.950 . S
C2561 C2560 1.397 . S
C2561 C2562 1.334 . S
C2562 H2533 0.950 . S
C2562 C2561 1.334 . S
C2562 C2563 1.287 . S
C2563 C2562 1.287 . S
C2563 C2564 1.524 . S
C2563 H2566 0.999 . S
C2564 H2534 0.950 . S
C2564 C2563 1.524 . S
C2564 C2565 1.415 . S
C2565 H2535 0.950 . S
C2565 C2560 1.363 . S
C2565 C2564 1.415 . S
H2566 C2563 0.999 . S
H2567 C2548 0.913 . S
H2568 C2586 0.951 . S
H2569 C2588 0.951 . S
H2570 C2590 0.950 . S
H2571 C2591 0.950 . S
H2572 C2593 0.950 . S
H2573 C2596 0.950 . S
H2574 C2597 0.950 . S
H2575 C2599 0.950 . S
H2576 C2600 0.950 . S
H2577 C2601 0.968 . S
H2578 C2603 0.951 . S
H2579 C2605 0.950 . S
H2580 C2606 0.950 . S
H2581 C2608 0.950 . S
H2582 C2611 0.950 . S
H2583 C2612 0.950 . S
H2584 C2614 0.950 . S
H2585 C2615 0.950 . S
C2586 H2568 0.951 . S
C2586 C2587 1.366 . S
C2586 C2588 1.388 . S
C2587 C2586 1.366 . S
C2587 C2591 1.385 1_545 S
C2588 H2569 0.951 . S
C2588 C2586 1.388 . S
C2588 C2589 1.366 . S
C2589 C2588 1.366 . S
C2589 C2590 1.414 1_545 S
C2589 C2592 1.499 . S
C2590 H2570 0.950 . S
C2590 C2589 1.414 1_565 S
C2590 C2591 1.374 . S
C2591 H2571 0.950 . S
C2591 C2587 1.385 1_565 S
C2591 C2590 1.374 . S
C2592 C2589 1.499 . S
C2592 C2593 1.373 1_545 S
C2592 C2594 1.389 . S
C2593 H2572 0.950 . S
C2593 C2592 1.373 1_565 S
C2593 C2609 1.377 . S
C2594 C2592 1.389 . S
C2594 C2595 1.524 . S
C2594 C2608 1.377 . S
C2595 C2594 1.524 . S
C2595 C2596 1.397 . S
C2595 C2600 1.363 . S
C2596 H2573 0.950 . S
C2596 C2595 1.397 . S
C2596 C2597 1.334 . S
C2597 H2574 0.950 . S
C2597 C2596 1.334 . S
C2597 C2598 1.287 . S
C2598 C2597 1.287 . S
C2598 C2599 1.524 . S
C2598 H2617 0.913 . S
C2599 H2575 0.950 . S
C2599 C2598 1.524 . S
C2599 C2600 1.415 . S
C2600 H2576 0.950 . S
C2600 C2595 1.363 . S
C2600 C2599 1.415 . S
C2601 H2577 0.968 . S
C2601 C2602 1.348 1_565 S
C2601 C2603 1.390 . S
C2602 C2601 1.348 1_545 S
C2602 C2606 1.385 . S
C2603 H2578 0.951 . S
C2603 C2601 1.390 . S
C2603 C2604 1.366 1_565 S
C2604 C2603 1.366 1_545 S
C2604 C2605 1.414 . S
C2604 C2607 1.499 . S
C2605 H2579 0.950 . S
C2605 C2604 1.414 . S
C2605 C2606 1.374 . S
C2606 H2580 0.950 . S
C2606 C2602 1.385 . S
C2606 C2605 1.374 . S
C2607 C2604 1.499 . S
C2607 C2608 1.373 . S
C2607 C2609 1.389 1_545 S
C2608 H2581 0.950 . S
C2608 C2594 1.377 . S
C2608 C2607 1.373 . S
C2609 C2593 1.377 . S
C2609 C2607 1.389 1_565 S
C2609 C2610 1.524 . S
C2610 C2609 1.524 . S
C2610 C2611 1.397 . S
C2610 C2615 1.363 . S
C2611 H2582 0.950 . S
C2611 C2610 1.397 . S
C2611 C2612 1.334 . S
C2612 H2583 0.950 . S
C2612 C2611 1.334 . S
C2612 C2613 1.287 . S
C2613 C2612 1.287 . S
C2613 C2614 1.524 . S
C2613 H2616 0.999 . S
C2614 H2584 0.950 . S
C2614 C2613 1.524 . S
C2614 C2615 1.415 . S
C2615 H2585 0.950 . S
C2615 C2610 1.363 . S
C2615 C2614 1.415 . S
H2616 C2613 0.999 . S
H2617 C2598 0.913 . S
H2618 C2636 0.951 1_655 S
H2619 C2638 0.951 1_655 S
H2620 C2640 0.950 . S
H2621 C2641 0.950 . S
H2622 C2643 0.950 . S
H2623 C2646 0.950 . S
H2624 C2647 0.950 . S
H2625 C2649 0.950 . S
H2626 C2650 0.950 . S
H2627 C2651 0.951 . S
H2628 C2653 0.951 . S
H2629 C2655 0.925 1_655 S
H2630 C2656 0.952 . S
H2631 C2658 0.950 . S
H2632 C2661 0.950 . S
H2633 C2662 0.950 . S
H2634 C2664 0.950 . S
H2635 C2665 0.950 . S
C2636 H2618 0.951 1_455 S
C2636 C2637 1.366 . S
C2636 C2638 1.388 . S
C2637 C2636 1.366 . S
C2637 C2641 1.385 . S
C2638 H2619 0.951 1_455 S
C2638 C2636 1.388 . S
C2638 C2639 1.366 . S
C2639 C2638 1.366 . S
C2639 C2640 1.414 . S
C2639 C2642 1.499 . S
C2640 H2620 0.950 . S
C2640 C2639 1.414 . S
C2640 C2641 1.374 . S
C2641 H2621 0.950 . S
C2641 C2637 1.385 . S
C2641 C2640 1.374 . S
C2642 C2639 1.499 . S
C2642 C2643 1.373 . S
C2642 C2644 1.389 . S
C2643 H2622 0.950 . S
C2643 C2642 1.373 . S
C2643 C2659 1.377 . S
C2644 C2642 1.389 . S
C2644 C2645 1.524 . S
C2644 C2658 1.377 . S
C2645 C2644 1.524 . S
C2645 C2646 1.397 . S
C2645 C2650 1.363 . S
C2646 H2623 0.950 . S
C2646 C2645 1.397 . S
C2646 C2647 1.334 . S
C2647 H2624 0.950 . S
C2647 C2646 1.334 . S
C2647 C2648 1.287 . S
C2648 C2647 1.287 . S
C2648 C2649 1.524 . S
C2648 H2667 0.913 . S
C2649 H2625 0.950 . S
C2649 C2648 1.524 . S
C2649 C2650 1.415 . S
C2650 H2626 0.950 . S
C2650 C2645 1.363 . S
C2650 C2649 1.415 . S
C2651 H2627 0.951 . S
C2651 C2652 1.366 . S
C2651 C2653 1.388 . S
C2652 C2651 1.366 . S
C2652 C2656 1.385 . S
C2653 H2628 0.951 . S
C2653 C2651 1.388 . S
C2653 C2654 1.366 . S
C2654 C2653 1.366 . S
C2654 C2655 1.414 . S
C2654 C2657 1.499 . S
C2655 H2629 0.925 1_455 S
C2655 C2654 1.414 . S
C2655 C2656 1.374 . S
C2656 H2630 0.952 . S
C2656 C2652 1.385 . S
C2656 C2655 1.374 . S
C2657 C2654 1.499 . S
C2657 C2658 1.373 . S
C2657 C2659 1.389 . S
C2658 H2631 0.950 . S
C2658 C2644 1.377 . S
C2658 C2657 1.373 . S
C2659 C2643 1.377 . S
C2659 C2657 1.389 . S
C2659 C2660 1.524 . S
C2660 C2659 1.524 . S
C2660 C2661 1.397 1_455 S
C2660 C2665 1.363 . S
C2661 H2632 0.950 . S
C2661 C2660 1.397 1_655 S
C2661 C2662 1.334 . S
C2662 H2633 0.950 . S
C2662 C2661 1.334 . S
C2662 C2663 1.287 1_655 S
C2663 C2662 1.287 1_455 S
C2663 C2664 1.524 . S
C2663 H2666 1.000 1_455 S
C2664 H2634 0.950 . S
C2664 C2663 1.524 . S
C2664 C2665 1.415 . S
C2665 H2635 0.950 . S
C2665 C2660 1.363 . S
C2665 C2664 1.415 . S
H2666 C2663 1.000 1_655 S
H2667 C2648 0.913 . S
H2668 C2686 0.951 . S
H2669 C2688 0.951 . S
H2670 C2690 0.950 . S
H2671 C2691 0.950 . S
H2672 C2693 0.950 . S
H2673 C2696 0.950 . S
H2674 C2697 0.950 . S
H2675 C2699 0.950 . S
H2676 C2700 0.950 . S
H2677 C2701 0.951 . S
H2678 C2703 0.951 . S
H2679 C2705 0.950 . S
H2680 C2706 0.950 . S
H2681 C2708 0.950 . S
H2682 C2711 0.944 1_565 S
H2683 C2712 0.950 . S
H2684 C2714 0.950 . S
H2685 C2715 0.950 . S
C2686 H2668 0.951 . S
C2686 C2687 1.366 . S
C2686 C2688 1.388 . S
C2687 C2686 1.366 . S
C2687 C2691 1.385 . S
C2688 H2669 0.951 . S
C2688 C2686 1.388 . S
C2688 C2689 1.366 . S
C2689 C2688 1.366 . S
C2689 C2690 1.414 . S
C2689 C2692 1.499 . S
C2690 H2670 0.950 . S
C2690 C2689 1.414 . S
C2690 C2691 1.374 . S
C2691 H2671 0.950 . S
C2691 C2687 1.385 . S
C2691 C2690 1.374 . S
C2692 C2689 1.499 . S
C2692 C2693 1.373 . S
C2692 C2694 1.389 . S
C2693 H2672 0.950 . S
C2693 C2692 1.373 . S
C2693 C2709 1.377 . S
C2694 C2692 1.389 . S
C2694 C2695 1.524 . S
C2694 C2708 1.377 . S
C2695 C2694 1.524 . S
C2695 C2696 1.397 . S
C2695 C2700 1.363 . S
C2696 H2673 0.950 . S
C2696 C2695 1.397 . S
C2696 C2697 1.334 . S
C2697 H2674 0.950 . S
C2697 C2696 1.334 . S
C2697 C2698 1.287 . S
C2698 C2697 1.287 . S
C2698 C2699 1.524 . S
C2698 H2717 0.913 . S
C2699 H2675 0.950 . S
C2699 C2698 1.524 . S
C2699 C2700 1.415 . S
C2700 H2676 0.950 . S
C2700 C2695 1.363 . S
C2700 C2699 1.415 . S
C2701 H2677 0.951 . S
C2701 C2702 1.366 . S
C2701 C2703 1.388 . S
C2702 C2701 1.366 . S
C2702 C2706 1.385 . S
C2703 H2678 0.951 . S
C2703 C2701 1.388 . S
C2703 C2704 1.366 . S
C2704 C2703 1.366 . S
C2704 C2705 1.414 . S
C2704 C2707 1.499 . S
C2705 H2679 0.950 . S
C2705 C2704 1.414 . S
C2705 C2706 1.374 . S
C2706 H2680 0.950 . S
C2706 C2702 1.385 . S
C2706 C2705 1.374 . S
C2707 C2704 1.499 . S
C2707 C2708 1.373 . S
C2707 C2709 1.389 . S
C2708 H2681 0.950 . S
C2708 C2694 1.377 . S
C2708 C2707 1.373 . S
C2709 C2693 1.377 . S
C2709 C2707 1.389 . S
C2709 C2710 1.524 . S
C2710 C2709 1.524 . S
C2710 C2711 1.407 . S
C2710 C2715 1.363 . S
C2711 H2682 0.944 1_545 S
C2711 C2710 1.407 . S
C2711 C2712 1.330 1_545 S
C2712 H2683 0.950 . S
C2712 C2711 1.330 1_565 S
C2712 C2713 1.287 1_565 S
C2713 C2712 1.287 1_545 S
C2713 C2714 1.524 . S
C2713 H2716 0.999 1_545 S
C2714 H2684 0.950 . S
C2714 C2713 1.524 . S
C2714 C2715 1.415 . S
C2715 H2685 0.950 . S
C2715 C2710 1.363 . S
C2715 C2714 1.415 . S
H2716 C2713 0.999 1_565 S
H2717 C2698 0.913 . S
H2718 C2736 0.951 . S
H2719 C2738 0.951 . S
H2720 C2740 0.950 . S
H2721 C2741 0.950 . S
H2722 C2743 0.950 . S
H2723 C2746 0.950 . S
H2724 C2747 0.950 . S
H2725 C2749 0.950 . S
H2726 C2750 0.950 . S
H2727 C2751 0.951 . S
H2728 C2753 0.951 . S
H2729 C2755 0.950 . S
H2730 C2756 0.950 . S
H2731 C2758 0.950 . S
H2732 C2761 0.950 . S
H2733 C2762 0.950 . S
H2734 C2764 0.950 . S
H2735 C2765 0.950 . S
C2736 H2718 0.951 . S
C2736 C2737 1.374 . S
C2736 C2738 1.388 . S
C2737 C2736 1.374 . S
C2737 C2741 1.376 1_655 S
C2738 H2719 0.951 . S
C2738 C2736 1.388 . S
C2738 C2739 1.366 1_655 S
C2739 C2738 1.366 1_455 S
C2739 C2740 1.414 . S
C2739 C2742 1.499 . S
C2740 H2720 0.950 . S
C2740 C2739 1.414 . S
C2740 C2741 1.374 . S
C2741 H2721 0.950 . S
C2741 C2737 1.376 1_455 S
C2741 C2740 1.374 . S
C2742 C2739 1.499 . S
C2742 C2743 1.373 . S
C2742 C2744 1.389 1_455 S
C2743 H2722 0.950 . S
C2743 C2742 1.373 . S
C2743 C2759 1.377 . S
C2744 C2742 1.389 1_655 S
C2744 C2745 1.524 . S
C2744 C2758 1.377 . S
C2745 C2744 1.524 . S
C2745 C2746 1.397 . S
C2745 C2750 1.363 . S
C2746 H2723 0.950 . S
C2746 C2745 1.397 . S
C2746 C2747 1.334 . S
C2747 H2724 0.950 . S
C2747 C2746 1.334 . S
C2747 C2748 1.287 . S
C2748 C2747 1.287 . S
C2748 C2749 1.524 . S
C2748 H2767 0.913 . S
C2749 H2725 0.950 . S
C2749 C2748 1.524 . S
C2749 C2750 1.415 . S
C2750 H2726 0.950 . S
C2750 C2745 1.363 . S
C2750 C2749 1.415 . S
C2751 H2727 0.951 . S
C2751 C2752 1.366 . S
C2751 C2753 1.388 . S
C2752 C2751 1.366 . S
C2752 C2756 1.385 1_455 S
C2753 H2728 0.951 . S
C2753 C2751 1.388 . S
C2753 C2754 1.366 . S
C2754 C2753 1.366 . S
C2754 C2755 1.414 1_455 S
C2754 C2757 1.499 . S
C2755 H2729 0.950 . S
C2755 C2754 1.414 1_655 S
C2755 C2756 1.374 . S
C2756 H2730 0.950 . S
C2756 C2752 1.385 1_655 S
C2756 C2755 1.374 . S
C2757 C2754 1.499 . S
C2757 C2758 1.373 1_455 S
C2757 C2759 1.389 . S
C2758 H2731 0.950 . S
C2758 C2744 1.377 . S
C2758 C2757 1.373 1_655 S
C2759 C2743 1.377 . S
C2759 C2757 1.389 . S
C2759 C2760 1.524 . S
C2760 C2759 1.524 . S
C2760 C2761 1.397 . S
C2760 C2765 1.363 . S
C2761 H2732 0.950 . S
C2761 C2760 1.397 . S
C2761 C2762 1.334 . S
C2762 H2733 0.950 . S
C2762 C2761 1.334 . S
C2762 C2763 1.287 . S
C2763 C2762 1.287 . S
C2763 C2764 1.524 . S
C2763 H2766 0.999 . S
C2764 H2734 0.950 . S
C2764 C2763 1.524 . S
C2764 C2765 1.415 . S
C2765 H2735 0.950 . S
C2765 C2760 1.363 . S
C2765 C2764 1.415 . S
H2766 C2763 0.999 . S
H2767 C2748 0.913 . S
H2768 C2786 0.951 . S
H2769 C2788 0.951 . S
H2770 C2790 0.950 . S
H2771 C2791 0.950 . S
H2772 C2793 0.950 . S
H2773 C2796 0.950 . S
H2774 C2797 0.950 . S
H2775 C2799 0.950 . S
H2776 C2800 0.950 . S
H2777 C2801 0.951 . S
H2778 C2803 0.951 . S
H2779 C2805 0.950 . S
H2780 C2806 0.950 . S
H2781 C2808 0.950 . S
H2782 C2811 0.950 . S
H2783 C2812 0.950 . S
H2784 C2814 0.950 . S
H2785 C2815 0.950 . S
C2786 H2768 0.951 . S
C2786 C2787 1.366 . S
C2786 C2788 1.388 . S
C2787 C2786 1.366 . S
C2787 C2791 1.385 . S
C2788 H2769 0.951 . S
C2788 C2786 1.388 . S
C2788 C2789 1.366 . S
C2789 C2788 1.366 . S
C2789 C2790 1.414 . S
C2789 C2792 1.499 . S
C2790 H2770 0.950 . S
C2790 C2789 1.414 . S
C2790 C2791 1.374 . S
C2791 H2771 0.950 . S
C2791 C2787 1.385 . S
C2791 C2790 1.374 . S
C2792 C2789 1.499 . S
C2792 C2793 1.373 . S
C2792 C2794 1.389 1_554 S
C2793 H2772 0.950 . S
C2793 C2792 1.373 . S
C2793 C2809 1.377 . S
C2794 C2792 1.389 1_556 S
C2794 C2795 1.524 . S
C2794 C2808 1.377 . S
C2795 C2794 1.524 . S
C2795 C2796 1.397 . S
C2795 C2800 1.363 . S
C2796 H2773 0.950 . S
C2796 C2795 1.397 . S
C2796 C2797 1.334 . S
C2797 H2774 0.950 . S
C2797 C2796 1.334 . S
C2797 C2798 1.287 . S
C2798 C2797 1.287 . S
C2798 C2799 1.524 . S
C2798 H2817 0.913 . S
C2799 H2775 0.950 . S
C2799 C2798 1.524 . S
C2799 C2800 1.415 . S
C2800 H2776 0.950 . S
C2800 C2795 1.363 . S
C2800 C2799 1.415 . S
C2801 H2777 0.951 . S
C2801 C2802 1.366 . S
C2801 C2803 1.388 . S
C2802 C2801 1.366 . S
C2802 C2806 1.385 . S
C2803 H2778 0.951 . S
C2803 C2801 1.388 . S
C2803 C2804 1.366 . S
C2804 C2803 1.366 . S
C2804 C2805 1.414 . S
C2804 C2807 1.499 . S
C2805 H2779 0.950 . S
C2805 C2804 1.414 . S
C2805 C2806 1.374 . S
C2806 H2780 0.950 . S
C2806 C2802 1.385 . S
C2806 C2805 1.374 . S
C2807 C2804 1.499 . S
C2807 C2808 1.373 1_554 S
C2807 C2809 1.389 . S
C2808 H2781 0.950 . S
C2808 C2794 1.377 . S
C2808 C2807 1.373 1_556 S
C2809 C2793 1.377 . S
C2809 C2807 1.389 . S
C2809 C2810 1.524 . S
C2810 C2809 1.524 . S
C2810 C2811 1.397 . S
C2810 C2815 1.363 . S
C2811 H2782 0.950 . S
C2811 C2810 1.397 . S
C2811 C2812 1.334 . S
C2812 H2783 0.950 . S
C2812 C2811 1.334 . S
C2812 C2813 1.287 . S
C2813 C2812 1.287 . S
C2813 C2814 1.524 . S
C2813 H2816 0.999 . S
C2814 H2784 0.950 . S
C2814 C2813 1.524 . S
C2814 C2815 1.415 . S
C2815 H2785 0.950 . S
C2815 C2810 1.363 . S
C2815 C2814 1.415 . S
H2816 C2813 0.999 . S
H2817 C2798 0.913 . S
H2818 C2836 0.951 . S
H2819 C2838 0.951 . S
H2820 C2840 0.950 . S
H2821 C2841 0.950 . S
H2822 C2843 0.950 . S
H2823 C2846 0.950 1_554 S
H2824 C2847 0.950 . S
H2825 C2849 0.950 . S
H2826 C2850 0.950 . S
H2827 C2851 0.951 . S
H2828 C2853 0.951 . S
H2829 C2855 0.950 . S
H2830 C2856 0.950 . S
H2831 C2858 0.950 . S
H2832 C2861 0.950 . S
H2833 C2862 0.950 . S
H2834 C2864 0.950 . S
H2835 C2865 0.950 . S
C2836 H2818 0.951 . S
C2836 C2837 1.366 1_556 S
C2836 C2838 1.388 . S
C2837 C2836 1.366 1_554 S
C2837 C2841 1.385 . S
C2838 H2819 0.951 . S
C2838 C2836 1.388 . S
C2838 C2839 1.366 1_556 S
C2839 C2838 1.366 1_554 S
C2839 C2840 1.414 . S
C2839 C2842 1.499 . S
C2840 H2820 0.950 . S
C2840 C2839 1.414 . S
C2840 C2841 1.374 . S
C2841 H2821 0.950 . S
C2841 C2837 1.385 . S
C2841 C2840 1.374 . S
C2842 C2839 1.499 . S
C2842 C2843 1.373 . S
C2842 C2844 1.389 1_554 S
C2843 H2822 0.950 . S
C2843 C2842 1.373 . S
C2843 C2859 1.377 . S
C2844 C2842 1.389 1_556 S
C2844 C2845 1.524 . S
C2844 C2858 1.377 . S
C2845 C2844 1.524 . S
C2845 C2846 1.397 . S
C2845 C2850 1.363 . S
C2846 H2823 0.950 1_556 S
C2846 C2845 1.397 . S
C2846 C2847 1.334 . S
C2847 H2824 0.950 . S
C2847 C2846 1.334 . S
C2847 C2848 1.287 . S
C2848 C2847 1.287 . S
C2848 C2849 1.524 . S
C2848 H2867 0.913 . S
C2849 H2825 0.950 . S
C2849 C2848 1.524 . S
C2849 C2850 1.415 . S
C2850 H2826 0.950 . S
C2850 C2845 1.363 . S
C2850 C2849 1.415 . S
C2851 H2827 0.951 . S
C2851 C2852 1.366 . S
C2851 C2853 1.388 . S
C2852 C2851 1.366 . S
C2852 C2856 1.385 1_554 S
C2853 H2828 0.951 . S
C2853 C2851 1.388 . S
C2853 C2854 1.366 . S
C2854 C2853 1.366 . S
C2854 C2855 1.414 1_554 S
C2854 C2857 1.499 . S
C2855 H2829 0.950 . S
C2855 C2854 1.414 1_556 S
C2855 C2856 1.374 . S
C2856 H2830 0.950 . S
C2856 C2852 1.385 1_556 S
C2856 C2855 1.374 . S
C2857 C2854 1.499 . S
C2857 C2858 1.373 1_554 S
C2857 C2859 1.389 . S
C2858 H2831 0.950 . S
C2858 C2844 1.377 . S
C2858 C2857 1.373 1_556 S
C2859 C2843 1.377 . S
C2859 C2857 1.389 . S
C2859 C2860 1.524 . S
C2860 C2859 1.524 . S
C2860 C2861 1.397 . S
C2860 C2865 1.363 . S
C2861 H2832 0.950 . S
C2861 C2860 1.397 . S
C2861 C2862 1.334 . S
C2862 H2833 0.950 . S
C2862 C2861 1.334 . S
C2862 C2863 1.287 . S
C2863 C2862 1.287 . S
C2863 C2864 1.524 . S
C2863 H2866 0.999 . S
C2864 H2834 0.950 . S
C2864 C2863 1.524 . S
C2864 C2865 1.415 . S
C2865 H2835 0.950 . S
C2865 C2860 1.363 . S
C2865 C2864 1.415 . S
H2866 C2863 0.999 . S
H2867 C2848 0.913 . S
H2868 C2886 0.951 . S
H2869 C2888 0.951 . S
H2870 C2890 0.950 . S
H2871 C2891 0.950 . S
H2872 C2893 0.950 . S
H2873 C2896 0.950 . S
H2874 C2897 0.950 . S
H2875 C2899 0.950 . S
H2876 C2900 0.950 . S
H2877 C2901 0.951 . S
H2878 C2903 0.951 . S
H2879 C2905 0.950 . S
H2880 C2906 0.956 . S
H2881 C2908 0.950 . S
H2882 C2911 0.950 . S
H2883 C2912 0.950 . S
H2884 C2914 0.950 . S
H2885 C2915 0.950 . S
C2886 H2868 0.951 . S
C2886 C2887 1.366 . S
C2886 C2888 1.388 . S
C2887 C2886 1.366 . S
C2887 C2891 1.385 . S
C2888 H2869 0.951 . S
C2888 C2886 1.388 . S
C2888 C2889 1.366 . S
C2889 C2888 1.366 . S
C2889 C2890 1.414 . S
C2889 C2892 1.499 . S
C2890 H2870 0.950 . S
C2890 C2889 1.414 . S
C2890 C2891 1.374 . S
C2891 H2871 0.950 . S
C2891 C2887 1.385 . S
C2891 C2890 1.374 . S
C2892 C2889 1.499 . S
C2892 C2893 1.373 . S
C2892 C2894 1.389 . S
C2893 H2872 0.950 . S
C2893 C2892 1.373 . S
C2893 C2909 1.377 . S
C2894 C2892 1.389 . S
C2894 C2895 1.524 . S
C2894 C2908 1.377 . S
C2895 C2894 1.524 . S
C2895 C2896 1.397 . S
C2895 C2900 1.363 . S
C2896 H2873 0.950 . S
C2896 C2895 1.397 . S
C2896 C2897 1.334 . S
C2897 H2874 0.950 . S
C2897 C2896 1.334 . S
C2897 C2898 1.287 . S
C2898 C2897 1.287 . S
C2898 C2899 1.524 . S
C2898 H2917 0.913 . S
C2899 H2875 0.950 . S
C2899 C2898 1.524 . S
C2899 C2900 1.415 . S
C2900 H2876 0.950 . S
C2900 C2895 1.363 . S
C2900 C2899 1.415 . S
C2901 H2877 0.951 . S
C2901 C2902 1.366 . S
C2901 C2903 1.388 . S
C2902 C2901 1.366 . S
C2902 C2906 1.385 . S
C2903 H2878 0.951 . S
C2903 C2901 1.388 . S
C2903 C2904 1.366 . S
C2904 C2903 1.366 . S
C2904 C2905 1.414 . S
C2904 C2907 1.499 . S
C2905 H2879 0.950 . S
C2905 C2904 1.414 . S
C2905 C2906 1.374 . S
C2906 H2880 0.956 . S
C2906 C2902 1.385 . S
C2906 C2905 1.374 . S
C2907 C2904 1.499 . S
C2907 C2908 1.373 . S
C2907 C2909 1.389 . S
C2908 H2881 0.950 . S
C2908 C2894 1.377 . S
C2908 C2907 1.373 . S
C2909 C2893 1.377 . S
C2909 C2907 1.389 . S
C2909 C2910 1.524 1_554 S
C2910 C2909 1.524 1_556 S
C2910 C2911 1.397 . S
C2910 C2915 1.363 1_556 S
C2911 H2882 0.950 . S
C2911 C2910 1.397 . S
C2911 C2912 1.334 . S
C2912 H2883 0.950 . S
C2912 C2911 1.334 . S
C2912 C2913 1.287 . S
C2913 C2912 1.287 . S
C2913 C2914 1.524 . S
C2913 H2916 0.999 . S
C2914 H2884 0.950 . S
C2914 C2913 1.524 . S
C2914 C2915 1.415 1_556 S
C2915 H2885 0.950 . S
C2915 C2910 1.363 1_554 S
C2915 C2914 1.415 1_554 S
H2916 C2913 0.999 . S
H2917 C2898 0.913 . S
H2918 C2936 0.951 . S
H2919 C2938 0.951 . S
H2920 C2940 0.950 . S
H2921 C2941 0.950 . S
H2922 C2943 0.950 . S
H2923 C2946 0.950 . S
H2924 C2947 0.950 . S
H2925 C2949 0.950 . S
H2926 C2950 0.950 1_556 S
H2927 C2951 0.951 . S
H2928 C2953 0.951 . S
H2929 C2955 0.950 . S
H2930 C2956 0.950 . S
H2931 C2958 0.950 . S
H2932 C2961 0.950 . S
H2933 C2962 0.950 . S
H2934 C2964 0.950 . S
H2935 C2965 0.950 1_554 S
C2936 H2918 0.951 . S
C2936 C2937 1.366 1_556 S
C2936 C2938 1.388 . S
C2937 C2936 1.366 1_554 S
C2937 C2941 1.385 . S
C2938 H2919 0.951 . S
C2938 C2936 1.388 . S
C2938 C2939 1.366 1_556 S
C2939 C2938 1.366 1_554 S
C2939 C2940 1.414 . S
C2939 C2942 1.499 . S
C2940 H2920 0.950 . S
C2940 C2939 1.414 . S
C2940 C2941 1.374 . S
C2941 H2921 0.950 . S
C2941 C2937 1.385 . S
C2941 C2940 1.374 . S
C2942 C2939 1.499 . S
C2942 C2943 1.373 1_554 S
C2942 C2944 1.389 . S
C2943 H2922 0.950 . S
C2943 C2942 1.373 1_556 S
C2943 C2959 1.377 . S
C2944 C2942 1.389 . S
C2944 C2945 1.524 . S
C2944 C2958 1.377 . S
C2945 C2944 1.524 . S
C2945 C2946 1.397 . S
C2945 C2950 1.363 . S
C2946 H2923 0.950 . S
C2946 C2945 1.397 . S
C2946 C2947 1.334 . S
C2947 H2924 0.950 . S
C2947 C2946 1.334 . S
C2947 C2948 1.287 . S
C2948 C2947 1.287 . S
C2948 C2949 1.524 . S
C2948 H2967 0.913 . S
C2949 H2925 0.950 . S
C2949 C2948 1.524 . S
C2949 C2950 1.415 . S
C2950 H2926 0.950 1_554 S
C2950 C2945 1.363 . S
C2950 C2949 1.415 . S
C2951 H2927 0.951 . S
C2951 C2952 1.366 1_554 S
C2951 C2953 1.388 . S
C2952 C2951 1.366 1_556 S
C2952 C2956 1.385 . S
C2953 H2928 0.951 . S
C2953 C2951 1.388 . S
C2953 C2954 1.366 1_554 S
C2954 C2953 1.366 1_556 S
C2954 C2955 1.414 . S
C2954 C2957 1.499 . S
C2955 H2929 0.950 . S
C2955 C2954 1.414 . S
C2955 C2956 1.374 . S
C2956 H2930 0.950 . S
C2956 C2952 1.385 . S
C2956 C2955 1.374 . S
C2957 C2954 1.499 . S
C2957 C2958 1.373 1_556 S
C2957 C2959 1.389 . S
C2958 H2931 0.950 . S
C2958 C2944 1.377 . S
C2958 C2957 1.373 1_554 S
C2959 C2943 1.377 . S
C2959 C2957 1.389 . S
C2959 C2960 1.524 . S
C2960 C2959 1.524 . S
C2960 C2961 1.397 . S
C2960 C2965 1.363 . S
C2961 H2932 0.950 . S
C2961 C2960 1.397 . S
C2961 C2962 1.334 . S
C2962 H2933 0.950 . S
C2962 C2961 1.334 . S
C2962 C2963 1.287 . S
C2963 C2962 1.287 . S
C2963 C2964 1.524 . S
C2963 H2966 0.999 . S
C2964 H2934 0.950 . S
C2964 C2963 1.524 . S
C2964 C2965 1.415 . S
C2965 H2935 0.950 1_556 S
C2965 C2960 1.363 . S
C2965 C2964 1.415 . S
H2966 C2963 0.999 . S
H2967 C2948 0.913 . S
H2968 C2986 0.951 . S
H2969 C2988 0.951 . S
H2970 C2990 0.950 . S
H2971 C2991 0.950 . S
H2972 C2993 0.950 . S
H2973 C2996 0.950 . S
H2974 C2997 0.950 . S
H2975 C2999 0.950 . S
H2976 C3000 0.950 . S
H2977 C3001 0.951 . S
H2978 C3003 0.951 . S
H2979 C3005 0.950 1_556 S
H2980 C3006 0.949 . S
H2981 C3008 0.950 . S
H2982 C3011 0.950 . S
H2983 C3012 0.950 . S
H2984 C3014 0.950 . S
H2985 C3015 0.950 . S
C2986 H2968 0.951 . S
C2986 C2987 1.366 1_556 S
C2986 C2988 1.388 . S
C2987 C2986 1.366 1_554 S
C2987 C2991 1.385 . S
C2988 H2969 0.951 . S
C2988 C2986 1.388 . S
C2988 C2989 1.366 1_556 S
C2989 C2988 1.366 1_554 S
C2989 C2990 1.414 . S
C2989 C2992 1.499 . S
C2990 H2970 0.950 . S
C2990 C2989 1.414 . S
C2990 C2991 1.374 . S
C2991 H2971 0.950 . S
C2991 C2987 1.385 . S
C2991 C2990 1.374 . S
C2992 C2989 1.499 . S
C2992 C2993 1.373 . S
C2992 C2994 1.389 1_554 S
C2993 H2972 0.950 . S
C2993 C2992 1.373 . S
C2993 C3009 1.377 . S
C2994 C2992 1.389 1_556 S
C2994 C2995 1.524 . S
C2994 C3008 1.377 . S
C2995 C2994 1.524 . S
C2995 C2996 1.397 . S
C2995 C3000 1.363 . S
C2996 H2973 0.950 . S
C2996 C2995 1.397 . S
C2996 C2997 1.334 . S
C2997 H2974 0.950 . S
C2997 C2996 1.334 . S
C2997 C2998 1.287 . S
C2998 C2997 1.287 . S
C2998 C2999 1.524 . S
C2998 H3017 0.913 . S
C2999 H2975 0.950 . S
C2999 C2998 1.524 . S
C2999 C3000 1.415 . S
C3000 H2976 0.950 . S
C3000 C2995 1.363 . S
C3000 C2999 1.415 . S
C3001 H2977 0.951 . S
C3001 C3002 1.366 . S
C3001 C3003 1.388 . S
C3002 C3001 1.366 . S
C3002 C3006 1.385 . S
C3003 H2978 0.951 . S
C3003 C3001 1.388 . S
C3003 C3004 1.366 . S
C3004 C3003 1.366 . S
C3004 C3005 1.414 . S
C3004 C3007 1.499 . S
C3005 H2979 0.950 1_554 S
C3005 C3004 1.414 . S
C3005 C3006 1.374 . S
C3006 H2980 0.949 . S
C3006 C3002 1.385 . S
C3006 C3005 1.374 . S
C3007 C3004 1.499 . S
C3007 C3008 1.373 1_554 S
C3007 C3009 1.389 . S
C3008 H2981 0.950 . S
C3008 C2994 1.377 . S
C3008 C3007 1.373 1_556 S
C3009 C2993 1.377 . S
C3009 C3007 1.389 . S
C3009 C3010 1.524 . S
C3010 C3009 1.524 . S
C3010 C3011 1.397 . S
C3010 C3015 1.363 . S
C3011 H2982 0.950 . S
C3011 C3010 1.397 . S
C3011 C3012 1.334 . S
C3012 H2983 0.950 . S
C3012 C3011 1.334 . S
C3012 C3013 1.287 . S
C3013 C3012 1.287 . S
C3013 C3014 1.524 . S
C3013 H3016 0.999 . S
C3014 H2984 0.950 . S
C3014 C3013 1.524 . S
C3014 C3015 1.415 . S
C3015 H2985 0.950 . S
C3015 C3010 1.363 . S
C3015 C3014 1.415 . S
H3016 C3013 0.999 . S
H3017 C2998 0.913 . S
H3018 C3036 0.951 . S
H3019 C3038 0.951 . S
H3020 C3040 0.950 . S
H3021 C3041 0.950 . S
H3022 C3043 0.950 . S
H3023 C3046 0.950 . S
H3024 C3047 0.950 . S
H3025 C3049 0.950 . S
H3026 C3050 0.950 . S
H3027 C3051 0.951 . S
H3028 C3053 0.951 . S
H3029 C3055 0.950 . S
H3030 C3056 0.950 . S
H3031 C3058 0.950 . S
H3032 C3061 0.950 . S
H3033 C3062 0.950 . S
H3034 C3064 0.950 . S
H3035 C3065 0.950 . S
C3036 H3018 0.951 . S
C3036 C3037 1.366 1_556 S
C3036 C3038 1.388 . S
C3037 C3036 1.366 1_554 S
C3037 C3041 1.385 . S
C3038 H3019 0.951 . S
C3038 C3036 1.388 . S
C3038 C3039 1.366 1_556 S
C3039 C3038 1.366 1_554 S
C3039 C3040 1.413 . S
C3039 C3042 1.499 1_554 S
C3040 H3020 0.950 . S
C3040 C3039 1.413 . S
C3040 C3041 1.374 . S
C3041 H3021 0.950 . S
C3041 C3037 1.385 . S
C3041 C3040 1.374 . S
C3042 C3039 1.499 1_556 S
C3042 C3043 1.363 1_556 S
C3042 C3044 1.399 . S
C3043 H3022 0.950 . S
C3043 C3042 1.363 1_554 S
C3043 C3059 1.377 . S
C3044 C3042 1.399 . S
C3044 C3045 1.524 . S
C3044 C3058 1.377 . S
C3045 C3044 1.524 . S
C3045 C3046 1.397 . S
C3045 C3050 1.363 . S
C3046 H3023 0.950 . S
C3046 C3045 1.397 . S
C3046 C3047 1.334 . S
C3047 H3024 0.950 . S
C3047 C3046 1.334 . S
C3047 C3048 1.287 . S
C3048 C3047 1.287 . S
C3048 C3049 1.524 . S
C3048 H3067 0.913 . S
C3049 H3025 0.950 . S
C3049 C3048 1.524 . S
C3049 C3050 1.415 . S
C3050 H3026 0.950 . S
C3050 C3045 1.363 . S
C3050 C3049 1.415 . S
C3051 H3027 0.951 . S
C3051 C3052 1.357 1_554 S
C3051 C3053 1.388 . S
C3052 C3051 1.357 1_556 S
C3052 C3056 1.393 . S
C3053 H3028 0.951 . S
C3053 C3051 1.388 . S
C3053 C3054 1.373 . S
C3054 C3053 1.373 . S
C3054 C3055 1.405 1_554 S
C3054 C3057 1.500 . S
C3055 H3029 0.950 . S
C3055 C3054 1.405 1_556 S
C3055 C3056 1.374 . S
C3056 H3030 0.950 . S
C3056 C3052 1.393 . S
C3056 C3055 1.374 . S
C3057 C3054 1.500 . S
C3057 C3058 1.373 1_554 S
C3057 C3059 1.389 . S
C3058 H3031 0.950 . S
C3058 C3044 1.377 . S
C3058 C3057 1.373 1_556 S
C3059 C3043 1.377 . S
C3059 C3057 1.389 . S
C3059 C3060 1.524 . S
C3060 C3059 1.524 . S
C3060 C3061 1.397 . S
C3060 C3065 1.363 . S
C3061 H3032 0.950 . S
C3061 C3060 1.397 . S
C3061 C3062 1.334 . S
C3062 H3033 0.950 . S
C3062 C3061 1.334 . S
C3062 C3063 1.287 . S
C3063 C3062 1.287 . S
C3063 C3064 1.524 . S
C3063 H3066 0.999 . S
C3064 H3034 0.950 . S
C3064 C3063 1.524 . S
C3064 C3065 1.415 . S
C3065 H3035 0.950 . S
C3065 C3060 1.363 . S
C3065 C3064 1.415 . S
H3066 C3063 0.999 . S
H3067 C3048 0.913 . S
H3068 C3086 0.951 . S
H3069 C3088 0.951 . S
H3070 C3090 0.950 . S
H3071 C3091 0.950 . S
H3072 C3093 0.931 1_556 S
H3073 C3096 0.950 . S
H3074 C3097 0.950 . S
H3075 C3099 0.950 . S
H3076 C3100 0.950 . S
H3077 C3101 0.951 . S
H3078 C3103 0.951 . S
H3079 C3105 0.950 . S
H3080 C3106 0.950 . S
H3081 C3108 0.950 . S
H3082 C3111 0.950 . S
H3083 C3112 0.950 . S
H3084 C3114 0.950 . S
H3085 C3115 0.950 1_554 S
C3086 H3068 0.951 . S
C3086 C3087 1.366 . S
C3086 C3088 1.388 . S
C3087 C3086 1.366 . S
C3087 C3091 1.385 . S
C3088 H3069 0.951 . S
C3088 C3086 1.388 . S
C3088 C3089 1.366 . S
C3089 C3088 1.366 . S
C3089 C3090 1.414 . S
C3089 C3092 1.499 . S
C3090 H3070 0.950 . S
C3090 C3089 1.414 . S
C3090 C3091 1.374 . S
C3091 H3071 0.950 . S
C3091 C3087 1.385 . S
C3091 C3090 1.374 . S
C3092 C3089 1.499 . S
C3092 C3093 1.373 . S
C3092 C3094 1.389 . S
C3093 H3072 0.931 1_554 S
C3093 C3092 1.373 . S
C3093 C3109 1.377 . S
C3094 C3092 1.389 . S
C3094 C3095 1.524 . S
C3094 C3108 1.377 . S
C3095 C3094 1.524 . S
C3095 C3096 1.397 . S
C3095 C3100 1.363 . S
C3096 H3073 0.950 . S
C3096 C3095 1.397 . S
C3096 C3097 1.334 . S
C3097 H3074 0.950 . S
C3097 C3096 1.334 . S
C3097 C3098 1.287 . S
C3098 C3097 1.287 . S
C3098 C3099 1.524 . S
C3098 H3117 0.913 . S
C3099 H3075 0.950 . S
C3099 C3098 1.524 . S
C3099 C3100 1.415 . S
C3100 H3076 0.950 . S
C3100 C3095 1.363 . S
C3100 C3099 1.415 . S
C3101 H3077 0.951 . S
C3101 C3102 1.366 . S
C3101 C3103 1.388 . S
C3102 C3101 1.366 . S
C3102 C3106 1.385 . S
C3103 H3078 0.951 . S
C3103 C3101 1.388 . S
C3103 C3104 1.366 . S
C3104 C3103 1.366 . S
C3104 C3105 1.414 . S
C3104 C3107 1.499 . S
C3105 H3079 0.950 . S
C3105 C3104 1.414 . S
C3105 C3106 1.374 . S
C3106 H3080 0.950 . S
C3106 C3102 1.385 . S
C3106 C3105 1.374 . S
C3107 C3104 1.499 . S
C3107 C3108 1.373 . S
C3107 C3109 1.389 . S
C3108 H3081 0.950 . S
C3108 C3094 1.377 . S
C3108 C3107 1.373 . S
C3109 C3093 1.377 . S
C3109 C3107 1.389 . S
C3109 C3110 1.524 1_554 S
C3110 C3109 1.524 1_556 S
C3110 C3111 1.397 . S
C3110 C3115 1.363 . S
C3111 H3082 0.950 . S
C3111 C3110 1.397 . S
C3111 C3112 1.334 . S
C3112 H3083 0.950 . S
C3112 C3111 1.334 . S
C3112 C3113 1.287 . S
C3113 C3112 1.287 . S
C3113 C3114 1.524 . S
C3113 H3116 0.999 . S
C3114 H3084 0.950 . S
C3114 C3113 1.524 . S
C3114 C3115 1.415 . S
C3115 H3085 0.950 1_556 S
C3115 C3110 1.363 . S
C3115 C3114 1.415 . S
H3116 C3113 0.999 . S
H3117 C3098 0.913 . S
H3118 C3136 0.951 . S
H3119 C3138 0.951 . S
H3120 C3140 0.950 . S
H3121 C3141 0.950 . S
H3122 C3143 0.950 . S
H3123 C3146 0.950 . S
H3124 C3147 0.950 . S
H3125 C3149 0.950 1_554 S
H3126 C3150 0.950 . S
H3127 C3151 0.951 1_556 S
H3128 C3153 0.951 1_556 S
H3129 C3155 0.950 . S
H3130 C3156 0.950 . S
H3131 C3158 0.950 . S
H3132 C3161 0.950 . S
H3133 C3162 0.950 . S
H3134 C3164 0.950 . S
H3135 C3165 0.943 1_556 S
C3136 H3118 0.951 . S
C3136 C3137 1.366 . S
C3136 C3138 1.388 . S
C3137 C3136 1.366 . S
C3137 C3141 1.385 1_554 S
C3138 H3119 0.951 . S
C3138 C3136 1.388 . S
C3138 C3139 1.366 . S
C3139 C3138 1.366 . S
C3139 C3140 1.414 1_554 S
C3139 C3142 1.499 . S
C3140 H3120 0.950 . S
C3140 C3139 1.414 1_556 S
C3140 C3141 1.374 . S
C3141 H3121 0.950 . S
C3141 C3137 1.385 1_556 S
C3141 C3140 1.374 . S
C3142 C3139 1.499 . S
C3142 C3143 1.373 . S
C3142 C3144 1.389 . S
C3143 H3122 0.950 . S
C3143 C3142 1.373 . S
C3143 C3159 1.377 . S
C3144 C3142 1.389 . S
C3144 C3145 1.524 1_554 S
C3144 C3158 1.377 . S
C3145 C3144 1.524 1_556 S
C3145 C3146 1.397 . S
C3145 C3150 1.363 1_556 S
C3146 H3123 0.950 . S
C3146 C3145 1.397 . S
C3146 C3147 1.334 . S
C3147 H3124 0.950 . S
C3147 C3146 1.334 . S
C3147 C3148 1.287 . S
C3148 C3147 1.287 . S
C3148 C3149 1.524 . S
C3148 H3167 0.913 . S
C3149 H3125 0.950 1_556 S
C3149 C3148 1.524 . S
C3149 C3150 1.415 1_556 S
C3150 H3126 0.950 . S
C3150 C3145 1.363 1_554 S
C3150 C3149 1.415 1_554 S
C3151 H3127 0.951 1_554 S
C3151 C3152 1.366 . S
C3151 C3153 1.388 . S
C3152 C3151 1.366 . S
C3152 C3156 1.385 . S
C3153 H3128 0.951 1_554 S
C3153 C3151 1.388 . S
C3153 C3154 1.366 . S
C3154 C3153 1.366 . S
C3154 C3155 1.414 . S
C3154 C3157 1.499 . S
C3155 H3129 0.950 . S
C3155 C3154 1.414 . S
C3155 C3156 1.374 . S
C3156 H3130 0.950 . S
C3156 C3152 1.385 . S
C3156 C3155 1.374 . S
C3157 C3154 1.499 . S
C3157 C3158 1.373 . S
C3157 C3159 1.389 . S
C3158 H3131 0.950 . S
C3158 C3144 1.377 . S
C3158 C3157 1.373 . S
C3159 C3143 1.377 . S
C3159 C3157 1.389 . S
C3159 C3160 1.524 . S
C3160 C3159 1.524 . S
C3160 C3161 1.397 . S
C3160 C3165 1.363 . S
C3161 H3132 0.950 . S
C3161 C3160 1.397 . S
C3161 C3162 1.334 . S
C3162 H3133 0.950 . S
C3162 C3161 1.334 . S
C3162 C3163 1.287 . S
C3163 C3162 1.287 . S
C3163 C3164 1.524 . S
C3163 H3166 0.999 . S
C3164 H3134 0.950 . S
C3164 C3163 1.524 . S
C3164 C3165 1.415 . S
C3165 H3135 0.943 1_554 S
C3165 C3160 1.363 . S
C3165 C3164 1.415 . S
H3166 C3163 0.999 . S
H3167 C3148 0.913 . S
H3168 C3186 0.951 . S
H3169 C3188 0.951 . S
H3170 C3190 0.950 . S
H3171 C3191 0.950 . S
H3172 C3193 0.950 . S
H3173 C3196 0.950 . S
H3174 C3197 0.950 . S
H3175 C3199 0.950 . S
H3176 C3200 0.950 . S
H3177 C3201 0.951 . S
H3178 C3203 0.951 . S
H3179 C3205 0.950 . S
H3180 C3206 0.950 . S
H3181 C3208 0.950 . S
H3182 C3211 0.950 . S
H3183 C3212 0.950 . S
H3184 C3214 0.950 . S
H3185 C3215 0.950 . S
C3186 H3168 0.951 . S
C3186 C3187 1.366 . S
C3186 C3188 1.388 . S
C3187 C3186 1.366 . S
C3187 C3191 1.385 . S
C3188 H3169 0.951 . S
C3188 C3186 1.388 . S
C3188 C3189 1.366 . S
C3189 C3188 1.366 . S
C3189 C3190 1.414 . S
C3189 C3192 1.499 . S
C3190 H3170 0.950 . S
C3190 C3189 1.414 . S
C3190 C3191 1.374 . S
C3191 H3171 0.950 . S
C3191 C3187 1.385 . S
C3191 C3190 1.374 . S
C3192 C3189 1.499 . S
C3192 C3193 1.373 . S
C3192 C3194 1.389 . S
C3193 H3172 0.950 . S
C3193 C3192 1.373 . S
C3193 C3209 1.377 . S
C3194 C3192 1.389 . S
C3194 C3195 1.524 . S
C3194 C3208 1.377 . S
C3195 C3194 1.524 . S
C3195 C3196 1.397 . S
C3195 C3200 1.363 . S
C3196 H3173 0.950 . S
C3196 C3195 1.397 . S
C3196 C3197 1.334 . S
C3197 H3174 0.950 . S
C3197 C3196 1.334 . S
C3197 C3198 1.287 . S
C3198 C3197 1.287 . S
C3198 C3199 1.524 . S
C3198 H3217 0.913 . S
C3199 H3175 0.950 . S
C3199 C3198 1.524 . S
C3199 C3200 1.415 . S
C3200 H3176 0.950 . S
C3200 C3195 1.363 . S
C3200 C3199 1.415 . S
C3201 H3177 0.951 . S
C3201 C3202 1.366 . S
C3201 C3203 1.388 . S
C3202 C3201 1.366 . S
C3202 C3206 1.385 . S
C3203 H3178 0.951 . S
C3203 C3201 1.388 . S
C3203 C3204 1.366 . S
C3204 C3203 1.366 . S
C3204 C3205 1.414 . S
C3204 C3207 1.499 . S
C3205 H3179 0.950 . S
C3205 C3204 1.414 . S
C3205 C3206 1.374 . S
C3206 H3180 0.950 . S
C3206 C3202 1.385 . S
C3206 C3205 1.374 . S
C3207 C3204 1.499 . S
C3207 C3208 1.373 . S
C3207 C3209 1.389 . S
C3208 H3181 0.950 . S
C3208 C3194 1.377 . S
C3208 C3207 1.373 . S
C3209 C3193 1.377 . S
C3209 C3207 1.389 . S
C3209 C3210 1.524 . S
C3210 C3209 1.524 . S
C3210 C3211 1.397 . S
C3210 C3215 1.363 . S
C3211 H3182 0.950 . S
C3211 C3210 1.397 . S
C3211 C3212 1.334 . S
C3212 H3183 0.950 . S
C3212 C3211 1.334 . S
C3212 C3213 1.287 . S
C3213 C3212 1.287 . S
C3213 C3214 1.524 . S
C3213 H3216 0.999 . S
C3214 H3184 0.950 . S
C3214 C3213 1.524 . S
C3214 C3215 1.415 . S
C3215 H3185 0.950 . S
C3215 C3210 1.363 . S
C3215 C3214 1.415 . S
H3216 C3213 0.999 . S
H3217 C3198 0.913 . S
H3218 C3236 0.951 . S
H3219 C3238 0.951 . S
H3220 C3240 0.950 . S
H3221 C3241 0.950 . S
H3222 C3243 0.950 . S
H3223 C3246 0.950 . S
H3224 C3247 0.950 . S
H3225 C3249 0.950 . S
H3226 C3250 0.950 . S
H3227 C3251 0.951 . S
H3228 C3253 0.951 . S
H3229 C3255 0.950 . S
H3230 C3256 0.950 . S
H3231 C3258 0.950 . S
H3232 C3261 0.950 . S
H3233 C3262 0.950 . S
H3234 C3264 0.950 . S
H3235 C3265 0.950 . S
C3236 H3218 0.951 . S
C3236 C3237 1.366 . S
C3236 C3238 1.388 . S
C3237 C3236 1.366 . S
C3237 C3241 1.385 . S
C3238 H3219 0.951 . S
C3238 C3236 1.388 . S
C3238 C3239 1.366 . S
C3239 C3238 1.366 . S
C3239 C3240 1.414 . S
C3239 C3242 1.499 . S
C3240 H3220 0.950 . S
C3240 C3239 1.414 . S
C3240 C3241 1.374 . S
C3241 H3221 0.950 . S
C3241 C3237 1.385 . S
C3241 C3240 1.374 . S
C3242 C3239 1.499 . S
C3242 C3243 1.373 . S
C3242 C3244 1.389 . S
C3243 H3222 0.950 . S
C3243 C3242 1.373 . S
C3243 C3259 1.377 . S
C3244 C3242 1.389 . S
C3244 C3245 1.524 . S
C3244 C3258 1.377 . S
C3245 C3244 1.524 . S
C3245 C3246 1.397 . S
C3245 C3250 1.363 . S
C3246 H3223 0.950 . S
C3246 C3245 1.397 . S
C3246 C3247 1.334 . S
C3247 H3224 0.950 . S
C3247 C3246 1.334 . S
C3247 C3248 1.287 . S
C3248 C3247 1.287 . S
C3248 C3249 1.524 . S
C3248 H3267 0.913 . S
C3249 H3225 0.950 . S
C3249 C3248 1.524 . S
C3249 C3250 1.415 . S
C3250 H3226 0.950 . S
C3250 C3245 1.363 . S
C3250 C3249 1.415 . S
C3251 H3227 0.951 . S
C3251 C3252 1.366 . S
C3251 C3253 1.388 . S
C3252 C3251 1.366 . S
C3252 C3256 1.385 . S
C3253 H3228 0.951 . S
C3253 C3251 1.388 . S
C3253 C3254 1.366 . S
C3254 C3253 1.366 . S
C3254 C3255 1.414 . S
C3254 C3257 1.499 . S
C3255 H3229 0.950 . S
C3255 C3254 1.414 . S
C3255 C3256 1.374 . S
C3256 H3230 0.950 . S
C3256 C3252 1.385 . S
C3256 C3255 1.374 . S
C3257 C3254 1.499 . S
C3257 C3258 1.373 . S
C3257 C3259 1.389 . S
C3258 H3231 0.950 . S
C3258 C3244 1.377 . S
C3258 C3257 1.373 . S
C3259 C3243 1.377 . S
C3259 C3257 1.389 . S
C3259 C3260 1.524 . S
C3260 C3259 1.524 . S
C3260 C3261 1.397 . S
C3260 C3265 1.363 . S
C3261 H3232 0.950 . S
C3261 C3260 1.397 . S
C3261 C3262 1.334 . S
C3262 H3233 0.950 . S
C3262 C3261 1.334 . S
C3262 C3263 1.287 . S
C3263 C3262 1.287 . S
C3263 C3264 1.524 . S
C3263 H3266 0.999 . S
C3264 H3234 0.950 . S
C3264 C3263 1.524 . S
C3264 C3265 1.415 . S
C3265 H3235 0.950 . S
C3265 C3260 1.363 . S
C3265 C3264 1.415 . S
H3266 C3263 0.999 . S
H3267 C3248 0.913 . S
H3268 C3286 0.951 . S
H3269 C3288 0.951 . S
H3270 C3290 0.950 . S
H3271 C3291 0.950 . S
H3272 C3293 0.950 . S
H3273 C3296 0.950 . S
H3274 C3297 0.950 . S
H3275 C3299 0.950 . S
H3276 C3300 0.950 . S
H3277 C3301 0.951 . S
H3278 C3303 0.951 . S
H3279 C3305 0.950 . S
H3280 C3306 0.950 . S
H3281 C3308 0.950 . S
H3282 C3311 0.950 . S
H3283 C3312 0.950 . S
H3284 C3314 0.950 . S
H3285 C3315 0.950 . S
C3286 H3268 0.951 . S
C3286 C3287 1.366 . S
C3286 C3288 1.388 . S
C3287 C3286 1.366 . S
C3287 C3291 1.385 . S
C3288 H3269 0.951 . S
C3288 C3286 1.388 . S
C3288 C3289 1.366 . S
C3289 C3288 1.366 . S
C3289 C3290 1.414 . S
C3289 C3292 1.499 . S
C3290 H3270 0.950 . S
C3290 C3289 1.414 . S
C3290 C3291 1.374 . S
C3291 H3271 0.950 . S
C3291 C3287 1.385 . S
C3291 C3290 1.374 . S
C3292 C3289 1.499 . S
C3292 C3293 1.373 . S
C3292 C3294 1.389 . S
C3293 H3272 0.950 . S
C3293 C3292 1.373 . S
C3293 C3309 1.377 . S
C3294 C3292 1.389 . S
C3294 C3295 1.524 . S
C3294 C3308 1.377 . S
C3295 C3294 1.524 . S
C3295 C3296 1.397 . S
C3295 C3300 1.363 . S
C3296 H3273 0.950 . S
C3296 C3295 1.397 . S
C3296 C3297 1.334 . S
C3297 H3274 0.950 . S
C3297 C3296 1.334 . S
C3297 C3298 1.287 . S
C3298 C3297 1.287 . S
C3298 C3299 1.524 . S
C3298 H3317 0.913 . S
C3299 H3275 0.950 . S
C3299 C3298 1.524 . S
C3299 C3300 1.415 . S
C3300 H3276 0.950 . S
C3300 C3295 1.363 . S
C3300 C3299 1.415 . S
C3301 H3277 0.951 . S
C3301 C3302 1.366 . S
C3301 C3303 1.388 . S
C3302 C3301 1.366 . S
C3302 C3306 1.385 . S
C3303 H3278 0.951 . S
C3303 C3301 1.388 . S
C3303 C3304 1.366 . S
C3304 C3303 1.366 . S
C3304 C3305 1.414 . S
C3304 C3307 1.499 . S
C3305 H3279 0.950 . S
C3305 C3304 1.414 . S
C3305 C3306 1.374 . S
C3306 H3280 0.950 . S
C3306 C3302 1.385 . S
C3306 C3305 1.374 . S
C3307 C3304 1.499 . S
C3307 C3308 1.373 . S
C3307 C3309 1.389 . S
C3308 H3281 0.950 . S
C3308 C3294 1.377 . S
C3308 C3307 1.373 . S
C3309 C3293 1.377 . S
C3309 C3307 1.389 . S
C3309 C3310 1.524 . S
C3310 C3309 1.524 . S
C3310 C3311 1.397 . S
C3310 C3315 1.363 . S
C3311 H3282 0.950 . S
C3311 C3310 1.397 . S
C3311 C3312 1.334 . S
C3312 H3283 0.950 . S
C3312 C3311 1.334 . S
C3312 C3313 1.287 . S
C3313 C3312 1.287 . S
C3313 C3314 1.524 . S
C3313 H3316 0.999 . S
C3314 H3284 0.950 . S
C3314 C3313 1.524 . S
C3314 C3315 1.415 . S
C3315 H3285 0.950 . S
C3315 C3310 1.363 . S
C3315 C3314 1.415 . S
H3316 C3313 0.999 . S
H3317 C3298 0.913 . S
H3318 C3336 0.951 . S
H3319 C3338 0.951 . S
H3320 C3340 0.950 . S
H3321 C3341 0.950 . S
H3322 C3343 0.950 . S
H3323 C3346 0.950 . S
H3324 C3347 0.950 . S
H3325 C3349 0.950 . S
H3326 C3350 0.950 . S
H3327 C3351 0.951 . S
H3328 C3353 0.951 . S
H3329 C3355 0.950 . S
H3330 C3356 0.950 . S
H3331 C3358 0.950 . S
H3332 C3361 0.950 . S
H3333 C3362 0.950 . S
H3334 C3364 0.950 . S
H3335 C3365 0.950 . S
C3336 H3318 0.951 . S
C3336 C3337 1.366 . S
C3336 C3338 1.388 . S
C3337 C3336 1.366 . S
C3337 C3341 1.385 . S
C3338 H3319 0.951 . S
C3338 C3336 1.388 . S
C3338 C3339 1.366 . S
C3339 C3338 1.366 . S
C3339 C3340 1.414 . S
C3339 C3342 1.499 . S
C3340 H3320 0.950 . S
C3340 C3339 1.414 . S
C3340 C3341 1.374 . S
C3341 H3321 0.950 . S
C3341 C3337 1.385 . S
C3341 C3340 1.374 . S
C3342 C3339 1.499 . S
C3342 C3343 1.373 . S
C3342 C3344 1.389 . S
C3343 H3322 0.950 . S
C3343 C3342 1.373 . S
C3343 C3359 1.377 . S
C3344 C3342 1.389 . S
C3344 C3345 1.524 . S
C3344 C3358 1.377 . S
C3345 C3344 1.524 . S
C3345 C3346 1.397 . S
C3345 C3350 1.363 . S
C3346 H3323 0.950 . S
C3346 C3345 1.397 . S
C3346 C3347 1.334 . S
C3347 H3324 0.950 . S
C3347 C3346 1.334 . S
C3347 C3348 1.287 . S
C3348 C3347 1.287 . S
C3348 C3349 1.524 . S
C3348 H3367 0.913 . S
C3349 H3325 0.950 . S
C3349 C3348 1.524 . S
C3349 C3350 1.415 . S
C3350 H3326 0.950 . S
C3350 C3345 1.363 . S
C3350 C3349 1.415 . S
C3351 H3327 0.951 . S
C3351 C3352 1.366 . S
C3351 C3353 1.388 . S
C3352 C3351 1.366 . S
C3352 C3356 1.385 . S
C3353 H3328 0.951 . S
C3353 C3351 1.388 . S
C3353 C3354 1.366 . S
C3354 C3353 1.366 . S
C3354 C3355 1.414 . S
C3354 C3357 1.499 . S
C3355 H3329 0.950 . S
C3355 C3354 1.414 . S
C3355 C3356 1.374 . S
C3356 H3330 0.950 . S
C3356 C3352 1.385 . S
C3356 C3355 1.374 . S
C3357 C3354 1.499 . S
C3357 C3358 1.373 . S
C3357 C3359 1.389 . S
C3358 H3331 0.950 . S
C3358 C3344 1.377 . S
C3358 C3357 1.373 . S
C3359 C3343 1.377 . S
C3359 C3357 1.389 . S
C3359 C3360 1.524 . S
C3360 C3359 1.524 . S
C3360 C3361 1.397 . S
C3360 C3365 1.363 . S
C3361 H3332 0.950 . S
C3361 C3360 1.397 . S
C3361 C3362 1.334 . S
C3362 H3333 0.950 . S
C3362 C3361 1.334 . S
C3362 C3363 1.287 . S
C3363 C3362 1.287 . S
C3363 C3364 1.524 . S
C3363 H3366 0.999 . S
C3364 H3334 0.950 . S
C3364 C3363 1.524 . S
C3364 C3365 1.415 . S
C3365 H3335 0.950 . S
C3365 C3360 1.363 . S
C3365 C3364 1.415 . S
H3366 C3363 0.999 . S
H3367 C3348 0.913 . S
H3368 C3386 0.951 . S
H3369 C3388 0.951 . S
H3370 C3390 0.950 . S
H3371 C3391 0.950 . S
H3372 C3393 0.950 . S
H3373 C3396 0.950 . S
H3374 C3397 0.950 . S
H3375 C3399 0.950 . S
H3376 C3400 0.950 . S
H3377 C3401 0.951 . S
H3378 C3403 0.951 . S
H3379 C3405 0.950 . S
H3380 C3406 0.950 . S
H3381 C3408 0.950 . S
H3382 C3411 0.950 . S
H3383 C3412 0.950 . S
H3384 C3414 0.950 . S
H3385 C3415 0.950 . S
C3386 H3368 0.951 . S
C3386 C3387 1.366 . S
C3386 C3388 1.388 . S
C3387 C3386 1.366 . S
C3387 C3391 1.385 . S
C3388 H3369 0.951 . S
C3388 C3386 1.388 . S
C3388 C3389 1.366 . S
C3389 C3388 1.366 . S
C3389 C3390 1.414 . S
C3389 C3392 1.499 . S
C3390 H3370 0.950 . S
C3390 C3389 1.414 . S
C3390 C3391 1.374 . S
C3391 H3371 0.950 . S
C3391 C3387 1.385 . S
C3391 C3390 1.374 . S
C3392 C3389 1.499 . S
C3392 C3393 1.373 . S
C3392 C3394 1.389 . S
C3393 H3372 0.950 . S
C3393 C3392 1.373 . S
C3393 C3409 1.377 . S
C3394 C3392 1.389 . S
C3394 C3395 1.524 . S
C3394 C3408 1.377 . S
C3395 C3394 1.524 . S
C3395 C3396 1.397 . S
C3395 C3400 1.363 . S
C3396 H3373 0.950 . S
C3396 C3395 1.397 . S
C3396 C3397 1.334 . S
C3397 H3374 0.950 . S
C3397 C3396 1.334 . S
C3397 C3398 1.287 . S
C3398 C3397 1.287 . S
C3398 C3399 1.524 . S
C3398 H3417 0.913 . S
C3399 H3375 0.950 . S
C3399 C3398 1.524 . S
C3399 C3400 1.415 . S
C3400 H3376 0.950 . S
C3400 C3395 1.363 . S
C3400 C3399 1.415 . S
C3401 H3377 0.951 . S
C3401 C3402 1.366 . S
C3401 C3403 1.388 . S
C3402 C3401 1.366 . S
C3402 C3406 1.385 . S
C3403 H3378 0.951 . S
C3403 C3401 1.388 . S
C3403 C3404 1.366 . S
C3404 C3403 1.366 . S
C3404 C3405 1.414 . S
C3404 C3407 1.499 . S
C3405 H3379 0.950 . S
C3405 C3404 1.414 . S
C3405 C3406 1.374 . S
C3406 H3380 0.950 . S
C3406 C3402 1.385 . S
C3406 C3405 1.374 . S
C3407 C3404 1.499 . S
C3407 C3408 1.373 . S
C3407 C3409 1.389 . S
C3408 H3381 0.950 . S
C3408 C3394 1.377 . S
C3408 C3407 1.373 . S
C3409 C3393 1.377 . S
C3409 C3407 1.389 . S
C3409 C3410 1.524 . S
C3410 C3409 1.524 . S
C3410 C3411 1.397 . S
C3410 C3415 1.363 . S
C3411 H3382 0.950 . S
C3411 C3410 1.397 . S
C3411 C3412 1.334 . S
C3412 H3383 0.950 . S
C3412 C3411 1.334 . S
C3412 C3413 1.287 . S
C3413 C3412 1.287 . S
C3413 C3414 1.524 . S
C3413 H3416 0.999 . S
C3414 H3384 0.950 . S
C3414 C3413 1.524 . S
C3414 C3415 1.415 . S
C3415 H3385 0.950 . S
C3415 C3410 1.363 . S
C3415 C3414 1.415 . S
H3416 C3413 0.999 . S
H3417 C3398 0.913 . S
H3418 C3436 0.951 . S
H3419 C3438 0.951 . S
H3420 C3440 0.950 . S
H3421 C3441 0.950 . S
H3422 C3443 0.950 . S
H3423 C3446 0.950 . S
H3424 C3447 0.950 . S
H3425 C3449 0.950 . S
H3426 C3450 0.950 . S
H3427 C3451 0.951 . S
H3428 C3453 0.951 . S
H3429 C3455 0.950 . S
H3430 C3456 0.950 . S
H3431 C3458 0.950 . S
H3432 C3461 0.950 . S
H3433 C3462 0.950 . S
H3434 C3464 0.950 . S
H3435 C3465 0.950 . S
C3436 H3418 0.951 . S
C3436 C3437 1.366 . S
C3436 C3438 1.388 . S
C3437 C3436 1.366 . S
C3437 C3441 1.385 . S
C3438 H3419 0.951 . S
C3438 C3436 1.388 . S
C3438 C3439 1.366 . S
C3439 C3438 1.366 . S
C3439 C3440 1.414 . S
C3439 C3442 1.499 . S
C3440 H3420 0.950 . S
C3440 C3439 1.414 . S
C3440 C3441 1.374 . S
C3441 H3421 0.950 . S
C3441 C3437 1.385 . S
C3441 C3440 1.374 . S
C3442 C3439 1.499 . S
C3442 C3443 1.373 . S
C3442 C3444 1.389 . S
C3443 H3422 0.950 . S
C3443 C3442 1.373 . S
C3443 C3459 1.377 . S
C3444 C3442 1.389 . S
C3444 C3445 1.524 . S
C3444 C3458 1.377 . S
C3445 C3444 1.524 . S
C3445 C3446 1.397 . S
C3445 C3450 1.363 . S
C3446 H3423 0.950 . S
C3446 C3445 1.397 . S
C3446 C3447 1.334 . S
C3447 H3424 0.950 . S
C3447 C3446 1.334 . S
C3447 C3448 1.287 . S
C3448 C3447 1.287 . S
C3448 C3449 1.524 . S
C3448 H3467 0.913 . S
C3449 H3425 0.950 . S
C3449 C3448 1.524 . S
C3449 C3450 1.415 . S
C3450 H3426 0.950 . S
C3450 C3445 1.363 . S
C3450 C3449 1.415 . S
C3451 H3427 0.951 . S
C3451 C3452 1.366 . S
C3451 C3453 1.388 . S
C3452 C3451 1.366 . S
C3452 C3456 1.385 . S
C3453 H3428 0.951 . S
C3453 C3451 1.388 . S
C3453 C3454 1.366 . S
C3454 C3453 1.366 . S
C3454 C3455 1.414 . S
C3454 C3457 1.499 . S
C3455 H3429 0.950 . S
C3455 C3454 1.414 . S
C3455 C3456 1.374 . S
C3456 H3430 0.950 . S
C3456 C3452 1.385 . S
C3456 C3455 1.374 . S
C3457 C3454 1.499 . S
C3457 C3458 1.373 . S
C3457 C3459 1.389 . S
C3458 H3431 0.950 . S
C3458 C3444 1.377 . S
C3458 C3457 1.373 . S
C3459 C3443 1.377 . S
C3459 C3457 1.389 . S
C3459 C3460 1.524 . S
C3460 C3459 1.524 . S
C3460 C3461 1.397 . S
C3460 C3465 1.363 . S
C3461 H3432 0.950 . S
C3461 C3460 1.397 . S
C3461 C3462 1.334 . S
C3462 H3433 0.950 . S
C3462 C3461 1.334 . S
C3462 C3463 1.287 . S
C3463 C3462 1.287 . S
C3463 C3464 1.524 . S
C3463 H3466 0.999 . S
C3464 H3434 0.950 . S
C3464 C3463 1.524 . S
C3464 C3465 1.415 . S
C3465 H3435 0.950 . S
C3465 C3460 1.363 . S
C3465 C3464 1.415 . S
H3466 C3463 0.999 . S
H3467 C3448 0.913 . S
H3468 C3486 0.951 . S
H3469 C3488 0.951 . S
H3470 C3490 0.950 . S
H3471 C3491 0.950 . S
H3472 C3493 0.950 . S
H3473 C3496 0.950 . S
H3474 C3497 0.950 . S
H3475 C3499 0.950 . S
H3476 C3500 0.950 . S
H3477 C3501 0.951 . S
H3478 C3503 0.951 . S
H3479 C3505 0.950 . S
H3480 C3506 0.950 . S
H3481 C3508 0.950 . S
H3482 C3511 0.950 . S
H3483 C3512 0.950 . S
H3484 C3514 0.950 . S
H3485 C3515 0.950 . S
C3486 H3468 0.951 . S
C3486 C3487 1.366 . S
C3486 C3488 1.388 . S
C3487 C3486 1.366 . S
C3487 C3491 1.385 . S
C3488 H3469 0.951 . S
C3488 C3486 1.388 . S
C3488 C3489 1.366 . S
C3489 C3488 1.366 . S
C3489 C3490 1.414 . S
C3489 C3492 1.499 . S
C3490 H3470 0.950 . S
C3490 C3489 1.414 . S
C3490 C3491 1.374 . S
C3491 H3471 0.950 . S
C3491 C3487 1.385 . S
C3491 C3490 1.374 . S
C3492 C3489 1.499 . S
C3492 C3493 1.373 . S
C3492 C3494 1.389 . S
C3493 H3472 0.950 . S
C3493 C3492 1.373 . S
C3493 C3509 1.377 . S
C3494 C3492 1.389 . S
C3494 C3495 1.524 . S
C3494 C3508 1.377 . S
C3495 C3494 1.524 . S
C3495 C3496 1.397 . S
C3495 C3500 1.363 . S
C3496 H3473 0.950 . S
C3496 C3495 1.397 . S
C3496 C3497 1.334 . S
C3497 H3474 0.950 . S
C3497 C3496 1.334 . S
C3497 C3498 1.287 . S
C3498 C3497 1.287 . S
C3498 C3499 1.524 . S
C3498 H3517 0.913 . S
C3499 H3475 0.950 . S
C3499 C3498 1.524 . S
C3499 C3500 1.415 . S
C3500 H3476 0.950 . S
C3500 C3495 1.363 . S
C3500 C3499 1.415 . S
C3501 H3477 0.951 . S
C3501 C3502 1.366 . S
C3501 C3503 1.388 . S
C3502 C3501 1.366 . S
C3502 C3506 1.385 . S
C3503 H3478 0.951 . S
C3503 C3501 1.388 . S
C3503 C3504 1.366 . S
C3504 C3503 1.366 . S
C3504 C3505 1.414 . S
C3504 C3507 1.499 . S
C3505 H3479 0.950 . S
C3505 C3504 1.414 . S
C3505 C3506 1.374 . S
C3506 H3480 0.950 . S
C3506 C3502 1.385 . S
C3506 C3505 1.374 . S
C3507 C3504 1.499 . S
C3507 C3508 1.373 . S
C3507 C3509 1.389 . S
C3508 H3481 0.950 . S
C3508 C3494 1.377 . S
C3508 C3507 1.373 . S
C3509 C3493 1.377 . S
C3509 C3507 1.389 . S
C3509 C3510 1.524 . S
C3510 C3509 1.524 . S
C3510 C3511 1.397 . S
C3510 C3515 1.363 . S
C3511 H3482 0.950 . S
C3511 C3510 1.397 . S
C3511 C3512 1.334 . S
C3512 H3483 0.950 . S
C3512 C3511 1.334 . S
C3512 C3513 1.287 . S
C3513 C3512 1.287 . S
C3513 C3514 1.524 . S
C3513 H3516 0.999 . S
C3514 H3484 0.950 . S
C3514 C3513 1.524 . S
C3514 C3515 1.415 . S
C3515 H3485 0.950 . S
C3515 C3510 1.363 . S
C3515 C3514 1.415 . S
H3516 C3513 0.999 . S
H3517 C3498 0.913 . S
H3518 C3536 0.951 . S
H3519 C3538 0.951 . S
H3520 C3540 0.950 . S
H3521 C3541 0.950 . S
H3522 C3543 0.950 . S
H3523 C3546 0.950 . S
H3524 C3547 0.950 . S
H3525 C3549 0.950 . S
H3526 C3550 0.950 . S
H3527 C3551 0.951 . S
H3528 C3553 0.951 . S
H3529 C3555 0.950 . S
H3530 C3556 0.950 . S
H3531 C3558 0.950 . S
H3532 C3561 0.950 . S
H3533 C3562 0.950 . S
H3534 C3564 0.950 . S
H3535 C3565 0.950 . S
C3536 H3518 0.951 . S
C3536 C3537 1.366 . S
C3536 C3538 1.388 . S
C3537 C3536 1.366 . S
C3537 C3541 1.385 . S
C3538 H3519 0.951 . S
C3538 C3536 1.388 . S
C3538 C3539 1.366 . S
C3539 C3538 1.366 . S
C3539 C3540 1.414 . S
C3539 C3542 1.499 . S
C3540 H3520 0.950 . S
C3540 C3539 1.414 . S
C3540 C3541 1.374 . S
C3541 H3521 0.950 . S
C3541 C3537 1.385 . S
C3541 C3540 1.374 . S
C3542 C3539 1.499 . S
C3542 C3543 1.373 . S
C3542 C3544 1.389 . S
C3543 H3522 0.950 . S
C3543 C3542 1.373 . S
C3543 C3559 1.377 . S
C3544 C3542 1.389 . S
C3544 C3545 1.524 . S
C3544 C3558 1.377 . S
C3545 C3544 1.524 . S
C3545 C3546 1.397 . S
C3545 C3550 1.363 . S
C3546 H3523 0.950 . S
C3546 C3545 1.397 . S
C3546 C3547 1.334 . S
C3547 H3524 0.950 . S
C3547 C3546 1.334 . S
C3547 C3548 1.287 . S
C3548 C3547 1.287 . S
C3548 C3549 1.524 . S
C3548 H3567 0.913 . S
C3549 H3525 0.950 . S
C3549 C3548 1.524 . S
C3549 C3550 1.415 . S
C3550 H3526 0.950 . S
C3550 C3545 1.363 . S
C3550 C3549 1.415 . S
C3551 H3527 0.951 . S
C3551 C3552 1.366 . S
C3551 C3553 1.388 . S
C3552 C3551 1.366 . S
C3552 C3556 1.385 . S
C3553 H3528 0.951 . S
C3553 C3551 1.388 . S
C3553 C3554 1.366 . S
C3554 C3553 1.366 . S
C3554 C3555 1.414 . S
C3554 C3557 1.499 . S
C3555 H3529 0.950 . S
C3555 C3554 1.414 . S
C3555 C3556 1.374 . S
C3556 H3530 0.950 . S
C3556 C3552 1.385 . S
C3556 C3555 1.374 . S
C3557 C3554 1.499 . S
C3557 C3558 1.373 . S
C3557 C3559 1.389 . S
C3558 H3531 0.950 . S
C3558 C3544 1.377 . S
C3558 C3557 1.373 . S
C3559 C3543 1.377 . S
C3559 C3557 1.389 . S
C3559 C3560 1.524 . S
C3560 C3559 1.524 . S
C3560 C3561 1.397 . S
C3560 C3565 1.363 . S
C3561 H3532 0.950 . S
C3561 C3560 1.397 . S
C3561 C3562 1.334 . S
C3562 H3533 0.950 . S
C3562 C3561 1.334 . S
C3562 C3563 1.287 . S
C3563 C3562 1.287 . S
C3563 C3564 1.524 . S
C3563 H3566 0.999 . S
C3564 H3534 0.950 . S
C3564 C3563 1.524 . S
C3564 C3565 1.415 . S
C3565 H3535 0.950 . S
C3565 C3560 1.363 . S
C3565 C3564 1.415 . S
H3566 C3563 0.999 . S
H3567 C3548 0.913 . S
H3568 C3586 0.951 . S
H3569 C3588 0.951 . S
H3570 C3590 0.950 . S
H3571 C3591 0.950 . S
H3572 C3593 0.950 . S
H3573 C3596 0.950 . S
H3574 C3597 0.950 . S
H3575 C3599 0.950 . S
H3576 C3600 0.950 . S
H3577 C3601 0.951 . S
H3578 C3603 0.951 . S
H3579 C3605 0.950 . S
H3580 C3606 0.950 . S
H3581 C3608 0.950 . S
H3582 C3611 0.950 . S
H3583 C3612 0.950 . S
H3584 C3614 0.950 . S
H3585 C3615 0.950 . S
C3586 H3568 0.951 . S
C3586 C3587 1.366 . S
C3586 C3588 1.388 . S
C3587 C3586 1.366 . S
C3587 C3591 1.385 . S
C3588 H3569 0.951 . S
C3588 C3586 1.388 . S
C3588 C3589 1.366 . S
C3589 C3588 1.366 . S
C3589 C3590 1.414 . S
C3589 C3592 1.499 . S
C3590 H3570 0.950 . S
C3590 C3589 1.414 . S
C3590 C3591 1.374 . S
C3591 H3571 0.950 . S
C3591 C3587 1.385 . S
C3591 C3590 1.374 . S
C3592 C3589 1.499 . S
C3592 C3593 1.373 . S
C3592 C3594 1.389 . S
C3593 H3572 0.950 . S
C3593 C3592 1.373 . S
C3593 C3609 1.377 . S
C3594 C3592 1.389 . S
C3594 C3595 1.524 . S
C3594 C3608 1.377 . S
C3595 C3594 1.524 . S
C3595 C3596 1.397 . S
C3595 C3600 1.363 . S
C3596 H3573 0.950 . S
C3596 C3595 1.397 . S
C3596 C3597 1.334 . S
C3597 H3574 0.950 . S
C3597 C3596 1.334 . S
C3597 C3598 1.287 . S
C3598 C3597 1.287 . S
C3598 C3599 1.524 . S
C3598 H3617 0.913 . S
C3599 H3575 0.950 . S
C3599 C3598 1.524 . S
C3599 C3600 1.415 . S
C3600 H3576 0.950 . S
C3600 C3595 1.363 . S
C3600 C3599 1.415 . S
C3601 H3577 0.951 . S
C3601 C3602 1.366 . S
C3601 C3603 1.388 . S
C3602 C3601 1.366 . S
C3602 C3606 1.385 . S
C3603 H3578 0.951 . S
C3603 C3601 1.388 . S
C3603 C3604 1.366 . S
C3604 C3603 1.366 . S
C3604 C3605 1.414 . S
C3604 C3607 1.499 . S
C3605 H3579 0.950 . S
C3605 C3604 1.414 . S
C3605 C3606 1.374 . S
C3606 H3580 0.950 . S
C3606 C3602 1.385 . S
C3606 C3605 1.374 . S
C3607 C3604 1.499 . S
C3607 C3608 1.373 . S
C3607 C3609 1.389 . S
C3608 H3581 0.950 . S
C3608 C3594 1.377 . S
C3608 C3607 1.373 . S
C3609 C3593 1.377 . S
C3609 C3607 1.389 . S
C3609 C3610 1.524 . S
C3610 C3609 1.524 . S
C3610 C3611 1.397 . S
C3610 C3615 1.363 . S
C3611 H3582 0.950 . S
C3611 C3610 1.397 . S
C3611 C3612 1.334 . S
C3612 H3583 0.950 . S
C3612 C3611 1.334 . S
C3612 C3613 1.287 . S
C3613 C3612 1.287 . S
C3613 C3614 1.524 . S
C3613 H3616 0.999 . S
C3614 H3584 0.950 . S
C3614 C3613 1.524 . S
C3614 C3615 1.415 . S
C3615 H3585 0.950 . S
C3615 C3610 1.363 . S
C3615 C3614 1.415 . S
H3616 C3613 0.999 . S
H3617 C3598 0.913 . S
H3618 C3636 0.951 . S
H3619 C3638 0.951 . S
H3620 C3640 0.950 . S
H3621 C3641 0.950 . S
H3622 C3643 0.950 . S
H3623 C3646 0.950 . S
H3624 C3647 0.950 . S
H3625 C3649 0.950 . S
H3626 C3650 0.950 . S
H3627 C3651 0.951 . S
H3628 C3653 0.951 . S
H3629 C3655 0.950 . S
H3630 C3656 0.950 . S
H3631 C3658 0.950 . S
H3632 C3661 0.950 . S
H3633 C3662 0.950 . S
H3634 C3664 0.950 . S
H3635 C3665 0.950 . S
C3636 H3618 0.951 . S
C3636 C3637 1.366 . S
C3636 C3638 1.388 . S
C3637 C3636 1.366 . S
C3637 C3641 1.385 . S
C3638 H3619 0.951 . S
C3638 C3636 1.388 . S
C3638 C3639 1.366 . S
C3639 C3638 1.366 . S
C3639 C3640 1.414 . S
C3639 C3642 1.499 . S
C3640 H3620 0.950 . S
C3640 C3639 1.414 . S
C3640 C3641 1.374 . S
C3641 H3621 0.950 . S
C3641 C3637 1.385 . S
C3641 C3640 1.374 . S
C3642 C3639 1.499 . S
C3642 C3643 1.373 . S
C3642 C3644 1.389 . S
C3643 H3622 0.950 . S
C3643 C3642 1.373 . S
C3643 C3659 1.377 . S
C3644 C3642 1.389 . S
C3644 C3645 1.524 . S
C3644 C3658 1.377 . S
C3645 C3644 1.524 . S
C3645 C3646 1.397 . S
C3645 C3650 1.363 . S
C3646 H3623 0.950 . S
C3646 C3645 1.397 . S
C3646 C3647 1.334 . S
C3647 H3624 0.950 . S
C3647 C3646 1.334 . S
C3647 C3648 1.287 . S
C3648 C3647 1.287 . S
C3648 C3649 1.524 . S
C3648 H3667 0.913 . S
C3649 H3625 0.950 . S
C3649 C3648 1.524 . S
C3649 C3650 1.415 . S
C3650 H3626 0.950 . S
C3650 C3645 1.363 . S
C3650 C3649 1.415 . S
C3651 H3627 0.951 . S
C3651 C3652 1.366 . S
C3651 C3653 1.388 . S
C3652 C3651 1.366 . S
C3652 C3656 1.385 . S
C3653 H3628 0.951 . S
C3653 C3651 1.388 . S
C3653 C3654 1.366 . S
C3654 C3653 1.366 . S
C3654 C3655 1.414 . S
C3654 C3657 1.499 . S
C3655 H3629 0.950 . S
C3655 C3654 1.414 . S
C3655 C3656 1.374 . S
C3656 H3630 0.950 . S
C3656 C3652 1.385 . S
C3656 C3655 1.374 . S
C3657 C3654 1.499 . S
C3657 C3658 1.373 . S
C3657 C3659 1.389 . S
C3658 H3631 0.950 . S
C3658 C3644 1.377 . S
C3658 C3657 1.373 . S
C3659 C3643 1.377 . S
C3659 C3657 1.389 . S
C3659 C3660 1.524 . S
C3660 C3659 1.524 . S
C3660 C3661 1.397 . S
C3660 C3665 1.363 . S
C3661 H3632 0.950 . S
C3661 C3660 1.397 . S
C3661 C3662 1.334 . S
C3662 H3633 0.950 . S
C3662 C3661 1.334 . S
C3662 C3663 1.287 . S
C3663 C3662 1.287 . S
C3663 C3664 1.524 . S
C3663 H3666 0.999 . S
C3664 H3634 0.950 . S
C3664 C3663 1.524 . S
C3664 C3665 1.415 . S
C3665 H3635 0.950 . S
C3665 C3660 1.363 . S
C3665 C3664 1.415 . S
H3666 C3663 0.999 . S
H3667 C3648 0.913 . S
H3668 C3686 0.951 . S
H3669 C3688 0.951 . S
H3670 C3690 0.950 . S
H3671 C3691 0.950 . S
H3672 C3693 0.950 . S
H3673 C3696 0.950 . S
H3674 C3697 0.950 . S
H3675 C3699 0.950 . S
H3676 C3700 0.950 . S
H3677 C3701 0.951 . S
H3678 C3703 0.951 . S
H3679 C3705 0.950 . S
H3680 C3706 0.950 . S
H3681 C3708 0.950 . S
H3682 C3711 0.950 . S
H3683 C3712 0.950 . S
H3684 C3714 0.950 . S
H3685 C3715 0.950 . S
C3686 H3668 0.951 . S
C3686 C3687 1.366 . S
C3686 C3688 1.388 . S
C3687 C3686 1.366 . S
C3687 C3691 1.385 . S
C3688 H3669 0.951 . S
C3688 C3686 1.388 . S
C3688 C3689 1.366 . S
C3689 C3688 1.366 . S
C3689 C3690 1.414 . S
C3689 C3692 1.499 . S
C3690 H3670 0.950 . S
C3690 C3689 1.414 . S
C3690 C3691 1.374 . S
C3691 H3671 0.950 . S
C3691 C3687 1.385 . S
C3691 C3690 1.374 . S
C3692 C3689 1.499 . S
C3692 C3693 1.373 . S
C3692 C3694 1.389 . S
C3693 H3672 0.950 . S
C3693 C3692 1.373 . S
C3693 C3709 1.377 . S
C3694 C3692 1.389 . S
C3694 C3695 1.524 . S
C3694 C3708 1.377 . S
C3695 C3694 1.524 . S
C3695 C3696 1.397 . S
C3695 C3700 1.363 . S
C3696 H3673 0.950 . S
C3696 C3695 1.397 . S
C3696 C3697 1.334 . S
C3697 H3674 0.950 . S
C3697 C3696 1.334 . S
C3697 C3698 1.287 . S
C3698 C3697 1.287 . S
C3698 C3699 1.524 . S
C3698 H3717 0.913 . S
C3699 H3675 0.950 . S
C3699 C3698 1.524 . S
C3699 C3700 1.415 . S
C3700 H3676 0.950 . S
C3700 C3695 1.363 . S
C3700 C3699 1.415 . S
C3701 H3677 0.951 . S
C3701 C3702 1.366 . S
C3701 C3703 1.388 . S
C3702 C3701 1.366 . S
C3702 C3706 1.385 . S
C3703 H3678 0.951 . S
C3703 C3701 1.388 . S
C3703 C3704 1.366 . S
C3704 C3703 1.366 . S
C3704 C3705 1.414 . S
C3704 C3707 1.499 . S
C3705 H3679 0.950 . S
C3705 C3704 1.414 . S
C3705 C3706 1.374 . S
C3706 H3680 0.950 . S
C3706 C3702 1.385 . S
C3706 C3705 1.374 . S
C3707 C3704 1.499 . S
C3707 C3708 1.373 . S
C3707 C3709 1.389 . S
C3708 H3681 0.950 . S
C3708 C3694 1.377 . S
C3708 C3707 1.373 . S
C3709 C3693 1.377 . S
C3709 C3707 1.389 . S
C3709 C3710 1.524 . S
C3710 C3709 1.524 . S
C3710 C3711 1.397 . S
C3710 C3715 1.363 . S
C3711 H3682 0.950 . S
C3711 C3710 1.397 . S
C3711 C3712 1.334 . S
C3712 H3683 0.950 . S
C3712 C3711 1.334 . S
C3712 C3713 1.287 . S
C3713 C3712 1.287 . S
C3713 C3714 1.524 . S
C3713 H3716 0.999 . S
C3714 H3684 0.950 . S
C3714 C3713 1.524 . S
C3714 C3715 1.415 . S
C3715 H3685 0.950 . S
C3715 C3710 1.363 . S
C3715 C3714 1.415 . S
H3716 C3713 0.999 . S
H3717 C3698 0.913 . S
H3718 C3736 0.951 . S
H3719 C3738 0.951 . S
H3720 C3740 0.950 . S
H3721 C3741 0.950 . S
H3722 C3743 0.950 . S
H3723 C3746 0.950 . S
H3724 C3747 0.950 . S
H3725 C3749 0.950 . S
H3726 C3750 0.950 . S
H3727 C3751 0.951 . S
H3728 C3753 0.951 . S
H3729 C3755 0.950 . S
H3730 C3756 0.950 . S
H3731 C3758 0.950 . S
H3732 C3761 0.950 . S
H3733 C3762 0.950 . S
H3734 C3764 0.950 . S
H3735 C3765 0.950 . S
C3736 H3718 0.951 . S
C3736 C3737 1.366 . S
C3736 C3738 1.388 . S
C3737 C3736 1.366 . S
C3737 C3741 1.385 . S
C3738 H3719 0.951 . S
C3738 C3736 1.388 . S
C3738 C3739 1.366 . S
C3739 C3738 1.366 . S
C3739 C3740 1.414 . S
C3739 C3742 1.499 . S
C3740 H3720 0.950 . S
C3740 C3739 1.414 . S
C3740 C3741 1.374 . S
C3741 H3721 0.950 . S
C3741 C3737 1.385 . S
C3741 C3740 1.374 . S
C3742 C3739 1.499 . S
C3742 C3743 1.373 . S
C3742 C3744 1.389 . S
C3743 H3722 0.950 . S
C3743 C3742 1.373 . S
C3743 C3759 1.377 . S
C3744 C3742 1.389 . S
C3744 C3745 1.524 . S
C3744 C3758 1.377 . S
C3745 C3744 1.524 . S
C3745 C3746 1.397 . S
C3745 C3750 1.363 . S
C3746 H3723 0.950 . S
C3746 C3745 1.397 . S
C3746 C3747 1.334 . S
C3747 H3724 0.950 . S
C3747 C3746 1.334 . S
C3747 C3748 1.287 . S
C3748 C3747 1.287 . S
C3748 C3749 1.524 . S
C3748 H3767 0.913 . S
C3749 H3725 0.950 . S
C3749 C3748 1.524 . S
C3749 C3750 1.415 . S
C3750 H3726 0.950 . S
C3750 C3745 1.363 . S
C3750 C3749 1.415 . S
C3751 H3727 0.951 . S
C3751 C3752 1.366 . S
C3751 C3753 1.388 . S
C3752 C3751 1.366 . S
C3752 C3756 1.385 . S
C3753 H3728 0.951 . S
C3753 C3751 1.388 . S
C3753 C3754 1.366 . S
C3754 C3753 1.366 . S
C3754 C3755 1.414 . S
C3754 C3757 1.499 . S
C3755 H3729 0.950 . S
C3755 C3754 1.414 . S
C3755 C3756 1.374 . S
C3756 H3730 0.950 . S
C3756 C3752 1.385 . S
C3756 C3755 1.374 . S
C3757 C3754 1.499 . S
C3757 C3758 1.373 . S
C3757 C3759 1.389 . S
C3758 H3731 0.950 . S
C3758 C3744 1.377 . S
C3758 C3757 1.373 . S
C3759 C3743 1.377 . S
C3759 C3757 1.389 . S
C3759 C3760 1.524 . S
C3760 C3759 1.524 . S
C3760 C3761 1.397 . S
C3760 C3765 1.363 . S
C3761 H3732 0.950 . S
C3761 C3760 1.397 . S
C3761 C3762 1.334 . S
C3762 H3733 0.950 . S
C3762 C3761 1.334 . S
C3762 C3763 1.287 . S
C3763 C3762 1.287 . S
C3763 C3764 1.524 . S
C3763 H3766 0.999 . S
C3764 H3734 0.950 . S
C3764 C3763 1.524 . S
C3764 C3765 1.415 . S
C3765 H3735 0.950 . S
C3765 C3760 1.363 . S
C3765 C3764 1.415 . S
H3766 C3763 0.999 . S
H3767 C3748 0.913 . S
H3768 C3786 0.951 . S
H3769 C3788 0.951 . S
H3770 C3790 0.950 . S
H3771 C3791 0.950 . S
H3772 C3793 0.950 . S
H3773 C3796 0.950 . S
H3774 C3797 0.950 . S
H3775 C3799 0.950 . S
H3776 C3800 0.950 . S
H3777 C3801 0.951 . S
H3778 C3803 0.951 . S
H3779 C3805 0.950 . S
H3780 C3806 0.950 . S
H3781 C3808 0.950 . S
H3782 C3811 0.950 . S
H3783 C3812 0.950 . S
H3784 C3814 0.950 . S
H3785 C3815 0.950 . S
C3786 H3768 0.951 . S
C3786 C3787 1.366 . S
C3786 C3788 1.388 . S
C3787 C3786 1.366 . S
C3787 C3791 1.385 . S
C3788 H3769 0.951 . S
C3788 C3786 1.388 . S
C3788 C3789 1.366 . S
C3789 C3788 1.366 . S
C3789 C3790 1.414 . S
C3789 C3792 1.499 . S
C3790 H3770 0.950 . S
C3790 C3789 1.414 . S
C3790 C3791 1.374 . S
C3791 H3771 0.950 . S
C3791 C3787 1.385 . S
C3791 C3790 1.374 . S
C3792 C3789 1.499 . S
C3792 C3793 1.373 . S
C3792 C3794 1.389 . S
C3793 H3772 0.950 . S
C3793 C3792 1.373 . S
C3793 C3809 1.377 . S
C3794 C3792 1.389 . S
C3794 C3795 1.524 . S
C3794 C3808 1.377 . S
C3795 C3794 1.524 . S
C3795 C3796 1.397 . S
C3795 C3800 1.363 . S
C3796 H3773 0.950 . S
C3796 C3795 1.397 . S
C3796 C3797 1.334 . S
C3797 H3774 0.950 . S
C3797 C3796 1.334 . S
C3797 C3798 1.287 . S
C3798 C3797 1.287 . S
C3798 C3799 1.524 . S
C3798 H3817 0.913 . S
C3799 H3775 0.950 . S
C3799 C3798 1.524 . S
C3799 C3800 1.415 . S
C3800 H3776 0.950 . S
C3800 C3795 1.363 . S
C3800 C3799 1.415 . S
C3801 H3777 0.951 . S
C3801 C3802 1.366 . S
C3801 C3803 1.388 . S
C3802 C3801 1.366 . S
C3802 C3806 1.385 . S
C3803 H3778 0.951 . S
C3803 C3801 1.388 . S
C3803 C3804 1.366 . S
C3804 C3803 1.366 . S
C3804 C3805 1.414 . S
C3804 C3807 1.499 . S
C3805 H3779 0.950 . S
C3805 C3804 1.414 . S
C3805 C3806 1.374 . S
C3806 H3780 0.950 . S
C3806 C3802 1.385 . S
C3806 C3805 1.374 . S
C3807 C3804 1.499 . S
C3807 C3808 1.373 . S
C3807 C3809 1.389 . S
C3808 H3781 0.950 . S
C3808 C3794 1.377 . S
C3808 C3807 1.373 . S
C3809 C3793 1.377 . S
C3809 C3807 1.389 . S
C3809 C3810 1.524 . S
C3810 C3809 1.524 . S
C3810 C3811 1.397 . S
C3810 C3815 1.363 . S
C3811 H3782 0.950 . S
C3811 C3810 1.397 . S
C3811 C3812 1.334 . S
C3812 H3783 0.950 . S
C3812 C3811 1.334 . S
C3812 C3813 1.287 . S
C3813 C3812 1.287 . S
C3813 C3814 1.524 . S
C3813 H3816 0.999 . S
C3814 H3784 0.950 . S
C3814 C3813 1.524 . S
C3814 C3815 1.415 . S
C3815 H3785 0.950 . S
C3815 C3810 1.363 . S
C3815 C3814 1.415 . S
H3816 C3813 0.999 . S
H3817 C3798 0.913 . S
H3818 C3836 0.951 . S
H3819 C3838 0.951 . S
H3820 C3840 0.950 . S
H3821 C3841 0.950 . S
H3822 C3843 0.950 . S
H3823 C3846 0.950 . S
H3824 C3847 0.950 . S
H3825 C3849 0.950 . S
H3826 C3850 0.950 . S
H3827 C3851 0.951 . S
H3828 C3853 0.951 . S
H3829 C3855 0.950 . S
H3830 C3856 0.950 . S
H3831 C3858 0.950 . S
H3832 C3861 0.950 . S
H3833 C3862 0.950 . S
H3834 C3864 0.950 . S
H3835 C3865 0.950 . S
C3836 H3818 0.951 . S
C3836 C3837 1.366 . S
C3836 C3838 1.388 . S
C3837 C3836 1.366 . S
C3837 C3841 1.385 . S
C3838 H3819 0.951 . S
C3838 C3836 1.388 . S
C3838 C3839 1.366 . S
C3839 C3838 1.366 . S
C3839 C3840 1.414 . S
C3839 C3842 1.499 . S
C3840 H3820 0.950 . S
C3840 C3839 1.414 . S
C3840 C3841 1.374 . S
C3841 H3821 0.950 . S
C3841 C3837 1.385 . S
C3841 C3840 1.374 . S
C3842 C3839 1.499 . S
C3842 C3843 1.373 . S
C3842 C3844 1.389 . S
C3843 H3822 0.950 . S
C3843 C3842 1.373 . S
C3843 C3859 1.377 . S
C3844 C3842 1.389 . S
C3844 C3845 1.524 . S
C3844 C3858 1.377 . S
C3845 C3844 1.524 . S
C3845 C3846 1.397 . S
C3845 C3850 1.363 . S
C3846 H3823 0.950 . S
C3846 C3845 1.397 . S
C3846 C3847 1.334 . S
C3847 H3824 0.950 . S
C3847 C3846 1.334 . S
C3847 C3848 1.287 . S
C3848 C3847 1.287 . S
C3848 C3849 1.524 . S
C3848 H3867 0.913 . S
C3849 H3825 0.950 . S
C3849 C3848 1.524 . S
C3849 C3850 1.415 . S
C3850 H3826 0.950 . S
C3850 C3845 1.363 . S
C3850 C3849 1.415 . S
C3851 H3827 0.951 . S
C3851 C3852 1.366 . S
C3851 C3853 1.388 . S
C3852 C3851 1.366 . S
C3852 C3856 1.385 . S
C3853 H3828 0.951 . S
C3853 C3851 1.388 . S
C3853 C3854 1.366 . S
C3854 C3853 1.366 . S
C3854 C3855 1.414 . S
C3854 C3857 1.499 . S
C3855 H3829 0.950 . S
C3855 C3854 1.414 . S
C3855 C3856 1.374 . S
C3856 H3830 0.950 . S
C3856 C3852 1.385 . S
C3856 C3855 1.374 . S
C3857 C3854 1.499 . S
C3857 C3858 1.373 . S
C3857 C3859 1.389 . S
C3858 H3831 0.950 . S
C3858 C3844 1.377 . S
C3858 C3857 1.373 . S
C3859 C3843 1.377 . S
C3859 C3857 1.389 . S
C3859 C3860 1.524 . S
C3860 C3859 1.524 . S
C3860 C3861 1.397 . S
C3860 C3865 1.363 . S
C3861 H3832 0.950 . S
C3861 C3860 1.397 . S
C3861 C3862 1.334 . S
C3862 H3833 0.950 . S
C3862 C3861 1.334 . S
C3862 C3863 1.287 . S
C3863 C3862 1.287 . S
C3863 C3864 1.524 . S
C3863 H3866 0.999 . S
C3864 H3834 0.950 . S
C3864 C3863 1.524 . S
C3864 C3865 1.415 . S
C3865 H3835 0.950 . S
C3865 C3860 1.363 . S
C3865 C3864 1.415 . S
H3866 C3863 0.999 . S
H3867 C3848 0.913 . S
H3868 C3886 0.951 . S
H3869 C3888 0.951 . S
H3870 C3890 0.950 . S
H3871 C3891 0.950 . S
H3872 C3893 0.950 . S
H3873 C3896 0.950 . S
H3874 C3897 0.950 . S
H3875 C3899 0.950 . S
H3876 C3900 0.950 . S
H3877 C3901 0.951 . S
H3878 C3903 0.951 . S
H3879 C3905 0.950 . S
H3880 C3906 0.950 . S
H3881 C3908 0.950 . S
H3882 C3911 0.950 . S
H3883 C3912 0.950 . S
H3884 C3914 0.950 . S
H3885 C3915 0.950 . S
C3886 H3868 0.951 . S
C3886 C3887 1.366 . S
C3886 C3888 1.388 . S
C3887 C3886 1.366 . S
C3887 C3891 1.385 . S
C3888 H3869 0.951 . S
C3888 C3886 1.388 . S
C3888 C3889 1.366 . S
C3889 C3888 1.366 . S
C3889 C3890 1.414 . S
C3889 C3892 1.499 . S
C3890 H3870 0.950 . S
C3890 C3889 1.414 . S
C3890 C3891 1.374 . S
C3891 H3871 0.950 . S
C3891 C3887 1.385 . S
C3891 C3890 1.374 . S
C3892 C3889 1.499 . S
C3892 C3893 1.373 . S
C3892 C3894 1.389 . S
C3893 H3872 0.950 . S
C3893 C3892 1.373 . S
C3893 C3909 1.377 . S
C3894 C3892 1.389 . S
C3894 C3895 1.524 . S
C3894 C3908 1.377 . S
C3895 C3894 1.524 . S
C3895 C3896 1.397 . S
C3895 C3900 1.363 . S
C3896 H3873 0.950 . S
C3896 C3895 1.397 . S
C3896 C3897 1.334 . S
C3897 H3874 0.950 . S
C3897 C3896 1.334 . S
C3897 C3898 1.287 . S
C3898 C3897 1.287 . S
C3898 C3899 1.524 . S
C3898 H3917 0.913 . S
C3899 H3875 0.950 . S
C3899 C3898 1.524 . S
C3899 C3900 1.415 . S
C3900 H3876 0.950 . S
C3900 C3895 1.363 . S
C3900 C3899 1.415 . S
C3901 H3877 0.951 . S
C3901 C3902 1.366 . S
C3901 C3903 1.388 . S
C3902 C3901 1.366 . S
C3902 C3906 1.385 . S
C3903 H3878 0.951 . S
C3903 C3901 1.388 . S
C3903 C3904 1.366 . S
C3904 C3903 1.366 . S
C3904 C3905 1.414 . S
C3904 C3907 1.499 . S
C3905 H3879 0.950 . S
C3905 C3904 1.414 . S
C3905 C3906 1.374 . S
C3906 H3880 0.950 . S
C3906 C3902 1.385 . S
C3906 C3905 1.374 . S
C3907 C3904 1.499 . S
C3907 C3908 1.373 . S
C3907 C3909 1.389 . S
C3908 H3881 0.950 . S
C3908 C3894 1.377 . S
C3908 C3907 1.373 . S
C3909 C3893 1.377 . S
C3909 C3907 1.389 . S
C3909 C3910 1.524 . S
C3910 C3909 1.524 . S
C3910 C3911 1.397 . S
C3910 C3915 1.363 . S
C3911 H3882 0.950 . S
C3911 C3910 1.397 . S
C3911 C3912 1.334 . S
C3912 H3883 0.950 . S
C3912 C3911 1.334 . S
C3912 C3913 1.287 . S
C3913 C3912 1.287 . S
C3913 C3914 1.524 . S
C3913 H3916 0.999 . S
C3914 H3884 0.950 . S
C3914 C3913 1.524 . S
C3914 C3915 1.415 . S
C3915 H3885 0.950 . S
C3915 C3910 1.363 . S
C3915 C3914 1.415 . S
H3916 C3913 0.999 . S
H3917 C3898 0.913 . S
H3918 C3936 0.951 . S
H3919 C3938 0.951 . S
H3920 C3940 0.950 . S
H3921 C3941 0.950 . S
H3922 C3943 0.950 . S
H3923 C3946 0.950 . S
H3924 C3947 0.950 . S
H3925 C3949 0.950 . S
H3926 C3950 0.950 . S
H3927 C3951 0.951 . S
H3928 C3953 0.951 . S
H3929 C3955 0.950 . S
H3930 C3956 0.950 . S
H3931 C3958 0.950 . S
H3932 C3961 0.950 . S
H3933 C3962 0.950 . S
H3934 C3964 0.950 . S
H3935 C3965 0.950 . S
C3936 H3918 0.951 . S
C3936 C3937 1.366 . S
C3936 C3938 1.388 . S
C3937 C3936 1.366 . S
C3937 C3941 1.385 . S
C3938 H3919 0.951 . S
C3938 C3936 1.388 . S
C3938 C3939 1.366 . S
C3939 C3938 1.366 . S
C3939 C3940 1.414 . S
C3939 C3942 1.499 . S
C3940 H3920 0.950 . S
C3940 C3939 1.414 . S
C3940 C3941 1.374 . S
C3941 H3921 0.950 . S
C3941 C3937 1.385 . S
C3941 C3940 1.374 . S
C3942 C3939 1.499 . S
C3942 C3943 1.373 . S
C3942 C3944 1.389 . S
C3943 H3922 0.950 . S
C3943 C3942 1.373 . S
C3943 C3959 1.377 . S
C3944 C3942 1.389 . S
C3944 C3945 1.524 . S
C3944 C3958 1.377 . S
C3945 C3944 1.524 . S
C3945 C3946 1.397 . S
C3945 C3950 1.363 . S
C3946 H3923 0.950 . S
C3946 C3945 1.397 . S
C3946 C3947 1.334 . S
C3947 H3924 0.950 . S
C3947 C3946 1.334 . S
C3947 C3948 1.287 . S
C3948 C3947 1.287 . S
C3948 C3949 1.524 . S
C3948 H3967 0.913 . S
C3949 H3925 0.950 . S
C3949 C3948 1.524 . S
C3949 C3950 1.415 . S
C3950 H3926 0.950 . S
C3950 C3945 1.363 . S
C3950 C3949 1.415 . S
C3951 H3927 0.951 . S
C3951 C3952 1.366 . S
C3951 C3953 1.388 . S
C3952 C3951 1.366 . S
C3952 C3956 1.385 . S
C3953 H3928 0.951 . S
C3953 C3951 1.388 . S
C3953 C3954 1.366 . S
C3954 C3953 1.366 . S
C3954 C3955 1.414 . S
C3954 C3957 1.499 . S
C3955 H3929 0.950 . S
C3955 C3954 1.414 . S
C3955 C3956 1.374 . S
C3956 H3930 0.950 . S
C3956 C3952 1.385 . S
C3956 C3955 1.374 . S
C3957 C3954 1.499 . S
C3957 C3958 1.373 . S
C3957 C3959 1.389 . S
C3958 H3931 0.950 . S
C3958 C3944 1.377 . S
C3958 C3957 1.373 . S
C3959 C3943 1.377 . S
C3959 C3957 1.389 . S
C3959 C3960 1.524 . S
C3960 C3959 1.524 . S
C3960 C3961 1.397 . S
C3960 C3965 1.363 . S
C3961 H3932 0.950 . S
C3961 C3960 1.397 . S
C3961 C3962 1.334 . S
C3962 H3933 0.950 . S
C3962 C3961 1.334 . S
C3962 C3963 1.287 . S
C3963 C3962 1.287 . S
C3963 C3964 1.524 . S
C3963 H3966 0.999 . S
C3964 H3934 0.950 . S
C3964 C3963 1.524 . S
C3964 C3965 1.415 . S
C3965 H3935 0.950 . S
C3965 C3960 1.363 . S
C3965 C3964 1.415 . S
H3966 C3963 0.999 . S
H3967 C3948 0.913 . S
H3968 C3986 0.951 . S
H3969 C3988 0.951 . S
H3970 C3990 0.950 . S
H3971 C3991 0.950 . S
H3972 C3993 0.950 . S
H3973 C3996 0.950 . S
H3974 C3997 0.950 . S
H3975 C3999 0.950 . S
H3976 C4000 0.950 . S
H3977 C4001 0.951 . S
H3978 C4003 0.951 . S
H3979 C4005 0.950 . S
H3980 C4006 0.950 . S
H3981 C4008 0.950 . S
H3982 C4011 0.950 . S
H3983 C4012 0.950 . S
H3984 C4014 0.950 . S
H3985 C4015 0.950 . S
C3986 H3968 0.951 . S
C3986 C3987 1.366 . S
C3986 C3988 1.388 . S
C3987 C3986 1.366 . S
C3987 C3991 1.385 . S
C3988 H3969 0.951 . S
C3988 C3986 1.388 . S
C3988 C3989 1.366 . S
C3989 C3988 1.366 . S
C3989 C3990 1.414 . S
C3989 C3992 1.499 . S
C3990 H3970 0.950 . S
C3990 C3989 1.414 . S
C3990 C3991 1.374 . S
C3991 H3971 0.950 . S
C3991 C3987 1.385 . S
C3991 C3990 1.374 . S
C3992 C3989 1.499 . S
C3992 C3993 1.373 . S
C3992 C3994 1.389 . S
C3993 H3972 0.950 . S
C3993 C3992 1.373 . S
C3993 C4009 1.377 . S
C3994 C3992 1.389 . S
C3994 C3995 1.524 . S
C3994 C4008 1.377 . S
C3995 C3994 1.524 . S
C3995 C3996 1.397 . S
C3995 C4000 1.363 . S
C3996 H3973 0.950 . S
C3996 C3995 1.397 . S
C3996 C3997 1.334 . S
C3997 H3974 0.950 . S
C3997 C3996 1.334 . S
C3997 C3998 1.287 . S
C3998 C3997 1.287 . S
C3998 C3999 1.524 . S
C3998 H4017 0.913 . S
C3999 H3975 0.950 . S
C3999 C3998 1.524 . S
C3999 C4000 1.415 . S
C4000 H3976 0.950 . S
C4000 C3995 1.363 . S
C4000 C3999 1.415 . S
C4001 H3977 0.951 . S
C4001 C4002 1.366 . S
C4001 C4003 1.388 . S
C4002 C4001 1.366 . S
C4002 C4006 1.385 . S
C4003 H3978 0.951 . S
C4003 C4001 1.388 . S
C4003 C4004 1.366 . S
C4004 C4003 1.366 . S
C4004 C4005 1.414 . S
C4004 C4007 1.499 . S
C4005 H3979 0.950 . S
C4005 C4004 1.414 . S
C4005 C4006 1.374 . S
C4006 H3980 0.950 . S
C4006 C4002 1.385 . S
C4006 C4005 1.374 . S
C4007 C4004 1.499 . S
C4007 C4008 1.373 . S
C4007 C4009 1.389 . S
C4008 H3981 0.950 . S
C4008 C3994 1.377 . S
C4008 C4007 1.373 . S
C4009 C3993 1.377 . S
C4009 C4007 1.389 . S
C4009 C4010 1.524 . S
C4010 C4009 1.524 . S
C4010 C4011 1.397 . S
C4010 C4015 1.363 . S
C4011 H3982 0.950 . S
C4011 C4010 1.397 . S
C4011 C4012 1.334 . S
C4012 H3983 0.950 . S
C4012 C4011 1.334 . S
C4012 C4013 1.287 . S
C4013 C4012 1.287 . S
C4013 C4014 1.524 . S
C4013 H4016 0.999 . S
C4014 H3984 0.950 . S
C4014 C4013 1.524 . S
C4014 C4015 1.415 . S
C4015 H3985 0.950 . S
C4015 C4010 1.363 . S
C4015 C4014 1.415 . S
H4016 C4013 0.999 . S
H4017 C3998 0.913 . S
H4018 C4036 0.951 . S
H4019 C4038 0.951 . S
H4020 C4040 0.950 . S
H4021 C4041 0.950 . S
H4022 C4043 0.950 . S
H4023 C4046 0.950 . S
H4024 C4047 0.950 . S
H4025 C4049 0.950 . S
H4026 C4050 0.950 . S
H4027 C4051 0.951 . S
H4028 C4053 0.951 . S
H4029 C4055 0.950 . S
H4030 C4056 0.950 . S
H4031 C4058 0.950 . S
H4032 C4061 0.950 . S
H4033 C4062 0.950 . S
H4034 C4064 0.950 . S
H4035 C4065 0.950 . S
C4036 H4018 0.951 . S
C4036 C4037 1.366 . S
C4036 C4038 1.388 . S
C4037 C4036 1.366 . S
C4037 C4041 1.385 . S
C4038 H4019 0.951 . S
C4038 C4036 1.388 . S
C4038 C4039 1.366 . S
C4039 C4038 1.366 . S
C4039 C4040 1.414 . S
C4039 C4042 1.499 . S
C4040 H4020 0.950 . S
C4040 C4039 1.414 . S
C4040 C4041 1.374 . S
C4041 H4021 0.950 . S
C4041 C4037 1.385 . S
C4041 C4040 1.374 . S
C4042 C4039 1.499 . S
C4042 C4043 1.373 . S
C4042 C4044 1.389 . S
C4043 H4022 0.950 . S
C4043 C4042 1.373 . S
C4043 C4059 1.377 . S
C4044 C4042 1.389 . S
C4044 C4045 1.524 . S
C4044 C4058 1.377 . S
C4045 C4044 1.524 . S
C4045 C4046 1.397 . S
C4045 C4050 1.363 . S
C4046 H4023 0.950 . S
C4046 C4045 1.397 . S
C4046 C4047 1.334 . S
C4047 H4024 0.950 . S
C4047 C4046 1.334 . S
C4047 C4048 1.287 . S
C4048 C4047 1.287 . S
C4048 C4049 1.524 . S
C4048 H4067 0.913 . S
C4049 H4025 0.950 . S
C4049 C4048 1.524 . S
C4049 C4050 1.415 . S
C4050 H4026 0.950 . S
C4050 C4045 1.363 . S
C4050 C4049 1.415 . S
C4051 H4027 0.951 . S
C4051 C4052 1.366 . S
C4051 C4053 1.388 . S
C4052 C4051 1.366 . S
C4052 C4056 1.385 . S
C4053 H4028 0.951 . S
C4053 C4051 1.388 . S
C4053 C4054 1.366 . S
C4054 C4053 1.366 . S
C4054 C4055 1.414 . S
C4054 C4057 1.499 . S
C4055 H4029 0.950 . S
C4055 C4054 1.414 . S
C4055 C4056 1.374 . S
C4056 H4030 0.950 . S
C4056 C4052 1.385 . S
C4056 C4055 1.374 . S
C4057 C4054 1.499 . S
C4057 C4058 1.373 . S
C4057 C4059 1.389 . S
C4058 H4031 0.950 . S
C4058 C4044 1.377 . S
C4058 C4057 1.373 . S
C4059 C4043 1.377 . S
C4059 C4057 1.389 . S
C4059 C4060 1.524 . S
C4060 C4059 1.524 . S
C4060 C4061 1.397 . S
C4060 C4065 1.363 . S
C4061 H4032 0.950 . S
C4061 C4060 1.397 . S
C4061 C4062 1.334 . S
C4062 H4033 0.950 . S
C4062 C4061 1.334 . S
C4062 C4063 1.287 . S
C4063 C4062 1.287 . S
C4063 C4064 1.524 . S
C4063 H4066 0.999 . S
C4064 H4034 0.950 . S
C4064 C4063 1.524 . S
C4064 C4065 1.415 . S
C4065 H4035 0.950 . S
C4065 C4060 1.363 . S
C4065 C4064 1.415 . S
H4066 C4063 0.999 . S
H4067 C4048 0.913 . S
H4068 C4086 0.951 . S
H4069 C4088 0.951 . S
H4070 C4090 0.950 . S
H4071 C4091 0.950 . S
H4072 C4093 0.950 . S
H4073 C4096 0.950 . S
H4074 C4097 0.950 . S
H4075 C4099 0.950 . S
H4076 C4100 0.950 . S
H4077 C4101 0.951 . S
H4078 C4103 0.951 . S
H4079 C4105 0.950 . S
H4080 C4106 0.950 . S
H4081 C4108 0.950 . S
H4082 C4111 0.950 . S
H4083 C4112 0.950 . S
H4084 C4114 0.950 . S
H4085 C4115 0.950 . S
C4086 H4068 0.951 . S
C4086 C4087 1.366 . S
C4086 C4088 1.388 . S
C4087 C4086 1.366 . S
C4087 C4091 1.385 . S
C4088 H4069 0.951 . S
C4088 C4086 1.388 . S
C4088 C4089 1.366 . S
C4089 C4088 1.366 . S
C4089 C4090 1.414 . S
C4089 C4092 1.499 . S
C4090 H4070 0.950 . S
C4090 C4089 1.414 . S
C4090 C4091 1.374 . S
C4091 H4071 0.950 . S
C4091 C4087 1.385 . S
C4091 C4090 1.374 . S
C4092 C4089 1.499 . S
C4092 C4093 1.373 . S
C4092 C4094 1.389 . S
C4093 H4072 0.950 . S
C4093 C4092 1.373 . S
C4093 C4109 1.377 . S
C4094 C4092 1.389 . S
C4094 C4095 1.524 . S
C4094 C4108 1.377 . S
C4095 C4094 1.524 . S
C4095 C4096 1.397 . S
C4095 C4100 1.363 . S
C4096 H4073 0.950 . S
C4096 C4095 1.397 . S
C4096 C4097 1.334 . S
C4097 H4074 0.950 . S
C4097 C4096 1.334 . S
C4097 C4098 1.287 . S
C4098 C4097 1.287 . S
C4098 C4099 1.524 . S
C4098 H4117 0.913 . S
C4099 H4075 0.950 . S
C4099 C4098 1.524 . S
C4099 C4100 1.415 . S
C4100 H4076 0.950 . S
C4100 C4095 1.363 . S
C4100 C4099 1.415 . S
C4101 H4077 0.951 . S
C4101 C4102 1.366 . S
C4101 C4103 1.388 . S
C4102 C4101 1.366 . S
C4102 C4106 1.385 . S
C4103 H4078 0.951 . S
C4103 C4101 1.388 . S
C4103 C4104 1.366 . S
C4104 C4103 1.366 . S
C4104 C4105 1.414 . S
C4104 C4107 1.499 . S
C4105 H4079 0.950 . S
C4105 C4104 1.414 . S
C4105 C4106 1.374 . S
C4106 H4080 0.950 . S
C4106 C4102 1.385 . S
C4106 C4105 1.374 . S
C4107 C4104 1.499 . S
C4107 C4108 1.373 . S
C4107 C4109 1.389 . S
C4108 H4081 0.950 . S
C4108 C4094 1.377 . S
C4108 C4107 1.373 . S
C4109 C4093 1.377 . S
C4109 C4107 1.389 . S
C4109 C4110 1.524 . S
C4110 C4109 1.524 . S
C4110 C4111 1.397 . S
C4110 C4115 1.363 . S
C4111 H4082 0.950 . S
C4111 C4110 1.397 . S
C4111 C4112 1.334 . S
C4112 H4083 0.950 . S
C4112 C4111 1.334 . S
C4112 C4113 1.287 . S
C4113 C4112 1.287 . S
C4113 C4114 1.524 . S
C4113 H4116 0.999 . S
C4114 H4084 0.950 . S
C4114 C4113 1.524 . S
C4114 C4115 1.415 . S
C4115 H4085 0.950 . S
C4115 C4110 1.363 . S
C4115 C4114 1.415 . S
H4116 C4113 0.999 . S
H4117 C4098 0.913 . S
H4118 C4136 0.951 . S
H4119 C4138 0.951 . S
H4120 C4140 0.950 . S
H4121 C4141 0.950 . S
H4122 C4143 0.950 . S
H4123 C4146 0.950 . S
H4124 C4147 0.950 . S
H4125 C4149 0.950 . S
H4126 C4150 0.950 . S
H4127 C4151 0.951 . S
H4128 C4153 0.951 . S
H4129 C4155 0.950 . S
H4130 C4156 0.950 . S
H4131 C4158 0.950 . S
H4132 C4161 0.950 . S
H4133 C4162 0.950 . S
H4134 C4164 0.950 . S
H4135 C4165 0.950 . S
C4136 H4118 0.951 . S
C4136 C4137 1.366 . S
C4136 C4138 1.388 . S
C4137 C4136 1.366 . S
C4137 C4141 1.385 . S
C4138 H4119 0.951 . S
C4138 C4136 1.388 . S
C4138 C4139 1.366 . S
C4139 C4138 1.366 . S
C4139 C4140 1.414 . S
C4139 C4142 1.499 . S
C4140 H4120 0.950 . S
C4140 C4139 1.414 . S
C4140 C4141 1.374 . S
C4141 H4121 0.950 . S
C4141 C4137 1.385 . S
C4141 C4140 1.374 . S
C4142 C4139 1.499 . S
C4142 C4143 1.373 . S
C4142 C4144 1.389 . S
C4143 H4122 0.950 . S
C4143 C4142 1.373 . S
C4143 C4159 1.377 . S
C4144 C4142 1.389 . S
C4144 C4145 1.524 . S
C4144 C4158 1.377 . S
C4145 C4144 1.524 . S
C4145 C4146 1.397 . S
C4145 C4150 1.363 . S
C4146 H4123 0.950 . S
C4146 C4145 1.397 . S
C4146 C4147 1.334 . S
C4147 H4124 0.950 . S
C4147 C4146 1.334 . S
C4147 C4148 1.287 . S
C4148 C4147 1.287 . S
C4148 C4149 1.524 . S
C4148 H4167 0.913 . S
C4149 H4125 0.950 . S
C4149 C4148 1.524 . S
C4149 C4150 1.415 . S
C4150 H4126 0.950 . S
C4150 C4145 1.363 . S
C4150 C4149 1.415 . S
C4151 H4127 0.951 . S
C4151 C4152 1.366 . S
C4151 C4153 1.388 . S
C4152 C4151 1.366 . S
C4152 C4156 1.385 . S
C4153 H4128 0.951 . S
C4153 C4151 1.388 . S
C4153 C4154 1.366 . S
C4154 C4153 1.366 . S
C4154 C4155 1.414 . S
C4154 C4157 1.499 . S
C4155 H4129 0.950 . S
C4155 C4154 1.414 . S
C4155 C4156 1.374 . S
C4156 H4130 0.950 . S
C4156 C4152 1.385 . S
C4156 C4155 1.374 . S
C4157 C4154 1.499 . S
C4157 C4158 1.373 . S
C4157 C4159 1.389 . S
C4158 H4131 0.950 . S
C4158 C4144 1.377 . S
C4158 C4157 1.373 . S
C4159 C4143 1.377 . S
C4159 C4157 1.389 . S
C4159 C4160 1.524 . S
C4160 C4159 1.524 . S
C4160 C4161 1.397 . S
C4160 C4165 1.363 . S
C4161 H4132 0.950 . S
C4161 C4160 1.397 . S
C4161 C4162 1.334 . S
C4162 H4133 0.950 . S
C4162 C4161 1.334 . S
C4162 C4163 1.287 . S
C4163 C4162 1.287 . S
C4163 C4164 1.524 . S
C4163 H4166 0.999 . S
C4164 H4134 0.950 . S
C4164 C4163 1.524 . S
C4164 C4165 1.415 . S
C4165 H4135 0.950 . S
C4165 C4160 1.363 . S
C4165 C4164 1.415 . S
H4166 C4163 0.999 . S
H4167 C4148 0.913 . S
H4168 C4186 0.951 . S
H4169 C4188 0.951 . S
H4170 C4190 0.950 . S
H4171 C4191 0.950 . S
H4172 C4193 0.950 . S
H4173 C4196 0.950 . S
H4174 C4197 0.950 . S
H4175 C4199 0.950 . S
H4176 C4200 0.950 . S
H4177 C4201 0.951 . S
H4178 C4203 0.951 . S
H4179 C4205 0.950 . S
H4180 C4206 0.950 . S
H4181 C4208 0.950 . S
H4182 C4211 0.950 . S
H4183 C4212 0.950 . S
H4184 C4214 0.950 . S
H4185 C4215 0.950 . S
C4186 H4168 0.951 . S
C4186 C4187 1.366 . S
C4186 C4188 1.388 . S
C4187 C4186 1.366 . S
C4187 C4191 1.385 . S
C4188 H4169 0.951 . S
C4188 C4186 1.388 . S
C4188 C4189 1.366 . S
C4189 C4188 1.366 . S
C4189 C4190 1.414 . S
C4189 C4192 1.499 . S
C4190 H4170 0.950 . S
C4190 C4189 1.414 . S
C4190 C4191 1.374 . S
C4191 H4171 0.950 . S
C4191 C4187 1.385 . S
C4191 C4190 1.374 . S
C4192 C4189 1.499 . S
C4192 C4193 1.373 . S
C4192 C4194 1.389 . S
C4193 H4172 0.950 . S
C4193 C4192 1.373 . S
C4193 C4209 1.377 . S
C4194 C4192 1.389 . S
C4194 C4195 1.524 . S
C4194 C4208 1.377 . S
C4195 C4194 1.524 . S
C4195 C4196 1.397 . S
C4195 C4200 1.363 . S
C4196 H4173 0.950 . S
C4196 C4195 1.397 . S
C4196 C4197 1.334 . S
C4197 H4174 0.950 . S
C4197 C4196 1.334 . S
C4197 C4198 1.287 . S
C4198 C4197 1.287 . S
C4198 C4199 1.524 . S
C4198 H4217 0.913 . S
C4199 H4175 0.950 . S
C4199 C4198 1.524 . S
C4199 C4200 1.415 . S
C4200 H4176 0.950 . S
C4200 C4195 1.363 . S
C4200 C4199 1.415 . S
C4201 H4177 0.951 . S
C4201 C4202 1.366 . S
C4201 C4203 1.388 . S
C4202 C4201 1.366 . S
C4202 C4206 1.385 . S
C4203 H4178 0.951 . S
C4203 C4201 1.388 . S
C4203 C4204 1.366 . S
C4204 C4203 1.366 . S
C4204 C4205 1.414 . S
C4204 C4207 1.499 . S
C4205 H4179 0.950 . S
C4205 C4204 1.414 . S
C4205 C4206 1.374 . S
C4206 H4180 0.950 . S
C4206 C4202 1.385 . S
C4206 C4205 1.374 . S
C4207 C4204 1.499 . S
C4207 C4208 1.373 . S
C4207 C4209 1.389 . S
C4208 H4181 0.950 . S
C4208 C4194 1.377 . S
C4208 C4207 1.373 . S
C4209 C4193 1.377 . S
C4209 C4207 1.389 . S
C4209 C4210 1.524 . S
C4210 C4209 1.524 . S
C4210 C4211 1.397 . S
C4210 C4215 1.363 . S
C4211 H4182 0.950 . S
C4211 C4210 1.397 . S
C4211 C4212 1.334 . S
C4212 H4183 0.950 . S
C4212 C4211 1.334 . S
C4212 C4213 1.287 . S
C4213 C4212 1.287 . S
C4213 C4214 1.524 . S
C4213 H4216 0.999 . S
C4214 H4184 0.950 . S
C4214 C4213 1.524 . S
C4214 C4215 1.415 . S
C4215 H4185 0.950 . S
C4215 C4210 1.363 . S
C4215 C4214 1.415 . S
H4216 C4213 0.999 . S
H4217 C4198 0.913 . S
H4218 C4236 0.951 . S
H4219 C4238 0.951 . S
H4220 C4240 0.950 . S
H4221 C4241 0.950 . S
H4222 C4243 0.950 . S
H4223 C4246 0.950 . S
H4224 C4247 0.950 . S
H4225 C4249 0.950 . S
H4226 C4250 0.950 . S
H4227 C4251 0.951 . S
H4228 C4253 0.951 . S
H4229 C4255 0.950 . S
H4230 C4256 0.950 . S
H4231 C4258 0.950 . S
H4232 C4261 0.950 . S
H4233 C4262 0.950 . S
H4234 C4264 0.950 . S
H4235 C4265 0.950 . S
C4236 H4218 0.951 . S
C4236 C4237 1.366 . S
C4236 C4238 1.388 . S
C4237 C4236 1.366 . S
C4237 C4241 1.385 . S
C4238 H4219 0.951 . S
C4238 C4236 1.388 . S
C4238 C4239 1.366 . S
C4239 C4238 1.366 . S
C4239 C4240 1.414 . S
C4239 C4242 1.499 . S
C4240 H4220 0.950 . S
C4240 C4239 1.414 . S
C4240 C4241 1.374 . S
C4241 H4221 0.950 . S
C4241 C4237 1.385 . S
C4241 C4240 1.374 . S
C4242 C4239 1.499 . S
C4242 C4243 1.373 . S
C4242 C4244 1.389 . S
C4243 H4222 0.950 . S
C4243 C4242 1.373 . S
C4243 C4259 1.377 . S
C4244 C4242 1.389 . S
C4244 C4245 1.524 . S
C4244 C4258 1.377 . S
C4245 C4244 1.524 . S
C4245 C4246 1.397 . S
C4245 C4250 1.363 . S
C4246 H4223 0.950 . S
C4246 C4245 1.397 . S
C4246 C4247 1.334 . S
C4247 H4224 0.950 . S
C4247 C4246 1.334 . S
C4247 C4248 1.287 . S
C4248 C4247 1.287 . S
C4248 C4249 1.524 . S
C4248 H4267 0.913 . S
C4249 H4225 0.950 . S
C4249 C4248 1.524 . S
C4249 C4250 1.415 . S
C4250 H4226 0.950 . S
C4250 C4245 1.363 . S
C4250 C4249 1.415 . S
C4251 H4227 0.951 . S
C4251 C4252 1.366 . S
C4251 C4253 1.388 . S
C4252 C4251 1.366 . S
C4252 C4256 1.385 . S
C4253 H4228 0.951 . S
C4253 C4251 1.388 . S
C4253 C4254 1.366 . S
C4254 C4253 1.366 . S
C4254 C4255 1.414 . S
C4254 C4257 1.499 . S
C4255 H4229 0.950 . S
C4255 C4254 1.414 . S
C4255 C4256 1.374 . S
C4256 H4230 0.950 . S
C4256 C4252 1.385 . S
C4256 C4255 1.374 . S
C4257 C4254 1.499 . S
C4257 C4258 1.373 . S
C4257 C4259 1.389 . S
C4258 H4231 0.950 . S
C4258 C4244 1.377 . S
C4258 C4257 1.373 . S
C4259 C4243 1.377 . S
C4259 C4257 1.389 . S
C4259 C4260 1.524 . S
C4260 C4259 1.524 . S
C4260 C4261 1.397 . S
C4260 C4265 1.363 . S
C4261 H4232 0.950 . S
C4261 C4260 1.397 . S
C4261 C4262 1.334 . S
C4262 H4233 0.950 . S
C4262 C4261 1.334 . S
C4262 C4263 1.287 . S
C4263 C4262 1.287 . S
C4263 C4264 1.524 . S
C4263 H4266 0.999 . S
C4264 H4234 0.950 . S
C4264 C4263 1.524 . S
C4264 C4265 1.415 . S
C4265 H4235 0.950 . S
C4265 C4260 1.363 . S
C4265 C4264 1.415 . S
H4266 C4263 0.999 . S
H4267 C4248 0.913 . S
H4268 C4286 0.951 . S
H4269 C4288 0.951 . S
H4270 C4290 0.950 . S
H4271 C4291 0.950 . S
H4272 C4293 0.950 . S
H4273 C4296 0.950 . S
H4274 C4297 0.950 . S
H4275 C4299 0.950 . S
H4276 C4300 0.950 . S
H4277 C4301 0.951 . S
H4278 C4303 0.951 . S
H4279 C4305 0.950 . S
H4280 C4306 0.950 . S
H4281 C4308 0.950 . S
H4282 C4311 0.950 . S
H4283 C4312 0.950 . S
H4284 C4314 0.950 . S
H4285 C4315 0.950 . S
C4286 H4268 0.951 . S
C4286 C4287 1.366 . S
C4286 C4288 1.388 . S
C4287 C4286 1.366 . S
C4287 C4291 1.385 . S
C4288 H4269 0.951 . S
C4288 C4286 1.388 . S
C4288 C4289 1.366 . S
C4289 C4288 1.366 . S
C4289 C4290 1.414 . S
C4289 C4292 1.499 . S
C4290 H4270 0.950 . S
C4290 C4289 1.414 . S
C4290 C4291 1.374 . S
C4291 H4271 0.950 . S
C4291 C4287 1.385 . S
C4291 C4290 1.374 . S
C4292 C4289 1.499 . S
C4292 C4293 1.373 . S
C4292 C4294 1.389 . S
C4293 H4272 0.950 . S
C4293 C4292 1.373 . S
C4293 C4309 1.377 . S
C4294 C4292 1.389 . S
C4294 C4295 1.524 . S
C4294 C4308 1.377 . S
C4295 C4294 1.524 . S
C4295 C4296 1.397 . S
C4295 C4300 1.363 . S
C4296 H4273 0.950 . S
C4296 C4295 1.397 . S
C4296 C4297 1.334 . S
C4297 H4274 0.950 . S
C4297 C4296 1.334 . S
C4297 C4298 1.287 . S
C4298 C4297 1.287 . S
C4298 C4299 1.524 . S
C4298 H4317 0.913 . S
C4299 H4275 0.950 . S
C4299 C4298 1.524 . S
C4299 C4300 1.415 . S
C4300 H4276 0.950 . S
C4300 C4295 1.363 . S
C4300 C4299 1.415 . S
C4301 H4277 0.951 . S
C4301 C4302 1.366 . S
C4301 C4303 1.388 . S
C4302 C4301 1.366 . S
C4302 C4306 1.385 . S
C4303 H4278 0.951 . S
C4303 C4301 1.388 . S
C4303 C4304 1.366 . S
C4304 C4303 1.366 . S
C4304 C4305 1.414 . S
C4304 C4307 1.499 . S
C4305 H4279 0.950 . S
C4305 C4304 1.414 . S
C4305 C4306 1.374 . S
C4306 H4280 0.950 . S
C4306 C4302 1.385 . S
C4306 C4305 1.374 . S
C4307 C4304 1.499 . S
C4307 C4308 1.373 . S
C4307 C4309 1.389 . S
C4308 H4281 0.950 . S
C4308 C4294 1.377 . S
C4308 C4307 1.373 . S
C4309 C4293 1.377 . S
C4309 C4307 1.389 . S
C4309 C4310 1.524 . S
C4310 C4309 1.524 . S
C4310 C4311 1.397 . S
C4310 C4315 1.363 . S
C4311 H4282 0.950 . S
C4311 C4310 1.397 . S
C4311 C4312 1.334 . S
C4312 H4283 0.950 . S
C4312 C4311 1.334 . S
C4312 C4313 1.287 . S
C4313 C4312 1.287 . S
C4313 C4314 1.524 . S
C4313 H4316 0.999 . S
C4314 H4284 0.950 . S
C4314 C4313 1.524 . S
C4314 C4315 1.415 . S
C4315 H4285 0.950 . S
C4315 C4310 1.363 . S
C4315 C4314 1.415 . S
H4316 C4313 0.999 . S
H4317 C4298 0.913 . S
H4318 C4336 0.951 . S
H4319 C4338 0.951 . S
H4320 C4340 0.950 . S
H4321 C4341 0.950 . S
H4322 C4343 0.950 . S
H4323 C4346 0.950 . S
H4324 C4347 0.950 . S
H4325 C4349 0.950 . S
H4326 C4350 0.950 . S
H4327 C4351 0.951 . S
H4328 C4353 0.951 . S
H4329 C4355 0.950 . S
H4330 C4356 0.950 . S
H4331 C4358 0.950 . S
H4332 C4361 0.950 . S
H4333 C4362 0.950 . S
H4334 C4364 0.950 . S
H4335 C4365 0.950 . S
C4336 H4318 0.951 . S
C4336 C4337 1.366 . S
C4336 C4338 1.388 . S
C4337 C4336 1.366 . S
C4337 C4341 1.385 . S
C4338 H4319 0.951 . S
C4338 C4336 1.388 . S
C4338 C4339 1.366 . S
C4339 C4338 1.366 . S
C4339 C4340 1.414 . S
C4339 C4342 1.499 . S
C4340 H4320 0.950 . S
C4340 C4339 1.414 . S
C4340 C4341 1.374 . S
C4341 H4321 0.950 . S
C4341 C4337 1.385 . S
C4341 C4340 1.374 . S
C4342 C4339 1.499 . S
C4342 C4343 1.373 . S
C4342 C4344 1.389 . S
C4343 H4322 0.950 . S
C4343 C4342 1.373 . S
C4343 C4359 1.377 . S
C4344 C4342 1.389 . S
C4344 C4345 1.524 . S
C4344 C4358 1.377 . S
C4345 C4344 1.524 . S
C4345 C4346 1.397 . S
C4345 C4350 1.363 . S
C4346 H4323 0.950 . S
C4346 C4345 1.397 . S
C4346 C4347 1.334 . S
C4347 H4324 0.950 . S
C4347 C4346 1.334 . S
C4347 C4348 1.287 . S
C4348 C4347 1.287 . S
C4348 C4349 1.524 . S
C4348 H4367 0.913 . S
C4349 H4325 0.950 . S
C4349 C4348 1.524 . S
C4349 C4350 1.415 . S
C4350 H4326 0.950 . S
C4350 C4345 1.363 . S
C4350 C4349 1.415 . S
C4351 H4327 0.951 . S
C4351 C4352 1.366 . S
C4351 C4353 1.388 . S
C4352 C4351 1.366 . S
C4352 C4356 1.385 . S
C4353 H4328 0.951 . S
C4353 C4351 1.388 . S
C4353 C4354 1.366 . S
C4354 C4353 1.366 . S
C4354 C4355 1.414 . S
C4354 C4357 1.499 . S
C4355 H4329 0.950 . S
C4355 C4354 1.414 . S
C4355 C4356 1.374 . S
C4356 H4330 0.950 . S
C4356 C4352 1.385 . S
C4356 C4355 1.374 . S
C4357 C4354 1.499 . S
C4357 C4358 1.373 . S
C4357 C4359 1.389 . S
C4358 H4331 0.950 . S
C4358 C4344 1.377 . S
C4358 C4357 1.373 . S
C4359 C4343 1.377 . S
C4359 C4357 1.389 . S
C4359 C4360 1.524 . S
C4360 C4359 1.524 . S
C4360 C4361 1.397 . S
C4360 C4365 1.363 . S
C4361 H4332 0.950 . S
C4361 C4360 1.397 . S
C4361 C4362 1.334 . S
C4362 H4333 0.950 . S
C4362 C4361 1.334 . S
C4362 C4363 1.287 . S
C4363 C4362 1.287 . S
C4363 C4364 1.524 . S
C4363 H4366 0.999 . S
C4364 H4334 0.950 . S
C4364 C4363 1.524 . S
C4364 C4365 1.415 . S
C4365 H4335 0.950 . S
C4365 C4360 1.363 . S
C4365 C4364 1.415 . S
H4366 C4363 0.999 . S
H4367 C4348 0.913 . S
C802 C498 1.467 . S
C787 C439 1.531 . S
C837 C401 1.774 . S
C852 C492 1.698 . S
C902 C460 1.837 . S
C887 C382 1.929 . S
C937 C420 1.749 . S
C952 C474 1.644 . S
C1002 C512 2.075 . S
C987 C306 2.209 . S
C1052 C599 1.689 . S
C1037 C325 1.712 . S
C1087 C344 2.230 . S
C1102 C526 2.144 . S
C1152 C594 1.443 . S
C1137 C363 1.463 . S
C1187 C230 2.428 . S
C1202 C550 2.312 . S
C1252 C605 1.761 . S
C1237 C249 1.795 . S
C1287 C268 2.338 . S
C1302 C544 2.264 . S
C1337 C287 1.224 . S
C1352 C590 1.197 . S
C1402 C646 1.287 . S
C1387 C211 1.310 . S
C1437 C173 1.974 . S
C1452 C657 1.940 . S
C1487 C154 1.606 . S
C1502 C642 1.586 . S
C1552 C651 1.813 . S
C1537 C192 1.835 . S
C1587 C78 1.647 . S
C1602 C696 1.588 . S
C1637 C97 0.811 . S
C1652 C755 0.808 . S
C1687 C116 1.767 . S
C1702 C712 1.660 . S
C1737 C135 1.442 . S
C1752 C750 1.418 . S
C1802 C714 1.919 . S
C1787 C2 2.014 . S
C1852 C761 0.720 . S
C1837 C21 0.717 . S
C1887 C40 1.778 . S
C1902 C690 1.679 . S
C1952 C746 1.044 . S
C1937 C59 1.070 . S
C2002 C482 1.698 . S
C1987 C6 1.752 . S
C2037 C30 1.045 . S
C2052 C486 1.043 . S
C2087 C49 1.267 . S
C2102 C506 1.206 . S
C2137 C68 0.577 1_545 S
C2152 C501 0.570 . S
C2187 C82 1.795 . S
C2202 C504 1.732 . S
C2252 C490 0.915 . S
C2237 C106 0.913 . S
C2287 C125 1.185 . S
C2302 C488 1.147 . S
C2352 C495 1.391 . S
C2337 C139 1.413 . S
C2402 C558 1.632 . S
C2387 C63 1.700 . S
C2437 C11 1.566 . S
C2452 C608 1.539 . S
C2502 C556 1.281 . S
C2487 C25 1.326 . S
C2552 C592 1.943 . S
C2537 C44 2.048 . S
C2587 C101 1.468 . S
C2602 C534 1.424 . S
C2652 C610 1.802 . S
C2637 C120 1.887 . S
C2702 C540 1.133 . S
C2687 C144 1.178 . S
C2752 C586 1.282 . S
C2737 C87 1.319 . S
C2802 C578 1.332 . S
C2787 C163 1.350 . S
C2837 C182 1.147 . S
C2852 C602 1.140 . S
C2902 C538 1.526 . S
C2887 C158 1.523 . S
C2952 C564 1.559 1_556 S
C2937 C196 1.613 . S
C2987 C220 0.793 1_554 S
C3002 C542 0.791 . S
C3037 C215 1.743 . S
C3052 C596 1.685 1_556 S
C3102 C553 1.810 . S
C3087 C177 1.809 . S
C3152 C547 1.190 . S
C3137 C201 1.160 . S
C3202 C630 2.069 . S
C3187 C234 2.155 . S
C3252 C662 1.307 . S
C3237 C258 1.329 . S
C3287 C277 1.616 . S
C3302 C616 1.586 . S
C3352 C660 0.779 . S
C3337 C296 0.781 . S
C3402 C648 2.024 . S
C3387 C310 2.088 . S
C3437 C334 1.107 . S
C3452 C644 1.105 . S
C3487 C353 1.586 . S
C3502 C654 1.604 . S
C3552 C638 1.525 . S
C3537 C367 1.601 . S
C3602 C703 1.494 . S
C3587 C291 1.494 . S
C3637 C239 1.317 . S
C3652 C764 1.305 . S
C3702 C698 1.110 . S
C3687 C253 1.099 . S
C3752 C748 1.702 . S
C3737 C272 1.743 . S
C3802 C694 1.266 . S
C3787 C329 1.268 . S
C3837 C348 1.503 . S
C3852 C766 1.476 . S
C3902 C709 1.000 . S
C3887 C372 1.010 . S
C3952 C742 0.987 . S
C3937 C315 1.000 . S
C4002 C734 1.466 . S
C3987 C391 1.487 . S
C4037 C410 1.592 . S
C4052 C758 1.536 . S
C4102 C700 1.743 . S
C4087 C386 1.790 . S
C4137 C424 2.169 . S
C4152 C720 2.043 . S
C4202 C682 1.119 . S
C4187 C448 1.156 . S
C4252 C752 1.807 . S
C4237 C443 1.884 . S
C4302 C668 1.753 . S
C4287 C405 1.822 . S
C4337 C429 1.108 . S
C4352 C706 1.067 . S
