# Generated by pormake.
# Topology eea, (3,6)-cn, num edge types: 1
# Building blocks:
#     Node 0, Type 0, BuildingBlock: BETDAH_clean_linker_0, # of connection points: 3
#     Node 1, Type 0, BuildingBlock: BETDAH_clean_linker_0, # of connection points: 3
#     Node 2, Type 0, BuildingBlock: BETDAH_clean_linker_0, # of connection points: 3
#     Node 3, Type 0, BuildingBlock: BETDAH_clean_linker_0, # of connection points: 3
#     Node 4, Type 0, BuildingBlock: BETDAH_clean_linker_0, # of connection points: 3
#     Node 5, Type 0, BuildingBlock: BETDAH_clean_linker_0, # of connection points: 3
#     Node 6, Type 0, BuildingBlock: BETDAH_clean_linker_0, # of connection points: 3
#     Node 7, Type 0, BuildingBlock: BETDAH_clean_linker_0, # of connection points: 3
#     Node 8, Type 0, BuildingBlock: BETDAH_clean_linker_0, # of connection points: 3
#     Node 9, Type 0, BuildingBlock: BETDAH_clean_linker_0, # of connection points: 3
#     Node 10, Type 0, BuildingBlock: BETDAH_clean_linker_0, # of connection points: 3
#     Node 11, Type 0, BuildingBlock: BETDAH_clean_linker_0, # of connection points: 3
#     Node 12, Type 0, BuildingBlock: BETDAH_clean_linker_0, # of connection points: 3
#     Node 13, Type 0, BuildingBlock: BETDAH_clean_linker_0, # of connection points: 3
#     Node 14, Type 0, BuildingBlock: BETDAH_clean_linker_0, # of connection points: 3
#     Node 15, Type 0, BuildingBlock: BETDAH_clean_linker_0, # of connection points: 3
#     Node 16, Type 0, BuildingBlock: BETDAH_clean_linker_0, # of connection points: 3
#     Node 17, Type 0, BuildingBlock: BETDAH_clean_linker_0, # of connection points: 3
#     Node 18, Type 1, BuildingBlock: CUKXOW_clean_sbu_0, # of connection points: 6
#     Node 19, Type 1, BuildingBlock: CUKXOW_clean_sbu_0, # of connection points: 6
#     Node 20, Type 1, BuildingBlock: CUKXOW_clean_sbu_0, # of connection points: 6
#     Node 21, Type 1, BuildingBlock: CUKXOW_clean_sbu_0, # of connection points: 6
#     Node 22, Type 1, BuildingBlock: CUKXOW_clean_sbu_0, # of connection points: 6
#     Node 23, Type 1, BuildingBlock: CUKXOW_clean_sbu_0, # of connection points: 6
#     Node 24, Type 1, BuildingBlock: CUKXOW_clean_sbu_0, # of connection points: 6
#     Node 25, Type 1, BuildingBlock: CUKXOW_clean_sbu_0, # of connection points: 6
#     Node 26, Type 1, BuildingBlock: CUKXOW_clean_sbu_0, # of connection points: 6
#     Edge 27, Type (0, 1), None
#     Edge 28, Type (0, 1), None
#     Edge 29, Type (0, 1), None
#     Edge 30, Type (0, 1), None
#     Edge 31, Type (0, 1), None
#     Edge 32, Type (0, 1), None
#     Edge 33, Type (0, 1), None
#     Edge 34, Type (0, 1), None
#     Edge 35, Type (0, 1), None
#     Edge 36, Type (0, 1), None
#     Edge 37, Type (0, 1), None
#     Edge 38, Type (0, 1), None
#     Edge 39, Type (0, 1), None
#     Edge 40, Type (0, 1), None
#     Edge 41, Type (0, 1), None
#     Edge 42, Type (0, 1), None
#     Edge 43, Type (0, 1), None
#     Edge 44, Type (0, 1), None
#     Edge 45, Type (0, 1), None
#     Edge 46, Type (0, 1), None
#     Edge 47, Type (0, 1), None
#     Edge 48, Type (0, 1), None
#     Edge 49, Type (0, 1), None
#     Edge 50, Type (0, 1), None
#     Edge 51, Type (0, 1), None
#     Edge 52, Type (0, 1), None
#     Edge 53, Type (0, 1), None
#     Edge 54, Type (0, 1), None
#     Edge 55, Type (0, 1), None
#     Edge 56, Type (0, 1), None
#     Edge 57, Type (0, 1), None
#     Edge 58, Type (0, 1), None
#     Edge 59, Type (0, 1), None
#     Edge 60, Type (0, 1), None
#     Edge 61, Type (0, 1), None
#     Edge 62, Type (0, 1), None
#     Edge 63, Type (0, 1), None
#     Edge 64, Type (0, 1), None
#     Edge 65, Type (0, 1), None
#     Edge 66, Type (0, 1), None
#     Edge 67, Type (0, 1), None
#     Edge 68, Type (0, 1), None
#     Edge 69, Type (0, 1), None
#     Edge 70, Type (0, 1), None
#     Edge 71, Type (0, 1), None
#     Edge 72, Type (0, 1), None
#     Edge 73, Type (0, 1), None
#     Edge 74, Type (0, 1), None
#     Edge 75, Type (0, 1), None
#     Edge 76, Type (0, 1), None
#     Edge 77, Type (0, 1), None
#     Edge 78, Type (0, 1), None
#     Edge 79, Type (0, 1), None
#     Edge 80, Type (0, 1), None
# Relax obj value: 0.036
# Max RMSD: 0.179
# Mean RMSD: 0.082
data_MOF--net-eea--node1-CUKXOW_clean_sbu_0--node2-BETDAH_clean_linker_0--edge1-none
_symmetry_space_group_name_H-M    P1
_symmetry_Int_Tables_number       1
_symmetry_cell_setting            triclinic
loop_
_symmetry_equiv_pos_as_xyz
'x, y, z'
_cell_length_a     28.846143
_cell_length_b     25.18406
_cell_length_c     19.083677
_cell_angle_alpha  93.331112
_cell_angle_beta   93.067544
_cell_angle_gamma 119.62524
loop_
_atom_site_label
_atom_site_type_symbol
_atom_site_fract_x
_atom_site_fract_y
_atom_site_fract_z
_atom_type_partial_charge
H0 H 0.30473 0.04564 0.49549 0.0
H1 H 0.30143 0.2141 0.52202 0.0
H2 H 0.2013 0.07558 0.35337 0.0
C3 C 0.28862 0.07418 0.47901 0.0
C4 C 0.24922 0.05278 0.42164 0.0
C5 C 0.30667 0.13115 0.51692 0.0
C6 C 0.28626 0.16873 0.49512 0.0
C7 C 0.24853 0.14875 0.43534 0.0
C8 C 0.22925 0.09019 0.4002 0.0
N9 N 0.24015 0.19105 0.39915 0.0
C10 C 0.21189 0.21961 0.4204 0.0
H11 H 0.94454 0.24369 0.51799 0.0
H12 H 0.79968 0.07097 0.46062 0.0
H13 H 0.93973 0.11647 0.35399 0.0
C14 C 0.92338 0.1995 0.48775 0.0
C15 C 0.94954 0.18364 0.43746 0.0
C16 C 0.86948 0.15846 0.49791 0.0
C17 C 0.84135 0.10269 0.45439 0.0
C18 C 0.86707 0.08853 0.40197 0.0
C19 C 0.92067 0.12858 0.3945 0.0
N20 N 0.84043 0.03546 0.35369 0.0
C21 C 0.79641 0.98102 0.36677 0.0
H22 H 0.7678 0.68835 0.51788 0.0
H23 H 0.9035 0.66283 0.53031 0.0
H24 H 0.88216 0.76087 0.36442 0.0
C25 C 0.80473 0.69608 0.49739 0.0
C26 C 0.82129 0.72749 0.43762 0.0
C27 C 0.83405 0.67385 0.53196 0.0
C28 C 0.88149 0.68251 0.50576 0.0
C29 C 0.89951 0.71467 0.44573 0.0
C30 C 0.86951 0.73793 0.41184 0.0
N31 N 0.94276 0.71437 0.41443 0.0
C32 C 0.98888 0.76627 0.39886 0.0
H33 H 0.08693 0.34249 0.56073 0.0
H34 H 0.23266 0.34078 0.62131 0.0
H35 H 0.10062 0.26077 0.74691 0.0
C36 C 0.10963 0.3293 0.59522 0.0
C37 C 0.08658 0.29736 0.65372 0.0
C38 C 0.16237 0.34472 0.5821 0.0
C39 C 0.19192 0.32896 0.62961 0.0
C40 C 0.16915 0.29889 0.68898 0.0
C41 C 0.11725 0.28392 0.70068 0.0
N42 N 0.19867 0.28716 0.74114 0.0
C43 C 0.21884 0.24807 0.72848 0.0
H44 H 0.71875 0.74251 0.56091 0.0
H45 H 0.76035 0.93329 0.57682 0.0
H46 H 0.8508 0.87635 0.70557 0.0
C47 C 0.74413 0.78945 0.58349 0.0
C48 C 0.7866 0.80374 0.63588 0.0
C49 C 0.73489 0.8365 0.56047 0.0
C50 C 0.76721 0.89698 0.5929 0.0
C51 C 0.80875 0.91101 0.64534 0.0
C52 C 0.81836 0.86464 0.6653 0.0
N53 N 0.8422 0.97096 0.67995 0.0
C54 C 0.83959 0.02349 0.66821 0.0
H55 H 0.27533 0.96487 0.56263 0.0
H56 H 0.12814 0.79409 0.54555 0.0
H57 H 0.16233 0.93163 0.71685 0.0
C58 C 0.23733 0.93557 0.58274 0.0
C59 C 0.22288 0.95625 0.64361 0.0
C60 C 0.20306 0.87829 0.54588 0.0
C61 C 0.15425 0.83957 0.57209 0.0
C62 C 0.13924 0.85851 0.63352 0.0
C63 C 0.17304 0.91768 0.66841 0.0
N64 N 0.09625 0.81322 0.6665 0.0
C65 C 0.04909 0.81268 0.68003 0.0
H66 H 0.95333 0.35751 0.82573 0.0
H67 H 0.9702 0.5341 0.87475 0.0
H68 H 0.86598 0.41657 0.69395 0.0
C69 C 0.94071 0.39046 0.81608 0.0
C70 C 0.90436 0.37852 0.75749 0.0
C71 C 0.9629 0.44471 0.86058 0.0
C72 C 0.94964 0.48952 0.84462 0.0
C73 C 0.91443 0.47959 0.78473 0.0
C74 C 0.89066 0.42312 0.74207 0.0
N75 N 0.91752 0.5316 0.75604 0.0
C76 C 0.88059 0.5517 0.75965 0.0
H77 H 0.61326 0.57427 0.84756 0.0
H78 H 0.4652 0.40582 0.78669 0.0
H79 H 0.60264 0.45042 0.67471 0.0
C80 C 0.5907 0.5313 0.81519 0.0
C81 C 0.61534 0.5159 0.76207 0.0
C82 C 0.53654 0.49128 0.82551 0.0
C83 C 0.50699 0.43678 0.78026 0.0
C84 C 0.53118 0.42295 0.72553 0.0
C85 C 0.58481 0.46219 0.71718 0.0
N86 N 0.5026 0.37096 0.67603 0.0
C87 C 0.46072 0.31568 0.69157 0.0
H88 H 0.42615 0.01862 0.83571 0.0
H89 H 0.56326 0.99689 0.86973 0.0
H90 H 0.54802 0.08673 0.69116 0.0
C91 C 0.46406 0.02556 0.81945 0.0
C92 C 0.48319 0.05458 0.75855 0.0
C93 C 0.49337 0.00686 0.86117 0.0
C94 C 0.5417 0.0146 0.83994 0.0
C95 C 0.56185 0.04365 0.77904 0.0
C96 C 0.53321 0.06531 0.73887 0.0
N97 N 0.60707 0.04267 0.7555 0.0
C98 C 0.64977 0.08986 0.72692 0.0
H99 H 0.75553 0.67652 0.88366 0.0
H100 H 0.90078 0.67316 0.94192 0.0
H101 H 0.77017 0.59529 0.07 0.0
C102 C 0.77828 0.66326 0.91798 0.0
C103 C 0.75572 0.63202 0.97702 0.0
C104 C 0.83052 0.67754 0.90382 0.0
C105 C 0.86032 0.66203 0.95104 0.0
C106 C 0.83818 0.63259 1.01085 0.0
C107 C 0.78647 0.61808 1.02346 0.0
N108 N 0.86846 0.62086 0.06184 0.0
C109 C 0.88131 0.575 0.05019 0.0
H110 H 0.39153 0.08447 0.89245 0.0
H111 H 0.43646 0.27637 0.91263 0.0
H112 H 0.51886 0.21267 0.04642 0.0
C113 C 0.41613 0.13063 0.91794 0.0
C114 C 0.45563 0.14256 0.97353 0.0
C115 C 0.40904 0.17909 0.89515 0.0
C116 C 0.4414 0.23893 0.92935 0.0
C117 C 0.48117 0.25071 0.98358 0.0
C118 C 0.48786 0.2027 1.0046 0.0
N119 N 0.51668 0.31004 1.01808 0.0
C120 C 0.51474 0.36351 1.01103 0.0
H121 H 0.94477 0.29115 0.90089 0.0
H122 H 0.78833 0.13138 0.87514 0.0
H123 H 0.83087 0.26875 0.04951 0.0
C124 C 0.90509 0.26529 0.91808 0.0
C125 C 0.89154 0.28842 0.97769 0.0
C126 C 0.86716 0.21086 0.87807 0.0
C127 C 0.81695 0.17537 0.9031 0.0
C128 C 0.80423 0.19537 0.96589 0.0
C129 C 0.84072 0.2532 1.00137 0.0
N130 N 0.7606 0.1524 1.00007 0.0
C131 C 0.71199 0.15101 1.00375 0.0
H132 H 0.61609 0.68896 0.1545 0.0
H133 H 0.63293 0.8656 0.20572 0.0
H134 H 0.53263 0.75137 1.02069 0.0
C135 C 0.60429 0.72265 0.14471 0.0
C136 C 0.56961 0.71218 0.08482 0.0
C137 C 0.62584 0.77629 0.19027 0.0
C138 C 0.61301 0.82155 0.17446 0.0
C139 C 0.57887 0.81263 0.11361 0.0
C140 C 0.55625 0.75704 0.06954 0.0
N141 N 0.582 0.86501 0.08576 0.0
C142 C 0.54482 0.88485 0.08922 0.0
H143 H 0.2808 0.91227 0.18471 0.0
H144 H 0.1338 0.74098 0.13073 0.0
H145 H 0.26925 0.78607 1.01433 0.0
C146 C 0.25839 0.86834 0.15411 0.0
C147 C 0.28235 0.85249 0.10063 0.0
C148 C 0.20499 0.8277 0.16674 0.0
C149 C 0.1752 0.77237 0.12278 0.0
C150 C 0.19882 0.75842 0.06735 0.0
C151 C 0.25189 0.79804 0.05725 0.0
N152 N 0.17032 0.70629 1.01821 0.0
C153 C 0.12893 0.65073 0.03353 0.0
H154 H 0.10492 0.36245 0.19476 0.0
H155 H 0.23606 0.32911 0.20851 0.0
H156 H 0.21846 0.42647 0.03899 0.0
C157 C 0.14121 0.36811 0.17417 0.0
C158 C 0.15824 0.3978 0.11326 0.0
C159 C 0.16904 0.34453 0.20954 0.0
C160 C 0.21528 0.34983 0.18308 0.0
C161 C 0.23386 0.38008 0.12205 0.0
C162 C 0.2055 0.40493 0.08716 0.0
N163 N 0.27655 0.37691 0.09258 0.0
C164 C 0.31869 0.42328 0.06191 0.0
H165 H 0.42064 0.00536 0.21976 0.0
H166 H 0.57013 0.01167 0.27837 0.0
H167 H 0.44138 0.93099 0.40872 0.0
C168 C 0.44477 0.99407 0.25407 0.0
C169 C 0.42359 0.96328 0.31423 0.0
C170 C 0.49757 0.01071 0.2392 0.0
C171 C 0.52924 0.99859 0.28746 0.0
C172 C 0.50859 0.97041 0.34851 0.0
C173 C 0.45637 0.95298 0.36128 0.0
N174 N 0.54073 0.96252 0.40042 0.0
C175 C 0.55627 0.91889 0.39044 0.0
H176 H 0.05207 0.41017 0.23407 0.0
H177 H 0.09338 0.60088 0.24714 0.0
H178 H 0.17958 0.54425 0.38405 0.0
C179 C 0.07676 0.45714 0.25696 0.0
C180 C 0.11774 0.47167 0.31191 0.0
C181 C 0.06819 0.5041 0.23187 0.0
C182 C 0.09968 0.56458 0.26468 0.0
C183 C 0.13953 0.57848 0.31965 0.0
C184 C 0.14836 0.53236 0.34181 0.0
N185 N 0.17209 0.6381 0.35502 0.0
C186 C 0.17132 0.69095 0.34022 0.0
H187 H 0.61294 0.62766 0.23814 0.0
H188 H 0.45778 0.47055 0.1891 0.0
H189 H 0.48473 0.60048 0.36553 0.0
C190 C 0.57179 0.60083 0.25014 0.0
C191 C 0.55347 0.62153 0.30698 0.0
C192 C 0.53673 0.54864 0.20498 0.0
C193 C 0.48443 0.51273 0.22164 0.0
C194 C 0.46547 0.52997 0.27973 0.0
C195 C 0.49941 0.58596 0.32156 0.0
N196 N 0.41252 0.48712 0.29329 0.0
C197 C 0.37744 0.49317 0.33576 0.0
Tb198 Tb 0.5566 0.06156 0.048 0.0
C199 C 0.5261 0.92754 0.07848 0.0
Tb200 Tb 0.43646 0.96485 0.0504 0.0
O201 O 0.57012 0.05943 0.16176 0.0
O202 O 0.4954 0.04006 0.11815 0.0
O203 O 0.56121 0.97879 0.05352 0.0
C204 C 0.33835 0.89209 0.08672 0.0
O205 O 0.47627 0.9144 0.08888 0.0
C206 C 0.4712 0.97831 0.92539 0.0
C207 C 0.46798 0.09553 0.99806 0.0
O208 O 0.36343 0.87605 0.04328 0.0
O209 O 0.36891 0.94902 0.11091 0.0
O210 O 0.42119 0.9566 0.93619 0.0
O211 O 0.49731 0.98422 0.98317 0.0
O212 O 0.42921 0.04342 1.0184 0.0
O213 O 0.51945 0.11119 1.00434 0.0
C214 C 0.65658 0.13132 1.01203 0.0
O215 O 0.6389 0.13946 0.07062 0.0
O216 O 0.61773 0.0847 0.97402 0.0
C217 C 0.52073 0.03995 0.17424 0.0
Tb218 Tb 0.96942 0.49053 0.05816 0.0
C219 C 0.08976 0.59156 0.04967 0.0
Tb220 Tb 0.05382 0.45137 0.03522 0.0
O221 O 1.00553 0.52785 0.16658 0.0
O222 O 1.01024 0.455 0.11924 0.0
O223 O 0.03903 0.57772 0.0423 0.0
C224 C 0.12266 0.41735 0.08012 0.0
O225 O 0.10511 0.55032 0.05605 0.0
C226 C 1.00299 0.45433 0.91914 0.0
C227 C 0.93131 0.34981 1.01245 0.0
O228 O 0.12879 0.44826 1.0255 0.0
O229 O 0.07848 0.40584 0.10598 0.0
O230 O 0.02732 0.42232 0.92315 0.0
O231 O 0.01446 0.48804 0.97617 0.0
O232 O 0.98166 0.36176 1.02115 0.0
O233 O 0.91699 0.39245 1.02226 0.0
C234 C 0.90175 0.53345 0.0458 0.0
O235 O 0.90634 0.50513 0.09825 0.0
O236 O 0.93374 0.53556 0.99978 0.0
C237 C 0.02613 0.49268 0.17383 0.0
Tb238 Tb 0.47162 0.51115 1.00469 0.0
C239 C 0.5185 0.42158 1.00145 0.0
Tb240 Tb 0.59635 0.56184 1.01334 0.0
O241 O 0.46028 0.47249 0.89402 0.0
O242 O 0.53362 0.54351 0.93631 0.0
O243 O 0.48115 0.43225 1.0248 0.0
C244 C 0.69964 0.6103 0.99063 0.0
O245 O 0.56352 0.465 0.98026 0.0
C246 C 0.55224 0.53711 0.1356 0.0
C247 C 0.55386 0.65599 0.03816 0.0
O248 O 0.67507 0.57152 0.03574 0.0
O249 O 0.66611 0.6228 0.95807 0.0
O250 O 0.59933 0.54489 0.126 0.0
O251 O 0.53799 0.55207 0.08062 0.0
O252 O 0.5949 0.64753 1.02505 0.0
O253 O 0.5029 0.61018 0.03453 0.0
C254 C 0.37286 0.46025 0.04442 0.0
O255 O 0.39 0.49891 0.99638 0.0
O256 O 0.41092 0.45152 0.06918 0.0
C257 C 0.51051 0.50503 0.88344 0.0
Tb258 Tb 0.22558 0.40079 0.39563 0.0
C259 C 0.19729 0.26645 0.42572 0.0
Tb260 Tb 0.10528 0.2985 0.39355 0.0
O261 O 0.23738 0.39925 0.50974 0.0
O262 O 0.16208 0.37526 0.462 0.0
O263 O 0.23198 0.31886 0.40214 0.0
C264 C 1.00625 0.22393 0.42644 0.0
O265 O 0.14696 0.25155 0.43546 0.0
C266 C 0.14566 0.31174 0.2711 0.0
C267 C 0.13247 0.42692 0.33868 0.0
O268 O 0.033 0.20868 0.38507 0.0
O269 O 0.03584 0.28098 0.45097 0.0
O270 O 0.09466 0.28627 0.27831 0.0
O271 O 0.1694 0.32177 0.33156 0.0
O272 O 0.09448 0.37318 0.35642 0.0
O273 O 0.18473 0.44615 0.34945 0.0
C274 C 0.32347 0.46957 0.3545 0.0
O275 O 0.30806 0.4807 0.41378 0.0
O276 O 0.28393 0.42173 0.31933 0.0
C277 C 0.18694 0.37642 0.51926 0.0
Tb278 Tb 0.63434 0.82366 0.38956 0.0
C279 C 0.75537 0.92197 0.38082 0.0
Tb280 Tb 0.71581 0.78122 0.36536 0.0
O281 O 0.67231 0.86145 0.49731 0.0
O282 O 0.6742 0.78685 0.45039 0.0
O283 O 0.70508 0.90957 0.37215 0.0
C284 C 0.78469 0.74598 0.40563 0.0
O285 O 0.76906 0.87952 0.38824 0.0
C286 C 0.66493 0.78459 0.24964 0.0
C287 C 0.59229 0.68199 0.3456 0.0
O288 O 0.79122 0.77973 0.35374 0.0
O289 O 0.7399 0.73207 0.43119 0.0
O290 O 0.68814 0.75145 0.25389 0.0
O291 O 0.67772 0.81943 0.30605 0.0
O292 O 0.64227 0.6929 0.35653 0.0
O293 O 0.57931 0.72595 0.35308 0.0
C294 C 0.57177 0.87315 0.38254 0.0
O295 O 0.57492 0.84271 0.43351 0.0
O296 O 0.60093 0.87216 0.33396 0.0
C297 C 0.69159 0.82506 0.50448 0.0
Tb298 Tb 0.14213 0.85 0.34632 0.0
C299 C 0.18046 0.75201 0.33663 0.0
Tb300 Tb 0.26463 0.88998 0.35652 0.0
O301 O 0.12977 0.81149 0.23574 0.0
O302 O 0.20467 0.87969 0.27909 0.0
O303 O 0.14501 0.76583 0.36063 0.0
C304 C 0.36735 0.93924 0.3294 0.0
O305 O 0.2278 0.7937 0.31931 0.0
C306 C 0.21633 0.86343 0.47625 0.0
C307 C 0.23185 0.99208 0.38458 0.0
O308 O 0.34465 0.90211 0.37701 0.0
O309 O 0.33223 0.94919 0.29704 0.0
O310 O 0.26125 0.86473 0.46674 0.0
O311 O 0.20696 0.88434 0.42297 0.0
O312 O 0.27071 0.97857 0.37878 0.0
O313 O 0.17935 0.95056 0.37311 0.0
C314 C 0.0439 0.80651 0.3869 0.0
O315 O 0.06074 0.83726 0.33205 0.0
O316 O 0.08235 0.80153 0.41819 0.0
C317 C 0.18022 0.84215 0.22561 0.0
Tb318 Tb 0.89243 0.7291 0.71577 0.0
C319 C 0.86211 0.59476 0.75081 0.0
Tb320 Tb 0.77143 0.62821 0.71596 0.0
O321 O 0.90472 0.72997 0.83022 0.0
O322 O 0.82947 0.70545 0.78269 0.0
O323 O 0.89736 0.64663 0.72678 0.0
C324 C 0.67212 0.55525 0.75011 0.0
O325 O 0.81168 0.58017 0.75914 0.0
C326 C 0.81116 0.63974 0.5929 0.0
C327 C 0.80084 0.75791 0.6608 0.0
O328 O 0.69757 0.53967 0.70675 0.0
O329 O 0.70313 0.61179 0.77571 0.0
O330 O 0.76026 0.61464 0.60084 0.0
O331 O 0.83511 0.64996 0.65319 0.0
O332 O 0.76269 0.70506 0.6807 0.0
O333 O 0.85286 0.77521 0.66777 0.0
C334 C 0.99338 0.79481 0.68214 0.0
O335 O 0.97369 0.81001 0.7344 0.0
O336 O 0.95569 0.74453 0.6481 0.0
C337 C 0.85452 0.70777 0.84019 0.0
Tb338 Tb 0.30255 0.15898 0.72674 0.0
C339 C 0.42055 0.2573 0.70888 0.0
Tb340 Tb 0.38588 0.12091 0.69358 0.0
O341 O 0.3449 0.20181 0.83182 0.0
O342 O 0.34995 0.12937 0.78465 0.0
O343 O 0.36985 0.2415 0.69512 0.0
C344 C 0.4487 0.07263 0.71933 0.0
O345 O 0.43554 0.21783 0.72638 0.0
C346 C 0.3428 0.1467 0.58215 0.0
C347 C 0.26265 0.01735 0.67958 0.0
O348 O 0.46421 0.12471 0.69337 0.0
O349 O 0.39823 0.04799 0.72739 0.0
O350 O 0.38708 0.14426 0.58308 0.0
O351 O 0.32357 0.12581 0.63814 0.0
O352 O 0.31351 0.03173 0.67656 0.0
O353 O 0.24805 0.0588 0.69857 0.0
C354 C 0.23842 0.20604 0.71889 0.0
O355 O 0.23695 0.16917 0.76511 0.0
O356 O 0.27353 0.21328 0.67535 0.0
C357 C 0.36793 0.16908 0.83709 0.0
Tb358 Tb 0.80339 0.17756 0.67554 0.0
C359 C 0.84662 0.08408 0.66633 0.0
Tb360 Tb 0.9261 0.22355 0.68667 0.0
O361 O 0.7925 0.13999 0.56452 0.0
O362 O 0.86588 0.21015 0.60835 0.0
O363 O 0.80995 0.0956 0.69077 0.0
C364 C 0.03018 0.27461 0.66649 0.0
O365 O 0.89298 0.12772 0.64874 0.0
C366 C 0.8788 0.19578 0.80727 0.0
C367 C 0.88756 0.32131 0.71192 0.0
O368 O 1.00617 0.23809 0.71389 0.0
O369 O 0.99563 0.28316 0.63029 0.0
O370 O 0.92387 0.19824 0.79636 0.0
O371 O 0.86789 0.21594 0.7542 0.0
O372 O 0.92767 0.31071 0.70093 0.0
O373 O 0.83594 0.27696 0.70558 0.0
C374 C 0.70445 0.12835 0.71306 0.0
O375 O 0.72196 0.16498 0.66311 0.0
O376 O 0.74245 0.12113 0.74157 0.0
C377 C 0.84284 0.17255 0.55469 0.0
loop_
_geom_bond_atom_site_label_1
_geom_bond_atom_site_label_2
_geom_bond_distance
_geom_bond_site_symmetry_2
_ccdc_geom_bond_type
H0 C3 0.929 . S
H1 C6 0.929 . S
H2 C8 0.930 . S
C3 H0 0.929 . S
C3 C4 1.398 . S
C3 C5 1.396 . S
C4 C3 1.398 . S
C4 C8 1.407 . S
C5 C3 1.396 . S
C5 C6 1.394 . S
C6 H1 0.929 . S
C6 C5 1.394 . S
C6 C7 1.382 . S
C7 C6 1.382 . S
C7 C8 1.392 . S
C7 N9 1.420 . S
C8 H2 0.930 . S
C8 C4 1.407 . S
C8 C7 1.392 . S
N9 C7 1.420 . S
N9 C10 1.244 . S
C10 N9 1.244 . S
H11 C14 0.929 . S
H12 C17 0.929 . S
H13 C19 0.930 . S
C14 H11 0.929 . S
C14 C15 1.398 . S
C14 C16 1.396 . S
C15 C14 1.398 . S
C15 C19 1.407 . S
C16 C14 1.396 . S
C16 C17 1.394 . S
C17 H12 0.929 . S
C17 C16 1.394 . S
C17 C18 1.382 . S
C18 C17 1.382 . S
C18 C19 1.392 . S
C18 N20 1.420 . S
C19 H13 0.930 . S
C19 C15 1.407 . S
C19 C18 1.392 . S
N20 C18 1.420 . S
N20 C21 1.244 1_545 S
C21 N20 1.244 1_565 S
H22 C25 0.929 . S
H23 C28 0.929 . S
H24 C30 0.930 . S
C25 H22 0.929 . S
C25 C26 1.398 . S
C25 C27 1.396 . S
C26 C25 1.398 . S
C26 C30 1.407 . S
C27 C25 1.396 . S
C27 C28 1.394 . S
C28 H23 0.929 . S
C28 C27 1.394 . S
C28 C29 1.382 . S
C29 C28 1.382 . S
C29 C30 1.392 . S
C29 N31 1.420 . S
C30 H24 0.930 . S
C30 C26 1.407 . S
C30 C29 1.392 . S
N31 C29 1.420 . S
N31 C32 1.244 . S
C32 N31 1.244 . S
H33 C36 0.929 . S
H34 C39 0.929 . S
H35 C41 0.930 . S
C36 H33 0.929 . S
C36 C37 1.398 . S
C36 C38 1.396 . S
C37 C36 1.398 . S
C37 C41 1.407 . S
C38 C36 1.396 . S
C38 C39 1.394 . S
C39 H34 0.929 . S
C39 C38 1.394 . S
C39 C40 1.382 . S
C40 C39 1.382 . S
C40 C41 1.392 . S
C40 N42 1.420 . S
C41 H35 0.930 . S
C41 C37 1.407 . S
C41 C40 1.392 . S
N42 C40 1.420 . S
N42 C43 1.244 . S
C43 N42 1.244 . S
H44 C47 0.929 . S
H45 C50 0.929 . S
H46 C52 0.930 . S
C47 H44 0.929 . S
C47 C48 1.398 . S
C47 C49 1.396 . S
C48 C47 1.398 . S
C48 C52 1.407 . S
C49 C47 1.396 . S
C49 C50 1.394 . S
C50 H45 0.929 . S
C50 C49 1.394 . S
C50 C51 1.382 . S
C51 C50 1.382 . S
C51 C52 1.392 . S
C51 N53 1.420 . S
C52 H46 0.930 . S
C52 C48 1.407 . S
C52 C51 1.392 . S
N53 C51 1.420 . S
N53 C54 1.244 1_565 S
C54 N53 1.244 1_545 S
H55 C58 0.929 . S
H56 C61 0.929 . S
H57 C63 0.930 . S
C58 H55 0.929 . S
C58 C59 1.398 . S
C58 C60 1.396 . S
C59 C58 1.398 . S
C59 C63 1.407 . S
C60 C58 1.396 . S
C60 C61 1.394 . S
C61 H56 0.929 . S
C61 C60 1.394 . S
C61 C62 1.382 . S
C62 C61 1.382 . S
C62 C63 1.392 . S
C62 N64 1.420 . S
C63 H57 0.930 . S
C63 C59 1.407 . S
C63 C62 1.392 . S
N64 C62 1.420 . S
N64 C65 1.244 . S
C65 N64 1.244 . S
H66 C69 0.929 . S
H67 C72 0.929 . S
H68 C74 0.930 . S
C69 H66 0.929 . S
C69 C70 1.398 . S
C69 C71 1.396 . S
C70 C69 1.398 . S
C70 C74 1.407 . S
C71 C69 1.396 . S
C71 C72 1.394 . S
C72 H67 0.929 . S
C72 C71 1.394 . S
C72 C73 1.382 . S
C73 C72 1.382 . S
C73 C74 1.392 . S
C73 N75 1.420 . S
C74 H68 0.930 . S
C74 C70 1.407 . S
C74 C73 1.392 . S
N75 C73 1.420 . S
N75 C76 1.244 . S
C76 N75 1.244 . S
H77 C80 0.929 . S
H78 C83 0.929 . S
H79 C85 0.930 . S
C80 H77 0.929 . S
C80 C81 1.398 . S
C80 C82 1.396 . S
C81 C80 1.398 . S
C81 C85 1.407 . S
C82 C80 1.396 . S
C82 C83 1.394 . S
C83 H78 0.929 . S
C83 C82 1.394 . S
C83 C84 1.382 . S
C84 C83 1.382 . S
C84 C85 1.392 . S
C84 N86 1.420 . S
C85 H79 0.930 . S
C85 C81 1.407 . S
C85 C84 1.392 . S
N86 C84 1.420 . S
N86 C87 1.244 . S
C87 N86 1.244 . S
H88 C91 0.929 . S
H89 C94 0.929 . S
H90 C96 0.930 . S
C91 H88 0.929 . S
C91 C92 1.398 . S
C91 C93 1.396 . S
C92 C91 1.398 . S
C92 C96 1.407 . S
C93 C91 1.396 . S
C93 C94 1.394 . S
C94 H89 0.929 . S
C94 C93 1.394 . S
C94 C95 1.382 . S
C95 C94 1.382 . S
C95 C96 1.392 . S
C95 N97 1.420 . S
C96 H90 0.930 . S
C96 C92 1.407 . S
C96 C95 1.392 . S
N97 C95 1.420 . S
N97 C98 1.244 . S
C98 N97 1.244 . S
H99 C102 0.929 . S
H100 C105 0.929 . S
H101 C107 0.930 1_554 S
C102 H99 0.929 . S
C102 C103 1.398 . S
C102 C104 1.396 . S
C103 C102 1.398 . S
C103 C107 1.407 . S
C104 C102 1.396 . S
C104 C105 1.394 . S
C105 H100 0.929 . S
C105 C104 1.394 . S
C105 C106 1.382 . S
C106 C105 1.382 . S
C106 C107 1.392 . S
C106 N108 1.420 . S
C107 H101 0.930 1_556 S
C107 C103 1.407 . S
C107 C106 1.392 . S
N108 C106 1.420 . S
N108 C109 1.244 . S
C109 N108 1.244 . S
H110 C113 0.929 . S
H111 C116 0.929 . S
H112 C118 0.930 1_554 S
C113 H110 0.929 . S
C113 C114 1.398 . S
C113 C115 1.396 . S
C114 C113 1.398 . S
C114 C118 1.407 . S
C115 C113 1.396 . S
C115 C116 1.394 . S
C116 H111 0.929 . S
C116 C115 1.394 . S
C116 C117 1.382 . S
C117 C116 1.382 . S
C117 C118 1.392 . S
C117 N119 1.420 1_556 S
C118 H112 0.930 1_556 S
C118 C114 1.407 . S
C118 C117 1.392 . S
N119 C117 1.420 1_554 S
N119 C120 1.244 1_554 S
C120 N119 1.244 1_556 S
H121 C124 0.929 . S
H122 C127 0.929 . S
H123 C129 0.930 1_554 S
C124 H121 0.929 . S
C124 C125 1.398 . S
C124 C126 1.396 . S
C125 C124 1.398 . S
C125 C129 1.407 . S
C126 C124 1.396 . S
C126 C127 1.394 . S
C127 H122 0.929 . S
C127 C126 1.394 . S
C127 C128 1.382 . S
C128 C127 1.382 . S
C128 C129 1.392 . S
C128 N130 1.420 . S
C129 H123 0.930 1_556 S
C129 C125 1.407 . S
C129 C128 1.392 . S
N130 C128 1.420 . S
N130 C131 1.244 . S
C131 N130 1.244 . S
H132 C135 0.929 . S
H133 C138 0.929 . S
H134 C140 0.930 1_556 S
C135 H132 0.929 . S
C135 C136 1.398 . S
C135 C137 1.396 . S
C136 C135 1.398 . S
C136 C140 1.407 . S
C137 C135 1.396 . S
C137 C138 1.394 . S
C138 H133 0.929 . S
C138 C137 1.394 . S
C138 C139 1.382 . S
C139 C138 1.382 . S
C139 C140 1.392 . S
C139 N141 1.420 . S
C140 H134 0.930 1_554 S
C140 C136 1.407 . S
C140 C139 1.392 . S
N141 C139 1.420 . S
N141 C142 1.244 . S
C142 N141 1.244 . S
H143 C146 0.929 . S
H144 C149 0.929 . S
H145 C151 0.930 1_556 S
C146 H143 0.929 . S
C146 C147 1.398 . S
C146 C148 1.396 . S
C147 C146 1.398 . S
C147 C151 1.407 . S
C148 C146 1.396 . S
C148 C149 1.394 . S
C149 H144 0.929 . S
C149 C148 1.394 . S
C149 C150 1.382 . S
C150 C149 1.382 . S
C150 C151 1.392 . S
C150 N152 1.420 . S
C151 H145 0.930 1_554 S
C151 C147 1.407 . S
C151 C150 1.392 . S
N152 C150 1.420 . S
N152 C153 1.244 . S
C153 N152 1.244 . S
H154 C157 0.929 . S
H155 C160 0.929 . S
H156 C162 0.930 . S
C157 H154 0.929 . S
C157 C158 1.398 . S
C157 C159 1.396 . S
C158 C157 1.398 . S
C158 C162 1.407 . S
C159 C157 1.396 . S
C159 C160 1.394 . S
C160 H155 0.929 . S
C160 C159 1.394 . S
C160 C161 1.382 . S
C161 C160 1.382 . S
C161 C162 1.392 . S
C161 N163 1.420 . S
C162 H156 0.930 . S
C162 C158 1.407 . S
C162 C161 1.392 . S
N163 C161 1.420 . S
N163 C164 1.244 . S
C164 N163 1.244 . S
H165 C168 0.929 . S
H166 C171 0.929 . S
H167 C173 0.930 . S
C168 H165 0.929 . S
C168 C169 1.398 . S
C168 C170 1.396 . S
C169 C168 1.398 . S
C169 C173 1.407 . S
C170 C168 1.396 . S
C170 C171 1.394 . S
C171 H166 0.929 . S
C171 C170 1.394 . S
C171 C172 1.382 . S
C172 C171 1.382 . S
C172 C173 1.392 . S
C172 N174 1.420 . S
C173 H167 0.930 . S
C173 C169 1.407 . S
C173 C172 1.392 . S
N174 C172 1.420 . S
N174 C175 1.244 . S
C175 N174 1.244 . S
H176 C179 0.929 . S
H177 C182 0.929 . S
H178 C184 0.930 . S
C179 H176 0.929 . S
C179 C180 1.398 . S
C179 C181 1.396 . S
C180 C179 1.398 . S
C180 C184 1.407 . S
C181 C179 1.396 . S
C181 C182 1.394 . S
C182 H177 0.929 . S
C182 C181 1.394 . S
C182 C183 1.382 . S
C183 C182 1.382 . S
C183 C184 1.392 . S
C183 N185 1.420 . S
C184 H178 0.930 . S
C184 C180 1.407 . S
C184 C183 1.392 . S
N185 C183 1.420 . S
N185 C186 1.244 . S
C186 N185 1.244 . S
H187 C190 0.929 . S
H188 C193 0.929 . S
H189 C195 0.930 . S
C190 H187 0.929 . S
C190 C191 1.398 . S
C190 C192 1.396 . S
C191 C190 1.398 . S
C191 C195 1.407 . S
C192 C190 1.396 . S
C192 C193 1.394 . S
C193 H188 0.929 . S
C193 C192 1.394 . S
C193 C194 1.382 . S
C194 C193 1.382 . S
C194 C195 1.392 . S
C194 N196 1.420 . S
C195 H189 0.930 . S
C195 C191 1.407 . S
C195 C194 1.392 . S
N196 C194 1.420 . S
N196 C197 1.244 . S
C197 N196 1.244 . S
Tb198 O201 2.453 . S
Tb198 O202 2.596 1_545 S
Tb198 O203 2.374 1_545 S
Tb198 O211 2.343 1_554 S
Tb198 O213 2.353 . S
Tb198 O215 2.427 . S
Tb198 O216 2.513 1_554 S
C199 O203 1.251 . S
C199 O205 1.263 1_554 S
Tb200 O202 2.343 1_556 S
Tb200 O205 2.353 . S
Tb200 O208 2.427 1_556 S
Tb200 O209 2.513 1_556 S
Tb200 O210 2.453 . S
Tb200 O211 2.596 1_565 S
Tb200 O212 2.374 1_565 S
O201 Tb198 2.453 . S
O201 C217 1.245 1_545 S
O202 Tb198 2.596 1_565 S
O202 Tb200 2.343 1_554 S
O202 C217 1.259 . S
O203 Tb198 2.374 1_565 S
O203 C199 1.251 . S
C204 O208 1.275 . S
C204 O209 1.246 . S
O205 C199 1.263 1_556 S
O205 Tb200 2.353 . S
C206 O210 1.245 1_545 S
C206 O211 1.259 . S
C207 O212 1.250 . S
C207 O213 1.263 1_556 S
O208 Tb200 2.427 1_554 S
O208 C204 1.275 . S
O209 Tb200 2.513 1_554 S
O209 C204 1.246 . S
O210 Tb200 2.453 . S
O210 C206 1.245 1_565 S
O211 Tb198 2.343 1_556 S
O211 Tb200 2.596 1_545 S
O211 C206 1.259 . S
O212 Tb200 2.374 1_545 S
O212 C207 1.250 . S
O213 Tb198 2.353 . S
O213 C207 1.263 1_554 S
C214 O215 1.275 1_556 S
C214 O216 1.246 . S
O215 Tb198 2.427 . S
O215 C214 1.275 1_554 S
O216 Tb198 2.513 1_556 S
O216 C214 1.246 . S
C217 O201 1.245 1_565 S
C217 O202 1.259 . S
Tb218 O221 2.453 . S
Tb218 O222 2.596 1_655 S
Tb218 O223 2.374 1_655 S
Tb218 O231 2.343 1_554 S
Tb218 O233 2.353 . S
Tb218 O235 2.427 1_554 S
Tb218 O236 2.513 1_554 S
C219 O223 1.251 . S
C219 O225 1.263 1_554 S
Tb220 O222 2.343 1_556 S
Tb220 O225 2.353 . S
Tb220 O228 2.427 1_556 S
Tb220 O229 2.513 1_556 S
Tb220 O230 2.453 . S
Tb220 O231 2.596 1_455 S
Tb220 O232 2.374 1_455 S
O221 Tb218 2.453 . S
O221 C237 1.245 1_655 S
O222 Tb218 2.596 1_455 S
O222 Tb220 2.343 1_554 S
O222 C237 1.259 . S
O223 Tb218 2.374 1_455 S
O223 C219 1.251 . S
C224 O228 1.275 . S
C224 O229 1.246 . S
O225 C219 1.263 1_556 S
O225 Tb220 2.353 . S
C226 O230 1.245 1_655 S
C226 O231 1.259 . S
C227 O232 1.250 . S
C227 O233 1.263 1_556 S
O228 Tb220 2.427 1_554 S
O228 C224 1.275 . S
O229 Tb220 2.513 1_554 S
O229 C224 1.246 . S
O230 Tb220 2.453 . S
O230 C226 1.245 1_455 S
O231 Tb218 2.343 1_556 S
O231 Tb220 2.596 1_655 S
O231 C226 1.259 . S
O232 Tb220 2.374 1_655 S
O232 C227 1.250 . S
O233 Tb218 2.353 . S
O233 C227 1.263 1_554 S
C234 O235 1.275 . S
C234 O236 1.246 . S
O235 Tb218 2.427 1_556 S
O235 C234 1.275 . S
O236 Tb218 2.513 1_556 S
O236 C234 1.246 . S
C237 O221 1.245 1_455 S
C237 O222 1.259 . S
Tb238 O241 2.453 . S
Tb238 O242 2.596 . S
Tb238 O243 2.374 . S
Tb238 O251 2.343 1_556 S
Tb238 O253 2.353 . S
Tb238 O255 2.427 1_556 S
Tb238 O256 2.513 1_556 S
C239 O243 1.251 . S
C239 O245 1.263 1_556 S
Tb240 O242 2.343 1_554 S
Tb240 O245 2.353 . S
Tb240 O248 2.427 1_554 S
Tb240 O249 2.513 1_554 S
Tb240 O250 2.453 . S
Tb240 O251 2.596 . S
Tb240 O252 2.374 . S
O241 Tb238 2.453 . S
O241 C257 1.245 . S
O242 Tb238 2.596 . S
O242 Tb240 2.343 1_556 S
O242 C257 1.259 . S
O243 Tb238 2.374 . S
O243 C239 1.251 . S
C244 O248 1.275 . S
C244 O249 1.246 . S
O245 C239 1.263 1_554 S
O245 Tb240 2.353 . S
C246 O250 1.245 . S
C246 O251 1.259 . S
C247 O252 1.250 . S
C247 O253 1.263 1_554 S
O248 Tb240 2.427 1_556 S
O248 C244 1.275 . S
O249 Tb240 2.513 1_556 S
O249 C244 1.246 . S
O250 Tb240 2.453 . S
O250 C246 1.245 . S
O251 Tb238 2.343 1_554 S
O251 Tb240 2.596 . S
O251 C246 1.259 . S
O252 Tb240 2.374 . S
O252 C247 1.250 . S
O253 Tb238 2.353 . S
O253 C247 1.263 1_556 S
C254 O255 1.275 . S
C254 O256 1.246 . S
O255 Tb238 2.427 1_554 S
O255 C254 1.275 . S
O256 Tb238 2.513 1_554 S
O256 C254 1.246 . S
C257 O241 1.245 . S
C257 O242 1.259 . S
Tb258 O261 2.453 . S
Tb258 O262 2.596 . S
Tb258 O263 2.374 . S
Tb258 O271 2.343 . S
Tb258 O273 2.353 . S
Tb258 O275 2.427 . S
Tb258 O276 2.513 . S
C259 O263 1.251 . S
C259 O265 1.263 . S
Tb260 O262 2.343 . S
Tb260 O265 2.353 . S
Tb260 O268 2.427 . S
Tb260 O269 2.513 . S
Tb260 O270 2.453 . S
Tb260 O271 2.596 . S
Tb260 O272 2.374 . S
O261 Tb258 2.453 . S
O261 C277 1.245 . S
O262 Tb258 2.596 . S
O262 Tb260 2.343 . S
O262 C277 1.259 . S
O263 Tb258 2.374 . S
O263 C259 1.251 . S
C264 O268 1.275 1_655 S
C264 O269 1.246 1_655 S
O265 C259 1.263 . S
O265 Tb260 2.353 . S
C266 O270 1.245 . S
C266 O271 1.259 . S
C267 O272 1.250 . S
C267 O273 1.263 . S
O268 Tb260 2.427 . S
O268 C264 1.275 1_455 S
O269 Tb260 2.513 . S
O269 C264 1.246 1_455 S
O270 Tb260 2.453 . S
O270 C266 1.245 . S
O271 Tb258 2.343 . S
O271 Tb260 2.596 . S
O271 C266 1.259 . S
O272 Tb260 2.374 . S
O272 C267 1.250 . S
O273 Tb258 2.353 . S
O273 C267 1.263 . S
C274 O275 1.275 . S
C274 O276 1.246 . S
O275 Tb258 2.427 . S
O275 C274 1.275 . S
O276 Tb258 2.513 . S
O276 C274 1.246 . S
C277 O261 1.245 . S
C277 O262 1.259 . S
Tb278 O281 2.453 . S
Tb278 O282 2.596 . S
Tb278 O283 2.374 . S
Tb278 O291 2.343 . S
Tb278 O293 2.353 . S
Tb278 O295 2.427 . S
Tb278 O296 2.513 . S
C279 O283 1.251 . S
C279 O285 1.263 . S
Tb280 O282 2.343 . S
Tb280 O285 2.353 . S
Tb280 O288 2.427 . S
Tb280 O289 2.513 . S
Tb280 O290 2.453 . S
Tb280 O291 2.596 . S
Tb280 O292 2.374 . S
O281 Tb278 2.453 . S
O281 C297 1.245 . S
O282 Tb278 2.596 . S
O282 Tb280 2.343 . S
O282 C297 1.259 . S
O283 Tb278 2.374 . S
O283 C279 1.251 . S
C284 O288 1.275 . S
C284 O289 1.246 . S
O285 C279 1.263 . S
O285 Tb280 2.353 . S
C286 O290 1.245 . S
C286 O291 1.259 . S
C287 O292 1.250 . S
C287 O293 1.263 . S
O288 Tb280 2.427 . S
O288 C284 1.275 . S
O289 Tb280 2.513 . S
O289 C284 1.246 . S
O290 Tb280 2.453 . S
O290 C286 1.245 . S
O291 Tb278 2.343 . S
O291 Tb280 2.596 . S
O291 C286 1.259 . S
O292 Tb280 2.374 . S
O292 C287 1.250 . S
O293 Tb278 2.353 . S
O293 C287 1.263 . S
C294 O295 1.275 . S
C294 O296 1.246 . S
O295 Tb278 2.427 . S
O295 C294 1.275 . S
O296 Tb278 2.513 . S
O296 C294 1.246 . S
C297 O281 1.245 . S
C297 O282 1.259 . S
Tb298 O301 2.453 . S
Tb298 O302 2.596 . S
Tb298 O303 2.374 . S
Tb298 O311 2.343 . S
Tb298 O313 2.353 . S
Tb298 O315 2.427 . S
Tb298 O316 2.513 . S
C299 O303 1.251 . S
C299 O305 1.263 . S
Tb300 O302 2.343 . S
Tb300 O305 2.353 . S
Tb300 O308 2.427 . S
Tb300 O309 2.513 . S
Tb300 O310 2.453 . S
Tb300 O311 2.596 . S
Tb300 O312 2.374 . S
O301 Tb298 2.453 . S
O301 C317 1.245 . S
O302 Tb298 2.596 . S
O302 Tb300 2.343 . S
O302 C317 1.259 . S
O303 Tb298 2.374 . S
O303 C299 1.251 . S
C304 O308 1.275 . S
C304 O309 1.246 . S
O305 C299 1.263 . S
O305 Tb300 2.353 . S
C306 O310 1.245 . S
C306 O311 1.259 . S
C307 O312 1.250 . S
C307 O313 1.263 . S
O308 Tb300 2.427 . S
O308 C304 1.275 . S
O309 Tb300 2.513 . S
O309 C304 1.246 . S
O310 Tb300 2.453 . S
O310 C306 1.245 . S
O311 Tb298 2.343 . S
O311 Tb300 2.596 . S
O311 C306 1.259 . S
O312 Tb300 2.374 . S
O312 C307 1.250 . S
O313 Tb298 2.353 . S
O313 C307 1.263 . S
C314 O315 1.275 . S
C314 O316 1.246 . S
O315 Tb298 2.427 . S
O315 C314 1.275 . S
O316 Tb298 2.513 . S
O316 C314 1.246 . S
C317 O301 1.245 . S
C317 O302 1.259 . S
Tb318 O321 2.453 . S
Tb318 O322 2.596 . S
Tb318 O323 2.374 . S
Tb318 O331 2.343 . S
Tb318 O333 2.353 . S
Tb318 O335 2.427 . S
Tb318 O336 2.513 . S
C319 O323 1.251 . S
C319 O325 1.263 . S
Tb320 O322 2.343 . S
Tb320 O325 2.353 . S
Tb320 O328 2.427 . S
Tb320 O329 2.513 . S
Tb320 O330 2.453 . S
Tb320 O331 2.596 . S
Tb320 O332 2.374 . S
O321 Tb318 2.453 . S
O321 C337 1.245 . S
O322 Tb318 2.596 . S
O322 Tb320 2.343 . S
O322 C337 1.259 . S
O323 Tb318 2.374 . S
O323 C319 1.251 . S
C324 O328 1.275 . S
C324 O329 1.246 . S
O325 C319 1.263 . S
O325 Tb320 2.353 . S
C326 O330 1.245 . S
C326 O331 1.259 . S
C327 O332 1.250 . S
C327 O333 1.263 . S
O328 Tb320 2.427 . S
O328 C324 1.275 . S
O329 Tb320 2.513 . S
O329 C324 1.246 . S
O330 Tb320 2.453 . S
O330 C326 1.245 . S
O331 Tb318 2.343 . S
O331 Tb320 2.596 . S
O331 C326 1.259 . S
O332 Tb320 2.374 . S
O332 C327 1.250 . S
O333 Tb318 2.353 . S
O333 C327 1.263 . S
C334 O335 1.275 . S
C334 O336 1.246 . S
O335 Tb318 2.427 . S
O335 C334 1.275 . S
O336 Tb318 2.513 . S
O336 C334 1.246 . S
C337 O321 1.245 . S
C337 O322 1.259 . S
Tb338 O341 2.453 . S
Tb338 O342 2.596 . S
Tb338 O343 2.374 . S
Tb338 O351 2.343 . S
Tb338 O353 2.353 . S
Tb338 O355 2.427 . S
Tb338 O356 2.513 . S
C339 O343 1.251 . S
C339 O345 1.263 . S
Tb340 O342 2.343 . S
Tb340 O345 2.353 . S
Tb340 O348 2.427 . S
Tb340 O349 2.513 . S
Tb340 O350 2.453 . S
Tb340 O351 2.596 . S
Tb340 O352 2.374 . S
O341 Tb338 2.453 . S
O341 C357 1.245 . S
O342 Tb338 2.596 . S
O342 Tb340 2.343 . S
O342 C357 1.259 . S
O343 Tb338 2.374 . S
O343 C339 1.251 . S
C344 O348 1.275 . S
C344 O349 1.246 . S
O345 C339 1.263 . S
O345 Tb340 2.353 . S
C346 O350 1.245 . S
C346 O351 1.259 . S
C347 O352 1.250 . S
C347 O353 1.263 . S
O348 Tb340 2.427 . S
O348 C344 1.275 . S
O349 Tb340 2.513 . S
O349 C344 1.246 . S
O350 Tb340 2.453 . S
O350 C346 1.245 . S
O351 Tb338 2.343 . S
O351 Tb340 2.596 . S
O351 C346 1.259 . S
O352 Tb340 2.374 . S
O352 C347 1.250 . S
O353 Tb338 2.353 . S
O353 C347 1.263 . S
C354 O355 1.275 . S
C354 O356 1.246 . S
O355 Tb338 2.427 . S
O355 C354 1.275 . S
O356 Tb338 2.513 . S
O356 C354 1.246 . S
C357 O341 1.245 . S
C357 O342 1.259 . S
Tb358 O361 2.453 . S
Tb358 O362 2.596 . S
Tb358 O363 2.374 . S
Tb358 O371 2.343 . S
Tb358 O373 2.353 . S
Tb358 O375 2.427 . S
Tb358 O376 2.513 . S
C359 O363 1.251 . S
C359 O365 1.263 . S
Tb360 O362 2.343 . S
Tb360 O365 2.353 . S
Tb360 O368 2.427 . S
Tb360 O369 2.517 . S
Tb360 O370 2.453 . S
Tb360 O371 2.596 . S
Tb360 O372 2.374 . S
O361 Tb358 2.453 . S
O361 C377 1.245 . S
O362 Tb358 2.596 . S
O362 Tb360 2.343 . S
O362 C377 1.259 . S
O363 Tb358 2.374 . S
O363 C359 1.251 . S
C364 O368 1.275 1_455 S
C364 O369 1.241 1_455 S
O365 C359 1.263 . S
O365 Tb360 2.353 . S
C366 O370 1.245 . S
C366 O371 1.259 . S
C367 O372 1.250 . S
C367 O373 1.263 . S
O368 Tb360 2.427 . S
O368 C364 1.275 1_655 S
O369 Tb360 2.517 . S
O369 C364 1.241 1_655 S
O370 Tb360 2.453 . S
O370 C366 1.245 . S
O371 Tb358 2.343 . S
O371 Tb360 2.596 . S
O371 C366 1.259 . S
O372 Tb360 2.374 . S
O372 C367 1.250 . S
O373 Tb358 2.353 . S
O373 C367 1.263 . S
C374 O375 1.275 . S
C374 O376 1.246 . S
O375 Tb358 2.427 . S
O375 C374 1.275 . S
O376 Tb358 2.513 . S
O376 C374 1.246 . S
C377 O361 1.245 . S
C377 O362 1.259 . S
C147 C204 1.604 . S
C158 C224 1.435 . S
C136 C247 1.523 . S
C125 C227 1.448 . S
C244 C103 1.514 . S
C114 C207 1.633 . S
C214 C131 1.660 . S
C234 C109 1.360 . S
C120 C239 1.510 . S
C153 C219 1.435 . S
C164 C254 1.536 . S
C199 C142 1.633 . S
C264 C15 1.604 . S
C26 C284 1.434 . S
C4 C307 1.523 1_545 S
C191 C287 1.448 . S
C169 C304 1.514 . S
C180 C267 1.633 . S
C197 C274 1.660 . S
C175 C294 1.360 . S
C299 C186 1.510 . S
C21 C279 1.435 . S
C314 C32 1.536 1_455 S
C10 C259 1.633 . S
C324 C81 1.604 . S
C92 C344 1.435 . S
C367 C70 1.523 . S
C347 C59 1.448 1_545 S
C364 C37 1.514 . S
C48 C327 1.633 . S
C65 C334 1.660 1_455 S
C43 C354 1.360 . S
C359 C54 1.510 . S
C87 C339 1.435 . S
C98 C374 1.536 . S
C76 C319 1.633 . S
C170 C217 1.390 . S
C237 C181 1.687 . S
C192 C246 1.431 . S
C71 C226 1.587 . S
C82 C257 1.566 . S
C206 C93 1.293 . S
C38 C277 1.390 . S
C49 C297 1.687 . S
C60 C306 1.431 . S
C137 C286 1.587 . S
C317 C148 1.566 . S
C159 C266 1.293 . S
C104 C337 1.390 . S
C115 C357 1.687 . S
C366 C126 1.431 . S
C5 C346 1.587 . S
C16 C377 1.566 . S
C27 C326 1.293 . S
