# Generated by pormake.
# Topology zzz, (3,6)-cn, num edge types: 1
# Building blocks:
#     Node 0, Type 0, BuildingBlock: KAKCAD_clean_linker_0, # of connection points: 3
#     Node 1, Type 0, BuildingBlock: KAKCAD_clean_linker_0, # of connection points: 3
#     Node 2, Type 0, BuildingBlock: KAKCAD_clean_linker_0, # of connection points: 3
#     Node 3, Type 0, BuildingBlock: KAKCAD_clean_linker_0, # of connection points: 3
#     Node 4, Type 0, BuildingBlock: KAKCAD_clean_linker_0, # of connection points: 3
#     Node 5, Type 0, BuildingBlock: KAKCAD_clean_linker_0, # of connection points: 3
#     Node 6, Type 0, BuildingBlock: KAKCAD_clean_linker_0, # of connection points: 3
#     Node 7, Type 0, BuildingBlock: KAKCAD_clean_linker_0, # of connection points: 3
#     Node 8, Type 1, BuildingBlock: KUMJIN_clean_sbu_0, # of connection points: 6
#     Node 9, Type 1, BuildingBlock: KUMJIN_clean_sbu_0, # of connection points: 6
#     Node 10, Type 1, BuildingBlock: KUMJIN_clean_sbu_0, # of connection points: 6
#     Node 11, Type 1, BuildingBlock: KUMJIN_clean_sbu_0, # of connection points: 6
#     Edge 12, Type (0, 1), BuildingBlock: UVAHIK_clean_linker_0, # of connection points: 2
#     Edge 13, Type (0, 1), BuildingBlock: UVAHIK_clean_linker_0, # of connection points: 2
#     Edge 14, Type (0, 1), BuildingBlock: UVAHIK_clean_linker_0, # of connection points: 2
#     Edge 15, Type (0, 1), BuildingBlock: UVAHIK_clean_linker_0, # of connection points: 2
#     Edge 16, Type (0, 1), BuildingBlock: UVAHIK_clean_linker_0, # of connection points: 2
#     Edge 17, Type (0, 1), BuildingBlock: UVAHIK_clean_linker_0, # of connection points: 2
#     Edge 18, Type (0, 1), BuildingBlock: UVAHIK_clean_linker_0, # of connection points: 2
#     Edge 19, Type (0, 1), BuildingBlock: UVAHIK_clean_linker_0, # of connection points: 2
#     Edge 20, Type (0, 1), BuildingBlock: UVAHIK_clean_linker_0, # of connection points: 2
#     Edge 21, Type (0, 1), BuildingBlock: UVAHIK_clean_linker_0, # of connection points: 2
#     Edge 22, Type (0, 1), BuildingBlock: UVAHIK_clean_linker_0, # of connection points: 2
#     Edge 23, Type (0, 1), BuildingBlock: UVAHIK_clean_linker_0, # of connection points: 2
#     Edge 24, Type (0, 1), BuildingBlock: UVAHIK_clean_linker_0, # of connection points: 2
#     Edge 25, Type (0, 1), BuildingBlock: UVAHIK_clean_linker_0, # of connection points: 2
#     Edge 26, Type (0, 1), BuildingBlock: UVAHIK_clean_linker_0, # of connection points: 2
#     Edge 27, Type (0, 1), BuildingBlock: UVAHIK_clean_linker_0, # of connection points: 2
#     Edge 28, Type (0, 1), BuildingBlock: UVAHIK_clean_linker_0, # of connection points: 2
#     Edge 29, Type (0, 1), BuildingBlock: UVAHIK_clean_linker_0, # of connection points: 2
#     Edge 30, Type (0, 1), BuildingBlock: UVAHIK_clean_linker_0, # of connection points: 2
#     Edge 31, Type (0, 1), BuildingBlock: UVAHIK_clean_linker_0, # of connection points: 2
#     Edge 32, Type (0, 1), BuildingBlock: UVAHIK_clean_linker_0, # of connection points: 2
#     Edge 33, Type (0, 1), BuildingBlock: UVAHIK_clean_linker_0, # of connection points: 2
#     Edge 34, Type (0, 1), BuildingBlock: UVAHIK_clean_linker_0, # of connection points: 2
#     Edge 35, Type (0, 1), BuildingBlock: UVAHIK_clean_linker_0, # of connection points: 2
# Relax obj value: 0.273
# Max RMSD: 0.226
# Mean RMSD: 0.210
data_MOF--net-zzz--node1-KUMJIN_clean_sbu_0--node2-KAKCAD_clean_linker_0--edge1-UVAHIK_clean_linker_0
_symmetry_space_group_name_H-M    P1
_symmetry_Int_Tables_number       1
_symmetry_cell_setting            triclinic
loop_
_symmetry_equiv_pos_as_xyz
'x, y, z'
_cell_length_a     71.687469
_cell_length_b     71.588776
_cell_length_c     24.916819
_cell_angle_alpha  90.221137
_cell_angle_beta   90.184024
_cell_angle_gamma 89.96913
loop_
_atom_site_label
_atom_site_type_symbol
_atom_site_fract_x
_atom_site_fract_y
_atom_site_fract_z
_atom_type_partial_charge
C0 C 0.78106 0.58929 0.9409 0.0
C1 C 0.79978 0.58356 0.93922 0.0
C2 C 0.76892 0.58184 0.97936 0.0
C3 C 0.77523 0.56822 0.01595 0.0
C4 C 0.79401 0.56254 0.01353 0.0
C5 C 0.80612 0.57024 0.97614 0.0
C6 C 0.76235 0.5591 0.05487 0.0
C7 C 0.74377 0.55511 0.04099 0.0
C8 C 0.73238 0.54434 0.07477 0.0
C9 C 0.73988 0.53712 0.12292 0.0
C10 C 0.75831 0.54158 0.13807 0.0
C11 C 0.76914 0.55285 0.10459 0.0
C12 C 0.76761 0.53359 0.18597 0.0
C13 C 0.77017 0.54462 0.23216 0.0
C14 C 0.77809 0.51715 0.18019 0.0
C15 C 0.79175 0.51244 0.21813 0.0
C16 C 0.79518 0.52406 0.26277 0.0
C17 C 0.71298 0.54026 0.05705 0.0
C18 C 0.70082 0.55507 0.04498 0.0
C19 C 0.70735 0.52192 0.04516 0.0
C20 C 0.69024 0.51855 0.0193 0.0
C21 C 0.67831 0.53345 0.00565 0.0
C22 C 0.68362 0.55171 0.02005 0.0
C23 C 0.7837 0.53979 0.27055 0.0
H24 H 0.77585 0.59948 0.91254 0.0
H25 H 0.75463 0.5867 0.98019 0.0
H26 H 0.79936 0.55166 0.03938 0.0
H27 H 0.82038 0.56522 0.97479 0.0
H28 H 0.73829 0.5596 1.00256 0.0
H29 H 0.78327 0.55621 0.1169 0.0
H30 H 0.73147 0.52824 0.14833 0.0
H31 H 0.76261 0.55763 0.23671 0.0
H32 H 0.77668 0.50867 0.14429 0.0
H33 H 0.80026 0.50016 0.21121 0.0
H34 H 0.70491 0.56936 0.05335 0.0
H35 H 0.71658 0.51028 0.05346 0.0
H36 H 0.78609 0.5491 0.30424 0.0
H37 H 0.67485 0.5635 0.00976 0.0
H38 H 0.68649 0.50432 0.00903 0.0
C39 C 0.92878 0.78526 0.9273 0.0
C40 C 0.93489 0.80365 0.91895 0.0
C41 C 0.93588 0.77479 0.97018 0.0
C42 C 0.94943 0.78243 0.00495 0.0
C43 C 0.95524 0.80096 0.99674 0.0
C44 C 0.94799 0.81144 0.95459 0.0
C45 C 0.95843 0.77101 0.04769 0.0
C46 C 0.96284 0.75217 0.03849 0.0
C47 C 0.97316 0.74184 0.07607 0.0
C48 C 0.97932 0.75062 0.12396 0.0
C49 C 0.97465 0.76951 0.13408 0.0
C50 C 0.96403 0.77934 0.0962 0.0
C51 C 0.9813 0.78014 0.18185 0.0
C52 C 0.97061 0.78067 0.22897 0.0
C53 C 0.99565 0.79329 0.17562 0.0
C54 C 0.99879 0.80715 0.21451 0.0
C55 C 0.98755 0.80836 0.26073 0.0
C56 C 0.97779 0.72217 0.06188 0.0
C57 C 0.96348 0.70879 0.05925 0.0
C58 C 0.99523 0.71774 0.03971 0.0
C59 C 0.99805 0.70058 0.01334 0.0
C60 C 0.98348 0.68743 0.0087 0.0
C61 C 0.96633 0.69158 0.03344 0.0
C62 C 0.97375 0.79455 0.26808 0.0
H63 H 0.91869 0.77893 0.90038 0.0
H64 H 0.9309 0.76065 0.97567 0.0
H65 H 0.96599 0.80722 0.02154 0.0
H66 H 0.95333 0.82542 0.94844 0.0
H67 H 0.95895 0.74562 1.0008 0.0
H68 H 0.96045 0.79378 0.1044 0.0
H69 H 0.98769 0.74294 0.15262 0.0
H70 H 0.95915 0.77099 0.23415 0.0
H71 H 0.00372 0.79354 0.13893 0.0
H72 H 0.00935 0.81757 0.20663 0.0
H73 H 0.94976 0.71205 0.07484 0.0
H74 H 0.00635 0.72798 0.04008 0.0
H75 H 0.96497 0.79477 0.30334 0.0
H76 H 0.95472 0.68196 0.0303 0.0
H77 H 0.0115 0.69782 0.9953 0.0
C78 C 0.72514 0.94882 0.93728 0.0
C79 C 0.70906 0.95997 0.93367 0.0
C80 C 0.73622 0.94929 0.9837 0.0
C81 C 0.73151 0.9611 0.02693 0.0
C82 C 0.71535 0.97214 0.02294 0.0
C83 C 0.70424 0.9715 0.97714 0.0
C84 C 0.7438 0.96303 0.07484 0.0
C85 C 0.76323 0.96361 0.06936 0.0
C86 C 0.77477 0.96838 0.11299 0.0
C87 C 0.76667 0.97271 0.16317 0.0
C88 C 0.74714 0.97165 0.16935 0.0
C89 C 0.73602 0.9664 0.12547 0.0
C90 C 0.73728 0.97749 0.21887 0.0
C91 C 0.73547 0.96518 0.26235 0.0
C92 C 0.72566 0.99327 0.21645 0.0
C93 C 0.7115 0.99591 0.2541 0.0
C94 C 0.70872 0.98291 0.29535 0.0
C95 C 0.795 0.97034 0.10233 0.0
C96 C 0.80526 0.95468 0.08537 0.0
C97 C 0.80286 0.98817 0.09665 0.0
C98 C 0.8201 0.99038 0.07102 0.0
C99 C 0.82987 0.97477 0.05098 0.0
C100 C 0.82258 0.95685 0.0604 0.0
C101 C 0.72135 0.96796 0.30065 0.0
H102 H 0.72914 0.93981 0.90424 0.0
H103 H 0.74851 0.94051 0.98557 0.0
H104 H 0.71154 0.98185 0.05449 0.0
H105 H 0.69218 0.9806 0.975 0.0
H106 H 0.76945 0.96145 0.0302 0.0
H107 H 0.72102 0.96564 0.13056 0.0
H108 H 0.77538 0.97716 0.19645 0.0
H109 H 0.74399 0.9527 0.26439 0.0
H110 H 0.72659 1.00279 0.18283 0.0
H111 H 0.70204 0.00759 0.24926 0.0
H112 H 0.7993 0.94082 0.08838 0.0
H113 H 0.79504 1.00047 0.10843 0.0
H114 H 0.71943 0.95769 0.33195 0.0
H115 H 0.82963 0.94456 0.0451 0.0
H116 H 0.82542 0.00436 0.06477 0.0
C117 C 0.52887 0.7142 0.23908 0.0
C118 C 0.53737 0.71535 0.28995 0.0
C119 C 0.53314 0.72716 0.19916 0.0
C120 C 0.54584 0.74169 0.20923 0.0
C121 C 0.5535 0.7436 0.26088 0.0
C122 C 0.54938 0.73049 0.30084 0.0
C123 C 0.55325 0.75271 0.16375 0.0
C124 C 0.55138 0.77226 0.16115 0.0
C125 C 0.55854 0.78209 0.11686 0.0
C126 C 0.56803 0.77225 0.07634 0.0
C127 C 0.56935 0.75267 0.07717 0.0
C128 C 0.56192 0.74311 0.1214 0.0
C129 C 0.5767 0.74206 0.02987 0.0
C130 C 0.57425 0.74888 0.97736 0.0
C131 C 0.58472 0.72426 0.03624 0.0
C132 C 0.58829 0.71288 0.99176 0.0
C133 C 0.58456 0.71921 0.93932 0.0
C134 C 0.55426 0.80215 0.10771 0.0
C135 C 0.53563 0.80821 0.10639 0.0
C136 C 0.56829 0.81431 0.08974 0.0
C137 C 0.56367 0.8315 0.06674 0.0
C138 C 0.5449 0.83686 0.06094 0.0
C139 C 0.53099 0.82538 0.08307 0.0
C140 C 0.57848 0.73777 0.93285 0.0
H141 H 0.51972 0.70267 0.22904 0.0
H142 H 0.52715 0.72534 0.1595 0.0
H143 H 0.56347 0.75459 0.2694 0.0
H144 H 0.55601 0.73187 0.33976 0.0
H145 H 0.54399 0.77968 0.19258 0.0
H146 H 0.56235 0.728 0.1227 0.0
H147 H 0.5736 0.77991 0.04262 0.0
H148 H 0.5681 0.76243 0.97001 0.0
H149 H 0.58757 0.71869 0.07574 0.0
H150 H 0.59295 0.69876 0.9992 0.0
H151 H 0.52452 0.79908 0.11956 0.0
H152 H 0.58277 0.80998 0.09032 0.0
H153 H 0.57612 0.74355 0.89336 0.0
H154 H 0.51641 0.82925 0.08 0.0
H155 H 0.57474 0.83994 0.05003 0.0
C156 C 0.22089 0.44052 0.22723 0.0
C157 C 0.2113 0.42383 0.21496 0.0
C158 C 0.23561 0.44659 0.19526 0.0
C159 C 0.24085 0.43633 0.14984 0.0
C160 C 0.23235 0.41905 0.13948 0.0
C161 C 0.21792 0.41269 0.1723 0.0
C162 C 0.25276 0.44519 0.10915 0.0
C163 C 0.27107 0.45041 0.12105 0.0
C164 C 0.28164 0.46076 0.08417 0.0
C165 C 0.27331 0.46648 0.03529 0.0
C166 C 0.25486 0.46091 0.02268 0.0
C167 C 0.2449 0.45018 0.05991 0.0
C168 C 0.24496 0.46641 0.97247 0.0
C169 C 0.24205 0.48529 0.95976 0.0
C170 C 0.23525 0.45274 0.94294 0.0
C171 C 0.22191 0.45775 0.9046 0.0
C172 C 0.21791 0.47666 0.89422 0.0
C173 C 0.30129 0.4651 0.09868 0.0
C174 C 0.3071 0.48352 0.10873 0.0
C175 C 0.31345 0.45036 0.1114 0.0
C176 C 0.33059 0.45383 0.13634 0.0
C177 C 0.33601 0.47214 0.14985 0.0
C178 C 0.32432 0.48702 0.13411 0.0
C179 C 0.22867 0.49036 0.92102 0.0
H180 H 0.21623 0.44974 0.25895 0.0
H181 H 0.2419 0.46007 0.20355 0.0
H182 H 0.23631 0.41091 0.10459 0.0
H183 H 0.21134 0.39951 0.16238 0.0
H184 H 0.27706 0.44657 0.15949 0.0
H185 H 0.2305 0.44643 0.05166 0.0
H186 H 0.28121 0.47473 0.00698 0.0
H187 H 0.2492 0.49614 0.98214 0.0
H188 H 0.23717 0.43806 0.95197 0.0
H189 H 0.21393 0.44671 0.88563 0.0
H190 H 0.29787 0.49511 0.09998 0.0
H191 H 0.30929 0.43602 0.10407 0.0
H192 H 0.22632 0.50506 0.91346 0.0
H193 H 0.32798 0.5013 0.14395 0.0
H194 H 0.33938 0.44204 0.14649 0.0
C195 C 0.07189 0.23269 0.25027 0.0
C196 C 0.08502 0.21918 0.23434 0.0
C197 C 0.06322 0.24407 0.21231 0.0
C198 C 0.06751 0.24225 0.15756 0.0
C199 C 0.08158 0.22966 0.14206 0.0
C200 C 0.09023 0.21822 0.18007 0.0
C201 C 0.05613 0.25219 0.11672 0.0
C202 C 0.05041 0.27065 0.12524 0.0
C203 C 0.03818 0.2796 0.0895 0.0
C204 C 0.03153 0.26972 0.04385 0.0
C205 C 0.0378 0.25125 0.03372 0.0
C206 C 0.04991 0.24274 0.07074 0.0
C207 C 0.03218 0.24 0.98565 0.0
C208 C 0.01346 0.2352 0.97599 0.0
C209 C 0.04608 0.2311 0.95508 0.0
C210 C 0.04158 0.21695 0.91836 0.0
C211 C 0.02297 0.21123 0.91067 0.0
C212 C 0.03295 0.29927 0.10239 0.0
C213 C 0.01508 0.30367 0.1217 0.0
C214 C 0.04714 0.31272 0.10735 0.0
C215 C 0.04391 0.32967 0.13395 0.0
C216 C 0.0264 0.33366 0.1567 0.0
C217 C 0.01181 0.32073 0.14843 0.0
C218 C 0.00891 0.22097 0.93894 0.0
H219 H 0.06732 0.23361 0.29159 0.0
H220 H 0.05232 0.25349 0.2256 0.0
H221 H 0.08546 0.2282 0.10028 0.0
H222 H 0.10046 0.20809 0.1667 0.0
H223 H 0.05537 0.27813 0.16045 0.0
H224 H 0.054 0.22831 0.0645 0.0
H225 H 0.02209 0.27647 0.01598 0.0
H226 H 0.00245 0.24165 0.99928 0.0
H227 H 0.06065 0.2344 0.96183 0.0
H228 H 0.05291 0.20982 0.89828 0.0
H229 H 0.004 0.29341 0.11947 0.0
H230 H 0.0611 0.30963 0.09334 0.0
H231 H 0.99438 0.21727 0.93359 0.0
H232 H 0.99816 0.32327 0.16547 0.0
H233 H 0.05538 0.3394 0.13841 0.0
C234 C 0.29285 0.08593 0.22686 0.0
C235 C 0.30442 0.10047 0.20866 0.0
C236 C 0.27959 0.07786 0.193 0.0
C237 C 0.27761 0.08397 0.13985 0.0
C238 C 0.28824 0.09927 0.12245 0.0
C239 C 0.30143 0.10753 0.15665 0.0
C240 C 0.26626 0.07279 0.1016 0.0
C241 C 0.24891 0.06568 0.11697 0.0
C242 C 0.23958 0.0523 0.08542 0.0
C243 C 0.24776 0.04618 0.03693 0.0
C244 C 0.2651 0.05356 0.02046 0.0
C245 C 0.27402 0.06698 0.05282 0.0
C246 C 0.27549 0.04621 0.9733 0.0
C247 C 0.28065 0.02729 0.97075 0.0
C248 C 0.28341 0.05873 0.93651 0.0
C249 C 0.29707 0.05276 0.90033 0.0
C250 C 0.30329 0.03412 0.90029 0.0
C251 C 0.22196 0.04424 0.10658 0.0
C252 C 0.22158 0.03751 0.15944 0.0
C253 C 0.20513 0.04542 0.07776 0.0
C254 C 0.18812 0.04091 0.10257 0.0
C255 C 0.18768 0.035 0.15652 0.0
C256 C 0.20473 0.03298 0.18406 0.0
C257 C 0.29447 0.02132 0.93475 0.0
H258 H 0.29486 0.07976 0.26604 0.0
H259 H 0.2718 0.06593 0.20741 0.0
H260 H 0.28684 0.10439 0.08178 0.0
H261 H 0.30979 0.11893 0.14152 0.0
H262 H 0.24284 0.07023 0.15464 0.0
H263 H 0.28781 0.07188 0.04187 0.0
H264 H 0.24097 0.03546 0.01307 0.0
H265 H 0.27495 0.01738 0.99904 0.0
H266 H 0.27978 0.07342 0.93788 0.0
H267 H 0.30359 0.06305 0.87476 0.0
H268 H 0.23435 0.03646 0.18262 0.0
H269 H 0.20503 0.05068 0.03706 0.0
H270 H 0.29872 0.00681 0.93526 0.0
H271 H 0.20507 0.02875 0.22572 0.0
H272 H 0.17531 0.04241 0.07988 0.0
C273 C 0.45666 0.28166 0.86288 0.0
C274 C 0.47298 0.29266 0.86402 0.0
C275 C 0.45172 0.2707 0.90706 0.0
C276 C 0.4632 0.27013 0.95264 0.0
C277 C 0.48014 0.27991 0.95245 0.0
C278 C 0.48497 0.29109 0.90873 0.0
C279 C 0.45583 0.26319 0.00412 0.0
C280 C 0.46158 0.2461 0.0262 0.0
C281 C 0.45612 0.24115 0.07859 0.0
C282 C 0.4452 0.25377 0.10864 0.0
C283 C 0.43961 0.27105 0.08725 0.0
C284 C 0.44451 0.27525 0.03413 0.0
C285 C 0.4305 0.28549 0.12187 0.0
C286 C 0.41845 0.2805 0.16407 0.0
C287 C 0.43502 0.30449 0.11539 0.0
C288 C 0.4282 0.31797 0.15073 0.0
C289 C 0.41698 0.31284 0.19427 0.0
C290 C 0.46231 0.22326 0.10343 0.0
C291 C 0.46168 0.20634 0.0746 0.0
C292 C 0.46812 0.2229 0.15738 0.0
C293 C 0.47257 0.20606 0.18243 0.0
C294 C 0.47154 0.18904 0.15418 0.0
C295 C 0.46621 0.18941 0.09972 0.0
C296 C 0.41195 0.29402 0.2003 0.0
H297 H 0.44727 0.2821 0.82882 0.0
H298 H 0.43845 0.26345 0.90677 0.0
H299 H 0.48899 0.27998 0.98779 0.0
H300 H 0.4975 0.29945 0.91183 0.0
H301 H 0.47069 0.23699 0.00333 0.0
H302 H 0.4402 0.28837 0.01639 0.0
H303 H 0.44151 0.25031 0.1495 0.0
H304 H 0.41434 0.2661 0.16993 0.0
H305 H 0.44462 0.30899 0.08462 0.0
H306 H 0.43266 0.33232 0.14579 0.0
H307 H 0.45722 0.20612 0.03304 0.0
H308 H 0.46909 0.23568 0.18061 0.0
H309 H 0.40331 0.28973 0.23366 0.0
H310 H 0.46549 0.17662 0.07648 0.0
H311 H 0.47639 0.20639 0.2245 0.0
Eu312 Eu 0.02207 0.00428 0.64351 0.0
C313 C 0.95425 0.98587 0.48945 0.0
C314 C 0.96824 0.96623 0.42153 0.0
C315 C 0.93567 0.96194 0.44475 0.0
C316 C 0.96966 0.98069 0.46014 0.0
C317 C 0.93692 0.97692 0.48107 0.0
C318 C 0.95132 0.95659 0.41503 0.0
C319 C 0.9229 0.99949 0.54075 0.0
N320 N 0.95588 1.00045 0.52379 0.0
C321 C 0.94034 0.00792 0.54735 0.0
C322 C 0.92123 0.9837 0.50813 0.0
Eu323 Eu 0.98607 0.01332 0.53847 0.0
N324 N 0.98582 0.9903 0.46771 0.0
C325 C 1.00065 0.98686 0.43437 0.0
C326 C 0.98372 0.9621 0.3898 0.0
C327 C 0.99988 0.97268 0.39569 0.0
H328 H 0.94155 0.02023 0.5724 0.0
H329 H 0.01187 0.96982 0.37069 0.0
H330 H 0.95008 0.94531 0.38613 0.0
H331 H 0.91078 0.0052 0.56074 0.0
H332 H 0.01352 0.99442 0.4375 0.0
H333 H 0.99084 0.03916 0.81964 0.0
H334 H 0.98322 0.95106 0.35997 0.0
H335 H 0.06779 0.00525 0.61192 0.0
H336 H 0.9934 0.01542 0.75046 0.0
H337 H 0.09499 0.02602 0.62267 0.0
H338 H 0.92255 0.95475 0.43827 0.0
H339 H 0.015 0.06351 0.82913 0.0
H340 H 0.04563 0.07653 0.79971 0.0
H341 H 0.90769 0.97722 0.50279 0.0
H342 H 0.07393 0.07327 0.74494 0.0
N343 N 0.01878 0.02601 0.71679 0.0
C344 C 0.00417 0.02579 0.75224 0.0
C345 C 0.01628 0.05301 0.79791 0.0
C346 C 0.03173 0.05262 0.76399 0.0
C347 C 0.00264 0.0393 0.79266 0.0
C348 C 0.03274 0.03862 0.72391 0.0
H349 H 0.0926 0.05432 0.67952 0.0
N350 N 0.04963 0.02238 0.65824 0.0
C351 C 0.08195 0.02944 0.64216 0.0
C352 C 0.04857 0.03688 0.6931 0.0
C353 C 0.06646 0.01779 0.63582 0.0
C354 C 0.08053 0.04538 0.67418 0.0
C355 C 0.06389 0.04897 0.70149 0.0
O356 O 0.0444 0.98526 0.66732 0.0
O357 O 0.00343 0.99187 0.58025 0.0
O358 O 0.97077 0.99939 0.60713 0.0
O359 O 0.99313 0.99735 0.67557 0.0
O360 O 0.03078 0.98257 0.58202 0.0
O361 O 0.01784 0.98399 0.70762 0.0
O362 O 0.96697 0.03533 0.51271 0.0
O363 O 0.00436 0.02562 0.60292 0.0
O364 O 0.03704 0.01639 0.57155 0.0
O365 O 0.01498 0.01667 0.50226 0.0
O366 O 0.97665 0.0338 0.60256 0.0
O367 O 0.9941 0.03331 0.47654 0.0
C368 C 0.0147 0.98033 0.55959 0.0
C369 C 0.03269 0.95536 0.68509 0.0
C370 C 0.01491 0.92763 0.65874 0.0
C371 C 0.01553 0.94651 0.67449 0.0
C372 C 0.03179 0.91785 0.65207 0.0
C373 C 0.04931 0.94525 0.6788 0.0
C374 C 0.04883 0.92664 0.66199 0.0
C375 C 0.97584 0.99574 0.65716 0.0
C376 C 0.03358 0.97548 0.69807 0.0
C377 C 0.06244 0.06368 0.73863 0.0
C378 C 0.04637 0.06549 0.76991 0.0
C379 C 0.99264 0.03634 0.6251 0.0
C380 C 0.98343 0.06355 0.50106 0.0
C381 C 1.00106 0.07156 0.49223 0.0
C382 C 0.0053 0.08956 0.51161 0.0
C383 C 0.99165 0.09945 0.54054 0.0
C384 C 0.96992 0.07389 0.52927 0.0
C385 C 0.9741 0.09164 0.54915 0.0
C386 C 0.0322 0.0185 0.5207 0.0
C387 C 0.97965 0.04395 0.48516 0.0
H388 H 0.00263 0.9543 0.67813 0.0
H389 H 0.03185 0.90322 0.64089 0.0
H390 H 0.06269 0.95184 0.68607 0.0
H391 H 0.06172 0.91895 0.6571 0.0
H392 H 0.01165 0.06368 0.47108 0.0
H393 H 0.99434 0.11343 0.55542 0.0
H394 H 0.95623 0.06812 0.53695 0.0
H395 H 0.96366 0.09942 0.57122 0.0
Eu396 Eu 0.50829 0.02428 0.63445 0.0
C397 C 0.52873 0.95507 0.50208 0.0
C398 C 0.54974 0.9682 0.43657 0.0
C399 C 0.55423 0.93629 0.4667 0.0
C400 C 0.53432 0.96998 0.47138 0.0
C401 C 0.53827 0.93785 0.49897 0.0
C402 C 0.55994 0.95146 0.43547 0.0
C403 C 0.51423 0.92436 0.5542 0.0
N404 N 0.51315 0.957 0.53213 0.0
C405 C 0.50519 0.94166 0.55533 0.0
C406 C 0.53106 0.92252 0.52668 0.0
Eu407 Eu 0.4988 0.98701 0.53558 0.0
N408 N 0.52419 0.98597 0.47381 0.0
C409 C 0.52814 1.00034 0.43965 0.0
C410 C 0.55422 0.98316 0.40316 0.0
C411 C 0.54319 0.99919 0.40417 0.0
H412 H 0.49203 0.94297 0.57606 0.0
H413 H 0.54636 0.01077 0.37793 0.0
H414 H 0.57199 0.94995 0.40965 0.0
H415 H 0.50816 0.91244 0.57423 0.0
H416 H 0.51995 0.01287 0.43941 0.0
H417 H 0.51322 0.0117 0.85076 0.0
H418 H 0.56595 0.98236 0.37594 0.0
H419 H 0.47506 0.04886 0.56719 0.0
H420 H 0.52429 0.01287 0.75721 0.0
H421 H 0.4453 0.06424 0.58429 0.0
H422 H 0.56188 0.92326 0.46432 0.0
H423 H 0.48166 0.02322 0.87328 0.0
H424 H 0.45219 0.03894 0.8432 0.0
H425 H 0.53798 0.90906 0.52538 0.0
H426 H 0.43406 0.05383 0.77115 0.0
N427 N 0.4987 0.02341 0.72602 0.0
C428 C 0.51027 0.01744 0.7663 0.0
C429 C 0.48635 0.02347 0.83199 0.0
C430 C 0.47513 0.03098 0.79143 0.0
C431 C 0.50414 0.01694 0.81945 0.0
C432 C 0.48188 0.03093 0.73822 0.0
H433 H 0.43163 0.06378 0.67518 0.0
N434 N 0.47881 0.03918 0.64731 0.0
C435 C 0.45255 0.05724 0.61665 0.0
C436 C 0.47175 0.03932 0.69781 0.0
C437 C 0.46958 0.04832 0.60707 0.0
C438 C 0.4449 0.05698 0.66795 0.0
C439 C 0.45449 0.04799 0.70936 0.0
O440 O 0.51669 0.05285 0.61417 0.0
O441 O 0.51981 0.00732 0.56636 0.0
O442 O 0.50992 0.97302 0.61143 0.0
O443 O 0.5101 0.99635 0.67789 0.0
O444 O 0.53643 0.0098 0.63424 0.0
O445 O 0.52853 0.03947 0.68347 0.0
O446 O 0.47601 0.96816 0.514 0.0
O447 O 0.48612 0.00778 0.59302 0.0
O448 O 0.50635 0.03755 0.55244 0.0
O449 O 0.49321 0.01509 0.49602 0.0
O450 O 0.4767 0.98026 0.59684 0.0
O451 O 0.48464 0.98927 0.45804 0.0
C452 C 0.53541 0.00291 0.58644 0.0
C453 C 0.54847 0.05898 0.63292 0.0
C454 C 0.58177 0.05218 0.62387 0.0
C455 C 0.5639 0.04725 0.64198 0.0
C456 C 0.58417 0.06921 0.597 0.0
C457 C 0.55112 0.07587 0.60569 0.0
C458 C 0.56889 0.08095 0.58794 0.0
C459 C 0.51165 0.97874 0.66191 0.0
C460 C 0.5296 0.05355 0.65088 0.0
C461 C 0.4474 0.04749 0.76178 0.0
C462 C 0.45768 0.03896 0.80273 0.0
C463 C 0.47499 0.9968 0.61655 0.0
C464 C 0.45229 0.98262 0.46447 0.0
C465 C 0.44717 1.00153 0.46061 0.0
C466 C 0.42832 0.00673 0.45664 0.0
C467 C 0.41455 0.99274 0.4582 0.0
C468 C 0.43834 0.96889 0.46554 0.0
C469 C 0.41957 0.97397 0.46277 0.0
C470 C 0.49883 0.03234 0.50632 0.0
C471 C 0.47196 0.97699 0.47014 0.0
H472 H 0.56211 0.03432 0.66375 0.0
H473 H 0.59778 0.07333 0.58246 0.0
H474 H 0.53944 0.08512 0.59807 0.0
H475 H 0.57082 0.09401 0.56691 0.0
H476 H 0.45778 0.01226 0.46099 0.0
H477 H 0.39991 0.99624 0.45438 0.0
H478 H 0.44199 0.95425 0.469 0.0
H479 H 0.40888 0.96331 0.46359 0.0
Eu480 Eu 0.53298 0.49639 0.53809 0.0
C481 C 0.44747 0.48547 0.58922 0.0
C482 C 0.43011 0.50113 0.51913 0.0
C483 C 0.41668 0.47419 0.56364 0.0
C484 C 0.44633 0.49935 0.55104 0.0
C485 C 0.43252 0.47295 0.59676 0.0
C486 C 0.41548 0.48826 0.5249 0.0
C487 C 0.44929 0.4599 0.67205 0.0
N488 N 0.46289 0.48469 0.62067 0.0
C489 C 0.4637 0.47266 0.66314 0.0
C490 C 0.43373 0.45987 0.63824 0.0
Eu491 Eu 0.48725 0.50605 0.60221 0.0
N492 N 0.46082 0.51144 0.5461 0.0
C493 C 0.45939 0.52632 0.51212 0.0
C494 C 0.42896 0.51592 0.48282 0.0
C495 C 0.44358 0.52869 0.47978 0.0
H496 H 0.47581 0.47255 0.68912 0.0
H497 H 0.44277 0.5403 0.4522 0.0
H498 H 0.40304 0.48928 0.50027 0.0
H499 H 0.45024 0.45006 0.70482 0.0
H500 H 0.47045 0.53631 0.50856 0.0
H501 H 0.5814 0.47494 0.69599 0.0
H502 H 0.41679 0.51773 0.45747 0.0
H503 H 0.54026 0.52573 0.43482 0.0
H504 H 0.55255 0.4737 0.64172 0.0
H505 H 0.56364 0.54885 0.40606 0.0
H506 H 0.40513 0.46459 0.56846 0.0
H507 H 0.60537 0.4988 0.6769 0.0
H508 H 0.6161 0.52563 0.62025 0.0
H509 H 0.42255 0.45 0.64525 0.0
H510 H 0.61124 0.54576 0.54159 0.0
N511 N 0.55983 0.49705 0.59359 0.0
C512 C 0.56287 0.48427 0.63328 0.0
C513 C 0.59267 0.49842 0.65321 0.0
C514 C 0.58982 0.51099 0.61108 0.0
C515 C 0.57922 0.48488 0.66399 0.0
C516 C 0.57315 0.50974 0.58099 0.0
H517 H 0.59187 0.55435 0.46122 0.0
N518 N 0.55484 0.51853 0.50637 0.0
C519 C 0.56573 0.54111 0.44281 0.0
C520 C 0.57056 0.52086 0.53622 0.0
C521 C 0.55253 0.52795 0.45918 0.0
C522 C 0.58163 0.54421 0.47413 0.0
C523 C 0.58435 0.53384 0.52104 0.0
O524 O 0.53743 0.48229 0.46107 0.0
O525 O 0.50214 0.4959 0.53024 0.0
O526 O 0.49012 0.47502 0.58578 0.0
O527 O 0.52239 0.47164 0.58759 0.0
O528 O 0.5165 0.50284 0.46155 0.0
O529 O 0.55022 0.47142 0.5333 0.0
O530 O 0.47598 0.51199 0.68142 0.0
O531 O 0.51811 0.50609 0.61145 0.0
O532 O 0.53077 0.52761 0.55032 0.0
O533 O 0.49838 0.5312 0.55476 0.0
O534 O 0.50335 0.4968 0.67674 0.0
O535 O 0.48149 0.53482 0.62682 0.0
C536 C 0.50016 0.5002 0.48162 0.0
C537 C 0.54018 0.4495 0.47051 0.0
C538 C 0.51521 0.42647 0.46329 0.0
C539 C 0.52107 0.44509 0.46999 0.0
C540 C 0.52879 0.4124 0.45699 0.0
C541 C 0.55344 0.4353 0.4642 0.0
C542 C 0.54774 0.41683 0.45742 0.0
C543 C 0.5053 0.46463 0.59103 0.0
C544 C 0.54657 0.46847 0.48286 0.0
C545 C 0.60056 0.53577 0.5524 0.0
C546 C 0.60331 0.52433 0.59722 0.0
C547 C 0.51975 0.50082 0.65939 0.0
C548 C 0.48977 0.53875 0.71891 0.0
C549 C 0.50382 0.55177 0.70647 0.0
C550 C 0.51557 0.55893 0.74696 0.0
C551 C 0.51332 0.55259 0.79996 0.0
C552 C 0.48765 0.53291 0.77229 0.0
C553 C 0.49946 0.53968 0.81237 0.0
C554 C 0.5155 0.538 0.54783 0.0
C555 C 0.47828 0.52996 0.67648 0.0
H556 H 0.51084 0.45606 0.47573 0.0
H557 H 0.52478 0.39798 0.4505 0.0
H558 H 0.56821 0.43848 0.46532 0.0
H559 H 0.55804 0.4059 0.45247 0.0
H560 H 0.50576 0.55622 0.66536 0.0
H561 H 0.52187 0.55805 0.8323 0.0
H562 H 0.47702 0.52282 0.78287 0.0
H563 H 0.49778 0.53501 0.85334 0.0
Eu564 Eu 0.01194 0.53023 0.55027 0.0
C565 C 0.02108 0.44794 0.62067 0.0
C566 C 0.00564 0.42914 0.55285 0.0
C567 C 0.03259 0.41674 0.60014 0.0
C568 C 0.00729 0.446 0.58213 0.0
C569 C 0.0336 0.43316 0.63104 0.0
C570 C 0.01863 0.41474 0.56113 0.0
C571 C 0.046 0.45113 0.70526 0.0
N572 N 0.02159 0.46387 0.65017 0.0
C573 C 0.03321 0.4653 0.69374 0.0
C574 C 0.0464 0.43508 0.67326 0.0
Eu575 Eu 1.00023 0.48781 0.62654 0.0
N576 N 0.99499 0.46023 0.57491 0.0
C577 C 0.97985 0.45782 0.54203 0.0
C578 C 0.99074 0.42708 0.51699 0.0
C579 C 0.97764 0.44137 0.51221 0.0
H580 H 0.033 0.47778 0.71836 0.0
H581 H 0.96587 0.43979 0.48528 0.0
H582 H 0.01771 0.40181 0.53849 0.0
H583 H 0.05556 0.45259 0.73873 0.0
H584 H 0.9695 0.46857 0.53735 0.0
H585 H 0.04353 0.57946 0.69489 0.0
H586 H 0.98903 0.41439 0.49363 0.0
H587 H 0.98533 0.54268 0.44506 0.0
H588 H 0.04226 0.55138 0.63945 0.0
H589 H 0.96288 0.56753 0.42083 0.0
H590 H 0.04221 0.40532 0.60711 0.0
H591 H 0.01897 0.6035 0.68705 0.0
H592 H 0.99056 0.61525 0.63921 0.0
H593 H 0.05626 0.42407 0.68239 0.0
H594 H 0.9683 0.61192 0.56455 0.0
N595 N 0.01604 0.55792 0.60304 0.0
C596 C 0.03094 0.5611 0.63636 0.0
C597 C 0.01809 0.59089 0.66296 0.0
C598 C 0.0038 0.58844 0.62533 0.0
C599 C 0.03195 0.57735 0.66753 0.0
C600 C 0.0033 0.57173 0.59496 0.0
H601 H 0.95816 0.5944 0.48208 0.0
N602 N 0.99199 0.55462 0.521 0.0
C603 C 0.97044 0.56828 0.45845 0.0
C604 C 0.99077 0.56992 0.55291 0.0
C605 C 0.98305 0.55421 0.47236 0.0
C606 C 0.96778 0.58338 0.49319 0.0
C607 C 0.97844 0.58466 0.54023 0.0
O608 O 0.02404 0.54822 0.48885 0.0
O609 O 0.01059 0.49913 0.54909 0.0
O610 O 0.03154 0.48986 0.61353 0.0
O611 O 0.03513 0.52199 0.60917 0.0
O612 O 1.00212 0.51246 0.47952 0.0
O613 O 0.03894 0.52371 0.51408 0.0
O614 O 0.99479 0.47928 0.7088 0.0
O615 O 0.99957 0.51923 0.62615 0.0
O616 O 0.98061 0.52632 0.54205 0.0
O617 O 0.97429 0.49717 0.58032 0.0
O618 O 0.00852 0.50668 0.69633 0.0
O619 O 0.97212 0.47983 0.65089 0.0
C620 C 0.00484 0.4964 0.50167 0.0
C621 C 0.03899 0.53034 0.42125 0.0
C622 C 0.05074 0.50785 0.35545 0.0
C623 C 0.05004 0.51473 0.40833 0.0
C624 C 0.04028 0.51684 0.31531 0.0
C625 C 0.02878 0.53921 0.38031 0.0
C626 C 0.02943 0.53244 0.32776 0.0
C627 C 0.04169 0.5051 0.62012 0.0
C628 C 0.03742 0.53659 0.47773 0.0
C629 C 0.97789 0.6006 0.57314 0.0
C630 C 0.99057 0.6025 0.61561 0.0
C631 C 0.00459 0.52238 0.67398 0.0
C632 C 0.96568 0.48881 0.7407 0.0
C633 C 0.95653 0.50552 0.7268 0.0
C634 C 0.94686 0.51585 0.76598 0.0
C635 C 0.94671 0.50936 0.81926 0.0
C636 C 0.96526 0.48258 0.79393 0.0
C637 C 0.95586 0.49286 0.833 0.0
C638 C 0.96927 0.51231 0.55341 0.0
C639 C 0.97683 0.47835 0.70142 0.0
H640 H 0.05822 0.50801 0.43943 0.0
H641 H 0.04043 0.51176 0.27431 0.0
H642 H 0.02011 0.55124 0.38888 0.0
H643 H 0.02142 0.53927 0.29659 0.0
H644 H 0.95706 0.51058 0.68588 0.0
H645 H 0.9391 0.5168 0.85016 0.0
H646 H 0.97241 0.46985 0.80535 0.0
H647 H 0.95557 0.48796 0.87404 0.0
C648 C 0.16825 0.01808 0.22506 0.0
C649 C 0.16971 0.03207 0.18573 0.0
C650 C 0.1525 0.01691 0.25786 0.0
C651 C 0.10315 0.03016 0.27285 0.0
H652 H 0.11406 0.02659 0.42494 0.0
C653 C 0.04477 0.0326 0.43558 0.0
C654 C 0.04735 0.02137 0.48116 0.0
C655 C 0.05919 0.03479 0.39807 0.0
C656 C 0.11066 0.02731 0.38264 0.0
H657 H 0.15506 0.05524 0.14867 0.0
H658 H 0.12732 0.05284 0.20522 0.0
H659 H 0.13951 0.02772 0.36088 0.0
H660 H 0.0665 1.00252 0.52073 0.0
H661 H 0.09137 0.00605 0.45595 0.0
H662 H 0.07424 0.02926 0.29451 0.0
C663 C 0.13854 0.04288 0.21071 0.0
C664 C 0.12532 0.02801 0.34586 0.0
C665 C 0.15443 0.04418 0.17813 0.0
C666 C 0.06439 0.01198 0.48757 0.0
C667 C 0.07866 0.01396 0.45 0.0
C668 C 0.0884 0.0292 0.30972 0.0
C669 C 0.13763 0.02954 0.25192 0.0
C670 C 0.12178 0.02927 0.29051 0.0
C671 C 0.0764 0.02552 0.40485 0.0
C672 C 0.09195 0.02756 0.3652 0.0
H673 H 0.17948 0.00819 0.23132 0.0
H674 H 0.15206 0.00622 0.28849 0.0
H675 H 0.09998 0.0311 0.23041 0.0
H676 H 0.03168 0.03981 0.42916 0.0
H677 H 0.05689 0.0439 0.36411 0.0
C678 C 0.4897 0.1701 0.22143 0.0
C679 C 0.47556 0.17107 0.18226 0.0
C680 C 0.4926 0.15377 0.25084 0.0
C681 C 0.46888 0.10989 0.29155 0.0
H682 H 0.51849 0.09708 0.34185 0.0
C683 C 0.48602 0.04337 0.41744 0.0
C684 C 0.49646 0.04686 0.46434 0.0
C685 C 0.48343 0.0574 0.37903 0.0
C686 C 0.50455 0.10051 0.32816 0.0
H687 H 0.45366 0.15523 0.14266 0.0
H688 H 0.45919 0.1265 0.19258 0.0
H689 H 0.5144 0.12316 0.2804 0.0
H690 H 0.51286 0.06783 0.50652 0.0
H691 H 0.50872 0.09198 0.43916 0.0
H692 H 0.45917 0.08699 0.33932 0.0
C693 C 0.46778 0.13857 0.20141 0.0
C694 C 0.50216 0.11552 0.2931 0.0
C695 C 0.46478 0.155 0.17217 0.0
C696 C 0.50462 0.06459 0.47119 0.0
C697 C 0.50234 0.07845 0.43242 0.0
C698 C 0.47132 0.0947 0.32618 0.0
C699 C 0.4816 0.13779 0.24163 0.0
C700 C 0.48425 0.1207 0.27514 0.0
C701 C 0.49166 0.07507 0.38606 0.0
C702 C 0.48914 0.09008 0.34564 0.0
H703 H 0.49849 0.18206 0.22982 0.0
H704 H 0.50322 0.1539 0.28184 0.0
H705 H 0.45485 0.11353 0.27922 0.0
H706 H 0.47978 0.02983 0.41037 0.0
H707 H 0.47523 0.05437 0.34348 0.0
C708 C 0.36506 0.49064 0.17368 0.0
C709 C 0.35315 0.4754 0.18313 0.0
C710 C 0.38109 0.49343 0.20533 0.0
C711 C 0.41332 0.46841 0.29842 0.0
H712 H 0.42812 0.51834 0.34153 0.0
C713 C 0.47123 0.48232 0.45727 0.0
C714 C 0.48331 0.49741 0.44817 0.0
C715 C 0.45565 0.47943 0.42413 0.0
C716 C 0.42432 0.50431 0.32934 0.0
H717 H 0.34854 0.45157 0.23503 0.0
H718 H 0.37624 0.4564 0.2897 0.0
H719 H 0.40049 0.51402 0.28534 0.0
H720 H 0.48935 0.52054 0.39548 0.0
H721 H 0.46205 0.5157 0.33783 0.0
H722 H 0.43709 0.45871 0.34259 0.0
C723 C 0.37353 0.46598 0.25705 0.0
C724 C 0.40845 0.50183 0.29702 0.0
C725 C 0.35758 0.46319 0.22551 0.0
C726 C 0.47997 0.50908 0.40407 0.0
C727 C 0.4643 0.50633 0.37124 0.0
C728 C 0.42916 0.4709 0.33076 0.0
C729 C 0.38558 0.48108 0.24736 0.0
C730 C 0.4027 0.48383 0.28113 0.0
C731 C 0.45183 0.49154 0.38105 0.0
C732 C 0.4349 0.48888 0.34665 0.0
H733 H 0.36219 0.50026 0.14125 0.0
H734 H 0.39011 0.50511 0.19624 0.0
H735 H 0.40956 0.45436 0.28637 0.0
H736 H 0.47382 0.47273 0.48994 0.0
H737 H 0.44636 0.46793 0.43307 0.0
C738 C 0.00763 0.36143 0.19026 0.0
C739 C 0.02396 0.35051 0.19202 0.0
C740 C 0.00556 0.37712 0.2239 0.0
C741 C 0.03309 0.41007 0.31134 0.0
H742 H 0.98441 0.42285 0.36792 0.0
C743 C 0.02194 0.46688 0.47686 0.0
C744 C 0.00683 0.4791 0.46927 0.0
C745 C 0.02423 0.45119 0.44344 0.0
C746 C 0.99809 0.41956 0.35213 0.0
H747 H 0.05061 0.34736 0.23239 0.0
H748 H 0.04694 0.37429 0.29106 0.0
H749 H 0.98777 0.39571 0.30923 0.0
H750 H 0.98285 0.48508 0.41932 0.0
H751 H 0.98656 0.45756 0.36171 0.0
H752 H 0.04338 0.43384 0.3551 0.0
C753 C 0.03591 0.37118 0.26265 0.0
C754 C 1.00003 0.40399 0.31818 0.0
C755 C 0.03802 0.35563 0.22885 0.0
C756 C 0.99438 0.47563 0.42678 0.0
C757 C 0.99649 0.45985 0.3939 0.0
C758 C 0.03116 0.42555 0.34565 0.0
C759 C 0.01968 0.38227 0.2607 0.0
C760 C 0.01756 0.39899 0.29702 0.0
C761 C 0.01143 0.44738 0.40176 0.0
C762 C 0.01362 0.43057 0.36632 0.0
H763 H 0.99655 0.35802 0.16226 0.0
H764 H 0.99296 0.38536 0.2204 0.0
H765 H 0.04678 0.407 0.29536 0.0
H766 H 0.03207 0.46954 0.50834 0.0
H767 H 0.03589 0.44191 0.45069 0.0
C768 C 0.84583 0.99027 0.97341 0.0
C769 C 0.84638 0.97716 0.01531 0.0
C770 C 0.86034 0.99129 0.9361 0.0
C771 C 0.90975 0.98012 0.91246 0.0
H772 H 0.89537 0.98146 0.76241 0.0
C773 C 0.96492 0.97982 0.74143 0.0
C774 C 0.96105 0.99097 0.69639 0.0
C775 C 0.95119 0.97663 0.78043 0.0
C776 C 0.89971 0.98135 0.80406 0.0
H777 H 0.86297 0.95528 0.05175 0.0
H778 H 0.88854 0.9573 0.98687 0.0
H779 H 0.87144 0.97981 0.83123 0.0
H780 H 0.93992 0.00805 0.65852 0.0
H781 H 0.91626 1.00279 0.7257 0.0
H782 H 0.93802 0.98224 0.88549 0.0
C783 C 0.87678 0.9667 0.98289 0.0
C784 C 0.88593 0.98034 0.84357 0.0
C785 C 0.86211 0.96549 0.01988 0.0
C786 C 0.94319 0.99883 0.69137 0.0
C787 C 0.92957 0.99584 0.73038 0.0
C788 C 0.92358 0.98138 0.87288 0.0
C789 C 0.87589 0.97938 0.93997 0.0
C790 C 0.89075 0.97989 0.89825 0.0
C791 C 0.93333 0.98474 0.77566 0.0
C792 C 0.91875 0.98221 0.81804 0.0
H793 H 0.83384 0.9993 0.96825 0.0
H794 H 0.85932 1.00134 0.90384 0.0
H795 H 0.9139 0.97987 0.95428 0.0
H796 H 0.97859 0.97361 0.74661 0.0
H797 H 0.95461 0.96782 0.81427 0.0
C798 C 0.52553 0.85131 0.98804 0.0
C799 C 0.53987 0.85307 0.0264 0.0
C800 C 0.52215 0.8655 0.95088 0.0
C801 C 0.5299 0.91542 0.92183 0.0
H802 H 0.52396 0.89958 0.77376 0.0
C803 C 0.5276 0.96834 0.74626 0.0
C804 C 0.51537 0.96452 0.70351 0.0
C805 C 0.53074 0.95505 0.78638 0.0
C806 C 0.52531 0.90429 0.81493 0.0
H807 H 0.56138 0.87155 0.05704 0.0
H808 H 0.5554 0.89644 0.99208 0.0
H809 H 0.52842 0.8763 0.84354 0.0
H810 H 0.49641 0.94404 0.67005 0.0
H811 H 0.50168 0.92089 0.7398 0.0
H812 H 0.52655 0.94341 0.89334 0.0
C813 C 0.5468 0.88401 0.99085 0.0
C814 C 0.52791 0.89091 0.85499 0.0
C815 C 0.5503 0.86971 0.02786 0.0
C816 C 0.50629 0.94718 0.70169 0.0
C817 C 0.5093 0.93393 0.7419 0.0
C818 C 0.52715 0.92883 0.88175 0.0
C819 C 0.53294 0.88188 0.95122 0.0
C820 C 0.53018 0.89629 0.90894 0.0
C821 C 0.52159 0.93765 0.78485 0.0
C822 C 0.52477 0.92344 0.82771 0.0
H823 H 0.51738 0.83861 0.98523 0.0
H824 H 0.5112 0.86353 0.92132 0.0
H825 H 0.53147 0.92 0.96307 0.0
H826 H 0.53501 0.9815 0.74825 0.0
H827 H 0.54054 0.95833 0.81819 0.0
C828 C 0.64417 0.5392 0.98713 0.0
C829 C 0.66099 0.53025 0.97353 0.0
C830 C 0.62821 0.53703 0.95498 0.0
C831 C 0.59442 0.5203 0.89444 0.0
H832 H 0.59976 0.52547 0.74041 0.0
C833 C 0.53794 0.49558 0.74349 0.0
C834 C 0.53504 0.50602 0.69665 0.0
C835 C 0.55242 0.50017 0.77901 0.0
C836 C 0.59798 0.52402 0.7833 0.0
H837 H 0.67421 0.51206 0.91525 0.0
H838 H 0.64644 0.50842 0.85889 0.0
H839 H 0.62692 0.52952 0.79868 0.0
H840 H 0.54383 0.53053 0.65275 0.0
H841 H 0.56929 0.53849 0.71445 0.0
H842 H 0.56554 0.51451 0.87905 0.0
C843 C 0.64558 0.51706 0.89458 0.0
C844 C 0.61359 0.52623 0.81669 0.0
C845 C 0.66144 0.51899 0.92717 0.0
C846 C 0.5462 0.52182 0.68754 0.0
C847 C 0.56074 0.52641 0.72302 0.0
C848 C 0.57885 0.51778 0.86097 0.0
C849 C 0.6288 0.52612 0.90794 0.0
C850 C 0.61204 0.52426 0.87264 0.0
C851 C 0.5642 0.51547 0.76886 0.0
C852 C 0.58046 0.51942 0.80487 0.0
H853 H 0.64336 0.54793 0.02266 0.0
H854 H 0.61552 0.54424 0.96627 0.0
H855 H 0.59275 0.51869 0.93737 0.0
H856 H 0.52929 0.48356 0.75195 0.0
H857 H 0.5547 0.49137 0.81366 0.0
C858 C 0.99467 0.67064 0.92528 0.0
C859 C 0.98568 0.67005 0.97544 0.0
C860 C 0.99582 0.65465 0.89264 0.0
C861 C 0.9936 0.60289 0.89674 0.0
H862 H 0.98604 0.60693 0.74303 0.0
C863 C 0.98635 0.55152 0.69671 0.0
C864 C 1.00164 0.53966 0.70593 0.0
C865 C 0.9833 0.5672 0.72982 0.0
C866 C 0.98806 0.60552 0.7859 0.0
H867 H 0.97116 0.65185 0.03065 0.0
H868 H 0.97323 0.624 0.97396 0.0
H869 H 0.98313 0.6347 0.79992 0.0
H870 H 0.02507 0.53423 0.75851 0.0
H871 H 0.02006 0.56159 0.81544 0.0
H872 H 0.99858 0.57374 0.8828 0.0
C873 C 0.9794 0.63687 0.95981 0.0
C874 C 0.98659 0.6215 0.81853 0.0
C875 C 0.9781 0.6529 0.99224 0.0
C876 C 0.01337 0.54335 0.74992 0.0
C877 C 0.01038 0.55895 0.78283 0.0
C878 C 0.99525 0.58697 0.86409 0.0
C879 C 0.98817 0.63753 0.90933 0.0
C880 C 0.98942 0.62044 0.87444 0.0
C881 C 0.99537 0.57118 0.77321 0.0
C882 C 0.99263 0.58805 0.80814 0.0
H883 H 1.00048 0.6836 0.91059 0.0
H884 H 0.00286 0.65569 0.85437 0.0
H885 H 0.996 0.60149 0.93947 0.0
H886 H 0.9767 0.54863 0.66416 0.0
H887 H 0.97143 0.57611 0.72168 0.0
C888 C 0.09434 0.20881 0.32689 0.0
C889 C 0.09082 0.20447 0.27274 0.0
C890 C 0.09502 0.19466 0.36537 0.0
C891 C 0.09143 0.14268 0.38306 0.0
H892 H 0.05515 0.15689 0.49074 0.0
C893 C 0.0314 0.09642 0.44798 0.0
C894 C 0.02352 0.09842 0.49926 0.0
C895 C 0.047 0.10685 0.43346 0.0
C896 C 0.06569 0.15264 0.46212 0.0
H897 H 0.08702 0.18177 0.21583 0.0
H898 H 0.08795 0.15729 0.28234 0.0
H899 H 0.07088 0.18087 0.44011 0.0
H900 H 0.02697 0.11162 0.57711 0.0
H901 H 0.05409 0.13011 0.55144 0.0
H902 H 0.08498 0.1143 0.40271 0.0
C903 C 0.09046 0.1715 0.29552 0.0
C904 C 0.0748 0.16647 0.43296 0.0
C905 C 0.08988 0.18562 0.25713 0.0
C906 C 0.03242 0.11011 0.53691 0.0
C907 C 0.04802 0.1206 0.52233 0.0
C908 C 0.08222 0.12882 0.41214 0.0
C909 C 0.09205 0.17592 0.3504 0.0
C910 C 0.08703 0.16164 0.39109 0.0
C911 C 0.05507 0.11958 0.46982 0.0
C912 C 0.06854 0.13367 0.45001 0.0
H913 H 0.09548 0.22322 0.33994 0.0
H914 H 0.09668 0.1985 0.40719 0.0
H915 H 0.1011 0.13851 0.35193 0.0
H916 H 0.02485 0.08767 0.41778 0.0
H917 H 0.05189 0.1059 0.39246 0.0
C918 C 0.32078 0.10493 0.2973 0.0
C919 C 0.32111 0.10596 0.24095 0.0
C920 C 0.33739 0.10417 0.32665 0.0
C921 C 0.38434 0.08633 0.2998 0.0
H922 H 0.38815 0.09003 0.45466 0.0
C923 C 0.4328 0.03711 0.40878 0.0
C924 C 0.42301 0.02647 0.44673 0.0
C925 C 0.42582 0.05431 0.3917 0.0
C926 C 0.38742 0.08908 0.41131 0.0
H927 H 0.33927 0.11016 0.17235 0.0
H928 H 0.36798 0.11018 0.22375 0.0
H929 H 0.36526 0.10909 0.40684 0.0
H930 H 0.39944 0.02646 0.50095 0.0
H931 H 0.38686 0.05612 0.46981 0.0
H932 H 0.40577 0.06579 0.30416 0.0
C933 C 0.35492 0.10882 0.24511 0.0
C934 C 0.37426 0.09994 0.38387 0.0
C935 C 0.33833 0.1091 0.21557 0.0
C936 C 0.40704 0.03416 0.47073 0.0
C937 C 0.40001 0.05132 0.45346 0.0
C938 C 0.39756 0.07568 0.32707 0.0
C939 C 0.35473 0.10489 0.3004 0.0
C940 C 0.37186 0.09793 0.328 0.0
C941 C 0.40884 0.06115 0.4119 0.0
C942 C 0.3986 0.0762 0.38335 0.0
H943 H 0.30773 0.10324 0.31853 0.0
H944 H 0.3365 0.10133 0.36919 0.0
H945 H 0.38293 0.08408 0.257 0.0
H946 H 0.44512 0.03158 0.38938 0.0
H947 H 0.4331 0.06168 0.36018 0.0
C948 C 0.40668 0.34486 0.22203 0.0
C949 C 0.41285 0.32692 0.23629 0.0
C950 C 0.40769 0.35958 0.25892 0.0
C951 C 0.4223 0.37198 0.39974 0.0
H952 H 0.44989 0.41052 0.32557 0.0
C953 C 0.48848 0.40482 0.48114 0.0
C954 C 0.4951 0.42165 0.45949 0.0
C955 C 0.47087 0.39806 0.46708 0.0
C956 C 0.44179 0.40032 0.34744 0.0
H957 H 0.4232 0.30988 0.30152 0.0
H958 H 0.42548 0.33552 0.36541 0.0
H959 H 0.43132 0.38878 0.27457 0.0
H960 H 0.48744 0.44578 0.41186 0.0
H961 H 0.4565 0.43427 0.38869 0.0
H962 H 0.43396 0.383 0.47257 0.0
C963 C 0.41952 0.33832 0.32628 0.0
C964 C 0.43104 0.38772 0.31789 0.0
C965 C 0.41828 0.32356 0.28956 0.0
C966 C 0.48286 0.43266 0.42881 0.0
C967 C 0.46515 0.42598 0.41512 0.0
C968 C 0.4331 0.38465 0.42945 0.0
C969 C 0.41522 0.3567 0.31048 0.0
C970 C 0.42195 0.37278 0.34333 0.0
C971 C 0.45942 0.40807 0.43131 0.0
C972 C 0.44379 0.39834 0.4033 0.0
H973 H 0.40221 0.34773 0.18132 0.0
H974 H 0.4038 0.37345 0.24583 0.0
H975 H 0.41512 0.3609 0.42074 0.0
H976 H 0.49736 0.39631 0.50644 0.0
H977 H 0.467 0.38426 0.48068 0.0
C978 C 0.18901 0.42656 0.29274 0.0
C979 C 0.19295 0.41985 0.24085 0.0
C980 C 0.17061 0.42786 0.31068 0.0
C981 C 0.12447 0.43367 0.24701 0.0
H982 H 0.11049 0.44497 0.39363 0.0
C983 C 0.07416 0.49241 0.29594 0.0
C984 C 0.06294 0.49178 0.3419 0.0
C985 C 0.0867 0.47804 0.28489 0.0
C986 C 0.11391 0.44152 0.35248 0.0
H987 H 0.18052 0.40649 0.17074 0.0
H988 H 0.14895 0.40727 0.20387 0.0
H989 H 0.13862 0.42695 0.3763 0.0
H990 H 0.05553 0.47524 0.41128 0.0
H991 H 0.07731 0.44986 0.39154 0.0
H992 H 0.09974 0.44809 0.22323 0.0
C993 C 0.15994 0.41274 0.22938 0.0
C994 C 0.13024 0.43139 0.34246 0.0
C995 C 0.17826 0.41196 0.21072 0.0
C996 C 0.06412 0.47615 0.37578 0.0
C997 C 0.07662 0.46165 0.36452 0.0
C998 C 0.10804 0.44347 0.25707 0.0
C999 C 0.15571 0.42194 0.27781 0.0
C1000 C 0.13626 0.42819 0.28947 0.0
C1001 C 0.08826 0.46256 0.31928 0.0
C1002 C 0.1031 0.44842 0.30971 0.0
H1003 H 0.19998 0.43203 0.31826 0.0
H1004 H 0.16812 0.43489 0.34851 0.0
H1005 H 0.12846 0.43166 0.20555 0.0
H1006 H 0.07381 0.50439 0.26954 0.0
H1007 H 0.09574 0.4795 0.25042 0.0
C1008 C 0.9308 0.80635 0.81942 0.0
C1009 C 0.92928 0.81438 0.87076 0.0
C1010 C 0.93056 0.81766 0.77375 0.0
C1011 C 0.92648 0.86753 0.72839 0.0
H1012 H 0.97336 0.85608 0.65864 0.0
C1013 C 0.99415 0.90338 0.61595 0.0
C1014 C 0.99681 0.91761 0.65431 0.0
C1015 C 0.97881 0.89138 0.61939 0.0
C1016 C 0.95994 0.85942 0.67607 0.0
H1017 H 0.92387 0.84004 0.91431 0.0
H1018 H 0.92385 0.85978 0.83539 0.0
H1019 H 0.95757 0.83209 0.70878 0.0
H1020 H 0.98442 0.93151 0.72311 0.0
H1021 H 0.95801 0.91068 0.72941 0.0
H1022 H 0.9298 0.8954 0.69882 0.0
C1023 C 0.92518 0.84483 0.82972 0.0
C1024 C 0.95081 0.84555 0.70504 0.0
C1025 C 0.92539 0.83354 0.87521 0.0
C1026 C 0.98285 0.92074 0.69278 0.0
C1027 C 0.96757 0.90877 0.69626 0.0
C1028 C 0.93566 0.88145 0.69938 0.0
C1029 C 0.92883 0.83718 0.77872 0.0
C1030 C 0.9346 0.84976 0.73437 0.0
C1031 C 0.96587 0.89337 0.66136 0.0
C1032 C 0.9531 0.87783 0.67578 0.0
H1033 H 0.93374 0.79159 0.81477 0.0
H1034 H 0.93307 0.81128 0.73495 0.0
H1035 H 0.91376 0.8711 0.74942 0.0
H1036 H 0.0044 0.90093 0.58487 0.0
H1037 H 0.97769 0.87989 0.59118 0.0
C1038 C 0.67818 0.96102 0.88757 0.0
C1039 C 0.6977 0.96077 0.88402 0.0
C1040 C 0.66735 0.96582 0.84323 0.0
C1041 C 0.67115 0.99475 0.72306 0.0
H1042 H 0.61918 0.9806 0.71064 0.0
C1043 C 0.61475 0.04625 0.65397 0.0
C1044 C 0.59776 0.03945 0.63375 0.0
C1045 C 0.62889 0.03385 0.66917 0.0
C1046 C 0.63374 0.98458 0.71213 0.0
H1047 H 0.72119 0.96373 0.83024 0.0
H1048 H 0.70217 0.97172 0.75188 0.0
H1049 H 0.6402 0.96145 0.76274 0.0
H1050 H 0.58273 0.01452 0.61113 0.0
H1051 H 0.60765 0.99301 0.63307 0.0
H1052 H 0.6647 0.01781 0.67193 0.0
C1053 C 0.69527 0.96861 0.78938 0.0
C1054 C 0.64578 0.97365 0.74287 0.0
C1055 C 0.70615 0.96384 0.83403 0.0
C1056 C 0.59566 0.02014 0.62614 0.0
C1057 C 0.60993 0.0078 0.6396 0.0
C1058 C 0.65916 0.00553 0.69142 0.0
C1059 C 0.67578 0.97036 0.79407 0.0
C1060 C 0.66439 0.97912 0.75095 0.0
C1061 C 0.62648 0.01439 0.66335 0.0
C1062 C 0.64009 1.00108 0.68758 0.0
H1063 H 0.67131 0.95849 0.92553 0.0
H1064 H 0.65244 0.96717 0.84879 0.0
H1065 H 0.6854 0.99943 0.72829 0.0
H1066 H 0.61672 0.06107 0.66084 0.0
H1067 H 0.64126 0.03955 0.68807 0.0
C1068 C 0.57177 0.70802 0.85056 0.0
C1069 C 0.58466 0.70587 0.89291 0.0
C1070 C 0.56907 0.69382 0.81288 0.0
C1071 C 0.5845 0.64559 0.77204 0.0
H1072 H 0.53121 0.63901 0.75336 0.0
C1073 C 0.5462 0.57515 0.76282 0.0
C1074 C 0.52903 0.57417 0.73543 0.0
C1075 C 0.55678 0.59153 0.76187 0.0
C1076 C 0.54618 0.64074 0.75676 0.0
H1077 H 0.60647 0.68772 0.92389 0.0
H1078 H 0.60057 0.6624 0.8613 0.0
H1079 H 0.54288 0.66795 0.78959 0.0
H1080 H 0.51069 0.58883 0.68029 0.0
H1081 H 0.52934 0.61717 0.6778 0.0
H1082 H 0.58737 0.6175 0.74258 0.0
C1083 C 0.59275 0.67523 0.85658 0.0
C1084 C 0.55296 0.65748 0.7776 0.0
C1085 C 0.59587 0.6897 0.89342 0.0
C1086 C 0.52376 0.58911 0.70221 0.0
C1087 C 0.53438 0.60544 0.70106 0.0
C1088 C 0.57764 0.62865 0.75162 0.0
C1089 C 0.57867 0.67677 0.81737 0.0
C1090 C 0.57217 0.66003 0.78685 0.0
C1091 C 0.55042 0.60719 0.7333 0.0
C1092 C 0.55835 0.62593 0.745 0.0
H1093 H 0.56275 0.72009 0.84806 0.0
H1094 H 0.55859 0.69583 0.78206 0.0
H1095 H 0.5994 0.64713 0.77776 0.0
H1096 H 0.55091 0.56366 0.78757 0.0
H1097 H 0.5691 0.59239 0.787 0.0
C1098 C 0.83072 0.5959 0.91128 0.0
C1099 C 0.8127 0.59002 0.89702 0.0
C1100 C 0.84474 0.59685 0.87272 0.0
C1101 C 0.85662 0.56966 0.75601 0.0
H1102 H 0.90306 0.59697 0.77027 0.0
C1103 C 0.92357 0.53211 0.70721 0.0
C1104 C 0.93575 0.53259 0.75148 0.0
C1105 C 0.90984 0.54584 0.70113 0.0
C1106 C 0.89016 0.58927 0.76528 0.0
H1107 H 0.7946 0.5825 0.83069 0.0
H1108 H 0.81917 0.5842 0.76283 0.0
H1109 H 0.87421 0.61056 0.8048 0.0
H1110 H 0.94486 0.54911 0.81968 0.0
H1111 H 0.92064 0.57258 0.81057 0.0
H1112 H 0.87254 0.54774 0.72075 0.0
C1113 C 0.82251 0.58791 0.80393 0.0
C1114 C 0.87363 0.59709 0.78494 0.0
C1115 C 0.80842 0.58706 0.84264 0.0
C1116 C 0.93532 0.54814 0.78599 0.0
C1117 C 0.92154 0.56177 0.78018 0.0
C1118 C 0.87311 0.56183 0.73661 0.0
C1119 C 0.84104 0.59181 0.81912 0.0
C1120 C 0.85689 0.58686 0.78337 0.0
C1121 C 0.90796 0.56021 0.73948 0.0
C1122 C 0.89027 0.57104 0.74394 0.0
H1123 H 0.8343 0.59839 0.95299 0.0
H1124 H 0.85883 0.5998 0.8861 0.0
H1125 H 0.84405 0.56129 0.75429 0.0
H1126 H 0.92363 0.52037 0.67973 0.0
H1127 H 0.8999 0.54445 0.66855 0.0
C1128 C 0.00452 0.18172 0.89096 0.0
C1129 C 0.01864 0.19438 0.87638 0.0
C1130 C 1.00165 0.16511 0.8619 0.0
C1131 C 0.01367 0.1406 0.73246 0.0
H1132 H 0.99873 0.09665 0.81181 0.0
C1133 C 0.01267 0.06483 0.64177 0.0
C1134 C 0.99677 0.05413 0.65363 0.0
C1135 C 0.0156 0.0822 0.66705 0.0
C1136 C 0.00281 0.10881 0.78895 0.0
H1137 H 0.04026 0.19949 0.81739 0.0
H1138 H 0.03575 0.17044 0.76836 0.0
H1139 H 0.00305 0.1262 0.85894 0.0
H1140 H 0.97092 0.05377 0.69811 0.0
H1141 H 0.97619 0.08373 0.74308 0.0
H1142 H 0.0137 0.12289 0.66261 0.0
C1143 C 0.02667 0.17338 0.80197 0.0
C1144 C 0.00518 0.12588 0.81596 0.0
C1145 C 0.02944 0.19006 0.83076 0.0
C1146 C 0.98355 0.06148 0.68942 0.0
C1147 C 0.98658 0.07863 0.71518 0.0
C1148 C 0.01147 0.12344 0.70553 0.0
C1149 C 0.01289 0.16047 0.81742 0.0
C1150 C 0.0105 0.14214 0.78819 0.0
C1151 C 0.00269 0.0892 0.70467 0.0
C1152 C 0.00587 0.10735 0.73335 0.0
H1153 H 0.99598 0.1843 0.92596 0.0
H1154 H 0.99061 0.15584 0.8747 0.0
H1155 H 0.01751 0.15273 0.70919 0.0
H1156 H 0.02279 0.05979 0.61293 0.0
H1157 H 0.02815 0.08997 0.65801 0.0
C1158 C 0.32272 0.03563 0.81597 0.0
C1159 C 0.31997 0.0286 0.86801 0.0
C1160 C 0.33921 0.03183 0.78784 0.0
C1161 C 0.38078 1.00035 0.7861 0.0
H1162 H 0.40267 0.04006 0.70173 0.0
C1163 C 0.45554 0.99538 0.69904 0.0
C1164 C 0.45815 1.00201 0.64674 0.0
C1165 C 0.43871 0.99865 0.72595 0.0
C1166 C 0.39666 0.02876 0.7247 0.0
H1167 H 0.33256 0.01195 0.93099 0.0
H1168 H 0.36121 0.00539 0.88229 0.0
H1169 H 0.37317 0.04539 0.74785 0.0
H1170 H 0.44487 0.01572 0.57951 0.0
H1171 H 0.41541 0.02153 0.62628 0.0
H1172 H 0.40442 0.98382 0.76333 0.0
C1173 C 0.35051 0.01359 0.86264 0.0
C1174 C 0.37968 0.03179 0.75109 0.0
C1175 C 0.334 0.01733 0.89065 0.0
C1176 C 0.44342 0.01123 0.62078 0.0
C1177 C 0.42656 0.01445 0.6475 0.0
C1178 C 0.39779 0.99737 0.75992 0.0
C1179 C 0.35346 0.02095 0.81104 0.0
C1180 C 0.37147 0.01762 0.78217 0.0
C1181 C 0.42399 0.00825 0.70052 0.0
C1182 C 0.40595 0.01152 0.72882 0.0
H1183 H 0.31214 0.04419 0.797 0.0
H1184 H 0.34076 0.03745 0.74782 0.0
H1185 H 0.37481 0.98899 0.80888 0.0
H1186 H 0.46656 0.98773 0.71915 0.0
H1187 H 0.43726 0.99374 0.76677 0.0
C1188 C 0.49476 0.31235 0.80783 0.0
C1189 C 0.47649 0.30715 0.82206 0.0
C1190 C 0.49795 0.32763 0.77411 0.0
C1191 C 0.47429 0.371 0.72854 0.0
H1192 H 0.51689 0.37509 0.63381 0.0
C1193 C 0.4852 0.4362 0.59941 0.0
C1194 C 0.50285 0.4446 0.60429 0.0
C1195 C 0.48219 0.41806 0.6179 0.0
C1196 C 0.50496 0.37413 0.6602 0.0
H1197 H 0.44722 0.31377 0.80935 0.0
H1198 H 0.45274 0.3395 0.74872 0.0
H1199 H 0.51094 0.34567 0.6804 0.0
H1200 H 0.5316 0.43988 0.628 0.0
H1201 H 0.52635 0.40806 0.65999 0.0
H1202 H 0.4683 0.39938 0.70835 0.0
C1203 C 0.46469 0.33217 0.76498 0.0
C1204 C 0.50156 0.3573 0.68709 0.0
C1205 C 0.46151 0.31708 0.79919 0.0
C1206 C 0.51777 0.43392 0.62433 0.0
C1207 C 0.51478 0.41566 0.64245 0.0
C1208 C 0.47757 0.38768 0.70131 0.0
C1209 C 0.48295 0.33803 0.75317 0.0
C1210 C 0.48623 0.35554 0.72199 0.0
C1211 C 0.49682 0.40776 0.64098 0.0
C1212 C 0.493 0.38951 0.66713 0.0
H1213 H 0.50669 0.30488 0.8237 0.0
H1214 H 0.51222 0.33169 0.76624 0.0
H1215 H 0.46263 0.37046 0.75598 0.0
H1216 H 0.47353 0.44377 0.58234 0.0
H1217 H 0.46829 0.4122 0.61499 0.0
C1218 C 0.19638 0.47051 0.81522 0.0
C1219 C 0.20159 0.48179 0.85925 0.0
C1220 C 0.17985 0.47394 0.78667 0.0
C1221 C 0.13409 0.49866 0.80056 0.0
H1222 H 0.12906 0.48624 0.64961 0.0
C1223 C 0.06808 0.51732 0.67678 0.0
C1224 C 0.06069 0.50321 0.64361 0.0
C1225 C 0.08556 0.51517 0.70128 0.0
C1226 C 0.13021 0.48966 0.69188 0.0
H1227 H 0.19346 0.5061 0.90596 0.0
H1228 H 0.16534 0.51264 0.85474 0.0
H1229 H 0.1592 0.48253 0.69407 0.0
H1230 H 0.06594 0.47575 0.61004 0.0
H1231 H 0.09663 0.47208 0.6523 0.0
H1232 H 0.10513 0.50611 0.79784 0.0
C1233 C 0.17371 0.5007 0.84322 0.0
C1234 C 0.14752 0.48748 0.71757 0.0
C1235 C 0.19014 0.49714 0.87217 0.0
C1236 C 0.07129 0.48693 0.63517 0.0
C1237 C 0.0889 0.48486 0.65918 0.0
C1238 C 0.11687 0.50105 0.77469 0.0
C1239 C 0.16807 0.48893 0.80071 0.0
C1240 C 0.14974 0.49186 0.77247 0.0
C1241 C 0.09621 0.49891 0.69289 0.0
C1242 C 0.11467 0.49651 0.72008 0.0
H1243 H 0.20491 0.45875 0.80318 0.0
H1244 H 0.17607 0.46442 0.75461 0.0
H1245 H 0.13496 0.5018 0.84302 0.0
H1246 H 0.06014 0.52983 0.68519 0.0
H1247 H 0.09078 0.52629 0.72682 0.0
C1248 C 0.9737 0.83294 0.3226 0.0
C1249 C 0.98949 0.82461 0.29886 0.0
C1250 C 0.97538 0.84892 0.35519 0.0
C1251 C 0.01053 0.8777 0.43105 0.0
H1252 H 0.97293 0.91652 0.42109 0.0
C1253 C 0.02402 0.95317 0.503 0.0
C1254 C 0.00999 0.96255 0.53168 0.0
C1255 C 0.02055 0.93585 0.47879 0.0
C1256 C 0.98343 0.90572 0.42485 0.0
H1257 H 0.01961 0.8266 0.29285 0.0
H1258 H 0.02248 0.85455 0.34788 0.0
H1259 H 0.96887 0.88735 0.37102 0.0
H1260 H 0.9816 0.96052 0.56037 0.0
H1261 H 0.97527 0.93029 0.51653 0.0
H1262 H 0.02531 0.89632 0.48367 0.0
C1263 C 0.00873 0.84863 0.34204 0.0
C1264 C 0.98112 0.88892 0.39616 0.0
C1265 C 0.00705 0.83263 0.30967 0.0
C1266 C 0.99248 0.95392 0.53694 0.0
C1267 C 0.98891 0.93659 0.51208 0.0
C1268 C 0.0129 0.89452 0.45927 0.0
C1269 C 0.99292 0.85715 0.36509 0.0
C1270 C 0.99476 0.87471 0.3982 0.0
C1271 C 0.00295 0.92732 0.48275 0.0
C1272 C 0.99953 0.90886 0.45601 0.0
H1273 H 0.95988 0.82743 0.31491 0.0
H1274 H 0.96287 0.85482 0.3726 0.0
H1275 H 0.02115 0.86703 0.43501 0.0
H1276 H 0.03775 0.95932 0.49903 0.0
H1277 H 0.03165 0.92923 0.45629 0.0
C1278 C 0.69174 0.98445 0.38403 0.0
C1279 C 0.69134 0.98379 0.32771 0.0
C1280 C 0.67506 0.98599 0.4133 0.0
C1281 C 0.62453 0.99847 0.39437 0.0
H1282 H 0.61937 0.97749 0.53661 0.0
C1283 C 0.55937 0.01366 0.52196 0.0
C1284 C 0.55251 0.99955 0.55534 0.0
C1285 C 0.57648 0.0115 0.49588 0.0
C1286 C 0.62044 0.98324 0.49662 0.0
H1287 H 0.67329 0.98319 0.25798 0.0
H1288 H 0.6444 0.98492 0.3083 0.0
H1289 H 0.64852 0.97345 0.48798 0.0
H1290 H 0.55836 0.97257 0.59018 0.0
H1291 H 0.58792 0.96821 0.54246 0.0
H1292 H 0.59624 0.00742 0.4016 0.0
C1293 C 0.65741 0.9852 0.33043 0.0
C1294 C 0.63736 0.98119 0.46894 0.0
C1295 C 0.67401 0.98405 0.30137 0.0
C1296 C 0.56324 0.98342 0.56349 0.0
C1297 C 0.58027 0.98108 0.53666 0.0
C1298 C 0.60759 1.00025 0.42157 0.0
C1299 C 0.65761 0.98654 0.38686 0.0
C1300 C 0.63968 0.98877 0.41727 0.0
C1301 C 0.58715 0.9951 0.50235 0.0
C1302 C 0.60527 0.99276 0.47324 0.0
H1303 H 0.70494 0.98425 0.40528 0.0
H1304 H 0.67593 0.98716 0.45655 0.0
H1305 H 0.6257 0.00492 0.35531 0.0
H1306 H 0.55162 0.02654 0.51686 0.0
H1307 H 0.58146 0.02289 0.47136 0.0
C1308 C 0.51736 0.69145 0.3364 0.0
C1309 C 0.53489 0.6999 0.32927 0.0
C1310 C 0.51549 0.67551 0.36832 0.0
C1311 C 0.5429 0.63539 0.41625 0.0
H1312 H 0.50005 0.62628 0.50695 0.0
C1313 C 0.53547 0.5664 0.5335 0.0
C1314 C 0.51771 0.55802 0.53334 0.0
C1315 C 0.53786 0.58474 0.51557 0.0
C1316 C 0.51204 0.62852 0.48146 0.0
H1317 H 0.56412 0.69841 0.35151 0.0
H1318 H 0.56082 0.67074 0.40761 0.0
H1319 H 0.50359 0.65654 0.46322 0.0
H1320 H 0.4884 0.56299 0.51708 0.0
H1321 H 0.49257 0.59469 0.48489 0.0
H1322 H 0.55115 0.6073 0.43307 0.0
C1323 C 0.54853 0.67638 0.38813 0.0
C1324 C 0.51408 0.6459 0.45646 0.0
C1325 C 0.55038 0.69239 0.35647 0.0
C1326 C 0.5023 0.5688 0.51721 0.0
C1327 C 0.5047 0.58713 0.49909 0.0
C1328 C 0.54083 0.618 0.44098 0.0
C1329 C 0.53113 0.66753 0.39368 0.0
C1330 C 0.52946 0.6495 0.42316 0.0
C1331 C 0.52256 0.59526 0.49708 0.0
C1332 C 0.52528 0.61424 0.47356 0.0
H1333 H 0.50511 0.69696 0.31637 0.0
H1334 H 0.50189 0.66901 0.37142 0.0
H1335 H 0.55477 0.63755 0.39019 0.0
H1336 H 0.54762 0.55873 0.54695 0.0
H1337 H 0.55177 0.59064 0.51589 0.0
C1338 C 0.81094 0.52198 0.35363 0.0
C1339 C 0.81193 0.52093 0.29735 0.0
C1340 C 0.82703 0.51965 0.3853 0.0
C1341 C 0.8769 0.50323 0.37654 0.0
H1342 H 0.88278 0.53132 0.50889 0.0
C1343 C 0.94828 0.51779 0.47507 0.0
C1344 C 0.95038 0.51273 0.52913 0.0
C1345 C 0.93071 0.51773 0.45061 0.0
C1346 C 0.88123 0.52326 0.47226 0.0
H1347 H 0.83071 0.51724 0.23025 0.0
H1348 H 0.85863 0.5139 0.28453 0.0
H1349 H 0.8535 0.53336 0.45858 0.0
H1350 H 0.93577 0.50335 0.59992 0.0
H1351 H 0.90465 0.50398 0.5575 0.0
H1352 H 0.90503 0.49398 0.38907 0.0
C1353 C 0.84545 0.51569 0.30495 0.0
C1354 C 0.8644 0.52434 0.44338 0.0
C1355 C 0.82937 0.51769 0.27354 0.0
C1356 C 0.93448 0.50755 0.55838 0.0
C1357 C 0.91673 0.50792 0.53417 0.0
C1358 C 0.89378 0.50248 0.40479 0.0
C1359 C 0.84459 0.51654 0.36142 0.0
C1360 C 0.86204 0.51453 0.39456 0.0
C1361 C 0.91473 0.51285 0.47982 0.0
C1362 C 0.89621 0.51263 0.45262 0.0
H1363 H 0.79768 0.52444 0.37318 0.0
H1364 H 0.82562 0.52016 0.42851 0.0
H1365 H 0.87561 0.49498 0.34024 0.0
H1366 H 0.96032 0.52127 0.45107 0.0
H1367 H 0.9296 0.52155 0.40868 0.0
loop_
_geom_bond_atom_site_label_1
_geom_bond_atom_site_label_2
_geom_bond_distance
_geom_bond_site_symmetry_2
_ccdc_geom_bond_type
C0 C1 1.386 . S
C0 C2 1.397 1_556 S
C0 H24 0.931 . S
C1 C0 1.386 . S
C1 C5 1.397 1_556 S
C2 C0 1.397 1_554 S
C2 C3 1.384 . S
C2 H25 0.930 . S
C3 C2 1.384 . S
C3 C4 1.377 . S
C3 C6 1.481 . S
C4 C3 1.377 . S
C4 C5 1.389 . S
C4 H26 0.929 . S
C5 C1 1.397 1_554 S
C5 C4 1.389 . S
C5 H27 0.931 . S
C6 C3 1.481 . S
C6 C7 1.387 . S
C6 C11 1.390 . S
C7 C6 1.387 . S
C7 C8 1.401 . S
C7 H28 0.930 . S
C8 C7 1.401 . S
C8 C9 1.376 . S
C8 C17 1.511 . S
C9 C8 1.376 . S
C9 C10 1.392 . S
C9 H30 0.931 . S
C10 C9 1.392 . S
C10 C11 1.361 . S
C10 C12 1.500 . S
C11 C6 1.390 . S
C11 C10 1.361 . S
C11 H29 0.931 . S
C12 C10 1.500 . S
C12 C13 1.371 . S
C12 C14 1.365 . S
C13 C12 1.371 . S
C13 C23 1.386 . S
C13 H31 0.931 . S
C14 C12 1.365 . S
C14 C15 1.409 . S
C14 H32 0.929 . S
C15 C14 1.409 . S
C15 C16 1.380 . S
C15 H33 0.930 . S
C16 C15 1.380 . S
C16 C23 1.357 . S
C17 C8 1.511 . S
C17 C18 1.341 . S
C17 C19 1.371 . S
C18 C17 1.341 . S
C18 C22 1.394 . S
C18 H34 0.930 . S
C19 C17 1.371 . S
C19 C20 1.392 . S
C19 H35 0.931 . S
C20 C19 1.392 . S
C20 C21 1.331 . S
C20 H38 0.932 . S
C21 C20 1.331 . S
C21 C22 1.336 . S
C22 C18 1.394 . S
C22 C21 1.336 . S
C22 H37 0.929 . S
C23 C13 1.386 . S
C23 C16 1.357 . S
C23 H36 0.928 . S
H24 C0 0.931 . S
H25 C2 0.930 . S
H26 C4 0.929 . S
H27 C5 0.931 . S
H28 C7 0.930 . S
H29 C11 0.931 . S
H30 C9 0.931 . S
H31 C13 0.931 . S
H32 C14 0.929 . S
H33 C15 0.930 . S
H34 C18 0.930 . S
H35 C19 0.931 . S
H36 C23 0.928 . S
H37 C22 0.929 . S
H38 C20 0.932 . S
C39 C40 1.386 . S
C39 C41 1.397 1_556 S
C39 H63 0.931 . S
C40 C39 1.386 . S
C40 C44 1.397 1_556 S
C41 C39 1.397 1_554 S
C41 C42 1.384 . S
C41 H64 0.930 . S
C42 C41 1.384 . S
C42 C43 1.377 . S
C42 C45 1.481 . S
C43 C42 1.377 . S
C43 C44 1.389 . S
C43 H65 0.929 . S
C44 C40 1.397 1_554 S
C44 C43 1.389 . S
C44 H66 0.931 . S
C45 C42 1.481 . S
C45 C46 1.387 . S
C45 C50 1.390 . S
C46 C45 1.387 . S
C46 C47 1.401 . S
C46 H67 0.930 . S
C47 C46 1.401 . S
C47 C48 1.376 . S
C47 C56 1.511 . S
C48 C47 1.376 . S
C48 C49 1.392 . S
C48 H69 0.931 . S
C49 C48 1.392 . S
C49 C50 1.361 . S
C49 C51 1.500 . S
C50 C45 1.390 . S
C50 C49 1.361 . S
C50 H68 0.931 . S
C51 C49 1.500 . S
C51 C52 1.371 . S
C51 C53 1.365 . S
C52 C51 1.371 . S
C52 C62 1.386 . S
C52 H70 0.931 . S
C53 C51 1.365 . S
C53 C54 1.409 . S
C53 H71 0.929 . S
C54 C53 1.409 . S
C54 C55 1.380 . S
C54 H72 0.930 . S
C55 C54 1.380 . S
C55 C62 1.357 . S
C56 C47 1.511 . S
C56 C57 1.341 . S
C56 C58 1.371 . S
C57 C56 1.341 . S
C57 C61 1.394 . S
C57 H73 0.930 . S
C58 C56 1.371 . S
C58 C59 1.392 . S
C58 H74 0.931 . S
C59 C58 1.392 . S
C59 C60 1.331 . S
C59 H77 0.932 . S
C60 C59 1.331 . S
C60 C61 1.336 . S
C61 C57 1.394 . S
C61 C60 1.336 . S
C61 H76 0.929 . S
C62 C52 1.386 . S
C62 C55 1.357 . S
C62 H75 0.928 . S
H63 C39 0.931 . S
H64 C41 0.930 . S
H65 C43 0.929 . S
H66 C44 0.931 . S
H67 C46 0.930 . S
H68 C50 0.931 . S
H69 C48 0.931 . S
H70 C52 0.931 . S
H71 C53 0.929 . S
H72 C54 0.930 . S
H73 C57 0.930 . S
H74 C58 0.931 . S
H75 C62 0.928 . S
H76 C61 0.929 . S
H77 C59 0.932 . S
C78 C79 1.386 . S
C78 C80 1.397 1_556 S
C78 H102 0.931 . S
C79 C78 1.386 . S
C79 C83 1.397 1_556 S
C80 C78 1.397 1_554 S
C80 C81 1.384 . S
C80 H103 0.930 . S
C81 C80 1.384 . S
C81 C82 1.377 . S
C81 C84 1.481 . S
C82 C81 1.377 . S
C82 C83 1.389 . S
C82 H104 0.929 . S
C83 C79 1.397 1_554 S
C83 C82 1.389 . S
C83 H105 0.931 . S
C84 C81 1.481 . S
C84 C85 1.387 . S
C84 C89 1.390 . S
C85 C84 1.387 . S
C85 C86 1.401 . S
C85 H106 0.930 . S
C86 C85 1.401 . S
C86 C87 1.376 . S
C86 C95 1.511 . S
C87 C86 1.376 . S
C87 C88 1.392 . S
C87 H108 0.931 . S
C88 C87 1.392 . S
C88 C89 1.361 . S
C88 C90 1.500 . S
C89 C84 1.390 . S
C89 C88 1.361 . S
C89 H107 0.931 . S
C90 C88 1.500 . S
C90 C91 1.371 . S
C90 C92 1.365 . S
C91 C90 1.371 . S
C91 C101 1.386 . S
C91 H109 0.931 . S
C92 C90 1.365 . S
C92 C93 1.409 . S
C92 H110 0.929 . S
C93 C92 1.409 . S
C93 C94 1.380 . S
C93 H111 0.930 . S
C94 C93 1.380 . S
C94 C101 1.357 . S
C95 C86 1.511 . S
C95 C96 1.341 . S
C95 C97 1.371 . S
C96 C95 1.341 . S
C96 C100 1.394 . S
C96 H112 0.930 . S
C97 C95 1.371 . S
C97 C98 1.392 . S
C97 H113 0.931 . S
C98 C97 1.392 . S
C98 C99 1.331 . S
C98 H116 0.932 . S
C99 C98 1.331 . S
C99 C100 1.336 . S
C100 C96 1.394 . S
C100 C99 1.336 . S
C100 H115 0.929 . S
C101 C91 1.386 . S
C101 C94 1.357 . S
C101 H114 0.928 . S
H102 C78 0.931 . S
H103 C80 0.930 . S
H104 C82 0.929 . S
H105 C83 0.931 . S
H106 C85 0.930 . S
H107 C89 0.931 . S
H108 C87 0.931 . S
H109 C91 0.931 . S
H110 C92 0.929 . S
H111 C93 0.930 . S
H112 C96 0.930 . S
H113 C97 0.931 . S
H114 C101 0.928 . S
H115 C100 0.929 . S
H116 C98 0.932 . S
C117 C118 1.386 . S
C117 C119 1.397 . S
C117 H141 0.931 . S
C118 C117 1.386 . S
C118 C122 1.397 . S
C119 C117 1.397 . S
C119 C120 1.384 . S
C119 H142 0.930 . S
C120 C119 1.384 . S
C120 C121 1.377 . S
C120 C123 1.481 . S
C121 C120 1.377 . S
C121 C122 1.389 . S
C121 H143 0.929 . S
C122 C118 1.397 . S
C122 C121 1.389 . S
C122 H144 0.931 . S
C123 C120 1.481 . S
C123 C124 1.387 . S
C123 C128 1.390 . S
C124 C123 1.387 . S
C124 C125 1.401 . S
C124 H145 0.930 . S
C125 C124 1.401 . S
C125 C126 1.376 . S
C125 C134 1.511 . S
C126 C125 1.376 . S
C126 C127 1.392 . S
C126 H147 0.931 . S
C127 C126 1.392 . S
C127 C128 1.361 . S
C127 C129 1.500 . S
C128 C123 1.390 . S
C128 C127 1.361 . S
C128 H146 0.931 . S
C129 C127 1.500 . S
C129 C130 1.371 . S
C129 C131 1.365 . S
C130 C129 1.371 . S
C130 C140 1.386 1_554 S
C130 H148 0.931 . S
C131 C129 1.365 . S
C131 C132 1.409 . S
C131 H149 0.929 . S
C132 C131 1.409 . S
C132 C133 1.380 1_554 S
C132 H150 0.930 . S
C133 C132 1.380 1_556 S
C133 C140 1.357 . S
C134 C125 1.511 . S
C134 C135 1.341 . S
C134 C136 1.371 . S
C135 C134 1.341 . S
C135 C139 1.394 . S
C135 H151 0.930 . S
C136 C134 1.371 . S
C136 C137 1.392 . S
C136 H152 0.931 . S
C137 C136 1.392 . S
C137 C138 1.331 . S
C137 H155 0.932 . S
C138 C137 1.331 . S
C138 C139 1.336 . S
C139 C135 1.394 . S
C139 C138 1.336 . S
C139 H154 0.929 . S
C140 C130 1.386 1_556 S
C140 C133 1.357 . S
C140 H153 0.928 . S
H141 C117 0.931 . S
H142 C119 0.930 . S
H143 C121 0.929 . S
H144 C122 0.931 . S
H145 C124 0.930 . S
H146 C128 0.931 . S
H147 C126 0.931 . S
H148 C130 0.931 . S
H149 C131 0.929 . S
H150 C132 0.930 . S
H151 C135 0.930 . S
H152 C136 0.931 . S
H153 C140 0.928 . S
H154 C139 0.929 . S
H155 C137 0.932 . S
C156 C157 1.386 . S
C156 C158 1.397 . S
C156 H180 0.931 . S
C157 C156 1.386 . S
C157 C161 1.397 . S
C158 C156 1.397 . S
C158 C159 1.384 . S
C158 H181 0.930 . S
C159 C158 1.384 . S
C159 C160 1.377 . S
C159 C162 1.481 . S
C160 C159 1.377 . S
C160 C161 1.389 . S
C160 H182 0.929 . S
C161 C157 1.397 . S
C161 C160 1.389 . S
C161 H183 0.931 . S
C162 C159 1.481 . S
C162 C163 1.387 . S
C162 C167 1.390 . S
C163 C162 1.387 . S
C163 C164 1.401 . S
C163 H184 0.930 . S
C164 C163 1.401 . S
C164 C165 1.376 1_554 S
C164 C173 1.511 . S
C165 C164 1.376 1_556 S
C165 C166 1.392 . S
C165 H186 0.931 . S
C166 C165 1.392 . S
C166 C167 1.361 1_556 S
C166 C168 1.500 . S
C167 C162 1.390 . S
C167 C166 1.361 1_554 S
C167 H185 0.931 1_554 S
C168 C166 1.500 . S
C168 C169 1.371 . S
C168 C170 1.365 . S
C169 C168 1.371 . S
C169 C179 1.386 . S
C169 H187 0.931 . S
C170 C168 1.365 . S
C170 C171 1.409 . S
C170 H188 0.929 . S
C171 C170 1.409 . S
C171 C172 1.380 . S
C171 H189 0.930 . S
C172 C171 1.380 . S
C172 C179 1.357 . S
C173 C164 1.511 . S
C173 C174 1.341 . S
C173 C175 1.371 . S
C174 C173 1.341 . S
C174 C178 1.394 . S
C174 H190 0.930 . S
C175 C173 1.371 . S
C175 C176 1.392 . S
C175 H191 0.931 1_554 S
C176 C175 1.392 . S
C176 C177 1.331 . S
C176 H194 0.932 1_554 S
C177 C176 1.331 . S
C177 C178 1.336 . S
C178 C174 1.394 . S
C178 C177 1.336 . S
C178 H193 0.929 . S
C179 C169 1.386 . S
C179 C172 1.357 . S
C179 H192 0.928 . S
H180 C156 0.931 . S
H181 C158 0.930 . S
H182 C160 0.929 . S
H183 C161 0.931 . S
H184 C163 0.930 . S
H185 C167 0.931 1_556 S
H186 C165 0.931 . S
H187 C169 0.931 . S
H188 C170 0.929 . S
H189 C171 0.930 . S
H190 C174 0.930 . S
H191 C175 0.931 1_556 S
H192 C179 0.928 . S
H193 C178 0.929 . S
H194 C176 0.932 1_556 S
C195 C196 1.386 . S
C195 C197 1.397 . S
C195 H219 0.931 . S
C196 C195 1.386 . S
C196 C200 1.397 . S
C197 C195 1.397 . S
C197 C198 1.384 . S
C197 H220 0.930 . S
C198 C197 1.384 . S
C198 C199 1.377 . S
C198 C201 1.481 . S
C199 C198 1.377 . S
C199 C200 1.389 . S
C199 H221 0.929 . S
C200 C196 1.397 . S
C200 C199 1.389 . S
C200 H222 0.931 . S
C201 C198 1.481 . S
C201 C202 1.387 . S
C201 C206 1.390 1_554 S
C202 C201 1.387 . S
C202 C203 1.401 . S
C202 H223 0.930 . S
C203 C202 1.401 . S
C203 C204 1.376 1_554 S
C203 C212 1.511 . S
C204 C203 1.376 1_556 S
C204 C205 1.392 . S
C204 H225 0.931 . S
C205 C204 1.392 . S
C205 C206 1.361 . S
C205 C207 1.500 . S
C206 C201 1.390 1_556 S
C206 C205 1.361 . S
C206 H224 0.931 . S
C207 C205 1.500 . S
C207 C208 1.371 . S
C207 C209 1.365 . S
C208 C207 1.371 . S
C208 C218 1.386 . S
C208 H226 0.931 . S
C209 C207 1.365 . S
C209 C210 1.409 . S
C209 H227 0.929 . S
C210 C209 1.409 . S
C210 C211 1.380 . S
C210 H228 0.930 . S
C211 C210 1.380 . S
C211 C218 1.357 . S
C212 C203 1.511 . S
C212 C213 1.341 . S
C212 C214 1.371 1_554 S
C213 C212 1.341 . S
C213 C217 1.394 . S
C213 H229 0.930 . S
C214 C212 1.371 1_556 S
C214 C215 1.392 1_556 S
C214 H230 0.931 . S
C215 C214 1.392 1_554 S
C215 C216 1.331 . S
C215 H233 0.932 1_554 S
C216 C215 1.331 . S
C216 C217 1.336 . S
C217 C213 1.394 . S
C217 C216 1.336 . S
C217 H232 0.929 . S
C218 C208 1.386 . S
C218 C211 1.357 . S
C218 H231 0.928 . S
H219 C195 0.931 . S
H220 C197 0.930 . S
H221 C199 0.929 . S
H222 C200 0.931 . S
H223 C202 0.930 . S
H224 C206 0.931 . S
H225 C204 0.931 . S
H226 C208 0.931 . S
H227 C209 0.929 . S
H228 C210 0.930 . S
H229 C213 0.930 . S
H230 C214 0.931 . S
H231 C218 0.928 . S
H232 C217 0.929 . S
H233 C215 0.932 1_556 S
C234 C235 1.386 . S
C234 C236 1.397 . S
C234 H258 0.931 . S
C235 C234 1.386 . S
C235 C239 1.397 . S
C236 C234 1.397 . S
C236 C237 1.384 . S
C236 H259 0.930 . S
C237 C236 1.384 . S
C237 C238 1.377 . S
C237 C240 1.481 . S
C238 C237 1.377 . S
C238 C239 1.389 . S
C238 H260 0.929 . S
C239 C235 1.397 . S
C239 C238 1.389 . S
C239 H261 0.931 . S
C240 C237 1.481 . S
C240 C241 1.387 . S
C240 C245 1.390 1_554 S
C241 C240 1.387 . S
C241 C242 1.401 . S
C241 H262 0.930 . S
C242 C241 1.401 . S
C242 C243 1.376 1_554 S
C242 C251 1.511 . S
C243 C242 1.376 1_556 S
C243 C244 1.392 . S
C243 H264 0.931 . S
C244 C243 1.392 . S
C244 C245 1.361 . S
C244 C246 1.500 . S
C245 C240 1.390 1_556 S
C245 C244 1.361 . S
C245 H263 0.931 . S
C246 C244 1.500 . S
C246 C247 1.371 . S
C246 C248 1.365 . S
C247 C246 1.371 . S
C247 C257 1.386 . S
C247 H265 0.931 . S
C248 C246 1.365 . S
C248 C249 1.409 . S
C248 H266 0.929 . S
C249 C248 1.409 . S
C249 C250 1.380 . S
C249 H267 0.930 . S
C250 C249 1.380 . S
C250 C257 1.357 . S
C251 C242 1.511 . S
C251 C252 1.341 . S
C251 C253 1.371 1_554 S
C252 C251 1.341 . S
C252 C256 1.394 . S
C252 H268 0.930 . S
C253 C251 1.371 1_556 S
C253 C254 1.392 1_556 S
C253 H269 0.931 . S
C254 C253 1.392 1_554 S
C254 C255 1.331 . S
C254 H272 0.932 1_554 S
C255 C254 1.331 . S
C255 C256 1.336 . S
C256 C252 1.394 . S
C256 C255 1.336 . S
C256 H271 0.929 . S
C257 C247 1.386 . S
C257 C250 1.357 . S
C257 H270 0.928 . S
H258 C234 0.931 . S
H259 C236 0.930 . S
H260 C238 0.929 . S
H261 C239 0.931 . S
H262 C241 0.930 . S
H263 C245 0.931 . S
H264 C243 0.931 . S
H265 C247 0.931 . S
H266 C248 0.929 . S
H267 C249 0.930 . S
H268 C252 0.930 . S
H269 C253 0.931 . S
H270 C257 0.928 . S
H271 C256 0.929 . S
H272 C254 0.932 1_556 S
C273 C274 1.386 . S
C273 C275 1.397 . S
C273 H297 0.931 . S
C274 C273 1.386 . S
C274 C278 1.397 . S
C275 C273 1.397 . S
C275 C276 1.384 . S
C275 H298 0.930 . S
C276 C275 1.384 . S
C276 C277 1.377 . S
C276 C279 1.481 . S
C277 C276 1.377 . S
C277 C278 1.389 . S
C277 H299 0.929 . S
C278 C274 1.397 . S
C278 C277 1.389 . S
C278 H300 0.931 . S
C279 C276 1.481 . S
C279 C280 1.387 . S
C279 C284 1.390 1_556 S
C280 C279 1.387 . S
C280 C281 1.401 1_556 S
C280 H301 0.930 . S
C281 C280 1.401 1_554 S
C281 C282 1.376 . S
C281 C290 1.511 . S
C282 C281 1.376 . S
C282 C283 1.392 . S
C282 H303 0.931 . S
C283 C282 1.392 . S
C283 C284 1.361 . S
C283 C285 1.500 . S
C284 C279 1.390 1_554 S
C284 C283 1.361 . S
C284 H302 0.931 1_554 S
C285 C283 1.500 . S
C285 C286 1.371 . S
C285 C287 1.365 . S
C286 C285 1.371 . S
C286 C296 1.386 . S
C286 H304 0.931 . S
C287 C285 1.365 . S
C287 C288 1.409 . S
C287 H305 0.929 . S
C288 C287 1.409 . S
C288 C289 1.380 . S
C288 H306 0.930 . S
C289 C288 1.380 . S
C289 C296 1.357 . S
C290 C281 1.511 . S
C290 C291 1.341 . S
C290 C292 1.371 . S
C291 C290 1.341 . S
C291 C295 1.394 . S
C291 H307 0.930 1_554 S
C292 C290 1.371 . S
C292 C293 1.392 . S
C292 H308 0.931 . S
C293 C292 1.392 . S
C293 C294 1.331 . S
C293 H311 0.932 . S
C294 C293 1.331 . S
C294 C295 1.336 . S
C295 C291 1.394 . S
C295 C294 1.336 . S
C295 H310 0.929 1_554 S
C296 C286 1.386 . S
C296 C289 1.357 . S
C296 H309 0.928 . S
H297 C273 0.931 . S
H298 C275 0.930 . S
H299 C277 0.929 . S
H300 C278 0.931 . S
H301 C280 0.930 . S
H302 C284 0.931 1_556 S
H303 C282 0.931 . S
H304 C286 0.931 . S
H305 C287 0.929 . S
H306 C288 0.930 . S
H307 C291 0.930 1_556 S
H308 C292 0.931 . S
H309 C296 0.928 . S
H310 C295 0.929 1_556 S
H311 C293 0.932 . S
Eu312 N343 2.657 1_565 S
Eu312 N350 2.609 . S
Eu312 O356 2.558 . S
Eu312 O357 2.612 1_455 S
Eu312 O359 2.339 1_455 S
Eu312 O360 2.563 . S
Eu312 O361 2.419 . S
Eu312 O363 2.380 1_565 S
Eu312 O364 2.432 . S
Eu312 C376 2.848 . S
C313 C316 1.418 1_545 S
C313 C317 1.411 . S
C313 N320 1.377 . S
C314 C316 1.436 . S
C314 C318 1.423 . S
C314 C326 1.392 . S
C315 C317 1.420 1_565 S
C315 C318 1.351 . S
C315 H338 0.931 . S
C316 C313 1.418 1_565 S
C316 C314 1.436 . S
C316 N324 1.358 1_565 S
C317 C313 1.411 . S
C317 C315 1.420 1_545 S
C317 C322 1.395 . S
C318 C314 1.423 . S
C318 C315 1.351 . S
C318 H330 0.930 . S
C319 C321 1.400 . S
C319 C322 1.386 . S
C319 H331 0.930 . S
N320 C313 1.377 . S
N320 C321 1.321 . S
N320 Eu323 2.609 . S
C321 C319 1.400 . S
C321 N320 1.321 . S
C321 H328 0.930 . S
C322 C317 1.395 . S
C322 C319 1.386 . S
C322 H341 0.930 . S
Eu323 N320 2.609 . S
Eu323 N324 2.657 . S
Eu323 O357 2.380 1_545 S
Eu323 O358 2.432 . S
Eu323 O362 2.558 . S
Eu323 O363 2.612 1_655 S
Eu323 O365 2.339 1_655 S
Eu323 O366 2.563 1_655 S
Eu323 O367 2.419 . S
Eu323 C387 2.848 . S
N324 C316 1.358 1_545 S
N324 Eu323 2.657 . S
N324 C325 1.334 1_645 S
C325 N324 1.334 1_465 S
C325 C327 1.413 . S
C325 H332 0.929 . S
C326 C314 1.392 . S
C326 C327 1.367 1_655 S
C326 H334 0.930 . S
C327 C325 1.413 . S
C327 C326 1.367 1_455 S
C327 H329 0.930 . S
H328 C321 0.930 . S
H329 C327 0.930 . S
H330 C318 0.930 . S
H331 C319 0.930 . S
H332 C325 0.929 . S
H333 C347 0.930 1_655 S
H334 C326 0.930 . S
H335 C353 0.930 . S
H336 C344 0.929 1_655 S
H337 C351 0.930 . S
H338 C315 0.931 . S
H339 C345 0.930 . S
H340 C378 0.930 . S
H341 C322 0.930 . S
H342 C377 0.931 . S
N343 Eu312 2.657 1_545 S
N343 C344 1.334 . S
N343 C348 1.362 . S
C344 H336 0.929 1_455 S
C344 N343 1.334 . S
C344 C347 1.413 . S
C345 H339 0.930 . S
C345 C346 1.392 . S
C345 C347 1.367 . S
C346 C345 1.392 . S
C346 C348 1.420 . S
C346 C378 1.423 . S
C347 H333 0.930 1_455 S
C347 C344 1.413 . S
C347 C345 1.367 . S
C348 N343 1.362 . S
C348 C346 1.420 . S
C348 C352 1.429 . S
H349 C354 0.930 . S
N350 Eu312 2.609 . S
N350 C352 1.377 1_565 S
N350 C353 1.321 . S
C351 H337 0.930 . S
C351 C353 1.400 . S
C351 C354 1.386 . S
C352 C348 1.429 . S
C352 N350 1.377 1_545 S
C352 C355 1.411 . S
C353 H335 0.930 . S
C353 N350 1.321 . S
C353 C351 1.400 . S
C354 H349 0.930 . S
C354 C351 1.386 . S
C354 C355 1.395 1_565 S
C355 C352 1.411 . S
C355 C354 1.395 1_545 S
C355 C377 1.420 . S
O356 Eu312 2.558 . S
O356 C376 1.257 . S
O357 Eu312 2.612 1_655 S
O357 Eu323 2.380 1_565 S
O357 C368 1.276 . S
O358 Eu323 2.432 . S
O358 C375 1.264 . S
O359 Eu312 2.339 1_655 S
O359 C375 1.254 1_565 S
O360 Eu312 2.563 . S
O360 C368 1.235 1_455 S
O361 Eu312 2.419 . S
O361 C376 1.249 . S
O362 Eu323 2.558 . S
O362 C387 1.257 . S
O363 Eu312 2.380 1_545 S
O363 Eu323 2.612 1_455 S
O363 C379 1.276 . S
O364 Eu312 2.432 . S
O364 C386 1.264 1_565 S
O365 Eu323 2.339 1_455 S
O365 C386 1.254 . S
O366 Eu323 2.563 1_455 S
O366 C379 1.235 . S
O367 Eu323 2.419 . S
O367 C387 1.249 . S
C368 O357 1.276 . S
C368 O360 1.235 1_655 S
C369 C371 1.393 . S
C369 C373 1.395 . S
C369 C376 1.492 . S
C370 C371 1.392 . S
C370 C372 1.386 . S
C371 C369 1.393 . S
C371 C370 1.392 . S
C371 H388 0.930 1_455 S
C372 C370 1.386 . S
C372 C374 1.395 . S
C372 H389 0.930 . S
C373 C369 1.395 . S
C373 C374 1.379 . S
C373 H390 0.930 . S
C374 C372 1.395 . S
C374 C373 1.379 . S
C374 H391 0.930 . S
C375 O358 1.264 . S
C375 O359 1.254 1_545 S
C376 Eu312 2.848 . S
C376 O356 1.257 . S
C376 O361 1.249 . S
C376 C369 1.492 . S
C377 H342 0.931 . S
C377 C355 1.420 . S
C377 C378 1.351 . S
C378 H340 0.930 . S
C378 C346 1.423 . S
C378 C377 1.351 . S
C379 O363 1.276 . S
C379 O366 1.235 . S
C380 C381 1.393 . S
C380 C384 1.395 . S
C380 C387 1.492 . S
C381 C380 1.393 . S
C381 C382 1.392 . S
C381 H392 0.930 1_655 S
C382 C381 1.392 . S
C382 C383 1.386 . S
C383 C382 1.386 . S
C383 C385 1.395 . S
C383 H393 0.930 . S
C384 C380 1.395 . S
C384 C385 1.379 . S
C384 H394 0.930 . S
C385 C383 1.395 . S
C385 C384 1.379 . S
C385 H395 0.930 . S
C386 O364 1.264 1_545 S
C386 O365 1.254 . S
C387 Eu323 2.848 . S
C387 O362 1.257 . S
C387 O367 1.249 . S
C387 C380 1.492 . S
H388 C371 0.930 1_655 S
H389 C372 0.930 . S
H390 C373 0.930 . S
H391 C374 0.930 . S
H392 C381 0.930 1_455 S
H393 C383 0.930 . S
H394 C384 0.930 . S
H395 C385 0.930 . S
Eu396 N427 2.657 . S
Eu396 N434 2.609 . S
Eu396 O440 2.558 . S
Eu396 O441 2.612 1_545 S
Eu396 O443 2.339 1_545 S
Eu396 O444 2.563 . S
Eu396 O445 2.419 . S
Eu396 O447 2.380 . S
Eu396 O448 2.432 . S
Eu396 C460 2.848 . S
C397 C400 1.429 . S
C397 C401 1.411 . S
C397 N404 1.377 . S
C398 C400 1.420 . S
C398 C402 1.423 . S
C398 C410 1.392 . S
C399 C401 1.420 . S
C399 C402 1.351 . S
C399 H422 0.931 . S
C400 C397 1.429 . S
C400 C398 1.420 . S
C400 N408 1.362 . S
C401 C397 1.411 . S
C401 C399 1.420 . S
C401 C406 1.395 . S
C402 C398 1.423 . S
C402 C399 1.351 . S
C402 H414 0.930 . S
C403 C405 1.400 . S
C403 C406 1.386 . S
C403 H415 0.930 . S
N404 C397 1.377 . S
N404 C405 1.321 . S
N404 Eu407 2.609 . S
C405 C403 1.400 . S
C405 N404 1.321 . S
C405 H412 0.930 . S
C406 C401 1.395 . S
C406 C403 1.386 . S
C406 H425 0.930 . S
Eu407 N404 2.609 . S
Eu407 N408 2.657 . S
Eu407 O441 2.380 . S
Eu407 O442 2.432 . S
Eu407 O446 2.558 . S
Eu407 O447 2.612 1_565 S
Eu407 O449 2.339 1_565 S
Eu407 O450 2.563 1_565 S
Eu407 O451 2.419 . S
Eu407 C471 2.848 . S
N408 C400 1.362 . S
N408 Eu407 2.657 . S
N408 C409 1.334 1_565 S
C409 N408 1.334 1_545 S
C409 C411 1.413 . S
C409 H416 0.929 . S
C410 C398 1.392 . S
C410 C411 1.367 1_565 S
C410 H418 0.930 . S
C411 C409 1.413 . S
C411 C410 1.367 1_545 S
C411 H413 0.930 . S
H412 C405 0.930 . S
H413 C411 0.930 . S
H414 C402 0.930 . S
H415 C403 0.930 . S
H416 C409 0.929 . S
H417 C431 0.930 1_565 S
H418 C410 0.930 . S
H419 C437 0.930 . S
H420 C428 0.929 1_565 S
H421 C435 0.930 . S
H422 C399 0.931 . S
H423 C429 0.930 . S
H424 C462 0.930 . S
H425 C406 0.930 . S
H426 C461 0.931 . S
N427 Eu396 2.657 . S
N427 C428 1.334 . S
N427 C432 1.362 . S
C428 H420 0.929 1_545 S
C428 N427 1.334 . S
C428 C431 1.413 . S
C429 H423 0.930 . S
C429 C430 1.392 . S
C429 C431 1.367 . S
C430 C429 1.392 . S
C430 C432 1.420 . S
C430 C462 1.423 . S
C431 H417 0.930 1_545 S
C431 C428 1.413 . S
C431 C429 1.367 . S
C432 N427 1.362 . S
C432 C430 1.420 . S
C432 C436 1.429 . S
H433 C438 0.930 . S
N434 Eu396 2.609 . S
N434 C436 1.377 . S
N434 C437 1.321 . S
C435 H421 0.930 . S
C435 C437 1.400 . S
C435 C438 1.386 . S
C436 C432 1.429 . S
C436 N434 1.377 . S
C436 C439 1.411 . S
C437 H419 0.930 . S
C437 N434 1.321 . S
C437 C435 1.400 . S
C438 H433 0.930 . S
C438 C435 1.386 . S
C438 C439 1.395 . S
C439 C436 1.411 . S
C439 C438 1.395 . S
C439 C461 1.420 . S
O440 Eu396 2.558 . S
O440 C460 1.257 . S
O441 Eu396 2.612 1_565 S
O441 Eu407 2.380 . S
O441 C452 1.276 . S
O442 Eu407 2.432 . S
O442 C459 1.264 . S
O443 Eu396 2.339 1_565 S
O443 C459 1.254 . S
O444 Eu396 2.563 . S
O444 C452 1.235 1_545 S
O445 Eu396 2.419 . S
O445 C460 1.249 . S
O446 Eu407 2.558 . S
O446 C471 1.257 . S
O447 Eu396 2.380 . S
O447 Eu407 2.612 1_545 S
O447 C463 1.276 . S
O448 Eu396 2.432 . S
O448 C470 1.264 . S
O449 Eu407 2.339 1_545 S
O449 C470 1.254 . S
O450 Eu407 2.563 1_545 S
O450 C463 1.235 . S
O451 Eu407 2.419 . S
O451 C471 1.249 . S
C452 O441 1.276 . S
C452 O444 1.235 1_565 S
C453 C455 1.393 . S
C453 C457 1.395 . S
C453 C460 1.492 . S
C454 C455 1.392 . S
C454 C456 1.386 . S
C455 C453 1.393 . S
C455 C454 1.392 . S
C455 H472 0.945 . S
C456 C454 1.386 . S
C456 C458 1.395 . S
C456 H473 0.930 . S
C457 C453 1.395 . S
C457 C458 1.379 . S
C457 H474 0.930 . S
C458 C456 1.395 . S
C458 C457 1.379 . S
C458 H475 0.930 . S
C459 O442 1.264 . S
C459 O443 1.254 . S
C460 Eu396 2.848 . S
C460 O440 1.257 . S
C460 O445 1.249 . S
C460 C453 1.492 . S
C461 H426 0.931 . S
C461 C439 1.420 . S
C461 C462 1.351 . S
C462 H424 0.930 . S
C462 C430 1.423 . S
C462 C461 1.351 . S
C463 O447 1.276 . S
C463 O450 1.235 . S
C464 C465 1.440 . S
C464 C468 1.395 . S
C464 C471 1.492 . S
C465 C464 1.440 . S
C465 C466 1.397 . S
C465 H476 0.879 1_565 S
C466 C465 1.397 . S
C466 C467 1.386 . S
C467 C466 1.386 . S
C467 C469 1.395 . S
C467 H477 0.930 . S
C468 C464 1.395 . S
C468 C469 1.379 . S
C468 H478 0.930 . S
C469 C467 1.395 . S
C469 C468 1.379 . S
C469 H479 0.930 . S
C470 O448 1.264 . S
C470 O449 1.254 . S
C471 Eu407 2.848 . S
C471 O446 1.257 . S
C471 O451 1.249 . S
C471 C464 1.492 . S
H472 C455 0.945 . S
H473 C456 0.930 . S
H474 C457 0.930 . S
H475 C458 0.930 . S
H476 C465 0.879 1_545 S
H477 C467 0.930 . S
H478 C468 0.930 . S
H479 C469 0.930 . S
Eu480 N511 2.657 . S
Eu480 N518 2.609 . S
Eu480 O524 2.558 . S
Eu480 O525 2.612 . S
Eu480 O527 2.339 . S
Eu480 O528 2.563 . S
Eu480 O529 2.419 . S
Eu480 O531 2.380 . S
Eu480 O532 2.432 . S
Eu480 C544 2.848 . S
C481 C484 1.429 . S
C481 C485 1.411 . S
C481 N488 1.377 . S
C482 C484 1.420 . S
C482 C486 1.423 . S
C482 C494 1.392 . S
C483 C485 1.420 . S
C483 C486 1.351 . S
C483 H506 0.931 . S
C484 C481 1.429 . S
C484 C482 1.420 . S
C484 N492 1.362 . S
C485 C481 1.411 . S
C485 C483 1.420 . S
C485 C490 1.395 . S
C486 C482 1.423 . S
C486 C483 1.351 . S
C486 H498 0.930 . S
C487 C489 1.400 . S
C487 C490 1.386 . S
C487 H499 0.930 . S
N488 C481 1.377 . S
N488 C489 1.321 . S
N488 Eu491 2.609 . S
C489 C487 1.400 . S
C489 N488 1.321 . S
C489 H496 0.930 . S
C490 C485 1.395 . S
C490 C487 1.386 . S
C490 H509 0.930 . S
Eu491 N488 2.609 . S
Eu491 N492 2.657 . S
Eu491 O525 2.380 . S
Eu491 O526 2.432 . S
Eu491 O530 2.558 . S
Eu491 O531 2.612 . S
Eu491 O533 2.339 . S
Eu491 O534 2.563 . S
Eu491 O535 2.419 . S
Eu491 C555 2.848 . S
N492 C484 1.362 . S
N492 Eu491 2.657 . S
N492 C493 1.334 . S
C493 N492 1.334 . S
C493 C495 1.413 . S
C493 H500 0.929 . S
C494 C482 1.392 . S
C494 C495 1.367 . S
C494 H502 0.930 . S
C495 C493 1.413 . S
C495 C494 1.367 . S
C495 H497 0.930 . S
H496 C489 0.930 . S
H497 C495 0.930 . S
H498 C486 0.930 . S
H499 C487 0.930 . S
H500 C493 0.929 . S
H501 C515 0.930 . S
H502 C494 0.930 . S
H503 C521 0.930 . S
H504 C512 0.929 . S
H505 C519 0.930 . S
H506 C483 0.931 . S
H507 C513 0.930 . S
H508 C546 0.930 . S
H509 C490 0.930 . S
H510 C545 0.931 . S
N511 Eu480 2.657 . S
N511 C512 1.334 . S
N511 C516 1.362 . S
C512 H504 0.929 . S
C512 N511 1.334 . S
C512 C515 1.413 . S
C513 H507 0.930 . S
C513 C514 1.392 . S
C513 C515 1.367 . S
C514 C513 1.392 . S
C514 C516 1.420 . S
C514 C546 1.423 . S
C515 H501 0.930 . S
C515 C512 1.413 . S
C515 C513 1.367 . S
C516 N511 1.362 . S
C516 C514 1.420 . S
C516 C520 1.429 . S
H517 C522 0.930 . S
N518 Eu480 2.609 . S
N518 C520 1.377 . S
N518 C521 1.321 . S
C519 H505 0.930 . S
C519 C521 1.400 . S
C519 C522 1.386 . S
C520 C516 1.429 . S
C520 N518 1.377 . S
C520 C523 1.411 . S
C521 H503 0.930 . S
C521 N518 1.321 . S
C521 C519 1.400 . S
C522 H517 0.930 . S
C522 C519 1.386 . S
C522 C523 1.395 . S
C523 C520 1.411 . S
C523 C522 1.395 . S
C523 C545 1.420 . S
O524 Eu480 2.558 . S
O524 C544 1.257 . S
O525 Eu480 2.612 . S
O525 Eu491 2.380 . S
O525 C536 1.276 . S
O526 Eu491 2.432 . S
O526 C543 1.264 . S
O527 Eu480 2.339 . S
O527 C543 1.254 . S
O528 Eu480 2.563 . S
O528 C536 1.235 . S
O529 Eu480 2.419 . S
O529 C544 1.249 . S
O530 Eu491 2.558 . S
O530 C555 1.257 . S
O531 Eu480 2.380 . S
O531 Eu491 2.612 . S
O531 C547 1.276 . S
O532 Eu480 2.432 . S
O532 C554 1.264 . S
O533 Eu491 2.339 . S
O533 C554 1.254 . S
O534 Eu491 2.563 . S
O534 C547 1.235 . S
O535 Eu491 2.419 . S
O535 C555 1.249 . S
C536 O525 1.276 . S
C536 O528 1.235 . S
C537 C539 1.393 . S
C537 C541 1.395 . S
C537 C544 1.492 . S
C538 C539 1.392 . S
C538 C540 1.386 . S
C539 C537 1.393 . S
C539 C538 1.392 . S
C539 H556 0.930 . S
C540 C538 1.386 . S
C540 C542 1.395 . S
C540 H557 0.930 . S
C541 C537 1.395 . S
C541 C542 1.379 . S
C541 H558 0.930 . S
C542 C540 1.395 . S
C542 C541 1.379 . S
C542 H559 0.930 . S
C543 O526 1.264 . S
C543 O527 1.254 . S
C544 Eu480 2.848 . S
C544 O524 1.257 . S
C544 O529 1.249 . S
C544 C537 1.492 . S
C545 H510 0.931 . S
C545 C523 1.420 . S
C545 C546 1.351 . S
C546 H508 0.930 . S
C546 C514 1.423 . S
C546 C545 1.351 . S
C547 O531 1.276 . S
C547 O534 1.235 . S
C548 C549 1.393 . S
C548 C552 1.395 . S
C548 C555 1.492 . S
C549 C548 1.393 . S
C549 C550 1.392 . S
C549 H560 0.930 . S
C550 C549 1.392 . S
C550 C551 1.386 . S
C551 C550 1.386 . S
C551 C553 1.395 . S
C551 H561 0.930 . S
C552 C548 1.395 . S
C552 C553 1.379 . S
C552 H562 0.930 . S
C553 C551 1.395 . S
C553 C552 1.379 . S
C553 H563 0.930 . S
C554 O532 1.264 . S
C554 O533 1.254 . S
C555 Eu491 2.848 . S
C555 O530 1.257 . S
C555 O535 1.249 . S
C555 C548 1.492 . S
H556 C539 0.930 . S
H557 C540 0.930 . S
H558 C541 0.930 . S
H559 C542 0.930 . S
H560 C549 0.930 . S
H561 C551 0.930 . S
H562 C552 0.930 . S
H563 C553 0.930 . S
Eu564 N595 2.657 . S
Eu564 N602 2.609 . S
Eu564 O608 2.558 . S
Eu564 O609 2.612 . S
Eu564 O611 2.339 . S
Eu564 O612 2.563 . S
Eu564 O613 2.419 . S
Eu564 O615 2.413 . S
Eu564 O616 2.432 1_455 S
Eu564 C628 2.848 . S
C565 C568 1.429 . S
C565 C569 1.411 . S
C565 N572 1.377 . S
C566 C568 1.420 . S
C566 C570 1.423 . S
C566 C578 1.392 . S
C567 C569 1.420 . S
C567 C570 1.351 . S
C567 H590 0.931 . S
C568 C565 1.429 . S
C568 C566 1.420 . S
C568 N576 1.362 . S
C569 C565 1.411 . S
C569 C567 1.420 . S
C569 C574 1.395 . S
C570 C566 1.423 . S
C570 C567 1.351 . S
C570 H582 0.930 . S
C571 C573 1.400 . S
C571 C574 1.386 1_455 S
C571 H583 0.930 . S
N572 C565 1.377 . S
N572 C573 1.321 1_655 S
N572 Eu575 2.609 . S
C573 C571 1.400 . S
C573 N572 1.321 1_455 S
C573 H580 0.930 . S
C574 C569 1.395 . S
C574 C571 1.386 1_655 S
C574 H593 0.930 . S
Eu575 N572 2.609 . S
Eu575 N576 2.657 . S
Eu575 O609 2.380 1_655 S
Eu575 O610 2.432 1_655 S
Eu575 O614 2.558 . S
Eu575 O615 2.593 1_655 S
Eu575 O617 2.339 . S
Eu575 O618 2.563 . S
Eu575 O619 2.419 . S
Eu575 C639 2.848 . S
N576 C568 1.362 . S
N576 Eu575 2.657 . S
N576 C577 1.334 . S
C577 N576 1.334 . S
C577 C579 1.413 . S
C577 H584 0.929 . S
C578 C566 1.392 . S
C578 C579 1.367 . S
C578 H586 0.930 . S
C579 C577 1.413 . S
C579 C578 1.367 . S
C579 H581 0.930 . S
H580 C573 0.930 . S
H581 C579 0.930 . S
H582 C570 0.930 . S
H583 C571 0.930 . S
H584 C577 0.929 . S
H585 C599 0.930 . S
H586 C578 0.930 . S
H587 C605 0.930 1_655 S
H588 C596 0.929 . S
H589 C603 0.930 1_655 S
H590 C567 0.931 . S
H591 C597 0.930 . S
H592 C630 0.930 . S
H593 C574 0.930 . S
H594 C629 0.931 . S
N595 Eu564 2.657 . S
N595 C596 1.334 . S
N595 C600 1.362 . S
C596 H588 0.929 . S
C596 N595 1.334 . S
C596 C599 1.413 . S
C597 H591 0.930 . S
C597 C598 1.392 . S
C597 C599 1.367 . S
C598 C597 1.392 . S
C598 C600 1.420 . S
C598 C630 1.423 . S
C599 H585 0.930 . S
C599 C596 1.413 . S
C599 C597 1.367 . S
C600 N595 1.362 . S
C600 C598 1.420 . S
C600 C604 1.429 . S
H601 C606 0.930 . S
N602 Eu564 2.609 . S
N602 C604 1.377 . S
N602 C605 1.321 . S
C603 H589 0.930 1_455 S
C603 C605 1.400 . S
C603 C606 1.386 . S
C604 C600 1.429 . S
C604 N602 1.377 . S
C604 C607 1.411 . S
C605 H587 0.930 1_455 S
C605 N602 1.321 . S
C605 C603 1.400 . S
C606 H601 0.930 . S
C606 C603 1.386 . S
C606 C607 1.395 . S
C607 C604 1.411 . S
C607 C606 1.395 . S
C607 C629 1.420 . S
O608 Eu564 2.558 . S
O608 C628 1.257 . S
O609 Eu564 2.612 . S
O609 Eu575 2.380 1_455 S
O609 C620 1.276 . S
O610 Eu575 2.432 1_455 S
O610 C627 1.264 . S
O611 Eu564 2.339 . S
O611 C627 1.254 . S
O612 Eu564 2.563 . S
O612 C620 1.235 . S
O613 Eu564 2.419 . S
O613 C628 1.249 . S
O614 Eu575 2.558 . S
O614 C639 1.257 . S
O615 Eu564 2.413 . S
O615 Eu575 2.593 1_455 S
O615 C631 1.255 1_455 S
O616 Eu564 2.432 1_655 S
O616 C638 1.264 . S
O617 Eu575 2.339 . S
O617 C638 1.254 . S
O618 Eu575 2.563 . S
O618 C631 1.235 . S
O619 Eu575 2.419 . S
O619 C639 1.249 . S
C620 O609 1.276 . S
C620 O612 1.235 . S
C621 C623 1.393 . S
C621 C625 1.395 . S
C621 C628 1.492 . S
C622 C623 1.392 . S
C622 C624 1.386 . S
C623 C621 1.393 . S
C623 C622 1.392 . S
C623 H640 0.930 . S
C624 C622 1.386 . S
C624 C626 1.395 . S
C624 H641 0.930 . S
C625 C621 1.395 . S
C625 C626 1.379 . S
C625 H642 0.930 . S
C626 C624 1.395 . S
C626 C625 1.379 . S
C626 H643 0.930 . S
C627 O610 1.264 . S
C627 O611 1.254 . S
C628 Eu564 2.848 . S
C628 O608 1.257 . S
C628 O613 1.249 . S
C628 C621 1.492 . S
C629 H594 0.931 . S
C629 C607 1.420 . S
C629 C630 1.351 . S
C630 H592 0.930 . S
C630 C598 1.423 . S
C630 C629 1.351 . S
C631 O615 1.255 1_655 S
C631 O618 1.235 . S
C632 C633 1.393 . S
C632 C636 1.395 . S
C632 C639 1.492 . S
C633 C632 1.393 . S
C633 C634 1.392 . S
C633 H644 0.930 . S
C634 C633 1.392 . S
C634 C635 1.386 . S
C635 C634 1.386 . S
C635 C637 1.395 . S
C635 H645 0.930 . S
C636 C632 1.395 . S
C636 C637 1.379 . S
C636 H646 0.930 . S
C637 C635 1.395 . S
C637 C636 1.379 . S
C637 H647 0.930 . S
C638 O616 1.264 . S
C638 O617 1.254 . S
C639 Eu575 2.848 . S
C639 O614 1.257 . S
C639 O619 1.249 . S
C639 C632 1.492 . S
H640 C623 0.930 . S
H641 C624 0.930 . S
H642 C625 0.930 . S
H643 C626 0.930 . S
H644 C633 0.930 . S
H645 C635 0.930 . S
H646 C636 0.930 . S
H647 C637 0.930 . S
C648 C649 1.349 . S
C648 C650 1.327 . S
C648 H673 0.950 . S
C649 C648 1.349 . S
C649 C665 1.349 . S
C650 C648 1.327 . S
C650 C669 1.429 . S
C650 H674 0.950 . S
C651 C668 1.574 . S
C651 C670 1.368 . S
C651 H675 0.949 . S
H652 C656 0.949 . S
C653 C654 1.349 . S
C653 C655 1.327 . S
C653 H676 0.950 . S
C654 C653 1.349 . S
C654 C666 1.349 . S
C655 C653 1.327 . S
C655 C671 1.429 . S
C655 H677 0.950 . S
C656 H652 0.949 . S
C656 C664 1.574 . S
C656 C672 1.368 . S
H657 C665 0.950 . S
H658 C663 0.950 . S
H659 C664 0.949 . S
H660 C666 0.950 . S
H661 C667 0.950 . S
H662 C668 0.949 . S
C663 H658 0.950 . S
C663 C665 1.327 . S
C663 C669 1.429 . S
C664 C656 1.574 . S
C664 H659 0.949 . S
C664 C670 1.368 . S
C665 C649 1.349 . S
C665 H657 0.950 . S
C665 C663 1.327 . S
C666 C654 1.349 . S
C666 H660 0.950 . S
C666 C667 1.327 . S
C667 H661 0.950 . S
C667 C666 1.327 . S
C667 C671 1.429 . S
C668 C651 1.574 . S
C668 H662 0.949 . S
C668 C672 1.368 . S
C669 C650 1.429 . S
C669 C663 1.429 . S
C669 C670 1.523 . S
C670 C651 1.368 . S
C670 C664 1.368 . S
C670 C669 1.523 . S
C671 C655 1.429 . S
C671 C667 1.429 . S
C671 C672 1.523 . S
C672 C656 1.368 . S
C672 C668 1.368 . S
C672 C671 1.523 . S
H673 C648 0.950 . S
H674 C650 0.950 . S
H675 C651 0.949 . S
H676 C653 0.950 . S
H677 C655 0.950 . S
C678 C679 1.349 . S
C678 C680 1.327 . S
C678 H703 0.950 . S
C679 C678 1.349 . S
C679 C695 1.349 . S
C680 C678 1.327 . S
C680 C699 1.429 . S
C680 H704 0.950 . S
C681 C698 1.574 . S
C681 C700 1.368 . S
C681 H705 0.949 . S
H682 C686 0.949 . S
C683 C684 1.349 . S
C683 C685 1.327 . S
C683 H706 0.950 . S
C684 C683 1.349 . S
C684 C696 1.349 . S
C685 C683 1.327 . S
C685 C701 1.429 . S
C685 H707 0.950 . S
C686 H682 0.949 . S
C686 C694 1.574 . S
C686 C702 1.368 . S
H687 C695 0.950 . S
H688 C693 0.950 . S
H689 C694 0.949 . S
H690 C696 0.950 . S
H691 C697 0.950 . S
H692 C698 0.949 . S
C693 H688 0.950 . S
C693 C695 1.327 . S
C693 C699 1.429 . S
C694 C686 1.574 . S
C694 H689 0.949 . S
C694 C700 1.368 . S
C695 C679 1.349 . S
C695 H687 0.950 . S
C695 C693 1.327 . S
C696 C684 1.349 . S
C696 H690 0.950 . S
C696 C697 1.327 . S
C697 H691 0.950 . S
C697 C696 1.327 . S
C697 C701 1.429 . S
C698 C681 1.574 . S
C698 H692 0.949 . S
C698 C702 1.368 . S
C699 C680 1.429 . S
C699 C693 1.429 . S
C699 C700 1.523 . S
C700 C681 1.368 . S
C700 C694 1.368 . S
C700 C699 1.523 . S
C701 C685 1.429 . S
C701 C697 1.429 . S
C701 C702 1.523 . S
C702 C686 1.368 . S
C702 C698 1.368 . S
C702 C701 1.523 . S
H703 C678 0.950 . S
H704 C680 0.950 . S
H705 C681 0.949 . S
H706 C683 0.950 . S
H707 C685 0.950 . S
C708 C709 1.349 . S
C708 C710 1.327 . S
C708 H733 0.950 . S
C709 C708 1.349 . S
C709 C725 1.349 . S
C710 C708 1.327 . S
C710 C729 1.429 . S
C710 H734 0.950 . S
C711 C728 1.574 . S
C711 C730 1.368 . S
C711 H735 0.949 . S
H712 C716 0.949 . S
C713 C714 1.349 . S
C713 C715 1.327 . S
C713 H736 0.950 . S
C714 C713 1.349 . S
C714 C726 1.349 . S
C715 C713 1.327 . S
C715 C731 1.429 . S
C715 H737 0.950 . S
C716 H712 0.949 . S
C716 C724 1.574 . S
C716 C732 1.368 . S
H717 C725 0.950 . S
H718 C723 0.950 . S
H719 C724 0.949 . S
H720 C726 0.950 . S
H721 C727 0.950 . S
H722 C728 0.949 . S
C723 H718 0.950 . S
C723 C725 1.327 . S
C723 C729 1.429 . S
C724 C716 1.574 . S
C724 H719 0.949 . S
C724 C730 1.368 . S
C725 C709 1.349 . S
C725 H717 0.950 . S
C725 C723 1.327 . S
C726 C714 1.349 . S
C726 H720 0.950 . S
C726 C727 1.327 . S
C727 H721 0.950 . S
C727 C726 1.327 . S
C727 C731 1.429 . S
C728 C711 1.574 . S
C728 H722 0.949 . S
C728 C732 1.368 . S
C729 C710 1.429 . S
C729 C723 1.429 . S
C729 C730 1.523 . S
C730 C711 1.368 . S
C730 C724 1.368 . S
C730 C729 1.523 . S
C731 C715 1.429 . S
C731 C727 1.429 . S
C731 C732 1.523 . S
C732 C716 1.368 . S
C732 C728 1.368 . S
C732 C731 1.523 . S
H733 C708 0.950 . S
H734 C710 0.950 . S
H735 C711 0.949 . S
H736 C713 0.950 . S
H737 C715 0.950 . S
C738 C739 1.349 . S
C738 C740 1.327 . S
C738 H763 0.950 . S
C739 C738 1.349 . S
C739 C755 1.349 . S
C740 C738 1.327 . S
C740 C759 1.429 . S
C740 H764 0.950 . S
C741 C758 1.574 . S
C741 C760 1.368 . S
C741 H765 0.949 . S
H742 C746 0.949 . S
C743 C744 1.349 . S
C743 C745 1.327 . S
C743 H766 0.950 . S
C744 C743 1.349 . S
C744 C756 1.349 . S
C745 C743 1.327 . S
C745 C761 1.429 . S
C745 H767 0.950 . S
C746 H742 0.949 . S
C746 C754 1.574 . S
C746 C762 1.368 . S
H747 C755 0.950 . S
H748 C753 0.950 . S
H749 C754 0.949 . S
H750 C756 0.950 1_655 S
H751 C757 0.950 . S
H752 C758 0.949 . S
C753 H748 0.950 . S
C753 C755 1.327 . S
C753 C759 1.429 . S
C754 C746 1.574 . S
C754 H749 0.949 . S
C754 C760 1.368 . S
C755 C739 1.349 . S
C755 H747 0.950 . S
C755 C753 1.327 . S
C756 C744 1.349 . S
C756 H750 0.950 1_455 S
C756 C757 1.327 . S
C757 H751 0.950 . S
C757 C756 1.327 . S
C757 C761 1.429 . S
C758 C741 1.574 . S
C758 H752 0.949 . S
C758 C762 1.368 . S
C759 C740 1.429 . S
C759 C753 1.429 . S
C759 C760 1.523 . S
C760 C741 1.368 . S
C760 C754 1.368 . S
C760 C759 1.523 . S
C761 C745 1.429 . S
C761 C757 1.429 . S
C761 C762 1.523 . S
C762 C746 1.368 . S
C762 C758 1.368 . S
C762 C761 1.523 . S
H763 C738 0.950 . S
H764 C740 0.950 . S
H765 C741 0.949 . S
H766 C743 0.950 . S
H767 C745 0.950 . S
C768 C769 1.349 . S
C768 C770 1.327 1_554 S
C768 H793 0.950 . S
C769 C768 1.349 . S
C769 C785 1.349 . S
C770 C768 1.327 1_556 S
C770 C789 1.429 . S
C770 H794 0.950 . S
C771 C788 1.574 . S
C771 C790 1.368 . S
C771 H795 0.949 . S
H772 C776 0.949 . S
C773 C774 1.349 . S
C773 C775 1.327 . S
C773 H796 0.950 . S
C774 C773 1.349 . S
C774 C786 1.349 . S
C775 C773 1.327 . S
C775 C791 1.429 . S
C775 H797 0.950 . S
C776 H772 0.949 . S
C776 C784 1.574 . S
C776 C792 1.368 . S
H777 C785 0.950 . S
H778 C783 0.950 . S
H779 C784 0.949 . S
H780 C786 0.950 1_545 S
H781 C787 0.950 . S
H782 C788 0.949 . S
C783 H778 0.950 . S
C783 C785 1.327 1_556 S
C783 C789 1.429 . S
C784 C776 1.574 . S
C784 H779 0.949 . S
C784 C790 1.368 . S
C785 C769 1.349 . S
C785 H777 0.950 . S
C785 C783 1.327 1_554 S
C786 C774 1.349 . S
C786 H780 0.950 1_565 S
C786 C787 1.327 . S
C787 H781 0.950 . S
C787 C786 1.327 . S
C787 C791 1.429 . S
C788 C771 1.574 . S
C788 H782 0.949 . S
C788 C792 1.368 . S
C789 C770 1.429 . S
C789 C783 1.429 . S
C789 C790 1.523 . S
C790 C771 1.368 . S
C790 C784 1.368 . S
C790 C789 1.523 . S
C791 C775 1.429 . S
C791 C787 1.429 . S
C791 C792 1.523 . S
C792 C776 1.368 . S
C792 C788 1.368 . S
C792 C791 1.523 . S
H793 C768 0.950 . S
H794 C770 0.950 . S
H795 C771 0.949 . S
H796 C773 0.950 . S
H797 C775 0.950 . S
C798 C799 1.349 1_556 S
C798 C800 1.327 . S
C798 H823 0.950 . S
C799 C798 1.349 1_554 S
C799 C815 1.349 . S
C800 C798 1.327 . S
C800 C819 1.429 . S
C800 H824 0.950 . S
C801 C818 1.574 . S
C801 C820 1.368 . S
C801 H825 0.949 . S
H802 C806 0.949 . S
C803 C804 1.349 . S
C803 C805 1.327 . S
C803 H826 0.950 . S
C804 C803 1.349 . S
C804 C816 1.349 . S
C805 C803 1.327 . S
C805 C821 1.429 . S
C805 H827 0.950 . S
C806 H802 0.949 . S
C806 C814 1.574 . S
C806 C822 1.368 . S
H807 C815 0.950 . S
H808 C813 0.950 . S
H809 C814 0.949 . S
H810 C816 0.950 . S
H811 C817 0.950 . S
H812 C818 0.949 . S
C813 H808 0.950 . S
C813 C815 1.327 . S
C813 C819 1.429 1_554 S
C814 C806 1.574 . S
C814 H809 0.949 . S
C814 C820 1.368 . S
C815 C799 1.349 . S
C815 H807 0.950 . S
C815 C813 1.327 . S
C816 C804 1.349 . S
C816 H810 0.950 . S
C816 C817 1.327 . S
C817 H811 0.950 . S
C817 C816 1.327 . S
C817 C821 1.429 . S
C818 C801 1.574 . S
C818 H812 0.949 . S
C818 C822 1.368 . S
C819 C800 1.429 . S
C819 C813 1.429 1_556 S
C819 C820 1.523 . S
C820 C801 1.368 . S
C820 C814 1.368 . S
C820 C819 1.523 . S
C821 C805 1.429 . S
C821 C817 1.429 . S
C821 C822 1.523 . S
C822 C806 1.368 . S
C822 C818 1.368 . S
C822 C821 1.523 . S
H823 C798 0.950 . S
H824 C800 0.950 . S
H825 C801 0.949 . S
H826 C803 0.950 . S
H827 C805 0.950 . S
C828 C829 1.349 1_556 S
C828 C830 1.327 . S
C828 H853 0.950 . S
C829 C828 1.349 1_554 S
C829 C845 1.349 . S
C830 C828 1.327 . S
C830 C849 1.429 . S
C830 H854 0.950 . S
C831 C848 1.574 . S
C831 C850 1.368 . S
C831 H855 0.949 . S
H832 C836 0.949 . S
C833 C834 1.349 . S
C833 C835 1.327 . S
C833 H856 0.950 . S
C834 C833 1.349 . S
C834 C846 1.349 . S
C835 C833 1.327 . S
C835 C851 1.429 . S
C835 H857 0.950 . S
C836 H832 0.949 . S
C836 C844 1.574 . S
C836 C852 1.368 . S
H837 C845 0.950 . S
H838 C843 0.949 1_554 S
H839 C844 0.949 . S
H840 C846 0.950 . S
H841 C847 0.950 . S
H842 C848 0.949 . S
C843 H838 0.949 1_556 S
C843 C845 1.327 1_556 S
C843 C849 1.429 . S
C844 C836 1.574 . S
C844 H839 0.949 . S
C844 C850 1.368 . S
C845 C829 1.349 . S
C845 H837 0.950 . S
C845 C843 1.327 1_554 S
C846 C834 1.349 . S
C846 H840 0.950 . S
C846 C847 1.327 . S
C847 H841 0.950 . S
C847 C846 1.327 . S
C847 C851 1.429 . S
C848 C831 1.574 . S
C848 H842 0.949 . S
C848 C852 1.368 . S
C849 C830 1.429 . S
C849 C843 1.429 . S
C849 C850 1.523 . S
C850 C831 1.368 . S
C850 C844 1.368 . S
C850 C849 1.523 . S
C851 C835 1.429 . S
C851 C847 1.429 . S
C851 C852 1.523 . S
C852 C836 1.368 . S
C852 C848 1.368 . S
C852 C851 1.523 . S
H853 C828 0.950 . S
H854 C830 0.950 . S
H855 C831 0.949 . S
H856 C833 0.950 . S
H857 C835 0.950 . S
C858 C859 1.349 . S
C858 C860 1.327 1_554 S
C858 H883 0.950 . S
C859 C858 1.349 . S
C859 C875 1.349 . S
C860 C858 1.327 1_556 S
C860 C879 1.429 . S
C860 H884 0.950 . S
C861 C878 1.574 . S
C861 C880 1.368 . S
C861 H885 0.949 . S
H862 C866 0.949 . S
C863 C864 1.349 . S
C863 C865 1.327 . S
C863 H886 0.950 . S
C864 C863 1.349 . S
C864 C876 1.349 . S
C865 C863 1.327 . S
C865 C881 1.429 . S
C865 H887 0.950 . S
C866 H862 0.949 . S
C866 C874 1.574 . S
C866 C882 1.368 . S
H867 C875 0.950 . S
H868 C873 0.950 . S
H869 C874 0.949 . S
H870 C876 0.950 1_455 S
H871 C877 0.950 . S
H872 C878 0.949 . S
C873 H868 0.950 . S
C873 C875 1.327 1_556 S
C873 C879 1.429 . S
C874 C866 1.574 . S
C874 H869 0.949 . S
C874 C880 1.368 . S
C875 C859 1.349 . S
C875 H867 0.950 . S
C875 C873 1.327 1_554 S
C876 C864 1.349 . S
C876 H870 0.950 1_655 S
C876 C877 1.327 . S
C877 H871 0.950 . S
C877 C876 1.327 . S
C877 C881 1.429 . S
C878 C861 1.574 . S
C878 H872 0.949 . S
C878 C882 1.368 . S
C879 C860 1.429 . S
C879 C873 1.429 . S
C879 C880 1.523 . S
C880 C861 1.368 . S
C880 C874 1.368 . S
C880 C879 1.523 . S
C881 C865 1.429 . S
C881 C877 1.429 . S
C881 C882 1.523 . S
C882 C866 1.368 . S
C882 C878 1.368 . S
C882 C881 1.523 . S
H883 C858 0.950 . S
H884 C860 0.950 . S
H885 C861 0.949 . S
H886 C863 0.950 . S
H887 C865 0.950 . S
C888 C889 1.349 . S
C888 C890 1.327 . S
C888 H913 0.950 . S
C889 C888 1.349 . S
C889 C905 1.349 . S
C890 C888 1.327 . S
C890 C909 1.429 . S
C890 H914 0.950 . S
C891 C908 1.574 . S
C891 C910 1.368 . S
C891 H915 0.949 . S
H892 C896 0.949 . S
C893 C894 1.349 . S
C893 C895 1.327 . S
C893 H916 0.950 . S
C894 C893 1.349 . S
C894 C906 1.349 . S
C895 C893 1.327 . S
C895 C911 1.429 . S
C895 H917 0.950 . S
C896 H892 0.949 . S
C896 C904 1.574 . S
C896 C912 1.368 . S
H897 C905 0.950 . S
H898 C903 0.950 . S
H899 C904 0.949 . S
H900 C906 0.927 1_655 S
H901 C907 0.950 . S
H902 C908 0.949 . S
C903 H898 0.950 . S
C903 C905 1.327 . S
C903 C909 1.429 . S
C904 C896 1.574 . S
C904 H899 0.949 . S
C904 C910 1.368 . S
C905 C889 1.349 . S
C905 H897 0.950 . S
C905 C903 1.327 . S
C906 C894 1.349 . S
C906 H900 0.927 1_455 S
C906 C907 1.327 . S
C907 H901 0.950 . S
C907 C906 1.327 . S
C907 C911 1.429 . S
C908 C891 1.574 . S
C908 H902 0.949 . S
C908 C912 1.368 . S
C909 C890 1.429 . S
C909 C903 1.429 . S
C909 C910 1.523 . S
C910 C891 1.368 . S
C910 C904 1.368 . S
C910 C909 1.523 . S
C911 C895 1.429 . S
C911 C907 1.429 . S
C911 C912 1.523 . S
C912 C896 1.368 . S
C912 C908 1.368 . S
C912 C911 1.523 . S
H913 C888 0.950 . S
H914 C890 0.950 . S
H915 C891 0.949 . S
H916 C893 0.950 . S
H917 C895 0.950 . S
C918 C919 1.349 . S
C918 C920 1.327 . S
C918 H943 0.950 . S
C919 C918 1.349 . S
C919 C935 1.349 . S
C920 C918 1.327 . S
C920 C939 1.429 . S
C920 H944 0.950 . S
C921 C938 1.574 . S
C921 C940 1.368 . S
C921 H945 0.949 . S
H922 C926 0.949 . S
C923 C924 1.349 . S
C923 C925 1.327 . S
C923 H946 0.950 1_545 S
C924 C923 1.349 . S
C924 C936 1.349 . S
C925 C923 1.327 . S
C925 C941 1.429 . S
C925 H947 0.950 . S
C926 H922 0.949 . S
C926 C934 1.574 . S
C926 C942 1.368 . S
H927 C935 0.950 . S
H928 C933 0.950 . S
H929 C934 0.949 . S
H930 C936 0.950 . S
H931 C937 0.950 . S
H932 C938 0.949 . S
C933 H928 0.950 . S
C933 C935 1.327 . S
C933 C939 1.429 . S
C934 C926 1.574 . S
C934 H929 0.949 . S
C934 C940 1.368 . S
C935 C919 1.349 . S
C935 H927 0.950 . S
C935 C933 1.327 . S
C936 C924 1.349 . S
C936 H930 0.950 . S
C936 C937 1.327 . S
C937 H931 0.950 . S
C937 C936 1.327 . S
C937 C941 1.429 . S
C938 C921 1.574 . S
C938 H932 0.949 . S
C938 C942 1.368 . S
C939 C920 1.429 . S
C939 C933 1.429 . S
C939 C940 1.523 . S
C940 C921 1.368 . S
C940 C934 1.368 . S
C940 C939 1.523 . S
C941 C925 1.429 . S
C941 C937 1.429 . S
C941 C942 1.523 . S
C942 C926 1.368 . S
C942 C938 1.368 . S
C942 C941 1.523 . S
H943 C918 0.950 . S
H944 C920 0.950 . S
H945 C921 0.949 . S
H946 C923 0.950 1_565 S
H947 C925 0.950 . S
C948 C949 1.349 . S
C948 C950 1.327 . S
C948 H973 0.950 . S
C949 C948 1.349 . S
C949 C965 1.349 . S
C950 C948 1.327 . S
C950 C969 1.429 . S
C950 H974 0.950 . S
C951 C968 1.574 . S
C951 C970 1.368 . S
C951 H975 0.949 . S
H952 C956 0.949 . S
C953 C954 1.349 . S
C953 C955 1.327 . S
C953 H976 0.950 . S
C954 C953 1.349 . S
C954 C966 1.349 . S
C955 C953 1.327 . S
C955 C971 1.429 . S
C955 H977 0.950 . S
C956 H952 0.949 . S
C956 C964 1.574 . S
C956 C972 1.368 . S
H957 C965 0.950 . S
H958 C963 0.950 . S
H959 C964 0.949 . S
H960 C966 0.950 . S
H961 C967 0.950 . S
H962 C968 0.949 . S
C963 H958 0.950 . S
C963 C965 1.327 . S
C963 C969 1.429 . S
C964 C956 1.574 . S
C964 H959 0.949 . S
C964 C970 1.368 . S
C965 C949 1.349 . S
C965 H957 0.950 . S
C965 C963 1.327 . S
C966 C954 1.349 . S
C966 H960 0.950 . S
C966 C967 1.327 . S
C967 H961 0.950 . S
C967 C966 1.327 . S
C967 C971 1.429 . S
C968 C951 1.574 . S
C968 H962 0.949 . S
C968 C972 1.368 . S
C969 C950 1.429 . S
C969 C963 1.429 . S
C969 C970 1.523 . S
C970 C951 1.368 . S
C970 C964 1.368 . S
C970 C969 1.523 . S
C971 C955 1.429 . S
C971 C967 1.429 . S
C971 C972 1.523 . S
C972 C956 1.368 . S
C972 C968 1.368 . S
C972 C971 1.523 . S
H973 C948 0.950 . S
H974 C950 0.950 . S
H975 C951 0.949 . S
H976 C953 0.950 . S
H977 C955 0.950 . S
C978 C979 1.349 . S
C978 C980 1.327 . S
C978 H1003 0.950 . S
C979 C978 1.349 . S
C979 C995 1.349 . S
C980 C978 1.327 . S
C980 C999 1.429 . S
C980 H1004 0.950 . S
C981 C998 1.574 . S
C981 C1000 1.368 . S
C981 H1005 0.949 . S
H982 C986 0.949 . S
C983 C984 1.349 . S
C983 C985 1.327 . S
C983 H1006 0.950 . S
C984 C983 1.349 . S
C984 C996 1.349 . S
C985 C983 1.327 . S
C985 C1001 1.429 . S
C985 H1007 0.950 . S
C986 H982 0.949 . S
C986 C994 1.574 . S
C986 C1002 1.368 . S
H987 C995 0.950 . S
H988 C993 0.950 . S
H989 C994 0.949 . S
H990 C996 0.950 . S
H991 C997 0.950 . S
H992 C998 0.949 . S
C993 H988 0.950 . S
C993 C995 1.327 . S
C993 C999 1.429 . S
C994 C986 1.574 . S
C994 H989 0.949 . S
C994 C1000 1.368 . S
C995 C979 1.349 . S
C995 H987 0.950 . S
C995 C993 1.327 . S
C996 C984 1.349 . S
C996 H990 0.950 . S
C996 C997 1.327 . S
C997 H991 0.950 . S
C997 C996 1.327 . S
C997 C1001 1.429 . S
C998 C981 1.574 . S
C998 H992 0.949 . S
C998 C1002 1.368 . S
C999 C980 1.429 . S
C999 C993 1.429 . S
C999 C1000 1.523 . S
C1000 C981 1.368 . S
C1000 C994 1.368 . S
C1000 C999 1.523 . S
C1001 C985 1.429 . S
C1001 C997 1.429 . S
C1001 C1002 1.523 . S
C1002 C986 1.368 . S
C1002 C998 1.368 . S
C1002 C1001 1.523 . S
H1003 C978 0.950 . S
H1004 C980 0.950 . S
H1005 C981 0.949 . S
H1006 C983 0.950 . S
H1007 C985 0.950 . S
C1008 C1009 1.349 . S
C1008 C1010 1.327 . S
C1008 H1033 0.950 1_556 S
C1009 C1008 1.349 . S
C1009 C1025 1.349 . S
C1010 C1008 1.327 . S
C1010 C1029 1.429 . S
C1010 H1034 0.950 . S
C1011 C1028 1.574 . S
C1011 C1030 1.368 . S
C1011 H1035 0.949 . S
H1012 C1016 0.949 . S
C1013 C1014 1.349 1_655 S
C1013 C1015 1.327 . S
C1013 H1036 0.950 . S
C1014 C1013 1.349 1_455 S
C1014 C1026 1.349 . S
C1015 C1013 1.327 . S
C1015 C1031 1.429 . S
C1015 H1037 0.950 . S
C1016 H1012 0.949 . S
C1016 C1024 1.574 . S
C1016 C1032 1.368 . S
H1017 C1025 0.950 . S
H1018 C1023 0.950 . S
H1019 C1024 0.949 . S
H1020 C1026 0.950 . S
H1021 C1027 0.950 . S
H1022 C1028 0.949 . S
C1023 H1018 0.950 . S
C1023 C1025 1.327 . S
C1023 C1029 1.429 . S
C1024 C1016 1.574 . S
C1024 H1019 0.949 . S
C1024 C1030 1.368 . S
C1025 C1009 1.349 . S
C1025 H1017 0.950 . S
C1025 C1023 1.327 . S
C1026 C1014 1.349 . S
C1026 H1020 0.950 . S
C1026 C1027 1.327 . S
C1027 H1021 0.950 . S
C1027 C1026 1.327 . S
C1027 C1031 1.429 1_455 S
C1028 C1011 1.574 . S
C1028 H1022 0.949 . S
C1028 C1032 1.368 . S
C1029 C1010 1.429 . S
C1029 C1023 1.429 . S
C1029 C1030 1.523 . S
C1030 C1011 1.368 . S
C1030 C1024 1.368 . S
C1030 C1029 1.523 . S
C1031 C1015 1.429 . S
C1031 C1027 1.429 1_655 S
C1031 C1032 1.523 . S
C1032 C1016 1.368 . S
C1032 C1028 1.368 . S
C1032 C1031 1.523 . S
H1033 C1008 0.950 1_554 S
H1034 C1010 0.950 . S
H1035 C1011 0.949 . S
H1036 C1013 0.950 . S
H1037 C1015 0.950 . S
C1038 C1039 1.349 . S
C1038 C1040 1.327 . S
C1038 H1063 0.950 . S
C1039 C1038 1.349 . S
C1039 C1055 1.349 . S
C1040 C1038 1.327 . S
C1040 C1059 1.429 . S
C1040 H1064 0.950 . S
C1041 C1058 1.574 . S
C1041 C1060 1.368 . S
C1041 H1065 0.949 . S
H1042 C1046 0.949 . S
C1043 C1044 1.349 . S
C1043 C1045 1.327 . S
C1043 H1066 0.950 . S
C1044 C1043 1.349 . S
C1044 C1056 1.349 1_545 S
C1045 C1043 1.327 . S
C1045 C1061 1.429 1_545 S
C1045 H1067 0.950 . S
C1046 H1042 0.949 . S
C1046 C1054 1.574 . S
C1046 C1062 1.368 . S
H1047 C1055 0.944 1_554 S
H1048 C1053 0.950 . S
H1049 C1054 0.949 . S
H1050 C1056 0.950 . S
H1051 C1057 0.950 . S
H1052 C1058 0.949 1_545 S
C1053 H1048 0.950 . S
C1053 C1055 1.327 . S
C1053 C1059 1.429 . S
C1054 C1046 1.574 . S
C1054 H1049 0.949 . S
C1054 C1060 1.368 . S
C1055 C1039 1.349 . S
C1055 H1047 0.944 1_556 S
C1055 C1053 1.327 . S
C1056 C1044 1.349 1_565 S
C1056 H1050 0.950 . S
C1056 C1057 1.327 . S
C1057 H1051 0.950 . S
C1057 C1056 1.327 . S
C1057 C1061 1.429 . S
C1058 C1041 1.574 . S
C1058 H1052 0.949 1_565 S
C1058 C1062 1.368 . S
C1059 C1040 1.429 . S
C1059 C1053 1.429 . S
C1059 C1060 1.523 . S
C1060 C1041 1.368 . S
C1060 C1054 1.368 . S
C1060 C1059 1.523 . S
C1061 C1045 1.429 1_565 S
C1061 C1057 1.429 . S
C1061 C1062 1.523 . S
C1062 C1046 1.368 . S
C1062 C1058 1.368 . S
C1062 C1061 1.523 . S
H1063 C1038 0.950 . S
H1064 C1040 0.950 . S
H1065 C1041 0.949 . S
H1066 C1043 0.950 . S
H1067 C1045 0.950 . S
C1068 C1069 1.349 . S
C1068 C1070 1.327 . S
C1068 H1093 0.950 . S
C1069 C1068 1.349 . S
C1069 C1085 1.349 . S
C1070 C1068 1.327 . S
C1070 C1089 1.429 . S
C1070 H1094 0.950 . S
C1071 C1088 1.574 . S
C1071 C1090 1.368 . S
C1071 H1095 0.949 . S
H1072 C1076 0.949 . S
C1073 C1074 1.349 . S
C1073 C1075 1.327 . S
C1073 H1096 0.950 . S
C1074 C1073 1.349 . S
C1074 C1086 1.349 . S
C1075 C1073 1.327 . S
C1075 C1091 1.429 . S
C1075 H1097 0.950 . S
C1076 H1072 0.949 . S
C1076 C1084 1.574 . S
C1076 C1092 1.368 . S
H1077 C1085 0.950 . S
H1078 C1083 0.950 . S
H1079 C1084 0.949 . S
H1080 C1086 0.950 . S
H1081 C1087 0.950 . S
H1082 C1088 0.949 . S
C1083 H1078 0.950 . S
C1083 C1085 1.327 . S
C1083 C1089 1.429 . S
C1084 C1076 1.574 . S
C1084 H1079 0.949 . S
C1084 C1090 1.368 . S
C1085 C1069 1.349 . S
C1085 H1077 0.950 . S
C1085 C1083 1.327 . S
C1086 C1074 1.349 . S
C1086 H1080 0.950 . S
C1086 C1087 1.327 . S
C1087 H1081 0.950 . S
C1087 C1086 1.327 . S
C1087 C1091 1.429 . S
C1088 C1071 1.574 . S
C1088 H1082 0.949 . S
C1088 C1092 1.368 . S
C1089 C1070 1.429 . S
C1089 C1083 1.429 . S
C1089 C1090 1.523 . S
C1090 C1071 1.368 . S
C1090 C1084 1.368 . S
C1090 C1089 1.523 . S
C1091 C1075 1.429 . S
C1091 C1087 1.429 . S
C1091 C1092 1.523 . S
C1092 C1076 1.368 . S
C1092 C1088 1.368 . S
C1092 C1091 1.523 . S
H1093 C1068 0.950 . S
H1094 C1070 0.950 . S
H1095 C1071 0.949 . S
H1096 C1073 0.950 . S
H1097 C1075 0.950 . S
C1098 C1099 1.349 . S
C1098 C1100 1.327 . S
C1098 H1123 0.950 . S
C1099 C1098 1.349 . S
C1099 C1115 1.349 . S
C1100 C1098 1.327 . S
C1100 C1119 1.429 . S
C1100 H1124 0.950 . S
C1101 C1118 1.574 . S
C1101 C1120 1.368 . S
C1101 H1125 0.949 . S
H1102 C1106 0.949 . S
C1103 C1104 1.349 . S
C1103 C1105 1.327 . S
C1103 H1126 0.950 . S
C1104 C1103 1.349 . S
C1104 C1116 1.349 . S
C1105 C1103 1.327 . S
C1105 C1121 1.429 . S
C1105 H1127 0.950 . S
C1106 H1102 0.949 . S
C1106 C1114 1.574 . S
C1106 C1122 1.368 . S
H1107 C1115 0.950 . S
H1108 C1113 0.950 . S
H1109 C1114 0.949 . S
H1110 C1116 0.950 . S
H1111 C1117 0.950 . S
H1112 C1118 0.949 . S
C1113 H1108 0.950 . S
C1113 C1115 1.327 . S
C1113 C1119 1.429 . S
C1114 C1106 1.574 . S
C1114 H1109 0.949 . S
C1114 C1120 1.368 . S
C1115 C1099 1.349 . S
C1115 H1107 0.950 . S
C1115 C1113 1.327 . S
C1116 C1104 1.349 . S
C1116 H1110 0.950 . S
C1116 C1117 1.327 . S
C1117 H1111 0.950 . S
C1117 C1116 1.327 . S
C1117 C1121 1.429 . S
C1118 C1101 1.574 . S
C1118 H1112 0.949 . S
C1118 C1122 1.368 . S
C1119 C1100 1.429 . S
C1119 C1113 1.429 . S
C1119 C1120 1.523 . S
C1120 C1101 1.368 . S
C1120 C1114 1.368 . S
C1120 C1119 1.523 . S
C1121 C1105 1.429 . S
C1121 C1117 1.429 . S
C1121 C1122 1.523 . S
C1122 C1106 1.368 . S
C1122 C1118 1.368 . S
C1122 C1121 1.523 . S
H1123 C1098 0.950 . S
H1124 C1100 0.950 . S
H1125 C1101 0.949 . S
H1126 C1103 0.950 . S
H1127 C1105 0.950 . S
C1128 C1129 1.349 . S
C1128 C1130 1.327 . S
C1128 H1153 0.950 . S
C1129 C1128 1.349 . S
C1129 C1145 1.349 . S
C1130 C1128 1.327 . S
C1130 C1149 1.429 . S
C1130 H1154 0.950 . S
C1131 C1148 1.574 . S
C1131 C1150 1.368 . S
C1131 H1155 0.949 . S
H1132 C1136 0.949 . S
C1133 C1134 1.349 . S
C1133 C1135 1.327 . S
C1133 H1156 0.950 . S
C1134 C1133 1.349 . S
C1134 C1146 1.349 . S
C1135 C1133 1.327 . S
C1135 C1151 1.429 . S
C1135 H1157 0.950 . S
C1136 H1132 0.949 . S
C1136 C1144 1.574 . S
C1136 C1152 1.368 . S
H1137 C1145 0.950 . S
H1138 C1143 0.950 . S
H1139 C1144 0.949 . S
H1140 C1146 0.950 . S
H1141 C1147 0.950 . S
H1142 C1148 0.949 . S
C1143 H1138 0.950 . S
C1143 C1145 1.327 . S
C1143 C1149 1.429 . S
C1144 C1136 1.574 . S
C1144 H1139 0.949 . S
C1144 C1150 1.368 . S
C1145 C1129 1.349 . S
C1145 H1137 0.950 . S
C1145 C1143 1.327 . S
C1146 C1134 1.349 . S
C1146 H1140 0.950 . S
C1146 C1147 1.327 . S
C1147 H1141 0.950 . S
C1147 C1146 1.327 . S
C1147 C1151 1.429 . S
C1148 C1131 1.574 . S
C1148 H1142 0.949 . S
C1148 C1152 1.368 . S
C1149 C1130 1.429 . S
C1149 C1143 1.429 . S
C1149 C1150 1.523 . S
C1150 C1131 1.368 . S
C1150 C1144 1.368 . S
C1150 C1149 1.523 . S
C1151 C1135 1.429 . S
C1151 C1147 1.429 . S
C1151 C1152 1.523 . S
C1152 C1136 1.368 . S
C1152 C1148 1.368 . S
C1152 C1151 1.523 . S
H1153 C1128 0.950 . S
H1154 C1130 0.950 . S
H1155 C1131 0.949 . S
H1156 C1133 0.950 . S
H1157 C1135 0.950 . S
C1158 C1159 1.349 . S
C1158 C1160 1.327 . S
C1158 H1183 0.950 . S
C1159 C1158 1.349 . S
C1159 C1175 1.349 . S
C1160 C1158 1.327 . S
C1160 C1179 1.429 . S
C1160 H1184 0.950 . S
C1161 C1178 1.574 . S
C1161 C1180 1.368 . S
C1161 H1185 0.949 . S
H1162 C1166 0.949 . S
C1163 C1164 1.349 . S
C1163 C1165 1.327 . S
C1163 H1186 0.950 . S
C1164 C1163 1.349 . S
C1164 C1176 1.349 . S
C1165 C1163 1.327 . S
C1165 C1181 1.429 . S
C1165 H1187 0.950 . S
C1166 H1162 0.949 . S
C1166 C1174 1.574 . S
C1166 C1182 1.368 . S
H1167 C1175 0.950 . S
H1168 C1173 0.950 . S
H1169 C1174 0.949 . S
H1170 C1176 0.950 . S
H1171 C1177 0.950 . S
H1172 C1178 0.949 . S
C1173 H1168 0.950 . S
C1173 C1175 1.327 . S
C1173 C1179 1.429 . S
C1174 C1166 1.574 . S
C1174 H1169 0.949 . S
C1174 C1180 1.368 . S
C1175 C1159 1.349 . S
C1175 H1167 0.950 . S
C1175 C1173 1.327 . S
C1176 C1164 1.349 . S
C1176 H1170 0.950 . S
C1176 C1177 1.327 . S
C1177 H1171 0.950 . S
C1177 C1176 1.327 . S
C1177 C1181 1.429 . S
C1178 C1161 1.574 . S
C1178 H1172 0.949 . S
C1178 C1182 1.368 . S
C1179 C1160 1.429 . S
C1179 C1173 1.429 . S
C1179 C1180 1.523 . S
C1180 C1161 1.368 . S
C1180 C1174 1.368 . S
C1180 C1179 1.523 . S
C1181 C1165 1.429 . S
C1181 C1177 1.429 . S
C1181 C1182 1.523 . S
C1182 C1166 1.368 . S
C1182 C1178 1.368 . S
C1182 C1181 1.523 . S
H1183 C1158 0.950 . S
H1184 C1160 0.950 . S
H1185 C1161 0.949 . S
H1186 C1163 0.950 . S
H1187 C1165 0.950 . S
C1188 C1189 1.349 . S
C1188 C1190 1.327 . S
C1188 H1213 0.950 . S
C1189 C1188 1.349 . S
C1189 C1205 1.349 . S
C1190 C1188 1.327 . S
C1190 C1209 1.429 . S
C1190 H1214 0.950 . S
C1191 C1208 1.574 . S
C1191 C1210 1.368 . S
C1191 H1215 0.949 . S
H1192 C1196 0.949 . S
C1193 C1194 1.349 . S
C1193 C1195 1.327 . S
C1193 H1216 0.950 . S
C1194 C1193 1.349 . S
C1194 C1206 1.349 . S
C1195 C1193 1.327 . S
C1195 C1211 1.429 . S
C1195 H1217 0.950 . S
C1196 H1192 0.949 . S
C1196 C1204 1.574 . S
C1196 C1212 1.368 . S
H1197 C1205 0.950 . S
H1198 C1203 0.950 . S
H1199 C1204 0.949 . S
H1200 C1206 0.950 . S
H1201 C1207 0.950 . S
H1202 C1208 0.949 . S
C1203 H1198 0.950 . S
C1203 C1205 1.327 . S
C1203 C1209 1.429 . S
C1204 C1196 1.574 . S
C1204 H1199 0.949 . S
C1204 C1210 1.368 . S
C1205 C1189 1.349 . S
C1205 H1197 0.950 . S
C1205 C1203 1.327 . S
C1206 C1194 1.349 . S
C1206 H1200 0.950 . S
C1206 C1207 1.327 . S
C1207 H1201 0.950 . S
C1207 C1206 1.327 . S
C1207 C1211 1.429 . S
C1208 C1191 1.574 . S
C1208 H1202 0.949 . S
C1208 C1212 1.368 . S
C1209 C1190 1.429 . S
C1209 C1203 1.429 . S
C1209 C1210 1.523 . S
C1210 C1191 1.368 . S
C1210 C1204 1.368 . S
C1210 C1209 1.523 . S
C1211 C1195 1.429 . S
C1211 C1207 1.429 . S
C1211 C1212 1.523 . S
C1212 C1196 1.368 . S
C1212 C1208 1.368 . S
C1212 C1211 1.523 . S
H1213 C1188 0.950 . S
H1214 C1190 0.950 . S
H1215 C1191 0.949 . S
H1216 C1193 0.950 . S
H1217 C1195 0.950 . S
C1218 C1219 1.349 . S
C1218 C1220 1.327 . S
C1218 H1243 0.950 . S
C1219 C1218 1.349 . S
C1219 C1235 1.349 . S
C1220 C1218 1.327 . S
C1220 C1239 1.429 . S
C1220 H1244 0.950 . S
C1221 C1238 1.574 . S
C1221 C1240 1.368 . S
C1221 H1245 0.949 . S
H1222 C1226 0.949 . S
C1223 C1224 1.349 . S
C1223 C1225 1.327 . S
C1223 H1246 0.950 . S
C1224 C1223 1.349 . S
C1224 C1236 1.349 . S
C1225 C1223 1.327 . S
C1225 C1241 1.429 . S
C1225 H1247 0.950 . S
C1226 H1222 0.949 . S
C1226 C1234 1.574 . S
C1226 C1242 1.368 . S
H1227 C1235 0.950 . S
H1228 C1233 0.950 . S
H1229 C1234 0.949 . S
H1230 C1236 0.950 . S
H1231 C1237 0.950 . S
H1232 C1238 0.949 . S
C1233 H1228 0.950 . S
C1233 C1235 1.327 . S
C1233 C1239 1.429 . S
C1234 C1226 1.574 . S
C1234 H1229 0.949 . S
C1234 C1240 1.368 . S
C1235 C1219 1.349 . S
C1235 H1227 0.950 . S
C1235 C1233 1.327 . S
C1236 C1224 1.349 . S
C1236 H1230 0.950 . S
C1236 C1237 1.327 . S
C1237 H1231 0.950 . S
C1237 C1236 1.327 . S
C1237 C1241 1.429 . S
C1238 C1221 1.574 . S
C1238 H1232 0.949 . S
C1238 C1242 1.368 . S
C1239 C1220 1.429 . S
C1239 C1233 1.429 . S
C1239 C1240 1.523 . S
C1240 C1221 1.368 . S
C1240 C1234 1.368 . S
C1240 C1239 1.523 . S
C1241 C1225 1.429 . S
C1241 C1237 1.429 . S
C1241 C1242 1.523 . S
C1242 C1226 1.368 . S
C1242 C1238 1.368 . S
C1242 C1241 1.523 . S
H1243 C1218 0.950 . S
H1244 C1220 0.950 . S
H1245 C1221 0.949 . S
H1246 C1223 0.950 . S
H1247 C1225 0.950 . S
C1248 C1249 1.349 . S
C1248 C1250 1.327 . S
C1248 H1273 0.950 . S
C1249 C1248 1.349 . S
C1249 C1265 1.349 . S
C1250 C1248 1.327 . S
C1250 C1269 1.429 . S
C1250 H1274 0.950 . S
C1251 C1268 1.574 . S
C1251 C1270 1.368 . S
C1251 H1275 0.949 . S
H1252 C1256 0.949 . S
C1253 C1254 1.349 . S
C1253 C1255 1.327 . S
C1253 H1276 0.966 . S
C1254 C1253 1.349 . S
C1254 C1266 1.349 . S
C1255 C1253 1.327 . S
C1255 C1271 1.429 . S
C1255 H1277 0.950 . S
C1256 H1252 0.949 . S
C1256 C1264 1.574 . S
C1256 C1272 1.368 . S
H1257 C1265 0.950 . S
H1258 C1263 0.950 . S
H1259 C1264 0.949 . S
H1260 C1266 0.950 . S
H1261 C1267 0.950 . S
H1262 C1268 0.949 . S
C1263 H1258 0.950 . S
C1263 C1265 1.327 . S
C1263 C1269 1.429 . S
C1264 C1256 1.574 . S
C1264 H1259 0.949 . S
C1264 C1270 1.368 . S
C1265 C1249 1.349 . S
C1265 H1257 0.950 . S
C1265 C1263 1.327 . S
C1266 C1254 1.349 . S
C1266 H1260 0.950 . S
C1266 C1267 1.327 . S
C1267 H1261 0.950 . S
C1267 C1266 1.327 . S
C1267 C1271 1.429 . S
C1268 C1251 1.574 . S
C1268 H1262 0.949 . S
C1268 C1272 1.368 . S
C1269 C1250 1.429 . S
C1269 C1263 1.429 . S
C1269 C1270 1.523 . S
C1270 C1251 1.368 . S
C1270 C1264 1.368 . S
C1270 C1269 1.523 . S
C1271 C1255 1.429 . S
C1271 C1267 1.429 . S
C1271 C1272 1.523 . S
C1272 C1256 1.368 . S
C1272 C1268 1.368 . S
C1272 C1271 1.523 . S
H1273 C1248 0.950 . S
H1274 C1250 0.950 . S
H1275 C1251 0.949 . S
H1276 C1253 0.966 . S
H1277 C1255 0.950 . S
C1278 C1279 1.349 . S
C1278 C1280 1.327 . S
C1278 H1303 0.950 . S
C1279 C1278 1.349 . S
C1279 C1295 1.349 . S
C1280 C1278 1.327 . S
C1280 C1299 1.429 . S
C1280 H1304 0.950 . S
C1281 C1298 1.574 . S
C1281 C1300 1.368 . S
C1281 H1305 0.949 . S
H1282 C1286 0.949 . S
C1283 C1284 1.349 . S
C1283 C1285 1.327 . S
C1283 H1306 0.950 . S
C1284 C1283 1.349 . S
C1284 C1296 1.349 . S
C1285 C1283 1.327 . S
C1285 C1301 1.429 . S
C1285 H1307 0.950 . S
C1286 H1282 0.949 . S
C1286 C1294 1.574 . S
C1286 C1302 1.368 . S
H1287 C1295 0.950 . S
H1288 C1293 0.950 . S
H1289 C1294 0.949 . S
H1290 C1296 0.950 . S
H1291 C1297 0.950 . S
H1292 C1298 0.949 . S
C1293 H1288 0.950 . S
C1293 C1295 1.327 . S
C1293 C1299 1.429 . S
C1294 C1286 1.574 . S
C1294 H1289 0.949 . S
C1294 C1300 1.368 . S
C1295 C1279 1.349 . S
C1295 H1287 0.950 . S
C1295 C1293 1.327 . S
C1296 C1284 1.349 . S
C1296 H1290 0.950 . S
C1296 C1297 1.327 . S
C1297 H1291 0.950 . S
C1297 C1296 1.327 . S
C1297 C1301 1.429 . S
C1298 C1281 1.574 . S
C1298 H1292 0.949 . S
C1298 C1302 1.368 . S
C1299 C1280 1.429 . S
C1299 C1293 1.429 . S
C1299 C1300 1.523 . S
C1300 C1281 1.368 . S
C1300 C1294 1.368 . S
C1300 C1299 1.523 . S
C1301 C1285 1.429 . S
C1301 C1297 1.429 . S
C1301 C1302 1.523 . S
C1302 C1286 1.368 . S
C1302 C1298 1.368 . S
C1302 C1301 1.523 . S
H1303 C1278 0.950 . S
H1304 C1280 0.950 . S
H1305 C1281 0.949 . S
H1306 C1283 0.950 . S
H1307 C1285 0.950 . S
C1308 C1309 1.349 . S
C1308 C1310 1.327 . S
C1308 H1333 0.950 . S
C1309 C1308 1.349 . S
C1309 C1325 1.349 . S
C1310 C1308 1.327 . S
C1310 C1329 1.429 . S
C1310 H1334 0.950 . S
C1311 C1328 1.574 . S
C1311 C1330 1.368 . S
C1311 H1335 0.949 . S
H1312 C1316 0.949 . S
C1313 C1314 1.349 . S
C1313 C1315 1.327 . S
C1313 H1336 0.950 . S
C1314 C1313 1.349 . S
C1314 C1326 1.349 . S
C1315 C1313 1.327 . S
C1315 C1331 1.429 . S
C1315 H1337 0.950 . S
C1316 H1312 0.949 . S
C1316 C1324 1.574 . S
C1316 C1332 1.368 . S
H1317 C1325 0.950 . S
H1318 C1323 0.950 . S
H1319 C1324 0.949 . S
H1320 C1326 0.950 . S
H1321 C1327 0.950 . S
H1322 C1328 0.949 . S
C1323 H1318 0.950 . S
C1323 C1325 1.327 . S
C1323 C1329 1.429 . S
C1324 C1316 1.574 . S
C1324 H1319 0.949 . S
C1324 C1330 1.368 . S
C1325 C1309 1.349 . S
C1325 H1317 0.950 . S
C1325 C1323 1.327 . S
C1326 C1314 1.349 . S
C1326 H1320 0.950 . S
C1326 C1327 1.327 . S
C1327 H1321 0.950 . S
C1327 C1326 1.327 . S
C1327 C1331 1.429 . S
C1328 C1311 1.574 . S
C1328 H1322 0.949 . S
C1328 C1332 1.368 . S
C1329 C1310 1.429 . S
C1329 C1323 1.429 . S
C1329 C1330 1.523 . S
C1330 C1311 1.368 . S
C1330 C1324 1.368 . S
C1330 C1329 1.523 . S
C1331 C1315 1.429 . S
C1331 C1327 1.429 . S
C1331 C1332 1.523 . S
C1332 C1316 1.368 . S
C1332 C1328 1.368 . S
C1332 C1331 1.523 . S
H1333 C1308 0.950 . S
H1334 C1310 0.950 . S
H1335 C1311 0.949 . S
H1336 C1313 0.950 . S
H1337 C1315 0.950 . S
C1338 C1339 1.349 . S
C1338 C1340 1.327 . S
C1338 H1363 0.950 . S
C1339 C1338 1.349 . S
C1339 C1355 1.349 . S
C1340 C1338 1.327 . S
C1340 C1359 1.429 . S
C1340 H1364 0.950 . S
C1341 C1358 1.574 . S
C1341 C1360 1.368 . S
C1341 H1365 0.949 . S
H1342 C1346 0.949 . S
C1343 C1344 1.349 . S
C1343 C1345 1.327 . S
C1343 H1366 0.950 . S
C1344 C1343 1.349 . S
C1344 C1356 1.349 . S
C1345 C1343 1.327 . S
C1345 C1361 1.429 . S
C1345 H1367 0.950 . S
C1346 H1342 0.949 . S
C1346 C1354 1.574 . S
C1346 C1362 1.368 . S
H1347 C1355 0.950 . S
H1348 C1353 0.950 . S
H1349 C1354 0.949 . S
H1350 C1356 0.950 . S
H1351 C1357 0.950 . S
H1352 C1358 0.949 . S
C1353 H1348 0.950 . S
C1353 C1355 1.327 . S
C1353 C1359 1.429 . S
C1354 C1346 1.574 . S
C1354 H1349 0.949 . S
C1354 C1360 1.368 . S
C1355 C1339 1.349 . S
C1355 H1347 0.950 . S
C1355 C1353 1.327 . S
C1356 C1344 1.349 . S
C1356 H1350 0.950 . S
C1356 C1357 1.327 . S
C1357 H1351 0.950 . S
C1357 C1356 1.327 . S
C1357 C1361 1.429 . S
C1358 C1341 1.574 . S
C1358 H1352 0.949 . S
C1358 C1362 1.368 . S
C1359 C1340 1.429 . S
C1359 C1353 1.429 . S
C1359 C1360 1.523 . S
C1360 C1341 1.368 . S
C1360 C1354 1.368 . S
C1360 C1359 1.523 . S
C1361 C1345 1.429 . S
C1361 C1357 1.429 . S
C1361 C1362 1.523 . S
C1362 C1346 1.368 . S
C1362 C1358 1.368 . S
C1362 C1361 1.523 . S
H1363 C1338 0.950 . S
H1364 C1340 0.950 . S
H1365 C1341 0.949 . S
H1366 C1343 0.950 . S
H1367 C1345 0.950 . S
C649 C255 2.067 . S
C654 C386 2.119 . S
C684 C470 2.161 . S
C679 C294 2.097 . S
C714 C536 2.133 . S
C709 C177 2.236 . S
C744 C620 2.112 . S
C739 C216 2.218 . S
C774 C375 2.119 1_565 S
C769 C99 2.079 . S
C799 C138 2.084 . S
C804 C459 2.161 . S
C829 C21 2.250 . S
C834 C547 2.133 . S
C859 C60 2.231 . S
C864 C631 2.112 . S
C894 C382 0.426 1_455 S
C889 C196 0.458 . S
C924 C466 0.401 1_545 S
C919 C235 0.421 . S
C954 C538 0.441 . S
C949 C289 0.420 . S
C979 C157 0.448 . S
C984 C622 0.451 . S
C1009 C40 0.445 . S
C1014 C370 0.426 . S
C1044 C454 0.401 . S
C1039 C79 0.405 . S
C1074 C550 0.441 . S
C1069 C133 0.409 . S
C1099 C1 0.432 . S
C1104 C634 0.451 . S
C1129 C211 2.604 . S
C1134 C379 2.723 . S
C1159 C250 2.548 . S
C1164 C463 2.665 . S
C1194 C543 2.668 . S
C1189 C274 2.428 . S
C1224 C627 2.706 . S
C1219 C172 2.457 . S
C1249 C55 2.600 . S
C1254 C368 2.723 . S
C1284 C452 2.666 . S
C1279 C94 2.545 . S
C1314 C554 2.669 . S
C1309 C118 2.422 . S
C1339 C16 2.453 . S
C1344 C638 2.706 . S
