# Generated by pormake.
# Topology zzz, (3,6)-cn, num edge types: 1
# Building blocks:
#     Node 0, Type 0, BuildingBlock: BETDAH_clean_linker_0, # of connection points: 3
#     Node 1, Type 0, BuildingBlock: BETDAH_clean_linker_0, # of connection points: 3
#     Node 2, Type 0, BuildingBlock: BETDAH_clean_linker_0, # of connection points: 3
#     Node 3, Type 0, BuildingBlock: BETDAH_clean_linker_0, # of connection points: 3
#     Node 4, Type 0, BuildingBlock: BETDAH_clean_linker_0, # of connection points: 3
#     Node 5, Type 0, BuildingBlock: BETDAH_clean_linker_0, # of connection points: 3
#     Node 6, Type 0, BuildingBlock: BETDAH_clean_linker_0, # of connection points: 3
#     Node 7, Type 0, BuildingBlock: BETDAH_clean_linker_0, # of connection points: 3
#     Node 8, Type 1, BuildingBlock: BETGAK_clean_sbu_0, # of connection points: 6
#     Node 9, Type 1, BuildingBlock: BETGAK_clean_sbu_0, # of connection points: 6
#     Node 10, Type 1, BuildingBlock: BETGAK_clean_sbu_0, # of connection points: 6
#     Node 11, Type 1, BuildingBlock: BETGAK_clean_sbu_0, # of connection points: 6
#     Edge 12, Type (0, 1), BuildingBlock: MIFKUJ_clean_linker_0, # of connection points: 2
#     Edge 13, Type (0, 1), BuildingBlock: MIFKUJ_clean_linker_0, # of connection points: 2
#     Edge 14, Type (0, 1), BuildingBlock: MIFKUJ_clean_linker_0, # of connection points: 2
#     Edge 15, Type (0, 1), BuildingBlock: MIFKUJ_clean_linker_0, # of connection points: 2
#     Edge 16, Type (0, 1), BuildingBlock: MIFKUJ_clean_linker_0, # of connection points: 2
#     Edge 17, Type (0, 1), BuildingBlock: MIFKUJ_clean_linker_0, # of connection points: 2
#     Edge 18, Type (0, 1), BuildingBlock: MIFKUJ_clean_linker_0, # of connection points: 2
#     Edge 19, Type (0, 1), BuildingBlock: MIFKUJ_clean_linker_0, # of connection points: 2
#     Edge 20, Type (0, 1), BuildingBlock: MIFKUJ_clean_linker_0, # of connection points: 2
#     Edge 21, Type (0, 1), BuildingBlock: MIFKUJ_clean_linker_0, # of connection points: 2
#     Edge 22, Type (0, 1), BuildingBlock: MIFKUJ_clean_linker_0, # of connection points: 2
#     Edge 23, Type (0, 1), BuildingBlock: MIFKUJ_clean_linker_0, # of connection points: 2
#     Edge 24, Type (0, 1), BuildingBlock: MIFKUJ_clean_linker_0, # of connection points: 2
#     Edge 25, Type (0, 1), BuildingBlock: MIFKUJ_clean_linker_0, # of connection points: 2
#     Edge 26, Type (0, 1), BuildingBlock: MIFKUJ_clean_linker_0, # of connection points: 2
#     Edge 27, Type (0, 1), BuildingBlock: MIFKUJ_clean_linker_0, # of connection points: 2
#     Edge 28, Type (0, 1), BuildingBlock: MIFKUJ_clean_linker_0, # of connection points: 2
#     Edge 29, Type (0, 1), BuildingBlock: MIFKUJ_clean_linker_0, # of connection points: 2
#     Edge 30, Type (0, 1), BuildingBlock: MIFKUJ_clean_linker_0, # of connection points: 2
#     Edge 31, Type (0, 1), BuildingBlock: MIFKUJ_clean_linker_0, # of connection points: 2
#     Edge 32, Type (0, 1), BuildingBlock: MIFKUJ_clean_linker_0, # of connection points: 2
#     Edge 33, Type (0, 1), BuildingBlock: MIFKUJ_clean_linker_0, # of connection points: 2
#     Edge 34, Type (0, 1), BuildingBlock: MIFKUJ_clean_linker_0, # of connection points: 2
#     Edge 35, Type (0, 1), BuildingBlock: MIFKUJ_clean_linker_0, # of connection points: 2
# Relax obj value: 0.234
# Max RMSD: 0.178
# Mean RMSD: 0.160
data_MOF--net-zzz--node1-BETGAK_clean_sbu_0--node2-BETDAH_clean_linker_0--edge1-MIFKUJ_clean_linker_0
_symmetry_space_group_name_H-M    P1
_symmetry_Int_Tables_number       1
_symmetry_cell_setting            triclinic
loop_
_symmetry_equiv_pos_as_xyz
'x, y, z'
_cell_length_a     68.700514
_cell_length_b     68.734795
_cell_length_c     17.376706
_cell_angle_alpha  89.916157
_cell_angle_beta   89.952906
_cell_angle_gamma 90.098423
loop_
_atom_site_label
_atom_site_type_symbol
_atom_site_fract_x
_atom_site_fract_y
_atom_site_fract_z
_atom_type_partial_charge
H0 H 0.79955 0.52772 0.22993 0.0
H1 H 0.73885 0.52724 0.17255 0.0
H2 H 0.75773 0.50877 0.39806 0.0
C3 C 0.78452 0.5253 0.24667 0.0
C4 C 0.78059 0.51814 0.32052 0.0
C5 C 0.76955 0.52885 0.1935 0.0
C6 C 0.75027 0.52477 0.21415 0.0
C7 C 0.74577 0.51747 0.28775 0.0
C8 C 0.76104 0.51447 0.34138 0.0
N9 N 0.72619 0.5127 0.30832 0.0
C10 C 0.71034 0.51344 0.25755 0.0
H11 H 0.97348 0.79161 0.24855 0.0
H12 H 0.98336 0.73261 0.18143 0.0
H13 H 0.0125 0.75599 0.38148 0.0
C14 C 0.98031 0.77768 0.26002 0.0
C15 C 0.99348 0.776 0.32124 0.0
C16 C 0.97674 0.76214 0.20986 0.0
C17 C 0.98589 0.74427 0.22195 0.0
C18 C 0.99852 0.74171 0.28487 0.0
C19 C 1.00225 0.75767 0.33461 0.0
N20 N 1.00816 0.72357 0.2974 0.0
C21 C 1.00648 0.70728 0.24931 0.0
H22 H 0.7318 0.97454 0.23862 0.0
H23 H 0.7915 0.98508 0.18331 0.0
H24 H 0.76693 0.00937 0.39094 0.0
C25 C 0.74568 0.9809 0.25449 0.0
C26 C 0.74701 0.99246 0.3209 0.0
C27 C 0.76157 0.97845 0.20485 0.0
C28 C 0.77951 0.98677 0.22318 0.0
C29 C 0.78177 0.99757 0.29134 0.0
C30 C 0.76542 1.00041 0.34007 0.0
N31 N 0.80005 1.00629 0.31014 0.0
C32 C 0.81665 1.00521 0.26338 0.0
H33 H 0.48741 0.72931 0.26113 0.0
H34 H 0.50075 0.78815 0.19945 0.0
H35 H 0.51692 0.76616 0.42361 0.0
C36 C 0.49297 0.74349 0.27753 0.0
C37 C 0.50166 0.74578 0.34991 0.0
C38 C 0.49274 0.75865 0.22342 0.0
C39 C 0.50083 0.77668 0.24225 0.0
C40 C 0.50935 0.77972 0.31479 0.0
C41 C 0.51001 0.76407 0.36823 0.0
N42 N 0.51765 0.79816 0.33414 0.0
C43 C 0.51782 0.81431 0.28462 0.0
H44 H 0.22855 0.53882 0.10661 0.0
H45 H 0.28604 0.53073 0.19896 0.0
H46 H 0.26532 0.4943 0.01396 0.0
C47 C 0.24263 0.5317 0.10485 0.0
C48 C 0.24532 0.51643 0.05296 0.0
C49 C 0.25711 0.53687 0.1581 0.0
C50 C 0.27491 0.52683 0.15762 0.0
C51 C 0.27813 0.51154 0.10522 0.0
C52 C 0.26312 0.50627 0.05347 0.0
N53 N 0.296 0.50097 0.10435 0.0
C54 C 0.31184 0.50438 0.15323 0.0
H55 H 0.00971 0.22001 0.18781 0.0
H56 H 0.00986 0.28121 0.23216 0.0
H57 H 0.02153 0.2599 0.00251 0.0
C58 C 0.01184 0.23473 0.16684 0.0
C59 C 0.01627 0.23776 0.08904 0.0
C60 C 0.00977 0.25026 0.21827 0.0
C61 C 0.0116 0.26936 0.19174 0.0
C62 C 0.01593 0.27305 0.1138 0.0
C63 C 0.01806 0.25715 0.06237 0.0
N64 N 0.01847 0.2925 0.08646 0.0
C65 C 0.01812 0.30895 0.13393 0.0
H66 H 0.30354 0.99047 0.18144 0.0
H67 H 0.24483 1.00106 0.25396 0.0
H68 H 0.26455 0.02165 0.03228 0.0
C69 C 0.28915 0.99612 0.16897 0.0
C70 C 0.28593 1.00587 0.09917 0.0
C71 C 0.27446 0.99436 0.22476 0.0
C72 C 0.25609 1.00243 0.21061 0.0
C73 C 0.25231 0.01218 0.14091 0.0
C74 C 0.26738 0.01405 0.08576 0.0
N75 N 0.23359 0.02025 0.12502 0.0
C76 C 0.21749 0.01883 0.1742 0.0
H77 H 0.51411 0.29944 0.17375 0.0
H78 H 0.51594 0.23892 0.23337 0.0
H79 H 0.50223 0.25639 1.00062 0.0
C80 C 0.51219 0.28435 0.15719 0.0
C81 C 0.50754 0.27991 0.08068 0.0
C82 C 0.5153 0.26968 0.212 0.0
C83 C 0.51349 0.25013 0.19061 0.0
C84 C 0.50849 0.24514 0.11457 0.0
C85 C 0.50587 0.26013 0.0594 0.0
N86 N 0.50604 0.22528 0.09231 0.0
C87 C 0.50691 0.2094 0.14291 0.0
La88 La 0.02396 1.00008 0.7778 0.0
La89 La 1.00541 0.01363 0.62482 0.0
C90 C 0.03025 0.98117 0.89811 0.0
C91 C 0.02145 0.9625 0.92179 0.0
C92 C 0.03256 0.94539 0.91865 0.0
C93 C 0.0236 0.92724 0.92637 0.0
C94 C 1.00339 0.9259 0.93773 0.0
C95 C 0.99243 0.94303 0.94454 0.0
C96 C 1.00136 0.96114 0.93677 0.0
C97 C 0.04862 0.01197 0.67049 0.0
C98 C 0.00992 0.96893 0.65023 0.0
C99 C 1.00104 0.03065 0.49923 0.0
C100 C 0.99087 0.04911 0.48604 0.0
C101 C 0.97583 0.05481 0.536 0.0
C102 C 0.9689 0.07387 0.53512 0.0
C103 C 0.97697 0.08762 0.48456 0.0
C104 C 0.99146 0.08163 0.43224 0.0
C105 C 0.99836 0.06253 0.43309 0.0
C106 C 0.97814 1.00868 0.73356 0.0
C107 C 0.01534 0.04462 0.75878 0.0
O108 O 0.04158 0.98025 0.83743 0.0
O109 O 0.01851 0.99619 0.89549 0.0
O110 O 0.05118 0.01419 0.74397 0.0
O111 O 0.03315 1.00236 0.65985 0.0
O112 O 0.01307 0.9729 0.72413 0.0
O113 O 1.00872 0.98291 0.59786 0.0
O114 O 0.99013 0.01588 0.52071 0.0
O115 O 0.01682 0.03241 0.54122 0.0
O116 O 0.97449 0.01343 0.66294 0.0
O117 O 0.99624 1.00672 0.73709 0.0
O118 O 0.01143 0.04117 0.68518 0.0
O119 O 0.01909 0.03043 0.80842 0.0
H120 H 0.04803 0.94602 0.90678 0.0
H121 H 0.03241 0.91427 0.92065 0.0
H122 H 0.97689 0.94244 0.95502 0.0
H123 H 0.99234 0.974 0.93987 0.0
H124 H 0.97002 0.0448 0.57832 0.0
H125 H 0.95762 0.07797 0.57554 0.0
H126 H 0.99823 0.09195 0.39336 0.0
H127 H 0.01025 0.05853 0.39531 0.0
La128 La 0.52146 0.02023 0.76953 0.0
La129 La 0.509 0.99929 0.63502 0.0
C130 C 0.54099 0.0298 0.88507 0.0
C131 C 0.56089 0.02336 0.9033 0.0
C132 C 0.57602 0.03704 0.90802 0.0
C133 C 0.59541 0.0309 0.90948 0.0
C134 C 0.59991 0.01098 0.90608 0.0
C135 C 0.58473 0.99731 0.90482 0.0
C136 C 0.56543 1.00341 0.90323 0.0
C137 C 0.51011 0.04346 0.65663 0.0
C138 C 0.55294 1.00571 0.64661 0.0
C139 C 0.4899 0.98715 0.52161 0.0
C140 C 0.46924 0.9811 0.51953 0.0
C141 C 0.46431 0.96124 0.51651 0.0
C142 C 0.44511 0.9552 0.52955 0.0
C143 C 0.43065 0.96894 0.54645 0.0
C144 C 0.43537 0.9888 0.54519 0.0
C145 C 0.45441 0.99484 0.53147 0.0
C146 C 0.51998 0.97626 0.75007 0.0
C147 C 0.47708 0.01385 0.75913 0.0
O148 O 0.53958 0.04071 0.82367 0.0
O149 O 0.5275 0.01634 0.88688 0.0
O150 O 0.50678 0.04643 0.7291 0.0
O151 O 0.52011 0.02812 0.64946 0.0
O152 O 0.54885 1.00856 0.72026 0.0
O153 O 0.53867 1.00434 0.59618 0.0
O154 O 0.50129 0.97604 0.56267 0.0
O155 O 0.49328 1.00562 0.53451 0.0
O156 O 0.52359 0.9731 0.67809 0.0
O157 O 0.51004 0.99162 0.75504 0.0
O158 O 0.4809 1.00752 0.68867 0.0
O159 O 0.49131 0.01851 0.80661 0.0
H160 H 0.57287 0.05248 0.90706 0.0
H161 H 0.60686 0.04175 0.91056 0.0
H162 H 0.58777 0.98185 0.90395 0.0
H163 H 0.55415 0.99244 0.89876 0.0
H164 H 0.47544 0.95034 0.5072 0.0
H165 H 0.44171 0.93981 0.52903 0.0
H166 H 0.42432 0.99971 0.55585 0.0
H167 H 0.45759 0.01027 0.53353 0.0
La168 La 0.50425 0.51598 0.77485 0.0
La169 La 0.52249 0.50472 0.61982 0.0
C170 C 0.50228 0.53091 0.90534 0.0
C171 C 0.49526 0.55043 0.92516 0.0
C172 C 0.47859 0.55806 0.88902 0.0
C173 C 0.47502 0.57804 0.89013 0.0
C174 C 0.48822 0.5906 0.92623 0.0
C175 C 0.50419 0.5829 0.96628 0.0
C176 C 0.50761 0.56291 0.96618 0.0
C177 C 0.47667 0.51494 0.66667 0.0
C178 C 0.51243 0.54847 0.64561 0.0
C179 C 0.53109 0.48756 0.49741 0.0
C180 C 0.54047 0.46854 0.48796 0.0
C181 C 0.55454 0.46225 0.54114 0.0
C182 C 0.56128 0.44312 0.53963 0.0
C183 C 0.5539 0.42984 0.4856 0.0
C184 C 0.54021 0.43639 0.43107 0.0
C185 C 0.53359 0.45559 0.43222 0.0
C186 C 0.54718 0.51375 0.7314 0.0
C187 C 0.51055 0.4712 0.74314 0.0
O188 O 0.48928 0.51843 0.87985 0.0
O189 O 0.51814 0.53116 0.86328 0.0
O190 O 0.47356 0.51893 0.73852 0.0
O191 O 0.49462 0.5117 0.66045 0.0
O192 O 0.51111 0.54423 0.72012 0.0
O193 O 0.51411 0.5346 0.59298 0.0
O194 O 0.54189 0.50129 0.5276 0.0
O195 O 0.51371 0.48686 0.52829 0.0
O196 O 0.54998 0.51759 0.65922 0.0
O197 O 0.5315 0.50433 0.73771 0.0
O198 O 0.51806 0.47599 0.67501 0.0
O199 O 0.50457 0.48452 0.79304 0.0
H200 H 0.469 0.54881 0.85574 0.0
H201 H 0.46266 0.5838 0.85884 0.0
H202 H 0.51443 0.59245 0.99499 0.0
H203 H 0.52066 0.55737 0.99338 0.0
H204 H 0.55984 0.47191 0.58569 0.0
H205 H 0.57196 0.43864 0.58186 0.0
H206 H 0.5339 0.42649 0.38956 0.0
H207 H 0.52248 0.46009 0.39171 0.0
La208 La 1.00704 0.49812 0.7584 0.0
La209 La 0.01786 0.51915 0.62144 0.0
C210 C 0.98908 0.48789 0.87722 0.0
C211 C 0.9688 0.49261 0.89695 0.0
C212 C 0.95481 0.47771 0.89886 0.0
C213 C 0.93501 0.48223 0.89766 0.0
C214 C 0.92894 0.50172 0.89525 0.0
C215 C 0.94291 0.51661 0.89832 0.0
C216 C 0.96265 0.51212 0.89905 0.0
C217 C 0.01804 0.4751 0.64443 0.0
C218 C 0.97418 0.51135 0.63916 0.0
C219 C 0.0354 0.5309 0.50331 0.0
C220 C 0.0555 0.53828 0.4947 0.0
C221 C 0.05879 0.55788 0.47566 0.0
C222 C 0.07767 0.56554 0.47606 0.0
C223 C 0.09361 0.55371 0.49549 0.0
C224 C 0.0903 0.53398 0.51253 0.0
C225 C 0.0715 0.52636 0.51228 0.0
C226 C 1.00682 0.54206 0.73599 0.0
C227 C 0.05114 0.50621 0.7432 0.0
O228 O 0.99103 0.47669 0.81697 0.0
O229 O 1.00131 0.50252 0.87573 0.0
O230 O 0.02217 0.47233 0.71634 0.0
O231 O 1.00756 0.49013 0.63858 0.0
O232 O 0.97883 0.50885 0.7125 0.0
O233 O 0.98807 0.51278 0.58698 0.0
O234 O 0.02374 0.54188 0.54373 0.0
O235 O 0.03352 0.51248 0.52128 0.0
O236 O 1.00272 0.54498 0.66418 0.0
O237 O 0.01734 0.52708 0.74105 0.0
O238 O 0.04662 0.51335 0.67453 0.0
O239 O 0.03748 0.50002 0.79067 0.0
H240 H 0.95921 0.46258 0.89676 0.0
H241 H 0.92447 0.4705 0.89663 0.0
H242 H 0.93861 0.53175 0.89598 0.0
H243 H 0.97302 0.524 0.89665 0.0
H244 H 0.04669 0.56739 0.46228 0.0
H245 H 0.07974 0.5808 0.46262 0.0
H246 H 0.10228 0.52432 0.52579 0.0
H247 H 0.06955 0.51119 0.52739 0.0
H248 H 0.18281 1.00243 0.13916 0.0
H249 H 0.15345 1.00132 0.21985 0.0
H250 H 0.18397 0.0322 0.39915 0.0
H251 H 0.21341 0.03296 0.31866 0.0
H252 H 0.16325 1.00363 0.46027 0.0
H253 H 0.14972 0.05467 0.27872 0.0
H254 H 0.14604 0.06925 0.1498 0.0
H255 H 0.10143 0.02769 0.09519 0.0
H256 H 0.10502 0.0127 0.2235 0.0
H257 H 0.08336 0.03025 0.69128 0.0
H258 H 0.11112 0.03162 0.60348 0.0
H259 H 0.07831 0.99991 0.43319 0.0
H260 H 0.05022 0.99882 0.52094 0.0
H261 H 0.09967 0.0279 0.36528 0.0
H262 H 0.11272 0.97717 0.54675 0.0
H263 H 0.11621 0.96249 0.67555 0.0
H264 H 0.16173 1.0031 0.72966 0.0
H265 H 0.15832 0.01821 0.6015 0.0
C266 C 0.18319 1.00893 0.19591 0.0
C267 C 0.20028 0.01781 0.22287 0.0
C268 C 0.16638 1.00841 0.24188 0.0
C269 C 0.16627 0.01693 0.31554 0.0
C270 C 0.18356 0.02556 0.34268 0.0
C271 C 0.20038 0.02604 0.2967 0.0
C272 C 0.14828 0.01671 0.36457 0.0
C273 C 0.14944 1.00919 0.43967 0.0
C274 C 0.12999 0.02343 0.33751 0.0
C275 C 0.12778 0.03244 0.26042 0.0
C276 C 0.13923 0.04855 0.239 0.0
C277 C 0.13715 0.0569 0.16608 0.0
C278 C 0.12355 0.04937 0.11426 0.0
C279 C 0.11197 0.03349 0.13534 0.0
C280 C 0.11402 0.02507 0.20818 0.0
C281 C 0.08197 0.02369 0.63489 0.0
C282 C 0.06462 0.01428 0.61338 0.0
C283 C 0.09794 0.02439 0.58477 0.0
C284 C 0.09708 0.0155 0.51201 0.0
C285 C 0.07946 1.00677 0.48908 0.0
C286 C 0.06339 1.00615 0.53929 0.0
C287 C 0.11473 0.01499 0.46114 0.0
C288 C 0.1135 0.02232 0.38576 0.0
C289 C 0.13296 1.00806 0.48782 0.0
C290 C 0.13514 0.99893 0.56476 0.0
C291 C 0.12338 0.98306 0.58631 0.0
C292 C 0.12536 0.97465 0.65917 0.0
C293 C 0.13915 0.98189 0.71082 0.0
C294 C 0.15103 0.99752 0.68962 0.0
C295 C 0.1491 1.00601 0.61685 0.0
H296 H 0.14066 0.97536 0.76721 0.0
H297 H 0.12195 0.05586 0.05783 0.0
H298 H 0.52148 0.17389 0.10883 0.0
H299 H 0.52198 0.14492 0.19178 0.0
H300 H 0.49363 0.17744 0.372 0.0
H301 H 0.49348 0.20648 0.28918 0.0
H302 H 0.52166 0.15635 0.43198 0.0
H303 H 0.46924 0.1429 0.25745 0.0
H304 H 0.45332 0.1384 0.13157 0.0
H305 H 0.49296 0.09215 0.07761 0.0
H306 H 0.5093 0.09655 0.20281 0.0
H307 H 0.49273 0.07878 0.67265 0.0
H308 H 0.49225 0.10591 0.58166 0.0
H309 H 0.52383 0.07137 0.41666 0.0
H310 H 0.52419 0.04395 0.50793 0.0
H311 H 0.49527 0.09273 0.34649 0.0
H312 H 0.54725 0.10587 0.52212 0.0
H313 H 0.56253 0.10987 0.64947 0.0
H314 H 0.52326 0.15658 0.70158 0.0
H315 H 0.50755 0.15268 0.57488 0.0
C316 C 0.51539 0.17479 0.16624 0.0
C317 C 0.50743 0.19235 0.19277 0.0
C318 C 0.51555 0.15819 0.21354 0.0
C319 C 0.50759 0.15876 0.28824 0.0
C320 C 0.49983 0.17649 0.3148 0.0
C321 C 0.49971 0.19309 0.26748 0.0
C322 C 0.50764 0.14107 0.33915 0.0
C323 C 0.51563 0.14254 0.41338 0.0
C324 C 0.50031 0.12274 0.31482 0.0
C325 C 0.49064 0.12021 0.23918 0.0
C326 C 0.47469 0.13189 0.21845 0.0
C327 C 0.46556 0.12933 0.14728 0.0
C328 C 0.47216 0.11503 0.09653 0.0
C329 C 0.48789 0.10324 0.11692 0.0
C330 C 0.49708 0.10576 0.18799 0.0
C331 C 0.49949 0.07687 0.61684 0.0
C332 C 0.50863 0.05922 0.59787 0.0
C333 C 0.49928 0.09247 0.56484 0.0
C334 C 0.5083 0.09092 0.49246 0.0
C335 C 0.51684 0.07304 0.47215 0.0
C336 C 0.51706 0.05736 0.5244 0.0
C337 C 0.5091 0.10813 0.43929 0.0
C338 C 0.50132 0.10655 0.36478 0.0
C339 C 0.51661 0.12638 0.46326 0.0
C340 C 0.52611 0.12887 0.53926 0.0
C341 C 0.54178 0.11691 0.56095 0.0
C342 C 0.55053 0.11917 0.63299 0.0
C343 C 0.54384 0.13344 0.68366 0.0
C344 C 0.52842 0.14552 0.6623 0.0
C345 C 0.5196 0.1433 0.59035 0.0
H346 H 0.55063 0.13517 0.73942 0.0
H347 H 0.46507 0.11306 0.04149 0.0
H348 H 0.34845 0.49381 0.116 0.0
H349 H 0.37775 0.49636 0.19609 0.0
H350 H 0.34362 0.52195 0.37815 0.0
H351 H 0.31432 0.51959 0.29723 0.0
H352 H 0.37754 0.54078 0.3641 0.0
H353 H 0.3585 0.47371 0.38355 0.0
H354 H 0.34973 0.44116 0.33502 0.0
H355 H 0.40553 0.43637 0.22523 0.0
H356 H 0.41454 0.46902 0.27231 0.0
H357 H 0.43891 0.52495 0.68397 0.0
H358 H 0.41277 0.52416 0.58921 0.0
H359 H 0.45293 0.50307 0.4179 0.0
H360 H 0.47943 0.50403 0.51344 0.0
H361 H 0.4178 0.48252 0.41852 0.0
H362 H 0.43771 0.54888 0.40896 0.0
H363 H 0.44625 0.58129 0.45945 0.0
H364 H 0.38868 0.58743 0.55241 0.0
H365 H 0.37989 0.55489 0.50383 0.0
C366 C 0.34726 0.50003 0.17308 0.0
C367 C 0.32919 0.50649 0.20063 0.0
C368 C 0.364 0.5014 0.21905 0.0
C369 C 0.36299 0.50913 0.29393 0.0
C370 C 0.34487 0.5159 0.32082 0.0
C371 C 0.32812 0.51453 0.27471 0.0
C372 C 0.38073 0.51006 0.34418 0.0
C373 C 0.38619 0.52798 0.37662 0.0
C374 C 0.39249 0.49351 0.35913 0.0
C375 C 0.3871 0.47389 0.33073 0.0
C376 C 0.36883 0.46578 0.34852 0.0
C377 C 0.36383 0.4473 0.32138 0.0
C378 C 0.37704 0.43673 0.27687 0.0
C379 C 0.3953 0.44459 0.25959 0.0
C380 C 0.40037 0.46307 0.28653 0.0
C381 C 0.44227 0.52019 0.62606 0.0
C382 C 0.46129 0.5145 0.60636 0.0
C383 C 0.42726 0.51982 0.57172 0.0
C384 C 0.4308 0.51371 0.49595 0.0
C385 C 0.4498 0.50787 0.47593 0.0
C386 C 0.46496 0.50842 0.53048 0.0
C387 C 0.41445 0.51319 0.43899 0.0
C388 C 0.40924 0.49535 0.40545 0.0
C389 C 0.40289 0.5298 0.42322 0.0
C390 C 0.40818 0.54935 0.45317 0.0
C391 C 0.42692 0.55705 0.44082 0.0
C392 C 0.4318 0.57546 0.46899 0.0
C393 C 0.41801 0.58641 0.50904 0.0
C394 C 0.39934 0.57894 0.52131 0.0
C395 C 0.3944 0.5605 0.49345 0.0
H396 H 0.42176 0.60072 0.53033 0.0
H397 H 0.37314 0.42242 0.25593 0.0
H398 H 0.03705 0.3135 0.26911 0.0
H399 H 0.03714 0.34234 0.35238 0.0
H400 H 0.99883 0.37171 0.19364 0.0
H401 H 0.99907 0.3429 0.1098 0.0
H402 H 0.02627 0.39625 0.2413 0.0
H403 H 0.98223 0.35234 0.36649 0.0
H404 H 0.97179 0.32122 0.42416 0.0
H405 H 0.0172 0.32565 0.59294 0.0
H406 H 0.0281 0.35666 0.53555 0.0
H407 H 1.00063 0.47329 0.50195 0.0
H408 H 1.00053 0.44577 0.41202 0.0
H409 H 0.03795 0.41363 0.56545 0.0
H410 H 0.03774 0.44088 0.65575 0.0
H411 H 0.00988 0.39077 0.51847 0.0
H412 H 0.05421 0.43454 0.3917 0.0
H413 H 0.06458 0.46564 0.33366 0.0
H414 H 0.01841 0.4616 0.16799 0.0
H415 H 1.00759 0.4306 0.22579 0.0
C416 C 0.02866 0.32614 0.25223 0.0
C417 C 0.01801 0.32603 0.1834 0.0
C418 C 0.02863 0.34261 0.29995 0.0
C419 C 0.01779 0.35926 0.28013 0.0
C420 C 1.0073 0.35913 0.21056 0.0
C421 C 1.00737 0.34265 0.16279 0.0
C422 C 0.01739 0.37673 0.33186 0.0
C423 C 0.02242 0.39507 0.30168 0.0
C424 C 0.01272 0.37531 0.41118 0.0
C425 C 1.00609 0.35674 0.44625 0.0
C426 C 0.99008 0.34661 0.41557 0.0
C427 C 0.98407 0.329 0.44825 0.0
C428 C 0.99386 0.32144 0.51205 0.0
C429 C 0.00964 0.33151 0.54345 0.0
C430 C 0.01574 0.34911 0.51091 0.0
C431 C 1.00898 0.46042 0.51605 0.0
C432 C 0.01918 0.45928 0.58607 0.0
C433 C 1.00896 0.44467 0.46447 0.0
C434 C 0.01933 0.4275 0.48134 0.0
C435 C 0.02976 0.42657 0.55084 0.0
C436 C 0.0297 0.44223 0.60239 0.0
C437 C 0.01896 0.4103 0.42819 0.0
C438 C 0.01373 0.39199 0.4581 0.0
C439 C 0.02342 0.41177 0.34867 0.0
C440 C 0.02997 0.43034 0.31357 0.0
C441 C 0.04618 0.44035 0.34325 0.0
C442 C 0.05215 0.45795 0.31035 0.0
C443 C 0.04213 0.46562 0.24731 0.0
C444 C 0.02614 0.45566 0.21691 0.0
C445 C 0.02009 0.43807 0.24968 0.0
H446 H 0.04677 0.47924 0.22192 0.0
H447 H 0.98919 0.30779 0.53725 0.0
H448 H 0.85436 1.00588 0.30898 0.0
H449 H 0.88346 1.00458 0.22672 0.0
H450 H 0.84685 1.00129 0.02554 0.0
H451 H 0.81781 1.00246 0.10797 0.0
H452 H 0.87655 0.97589 0.01435 0.0
H453 H 0.87021 0.04394 0.0794 0.0
H454 H 0.8677 0.07194 0.16741 0.0
H455 H 0.923 0.05739 0.26684 0.0
H456 H 0.92573 0.02914 0.18002 0.0
H457 H 0.93938 1.00413 0.71362 0.0
H458 H 0.91396 1.00143 0.81128 0.0
H459 H 0.95737 1.00478 0.98994 0.0
H460 H 0.98295 1.00791 0.89131 0.0
H461 H 0.92654 0.02802 0.02241 0.0
H462 H 0.93461 0.96177 0.95248 0.0
H463 H 0.93787 0.93386 0.86452 0.0
H464 H 0.88039 0.94426 0.77705 0.0
H465 H 0.87685 0.97242 0.86376 0.0
C466 C 0.85259 1.00487 0.24716 0.0
C467 C 0.8339 1.00428 0.21467 0.0
C468 C 0.86922 1.00419 0.2001 0.0
C469 C 0.86747 1.00301 0.11948 0.0
C470 C 0.84868 1.00218 0.08734 0.0
C471 C 0.83207 1.0029 0.13443 0.0
C472 C 0.8851 1.00273 0.06848 0.0
C473 C 0.88736 0.9874 0.01573 0.0
C474 C 0.8997 0.01734 0.07166 0.0
C475 C 0.89806 0.0343 0.12384 0.0
C476 C 0.88176 0.04662 0.12047 0.0
C477 C 0.88031 0.06255 0.17005 0.0
C478 C 0.89515 0.06641 0.22285 0.0
C479 C 0.9115 0.05436 0.22603 0.0
C480 C 0.91301 0.0384 0.17662 0.0
C481 C 0.94357 1.00411 0.77371 0.0
C482 C 0.96325 1.00587 0.79473 0.0
C483 C 0.92899 1.00248 0.82965 0.0
C484 C 0.93366 1.00259 0.90837 0.0
C485 C 0.95335 1.00448 0.9297 0.0
C486 C 0.96801 1.00605 0.87336 0.0
C487 C 0.91778 1.00137 0.96739 0.0
C488 C 0.91584 0.01639 0.02159 0.0
C489 C 0.90356 0.9864 0.96599 0.0
C490 C 0.90552 0.96932 0.9143 0.0
C491 C 0.9227 0.95819 0.91417 0.0
C492 C 0.9246 0.94231 0.86457 0.0
C493 C 0.90937 0.93732 0.81511 0.0
C494 C 0.89218 0.94816 0.81537 0.0
C495 C 0.89021 0.96407 0.86482 0.0
H496 H 0.91087 0.92505 0.77664 0.0
H497 H 0.89401 0.07875 0.26117 0.0
H498 H 0.53157 0.8157 0.1386 0.0
H499 H 0.53241 0.844 0.05206 0.0
H500 H 0.50566 0.87913 0.22832 0.0
H501 H 0.50466 0.8507 0.31441 0.0
H502 H 0.48956 0.88713 0.09212 0.0
H503 H 0.55494 0.88267 0.18601 0.0
H504 H 0.58629 0.86674 0.21388 0.0
H505 H 0.59477 0.85577 0.97298 0.0
H506 H 0.56333 0.87141 0.94374 0.0
H507 H 0.507 0.97759 0.89987 0.0
H508 H 0.50731 0.95124 0.99549 0.0
H509 H 0.53556 0.91363 0.83141 0.0
H510 H 0.53567 0.94 0.73681 0.0
H511 H 0.55109 0.90787 0.96677 0.0
H512 H 0.48527 0.91124 0.87309 0.0
H513 H 0.45409 0.92743 0.84451 0.0
H514 H 0.44646 0.94046 0.08424 0.0
H515 H 0.47775 0.92457 0.11411 0.0
C516 C 0.5259 0.8295 0.15869 0.0
C517 C 0.51814 0.83109 0.23314 0.0
C518 C 0.52645 0.84571 0.10936 0.0
C519 C 0.51934 0.86393 0.1336 0.0
C520 C 0.51129 0.86535 0.20793 0.0
C521 C 0.51076 0.84912 0.25725 0.0
C522 C 0.52025 0.8814 0.08152 0.0
C523 C 0.50309 0.8918 0.06566 0.0
C524 C 0.53778 0.88746 0.0454 0.0
C525 C 0.55669 0.87805 0.06278 0.0
C526 C 0.56342 0.87673 0.13903 0.0
C527 C 0.58122 0.86777 0.15506 0.0
C528 C 0.59249 0.8602 0.09526 0.0
C529 C 0.58601 0.86161 0.01926 0.0
C530 C 0.56821 0.87054 0.00292 0.0
C531 C 0.5134 0.96374 0.88449 0.0
C532 C 0.5212 0.96088 0.81048 0.0
C533 C 0.51346 0.9486 0.93907 0.0
C534 C 0.52115 0.93017 0.9207 0.0
C535 C 0.52947 0.92757 0.84744 0.0
C536 C 0.52948 0.9427 0.79313 0.0
C537 C 0.52037 0.91349 0.97674 0.0
C538 C 0.53756 0.90324 0.99339 0.0
C539 C 0.50287 0.90755 0.01342 0.0
C540 C 0.48395 0.91689 0.99572 0.0
C541 C 0.477 0.91766 0.91964 0.0
C542 C 0.4593 0.92677 0.90322 0.0
C543 C 0.44833 0.93501 0.96249 0.0
C544 C 0.455 0.93409 0.03837 0.0
C545 C 0.4727 0.92503 0.05509 0.0
H546 H 0.43464 0.94208 0.94966 0.0
H547 H 0.60627 0.85328 0.10778 0.0
H548 H 0.70707 0.53135 0.11858 0.0
H549 H 0.67862 0.53167 0.03351 0.0
H550 H 0.64679 0.49678 0.19762 0.0
H551 H 0.67549 0.49613 0.28196 0.0
H552 H 0.63962 0.48383 0.0577 0.0
H553 H 0.63857 0.54673 0.17508 0.0
H554 H 0.65171 0.57859 0.21464 0.0
H555 H 0.66137 0.59389 0.97799 0.0
H556 H 0.64853 0.562 0.93703 0.0
H557 H 0.54708 0.49855 0.87791 0.0
H558 H 0.57375 0.49899 0.97197 0.0
H559 H 0.60911 0.53187 0.81289 0.0
H560 H 0.58247 0.53164 0.71948 0.0
H561 H 0.61343 0.54587 0.95518 0.0
H562 H 0.6151 0.48235 0.83886 0.0
H563 H 0.60133 0.45069 0.80022 0.0
H564 H 0.58989 0.43671 0.03692 0.0
H565 H 0.60334 0.46844 0.07689 0.0
C566 C 0.69401 0.52374 0.13639 0.0
C567 C 0.69344 0.51374 0.20686 0.0
C568 C 0.67767 0.52401 0.0879 0.0
C569 C 0.66031 0.51447 0.1092 0.0
C570 C 0.6599 0.50429 0.17955 0.0
C571 C 0.67628 0.50397 0.22791 0.0
C572 C 0.64269 0.51503 0.05809 0.0
C573 C 0.63375 0.49744 0.03632 0.0
C574 C 0.63505 0.5327 0.02864 0.0
C575 C 0.64276 0.5519 0.05304 0.0
C576 C 0.64364 0.55683 0.1315 0.0
C577 C 0.65101 0.5749 0.15417 0.0
C578 C 0.65742 0.58823 0.09887 0.0
C579 C 0.65642 0.58353 0.02076 0.0
C580 C 0.64908 0.56547 0.99778 0.0
C581 C 0.56049 0.506 0.86334 0.0
C582 C 0.56267 0.51501 0.79109 0.0
C583 C 0.5758 0.50615 0.91698 0.0
C584 C 0.59366 0.51524 0.89945 0.0
C585 C 0.59558 0.52471 0.82808 0.0
C586 C 0.58032 0.52454 0.77452 0.0
C587 C 0.61048 0.51469 0.95443 0.0
C588 C 0.61927 0.53227 0.97687 0.0
C589 C 0.61793 0.49702 0.98464 0.0
C590 C 0.61004 0.47786 0.96079 0.0
C591 C 0.60953 0.47258 0.88263 0.0
C592 C 0.60179 0.45462 0.86049 0.0
C593 C 0.59469 0.44172 0.91606 0.0
C594 C 0.59537 0.44673 0.99392 0.0
C595 C 0.60306 0.4647 0.01636 0.0
H596 H 0.5887 0.42782 0.89881 0.0
H597 H 0.66312 0.60222 0.11654 0.0
H598 H 0.0211 0.67177 0.28272 0.0
H599 H 0.02009 0.64242 0.20231 0.0
H600 H 0.98887 0.67417 0.02739 0.0
H601 H 0.98978 0.70346 0.10815 0.0
H602 H 0.9733 0.63812 0.04707 0.0
H603 H 0.03796 0.6643 0.01036 0.0
H604 H 0.07018 0.67607 0.05239 0.0
H605 H 0.08192 0.62072 0.1573 0.0
H606 H 0.04967 0.6087 0.11671 0.0
H607 H 0.98793 0.57676 0.7246 0.0
H608 H 0.98682 0.6032 0.81831 0.0
H609 H 0.02049 0.56875 0.97734 0.0
H610 H 0.02188 0.54225 0.88266 0.0
H611 H 0.03445 0.60475 0.97276 0.0
H612 H 0.97156 0.57748 0.00738 0.0
H613 H 0.93951 0.56462 0.96887 0.0
H614 H 0.92417 0.62023 0.87415 0.0
H615 H 0.95625 0.6334 0.91138 0.0
C616 C 0.014 0.67243 0.22711 0.0
C617 C 1.00554 0.68986 0.20158 0.0
C618 C 0.01348 0.65567 0.18099 0.0
C619 C 1.00456 0.656 0.10805 0.0
C620 C 0.99583 0.67343 0.08322 0.0
C621 C 0.99639 0.69021 0.12935 0.0
C622 C 1.00453 0.63833 0.05736 0.0
C623 C 0.9867 0.63098 0.03012 0.0
C624 C 0.02192 0.62848 0.03697 0.0
C625 C 0.04133 0.63568 0.06118 0.0
C626 C 0.04736 0.65469 0.0429 0.0
C627 C 0.06563 0.6614 0.06637 0.0
C628 C 0.07807 0.64917 0.10768 0.0
C629 C 0.07227 0.63019 0.12541 0.0
C630 C 0.054 0.62342 0.10213 0.0
C631 C 0.99498 0.57472 0.77977 0.0
C632 C 1.00501 0.55739 0.79608 0.0
C633 C 0.99426 0.58987 0.83363 0.0
C634 C 1.00342 0.58805 0.90563 0.0
C635 C 0.01329 0.5706 0.9224 0.0
C636 C 0.014 0.5554 0.86837 0.0
C637 C 1.00324 0.60463 0.96176 0.0
C638 C 0.02102 0.6118 0.98998 0.0
C639 C 0.98579 0.61416 0.98372 0.0
C640 C 0.9664 0.60639 0.96163 0.0
C641 C 0.96142 0.58694 0.97785 0.0
C642 C 0.94324 0.5796 0.95631 0.0
C643 C 0.92984 0.59158 0.91889 0.0
C644 C 0.93458 0.61096 0.9031 0.0
C645 C 0.95275 0.61839 0.92453 0.0
H646 H 0.91577 0.58586 0.90237 0.0
H647 H 0.09221 0.65439 0.12579 0.0
H648 H 0.03042 0.22719 0.31333 0.0
H649 H 0.01699 0.20914 0.42051 0.0
H650 H 0.96565 0.24536 0.4165 0.0
H651 H 0.97884 0.2628 0.30459 0.0
H652 H 1.00168 0.20628 0.55052 0.0
H653 H 0.92716 0.21751 0.42781 0.0
H654 H 0.91054 0.23187 0.31514 0.0
H655 H 0.95902 0.21656 0.17121 0.0
H656 H 0.97576 0.20198 0.28293 0.0
H657 H 0.97052 0.10929 0.61492 0.0
H658 H 0.96645 0.14461 0.62266 0.0
H659 H 0.96834 0.14822 0.37481 0.0
H660 H 0.97122 0.11309 0.36651 0.0
H661 H 0.94546 0.17453 0.42329 0.0
H662 H 1.008 0.14888 0.50263 0.0
H663 H 0.03202 0.13238 0.58508 0.0
H664 H 0.01991 0.17255 0.76755 0.0
H665 H 0.99467 0.18824 0.68885 0.0
C666 C 0.01659 0.23177 0.33719 0.0
C667 C 1.0053 0.24579 0.29938 0.0
C668 C 1.0089 0.22153 0.39913 0.0
C669 C 0.98986 0.2253 0.42468 0.0
C670 C 0.98009 0.24176 0.396 0.0
C671 C 0.98767 0.25183 0.3325 0.0
C672 C 0.97935 0.2093 0.46474 0.0
C673 C 0.98902 0.1995 0.52441 0.0
C674 C 0.9628 0.20044 0.43083 0.0
C675 C 0.95272 0.20892 0.36357 0.0
C676 C 0.9342 0.21721 0.37202 0.0
C677 C 0.92478 0.22537 0.30839 0.0
C678 C 0.93374 0.22518 0.23612 0.0
C679 C 0.95209 0.21672 0.22719 0.0
C680 C 0.96153 0.20848 0.29054 0.0
C681 C 0.96937 0.11756 0.56202 0.0
C682 C 0.9715 0.10843 0.48989 0.0
C683 C 0.96716 0.13775 0.56672 0.0
C684 C 0.96738 0.14912 0.49959 0.0
C685 C 0.96812 0.13982 0.42764 0.0
C686 C 0.97006 0.11972 0.42284 0.0
C687 C 0.96929 0.17061 0.50221 0.0
C688 C 0.95751 0.18157 0.45259 0.0
C689 C 0.98489 0.17994 0.54102 0.0
C690 C 0.99894 0.16936 0.59058 0.0
C691 C 0.00995 0.15377 0.56133 0.0
C692 C 0.02377 0.1445 0.60759 0.0
C693 C 0.02723 0.15114 0.68226 0.0
C694 C 0.01682 0.167 0.71081 0.0
C695 C 1.00261 0.17597 0.66565 0.0
H696 H 0.03817 0.14417 0.71753 0.0
H697 H 0.92645 0.23155 0.18701 0.0
H698 H 0.29257 0.95976 0.24797 0.0
H699 H 0.30866 0.94925 0.36498 0.0
H700 H 0.28308 0.99733 0.48853 0.0
H701 H 0.26744 1.00835 0.36952 0.0
H702 H 0.31957 1.00005 0.49824 0.0
H703 H 0.27869 0.94857 0.55874 0.0
H704 H 0.2567 0.92055 0.54181 0.0
H705 H 0.3038 0.88677 0.45013 0.0
H706 H 0.32604 0.91464 0.46523 0.0
H707 H 0.40817 0.98014 0.66747 0.0
H708 H 0.37275 0.97746 0.67629 0.0
H709 H 0.37217 0.94197 0.47198 0.0
H710 H 0.40757 0.94463 0.46288 0.0
H711 H 0.34082 0.93348 0.56925 0.0
H712 H 0.37405 0.99228 0.46078 0.0
H713 H 0.39651 0.01989 0.48081 0.0
H714 H 0.36181 0.03947 0.67118 0.0
H715 H 0.33905 0.01211 0.65128 0.0
C716 C 0.28989 0.96774 0.30064 0.0
C717 C 0.27915 0.98508 0.29944 0.0
C718 C 0.29888 0.96156 0.36815 0.0
C719 C 0.29715 0.97247 0.43616 0.0
C720 C 0.28465 0.98866 0.43689 0.0
C721 C 0.27569 0.99493 0.36892 0.0
C722 C 0.3118 0.96958 0.49799 0.0
C723 C 0.32371 0.98553 0.51647 0.0
C724 C 0.31731 0.95074 0.5228 0.0
C725 C 0.30408 0.93377 0.51335 0.0
C726 C 0.28436 0.93521 0.53458 0.0
C727 C 0.27184 0.91933 0.52533 0.0
C728 C 0.27885 0.90188 0.49498 0.0
C729 C 0.2984 0.90028 0.47384 0.0
C730 C 0.311 0.91611 0.48297 0.0
C731 C 0.40049 0.97125 0.62599 0.0
C732 C 0.41043 0.96299 0.56334 0.0
C733 C 0.38031 0.96952 0.63175 0.0
C734 C 0.36982 0.95974 0.5744 0.0
C735 C 0.37998 0.94958 0.51696 0.0
C736 C 0.4002 0.95119 0.51145 0.0
C737 C 0.34885 0.96367 0.56283 0.0
C738 C 0.33595 0.94799 0.55427 0.0
C739 C 0.34224 0.98279 0.54768 0.0
C740 C 0.3551 0.99999 0.55566 0.0
C741 C 0.37121 1.00253 0.50669 0.0
C742 C 0.38397 0.01813 0.51796 0.0
C743 C 0.38066 0.03136 0.57754 0.0
C744 C 0.36441 0.02917 0.62528 0.0
C745 C 0.35157 0.01364 0.61399 0.0
H746 H 0.39064 0.04334 0.58655 0.0
H747 H 0.26913 0.88961 0.48782 0.0
H748 H 0.54759 0.25753 0.28979 0.0
H749 H 0.56273 0.27427 0.39899 0.0
H750 H 0.51268 0.31201 0.41516 0.0
H751 H 0.49757 0.29509 0.30824 0.0
H752 H 0.57431 0.30842 0.37981 0.0
H753 H 0.50815 0.33659 0.57114 0.0
H754 H 0.48227 0.32219 0.65098 0.0
H755 H 0.51311 0.26795 0.65767 0.0
H756 H 0.53946 0.2821 0.57922 0.0
H757 H 0.56007 0.40511 0.36512 0.0
H758 H 0.56336 0.37007 0.3701 0.0
H759 H 0.56472 0.37202 0.6185 0.0
H760 H 0.55976 0.40717 0.61382 0.0
H761 H 0.5413 0.34637 0.5838 0.0
H762 H 0.60535 0.35386 0.50686 0.0
H763 H 0.63406 0.36716 0.43966 0.0
H764 H 0.61137 0.34727 0.22346 0.0
H765 H 0.58239 0.33412 0.28892 0.0
C766 C 0.53951 0.2688 0.31931 0.0
C767 C 0.52161 0.27531 0.29017 0.0
C768 C 0.54817 0.27839 0.38157 0.0
C769 C 0.53897 0.29453 0.41538 0.0
C770 C 0.52007 0.29947 0.39141 0.0
C771 C 0.51147 0.28994 0.32947 0.0
C772 C 0.55031 0.30909 0.45988 0.0
C773 C 0.56731 0.3165 0.4256 0.0
C774 C 0.54201 0.31911 0.52294 0.0
C775 C 0.5259 0.31047 0.56912 0.0
C776 C 0.50957 0.32164 0.59008 0.0
C777 C 0.49476 0.3135 0.63506 0.0
C778 C 0.49604 0.29417 0.6594 0.0
C779 C 0.51212 0.28292 0.63867 0.0
C780 C 0.527 0.29099 0.59381 0.0
C781 C 0.56118 0.39815 0.42088 0.0
C782 C 0.55938 0.40897 0.48894 0.0
C783 C 0.56351 0.37805 0.42377 0.0
C784 C 0.56468 0.36827 0.49477 0.0
C785 C 0.564 0.37918 0.56299 0.0
C786 C 0.56131 0.39933 0.56015 0.0
C787 C 0.56354 0.34668 0.49625 0.0
C788 C 0.54869 0.33794 0.54001 0.0
C789 C 0.57416 0.33519 0.44341 0.0
C790 C 0.59168 0.34289 0.40314 0.0
C791 C 0.60644 0.35236 0.44496 0.0
C792 C 0.62277 0.35988 0.40711 0.0
C793 C 0.62455 0.35803 0.32737 0.0
C794 C 0.61001 0.34863 0.28528 0.0
C795 C 0.59364 0.34107 0.32281 0.0
H796 H 0.6372 0.36389 0.29819 0.0
H797 H 0.48457 0.28791 0.6943 0.0
H798 H 0.26431 0.53296 0.31197 0.0
H799 H 0.2444 0.54718 0.41329 0.0
H800 H 0.21715 0.58495 0.24709 0.0
H801 H 0.23776 0.57155 0.14614 0.0
H802 H 0.21204 0.59873 0.39643 0.0
H803 H 0.20119 0.53999 0.24823 0.0
H804 H 0.211 0.50827 0.1947 0.0
H805 H 0.22049 0.48625 0.42305 0.0
H806 H 0.21082 0.51797 0.47783 0.0
H807 H 0.11017 0.57884 0.39185 0.0
H808 H 0.14473 0.58638 0.37775 0.0
H809 H 0.15741 0.55313 0.58221 0.0
H810 H 0.12278 0.54599 0.59818 0.0
H811 H 0.17352 0.53881 0.44538 0.0
H812 H 0.17058 0.59869 0.58259 0.0
H813 H 0.15754 0.63096 0.6163 0.0
H814 H 0.17005 0.65168 0.38833 0.0
H815 H 0.18291 0.61945 0.35278 0.0
C816 C 0.255 0.54514 0.29766 0.0
C817 C 0.25199 0.55062 0.22063 0.0
C818 C 0.24356 0.55325 0.35581 0.0
C819 C 0.22879 0.56654 0.33697 0.0
C820 C 0.22826 0.5745 0.2627 0.0
C821 C 0.23992 0.56665 0.20481 0.0
C822 C 0.21102 0.56757 0.38496 0.0
C823 C 0.20365 0.58568 0.40812 0.0
C824 C 0.20001 0.55051 0.39934 0.0
C825 C 0.20553 0.53135 0.367 0.0
C826 C 0.20544 0.52839 0.28693 0.0
C827 C 0.21097 0.51043 0.25638 0.0
C828 C 0.21646 0.49528 0.30543 0.0
C829 C 0.2163 0.49803 0.38515 0.0
C830 C 0.21078 0.51598 0.41599 0.0
C831 C 0.12018 0.57375 0.43551 0.0
C832 C 0.11379 0.56146 0.49519 0.0
C833 C 0.13995 0.57814 0.42752 0.0
C834 C 0.15358 0.5703 0.47898 0.0
C835 C 0.14707 0.55934 0.54206 0.0
C836 C 0.12732 0.55508 0.55046 0.0
C837 C 0.17439 0.56999 0.4574 0.0
C838 C 0.1822 0.55188 0.43745 0.0
C839 C 0.1853 0.58713 0.44381 0.0
C840 C 0.17764 0.60659 0.46493 0.0
C841 C 0.17042 0.61007 0.53942 0.0
C842 C 0.16309 0.62837 0.5589 0.0
C843 C 0.16294 0.64335 0.50447 0.0
C844 C 0.17018 0.64007 0.43046 0.0
C845 C 0.17753 0.62179 0.41066 0.0
H846 H 0.15725 0.65751 0.51967 0.0
H847 H 0.22076 0.48139 0.28168 0.0
H848 H 0.93848 0.7715 0.19319 0.0
H849 H 0.92717 0.79455 0.09614 0.0
H850 H 0.98125 0.78756 0.97264 0.0
H851 H 0.99197 0.76393 0.06722 0.0
H852 H 0.94884 0.82406 0.11845 0.0
H853 H 0.98451 0.81394 0.81225 0.0
H854 H 0.98337 0.79051 0.70538 0.0
H855 H 0.92831 0.769 0.78616 0.0
H856 H 0.92885 0.7926 0.89271 0.0
H857 H 0.01586 0.8936 0.01424 0.0
H858 H 0.99927 0.86228 0.02563 0.0
H859 H 0.95204 0.88369 0.88619 0.0
H860 H 0.96904 0.91485 0.87096 0.0
H861 H 0.96712 0.84298 0.85273 0.0
H862 H 0.94142 0.88328 0.05481 0.0
H863 H 0.94416 0.90668 0.16171 0.0
H864 H 0.97939 0.86621 0.28817 0.0
H865 H 0.97716 0.84269 0.18149 0.0
C866 C 0.94724 0.77382 0.14212 0.0
C867 C 0.96622 0.76639 0.13804 0.0
C868 C 0.94081 0.78704 0.08663 0.0
C869 C 0.95361 0.79334 0.02848 0.0
C870 C 0.97104 0.78307 0.0168 0.0
C871 C 0.97728 0.76953 0.07134 0.0
C872 C 0.95269 0.81384 1.00176 0.0
C873 C 0.95219 0.82814 0.05957 0.0
C874 C 0.95713 0.81937 0.92516 0.0
C875 C 0.95674 0.80509 0.86094 0.0
C876 C 0.97205 0.80436 0.80706 0.0
C877 C 0.97153 0.791 0.7465 0.0
C878 C 0.9558 0.77825 0.73906 0.0
C879 C 0.94052 0.77885 0.79212 0.0
C880 C 0.94094 0.79221 0.85272 0.0
C881 C 1.00215 0.89153 0.98462 0.0
C882 C 0.99369 0.9067 0.94215 0.0
C883 C 0.99266 0.8737 0.99144 0.0
C884 C 0.97452 0.87076 0.95636 0.0
C885 C 0.96617 0.88566 0.91254 0.0
C886 C 0.97573 0.90351 0.90517 0.0
C887 C 0.96406 0.85236 0.97 0.0
C888 C 0.96271 0.83873 0.91026 0.0
C889 C 0.95801 0.84725 0.0449 0.0
C890 C 0.95913 0.86124 0.10992 0.0
C891 C 0.94984 0.87941 0.10521 0.0
C892 C 0.95131 0.89269 0.1658 0.0
C893 C 0.96196 0.88793 0.23165 0.0
C894 C 0.97114 0.86986 0.23712 0.0
C895 C 0.96975 0.85654 0.17664 0.0
H896 H 0.96308 0.89824 0.27848 0.0
H897 H 0.95543 0.76792 0.69214 0.0
H898 H 0.74981 0.94167 0.16883 0.0
H899 H 0.72858 0.9345 0.05991 0.0
H900 H 0.74177 0.9908 0.96264 0.0
H901 H 0.7636 0.99749 0.06925 0.0
H902 H 0.70029 0.95775 0.08315 0.0
H903 H 0.71858 0.99874 0.79152 0.0
H904 H 0.74269 0.99712 0.6869 0.0
H905 H 0.75886 0.93953 0.75779 0.0
H906 H 0.73452 0.94055 0.8618 0.0
H907 H 0.63005 0.02402 0.9939 0.0
H908 H 0.66265 0.0101 0.00313 0.0
H909 H 0.64846 0.96864 0.82563 0.0
H910 H 0.61583 0.98278 0.81486 0.0
H911 H 0.68782 0.98274 0.8202 0.0
H912 H 0.64289 0.95339 0.99677 0.0
H913 H 0.61712 0.95365 0.09564 0.0
H914 H 0.65486 0.98465 0.24968 0.0
H915 H 0.68076 0.98489 0.15128 0.0
C916 C 0.74921 0.95187 0.12128 0.0
C917 C 0.75783 0.9703 0.12786 0.0
C918 C 0.7371 0.94778 0.05888 0.0
C919 C 0.73299 0.96239 0.00455 0.0
C920 C 0.74454 0.97929 0.00381 0.0
C921 C 0.75699 0.9832 0.06532 0.0
C922 C 0.71311 0.96365 0.97177 0.0
C923 C 0.69765 0.9627 0.02478 0.0
C924 C 0.70943 0.97013 0.89574 0.0
C925 C 0.72475 0.9698 0.83523 0.0
C926 C 0.72723 0.98569 0.78492 0.0
C927 C 0.74094 0.98487 0.72554 0.0
C928 C 0.75234 0.96826 0.71585 0.0
C929 C 0.75008 0.95243 0.76559 0.0
C930 C 0.73634 0.95314 0.82494 0.0
C931 C 0.634 0.01226 0.95555 0.0
C932 C 0.62034 1.00426 0.90465 0.0
C933 C 0.65258 1.00429 0.96101 0.0
C934 C 0.65773 0.98816 0.91596 0.0
C935 C 0.64463 0.981 0.86117 0.0
C936 C 0.626 0.98895 0.85575 0.0
C937 C 0.67594 0.97768 0.93276 0.0
C938 C 0.69074 0.97708 0.87724 0.0
C939 C 0.67917 0.96963 0.00637 0.0
C940 C 0.66374 0.96922 0.06639 0.0
C941 C 0.64566 0.96035 0.05156 0.0
C942 C 0.63104 0.96042 0.10754 0.0
C943 C 0.63435 0.96919 0.17885 0.0
C944 C 0.65232 0.97787 0.19441 0.0
C945 C 0.66699 0.97789 0.13857 0.0
H946 H 0.623 0.96923 0.2221 0.0
H947 H 0.76292 0.96763 0.66972 0.0
H948 H 0.51385 0.76395 0.09303 0.0
H949 H 0.51047 0.7441 0.97747 0.0
H950 H 0.45531 0.72255 0.06074 0.0
H951 H 0.45864 0.74241 0.17592 0.0
H952 H 0.51173 0.70704 0.03142 0.0
H953 H 0.43182 0.69753 0.92116 0.0
H954 H 0.40521 0.71813 0.87241 0.0
H955 H 0.44652 0.76191 0.80507 0.0
H956 H 0.47342 0.74148 0.85227 0.0
H957 H 0.45793 0.61337 0.97124 0.0
H958 H 0.45697 0.6491 0.97119 0.0
H959 H 0.513 0.65074 0.8587 0.0
H960 H 0.5142 0.61511 0.86077 0.0
H961 H 0.46015 0.67965 0.86392 0.0
H962 H 0.54049 0.68374 0.96045 0.0
H963 H 0.56512 0.66364 0.02663 0.0
H964 H 0.51984 0.6321 0.14325 0.0
H965 H 0.49501 0.65221 0.07887 0.0
C966 C 0.50046 0.7559 0.08437 0.0
C967 C 0.48673 0.7542 0.14389 0.0
C968 C 0.49852 0.74459 0.01818 0.0
C969 C 0.48284 0.73159 0.01128 0.0
C970 C 0.46753 0.73249 0.06468 0.0
C971 C 0.46949 0.74372 0.13094 0.0
C972 C 0.48546 0.71329 0.96803 0.0
C973 C 0.50086 0.70135 0.99209 0.0
C974 C 0.47083 0.70562 0.91962 0.0
C975 C 0.45468 0.71795 0.8906 0.0
C976 C 0.43527 0.71149 0.89548 0.0
C977 C 0.42012 0.72316 0.86822 0.0
C978 C 0.42417 0.74133 0.83576 0.0
C979 C 0.44339 0.74786 0.83042 0.0
C980 C 0.4586 0.73625 0.85758 0.0
C981 C 0.46985 0.62145 0.94562 0.0
C982 C 0.48631 0.61176 0.91757 0.0
C983 C 0.46925 0.64175 0.94512 0.0
C984 C 0.485 0.65246 0.9155 0.0
C985 C 0.50081 0.64268 0.88232 0.0
C986 C 0.50153 0.62244 0.88394 0.0
C987 C 0.48609 0.6736 0.92911 0.0
C988 C 0.47142 0.68578 0.90023 0.0
C989 C 0.50108 0.68153 0.9751 0.0
C990 C 0.51591 0.66922 0.01359 0.0
C991 C 0.53582 0.67247 1.00007 0.0
C992 C 0.5498 0.66111 0.03738 0.0
C993 C 0.54404 0.6465 0.08862 0.0
C994 C 0.52428 0.6433 0.10302 0.0
C995 C 0.51025 0.65467 0.06609 0.0
H996 H 0.55489 0.63775 0.11758 0.0
H997 H 0.41241 0.75034 0.8147 0.0
H998 H 0.75524 0.51486 0.05674 0.0
H999 H 0.77228 0.51639 0.93344 0.0
H1000 H 0.81327 0.55724 0.03017 0.0
H1001 H 0.79555 0.55683 0.15083 0.0
H1002 H 0.81626 0.55887 0.88131 0.0
H1003 H 0.81562 0.5058 0.077 0.0
H1004 H 0.79819 0.48039 0.15041 0.0
H1005 H 0.77869 0.45444 0.93925 0.0
H1006 H 0.79587 0.47989 0.86476 0.0
H1007 H 0.90861 0.52903 0.97438 0.0
H1008 H 0.87429 0.53729 0.96072 0.0
H1009 H 0.86805 0.49402 0.78263 0.0
H1010 H 0.90261 0.48565 0.79612 0.0
H1011 H 0.84083 0.49119 0.89885 0.0
H1012 H 0.8669 0.54021 0.73945 0.0
H1013 H 0.89149 0.56529 0.71155 0.0
H1014 H 0.86797 0.60169 0.88867 0.0
H1015 H 0.84452 0.57612 0.92366 0.0
C1016 C 0.76721 0.52501 0.0503 0.0
C1017 C 0.77471 0.53503 0.11431 0.0
C1018 C 0.77699 0.52583 0.9797 0.0
C1019 C 0.79464 0.53611 0.97384 0.0
C1020 C 0.79995 0.54881 0.0335 0.0
C1021 C 0.78997 0.54835 0.10317 0.0
C1022 C 0.81016 0.52976 0.92005 0.0
C1023 C 0.82157 0.54404 0.88348 0.0
C1024 C 0.81685 0.51024 0.92141 0.0
C1025 C 0.8068 0.49478 0.96555 0.0
C1026 C 0.8076 0.49465 0.0464 0.0
C1027 C 0.79775 0.48029 0.08814 0.0
C1028 C 0.78731 0.46583 0.0495 0.0
C1029 C 0.78674 0.46568 0.96905 0.0
C1030 C 0.79651 0.48008 0.92704 0.0
C1031 C 0.89998 0.52143 0.93173 0.0
C1032 C 0.90817 0.50664 0.88668 0.0
C1033 C 0.88044 0.52623 0.92359 0.0
C1034 C 0.86878 0.5165 0.86958 0.0
C1035 C 0.8769 0.50177 0.82409 0.0
C1036 C 0.89651 0.4969 0.83241 0.0
C1037 C 0.84772 0.52067 0.86721 0.0
C1038 C 0.83523 0.50585 0.89199 0.0
C1039 C 0.84064 0.53991 0.85905 0.0
C1040 C 0.85372 0.55611 0.83404 0.0
C1041 C 0.86692 0.55351 0.77283 0.0
C1042 C 0.88076 0.56782 0.75588 0.0
C1043 C 0.881 0.58524 0.79699 0.0
C1044 C 0.86764 0.58825 0.85629 0.0
C1045 C 0.85416 0.57375 0.87527 0.0
H1046 H 0.89169 0.59632 0.7834 0.0
H1047 H 0.77968 0.45472 0.08188 0.0
H1048 H 0.03753 0.20542 0.12198 0.0
H1049 H 0.03758 0.17431 0.056 0.0
H1050 H 1.0018 0.19846 0.87585 0.0
H1051 H 1.00088 0.22975 0.94491 0.0
H1052 H 0.98815 0.16431 0.90913 0.0
H1053 H 0.05162 0.18602 0.84819 0.0
H1054 H 0.08431 0.19986 0.86934 0.0
H1055 H 0.09846 0.15235 0.01985 0.0
H1056 H 0.06574 0.13835 1.0004 0.0
H1057 H 1.00289 0.07746 0.6822 0.0
H1058 H 1.0037 0.11126 0.72665 0.0
H1059 H 0.02941 0.09271 0.94065 0.0
H1060 H 0.02862 0.05888 0.8969 0.0
H1061 H 0.04814 0.12508 0.87698 0.0
H1062 H 0.98176 0.10453 0.9309 0.0
H1063 H 0.94969 0.09143 0.89356 0.0
H1064 H 0.9421 0.1385 0.73375 0.0
H1065 H 0.97431 0.1517 0.76915 0.0
C1066 C 0.02977 0.20425 0.06791 0.0
C1067 C 0.0191 0.22017 0.03915 0.0
C1068 C 0.02994 0.18636 0.02968 0.0
C1069 C 0.01984 0.18381 0.96015 0.0
C1070 C 0.00971 0.1999 0.92944 0.0
C1071 C 1.00939 0.21791 0.96839 0.0
C1072 C 0.01936 0.16413 0.92232 0.0
C1073 C 1.00135 0.15592 0.90116 0.0
C1074 C 0.03647 0.15289 0.91134 0.0
C1075 C 0.05616 0.16124 0.92338 0.0
C1076 C 0.06165 0.1786 0.88628 0.0
C1077 C 0.08019 0.18646 0.89787 0.0
C1078 C 0.09344 0.17702 0.94606 0.0
C1079 C 0.08818 0.15966 0.9826 0.0
C1080 C 0.06964 0.15175 0.97124 0.0
C1081 C 1.00872 0.08051 0.73883 0.0
C1082 C 0.01566 0.06529 0.78595 0.0
C1083 C 1.00911 0.09991 0.76427 0.0
C1084 C 0.01652 0.10463 0.83736 0.0
C1085 C 0.02362 0.08951 0.8841 0.0
C1086 C 0.02307 0.0701 0.85904 0.0
C1087 C 0.01699 0.12524 0.86548 0.0
C1088 C 0.035 0.13357 0.88492 0.0
C1089 C 0.99998 0.13675 0.87247 0.0
C1090 C 0.98052 0.12899 0.85212 0.0
C1091 C 0.97332 0.11201 0.88737 0.0
C1092 C 0.95512 0.10457 0.86657 0.0
C1093 C 0.9439 0.11409 0.81108 0.0
C1094 C 0.95084 0.13112 0.77653 0.0
C1095 C 0.96906 0.13858 0.79696 0.0
H1096 H 0.92982 0.10831 0.79502 0.0
H1097 H 0.10779 0.18312 0.95496 0.0
H1098 H 0.29895 0.03842 0.02122 0.0
H1099 H 0.32921 0.04182 0.94666 0.0
H1100 H 0.34123 0.98085 0.98082 0.0
H1101 H 0.31096 0.97734 0.05278 0.0
H1102 H 0.36517 0.03814 0.9912 0.0
H1103 H 0.36952 0.96221 0.84156 0.0
H1104 H 0.34803 0.93882 0.77543 0.0
H1105 H 0.30692 0.98433 0.72948 0.0
H1106 H 0.3282 1.00802 0.79483 0.0
H1107 H 0.46333 0.01474 0.90745 0.0
H1108 H 0.42946 0.01525 0.95093 0.0
H1109 H 0.41003 0.01641 0.71495 0.0
H1110 H 0.44393 0.01552 0.67148 0.0
H1111 H 0.38805 0.99251 0.78993 0.0
H1112 H 0.40841 0.05763 0.83578 0.0
H1113 H 0.42955 0.08378 0.88541 0.0
H1114 H 0.41913 0.06443 0.11688 0.0
H1115 H 0.39812 0.03799 0.06857 0.0
C1116 C 0.3078 0.02566 0.01096 0.0
C1117 C 0.3025 1.00762 0.04328 0.0
C1118 C 0.32523 0.02764 0.96895 0.0
C1119 C 0.33766 0.0116 0.95753 0.0
C1120 C 0.33193 0.99345 0.98738 0.0
C1121 C 0.3146 0.99148 0.02919 0.0
C1122 C 0.35717 0.01389 0.91939 0.0
C1123 C 0.37007 0.02819 0.94685 0.0
C1124 C 0.36367 1.00123 0.86032 0.0
C1125 C 0.35044 0.98689 0.82354 0.0
C1126 C 0.35586 0.96722 0.81763 0.0
C1127 C 0.34371 0.95391 0.78025 0.0
C1128 C 0.32607 0.96007 0.74863 0.0
C1129 C 0.32053 0.97955 0.75446 0.0
C1130 C 0.3326 0.99291 0.79189 0.0
C1131 C 0.45187 0.01522 0.86474 0.0
C1132 C 0.45642 0.01499 0.78577 0.0
C1133 C 0.43242 0.01558 0.88972 0.0
C1134 C 0.41698 0.01608 0.83648 0.0
C1135 C 0.42154 0.01594 0.75752 0.0
C1136 C 0.44098 0.01539 0.73258 0.0
C1137 C 0.39617 0.01637 0.86319 0.0
C1138 C 0.38305 1.00253 0.83374 0.0
C1139 C 0.38932 0.02974 0.91908 0.0
C1140 C 0.4018 0.04573 0.94847 0.0
C1141 C 0.41072 0.05887 0.89724 0.0
C1142 C 0.42267 0.07376 0.92514 0.0
C1143 C 0.42571 0.07574 0.00424 0.0
C1144 C 0.41677 0.06287 0.05562 0.0
C1145 C 0.40481 0.04794 0.02801 0.0
H1146 H 0.43498 0.08726 0.02573 0.0
H1147 H 0.31674 0.94977 0.71933 0.0
H1148 H 0.52548 0.28623 0.94048 0.0
H1149 H 0.52534 0.31649 0.86429 0.0
H1150 H 0.48419 0.34161 0.02299 0.0
H1151 H 0.48414 0.31153 0.09792 0.0
H1152 H 0.47552 0.35277 0.8806 0.0
H1153 H 0.53383 0.35043 0.036 0.0
H1154 H 0.56486 0.33653 0.0813 0.0
H1155 H 0.58798 0.33957 0.85189 0.0
H1156 H 0.55698 0.35329 0.80507 0.0
H1157 H 0.49062 0.45462 0.86356 0.0
H1158 H 0.48946 0.42038 0.90167 0.0
H1159 H 0.52765 0.40561 0.71381 0.0
H1160 H 0.52877 0.43992 0.6747 0.0
H1161 H 0.53848 0.38746 0.85125 0.0
H1162 H 0.48119 0.39369 0.69967 0.0
H1163 H 0.45034 0.40835 0.65656 0.0
H1164 H 0.42526 0.39835 0.87958 0.0
H1165 H 0.45607 0.38387 0.92444 0.0
C1166 C 0.51605 0.29805 0.95782 0.0
C1167 C 0.50486 0.29646 0.02543 0.0
C1168 C 0.51614 0.31545 0.91476 0.0
C1169 C 0.50501 0.33161 0.9384 0.0
C1170 C 0.49298 0.32953 0.00331 0.0
C1171 C 0.49296 0.31227 0.04629 0.0
C1172 C 0.50645 0.35105 0.89896 0.0
C1173 C 0.4893 0.36034 0.8746 0.0
C1174 C 0.52443 0.36095 0.88897 0.0
C1175 C 0.54302 0.35265 0.9169 0.0
C1176 C 0.54548 0.34798 0.99512 0.0
C1177 C 0.56307 0.34017 0.02109 0.0
C1178 C 0.57836 0.33711 0.96945 0.0
C1179 C 0.57611 0.3419 0.89177 0.0
C1180 C 0.55854 0.3497 0.86549 0.0
C1181 C 0.49877 0.44414 0.83006 0.0
C1182 C 0.50975 0.45017 0.76581 0.0
C1183 C 0.49803 0.42448 0.85185 0.0
C1184 C 0.50834 0.41026 0.81044 0.0
C1185 C 0.51952 0.41622 0.74675 0.0
C1186 C 0.52008 0.43589 0.72426 0.0
C1187 C 0.50749 0.3893 0.83465 0.0
C1188 C 0.52473 0.37976 0.85619 0.0
C1189 C 0.48959 0.37918 0.84227 0.0
C1190 C 0.47101 0.38784 0.8156 0.0
C1191 C 0.46915 0.39476 0.73974 0.0
C1192 C 0.45166 0.40301 0.71494 0.0
C1193 C 0.43586 0.40432 0.76534 0.0
C1194 C 0.43752 0.39734 0.84062 0.0
C1195 C 0.45499 0.38909 0.86574 0.0
H1196 H 0.42233 0.41071 0.74603 0.0
H1197 H 0.59197 0.33107 0.98967 0.0
H1198 H 0.23119 0.53692 0.93158 0.0
H1199 H 0.1994 0.53305 0.86963 0.0
H1200 H 0.18873 0.48149 0.00518 0.0
H1201 H 0.2209 0.48513 0.06558 0.0
H1202 H 0.1724 0.4772 0.86654 0.0
H1203 H 0.17142 0.52576 0.06058 0.0
H1204 H 0.18253 0.55511 0.12916 0.0
H1205 H 0.16978 0.59004 0.93049 0.0
H1206 H 0.15895 0.56082 0.86008 0.0
H1207 H 0.0676 0.48425 0.85789 0.0
H1208 H 0.10159 0.48411 0.90089 0.0
H1209 H 0.11577 0.52756 0.73078 0.0
H1210 H 0.08186 0.52753 0.68641 0.0
H1211 H 0.13007 0.53543 0.88659 0.0
H1212 H 0.13013 0.48445 0.69579 0.0
H1213 H 0.11817 0.45411 0.63667 0.0
H1214 H 0.13093 0.42275 0.84445 0.0
H1215 H 0.1427 0.45298 0.90525 0.0
C1216 C 0.22233 0.52438 0.94603 0.0
C1217 C 0.22864 0.51115 0.0024 0.0
C1218 C 0.20403 0.52229 0.91138 0.0
C1219 C 0.19134 0.5072 0.93369 0.0
C1220 C 0.19813 0.49328 0.98681 0.0
C1221 C 0.21659 0.49527 0.02098 0.0
C1222 C 0.17065 0.50685 0.90588 0.0
C1223 C 0.16313 0.4899 0.87169 0.0
C1224 C 0.15836 0.52337 0.91223 0.0
C1225 C 0.16454 0.54105 0.95475 0.0
C1226 C 0.1711 0.53967 0.0313 0.0
C1227 C 0.17735 0.55629 0.07053 0.0
C1228 C 0.1769 0.57442 0.03415 0.0
C1229 C 0.17014 0.57598 0.95854 0.0
C1230 C 0.16395 0.55939 0.91893 0.0
C1231 C 0.07794 0.49374 0.82935 0.0
C1232 C 0.07194 0.50586 0.76844 0.0
C1233 C 0.09741 0.49361 0.85396 0.0
C1234 C 0.11132 0.5058 0.81909 0.0
C1235 C 0.10535 0.51802 0.75863 0.0
C1236 C 0.08595 0.51791 0.73304 0.0
C1237 C 0.13199 0.50592 0.84638 0.0
C1238 C 0.13942 0.52281 0.88106 0.0
C1239 C 0.14402 0.48923 0.84199 0.0
C1240 C 0.13711 0.47102 0.80531 0.0
C1241 C 0.13023 0.47112 0.72911 0.0
C1242 C 0.12352 0.45394 0.69525 0.0
C1243 C 0.12375 0.43653 0.73684 0.0
C1244 C 0.13074 0.43625 0.81233 0.0
C1245 C 0.13745 0.45341 0.84649 0.0
H1246 H 0.11854 0.42324 0.71053 0.0
H1247 H 0.18174 0.58727 0.06461 0.0
H1248 H 1.00267 0.81161 0.26242 0.0
H1249 H 1.00666 0.84233 0.32957 0.0
H1250 H 1.00011 0.8129 0.54746 0.0
H1251 H 0.99544 0.78177 0.47928 0.0
H1252 H 0.97919 0.84577 0.54735 0.0
H1253 H 0.04521 0.83134 0.48498 0.0
H1254 H 0.07266 0.82171 0.40191 0.0
H1255 H 0.06254 0.87127 0.25672 0.0
H1256 H 0.03486 0.88107 0.33836 0.0
H1257 H 1.00712 0.93566 0.73953 0.0
H1258 H 1.00547 0.90172 0.69592 0.0
H1259 H 1.00769 0.92106 0.45997 0.0
H1260 H 1.00926 0.95483 0.50275 0.0
H1261 H 0.03268 0.89155 0.48346 0.0
H1262 H 0.96657 0.90606 0.54849 0.0
H1263 H 0.93872 0.91499 0.63037 0.0
H1264 H 0.94786 0.86413 0.769 0.0
H1265 H 0.97656 0.8555 0.69126 0.0
C1266 C 1.00217 0.81154 0.32475 0.0
C1267 C 0.99863 0.7941 0.36527 0.0
C1268 C 1.00461 0.82923 0.36333 0.0
C1269 C 1.00391 0.83015 0.44405 0.0
C1270 C 1.00078 0.8127 0.48519 0.0
C1271 C 0.9983 0.79484 0.44625 0.0
C1272 C 1.00585 0.84948 0.48401 0.0
C1273 C 0.99113 0.85562 0.5348 0.0
C1274 C 0.02117 0.86265 0.46662 0.0
C1275 C 0.03789 0.85688 0.4176 0.0
C1276 C 0.04877 0.84013 0.43509 0.0
C1277 C 0.06438 0.83465 0.38829 0.0
C1278 C 0.06933 0.84586 0.32403 0.0
C1279 C 0.05869 0.8626 0.30653 0.0
C1280 C 0.04306 0.86815 0.35312 0.0
C1281 C 1.00718 0.93271 0.67829 0.0
C1282 C 1.00831 0.94814 0.62478 0.0
C1283 C 1.00618 0.91323 0.65339 0.0
C1284 C 1.0064 0.90867 0.57437 0.0
C1285 C 1.00753 0.92406 0.52116 0.0
C1286 C 1.00835 0.94347 0.54587 0.0
C1287 C 1.00588 0.88799 0.54618 0.0
C1288 C 0.02088 0.88162 0.49723 0.0
C1289 C 0.99084 0.87465 0.56575 0.0
C1290 C 0.97405 0.88034 0.61474 0.0
C1291 C 0.963 0.89703 0.59764 0.0
C1292 C 0.94705 0.90206 0.64348 0.0
C1293 C 0.94169 0.89027 0.70552 0.0
C1294 C 0.95226 0.87343 0.72183 0.0
C1295 C 0.96845 0.86853 0.67718 0.0
H1296 H 0.92925 0.89407 0.74057 0.0
H1297 H 0.08141 0.84159 0.28785 0.0
H1298 H 0.74088 0.99452 0.47928 0.0
H1299 H 0.70969 0.99889 0.54692 0.0
H1300 H 0.68028 1.00389 0.3285 0.0
H1301 H 0.7111 1.00083 0.26193 0.0
H1302 H 0.66431 0.02767 0.41601 0.0
H1303 H 0.68333 0.96064 0.45092 0.0
H1304 H 0.70418 0.93378 0.49588 0.0
H1305 H 0.6968 0.95251 0.72954 0.0
H1306 H 0.67645 0.97993 0.68578 0.0
H1307 H 0.56692 1.00187 0.49927 0.0
H1308 H 0.60079 1.00115 0.45614 0.0
H1309 H 0.62022 1.00636 0.691 0.0
H1310 H 0.58627 1.00697 0.73479 0.0
H1311 H 0.64227 0.97965 0.61074 0.0
H1312 H 0.62146 0.04547 0.57355 0.0
H1313 H 0.59965 0.07137 0.52681 0.0
H1314 H 0.60917 0.05302 0.2937 0.0
H1315 H 0.63082 0.02681 0.33913 0.0
C1316 C 0.72779 0.99685 0.44587 0.0
C1317 C 0.72862 0.99687 0.36483 0.0
C1318 C 0.70985 0.99911 0.48461 0.0
C1319 C 0.69228 1.00126 0.44321 0.0
C1320 C 0.69336 1.0021 0.36254 0.0
C1321 C 0.71114 1.00011 0.3242 0.0
C1322 C 0.67265 1.00243 0.48193 0.0
C1323 C 0.65955 0.01699 0.45805 0.0
C1324 C 0.66627 0.98894 0.53877 0.0
C1325 C 0.67866 0.97256 0.56495 0.0
C1326 C 0.68638 0.95922 0.51181 0.0
C1327 C 0.69814 0.9439 0.53709 0.0
C1328 C 0.702 0.94158 0.6155 0.0
C1329 C 0.69403 0.95451 0.66881 0.0
C1330 C 0.68242 0.96996 0.6438 0.0
C1331 C 0.57834 1.00278 0.54198 0.0
C1332 C 0.57371 1.00453 0.62065 0.0
C1333 C 0.59779 1.00244 0.51714 0.0
C1334 C 0.61322 1.0039 0.57006 0.0
C1335 C 0.60867 1.0052 0.64885 0.0
C1336 C 0.58919 1.00561 0.67377 0.0
C1337 C 0.63397 1.00443 0.54265 0.0
C1338 C 0.64719 0.99032 0.56896 0.0
C1339 C 0.64046 0.01817 0.48741 0.0
C1340 C 0.62766 0.03409 0.45983 0.0
C1341 C 0.61882 0.04688 0.51235 0.0
C1342 C 0.60649 0.06163 0.48609 0.0
C1343 C 0.603 0.06382 0.40735 0.0
C1344 C 0.61188 0.0513 0.35469 0.0
C1345 C 0.6242 0.03651 0.38066 0.0
H1346 H 0.59344 0.07523 0.38714 0.0
H1347 H 0.71105 0.92969 0.63501 0.0
H1348 H 0.5336 0.72986 0.42302 0.0
H1349 H 0.5358 0.69754 0.48324 0.0
H1350 H 0.47422 0.68909 0.44836 0.0
H1351 H 0.47196 0.72137 0.39033 0.0
H1352 H 0.48277 0.67232 0.57481 0.0
H1353 H 0.50861 0.6702 0.32343 0.0
H1354 H 0.52936 0.67927 0.21322 0.0
H1355 H 0.58035 0.66333 0.34119 0.0
H1356 H 0.55991 0.65451 0.45286 0.0
H1357 H 0.51206 0.56325 0.49829 0.0
H1358 H 0.51033 0.59727 0.45776 0.0
H1359 H 0.51004 0.6154 0.69528 0.0
H1360 H 0.51125 0.58137 0.73622 0.0
H1361 H 0.53194 0.6273 0.46636 0.0
H1362 H 0.48196 0.65935 0.71181 0.0
H1363 H 0.45515 0.64839 0.79571 0.0
H1364 H 0.44419 0.60004 0.64637 0.0
H1365 H 0.46969 0.61153 0.55772 0.0
C1366 C 0.52045 0.72134 0.43035 0.0
C1367 C 0.50261 0.72826 0.4016 0.0
C1368 C 0.52175 0.70269 0.46388 0.0
C1369 C 0.50524 0.69048 0.46928 0.0
C1370 C 0.48723 0.69797 0.44502 0.0
C1371 C 0.48595 0.71652 0.41164 0.0
C1372 C 0.50676 0.66964 0.49587 0.0
C1373 C 0.49369 0.66255 0.55178 0.0
C1374 C 0.52034 0.65644 0.46345 0.0
C1375 C 0.53275 0.66194 0.3969 0.0
C1376 C 0.52427 0.66882 0.3284 0.0
C1377 C 0.53596 0.67389 0.26562 0.0
C1378 C 0.55616 0.67192 0.27026 0.0
C1379 C 0.5647 0.66489 0.33775 0.0
C1380 C 0.55307 0.65986 0.40085 0.0
C1381 C 0.51163 0.57444 0.54214 0.0
C1382 C 0.51175 0.56938 0.62072 0.0
C1383 C 0.51074 0.594 0.51872 0.0
C1384 C 0.50993 0.60915 0.57308 0.0
C1385 C 0.51036 0.60414 0.65172 0.0
C1386 C 0.51113 0.58456 0.67523 0.0
C1387 C 0.50833 0.63005 0.54726 0.0
C1388 C 0.52127 0.63712 0.49085 0.0
C1389 C 0.49394 0.64293 0.57647 0.0
C1390 C 0.47819 0.63608 0.62886 0.0
C1391 C 0.47378 0.64644 0.6964 0.0
C1392 C 0.45874 0.64017 0.74473 0.0
C1393 C 0.44825 0.62335 0.72722 0.0
C1394 C 0.45242 0.613 0.66016 0.0
C1395 C 0.46707 0.61948 0.61048 0.0
H1396 H 0.43677 0.61842 0.76529 0.0
H1397 H 0.56519 0.67578 0.22147 0.0
H1398 H 0.81067 0.49334 0.29479 0.0
H1399 H 0.84163 0.49141 0.36371 0.0
H1400 H 0.82072 0.53314 0.52922 0.0
H1401 H 0.78952 0.53507 0.45965 0.0
H1402 H 0.8565 0.54322 0.47561 0.0
H1403 H 0.82857 0.48564 0.5821 0.0
H1404 H 0.81172 0.45394 0.58039 0.0
H1405 H 0.85779 0.42968 0.44395 0.0
H1406 H 0.8748 0.46132 0.44396 0.0
H1407 H 0.94226 0.52316 0.72334 0.0
H1408 H 0.90801 0.52443 0.68157 0.0
H1409 H 0.92445 0.50133 0.46055 0.0
H1410 H 0.95866 0.50085 0.50054 0.0
H1411 H 0.88977 0.48251 0.55565 0.0
H1412 H 0.91751 0.54109 0.44938 0.0
H1413 H 0.93369 0.57303 0.45195 0.0
H1414 H 0.88667 0.59639 0.58569 0.0
H1415 H 0.87043 0.5644 0.58569 0.0
C1416 C 0.81247 0.5017 0.34713 0.0
C1417 C 0.79752 0.51416 0.37232 0.0
C1418 C 0.83023 0.50062 0.38655 0.0
C1419 C 0.83366 0.51205 0.45223 0.0
C1420 C 0.81852 0.52412 0.47891 0.0
C1421 C 0.80059 0.52507 0.43968 0.0
C1422 C 0.85345 0.51226 0.48919 0.0
C1423 C 0.86361 0.52998 0.49465 0.0
C1424 C 0.86303 0.49497 0.51255 0.0
C1425 C 0.85288 0.4759 0.51254 0.0
C1426 C 0.83504 0.47358 0.55124 0.0
C1427 C 0.82547 0.45562 0.55067 0.0
C1428 C 0.83366 0.43982 0.51195 0.0
C1429 C 0.85146 0.44194 0.47387 0.0
C1430 C 0.86109 0.45988 0.47424 0.0
C1431 C 0.93858 0.51846 0.66569 0.0
C1432 C 0.95328 0.51204 0.61508 0.0
C1433 C 0.91899 0.51923 0.64184 0.0
C1434 C 0.91362 0.51312 0.56756 0.0
C1435 C 0.92821 0.50625 0.51785 0.0
C1436 C 0.9478 0.50604 0.54076 0.0
C1437 C 0.89282 0.51345 0.54162 0.0
C1438 C 0.88253 0.49579 0.53787 0.0
C1439 C 0.88314 0.53083 0.51984 0.0
C1440 C 0.89309 0.55005 0.52018 0.0
C1441 C 0.91085 0.55283 0.48127 0.0
C1442 C 0.91997 0.57103 0.48166 0.0
C1443 C 0.91132 0.58669 0.51966 0.0
C1444 C 0.89344 0.58422 0.55668 0.0
C1445 C 0.88428 0.56604 0.55652 0.0
H1446 H 0.9184 0.60077 0.51985 0.0
H1447 H 0.82622 0.42592 0.51156 0.0
loop_
_geom_bond_atom_site_label_1
_geom_bond_atom_site_label_2
_geom_bond_distance
_geom_bond_site_symmetry_2
_ccdc_geom_bond_type
H0 C3 0.929 . S
H1 C6 0.929 . S
H2 C8 0.930 . S
C3 H0 0.929 . S
C3 C4 1.398 . S
C3 C5 1.396 . S
C4 C3 1.398 . S
C4 C8 1.407 . S
C5 C3 1.396 . S
C5 C6 1.394 . S
C6 H1 0.929 . S
C6 C5 1.394 . S
C6 C7 1.382 . S
C7 C6 1.382 . S
C7 C8 1.392 . S
C7 N9 1.420 . S
C8 H2 0.930 . S
C8 C4 1.407 . S
C8 C7 1.392 . S
N9 C7 1.420 . S
N9 C10 1.244 . S
C10 N9 1.244 . S
H11 C14 0.929 . S
H12 C17 0.929 . S
H13 C19 0.930 . S
C14 H11 0.929 . S
C14 C15 1.397 . S
C14 C16 1.397 . S
C15 C14 1.397 . S
C15 C19 1.409 1_655 S
C16 C14 1.397 . S
C16 C17 1.392 1_655 S
C17 H12 0.929 . S
C17 C16 1.392 1_455 S
C17 C18 1.382 . S
C18 C17 1.382 . S
C18 C19 1.392 . S
C18 N20 1.420 . S
C19 H13 0.930 . S
C19 C15 1.409 1_455 S
C19 C18 1.392 . S
N20 C18 1.420 . S
N20 C21 1.244 1_455 S
C21 N20 1.244 1_655 S
H22 C25 0.929 . S
H23 C28 0.929 . S
H24 C30 0.930 . S
C25 H22 0.929 . S
C25 C26 1.399 . S
C25 C27 1.399 . S
C26 C25 1.399 . S
C26 C30 1.405 1_565 S
C27 C25 1.399 . S
C27 C28 1.390 1_565 S
C28 H23 0.929 . S
C28 C27 1.390 1_545 S
C28 C29 1.382 . S
C29 C28 1.382 . S
C29 C30 1.392 . S
C29 N31 1.420 . S
C30 H24 0.930 . S
C30 C26 1.405 1_545 S
C30 C29 1.392 . S
N31 C29 1.420 . S
N31 C32 1.244 1_545 S
C32 N31 1.244 1_565 S
H33 C36 0.929 . S
H34 C39 0.929 . S
H35 C41 0.930 . S
C36 H33 0.929 . S
C36 C37 1.398 . S
C36 C38 1.396 . S
C37 C36 1.398 . S
C37 C41 1.407 . S
C38 C36 1.396 . S
C38 C39 1.394 . S
C39 H34 0.929 . S
C39 C38 1.394 . S
C39 C40 1.382 . S
C40 C39 1.382 . S
C40 C41 1.392 . S
C40 N42 1.420 . S
C41 H35 0.930 . S
C41 C37 1.407 . S
C41 C40 1.392 . S
N42 C40 1.420 . S
N42 C43 1.244 . S
C43 N42 1.244 . S
H44 C47 0.929 . S
H45 C50 0.929 . S
H46 C52 0.930 . S
C47 H44 0.929 . S
C47 C48 1.398 1_554 S
C47 C49 1.396 . S
C48 C47 1.398 1_556 S
C48 C52 1.407 . S
C49 C47 1.396 . S
C49 C50 1.394 . S
C50 H45 0.929 . S
C50 C49 1.394 . S
C50 C51 1.382 . S
C51 C50 1.382 . S
C51 C52 1.392 1_554 S
C51 N53 1.420 . S
C52 H46 0.930 . S
C52 C48 1.407 . S
C52 C51 1.392 1_556 S
N53 C51 1.420 . S
N53 C54 1.244 . S
C54 N53 1.244 . S
H55 C58 0.931 1_655 S
H56 C61 0.929 . S
H57 C63 0.930 . S
C58 H55 0.931 1_455 S
C58 C59 1.397 1_554 S
C58 C60 1.395 . S
C59 C58 1.397 1_556 S
C59 C63 1.407 . S
C60 C58 1.395 . S
C60 C61 1.394 . S
C61 H56 0.929 . S
C61 C60 1.394 . S
C61 C62 1.382 . S
C62 C61 1.382 . S
C62 C63 1.392 1_554 S
C62 N64 1.420 . S
C63 H57 0.930 . S
C63 C59 1.407 . S
C63 C62 1.392 1_556 S
N64 C62 1.420 . S
N64 C65 1.244 . S
C65 N64 1.244 . S
H66 C69 0.933 . S
H67 C72 0.929 . S
H68 C74 0.930 . S
C69 H66 0.933 . S
C69 C70 1.396 1_564 S
C69 C71 1.394 1_565 S
C70 C69 1.396 1_546 S
C70 C74 1.407 . S
C71 C69 1.394 1_545 S
C71 C72 1.394 . S
C72 H67 0.929 . S
C72 C71 1.394 . S
C72 C73 1.382 . S
C73 C72 1.382 . S
C73 C74 1.392 1_554 S
C73 N75 1.420 . S
C74 H68 0.930 . S
C74 C70 1.407 . S
C74 C73 1.392 1_556 S
N75 C73 1.420 . S
N75 C76 1.262 . S
C76 N75 1.262 . S
H77 C80 0.929 . S
H78 C83 0.929 . S
H79 C85 0.930 . S
C80 H77 0.929 . S
C80 C81 1.398 1_554 S
C80 C82 1.396 . S
C81 C80 1.398 1_556 S
C81 C85 1.407 . S
C82 C80 1.396 . S
C82 C83 1.394 . S
C83 H78 0.929 . S
C83 C82 1.394 . S
C83 C84 1.382 . S
C84 C83 1.382 . S
C84 C85 1.392 1_554 S
C84 N86 1.420 . S
C85 H79 0.930 . S
C85 C81 1.407 . S
C85 C84 1.392 1_556 S
N86 C84 1.420 . S
N86 C87 1.244 . S
C87 N86 1.244 . S
La88 C90 2.928 . S
La88 O108 2.521 . S
La88 O109 2.634 . S
La88 O110 2.554 . S
La88 O111 2.757 1_565 S
La88 O112 2.470 . S
La88 O117 2.482 1_455 S
La88 O119 2.503 1_565 S
La89 C99 2.928 . S
La89 O111 2.482 1_655 S
La89 O113 2.503 1_545 S
La89 O114 2.521 . S
La89 O115 2.617 1_655 S
La89 O116 2.554 . S
La89 O117 2.757 1_545 S
La89 O118 2.470 . S
C90 La88 2.928 . S
C90 C91 1.503 . S
C90 O108 1.261 . S
C90 O109 1.257 . S
C91 C90 1.503 . S
C91 C92 1.394 . S
C91 C96 1.373 . S
C92 C91 1.394 . S
C92 C93 1.380 . S
C92 H120 0.930 . S
C93 C92 1.380 . S
C93 C94 1.376 . S
C93 H121 0.930 . S
C94 C93 1.376 . S
C94 C95 1.370 . S
C95 C94 1.370 . S
C95 C96 1.396 . S
C95 H122 0.929 1_455 S
C96 C91 1.373 . S
C96 C95 1.396 . S
C96 H123 0.929 1_455 S
C97 O110 1.265 . S
C97 O111 1.275 1_565 S
C98 O112 1.258 1_655 S
C98 O113 1.256 . S
C99 La89 2.928 . S
C99 C100 1.503 . S
C99 O114 1.261 . S
C99 O115 1.217 1_655 S
C100 C99 1.503 . S
C100 C101 1.394 . S
C100 C105 1.373 . S
C101 C100 1.394 . S
C101 C102 1.380 . S
C101 H124 0.930 . S
C102 C101 1.380 . S
C102 C103 1.376 . S
C102 H125 0.930 . S
C103 C102 1.376 . S
C103 C104 1.370 . S
C104 C103 1.370 . S
C104 C105 1.396 . S
C104 H126 0.929 1_655 S
C105 C100 1.373 . S
C105 C104 1.396 . S
C105 H127 0.929 1_655 S
C106 O116 1.272 . S
C106 O117 1.271 1_545 S
C107 O118 1.258 1_455 S
C107 O119 1.256 . S
O108 La88 2.521 . S
O108 C90 1.261 . S
O109 La88 2.634 . S
O109 C90 1.257 . S
O110 La88 2.554 . S
O110 C97 1.265 . S
O111 La88 2.757 1_545 S
O111 La89 2.482 1_455 S
O111 C97 1.275 1_545 S
O112 La88 2.470 . S
O112 C98 1.258 1_455 S
O113 La89 2.503 1_565 S
O113 C98 1.256 . S
O114 La89 2.521 . S
O114 C99 1.261 . S
O115 La89 2.617 1_455 S
O115 C99 1.217 1_455 S
O116 La89 2.554 . S
O116 C106 1.272 . S
O117 La88 2.482 1_655 S
O117 La89 2.757 1_565 S
O117 C106 1.271 1_565 S
O118 La89 2.470 . S
O118 C107 1.258 1_655 S
O119 La88 2.503 1_545 S
O119 C107 1.256 . S
H120 C92 0.930 . S
H121 C93 0.930 . S
H122 C95 0.929 1_655 S
H123 C96 0.929 1_655 S
H124 C101 0.930 . S
H125 C102 0.930 . S
H126 C104 0.929 1_455 S
H127 C105 0.929 1_455 S
La128 C130 2.928 . S
La128 O148 2.521 . S
La128 O149 2.626 . S
La128 O150 2.554 . S
La128 O151 2.757 . S
La128 O152 2.470 . S
La128 O157 2.482 1_545 S
La128 O159 2.503 . S
La129 C139 2.928 . S
La129 O151 2.482 1_565 S
La129 O153 2.503 . S
La129 O154 2.521 . S
La129 O155 2.625 1_565 S
La129 O156 2.554 . S
La129 O157 2.757 . S
La129 O158 2.470 . S
C130 La128 2.928 . S
C130 C131 1.503 . S
C130 O148 1.261 . S
C130 O149 1.238 . S
C131 C130 1.503 . S
C131 C132 1.394 . S
C131 C136 1.373 . S
C132 C131 1.394 . S
C132 C133 1.380 . S
C132 H160 0.930 . S
C133 C132 1.380 . S
C133 C134 1.376 . S
C133 H161 0.930 . S
C134 C133 1.376 . S
C134 C135 1.370 . S
C135 C134 1.370 . S
C135 C136 1.396 . S
C135 H162 0.929 1_545 S
C136 C131 1.373 . S
C136 C135 1.396 . S
C136 H163 0.929 1_545 S
C137 O150 1.240 . S
C137 O151 1.289 . S
C138 O152 1.258 1_565 S
C138 O153 1.256 . S
C139 La129 2.928 . S
C139 C140 1.503 . S
C139 O154 1.261 . S
C139 O155 1.237 1_565 S
C140 C139 1.503 . S
C140 C141 1.394 . S
C140 C145 1.373 . S
C141 C140 1.394 . S
C141 C142 1.380 . S
C141 H164 0.930 . S
C142 C141 1.380 . S
C142 C143 1.376 . S
C142 H165 0.930 . S
C143 C142 1.376 . S
C143 C144 1.370 . S
C144 C143 1.370 . S
C144 C145 1.396 . S
C144 H166 0.929 1_565 S
C145 C140 1.373 . S
C145 C144 1.396 . S
C145 H167 0.929 1_565 S
C146 O156 1.240 . S
C146 O157 1.289 . S
C147 O158 1.258 1_545 S
C147 O159 1.256 . S
O148 La128 2.521 . S
O148 C130 1.261 . S
O149 La128 2.626 . S
O149 C130 1.238 . S
O150 La128 2.554 . S
O150 C137 1.240 . S
O151 La128 2.757 . S
O151 La129 2.482 1_545 S
O151 C137 1.289 . S
O152 La128 2.470 . S
O152 C138 1.258 1_545 S
O153 La129 2.503 . S
O153 C138 1.256 . S
O154 La129 2.521 . S
O154 C139 1.261 . S
O155 La129 2.625 1_545 S
O155 C139 1.237 1_545 S
O156 La129 2.554 . S
O156 C146 1.240 . S
O157 La128 2.482 1_565 S
O157 La129 2.757 . S
O157 C146 1.289 . S
O158 La129 2.470 . S
O158 C147 1.258 1_565 S
O159 La128 2.503 . S
O159 C147 1.256 . S
H160 C132 0.930 . S
H161 C133 0.930 . S
H162 C135 0.929 1_565 S
H163 C136 0.929 1_565 S
H164 C141 0.930 . S
H165 C142 0.930 . S
H166 C144 0.929 1_545 S
H167 C145 0.929 1_545 S
La168 C170 2.928 . S
La168 O188 2.521 . S
La168 O189 2.628 . S
La168 O190 2.554 . S
La168 O191 2.757 . S
La168 O192 2.470 . S
La168 O197 2.482 . S
La168 O199 2.503 . S
La169 C179 2.928 . S
La169 O191 2.482 . S
La169 O193 2.503 . S
La169 O194 2.521 . S
La169 O195 2.628 . S
La169 O196 2.554 . S
La169 O197 2.757 . S
La169 O198 2.470 . S
C170 La168 2.928 . S
C170 C171 1.503 . S
C170 O188 1.261 . S
C170 O189 1.243 . S
C171 C170 1.503 . S
C171 C172 1.394 . S
C171 C176 1.373 . S
C172 C171 1.394 . S
C172 C173 1.380 . S
C172 H200 0.930 . S
C173 C172 1.380 . S
C173 C174 1.376 . S
C173 H201 0.930 . S
C174 C173 1.376 . S
C174 C175 1.370 . S
C175 C174 1.370 . S
C175 C176 1.396 . S
C175 H202 0.929 . S
C176 C171 1.373 . S
C176 C175 1.396 . S
C176 H203 0.929 . S
C177 O190 1.240 . S
C177 O191 1.289 . S
C178 O192 1.258 . S
C178 O193 1.256 . S
C179 La169 2.928 . S
C179 C180 1.503 . S
C179 O194 1.261 . S
C179 O195 1.243 . S
C180 C179 1.503 . S
C180 C181 1.394 . S
C180 C185 1.373 . S
C181 C180 1.394 . S
C181 C182 1.380 . S
C181 H204 0.930 . S
C182 C181 1.380 . S
C182 C183 1.376 . S
C182 H205 0.930 . S
C183 C182 1.376 . S
C183 C184 1.370 . S
C184 C183 1.370 . S
C184 C185 1.396 . S
C184 H206 0.929 . S
C185 C180 1.373 . S
C185 C184 1.396 . S
C185 H207 0.929 . S
C186 O196 1.240 . S
C186 O197 1.289 . S
C187 O198 1.258 . S
C187 O199 1.256 . S
O188 La168 2.521 . S
O188 C170 1.261 . S
O189 La168 2.628 . S
O189 C170 1.243 . S
O190 La168 2.554 . S
O190 C177 1.240 . S
O191 La168 2.757 . S
O191 La169 2.482 . S
O191 C177 1.289 . S
O192 La168 2.470 . S
O192 C178 1.258 . S
O193 La169 2.503 . S
O193 C178 1.256 . S
O194 La169 2.521 . S
O194 C179 1.261 . S
O195 La169 2.628 . S
O195 C179 1.243 . S
O196 La169 2.554 . S
O196 C186 1.240 . S
O197 La168 2.482 . S
O197 La169 2.757 . S
O197 C186 1.289 . S
O198 La169 2.470 . S
O198 C187 1.258 . S
O199 La168 2.503 . S
O199 C187 1.256 . S
H200 C172 0.930 . S
H201 C173 0.930 . S
H202 C175 0.929 . S
H203 C176 0.929 . S
H204 C181 0.930 . S
H205 C182 0.930 . S
H206 C184 0.929 . S
H207 C185 0.929 . S
La208 C210 2.928 . S
La208 O228 2.521 . S
La208 O229 2.628 . S
La208 O230 2.554 . S
La208 O231 2.757 1_655 S
La208 O232 2.470 . S
La208 O237 2.482 . S
La208 O239 2.503 1_655 S
La209 C219 2.928 . S
La209 O231 2.482 . S
La209 O233 2.503 1_455 S
La209 O234 2.521 . S
La209 O235 2.628 . S
La209 O236 2.554 . S
La209 O237 2.757 1_455 S
La209 O238 2.470 . S
C210 La208 2.928 . S
C210 C211 1.503 . S
C210 O228 1.261 . S
C210 O229 1.243 . S
C211 C210 1.503 . S
C211 C212 1.394 . S
C211 C216 1.373 . S
C212 C211 1.394 . S
C212 C213 1.380 . S
C212 H240 0.930 . S
C213 C212 1.380 . S
C213 C214 1.376 . S
C213 H241 0.930 . S
C214 C213 1.376 . S
C214 C215 1.370 . S
C215 C214 1.370 . S
C215 C216 1.396 . S
C215 H242 0.929 . S
C216 C211 1.373 . S
C216 C215 1.396 . S
C216 H243 0.929 . S
C217 O230 1.253 . S
C217 O231 1.282 1_655 S
C218 O232 1.258 . S
C218 O233 1.256 . S
C219 La209 2.928 . S
C219 C220 1.503 . S
C219 O234 1.261 . S
C219 O235 1.243 . S
C220 C219 1.503 . S
C220 C221 1.394 . S
C220 C225 1.373 . S
C221 C220 1.394 . S
C221 C222 1.380 . S
C221 H244 0.930 . S
C222 C221 1.380 . S
C222 C223 1.376 . S
C222 H245 0.930 . S
C223 C222 1.376 . S
C223 C224 1.370 . S
C224 C223 1.370 . S
C224 C225 1.396 . S
C224 H246 0.929 . S
C225 C220 1.373 . S
C225 C224 1.396 . S
C225 H247 0.929 . S
C226 O236 1.240 . S
C226 O237 1.289 1_455 S
C227 O238 1.258 . S
C227 O239 1.256 . S
O228 La208 2.521 . S
O228 C210 1.261 . S
O229 La208 2.628 . S
O229 C210 1.243 . S
O230 La208 2.554 . S
O230 C217 1.253 . S
O231 La208 2.757 1_455 S
O231 La209 2.482 . S
O231 C217 1.282 1_455 S
O232 La208 2.470 . S
O232 C218 1.258 . S
O233 La209 2.503 1_655 S
O233 C218 1.256 . S
O234 La209 2.521 . S
O234 C219 1.261 . S
O235 La209 2.628 . S
O235 C219 1.243 . S
O236 La209 2.554 . S
O236 C226 1.240 . S
O237 La208 2.482 . S
O237 La209 2.757 1_655 S
O237 C226 1.289 1_655 S
O238 La209 2.470 . S
O238 C227 1.258 . S
O239 La208 2.503 1_455 S
O239 C227 1.256 . S
H240 C212 0.930 . S
H241 C213 0.930 . S
H242 C215 0.929 . S
H243 C216 0.929 . S
H244 C221 0.930 . S
H245 C222 0.930 . S
H246 C224 0.929 . S
H247 C225 0.929 . S
H248 C266 0.951 . S
H249 C268 0.951 . S
H250 C270 0.950 . S
H251 C271 0.950 . S
H252 C273 0.950 . S
H253 C276 0.950 . S
H254 C277 0.950 . S
H255 C279 0.950 . S
H256 C280 0.950 . S
H257 C281 0.951 . S
H258 C283 0.951 . S
H259 C285 0.950 . S
H260 C286 0.950 . S
H261 C288 0.950 . S
H262 C291 0.950 . S
H263 C292 0.950 . S
H264 C294 0.950 . S
H265 C295 0.950 . S
C266 H248 0.951 . S
C266 C267 1.366 1_565 S
C266 C268 1.388 . S
C267 C266 1.366 1_545 S
C267 C271 1.385 . S
C268 H249 0.951 . S
C268 C266 1.388 . S
C268 C269 1.366 1_565 S
C269 C268 1.366 1_545 S
C269 C270 1.414 . S
C269 C272 1.499 . S
C270 H250 0.950 . S
C270 C269 1.414 . S
C270 C271 1.374 . S
C271 H251 0.950 . S
C271 C267 1.385 . S
C271 C270 1.374 . S
C272 C269 1.499 . S
C272 C273 1.373 1_545 S
C272 C274 1.389 . S
C273 H252 0.950 . S
C273 C272 1.373 1_565 S
C273 C289 1.377 . S
C274 C272 1.389 . S
C274 C275 1.524 . S
C274 C288 1.377 . S
C275 C274 1.524 . S
C275 C276 1.397 . S
C275 C280 1.363 . S
C276 H253 0.950 . S
C276 C275 1.397 . S
C276 C277 1.334 . S
C277 H254 0.950 . S
C277 C276 1.334 . S
C277 C278 1.287 . S
C278 C277 1.287 . S
C278 C279 1.524 . S
C278 H297 0.913 . S
C279 H255 0.950 . S
C279 C278 1.524 . S
C279 C280 1.415 . S
C280 H256 0.950 . S
C280 C275 1.363 . S
C280 C279 1.415 . S
C281 H257 0.951 . S
C281 C282 1.366 . S
C281 C283 1.388 . S
C282 C281 1.366 . S
C282 C286 1.385 1_545 S
C283 H258 0.951 . S
C283 C281 1.388 . S
C283 C284 1.371 . S
C284 C283 1.371 . S
C284 C285 1.410 1_545 S
C284 C287 1.499 1_545 S
C285 H259 0.950 . S
C285 C284 1.410 1_565 S
C285 C286 1.374 . S
C286 H260 0.950 . S
C286 C282 1.385 1_565 S
C286 C285 1.374 . S
C287 C284 1.499 1_565 S
C287 C288 1.376 1_565 S
C287 C289 1.387 . S
C288 H261 0.950 . S
C288 C274 1.377 . S
C288 C287 1.376 1_545 S
C289 C273 1.377 . S
C289 C287 1.387 . S
C289 C290 1.524 . S
C290 C289 1.524 . S
C290 C291 1.397 . S
C290 C295 1.363 . S
C291 H262 0.950 . S
C291 C290 1.397 . S
C291 C292 1.334 . S
C292 H263 0.950 . S
C292 C291 1.334 . S
C292 C293 1.287 . S
C293 C292 1.287 . S
C293 C294 1.524 . S
C293 H296 0.999 . S
C294 H264 0.950 . S
C294 C293 1.524 . S
C294 C295 1.415 . S
C295 H265 0.950 . S
C295 C290 1.363 . S
C295 C294 1.415 . S
H296 C293 0.999 . S
H297 C278 0.913 . S
H298 C316 0.951 . S
H299 C318 0.951 . S
H300 C320 0.950 . S
H301 C321 0.950 . S
H302 C323 0.950 . S
H303 C326 0.950 . S
H304 C327 0.950 . S
H305 C329 0.950 . S
H306 C330 0.950 . S
H307 C331 0.951 . S
H308 C333 0.951 . S
H309 C335 0.950 . S
H310 C336 0.950 . S
H311 C338 0.950 . S
H312 C341 0.950 . S
H313 C342 0.950 . S
H314 C344 0.950 . S
H315 C345 0.950 . S
C316 H298 0.951 . S
C316 C317 1.366 . S
C316 C318 1.388 . S
C317 C316 1.366 . S
C317 C321 1.385 . S
C318 H299 0.951 . S
C318 C316 1.388 . S
C318 C319 1.366 . S
C319 C318 1.366 . S
C319 C320 1.414 . S
C319 C322 1.499 . S
C320 H300 0.950 . S
C320 C319 1.414 . S
C320 C321 1.374 . S
C321 H301 0.950 . S
C321 C317 1.385 . S
C321 C320 1.374 . S
C322 C319 1.499 . S
C322 C323 1.373 . S
C322 C324 1.389 . S
C323 H302 0.950 . S
C323 C322 1.373 . S
C323 C339 1.377 . S
C324 C322 1.389 . S
C324 C325 1.524 . S
C324 C338 1.377 . S
C325 C324 1.524 . S
C325 C326 1.397 . S
C325 C330 1.363 . S
C326 H303 0.950 . S
C326 C325 1.397 . S
C326 C327 1.334 . S
C327 H304 0.950 . S
C327 C326 1.334 . S
C327 C328 1.287 . S
C328 C327 1.287 . S
C328 C329 1.524 . S
C328 H347 0.913 . S
C329 H305 0.950 . S
C329 C328 1.524 . S
C329 C330 1.415 . S
C330 H306 0.950 . S
C330 C325 1.363 . S
C330 C329 1.415 . S
C331 H307 0.951 . S
C331 C332 1.366 . S
C331 C333 1.388 . S
C332 C331 1.366 . S
C332 C336 1.385 . S
C333 H308 0.951 . S
C333 C331 1.388 . S
C333 C334 1.366 . S
C334 C333 1.366 . S
C334 C335 1.414 . S
C334 C337 1.499 . S
C335 H309 0.950 . S
C335 C334 1.414 . S
C335 C336 1.374 . S
C336 H310 0.950 . S
C336 C332 1.385 . S
C336 C335 1.374 . S
C337 C334 1.499 . S
C337 C338 1.373 . S
C337 C339 1.389 . S
C338 H311 0.950 . S
C338 C324 1.377 . S
C338 C337 1.373 . S
C339 C323 1.377 . S
C339 C337 1.389 . S
C339 C340 1.524 . S
C340 C339 1.524 . S
C340 C341 1.397 . S
C340 C345 1.363 . S
C341 H312 0.950 . S
C341 C340 1.397 . S
C341 C342 1.334 . S
C342 H313 0.950 . S
C342 C341 1.334 . S
C342 C343 1.287 . S
C343 C342 1.287 . S
C343 C344 1.524 . S
C343 H346 0.999 . S
C344 H314 0.950 . S
C344 C343 1.524 . S
C344 C345 1.415 . S
C345 H315 0.950 . S
C345 C340 1.363 . S
C345 C344 1.415 . S
H346 C343 0.999 . S
H347 C328 0.913 . S
H348 C366 0.951 . S
H349 C368 0.951 . S
H350 C370 0.950 . S
H351 C371 0.950 . S
H352 C373 0.950 . S
H353 C376 0.950 . S
H354 C377 0.950 . S
H355 C379 0.950 . S
H356 C380 0.950 . S
H357 C381 0.951 . S
H358 C383 0.951 . S
H359 C385 0.950 . S
H360 C386 0.950 . S
H361 C388 0.950 . S
H362 C391 0.950 . S
H363 C392 0.950 . S
H364 C394 0.950 . S
H365 C395 0.950 . S
C366 H348 0.951 . S
C366 C367 1.366 . S
C366 C368 1.388 . S
C367 C366 1.366 . S
C367 C371 1.385 . S
C368 H349 0.951 . S
C368 C366 1.388 . S
C368 C369 1.366 . S
C369 C368 1.366 . S
C369 C370 1.414 . S
C369 C372 1.499 . S
C370 H350 0.950 . S
C370 C369 1.414 . S
C370 C371 1.374 . S
C371 H351 0.950 . S
C371 C367 1.385 . S
C371 C370 1.374 . S
C372 C369 1.499 . S
C372 C373 1.373 . S
C372 C374 1.389 . S
C373 H352 0.950 . S
C373 C372 1.373 . S
C373 C389 1.377 . S
C374 C372 1.389 . S
C374 C375 1.524 . S
C374 C388 1.377 . S
C375 C374 1.524 . S
C375 C376 1.397 . S
C375 C380 1.363 . S
C376 H353 0.950 . S
C376 C375 1.397 . S
C376 C377 1.334 . S
C377 H354 0.950 . S
C377 C376 1.334 . S
C377 C378 1.287 . S
C378 C377 1.287 . S
C378 C379 1.524 . S
C378 H397 0.913 . S
C379 H355 0.950 . S
C379 C378 1.524 . S
C379 C380 1.415 . S
C380 H356 0.950 . S
C380 C375 1.363 . S
C380 C379 1.415 . S
C381 H357 0.951 . S
C381 C382 1.366 . S
C381 C383 1.388 . S
C382 C381 1.366 . S
C382 C386 1.385 . S
C383 H358 0.951 . S
C383 C381 1.388 . S
C383 C384 1.366 . S
C384 C383 1.366 . S
C384 C385 1.414 . S
C384 C387 1.499 . S
C385 H359 0.950 . S
C385 C384 1.414 . S
C385 C386 1.374 . S
C386 H360 0.950 . S
C386 C382 1.385 . S
C386 C385 1.374 . S
C387 C384 1.499 . S
C387 C388 1.373 . S
C387 C389 1.389 . S
C388 H361 0.950 . S
C388 C374 1.377 . S
C388 C387 1.373 . S
C389 C373 1.377 . S
C389 C387 1.389 . S
C389 C390 1.524 . S
C390 C389 1.524 . S
C390 C391 1.397 . S
C390 C395 1.363 . S
C391 H362 0.950 . S
C391 C390 1.397 . S
C391 C392 1.334 . S
C392 H363 0.950 . S
C392 C391 1.334 . S
C392 C393 1.287 . S
C393 C392 1.287 . S
C393 C394 1.524 . S
C393 H396 0.999 . S
C394 H364 0.950 . S
C394 C393 1.524 . S
C394 C395 1.415 . S
C395 H365 0.950 . S
C395 C390 1.363 . S
C395 C394 1.415 . S
H396 C393 0.999 . S
H397 C378 0.913 . S
H398 C416 0.951 . S
H399 C418 0.951 . S
H400 C420 0.950 . S
H401 C421 0.950 . S
H402 C423 0.950 . S
H403 C426 0.950 . S
H404 C427 0.950 . S
H405 C429 0.950 . S
H406 C430 0.950 . S
H407 C431 0.951 . S
H408 C433 0.951 . S
H409 C435 0.950 . S
H410 C436 0.950 . S
H411 C438 0.952 . S
H412 C441 0.950 . S
H413 C442 0.950 . S
H414 C444 0.947 . S
H415 C445 0.950 . S
C416 H398 0.951 . S
C416 C417 1.366 . S
C416 C418 1.388 . S
C417 C416 1.366 . S
C417 C421 1.385 1_455 S
C418 H399 0.951 . S
C418 C416 1.388 . S
C418 C419 1.394 . S
C419 C418 1.394 . S
C419 C420 1.388 1_455 S
C419 C422 1.498 . S
C420 H400 0.950 . S
C420 C419 1.388 1_655 S
C420 C421 1.374 . S
C421 H401 0.950 . S
C421 C417 1.385 1_655 S
C421 C420 1.374 . S
C422 C419 1.498 . S
C422 C423 1.375 . S
C422 C424 1.389 1_455 S
C423 H402 0.950 . S
C423 C422 1.375 . S
C423 C439 1.377 . S
C424 C422 1.389 1_655 S
C424 C425 1.528 . S
C424 C438 1.375 1_655 S
C425 C424 1.528 . S
C425 C426 1.397 . S
C425 C430 1.363 1_655 S
C426 H403 0.950 . S
C426 C425 1.397 . S
C426 C427 1.334 . S
C427 H404 0.950 . S
C427 C426 1.334 . S
C427 C428 1.287 . S
C428 C427 1.287 . S
C428 C429 1.524 1_655 S
C428 H447 0.913 . S
C429 H405 0.950 . S
C429 C428 1.524 1_455 S
C429 C430 1.415 . S
C430 H406 0.950 . S
C430 C425 1.363 1_455 S
C430 C429 1.415 . S
C431 H407 0.951 . S
C431 C432 1.366 1_655 S
C431 C433 1.388 . S
C432 C431 1.366 1_455 S
C432 C436 1.385 . S
C433 H408 0.951 . S
C433 C431 1.388 . S
C433 C434 1.366 1_655 S
C434 C433 1.366 1_455 S
C434 C435 1.414 . S
C434 C437 1.499 . S
C435 H409 0.950 . S
C435 C434 1.414 . S
C435 C436 1.374 . S
C436 H410 0.950 . S
C436 C432 1.385 . S
C436 C435 1.374 . S
C437 C434 1.499 . S
C437 C438 1.373 . S
C437 C439 1.389 . S
C438 H411 0.952 . S
C438 C424 1.375 1_455 S
C438 C437 1.373 . S
C439 C423 1.377 . S
C439 C437 1.389 . S
C439 C440 1.524 . S
C440 C439 1.524 . S
C440 C441 1.397 . S
C440 C445 1.363 1_455 S
C441 H412 0.950 . S
C441 C440 1.397 . S
C441 C442 1.334 . S
C442 H413 0.950 . S
C442 C441 1.334 . S
C442 C443 1.287 . S
C443 C442 1.287 . S
C443 C444 1.528 1_455 S
C443 H446 0.999 . S
C444 H414 0.947 . S
C444 C443 1.528 1_655 S
C444 C445 1.414 . S
C445 H415 0.950 . S
C445 C440 1.363 1_655 S
C445 C444 1.414 . S
H446 C443 0.999 . S
H447 C428 0.913 . S
H448 C466 0.951 . S
H449 C468 0.951 . S
H450 C470 0.950 . S
H451 C471 0.950 . S
H452 C473 0.950 . S
H453 C476 0.950 . S
H454 C477 0.950 . S
H455 C479 0.950 . S
H456 C480 0.950 . S
H457 C481 0.951 . S
H458 C483 0.951 . S
H459 C485 0.950 . S
H460 C486 0.950 . S
H461 C488 0.950 . S
H462 C491 0.950 . S
H463 C492 0.950 . S
H464 C494 0.950 . S
H465 C495 0.950 . S
C466 H448 0.951 . S
C466 C467 1.406 . S
C466 C468 1.388 . S
C467 C466 1.406 . S
C467 C471 1.344 1_565 S
C468 H449 0.951 . S
C468 C466 1.388 . S
C468 C469 1.378 . S
C469 C468 1.378 . S
C469 C470 1.402 1_565 S
C469 C472 1.498 1_565 S
C470 H450 0.950 . S
C470 C469 1.402 1_545 S
C470 C471 1.374 . S
C471 H451 0.950 . S
C471 C467 1.344 1_545 S
C471 C470 1.374 . S
C472 C469 1.498 1_545 S
C472 C473 1.374 . S
C472 C474 1.389 1_545 S
C473 H452 0.950 . S
C473 C472 1.374 . S
C473 C489 1.377 1_554 S
C474 C472 1.389 1_565 S
C474 C475 1.524 . S
C474 C488 1.377 . S
C475 C474 1.524 . S
C475 C476 1.397 1_565 S
C475 C480 1.363 . S
C476 H453 0.950 . S
C476 C475 1.397 1_545 S
C476 C477 1.334 . S
C477 H454 0.950 . S
C477 C476 1.334 . S
C477 C478 1.287 . S
C478 C477 1.287 . S
C478 C479 1.524 1_545 S
C478 H497 0.913 . S
C479 H455 0.950 . S
C479 C478 1.524 1_565 S
C479 C480 1.415 . S
C480 H456 0.950 . S
C480 C475 1.363 . S
C480 C479 1.415 . S
C481 H457 0.951 . S
C481 C482 1.366 1_545 S
C481 C483 1.388 . S
C482 C481 1.366 1_565 S
C482 C486 1.385 . S
C483 H458 0.951 . S
C483 C481 1.388 . S
C483 C484 1.366 1_545 S
C484 C483 1.366 1_565 S
C484 C485 1.414 . S
C484 C487 1.499 . S
C485 H459 0.950 . S
C485 C484 1.414 . S
C485 C486 1.374 . S
C486 H460 0.950 . S
C486 C482 1.385 . S
C486 C485 1.374 . S
C487 C484 1.499 . S
C487 C488 1.373 1_556 S
C487 C489 1.388 1_565 S
C488 H461 0.950 . S
C488 C474 1.377 . S
C488 C487 1.373 1_554 S
C489 C473 1.377 1_556 S
C489 C487 1.388 1_545 S
C489 C490 1.524 . S
C490 C489 1.524 . S
C490 C491 1.382 1_545 S
C490 C495 1.376 . S
C491 H462 0.950 . S
C491 C490 1.382 1_565 S
C491 C492 1.334 . S
C492 H463 0.950 . S
C492 C491 1.334 . S
C492 C493 1.287 . S
C493 C492 1.287 . S
C493 C494 1.524 1_565 S
C493 H496 0.999 . S
C494 H464 0.950 . S
C494 C493 1.524 1_545 S
C494 C495 1.415 . S
C495 H465 0.950 . S
C495 C490 1.376 . S
C495 C494 1.415 . S
H496 C493 0.999 . S
H497 C478 0.913 . S
H498 C516 0.951 . S
H499 C518 0.951 . S
H500 C520 0.950 . S
H501 C521 0.950 . S
H502 C523 0.950 . S
H503 C526 0.950 . S
H504 C527 0.950 . S
H505 C529 0.950 . S
H506 C530 0.950 . S
H507 C531 0.951 . S
H508 C533 0.951 1_554 S
H509 C535 0.950 . S
H510 C536 0.950 . S
H511 C538 0.950 . S
H512 C541 0.950 1_556 S
H513 C542 0.950 1_556 S
H514 C544 0.950 . S
H515 C545 0.950 . S
C516 H498 0.951 . S
C516 C517 1.366 . S
C516 C518 1.388 . S
C517 C516 1.366 . S
C517 C521 1.385 . S
C518 H499 0.951 . S
C518 C516 1.388 . S
C518 C519 1.366 . S
C519 C518 1.366 . S
C519 C520 1.414 . S
C519 C522 1.499 . S
C520 H500 0.950 . S
C520 C519 1.414 . S
C520 C521 1.374 . S
C521 H501 0.950 . S
C521 C517 1.385 . S
C521 C520 1.374 . S
C522 C519 1.499 . S
C522 C523 1.373 . S
C522 C524 1.389 . S
C523 H502 0.950 . S
C523 C522 1.373 . S
C523 C539 1.377 . S
C524 C522 1.389 . S
C524 C525 1.524 . S
C524 C538 1.377 1_554 S
C525 C524 1.524 . S
C525 C526 1.397 . S
C525 C530 1.363 1_554 S
C526 H503 0.950 . S
C526 C525 1.397 . S
C526 C527 1.334 . S
C527 H504 0.950 . S
C527 C526 1.334 . S
C527 C528 1.287 . S
C528 C527 1.287 . S
C528 C529 1.524 1_554 S
C528 H547 0.913 . S
C529 H505 0.950 . S
C529 C528 1.524 1_556 S
C529 C530 1.415 . S
C530 H506 0.950 . S
C530 C525 1.363 1_556 S
C530 C529 1.415 . S
C531 H507 0.951 . S
C531 C532 1.366 . S
C531 C533 1.388 . S
C532 C531 1.366 . S
C532 C536 1.385 . S
C533 H508 0.951 1_556 S
C533 C531 1.388 . S
C533 C534 1.366 . S
C534 C533 1.366 . S
C534 C535 1.414 . S
C534 C537 1.499 . S
C535 H509 0.950 . S
C535 C534 1.414 . S
C535 C536 1.374 . S
C536 H510 0.950 . S
C536 C532 1.385 . S
C536 C535 1.374 . S
C537 C534 1.499 . S
C537 C538 1.373 . S
C537 C539 1.389 1_556 S
C538 H511 0.950 . S
C538 C524 1.377 1_556 S
C538 C537 1.373 . S
C539 C523 1.377 . S
C539 C537 1.389 1_554 S
C539 C540 1.524 . S
C540 C539 1.524 . S
C540 C541 1.397 . S
C540 C545 1.363 . S
C541 H512 0.950 1_554 S
C541 C540 1.397 . S
C541 C542 1.334 . S
C542 H513 0.950 1_554 S
C542 C541 1.334 . S
C542 C543 1.287 . S
C543 C542 1.287 . S
C543 C544 1.524 . S
C543 H546 0.999 . S
C544 H514 0.950 . S
C544 C543 1.524 . S
C544 C545 1.415 . S
C545 H515 0.950 . S
C545 C540 1.363 . S
C545 C544 1.415 . S
H546 C543 0.999 . S
H547 C528 0.913 . S
H548 C566 0.951 . S
H549 C568 0.951 . S
H550 C570 0.950 . S
H551 C571 0.950 . S
H552 C573 0.950 . S
H553 C576 0.950 . S
H554 C577 0.950 . S
H555 C579 0.950 . S
H556 C580 0.950 . S
H557 C581 0.951 . S
H558 C583 0.951 . S
H559 C585 0.950 . S
H560 C586 0.950 . S
H561 C588 0.950 1_556 S
H562 C591 0.950 . S
H563 C592 0.950 . S
H564 C594 0.950 . S
H565 C595 0.950 . S
C566 H548 0.951 . S
C566 C567 1.366 . S
C566 C568 1.388 . S
C567 C566 1.366 . S
C567 C571 1.385 . S
C568 H549 0.951 . S
C568 C566 1.388 . S
C568 C569 1.366 . S
C569 C568 1.366 . S
C569 C570 1.414 . S
C569 C572 1.499 . S
C570 H550 0.950 . S
C570 C569 1.414 . S
C570 C571 1.374 . S
C571 H551 0.950 . S
C571 C567 1.385 . S
C571 C570 1.374 . S
C572 C569 1.499 . S
C572 C573 1.373 . S
C572 C574 1.389 . S
C573 H552 0.950 . S
C573 C572 1.373 . S
C573 C589 1.377 . S
C574 C572 1.389 . S
C574 C575 1.524 . S
C574 C588 1.377 . S
C575 C574 1.524 . S
C575 C576 1.397 . S
C575 C580 1.363 . S
C576 H553 0.950 . S
C576 C575 1.397 . S
C576 C577 1.334 . S
C577 H554 0.950 . S
C577 C576 1.334 . S
C577 C578 1.287 . S
C578 C577 1.287 . S
C578 C579 1.524 . S
C578 H597 0.913 . S
C579 H555 0.950 . S
C579 C578 1.524 . S
C579 C580 1.415 . S
C580 H556 0.950 . S
C580 C575 1.363 . S
C580 C579 1.415 . S
C581 H557 0.951 . S
C581 C582 1.366 . S
C581 C583 1.388 . S
C582 C581 1.366 . S
C582 C586 1.385 . S
C583 H558 0.951 . S
C583 C581 1.388 . S
C583 C584 1.366 . S
C584 C583 1.366 . S
C584 C585 1.414 . S
C584 C587 1.499 . S
C585 H559 0.950 . S
C585 C584 1.414 . S
C585 C586 1.374 . S
C586 H560 0.950 . S
C586 C582 1.385 . S
C586 C585 1.374 . S
C587 C584 1.499 . S
C587 C588 1.373 1_556 S
C587 C589 1.389 1_556 S
C588 H561 0.950 1_554 S
C588 C574 1.377 . S
C588 C587 1.373 1_554 S
C589 C573 1.377 . S
C589 C587 1.389 1_554 S
C589 C590 1.524 1_554 S
C590 C589 1.524 1_556 S
C590 C591 1.397 . S
C590 C595 1.363 1_556 S
C591 H562 0.950 . S
C591 C590 1.397 . S
C591 C592 1.334 . S
C592 H563 0.950 . S
C592 C591 1.334 . S
C592 C593 1.287 . S
C593 C592 1.287 . S
C593 C594 1.524 1_556 S
C593 H596 0.999 . S
C594 H564 0.950 . S
C594 C593 1.524 1_554 S
C594 C595 1.415 . S
C595 H565 0.950 . S
C595 C590 1.363 1_554 S
C595 C594 1.415 . S
H596 C593 0.999 . S
H597 C578 0.913 . S
H598 C616 0.951 . S
H599 C618 0.951 . S
H600 C620 0.950 . S
H601 C621 0.950 . S
H602 C623 0.950 . S
H603 C626 0.950 . S
H604 C627 0.950 . S
H605 C629 0.950 . S
H606 C630 0.950 . S
H607 C631 0.951 . S
H608 C633 0.951 . S
H609 C635 0.950 1_554 S
H610 C636 0.950 . S
H611 C638 0.950 . S
H612 C641 0.950 1_554 S
H613 C642 0.950 . S
H614 C644 0.950 . S
H615 C645 0.950 . S
C616 H598 0.951 . S
C616 C617 1.357 1_455 S
C616 C618 1.388 . S
C617 C616 1.357 1_655 S
C617 C621 1.394 . S
C618 H599 0.951 . S
C618 C616 1.388 . S
C618 C619 1.368 . S
C619 C618 1.368 . S
C619 C620 1.411 1_455 S
C619 C622 1.499 . S
C620 H600 0.950 . S
C620 C619 1.411 1_655 S
C620 C621 1.374 . S
C621 H601 0.950 . S
C621 C617 1.394 . S
C621 C620 1.374 . S
C622 C619 1.499 . S
C622 C623 1.370 1_455 S
C622 C624 1.393 . S
C623 H602 0.950 . S
C623 C622 1.370 1_655 S
C623 C639 1.377 . S
C624 C622 1.393 . S
C624 C625 1.524 . S
C624 C638 1.377 . S
C625 C624 1.524 . S
C625 C626 1.397 . S
C625 C630 1.363 . S
C626 H603 0.950 . S
C626 C625 1.397 . S
C626 C627 1.334 . S
C627 H604 0.950 . S
C627 C626 1.334 . S
C627 C628 1.287 . S
C628 C627 1.287 . S
C628 C629 1.524 . S
C628 H647 0.913 . S
C629 H605 0.950 . S
C629 C628 1.524 . S
C629 C630 1.415 . S
C630 H606 0.950 . S
C630 C625 1.363 . S
C630 C629 1.415 . S
C631 H607 0.951 . S
C631 C632 1.379 . S
C631 C633 1.388 . S
C632 C631 1.379 . S
C632 C636 1.374 1_655 S
C633 H608 0.951 . S
C633 C631 1.388 . S
C633 C634 1.366 . S
C634 C633 1.366 . S
C634 C635 1.414 1_655 S
C634 C637 1.499 . S
C635 H609 0.950 1_556 S
C635 C634 1.414 1_455 S
C635 C636 1.374 . S
C636 H610 0.950 . S
C636 C632 1.374 1_455 S
C636 C635 1.374 . S
C637 C634 1.499 . S
C637 C638 1.373 1_656 S
C637 C639 1.389 1_556 S
C638 H611 0.950 . S
C638 C624 1.377 . S
C638 C637 1.373 1_454 S
C639 C623 1.377 . S
C639 C637 1.389 1_554 S
C639 C640 1.524 1_554 S
C640 C639 1.524 1_556 S
C640 C641 1.397 . S
C640 C645 1.363 . S
C641 H612 0.950 1_556 S
C641 C640 1.397 . S
C641 C642 1.334 . S
C642 H613 0.950 . S
C642 C641 1.334 . S
C642 C643 1.287 . S
C643 C642 1.287 . S
C643 C644 1.524 . S
C643 H646 0.999 . S
C644 H614 0.950 . S
C644 C643 1.524 . S
C644 C645 1.415 . S
C645 H615 0.950 . S
C645 C640 1.363 . S
C645 C644 1.415 . S
H646 C643 0.999 . S
H647 C628 0.913 . S
H648 C666 0.951 . S
H649 C668 0.951 . S
H650 C670 0.950 . S
H651 C671 0.950 . S
H652 C673 0.930 1_455 S
H653 C676 0.950 . S
H654 C677 0.950 . S
H655 C679 0.950 . S
H656 C680 0.950 . S
H657 C681 0.951 . S
H658 C683 0.951 . S
H659 C685 0.950 . S
H660 C686 0.950 . S
H661 C688 0.950 . S
H662 C691 0.950 . S
H663 C692 0.950 . S
H664 C694 0.950 . S
H665 C695 0.950 . S
C666 H648 0.951 . S
C666 C667 1.366 . S
C666 C668 1.388 . S
C667 C666 1.366 . S
C667 C671 1.385 1_455 S
C668 H649 0.951 . S
C668 C666 1.388 . S
C668 C669 1.366 1_455 S
C669 C668 1.366 1_655 S
C669 C670 1.414 . S
C669 C672 1.499 . S
C670 H650 0.950 . S
C670 C669 1.414 . S
C670 C671 1.374 . S
C671 H651 0.950 . S
C671 C667 1.385 1_655 S
C671 C670 1.374 . S
C672 C669 1.499 . S
C672 C673 1.373 . S
C672 C674 1.389 . S
C673 H652 0.930 1_655 S
C673 C672 1.373 . S
C673 C689 1.377 . S
C674 C672 1.389 . S
C674 C675 1.524 . S
C674 C688 1.377 . S
C675 C674 1.524 . S
C675 C676 1.397 . S
C675 C680 1.363 . S
C676 H653 0.950 . S
C676 C675 1.397 . S
C676 C677 1.334 . S
C677 H654 0.950 . S
C677 C676 1.334 . S
C677 C678 1.287 1_554 S
C678 C677 1.287 1_556 S
C678 C679 1.524 . S
C678 H697 0.913 . S
C679 H655 0.950 . S
C679 C678 1.524 . S
C679 C680 1.415 1_556 S
C680 H656 0.950 . S
C680 C675 1.363 . S
C680 C679 1.415 1_554 S
C681 H657 0.951 . S
C681 C682 1.366 . S
C681 C683 1.388 . S
C682 C681 1.366 . S
C682 C686 1.385 . S
C683 H658 0.951 . S
C683 C681 1.388 . S
C683 C684 1.366 . S
C684 C683 1.366 . S
C684 C685 1.414 . S
C684 C687 1.499 . S
C685 H659 0.950 . S
C685 C684 1.414 . S
C685 C686 1.374 . S
C686 H660 0.950 . S
C686 C682 1.385 . S
C686 C685 1.374 . S
C687 C684 1.499 . S
C687 C688 1.373 . S
C687 C689 1.389 . S
C688 H661 0.950 . S
C688 C674 1.377 . S
C688 C687 1.373 . S
C689 C673 1.377 . S
C689 C687 1.389 . S
C689 C690 1.524 1_655 S
C690 C689 1.524 1_455 S
C690 C691 1.397 . S
C690 C695 1.363 1_455 S
C691 H662 0.950 . S
C691 C690 1.397 . S
C691 C692 1.334 . S
C692 H663 0.950 . S
C692 C691 1.334 . S
C692 C693 1.287 . S
C693 C692 1.287 . S
C693 C694 1.524 . S
C693 H696 0.999 . S
C694 H664 0.950 . S
C694 C693 1.524 . S
C694 C695 1.415 1_455 S
C695 H665 0.950 . S
C695 C690 1.363 1_655 S
C695 C694 1.415 1_655 S
H696 C693 0.999 . S
H697 C678 0.913 . S
H698 C716 0.951 . S
H699 C718 0.951 . S
H700 C720 0.949 1_545 S
H701 C721 0.950 . S
H702 C723 0.950 . S
H703 C726 0.950 . S
H704 C727 0.950 . S
H705 C729 0.950 . S
H706 C730 0.950 . S
H707 C731 0.951 . S
H708 C733 0.951 . S
H709 C735 0.950 . S
H710 C736 0.950 . S
H711 C738 0.950 . S
H712 C741 0.950 . S
H713 C742 0.950 . S
H714 C744 0.950 . S
H715 C745 0.950 . S
C716 H698 0.951 . S
C716 C717 1.366 1_565 S
C716 C718 1.388 . S
C717 C716 1.366 1_545 S
C717 C721 1.385 . S
C718 H699 0.951 . S
C718 C716 1.388 . S
C718 C719 1.366 . S
C719 C718 1.366 . S
C719 C720 1.423 . S
C719 C722 1.499 . S
C720 H700 0.949 1_565 S
C720 C719 1.423 . S
C720 C721 1.368 1_565 S
C721 H701 0.950 . S
C721 C717 1.385 . S
C721 C720 1.368 1_545 S
C722 C719 1.499 . S
C722 C723 1.373 1_565 S
C722 C724 1.389 . S
C723 H702 0.950 . S
C723 C722 1.373 1_545 S
C723 C739 1.377 . S
C724 C722 1.389 . S
C724 C725 1.524 . S
C724 C738 1.377 . S
C725 C724 1.524 . S
C725 C726 1.397 . S
C725 C730 1.363 . S
C726 H703 0.950 . S
C726 C725 1.397 . S
C726 C727 1.334 . S
C727 H704 0.950 . S
C727 C726 1.334 . S
C727 C728 1.287 . S
C728 C727 1.287 . S
C728 C729 1.524 . S
C728 H747 0.913 . S
C729 H705 0.950 . S
C729 C728 1.524 . S
C729 C730 1.415 . S
C730 H706 0.950 . S
C730 C725 1.363 . S
C730 C729 1.415 . S
C731 H707 0.951 . S
C731 C732 1.366 . S
C731 C733 1.388 . S
C732 C731 1.366 . S
C732 C736 1.385 . S
C733 H708 0.951 . S
C733 C731 1.388 . S
C733 C734 1.366 . S
C734 C733 1.366 . S
C734 C735 1.414 . S
C734 C737 1.499 . S
C735 H709 0.950 . S
C735 C734 1.414 . S
C735 C736 1.374 . S
C736 H710 0.950 . S
C736 C732 1.385 . S
C736 C735 1.374 . S
C737 C734 1.499 . S
C737 C738 1.373 . S
C737 C739 1.389 1_565 S
C738 H711 0.950 . S
C738 C724 1.377 . S
C738 C737 1.373 . S
C739 C723 1.377 . S
C739 C737 1.389 1_545 S
C739 C740 1.524 . S
C740 C739 1.524 . S
C740 C741 1.397 . S
C740 C745 1.363 . S
C741 H712 0.950 . S
C741 C740 1.397 . S
C741 C742 1.334 . S
C742 H713 0.950 . S
C742 C741 1.334 . S
C742 C743 1.287 . S
C743 C742 1.287 . S
C743 C744 1.524 . S
C743 H746 0.999 . S
C744 H714 0.950 . S
C744 C743 1.524 . S
C744 C745 1.415 . S
C745 H715 0.950 . S
C745 C740 1.363 . S
C745 C744 1.415 . S
H746 C743 0.999 . S
H747 C728 0.913 . S
H748 C766 0.951 . S
H749 C768 0.951 . S
H750 C770 0.950 . S
H751 C771 0.950 . S
H752 C773 0.950 . S
H753 C776 0.950 . S
H754 C777 0.950 . S
H755 C779 0.950 . S
H756 C780 0.950 . S
H757 C781 0.951 . S
H758 C783 0.951 . S
H759 C785 0.950 . S
H760 C786 0.950 . S
H761 C788 0.950 . S
H762 C791 0.950 . S
H763 C792 0.950 . S
H764 C794 0.950 . S
H765 C795 0.950 . S
C766 H748 0.951 . S
C766 C767 1.366 . S
C766 C768 1.388 . S
C767 C766 1.366 . S
C767 C771 1.385 . S
C768 H749 0.951 . S
C768 C766 1.388 . S
C768 C769 1.366 . S
C769 C768 1.366 . S
C769 C770 1.414 . S
C769 C772 1.499 . S
C770 H750 0.950 . S
C770 C769 1.414 . S
C770 C771 1.374 . S
C771 H751 0.950 . S
C771 C767 1.385 . S
C771 C770 1.374 . S
C772 C769 1.499 . S
C772 C773 1.373 . S
C772 C774 1.389 . S
C773 H752 0.950 . S
C773 C772 1.373 . S
C773 C789 1.377 . S
C774 C772 1.389 . S
C774 C775 1.524 . S
C774 C788 1.377 . S
C775 C774 1.524 . S
C775 C776 1.397 . S
C775 C780 1.363 . S
C776 H753 0.950 . S
C776 C775 1.397 . S
C776 C777 1.334 . S
C777 H754 0.950 . S
C777 C776 1.334 . S
C777 C778 1.287 . S
C778 C777 1.287 . S
C778 C779 1.524 . S
C778 H797 0.913 . S
C779 H755 0.950 . S
C779 C778 1.524 . S
C779 C780 1.415 . S
C780 H756 0.950 . S
C780 C775 1.363 . S
C780 C779 1.415 . S
C781 H757 0.951 . S
C781 C782 1.366 . S
C781 C783 1.388 . S
C782 C781 1.366 . S
C782 C786 1.385 . S
C783 H758 0.951 . S
C783 C781 1.388 . S
C783 C784 1.366 . S
C784 C783 1.366 . S
C784 C785 1.414 . S
C784 C787 1.499 . S
C785 H759 0.950 . S
C785 C784 1.414 . S
C785 C786 1.374 . S
C786 H760 0.950 . S
C786 C782 1.385 . S
C786 C785 1.374 . S
C787 C784 1.499 . S
C787 C788 1.373 . S
C787 C789 1.389 . S
C788 H761 0.950 . S
C788 C774 1.377 . S
C788 C787 1.373 . S
C789 C773 1.377 . S
C789 C787 1.389 . S
C789 C790 1.524 . S
C790 C789 1.524 . S
C790 C791 1.397 . S
C790 C795 1.363 . S
C791 H762 0.950 . S
C791 C790 1.397 . S
C791 C792 1.334 . S
C792 H763 0.950 . S
C792 C791 1.334 . S
C792 C793 1.287 . S
C793 C792 1.287 . S
C793 C794 1.524 . S
C793 H796 0.999 . S
C794 H764 0.950 . S
C794 C793 1.524 . S
C794 C795 1.415 . S
C795 H765 0.950 . S
C795 C790 1.363 . S
C795 C794 1.415 . S
H796 C793 0.999 . S
H797 C778 0.913 . S
H798 C816 0.951 . S
H799 C818 0.951 . S
H800 C820 0.950 . S
H801 C821 0.950 . S
H802 C823 0.950 . S
H803 C826 0.950 . S
H804 C827 0.950 . S
H805 C829 0.950 . S
H806 C830 0.950 . S
H807 C831 0.951 . S
H808 C833 0.951 . S
H809 C835 0.950 . S
H810 C836 0.950 . S
H811 C838 0.950 . S
H812 C841 0.950 . S
H813 C842 0.950 . S
H814 C844 0.950 . S
H815 C845 0.950 . S
C816 H798 0.951 . S
C816 C817 1.366 . S
C816 C818 1.388 . S
C817 C816 1.366 . S
C817 C821 1.385 . S
C818 H799 0.951 . S
C818 C816 1.388 . S
C818 C819 1.366 . S
C819 C818 1.366 . S
C819 C820 1.414 . S
C819 C822 1.499 . S
C820 H800 0.950 . S
C820 C819 1.414 . S
C820 C821 1.374 . S
C821 H801 0.950 . S
C821 C817 1.385 . S
C821 C820 1.374 . S
C822 C819 1.499 . S
C822 C823 1.373 . S
C822 C824 1.389 . S
C823 H802 0.950 . S
C823 C822 1.373 . S
C823 C839 1.377 . S
C824 C822 1.389 . S
C824 C825 1.524 . S
C824 C838 1.377 . S
C825 C824 1.524 . S
C825 C826 1.397 . S
C825 C830 1.363 . S
C826 H803 0.950 . S
C826 C825 1.397 . S
C826 C827 1.334 . S
C827 H804 0.950 . S
C827 C826 1.334 . S
C827 C828 1.287 . S
C828 C827 1.287 . S
C828 C829 1.524 . S
C828 H847 0.913 . S
C829 H805 0.950 . S
C829 C828 1.524 . S
C829 C830 1.415 . S
C830 H806 0.950 . S
C830 C825 1.363 . S
C830 C829 1.415 . S
C831 H807 0.951 . S
C831 C832 1.366 . S
C831 C833 1.388 . S
C832 C831 1.366 . S
C832 C836 1.385 . S
C833 H808 0.951 . S
C833 C831 1.388 . S
C833 C834 1.366 . S
C834 C833 1.366 . S
C834 C835 1.414 . S
C834 C837 1.499 . S
C835 H809 0.950 . S
C835 C834 1.414 . S
C835 C836 1.374 . S
C836 H810 0.950 . S
C836 C832 1.385 . S
C836 C835 1.374 . S
C837 C834 1.499 . S
C837 C838 1.373 . S
C837 C839 1.389 . S
C838 H811 0.950 . S
C838 C824 1.377 . S
C838 C837 1.373 . S
C839 C823 1.377 . S
C839 C837 1.389 . S
C839 C840 1.524 . S
C840 C839 1.524 . S
C840 C841 1.397 . S
C840 C845 1.363 . S
C841 H812 0.950 . S
C841 C840 1.397 . S
C841 C842 1.334 . S
C842 H813 0.950 . S
C842 C841 1.334 . S
C842 C843 1.287 . S
C843 C842 1.287 . S
C843 C844 1.524 . S
C843 H846 0.999 . S
C844 H814 0.950 . S
C844 C843 1.524 . S
C844 C845 1.415 . S
C845 H815 0.950 . S
C845 C840 1.363 . S
C845 C844 1.415 . S
H846 C843 0.999 . S
H847 C828 0.913 . S
H848 C866 0.951 . S
H849 C868 0.951 . S
H850 C870 0.950 . S
H851 C871 0.950 . S
H852 C873 0.950 . S
H853 C876 0.950 . S
H854 C877 0.950 . S
H855 C879 0.950 . S
H856 C880 0.950 . S
H857 C881 0.951 . S
H858 C883 0.951 . S
H859 C885 0.950 . S
H860 C886 0.950 . S
H861 C888 0.950 . S
H862 C891 0.950 . S
H863 C892 0.950 . S
H864 C894 0.950 . S
H865 C895 0.950 . S
C866 H848 0.951 . S
C866 C867 1.366 . S
C866 C868 1.388 . S
C867 C866 1.366 . S
C867 C871 1.385 1_655 S
C868 H849 0.951 . S
C868 C866 1.388 . S
C868 C869 1.366 1_655 S
C869 C868 1.366 1_455 S
C869 C870 1.414 . S
C869 C872 1.499 . S
C870 H850 0.950 . S
C870 C869 1.414 . S
C870 C871 1.374 . S
C871 H851 0.950 . S
C871 C867 1.385 1_455 S
C871 C870 1.374 . S
C872 C869 1.499 . S
C872 C873 1.373 . S
C872 C874 1.389 . S
C873 H852 0.950 . S
C873 C872 1.373 . S
C873 C889 1.377 . S
C874 C872 1.389 . S
C874 C875 1.524 . S
C874 C888 1.377 . S
C875 C874 1.524 . S
C875 C876 1.397 . S
C875 C880 1.363 1_554 S
C876 H853 0.950 . S
C876 C875 1.397 . S
C876 C877 1.334 . S
C877 H854 0.950 . S
C877 C876 1.334 . S
C877 C878 1.287 1_554 S
C878 C877 1.287 1_556 S
C878 C879 1.524 . S
C878 H897 0.913 . S
C879 H855 0.950 . S
C879 C878 1.524 . S
C879 C880 1.415 . S
C880 H856 0.950 . S
C880 C875 1.363 1_556 S
C880 C879 1.415 . S
C881 H857 0.951 . S
C881 C882 1.366 1_554 S
C881 C883 1.388 . S
C882 C881 1.366 1_556 S
C882 C886 1.385 . S
C883 H858 0.951 . S
C883 C881 1.388 . S
C883 C884 1.366 . S
C884 C883 1.366 . S
C884 C885 1.414 1_554 S
C884 C887 1.499 . S
C885 H859 0.950 . S
C885 C884 1.414 1_556 S
C885 C886 1.374 . S
C886 H860 0.950 . S
C886 C882 1.385 . S
C886 C885 1.374 . S
C887 C884 1.499 . S
C887 C888 1.373 . S
C887 C889 1.389 . S
C888 H861 0.950 . S
C888 C874 1.377 . S
C888 C887 1.373 . S
C889 C873 1.377 . S
C889 C887 1.389 . S
C889 C890 1.524 . S
C890 C889 1.524 . S
C890 C891 1.397 1_455 S
C890 C895 1.363 . S
C891 H862 0.950 . S
C891 C890 1.397 1_655 S
C891 C892 1.334 . S
C892 H863 0.950 . S
C892 C891 1.334 . S
C892 C893 1.287 . S
C893 C892 1.287 . S
C893 C894 1.524 1_655 S
C893 H896 0.999 . S
C894 H864 0.950 . S
C894 C893 1.524 1_455 S
C894 C895 1.415 . S
C895 H865 0.950 . S
C895 C890 1.363 . S
C895 C894 1.415 . S
H896 C893 0.999 . S
H897 C878 0.913 . S
H898 C916 0.951 . S
H899 C918 0.959 . S
H900 C920 0.950 . S
H901 C921 0.950 . S
H902 C923 0.950 1_565 S
H903 C926 0.950 . S
H904 C927 0.950 . S
H905 C929 0.950 . S
H906 C930 0.950 1_556 S
H907 C931 0.951 . S
H908 C933 0.951 . S
H909 C935 0.950 . S
H910 C936 0.950 . S
H911 C938 0.950 . S
H912 C941 0.950 . S
H913 C942 0.950 . S
H914 C944 0.950 . S
H915 C945 0.950 1_545 S
C916 H898 0.951 . S
C916 C917 1.366 . S
C916 C918 1.398 . S
C917 C916 1.366 . S
C917 C921 1.385 1_565 S
C918 H899 0.959 . S
C918 C916 1.398 . S
C918 C919 1.350 1_565 S
C919 C918 1.350 1_545 S
C919 C920 1.414 . S
C919 C922 1.499 . S
C920 H900 0.950 . S
C920 C919 1.414 . S
C920 C921 1.374 . S
C921 H901 0.950 . S
C921 C917 1.385 1_545 S
C921 C920 1.374 . S
C922 C919 1.499 . S
C922 C923 1.373 . S
C922 C924 1.389 . S
C923 H902 0.950 1_545 S
C923 C922 1.373 . S
C923 C939 1.377 . S
C924 C922 1.389 . S
C924 C925 1.524 . S
C924 C938 1.377 . S
C925 C924 1.524 . S
C925 C926 1.397 . S
C925 C930 1.363 . S
C926 H903 0.950 . S
C926 C925 1.397 . S
C926 C927 1.334 . S
C927 H904 0.950 . S
C927 C926 1.334 . S
C927 C928 1.287 . S
C928 C927 1.287 . S
C928 C929 1.524 1_554 S
C928 H947 0.913 . S
C929 H905 0.950 . S
C929 C928 1.524 1_556 S
C929 C930 1.415 1_556 S
C930 H906 0.950 1_554 S
C930 C925 1.363 . S
C930 C929 1.415 1_554 S
C931 H907 0.951 . S
C931 C932 1.366 1_554 S
C931 C933 1.388 . S
C932 C931 1.366 1_556 S
C932 C936 1.385 . S
C933 H908 0.951 . S
C933 C931 1.388 . S
C933 C934 1.366 . S
C934 C933 1.366 . S
C934 C935 1.414 1_554 S
C934 C937 1.499 . S
C935 H909 0.950 . S
C935 C934 1.414 1_556 S
C935 C936 1.374 . S
C936 H910 0.950 . S
C936 C932 1.385 . S
C936 C935 1.374 . S
C937 C934 1.499 . S
C937 C938 1.373 . S
C937 C939 1.389 . S
C938 H911 0.950 . S
C938 C924 1.377 . S
C938 C937 1.373 . S
C939 C923 1.377 . S
C939 C937 1.389 . S
C939 C940 1.524 1_545 S
C940 C939 1.524 1_565 S
C940 C941 1.397 . S
C940 C945 1.363 . S
C941 H912 0.950 . S
C941 C940 1.397 . S
C941 C942 1.334 . S
C942 H913 0.950 . S
C942 C941 1.334 . S
C942 C943 1.287 . S
C943 C942 1.287 . S
C943 C944 1.524 . S
C943 H946 0.999 . S
C944 H914 0.950 . S
C944 C943 1.524 . S
C944 C945 1.415 . S
C945 H915 0.950 1_565 S
C945 C940 1.363 . S
C945 C944 1.415 . S
H946 C943 0.999 . S
H947 C928 0.913 . S
H948 C966 0.951 . S
H949 C968 0.951 . S
H950 C970 0.950 . S
H951 C971 0.950 . S
H952 C973 0.950 . S
H953 C976 0.950 . S
H954 C977 0.950 . S
H955 C979 0.950 . S
H956 C980 0.950 . S
H957 C981 0.951 . S
H958 C983 0.951 . S
H959 C985 0.950 . S
H960 C986 0.950 . S
H961 C988 0.950 . S
H962 C991 0.950 . S
H963 C992 0.950 . S
H964 C994 0.950 . S
H965 C995 0.950 . S
C966 H948 0.951 . S
C966 C967 1.366 . S
C966 C968 1.388 . S
C967 C966 1.366 . S
C967 C971 1.385 . S
C968 H949 0.951 . S
C968 C966 1.388 . S
C968 C969 1.366 . S
C969 C968 1.366 . S
C969 C970 1.414 . S
C969 C972 1.499 . S
C970 H950 0.950 . S
C970 C969 1.414 . S
C970 C971 1.374 . S
C971 H951 0.950 . S
C971 C967 1.385 . S
C971 C970 1.374 . S
C972 C969 1.499 . S
C972 C973 1.373 . S
C972 C974 1.389 . S
C973 H952 0.950 . S
C973 C972 1.373 . S
C973 C989 1.377 . S
C974 C972 1.389 . S
C974 C975 1.524 . S
C974 C988 1.377 . S
C975 C974 1.524 . S
C975 C976 1.397 . S
C975 C980 1.363 1_554 S
C976 H953 0.950 . S
C976 C975 1.397 . S
C976 C977 1.334 . S
C977 H954 0.950 . S
C977 C976 1.334 . S
C977 C978 1.287 1_554 S
C978 C977 1.287 1_556 S
C978 C979 1.524 . S
C978 H997 0.913 . S
C979 H955 0.950 . S
C979 C978 1.524 . S
C979 C980 1.415 . S
C980 H956 0.950 . S
C980 C975 1.363 1_556 S
C980 C979 1.415 . S
C981 H957 0.951 . S
C981 C982 1.366 1_554 S
C981 C983 1.388 . S
C982 C981 1.366 1_556 S
C982 C986 1.385 . S
C983 H958 0.951 . S
C983 C981 1.388 . S
C983 C984 1.366 . S
C984 C983 1.366 . S
C984 C985 1.414 1_554 S
C984 C987 1.499 . S
C985 H959 0.950 . S
C985 C984 1.414 1_556 S
C985 C986 1.374 . S
C986 H960 0.950 . S
C986 C982 1.385 . S
C986 C985 1.374 . S
C987 C984 1.499 . S
C987 C988 1.373 . S
C987 C989 1.389 . S
C988 H961 0.950 . S
C988 C974 1.377 . S
C988 C987 1.373 . S
C989 C973 1.377 . S
C989 C987 1.389 . S
C989 C990 1.524 . S
C990 C989 1.524 . S
C990 C991 1.397 . S
C990 C995 1.363 . S
C991 H962 0.950 . S
C991 C990 1.397 . S
C991 C992 1.334 . S
C992 H963 0.950 . S
C992 C991 1.334 . S
C992 C993 1.287 . S
C993 C992 1.287 . S
C993 C994 1.524 . S
C993 H996 0.999 . S
C994 H964 0.950 . S
C994 C993 1.524 . S
C994 C995 1.415 . S
C995 H965 0.950 . S
C995 C990 1.363 . S
C995 C994 1.415 . S
H996 C993 0.999 . S
H997 C978 0.913 . S
H998 C1016 0.951 . S
H999 C1018 0.951 . S
H1000 C1020 0.950 . S
H1001 C1021 0.950 . S
H1002 C1023 0.950 . S
H1003 C1026 0.950 . S
H1004 C1027 0.950 . S
H1005 C1029 0.950 . S
H1006 C1030 0.950 . S
H1007 C1031 0.951 . S
H1008 C1033 0.951 . S
H1009 C1035 0.950 . S
H1010 C1036 0.950 . S
H1011 C1038 0.950 . S
H1012 C1041 0.950 . S
H1013 C1042 0.950 1_556 S
H1014 C1044 0.950 . S
H1015 C1045 0.950 . S
C1016 H998 0.951 . S
C1016 C1017 1.366 . S
C1016 C1018 1.388 . S
C1017 C1016 1.366 . S
C1017 C1021 1.385 . S
C1018 H999 0.951 . S
C1018 C1016 1.388 . S
C1018 C1019 1.366 . S
C1019 C1018 1.366 . S
C1019 C1020 1.414 . S
C1019 C1022 1.499 . S
C1020 H1000 0.950 . S
C1020 C1019 1.414 . S
C1020 C1021 1.374 . S
C1021 H1001 0.950 . S
C1021 C1017 1.385 . S
C1021 C1020 1.374 . S
C1022 C1019 1.499 . S
C1022 C1023 1.373 . S
C1022 C1024 1.389 . S
C1023 H1002 0.950 . S
C1023 C1022 1.373 . S
C1023 C1039 1.377 . S
C1024 C1022 1.389 . S
C1024 C1025 1.524 . S
C1024 C1038 1.377 . S
C1025 C1024 1.524 . S
C1025 C1026 1.397 . S
C1025 C1030 1.363 . S
C1026 H1003 0.950 . S
C1026 C1025 1.397 . S
C1026 C1027 1.334 . S
C1027 H1004 0.950 . S
C1027 C1026 1.334 . S
C1027 C1028 1.287 . S
C1028 C1027 1.287 . S
C1028 C1029 1.524 . S
C1028 H1047 0.913 . S
C1029 H1005 0.950 . S
C1029 C1028 1.524 . S
C1029 C1030 1.415 . S
C1030 H1006 0.950 . S
C1030 C1025 1.363 . S
C1030 C1029 1.415 . S
C1031 H1007 0.951 . S
C1031 C1032 1.366 1_554 S
C1031 C1033 1.388 . S
C1032 C1031 1.366 1_556 S
C1032 C1036 1.385 . S
C1033 H1008 0.951 . S
C1033 C1031 1.388 . S
C1033 C1034 1.366 . S
C1034 C1033 1.366 . S
C1034 C1035 1.414 1_554 S
C1034 C1037 1.499 . S
C1035 H1009 0.950 . S
C1035 C1034 1.414 1_556 S
C1035 C1036 1.374 . S
C1036 H1010 0.950 . S
C1036 C1032 1.385 . S
C1036 C1035 1.374 . S
C1037 C1034 1.499 . S
C1037 C1038 1.373 . S
C1037 C1039 1.389 . S
C1038 H1011 0.950 . S
C1038 C1024 1.377 . S
C1038 C1037 1.373 . S
C1039 C1023 1.377 . S
C1039 C1037 1.389 . S
C1039 C1040 1.524 . S
C1040 C1039 1.524 . S
C1040 C1041 1.397 . S
C1040 C1045 1.363 . S
C1041 H1012 0.950 . S
C1041 C1040 1.397 . S
C1041 C1042 1.334 . S
C1042 H1013 0.950 1_554 S
C1042 C1041 1.334 . S
C1042 C1043 1.287 . S
C1043 C1042 1.287 . S
C1043 C1044 1.524 . S
C1043 H1046 0.999 . S
C1044 H1014 0.950 . S
C1044 C1043 1.524 . S
C1044 C1045 1.415 . S
C1045 H1015 0.950 . S
C1045 C1040 1.363 . S
C1045 C1044 1.415 . S
H1046 C1043 0.999 . S
H1047 C1028 0.913 . S
H1048 C1066 0.951 1_554 S
H1049 C1068 0.951 . S
H1050 C1070 0.950 . S
H1051 C1071 0.950 . S
H1052 C1073 0.950 . S
H1053 C1076 0.950 . S
H1054 C1077 0.950 . S
H1055 C1079 0.950 . S
H1056 C1080 0.950 . S
H1057 C1081 0.951 . S
H1058 C1083 0.951 . S
H1059 C1085 0.950 . S
H1060 C1086 0.950 . S
H1061 C1088 0.950 . S
H1062 C1091 0.950 . S
H1063 C1092 0.950 . S
H1064 C1094 0.950 . S
H1065 C1095 0.950 . S
C1066 H1048 0.951 1_556 S
C1066 C1067 1.366 . S
C1066 C1068 1.388 . S
C1067 C1066 1.366 . S
C1067 C1071 1.385 . S
C1068 H1049 0.951 . S
C1068 C1066 1.388 . S
C1068 C1069 1.366 . S
C1069 C1068 1.366 . S
C1069 C1070 1.414 . S
C1069 C1072 1.499 . S
C1070 H1050 0.950 . S
C1070 C1069 1.414 . S
C1070 C1071 1.374 . S
C1071 H1051 0.950 . S
C1071 C1067 1.385 . S
C1071 C1070 1.374 . S
C1072 C1069 1.499 . S
C1072 C1073 1.373 1_455 S
C1072 C1074 1.389 . S
C1073 H1052 0.950 . S
C1073 C1072 1.373 1_655 S
C1073 C1089 1.377 . S
C1074 C1072 1.389 . S
C1074 C1075 1.524 . S
C1074 C1088 1.377 . S
C1075 C1074 1.524 . S
C1075 C1076 1.397 . S
C1075 C1080 1.363 1_556 S
C1076 H1053 0.950 . S
C1076 C1075 1.397 . S
C1076 C1077 1.334 . S
C1077 H1054 0.950 . S
C1077 C1076 1.334 . S
C1077 C1078 1.287 1_556 S
C1078 C1077 1.287 1_554 S
C1078 C1079 1.524 . S
C1078 H1097 0.913 . S
C1079 H1055 0.950 . S
C1079 C1078 1.524 . S
C1079 C1080 1.415 . S
C1080 H1056 0.950 . S
C1080 C1075 1.363 1_554 S
C1080 C1079 1.415 . S
C1081 H1057 0.951 . S
C1081 C1082 1.366 . S
C1081 C1083 1.388 . S
C1082 C1081 1.366 . S
C1082 C1086 1.385 . S
C1083 H1058 0.951 . S
C1083 C1081 1.388 . S
C1083 C1084 1.366 . S
C1084 C1083 1.366 . S
C1084 C1085 1.414 . S
C1084 C1087 1.499 . S
C1085 H1059 0.950 . S
C1085 C1084 1.414 . S
C1085 C1086 1.374 . S
C1086 H1060 0.950 . S
C1086 C1082 1.385 . S
C1086 C1085 1.374 . S
C1087 C1084 1.499 . S
C1087 C1088 1.373 . S
C1087 C1089 1.389 1_455 S
C1088 H1061 0.950 . S
C1088 C1074 1.377 . S
C1088 C1087 1.373 . S
C1089 C1073 1.377 . S
C1089 C1087 1.389 1_655 S
C1089 C1090 1.524 . S
C1090 C1089 1.524 . S
C1090 C1091 1.397 . S
C1090 C1095 1.363 . S
C1091 H1062 0.950 . S
C1091 C1090 1.397 . S
C1091 C1092 1.334 . S
C1092 H1063 0.950 . S
C1092 C1091 1.334 . S
C1092 C1093 1.287 . S
C1093 C1092 1.287 . S
C1093 C1094 1.524 . S
C1093 H1096 0.999 . S
C1094 H1064 0.950 . S
C1094 C1093 1.524 . S
C1094 C1095 1.415 . S
C1095 H1065 0.950 . S
C1095 C1090 1.363 . S
C1095 C1094 1.415 . S
H1096 C1093 0.999 . S
H1097 C1078 0.913 . S
H1098 C1116 0.951 . S
H1099 C1118 0.951 . S
H1100 C1120 0.950 . S
H1101 C1121 0.950 1_554 S
H1102 C1123 0.950 . S
H1103 C1126 0.950 . S
H1104 C1127 0.950 . S
H1105 C1129 0.950 . S
H1106 C1130 0.950 . S
H1107 C1131 0.967 . S
H1108 C1133 0.953 . S
H1109 C1135 0.950 . S
H1110 C1136 0.950 . S
H1111 C1138 0.950 . S
H1112 C1141 0.950 . S
H1113 C1142 0.950 . S
H1114 C1144 0.950 . S
H1115 C1145 0.950 . S
C1116 H1098 0.951 . S
C1116 C1117 1.366 . S
C1116 C1118 1.388 . S
C1117 C1116 1.366 . S
C1117 C1121 1.385 1_545 S
C1118 H1099 0.951 . S
C1118 C1116 1.388 . S
C1118 C1119 1.366 . S
C1119 C1118 1.366 . S
C1119 C1120 1.414 1_545 S
C1119 C1122 1.499 . S
C1120 H1100 0.950 . S
C1120 C1119 1.414 1_565 S
C1120 C1121 1.374 . S
C1121 H1101 0.950 1_556 S
C1121 C1117 1.385 1_565 S
C1121 C1120 1.374 . S
C1122 C1119 1.499 . S
C1122 C1123 1.373 . S
C1122 C1124 1.389 1_545 S
C1123 H1102 0.950 . S
C1123 C1122 1.373 . S
C1123 C1139 1.377 . S
C1124 C1122 1.389 1_565 S
C1124 C1125 1.524 . S
C1124 C1138 1.377 . S
C1125 C1124 1.524 . S
C1125 C1126 1.397 . S
C1125 C1130 1.363 . S
C1126 H1103 0.950 . S
C1126 C1125 1.397 . S
C1126 C1127 1.334 . S
C1127 H1104 0.950 . S
C1127 C1126 1.334 . S
C1127 C1128 1.287 . S
C1128 C1127 1.287 . S
C1128 C1129 1.524 . S
C1128 H1147 0.913 . S
C1129 H1105 0.950 . S
C1129 C1128 1.524 . S
C1129 C1130 1.415 . S
C1130 H1106 0.950 . S
C1130 C1125 1.363 . S
C1130 C1129 1.415 . S
C1131 H1107 0.967 . S
C1131 C1132 1.366 . S
C1131 C1133 1.388 . S
C1132 C1131 1.366 . S
C1132 C1136 1.385 . S
C1133 H1108 0.953 . S
C1133 C1131 1.388 . S
C1133 C1134 1.366 . S
C1134 C1133 1.366 . S
C1134 C1135 1.414 . S
C1134 C1137 1.499 . S
C1135 H1109 0.950 . S
C1135 C1134 1.414 . S
C1135 C1136 1.374 . S
C1136 H1110 0.950 . S
C1136 C1132 1.385 . S
C1136 C1135 1.374 . S
C1137 C1134 1.499 . S
C1137 C1138 1.373 1_545 S
C1137 C1139 1.389 . S
C1138 H1111 0.950 . S
C1138 C1124 1.377 . S
C1138 C1137 1.373 1_565 S
C1139 C1123 1.377 . S
C1139 C1137 1.389 . S
C1139 C1140 1.524 . S
C1140 C1139 1.524 . S
C1140 C1141 1.397 . S
C1140 C1145 1.363 1_556 S
C1141 H1112 0.950 . S
C1141 C1140 1.397 . S
C1141 C1142 1.334 . S
C1142 H1113 0.950 . S
C1142 C1141 1.334 . S
C1142 C1143 1.287 1_556 S
C1143 C1142 1.287 1_554 S
C1143 C1144 1.524 . S
C1143 H1146 0.999 . S
C1144 H1114 0.950 . S
C1144 C1143 1.524 . S
C1144 C1145 1.415 . S
C1145 H1115 0.950 . S
C1145 C1140 1.363 1_554 S
C1145 C1144 1.415 . S
H1146 C1143 0.999 . S
H1147 C1128 0.913 . S
H1148 C1166 0.951 . S
H1149 C1168 0.951 . S
H1150 C1170 0.950 . S
H1151 C1171 0.950 . S
H1152 C1173 0.950 . S
H1153 C1176 0.947 1_554 S
H1154 C1177 0.950 . S
H1155 C1179 0.950 . S
H1156 C1180 0.950 . S
H1157 C1181 0.951 . S
H1158 C1183 0.951 . S
H1159 C1185 0.950 . S
H1160 C1186 0.950 . S
H1161 C1188 0.950 . S
H1162 C1191 0.950 . S
H1163 C1192 0.950 . S
H1164 C1194 0.950 . S
H1165 C1195 0.950 . S
C1166 H1148 0.951 . S
C1166 C1167 1.366 . S
C1166 C1168 1.388 . S
C1167 C1166 1.366 . S
C1167 C1171 1.385 . S
C1168 H1149 0.951 . S
C1168 C1166 1.388 . S
C1168 C1169 1.366 . S
C1169 C1168 1.366 . S
C1169 C1170 1.414 . S
C1169 C1172 1.499 . S
C1170 H1150 0.950 . S
C1170 C1169 1.414 . S
C1170 C1171 1.374 . S
C1171 H1151 0.950 . S
C1171 C1167 1.385 . S
C1171 C1170 1.374 . S
C1172 C1169 1.499 . S
C1172 C1173 1.373 . S
C1172 C1174 1.389 . S
C1173 H1152 0.950 . S
C1173 C1172 1.373 . S
C1173 C1189 1.377 . S
C1174 C1172 1.389 . S
C1174 C1175 1.524 . S
C1174 C1188 1.377 . S
C1175 C1174 1.524 . S
C1175 C1176 1.397 . S
C1175 C1180 1.363 . S
C1176 H1153 0.947 1_556 S
C1176 C1175 1.397 . S
C1176 C1177 1.334 1_556 S
C1177 H1154 0.950 . S
C1177 C1176 1.334 1_554 S
C1177 C1178 1.287 1_554 S
C1178 C1177 1.287 1_556 S
C1178 C1179 1.524 . S
C1178 H1197 0.913 1_556 S
C1179 H1155 0.950 . S
C1179 C1178 1.524 . S
C1179 C1180 1.415 . S
C1180 H1156 0.950 . S
C1180 C1175 1.363 . S
C1180 C1179 1.415 . S
C1181 H1157 0.951 . S
C1181 C1182 1.366 . S
C1181 C1183 1.388 . S
C1182 C1181 1.366 . S
C1182 C1186 1.385 . S
C1183 H1158 0.951 . S
C1183 C1181 1.388 . S
C1183 C1184 1.366 . S
C1184 C1183 1.366 . S
C1184 C1185 1.414 . S
C1184 C1187 1.499 . S
C1185 H1159 0.950 . S
C1185 C1184 1.414 . S
C1185 C1186 1.374 . S
C1186 H1160 0.950 . S
C1186 C1182 1.385 . S
C1186 C1185 1.374 . S
C1187 C1184 1.499 . S
C1187 C1188 1.373 . S
C1187 C1189 1.389 . S
C1188 H1161 0.950 . S
C1188 C1174 1.377 . S
C1188 C1187 1.373 . S
C1189 C1173 1.377 . S
C1189 C1187 1.389 . S
C1189 C1190 1.524 . S
C1190 C1189 1.524 . S
C1190 C1191 1.397 . S
C1190 C1195 1.363 . S
C1191 H1162 0.950 . S
C1191 C1190 1.397 . S
C1191 C1192 1.334 . S
C1192 H1163 0.950 . S
C1192 C1191 1.334 . S
C1192 C1193 1.287 . S
C1193 C1192 1.287 . S
C1193 C1194 1.524 . S
C1193 H1196 0.999 . S
C1194 H1164 0.950 . S
C1194 C1193 1.524 . S
C1194 C1195 1.415 . S
C1195 H1165 0.950 . S
C1195 C1190 1.363 . S
C1195 C1194 1.415 . S
H1196 C1193 0.999 . S
H1197 C1178 0.913 1_554 S
H1198 C1216 0.951 . S
H1199 C1218 0.951 . S
H1200 C1220 0.950 . S
H1201 C1221 0.950 . S
H1202 C1223 0.950 . S
H1203 C1226 0.950 . S
H1204 C1227 0.950 . S
H1205 C1229 0.950 . S
H1206 C1230 0.950 . S
H1207 C1231 0.951 . S
H1208 C1233 0.951 . S
H1209 C1235 0.950 . S
H1210 C1236 0.950 . S
H1211 C1238 0.950 . S
H1212 C1241 0.950 . S
H1213 C1242 0.950 . S
H1214 C1244 0.950 . S
H1215 C1245 0.950 . S
C1216 H1198 0.951 . S
C1216 C1217 1.366 . S
C1216 C1218 1.388 . S
C1217 C1216 1.366 . S
C1217 C1221 1.385 . S
C1218 H1199 0.951 . S
C1218 C1216 1.388 . S
C1218 C1219 1.366 . S
C1219 C1218 1.366 . S
C1219 C1220 1.414 . S
C1219 C1222 1.499 . S
C1220 H1200 0.950 . S
C1220 C1219 1.414 . S
C1220 C1221 1.374 . S
C1221 H1201 0.950 . S
C1221 C1217 1.385 . S
C1221 C1220 1.374 . S
C1222 C1219 1.499 . S
C1222 C1223 1.373 . S
C1222 C1224 1.389 . S
C1223 H1202 0.950 . S
C1223 C1222 1.373 . S
C1223 C1239 1.377 . S
C1224 C1222 1.389 . S
C1224 C1225 1.524 . S
C1224 C1238 1.377 . S
C1225 C1224 1.524 . S
C1225 C1226 1.397 . S
C1225 C1230 1.363 . S
C1226 H1203 0.950 . S
C1226 C1225 1.397 . S
C1226 C1227 1.334 1_556 S
C1227 H1204 0.950 . S
C1227 C1226 1.334 1_554 S
C1227 C1228 1.287 1_554 S
C1228 C1227 1.287 1_556 S
C1228 C1229 1.524 . S
C1228 H1247 0.913 1_556 S
C1229 H1205 0.950 . S
C1229 C1228 1.524 . S
C1229 C1230 1.415 . S
C1230 H1206 0.950 . S
C1230 C1225 1.363 . S
C1230 C1229 1.415 . S
C1231 H1207 0.951 . S
C1231 C1232 1.366 . S
C1231 C1233 1.388 . S
C1232 C1231 1.366 . S
C1232 C1236 1.385 . S
C1233 H1208 0.951 . S
C1233 C1231 1.388 . S
C1233 C1234 1.366 . S
C1234 C1233 1.366 . S
C1234 C1235 1.414 . S
C1234 C1237 1.499 . S
C1235 H1209 0.950 . S
C1235 C1234 1.414 . S
C1235 C1236 1.374 . S
C1236 H1210 0.950 . S
C1236 C1232 1.385 . S
C1236 C1235 1.374 . S
C1237 C1234 1.499 . S
C1237 C1238 1.373 . S
C1237 C1239 1.389 . S
C1238 H1211 0.950 . S
C1238 C1224 1.377 . S
C1238 C1237 1.373 . S
C1239 C1223 1.377 . S
C1239 C1237 1.389 . S
C1239 C1240 1.524 . S
C1240 C1239 1.524 . S
C1240 C1241 1.397 . S
C1240 C1245 1.363 . S
C1241 H1212 0.950 . S
C1241 C1240 1.397 . S
C1241 C1242 1.334 . S
C1242 H1213 0.950 . S
C1242 C1241 1.334 . S
C1242 C1243 1.287 . S
C1243 C1242 1.287 . S
C1243 C1244 1.524 . S
C1243 H1246 0.999 . S
C1244 H1214 0.950 . S
C1244 C1243 1.524 . S
C1244 C1245 1.415 . S
C1245 H1215 0.950 . S
C1245 C1240 1.363 . S
C1245 C1244 1.415 . S
H1246 C1243 0.999 . S
H1247 C1228 0.913 1_554 S
H1248 C1266 0.951 . S
H1249 C1268 0.951 . S
H1250 C1270 0.951 . S
H1251 C1271 0.957 . S
H1252 C1273 0.950 . S
H1253 C1276 0.950 . S
H1254 C1277 0.950 . S
H1255 C1279 0.950 . S
H1256 C1280 0.950 . S
H1257 C1281 0.951 . S
H1258 C1283 0.951 . S
H1259 C1285 0.950 . S
H1260 C1286 0.950 . S
H1261 C1288 0.950 . S
H1262 C1291 0.950 . S
H1263 C1292 0.950 . S
H1264 C1294 0.950 . S
H1265 C1295 0.950 . S
C1266 H1248 0.951 . S
C1266 C1267 1.366 . S
C1266 C1268 1.388 . S
C1267 C1266 1.366 . S
C1267 C1271 1.380 1_655 S
C1268 H1249 0.951 . S
C1268 C1266 1.388 . S
C1268 C1269 1.366 . S
C1269 C1268 1.366 . S
C1269 C1270 1.413 1_655 S
C1269 C1272 1.499 . S
C1270 H1250 0.951 . S
C1270 C1269 1.413 1_455 S
C1270 C1271 1.373 . S
C1271 H1251 0.957 . S
C1271 C1267 1.380 1_455 S
C1271 C1270 1.373 . S
C1272 C1269 1.499 . S
C1272 C1273 1.373 . S
C1272 C1274 1.389 1_655 S
C1273 H1252 0.950 . S
C1273 C1272 1.373 . S
C1273 C1289 1.377 . S
C1274 C1272 1.389 1_455 S
C1274 C1275 1.524 . S
C1274 C1288 1.377 . S
C1275 C1274 1.524 . S
C1275 C1276 1.397 . S
C1275 C1280 1.363 . S
C1276 H1253 0.950 . S
C1276 C1275 1.397 . S
C1276 C1277 1.334 . S
C1277 H1254 0.950 . S
C1277 C1276 1.334 . S
C1277 C1278 1.287 . S
C1278 C1277 1.287 . S
C1278 C1279 1.524 . S
C1278 H1297 0.913 . S
C1279 H1255 0.950 . S
C1279 C1278 1.524 . S
C1279 C1280 1.415 . S
C1280 H1256 0.950 . S
C1280 C1275 1.363 . S
C1280 C1279 1.415 . S
C1281 H1257 0.951 . S
C1281 C1282 1.366 . S
C1281 C1283 1.388 . S
C1282 C1281 1.366 . S
C1282 C1286 1.385 . S
C1283 H1258 0.951 . S
C1283 C1281 1.388 . S
C1283 C1284 1.366 . S
C1284 C1283 1.366 . S
C1284 C1285 1.414 . S
C1284 C1287 1.499 . S
C1285 H1259 0.950 . S
C1285 C1284 1.414 . S
C1285 C1286 1.374 . S
C1286 H1260 0.950 . S
C1286 C1282 1.385 . S
C1286 C1285 1.374 . S
C1287 C1284 1.499 . S
C1287 C1288 1.373 1_655 S
C1287 C1289 1.389 . S
C1288 H1261 0.950 . S
C1288 C1274 1.377 . S
C1288 C1287 1.373 1_455 S
C1289 C1273 1.377 . S
C1289 C1287 1.389 . S
C1289 C1290 1.524 . S
C1290 C1289 1.524 . S
C1290 C1291 1.397 . S
C1290 C1295 1.363 . S
C1291 H1262 0.950 . S
C1291 C1290 1.397 . S
C1291 C1292 1.334 . S
C1292 H1263 0.950 . S
C1292 C1291 1.334 . S
C1292 C1293 1.287 . S
C1293 C1292 1.287 . S
C1293 C1294 1.524 . S
C1293 H1296 0.999 . S
C1294 H1264 0.950 . S
C1294 C1293 1.524 . S
C1294 C1295 1.415 . S
C1295 H1265 0.950 . S
C1295 C1290 1.363 . S
C1295 C1294 1.415 . S
H1296 C1293 0.999 . S
H1297 C1278 0.913 . S
H1298 C1316 0.951 . S
H1299 C1318 0.950 1_545 S
H1300 C1320 0.950 . S
H1301 C1321 0.950 . S
H1302 C1323 0.950 . S
H1303 C1326 0.950 . S
H1304 C1327 0.950 . S
H1305 C1329 0.950 . S
H1306 C1330 0.950 . S
H1307 C1331 0.951 . S
H1308 C1333 0.951 . S
H1309 C1335 0.963 . S
H1310 C1336 0.950 . S
H1311 C1338 0.950 . S
H1312 C1341 0.950 . S
H1313 C1342 0.950 . S
H1314 C1344 0.950 . S
H1315 C1345 0.950 . S
C1316 H1298 0.951 . S
C1316 C1317 1.366 1_545 S
C1316 C1318 1.387 1_545 S
C1317 C1316 1.366 1_565 S
C1317 C1321 1.385 . S
C1318 H1299 0.950 1_565 S
C1318 C1316 1.387 1_565 S
C1318 C1319 1.367 . S
C1319 C1318 1.367 . S
C1319 C1320 1.414 . S
C1319 C1322 1.499 . S
C1320 H1300 0.950 . S
C1320 C1319 1.414 . S
C1320 C1321 1.374 . S
C1321 H1301 0.950 . S
C1321 C1317 1.385 . S
C1321 C1320 1.374 . S
C1322 C1319 1.499 . S
C1322 C1323 1.373 1_565 S
C1322 C1324 1.389 . S
C1323 H1302 0.950 . S
C1323 C1322 1.373 1_545 S
C1323 C1339 1.377 . S
C1324 C1322 1.389 . S
C1324 C1325 1.524 . S
C1324 C1338 1.377 . S
C1325 C1324 1.524 . S
C1325 C1326 1.397 . S
C1325 C1330 1.363 . S
C1326 H1303 0.950 . S
C1326 C1325 1.397 . S
C1326 C1327 1.334 . S
C1327 H1304 0.950 . S
C1327 C1326 1.334 . S
C1327 C1328 1.287 . S
C1328 C1327 1.287 . S
C1328 C1329 1.524 . S
C1328 H1347 0.913 . S
C1329 H1305 0.950 . S
C1329 C1328 1.524 . S
C1329 C1330 1.415 . S
C1330 H1306 0.950 . S
C1330 C1325 1.363 . S
C1330 C1329 1.415 . S
C1331 H1307 0.951 . S
C1331 C1332 1.366 . S
C1331 C1333 1.388 . S
C1332 C1331 1.366 . S
C1332 C1336 1.385 . S
C1333 H1308 0.951 . S
C1333 C1331 1.388 . S
C1333 C1334 1.366 . S
C1334 C1333 1.366 . S
C1334 C1335 1.414 . S
C1334 C1337 1.499 . S
C1335 H1309 0.963 . S
C1335 C1334 1.414 . S
C1335 C1336 1.374 . S
C1336 H1310 0.950 . S
C1336 C1332 1.385 . S
C1336 C1335 1.374 . S
C1337 C1334 1.499 . S
C1337 C1338 1.373 . S
C1337 C1339 1.389 1_565 S
C1338 H1311 0.950 . S
C1338 C1324 1.377 . S
C1338 C1337 1.373 . S
C1339 C1323 1.377 . S
C1339 C1337 1.389 1_545 S
C1339 C1340 1.524 . S
C1340 C1339 1.524 . S
C1340 C1341 1.397 . S
C1340 C1345 1.363 . S
C1341 H1312 0.950 . S
C1341 C1340 1.397 . S
C1341 C1342 1.334 . S
C1342 H1313 0.950 . S
C1342 C1341 1.334 . S
C1342 C1343 1.287 . S
C1343 C1342 1.287 . S
C1343 C1344 1.524 . S
C1343 H1346 0.999 . S
C1344 H1314 0.950 . S
C1344 C1343 1.524 . S
C1344 C1345 1.415 . S
C1345 H1315 0.950 . S
C1345 C1340 1.363 . S
C1345 C1344 1.415 . S
H1346 C1343 0.999 . S
H1347 C1328 0.913 . S
H1348 C1366 0.951 . S
H1349 C1368 0.951 . S
H1350 C1370 0.950 . S
H1351 C1371 0.950 . S
H1352 C1373 0.950 . S
H1353 C1376 0.950 . S
H1354 C1377 0.950 . S
H1355 C1379 0.950 . S
H1356 C1380 0.950 . S
H1357 C1381 0.951 . S
H1358 C1383 0.951 . S
H1359 C1385 0.950 . S
H1360 C1386 0.950 . S
H1361 C1388 0.950 . S
H1362 C1391 0.950 . S
H1363 C1392 0.950 . S
H1364 C1394 0.950 . S
H1365 C1395 0.950 . S
C1366 H1348 0.951 . S
C1366 C1367 1.366 . S
C1366 C1368 1.388 . S
C1367 C1366 1.366 . S
C1367 C1371 1.385 . S
C1368 H1349 0.951 . S
C1368 C1366 1.388 . S
C1368 C1369 1.366 . S
C1369 C1368 1.366 . S
C1369 C1370 1.414 . S
C1369 C1372 1.499 . S
C1370 H1350 0.950 . S
C1370 C1369 1.414 . S
C1370 C1371 1.374 . S
C1371 H1351 0.950 . S
C1371 C1367 1.385 . S
C1371 C1370 1.374 . S
C1372 C1369 1.499 . S
C1372 C1373 1.373 . S
C1372 C1374 1.389 . S
C1373 H1352 0.950 . S
C1373 C1372 1.373 . S
C1373 C1389 1.377 . S
C1374 C1372 1.389 . S
C1374 C1375 1.524 . S
C1374 C1388 1.377 . S
C1375 C1374 1.524 . S
C1375 C1376 1.397 . S
C1375 C1380 1.363 . S
C1376 H1353 0.950 . S
C1376 C1375 1.397 . S
C1376 C1377 1.334 . S
C1377 H1354 0.950 . S
C1377 C1376 1.334 . S
C1377 C1378 1.287 . S
C1378 C1377 1.287 . S
C1378 C1379 1.524 . S
C1378 H1397 0.913 . S
C1379 H1355 0.950 . S
C1379 C1378 1.524 . S
C1379 C1380 1.415 . S
C1380 H1356 0.950 . S
C1380 C1375 1.363 . S
C1380 C1379 1.415 . S
C1381 H1357 0.951 . S
C1381 C1382 1.366 . S
C1381 C1383 1.388 . S
C1382 C1381 1.366 . S
C1382 C1386 1.385 . S
C1383 H1358 0.951 . S
C1383 C1381 1.388 . S
C1383 C1384 1.366 . S
C1384 C1383 1.366 . S
C1384 C1385 1.414 . S
C1384 C1387 1.499 . S
C1385 H1359 0.950 . S
C1385 C1384 1.414 . S
C1385 C1386 1.374 . S
C1386 H1360 0.950 . S
C1386 C1382 1.385 . S
C1386 C1385 1.374 . S
C1387 C1384 1.499 . S
C1387 C1388 1.373 . S
C1387 C1389 1.389 . S
C1388 H1361 0.950 . S
C1388 C1374 1.377 . S
C1388 C1387 1.373 . S
C1389 C1373 1.377 . S
C1389 C1387 1.389 . S
C1389 C1390 1.524 . S
C1390 C1389 1.524 . S
C1390 C1391 1.397 . S
C1390 C1395 1.363 . S
C1391 H1362 0.950 . S
C1391 C1390 1.397 . S
C1391 C1392 1.334 . S
C1392 H1363 0.950 . S
C1392 C1391 1.334 . S
C1392 C1393 1.287 . S
C1393 C1392 1.287 . S
C1393 C1394 1.524 . S
C1393 H1396 0.999 . S
C1394 H1364 0.950 . S
C1394 C1393 1.524 . S
C1394 C1395 1.415 . S
C1395 H1365 0.950 . S
C1395 C1390 1.363 . S
C1395 C1394 1.415 . S
H1396 C1393 0.999 . S
H1397 C1378 0.913 . S
H1398 C1416 0.951 . S
H1399 C1418 0.951 . S
H1400 C1420 0.950 . S
H1401 C1421 0.950 . S
H1402 C1423 0.950 . S
H1403 C1426 0.950 . S
H1404 C1427 0.950 . S
H1405 C1429 0.950 . S
H1406 C1430 0.950 . S
H1407 C1431 0.951 . S
H1408 C1433 0.951 . S
H1409 C1435 0.950 . S
H1410 C1436 0.950 . S
H1411 C1438 0.950 . S
H1412 C1441 0.950 . S
H1413 C1442 0.950 . S
H1414 C1444 0.950 . S
H1415 C1445 0.950 . S
C1416 H1398 0.951 . S
C1416 C1417 1.366 . S
C1416 C1418 1.388 . S
C1417 C1416 1.366 . S
C1417 C1421 1.385 . S
C1418 H1399 0.951 . S
C1418 C1416 1.388 . S
C1418 C1419 1.366 . S
C1419 C1418 1.366 . S
C1419 C1420 1.414 . S
C1419 C1422 1.499 . S
C1420 H1400 0.950 . S
C1420 C1419 1.414 . S
C1420 C1421 1.374 . S
C1421 H1401 0.950 . S
C1421 C1417 1.385 . S
C1421 C1420 1.374 . S
C1422 C1419 1.499 . S
C1422 C1423 1.373 . S
C1422 C1424 1.389 . S
C1423 H1402 0.950 . S
C1423 C1422 1.373 . S
C1423 C1439 1.377 . S
C1424 C1422 1.389 . S
C1424 C1425 1.524 . S
C1424 C1438 1.377 . S
C1425 C1424 1.524 . S
C1425 C1426 1.397 . S
C1425 C1430 1.363 . S
C1426 H1403 0.950 . S
C1426 C1425 1.397 . S
C1426 C1427 1.334 . S
C1427 H1404 0.950 . S
C1427 C1426 1.334 . S
C1427 C1428 1.287 . S
C1428 C1427 1.287 . S
C1428 C1429 1.524 . S
C1428 H1447 0.913 . S
C1429 H1405 0.950 . S
C1429 C1428 1.524 . S
C1429 C1430 1.415 . S
C1430 H1406 0.950 . S
C1430 C1425 1.363 . S
C1430 C1429 1.415 . S
C1431 H1407 0.951 . S
C1431 C1432 1.366 . S
C1431 C1433 1.388 . S
C1432 C1431 1.366 . S
C1432 C1436 1.385 . S
C1433 H1408 0.951 . S
C1433 C1431 1.388 . S
C1433 C1434 1.366 . S
C1434 C1433 1.366 . S
C1434 C1435 1.414 . S
C1434 C1437 1.499 . S
C1435 H1409 0.950 . S
C1435 C1434 1.414 . S
C1435 C1436 1.374 . S
C1436 H1410 0.950 . S
C1436 C1432 1.385 . S
C1436 C1435 1.374 . S
C1437 C1434 1.499 . S
C1437 C1438 1.373 . S
C1437 C1439 1.389 . S
C1438 H1411 0.950 . S
C1438 C1424 1.377 . S
C1438 C1437 1.373 . S
C1439 C1423 1.377 . S
C1439 C1437 1.389 . S
C1439 C1440 1.524 . S
C1440 C1439 1.524 . S
C1440 C1441 1.397 . S
C1440 C1445 1.363 . S
C1441 H1412 0.950 . S
C1441 C1440 1.397 . S
C1441 C1442 1.334 . S
C1442 H1413 0.950 . S
C1442 C1441 1.334 . S
C1442 C1443 1.287 . S
C1443 C1442 1.287 . S
C1443 C1444 1.524 . S
C1443 H1446 0.999 . S
C1444 H1414 0.950 . S
C1444 C1443 1.524 . S
C1444 C1445 1.415 . S
C1445 H1415 0.950 . S
C1445 C1440 1.363 . S
C1445 C1444 1.415 . S
H1446 C1443 0.999 . S
H1447 C1428 0.913 . S
C267 C76 1.741 . S
C282 C97 1.818 1_545 S
C332 C137 1.822 . S
C317 C87 1.740 . S
C382 C177 1.822 . S
C367 C54 1.741 . S
C432 C217 1.819 1_455 S
C417 C65 1.741 . S
C482 C106 1.817 1_565 S
C467 C32 1.741 . S
C517 C43 1.741 . S
C532 C146 1.821 . S
C567 C10 1.740 . S
C582 C186 1.821 . S
C617 C21 1.741 . S
C632 C226 1.818 1_655 S
C682 C103 0.319 . S
C667 C60 0.380 . S
C732 C143 0.320 . S
C717 C71 0.379 . S
C782 C183 0.317 . S
C767 C82 0.377 . S
C817 C49 0.378 . S
C832 C223 0.317 . S
C867 C16 0.392 . S
C882 C94 0.319 . S
C932 C134 0.320 . S
C917 C27 0.399 . S
C982 C174 0.319 . S
C967 C38 0.389 . S
C1017 C5 0.391 . S
C1032 C214 0.320 . S
C1067 C59 1.871 . S
C1082 C107 2.051 . S
C1117 C70 1.870 . S
C1132 C147 2.051 . S
C1182 C187 2.051 . S
C1167 C81 1.871 . S
C1232 C227 2.051 . S
C1217 C48 1.871 . S
C1267 C15 1.874 . S
C1282 C98 2.052 . S
C1332 C138 2.052 . S
C1317 C26 1.874 . S
C1382 C178 2.051 . S
C1367 C37 1.873 . S
C1417 C4 1.874 . S
C1432 C218 2.051 . S
