# Generated by pormake.
# Topology anh, (6,3)-cn, num edge types: 1
# Building blocks:
#     Node 0, Type 0, BuildingBlock: NUHQIS_clean_sbu_0, # of connection points: 6
#     Node 1, Type 0, BuildingBlock: NUHQIS_clean_sbu_0, # of connection points: 6
#     Node 2, Type 0, BuildingBlock: NUHQIS_clean_sbu_0, # of connection points: 6
#     Node 3, Type 1, BuildingBlock: QEWDON_clean_linker_0, # of connection points: 3
#     Node 4, Type 1, BuildingBlock: QEWDON_clean_linker_0, # of connection points: 3
#     Node 5, Type 1, BuildingBlock: QEWDON_clean_linker_0, # of connection points: 3
#     Node 6, Type 1, BuildingBlock: QEWDON_clean_linker_0, # of connection points: 3
#     Node 7, Type 1, BuildingBlock: QEWDON_clean_linker_0, # of connection points: 3
#     Node 8, Type 1, BuildingBlock: QEWDON_clean_linker_0, # of connection points: 3
#     Edge 9, Type (0, 1), BuildingBlock: UVAHIK_clean_linker_0, # of connection points: 2
#     Edge 10, Type (0, 1), BuildingBlock: UVAHIK_clean_linker_0, # of connection points: 2
#     Edge 11, Type (0, 1), BuildingBlock: UVAHIK_clean_linker_0, # of connection points: 2
#     Edge 12, Type (0, 1), BuildingBlock: UVAHIK_clean_linker_0, # of connection points: 2
#     Edge 13, Type (0, 1), BuildingBlock: UVAHIK_clean_linker_0, # of connection points: 2
#     Edge 14, Type (0, 1), BuildingBlock: UVAHIK_clean_linker_0, # of connection points: 2
#     Edge 15, Type (0, 1), BuildingBlock: UVAHIK_clean_linker_0, # of connection points: 2
#     Edge 16, Type (0, 1), BuildingBlock: UVAHIK_clean_linker_0, # of connection points: 2
#     Edge 17, Type (0, 1), BuildingBlock: UVAHIK_clean_linker_0, # of connection points: 2
#     Edge 18, Type (0, 1), BuildingBlock: UVAHIK_clean_linker_0, # of connection points: 2
#     Edge 19, Type (0, 1), BuildingBlock: UVAHIK_clean_linker_0, # of connection points: 2
#     Edge 20, Type (0, 1), BuildingBlock: UVAHIK_clean_linker_0, # of connection points: 2
#     Edge 21, Type (0, 1), BuildingBlock: UVAHIK_clean_linker_0, # of connection points: 2
#     Edge 22, Type (0, 1), BuildingBlock: UVAHIK_clean_linker_0, # of connection points: 2
#     Edge 23, Type (0, 1), BuildingBlock: UVAHIK_clean_linker_0, # of connection points: 2
#     Edge 24, Type (0, 1), BuildingBlock: UVAHIK_clean_linker_0, # of connection points: 2
#     Edge 25, Type (0, 1), BuildingBlock: UVAHIK_clean_linker_0, # of connection points: 2
#     Edge 26, Type (0, 1), BuildingBlock: UVAHIK_clean_linker_0, # of connection points: 2
# Relax obj value: 0.161
# Max RMSD: 0.133
# Mean RMSD: 0.121
data_MOF--net-anh--node1-NUHQIS_clean_sbu_0--node2-QEWDON_clean_linker_0--edge1-UVAHIK_clean_linker_0
_symmetry_space_group_name_H-M    P1
_symmetry_Int_Tables_number       1
_symmetry_cell_setting            triclinic
loop_
_symmetry_equiv_pos_as_xyz
'x, y, z'
_cell_length_a     41.172848
_cell_length_b     41.152213
_cell_length_c     62.413648
_cell_angle_alpha  93.722504
_cell_angle_beta   95.942923
_cell_angle_gamma 120.17871
loop_
_atom_site_label
_atom_site_type_symbol
_atom_site_fract_x
_atom_site_fract_y
_atom_site_fract_z
_atom_type_partial_charge
Tb0 Tb 0.14099 0.56879 0.15953 0.0
Eu1 Eu 0.0909 0.60812 0.14849 0.0
C2 C 0.1171 0.60334 0.1962 0.0
C3 C 1.04945 0.51766 0.15344 0.0
C4 C 0.22282 0.563 0.1823 0.0
C5 C 0.27303 0.56345 0.20672 0.0
C6 C 0.23592 0.54395 0.19514 0.0
C7 C 0.24695 0.60178 0.18144 0.0
C8 C 0.28387 0.62115 0.19283 0.0
C9 C 0.29747 0.60232 0.20563 0.0
C10 C 0.18363 0.54324 0.17055 0.0
O11 O 0.11976 0.55276 0.12453 0.0
O12 O 0.11523 0.60465 0.11869 0.0
O13 O 0.15177 0.6585 0.15738 0.0
O14 O 0.18372 0.62643 0.15399 0.0
C15 C 0.11786 0.57569 0.11135 0.0
O16 O 1.04794 0.61132 0.12672 0.0
O17 O 1.07392 0.6489 0.15734 0.0
O18 O 0.08702 0.59496 0.18249 0.0
O19 O 0.1461 0.60344 0.18922 0.0
O20 O 1.08278 0.52264 0.1617 0.0
O21 O 1.04707 0.54495 0.14483 0.0
C22 C 0.18367 0.65857 0.15624 0.0
O23 O 0.15832 0.54219 0.18185 0.0
O24 O 0.17939 0.55247 0.1513 0.0
C25 C 1.00719 0.61981 0.14703 0.0
C26 C 0.93275 0.58329 0.15716 0.0
C27 C 0.93883 0.58739 0.1355 0.0
C28 C 0.97573 0.60562 0.1305 0.0
C29 C 1.0011 0.61619 0.16875 0.0
C30 C 0.96424 0.59829 0.17376 0.0
C31 C 1.04549 0.634 0.14124 0.0
H32 H 0.28254 0.54816 0.21654 0.0
H33 H 0.21748 0.5141 0.19622 0.0
H34 H 0.23741 0.61716 0.1718 0.0
H35 H 0.30201 0.65078 0.19113 0.0
H36 H 0.91504 0.57668 0.12243 0.0
H37 H 0.97967 0.60782 0.11365 0.0
H38 H 1.0247 0.62635 0.18188 0.0
H39 H 0.96031 0.59549 0.19058 0.0
Tb40 Tb 0.68495 0.13882 0.4959 0.0
Eu41 Eu 0.59293 0.09346 0.48987 0.0
C42 C 0.64286 0.11633 0.53596 0.0
C43 C 0.63973 1.0486 0.49427 0.0
C44 C 0.7768 0.21699 0.49147 0.0
C45 C 0.81534 0.28571 0.49933 0.0
C46 C 0.80259 0.24991 0.50586 0.0
C47 C 0.76579 0.22041 0.47004 0.0
C48 C 0.77854 0.25605 0.46351 0.0
C49 C 0.80248 0.28909 0.47828 0.0
C50 C 0.75588 0.18045 0.49987 0.0
O51 O 0.6678 0.14059 0.46184 0.0
O52 O 0.6055 0.09206 0.45596 0.0
O53 O 0.60829 0.15293 0.48337 0.0
O54 O 0.67014 0.18348 0.5005 0.0
C55 C 0.63621 0.11643 0.44867 0.0
O56 O 0.53737 1.04454 0.47631 0.0
O57 O 0.54122 0.08886 0.49899 0.0
O58 O 0.61592 0.1187 0.52459 0.0
O59 O 0.67036 0.11705 0.52672 0.0
O60 O 0.66958 0.07891 0.48932 0.0
O61 O 0.6098 1.05016 0.49865 0.0
C62 C 0.63995 0.18451 0.49196 0.0
O63 O 0.73637 0.18063 0.51501 0.0
O64 O 0.7361 0.15037 0.48535 0.0
C65 C 0.49384 1.02557 0.50152 0.0
C66 C 0.4428 0.97008 0.52474 0.0
C67 C 0.45468 0.9595 0.50659 0.0
C68 C 0.4798 0.9869 0.49508 0.0
C69 C 0.48276 1.03628 0.52001 0.0
C70 C 0.45752 1.00881 0.53152 0.0
C71 C 0.51946 1.05446 0.48883 0.0
H72 H 0.83424 0.31072 0.51096 0.0
H73 H 0.81116 0.24798 0.52252 0.0
H74 H 0.74552 0.19564 0.4586 0.0
H75 H 0.76777 0.25762 0.44727 0.0
H76 H 0.44321 0.92988 0.50063 0.0
H77 H 0.48758 0.97764 0.48086 0.0
H78 H 0.49308 0.06587 0.5254 0.0
H79 H 0.44889 1.0178 0.54544 0.0
Tb80 Tb 0.68959 0.6513 0.83299 0.0
Eu81 Eu 0.64092 0.55915 0.82467 0.0
C82 C 0.67362 0.60565 0.87173 0.0
C83 C 0.7345 0.60713 0.8295 0.0
C84 C 0.70009 0.74354 0.844 0.0
C85 C 0.6734 0.77113 0.86694 0.0
C86 C 0.69954 0.75953 0.86444 0.0
C87 C 0.6761 0.74218 0.82579 0.0
C88 C 0.65032 0.7542 0.82824 0.0
C89 C 0.64759 0.76736 0.84897 0.0
C90 C 0.71965 0.72183 0.84276 0.0
O91 O 0.66885 0.63966 0.79815 0.0
O92 O 0.64581 0.57556 0.7911 0.0
O93 O 0.59541 0.57498 0.81867 0.0
O94 O 0.63066 0.63541 0.83698 0.0
C95 C 0.65529 0.60837 0.78452 0.0
O96 O 0.62784 0.50531 0.80728 0.0
O97 O 0.5993 0.50551 0.83444 0.0
O98 O 0.64325 0.57767 0.85966 0.0
O99 O 0.70071 0.63135 0.86265 0.0
O100 O 0.73354 0.63807 0.82607 0.0
O101 O 0.70351 0.57605 0.83272 0.0
C102 C 0.59743 0.60585 0.82787 0.0
O103 O 0.71235 0.69839 0.85703 0.0
O104 O 0.71814 0.70599 0.82359 0.0
C105 C 0.61392 0.45688 0.82974 0.0
C106 C 0.62576 0.40031 0.8456 0.0
C107 C 0.64482 0.41975 0.82898 0.0
C108 C 0.63897 0.44769 0.82113 0.0
C109 C 0.59543 0.43803 0.84665 0.0
C110 C 0.6014 0.41015 0.85456 0.0
C111 C 0.60621 0.48519 0.82084 0.0
H112 H 0.6721 0.78106 0.88314 0.0
H113 H 0.71757 0.76066 0.87876 0.0
H114 H 0.67573 0.72999 0.80979 0.0
H115 H 0.63168 0.75201 0.81394 0.0
H116 H 0.66318 0.41239 0.8214 0.0
H117 H 0.65355 0.4615 0.80801 0.0
H118 H 0.57592 0.44447 0.85358 0.0
H119 H 0.58649 0.3959 0.86748 0.0
H120 H 0.63534 0.12326 0.20685 0.0
C121 C 0.61197 0.0951 0.20035 0.0
C122 C 0.58956 0.07177 0.2148 0.0
C123 C 0.60326 0.08319 0.17772 0.0
H124 H 0.541 1.01797 0.21791 0.0
C125 C 0.55805 1.03572 0.20664 0.0
C126 C 0.54778 1.0221 0.18435 0.0
C127 C 0.57067 1.0461 0.16993 0.0
C128 C 0.62674 0.11033 0.1624 0.0
H129 H 0.56329 1.03531 0.1528 0.0
C130 C 0.66561 0.14095 0.16872 0.0
C131 C 0.68585 0.16583 0.1537 0.0
C132 C 0.60925 0.10651 0.14101 0.0
H133 H 0.57969 0.08534 0.13544 0.0
C134 C 0.62902 0.13061 0.12637 0.0
H135 H 0.68045 0.14511 0.18492 0.0
C136 C 0.6667 0.15967 0.13255 0.0
H137 H 0.68087 0.17797 0.1207 0.0
H138 H 0.61477 0.12694 0.11005 0.0
H139 H 0.63506 0.63234 0.54486 0.0
C140 C 0.63849 0.60942 0.5384 0.0
C141 C 0.64277 0.5867 0.55296 0.0
C142 C 0.63838 0.60269 0.51593 0.0
H143 H 0.64738 0.53769 0.55651 0.0
C144 C 0.64582 0.55577 0.54508 0.0
C145 C 0.64568 0.54705 0.5229 0.0
C146 C 0.64213 0.57097 0.5084 0.0
C147 C 0.63293 0.62792 0.50063 0.0
H148 H 0.64319 0.5651 0.49145 0.0
C149 C 0.64051 0.66562 0.5076 0.0
C150 C 0.63411 0.68751 0.49263 0.0
C151 C 0.61835 0.61345 0.47849 0.0
H152 H 0.61042 0.58492 0.47221 0.0
C153 C 0.61256 0.63497 0.46388 0.0
H154 H 0.65198 0.67845 0.52434 0.0
C155 C 0.62044 0.67142 0.47078 0.0
H156 H 0.6152 0.68704 0.45893 0.0
H157 H 0.60139 0.62302 0.44697 0.0
H158 H 0.18103 0.59638 0.87921 0.0
C159 C 0.15634 0.59706 0.87208 0.0
C160 C 0.12664 0.58754 0.88431 0.0
C161 C 0.15475 0.60825 0.85125 0.0
H162 H 1.07306 0.58405 0.88594 0.0
C163 C 0.09518 0.59025 0.87607 0.0
C164 C 0.09198 0.60178 0.85571 0.0
C165 C 0.12138 0.60959 0.84304 0.0
C166 C 0.1892 0.62157 0.83928 0.0
H167 H 0.11832 0.61751 0.82711 0.0
C168 C 0.21809 0.61157 0.84349 0.0
C169 C 0.25146 0.62794 0.83323 0.0
C170 C 0.1949 0.64735 0.82424 0.0
H171 H 0.17542 0.65736 0.8208 0.0
C172 C 0.22672 0.6623 0.81378 0.0
H173 H 0.2153 0.59189 0.85483 0.0
C174 C 0.25461 0.65297 0.81826 0.0
H175 H 0.27917 0.66573 0.80998 0.0
H176 H 0.23021 0.68208 0.80233 0.0
H177 H 1.02025 0.69208 0.39994 0.0
C178 C 1.04262 0.7031 0.41389 0.0
C179 C 1.07753 0.70566 0.41187 0.0
C180 C 1.03601 0.71406 0.43398 0.0
H181 H 0.13255 0.72096 0.42922 0.0
C182 C 0.10526 0.71825 0.43049 0.0
C183 C 0.09863 0.72863 0.45074 0.0
C184 C 1.06424 0.7272 0.45229 0.0
C185 C 0.99812 0.70777 0.43648 0.0
H186 H 1.05873 0.73466 0.46794 0.0
C187 C 0.96678 0.67073 0.4325 0.0
C188 C 0.93121 0.66283 0.43737 0.0
C189 C 0.99354 0.73752 0.44469 0.0
H190 H 1.01758 0.76632 0.44804 0.0
C191 C 0.95785 0.73006 0.44888 0.0
H192 H 0.97083 0.64763 0.42701 0.0
C193 C 0.92685 0.69281 0.44552 0.0
H194 H 0.89974 0.68731 0.44958 0.0
H195 H 0.95444 0.75307 0.45527 0.0
H196 H 0.4865 0.96877 0.73193 0.0
C197 C 0.50148 0.99147 0.74545 0.0
C198 C 0.5356 1.02438 0.7433 0.0
C199 C 0.48725 0.98714 0.76522 0.0
H200 H 0.58031 0.07946 0.7591 0.0
C201 C 0.55499 1.05331 0.76105 0.0
C202 C 0.54076 1.04969 0.78082 0.0
C203 C 0.50711 1.01624 0.78283 0.0
C204 C 0.45245 0.95165 0.76786 0.0
H205 H 0.49606 1.01294 0.79808 0.0
C206 C 0.45326 0.93227 0.78537 0.0
C207 C 0.42138 0.89742 0.78766 0.0
C208 C 0.41892 0.93631 0.75273 0.0
H209 H 0.41761 0.95085 0.73911 0.0
C210 C 0.38677 0.90204 0.75519 0.0
H211 H 0.47959 0.94341 0.79659 0.0
C212 C 0.38802 0.88244 0.77244 0.0
H213 H 0.36318 0.85546 0.77377 0.0
H214 H 0.36101 0.89035 0.74348 0.0
H215 H 0.67242 0.71718 0.10398 0.0
C216 C 0.67021 0.69402 0.11233 0.0
C217 C 0.66509 0.6612 0.1004 0.0
C218 C 0.67175 0.6967 0.135 0.0
H219 H 0.66124 0.60743 0.10235 0.0
C220 C 0.66264 0.63157 0.11144 0.0
C221 C 0.66499 0.63415 0.13415 0.0
C222 C 0.66863 0.66651 0.14572 0.0
C223 C 0.67757 0.73122 0.14786 0.0
H224 H 0.67045 0.66888 0.16326 0.0
C225 C 0.654 0.72775 0.16332 0.0
C226 C 0.66038 0.75973 0.1769 0.0
C227 C 0.70742 0.76734 0.14555 0.0
H228 H 0.72613 0.77068 0.1338 0.0
C229 C 0.71398 0.79934 0.15889 0.0
H230 H 0.63011 0.69991 0.16436 0.0
C231 C 0.69079 0.79565 0.17454 0.0
H232 H 0.69682 0.82086 0.18483 0.0
H233 H 0.73732 0.82708 0.1572 0.0
C234 C 0.35581 0.66161 0.22496 0.0
C235 C 0.33781 0.623 0.21642 0.0
C236 C 0.39528 0.68323 0.23086 0.0
C237 C 0.48412 0.68152 0.24079 0.0
H238 H 0.51952 0.75682 0.20124 0.0
C239 C 0.61705 0.72212 0.20266 0.0
C240 C 0.63398 0.75516 0.1926 0.0
C241 C 0.58674 0.71395 0.21382 0.0
C242 C 0.51085 0.737 0.213 0.0
H243 H 0.34695 0.57611 0.20941 0.0
H244 H 0.41576 0.61376 0.22019 0.0
H245 H 0.45415 0.72655 0.20722 0.0
H246 H 0.63517 0.80778 0.18877 0.0
H247 H 0.58421 0.79485 0.20951 0.0
H248 H 0.54073 0.6916 0.24644 0.0
C249 C 0.39924 0.62724 0.22217 0.0
C250 C 0.47307 0.71944 0.21632 0.0
C251 C 0.35978 0.60568 0.21598 0.0
C252 C 0.62266 0.78186 0.19609 0.0
C253 C 0.5929 0.77411 0.20775 0.0
C254 C 0.52228 0.69975 0.23786 0.0
C255 C 0.41742 0.6665 0.22872 0.0
C256 C 0.45899 0.69047 0.22951 0.0
C257 C 0.57315 0.73911 0.21574 0.0
C258 C 0.53572 0.72645 0.2231 0.0
H259 H 0.3396 0.67561 0.22609 0.0
H260 H 0.40869 0.71341 0.23605 0.0
H261 H 0.47389 0.65944 0.25119 0.0
H262 H 0.62595 0.70151 0.20104 0.0
H263 H 0.57256 0.68667 0.21963 0.0
C264 C 0.81938 0.33532 0.4512 0.0
C265 C 0.81139 0.32657 0.47212 0.0
C266 C 0.82513 0.36952 0.44491 0.0
C267 C 0.80916 0.44874 0.45935 0.0
H268 H 0.89183 0.50353 0.42708 0.0
C269 C 0.88488 0.60968 0.45517 0.0
C270 C 0.90085 0.62279 0.43646 0.0
C271 C 0.86471 0.57081 0.45655 0.0
C272 C 0.86807 0.48828 0.43566 0.0
H273 H 0.80275 0.34671 0.50278 0.0
H274 H 0.81421 0.40706 0.49209 0.0
H275 H 0.877 0.44151 0.43595 0.0
H276 H 0.90475 0.60591 0.40369 0.0
H277 H 0.86889 0.53796 0.40591 0.0
H278 H 0.80134 0.49651 0.45966 0.0
C279 C 0.8154 0.38719 0.48041 0.0
C280 C 0.85963 0.4527 0.44082 0.0
C281 C 0.80953 0.3529 0.48667 0.0
C282 C 0.89303 0.59642 0.41837 0.0
C283 C 0.87274 0.55762 0.41971 0.0
C284 C 0.81773 0.48453 0.45425 0.0
C285 C 0.82318 0.39585 0.45943 0.0
C286 C 0.83041 0.43269 0.45294 0.0
C287 C 0.86014 0.54454 0.43921 0.0
C288 C 0.84757 0.50483 0.44255 0.0
H289 H 0.82112 0.31566 0.43964 0.0
H290 H 0.83072 0.37515 0.42857 0.0
H291 H 0.78605 0.43376 0.46842 0.0
H292 H 0.89076 0.62947 0.4694 0.0
H293 H 0.85546 0.56165 0.47182 0.0
C294 C 0.58038 0.75241 0.83946 0.0
C295 C 0.61678 0.77536 0.85185 0.0
C296 C 0.55183 0.76082 0.84117 0.0
C297 C 0.54315 0.84363 0.85506 0.0
H298 H 0.43544 0.76908 0.84 0.0
C299 C 0.44418 0.89347 0.82557 0.0
C300 C 0.42534 0.87532 0.80446 0.0
C301 C 0.45802 0.87639 0.83945 0.0
C302 C 0.46538 0.79022 0.84448 0.0
H303 H 0.65094 0.82406 0.87668 0.0
H304 H 0.60079 0.83816 0.88012 0.0
H305 H 0.48049 0.74832 0.84993 0.0
H306 H 0.40232 0.82346 0.7822 0.0
H307 H 0.4268 0.7938 0.80624 0.0
H308 H 0.52857 0.88531 0.84873 0.0
C309 C 0.59458 0.81406 0.8687 0.0
C310 C 0.49122 0.77837 0.85005 0.0
C311 C 0.6233 0.80581 0.86685 0.0
C312 C 0.41671 0.83805 0.7984 0.0
C313 C 0.43072 0.82103 0.81225 0.0
C314 C 0.51739 0.85544 0.84969 0.0
C315 C 0.55881 0.79229 0.85545 0.0
C316 C 0.5306 0.80484 0.85444 0.0
C317 C 0.45348 0.84102 0.83237 0.0
C318 C 0.47842 0.82878 0.84342 0.0
H319 H 0.57401 0.72812 0.82815 0.0
H320 H 0.52484 0.74357 0.83053 0.0
H321 H 0.57318 0.86487 0.85806 0.0
H322 H 0.45061 0.92201 0.83074 0.0
H323 H 0.47478 0.89213 0.85505 0.0
C324 C 0.88477 0.58243 0.17889 0.0
C325 C 0.89363 0.56477 0.1624 0.0
C326 C 0.84703 0.5682 0.18174 0.0
C327 C 0.75485 0.51931 0.14718 0.0
H328 H 0.72644 0.54847 0.19915 0.0
C329 C 0.64992 0.56728 0.13669 0.0
C330 C 0.66922 0.60572 0.14575 0.0
C331 C 0.66159 0.54296 0.14427 0.0
C332 C 0.73346 0.53936 0.18455 0.0
H333 H 0.87066 0.51623 0.1375 0.0
H334 H 0.80455 0.49095 0.14264 0.0
H335 H 0.78093 0.53947 0.20224 0.0
H336 H 0.71283 0.64738 0.17163 0.0
H337 H 0.73277 0.60534 0.1848 0.0
H338 H 0.70941 0.52185 0.12933 0.0
C339 C 0.82663 0.51634 0.15301 0.0
C340 C 0.76479 0.53442 0.18629 0.0
C341 C 0.86441 0.53085 0.15 0.0
C342 C 0.69715 0.618 0.16425 0.0
C343 C 0.70859 0.59368 0.17189 0.0
C344 C 0.72348 0.524 0.14546 0.0
C345 C 0.81732 0.5358 0.16826 0.0
C346 C 0.77751 0.52721 0.16747 0.0
C347 C 0.69261 0.55663 0.16112 0.0
C348 C 0.71428 0.53691 0.16397 0.0
H349 H 0.90674 0.60866 0.18865 0.0
H350 H 0.84112 0.58438 0.19344 0.0
H351 H 0.76357 0.51365 0.13228 0.0
H352 H 0.62753 0.55666 0.12279 0.0
H353 H 0.64833 0.51434 0.13587 0.0
C354 C 0.38042 0.94442 0.53803 0.0
C355 C 0.41148 0.94048 0.5345 0.0
C356 C 0.34644 0.91312 0.54137 0.0
C357 C 0.29621 0.81425 0.51995 0.0
H358 H 0.21358 0.81702 0.54292 0.0
C359 C 0.14593 0.72064 0.47477 0.0
C360 C 0.12803 0.74134 0.47017 0.0
C361 C 0.17673 0.73489 0.49158 0.0
C362 C 0.23635 0.81559 0.5365 0.0
H363 H 0.43326 0.90225 0.5349 0.0
H364 H 0.3737 0.84738 0.54071 0.0
H365 H 0.27933 0.86296 0.55921 0.0
H366 H 0.1265 0.79183 0.48023 0.0
H367 H 0.18106 0.81755 0.509 0.0
H368 H 0.25399 0.76925 0.49619 0.0
C369 C 0.37538 0.87447 0.54042 0.0
C370 C 0.27397 0.84177 0.5459 0.0
C371 C 0.4094 0.90582 0.53702 0.0
C372 C 0.13987 0.77535 0.48348 0.0
C373 C 0.17096 0.78986 0.50011 0.0
C374 C 0.25876 0.78827 0.51055 0.0
C375 C 0.34285 0.87726 0.54124 0.0
C376 C 0.3043 0.84279 0.53685 0.0
C377 C 0.19059 0.77043 0.50388 0.0
C378 C 0.22849 0.79009 0.51788 0.0
H379 H 0.38105 0.9707 0.53615 0.0
H380 H 0.32198 0.91636 0.54181 0.0
H381 H 0.31876 0.81426 0.51242 0.0
H382 H 0.13674 0.69389 0.46498 0.0
H383 H 0.19071 0.71884 0.49431 0.0
C384 C 0.59564 0.3339 0.85462 0.0
C385 C 0.62858 0.36755 0.85195 0.0
C386 C 0.59666 0.30089 0.85674 0.0
C387 C 0.64683 0.25713 0.83668 0.0
H388 H 0.57649 0.17373 0.86461 0.0
C389 C 0.59924 0.10492 0.80337 0.0
C390 C 0.55937 0.08213 0.7986 0.0
C391 C 0.61643 0.1387 0.81773 0.0
C392 C 0.59656 0.19681 0.85684 0.0
H393 H 0.68923 0.39387 0.85154 0.0
H394 H 0.69089 0.33589 0.85498 0.0
H395 H 0.59217 0.23829 0.87687 0.0
H396 H 0.50639 0.07585 0.80613 0.0
H397 H 0.53617 0.13449 0.83096 0.0
H398 H 0.64937 0.21568 0.81571 0.0
C399 C 0.66419 0.33504 0.85516 0.0
C400 C 0.60554 0.23373 0.86387 0.0
C401 C 0.66319 0.36815 0.85309 0.0
C402 C 0.53717 0.09251 0.8096 0.0
C403 C 0.55432 0.12618 0.82394 0.0
C404 C 0.63783 0.22027 0.82965 0.0
C405 C 0.63063 0.30073 0.85618 0.0
C406 C 0.62928 0.26399 0.85312 0.0
C407 C 0.59408 0.15031 0.82761 0.0
C408 C 0.61111 0.18949 0.83892 0.0
H409 H 0.56843 0.33227 0.85359 0.0
H410 H 0.57016 0.27487 0.85718 0.0
H411 H 0.66499 0.27969 0.82792 0.0
H412 H 0.61712 0.09727 0.79546 0.0
H413 H 0.64716 0.15646 0.82046 0.0
C414 C 0.66921 1.00742 0.48829 0.0
C415 C 0.64011 1.01196 0.49542 0.0
C416 C 0.66954 0.97333 0.48938 0.0
C417 C 0.60765 0.86982 0.49841 0.0
H418 H 0.70344 0.87233 0.50339 0.0
C419 C 0.61652 0.73317 0.51031 0.0
C420 C 0.64087 0.72702 0.49858 0.0
C421 C 0.61739 0.76816 0.51148 0.0
C422 C 0.67624 0.87077 0.50185 0.0
H423 H 0.58856 0.98296 0.5096 0.0
H424 H 0.58958 0.92461 0.51208 0.0
H425 H 0.7028 0.931 0.50221 0.0
H426 H 0.68544 0.75374 0.47903 0.0
H427 H 0.68789 0.81448 0.48155 0.0
H428 H 0.58129 0.80946 0.49838 0.0
C429 C 0.61194 0.94696 0.50506 0.0
C430 C 0.6758 0.90484 0.50105 0.0
C431 C 0.61144 0.98094 0.50378 0.0
C432 C 0.66686 0.75751 0.48866 0.0
C433 C 0.6681 0.79254 0.49005 0.0
C434 C 0.60815 0.83578 0.49943 0.0
C435 C 0.64098 0.94219 0.49786 0.0
C436 C 0.64147 0.90529 0.49915 0.0
C437 C 0.64287 0.79847 0.50109 0.0
C438 C 0.64244 0.83541 0.50102 0.0
H439 H 0.6918 1.03024 0.48163 0.0
H440 H 0.69219 0.97141 0.48319 0.0
H441 H 0.58031 0.86792 0.49657 0.0
H442 H 0.59546 0.71025 0.51772 0.0
H443 H 0.59764 0.77124 0.52034 0.0
C444 C 0.80617 0.64054 0.82848 0.0
C445 C 0.77174 0.60741 0.83035 0.0
C446 C 0.84086 0.64084 0.82962 0.0
C447 C 0.88208 0.5764 0.8264 0.0
H448 H 0.97556 0.66723 0.85331 0.0
C449 C 1.03194 0.58786 0.83003 0.0
C450 C 1.05842 0.60709 0.84923 0.0
C451 C 0.99775 0.58874 0.82625 0.0
C452 C 0.94988 0.64138 0.8458 0.0
H453 H 0.74795 0.54833 0.83482 0.0
H454 H 0.80778 0.54886 0.8369 0.0
H455 H 0.91571 0.66637 0.85031 0.0
H456 H 1.06936 0.64329 0.8791 0.0
H457 H 1.01108 0.64513 0.8726 0.0
H458 H 0.91635 0.55123 0.82231 0.0
C459 C 0.80813 0.57478 0.83431 0.0
C460 C 0.91517 0.64104 0.84383 0.0
C461 C 0.77349 0.57453 0.83325 0.0
C462 C 1.05001 0.62819 0.86406 0.0
C463 C 1.01627 0.62935 0.86024 0.0
C464 C 0.9169 0.57682 0.82827 0.0
C465 C 0.84273 0.60798 0.83261 0.0
C466 C 0.88034 0.60848 0.83422 0.0
C467 C 0.98898 0.60924 0.84143 0.0
C468 C 0.95161 0.60923 0.83821 0.0
H469 H 0.80647 0.66653 0.82617 0.0
H470 H 0.86626 0.667 0.82788 0.0
H471 H 0.85643 0.55076 0.81862 0.0
H472 H 1.03692 0.57093 0.81829 0.0
H473 H 0.97806 0.57311 0.81141 0.0
C474 C 0.25436 0.69644 0.15345 0.0
C475 C 0.22092 0.69582 0.15738 0.0
C476 C 0.28927 0.73088 0.1547 0.0
C477 C 0.3329 0.8378 0.15718 0.0
H478 H 0.42635 0.8389 0.1751 0.0
C479 C 0.48334 0.97607 0.16041 0.0
C480 C 0.51269 0.98291 0.17715 0.0
C481 C 0.44828 0.94095 0.15646 0.0
C482 C 0.40074 0.83962 0.17024 0.0
H483 H 0.19908 0.73232 0.16575 0.0
H484 H 0.25959 0.79196 0.16836 0.0
H485 H 0.36575 0.78039 0.17249 0.0
H486 H 0.52784 0.95648 0.20209 0.0
H487 H 0.46782 0.89668 0.1956 0.0
H488 H 0.36815 0.89755 0.15574 0.0
C489 C 0.25889 0.76575 0.16388 0.0
C490 C 0.36547 0.8054 0.16838 0.0
C491 C 0.22386 0.73121 0.16251 0.0
C492 C 0.50616 0.95278 0.18912 0.0
C493 C 0.47138 0.91794 0.18523 0.0
C494 C 0.36828 0.87216 0.15913 0.0
C495 C 0.29252 0.76643 0.16007 0.0
C496 C 0.33062 0.80359 0.16186 0.0
C497 C 0.44131 0.91125 0.16903 0.0
C498 C 0.40308 0.87395 0.16585 0.0
H499 H 0.25366 0.67014 0.14921 0.0
H500 H 0.31369 0.7294 0.15113 0.0
H501 H 0.30727 0.83819 0.15181 0.0
H502 H 0.48687 0.9984 0.15089 0.0
H503 H 0.42651 0.93728 0.14358 0.0
C504 C 0.60796 0.22412 0.4907 0.0
C505 C 0.64141 0.22225 0.49286 0.0
C506 C 0.60933 0.25929 0.49234 0.0
C507 C 0.67809 0.36609 0.50935 0.0
H508 H 0.59132 0.37213 0.48478 0.0
C509 C 0.67236 0.50377 0.52953 0.0
C510 C 0.64909 0.51269 0.51592 0.0
C511 C 0.67222 0.46964 0.52529 0.0
C512 C 0.61624 0.37154 0.49159 0.0
H513 H 0.70286 0.25721 0.49783 0.0
H514 H 0.70548 0.31775 0.49963 0.0
H515 H 0.58971 0.31232 0.47971 0.0
H516 H 0.60851 0.49176 0.48618 0.0
H517 H 0.60938 0.43307 0.47817 0.0
H518 H 0.70539 0.42557 0.52028 0.0
C519 C 0.67775 0.29223 0.49753 0.0
C520 C 0.61506 0.33645 0.48898 0.0
C521 C 0.67633 0.25706 0.49629 0.0
C522 C 0.62696 0.48645 0.49715 0.0
C523 C 0.62705 0.45215 0.49275 0.0
C524 C 0.67946 0.40118 0.51168 0.0
C525 C 0.64428 0.2944 0.49583 0.0
C526 C 0.64583 0.33264 0.49799 0.0
C527 C 0.6493 0.44259 0.50694 0.0
C528 C 0.6484 0.40484 0.50315 0.0
H529 H 0.58042 0.19822 0.4882 0.0
H530 H 0.58262 0.25861 0.49128 0.0
H531 H 0.70255 0.36544 0.51693 0.0
H532 H 0.6905 0.52307 0.54397 0.0
H533 H 0.68956 0.46423 0.53704 0.0
C534 C 0.5625 0.64043 0.83731 0.0
C535 C 0.56124 0.60704 0.82889 0.0
C536 C 0.52887 0.64136 0.83873 0.0
C537 C 0.42149 0.58592 0.81914 0.0
H538 H 0.42235 0.65555 0.86431 0.0
C539 C 0.2814 0.58621 0.83224 0.0
C540 C 0.28473 0.62162 0.83785 0.0
C541 C 0.31414 0.58289 0.83226 0.0
C542 C 0.42133 0.63604 0.85139 0.0
H543 H 0.52217 0.54826 0.81537 0.0
H544 H 0.46416 0.54959 0.81811 0.0
H545 H 0.47973 0.65334 0.86176 0.0
H546 H 0.3259 0.68112 0.84825 0.0
H547 H 0.38207 0.6755 0.84862 0.0
H548 H 0.36286 0.56858 0.8089 0.0
C549 C 0.49116 0.57557 0.82334 0.0
C550 C 0.45476 0.63482 0.84985 0.0
C551 C 0.52482 0.57468 0.82185 0.0
C552 C 0.32188 0.65321 0.84418 0.0
C553 C 0.35441 0.64991 0.84435 0.0
C554 C 0.38797 0.58703 0.82075 0.0
C555 C 0.49227 0.60892 0.83185 0.0
C556 C 0.45583 0.60987 0.83362 0.0
C557 C 0.35147 0.61484 0.83801 0.0
C558 C 0.38711 0.61228 0.83684 0.0
H559 H 0.58967 0.66617 0.84284 0.0
H560 H 0.5318 0.66795 0.84507 0.0
H561 H 0.42047 0.56662 0.8061 0.0
H562 H 0.25353 0.56132 0.82685 0.0
H563 H 0.31008 0.55518 0.82749 0.0
C564 C 0.97698 0.47597 0.14796 0.0
C565 C 1.01311 0.48062 0.15454 0.0
C566 C 0.94305 0.442 0.14955 0.0
C567 C 0.90408 0.3386 0.15577 0.0
H568 H 0.81566 0.34181 0.1688 0.0
C569 C 0.75308 0.20154 0.14526 0.0
C570 C 0.72667 0.19862 0.15887 0.0
C571 C 0.78874 0.23503 0.14658 0.0
C572 C 0.84003 0.34012 0.16534 0.0
H573 H 1.04079 0.4519 0.16807 0.0
H574 H 0.98216 0.39312 0.1708 0.0
H575 H 0.87485 0.40077 0.16735 0.0
H576 H 0.71819 0.22955 0.18488 0.0
H577 H 0.7806 0.28791 0.18749 0.0
H578 H 0.86942 0.27802 0.15391 0.0
C579 C 0.97988 0.41567 0.16417 0.0
C580 C 0.87419 0.37425 0.16421 0.0
C581 C 1.01384 0.44976 0.16269 0.0
C582 C 0.73784 0.23027 0.17438 0.0
C583 C 0.77359 0.26411 0.1756 0.0
C584 C 0.86989 0.30449 0.15678 0.0
C585 C 0.94367 0.41103 0.1577 0.0
C586 C 0.90698 0.37428 0.1593 0.0
C587 C 0.79958 0.26741 0.16145 0.0
C588 C 0.83699 0.30441 0.16147 0.0
H589 H 0.97475 0.49879 0.14164 0.0
H590 H 0.91618 0.43994 0.14406 0.0
H591 H 0.92812 0.33677 0.15176 0.0
H592 H 0.74547 0.17813 0.13287 0.0
H593 H 0.80715 0.23594 0.13515 0.0
C594 C 0.13108 0.54633 0.07901 0.0
C595 C 0.11793 0.56922 0.08768 0.0
C596 C 0.13233 0.54228 0.05661 0.0
C597 C 0.08978 0.551 0.00386 0.0
H598 H 0.18185 0.56814 0.98291 0.0
C599 C 0.09668 0.54594 0.91259 0.0
C600 C 0.12876 0.57666 0.90649 0.0
C601 C 0.09625 0.53887 0.93419 0.0
C602 C 0.15592 0.56321 0.98852 0.0
H603 H 0.09518 0.60516 0.07952 0.0
H604 H 0.09701 0.59779 0.0409 0.0
H605 H 0.17829 0.56713 0.02188 0.0
H606 H 0.18631 0.6229 0.9181 0.0
H607 H 0.18556 0.61072 0.95596 0.0
H608 H 1.06768 0.54835 0.97089 0.0
C609 C 0.10637 0.58297 0.05124 0.0
C610 C 0.15376 0.56226 0.01079 0.0
C611 C 0.10556 0.58736 0.07348 0.0
C612 C 0.16126 0.59886 0.92228 0.0
C613 C 0.1608 0.59184 0.94397 0.0
C614 C 0.09182 0.5517 0.98169 0.0
C615 C 0.11983 0.56051 0.0425 0.0
C616 C 0.12092 0.55694 0.01874 0.0
C617 C 0.12786 0.56243 0.9503 0.0
C618 C 0.1251 0.55842 0.97373 0.0
H619 H 0.14095 0.53212 0.08954 0.0
H620 H 0.14276 0.5247 0.05031 0.0
H621 H 1.06396 0.54652 0.00945 0.0
H622 H 1.07142 0.52796 0.90072 0.0
H623 H 1.07071 0.51547 0.93838 0.0
C624 C 0.59912 0.09801 0.41115 0.0
C625 C 0.63453 0.1168 0.42482 0.0
C626 C 0.59695 0.09681 0.38862 0.0
C627 C 0.65215 0.14053 0.34432 0.0
H628 H 0.57198 1.04684 0.3099 0.0
C629 C 0.63565 0.10196 0.25003 0.0
C630 C 0.5983 0.08462 0.23868 0.0
C631 C 0.64269 0.10964 0.27282 0.0
C632 C 0.59435 0.07331 0.31927 0.0
H633 H 0.69555 0.14971 0.42543 0.0
H634 H 0.69182 0.14678 0.38591 0.0
H635 H 0.57966 1.05226 0.34931 0.0
H636 H 0.5396 0.06464 0.2423 0.0
H637 H 0.5518 0.07742 0.28183 0.0
H638 H 0.6671 0.16099 0.31388 0.0
C639 C 0.66564 0.13347 0.3927 0.0
C640 C 0.5987 0.07653 0.34191 0.0
C641 C 0.66781 0.13502 0.41537 0.0
C642 C 0.56856 0.07706 0.25054 0.0
C643 C 0.57553 0.08443 0.27319 0.0
C644 C 0.648 0.13713 0.32153 0.0
C645 C 0.63013 0.11391 0.37901 0.0
C646 C 0.62722 0.11037 0.35481 0.0
C647 C 0.61249 0.09992 0.28464 0.0
C648 C 0.61863 0.10365 0.30879 0.0
H649 H 0.57286 0.08415 0.41784 0.0
H650 H 0.56905 0.08239 0.37874 0.0
H651 H 0.67429 0.1671 0.35367 0.0
H652 H 0.65916 0.10807 0.24138 0.0
H653 H 0.67147 0.1216 0.28123 0.0
C654 C 0.62999 0.57644 0.74595 0.0
C655 C 0.65099 0.61004 0.76074 0.0
C656 C 0.62738 0.57763 0.72352 0.0
C657 C 0.67875 0.6357 0.68297 0.0
H658 H 0.58438 0.57003 0.64356 0.0
C659 C 0.67285 0.59607 0.59161 0.0
C660 C 0.64415 0.59496 0.57672 0.0
C661 C 0.67344 0.60193 0.614 0.0
C662 C 0.61087 0.58883 0.65435 0.0
H663 H 0.68525 0.67139 0.76343 0.0
H664 H 0.68099 0.67337 0.72419 0.0
H665 H 0.58469 0.57263 0.68284 0.0
H666 H 0.59375 0.59952 0.57361 0.0
H667 H 0.59456 0.60948 0.61289 0.0
H668 H 0.70508 0.65132 0.65449 0.0
C669 C 0.66657 0.6461 0.73004 0.0
C670 C 0.61111 0.59007 0.67684 0.0
C671 C 0.66883 0.64495 0.75252 0.0
C672 C 0.61632 0.60042 0.58471 0.0
C673 C 0.61663 0.60584 0.60717 0.0
C674 C 0.67859 0.63415 0.66048 0.0
C675 C 0.646 0.61242 0.71529 0.0
C676 C 0.64513 0.6132 0.69142 0.0
C677 C 0.64512 0.60647 0.62206 0.0
C678 C 0.64473 0.61037 0.64591 0.0
H679 H 0.61576 0.54904 0.75166 0.0
H680 H 0.61163 0.55115 0.71262 0.0
H681 H 0.70547 0.65361 0.69375 0.0
H682 H 0.69482 0.59219 0.58592 0.0
H683 H 0.69555 0.60189 0.62501 0.0
C684 C 0.60367 0.09728 0.56564 0.0
C685 C 0.63855 0.1078 0.55852 0.0
C686 C 0.59732 0.0859 0.58603 0.0
C687 C 0.64018 0.0951 0.64069 0.0
H688 H 0.5469 1.00032 0.64246 0.0
C689 C 0.58947 1.04434 0.72187 0.0
C690 C 0.55046 1.02936 0.72235 0.0
C691 C 0.60369 1.05079 0.7022 0.0
C692 C 0.57294 1.02694 0.64229 0.0
H693 H 0.69456 0.11561 0.56758 0.0
H694 H 0.68358 0.09651 0.60398 0.0
H695 H 0.56664 1.01868 0.60756 0.0
H696 H 0.4958 1.00946 0.70262 0.0
H697 H 0.52047 1.02113 0.66841 0.0
H698 H 0.6455 0.10445 0.67535 0.0
C699 C 0.6612 0.09679 0.59337 0.0
C700 C 0.58435 1.03727 0.62233 0.0
C701 C 0.66743 0.10769 0.57263 0.0
C702 C 0.52589 1.02047 0.70273 0.0
C703 C 0.54009 1.0271 0.68311 0.0
C704 C 0.62854 0.08495 0.66074 0.0
C705 C 0.62577 0.08514 0.60001 0.0
C706 C 0.61752 0.07186 0.62131 0.0
C707 C 0.57919 1.04252 0.68259 0.0
C708 C 0.5942 1.05121 0.66171 0.0
H709 H 0.58065 0.09685 0.55524 0.0
H710 H 0.56996 0.07755 0.5909 0.0
H711 H 0.66575 0.12203 0.64026 0.0
H712 H 0.60902 1.05107 0.73674 0.0
H713 H 0.63384 0.06222 0.70236 0.0
C714 C 0.70454 0.64376 0.90852 0.0
C715 C 0.67577 0.61013 0.89562 0.0
C716 C 0.70414 0.64971 0.93077 0.0
C717 C 0.63785 0.61827 0.97075 0.0
H718 H 0.73021 0.66846 0.01313 0.0
C719 C 0.6917 0.68795 0.06705 0.0
C720 C 0.66423 0.6581 0.07652 0.0
C721 C 0.69295 0.68342 0.04481 0.0
C722 C 0.70424 0.65485 0.00144 0.0
H723 H 0.62497 0.55569 0.89613 0.0
H724 H 0.62473 0.56575 0.93499 0.0
H725 H 0.73381 0.65653 0.97488 0.0
H726 H 0.61567 0.60072 0.07007 0.0
H727 H 0.61787 0.59277 0.03129 0.0
H728 H 0.60826 0.61626 -0.00267 0.0
C729 C 0.6471 0.58791 0.92783 0.0
C730 C 0.70628 0.64795 0.97953 0.0
C731 C 0.64741 0.58202 0.90558 0.0
C732 C 0.63731 0.62412 0.06321 0.0
C733 C 0.63841 0.61967 0.04099 0.0
C734 C 0.63581 0.62505 0.99263 0.0
C735 C 0.67505 0.62212 0.94061 0.0
C736 C 0.67308 0.62943 0.96394 0.0
C737 C 0.66656 0.64907 0.0316 0.0
C738 C 0.66895 0.64329 0.00823 0.0
H739 H 0.72672 0.66607 0.90134 0.0
H740 H 0.72592 0.6765 0.9401 0.0
H741 H 0.61182 0.60467 0.95911 0.0
H742 H 0.71297 0.71434 0.07696 0.0
H743 H 0.71472 0.70671 0.03796 0.0
C744 C 0.14415 0.61476 0.23585 0.0
C745 C 0.11882 0.61559 0.21928 0.0
C746 C 0.1446 0.62595 0.25765 0.0
C747 C 0.12205 0.68535 0.29161 0.0
H748 H 0.10343 0.6155 0.33396 0.0
C749 C 1.07234 0.70501 0.37135 0.0
C750 C 0.08522 0.69561 0.39037 0.0
C751 C 1.08018 0.6964 0.35123 0.0
C752 C 0.10936 0.63569 0.32249 0.0
H753 H 1.07475 0.62949 0.21247 0.0
H754 H 1.07619 0.64959 0.2502 0.0
H755 H 0.11262 0.59942 0.29755 0.0
H756 H 0.11603 0.66907 0.40294 0.0
H757 H 0.13094 0.65539 0.36795 0.0
H758 H 0.11904 0.72177 0.31628 0.0
C759 C 0.09543 0.64008 0.24644 0.0
C760 C 0.11458 0.6264 0.30165 0.0
C761 C 0.09447 0.62831 0.22484 0.0
C762 C 0.10609 0.67724 0.38869 0.0
C763 C 0.11424 0.66893 0.36856 0.0
C764 C 0.11734 0.69486 0.31246 0.0
C765 C 0.12036 0.63893 0.26306 0.0
C766 C 0.12006 0.65077 0.2859 0.0
C767 C 0.1015 0.67853 0.34956 0.0
C768 C 0.10995 0.66974 0.32802 0.0
H769 H 0.16316 0.60501 0.23201 0.0
H770 H 0.16408 0.62485 0.27024 0.0
H771 H 0.12669 0.70481 0.2798 0.0
H772 H 1.05658 0.71954 0.37201 0.0
H773 H 1.06922 0.70358 0.33693 0.0
loop_
_geom_bond_atom_site_label_1
_geom_bond_atom_site_label_2
_geom_bond_distance
_geom_bond_site_symmetry_2
_ccdc_geom_bond_type
Tb0 C10 2.825 . S
Tb0 O11 2.347 . S
Tb0 O14 2.366 . S
Tb0 O19 2.418 . S
Tb0 O20 2.384 . S
Tb0 O23 2.479 . S
Tb0 O24 2.471 . S
Eu1 O12 2.418 . S
Eu1 O13 2.384 . S
Eu1 O16 2.479 1_455 S
Eu1 O17 2.471 1_455 S
Eu1 O18 2.347 . S
Eu1 O21 2.366 1_455 S
Eu1 C31 2.825 1_455 S
C2 O18 1.259 . S
C2 O19 1.265 . S
C3 O20 1.255 1_655 S
C3 O21 1.265 . S
C4 C6 1.380 . S
C4 C7 1.374 . S
C4 C10 1.507 . S
C5 C6 1.384 . S
C5 C9 1.387 . S
C5 H32 0.930 . S
C6 C4 1.380 . S
C6 C5 1.384 . S
C6 H33 0.931 . S
C7 C4 1.374 . S
C7 C8 1.390 . S
C7 H34 0.930 . S
C8 C7 1.390 . S
C8 C9 1.391 . S
C8 H35 0.930 . S
C9 C5 1.387 . S
C9 C8 1.391 . S
C10 Tb0 2.825 . S
C10 C4 1.507 . S
C10 O23 1.238 . S
C10 O24 1.247 . S
O11 Tb0 2.347 . S
O11 C15 1.259 . S
O12 Eu1 2.418 . S
O12 C15 1.265 . S
O13 Eu1 2.384 . S
O13 C22 1.255 . S
O14 Tb0 2.366 . S
O14 C22 1.265 . S
C15 O11 1.259 . S
C15 O12 1.265 . S
O16 Eu1 2.479 1_655 S
O16 C31 1.238 . S
O17 Eu1 2.471 1_655 S
O17 C31 1.247 . S
O18 Eu1 2.347 . S
O18 C2 1.259 . S
O19 Tb0 2.418 . S
O19 C2 1.265 . S
O20 Tb0 2.384 . S
O20 C3 1.255 1_455 S
O21 Eu1 2.366 1_655 S
O21 C3 1.265 . S
C22 O13 1.255 . S
C22 O14 1.265 . S
O23 Tb0 2.479 . S
O23 C10 1.238 . S
O24 Tb0 2.471 . S
O24 C10 1.247 . S
C25 C28 1.380 . S
C25 C29 1.374 . S
C25 C31 1.507 . S
C26 C27 1.387 . S
C26 C30 1.391 . S
C27 C26 1.387 . S
C27 C28 1.384 . S
C27 H36 0.930 . S
C28 C25 1.380 . S
C28 C27 1.384 . S
C28 H37 0.931 . S
C29 C25 1.374 . S
C29 C30 1.390 . S
C29 H38 0.930 . S
C30 C26 1.391 . S
C30 C29 1.390 . S
C30 H39 0.930 . S
C31 Eu1 2.825 1_655 S
C31 O16 1.238 . S
C31 O17 1.247 . S
C31 C25 1.507 . S
H32 C5 0.930 . S
H33 C6 0.931 . S
H34 C7 0.930 . S
H35 C8 0.930 . S
H36 C27 0.930 . S
H37 C28 0.931 . S
H38 C29 0.930 . S
H39 C30 0.930 . S
Tb40 C50 2.825 . S
Tb40 O51 2.347 . S
Tb40 O54 2.366 . S
Tb40 O59 2.418 . S
Tb40 O60 2.384 . S
Tb40 O63 2.479 . S
Tb40 O64 2.471 . S
Eu41 O52 2.418 . S
Eu41 O53 2.384 . S
Eu41 O56 2.479 1_545 S
Eu41 O57 2.471 1_545 S
Eu41 O58 2.347 . S
Eu41 O61 2.366 . S
Eu41 C71 2.825 1_545 S
C42 O58 1.259 . S
C42 O59 1.265 . S
C43 O60 1.255 . S
C43 O61 1.265 . S
C44 C46 1.380 . S
C44 C47 1.374 . S
C44 C50 1.507 . S
C45 C46 1.384 . S
C45 C49 1.387 . S
C45 H72 0.930 . S
C46 C44 1.380 . S
C46 C45 1.384 . S
C46 H73 0.931 . S
C47 C44 1.374 . S
C47 C48 1.390 . S
C47 H74 0.930 . S
C48 C47 1.390 . S
C48 C49 1.391 . S
C48 H75 0.930 . S
C49 C45 1.387 . S
C49 C48 1.391 . S
C50 Tb40 2.825 . S
C50 C44 1.507 . S
C50 O63 1.238 . S
C50 O64 1.247 . S
O51 Tb40 2.347 . S
O51 C55 1.259 . S
O52 Eu41 2.418 . S
O52 C55 1.265 . S
O53 Eu41 2.384 . S
O53 C62 1.255 . S
O54 Tb40 2.366 . S
O54 C62 1.265 . S
C55 O51 1.259 . S
C55 O52 1.265 . S
O56 Eu41 2.479 1_565 S
O56 C71 1.238 . S
O57 Eu41 2.471 1_565 S
O57 C71 1.247 . S
O58 Eu41 2.347 . S
O58 C42 1.259 . S
O59 Tb40 2.418 . S
O59 C42 1.265 . S
O60 Tb40 2.384 . S
O60 C43 1.255 . S
O61 Eu41 2.366 . S
O61 C43 1.265 . S
C62 O53 1.255 . S
C62 O54 1.265 . S
O63 Tb40 2.479 . S
O63 C50 1.238 . S
O64 Tb40 2.471 . S
O64 C50 1.247 . S
C65 C68 1.380 . S
C65 C69 1.374 . S
C65 C71 1.507 . S
C66 C67 1.387 . S
C66 C70 1.391 . S
C67 C66 1.387 . S
C67 C68 1.384 . S
C67 H76 0.930 . S
C68 C65 1.380 . S
C68 C67 1.384 . S
C68 H77 0.931 . S
C69 C65 1.374 . S
C69 C70 1.390 . S
C69 H78 0.930 . S
C70 C66 1.391 . S
C70 C69 1.390 . S
C70 H79 0.930 . S
C71 Eu41 2.825 1_565 S
C71 O56 1.238 . S
C71 O57 1.247 . S
C71 C65 1.507 . S
H72 C45 0.930 . S
H73 C46 0.931 . S
H74 C47 0.930 . S
H75 C48 0.930 . S
H76 C67 0.930 . S
H77 C68 0.931 . S
H78 C69 0.930 . S
H79 C70 0.930 . S
Tb80 C90 2.825 . S
Tb80 O91 2.347 . S
Tb80 O94 2.366 . S
Tb80 O99 2.418 . S
Tb80 O100 2.384 . S
Tb80 O103 2.479 . S
Tb80 O104 2.471 . S
Eu81 O92 2.418 . S
Eu81 O93 2.384 . S
Eu81 O96 2.479 . S
Eu81 O97 2.471 . S
Eu81 O98 2.347 . S
Eu81 O101 2.366 . S
Eu81 C111 2.825 . S
C82 O98 1.259 . S
C82 O99 1.265 . S
C83 O100 1.255 . S
C83 O101 1.265 . S
C84 C86 1.380 . S
C84 C87 1.374 . S
C84 C90 1.507 . S
C85 C86 1.384 . S
C85 C89 1.387 . S
C85 H112 0.930 . S
C86 C84 1.380 . S
C86 C85 1.384 . S
C86 H113 0.931 . S
C87 C84 1.374 . S
C87 C88 1.390 . S
C87 H114 0.930 . S
C88 C87 1.390 . S
C88 C89 1.391 . S
C88 H115 0.930 . S
C89 C85 1.387 . S
C89 C88 1.391 . S
C90 Tb80 2.825 . S
C90 C84 1.507 . S
C90 O103 1.238 . S
C90 O104 1.247 . S
O91 Tb80 2.347 . S
O91 C95 1.259 . S
O92 Eu81 2.418 . S
O92 C95 1.265 . S
O93 Eu81 2.384 . S
O93 C102 1.255 . S
O94 Tb80 2.366 . S
O94 C102 1.265 . S
C95 O91 1.259 . S
C95 O92 1.265 . S
O96 Eu81 2.479 . S
O96 C111 1.238 . S
O97 Eu81 2.471 . S
O97 C111 1.247 . S
O98 Eu81 2.347 . S
O98 C82 1.259 . S
O99 Tb80 2.418 . S
O99 C82 1.265 . S
O100 Tb80 2.384 . S
O100 C83 1.255 . S
O101 Eu81 2.366 . S
O101 C83 1.265 . S
C102 O93 1.255 . S
C102 O94 1.265 . S
O103 Tb80 2.479 . S
O103 C90 1.238 . S
O104 Tb80 2.471 . S
O104 C90 1.247 . S
C105 C108 1.380 . S
C105 C109 1.374 . S
C105 C111 1.507 . S
C106 C107 1.387 . S
C106 C110 1.391 . S
C107 C106 1.387 . S
C107 C108 1.384 . S
C107 H116 0.930 . S
C108 C105 1.380 . S
C108 C107 1.384 . S
C108 H117 0.931 . S
C109 C105 1.374 . S
C109 C110 1.390 . S
C109 H118 0.930 . S
C110 C106 1.391 . S
C110 C109 1.390 . S
C110 H119 0.930 . S
C111 Eu81 2.825 . S
C111 O96 1.238 . S
C111 O97 1.247 . S
C111 C105 1.507 . S
H112 C85 0.930 . S
H113 C86 0.931 . S
H114 C87 0.930 . S
H115 C88 0.930 . S
H116 C107 0.930 . S
H117 C108 0.931 . S
H118 C109 0.930 . S
H119 C110 0.930 . S
H120 C121 0.949 . S
C121 H120 0.949 . S
C121 C122 1.395 . S
C121 C123 1.391 . S
C122 C121 1.395 . S
C122 C125 1.390 . S
C123 C121 1.391 . S
C123 C127 1.387 . S
C123 C128 1.491 . S
H124 C125 0.950 . S
C125 C122 1.390 . S
C125 H124 0.950 . S
C125 C126 1.378 . S
C126 C125 1.378 . S
C126 C127 1.409 . S
C127 C123 1.387 . S
C127 C126 1.409 . S
C127 H129 0.951 . S
C128 C123 1.491 . S
C128 C130 1.382 . S
C128 C132 1.404 . S
H129 C127 0.951 . S
C130 C128 1.382 . S
C130 C131 1.390 . S
C130 H135 0.949 . S
C131 C130 1.390 . S
C131 C136 1.399 . S
C132 C128 1.404 . S
C132 H133 0.950 . S
C132 C134 1.375 . S
H133 C132 0.950 . S
C134 C132 1.375 . S
C134 C136 1.382 . S
C134 H138 0.950 . S
H135 C130 0.949 . S
C136 C131 1.399 . S
C136 C134 1.382 . S
C136 H137 0.952 . S
H137 C136 0.952 . S
H138 C134 0.950 . S
H139 C140 0.949 . S
C140 H139 0.949 . S
C140 C141 1.395 . S
C140 C142 1.391 . S
C141 C140 1.395 . S
C141 C144 1.390 . S
C142 C140 1.391 . S
C142 C146 1.387 . S
C142 C147 1.491 . S
H143 C144 0.950 . S
C144 C141 1.390 . S
C144 H143 0.950 . S
C144 C145 1.378 . S
C145 C144 1.378 . S
C145 C146 1.409 . S
C146 C142 1.387 . S
C146 C145 1.409 . S
C146 H148 0.951 . S
C147 C142 1.491 . S
C147 C149 1.382 . S
C147 C151 1.404 . S
H148 C146 0.951 . S
C149 C147 1.382 . S
C149 C150 1.390 . S
C149 H154 0.949 . S
C150 C149 1.390 . S
C150 C155 1.399 . S
C151 C147 1.404 . S
C151 H152 0.950 . S
C151 C153 1.375 . S
H152 C151 0.950 . S
C153 C151 1.375 . S
C153 C155 1.382 . S
C153 H157 0.950 . S
H154 C149 0.949 . S
C155 C150 1.399 . S
C155 C153 1.382 . S
C155 H156 0.952 . S
H156 C155 0.952 . S
H157 C153 0.950 . S
H158 C159 0.949 . S
C159 H158 0.949 . S
C159 C160 1.395 . S
C159 C161 1.391 . S
C160 C159 1.395 . S
C160 C163 1.361 1_455 S
C161 C159 1.391 . S
C161 C165 1.387 . S
C161 C166 1.491 . S
H162 C163 0.977 . S
C163 C160 1.361 1_655 S
C163 H162 0.977 . S
C163 C164 1.381 . S
C164 C163 1.381 . S
C164 C165 1.409 1_655 S
C165 C161 1.387 . S
C165 C164 1.409 1_455 S
C165 H167 0.951 . S
C166 C161 1.491 . S
C166 C168 1.382 . S
C166 C170 1.404 . S
H167 C165 0.951 . S
C168 C166 1.382 . S
C168 C169 1.390 . S
C168 H173 0.949 . S
C169 C168 1.390 . S
C169 C174 1.399 . S
C170 C166 1.404 . S
C170 H171 0.950 . S
C170 C172 1.375 . S
H171 C170 0.950 . S
C172 C170 1.375 . S
C172 C174 1.382 . S
C172 H176 0.950 . S
H173 C168 0.949 . S
C174 C169 1.399 . S
C174 C172 1.382 . S
C174 H175 0.952 . S
H175 C174 0.952 . S
H176 C172 0.950 . S
H177 C178 0.949 1_655 S
C178 H177 0.949 1_455 S
C178 C179 1.395 . S
C178 C180 1.391 . S
C179 C178 1.395 . S
C179 C182 1.390 . S
C180 C178 1.391 . S
C180 C184 1.387 . S
C180 C185 1.491 1_455 S
H181 C182 0.950 . S
C182 C179 1.390 . S
C182 H181 0.950 . S
C182 C183 1.378 . S
C183 C182 1.378 . S
C183 C184 1.409 . S
C184 C180 1.387 . S
C184 C183 1.409 . S
C184 H186 0.951 . S
C185 C180 1.491 1_655 S
C185 C187 1.382 . S
C185 C189 1.404 . S
H186 C184 0.951 . S
C187 C185 1.382 . S
C187 C188 1.390 . S
C187 H192 0.949 . S
C188 C187 1.390 . S
C188 C193 1.399 . S
C189 C185 1.404 . S
C189 H190 0.950 . S
C189 C191 1.375 . S
H190 C189 0.950 . S
C191 C189 1.375 . S
C191 C193 1.382 . S
C191 H195 0.950 . S
H192 C187 0.949 . S
C193 C188 1.399 . S
C193 C191 1.382 . S
C193 H194 0.952 . S
H194 C193 0.952 . S
H195 C191 0.950 . S
H196 C197 0.949 1_565 S
C197 H196 0.949 1_545 S
C197 C198 1.395 . S
C197 C199 1.391 . S
C198 C197 1.395 . S
C198 C201 1.390 . S
C199 C197 1.391 . S
C199 C203 1.387 . S
C199 C204 1.491 1_545 S
H200 C201 0.950 . S
C201 C198 1.390 . S
C201 H200 0.950 . S
C201 C202 1.378 . S
C202 C201 1.378 . S
C202 C203 1.409 . S
C203 C199 1.387 . S
C203 C202 1.409 . S
C203 H205 0.951 . S
C204 C199 1.491 1_565 S
C204 C206 1.382 . S
C204 C208 1.404 . S
H205 C203 0.951 . S
C206 C204 1.382 . S
C206 C207 1.390 . S
C206 H211 0.949 . S
C207 C206 1.390 . S
C207 C212 1.399 . S
C208 C204 1.404 . S
C208 H209 0.950 . S
C208 C210 1.375 . S
H209 C208 0.950 . S
C210 C208 1.375 . S
C210 C212 1.382 . S
C210 H214 0.950 . S
H211 C206 0.949 . S
C212 C207 1.399 . S
C212 C210 1.382 . S
C212 H213 0.952 . S
H213 C212 0.952 . S
H214 C210 0.950 . S
H215 C216 0.949 . S
C216 H215 0.949 . S
C216 C217 1.395 . S
C216 C218 1.391 . S
C217 C216 1.395 . S
C217 C220 1.390 . S
C218 C216 1.391 . S
C218 C222 1.387 . S
C218 C223 1.491 . S
H219 C220 0.950 . S
C220 C217 1.390 . S
C220 H219 0.950 . S
C220 C221 1.378 . S
C221 C220 1.378 . S
C221 C222 1.409 . S
C222 C218 1.387 . S
C222 C221 1.409 . S
C222 H224 0.951 . S
C223 C218 1.491 . S
C223 C225 1.382 . S
C223 C227 1.404 . S
H224 C222 0.951 . S
C225 C223 1.382 . S
C225 C226 1.390 . S
C225 H230 0.949 . S
C226 C225 1.390 . S
C226 C231 1.399 . S
C227 C223 1.404 . S
C227 H228 0.950 . S
C227 C229 1.375 . S
H228 C227 0.950 . S
C229 C227 1.375 . S
C229 C231 1.382 . S
C229 H233 0.950 . S
H230 C225 0.949 . S
C231 C226 1.399 . S
C231 C229 1.382 . S
C231 H232 0.952 . S
H232 C231 0.952 . S
H233 C229 0.950 . S
C234 C235 1.349 . S
C234 C236 1.327 . S
C234 H259 0.950 . S
C235 C234 1.349 . S
C235 C251 1.349 . S
C236 C234 1.327 . S
C236 C255 1.429 . S
C236 H260 0.950 . S
C237 C254 1.574 . S
C237 C256 1.368 . S
C237 H261 0.949 . S
H238 C242 0.949 . S
C239 C240 1.349 . S
C239 C241 1.327 . S
C239 H262 0.950 . S
C240 C239 1.349 . S
C240 C252 1.349 . S
C241 C239 1.327 . S
C241 C257 1.429 . S
C241 H263 0.950 . S
C242 H238 0.949 . S
C242 C250 1.574 . S
C242 C258 1.368 . S
H243 C251 0.950 . S
H244 C249 0.950 . S
H245 C250 0.949 . S
H246 C252 0.950 . S
H247 C253 0.950 . S
H248 C254 0.949 . S
C249 H244 0.950 . S
C249 C251 1.327 . S
C249 C255 1.429 . S
C250 C242 1.574 . S
C250 H245 0.949 . S
C250 C256 1.368 . S
C251 C235 1.349 . S
C251 H243 0.950 . S
C251 C249 1.327 . S
C252 C240 1.349 . S
C252 H246 0.950 . S
C252 C253 1.327 . S
C253 H247 0.950 . S
C253 C252 1.327 . S
C253 C257 1.429 . S
C254 C237 1.574 . S
C254 H248 0.949 . S
C254 C258 1.368 . S
C255 C236 1.429 . S
C255 C249 1.429 . S
C255 C256 1.523 . S
C256 C237 1.368 . S
C256 C250 1.368 . S
C256 C255 1.523 . S
C257 C241 1.429 . S
C257 C253 1.429 . S
C257 C258 1.523 . S
C258 C242 1.368 . S
C258 C254 1.368 . S
C258 C257 1.523 . S
H259 C234 0.950 . S
H260 C236 0.950 . S
H261 C237 0.949 . S
H262 C239 0.950 . S
H263 C241 0.950 . S
C264 C265 1.349 . S
C264 C266 1.327 . S
C264 H289 0.950 . S
C265 C264 1.349 . S
C265 C281 1.349 . S
C266 C264 1.327 . S
C266 C285 1.429 . S
C266 H290 0.950 . S
C267 C284 1.574 . S
C267 C286 1.368 . S
C267 H291 0.949 . S
H268 C272 0.949 . S
C269 C270 1.349 . S
C269 C271 1.327 . S
C269 H292 0.950 . S
C270 C269 1.349 . S
C270 C282 1.349 . S
C271 C269 1.327 . S
C271 C287 1.429 . S
C271 H293 0.950 . S
C272 H268 0.949 . S
C272 C280 1.574 . S
C272 C288 1.368 . S
H273 C281 0.950 . S
H274 C279 0.950 . S
H275 C280 0.949 . S
H276 C282 0.950 . S
H277 C283 0.950 . S
H278 C284 0.949 . S
C279 H274 0.950 . S
C279 C281 1.327 . S
C279 C285 1.429 . S
C280 C272 1.574 . S
C280 H275 0.949 . S
C280 C286 1.368 . S
C281 C265 1.349 . S
C281 H273 0.950 . S
C281 C279 1.327 . S
C282 C270 1.349 . S
C282 H276 0.950 . S
C282 C283 1.327 . S
C283 H277 0.950 . S
C283 C282 1.327 . S
C283 C287 1.429 . S
C284 C267 1.574 . S
C284 H278 0.949 . S
C284 C288 1.368 . S
C285 C266 1.429 . S
C285 C279 1.429 . S
C285 C286 1.523 . S
C286 C267 1.368 . S
C286 C280 1.368 . S
C286 C285 1.523 . S
C287 C271 1.429 . S
C287 C283 1.429 . S
C287 C288 1.523 . S
C288 C272 1.368 . S
C288 C284 1.368 . S
C288 C287 1.523 . S
H289 C264 0.950 . S
H290 C266 0.950 . S
H291 C267 0.949 . S
H292 C269 0.950 . S
H293 C271 0.950 . S
C294 C295 1.349 . S
C294 C296 1.327 . S
C294 H319 0.950 . S
C295 C294 1.349 . S
C295 C311 1.349 . S
C296 C294 1.327 . S
C296 C315 1.429 . S
C296 H320 0.950 . S
C297 C314 1.574 . S
C297 C316 1.368 . S
C297 H321 0.949 . S
H298 C302 0.949 . S
C299 C300 1.349 . S
C299 C301 1.327 . S
C299 H322 0.950 . S
C300 C299 1.349 . S
C300 C312 1.349 . S
C301 C299 1.327 . S
C301 C317 1.429 . S
C301 H323 0.950 . S
C302 H298 0.949 . S
C302 C310 1.574 . S
C302 C318 1.368 . S
H303 C311 0.950 . S
H304 C309 0.950 . S
H305 C310 0.949 . S
H306 C312 0.950 . S
H307 C313 0.950 . S
H308 C314 0.949 . S
C309 H304 0.950 . S
C309 C311 1.327 . S
C309 C315 1.429 . S
C310 C302 1.574 . S
C310 H305 0.949 . S
C310 C316 1.368 . S
C311 C295 1.349 . S
C311 H303 0.950 . S
C311 C309 1.327 . S
C312 C300 1.349 . S
C312 H306 0.950 . S
C312 C313 1.327 . S
C313 H307 0.950 . S
C313 C312 1.327 . S
C313 C317 1.429 . S
C314 C297 1.574 . S
C314 H308 0.949 . S
C314 C318 1.368 . S
C315 C296 1.429 . S
C315 C309 1.429 . S
C315 C316 1.523 . S
C316 C297 1.368 . S
C316 C310 1.368 . S
C316 C315 1.523 . S
C317 C301 1.429 . S
C317 C313 1.429 . S
C317 C318 1.523 . S
C318 C302 1.368 . S
C318 C314 1.368 . S
C318 C317 1.523 . S
H319 C294 0.950 . S
H320 C296 0.950 . S
H321 C297 0.949 . S
H322 C299 0.950 . S
H323 C301 0.950 . S
C324 C325 1.349 . S
C324 C326 1.327 . S
C324 H349 0.950 . S
C325 C324 1.349 . S
C325 C341 1.349 . S
C326 C324 1.327 . S
C326 C345 1.429 . S
C326 H350 0.950 . S
C327 C344 1.574 . S
C327 C346 1.368 . S
C327 H351 0.949 . S
H328 C332 0.949 . S
C329 C330 1.349 . S
C329 C331 1.327 . S
C329 H352 0.950 . S
C330 C329 1.349 . S
C330 C342 1.349 . S
C331 C329 1.327 . S
C331 C347 1.429 . S
C331 H353 0.950 . S
C332 H328 0.949 . S
C332 C340 1.574 . S
C332 C348 1.368 . S
H333 C341 0.950 . S
H334 C339 0.950 . S
H335 C340 0.949 . S
H336 C342 0.950 . S
H337 C343 0.950 . S
H338 C344 0.949 . S
C339 H334 0.950 . S
C339 C341 1.327 . S
C339 C345 1.429 . S
C340 C332 1.574 . S
C340 H335 0.949 . S
C340 C346 1.368 . S
C341 C325 1.349 . S
C341 H333 0.950 . S
C341 C339 1.327 . S
C342 C330 1.349 . S
C342 H336 0.950 . S
C342 C343 1.327 . S
C343 H337 0.950 . S
C343 C342 1.327 . S
C343 C347 1.429 . S
C344 C327 1.574 . S
C344 H338 0.949 . S
C344 C348 1.368 . S
C345 C326 1.429 . S
C345 C339 1.429 . S
C345 C346 1.523 . S
C346 C327 1.368 . S
C346 C340 1.368 . S
C346 C345 1.523 . S
C347 C331 1.429 . S
C347 C343 1.429 . S
C347 C348 1.523 . S
C348 C332 1.368 . S
C348 C344 1.368 . S
C348 C347 1.523 . S
H349 C324 0.950 . S
H350 C326 0.950 . S
H351 C327 0.949 . S
H352 C329 0.950 . S
H353 C331 0.950 . S
C354 C355 1.349 . S
C354 C356 1.327 . S
C354 H379 0.950 . S
C355 C354 1.349 . S
C355 C371 1.349 . S
C356 C354 1.327 . S
C356 C375 1.429 . S
C356 H380 0.950 . S
C357 C374 1.574 . S
C357 C376 1.368 . S
C357 H381 0.949 . S
H358 C362 0.949 . S
C359 C360 1.349 . S
C359 C361 1.327 . S
C359 H382 0.950 . S
C360 C359 1.349 . S
C360 C372 1.349 . S
C361 C359 1.327 . S
C361 C377 1.429 . S
C361 H383 0.950 . S
C362 H358 0.949 . S
C362 C370 1.574 . S
C362 C378 1.368 . S
H363 C371 0.950 . S
H364 C369 0.950 . S
H365 C370 0.949 . S
H366 C372 0.950 . S
H367 C373 0.950 . S
H368 C374 0.949 . S
C369 H364 0.950 . S
C369 C371 1.327 . S
C369 C375 1.429 . S
C370 C362 1.574 . S
C370 H365 0.949 . S
C370 C376 1.368 . S
C371 C355 1.349 . S
C371 H363 0.950 . S
C371 C369 1.327 . S
C372 C360 1.349 . S
C372 H366 0.950 . S
C372 C373 1.327 . S
C373 H367 0.950 . S
C373 C372 1.327 . S
C373 C377 1.429 . S
C374 C357 1.574 . S
C374 H368 0.949 . S
C374 C378 1.368 . S
C375 C356 1.429 . S
C375 C369 1.429 . S
C375 C376 1.523 . S
C376 C357 1.368 . S
C376 C370 1.368 . S
C376 C375 1.523 . S
C377 C361 1.429 . S
C377 C373 1.429 . S
C377 C378 1.523 . S
C378 C362 1.368 . S
C378 C374 1.368 . S
C378 C377 1.523 . S
H379 C354 0.950 . S
H380 C356 0.950 . S
H381 C357 0.949 . S
H382 C359 0.950 . S
H383 C361 0.950 . S
C384 C385 1.349 . S
C384 C386 1.327 . S
C384 H409 0.950 . S
C385 C384 1.349 . S
C385 C401 1.349 . S
C386 C384 1.327 . S
C386 C405 1.429 . S
C386 H410 0.950 . S
C387 C404 1.574 . S
C387 C406 1.368 . S
C387 H411 0.949 . S
H388 C392 0.949 . S
C389 C390 1.349 . S
C389 C391 1.327 . S
C389 H412 0.950 . S
C390 C389 1.349 . S
C390 C402 1.349 . S
C391 C389 1.327 . S
C391 C407 1.429 . S
C391 H413 0.950 . S
C392 H388 0.949 . S
C392 C400 1.574 . S
C392 C408 1.368 . S
H393 C401 0.950 . S
H394 C399 0.950 . S
H395 C400 0.949 . S
H396 C402 0.950 . S
H397 C403 0.950 . S
H398 C404 0.949 . S
C399 H394 0.950 . S
C399 C401 1.327 . S
C399 C405 1.429 . S
C400 C392 1.574 . S
C400 H395 0.949 . S
C400 C406 1.368 . S
C401 C385 1.349 . S
C401 H393 0.950 . S
C401 C399 1.327 . S
C402 C390 1.349 . S
C402 H396 0.950 . S
C402 C403 1.327 . S
C403 H397 0.950 . S
C403 C402 1.327 . S
C403 C407 1.429 . S
C404 C387 1.574 . S
C404 H398 0.949 . S
C404 C408 1.368 . S
C405 C386 1.429 . S
C405 C399 1.429 . S
C405 C406 1.523 . S
C406 C387 1.368 . S
C406 C400 1.368 . S
C406 C405 1.523 . S
C407 C391 1.429 . S
C407 C403 1.429 . S
C407 C408 1.523 . S
C408 C392 1.368 . S
C408 C404 1.368 . S
C408 C407 1.523 . S
H409 C384 0.950 . S
H410 C386 0.950 . S
H411 C387 0.949 . S
H412 C389 0.950 . S
H413 C391 0.950 . S
C414 C415 1.349 . S
C414 C416 1.327 . S
C414 H439 0.950 . S
C415 C414 1.349 . S
C415 C431 1.349 . S
C416 C414 1.327 . S
C416 C435 1.429 . S
C416 H440 0.950 . S
C417 C434 1.574 . S
C417 C436 1.368 . S
C417 H441 0.949 . S
H418 C422 0.949 . S
C419 C420 1.349 . S
C419 C421 1.327 . S
C419 H442 0.950 . S
C420 C419 1.349 . S
C420 C432 1.349 . S
C421 C419 1.327 . S
C421 C437 1.429 . S
C421 H443 0.950 . S
C422 H418 0.949 . S
C422 C430 1.574 . S
C422 C438 1.368 . S
H423 C431 0.950 . S
H424 C429 0.950 . S
H425 C430 0.949 . S
H426 C432 0.950 . S
H427 C433 0.950 . S
H428 C434 0.949 . S
C429 H424 0.950 . S
C429 C431 1.327 . S
C429 C435 1.429 . S
C430 C422 1.574 . S
C430 H425 0.949 . S
C430 C436 1.368 . S
C431 C415 1.349 . S
C431 H423 0.950 . S
C431 C429 1.327 . S
C432 C420 1.349 . S
C432 H426 0.950 . S
C432 C433 1.327 . S
C433 H427 0.950 . S
C433 C432 1.327 . S
C433 C437 1.429 . S
C434 C417 1.574 . S
C434 H428 0.949 . S
C434 C438 1.368 . S
C435 C416 1.429 . S
C435 C429 1.429 . S
C435 C436 1.523 . S
C436 C417 1.368 . S
C436 C430 1.368 . S
C436 C435 1.523 . S
C437 C421 1.429 . S
C437 C433 1.429 . S
C437 C438 1.523 . S
C438 C422 1.368 . S
C438 C434 1.368 . S
C438 C437 1.523 . S
H439 C414 0.950 . S
H440 C416 0.950 . S
H441 C417 0.949 . S
H442 C419 0.950 . S
H443 C421 0.950 . S
C444 C445 1.349 . S
C444 C446 1.327 . S
C444 H469 0.950 . S
C445 C444 1.349 . S
C445 C461 1.349 . S
C446 C444 1.327 . S
C446 C465 1.429 . S
C446 H470 0.950 . S
C447 C464 1.574 . S
C447 C466 1.368 . S
C447 H471 0.949 . S
H448 C452 0.949 . S
C449 C450 1.349 . S
C449 C451 1.327 . S
C449 H472 0.950 . S
C450 C449 1.349 . S
C450 C462 1.349 . S
C451 C449 1.327 . S
C451 C467 1.429 . S
C451 H473 0.950 . S
C452 H448 0.949 . S
C452 C460 1.574 . S
C452 C468 1.368 . S
H453 C461 0.950 . S
H454 C459 0.950 . S
H455 C460 0.949 . S
H456 C462 0.950 . S
H457 C463 0.950 . S
H458 C464 0.949 . S
C459 H454 0.950 . S
C459 C461 1.327 . S
C459 C465 1.429 . S
C460 C452 1.574 . S
C460 H455 0.949 . S
C460 C466 1.368 . S
C461 C445 1.349 . S
C461 H453 0.950 . S
C461 C459 1.327 . S
C462 C450 1.349 . S
C462 H456 0.950 . S
C462 C463 1.327 . S
C463 H457 0.950 . S
C463 C462 1.327 . S
C463 C467 1.429 . S
C464 C447 1.574 . S
C464 H458 0.949 . S
C464 C468 1.368 . S
C465 C446 1.429 . S
C465 C459 1.429 . S
C465 C466 1.523 . S
C466 C447 1.368 . S
C466 C460 1.368 . S
C466 C465 1.523 . S
C467 C451 1.429 . S
C467 C463 1.429 . S
C467 C468 1.523 . S
C468 C452 1.368 . S
C468 C464 1.368 . S
C468 C467 1.523 . S
H469 C444 0.950 . S
H470 C446 0.950 . S
H471 C447 0.949 . S
H472 C449 0.950 . S
H473 C451 0.950 . S
C474 C475 1.349 . S
C474 C476 1.327 . S
C474 H499 0.950 . S
C475 C474 1.349 . S
C475 C491 1.349 . S
C476 C474 1.327 . S
C476 C495 1.429 . S
C476 H500 0.950 . S
C477 C494 1.574 . S
C477 C496 1.368 . S
C477 H501 0.949 . S
H478 C482 0.949 . S
C479 C480 1.349 . S
C479 C481 1.327 . S
C479 H502 0.950 . S
C480 C479 1.349 . S
C480 C492 1.349 . S
C481 C479 1.327 . S
C481 C497 1.429 . S
C481 H503 0.950 . S
C482 H478 0.949 . S
C482 C490 1.574 . S
C482 C498 1.368 . S
H483 C491 0.950 . S
H484 C489 0.950 . S
H485 C490 0.949 . S
H486 C492 0.950 . S
H487 C493 0.950 . S
H488 C494 0.949 . S
C489 H484 0.950 . S
C489 C491 1.327 . S
C489 C495 1.429 . S
C490 C482 1.574 . S
C490 H485 0.949 . S
C490 C496 1.368 . S
C491 C475 1.349 . S
C491 H483 0.950 . S
C491 C489 1.327 . S
C492 C480 1.349 . S
C492 H486 0.950 . S
C492 C493 1.327 . S
C493 H487 0.950 . S
C493 C492 1.327 . S
C493 C497 1.429 . S
C494 C477 1.574 . S
C494 H488 0.949 . S
C494 C498 1.368 . S
C495 C476 1.429 . S
C495 C489 1.429 . S
C495 C496 1.523 . S
C496 C477 1.368 . S
C496 C490 1.368 . S
C496 C495 1.523 . S
C497 C481 1.429 . S
C497 C493 1.429 . S
C497 C498 1.523 . S
C498 C482 1.368 . S
C498 C494 1.368 . S
C498 C497 1.523 . S
H499 C474 0.950 . S
H500 C476 0.950 . S
H501 C477 0.949 . S
H502 C479 0.950 . S
H503 C481 0.950 . S
C504 C505 1.349 . S
C504 C506 1.327 . S
C504 H529 0.950 . S
C505 C504 1.349 . S
C505 C521 1.349 . S
C506 C504 1.327 . S
C506 C525 1.429 . S
C506 H530 0.950 . S
C507 C524 1.574 . S
C507 C526 1.368 . S
C507 H531 0.949 . S
H508 C512 0.949 . S
C509 C510 1.349 . S
C509 C511 1.327 . S
C509 H532 0.950 . S
C510 C509 1.349 . S
C510 C522 1.349 . S
C511 C509 1.327 . S
C511 C527 1.429 . S
C511 H533 0.950 . S
C512 H508 0.949 . S
C512 C520 1.574 . S
C512 C528 1.368 . S
H513 C521 0.950 . S
H514 C519 0.950 . S
H515 C520 0.949 . S
H516 C522 0.950 . S
H517 C523 0.950 . S
H518 C524 0.949 . S
C519 H514 0.950 . S
C519 C521 1.327 . S
C519 C525 1.429 . S
C520 C512 1.574 . S
C520 H515 0.949 . S
C520 C526 1.368 . S
C521 C505 1.349 . S
C521 H513 0.950 . S
C521 C519 1.327 . S
C522 C510 1.349 . S
C522 H516 0.950 . S
C522 C523 1.327 . S
C523 H517 0.950 . S
C523 C522 1.327 . S
C523 C527 1.429 . S
C524 C507 1.574 . S
C524 H518 0.949 . S
C524 C528 1.368 . S
C525 C506 1.429 . S
C525 C519 1.429 . S
C525 C526 1.523 . S
C526 C507 1.368 . S
C526 C520 1.368 . S
C526 C525 1.523 . S
C527 C511 1.429 . S
C527 C523 1.429 . S
C527 C528 1.523 . S
C528 C512 1.368 . S
C528 C524 1.368 . S
C528 C527 1.523 . S
H529 C504 0.950 . S
H530 C506 0.950 . S
H531 C507 0.949 . S
H532 C509 0.950 . S
H533 C511 0.950 . S
C534 C535 1.349 . S
C534 C536 1.327 . S
C534 H559 0.950 . S
C535 C534 1.349 . S
C535 C551 1.349 . S
C536 C534 1.327 . S
C536 C555 1.429 . S
C536 H560 0.950 . S
C537 C554 1.574 . S
C537 C556 1.368 . S
C537 H561 0.949 . S
H538 C542 0.949 . S
C539 C540 1.349 . S
C539 C541 1.327 . S
C539 H562 0.950 . S
C540 C539 1.349 . S
C540 C552 1.349 . S
C541 C539 1.327 . S
C541 C557 1.429 . S
C541 H563 0.950 . S
C542 H538 0.949 . S
C542 C550 1.574 . S
C542 C558 1.368 . S
H543 C551 0.950 . S
H544 C549 0.950 . S
H545 C550 0.949 . S
H546 C552 0.950 . S
H547 C553 0.950 . S
H548 C554 0.949 . S
C549 H544 0.950 . S
C549 C551 1.327 . S
C549 C555 1.429 . S
C550 C542 1.574 . S
C550 H545 0.949 . S
C550 C556 1.368 . S
C551 C535 1.349 . S
C551 H543 0.950 . S
C551 C549 1.327 . S
C552 C540 1.349 . S
C552 H546 0.950 . S
C552 C553 1.327 . S
C553 H547 0.950 . S
C553 C552 1.327 . S
C553 C557 1.429 . S
C554 C537 1.574 . S
C554 H548 0.949 . S
C554 C558 1.368 . S
C555 C536 1.429 . S
C555 C549 1.429 . S
C555 C556 1.523 . S
C556 C537 1.368 . S
C556 C550 1.368 . S
C556 C555 1.523 . S
C557 C541 1.429 . S
C557 C553 1.429 . S
C557 C558 1.523 . S
C558 C542 1.368 . S
C558 C554 1.368 . S
C558 C557 1.523 . S
H559 C534 0.950 . S
H560 C536 0.950 . S
H561 C537 0.949 . S
H562 C539 0.950 . S
H563 C541 0.950 . S
C564 C565 1.349 . S
C564 C566 1.327 . S
C564 H589 0.950 . S
C565 C564 1.349 . S
C565 C581 1.349 . S
C566 C564 1.327 . S
C566 C585 1.429 . S
C566 H590 0.950 . S
C567 C584 1.574 . S
C567 C586 1.368 . S
C567 H591 0.949 . S
H568 C572 0.949 . S
C569 C570 1.349 . S
C569 C571 1.327 . S
C569 H592 0.950 . S
C570 C569 1.349 . S
C570 C582 1.349 . S
C571 C569 1.327 . S
C571 C587 1.429 . S
C571 H593 0.950 . S
C572 H568 0.949 . S
C572 C580 1.574 . S
C572 C588 1.368 . S
H573 C581 0.950 . S
H574 C579 0.950 . S
H575 C580 0.949 . S
H576 C582 0.950 . S
H577 C583 0.950 . S
H578 C584 0.949 . S
C579 H574 0.950 . S
C579 C581 1.327 . S
C579 C585 1.429 . S
C580 C572 1.574 . S
C580 H575 0.949 . S
C580 C586 1.368 . S
C581 C565 1.349 . S
C581 H573 0.950 . S
C581 C579 1.327 . S
C582 C570 1.349 . S
C582 H576 0.950 . S
C582 C583 1.327 . S
C583 H577 0.950 . S
C583 C582 1.327 . S
C583 C587 1.429 . S
C584 C567 1.574 . S
C584 H578 0.949 . S
C584 C588 1.368 . S
C585 C566 1.429 . S
C585 C579 1.429 . S
C585 C586 1.523 . S
C586 C567 1.368 . S
C586 C580 1.368 . S
C586 C585 1.523 . S
C587 C571 1.429 . S
C587 C583 1.429 . S
C587 C588 1.523 . S
C588 C572 1.368 . S
C588 C584 1.368 . S
C588 C587 1.523 . S
H589 C564 0.950 . S
H590 C566 0.950 . S
H591 C567 0.949 . S
H592 C569 0.950 . S
H593 C571 0.950 . S
C594 C595 1.349 . S
C594 C596 1.327 . S
C594 H619 0.950 . S
C595 C594 1.349 . S
C595 C611 1.349 . S
C596 C594 1.327 . S
C596 C615 1.429 . S
C596 H620 0.950 . S
C597 C614 1.574 1_554 S
C597 C616 1.368 . S
C597 H621 0.949 1_455 S
H598 C602 0.949 1_556 S
C599 C600 1.349 . S
C599 C601 1.327 . S
C599 H622 0.950 1_455 S
C600 C599 1.349 . S
C600 C612 1.349 . S
C601 C599 1.327 . S
C601 C617 1.429 . S
C601 H623 0.950 1_455 S
C602 H598 0.949 1_554 S
C602 C610 1.574 . S
C602 C618 1.368 1_554 S
H603 C611 0.950 1_655 S
H604 C609 0.950 1_655 S
H605 C610 0.949 . S
H606 C612 0.950 . S
H607 C613 0.950 . S
H608 C614 0.949 1_655 S
C609 H604 0.950 1_455 S
C609 C611 1.327 . S
C609 C615 1.429 . S
C610 C602 1.574 . S
C610 H605 0.949 . S
C610 C616 1.368 . S
C611 C595 1.349 . S
C611 H603 0.950 1_455 S
C611 C609 1.327 . S
C612 C600 1.349 . S
C612 H606 0.950 . S
C612 C613 1.327 . S
C613 H607 0.950 . S
C613 C612 1.327 . S
C613 C617 1.429 . S
C614 C597 1.574 1_556 S
C614 H608 0.949 1_455 S
C614 C618 1.368 . S
C615 C596 1.429 . S
C615 C609 1.429 . S
C615 C616 1.523 . S
C616 C597 1.368 . S
C616 C610 1.368 . S
C616 C615 1.523 . S
C617 C601 1.429 . S
C617 C613 1.429 . S
C617 C618 1.523 . S
C618 C602 1.368 1_556 S
C618 C614 1.368 . S
C618 C617 1.523 . S
H619 C594 0.950 . S
H620 C596 0.950 . S
H621 C597 0.949 1_655 S
H622 C599 0.950 1_655 S
H623 C601 0.950 1_655 S
C624 C625 1.349 . S
C624 C626 1.327 . S
C624 H649 0.950 . S
C625 C624 1.349 . S
C625 C641 1.349 . S
C626 C624 1.327 . S
C626 C645 1.429 . S
C626 H650 0.950 . S
C627 C644 1.574 . S
C627 C646 1.368 . S
C627 H651 0.949 . S
H628 C632 0.949 . S
C629 C630 1.349 . S
C629 C631 1.327 . S
C629 H652 0.950 . S
C630 C629 1.349 . S
C630 C642 1.349 . S
C631 C629 1.327 . S
C631 C647 1.429 . S
C631 H653 0.950 . S
C632 H628 0.949 . S
C632 C640 1.574 . S
C632 C648 1.368 . S
H633 C641 0.950 . S
H634 C639 0.950 . S
H635 C640 0.949 . S
H636 C642 0.950 . S
H637 C643 0.950 . S
H638 C644 0.949 . S
C639 H634 0.950 . S
C639 C641 1.327 . S
C639 C645 1.429 . S
C640 C632 1.574 . S
C640 H635 0.949 . S
C640 C646 1.368 . S
C641 C625 1.349 . S
C641 H633 0.950 . S
C641 C639 1.327 . S
C642 C630 1.349 . S
C642 H636 0.950 . S
C642 C643 1.327 . S
C643 H637 0.950 . S
C643 C642 1.327 . S
C643 C647 1.429 . S
C644 C627 1.574 . S
C644 H638 0.949 . S
C644 C648 1.368 . S
C645 C626 1.429 . S
C645 C639 1.429 . S
C645 C646 1.523 . S
C646 C627 1.368 . S
C646 C640 1.368 . S
C646 C645 1.523 . S
C647 C631 1.429 . S
C647 C643 1.429 . S
C647 C648 1.523 . S
C648 C632 1.368 . S
C648 C644 1.368 . S
C648 C647 1.523 . S
H649 C624 0.950 . S
H650 C626 0.950 . S
H651 C627 0.949 . S
H652 C629 0.950 . S
H653 C631 0.950 . S
C654 C655 1.349 . S
C654 C656 1.327 . S
C654 H679 0.950 . S
C655 C654 1.349 . S
C655 C671 1.349 . S
C656 C654 1.327 . S
C656 C675 1.429 . S
C656 H680 0.950 . S
C657 C674 1.574 . S
C657 C676 1.368 . S
C657 H681 0.949 . S
H658 C662 0.949 . S
C659 C660 1.349 . S
C659 C661 1.327 . S
C659 H682 0.950 . S
C660 C659 1.349 . S
C660 C672 1.349 . S
C661 C659 1.327 . S
C661 C677 1.429 . S
C661 H683 0.950 . S
C662 H658 0.949 . S
C662 C670 1.574 . S
C662 C678 1.368 . S
H663 C671 0.950 . S
H664 C669 0.950 . S
H665 C670 0.949 . S
H666 C672 0.950 . S
H667 C673 0.950 . S
H668 C674 0.949 . S
C669 H664 0.950 . S
C669 C671 1.327 . S
C669 C675 1.429 . S
C670 C662 1.574 . S
C670 H665 0.949 . S
C670 C676 1.368 . S
C671 C655 1.349 . S
C671 H663 0.950 . S
C671 C669 1.327 . S
C672 C660 1.349 . S
C672 H666 0.950 . S
C672 C673 1.327 . S
C673 H667 0.950 . S
C673 C672 1.327 . S
C673 C677 1.429 . S
C674 C657 1.574 . S
C674 H668 0.949 . S
C674 C678 1.368 . S
C675 C656 1.429 . S
C675 C669 1.429 . S
C675 C676 1.523 . S
C676 C657 1.368 . S
C676 C670 1.368 . S
C676 C675 1.523 . S
C677 C661 1.429 . S
C677 C673 1.429 . S
C677 C678 1.523 . S
C678 C662 1.368 . S
C678 C674 1.368 . S
C678 C677 1.523 . S
H679 C654 0.950 . S
H680 C656 0.950 . S
H681 C657 0.949 . S
H682 C659 0.950 . S
H683 C661 0.950 . S
C684 C685 1.349 . S
C684 C686 1.327 . S
C684 H709 0.950 . S
C685 C684 1.349 . S
C685 C701 1.349 . S
C686 C684 1.327 . S
C686 C705 1.429 . S
C686 H710 0.950 . S
C687 C704 1.574 . S
C687 C706 1.368 . S
C687 H711 0.949 . S
H688 C692 0.949 . S
C689 C690 1.349 . S
C689 C691 1.327 . S
C689 H712 0.950 . S
C690 C689 1.349 . S
C690 C702 1.349 . S
C691 C689 1.327 . S
C691 C707 1.429 . S
C691 H713 0.950 . S
C692 H688 0.949 . S
C692 C700 1.574 . S
C692 C708 1.368 . S
H693 C701 0.950 . S
H694 C699 0.950 . S
H695 C700 0.949 . S
H696 C702 0.950 . S
H697 C703 0.950 . S
H698 C704 0.949 . S
C699 H694 0.950 . S
C699 C701 1.327 . S
C699 C705 1.429 . S
C700 C692 1.574 . S
C700 H695 0.949 . S
C700 C706 1.368 . S
C701 C685 1.349 . S
C701 H693 0.950 . S
C701 C699 1.327 . S
C702 C690 1.349 . S
C702 H696 0.950 . S
C702 C703 1.327 . S
C703 H697 0.950 . S
C703 C702 1.327 . S
C703 C707 1.429 . S
C704 C687 1.574 . S
C704 H698 0.949 . S
C704 C708 1.368 . S
C705 C686 1.429 . S
C705 C699 1.429 . S
C705 C706 1.523 . S
C706 C687 1.368 . S
C706 C700 1.368 . S
C706 C705 1.523 . S
C707 C691 1.429 . S
C707 C703 1.429 . S
C707 C708 1.523 . S
C708 C692 1.368 . S
C708 C704 1.368 . S
C708 C707 1.523 . S
H709 C684 0.950 . S
H710 C686 0.950 . S
H711 C687 0.949 . S
H712 C689 0.950 . S
H713 C691 0.950 . S
C714 C715 1.349 . S
C714 C716 1.327 . S
C714 H739 0.950 . S
C715 C714 1.349 . S
C715 C731 1.349 . S
C716 C714 1.327 . S
C716 C735 1.429 . S
C716 H740 0.950 . S
C717 C734 1.549 1_556 S
C717 C736 1.368 . S
C717 H741 0.949 . S
H718 C722 0.979 . S
C719 C720 1.349 . S
C719 C721 1.327 . S
C719 H742 0.950 . S
C720 C719 1.349 . S
C720 C732 1.349 . S
C721 C719 1.327 . S
C721 C737 1.429 . S
C721 H743 0.950 . S
C722 H718 0.979 . S
C722 C730 1.525 1_554 S
C722 C738 1.386 . S
H723 C731 0.950 . S
H724 C729 0.950 . S
H725 C730 0.949 . S
H726 C732 0.950 . S
H727 C733 0.950 . S
H728 C734 0.962 . S
C729 H724 0.950 . S
C729 C731 1.327 . S
C729 C735 1.429 . S
C730 C722 1.525 1_556 S
C730 H725 0.949 . S
C730 C736 1.368 . S
C731 C715 1.349 . S
C731 H723 0.950 . S
C731 C729 1.327 . S
C732 C720 1.349 . S
C732 H726 0.950 . S
C732 C733 1.327 . S
C733 H727 0.950 . S
C733 C732 1.327 . S
C733 C737 1.429 . S
C734 C717 1.549 1_554 S
C734 H728 0.962 . S
C734 C738 1.379 . S
C735 C716 1.429 . S
C735 C729 1.429 . S
C735 C736 1.523 . S
C736 C717 1.368 . S
C736 C730 1.368 . S
C736 C735 1.523 . S
C737 C721 1.429 . S
C737 C733 1.429 . S
C737 C738 1.523 . S
C738 C722 1.386 . S
C738 C734 1.379 . S
C738 C737 1.523 . S
H739 C714 0.950 . S
H740 C716 0.950 . S
H741 C717 0.949 . S
H742 C719 0.950 . S
H743 C721 0.950 . S
C744 C745 1.349 . S
C744 C746 1.327 . S
C744 H769 0.950 . S
C745 C744 1.349 . S
C745 C761 1.349 . S
C746 C744 1.327 . S
C746 C765 1.429 . S
C746 H770 0.950 . S
C747 C764 1.574 . S
C747 C766 1.368 . S
C747 H771 0.949 . S
H748 C752 0.949 . S
C749 C750 1.349 . S
C749 C751 1.327 . S
C749 H772 0.950 . S
C750 C749 1.349 . S
C750 C762 1.349 . S
C751 C749 1.327 . S
C751 C767 1.429 . S
C751 H773 0.950 . S
C752 H748 0.949 . S
C752 C760 1.574 . S
C752 C768 1.368 . S
H753 C761 0.950 . S
H754 C759 0.950 . S
H755 C760 0.949 . S
H756 C762 0.950 . S
H757 C763 0.950 . S
H758 C764 0.949 . S
C759 H754 0.950 . S
C759 C761 1.327 . S
C759 C765 1.429 . S
C760 C752 1.574 . S
C760 H755 0.949 . S
C760 C766 1.368 . S
C761 C745 1.349 . S
C761 H753 0.950 . S
C761 C759 1.327 . S
C762 C750 1.349 . S
C762 H756 0.950 . S
C762 C763 1.327 . S
C763 H757 0.950 . S
C763 C762 1.327 . S
C763 C767 1.429 . S
C764 C747 1.574 . S
C764 H758 0.949 . S
C764 C768 1.368 . S
C765 C746 1.429 . S
C765 C759 1.429 . S
C765 C766 1.523 . S
C766 C747 1.368 . S
C766 C760 1.368 . S
C766 C765 1.523 . S
C767 C751 1.429 . S
C767 C763 1.429 . S
C767 C768 1.523 . S
C768 C752 1.368 . S
C768 C764 1.368 . S
C768 C767 1.523 . S
H769 C744 0.950 . S
H770 C746 0.950 . S
H771 C747 0.949 . S
H772 C749 0.950 . S
H773 C751 0.950 . S
C235 C9 0.586 . S
C240 C226 0.636 . S
C265 C49 0.393 . S
C270 C188 0.512 . S
C295 C89 0.322 . S
C300 C207 0.466 . S
C325 C26 0.185 . S
C330 C221 0.256 . S
C360 C183 0.229 . S
C355 C66 0.201 . S
C390 C202 0.210 . S
C385 C106 0.257 . S
C415 C43 3.085 1_565 S
C420 C150 2.993 . S
C445 C83 2.979 . S
C450 C164 2.934 . S
C475 C22 3.030 . S
C480 C126 2.982 1_565 S
C510 C145 2.977 . S
C505 C62 3.024 . S
C540 C169 3.022 . S
C535 C102 3.115 . S
C565 C3 3.080 . S
C570 C131 2.991 . S
C600 C160 1.709 . S
C595 C15 1.704 . S
C625 C55 1.740 . S
C630 C122 1.737 . S
C655 C95 1.724 . S
C660 C141 1.731 . S
C690 C198 1.381 . S
C685 C42 1.348 . S
C720 C217 1.372 . S
C715 C82 1.351 . S
C745 C2 1.315 . S
C750 C179 1.342 . S
