# Generated by pormake.
# Topology dag, (6,3)-cn, num edge types: 1
# Building blocks:
#     Node 0, Type 0, BuildingBlock: IZENUY_clean_sbu_0, # of connection points: 6
#     Node 1, Type 0, BuildingBlock: IZENUY_clean_sbu_0, # of connection points: 6
#     Node 2, Type 0, BuildingBlock: IZENUY_clean_sbu_0, # of connection points: 6
#     Node 3, Type 0, BuildingBlock: IZENUY_clean_sbu_0, # of connection points: 6
#     Node 4, Type 1, BuildingBlock: PAMTOO_clean_linker_0, # of connection points: 3
#     Node 5, Type 1, BuildingBlock: PAMTOO_clean_linker_0, # of connection points: 3
#     Node 6, Type 1, BuildingBlock: PAMTOO_clean_linker_0, # of connection points: 3
#     Node 7, Type 1, BuildingBlock: PAMTOO_clean_linker_0, # of connection points: 3
#     Node 8, Type 1, BuildingBlock: PAMTOO_clean_linker_0, # of connection points: 3
#     Node 9, Type 1, BuildingBlock: PAMTOO_clean_linker_0, # of connection points: 3
#     Node 10, Type 1, BuildingBlock: PAMTOO_clean_linker_0, # of connection points: 3
#     Node 11, Type 1, BuildingBlock: PAMTOO_clean_linker_0, # of connection points: 3
#     Edge 12, Type (0, 1), BuildingBlock: ZUJKAS_clean_linker_0, # of connection points: 2
#     Edge 13, Type (0, 1), BuildingBlock: ZUJKAS_clean_linker_0, # of connection points: 2
#     Edge 14, Type (0, 1), BuildingBlock: ZUJKAS_clean_linker_0, # of connection points: 2
#     Edge 15, Type (0, 1), BuildingBlock: ZUJKAS_clean_linker_0, # of connection points: 2
#     Edge 16, Type (0, 1), BuildingBlock: ZUJKAS_clean_linker_0, # of connection points: 2
#     Edge 17, Type (0, 1), BuildingBlock: ZUJKAS_clean_linker_0, # of connection points: 2
#     Edge 18, Type (0, 1), BuildingBlock: ZUJKAS_clean_linker_0, # of connection points: 2
#     Edge 19, Type (0, 1), BuildingBlock: ZUJKAS_clean_linker_0, # of connection points: 2
#     Edge 20, Type (0, 1), BuildingBlock: ZUJKAS_clean_linker_0, # of connection points: 2
#     Edge 21, Type (0, 1), BuildingBlock: ZUJKAS_clean_linker_0, # of connection points: 2
#     Edge 22, Type (0, 1), BuildingBlock: ZUJKAS_clean_linker_0, # of connection points: 2
#     Edge 23, Type (0, 1), BuildingBlock: ZUJKAS_clean_linker_0, # of connection points: 2
#     Edge 24, Type (0, 1), BuildingBlock: ZUJKAS_clean_linker_0, # of connection points: 2
#     Edge 25, Type (0, 1), BuildingBlock: ZUJKAS_clean_linker_0, # of connection points: 2
#     Edge 26, Type (0, 1), BuildingBlock: ZUJKAS_clean_linker_0, # of connection points: 2
#     Edge 27, Type (0, 1), BuildingBlock: ZUJKAS_clean_linker_0, # of connection points: 2
#     Edge 28, Type (0, 1), BuildingBlock: ZUJKAS_clean_linker_0, # of connection points: 2
#     Edge 29, Type (0, 1), BuildingBlock: ZUJKAS_clean_linker_0, # of connection points: 2
#     Edge 30, Type (0, 1), BuildingBlock: ZUJKAS_clean_linker_0, # of connection points: 2
#     Edge 31, Type (0, 1), BuildingBlock: ZUJKAS_clean_linker_0, # of connection points: 2
#     Edge 32, Type (0, 1), BuildingBlock: ZUJKAS_clean_linker_0, # of connection points: 2
#     Edge 33, Type (0, 1), BuildingBlock: ZUJKAS_clean_linker_0, # of connection points: 2
#     Edge 34, Type (0, 1), BuildingBlock: ZUJKAS_clean_linker_0, # of connection points: 2
#     Edge 35, Type (0, 1), BuildingBlock: ZUJKAS_clean_linker_0, # of connection points: 2
# Relax obj value: 0.095
# Max RMSD: 0.105
# Mean RMSD: 0.084
data_MOF--net-dag--node1-IZENUY_clean_sbu_0--node2-PAMTOO_clean_linker_0--edge1-ZUJKAS_clean_linker_0
_symmetry_space_group_name_H-M    P1
_symmetry_Int_Tables_number       1
_symmetry_cell_setting            triclinic
loop_
_symmetry_equiv_pos_as_xyz
'x, y, z'
_cell_length_a     50.937666
_cell_length_b     52.263194
_cell_length_c     46.212141
_cell_angle_alpha  89.986119
_cell_angle_beta   94.327668
_cell_angle_gamma 90.094939
loop_
_atom_site_label
_atom_site_type_symbol
_atom_site_fract_x
_atom_site_fract_y
_atom_site_fract_z
_atom_type_partial_charge
Fe0 Fe 0.18048 0.85116 0.00791 0.0
Fe1 Fe 0.12337 0.86879 0.01006 0.0
O2 O 0.14627 0.84459 0.00345 0.0
Fe3 Fe 0.13481 0.81386 0.99231 0.0
O4 O 0.15169 0.79907 0.02387 0.0
O5 O 0.18959 0.81866 0.02031 0.0
O6 O 0.17875 0.85957 0.04583 0.0
C7 C 0.16377 0.87656 0.0547 0.0
C8 C 0.17818 0.82223 0.95853 0.0
O9 O 0.14442 0.88471 0.03852 0.0
C10 C 0.09975 0.8438 0.96039 0.0
O11 O 0.17732 0.88484 0.99631 0.0
O12 O 0.13537 0.88887 0.982 0.0
O13 O 0.16228 0.80728 0.9699 0.0
O14 O 0.18463 0.84328 0.97036 0.0
C15 C 0.10024 0.82813 0.03474 0.0
O16 O 0.09792 0.8574 0.98281 0.0
O17 O 0.11724 0.82679 0.9599 0.0
C18 C 0.1589 0.89629 0.98152 0.0
O19 O 0.11013 0.8501 0.03852 0.0
O20 O 0.10519 0.81484 0.01286 0.0
C21 C 0.17604 0.80104 0.03085 0.0
Fe22 Fe 0.67632 0.64995 0.49924 0.0
Fe23 Fe 0.63164 0.68875 0.48528 0.0
O24 O 0.64228 0.65723 0.49402 0.0
Fe25 Fe 0.61866 0.6329 0.49766 0.0
O26 O 0.63016 0.6278 0.53517 0.0
O27 O 0.67221 0.62564 0.5275 0.0
O28 O 0.68106 0.67304 0.52833 0.0
C29 C 0.67499 0.69638 0.52661 0.0
C30 C 0.65854 0.60738 0.46964 0.0
O31 O 0.65922 0.70455 0.50618 0.0
C32 C 0.59674 0.65747 0.44986 0.0
O33 O 0.68628 0.67299 0.47195 0.0
O34 O 0.64887 0.68861 0.45259 0.0
O35 O 0.63916 0.60698 0.48519 0.0
O36 O 0.6741 0.62618 0.4705 0.0
C37 C 0.5955 0.67567 0.52318 0.0
O38 O 0.60214 0.67858 0.46254 0.0
O39 O 0.60588 0.63676 0.46034 0.0
C40 C 0.673 0.68394 0.45118 0.0
O41 O 0.61356 0.691 0.51759 0.0
O42 O 0.59353 0.65412 0.51077 0.0
C43 C 0.65352 0.62214 0.54375 0.0
Fe44 Fe 0.86536 0.18521 0.0535 0.0
Fe45 Fe 0.87667 0.1297 0.03755 0.0
O46 O 0.85389 0.15449 0.04232 0.0
Fe47 Fe 0.81973 0.14843 0.03587 0.0
O48 O 0.81658 0.17275 0.00802 0.0
O49 O 0.83874 0.20267 0.03287 0.0
O50 O 0.88426 0.18862 0.02198 0.0
C51 C 0.90188 0.17317 0.0156 0.0
C52 C 0.82288 0.1802 0.0858 0.0
O53 O 0.90282 0.15084 0.02624 0.0
C54 C 0.83518 0.10415 0.06317 0.0
O55 O 0.89409 0.17317 0.07619 0.0
O56 O 0.889 0.1314 0.07522 0.0
O57 O 0.8099 0.17071 0.06389 0.0
O58 O 0.84732 0.18393 0.08569 0.0
C59 C 0.84224 0.12154 0.99046 0.0
O60 O 0.85487 0.10385 0.04802 0.0
O61 O 0.8206 0.1236 0.06339 0.0
C62 C 0.89872 0.15127 0.08728 0.0
O63 O 0.86563 0.12658 0.99957 0.0
O64 O 0.82347 0.12507 0.00657 0.0
C65 C 0.82332 0.19583 0.01142 0.0
Fe66 Fe 0.3794 0.36639 0.54405 0.0
Fe67 Fe 0.32228 0.34824 0.54476 0.0
O68 O 0.35646 0.34189 0.5499 0.0
Fe69 Fe 0.36783 0.31113 0.56097 0.0
O70 O 0.39739 0.32296 0.58222 0.0
O71 O 0.39293 0.36477 0.58142 0.0
O72 O 0.35844 0.39258 0.55507 0.0
C73 C 0.33922 0.39273 0.57087 0.0
C74 C 0.40322 0.32242 0.52153 0.0
O75 O 0.3244 0.37346 0.57191 0.0
C76 C 0.32416 0.30041 0.52104 0.0
O77 O 0.3672 0.36948 0.50637 0.0
O78 O 0.32535 0.37114 0.51489 0.0
O79 O 0.38556 0.30719 0.52857 0.0
O80 O 0.40468 0.34483 0.53191 0.0
C81 C 0.32684 0.3173 0.59528 0.0
O82 O 0.3178 0.32355 0.51731 0.0
O83 O 0.34025 0.29378 0.54194 0.0
C84 C 0.34362 0.37462 0.4981 0.0
O85 O 0.31316 0.3265 0.5737 0.0
O86 O 0.35108 0.31305 0.594 0.0
C87 C 0.4026 0.34478 0.59322 0.0
H88 H 0.12909 0.06446 0.23548 0.0
H89 H 0.13803 0.12528 0.29829 0.0
H90 H 0.20178 0.07303 0.28835 0.0
H91 H 0.19949 0.08829 0.34794 0.0
C92 C 0.18833 0.1065 0.34509 0.0
O93 O 0.18645 0.11337 0.31618 0.0
H94 H 0.16823 0.1036 0.35251 0.0
C95 C 0.14083 0.07439 0.25254 0.0
C96 C 0.16659 0.0661 0.26028 0.0
C97 C 0.13022 0.09562 0.26611 0.0
C98 C 0.14575 0.10868 0.28775 0.0
C99 C 0.1714 0.10033 0.2959 0.0
C100 C 0.18178 0.07906 0.28224 0.0
H101 H 0.38067 0.63596 0.66637 0.0
H102 H 0.31528 0.64649 0.71899 0.0
H103 H 0.36998 0.70786 0.70934 0.0
H104 H 0.35614 0.70014 0.76745 0.0
C105 C 0.33546 0.69328 0.76358 0.0
O106 O 0.32813 0.69331 0.73426 0.0
H107 H 0.33457 0.67345 0.7723 0.0
C108 C 0.36974 0.64786 0.68044 0.0
C109 C 0.37824 0.67302 0.68647 0.0
C110 C 0.34701 0.63804 0.6919 0.0
C111 C 0.33259 0.65381 0.70946 0.0
C112 C 0.34102 0.67886 0.71576 0.0
C113 C 0.36353 0.68855 0.70397 0.0
H114 H 0.86191 0.85962 0.14807 0.0
H115 H 0.79639 0.84593 0.19971 0.0
H116 H 0.85209 0.78598 0.18741 0.0
H117 H 0.79922 0.76694 0.18702 0.0
C118 C 0.79011 0.78171 0.20041 0.0
O119 O 0.80917 0.79839 0.21176 0.0
H120 H 0.77512 0.79222 0.18622 0.0
C121 C 0.85081 0.84689 0.16112 0.0
C122 C 0.85952 0.82169 0.16587 0.0
C123 C 0.82827 0.85601 0.17345 0.0
C124 C 0.81384 0.83929 0.18998 0.0
C125 C 0.82248 0.81408 0.1949 0.0
C126 C 0.84546 0.80542 0.18322 0.0
H127 H 0.61893 0.44016 0.75042 0.0
H128 H 0.64289 0.37465 0.8023 0.0
H129 H 0.69676 0.43691 0.79331 0.0
H130 H 0.72414 0.38869 0.79502 0.0
C131 C 0.70866 0.37642 0.80364 0.0
O132 O 0.6905 0.39165 0.81608 0.0
H133 H 0.69908 0.36537 0.7851 0.0
C134 C 0.63332 0.4306 0.76514 0.0
C135 C 0.6582 0.44183 0.77108 0.0
C136 C 0.62743 0.4064 0.7762 0.0
C137 C 0.64686 0.39342 0.79367 0.0
C138 C 0.67173 0.40452 0.79986 0.0
C139 C 0.67736 0.42868 0.78867 0.0
H140 H 0.62212 0.35673 0.38961 0.0
H141 H 0.63453 0.28567 0.3458 0.0
H142 H 0.68659 0.34901 0.33501 0.0
H143 H 0.6682 0.32258 0.28245 0.0
C144 C 0.66757 0.30256 0.29057 0.0
O145 O 0.67525 0.30189 0.31983 0.0
H146 H 0.64695 0.29544 0.28703 0.0
C147 C 0.63333 0.34538 0.37527 0.0
C148 C 0.65532 0.35618 0.3632 0.0
C149 C 0.62558 0.32004 0.36912 0.0
C150 C 0.64049 0.30511 0.35124 0.0
C151 C 0.66238 0.31566 0.33898 0.0
C152 C 0.66996 0.34099 0.34519 0.0
H153 H 0.12859 0.14884 0.89688 0.0
H154 H 0.14002 0.21815 0.84898 0.0
H155 H 0.19903 0.15929 0.85242 0.0
H156 H 0.21862 0.21349 0.85926 0.0
C157 C 0.20377 0.22282 0.84381 0.0
O158 O 0.18607 0.20486 0.83237 0.0
H159 H 0.19331 0.23761 0.85587 0.0
C160 C 0.1405 0.16052 0.88351 0.0
C161 C 0.1649 0.1513 0.87603 0.0
C162 C 0.13118 0.18449 0.87369 0.0
C163 C 0.14688 0.19958 0.85675 0.0
C164 C 0.17135 0.1905 0.84923 0.0
C165 C 0.18022 0.16627 0.85856 0.0
H166 H 0.37907 0.5627 0.3 0.0
H167 H 0.35801 0.62378 0.24026 0.0
H168 H 0.30387 0.56206 0.25079 0.0
H169 H 0.30062 0.58118 0.19042 0.0
C170 C 0.3107 0.59984 0.19468 0.0
O171 O 0.31157 0.60522 0.22394 0.0
H172 H 0.33098 0.59821 0.18735 0.0
C173 C 0.3654 0.57109 0.28355 0.0
C174 C 0.341 0.55916 0.27664 0.0
C175 C 0.37185 0.59439 0.27067 0.0
C176 C 0.35347 0.60582 0.2505 0.0
C177 C 0.32913 0.59403 0.24329 0.0
C178 C 0.32283 0.57088 0.25646 0.0
H179 H 0.88785 0.93293 0.79375 0.0
H180 H 0.86502 0.86644 0.74336 0.0
H181 H 0.81059 0.92855 0.74883 0.0
H182 H 0.78404 0.87983 0.74846 0.0
C183 C 0.7993 0.86767 0.73931 0.0
O184 O 0.81763 0.88307 0.72731 0.0
H185 H 0.80883 0.85606 0.75739 0.0
C186 C 0.87349 0.92322 0.7791 0.0
C187 C 0.84852 0.93412 0.77254 0.0
C188 C 0.8796 0.89896 0.7686 0.0
C189 C 0.86067 0.88541 0.75116 0.0
C190 C 0.83592 0.89626 0.74392 0.0
C191 C 0.82992 0.92057 0.75442 0.0
H192 H 0.21063 0.87596 0.0885 0.0
H193 H 0.22178 0.90091 0.13282 0.0
H194 H 0.14289 0.93126 0.12824 0.0
H195 H 0.13163 0.90657 0.0844 0.0
H196 H 0.21958 0.95443 0.13588 0.0
H197 H 0.15538 0.91131 0.21374 0.0
H198 H 0.16376 0.89494 0.18124 0.0
H199 H 0.13741 0.91795 0.1797 0.0
C200 C 0.19557 0.88763 0.09726 0.0
C201 C 0.17029 0.88941 0.08286 0.0
C202 C 0.20197 0.90184 0.12254 0.0
C203 C 0.18304 0.91761 0.13403 0.0
C204 C 0.15764 0.91879 0.12012 0.0
H205 H 0.16662 0.06002 0.20204 0.0
H206 H 0.17849 0.02183 0.17569 0.0
C207 C 0.15131 0.90484 0.09486 0.0
C208 C 0.19004 0.93501 0.15872 0.0
H209 H 0.16625 0.95637 0.22134 0.0
C210 C 0.20849 0.95448 0.15501 0.0
C211 C 0.17595 0.93482 0.18393 0.0
C212 C 0.15723 0.91344 0.19005 0.0
C213 C 0.21129 0.9751 0.17445 0.0
C214 C 0.19501 0.97634 0.19787 0.0
C215 C 0.17849 0.9556 0.20315 0.0
C216 C 0.19165 0.00038 0.21416 0.0
C217 C 0.23076 0.99599 0.16894 0.0
C218 C 0.19506 0.00102 0.24461 0.0
C219 C 0.18819 0.02294 0.25977 0.0
C220 C 0.17737 0.04424 0.24465 0.0
C221 C 0.17481 0.04379 0.21419 0.0
C222 C 0.18185 0.02208 0.19912 0.0
H223 H 0.24761 0.98834 0.1577 0.0
H224 H 0.2209 0.01073 0.15467 0.0
H225 H 0.2384 0.0053 0.18948 0.0
H226 H 0.2023 0.98435 0.25661 0.0
H227 H 0.19016 0.02281 0.28327 0.0
H228 H 0.55029 0.65009 0.53211 0.0
H229 H 0.51541 0.66273 0.56218 0.0
H230 H 0.55781 0.73174 0.58696 0.0
H231 H 0.59329 0.7192 0.55657 0.0
H232 H 0.53776 0.70243 0.63418 0.0
H233 H 0.46096 0.72091 0.54563 0.0
H234 H 0.47766 0.69114 0.54099 0.0
H235 H 0.4957 0.72073 0.53998 0.0
C236 C 0.55231 0.66804 0.54379 0.0
C237 C 0.57457 0.68371 0.54178 0.0
C238 C 0.53221 0.6753 0.56084 0.0
C239 C 0.53383 0.69837 0.5763 0.0
C240 C 0.55613 0.71399 0.57485 0.0
H241 H 0.3865 0.71923 0.66053 0.0
H242 H 0.42604 0.73309 0.63751 0.0
C243 C 0.57632 0.7068 0.55752 0.0
C244 C 0.51243 0.70505 0.59481 0.0
H245 H 0.4455 0.7087 0.59195 0.0
C246 C 0.51763 0.70451 0.62504 0.0
C247 C 0.48628 0.70827 0.58285 0.0
C248 C 0.47982 0.71058 0.55056 0.0
C249 C 0.497 0.70471 0.64355 0.0
C250 C 0.47066 0.70506 0.63138 0.0
C251 C 0.46567 0.70808 0.60129 0.0
C252 C 0.44821 0.69873 0.64868 0.0
C253 C 0.50359 0.70349 0.67588 0.0
C254 C 0.44762 0.67491 0.66263 0.0
C255 C 0.42518 0.66699 0.67566 0.0
C256 C 0.40274 0.68264 0.67482 0.0
C257 C 0.40358 0.70686 0.66165 0.0
C258 C 0.4261 0.71477 0.64849 0.0
H259 H 0.52286 0.71276 0.68196 0.0
H260 H 0.4882 0.71288 0.68795 0.0
H261 H 0.50511 0.68316 0.68273 0.0
H262 H 0.46417 0.66193 0.66245 0.0
H263 H 0.42521 0.64835 0.68592 0.0
H264 H 0.79309 0.09599 0.09614 0.0
H265 H 0.78104 0.05588 0.11956 0.0
H266 H 0.84859 0.01882 0.08745 0.0
H267 H 0.86071 0.05839 0.06404 0.0
H268 H 0.79838 0.99208 0.07733 0.0
H269 H 0.82187 0.02167 0.1923 0.0
H270 H 0.80121 0.04205 0.16885 0.0
H271 H 0.83529 0.03837 0.16253 0.0
C272 C 0.8054 0.0793 0.09415 0.0
C273 C 0.82785 0.08041 0.07815 0.0
C274 C 0.79851 0.05647 0.10759 0.0
C275 C 0.81399 0.03449 0.10523 0.0
C276 C 0.83637 0.0356 0.08942 0.0
H277 H 0.86003 0.89764 0.18038 0.0
H278 H 0.84962 0.94177 0.1668 0.0
C279 C 0.84329 0.05829 0.0761 0.0
C280 C 0.8072 0.00997 0.11883 0.0
H281 H 0.81262 0.97823 0.18353 0.0
C282 C 0.80086 0.98905 0.1006 0.0
C283 C 0.81056 0.00626 0.14916 0.0
C284 C 0.8177 0.02816 0.16952 0.0
C285 C 0.7994 0.96417 0.11174 0.0
C286 C 0.80408 0.96023 0.14198 0.0
C287 C 0.80886 0.98138 0.16039 0.0
C288 C 0.80858 0.93423 0.15408 0.0
C289 C 0.79482 0.94211 0.09086 0.0
C290 C 0.78871 0.91549 0.15231 0.0
C291 C 0.7947 0.89008 0.15991 0.0
C292 C 0.82063 0.88319 0.16928 0.0
C293 C 0.84 0.90234 0.17269 0.0
C294 C 0.83402 0.92759 0.16518 0.0
H295 H 0.79503 0.94825 0.06786 0.0
H296 H 0.81012 0.92719 0.09519 0.0
H297 H 0.77538 0.93331 0.09385 0.0
H298 H 0.76886 0.92033 0.14413 0.0
H299 H 0.77941 0.87567 0.15717 0.0
H300 H 0.41795 0.38799 0.62353 0.0
H301 H 0.45386 0.39216 0.66152 0.0
H302 H 0.46908 0.31125 0.65663 0.0
H303 H 0.43324 0.30677 0.61865 0.0
H304 H 0.46374 0.36276 0.7182 0.0
H305 H 0.53914 0.34998 0.63806 0.0
H306 H 0.50567 0.35915 0.62723 0.0
H307 H 0.51297 0.3268 0.63797 0.0
C308 C 0.42878 0.37102 0.63066 0.0
C309 C 0.42289 0.34709 0.6178 0.0
C310 C 0.4492 0.37344 0.65244 0.0
C311 C 0.46416 0.35204 0.66162 0.0
C312 C 0.45782 0.32799 0.64962 0.0
H313 H 0.61789 0.35697 0.75861 0.0
H314 H 0.57672 0.33957 0.73585 0.0
C315 C 0.43732 0.32551 0.62794 0.0
C316 C 0.48739 0.35526 0.68249 0.0
H317 H 0.55443 0.35795 0.68629 0.0
C318 C 0.48361 0.36151 0.71139 0.0
C319 C 0.51321 0.35338 0.67347 0.0
C320 C 0.51821 0.3471 0.64248 0.0
C321 C 0.50511 0.36636 0.73151 0.0
C322 C 0.53095 0.36555 0.7222 0.0
C323 C 0.53465 0.35847 0.69348 0.0
C324 C 0.5543 0.37424 0.7408 0.0
C325 C 0.4999 0.37231 0.76249 0.0
C326 C 0.55521 0.39926 0.75184 0.0
C327 C 0.57858 0.40911 0.76513 0.0
C328 C 0.60167 0.3943 0.76725 0.0
C329 C 0.6004 0.36879 0.75756 0.0
C330 C 0.57693 0.35888 0.74438 0.0
H331 H 0.48133 0.36319 0.76845 0.0
H332 H 0.51629 0.36574 0.7779 0.0
H333 H 0.49768 0.3933 0.76496 0.0
H334 H 0.53825 0.4117 0.74881 0.0
H335 H 0.57886 0.42875 0.77265 0.0
H336 H 0.70585 0.5916 0.45079 0.0
H337 H 0.71464 0.55122 0.42589 0.0
H338 H 0.6325 0.53111 0.42527 0.0
H339 H 0.62361 0.57091 0.45031 0.0
H340 H 0.69747 0.4986 0.4507 0.0
H341 H 0.65705 0.52126 0.33871 0.0
H342 H 0.66983 0.5455 0.36396 0.0
H343 H 0.63773 0.5321 0.36735 0.0
C344 C 0.68966 0.57867 0.44502 0.0
C345 C 0.66406 0.58432 0.45263 0.0
C346 C 0.69472 0.55566 0.43088 0.0
C347 C 0.67416 0.53839 0.42365 0.0
C348 C 0.64855 0.54435 0.4305 0.0
H349 H 0.62143 0.39645 0.36415 0.0
H350 H 0.63159 0.44081 0.37656 0.0
C351 C 0.64356 0.56703 0.44493 0.0
C352 C 0.67914 0.5132 0.41065 0.0
H353 H 0.66114 0.47699 0.35107 0.0
C354 C 0.6902 0.49386 0.42868 0.0
C355 C 0.6695 0.50727 0.38201 0.0
C356 C 0.65802 0.52763 0.36171 0.0
C357 C 0.69001 0.46822 0.41951 0.0
C358 C 0.67898 0.46203 0.39132 0.0
C359 C 0.66955 0.48174 0.37267 0.0
C360 C 0.67375 0.43517 0.3822 0.0
C361 C 0.69982 0.44784 0.4408 0.0
C362 C 0.69414 0.41726 0.38075 0.0
C363 C 0.68832 0.39161 0.37408 0.0
C364 C 0.66203 0.38355 0.36862 0.0
C365 C 0.64184 0.40184 0.36896 0.0
C366 C 0.64763 0.4273 0.37575 0.0
H367 H 0.70331 0.45543 0.46322 0.0
H368 H 0.68549 0.43182 0.44105 0.0
H369 H 0.71869 0.44004 0.43414 0.0
H370 H 0.71448 0.42302 0.3851 0.0
H371 H 0.70432 0.37801 0.37392 0.0
H372 H 0.94696 0.14759 0.00608 0.0
H373 H 0.98334 0.16204 0.97891 0.0
H374 H 0.94269 0.2328 0.95849 0.0
H375 H 0.90585 0.21852 0.98596 0.0
H376 H 0.96557 0.20504 0.90967 0.0
H377 H 0.03637 0.22106 0.00498 0.0
H378 H 0.01906 0.19113 0.00607 0.0
H379 H 0.00111 0.22065 0.00746 0.0
C380 C 0.94563 0.16625 0.99588 0.0
C381 C 0.92352 0.18196 0.99835 0.0
C382 C 0.96653 0.17452 0.98048 0.0
C383 C 0.96581 0.19861 0.96713 0.0
C384 C 0.94363 0.21423 0.96892 0.0
H385 H 0.11823 0.23027 0.89757 0.0
H386 H 0.07591 0.24164 0.91646 0.0
C387 C 0.92267 0.20603 0.9846 0.0
C388 C 0.98827 0.20673 0.95087 0.0
H389 H 0.05496 0.2134 0.95942 0.0
C390 C 0.98506 0.20753 0.92048 0.0
C391 C 0.01353 0.21043 0.96507 0.0
C392 C 0.01777 0.21104 0.99773 0.0
C393 C 0.00692 0.20972 0.90386 0.0
C394 C 0.03247 0.21083 0.9181 0.0
C395 C 0.03538 0.21234 0.94849 0.0
C396 C 0.0564 0.20646 0.90248 0.0
C397 C 0.00255 0.20975 0.87123 0.0
C398 C 0.0593 0.18309 0.88815 0.0
C399 C 0.08331 0.17655 0.8776 0.0
C400 C 0.10494 0.19323 0.88125 0.0
C401 C 0.10176 0.21717 0.89436 0.0
C402 C 0.07768 0.22365 0.90515 0.0
H403 H 0.98305 0.21804 0.86407 0.0
H404 H 0.01814 0.22074 0.86112 0.0
H405 H 0.00286 0.18975 0.8632 0.0
H406 H 0.04338 0.16927 0.88643 0.0
H407 H 0.08524 0.15804 0.86743 0.0
H408 H 0.3779 0.3865 0.4572 0.0
H409 H 0.36943 0.41323 0.41413 0.0
H410 H 0.2881 0.42059 0.43262 0.0
H411 H 0.29634 0.39401 0.47594 0.0
H412 H 0.33101 0.40919 0.36399 0.0
H413 H 0.31724 0.49507 0.43261 0.0
H414 H 0.3322 0.46606 0.44715 0.0
H415 H 0.29722 0.46758 0.43909 0.0
C416 C 0.35813 0.39358 0.45203 0.0
C417 C 0.33789 0.38839 0.4703 0.0
C418 C 0.35332 0.40878 0.42733 0.0
C419 C 0.32824 0.41913 0.42047 0.0
C420 C 0.30768 0.41304 0.43781 0.0
H421 H 0.29506 0.54682 0.30066 0.0
H422 H 0.28707 0.50997 0.33164 0.0
C423 C 0.31244 0.39779 0.46252 0.0
C424 C 0.32424 0.43762 0.39628 0.0
H425 H 0.31539 0.50124 0.38231 0.0
C426 C 0.32731 0.42928 0.36788 0.0
C427 C 0.31927 0.46377 0.40148 0.0
C428 C 0.31644 0.47383 0.43171 0.0
C429 C 0.32611 0.44657 0.34454 0.0
C430 C 0.32232 0.47292 0.34993 0.0
C431 C 0.31821 0.48104 0.37819 0.0
C432 C 0.32522 0.49277 0.32744 0.0
C433 C 0.3291 0.43647 0.3144 0.0
C434 C 0.34911 0.4951 0.3144 0.0
C435 C 0.35363 0.51597 0.29661 0.0
C436 C 0.33448 0.53516 0.29176 0.0
C437 C 0.3101 0.53225 0.30378 0.0
C438 C 0.30557 0.51128 0.32159 0.0
H439 H 0.32242 0.41626 0.31231 0.0
H440 H 0.31778 0.44813 0.2977 0.0
H441 H 0.3502 0.43706 0.30997 0.0
H442 H 0.3648 0.48141 0.31907 0.0
H443 H 0.37252 0.51756 0.28743 0.0
H444 H 0.10095 0.82497 0.90496 0.0
H445 H 0.06801 0.83155 0.86402 0.0
H446 H 0.02009 0.87465 0.91964 0.0
H447 H 0.05294 0.86885 0.96011 0.0
H448 H 0.01631 0.81859 0.8553 0.0
H449 H 0.02583 0.92373 0.85333 0.0
H450 H 0.04924 0.90365 0.87386 0.0
H451 H 0.01898 0.91294 0.88879 0.0
C452 C 0.08339 0.83588 0.90839 0.0
C453 C 0.0797 0.84663 0.9357 0.0
C454 C 0.06461 0.83962 0.885 0.0
C455 C 0.0419 0.85412 0.88861 0.0
C456 C 0.03784 0.86409 0.9161 0.0
H457 H 0.88824 0.85835 0.80447 0.0
H458 H 0.93043 0.84491 0.82843 0.0
C459 C 0.05662 0.86061 0.93929 0.0
C460 C 0.02205 0.85879 0.86401 0.0
H461 H 0.98522 0.90646 0.83124 0.0
C462 C 0.00977 0.8378 0.84962 0.0
C463 C 0.01401 0.88386 0.85599 0.0
C464 C 0.02794 0.9073 0.8686 0.0
C465 C 0.98851 0.84122 0.82875 0.0
C466 C 0.97884 0.86622 0.82281 0.0
C467 C 0.99226 0.88721 0.83595 0.0
C468 C 0.9539 0.87126 0.80486 0.0
C469 C 0.97666 0.81796 0.81347 0.0
C470 C 0.95283 0.89064 0.78369 0.0
C471 C 0.92863 0.89879 0.77065 0.0
C472 C 0.90516 0.88735 0.77814 0.0
C473 C 0.90622 0.86706 0.79803 0.0
C474 C 0.93036 0.85927 0.81155 0.0
H475 H 0.99174 0.80285 0.81146 0.0
H476 H 0.96116 0.80987 0.82643 0.0
H477 H 0.96775 0.82271 0.79146 0.0
H478 H 0.97063 0.90028 0.7782 0.0
H479 H 0.92814 0.91465 0.75551 0.0
H480 H 0.87679 0.11366 0.94886 0.0
H481 H 0.87036 0.08692 0.90558 0.0
H482 H 0.79056 0.07126 0.92547 0.0
H483 H 0.79678 0.09795 0.96897 0.0
H484 H 0.82182 0.02754 0.91783 0.0
H485 H 0.82789 0.09555 0.8265 0.0
H486 H 0.85403 0.0989 0.85459 0.0
H487 H 0.82071 0.10561 0.86247 0.0
C488 C 0.85772 0.10487 0.94383 0.0
C489 C 0.83736 0.1078 0.96252 0.0
C490 C 0.85401 0.08977 0.91893 0.0
C491 C 0.82989 0.07736 0.91216 0.0
C492 C 0.80925 0.08086 0.93022 0.0
H493 H 0.80193 0.94636 0.79526 0.0
H494 H 0.79308 0.98321 0.82555 0.0
C495 C 0.81287 0.09611 0.95507 0.0
C496 C 0.82737 0.05849 0.88821 0.0
H497 H 0.83367 0.05117 0.81565 0.0
C498 C 0.82394 0.0327 0.89538 0.0
C499 C 0.83034 0.06535 0.85905 0.0
C500 C 0.83322 0.09289 0.85006 0.0
C501 C 0.82469 0.01337 0.87443 0.0
C502 C 0.82825 0.02013 0.84529 0.0
C503 C 0.83085 0.04604 0.83794 0.0
C504 C 0.83151 0.00036 0.82282 0.0
C505 C 0.82314 0.98582 0.88406 0.0
C506 C 0.85537 0.99871 0.80965 0.0
C507 C 0.86029 0.97797 0.7918 0.0
C508 C 0.84148 0.95838 0.7869 0.0
C509 C 0.81686 0.96107 0.79849 0.0
C510 C 0.81187 0.98197 0.81614 0.0
H511 H 0.82658 0.98383 0.90798 0.0
H512 H 0.80323 0.97816 0.87759 0.0
H513 H 0.83781 0.97388 0.87368 0.0
H514 H 0.8707 0.01284 0.81426 0.0
H515 H 0.87922 0.97681 0.78267 0.0
H516 H 0.40764 0.276 0.49388 0.0
H517 H 0.44436 0.26154 0.46629 0.0
H518 H 0.4835 0.3339 0.48244 0.0
H519 H 0.44736 0.34849 0.5096 0.0
H520 H 0.46531 0.28754 0.41578 0.0
H521 H 0.53914 0.27826 0.50931 0.0
H522 H 0.50407 0.27759 0.51311 0.0
H523 H 0.52092 0.30762 0.50985 0.0
C524 C 0.42411 0.28878 0.49154 0.0
C525 C 0.4246 0.31336 0.50409 0.0
C526 C 0.44502 0.28048 0.47585 0.0
C527 C 0.46679 0.29651 0.47288 0.0
C528 C 0.46709 0.32107 0.48501 0.0
H529 H 0.57777 0.34302 0.36674 0.0
H530 H 0.53842 0.32892 0.38916 0.0
C531 C 0.44628 0.32942 0.5004 0.0
C532 C 0.4891 0.28857 0.45631 0.0
H533 H 0.55618 0.28696 0.46279 0.0
C534 C 0.48516 0.28664 0.42604 0.0
C535 C 0.51489 0.28693 0.46979 0.0
C536 C 0.52004 0.28744 0.50235 0.0
C537 C 0.50663 0.28565 0.40872 0.0
C538 C 0.5325 0.28697 0.42212 0.0
C539 C 0.53634 0.28626 0.45249 0.0
C540 C 0.55538 0.29329 0.40548 0.0
C541 C 0.50141 0.28447 0.3762 0.0
C542 C 0.57814 0.27805 0.40741 0.0
C543 C 0.60082 0.28621 0.39468 0.0
C544 C 0.60114 0.30993 0.38037 0.0
C545 C 0.57812 0.32477 0.37788 0.0
C546 C 0.55552 0.31656 0.39034 0.0
H547 H 0.48261 0.27437 0.37003 0.0
H548 H 0.49968 0.30423 0.36744 0.0
H549 H 0.51762 0.27463 0.36591 0.0
H550 H 0.57853 0.26019 0.41934 0.0
H551 H 0.61838 0.27449 0.39699 0.0
H552 H 0.20315 0.9262 0.9888 0.0
H553 H 0.20953 0.96903 0.96901 0.0
H554 H 0.13371 0.96425 0.92104 0.0
H555 H 0.12685 0.92177 0.94123 0.0
H556 H 0.20989 0.98975 0.91367 0.0
H557 H 0.12639 0.02736 0.97116 0.0
H558 H 0.14019 0.99605 0.97841 0.0
H559 H 0.11728 0.00117 0.94738 0.0
C560 C 0.18793 0.93416 0.97382 0.0
C561 C 0.16429 0.92077 0.96697 0.0
C562 C 0.19164 0.95862 0.9625 0.0
C563 C 0.17184 0.97002 0.94408 0.0
C564 C 0.14895 0.95605 0.93581 0.0
H565 H 0.17525 0.10981 0.84312 0.0
H566 H 0.18083 0.0655 0.85996 0.0
C567 C 0.1451 0.93175 0.94731 0.0
C568 C 0.1744 0.99701 0.93483 0.0
H569 H 0.14426 0.05508 0.93712 0.0
C570 C 0.19566 0.00413 0.91888 0.0
C571 C 0.15609 0.0158 0.94217 0.0
C572 C 0.13386 0.00982 0.96097 0.0
C573 C 0.19873 0.02949 0.90949 0.0
C574 C 0.17974 0.04801 0.91579 0.0
C575 C 0.15878 0.04089 0.93217 0.0
C576 C 0.18072 0.07492 0.90562 0.0
C577 C 0.22245 0.03623 0.89337 0.0
C578 C 0.17894 0.09498 0.9256 0.0
C579 C 0.17523 0.12011 0.91596 0.0
C580 C 0.17356 0.12567 0.88618 0.0
C581 C 0.17686 0.10592 0.86622 0.0
C582 C 0.18016 0.08066 0.87585 0.0
H583 H 0.23882 0.0225 0.89827 0.0
H584 H 0.21699 0.03541 0.86968 0.0
H585 H 0.22963 0.05584 0.89887 0.0
H586 H 0.1793 0.09105 0.94865 0.0
H587 H 0.17268 0.13509 0.9317 0.0
H588 H 0.56654 0.69685 0.42647 0.0
H589 H 0.53055 0.69407 0.38834 0.0
H590 H 0.54529 0.61339 0.37905 0.0
H591 H 0.58135 0.61592 0.41687 0.0
H592 H 0.53482 0.64156 0.32491 0.0
H593 H 0.46031 0.65811 0.40523 0.0
H594 H 0.48623 0.68139 0.40387 0.0
H595 H 0.4939 0.6495 0.41614 0.0
C596 C 0.56232 0.67856 0.41612 0.0
C597 C 0.57662 0.65653 0.42501 0.0
C598 C 0.54171 0.67702 0.3944 0.0
C599 C 0.5351 0.65347 0.38121 0.0
C600 C 0.55007 0.63173 0.38906 0.0
H601 H 0.42032 0.57221 0.27805 0.0
H602 H 0.4607 0.59108 0.30042 0.0
C603 C 0.57061 0.63321 0.41078 0.0
C604 C 0.51163 0.65087 0.36052 0.0
H605 H 0.44455 0.64869 0.35754 0.0
C606 C 0.51505 0.64344 0.33187 0.0
C607 C 0.48591 0.65349 0.36968 0.0
C608 C 0.48117 0.6609 0.40042 0.0
C609 C 0.49336 0.6378 0.31233 0.0
C610 C 0.46767 0.63912 0.32195 0.0
C611 C 0.46425 0.64773 0.35019 0.0
C612 C 0.44433 0.62901 0.30447 0.0
C613 C 0.4982 0.63018 0.28171 0.0
C614 C 0.4216 0.64401 0.29929 0.0
C615 C 0.3983 0.63313 0.28683 0.0
C616 C 0.39731 0.60699 0.27962 0.0
C617 C 0.42042 0.59234 0.28363 0.0
C618 C 0.44363 0.6032 0.29607 0.0
H619 H 0.5167 0.63883 0.2749 0.0
H620 H 0.50031 0.60908 0.28064 0.0
H621 H 0.48165 0.63603 0.26611 0.0
H622 H 0.42165 0.66391 0.30586 0.0
H623 H 0.38075 0.64484 0.28424 0.0
H624 H 0.30206 0.40054 0.61027 0.0
H625 H 0.29242 0.4408 0.63485 0.0
H626 H 0.35257 0.47901 0.59009 0.0
H627 H 0.36229 0.43934 0.56561 0.0
H628 H 0.32877 0.47154 0.67092 0.0
H629 H 0.28707 0.52517 0.57503 0.0
H630 H 0.28941 0.49067 0.57564 0.0
H631 H 0.31763 0.50986 0.56871 0.0
C632 C 0.31309 0.41758 0.60555 0.0
C633 C 0.33287 0.41673 0.58587 0.0
C634 C 0.30756 0.44051 0.6196 0.0
C635 C 0.32147 0.46292 0.61384 0.0
C636 C 0.34123 0.46204 0.59436 0.0
H637 H 0.37816 0.59571 0.69418 0.0
H638 H 0.36605 0.55225 0.67921 0.0
C639 C 0.34688 0.43925 0.58052 0.0
C640 C 0.31661 0.48722 0.62894 0.0
H641 H 0.30549 0.55056 0.6153 0.0
C642 C 0.32307 0.48875 0.65894 0.0
C643 C 0.30873 0.50955 0.61337 0.0
C644 C 0.30005 0.50874 0.58144 0.0
C645 C 0.32394 0.51244 0.67332 0.0
C646 C 0.31854 0.53506 0.65714 0.0
C647 C 0.30994 0.53325 0.62764 0.0
C648 C 0.32477 0.56078 0.66932 0.0
C649 C 0.33149 0.5131 0.7055 0.0
C650 C 0.30562 0.58013 0.66848 0.0
C651 C 0.31258 0.60514 0.67682 0.0
C652 C 0.33887 0.61122 0.68568 0.0
C653 C 0.3578 0.59164 0.68718 0.0
C654 C 0.35083 0.56671 0.679 0.0
H655 H 0.32593 0.49499 0.71609 0.0
H656 H 0.35316 0.51532 0.70913 0.0
H657 H 0.32198 0.52935 0.71609 0.0
H658 H 0.28546 0.57598 0.66076 0.0
H659 H 0.29764 0.6199 0.67527 0.0
H660 H 0.09088 0.84626 0.08828 0.0
H661 H 0.05284 0.83726 0.11583 0.0
H662 H 0.02356 0.78376 0.04996 0.0
H663 H 0.06197 0.79206 0.02273 0.0
H664 H 0.00447 0.84876 0.09578 0.0
H665 H 0.00774 0.7455 0.12234 0.0
H666 H 0.03586 0.76259 0.11049 0.0
H667 H 0.01039 0.75136 0.08442 0.0
C668 C 0.07662 0.83216 0.07998 0.0
C669 C 0.0793 0.82002 0.05323 0.0
C670 C 0.05494 0.82699 0.09577 0.0
C671 C 0.03543 0.80969 0.08509 0.0
C672 C 0.03863 0.79671 0.059 0.0
H673 H 0.87145 0.8255 0.10975 0.0
H674 H 0.9145 0.81906 0.09076 0.0
C675 C 0.06052 0.80164 0.04333 0.0
C676 C 0.01025 0.80799 0.09911 0.0
H677 H 0.96588 0.76641 0.12526 0.0
C678 C 0.99625 0.83075 0.10253 0.0
C679 C 0.99954 0.78453 0.10808 0.0
C680 C 0.0143 0.75965 0.10643 0.0
C681 C 0.97158 0.83068 0.11394 0.0
C682 C 0.96025 0.80712 0.12147 0.0
C683 C 0.9745 0.78437 0.11899 0.0
C684 C 0.93345 0.80616 0.13164 0.0
C685 C 0.95783 0.8559 0.1178 0.0
C686 C 0.9296 0.79963 0.16047 0.0
C687 C 0.90492 0.80309 0.17131 0.0
C688 C 0.88395 0.81323 0.15341 0.0
C689 C 0.88744 0.81798 0.12404 0.0
C690 C 0.91196 0.81432 0.1132 0.0
H691 H 0.97181 0.87226 0.11819 0.0
H692 H 0.94287 0.85884 0.09938 0.0
H693 H 0.94763 0.85608 0.1382 0.0
H694 H 0.94599 0.79323 0.17497 0.0
H695 H 0.90268 0.79936 0.19405 0.0
H696 H 0.69718 0.59455 0.563 0.0
H697 H 0.70261 0.56798 0.60677 0.0
H698 H 0.62663 0.59248 0.63139 0.0
H699 H 0.62077 0.61858 0.58758 0.0
H700 H 0.70108 0.57754 0.66724 0.0
H701 H 0.61922 0.51467 0.62449 0.0
H702 H 0.63432 0.53801 0.60222 0.0
H703 H 0.61017 0.54776 0.62645 0.0
C704 C 0.68174 0.59446 0.57788 0.0
C705 C 0.65833 0.60829 0.57156 0.0
C706 C 0.68491 0.57933 0.60289 0.0
C707 C 0.66479 0.57791 0.62196 0.0
C708 C 0.64214 0.5929 0.61659 0.0
H709 H 0.62838 0.4851 0.76678 0.0
H710 H 0.63332 0.52099 0.73365 0.0
C711 C 0.63884 0.60781 0.59154 0.0
C712 C 0.66656 0.55956 0.64642 0.0
H713 H 0.6355 0.5078 0.67321 0.0
C714 C 0.68684 0.56222 0.66858 0.0
C715 C 0.6481 0.53943 0.64786 0.0
C716 C 0.62688 0.53457 0.62386 0.0
C717 C 0.68862 0.54564 0.69263 0.0
C718 C 0.66972 0.526 0.69433 0.0
C719 C 0.64975 0.52315 0.67198 0.0
C720 C 0.67014 0.50766 0.71872 0.0
C721 C 0.71029 0.54944 0.71631 0.0
C722 C 0.68968 0.48877 0.72193 0.0
C723 C 0.68686 0.46817 0.74081 0.0
C724 C 0.66433 0.46614 0.75648 0.0
C725 C 0.64579 0.48608 0.75472 0.0
C726 C 0.64863 0.50661 0.73592 0.0
H727 H 0.72037 0.56816 0.71439 0.0
H728 H 0.70232 0.5482 0.73798 0.0
H729 H 0.72512 0.53403 0.71498 0.0
H730 H 0.70619 0.48905 0.70848 0.0
H731 H 0.7013 0.45295 0.74153 0.0
H732 H 0.91176 0.10775 0.11775 0.0
H733 H 0.94809 0.10174 0.15461 0.0
H734 H 0.96799 0.18175 0.14931 0.0
H735 H 0.93141 0.18808 0.11255 0.0
H736 H 9e-05 0.11106 0.14306 0.0
H737 H 0.97269 0.16846 0.2374 0.0
H738 H 0.94892 0.15865 0.20852 0.0
H739 H 0.97073 0.18498 0.20319 0.0
C740 C 0.92357 0.1242 0.12469 0.0
C741 C 0.91879 0.14837 0.11199 0.0
C742 C 0.94431 0.12072 0.14583 0.0
C743 C 0.96061 0.14132 0.15484 0.0
C744 C 0.95535 0.16569 0.14305 0.0
H745 H 0.11432 0.1442 0.25131 0.0
H746 H 0.07184 0.15685 0.22681 0.0
C747 C 0.93452 0.16923 0.1219 0.0
C748 C 0.98465 0.13656 0.17416 0.0
H749 H 0.01595 0.15115 0.24015 0.0
C750 C 0.00348 0.11974 0.16434 0.0
C751 C 0.98914 0.14816 0.20175 0.0
C752 C 0.96925 0.16593 0.21355 0.0
C753 C 0.0267 0.11417 0.18131 0.0
C754 C 0.03102 0.12536 0.20913 0.0
C755 C 0.01244 0.14252 0.21887 0.0
C756 C 0.05475 0.11899 0.2282 0.0
C757 C 0.04661 0.09654 0.16918 0.0
C758 C 0.05866 0.09383 0.23811 0.0
C759 C 0.08279 0.08658 0.25194 0.0
C760 C 0.10337 0.10444 0.25631 0.0
C761 C 0.09876 0.13009 0.24829 0.0
C762 C 0.07457 0.13731 0.23427 0.0
H763 H 0.04334 0.09455 0.14524 0.0
H764 H 0.06698 0.10361 0.17452 0.0
H765 H 0.04492 0.07726 0.17892 0.0
H766 H 0.04342 0.07952 0.234 0.0
H767 H 0.08571 0.06678 0.2583 0.0
H768 H 0.1539 0.75898 0.0548 0.0
H769 H 0.17618 0.72562 0.08446 0.0
H770 H 0.25041 0.76429 0.07849 0.0
H771 H 0.22836 0.7979 0.04906 0.0
H772 H 0.21703 0.6937 0.0684 0.0
H773 H 0.24821 0.75131 0.16597 0.0
H774 H 0.22336 0.76207 0.13876 0.0
H775 H 0.25765 0.76454 0.13239 0.0
C776 C 0.17495 0.76052 0.05992 0.0
C777 C 0.18934 0.78115 0.04951 0.0
C778 C 0.18763 0.74142 0.07687 0.0
C779 C 0.21486 0.74266 0.08395 0.0
C780 C 0.22929 0.76323 0.07372 0.0
H781 H 0.33082 0.64414 0.17384 0.0
H782 H 0.30705 0.6786 0.14696 0.0
C783 C 0.21665 0.78234 0.05674 0.0
C784 C 0.22836 0.72186 0.10098 0.0
H785 H 0.26596 0.7094 0.1637 0.0
C786 C 0.22759 0.69706 0.08933 0.0
C787 C 0.24216 0.72638 0.12822 0.0
C788 C 0.24277 0.75246 0.14226 0.0
C789 C 0.24076 0.6767 0.1039 0.0
C790 C 0.25465 0.68122 0.1311 0.0
C791 C 0.25531 0.70601 0.14283 0.0
C792 C 0.26884 0.6605 0.1476 0.0
C793 C 0.24028 0.65069 0.08969 0.0
C794 C 0.25515 0.63919 0.15729 0.0
C795 C 0.26871 0.61951 0.17244 0.0
C796 C 0.29615 0.62083 0.17807 0.0
C797 C 0.30972 0.64251 0.16917 0.0
C798 C 0.29617 0.66217 0.15398 0.0
H799 H 0.23457 0.65189 0.06605 0.0
H800 H 0.25981 0.64128 0.09286 0.0
H801 H 0.22565 0.6384 0.09969 0.0
H802 H 0.23397 0.63784 0.15324 0.0
H803 H 0.2578 0.60322 0.17974 0.0
H804 H 0.71327 0.6865 0.56997 0.0
H805 H 0.73401 0.7167 0.60507 0.0
H806 H 0.68656 0.77779 0.56649 0.0
H807 H 0.66555 0.74775 0.53131 0.0
H808 H 0.76218 0.76302 0.59277 0.0
H809 H 0.67435 0.78098 0.65437 0.0
H810 H 0.67673 0.75371 0.63071 0.0
H811 H 0.66954 0.78482 0.61567 0.0
C812 C 0.70717 0.70634 0.56893 0.0
C813 C 0.6877 0.71468 0.54781 0.0
C814 C 0.71908 0.72356 0.58899 0.0
C815 C 0.7116 0.74937 0.58852 0.0
C816 C 0.69232 0.75784 0.56744 0.0
H817 H 0.75952 0.87915 0.6984 0.0
H818 H 0.73888 0.85106 0.66056 0.0
C819 C 0.68044 0.74066 0.54727 0.0
C820 C 0.72431 0.76747 0.60989 0.0
H821 H 0.71235 0.8056 0.66736 0.0
C822 C 0.75134 0.77233 0.60913 0.0
C823 C 0.71002 0.77962 0.63104 0.0
C824 C 0.68109 0.77445 0.63329 0.0
C825 C 0.76448 0.78927 0.62887 0.0
C826 C 0.75028 0.80117 0.65031 0.0
C827 C 0.72319 0.79645 0.6509 0.0
C828 C 0.76322 0.81829 0.67267 0.0
C829 C 0.79333 0.79459 0.62623 0.0
C830 C 0.78361 0.80912 0.69206 0.0
C831 C 0.79539 0.82512 0.71353 0.0
C832 C 0.78663 0.8504 0.71629 0.0
C833 C 0.76634 0.85962 0.69682 0.0
C834 C 0.75461 0.84363 0.67528 0.0
H835 H 0.79926 0.79002 0.60417 0.0
H836 H 0.79817 0.81494 0.63109 0.0
H837 H 0.8052 0.78247 0.64198 0.0
H838 H 0.79023 0.7895 0.69079 0.0
H839 H 0.81117 0.81769 0.72817 0.0
H840 H 0.84341 0.2064 0.13362 0.0
H841 H 0.81963 0.22394 0.17311 0.0
H842 H 0.74695 0.19307 0.13371 0.0
H843 H 0.77049 0.17531 0.09418 0.0
H844 H 0.77786 0.25958 0.16523 0.0
H845 H 0.74667 0.17108 0.21958 0.0
H846 H 0.77291 0.1715 0.19537 0.0
H847 H 0.73914 0.17157 0.18097 0.0
C848 C 0.8224 0.20309 0.13346 0.0
C849 C 0.80883 0.18953 0.11064 0.0
C850 C 0.80888 0.21312 0.15607 0.0
C851 C 0.78163 0.20954 0.15646 0.0
C852 C 0.76808 0.19563 0.13406 0.0
H853 H 0.65451 0.2658 0.24972 0.0
H854 H 0.68393 0.24277 0.21929 0.0
C855 C 0.78155 0.18567 0.11137 0.0
C856 C 0.76702 0.22196 0.17908 0.0
H857 H 0.72614 0.20992 0.2327 0.0
C858 C 0.76678 0.24877 0.18024 0.0
C859 C 0.75256 0.20772 0.19848 0.0
C860 C 0.75295 0.17886 0.19881 0.0
C861 C 0.75166 0.26182 0.19962 0.0
C862 C 0.73687 0.2476 0.21878 0.0
C863 C 0.73753 0.22075 0.21801 0.0
C864 C 0.71955 0.26028 0.23872 0.0
C865 C 0.75083 0.29068 0.19855 0.0
C866 C 0.7299 0.27737 0.2601 0.0
C867 C 0.71311 0.29063 0.27736 0.0
C868 C 0.68578 0.28665 0.27387 0.0
C869 C 0.67554 0.26902 0.25301 0.0
C870 C 0.6923 0.25587 0.23567 0.0
H871 H 0.7581 0.29827 0.17816 0.0
H872 H 0.73051 0.2978 0.20043 0.0
H873 H 0.76359 0.29851 0.21699 0.0
H874 H 0.75092 0.28072 0.26311 0.0
H875 H 0.7214 0.3043 0.29315 0.0
H876 H 0.27572 0.32548 0.60739 0.0
H877 H 0.25454 0.31257 0.6509 0.0
H878 H 0.32725 0.27856 0.68584 0.0
H879 H 0.34873 0.29178 0.64282 0.0
H880 H 0.2477 0.26422 0.67168 0.0
H881 H 0.30699 0.32196 0.7533 0.0
H882 H 0.30732 0.3276 0.71479 0.0
H883 H 0.32675 0.30225 0.73178 0.0
C884 C 0.28726 0.31537 0.6244 0.0
C885 C 0.31394 0.30969 0.62162 0.0
C886 C 0.27512 0.30804 0.64925 0.0
C887 C 0.28944 0.295 0.6718 0.0
C888 C 0.31601 0.28917 0.66902 0.0
H889 H 0.25378 0.21506 0.82727 0.0
H890 H 0.27397 0.23383 0.78557 0.0
C891 C 0.32819 0.29659 0.64428 0.0
C892 C 0.27632 0.28639 0.69763 0.0
H893 H 0.28028 0.28896 0.77169 0.0
C894 C 0.25463 0.26984 0.69353 0.0
C895 C 0.28543 0.29377 0.72611 0.0
C896 C 0.30774 0.31257 0.73181 0.0
C897 C 0.24227 0.25986 0.7172 0.0
C898 C 0.25174 0.26683 0.74564 0.0
C899 C 0.27319 0.28362 0.74979 0.0
C900 C 0.23986 0.25645 0.77138 0.0
C901 C 0.21963 0.24141 0.71171 0.0
C902 C 0.21419 0.26329 0.77728 0.0
C903 C 0.20274 0.25274 0.8011 0.0
C904 C 0.21686 0.23533 0.81942 0.0
C905 C 0.24264 0.22867 0.81361 0.0
C906 C 0.25413 0.23932 0.78987 0.0
H907 H 0.21788 0.23438 0.68896 0.0
H908 H 0.22199 0.22472 0.72656 0.0
H909 H 0.20098 0.25116 0.71599 0.0
H910 H 0.20297 0.27664 0.76334 0.0
H911 H 0.18274 0.25791 0.80509 0.0
H912 H 0.72367 0.67475 0.43767 0.0
H913 H 0.74503 0.69003 0.39506 0.0
H914 H 0.67348 0.72844 0.36422 0.0
H915 H 0.65197 0.71337 0.40645 0.0
H916 H 0.72575 0.6824 0.33279 0.0
H917 H 0.73337 0.78424 0.36721 0.0
H918 H 0.7292 0.75841 0.39246 0.0
H919 H 0.70162 0.76957 0.36942 0.0
C920 C 0.71251 0.68651 0.42187 0.0
C921 C 0.68617 0.69298 0.42559 0.0
C922 C 0.72472 0.69514 0.39755 0.0
C923 C 0.71085 0.71055 0.37679 0.0
C924 C 0.68456 0.71682 0.38026 0.0
H925 H 0.74183 0.79144 0.22049 0.0
H926 H 0.72286 0.77247 0.26275 0.0
C927 C 0.6723 0.70812 0.4044 0.0
C928 C 0.72366 0.72006 0.35127 0.0
H929 H 0.74313 0.7749 0.31906 0.0
C930 C 0.72979 0.70258 0.32979 0.0
C931 C 0.72871 0.74639 0.34754 0.0
C932 C 0.72311 0.7658 0.37044 0.0
C933 C 0.74019 0.71089 0.30411 0.0
C934 C 0.74506 0.7373 0.30025 0.0
C935 C 0.73926 0.75468 0.32201 0.0
C936 C 0.75596 0.74746 0.27375 0.0
C937 C 0.74505 0.69144 0.28098 0.0
C938 C 0.78086 0.73971 0.26601 0.0
C939 C 0.79155 0.75034 0.24175 0.0
C940 C 0.77758 0.76895 0.225 0.0
C941 C 0.75275 0.7768 0.23283 0.0
C942 C 0.742 0.76607 0.25698 0.0
H943 H 0.73381 0.6735 0.28385 0.0
H944 H 0.73956 0.69919 0.25898 0.0
H945 H 0.76629 0.68655 0.28231 0.0
H946 H 0.79227 0.7259 0.27908 0.0
H947 H 0.81097 0.74443 0.23636 0.0
H948 H 0.83481 0.24704 0.00968 0.0
H949 H 0.81523 0.2791 0.97596 0.0
H950 H 0.76609 0.22098 0.93349 0.0
H951 H 0.78538 0.18882 0.96699 0.0
H952 H 0.81418 0.27814 0.91324 0.0
H953 H 0.71408 0.27846 0.95333 0.0
H954 H 0.74247 0.26591 0.97444 0.0
H955 H 0.72667 0.24734 0.94539 0.0
C956 C 0.81974 0.24108 0.99326 0.0
C957 C 0.81155 0.21537 0.99117 0.0
C958 C 0.80863 0.25942 0.97402 0.0
C959 C 0.78899 0.25243 0.95256 0.0
C960 C 0.78091 0.22681 0.95025 0.0
H961 H 0.69593 0.3263 0.81296 0.0
H962 H 0.71617 0.29695 0.84956 0.0
C963 C 0.79206 0.20844 0.96936 0.0
C964 C 0.77734 0.27174 0.93203 0.0
H965 H 0.71935 0.30056 0.90927 0.0
C966 C 0.7935 0.28324 0.91246 0.0
C967 C 0.75036 0.27821 0.93111 0.0
C968 C 0.73236 0.26703 0.95233 0.0
C969 C 0.7832 0.30057 0.89135 0.0
C970 C 0.75614 0.30692 0.89027 0.0
C971 C 0.74007 0.29563 0.91012 0.0
C972 C 0.74396 0.32483 0.86833 0.0
C973 C 0.80119 0.31125 0.86981 0.0
C974 C 0.75257 0.35032 0.86711 0.0
C975 C 0.74116 0.36699 0.84612 0.0
C976 C 0.72097 0.35842 0.82608 0.0
C977 C 0.71182 0.33316 0.82787 0.0
C978 C 0.72329 0.31647 0.84878 0.0
H979 H 0.81933 0.2996 0.86886 0.0
H980 H 0.79102 0.31218 0.84772 0.0
H981 H 0.8072 0.33094 0.87642 0.0
H982 H 0.76801 0.35734 0.88248 0.0
H983 H 0.7481 0.38657 0.84546 0.0
H984 H 0.29434 0.30702 0.46979 0.0
H985 H 0.2718 0.27407 0.43962 0.0
H986 H 0.3007 0.21603 0.50026 0.0
H987 H 0.32392 0.24871 0.53009 0.0
H988 H 0.30544 0.20127 0.44547 0.0
H989 H 0.20451 0.23793 0.45561 0.0
H990 H 0.22595 0.26125 0.44134 0.0
H991 H 0.23262 0.24963 0.47781 0.0
C992 C 0.29586 0.28724 0.47674 0.0
C993 C 0.31078 0.28052 0.50247 0.0
C994 C 0.28283 0.26845 0.45956 0.0
C995 C 0.28409 0.24265 0.468 0.0
C996 C 0.29932 0.23585 0.49341 0.0
H997 H 0.17894 0.12237 0.39974 0.0
H998 H 0.20292 0.15462 0.42985 0.0
C999 C 0.31258 0.25457 0.51044 0.0
C1000 C 0.2699 0.22262 0.45021 0.0
H1001 H 0.20904 0.20492 0.42092 0.0
C1002 C 0.28434 0.20201 0.44018 0.0
C1003 C 0.2423 0.2234 0.44372 0.0
C1004 C 0.22538 0.24409 0.45542 0.0
C1005 C 0.27203 0.1823 0.42356 0.0
C1006 C 0.2446 0.18362 0.41607 0.0
C1007 C 0.2301 0.20407 0.4264 0.0
C1008 C 0.23043 0.16385 0.39788 0.0
C1009 C 0.28846 0.16001 0.41477 0.0
C1010 C 0.23785 0.15838 0.3699 0.0
C1011 C 0.22434 0.13983 0.35282 0.0
C1012 C 0.20264 0.12694 0.36309 0.0
C1013 C 0.19528 0.13237 0.39112 0.0
C1014 C 0.20897 0.15075 0.40831 0.0
H1015 H 0.30678 0.15806 0.42925 0.0
H1016 H 0.27729 0.14177 0.41518 0.0
H1017 H 0.29427 0.16316 0.39238 0.0
H1018 H 0.25402 0.16856 0.36117 0.0
H1019 H 0.23074 0.13568 0.3315 0.0
H1020 H 0.21645 0.84719 0.9307 0.0
H1021 H 0.24099 0.83092 0.89107 0.0
H1022 H 0.19553 0.76119 0.88965 0.0
H1023 H 0.17069 0.77731 0.92884 0.0
H1024 H 0.27147 0.78757 0.89457 0.0
H1025 H 0.19467 0.77865 0.80381 0.0
H1026 H 0.19017 0.79767 0.83569 0.0
H1027 H 0.18541 0.76355 0.8364 0.0
C1028 C 0.2114 0.82854 0.92169 0.0
C1029 C 0.19169 0.81349 0.93307 0.0
C1030 C 0.22542 0.81931 0.89902 0.0
C1031 C 0.21982 0.79501 0.88718 0.0
C1032 C 0.19976 0.78023 0.89802 0.0
H1033 H 0.28981 0.68028 0.78747 0.0
H1034 H 0.26161 0.70777 0.81497 0.0
C1035 C 0.18574 0.78941 0.92063 0.0
C1036 C 0.23656 0.78396 0.86555 0.0
H1037 H 0.23423 0.75426 0.79962 0.0
C1038 C 0.26346 0.78069 0.87358 0.0
C1039 C 0.22599 0.77497 0.83825 0.0
C1040 C 0.19752 0.7791 0.82788 0.0
C1041 C 0.27985 0.76752 0.85564 0.0
C1042 C 0.26908 0.75774 0.82877 0.0
C1043 C 0.24237 0.76173 0.82029 0.0
C1044 C 0.28494 0.74194 0.81012 0.0
C1045 C 0.30827 0.76312 0.86618 0.0
C1046 C 0.30693 0.75227 0.79771 0.0
C1047 C 0.32307 0.73659 0.7822 0.0
C1048 C 0.31746 0.71038 0.77902 0.0
C1049 C 0.29474 0.70035 0.79021 0.0
C1050 C 0.27862 0.71602 0.80572 0.0
H1051 H 0.31207 0.76746 0.88966 0.0
H1052 H 0.31405 0.74299 0.86237 0.0
H1053 H 0.32105 0.77574 0.85397 0.0
H1054 H 0.3118 0.77236 0.80039 0.0
H1055 H 0.34021 0.74478 0.77316 0.0
loop_
_geom_bond_atom_site_label_1
_geom_bond_atom_site_label_2
_geom_bond_distance
_geom_bond_site_symmetry_2
_ccdc_geom_bond_type
Fe0 O2 1.918 1_554 S
Fe0 O5 1.997 . S
Fe0 O6 2.002 . S
Fe0 O11 1.976 1_554 S
Fe0 O14 1.996 1_554 S
Fe1 O2 1.918 1_554 S
Fe1 O9 1.997 . S
Fe1 O12 1.996 1_554 S
Fe1 O16 1.976 1_554 S
Fe1 O19 2.002 . S
O2 Fe0 1.918 1_556 S
O2 Fe1 1.918 1_556 S
O2 Fe3 1.918 . S
Fe3 O2 1.918 . S
Fe3 O4 2.002 1_556 S
Fe3 O13 1.976 . S
Fe3 O17 1.996 . S
Fe3 O20 1.997 1_556 S
O4 Fe3 2.002 1_554 S
O4 C21 1.295 . S
O5 Fe0 1.997 . S
O5 C21 1.235 . S
O6 Fe0 2.002 . S
O6 C7 1.295 . S
C7 O6 1.295 . S
C7 O9 1.235 . S
C8 O13 1.287 . S
C8 O14 1.255 . S
O9 Fe1 1.997 . S
O9 C7 1.235 . S
C10 O16 1.287 . S
C10 O17 1.255 . S
O11 Fe0 1.976 1_556 S
O11 C18 1.287 . S
O12 Fe1 1.996 1_556 S
O12 C18 1.255 . S
O13 Fe3 1.976 . S
O13 C8 1.287 . S
O14 Fe0 1.996 1_556 S
O14 C8 1.255 . S
C15 O19 1.295 . S
C15 O20 1.235 . S
O16 Fe1 1.976 1_556 S
O16 C10 1.287 . S
O17 Fe3 1.996 . S
O17 C10 1.255 . S
C18 O11 1.287 . S
C18 O12 1.255 . S
O19 Fe1 2.002 . S
O19 C15 1.295 . S
O20 Fe3 1.997 1_554 S
O20 C15 1.235 . S
C21 O4 1.295 . S
C21 O5 1.235 . S
Fe22 O24 1.918 . S
Fe22 O27 1.997 . S
Fe22 O28 2.002 . S
Fe22 O33 1.976 . S
Fe22 O36 1.996 . S
Fe23 O24 1.918 . S
Fe23 O31 1.997 . S
Fe23 O34 1.996 . S
Fe23 O38 1.976 . S
Fe23 O41 2.002 . S
O24 Fe22 1.918 . S
O24 Fe23 1.918 . S
O24 Fe25 1.918 . S
Fe25 O24 1.918 . S
Fe25 O26 2.002 . S
Fe25 O35 1.976 . S
Fe25 O39 1.996 . S
Fe25 O42 1.997 . S
O26 Fe25 2.002 . S
O26 C43 1.295 . S
O27 Fe22 1.997 . S
O27 C43 1.235 . S
O28 Fe22 2.002 . S
O28 C29 1.295 . S
C29 O28 1.295 . S
C29 O31 1.235 . S
C30 O35 1.287 . S
C30 O36 1.255 . S
O31 Fe23 1.997 . S
O31 C29 1.235 . S
C32 O38 1.287 . S
C32 O39 1.255 . S
O33 Fe22 1.976 . S
O33 C40 1.287 . S
O34 Fe23 1.996 . S
O34 C40 1.255 . S
O35 Fe25 1.976 . S
O35 C30 1.287 . S
O36 Fe22 1.996 . S
O36 C30 1.255 . S
C37 O41 1.295 . S
C37 O42 1.235 . S
O38 Fe23 1.976 . S
O38 C32 1.287 . S
O39 Fe25 1.996 . S
O39 C32 1.255 . S
C40 O33 1.287 . S
C40 O34 1.255 . S
O41 Fe23 2.002 . S
O41 C37 1.295 . S
O42 Fe25 1.997 . S
O42 C37 1.235 . S
C43 O26 1.295 . S
C43 O27 1.235 . S
Fe44 O46 1.918 . S
Fe44 O49 1.997 . S
Fe44 O50 2.002 . S
Fe44 O55 1.976 . S
Fe44 O58 1.996 . S
Fe45 O46 1.918 . S
Fe45 O53 1.997 . S
Fe45 O56 1.996 . S
Fe45 O60 1.976 . S
Fe45 O63 2.002 . S
O46 Fe44 1.918 . S
O46 Fe45 1.918 . S
O46 Fe47 1.918 . S
Fe47 O46 1.918 . S
Fe47 O48 2.002 . S
Fe47 O57 1.976 . S
Fe47 O61 1.996 . S
Fe47 O64 1.997 . S
O48 Fe47 2.002 . S
O48 C65 1.295 . S
O49 Fe44 1.997 . S
O49 C65 1.235 . S
O50 Fe44 2.002 . S
O50 C51 1.295 . S
C51 O50 1.295 . S
C51 O53 1.235 . S
C52 O57 1.287 . S
C52 O58 1.255 . S
O53 Fe45 1.997 . S
O53 C51 1.235 . S
C54 O60 1.287 . S
C54 O61 1.255 . S
O55 Fe44 1.976 . S
O55 C62 1.287 . S
O56 Fe45 1.996 . S
O56 C62 1.255 . S
O57 Fe47 1.976 . S
O57 C52 1.287 . S
O58 Fe44 1.996 . S
O58 C52 1.255 . S
C59 O63 1.295 1_556 S
C59 O64 1.235 1_556 S
O60 Fe45 1.976 . S
O60 C54 1.287 . S
O61 Fe47 1.996 . S
O61 C54 1.255 . S
C62 O55 1.287 . S
C62 O56 1.255 . S
O63 Fe45 2.002 . S
O63 C59 1.295 1_554 S
O64 Fe47 1.997 . S
O64 C59 1.235 1_554 S
C65 O48 1.295 . S
C65 O49 1.235 . S
Fe66 O68 1.918 . S
Fe66 O71 1.997 . S
Fe66 O72 2.002 . S
Fe66 O77 1.976 . S
Fe66 O80 1.996 . S
Fe67 O68 1.918 . S
Fe67 O75 1.997 . S
Fe67 O78 1.996 . S
Fe67 O82 1.976 . S
Fe67 O85 2.002 . S
O68 Fe66 1.918 . S
O68 Fe67 1.918 . S
O68 Fe69 1.918 . S
Fe69 O68 1.918 . S
Fe69 O70 2.002 . S
Fe69 O79 1.976 . S
Fe69 O83 1.996 . S
Fe69 O86 1.997 . S
O70 Fe69 2.002 . S
O70 C87 1.295 . S
O71 Fe66 1.997 . S
O71 C87 1.235 . S
O72 Fe66 2.002 . S
O72 C73 1.295 . S
C73 O72 1.295 . S
C73 O75 1.235 . S
C74 O79 1.287 . S
C74 O80 1.255 . S
O75 Fe67 1.997 . S
O75 C73 1.235 . S
C76 O82 1.287 . S
C76 O83 1.255 . S
O77 Fe66 1.976 . S
O77 C84 1.287 . S
O78 Fe67 1.996 . S
O78 C84 1.255 . S
O79 Fe69 1.976 . S
O79 C74 1.287 . S
O80 Fe66 1.996 . S
O80 C74 1.255 . S
C81 O85 1.295 . S
C81 O86 1.235 . S
O82 Fe67 1.976 . S
O82 C76 1.287 . S
O83 Fe69 1.996 . S
O83 C76 1.255 . S
C84 O77 1.287 . S
C84 O78 1.255 . S
O85 Fe67 2.002 . S
O85 C81 1.295 . S
O86 Fe69 1.997 . S
O86 C81 1.235 . S
C87 O70 1.295 . S
C87 O71 1.235 . S
H88 C95 0.929 . S
H89 C98 0.930 . S
H90 C100 0.929 . S
H91 C92 0.969 . S
C92 H91 0.969 . S
C92 O93 1.550 . S
C92 H94 0.973 . S
O93 C92 1.550 . S
O93 C99 1.412 . S
H94 C92 0.973 . S
C95 H88 0.929 . S
C95 C96 1.400 . S
C95 C97 1.364 . S
C96 C95 1.400 . S
C96 C100 1.377 . S
C97 C95 1.364 . S
C97 C98 1.374 . S
C98 H89 0.930 . S
C98 C97 1.374 . S
C98 C99 1.383 . S
C99 O93 1.412 . S
C99 C98 1.383 . S
C99 C100 1.394 . S
C100 H90 0.929 . S
C100 C96 1.377 . S
C100 C99 1.394 . S
H101 C108 0.929 . S
H102 C111 0.930 . S
H103 C113 0.929 . S
H104 C105 0.969 . S
C105 H104 0.969 . S
C105 O106 1.550 . S
C105 H107 0.973 . S
O106 C105 1.550 . S
O106 C112 1.412 . S
H107 C105 0.973 . S
C108 H101 0.929 . S
C108 C109 1.400 . S
C108 C110 1.364 . S
C109 C108 1.400 . S
C109 C113 1.377 . S
C110 C108 1.364 . S
C110 C111 1.374 . S
C111 H102 0.930 . S
C111 C110 1.374 . S
C111 C112 1.383 . S
C112 O106 1.412 . S
C112 C111 1.383 . S
C112 C113 1.394 . S
C113 H103 0.929 . S
C113 C109 1.377 . S
C113 C112 1.394 . S
H114 C121 0.929 . S
H115 C124 0.930 . S
H116 C126 0.929 . S
H117 C118 0.969 . S
C118 H117 0.969 . S
C118 O119 1.550 . S
C118 H120 0.973 . S
O119 C118 1.550 . S
O119 C125 1.412 . S
H120 C118 0.973 . S
C121 H114 0.929 . S
C121 C122 1.400 . S
C121 C123 1.364 . S
C122 C121 1.400 . S
C122 C126 1.377 . S
C123 C121 1.364 . S
C123 C124 1.374 . S
C124 H115 0.930 . S
C124 C123 1.374 . S
C124 C125 1.383 . S
C125 O119 1.412 . S
C125 C124 1.383 . S
C125 C126 1.394 . S
C126 H116 0.929 . S
C126 C122 1.377 . S
C126 C125 1.394 . S
H127 C134 0.929 . S
H128 C137 0.930 . S
H129 C139 0.929 . S
H130 C131 0.969 . S
C131 H130 0.969 . S
C131 O132 1.550 . S
C131 H133 0.973 . S
O132 C131 1.550 . S
O132 C138 1.412 . S
H133 C131 0.973 . S
C134 H127 0.929 . S
C134 C135 1.400 . S
C134 C136 1.364 . S
C135 C134 1.400 . S
C135 C139 1.377 . S
C136 C134 1.364 . S
C136 C137 1.374 . S
C137 H128 0.930 . S
C137 C136 1.374 . S
C137 C138 1.383 . S
C138 O132 1.412 . S
C138 C137 1.383 . S
C138 C139 1.394 . S
C139 H129 0.929 . S
C139 C135 1.377 . S
C139 C138 1.394 . S
H140 C147 0.929 . S
H141 C150 0.930 . S
H142 C152 0.929 . S
H143 C144 0.969 . S
C144 H143 0.969 . S
C144 O145 1.550 . S
C144 H146 0.973 . S
O145 C144 1.550 . S
O145 C151 1.412 . S
H146 C144 0.973 . S
C147 H140 0.929 . S
C147 C148 1.400 . S
C147 C149 1.364 . S
C148 C147 1.400 . S
C148 C152 1.377 . S
C149 C147 1.364 . S
C149 C150 1.374 . S
C150 H141 0.930 . S
C150 C149 1.374 . S
C150 C151 1.383 . S
C151 O145 1.412 . S
C151 C150 1.383 . S
C151 C152 1.394 . S
C152 H142 0.929 . S
C152 C148 1.377 . S
C152 C151 1.394 . S
H153 C160 0.929 . S
H154 C163 0.930 . S
H155 C165 0.929 . S
H156 C157 0.969 . S
C157 H156 0.969 . S
C157 O158 1.550 . S
C157 H159 0.973 . S
O158 C157 1.550 . S
O158 C164 1.412 . S
H159 C157 0.973 . S
C160 H153 0.929 . S
C160 C161 1.400 . S
C160 C162 1.364 . S
C161 C160 1.400 . S
C161 C165 1.377 . S
C162 C160 1.364 . S
C162 C163 1.374 . S
C163 H154 0.930 . S
C163 C162 1.374 . S
C163 C164 1.383 . S
C164 O158 1.412 . S
C164 C163 1.383 . S
C164 C165 1.394 . S
C165 H155 0.929 . S
C165 C161 1.377 . S
C165 C164 1.394 . S
H166 C173 0.929 . S
H167 C176 0.930 . S
H168 C178 0.929 . S
H169 C170 0.969 . S
C170 H169 0.969 . S
C170 O171 1.550 . S
C170 H172 0.973 . S
O171 C170 1.550 . S
O171 C177 1.412 . S
H172 C170 0.973 . S
C173 H166 0.929 . S
C173 C174 1.400 . S
C173 C175 1.364 . S
C174 C173 1.400 . S
C174 C178 1.377 . S
C175 C173 1.364 . S
C175 C176 1.374 . S
C176 H167 0.930 . S
C176 C175 1.374 . S
C176 C177 1.383 . S
C177 O171 1.412 . S
C177 C176 1.383 . S
C177 C178 1.394 . S
C178 H168 0.929 . S
C178 C174 1.377 . S
C178 C177 1.394 . S
H179 C186 0.929 . S
H180 C189 0.930 . S
H181 C191 0.929 . S
H182 C183 0.969 . S
C183 H182 0.969 . S
C183 O184 1.550 . S
C183 H185 0.973 . S
O184 C183 1.550 . S
O184 C190 1.412 . S
H185 C183 0.973 . S
C186 H179 0.929 . S
C186 C187 1.400 . S
C186 C188 1.364 . S
C187 C186 1.400 . S
C187 C191 1.377 . S
C188 C186 1.364 . S
C188 C189 1.374 . S
C189 H180 0.930 . S
C189 C188 1.374 . S
C189 C190 1.383 . S
C190 O184 1.412 . S
C190 C189 1.383 . S
C190 C191 1.394 . S
C191 H181 0.929 . S
C191 C187 1.377 . S
C191 C190 1.394 . S
H192 C200 0.929 . S
H193 C202 0.930 . S
H194 C204 0.930 . S
H195 C207 0.929 . S
H196 C210 0.930 . S
H197 C212 0.960 . S
H198 C212 0.960 . S
H199 C212 0.960 . S
C200 H192 0.929 . S
C200 C201 1.377 . S
C200 C202 1.384 . S
C201 C200 1.377 . S
C201 C207 1.390 . S
C202 H193 0.930 . S
C202 C200 1.384 . S
C202 C203 1.372 . S
C203 C202 1.372 . S
C203 C204 1.400 . S
C203 C208 1.490 . S
C204 H194 0.930 . S
C204 C203 1.400 . S
C204 C207 1.386 . S
H205 C221 0.930 . S
H206 C222 0.931 . S
C207 H195 0.929 . S
C207 C201 1.390 . S
C207 C204 1.386 . S
C208 C203 1.490 . S
C208 C210 1.395 . S
C208 C211 1.403 . S
H209 C215 0.930 . S
C210 H196 0.930 . S
C210 C208 1.395 . S
C210 C213 1.403 . S
C211 C208 1.403 . S
C211 C212 1.524 . S
C211 C215 1.400 . S
C212 H197 0.960 . S
C212 H198 0.960 . S
C212 H199 0.960 . S
C212 C211 1.524 . S
C213 C210 1.403 . S
C213 C214 1.392 . S
C213 C217 1.493 . S
C214 C213 1.392 . S
C214 C215 1.385 . S
C214 C216 1.478 1_565 S
C215 H209 0.930 . S
C215 C211 1.400 . S
C215 C214 1.385 . S
C216 C214 1.478 1_545 S
C216 C218 1.381 . S
C216 C222 1.383 . S
C217 C213 1.493 . S
C217 H223 0.957 . S
C217 H224 0.966 1_565 S
C217 H225 0.958 . S
C218 C216 1.381 . S
C218 C219 1.394 . S
C218 H226 0.930 1_545 S
C219 C218 1.394 . S
C219 C220 1.383 . S
C219 H227 0.929 . S
C220 C219 1.383 . S
C220 C221 1.377 . S
C221 H205 0.930 . S
C221 C220 1.377 . S
C221 C222 1.379 . S
C222 H206 0.931 . S
C222 C216 1.383 . S
C222 C221 1.379 . S
H223 C217 0.957 . S
H224 C217 0.966 1_545 S
H225 C217 0.958 . S
H226 C218 0.930 1_565 S
H227 C219 0.929 . S
H228 C236 0.929 . S
H229 C238 0.930 . S
H230 C240 0.930 . S
H231 C243 0.929 . S
H232 C246 0.930 . S
H233 C248 0.960 . S
H234 C248 0.960 . S
H235 C248 0.960 . S
C236 H228 0.929 . S
C236 C237 1.377 . S
C236 C238 1.384 . S
C237 C236 1.377 . S
C237 C243 1.390 . S
C238 H229 0.930 . S
C238 C236 1.384 . S
C238 C239 1.372 . S
C239 C238 1.372 . S
C239 C240 1.400 . S
C239 C244 1.490 . S
C240 H230 0.930 . S
C240 C239 1.400 . S
C240 C243 1.386 . S
H241 C257 0.930 . S
H242 C258 0.931 . S
C243 H231 0.929 . S
C243 C237 1.390 . S
C243 C240 1.386 . S
C244 C239 1.490 . S
C244 C246 1.395 . S
C244 C247 1.403 . S
H245 C251 0.930 . S
C246 H232 0.930 . S
C246 C244 1.395 . S
C246 C249 1.403 . S
C247 C244 1.403 . S
C247 C248 1.524 . S
C247 C251 1.400 . S
C248 H233 0.960 . S
C248 H234 0.960 . S
C248 H235 0.960 . S
C248 C247 1.524 . S
C249 C246 1.403 . S
C249 C250 1.392 . S
C249 C253 1.495 . S
C250 C249 1.392 . S
C250 C251 1.385 . S
C250 C252 1.478 . S
C251 H245 0.930 . S
C251 C247 1.400 . S
C251 C250 1.385 . S
C252 C250 1.478 . S
C252 C254 1.381 . S
C252 C258 1.383 . S
C253 C249 1.495 . S
C253 H259 0.959 . S
C253 H260 0.961 . S
C253 H261 0.960 . S
C254 C252 1.381 . S
C254 C255 1.394 . S
C254 H262 0.930 . S
C255 C254 1.394 . S
C255 C256 1.383 . S
C255 H263 0.929 . S
C256 C255 1.383 . S
C256 C257 1.377 . S
C257 H241 0.930 . S
C257 C256 1.377 . S
C257 C258 1.379 . S
C258 H242 0.931 . S
C258 C252 1.383 . S
C258 C257 1.379 . S
H259 C253 0.959 . S
H260 C253 0.961 . S
H261 C253 0.960 . S
H262 C254 0.930 . S
H263 C255 0.929 . S
H264 C272 0.929 . S
H265 C274 0.930 . S
H266 C276 0.930 . S
H267 C279 0.929 . S
H268 C282 0.930 . S
H269 C284 0.960 . S
H270 C284 0.960 1_545 S
H271 C284 0.960 . S
C272 H264 0.929 . S
C272 C273 1.377 . S
C272 C274 1.384 . S
C273 C272 1.377 . S
C273 C279 1.390 . S
C274 H265 0.930 . S
C274 C272 1.384 . S
C274 C275 1.372 . S
C275 C274 1.372 . S
C275 C276 1.400 . S
C275 C280 1.490 1_545 S
C276 H266 0.930 . S
C276 C275 1.400 . S
C276 C279 1.386 . S
H277 C293 0.930 . S
H278 C294 0.931 . S
C279 H267 0.929 . S
C279 C273 1.390 . S
C279 C276 1.386 . S
C280 C275 1.490 1_565 S
C280 C282 1.395 . S
C280 C283 1.403 . S
H281 C287 0.930 . S
C282 H268 0.930 . S
C282 C280 1.395 . S
C282 C285 1.403 . S
C283 C280 1.403 . S
C283 C284 1.524 . S
C283 C287 1.400 . S
C284 H269 0.960 . S
C284 H270 0.960 1_565 S
C284 H271 0.960 . S
C284 C283 1.524 . S
C285 C282 1.403 . S
C285 C286 1.392 . S
C285 C289 1.495 . S
C286 C285 1.392 . S
C286 C287 1.385 . S
C286 C288 1.478 . S
C287 H281 0.930 . S
C287 C283 1.400 . S
C287 C286 1.385 . S
C288 C286 1.478 . S
C288 C290 1.381 . S
C288 C294 1.383 . S
C289 C285 1.495 . S
C289 H295 0.959 . S
C289 H296 0.961 . S
C289 H297 0.960 . S
C290 C288 1.381 . S
C290 C291 1.394 . S
C290 H298 0.930 . S
C291 C290 1.394 . S
C291 C292 1.383 . S
C291 H299 0.929 . S
C292 C291 1.383 . S
C292 C293 1.377 . S
C293 H277 0.930 . S
C293 C292 1.377 . S
C293 C294 1.379 . S
C294 H278 0.931 . S
C294 C288 1.383 . S
C294 C293 1.379 . S
H295 C289 0.959 . S
H296 C289 0.961 . S
H297 C289 0.960 . S
H298 C290 0.930 . S
H299 C291 0.929 . S
H300 C308 0.929 . S
H301 C310 0.930 . S
H302 C312 0.930 . S
H303 C315 0.929 . S
H304 C318 0.930 . S
H305 C320 0.960 . S
H306 C320 0.960 . S
H307 C320 0.960 . S
C308 H300 0.929 . S
C308 C309 1.377 . S
C308 C310 1.384 . S
C309 C308 1.377 . S
C309 C315 1.390 . S
C310 H301 0.930 . S
C310 C308 1.384 . S
C310 C311 1.372 . S
C311 C310 1.372 . S
C311 C312 1.400 . S
C311 C316 1.490 . S
C312 H302 0.930 . S
C312 C311 1.400 . S
C312 C315 1.386 . S
H313 C329 0.930 . S
H314 C330 0.931 . S
C315 H303 0.929 . S
C315 C309 1.390 . S
C315 C312 1.386 . S
C316 C311 1.490 . S
C316 C318 1.395 . S
C316 C319 1.403 . S
H317 C323 0.930 . S
C318 H304 0.930 . S
C318 C316 1.395 . S
C318 C321 1.403 . S
C319 C316 1.403 . S
C319 C320 1.524 . S
C319 C323 1.400 . S
C320 H305 0.960 . S
C320 H306 0.960 . S
C320 H307 0.960 . S
C320 C319 1.524 . S
C321 C318 1.403 . S
C321 C322 1.392 . S
C321 C325 1.495 . S
C322 C321 1.392 . S
C322 C323 1.385 . S
C322 C324 1.478 . S
C323 H317 0.930 . S
C323 C319 1.400 . S
C323 C322 1.385 . S
C324 C322 1.478 . S
C324 C326 1.381 . S
C324 C330 1.383 . S
C325 C321 1.495 . S
C325 H331 0.959 . S
C325 H332 0.961 . S
C325 H333 0.960 . S
C326 C324 1.381 . S
C326 C327 1.394 . S
C326 H334 0.930 . S
C327 C326 1.394 . S
C327 C328 1.383 . S
C327 H335 0.929 . S
C328 C327 1.383 . S
C328 C329 1.377 . S
C329 H313 0.930 . S
C329 C328 1.377 . S
C329 C330 1.379 . S
C330 H314 0.931 . S
C330 C324 1.383 . S
C330 C329 1.379 . S
H331 C325 0.959 . S
H332 C325 0.961 . S
H333 C325 0.960 . S
H334 C326 0.930 . S
H335 C327 0.929 . S
H336 C344 0.929 . S
H337 C346 0.930 . S
H338 C348 0.930 . S
H339 C351 0.929 . S
H340 C354 0.930 . S
H341 C356 0.960 . S
H342 C356 0.960 . S
H343 C356 0.960 . S
C344 H336 0.929 . S
C344 C345 1.377 . S
C344 C346 1.384 . S
C345 C344 1.377 . S
C345 C351 1.390 . S
C346 H337 0.930 . S
C346 C344 1.384 . S
C346 C347 1.372 . S
C347 C346 1.372 . S
C347 C348 1.400 . S
C347 C352 1.490 . S
C348 H338 0.930 . S
C348 C347 1.400 . S
C348 C351 1.386 . S
H349 C365 0.930 . S
H350 C366 0.931 . S
C351 H339 0.929 . S
C351 C345 1.390 . S
C351 C348 1.386 . S
C352 C347 1.490 . S
C352 C354 1.395 . S
C352 C355 1.403 . S
H353 C359 0.930 . S
C354 H340 0.930 . S
C354 C352 1.395 . S
C354 C357 1.403 . S
C355 C352 1.403 . S
C355 C356 1.524 . S
C355 C359 1.400 . S
C356 H341 0.960 . S
C356 H342 0.960 . S
C356 H343 0.960 . S
C356 C355 1.524 . S
C357 C354 1.403 . S
C357 C358 1.392 . S
C357 C361 1.495 . S
C358 C357 1.392 . S
C358 C359 1.385 . S
C358 C360 1.478 . S
C359 H353 0.930 . S
C359 C355 1.400 . S
C359 C358 1.385 . S
C360 C358 1.478 . S
C360 C362 1.381 . S
C360 C366 1.383 . S
C361 C357 1.495 . S
C361 H367 0.959 . S
C361 H368 0.961 . S
C361 H369 0.960 . S
C362 C360 1.381 . S
C362 C363 1.394 . S
C362 H370 0.930 . S
C363 C362 1.394 . S
C363 C364 1.383 . S
C363 H371 0.929 . S
C364 C363 1.383 . S
C364 C365 1.377 . S
C365 H349 0.930 . S
C365 C364 1.377 . S
C365 C366 1.379 . S
C366 H350 0.931 . S
C366 C360 1.383 . S
C366 C365 1.379 . S
H367 C361 0.959 . S
H368 C361 0.961 . S
H369 C361 0.960 . S
H370 C362 0.930 . S
H371 C363 0.929 . S
H372 C380 0.929 . S
H373 C382 0.930 . S
H374 C384 0.917 1_454 S
H375 C387 0.929 . S
H376 C390 0.930 1_655 S
H377 C392 0.960 . S
H378 C392 0.960 . S
H379 C392 0.960 1_554 S
C380 H372 0.929 . S
C380 C381 1.377 . S
C380 C382 1.384 . S
C381 C380 1.377 . S
C381 C387 1.390 1_556 S
C382 H373 0.930 . S
C382 C380 1.384 . S
C382 C383 1.372 . S
C383 C382 1.372 . S
C383 C384 1.426 . S
C383 C388 1.490 1_655 S
C384 H374 0.917 1_656 S
C384 C383 1.426 . S
C384 C387 1.372 1_556 S
H385 C401 0.930 . S
H386 C402 0.931 . S
C387 H375 0.929 . S
C387 C381 1.390 1_554 S
C387 C384 1.372 1_554 S
C388 C383 1.490 1_455 S
C388 C390 1.395 . S
C388 C391 1.403 . S
H389 C395 0.930 . S
C390 H376 0.930 1_455 S
C390 C388 1.395 . S
C390 C393 1.403 . S
C391 C388 1.403 . S
C391 C392 1.524 . S
C391 C395 1.400 . S
C392 H377 0.960 . S
C392 H378 0.960 . S
C392 H379 0.960 1_556 S
C392 C391 1.524 . S
C393 C390 1.403 . S
C393 C394 1.392 . S
C393 C397 1.495 . S
C394 C393 1.392 . S
C394 C395 1.385 . S
C394 C396 1.478 . S
C395 H389 0.930 . S
C395 C391 1.400 . S
C395 C394 1.385 . S
C396 C394 1.478 . S
C396 C398 1.381 . S
C396 C402 1.383 . S
C397 C393 1.495 . S
C397 H403 0.959 . S
C397 H404 0.961 . S
C397 H405 0.960 . S
C398 C396 1.381 . S
C398 C399 1.394 . S
C398 H406 0.930 . S
C399 C398 1.394 . S
C399 C400 1.383 . S
C399 H407 0.929 . S
C400 C399 1.383 . S
C400 C401 1.377 . S
C401 H385 0.930 . S
C401 C400 1.377 . S
C401 C402 1.379 . S
C402 H386 0.931 . S
C402 C396 1.383 . S
C402 C401 1.379 . S
H403 C397 0.959 . S
H404 C397 0.961 . S
H405 C397 0.960 . S
H406 C398 0.930 . S
H407 C399 0.929 . S
H408 C416 0.929 . S
H409 C418 0.930 . S
H410 C420 0.930 . S
H411 C423 0.929 . S
H412 C426 0.930 . S
H413 C428 0.960 . S
H414 C428 0.960 . S
H415 C428 0.960 . S
C416 H408 0.929 . S
C416 C417 1.377 . S
C416 C418 1.384 . S
C417 C416 1.377 . S
C417 C423 1.390 . S
C418 H409 0.930 . S
C418 C416 1.384 . S
C418 C419 1.372 . S
C419 C418 1.372 . S
C419 C420 1.400 . S
C419 C424 1.490 . S
C420 H410 0.930 . S
C420 C419 1.400 . S
C420 C423 1.386 . S
H421 C437 0.930 . S
H422 C438 0.931 . S
C423 H411 0.929 . S
C423 C417 1.390 . S
C423 C420 1.386 . S
C424 C419 1.490 . S
C424 C426 1.395 . S
C424 C427 1.403 . S
H425 C431 0.930 . S
C426 H412 0.930 . S
C426 C424 1.395 . S
C426 C429 1.403 . S
C427 C424 1.403 . S
C427 C428 1.524 . S
C427 C431 1.400 . S
C428 H413 0.960 . S
C428 H414 0.960 . S
C428 H415 0.960 . S
C428 C427 1.524 . S
C429 C426 1.403 . S
C429 C430 1.392 . S
C429 C433 1.495 . S
C430 C429 1.392 . S
C430 C431 1.385 . S
C430 C432 1.478 . S
C431 H425 0.930 . S
C431 C427 1.400 . S
C431 C430 1.385 . S
C432 C430 1.478 . S
C432 C434 1.381 . S
C432 C438 1.383 . S
C433 C429 1.495 . S
C433 H439 0.959 . S
C433 H440 0.961 . S
C433 H441 0.960 . S
C434 C432 1.381 . S
C434 C435 1.394 . S
C434 H442 0.930 . S
C435 C434 1.394 . S
C435 C436 1.383 . S
C435 H443 0.929 . S
C436 C435 1.383 . S
C436 C437 1.377 . S
C437 H421 0.930 . S
C437 C436 1.377 . S
C437 C438 1.379 . S
C438 H422 0.931 . S
C438 C432 1.383 . S
C438 C437 1.379 . S
H439 C433 0.959 . S
H440 C433 0.961 . S
H441 C433 0.960 . S
H442 C434 0.930 . S
H443 C435 0.929 . S
H444 C452 0.929 . S
H445 C454 0.930 . S
H446 C456 0.930 1_655 S
H447 C459 0.929 . S
H448 C462 0.930 . S
H449 C464 0.960 . S
H450 C464 0.960 1_455 S
H451 C464 0.960 . S
C452 H444 0.929 . S
C452 C453 1.377 . S
C452 C454 1.384 . S
C453 C452 1.377 . S
C453 C459 1.390 . S
C454 H445 0.930 . S
C454 C452 1.384 . S
C454 C455 1.372 . S
C455 C454 1.372 . S
C455 C456 1.400 . S
C455 C460 1.490 1_455 S
C456 H446 0.930 1_455 S
C456 C455 1.400 . S
C456 C459 1.386 . S
H457 C473 0.930 . S
H458 C474 0.931 . S
C459 H447 0.929 . S
C459 C453 1.390 . S
C459 C456 1.386 . S
C460 C455 1.490 1_655 S
C460 C462 1.395 . S
C460 C463 1.403 . S
H461 C467 0.930 . S
C462 H448 0.930 . S
C462 C460 1.395 . S
C462 C465 1.403 . S
C463 C460 1.403 . S
C463 C464 1.524 . S
C463 C467 1.400 . S
C464 H449 0.960 . S
C464 H450 0.960 1_655 S
C464 H451 0.960 . S
C464 C463 1.524 . S
C465 C462 1.403 . S
C465 C466 1.392 . S
C465 C469 1.495 . S
C466 C465 1.392 . S
C466 C467 1.385 . S
C466 C468 1.478 . S
C467 H461 0.930 . S
C467 C463 1.400 . S
C467 C466 1.385 . S
C468 C466 1.478 . S
C468 C470 1.381 . S
C468 C474 1.383 . S
C469 C465 1.495 . S
C469 H475 0.959 . S
C469 H476 0.961 . S
C469 H477 0.960 . S
C470 C468 1.381 . S
C470 C471 1.394 . S
C470 H478 0.930 . S
C471 C470 1.394 . S
C471 C472 1.383 . S
C471 H479 0.929 . S
C472 C471 1.383 . S
C472 C473 1.377 . S
C473 H457 0.930 . S
C473 C472 1.377 . S
C473 C474 1.379 . S
C474 H458 0.931 . S
C474 C468 1.383 . S
C474 C473 1.379 . S
H475 C469 0.959 . S
H476 C469 0.961 . S
H477 C469 0.960 . S
H478 C470 0.930 . S
H479 C471 0.929 . S
H480 C488 0.929 . S
H481 C490 0.930 . S
H482 C492 0.930 . S
H483 C495 0.929 . S
H484 C498 0.930 . S
H485 C500 0.960 . S
H486 C500 0.960 . S
H487 C500 0.960 . S
C488 H480 0.929 . S
C488 C489 1.377 . S
C488 C490 1.384 . S
C489 C488 1.377 . S
C489 C495 1.390 . S
C490 H481 0.930 . S
C490 C488 1.384 . S
C490 C491 1.372 . S
C491 C490 1.372 . S
C491 C492 1.400 . S
C491 C496 1.490 . S
C492 H482 0.930 . S
C492 C491 1.400 . S
C492 C495 1.386 . S
H493 C509 0.930 . S
H494 C510 0.931 . S
C495 H483 0.929 . S
C495 C489 1.390 . S
C495 C492 1.386 . S
C496 C491 1.490 . S
C496 C498 1.395 . S
C496 C499 1.403 . S
H497 C503 0.930 . S
C498 H484 0.930 . S
C498 C496 1.395 . S
C498 C501 1.403 1_545 S
C499 C496 1.403 . S
C499 C500 1.524 . S
C499 C503 1.400 . S
C500 H485 0.960 . S
C500 H486 0.960 . S
C500 H487 0.960 . S
C500 C499 1.524 . S
C501 C498 1.403 1_565 S
C501 C502 1.392 . S
C501 C505 1.495 . S
C502 C501 1.392 . S
C502 C503 1.385 1_565 S
C502 C504 1.478 . S
C503 H497 0.930 . S
C503 C499 1.400 . S
C503 C502 1.385 1_545 S
C504 C502 1.478 . S
C504 C506 1.381 . S
C504 C510 1.383 . S
C505 C501 1.495 . S
C505 H511 0.959 . S
C505 H512 0.961 . S
C505 H513 0.960 . S
C506 C504 1.381 . S
C506 C507 1.394 . S
C506 H514 0.930 . S
C507 C506 1.394 . S
C507 C508 1.383 . S
C507 H515 0.929 . S
C508 C507 1.383 . S
C508 C509 1.377 . S
C509 H493 0.930 . S
C509 C508 1.377 . S
C509 C510 1.379 . S
C510 H494 0.931 . S
C510 C504 1.383 . S
C510 C509 1.379 . S
H511 C505 0.959 . S
H512 C505 0.961 . S
H513 C505 0.960 . S
H514 C506 0.930 . S
H515 C507 0.929 . S
H516 C524 0.929 . S
H517 C526 0.930 . S
H518 C528 0.930 . S
H519 C531 0.929 . S
H520 C534 0.930 . S
H521 C536 0.960 . S
H522 C536 0.960 . S
H523 C536 0.960 . S
C524 H516 0.929 . S
C524 C525 1.377 . S
C524 C526 1.384 . S
C525 C524 1.377 . S
C525 C531 1.390 . S
C526 H517 0.930 . S
C526 C524 1.384 . S
C526 C527 1.372 . S
C527 C526 1.372 . S
C527 C528 1.400 . S
C527 C532 1.490 . S
C528 H518 0.930 . S
C528 C527 1.400 . S
C528 C531 1.386 . S
H529 C545 0.930 . S
H530 C546 0.931 . S
C531 H519 0.929 . S
C531 C525 1.390 . S
C531 C528 1.386 . S
C532 C527 1.490 . S
C532 C534 1.395 . S
C532 C535 1.403 . S
H533 C539 0.930 . S
C534 H520 0.930 . S
C534 C532 1.395 . S
C534 C537 1.403 . S
C535 C532 1.403 . S
C535 C536 1.524 . S
C535 C539 1.400 . S
C536 H521 0.960 . S
C536 H522 0.960 . S
C536 H523 0.960 . S
C536 C535 1.524 . S
C537 C534 1.403 . S
C537 C538 1.392 . S
C537 C541 1.495 . S
C538 C537 1.392 . S
C538 C539 1.385 . S
C538 C540 1.478 . S
C539 H533 0.930 . S
C539 C535 1.400 . S
C539 C538 1.385 . S
C540 C538 1.478 . S
C540 C542 1.381 . S
C540 C546 1.383 . S
C541 C537 1.495 . S
C541 H547 0.959 . S
C541 H548 0.961 . S
C541 H549 0.960 . S
C542 C540 1.381 . S
C542 C543 1.394 . S
C542 H550 0.930 . S
C543 C542 1.394 . S
C543 C544 1.383 . S
C543 H551 0.929 . S
C544 C543 1.383 . S
C544 C545 1.377 . S
C545 H529 0.930 . S
C545 C544 1.377 . S
C545 C546 1.379 . S
C546 H530 0.931 . S
C546 C540 1.383 . S
C546 C545 1.379 . S
H547 C541 0.959 . S
H548 C541 0.961 . S
H549 C541 0.960 . S
H550 C542 0.930 . S
H551 C543 0.929 . S
H552 C560 0.929 1_554 S
H553 C562 0.930 . S
H554 C564 0.930 . S
H555 C567 0.929 . S
H556 C570 0.930 . S
H557 C572 0.960 . S
H558 C572 0.960 . S
H559 C572 0.960 . S
C560 H552 0.929 1_556 S
C560 C561 1.377 . S
C560 C562 1.384 . S
C561 C560 1.377 . S
C561 C567 1.390 . S
C562 H553 0.930 . S
C562 C560 1.384 . S
C562 C563 1.372 . S
C563 C562 1.372 . S
C563 C564 1.400 . S
C563 C568 1.490 1_565 S
C564 H554 0.930 . S
C564 C563 1.400 . S
C564 C567 1.386 . S
H565 C581 0.930 . S
H566 C582 0.931 . S
C567 H555 0.929 . S
C567 C561 1.390 . S
C567 C564 1.386 . S
C568 C563 1.490 1_545 S
C568 C570 1.395 . S
C568 C571 1.403 . S
H569 C575 0.930 . S
C570 H556 0.930 . S
C570 C568 1.395 . S
C570 C573 1.403 . S
C571 C568 1.403 . S
C571 C572 1.524 . S
C571 C575 1.400 . S
C572 H557 0.960 . S
C572 H558 0.960 . S
C572 H559 0.960 . S
C572 C571 1.524 . S
C573 C570 1.403 . S
C573 C574 1.392 . S
C573 C577 1.495 . S
C574 C573 1.392 . S
C574 C575 1.385 . S
C574 C576 1.478 . S
C575 H569 0.930 . S
C575 C571 1.400 . S
C575 C574 1.385 . S
C576 C574 1.478 . S
C576 C578 1.381 . S
C576 C582 1.383 . S
C577 C573 1.495 . S
C577 H583 0.959 . S
C577 H584 0.961 . S
C577 H585 0.960 . S
C578 C576 1.381 . S
C578 C579 1.394 . S
C578 H586 0.930 . S
C579 C578 1.394 . S
C579 C580 1.383 . S
C579 H587 0.929 . S
C580 C579 1.383 . S
C580 C581 1.377 . S
C581 H565 0.930 . S
C581 C580 1.377 . S
C581 C582 1.379 . S
C582 H566 0.931 . S
C582 C576 1.383 . S
C582 C581 1.379 . S
H583 C577 0.959 . S
H584 C577 0.961 . S
H585 C577 0.960 . S
H586 C578 0.930 . S
H587 C579 0.929 . S
H588 C596 0.929 . S
H589 C598 0.930 . S
H590 C600 0.930 . S
H591 C603 0.929 . S
H592 C606 0.930 . S
H593 C608 0.960 . S
H594 C608 0.960 . S
H595 C608 0.960 . S
C596 H588 0.929 . S
C596 C597 1.377 . S
C596 C598 1.384 . S
C597 C596 1.377 . S
C597 C603 1.390 . S
C598 H589 0.930 . S
C598 C596 1.384 . S
C598 C599 1.372 . S
C599 C598 1.372 . S
C599 C600 1.400 . S
C599 C604 1.490 . S
C600 H590 0.930 . S
C600 C599 1.400 . S
C600 C603 1.386 . S
H601 C617 0.930 . S
H602 C618 0.931 . S
C603 H591 0.929 . S
C603 C597 1.390 . S
C603 C600 1.386 . S
C604 C599 1.490 . S
C604 C606 1.395 . S
C604 C607 1.403 . S
H605 C611 0.930 . S
C606 H592 0.930 . S
C606 C604 1.395 . S
C606 C609 1.403 . S
C607 C604 1.403 . S
C607 C608 1.524 . S
C607 C611 1.400 . S
C608 H593 0.960 . S
C608 H594 0.960 . S
C608 H595 0.960 . S
C608 C607 1.524 . S
C609 C606 1.403 . S
C609 C610 1.392 . S
C609 C613 1.495 . S
C610 C609 1.392 . S
C610 C611 1.385 . S
C610 C612 1.478 . S
C611 H605 0.930 . S
C611 C607 1.400 . S
C611 C610 1.385 . S
C612 C610 1.478 . S
C612 C614 1.381 . S
C612 C618 1.383 . S
C613 C609 1.495 . S
C613 H619 0.959 . S
C613 H620 0.961 . S
C613 H621 0.960 . S
C614 C612 1.381 . S
C614 C615 1.394 . S
C614 H622 0.930 . S
C615 C614 1.394 . S
C615 C616 1.383 . S
C615 H623 0.929 . S
C616 C615 1.383 . S
C616 C617 1.377 . S
C617 H601 0.930 . S
C617 C616 1.377 . S
C617 C618 1.379 . S
C618 H602 0.931 . S
C618 C612 1.383 . S
C618 C617 1.379 . S
H619 C613 0.959 . S
H620 C613 0.961 . S
H621 C613 0.960 . S
H622 C614 0.930 . S
H623 C615 0.929 . S
H624 C632 0.929 . S
H625 C634 0.930 . S
H626 C636 0.930 . S
H627 C639 0.929 . S
H628 C642 0.930 . S
H629 C644 0.960 . S
H630 C644 0.960 . S
H631 C644 0.960 . S
C632 H624 0.929 . S
C632 C633 1.377 . S
C632 C634 1.384 . S
C633 C632 1.377 . S
C633 C639 1.390 . S
C634 H625 0.930 . S
C634 C632 1.384 . S
C634 C635 1.372 . S
C635 C634 1.372 . S
C635 C636 1.400 . S
C635 C640 1.490 . S
C636 H626 0.930 . S
C636 C635 1.400 . S
C636 C639 1.386 . S
H637 C653 0.930 . S
H638 C654 0.931 . S
C639 H627 0.929 . S
C639 C633 1.390 . S
C639 C636 1.386 . S
C640 C635 1.490 . S
C640 C642 1.395 . S
C640 C643 1.403 . S
H641 C647 0.930 . S
C642 H628 0.930 . S
C642 C640 1.395 . S
C642 C645 1.403 . S
C643 C640 1.403 . S
C643 C644 1.524 . S
C643 C647 1.400 . S
C644 H629 0.960 . S
C644 H630 0.960 . S
C644 H631 0.960 . S
C644 C643 1.524 . S
C645 C642 1.403 . S
C645 C646 1.392 . S
C645 C649 1.495 . S
C646 C645 1.392 . S
C646 C647 1.385 . S
C646 C648 1.478 . S
C647 H641 0.930 . S
C647 C643 1.400 . S
C647 C646 1.385 . S
C648 C646 1.478 . S
C648 C650 1.381 . S
C648 C654 1.383 . S
C649 C645 1.495 . S
C649 H655 0.959 . S
C649 H656 0.961 . S
C649 H657 0.960 . S
C650 C648 1.381 . S
C650 C651 1.394 . S
C650 H658 0.930 . S
C651 C650 1.394 . S
C651 C652 1.383 . S
C651 H659 0.929 . S
C652 C651 1.383 . S
C652 C653 1.377 . S
C653 H637 0.930 . S
C653 C652 1.377 . S
C653 C654 1.379 . S
C654 H638 0.931 . S
C654 C648 1.383 . S
C654 C653 1.379 . S
H655 C649 0.959 . S
H656 C649 0.961 . S
H657 C649 0.960 . S
H658 C650 0.930 . S
H659 C651 0.929 . S
H660 C668 0.929 . S
H661 C670 0.930 . S
H662 C672 0.930 . S
H663 C675 0.929 . S
H664 C678 0.930 . S
H665 C680 0.960 . S
H666 C680 0.960 1_455 S
H667 C680 0.960 . S
C668 H660 0.929 . S
C668 C669 1.377 . S
C668 C670 1.384 . S
C669 C668 1.377 . S
C669 C675 1.390 . S
C670 H661 0.930 . S
C670 C668 1.384 . S
C670 C671 1.372 . S
C671 C670 1.372 . S
C671 C672 1.400 . S
C671 C676 1.490 1_455 S
C672 H662 0.930 . S
C672 C671 1.400 . S
C672 C675 1.386 . S
H673 C689 0.930 . S
H674 C690 0.931 . S
C675 H663 0.929 . S
C675 C669 1.390 . S
C675 C672 1.386 . S
C676 C671 1.490 1_655 S
C676 C678 1.395 . S
C676 C679 1.403 . S
H677 C683 0.930 . S
C678 H664 0.930 . S
C678 C676 1.395 . S
C678 C681 1.403 . S
C679 C676 1.403 . S
C679 C680 1.524 . S
C679 C683 1.400 . S
C680 H665 0.960 . S
C680 H666 0.960 1_655 S
C680 H667 0.960 . S
C680 C679 1.524 . S
C681 C678 1.403 . S
C681 C682 1.392 . S
C681 C685 1.495 . S
C682 C681 1.392 . S
C682 C683 1.385 . S
C682 C684 1.478 . S
C683 H677 0.930 . S
C683 C679 1.400 . S
C683 C682 1.385 . S
C684 C682 1.478 . S
C684 C686 1.381 . S
C684 C690 1.383 . S
C685 C681 1.495 . S
C685 H691 0.959 . S
C685 H692 0.961 . S
C685 H693 0.960 . S
C686 C684 1.381 . S
C686 C687 1.394 . S
C686 H694 0.930 . S
C687 C686 1.394 . S
C687 C688 1.383 . S
C687 H695 0.929 . S
C688 C687 1.383 . S
C688 C689 1.377 . S
C689 H673 0.930 . S
C689 C688 1.377 . S
C689 C690 1.379 . S
C690 H674 0.931 . S
C690 C684 1.383 . S
C690 C689 1.379 . S
H691 C685 0.959 . S
H692 C685 0.961 . S
H693 C685 0.960 . S
H694 C686 0.930 . S
H695 C687 0.929 . S
H696 C704 0.929 . S
H697 C706 0.930 . S
H698 C708 0.930 . S
H699 C711 0.929 . S
H700 C714 0.930 . S
H701 C716 0.960 . S
H702 C716 0.960 . S
H703 C716 0.960 . S
C704 H696 0.929 . S
C704 C705 1.377 . S
C704 C706 1.384 . S
C705 C704 1.377 . S
C705 C711 1.390 . S
C706 H697 0.930 . S
C706 C704 1.384 . S
C706 C707 1.372 . S
C707 C706 1.372 . S
C707 C708 1.400 . S
C707 C712 1.490 . S
C708 H698 0.930 . S
C708 C707 1.400 . S
C708 C711 1.386 . S
H709 C725 0.930 . S
H710 C726 0.931 . S
C711 H699 0.929 . S
C711 C705 1.390 . S
C711 C708 1.386 . S
C712 C707 1.490 . S
C712 C714 1.395 . S
C712 C715 1.403 . S
H713 C719 0.930 . S
C714 H700 0.930 . S
C714 C712 1.395 . S
C714 C717 1.403 . S
C715 C712 1.403 . S
C715 C716 1.524 . S
C715 C719 1.400 . S
C716 H701 0.960 . S
C716 H702 0.960 . S
C716 H703 0.960 . S
C716 C715 1.524 . S
C717 C714 1.403 . S
C717 C718 1.392 . S
C717 C721 1.495 . S
C718 C717 1.392 . S
C718 C719 1.385 . S
C718 C720 1.478 . S
C719 H713 0.930 . S
C719 C715 1.400 . S
C719 C718 1.385 . S
C720 C718 1.478 . S
C720 C722 1.381 . S
C720 C726 1.383 . S
C721 C717 1.495 . S
C721 H727 0.959 . S
C721 H728 0.961 . S
C721 H729 0.960 . S
C722 C720 1.381 . S
C722 C723 1.394 . S
C722 H730 0.930 . S
C723 C722 1.394 . S
C723 C724 1.383 . S
C723 H731 0.929 . S
C724 C723 1.383 . S
C724 C725 1.377 . S
C725 H709 0.930 . S
C725 C724 1.377 . S
C725 C726 1.379 . S
C726 H710 0.931 . S
C726 C720 1.383 . S
C726 C725 1.379 . S
H727 C721 0.959 . S
H728 C721 0.961 . S
H729 C721 0.960 . S
H730 C722 0.930 . S
H731 C723 0.929 . S
H732 C740 0.929 . S
H733 C742 0.930 . S
H734 C744 0.930 1_455 S
H735 C747 0.929 . S
H736 C750 0.930 . S
H737 C752 0.960 . S
H738 C752 0.948 1_655 S
H739 C752 0.960 . S
C740 H732 0.929 . S
C740 C741 1.377 . S
C740 C742 1.384 . S
C741 C740 1.377 . S
C741 C747 1.390 . S
C742 H733 0.930 . S
C742 C740 1.384 . S
C742 C743 1.372 . S
C743 C742 1.372 . S
C743 C744 1.400 . S
C743 C748 1.490 1_655 S
C744 H734 0.930 1_655 S
C744 C743 1.400 . S
C744 C747 1.386 . S
H745 C761 0.930 . S
H746 C762 0.931 . S
C747 H735 0.929 . S
C747 C741 1.390 . S
C747 C744 1.386 . S
C748 C743 1.490 1_455 S
C748 C750 1.395 . S
C748 C751 1.403 . S
H749 C755 0.930 . S
C750 H736 0.930 . S
C750 C748 1.395 . S
C750 C753 1.403 . S
C751 C748 1.403 . S
C751 C752 1.524 . S
C751 C755 1.400 . S
C752 H737 0.960 . S
C752 H738 0.948 1_455 S
C752 H739 0.960 . S
C752 C751 1.524 . S
C753 C750 1.403 . S
C753 C754 1.392 . S
C753 C757 1.495 . S
C754 C753 1.392 . S
C754 C755 1.385 . S
C754 C756 1.478 . S
C755 H749 0.930 . S
C755 C751 1.400 . S
C755 C754 1.385 . S
C756 C754 1.478 . S
C756 C758 1.381 . S
C756 C762 1.383 . S
C757 C753 1.495 . S
C757 H763 0.959 . S
C757 H764 0.961 . S
C757 H765 0.960 . S
C758 C756 1.381 . S
C758 C759 1.394 . S
C758 H766 0.930 . S
C759 C758 1.394 . S
C759 C760 1.383 . S
C759 H767 0.929 . S
C760 C759 1.383 . S
C760 C761 1.377 . S
C761 H745 0.930 . S
C761 C760 1.377 . S
C761 C762 1.379 . S
C762 H746 0.931 . S
C762 C756 1.383 . S
C762 C761 1.379 . S
H763 C757 0.959 . S
H764 C757 0.961 . S
H765 C757 0.960 . S
H766 C758 0.930 . S
H767 C759 0.929 . S
H768 C776 0.929 . S
H769 C778 0.930 . S
H770 C780 0.930 . S
H771 C783 0.929 . S
H772 C786 0.930 . S
H773 C788 0.960 . S
H774 C788 0.960 . S
H775 C788 0.960 . S
C776 H768 0.929 . S
C776 C777 1.377 . S
C776 C778 1.384 . S
C777 C776 1.377 . S
C777 C783 1.390 . S
C778 H769 0.930 . S
C778 C776 1.384 . S
C778 C779 1.372 . S
C779 C778 1.372 . S
C779 C780 1.400 . S
C779 C784 1.490 . S
C780 H770 0.930 . S
C780 C779 1.400 . S
C780 C783 1.386 . S
H781 C797 0.930 . S
H782 C798 0.931 . S
C783 H771 0.929 . S
C783 C777 1.390 . S
C783 C780 1.386 . S
C784 C779 1.490 . S
C784 C786 1.395 . S
C784 C787 1.403 . S
H785 C791 0.930 . S
C786 H772 0.930 . S
C786 C784 1.395 . S
C786 C789 1.403 . S
C787 C784 1.403 . S
C787 C788 1.524 . S
C787 C791 1.400 . S
C788 H773 0.960 . S
C788 H774 0.960 . S
C788 H775 0.960 . S
C788 C787 1.524 . S
C789 C786 1.403 . S
C789 C790 1.392 . S
C789 C793 1.495 . S
C790 C789 1.392 . S
C790 C791 1.385 . S
C790 C792 1.478 . S
C791 H785 0.930 . S
C791 C787 1.400 . S
C791 C790 1.385 . S
C792 C790 1.478 . S
C792 C794 1.381 . S
C792 C798 1.383 . S
C793 C789 1.495 . S
C793 H799 0.959 . S
C793 H800 0.961 . S
C793 H801 0.960 . S
C794 C792 1.381 . S
C794 C795 1.394 . S
C794 H802 0.930 . S
C795 C794 1.394 . S
C795 C796 1.383 . S
C795 H803 0.929 . S
C796 C795 1.383 . S
C796 C797 1.377 . S
C797 H781 0.930 . S
C797 C796 1.377 . S
C797 C798 1.379 . S
C798 H782 0.931 . S
C798 C792 1.383 . S
C798 C797 1.379 . S
H799 C793 0.959 . S
H800 C793 0.961 . S
H801 C793 0.960 . S
H802 C794 0.930 . S
H803 C795 0.929 . S
H804 C812 0.929 . S
H805 C814 0.930 . S
H806 C816 0.930 . S
H807 C819 0.929 . S
H808 C822 0.930 . S
H809 C824 0.960 . S
H810 C824 0.960 . S
H811 C824 0.960 . S
C812 H804 0.929 . S
C812 C813 1.377 . S
C812 C814 1.384 . S
C813 C812 1.377 . S
C813 C819 1.390 . S
C814 H805 0.930 . S
C814 C812 1.384 . S
C814 C815 1.372 . S
C815 C814 1.372 . S
C815 C816 1.400 . S
C815 C820 1.490 . S
C816 H806 0.930 . S
C816 C815 1.400 . S
C816 C819 1.386 . S
H817 C833 0.930 . S
H818 C834 0.931 . S
C819 H807 0.929 . S
C819 C813 1.390 . S
C819 C816 1.386 . S
C820 C815 1.490 . S
C820 C822 1.395 . S
C820 C823 1.403 . S
H821 C827 0.930 . S
C822 H808 0.930 . S
C822 C820 1.395 . S
C822 C825 1.403 . S
C823 C820 1.403 . S
C823 C824 1.524 . S
C823 C827 1.400 . S
C824 H809 0.960 . S
C824 H810 0.960 . S
C824 H811 0.960 . S
C824 C823 1.524 . S
C825 C822 1.403 . S
C825 C826 1.392 . S
C825 C829 1.495 . S
C826 C825 1.392 . S
C826 C827 1.385 . S
C826 C828 1.478 . S
C827 H821 0.930 . S
C827 C823 1.400 . S
C827 C826 1.385 . S
C828 C826 1.478 . S
C828 C830 1.381 . S
C828 C834 1.383 . S
C829 C825 1.495 . S
C829 H835 0.959 . S
C829 H836 0.961 . S
C829 H837 0.960 . S
C830 C828 1.381 . S
C830 C831 1.394 . S
C830 H838 0.930 . S
C831 C830 1.394 . S
C831 C832 1.383 . S
C831 H839 0.929 . S
C832 C831 1.383 . S
C832 C833 1.377 . S
C833 H817 0.930 . S
C833 C832 1.377 . S
C833 C834 1.379 . S
C834 H818 0.931 . S
C834 C828 1.383 . S
C834 C833 1.379 . S
H835 C829 0.959 . S
H836 C829 0.961 . S
H837 C829 0.960 . S
H838 C830 0.930 . S
H839 C831 0.929 . S
H840 C848 0.929 . S
H841 C850 0.930 . S
H842 C852 0.930 . S
H843 C855 0.929 . S
H844 C858 0.930 . S
H845 C860 0.960 . S
H846 C860 0.960 . S
H847 C860 0.960 . S
C848 H840 0.929 . S
C848 C849 1.377 . S
C848 C850 1.384 . S
C849 C848 1.377 . S
C849 C855 1.390 . S
C850 H841 0.930 . S
C850 C848 1.384 . S
C850 C851 1.372 . S
C851 C850 1.372 . S
C851 C852 1.400 . S
C851 C856 1.490 . S
C852 H842 0.930 . S
C852 C851 1.400 . S
C852 C855 1.386 . S
H853 C869 0.930 . S
H854 C870 0.931 . S
C855 H843 0.929 . S
C855 C849 1.390 . S
C855 C852 1.386 . S
C856 C851 1.490 . S
C856 C858 1.395 . S
C856 C859 1.403 . S
H857 C863 0.930 . S
C858 H844 0.930 . S
C858 C856 1.395 . S
C858 C861 1.403 . S
C859 C856 1.403 . S
C859 C860 1.524 . S
C859 C863 1.400 . S
C860 H845 0.960 . S
C860 H846 0.960 . S
C860 H847 0.960 . S
C860 C859 1.524 . S
C861 C858 1.403 . S
C861 C862 1.392 . S
C861 C865 1.495 . S
C862 C861 1.392 . S
C862 C863 1.385 . S
C862 C864 1.478 . S
C863 H857 0.930 . S
C863 C859 1.400 . S
C863 C862 1.385 . S
C864 C862 1.478 . S
C864 C866 1.381 . S
C864 C870 1.383 . S
C865 C861 1.495 . S
C865 H871 0.959 . S
C865 H872 0.961 . S
C865 H873 0.960 . S
C866 C864 1.381 . S
C866 C867 1.394 . S
C866 H874 0.930 . S
C867 C866 1.394 . S
C867 C868 1.383 . S
C867 H875 0.929 . S
C868 C867 1.383 . S
C868 C869 1.377 . S
C869 H853 0.930 . S
C869 C868 1.377 . S
C869 C870 1.379 . S
C870 H854 0.931 . S
C870 C864 1.383 . S
C870 C869 1.379 . S
H871 C865 0.959 . S
H872 C865 0.961 . S
H873 C865 0.960 . S
H874 C866 0.930 . S
H875 C867 0.929 . S
H876 C884 0.929 . S
H877 C886 0.930 . S
H878 C888 0.930 . S
H879 C891 0.929 . S
H880 C894 0.930 . S
H881 C896 0.960 . S
H882 C896 0.960 . S
H883 C896 0.960 . S
C884 H876 0.929 . S
C884 C885 1.377 . S
C884 C886 1.384 . S
C885 C884 1.377 . S
C885 C891 1.390 . S
C886 H877 0.930 . S
C886 C884 1.384 . S
C886 C887 1.372 . S
C887 C886 1.372 . S
C887 C888 1.400 . S
C887 C892 1.490 . S
C888 H878 0.930 . S
C888 C887 1.400 . S
C888 C891 1.386 . S
H889 C905 0.930 . S
H890 C906 0.931 . S
C891 H879 0.929 . S
C891 C885 1.390 . S
C891 C888 1.386 . S
C892 C887 1.490 . S
C892 C894 1.395 . S
C892 C895 1.403 . S
H893 C899 0.930 . S
C894 H880 0.930 . S
C894 C892 1.395 . S
C894 C897 1.403 . S
C895 C892 1.403 . S
C895 C896 1.524 . S
C895 C899 1.400 . S
C896 H881 0.960 . S
C896 H882 0.960 . S
C896 H883 0.960 . S
C896 C895 1.524 . S
C897 C894 1.403 . S
C897 C898 1.392 . S
C897 C901 1.495 . S
C898 C897 1.392 . S
C898 C899 1.385 . S
C898 C900 1.478 . S
C899 H893 0.930 . S
C899 C895 1.400 . S
C899 C898 1.385 . S
C900 C898 1.478 . S
C900 C902 1.381 . S
C900 C906 1.383 . S
C901 C897 1.495 . S
C901 H907 0.959 . S
C901 H908 0.961 . S
C901 H909 0.960 . S
C902 C900 1.381 . S
C902 C903 1.394 . S
C902 H910 0.930 . S
C903 C902 1.394 . S
C903 C904 1.383 . S
C903 H911 0.929 . S
C904 C903 1.383 . S
C904 C905 1.377 . S
C905 H889 0.930 . S
C905 C904 1.377 . S
C905 C906 1.379 . S
C906 H890 0.931 . S
C906 C900 1.383 . S
C906 C905 1.379 . S
H907 C901 0.959 . S
H908 C901 0.961 . S
H909 C901 0.960 . S
H910 C902 0.930 . S
H911 C903 0.929 . S
H912 C920 0.929 . S
H913 C922 0.930 . S
H914 C924 0.930 . S
H915 C927 0.929 . S
H916 C930 0.930 . S
H917 C932 0.960 . S
H918 C932 0.960 . S
H919 C932 0.960 . S
C920 H912 0.929 . S
C920 C921 1.377 . S
C920 C922 1.384 . S
C921 C920 1.377 . S
C921 C927 1.390 . S
C922 H913 0.930 . S
C922 C920 1.384 . S
C922 C923 1.372 . S
C923 C922 1.372 . S
C923 C924 1.400 . S
C923 C928 1.490 . S
C924 H914 0.930 . S
C924 C923 1.400 . S
C924 C927 1.386 . S
H925 C941 0.930 . S
H926 C942 0.931 . S
C927 H915 0.929 . S
C927 C921 1.390 . S
C927 C924 1.386 . S
C928 C923 1.490 . S
C928 C930 1.395 . S
C928 C931 1.403 . S
H929 C935 0.930 . S
C930 H916 0.930 . S
C930 C928 1.395 . S
C930 C933 1.403 . S
C931 C928 1.403 . S
C931 C932 1.524 . S
C931 C935 1.400 . S
C932 H917 0.960 . S
C932 H918 0.960 . S
C932 H919 0.960 . S
C932 C931 1.524 . S
C933 C930 1.403 . S
C933 C934 1.392 . S
C933 C937 1.495 . S
C934 C933 1.392 . S
C934 C935 1.385 . S
C934 C936 1.478 . S
C935 H929 0.930 . S
C935 C931 1.400 . S
C935 C934 1.385 . S
C936 C934 1.478 . S
C936 C938 1.381 . S
C936 C942 1.383 . S
C937 C933 1.495 . S
C937 H943 0.959 . S
C937 H944 0.961 . S
C937 H945 0.960 . S
C938 C936 1.381 . S
C938 C939 1.394 . S
C938 H946 0.930 . S
C939 C938 1.394 . S
C939 C940 1.383 . S
C939 H947 0.929 . S
C940 C939 1.383 . S
C940 C941 1.377 . S
C941 H925 0.930 . S
C941 C940 1.377 . S
C941 C942 1.379 . S
C942 H926 0.931 . S
C942 C936 1.383 . S
C942 C941 1.379 . S
H943 C937 0.959 . S
H944 C937 0.961 . S
H945 C937 0.960 . S
H946 C938 0.930 . S
H947 C939 0.929 . S
H948 C956 0.929 1_554 S
H949 C958 0.930 . S
H950 C960 0.930 . S
H951 C963 0.929 . S
H952 C966 0.930 . S
H953 C968 0.960 . S
H954 C968 0.960 . S
H955 C968 0.960 . S
C956 H948 0.929 1_556 S
C956 C957 1.377 . S
C956 C958 1.384 . S
C957 C956 1.377 . S
C957 C963 1.390 . S
C958 H949 0.930 . S
C958 C956 1.384 . S
C958 C959 1.372 . S
C959 C958 1.372 . S
C959 C960 1.400 . S
C959 C964 1.490 . S
C960 H950 0.930 . S
C960 C959 1.400 . S
C960 C963 1.386 . S
H961 C977 0.930 . S
H962 C978 0.931 . S
C963 H951 0.929 . S
C963 C957 1.390 . S
C963 C960 1.386 . S
C964 C959 1.490 . S
C964 C966 1.395 . S
C964 C967 1.403 . S
H965 C971 0.930 . S
C966 H952 0.930 . S
C966 C964 1.395 . S
C966 C969 1.403 . S
C967 C964 1.403 . S
C967 C968 1.524 . S
C967 C971 1.400 . S
C968 H953 0.960 . S
C968 H954 0.960 . S
C968 H955 0.960 . S
C968 C967 1.524 . S
C969 C966 1.403 . S
C969 C970 1.392 . S
C969 C973 1.495 . S
C970 C969 1.392 . S
C970 C971 1.385 . S
C970 C972 1.478 . S
C971 H965 0.930 . S
C971 C967 1.400 . S
C971 C970 1.385 . S
C972 C970 1.478 . S
C972 C974 1.381 . S
C972 C978 1.383 . S
C973 C969 1.495 . S
C973 H979 0.959 . S
C973 H980 0.961 . S
C973 H981 0.960 . S
C974 C972 1.381 . S
C974 C975 1.394 . S
C974 H982 0.930 . S
C975 C974 1.394 . S
C975 C976 1.383 . S
C975 H983 0.929 . S
C976 C975 1.383 . S
C976 C977 1.377 . S
C977 H961 0.930 . S
C977 C976 1.377 . S
C977 C978 1.379 . S
C978 H962 0.931 . S
C978 C972 1.383 . S
C978 C977 1.379 . S
H979 C973 0.959 . S
H980 C973 0.961 . S
H981 C973 0.960 . S
H982 C974 0.930 . S
H983 C975 0.929 . S
H984 C992 0.929 . S
H985 C994 0.930 . S
H986 C996 0.930 . S
H987 C999 0.929 . S
H988 C1002 0.930 . S
H989 C1004 0.960 . S
H990 C1004 0.960 . S
H991 C1004 0.960 . S
C992 H984 0.929 . S
C992 C993 1.377 . S
C992 C994 1.384 . S
C993 C992 1.377 . S
C993 C999 1.390 . S
C994 H985 0.930 . S
C994 C992 1.384 . S
C994 C995 1.372 . S
C995 C994 1.372 . S
C995 C996 1.400 . S
C995 C1000 1.490 . S
C996 H986 0.930 . S
C996 C995 1.400 . S
C996 C999 1.386 . S
H997 C1013 0.930 . S
H998 C1014 0.931 . S
C999 H987 0.929 . S
C999 C993 1.390 . S
C999 C996 1.386 . S
C1000 C995 1.490 . S
C1000 C1002 1.395 . S
C1000 C1003 1.403 . S
H1001 C1007 0.930 . S
C1002 H988 0.930 . S
C1002 C1000 1.395 . S
C1002 C1005 1.403 . S
C1003 C1000 1.403 . S
C1003 C1004 1.524 . S
C1003 C1007 1.400 . S
C1004 H989 0.960 . S
C1004 H990 0.960 . S
C1004 H991 0.960 . S
C1004 C1003 1.524 . S
C1005 C1002 1.403 . S
C1005 C1006 1.392 . S
C1005 C1009 1.495 . S
C1006 C1005 1.392 . S
C1006 C1007 1.385 . S
C1006 C1008 1.478 . S
C1007 H1001 0.930 . S
C1007 C1003 1.400 . S
C1007 C1006 1.385 . S
C1008 C1006 1.478 . S
C1008 C1010 1.381 . S
C1008 C1014 1.383 . S
C1009 C1005 1.495 . S
C1009 H1015 0.959 . S
C1009 H1016 0.961 . S
C1009 H1017 0.960 . S
C1010 C1008 1.381 . S
C1010 C1011 1.394 . S
C1010 H1018 0.930 . S
C1011 C1010 1.394 . S
C1011 C1012 1.383 . S
C1011 H1019 0.929 . S
C1012 C1011 1.383 . S
C1012 C1013 1.377 . S
C1013 H997 0.930 . S
C1013 C1012 1.377 . S
C1013 C1014 1.379 . S
C1014 H998 0.931 . S
C1014 C1008 1.383 . S
C1014 C1013 1.379 . S
H1015 C1009 0.959 . S
H1016 C1009 0.961 . S
H1017 C1009 0.960 . S
H1018 C1010 0.930 . S
H1019 C1011 0.929 . S
H1020 C1028 0.929 . S
H1021 C1030 0.930 . S
H1022 C1032 0.930 . S
H1023 C1035 0.929 . S
H1024 C1038 0.930 . S
H1025 C1040 0.960 . S
H1026 C1040 0.960 . S
H1027 C1040 0.960 . S
C1028 H1020 0.929 . S
C1028 C1029 1.377 . S
C1028 C1030 1.384 . S
C1029 C1028 1.377 . S
C1029 C1035 1.390 . S
C1030 H1021 0.930 . S
C1030 C1028 1.384 . S
C1030 C1031 1.372 . S
C1031 C1030 1.372 . S
C1031 C1032 1.400 . S
C1031 C1036 1.490 . S
C1032 H1022 0.930 . S
C1032 C1031 1.400 . S
C1032 C1035 1.386 . S
H1033 C1049 0.930 . S
H1034 C1050 0.931 . S
C1035 H1023 0.929 . S
C1035 C1029 1.390 . S
C1035 C1032 1.386 . S
C1036 C1031 1.490 . S
C1036 C1038 1.395 . S
C1036 C1039 1.403 . S
H1037 C1043 0.930 . S
C1038 H1024 0.930 . S
C1038 C1036 1.395 . S
C1038 C1041 1.403 . S
C1039 C1036 1.403 . S
C1039 C1040 1.524 . S
C1039 C1043 1.400 . S
C1040 H1025 0.960 . S
C1040 H1026 0.960 . S
C1040 H1027 0.960 . S
C1040 C1039 1.524 . S
C1041 C1038 1.403 . S
C1041 C1042 1.392 . S
C1041 C1045 1.495 . S
C1042 C1041 1.392 . S
C1042 C1043 1.385 . S
C1042 C1044 1.478 . S
C1043 H1037 0.930 . S
C1043 C1039 1.400 . S
C1043 C1042 1.385 . S
C1044 C1042 1.478 . S
C1044 C1046 1.381 . S
C1044 C1050 1.383 . S
C1045 C1041 1.495 . S
C1045 H1051 0.959 . S
C1045 H1052 0.961 . S
C1045 H1053 0.960 . S
C1046 C1044 1.381 . S
C1046 C1047 1.394 . S
C1046 H1054 0.930 . S
C1047 C1046 1.394 . S
C1047 C1048 1.383 . S
C1047 H1055 0.929 . S
C1048 C1047 1.383 . S
C1048 C1049 1.377 . S
C1049 H1033 0.930 . S
C1049 C1048 1.377 . S
C1049 C1050 1.379 . S
C1050 H1034 0.931 . S
C1050 C1044 1.383 . S
C1050 C1049 1.379 . S
H1051 C1045 0.959 . S
H1052 C1045 0.961 . S
H1053 C1045 0.960 . S
H1054 C1046 0.930 . S
H1055 C1047 0.929 . S
C201 C7 1.260 . S
C220 C96 1.236 . S
C237 C37 1.128 . S
C256 C109 1.105 . S
C273 C54 1.356 . S
C292 C123 1.312 . S
C328 C136 1.329 . S
C309 C87 1.335 . S
C364 C148 1.196 . S
C345 C30 1.201 . S
C381 C51 1.403 1_556 S
C400 C162 1.370 . S
C417 C84 1.166 . S
C436 C174 1.142 . S
C453 C10 1.303 . S
C472 C188 1.284 . S
C489 C59 1.226 . S
C508 C187 1.161 . S
C544 C149 1.315 . S
C525 C74 1.355 . S
C580 C161 1.239 . S
C561 C18 1.228 . S
C597 C32 1.323 . S
C616 C175 1.309 . S
C652 C110 1.372 . S
C633 C73 1.393 . S
C669 C15 1.178 . S
C688 C122 1.127 . S
C724 C135 1.248 . S
C705 C43 1.261 . S
C760 C97 1.255 . S
C741 C62 1.312 . S
C796 C170 1.277 . S
C777 C21 1.298 . S
C832 C183 1.245 . S
C813 C29 1.335 . S
C849 C52 1.365 . S
C868 C144 1.321 . S
C904 C157 1.410 . S
C885 C81 1.414 . S
C940 C118 1.305 . S
C921 C40 1.318 . S
C957 C65 1.387 1_556 S
C976 C131 1.297 . S
C1012 C92 1.341 . S
C993 C76 1.369 . S
C1048 C105 1.200 . S
C1029 C8 1.308 . S
