# Generated by pormake.
# Topology dag, (6,3)-cn, num edge types: 1
# Building blocks:
#     Node 0, Type 0, BuildingBlock: OJICUG_clean_sbu_0, # of connection points: 6
#     Node 1, Type 0, BuildingBlock: OJICUG_clean_sbu_0, # of connection points: 6
#     Node 2, Type 0, BuildingBlock: OJICUG_clean_sbu_0, # of connection points: 6
#     Node 3, Type 0, BuildingBlock: OJICUG_clean_sbu_0, # of connection points: 6
#     Node 4, Type 1, BuildingBlock: BELTOD_clean_linker_0, # of connection points: 3
#     Node 5, Type 1, BuildingBlock: BELTOD_clean_linker_0, # of connection points: 3
#     Node 6, Type 1, BuildingBlock: BELTOD_clean_linker_0, # of connection points: 3
#     Node 7, Type 1, BuildingBlock: BELTOD_clean_linker_0, # of connection points: 3
#     Node 8, Type 1, BuildingBlock: BELTOD_clean_linker_0, # of connection points: 3
#     Node 9, Type 1, BuildingBlock: BELTOD_clean_linker_0, # of connection points: 3
#     Node 10, Type 1, BuildingBlock: BELTOD_clean_linker_0, # of connection points: 3
#     Node 11, Type 1, BuildingBlock: BELTOD_clean_linker_0, # of connection points: 3
#     Edge 12, Type (0, 1), BuildingBlock: CIFDUS_clean_linker_0, # of connection points: 2
#     Edge 13, Type (0, 1), BuildingBlock: CIFDUS_clean_linker_0, # of connection points: 2
#     Edge 14, Type (0, 1), BuildingBlock: CIFDUS_clean_linker_0, # of connection points: 2
#     Edge 15, Type (0, 1), BuildingBlock: CIFDUS_clean_linker_0, # of connection points: 2
#     Edge 16, Type (0, 1), BuildingBlock: CIFDUS_clean_linker_0, # of connection points: 2
#     Edge 17, Type (0, 1), BuildingBlock: CIFDUS_clean_linker_0, # of connection points: 2
#     Edge 18, Type (0, 1), BuildingBlock: CIFDUS_clean_linker_0, # of connection points: 2
#     Edge 19, Type (0, 1), BuildingBlock: CIFDUS_clean_linker_0, # of connection points: 2
#     Edge 20, Type (0, 1), BuildingBlock: CIFDUS_clean_linker_0, # of connection points: 2
#     Edge 21, Type (0, 1), BuildingBlock: CIFDUS_clean_linker_0, # of connection points: 2
#     Edge 22, Type (0, 1), BuildingBlock: CIFDUS_clean_linker_0, # of connection points: 2
#     Edge 23, Type (0, 1), BuildingBlock: CIFDUS_clean_linker_0, # of connection points: 2
#     Edge 24, Type (0, 1), BuildingBlock: CIFDUS_clean_linker_0, # of connection points: 2
#     Edge 25, Type (0, 1), BuildingBlock: CIFDUS_clean_linker_0, # of connection points: 2
#     Edge 26, Type (0, 1), BuildingBlock: CIFDUS_clean_linker_0, # of connection points: 2
#     Edge 27, Type (0, 1), BuildingBlock: CIFDUS_clean_linker_0, # of connection points: 2
#     Edge 28, Type (0, 1), BuildingBlock: CIFDUS_clean_linker_0, # of connection points: 2
#     Edge 29, Type (0, 1), BuildingBlock: CIFDUS_clean_linker_0, # of connection points: 2
#     Edge 30, Type (0, 1), BuildingBlock: CIFDUS_clean_linker_0, # of connection points: 2
#     Edge 31, Type (0, 1), BuildingBlock: CIFDUS_clean_linker_0, # of connection points: 2
#     Edge 32, Type (0, 1), BuildingBlock: CIFDUS_clean_linker_0, # of connection points: 2
#     Edge 33, Type (0, 1), BuildingBlock: CIFDUS_clean_linker_0, # of connection points: 2
#     Edge 34, Type (0, 1), BuildingBlock: CIFDUS_clean_linker_0, # of connection points: 2
#     Edge 35, Type (0, 1), BuildingBlock: CIFDUS_clean_linker_0, # of connection points: 2
# Relax obj value: 0.237
# Max RMSD: 0.193
# Mean RMSD: 0.160
data_MOF--net-dag--node1-OJICUG_clean_sbu_0--node2-BELTOD_clean_linker_0--edge1-CIFDUS_clean_linker_0
_symmetry_space_group_name_H-M    P1
_symmetry_Int_Tables_number       1
_symmetry_cell_setting            triclinic
loop_
_symmetry_equiv_pos_as_xyz
'x, y, z'
_cell_length_a     35.931511
_cell_length_b     38.593076
_cell_length_c     37.447015
_cell_angle_alpha  94.990044
_cell_angle_beta   90.276749
_cell_angle_gamma 90.198925
loop_
_atom_site_label
_atom_site_type_symbol
_atom_site_fract_x
_atom_site_fract_y
_atom_site_fract_z
_atom_type_partial_charge
Sc0 Sc 0.12148 0.88783 0.02349 0.0
Sc1 Sc 0.13004 0.79849 0.03187 0.0
Sc2 Sc 0.19244 0.8581 0.07818 0.0
O3 O 0.1481 0.8481 0.04455 0.0
C4 C 0.20554 0.91432 0.02185 0.0
C5 C 0.12234 0.83118 0.9567 0.0
C6 C 0.21869 0.79115 0.02873 0.0
C7 C 0.05328 0.83863 0.04088 0.0
C8 C 0.13527 0.91796 0.10476 0.0
C9 C 0.15176 0.79629 0.11426 0.0
O10 O 0.17185 0.91366 0.01168 0.0
O11 O 0.12286 0.80557 0.97583 0.0
O12 O 0.22542 0.81818 0.0498 0.0
O13 O 0.06732 0.86708 0.03267 0.0
O14 O 0.16307 0.89856 0.10975 0.0
O15 O 0.13462 0.78489 0.08594 0.0
O16 O 0.11757 0.91694 0.07514 0.0
O17 O 0.07252 0.81132 0.04327 0.0
O18 O 0.17357 0.82236 0.11549 0.0
O19 O 0.12308 0.86262 0.97001 0.0
O20 O 0.21765 0.89565 0.04572 0.0
O21 O 0.18589 0.7811 0.01973 0.0
Sc22 Sc 0.68422 0.62548 0.47932 0.0
Sc23 Sc 0.62201 0.69317 0.50745 0.0
Sc24 Sc 0.60042 0.60698 0.52102 0.0
O25 O 0.6358 0.642 0.50268 0.0
C26 C 0.62437 0.56992 0.44634 0.0
C27 C 0.6591 0.68418 0.42974 0.0
C28 C 0.54362 0.65983 0.48912 0.0
C29 C 0.7086 0.69545 0.52597 0.0
C30 C 0.67904 0.57396 0.53994 0.0
C31 C 0.59788 0.66703 0.58308 0.0
O32 O 0.65712 0.58273 0.44816 0.0
O33 O 0.64037 0.70114 0.45407 0.0
O34 O 0.55108 0.633 0.50506 0.0
O35 O 0.71576 0.66677 0.50793 0.0
O36 O 0.64377 0.57523 0.54017 0.0
O37 O 0.60149 0.69099 0.56191 0.0
O38 O 0.69866 0.59278 0.52112 0.0
O39 O 0.67584 0.70772 0.52951 0.0
O40 O 0.59987 0.63483 0.57286 0.0
O41 O 0.67555 0.65589 0.43465 0.0
O42 O 0.5994 0.57765 0.46962 0.0
O43 O 0.56749 0.68328 0.48446 0.0
Sc44 Sc 0.88094 0.23516 0.03294 0.0
Sc45 Sc 0.81388 0.17298 0.99854 0.0
Sc46 Sc 0.89326 0.14568 0.04251 0.0
O47 O 0.86277 0.18473 0.02466 0.0
C48 C 0.95772 0.1953 0.01712 0.0
C49 C 0.8486 0.23159 0.95308 0.0
C50 C 0.86637 0.11196 0.96594 0.0
C51 C 0.79305 0.24225 0.04668 0.0
C52 C 0.89985 0.20448 0.10748 0.0
C53 C 0.81073 0.12074 0.05912 0.0
O54 O 0.93785 0.22258 0.01718 0.0
O55 O 0.82725 0.20599 0.95737 0.0
O56 O 0.88987 0.11466 0.9916 0.0
O57 O 0.82624 0.25388 0.05037 0.0
O58 O 0.89928 0.17293 0.09459 0.0
O59 O 0.79444 0.13832 0.03666 0.0
O60 O 0.89488 0.23011 0.08875 0.0
O61 O 0.78517 0.21374 0.02878 0.0
O62 O 0.84576 0.12061 0.06331 0.0
O63 O 0.86978 0.24526 0.97783 0.0
O64 O 0.94493 0.1664 0.02549 0.0
O65 O 0.83745 0.13072 0.96542 0.0
Sc66 Sc 0.4 0.35951 0.53575 0.0
Sc67 Sc 0.32277 0.33314 0.5832 0.0
Sc68 Sc 0.39046 0.27146 0.55205 0.0
O69 O 0.37108 0.32126 0.55705 0.0
C70 C 0.40473 0.29825 0.47438 0.0
C71 C 0.31672 0.38433 0.52234 0.0
C72 C 0.30283 0.26145 0.53803 0.0
C73 C 0.37814 0.39488 0.61231 0.0
C74 C 0.46653 0.31244 0.56243 0.0
C75 C 0.35838 0.27782 0.63179 0.0
O76 O 0.40091 0.3304 0.48427 0.0
O77 O 0.30148 0.36444 0.54313 0.0
O78 O 0.33644 0.25125 0.53485 0.0
O79 O 0.4006 0.39051 0.58613 0.0
O80 O 0.44655 0.28625 0.5681 0.0
O81 O 0.33714 0.30296 0.62618 0.0
O82 O 0.45334 0.33913 0.54939 0.0
O83 O 0.34802 0.37748 0.61402 0.0
O84 O 0.37949 0.26327 0.60776 0.0
O85 O 0.35167 0.38638 0.51858 0.0
O86 O 0.40435 0.27438 0.49588 0.0
O87 O 0.2938 0.29008 0.55514 0.0
P88 P 0.0346 0.10922 0.37437 0.0
H89 H 0.05911 0.03652 0.37233 0.0
H90 H 0.08499 0.9967 0.32427 0.0
H91 H 0.08502 0.07973 0.25391 0.0
H92 H 0.05881 0.11904 0.3017 0.0
H93 H 0.03319 0.14802 0.44465 0.0
H94 H 0.08045 0.18196 0.47984 0.0
H95 H 0.15791 0.16447 0.39226 0.0
H96 H 0.11091 0.13037 0.35759 0.0
H97 H 0.96555 0.0885 0.33937 0.0
H98 H 0.03059 0.18248 0.35702 0.0
O99 O 0.01242 0.08563 0.40298 0.0
H100 H 0.92659 0.11553 0.29681 0.0
H101 H 0.99028 0.21086 0.31563 0.0
C102 C 0.05634 0.08046 0.3403 0.0
C103 C 0.06477 0.04609 0.34657 0.0
C104 C 0.07975 0.02345 0.31916 0.0
C105 C 0.08659 0.03498 0.28516 0.0
C106 C 0.0793 0.06986 0.27954 0.0
C107 C 0.0644 0.09238 0.30688 0.0
C108 C 0.06871 0.13617 0.39881 0.0
C109 C 0.06035 0.15158 0.43307 0.0
C110 C 0.08731 0.17109 0.45306 0.0
C111 C 0.12307 0.17555 0.43898 0.0
C112 C 0.1309 0.16089 0.40415 0.0
C113 C 0.1039 0.14149 0.38419 0.0
C114 C 0.00067 0.13353 0.35158 0.0
C115 C 0.97047 0.11554 0.3351 0.0
C116 C 0.94802 0.13125 0.31075 0.0
C117 C 0.95511 0.16557 0.30248 0.0
C118 C 0.98424 0.18426 0.32081 0.0
C119 C 0.00709 0.16822 0.34489 0.0
P120 P 0.46352 0.60591 0.86814 0.0
H121 H 0.53933 0.63499 0.86765 0.0
H122 H 0.57673 0.65629 0.81933 0.0
H123 H 0.48123 0.64608 0.74874 0.0
H124 H 0.44466 0.6237 0.79619 0.0
H125 H 0.43798 0.61708 0.94228 0.0
H126 H 0.38686 0.65117 0.97031 0.0
H127 H 0.35859 0.68765 0.86787 0.0
H128 H 0.40957 0.65398 0.84013 0.0
H129 H 0.49839 0.54514 0.8324 0.0
H130 H 0.38653 0.58343 0.84862 0.0
O131 O 0.49275 0.59345 0.8993 0.0
H132 H 0.4751 0.49899 0.78913 0.0
H133 H 0.36321 0.53764 0.80504 0.0
C134 C 0.48909 0.62804 0.83563 0.0
C135 C 0.52627 0.63803 0.842 0.0
C136 C 0.54759 0.65021 0.81446 0.0
C137 C 0.53172 0.65311 0.78047 0.0
C138 C 0.49395 0.64483 0.77489 0.0
C139 C 0.47297 0.63207 0.8021 0.0
C140 C 0.42797 0.63327 0.88916 0.0
C141 C 0.42113 0.63279 0.92594 0.0
C142 C 0.39195 0.65224 0.94194 0.0
C143 C 0.36882 0.67193 0.92118 0.0
C144 C 0.37587 0.67247 0.8844 0.0
C145 C 0.40527 0.6534 0.86857 0.0
C146 C 0.44429 0.56771 0.84375 0.0
C147 C 0.46872 0.54311 0.82731 0.0
C148 C 0.45543 0.51698 0.80236 0.0
C149 C 0.4174 0.51503 0.79341 0.0
C150 C 0.39263 0.53844 0.81153 0.0
C151 C 0.40601 0.56474 0.83642 0.0
P152 P 0.76171 0.88158 0.2128 0.0
H153 H 0.71794 0.94364 0.23277 0.0
H154 H 0.70119 0.99203 0.19796 0.0
H155 H 0.73234 0.93085 0.10067 0.0
H156 H 0.74814 0.8824 0.13548 0.0
H157 H 0.78428 0.8196 0.24473 0.0
H158 H 0.75096 0.77949 0.27952 0.0
H159 H 0.64725 0.82972 0.25651 0.0
H160 H 0.68128 0.87034 0.22167 0.0
H161 H 0.8301 0.9149 0.19428 0.0
H162 H 0.77855 0.81416 0.1721 0.0
O163 O 0.77871 0.90553 0.24848 0.0
H164 H 0.88327 0.89574 0.15746 0.0
H165 H 0.83246 0.7945 0.13568 0.0
C166 C 0.73553 0.91005 0.18676 0.0
C167 C 0.71977 0.94018 0.20382 0.0
C168 C 0.71021 0.96781 0.18391 0.0
C169 C 0.71646 0.96555 0.14673 0.0
C170 C 0.72732 0.93347 0.12927 0.0
C171 C 0.73671 0.90579 0.14923 0.0
C172 C 0.73517 0.84738 0.22995 0.0
C173 C 0.75422 0.82121 0.246 0.0
C174 C 0.73503 0.7982 0.26591 0.0
C175 C 0.69635 0.80125 0.27064 0.0
C176 C 0.67705 0.82677 0.25337 0.0
C177 C 0.69641 0.84981 0.23325 0.0
C178 C 0.80096 0.86568 0.18672 0.0
C179 C 0.83046 0.88851 0.18181 0.0
C180 C 0.86065 0.87762 0.16057 0.0
C181 C 0.86188 0.84363 0.14384 0.0
C182 C 0.83223 0.82071 0.14862 0.0
C183 C 0.8016 0.83188 0.16952 0.0
P184 P 0.80527 0.30475 0.63489 0.0
H185 H 0.8369 0.34635 0.58071 0.0
H186 H 0.82554 0.40608 0.56738 0.0
H187 H 0.76432 0.42424 0.66636 0.0
H188 H 0.77367 0.3638 0.67812 0.0
H189 H 0.80809 0.23759 0.66324 0.0
H190 H 0.81708 0.2197 0.72355 0.0
H191 H 0.84015 0.32638 0.76253 0.0
H192 H 0.83317 0.34372 0.70177 0.0
H193 H 0.76194 0.29639 0.56889 0.0
H194 H 0.74246 0.29026 0.68176 0.0
O195 O 0.83218 0.2839 0.60388 0.0
H196 H 0.6951 0.28914 0.55707 0.0
H197 H 0.67593 0.28235 0.66996 0.0
C198 C 0.80677 0.3508 0.63078 0.0
C199 C 0.82195 0.36346 0.60005 0.0
C200 C 0.81552 0.39779 0.59251 0.0
C201 C 0.79372 0.42001 0.61564 0.0
C202 C 0.78069 0.40774 0.64763 0.0
C203 C 0.78655 0.37329 0.65474 0.0
C204 C 0.81888 0.29206 0.67818 0.0
C205 C 0.81577 0.25701 0.68467 0.0
C206 C 0.82058 0.2469 0.71923 0.0
C207 C 0.82838 0.27176 0.74805 0.0
C208 C 0.83399 0.3066 0.74099 0.0
C209 C 0.82949 0.31664 0.70623 0.0
C210 C 0.75736 0.29295 0.62601 0.0
C211 C 0.74345 0.29253 0.59097 0.0
C212 C 0.70529 0.28865 0.58429 0.0
C213 C 0.68042 0.28503 0.61261 0.0
C214 C 0.69455 0.28452 0.6476 0.0
C215 C 0.73266 0.28893 0.6543 0.0
P216 P 0.50282 0.37188 0.18972 0.0
H217 H 0.50111 0.44855 0.19544 0.0
H218 H 0.51955 0.49231 0.24402 0.0
H219 H 0.5562 0.41044 0.30732 0.0
H220 H 0.53714 0.36703 0.25942 0.0
H221 H 0.50896 0.32612 0.12399 0.0
H222 H 0.56179 0.29762 0.09287 0.0
H223 H 0.63526 0.33991 0.17762 0.0
H224 H 0.58312 0.36931 0.20742 0.0
H225 H 0.42943 0.38188 0.21924 0.0
H226 H 0.51336 0.30221 0.21512 0.0
O227 O 0.47738 0.39002 0.159 0.0
H228 H 0.39796 0.35506 0.26679 0.0
H229 H 0.48075 0.27357 0.26161 0.0
C230 C 0.51806 0.40462 0.22379 0.0
C231 C 0.51323 0.44009 0.21971 0.0
C232 C 0.52361 0.46499 0.24742 0.0
C233 C 0.53945 0.45458 0.27914 0.0
C234 C 0.54444 0.41907 0.28293 0.0
C235 C 0.53348 0.39431 0.25563 0.0
C236 C 0.54188 0.34993 0.168 0.0
C237 C 0.5365 0.32927 0.13576 0.0
C238 C 0.56673 0.31286 0.11813 0.0
C239 C 0.60289 0.31656 0.13269 0.0
C240 C 0.60799 0.337 0.16526 0.0
C241 C 0.57784 0.35358 0.18266 0.0
C242 C 0.47352 0.34395 0.21346 0.0
C243 C 0.44005 0.35752 0.2274 0.0
C244 C 0.42198 0.34195 0.25476 0.0
C245 C 0.4369 0.31217 0.26867 0.0
C246 C 0.46882 0.29688 0.25226 0.0
C247 C 0.48725 0.31291 0.22519 0.0
P248 P 0.29552 0.20649 0.94687 0.0
H249 H 0.31095 0.16049 0.00294 0.0
H250 H 0.29867 0.09889 0.00698 0.0
H251 H 0.26691 0.08835 0.89489 0.0
H252 H 0.27568 0.15049 0.89236 0.0
H253 H 0.28819 0.27274 0.91624 0.0
H254 H 0.30152 0.29119 0.85699 0.0
H255 H 0.35119 0.19109 0.82656 0.0
H256 H 0.34021 0.17396 0.88677 0.0
H257 H 0.25258 0.21779 0.0126 0.0
H258 H 0.23251 0.21829 0.89901 0.0
O259 O 0.32248 0.22429 0.97999 0.0
H260 H 0.18581 0.22517 0.02379 0.0
H261 H 0.16596 0.22667 0.91019 0.0
C262 C 0.29542 0.15991 0.94704 0.0
C263 C 0.30217 0.14469 0.97905 0.0
C264 C 0.2953 0.10926 0.98122 0.0
C265 C 0.28169 0.08832 0.95126 0.0
C266 C 0.27674 0.10356 0.91874 0.0
C267 C 0.28252 0.13912 0.91698 0.0
C268 C 0.31128 0.22131 0.9052 0.0
C269 C 0.30236 0.25495 0.89692 0.0
C270 C 0.30978 0.26534 0.86291 0.0
C271 C 0.32617 0.24215 0.83647 0.0
C272 C 0.33814 0.20952 0.84602 0.0
C273 C 0.33126 0.19942 0.88035 0.0
C274 C 0.24773 0.21859 0.95511 0.0
C275 C 0.23401 0.22057 0.99018 0.0
C276 C 0.19588 0.22459 0.99652 0.0
C277 C 0.17086 0.22679 0.96784 0.0
C278 C 0.18475 0.2257 0.93279 0.0
C279 C 0.22283 0.22105 0.92643 0.0
P280 P 0.26507 0.58314 0.30327 0.0
H281 H 0.25208 0.50863 0.30604 0.0
H282 H 0.24699 0.47509 0.35789 0.0
H283 H 0.22788 0.56967 0.42561 0.0
H284 H 0.23324 0.60319 0.37355 0.0
H285 H 0.21928 0.58954 0.24 0.0
H286 H 0.18824 0.63893 0.21711 0.0
H287 H 0.21332 0.70137 0.31588 0.0
H288 H 0.24517 0.65165 0.33839 0.0
H289 H 0.31722 0.55601 0.35372 0.0
H290 H 0.30887 0.64704 0.29488 0.0
O291 O 0.27591 0.55699 0.26699 0.0
H292 H 0.37211 0.58026 0.38469 0.0
H293 H 0.36388 0.67195 0.32666 0.0
C294 C 0.24334 0.55844 0.33598 0.0
C295 C 0.24492 0.52205 0.33166 0.0
C296 C 0.24193 0.50283 0.36142 0.0
C297 C 0.23772 0.51988 0.39587 0.0
C298 C 0.23152 0.55595 0.39937 0.0
C299 C 0.2343 0.57512 0.36955 0.0
C300 C 0.23528 0.61724 0.29046 0.0
C301 C 0.21752 0.61362 0.25703 0.0
C302 C 0.1994 0.64189 0.24412 0.0
C303 C 0.19859 0.67424 0.26459 0.0
C304 C 0.21391 0.67692 0.29934 0.0
C305 C 0.23197 0.64849 0.31227 0.0
C306 C 0.30781 0.60039 0.32316 0.0
C307 C 0.32687 0.58143 0.34769 0.0
C308 C 0.35829 0.5954 0.36553 0.0
C309 C 0.37164 0.6285 0.35892 0.0
C310 C 0.35392 0.64659 0.33265 0.0
C311 C 0.32231 0.63248 0.3147 0.0
P312 P 0.90094 0.85755 0.757 0.0
H313 H 0.83874 0.87757 0.80432 0.0
H314 H 0.82103 0.93376 0.83445 0.0
H315 H 0.90094 0.98513 0.77125 0.0
H316 H 0.91768 0.92881 0.73998 0.0
H317 H 0.89176 0.78723 0.72431 0.0
H318 H 0.85765 0.76344 0.67147 0.0
H319 H 0.83899 0.86753 0.64097 0.0
H320 H 0.87272 0.89121 0.69454 0.0
H321 H 0.95101 0.90608 0.79788 0.0
H322 H 0.96073 0.81192 0.72743 0.0
O323 O 0.88766 0.82963 0.78616 0.0
H324 H 0.0157 0.9032 0.81322 0.0
H325 H 0.02642 0.80771 0.74499 0.0
C326 C 0.88042 0.89903 0.77084 0.0
C327 C 0.8517 0.90095 0.7961 0.0
C328 C 0.84147 0.93303 0.81321 0.0
C329 C 0.86011 0.96344 0.8054 0.0
C330 C 0.88643 0.96186 0.77775 0.0
C331 C 0.89594 0.9298 0.75997 0.0
C332 C 0.88404 0.84093 0.7137 0.0
C333 C 0.88101 0.80491 0.70587 0.0
C334 C 0.86167 0.79134 0.67544 0.0
C335 C 0.84519 0.81363 0.6522 0.0
C336 C 0.85081 0.84973 0.65873 0.0
C337 C 0.87021 0.86329 0.68929 0.0
C338 C 0.95091 0.85997 0.76026 0.0
C339 C 0.96733 0.88571 0.78402 0.0
C340 C 0.00476 0.88395 0.79305 0.0
C341 C 0.02639 0.85548 0.77991 0.0
C342 C 0.0105 0.83024 0.75501 0.0
C343 C 0.97298 0.83263 0.74506 0.0
H344 H 0.16042 0.9236 0.17395 0.0
H345 H 0.08108 0.96744 0.10353 0.0
H346 H 0.05933 0.00721 0.15304 0.0
H347 H 0.06217 0.02923 0.21629 0.0
H348 H 0.14128 0.98588 0.28696 0.0
H349 H 0.16343 0.94591 0.23738 0.0
C350 C 0.13846 0.94192 0.16932 0.0
C351 C 0.12254 0.94247 0.13492 0.0
C352 C 0.12588 0.9647 0.19799 0.0
C353 C 0.09392 0.96632 0.12963 0.0
C354 C 0.08141 0.98913 0.15796 0.0
C355 C 0.08455 0.01129 0.22077 0.0
C356 C 0.10018 0.01065 0.25521 0.0
C357 C 0.09716 0.98852 0.1922 0.0
C358 C 0.12859 0.98672 0.26076 0.0
C359 C 0.14138 0.96399 0.23239 0.0
H360 H 0.62531 0.63756 0.6401 0.0
H361 H 0.54942 0.71656 0.61055 0.0
H362 H 0.52486 0.7228 0.67175 0.0
H363 H 0.51916 0.69935 0.73087 0.0
H364 H 0.59586 0.62066 0.75986 0.0
H365 H 0.62659 0.62121 0.70192 0.0
C366 C 0.60391 0.65663 0.64735 0.0
C367 C 0.58872 0.67623 0.62099 0.0
C368 C 0.59003 0.65997 0.68237 0.0
C369 C 0.56143 0.70122 0.63055 0.0
C370 C 0.54725 0.70459 0.66541 0.0
C371 C 0.54315 0.68296 0.72469 0.0
C372 C 0.55507 0.65977 0.74934 0.0
C373 C 0.56045 0.68318 0.69115 0.0
C374 C 0.58634 0.63884 0.74135 0.0
C375 C 0.60368 0.6389 0.70811 0.0
H376 H 0.75373 0.0766 0.03889 0.0
H377 H 0.81925 0.11687 0.13011 0.0
H378 H 0.78985 0.07577 0.16724 0.0
H379 H 0.75294 0.02359 0.17139 0.0
H380 H 0.69158 0.97854 0.07948 0.0
H381 H 0.71156 0.02643 0.04492 0.0
C382 C 0.76082 0.07671 0.06709 0.0
C383 C 0.78861 0.09943 0.08188 0.0
C384 C 0.74484 0.052 0.08795 0.0
C385 C 0.79808 0.09931 0.11826 0.0
C386 C 0.78132 0.07586 0.13944 0.0
C387 C 0.74281 0.0248 0.14419 0.0
C388 C 0.72064 -0.00232 0.12806 0.0
C389 C 0.75564 0.05139 0.12427 0.0
C390 C 0.70866 -0.00082 0.09244 0.0
C391 C 0.72024 0.02643 0.07268 0.0
H392 H 0.50569 0.26616 0.59955 0.0
H393 H 0.51908 0.35738 0.54151 0.0
H394 H 0.58594 0.3562 0.55119 0.0
H395 H 0.64093 0.32961 0.57585 0.0
H396 H 0.62873 0.23977 0.63561 0.0
H397 H 0.56122 0.24008 0.62558 0.0
C398 C 0.52322 0.28578 0.58904 0.0
C399 C 0.50716 0.31176 0.56977 0.0
C400 C 0.56195 0.28518 0.59491 0.0
C401 C 0.53043 0.33711 0.55656 0.0
C402 C 0.56881 0.33644 0.56196 0.0
C403 C 0.62349 0.3099 0.58636 0.0
C404 C 0.6397 0.28448 0.60606 0.0
C405 C 0.58487 0.31058 0.58095 0.0
C406 C 0.61677 0.25957 0.62029 0.0
C407 C 0.57825 0.25974 0.61454 0.0
H408 H 0.5581 0.56515 0.41193 0.0
H409 H 0.6689 0.52238 0.4098 0.0
H410 H 0.65251 0.48327 0.35705 0.0
H411 H 0.60629 0.46073 0.31224 0.0
H412 H 0.49661 0.50561 0.3123 0.0
H413 H 0.513 0.54494 0.365 0.0
C414 C 0.57852 0.54707 0.39999 0.0
C415 C 0.61444 0.54615 0.41486 0.0
C416 C 0.56919 0.52539 0.36924 0.0
C417 C 0.64102 0.52332 0.39878 0.0
C418 C 0.63168 0.50103 0.36869 0.0
C419 C 0.58613 0.47927 0.32381 0.0
C420 C 0.55033 0.48034 0.30878 0.0
C421 C 0.59585 0.50181 0.35378 0.0
C422 C 0.52441 0.50461 0.32349 0.0
C423 C 0.53369 0.52686 0.35367 0.0
H424 H 0.99587 0.24353 0.98125 0.0
H425 H 0.01091 0.15104 0.03689 0.0
H426 H 0.07759 0.1535 0.02751 0.0
H427 H 0.13205 0.1814 0.00375 0.0
H428 H 0.11869 0.27185 0.94525 0.0
H429 H 0.05121 0.27076 0.95542 0.0
C430 C 0.01378 0.22395 0.99125 0.0
C431 C 0.9982 0.19715 0.00971 0.0
C432 C 0.0525 0.22517 0.98536 0.0
C433 C 0.02189 0.17183 0.02232 0.0
C434 C 0.06018 0.17325 0.01714 0.0
C435 C 0.11434 0.20104 0.99351 0.0
C436 C 0.13018 0.22691 0.97424 0.0
C437 C 0.07579 0.19977 -0.0012 0.0
C438 C 0.10697 0.25176 0.96033 0.0
C439 C 0.06847 0.25112 0.96615 0.0
H440 H 0.32587 0.45249 0.51612 0.0
H441 H 0.25486 0.36534 0.4829 0.0
H442 H 0.22035 0.40106 0.44295 0.0
H443 H 0.21516 0.45567 0.41313 0.0
H444 H 0.28585 0.54273 0.44855 0.0
H445 H 0.31493 0.50887 0.49279 0.0
C446 C 0.30255 0.44154 0.50036 0.0
C447 C 0.29313 0.40643 0.50174 0.0
C448 C 0.28269 0.46227 0.47809 0.0
C449 C 0.26254 0.39241 0.48193 0.0
C450 C 0.24294 0.41277 0.45911 0.0
C451 C 0.23636 0.46734 0.43111 0.0
C452 C 0.24836 0.50159 0.42752 0.0
C453 C 0.25338 0.44754 0.45635 0.0
C454 C 0.27574 0.51658 0.45106 0.0
C455 C 0.29277 0.4971 0.47609 0.0
H456 H 0.13605 0.87471 0.90494 0.0
H457 H 0.09427 0.77217 0.92073 0.0
H458 H 0.06873 0.76672 0.8601 0.0
H459 H 0.04544 0.79687 0.80965 0.0
H460 H 0.08453 0.90037 0.795 0.0
H461 H 0.12504 0.8992 0.84746 0.0
C462 C 0.12211 0.85085 0.8948 0.0
C463 C 0.11596 0.8244 0.91768 0.0
C464 C 0.10685 0.84813 0.86012 0.0
C465 C 0.09883 0.79321 0.90388 0.0
C466 C 0.08407 0.79009 0.86921 0.0
C467 C 0.06419 0.81848 0.81687 0.0
C468 C 0.06142 0.84899 0.79912 0.0
C469 C 0.08607 0.81819 0.84795 0.0
C470 C 0.08589 0.8768 0.80869 0.0
C471 C 0.10868 0.87629 0.83893 0.0
H472 H 0.81504 0.08669 0.91702 0.0
H473 H 0.93082 0.07789 0.94628 0.0
H474 H 0.93972 0.03355 0.89636 0.0
H475 H 0.91374 0.99518 0.8464 0.0
H476 H 0.79719 0.00104 0.82017 0.0
H477 H 0.78941 0.04924 0.86669 0.0
C478 C 0.84233 0.0753 0.91238 0.0
C479 C 0.87223 0.08557 0.93541 0.0
C480 C 0.84707 0.04949 0.88409 0.0
C481 C 0.90729 0.07029 0.92913 0.0
C482 C 0.91243 0.04504 0.90053 0.0
C483 C 0.88686 0.00759 0.85053 0.0
C484 C 0.85613 0.99523 0.82981 0.0
C485 C 0.88244 0.03424 0.87807 0.0
C486 C 0.82117 0.01061 0.83574 0.0
C487 C 0.81675 0.03791 0.86237 0.0
H488 H 0.35931 0.30438 0.41769 0.0
H489 H 0.46956 0.27328 0.4468 0.0
H490 H 0.48866 0.2706 0.38388 0.0
H491 H 0.47618 0.28577 0.32286 0.0
H492 H 0.36447 0.31286 0.2926 0.0
H493 H 0.34366 0.30825 0.35384 0.0
C494 C 0.38717 0.29612 0.40993 0.0
C495 C 0.41315 0.28912 0.43643 0.0
C496 C 0.39779 0.29446 0.37377 0.0
C497 C 0.44919 0.27851 0.42653 0.0
C498 C 0.46012 0.27723 0.39068 0.0
C499 C 0.44697 0.2895 0.32905 0.0
C500 C 0.42228 0.30069 0.30305 0.0
C501 C 0.43497 0.2863 0.36426 0.0
C502 C 0.38454 0.30546 0.31219 0.0
C503 C 0.37249 0.30267 0.34724 0.0
H504 H 0.19125 0.95087 0.96512 0.0
H505 H 0.27488 0.93712 0.04578 0.0
H506 H 0.30886 0.98784 0.02766 0.0
H507 H 0.31047 0.03989 0.9936 0.0
H508 H 0.22179 0.05532 0.91811 0.0
H509 H 0.19486 -0.00023 0.92905 0.0
C510 C 0.21712 0.95863 0.97864 0.0
C511 C 0.2301 0.94054 0.00723 0.0
C512 C 0.23565 0.9883 0.96902 0.0
C513 C 0.26409 0.95067 0.02383 0.0
C514 C 0.2834 0.97982 0.01362 0.0
C515 C 0.28528 0.03114 0.9795 0.0
C516 C 0.26837 0.05219 0.95507 0.0
C517 C 0.2687 -0.00046 0.98707 0.0
C518 C 0.23612 0.03979 0.93652 0.0
C519 C 0.22027 0.00803 0.94307 0.0
H520 H 0.52649 0.68019 0.42349 0.0
H521 H 0.47816 0.64118 0.51736 0.0
H522 H 0.4187 0.63202 0.48606 0.0
H523 H 0.38308 0.6285 0.43025 0.0
H524 H 0.43231 0.66262 0.33446 0.0
H525 H 0.48856 0.68096 0.3683 0.0
C526 C 0.50259 0.67056 0.43726 0.0
C527 C 0.50649 0.66134 0.47259 0.0
C528 C 0.46889 0.66406 0.4186 0.0
C529 C 0.47565 0.64836 0.49011 0.0
C530 C 0.44177 0.64298 0.4722 0.0
C531 C 0.4061 0.64004 0.41679 0.0
C532 C 0.40385 0.64363 0.37982 0.0
C533 C 0.43852 0.64956 0.43611 0.0
C534 C 0.43342 0.65952 0.36291 0.0
C535 C 0.46564 0.66981 0.3822 0.0
H536 H 0.34348 0.40704 0.6772 0.0
H537 H 0.43683 0.44008 0.61595 0.0
H538 H 0.4569 0.47956 0.66652 0.0
H539 H 0.44889 0.50426 0.72818 0.0
H540 H 0.35613 0.47221 0.79024 0.0
H541 H 0.33477 0.43294 0.73919 0.0
C542 C 0.36807 0.42302 0.67479 0.0
C543 C 0.38859 0.42038 0.64269 0.0
C544 C 0.3797 0.44575 0.70416 0.0
C545 C 0.42046 0.44134 0.64024 0.0
C546 C 0.43207 0.46397 0.6692 0.0
C547 C 0.42421 0.48838 0.73068 0.0
C548 C 0.40437 0.49075 0.76302 0.0
C549 C 0.41212 0.46615 0.70133 0.0
C550 C 0.37188 0.47076 0.76557 0.0
C551 C 0.35973 0.44831 0.73644 0.0
H552 H 0.0161 0.79323 0.08037 0.0
H553 H 0.00084 0.88494 0.02356 0.0
H554 H 0.93835 0.89218 0.04758 0.0
H555 H 0.89099 0.87676 0.09005 0.0
H556 H 0.90556 0.78631 0.14836 0.0
H557 H 0.965 0.77386 0.11801 0.0
C558 C 0.99881 0.81437 0.0727 0.0
C559 C 0.01342 0.83882 0.05066 0.0
C560 C 0.96288 0.81879 0.08712 0.0
C561 C 0.99058 0.86605 0.04092 0.0
C562 C 0.95479 0.87026 0.05465 0.0
C563 C 0.90705 0.8541 0.09574 0.0
C564 C 0.89441 0.83274 0.12164 0.0
C565 C 0.94118 0.84751 0.07866 0.0
C566 C 0.91493 0.8031 0.12847 0.0
C567 C 0.94895 0.79615 0.1113 0.0
H568 H 0.75259 0.55512 0.54018 0.0
H569 H 0.64626 0.53416 0.58754 0.0
H570 H 0.67338 0.48678 0.61725 0.0
H571 H 0.72497 0.44778 0.62508 0.0
H572 H 0.8321 0.46786 0.57926 0.0
H573 H 0.80673 0.51894 0.55343 0.0
C574 C 0.73547 0.54048 0.55736 0.0
C575 C 0.69727 0.548 0.56109 0.0
C576 C 0.7512 0.51286 0.57436 0.0
C577 C 0.6756 0.5288 0.58368 0.0
C578 C 0.69107 0.50161 0.60077 0.0
C579 C 0.74326 0.46378 0.61037 0.0
C580 C 0.78043 0.45382 0.60413 0.0
C581 C 0.72856 0.49294 0.59565 0.0
C582 C 0.80323 0.4746 0.58412 0.0
C583 C 0.78877 0.50388 0.56942 0.0
H584 H 0.86201 0.18255 0.16314 0.0
H585 H 0.9602 0.23886 0.13632 0.0
H586 H 0.98478 0.23562 0.19712 0.0
H587 H 0.98239 0.20815 0.2538 0.0
H588 H 0.88207 0.15499 0.282 0.0
H589 H 0.85415 0.16577 0.22465 0.0
C590 C 0.88823 0.19504 0.17112 0.0
C591 C 0.90944 0.21084 0.14564 0.0
C592 C 0.90206 0.19303 0.20598 0.0
C593 C 0.94339 0.22686 0.15583 0.0
C594 C 0.95754 0.22469 0.19042 0.0
C595 C 0.95395 0.1999 0.24817 0.0
C596 C 0.93496 0.17972 0.27197 0.0
C597 C 0.93772 0.20664 0.21527 0.0
C598 C 0.89804 0.16938 0.26375 0.0
C599 C 0.88187 0.1757 0.23099 0.0
H600 H 0.19375 0.80323 0.17527 0.0
H601 H 0.10255 0.74405 0.12478 0.0
H602 H 0.10475 0.70401 0.17154 0.0
H603 H 0.13858 0.68092 0.22116 0.0
H604 H 0.23257 0.73781 0.26886 0.0
H605 H 0.22229 0.78416 0.22976 0.0
C606 C 0.17387 0.78198 0.17482 0.0
C607 C 0.14864 0.77623 0.14606 0.0
C608 C 0.1758 0.75852 0.20134 0.0
C609 C 0.1228 0.74875 0.1462 0.0
C610 C 0.12399 0.72579 0.17295 0.0
C611 C 0.15645 0.70373 0.22333 0.0
C612 C 0.18662 0.7056 0.24745 0.0
C613 C 0.15136 0.72962 0.19976 0.0
C614 C 0.20903 0.73569 0.25061 0.0
C615 C 0.20347 0.76207 0.22793 0.0
H616 H 0.70702 0.761 0.55919 0.0
H617 H 0.78054 0.67409 0.53371 0.0
H618 H 0.83075 0.70485 0.56721 0.0
H619 H 0.8524 0.75453 0.60738 0.0
H620 H 0.77793 0.84019 0.6347 0.0
H621 H 0.72996 0.81222 0.59591 0.0
C622 C 0.73404 0.74877 0.56079 0.0
C623 C 0.73975 0.71506 0.54431 0.0
C624 C 0.76279 0.76649 0.58024 0.0
C625 C 0.77519 0.69991 0.5463 0.0
C626 C 0.80398 0.71748 0.56547 0.0
C627 C 0.82575 0.76716 0.60466 0.0
C628 C 0.81874 0.79928 0.62411 0.0
C629 C 0.79787 0.75049 0.58309 0.0
C630 C 0.7843 0.81565 0.61976 0.0
C631 C 0.75664 0.79948 0.5979 0.0
H632 H 0.72201 0.2199 0.05202 0.0
H633 H 0.79318 0.30838 0.08121 0.0
H634 H 0.74034 0.3395 0.10984 0.0
H635 H 0.67383 0.34134 0.12617 0.0
H636 H 0.60447 0.25124 0.09835 0.0
H637 H 0.65689 0.22126 0.06881 0.0
C638 C 0.7262 0.24606 0.06448 0.0
C639 C 0.76164 0.26179 0.06428 0.0
C640 C 0.69595 0.26359 0.08093 0.0
C641 C 0.76628 0.29561 0.08093 0.0
C642 C 0.73606 0.31342 0.09726 0.0
C643 C 0.67024 0.31502 0.11393 0.0
C644 C 0.63507 0.29867 0.11441 0.0
C645 C 0.70076 0.2976 0.09745 0.0
C646 C 0.6309 0.26475 0.09789 0.0
C647 C 0.66097 0.24744 0.08123 0.0
H648 H 0.30492 0.28995 0.68135 0.0
H649 H 0.41088 0.23896 0.66444 0.0
H650 H 0.41074 0.22359 0.7267 0.0
H651 H 0.38104 0.22673 0.78654 0.0
H652 H 0.27384 0.27646 0.80062 0.0
H653 H 0.27464 0.29105 0.73896 0.0
C654 C 0.32813 0.27546 0.69113 0.0
C655 C 0.35802 0.26586 0.66832 0.0
C656 C 0.32789 0.26694 0.72663 0.0
C657 C 0.38748 0.24662 0.68142 0.0
C658 C 0.38748 0.23801 0.71705 0.0
C659 C 0.35776 0.24055 0.77606 0.0
C660 C 0.32774 0.25099 0.79861 0.0
C661 C 0.35792 0.24833 0.74001 0.0
C662 C 0.29788 0.26899 0.78444 0.0
C663 C 0.29804 0.27703 0.74896 0.0
H664 H 0.63131 0.74515 0.40946 0.0
H665 H 0.69604 0.6556 0.37067 0.0
H666 H 0.7084 0.68203 0.31518 0.0
H667 H 0.70646 0.73295 0.28052 0.0
H668 H 0.64514 0.82387 0.321 0.0
H669 H 0.62471 0.79394 0.37223 0.0
C670 C 0.64784 0.7312 0.38878 0.0
C671 C 0.66327 0.69869 0.39463 0.0
C672 C 0.65532 0.74672 0.35706 0.0
C673 C 0.68421 0.68088 0.36722 0.0
C674 C 0.69128 0.69593 0.33539 0.0
C675 C 0.68831 0.74608 0.30039 0.0
C676 C 0.67774 0.78071 0.29715 0.0
C677 C 0.67785 0.72923 0.33048 0.0
C678 C 0.65353 0.79713 0.32266 0.0
C679 C 0.6422 0.78018 0.35224 0.0
H680 H 0.80206 0.21342 0.89759 0.0
H681 H 0.89657 0.27932 0.92729 0.0
H682 H 0.89881 0.29778 0.86638 0.0
H683 H 0.87482 0.29354 0.80403 0.0
H684 H 0.77958 0.22783 0.77633 0.0
H685 H 0.77735 0.21049 0.83711 0.0
C686 C 0.82322 0.23189 0.89096 0.0
C687 C 0.8492 0.24482 0.91707 0.0
C688 C 0.82449 0.24213 0.85607 0.0
C689 C 0.87616 0.26895 0.9078 0.0
C690 C 0.87754 0.27942 0.87293 0.0
C691 C 0.85346 0.2756 0.81139 0.0
C692 C 0.82776 0.26164 0.78542 0.0
C693 C 0.85199 0.26595 0.84674 0.0
C694 C 0.80033 0.23832 0.79542 0.0
C695 C 0.79877 0.2286 0.83031 0.0
H696 H 0.22889 0.27638 0.53489 0.0
H697 H 0.30947 0.19818 0.49921 0.0
H698 H 0.26088 0.16466 0.46599 0.0
H699 H 0.19585 0.15812 0.44594 0.0
H700 H 0.11572 0.23683 0.48073 0.0
H701 H 0.16388 0.26939 0.51574 0.0
C702 C 0.23593 0.25191 0.52006 0.0
C703 C 0.27295 0.23995 0.5196 0.0
C704 C 0.20793 0.23285 0.50078 0.0
C705 C 0.28131 0.20813 0.50011 0.0
C706 C 0.25354 0.18893 0.48101 0.0
C707 C 0.18899 0.18254 0.46098 0.0
C708 C 0.15227 0.1951 0.46059 0.0
C709 C 0.21684 0.2012 0.48089 0.0
C710 C 0.14368 0.22644 0.48079 0.0
C711 C 0.17124 0.24514 0.50069 0.0
H712 H 0.21864 0.74506 0.9697 0.0
H713 H 0.29034 0.79142 0.0537 0.0
H714 H 0.34293 0.75788 0.02838 0.0
H715 H 0.36878 0.71591 0.9818 0.0
H716 H 0.29738 0.67127 0.8969 0.0
H717 H 0.2444 0.70368 0.92313 0.0
C718 C 0.24571 0.74772 0.98261 0.0
C719 C 0.25049 0.77063 0.0136 0.0
C720 C 0.27591 0.72874 0.96768 0.0
C721 C 0.2859 0.77405 0.02973 0.0
C722 C 0.31599 0.75484 0.01533 0.0
C723 C 0.34153 0.71318 0.96927 0.0
C724 C 0.33687 0.69131 0.93756 0.0
C725 C 0.31133 0.73218 0.98426 0.0
C726 C 0.3016 0.68823 0.92121 0.0
C727 C 0.27133 0.70662 0.93623 0.0
loop_
_geom_bond_atom_site_label_1
_geom_bond_atom_site_label_2
_geom_bond_distance
_geom_bond_site_symmetry_2
_ccdc_geom_bond_type
Sc0 O3 2.025 . S
Sc0 O10 2.105 . S
Sc0 O13 2.105 . S
Sc0 O16 2.105 . S
Sc0 O19 2.105 1_554 S
Sc1 O3 2.025 . S
Sc1 O11 2.105 1_554 S
Sc1 O15 2.105 . S
Sc1 O17 2.105 . S
Sc1 O21 2.105 . S
Sc2 O3 2.025 . S
Sc2 O12 2.105 . S
Sc2 O14 2.105 . S
Sc2 O18 2.105 . S
Sc2 O20 2.105 . S
O3 Sc0 2.025 . S
O3 Sc1 2.025 . S
O3 Sc2 2.025 . S
C4 O10 1.268 . S
C4 O20 1.268 . S
C5 O11 1.268 . S
C5 O19 1.268 . S
C6 O12 1.268 . S
C6 O21 1.268 . S
C7 O13 1.268 . S
C7 O17 1.268 . S
C8 O14 1.268 . S
C8 O16 1.268 . S
C9 O15 1.268 . S
C9 O18 1.268 . S
O10 Sc0 2.105 . S
O10 C4 1.268 . S
O11 Sc1 2.105 1_556 S
O11 C5 1.268 . S
O12 Sc2 2.105 . S
O12 C6 1.268 . S
O13 Sc0 2.105 . S
O13 C7 1.268 . S
O14 Sc2 2.105 . S
O14 C8 1.268 . S
O15 Sc1 2.105 . S
O15 C9 1.268 . S
O16 Sc0 2.105 . S
O16 C8 1.268 . S
O17 Sc1 2.105 . S
O17 C7 1.268 . S
O18 Sc2 2.105 . S
O18 C9 1.268 . S
O19 Sc0 2.105 1_556 S
O19 C5 1.268 . S
O20 Sc2 2.105 . S
O20 C4 1.268 . S
O21 Sc1 2.105 . S
O21 C6 1.268 . S
Sc22 O25 2.025 . S
Sc22 O32 2.105 . S
Sc22 O35 2.105 . S
Sc22 O38 2.105 . S
Sc22 O41 2.105 . S
Sc23 O25 2.025 . S
Sc23 O33 2.105 . S
Sc23 O37 2.105 . S
Sc23 O39 2.105 . S
Sc23 O43 2.105 . S
Sc24 O25 2.025 . S
Sc24 O34 2.105 . S
Sc24 O36 2.105 . S
Sc24 O40 2.105 . S
Sc24 O42 2.105 . S
O25 Sc22 2.025 . S
O25 Sc23 2.025 . S
O25 Sc24 2.025 . S
C26 O32 1.268 . S
C26 O42 1.268 . S
C27 O33 1.268 . S
C27 O41 1.268 . S
C28 O34 1.268 . S
C28 O43 1.268 . S
C29 O35 1.268 . S
C29 O39 1.268 . S
C30 O36 1.268 . S
C30 O38 1.268 . S
C31 O37 1.268 . S
C31 O40 1.268 . S
O32 Sc22 2.105 . S
O32 C26 1.268 . S
O33 Sc23 2.105 . S
O33 C27 1.268 . S
O34 Sc24 2.105 . S
O34 C28 1.268 . S
O35 Sc22 2.105 . S
O35 C29 1.268 . S
O36 Sc24 2.105 . S
O36 C30 1.268 . S
O37 Sc23 2.105 . S
O37 C31 1.268 . S
O38 Sc22 2.105 . S
O38 C30 1.268 . S
O39 Sc23 2.105 . S
O39 C29 1.268 . S
O40 Sc24 2.105 . S
O40 C31 1.268 . S
O41 Sc22 2.105 . S
O41 C27 1.268 . S
O42 Sc24 2.105 . S
O42 C26 1.268 . S
O43 Sc23 2.105 . S
O43 C28 1.268 . S
Sc44 O47 2.025 . S
Sc44 O54 2.105 1_554 S
Sc44 O57 2.105 . S
Sc44 O60 2.105 . S
Sc44 O63 2.105 1_554 S
Sc45 O47 2.025 1_556 S
Sc45 O55 2.105 . S
Sc45 O59 2.105 1_556 S
Sc45 O61 2.105 1_556 S
Sc45 O65 2.105 . S
Sc46 O47 2.025 . S
Sc46 O56 2.105 1_554 S
Sc46 O58 2.105 . S
Sc46 O62 2.105 . S
Sc46 O64 2.105 1_554 S
O47 Sc44 2.025 . S
O47 Sc45 2.025 1_554 S
O47 Sc46 2.025 . S
C48 O54 1.268 . S
C48 O64 1.268 . S
C49 O55 1.268 . S
C49 O63 1.268 . S
C50 O56 1.268 . S
C50 O65 1.268 . S
C51 O57 1.268 . S
C51 O61 1.268 . S
C52 O58 1.268 . S
C52 O60 1.268 . S
C53 O59 1.268 . S
C53 O62 1.268 . S
O54 Sc44 2.105 1_556 S
O54 C48 1.268 . S
O55 Sc45 2.105 . S
O55 C49 1.268 . S
O56 Sc46 2.105 1_556 S
O56 C50 1.268 . S
O57 Sc44 2.105 . S
O57 C51 1.268 . S
O58 Sc46 2.105 . S
O58 C52 1.268 . S
O59 Sc45 2.105 1_554 S
O59 C53 1.268 . S
O60 Sc44 2.105 . S
O60 C52 1.268 . S
O61 Sc45 2.105 1_554 S
O61 C51 1.268 . S
O62 Sc46 2.105 . S
O62 C53 1.268 . S
O63 Sc44 2.105 1_556 S
O63 C49 1.268 . S
O64 Sc46 2.105 1_556 S
O64 C48 1.268 . S
O65 Sc45 2.105 . S
O65 C50 1.268 . S
Sc66 O69 2.025 . S
Sc66 O76 2.105 . S
Sc66 O79 2.105 . S
Sc66 O82 2.105 . S
Sc66 O85 2.105 . S
Sc67 O69 2.025 . S
Sc67 O77 2.105 . S
Sc67 O81 2.105 . S
Sc67 O83 2.105 . S
Sc67 O87 2.105 . S
Sc68 O69 2.025 . S
Sc68 O78 2.105 . S
Sc68 O80 2.105 . S
Sc68 O84 2.105 . S
Sc68 O86 2.105 . S
O69 Sc66 2.025 . S
O69 Sc67 2.025 . S
O69 Sc68 2.025 . S
C70 O76 1.268 . S
C70 O86 1.268 . S
C71 O77 1.268 . S
C71 O85 1.268 . S
C72 O78 1.268 . S
C72 O87 1.268 . S
C73 O79 1.268 . S
C73 O83 1.268 . S
C74 O80 1.268 . S
C74 O82 1.268 . S
C75 O81 1.268 . S
C75 O84 1.268 . S
O76 Sc66 2.105 . S
O76 C70 1.268 . S
O77 Sc67 2.105 . S
O77 C71 1.268 . S
O78 Sc68 2.105 . S
O78 C72 1.268 . S
O79 Sc66 2.105 . S
O79 C73 1.268 . S
O80 Sc68 2.105 . S
O80 C74 1.268 . S
O81 Sc67 2.105 . S
O81 C75 1.268 . S
O82 Sc66 2.105 . S
O82 C74 1.268 . S
O83 Sc67 2.105 . S
O83 C73 1.268 . S
O84 Sc68 2.105 . S
O84 C75 1.268 . S
O85 Sc66 2.105 . S
O85 C71 1.268 . S
O86 Sc68 2.105 . S
O86 C70 1.268 . S
O87 Sc67 2.105 . S
O87 C72 1.268 . S
P88 O99 1.490 . S
P88 C102 1.812 . S
P88 C108 1.803 . S
P88 C114 1.819 . S
H89 C103 0.941 . S
H90 C104 0.939 1_565 S
H91 C106 0.940 . S
H92 C107 0.940 . S
H93 C109 0.939 . S
H94 C110 0.942 . S
H95 C112 0.940 . S
H96 C113 0.939 . S
H97 C115 0.941 . S
H98 C119 0.939 . S
O99 P88 1.490 . S
H100 C116 0.939 . S
H101 C118 0.936 1_455 S
C102 P88 1.812 . S
C102 C103 1.389 . S
C102 C107 1.391 . S
C103 H89 0.941 . S
C103 C102 1.389 . S
C103 C104 1.397 . S
C104 H90 0.939 1_545 S
C104 C103 1.397 . S
C104 C105 1.378 . S
C105 C104 1.378 . S
C105 C106 1.378 . S
C106 H91 0.940 . S
C106 C105 1.378 . S
C106 C107 1.396 . S
C107 H92 0.940 . S
C107 C102 1.391 . S
C107 C106 1.396 . S
C108 P88 1.803 . S
C108 C109 1.378 . S
C108 C113 1.400 . S
C109 H93 0.939 . S
C109 C108 1.378 . S
C109 C110 1.361 . S
C110 H94 0.942 . S
C110 C109 1.361 . S
C110 C111 1.369 . S
C111 C110 1.369 . S
C111 C112 1.404 . S
C112 H95 0.940 . S
C112 C111 1.404 . S
C112 C113 1.389 . S
C113 H96 0.939 . S
C113 C108 1.400 . S
C113 C112 1.389 . S
C114 P88 1.819 . S
C114 C115 1.391 1_455 S
C114 C119 1.391 . S
C115 H97 0.941 . S
C115 C114 1.391 1_655 S
C115 C116 1.396 . S
C116 H100 0.939 . S
C116 C115 1.396 . S
C116 C117 1.397 . S
C117 C116 1.397 . S
C117 C118 1.393 . S
C118 H101 0.936 1_655 S
C118 C117 1.393 . S
C118 C119 1.383 1_655 S
C119 H98 0.939 . S
C119 C114 1.391 . S
C119 C118 1.383 1_455 S
P120 O131 1.490 . S
P120 C134 1.812 . S
P120 C140 1.803 . S
P120 C146 1.819 . S
H121 C135 0.941 . S
H122 C136 0.939 . S
H123 C138 0.940 . S
H124 C139 0.940 . S
H125 C141 0.939 . S
H126 C142 0.942 . S
H127 C144 0.940 . S
H128 C145 0.939 . S
H129 C147 0.941 . S
H130 C151 0.939 . S
O131 P120 1.490 . S
H132 C148 0.939 . S
H133 C150 0.940 . S
C134 P120 1.812 . S
C134 C135 1.389 . S
C134 C139 1.391 . S
C135 H121 0.941 . S
C135 C134 1.389 . S
C135 C136 1.397 . S
C136 H122 0.939 . S
C136 C135 1.397 . S
C136 C137 1.378 . S
C137 C136 1.378 . S
C137 C138 1.378 . S
C138 H123 0.940 . S
C138 C137 1.378 . S
C138 C139 1.396 . S
C139 H124 0.940 . S
C139 C134 1.391 . S
C139 C138 1.396 . S
C140 P120 1.803 . S
C140 C141 1.378 . S
C140 C145 1.400 . S
C141 H125 0.939 . S
C141 C140 1.378 . S
C141 C142 1.361 . S
C142 H126 0.942 . S
C142 C141 1.361 . S
C142 C143 1.369 . S
C143 C142 1.369 . S
C143 C144 1.404 . S
C144 H127 0.940 . S
C144 C143 1.404 . S
C144 C145 1.389 . S
C145 H128 0.939 . S
C145 C140 1.400 . S
C145 C144 1.389 . S
C146 P120 1.819 . S
C146 C147 1.391 . S
C146 C151 1.391 . S
C147 H129 0.941 . S
C147 C146 1.391 . S
C147 C148 1.396 . S
C148 H132 0.939 . S
C148 C147 1.396 . S
C148 C149 1.397 . S
C149 C148 1.397 . S
C149 C150 1.385 . S
C150 H133 0.940 . S
C150 C149 1.385 . S
C150 C151 1.388 . S
C151 H130 0.939 . S
C151 C146 1.391 . S
C151 C150 1.388 . S
P152 O163 1.490 . S
P152 C166 1.812 . S
P152 C172 1.803 . S
P152 C178 1.819 . S
H153 C167 0.941 . S
H154 C168 0.939 . S
H155 C170 0.940 . S
H156 C171 0.940 . S
H157 C173 0.939 . S
H158 C174 0.942 . S
H159 C176 0.940 . S
H160 C177 0.939 . S
H161 C179 0.941 . S
H162 C183 0.939 . S
O163 P152 1.490 . S
H164 C180 0.939 . S
H165 C182 0.940 . S
C166 P152 1.812 . S
C166 C167 1.389 . S
C166 C171 1.391 . S
C167 H153 0.941 . S
C167 C166 1.389 . S
C167 C168 1.397 . S
C168 H154 0.939 . S
C168 C167 1.397 . S
C168 C169 1.378 . S
C169 C168 1.378 . S
C169 C170 1.378 . S
C170 H155 0.940 . S
C170 C169 1.378 . S
C170 C171 1.396 . S
C171 H156 0.940 . S
C171 C166 1.391 . S
C171 C170 1.396 . S
C172 P152 1.803 . S
C172 C173 1.378 . S
C172 C177 1.400 . S
C173 H157 0.939 . S
C173 C172 1.378 . S
C173 C174 1.361 . S
C174 H158 0.942 . S
C174 C173 1.361 . S
C174 C175 1.369 . S
C175 C174 1.369 . S
C175 C176 1.404 . S
C176 H159 0.940 . S
C176 C175 1.404 . S
C176 C177 1.389 . S
C177 H160 0.939 . S
C177 C172 1.400 . S
C177 C176 1.389 . S
C178 P152 1.819 . S
C178 C179 1.391 . S
C178 C183 1.391 . S
C179 H161 0.941 . S
C179 C178 1.391 . S
C179 C180 1.396 . S
C180 H164 0.939 . S
C180 C179 1.396 . S
C180 C181 1.397 . S
C181 C180 1.397 . S
C181 C182 1.385 . S
C182 H165 0.940 . S
C182 C181 1.385 . S
C182 C183 1.388 . S
C183 H162 0.939 . S
C183 C178 1.391 . S
C183 C182 1.388 . S
P184 O195 1.490 . S
P184 C198 1.812 . S
P184 C204 1.803 . S
P184 C210 1.819 . S
H185 C199 0.941 . S
H186 C200 0.939 . S
H187 C202 0.940 . S
H188 C203 0.940 . S
H189 C205 0.939 . S
H190 C206 0.942 . S
H191 C208 0.940 . S
H192 C209 0.939 . S
H193 C211 0.941 . S
H194 C215 0.939 . S
O195 P184 1.490 . S
H196 C212 0.939 . S
H197 C214 0.940 . S
C198 P184 1.812 . S
C198 C199 1.389 . S
C198 C203 1.391 . S
C199 H185 0.941 . S
C199 C198 1.389 . S
C199 C200 1.397 . S
C200 H186 0.939 . S
C200 C199 1.397 . S
C200 C201 1.378 . S
C201 C200 1.378 . S
C201 C202 1.378 . S
C202 H187 0.940 . S
C202 C201 1.378 . S
C202 C203 1.396 . S
C203 H188 0.940 . S
C203 C198 1.391 . S
C203 C202 1.396 . S
C204 P184 1.803 . S
C204 C205 1.378 . S
C204 C209 1.400 . S
C205 H189 0.939 . S
C205 C204 1.378 . S
C205 C206 1.361 . S
C206 H190 0.942 . S
C206 C205 1.361 . S
C206 C207 1.369 . S
C207 C206 1.369 . S
C207 C208 1.404 . S
C208 H191 0.940 . S
C208 C207 1.404 . S
C208 C209 1.389 . S
C209 H192 0.939 . S
C209 C204 1.400 . S
C209 C208 1.389 . S
C210 P184 1.819 . S
C210 C211 1.391 . S
C210 C215 1.391 . S
C211 H193 0.941 . S
C211 C210 1.391 . S
C211 C212 1.396 . S
C212 H196 0.939 . S
C212 C211 1.396 . S
C212 C213 1.397 . S
C213 C212 1.397 . S
C213 C214 1.385 . S
C214 H197 0.940 . S
C214 C213 1.385 . S
C214 C215 1.388 . S
C215 H194 0.939 . S
C215 C210 1.391 . S
C215 C214 1.388 . S
P216 O227 1.490 . S
P216 C230 1.812 . S
P216 C236 1.803 . S
P216 C242 1.819 . S
H217 C231 0.941 . S
H218 C232 0.939 . S
H219 C234 0.940 . S
H220 C235 0.940 . S
H221 C237 0.939 . S
H222 C238 0.942 . S
H223 C240 0.940 . S
H224 C241 0.939 . S
H225 C243 0.941 . S
H226 C247 0.939 . S
O227 P216 1.490 . S
H228 C244 0.939 . S
H229 C246 0.940 . S
C230 P216 1.812 . S
C230 C231 1.389 . S
C230 C235 1.391 . S
C231 H217 0.941 . S
C231 C230 1.389 . S
C231 C232 1.397 . S
C232 H218 0.939 . S
C232 C231 1.397 . S
C232 C233 1.378 . S
C233 C232 1.378 . S
C233 C234 1.378 . S
C234 H219 0.940 . S
C234 C233 1.378 . S
C234 C235 1.396 . S
C235 H220 0.940 . S
C235 C230 1.391 . S
C235 C234 1.396 . S
C236 P216 1.803 . S
C236 C237 1.378 . S
C236 C241 1.400 . S
C237 H221 0.939 . S
C237 C236 1.378 . S
C237 C238 1.361 . S
C238 H222 0.942 . S
C238 C237 1.361 . S
C238 C239 1.369 . S
C239 C238 1.369 . S
C239 C240 1.404 . S
C240 H223 0.940 . S
C240 C239 1.404 . S
C240 C241 1.389 . S
C241 H224 0.939 . S
C241 C236 1.400 . S
C241 C240 1.389 . S
C242 P216 1.819 . S
C242 C243 1.391 . S
C242 C247 1.391 . S
C243 H225 0.941 . S
C243 C242 1.391 . S
C243 C244 1.396 . S
C244 H228 0.939 . S
C244 C243 1.396 . S
C244 C245 1.397 . S
C245 C244 1.397 . S
C245 C246 1.385 . S
C246 H229 0.940 . S
C246 C245 1.385 . S
C246 C247 1.388 . S
C247 H226 0.939 . S
C247 C242 1.391 . S
C247 C246 1.388 . S
P248 O259 1.490 . S
P248 C262 1.812 . S
P248 C268 1.803 . S
P248 C274 1.819 . S
H249 C263 0.941 . S
H250 C264 0.939 . S
H251 C266 0.940 . S
H252 C267 0.940 . S
H253 C269 0.939 . S
H254 C270 0.942 . S
H255 C272 0.940 . S
H256 C273 0.939 . S
H257 C275 0.941 . S
H258 C279 0.939 . S
O259 P248 1.490 . S
H260 C276 0.939 . S
H261 C278 0.940 . S
C262 P248 1.812 . S
C262 C263 1.389 . S
C262 C267 1.391 . S
C263 H249 0.941 . S
C263 C262 1.389 . S
C263 C264 1.397 . S
C264 H250 0.939 . S
C264 C263 1.397 . S
C264 C265 1.378 . S
C265 C264 1.378 . S
C265 C266 1.378 . S
C266 H251 0.940 . S
C266 C265 1.378 . S
C266 C267 1.396 . S
C267 H252 0.940 . S
C267 C262 1.391 . S
C267 C266 1.396 . S
C268 P248 1.803 . S
C268 C269 1.378 . S
C268 C273 1.400 . S
C269 H253 0.939 . S
C269 C268 1.378 . S
C269 C270 1.361 . S
C270 H254 0.942 . S
C270 C269 1.361 . S
C270 C271 1.369 . S
C271 C270 1.369 . S
C271 C272 1.404 . S
C272 H255 0.940 . S
C272 C271 1.404 . S
C272 C273 1.389 . S
C273 H256 0.939 . S
C273 C268 1.400 . S
C273 C272 1.389 . S
C274 P248 1.819 . S
C274 C275 1.391 . S
C274 C279 1.391 . S
C275 H257 0.941 . S
C275 C274 1.391 . S
C275 C276 1.396 . S
C276 H260 0.939 . S
C276 C275 1.396 . S
C276 C277 1.397 . S
C277 C276 1.397 . S
C277 C278 1.385 . S
C278 H261 0.940 . S
C278 C277 1.385 . S
C278 C279 1.388 . S
C279 H258 0.939 . S
C279 C274 1.391 . S
C279 C278 1.388 . S
P280 O291 1.490 . S
P280 C294 1.812 . S
P280 C300 1.803 . S
P280 C306 1.819 . S
H281 C295 0.941 . S
H282 C296 0.939 . S
H283 C298 0.940 . S
H284 C299 0.940 . S
H285 C301 0.939 . S
H286 C302 0.942 . S
H287 C304 0.940 . S
H288 C305 0.939 . S
H289 C307 0.941 . S
H290 C311 0.939 . S
O291 P280 1.490 . S
H292 C308 0.939 . S
H293 C310 0.940 . S
C294 P280 1.812 . S
C294 C295 1.389 . S
C294 C299 1.391 . S
C295 H281 0.941 . S
C295 C294 1.389 . S
C295 C296 1.397 . S
C296 H282 0.939 . S
C296 C295 1.397 . S
C296 C297 1.378 . S
C297 C296 1.378 . S
C297 C298 1.378 . S
C298 H283 0.940 . S
C298 C297 1.378 . S
C298 C299 1.396 . S
C299 H284 0.940 . S
C299 C294 1.391 . S
C299 C298 1.396 . S
C300 P280 1.803 . S
C300 C301 1.378 . S
C300 C305 1.400 . S
C301 H285 0.939 . S
C301 C300 1.378 . S
C301 C302 1.361 . S
C302 H286 0.942 . S
C302 C301 1.361 . S
C302 C303 1.369 . S
C303 C302 1.369 . S
C303 C304 1.404 . S
C304 H287 0.940 . S
C304 C303 1.404 . S
C304 C305 1.389 . S
C305 H288 0.939 . S
C305 C300 1.400 . S
C305 C304 1.389 . S
C306 P280 1.819 . S
C306 C307 1.391 . S
C306 C311 1.391 . S
C307 H289 0.941 . S
C307 C306 1.391 . S
C307 C308 1.396 . S
C308 H292 0.939 . S
C308 C307 1.396 . S
C308 C309 1.397 . S
C309 C308 1.397 . S
C309 C310 1.385 . S
C310 H293 0.940 . S
C310 C309 1.385 . S
C310 C311 1.388 . S
C311 H290 0.939 . S
C311 C306 1.391 . S
C311 C310 1.388 . S
P312 O323 1.490 . S
P312 C326 1.812 . S
P312 C332 1.803 . S
P312 C338 1.819 . S
H313 C327 0.941 . S
H314 C328 0.939 . S
H315 C330 0.940 . S
H316 C331 0.940 . S
H317 C333 0.939 . S
H318 C334 0.942 . S
H319 C336 0.940 . S
H320 C337 0.939 . S
H321 C339 0.941 . S
H322 C343 0.939 . S
O323 P312 1.490 . S
H324 C340 0.939 1_455 S
H325 C342 0.940 . S
C326 P312 1.812 . S
C326 C327 1.389 . S
C326 C331 1.391 . S
C327 H313 0.941 . S
C327 C326 1.389 . S
C327 C328 1.397 . S
C328 H314 0.939 . S
C328 C327 1.397 . S
C328 C329 1.378 . S
C329 C328 1.378 . S
C329 C330 1.378 . S
C330 H315 0.940 . S
C330 C329 1.378 . S
C330 C331 1.396 . S
C331 H316 0.940 . S
C331 C326 1.391 . S
C331 C330 1.396 . S
C332 P312 1.803 . S
C332 C333 1.378 . S
C332 C337 1.400 . S
C333 H317 0.939 . S
C333 C332 1.378 . S
C333 C334 1.361 . S
C334 H318 0.942 . S
C334 C333 1.361 . S
C334 C335 1.369 . S
C335 C334 1.369 . S
C335 C336 1.404 . S
C336 H319 0.940 . S
C336 C335 1.404 . S
C336 C337 1.389 . S
C337 H320 0.939 . S
C337 C332 1.400 . S
C337 C336 1.389 . S
C338 P312 1.819 . S
C338 C339 1.391 . S
C338 C343 1.391 . S
C339 H321 0.941 . S
C339 C338 1.391 . S
C339 C340 1.396 . S
C340 H324 0.939 1_655 S
C340 C339 1.396 . S
C340 C341 1.397 1_655 S
C341 C340 1.397 1_455 S
C341 C342 1.385 . S
C342 H325 0.940 . S
C342 C341 1.385 . S
C342 C343 1.388 1_455 S
C343 H322 0.939 . S
C343 C338 1.391 . S
C343 C342 1.388 1_655 S
H344 C350 0.930 . S
H345 C353 0.930 . S
H346 C354 0.930 . S
H347 C355 0.930 . S
H348 C358 0.930 . S
H349 C359 0.930 1_545 S
C350 H344 0.930 . S
C350 C351 1.355 . S
C350 C352 1.415 . S
C351 C350 1.355 . S
C351 C353 1.419 . S
C352 C350 1.415 . S
C352 C357 1.425 . S
C352 C359 1.409 . S
C353 H345 0.930 . S
C353 C351 1.419 . S
C353 C354 1.362 . S
C354 H346 0.930 . S
C354 C353 1.362 . S
C354 C357 1.409 . S
C355 H347 0.930 . S
C355 C356 1.355 . S
C355 C357 1.415 . S
C356 C355 1.355 . S
C356 C358 1.419 1_565 S
C357 C352 1.425 . S
C357 C354 1.409 . S
C357 C355 1.415 . S
C358 H348 0.930 . S
C358 C356 1.419 1_545 S
C358 C359 1.362 1_545 S
C359 H349 0.930 1_565 S
C359 C352 1.409 . S
C359 C358 1.362 1_565 S
H360 C366 0.930 . S
H361 C369 0.930 . S
H362 C370 0.930 . S
H363 C371 0.930 . S
H364 C374 0.930 . S
H365 C375 0.930 . S
C366 H360 0.930 . S
C366 C367 1.355 . S
C366 C368 1.415 . S
C367 C366 1.355 . S
C367 C369 1.419 . S
C368 C366 1.415 . S
C368 C373 1.425 . S
C368 C375 1.409 . S
C369 H361 0.930 . S
C369 C367 1.419 . S
C369 C370 1.362 . S
C370 H362 0.930 . S
C370 C369 1.362 . S
C370 C373 1.409 . S
C371 H363 0.930 . S
C371 C372 1.355 . S
C371 C373 1.415 . S
C372 C371 1.355 . S
C372 C374 1.419 . S
C373 C368 1.425 . S
C373 C370 1.409 . S
C373 C371 1.415 . S
C374 H364 0.930 . S
C374 C372 1.419 . S
C374 C375 1.362 . S
C375 H365 0.930 . S
C375 C368 1.409 . S
C375 C374 1.362 . S
H376 C382 0.930 . S
H377 C385 0.930 . S
H378 C386 0.930 . S
H379 C387 0.930 . S
H380 C390 0.930 . S
H381 C391 0.930 . S
C382 H376 0.930 . S
C382 C383 1.355 . S
C382 C384 1.415 . S
C383 C382 1.355 . S
C383 C385 1.419 . S
C384 C382 1.415 . S
C384 C389 1.425 . S
C384 C391 1.409 . S
C385 H377 0.930 . S
C385 C383 1.419 . S
C385 C386 1.362 . S
C386 H378 0.930 . S
C386 C385 1.362 . S
C386 C389 1.409 . S
C387 H379 0.930 . S
C387 C388 1.355 . S
C387 C389 1.415 1_565 S
C388 C387 1.355 . S
C388 C390 1.419 . S
C389 C384 1.425 . S
C389 C386 1.409 . S
C389 C387 1.415 1_545 S
C390 H380 0.930 . S
C390 C388 1.419 . S
C390 C391 1.362 1_565 S
C391 H381 0.930 . S
C391 C384 1.409 . S
C391 C390 1.362 1_545 S
H392 C398 0.930 . S
H393 C401 0.930 . S
H394 C402 0.930 . S
H395 C403 0.930 . S
H396 C406 0.930 . S
H397 C407 0.930 . S
C398 H392 0.930 . S
C398 C399 1.355 . S
C398 C400 1.415 . S
C399 C398 1.355 . S
C399 C401 1.419 . S
C400 C398 1.415 . S
C400 C405 1.425 . S
C400 C407 1.409 . S
C401 H393 0.930 . S
C401 C399 1.419 . S
C401 C402 1.362 . S
C402 H394 0.930 . S
C402 C401 1.362 . S
C402 C405 1.409 . S
C403 H395 0.930 . S
C403 C404 1.355 . S
C403 C405 1.415 . S
C404 C403 1.355 . S
C404 C406 1.419 . S
C405 C400 1.425 . S
C405 C402 1.409 . S
C405 C403 1.415 . S
C406 H396 0.930 . S
C406 C404 1.419 . S
C406 C407 1.362 . S
C407 H397 0.930 . S
C407 C400 1.409 . S
C407 C406 1.362 . S
H408 C414 0.930 . S
H409 C417 0.930 . S
H410 C418 0.930 . S
H411 C419 0.930 . S
H412 C422 0.930 . S
H413 C423 0.930 . S
C414 H408 0.930 . S
C414 C415 1.355 . S
C414 C416 1.415 . S
C415 C414 1.355 . S
C415 C417 1.419 . S
C416 C414 1.415 . S
C416 C421 1.425 . S
C416 C423 1.409 . S
C417 H409 0.930 . S
C417 C415 1.419 . S
C417 C418 1.362 . S
C418 H410 0.930 . S
C418 C417 1.362 . S
C418 C421 1.409 . S
C419 H411 0.930 . S
C419 C420 1.355 . S
C419 C421 1.415 . S
C420 C419 1.355 . S
C420 C422 1.419 . S
C421 C416 1.425 . S
C421 C418 1.409 . S
C421 C419 1.415 . S
C422 H412 0.930 . S
C422 C420 1.419 . S
C422 C423 1.362 . S
C423 H413 0.930 . S
C423 C416 1.409 . S
C423 C422 1.362 . S
H424 C430 0.930 . S
H425 C433 0.930 . S
H426 C434 0.930 . S
H427 C435 0.930 . S
H428 C438 0.930 . S
H429 C439 0.930 . S
C430 H424 0.930 . S
C430 C431 1.355 . S
C430 C432 1.415 1_655 S
C431 C430 1.355 . S
C431 C433 1.419 1_556 S
C432 C430 1.415 1_455 S
C432 C437 1.425 . S
C432 C439 1.409 . S
C433 H425 0.930 . S
C433 C431 1.419 1_554 S
C433 C434 1.362 1_655 S
C434 H426 0.930 . S
C434 C433 1.362 1_455 S
C434 C437 1.409 1_554 S
C435 H427 0.930 . S
C435 C436 1.355 . S
C435 C437 1.415 . S
C436 C435 1.355 . S
C436 C438 1.419 . S
C437 C432 1.425 . S
C437 C434 1.409 1_556 S
C437 C435 1.415 . S
C438 H428 0.930 . S
C438 C436 1.419 . S
C438 C439 1.362 . S
C439 H429 0.930 . S
C439 C432 1.409 . S
C439 C438 1.362 . S
H440 C446 0.930 . S
H441 C449 0.930 . S
H442 C450 0.930 . S
H443 C451 0.930 . S
H444 C454 0.930 . S
H445 C455 0.930 . S
C446 H440 0.930 . S
C446 C447 1.355 . S
C446 C448 1.415 . S
C447 C446 1.355 . S
C447 C449 1.419 . S
C448 C446 1.415 . S
C448 C453 1.425 . S
C448 C455 1.409 . S
C449 H441 0.930 . S
C449 C447 1.419 . S
C449 C450 1.362 . S
C450 H442 0.930 . S
C450 C449 1.362 . S
C450 C453 1.409 . S
C451 H443 0.930 . S
C451 C452 1.355 . S
C451 C453 1.415 . S
C452 C451 1.355 . S
C452 C454 1.419 . S
C453 C448 1.425 . S
C453 C450 1.409 . S
C453 C451 1.415 . S
C454 H444 0.930 . S
C454 C452 1.419 . S
C454 C455 1.362 . S
C455 H445 0.930 . S
C455 C448 1.409 . S
C455 C454 1.362 . S
H456 C462 0.930 . S
H457 C465 0.930 . S
H458 C466 0.930 . S
H459 C467 0.930 . S
H460 C470 0.930 . S
H461 C471 0.930 . S
C462 H456 0.930 . S
C462 C463 1.355 . S
C462 C464 1.415 . S
C463 C462 1.355 . S
C463 C465 1.419 . S
C464 C462 1.415 . S
C464 C469 1.425 . S
C464 C471 1.409 . S
C465 H457 0.930 . S
C465 C463 1.419 . S
C465 C466 1.362 . S
C466 H458 0.930 . S
C466 C465 1.362 . S
C466 C469 1.409 . S
C467 H459 0.930 . S
C467 C468 1.355 . S
C467 C469 1.415 . S
C468 C467 1.355 . S
C468 C470 1.419 . S
C469 C464 1.425 . S
C469 C466 1.409 . S
C469 C467 1.415 . S
C470 H460 0.930 . S
C470 C468 1.419 . S
C470 C471 1.362 . S
C471 H461 0.930 . S
C471 C464 1.409 . S
C471 C470 1.362 . S
H472 C478 0.930 . S
H473 C481 0.930 . S
H474 C482 0.930 . S
H475 C483 0.930 . S
H476 C486 0.930 1_565 S
H477 C487 0.930 . S
C478 H472 0.930 . S
C478 C479 1.355 . S
C478 C480 1.415 . S
C479 C478 1.355 . S
C479 C481 1.419 . S
C480 C478 1.415 . S
C480 C485 1.425 . S
C480 C487 1.409 . S
C481 H473 0.930 . S
C481 C479 1.419 . S
C481 C482 1.362 . S
C482 H474 0.930 . S
C482 C481 1.362 . S
C482 C485 1.409 . S
C483 H475 0.930 . S
C483 C484 1.355 . S
C483 C485 1.415 . S
C484 C483 1.355 . S
C484 C486 1.419 . S
C485 C480 1.425 . S
C485 C482 1.409 . S
C485 C483 1.415 . S
C486 H476 0.930 1_545 S
C486 C484 1.419 . S
C486 C487 1.362 . S
C487 H477 0.930 . S
C487 C480 1.409 . S
C487 C486 1.362 . S
H488 C494 0.930 . S
H489 C497 0.930 . S
H490 C498 0.930 . S
H491 C499 0.930 . S
H492 C502 0.930 . S
H493 C503 0.930 . S
C494 H488 0.930 . S
C494 C495 1.355 . S
C494 C496 1.415 . S
C495 C494 1.355 . S
C495 C497 1.419 . S
C496 C494 1.415 . S
C496 C501 1.425 . S
C496 C503 1.409 . S
C497 H489 0.930 . S
C497 C495 1.419 . S
C497 C498 1.362 . S
C498 H490 0.930 . S
C498 C497 1.362 . S
C498 C501 1.409 . S
C499 H491 0.930 . S
C499 C500 1.355 . S
C499 C501 1.415 . S
C500 C499 1.355 . S
C500 C502 1.419 . S
C501 C496 1.425 . S
C501 C498 1.409 . S
C501 C499 1.415 . S
C502 H492 0.930 . S
C502 C500 1.419 . S
C502 C503 1.362 . S
C503 H493 0.930 . S
C503 C496 1.409 . S
C503 C502 1.362 . S
H504 C510 0.930 . S
H505 C513 0.930 . S
H506 C514 0.930 . S
H507 C515 0.930 . S
H508 C518 0.930 . S
H509 C519 0.930 . S
C510 H504 0.930 . S
C510 C511 1.370 . S
C510 C512 1.415 . S
C511 C510 1.370 . S
C511 C513 1.411 1_556 S
C512 C510 1.415 . S
C512 C517 1.425 . S
C512 C519 1.409 . S
C513 H505 0.930 . S
C513 C511 1.411 1_554 S
C513 C514 1.362 . S
C514 H506 0.930 . S
C514 C513 1.362 . S
C514 C517 1.409 1_554 S
C515 H507 0.930 . S
C515 C516 1.355 . S
C515 C517 1.415 1_545 S
C516 C515 1.355 . S
C516 C518 1.419 . S
C517 C512 1.425 . S
C517 C514 1.409 1_556 S
C517 C515 1.415 1_565 S
C518 H508 0.930 . S
C518 C516 1.419 . S
C518 C519 1.362 1_545 S
C519 H509 0.930 . S
C519 C512 1.409 . S
C519 C518 1.362 1_565 S
H520 C526 0.930 . S
H521 C529 0.930 . S
H522 C530 0.930 . S
H523 C531 0.930 . S
H524 C534 0.930 . S
H525 C535 0.930 . S
C526 H520 0.930 . S
C526 C527 1.355 . S
C526 C528 1.415 . S
C527 C526 1.355 . S
C527 C529 1.419 . S
C528 C526 1.415 . S
C528 C533 1.425 . S
C528 C535 1.409 . S
C529 H521 0.930 . S
C529 C527 1.419 . S
C529 C530 1.362 . S
C530 H522 0.930 . S
C530 C529 1.362 . S
C530 C533 1.409 . S
C531 H523 0.930 . S
C531 C532 1.355 . S
C531 C533 1.415 . S
C532 C531 1.355 . S
C532 C534 1.419 . S
C533 C528 1.425 . S
C533 C530 1.409 . S
C533 C531 1.415 . S
C534 H524 0.930 . S
C534 C532 1.419 . S
C534 C535 1.362 . S
C535 H525 0.930 . S
C535 C528 1.409 . S
C535 C534 1.362 . S
H536 C542 0.930 . S
H537 C545 0.930 . S
H538 C546 0.930 . S
H539 C547 0.930 . S
H540 C550 0.930 . S
H541 C551 0.930 . S
C542 H536 0.930 . S
C542 C543 1.355 . S
C542 C544 1.415 . S
C543 C542 1.355 . S
C543 C545 1.419 . S
C544 C542 1.415 . S
C544 C549 1.425 . S
C544 C551 1.409 . S
C545 H537 0.930 . S
C545 C543 1.419 . S
C545 C546 1.362 . S
C546 H538 0.930 . S
C546 C545 1.362 . S
C546 C549 1.409 . S
C547 H539 0.930 . S
C547 C548 1.355 . S
C547 C549 1.415 . S
C548 C547 1.355 . S
C548 C550 1.419 . S
C549 C544 1.425 . S
C549 C546 1.409 . S
C549 C547 1.415 . S
C550 H540 0.930 . S
C550 C548 1.419 . S
C550 C551 1.362 . S
C551 H541 0.930 . S
C551 C544 1.409 . S
C551 C550 1.362 . S
H552 C558 0.930 . S
H553 C561 0.930 . S
H554 C562 0.930 . S
H555 C563 0.930 . S
H556 C566 0.930 . S
H557 C567 0.930 . S
C558 H552 0.930 . S
C558 C559 1.355 . S
C558 C560 1.415 1_455 S
C559 C558 1.355 . S
C559 C561 1.419 . S
C560 C558 1.415 1_655 S
C560 C565 1.425 . S
C560 C567 1.409 . S
C561 H553 0.930 . S
C561 C559 1.419 . S
C561 C562 1.362 1_455 S
C562 H554 0.930 . S
C562 C561 1.362 1_655 S
C562 C565 1.409 . S
C563 H555 0.930 . S
C563 C564 1.355 . S
C563 C565 1.415 . S
C564 C563 1.355 . S
C564 C566 1.419 . S
C565 C560 1.425 . S
C565 C562 1.409 . S
C565 C563 1.415 . S
C566 H556 0.930 . S
C566 C564 1.419 . S
C566 C567 1.362 . S
C567 H557 0.930 . S
C567 C560 1.409 . S
C567 C566 1.362 . S
H568 C574 0.930 . S
H569 C577 0.930 . S
H570 C578 0.930 . S
H571 C579 0.930 . S
H572 C582 0.930 . S
H573 C583 0.930 . S
C574 H568 0.930 . S
C574 C575 1.355 . S
C574 C576 1.415 . S
C575 C574 1.355 . S
C575 C577 1.419 . S
C576 C574 1.415 . S
C576 C581 1.425 . S
C576 C583 1.409 . S
C577 H569 0.930 . S
C577 C575 1.419 . S
C577 C578 1.362 . S
C578 H570 0.930 . S
C578 C577 1.362 . S
C578 C581 1.409 . S
C579 H571 0.930 . S
C579 C580 1.355 . S
C579 C581 1.415 . S
C580 C579 1.355 . S
C580 C582 1.419 . S
C581 C576 1.425 . S
C581 C578 1.409 . S
C581 C579 1.415 . S
C582 H572 0.930 . S
C582 C580 1.419 . S
C582 C583 1.362 . S
C583 H573 0.930 . S
C583 C576 1.409 . S
C583 C582 1.362 . S
H584 C590 0.930 . S
H585 C593 0.930 . S
H586 C594 0.930 . S
H587 C595 0.930 . S
H588 C598 0.930 . S
H589 C599 0.930 . S
C590 H584 0.930 . S
C590 C591 1.355 . S
C590 C592 1.415 . S
C591 C590 1.355 . S
C591 C593 1.419 . S
C592 C590 1.415 . S
C592 C597 1.425 . S
C592 C599 1.409 . S
C593 H585 0.930 . S
C593 C591 1.419 . S
C593 C594 1.362 . S
C594 H586 0.930 . S
C594 C593 1.362 . S
C594 C597 1.409 . S
C595 H587 0.930 . S
C595 C596 1.355 . S
C595 C597 1.415 . S
C596 C595 1.355 . S
C596 C598 1.419 . S
C597 C592 1.425 . S
C597 C594 1.409 . S
C597 C595 1.415 . S
C598 H588 0.930 . S
C598 C596 1.419 . S
C598 C599 1.362 . S
C599 H589 0.930 . S
C599 C592 1.409 . S
C599 C598 1.362 . S
H600 C606 0.930 . S
H601 C609 0.930 . S
H602 C610 0.930 . S
H603 C611 0.930 . S
H604 C614 0.930 . S
H605 C615 0.930 . S
C606 H600 0.930 . S
C606 C607 1.355 . S
C606 C608 1.415 . S
C607 C606 1.355 . S
C607 C609 1.419 . S
C608 C606 1.415 . S
C608 C613 1.425 . S
C608 C615 1.409 . S
C609 H601 0.930 . S
C609 C607 1.419 . S
C609 C610 1.362 . S
C610 H602 0.930 . S
C610 C609 1.362 . S
C610 C613 1.409 . S
C611 H603 0.930 . S
C611 C612 1.355 . S
C611 C613 1.415 . S
C612 C611 1.355 . S
C612 C614 1.419 . S
C613 C608 1.425 . S
C613 C610 1.409 . S
C613 C611 1.415 . S
C614 H604 0.930 . S
C614 C612 1.419 . S
C614 C615 1.362 . S
C615 H605 0.930 . S
C615 C608 1.409 . S
C615 C614 1.362 . S
H616 C622 0.930 . S
H617 C625 0.930 . S
H618 C626 0.930 . S
H619 C627 0.930 . S
H620 C630 0.930 . S
H621 C631 0.930 . S
C622 H616 0.930 . S
C622 C623 1.355 . S
C622 C624 1.415 . S
C623 C622 1.355 . S
C623 C625 1.419 . S
C624 C622 1.415 . S
C624 C629 1.425 . S
C624 C631 1.409 . S
C625 H617 0.930 . S
C625 C623 1.419 . S
C625 C626 1.362 . S
C626 H618 0.930 . S
C626 C625 1.362 . S
C626 C629 1.409 . S
C627 H619 0.930 . S
C627 C628 1.355 . S
C627 C629 1.415 . S
C628 C627 1.355 . S
C628 C630 1.419 . S
C629 C624 1.425 . S
C629 C626 1.409 . S
C629 C627 1.415 . S
C630 H620 0.930 . S
C630 C628 1.419 . S
C630 C631 1.362 . S
C631 H621 0.930 . S
C631 C624 1.409 . S
C631 C630 1.362 . S
H632 C638 0.930 . S
H633 C641 0.930 . S
H634 C642 0.930 . S
H635 C643 0.930 . S
H636 C646 0.930 . S
H637 C647 0.930 . S
C638 H632 0.930 . S
C638 C639 1.355 . S
C638 C640 1.415 . S
C639 C638 1.355 . S
C639 C641 1.419 . S
C640 C638 1.415 . S
C640 C645 1.425 . S
C640 C647 1.409 . S
C641 H633 0.930 . S
C641 C639 1.419 . S
C641 C642 1.362 . S
C642 H634 0.930 . S
C642 C641 1.362 . S
C642 C645 1.409 . S
C643 H635 0.930 . S
C643 C644 1.355 . S
C643 C645 1.415 . S
C644 C643 1.355 . S
C644 C646 1.419 . S
C645 C640 1.425 . S
C645 C642 1.409 . S
C645 C643 1.415 . S
C646 H636 0.930 . S
C646 C644 1.419 . S
C646 C647 1.362 . S
C647 H637 0.930 . S
C647 C640 1.409 . S
C647 C646 1.362 . S
H648 C654 0.930 . S
H649 C657 0.930 . S
H650 C658 0.930 . S
H651 C659 0.930 . S
H652 C662 0.930 . S
H653 C663 0.930 . S
C654 H648 0.930 . S
C654 C655 1.355 . S
C654 C656 1.415 . S
C655 C654 1.355 . S
C655 C657 1.419 . S
C656 C654 1.415 . S
C656 C661 1.425 . S
C656 C663 1.409 . S
C657 H649 0.930 . S
C657 C655 1.419 . S
C657 C658 1.362 . S
C658 H650 0.930 . S
C658 C657 1.362 . S
C658 C661 1.409 . S
C659 H651 0.930 . S
C659 C660 1.355 . S
C659 C661 1.415 . S
C660 C659 1.355 . S
C660 C662 1.419 . S
C661 C656 1.425 . S
C661 C658 1.409 . S
C661 C659 1.415 . S
C662 H652 0.930 . S
C662 C660 1.419 . S
C662 C663 1.362 . S
C663 H653 0.930 . S
C663 C656 1.409 . S
C663 C662 1.362 . S
H664 C670 0.930 . S
H665 C673 0.930 . S
H666 C674 0.930 . S
H667 C675 0.930 . S
H668 C678 0.930 . S
H669 C679 0.930 . S
C670 H664 0.930 . S
C670 C671 1.355 . S
C670 C672 1.415 . S
C671 C670 1.355 . S
C671 C673 1.419 . S
C672 C670 1.415 . S
C672 C677 1.425 . S
C672 C679 1.409 . S
C673 H665 0.930 . S
C673 C671 1.419 . S
C673 C674 1.362 . S
C674 H666 0.930 . S
C674 C673 1.362 . S
C674 C677 1.409 . S
C675 H667 0.930 . S
C675 C676 1.355 . S
C675 C677 1.415 . S
C676 C675 1.355 . S
C676 C678 1.419 . S
C677 C672 1.425 . S
C677 C674 1.409 . S
C677 C675 1.415 . S
C678 H668 0.930 . S
C678 C676 1.419 . S
C678 C679 1.362 . S
C679 H669 0.930 . S
C679 C672 1.409 . S
C679 C678 1.362 . S
H680 C686 0.930 . S
H681 C689 0.930 . S
H682 C690 0.930 . S
H683 C691 0.930 . S
H684 C694 0.930 . S
H685 C695 0.930 . S
C686 H680 0.930 . S
C686 C687 1.355 . S
C686 C688 1.415 . S
C687 C686 1.355 . S
C687 C689 1.419 . S
C688 C686 1.415 . S
C688 C693 1.425 . S
C688 C695 1.409 . S
C689 H681 0.930 . S
C689 C687 1.419 . S
C689 C690 1.362 . S
C690 H682 0.930 . S
C690 C689 1.362 . S
C690 C693 1.409 . S
C691 H683 0.930 . S
C691 C692 1.355 . S
C691 C693 1.415 . S
C692 C691 1.355 . S
C692 C694 1.419 . S
C693 C688 1.425 . S
C693 C690 1.409 . S
C693 C691 1.415 . S
C694 H684 0.930 . S
C694 C692 1.419 . S
C694 C695 1.362 . S
C695 H685 0.930 . S
C695 C688 1.409 . S
C695 C694 1.362 . S
H696 C702 0.930 . S
H697 C705 0.930 . S
H698 C706 0.930 . S
H699 C707 0.930 . S
H700 C710 0.930 . S
H701 C711 0.930 . S
C702 H696 0.930 . S
C702 C703 1.355 . S
C702 C704 1.415 . S
C703 C702 1.355 . S
C703 C705 1.419 . S
C704 C702 1.415 . S
C704 C709 1.425 . S
C704 C711 1.409 . S
C705 H697 0.930 . S
C705 C703 1.419 . S
C705 C706 1.362 . S
C706 H698 0.930 . S
C706 C705 1.362 . S
C706 C709 1.409 . S
C707 H699 0.930 . S
C707 C708 1.355 . S
C707 C709 1.415 . S
C708 C707 1.355 . S
C708 C710 1.419 . S
C709 C704 1.425 . S
C709 C706 1.409 . S
C709 C707 1.415 . S
C710 H700 0.930 . S
C710 C708 1.419 . S
C710 C711 1.362 . S
C711 H701 0.930 . S
C711 C704 1.409 . S
C711 C710 1.362 . S
H712 C718 0.930 . S
H713 C721 0.930 . S
H714 C722 0.930 . S
H715 C723 0.930 . S
H716 C726 0.930 . S
H717 C727 0.930 . S
C718 H712 0.930 . S
C718 C719 1.355 . S
C718 C720 1.415 . S
C719 C718 1.355 . S
C719 C721 1.419 1_556 S
C720 C718 1.415 . S
C720 C725 1.425 . S
C720 C727 1.409 . S
C721 H713 0.930 . S
C721 C719 1.419 1_554 S
C721 C722 1.362 . S
C722 H714 0.930 . S
C722 C721 1.362 . S
C722 C725 1.409 1_554 S
C723 H715 0.930 . S
C723 C724 1.355 . S
C723 C725 1.415 . S
C724 C723 1.355 . S
C724 C726 1.419 . S
C725 C720 1.425 . S
C725 C722 1.409 1_556 S
C725 C723 1.415 . S
C726 H716 0.930 . S
C726 C724 1.419 . S
C726 C727 1.362 . S
C727 H717 0.930 . S
C727 C720 1.409 . S
C727 C726 1.362 . S
C351 C8 1.576 . S
C356 C105 1.534 1_565 S
C367 C31 1.424 . S
C372 C137 1.441 . S
C383 C53 1.707 . S
C388 C169 1.583 . S
C404 C213 1.474 . S
C399 C74 1.402 . S
C420 C233 1.511 . S
C415 C26 1.508 . S
C431 C48 1.407 . S
C436 C277 1.489 . S
C447 C71 1.660 . S
C452 C297 1.464 . S
C463 C5 1.463 . S
C468 C341 1.351 . S
C479 C50 1.546 . S
C484 C329 1.406 1_545 S
C500 C245 1.449 . S
C495 C70 1.506 . S
C516 C265 1.638 . S
C511 C4 1.683 1_556 S
C527 C28 1.399 . S
C532 C309 1.306 . S
C548 C149 1.573 . S
C543 C73 1.567 . S
C559 C7 1.403 . S
C564 C181 1.356 . S
C580 C201 1.659 . S
C575 C30 1.648 . S
C596 C117 1.471 . S
C591 C52 1.459 . S
C612 C303 1.439 . S
C607 C9 1.550 . S
C628 C335 1.259 . S
C623 C29 1.385 . S
C639 C51 1.392 . S
C644 C239 1.428 . S
C660 C271 1.546 . S
C655 C75 1.575 . S
C676 C175 1.400 . S
C671 C27 1.557 . S
C687 C49 1.553 . S
C692 C207 1.522 . S
C708 C111 1.441 . S
C703 C72 1.403 . S
C724 C143 1.405 . S
C719 C6 1.353 1_556 S
