# Generated by pormake.
# Topology zzz, (3,6)-cn, num edge types: 1
# Building blocks:
#     Node 0, Type 0, BuildingBlock: MIDCAF_clean_linker_0, # of connection points: 3
#     Node 1, Type 0, BuildingBlock: MIDCAF_clean_linker_0, # of connection points: 3
#     Node 2, Type 0, BuildingBlock: MIDCAF_clean_linker_0, # of connection points: 3
#     Node 3, Type 0, BuildingBlock: MIDCAF_clean_linker_0, # of connection points: 3
#     Node 4, Type 0, BuildingBlock: MIDCAF_clean_linker_0, # of connection points: 3
#     Node 5, Type 0, BuildingBlock: MIDCAF_clean_linker_0, # of connection points: 3
#     Node 6, Type 0, BuildingBlock: MIDCAF_clean_linker_0, # of connection points: 3
#     Node 7, Type 0, BuildingBlock: MIDCAF_clean_linker_0, # of connection points: 3
#     Node 8, Type 1, BuildingBlock: INOVEN_clean_sbu_0, # of connection points: 6
#     Node 9, Type 1, BuildingBlock: INOVEN_clean_sbu_0, # of connection points: 6
#     Node 10, Type 1, BuildingBlock: INOVEN_clean_sbu_0, # of connection points: 6
#     Node 11, Type 1, BuildingBlock: INOVEN_clean_sbu_0, # of connection points: 6
#     Edge 12, Type (0, 1), BuildingBlock: MIFKUJ_clean_linker_0, # of connection points: 2
#     Edge 13, Type (0, 1), BuildingBlock: MIFKUJ_clean_linker_0, # of connection points: 2
#     Edge 14, Type (0, 1), BuildingBlock: MIFKUJ_clean_linker_0, # of connection points: 2
#     Edge 15, Type (0, 1), BuildingBlock: MIFKUJ_clean_linker_0, # of connection points: 2
#     Edge 16, Type (0, 1), BuildingBlock: MIFKUJ_clean_linker_0, # of connection points: 2
#     Edge 17, Type (0, 1), BuildingBlock: MIFKUJ_clean_linker_0, # of connection points: 2
#     Edge 18, Type (0, 1), BuildingBlock: MIFKUJ_clean_linker_0, # of connection points: 2
#     Edge 19, Type (0, 1), BuildingBlock: MIFKUJ_clean_linker_0, # of connection points: 2
#     Edge 20, Type (0, 1), BuildingBlock: MIFKUJ_clean_linker_0, # of connection points: 2
#     Edge 21, Type (0, 1), BuildingBlock: MIFKUJ_clean_linker_0, # of connection points: 2
#     Edge 22, Type (0, 1), BuildingBlock: MIFKUJ_clean_linker_0, # of connection points: 2
#     Edge 23, Type (0, 1), BuildingBlock: MIFKUJ_clean_linker_0, # of connection points: 2
#     Edge 24, Type (0, 1), BuildingBlock: MIFKUJ_clean_linker_0, # of connection points: 2
#     Edge 25, Type (0, 1), BuildingBlock: MIFKUJ_clean_linker_0, # of connection points: 2
#     Edge 26, Type (0, 1), BuildingBlock: MIFKUJ_clean_linker_0, # of connection points: 2
#     Edge 27, Type (0, 1), BuildingBlock: MIFKUJ_clean_linker_0, # of connection points: 2
#     Edge 28, Type (0, 1), BuildingBlock: MIFKUJ_clean_linker_0, # of connection points: 2
#     Edge 29, Type (0, 1), BuildingBlock: MIFKUJ_clean_linker_0, # of connection points: 2
#     Edge 30, Type (0, 1), BuildingBlock: MIFKUJ_clean_linker_0, # of connection points: 2
#     Edge 31, Type (0, 1), BuildingBlock: MIFKUJ_clean_linker_0, # of connection points: 2
#     Edge 32, Type (0, 1), BuildingBlock: MIFKUJ_clean_linker_0, # of connection points: 2
#     Edge 33, Type (0, 1), BuildingBlock: MIFKUJ_clean_linker_0, # of connection points: 2
#     Edge 34, Type (0, 1), BuildingBlock: MIFKUJ_clean_linker_0, # of connection points: 2
#     Edge 35, Type (0, 1), BuildingBlock: MIFKUJ_clean_linker_0, # of connection points: 2
# Relax obj value: 0.401
# Max RMSD: 0.274
# Mean RMSD: 0.250
data_MOF--net-zzz--node1-INOVEN_clean_sbu_0--node2-MIDCAF_clean_linker_0--edge1-MIFKUJ_clean_linker_0
_symmetry_space_group_name_H-M    P1
_symmetry_Int_Tables_number       1
_symmetry_cell_setting            triclinic
loop_
_symmetry_equiv_pos_as_xyz
'x, y, z'
_cell_length_a     74.538728
_cell_length_b     74.526878
_cell_length_c     22.789953
_cell_angle_alpha  89.808138
_cell_angle_beta   89.926873
_cell_angle_gamma 90.425542
loop_
_atom_site_label
_atom_site_type_symbol
_atom_site_fract_x
_atom_site_fract_y
_atom_site_fract_z
_atom_type_partial_charge
C0 C 0.79263 0.55251 0.37219 0.0
C1 C 0.79556 0.5352 0.39474 0.0
C2 C 0.78255 0.52178 0.38372 0.0
C3 C 0.76772 0.52532 0.3472 0.0
H4 H 0.69736 0.56579 0.22887 0.0
H5 H 0.66795 0.56074 0.18457 0.0
H6 H 0.68129 0.50519 0.15593 0.0
H7 H 0.71079 0.51037 0.20088 0.0
H8 H 0.7339 0.56302 0.06861 0.0
H9 H 0.74886 0.57043 0.97638 0.0
H10 H 0.79917 0.5761 0.06891 0.0
H11 H 0.78428 0.56929 0.16052 0.0
H12 H 0.77678 0.56924 0.31668 0.0
H13 H 0.80205 0.5633 0.38093 0.0
H14 H 0.78438 0.5083 0.40042 0.0
H15 H 0.75857 0.51448 0.33621 0.0
N16 N 0.73583 0.5397 0.27086 0.0
N17 N 0.73247 0.55207 0.17613 0.0
N18 N 0.76007 0.55417 0.22357 0.0
C19 C 0.72534 0.54335 0.22306 0.0
C20 C 0.74982 0.55745 0.17578 0.0
C21 C 0.75333 0.54542 0.27119 0.0
C22 C 0.70618 0.53839 0.21933 0.0
C23 C 0.69364 0.5523 0.21578 0.0
C24 C 0.67692 0.54946 0.1895 0.0
C25 C 0.6724 0.53264 0.16574 0.0
C26 C 0.68432 0.51828 0.17404 0.0
C27 C 0.70115 0.52117 0.20031 0.0
C28 C 0.75797 0.56516 0.12191 0.0
C29 C 0.74808 0.56628 0.06944 0.0
C30 C 0.75665 0.57048 0.01647 0.0
C31 C 0.77525 0.57367 0.01493 0.0
C32 C 0.78479 0.57395 0.06818 0.0
C33 C 0.77625 0.56981 0.12097 0.0
C34 C 0.76572 0.54231 0.32114 0.0
C35 C 0.77802 0.55597 0.33575 0.0
C36 C 0.98408 0.78921 0.37685 0.0
C37 C 0.99651 0.80326 0.36677 0.0
C38 C 0.00867 0.80157 0.31992 0.0
C39 C 0.00747 0.78714 0.28127 0.0
H40 H 0.9574 0.71155 0.17483 0.0
H41 H 0.95839 0.6803 0.14377 0.0
H42 H 0.01346 0.67714 0.20126 0.0
H43 H 0.01231 0.70856 0.23246 0.0
H44 H 0.99829 0.73875 0.03792 0.0
H45 H 1.00297 0.75141 0.93976 0.0
H46 H 0.98688 0.80339 0.00305 0.0
H47 H 0.98248 0.79093 0.10116 0.0
H48 H 0.97268 0.76443 0.34474 0.0
H49 H 0.97453 0.79005 0.41256 0.0
H50 H 0.01877 0.81179 0.31172 0.0
H51 H 0.01649 0.78681 0.24393 0.0
N52 N 0.98863 0.74299 0.24903 0.0
N53 N 0.98643 0.73893 0.14676 0.0
N54 N 0.99125 0.76763 0.18443 0.0
C55 C 0.98619 0.73198 0.20179 0.0
C56 C 0.9889 0.7567 0.13766 0.0
C57 C 0.99109 0.761 0.24008 0.0
C58 C 0.98467 0.71233 0.20689 0.0
C59 C 0.96938 0.70386 0.18369 0.0
C60 C 0.97002 0.68597 0.16552 0.0
C61 C 0.98609 0.67628 0.16922 0.0
C62 C 1.00094 0.68431 0.19725 0.0
C63 C 1.00021 0.7022 0.21606 0.0
C64 C 0.99012 0.7639 0.07731 0.0
C65 C 0.99551 0.75283 0.03066 0.0
C66 C 0.99821 0.76003 0.97456 0.0
C67 C 0.99517 0.7783 0.96392 0.0
C68 C 0.98909 0.78919 0.00997 0.0
C69 C 0.98673 0.7821 0.06621 0.0
C70 C 0.99432 0.77375 0.28879 0.0
C71 C 0.98303 0.77452 0.33818 0.0
C72 C 0.72424 0.98382 0.36566 0.0
C73 C 0.72398 0.99971 0.39863 0.0
C74 C 0.73821 0.01214 0.39075 0.0
C75 C 0.75191 0.00894 0.34938 0.0
H76 H 0.80223 0.02823 0.18943 0.0
H77 H 0.831 0.03663 0.14428 0.0
H78 H 0.84949 0.98225 0.16671 0.0
H79 H 0.82084 0.97406 0.21161 0.0
H80 H 0.78151 0.97178 0.05983 0.0
H81 H 0.76565 0.96217 0.97157 0.0
H82 H 0.71667 0.95716 0.07268 0.0
H83 H 0.7325 0.96571 0.15993 0.0
H84 H 0.73704 0.96842 0.29944 0.0
H85 H 0.7135 0.97401 0.36916 0.0
H86 H 0.7386 0.02446 0.41574 0.0
H87 H 0.76226 0.01901 0.34257 0.0
N88 N 0.78072 0.99738 0.26049 0.0
N89 N 0.78377 0.9847 0.16615 0.0
N90 N 0.7569 0.98137 0.2174 0.0
C91 C 0.79089 0.99407 0.21164 0.0
C92 C 0.76674 0.97837 0.16858 0.0
C93 C 0.7636 0.99068 0.26357 0.0
C94 C 0.8095 1.0006 0.20494 0.0
C95 C 0.8128 0.01836 0.18716 0.0
C96 C 0.82917 0.02306 0.16052 0.0
C97 C 0.84252 0.01007 0.1513 0.0
C98 C 0.83965 0.99266 0.17359 0.0
C99 C 0.82326 0.98795 0.19962 0.0
C100 C 0.75822 0.96984 0.11688 0.0
C101 C 0.76744 0.96819 0.06327 0.0
C102 C 0.75832 0.96276 0.01254 0.0
C103 C 0.73979 0.959 0.0144 0.0
C104 C 0.73096 0.95958 0.069 0.0
C105 C 0.74006 0.96477 0.11946 0.0
C106 C 0.75153 0.99334 0.31487 0.0
C107 C 0.73777 0.98067 0.32487 0.0
C108 C 0.49602 0.73392 0.04238 0.0
C109 C 0.48796 0.74392 0.99732 0.0
C110 C 0.48453 0.76218 0.00621 0.0
C111 C 0.48943 0.77039 0.059 0.0
H112 H 0.48632 0.82031 0.19383 0.0
H113 H 0.49129 0.8505 0.15563 0.0
H114 H 0.54847 0.84388 0.17631 0.0
H115 H 0.54329 0.81345 0.21478 0.0
H116 H 0.54273 0.74982 0.29008 0.0
H117 H 0.54498 0.72423 0.35731 0.0
H118 H 0.48926 0.73069 0.40473 0.0
H119 H 0.48731 0.75643 0.33825 0.0
H120 H 0.5069 0.73392 0.12905 0.0
H121 H 0.49852 0.71971 0.03697 0.0
H122 H 0.47824 0.77012 0.97218 0.0
H123 H 0.48677 0.78455 0.06456 0.0
N124 N 0.50552 0.78701 0.1615 0.0
N125 N 0.51499 0.7851 0.25988 0.0
N126 N 0.50643 0.75908 0.20814 0.0
C127 C 0.5115 0.79514 0.21094 0.0
C128 C 0.5122 0.76695 0.25839 0.0
C129 C 0.5031 0.76903 0.15949 0.0
C130 C 0.5144 0.81472 0.20822 0.0
C131 C 0.49989 0.82564 0.19273 0.0
C132 C 0.50278 0.84293 0.17056 0.0
C133 C 0.5203 0.84961 0.16237 0.0
C134 C 0.53481 0.83909 0.1816 0.0
C135 C 0.53186 0.82179 0.20452 0.0
C136 C 0.51497 0.7553 0.31008 0.0
C137 C 0.53122 0.74616 0.31676 0.0
C138 C 0.53239 0.73133 0.35461 0.0
C139 C 0.51724 0.72519 0.38613 0.0
C140 C 0.50126 0.73508 0.38185 0.0
C141 C 0.50013 0.7499 0.34394 0.0
C142 C 0.49751 0.76035 0.10416 0.0
C143 C 0.50065 0.74201 0.09535 0.0
C144 C 0.236 0.49345 0.95965 0.0
C145 C 0.22073 0.48231 0.96558 0.0
C146 C 0.2214 0.46789 0.00517 0.0
C147 C 0.23641 0.46524 0.04048 0.0
H148 H 0.30637 0.51459 0.13325 0.0
H149 H 0.33609 0.52339 0.16945 0.0
H150 H 0.35387 0.46866 0.15089 0.0
H151 H 0.32436 0.46015 0.11409 0.0
H152 H 0.28914 0.46959 0.28696 0.0
H153 H 0.27556 0.4652 0.38344 0.0
H154 H 0.22784 0.44374 0.3013 0.0
H155 H 0.24134 0.44792 0.20554 0.0
H156 H 0.26237 0.50013 0.99245 0.0
H157 H 0.23588 0.50466 0.92927 0.0
H158 H 0.21005 0.45883 0.00992 0.0
H159 H 0.23604 0.45418 0.07146 0.0
N160 N 0.28251 0.48204 0.07737 0.0
N161 N 0.2893 0.47229 0.17341 0.0
N162 N 0.26067 0.46753 0.13554 0.0
C163 C 0.29454 0.48015 0.12238 0.0
C164 C 0.2724 0.46598 0.18046 0.0
C165 C 0.26543 0.47539 0.08389 0.0
C166 C 0.31321 0.48678 0.11968 0.0
C167 C 0.31697 0.50472 0.13394 0.0
C168 C 0.3339 0.50964 0.15581 0.0
C169 C 0.34737 0.49668 0.16412 0.0
C170 C 0.34399 0.47907 0.14474 0.0
C171 C 0.32708 0.47418 0.12314 0.0
C172 C 0.26613 0.45951 0.23846 0.0
C173 C 0.27597 0.46342 0.28958 0.0
C174 C 0.26821 0.46091 0.34493 0.0
C175 C 0.25057 0.45431 0.35007 0.0
C176 C 0.24152 0.44871 0.29914 0.0
C177 C 0.24919 0.45133 0.24396 0.0
C178 C 0.25129 0.47698 0.03783 0.0
C179 C 0.25117 0.49084 0.99566 0.0
C180 C 0.01158 0.23868 0.96315 0.0
C181 C 0.02365 0.22417 0.96366 0.0
C182 C 0.03768 0.22443 0.00498 0.0
C183 C 0.03874 0.23785 0.04746 0.0
H184 H 0.99158 0.30957 0.16051 0.0
H185 H 0.98897 0.33995 0.19952 0.0
H186 H 0.04627 0.34722 0.18292 0.0
H187 H 0.04874 0.31677 0.14343 0.0
H188 H 0.02053 0.28068 0.31319 0.0
H189 H 0.0143 0.26571 0.40628 0.0
H190 H 0.01898 0.21422 0.32119 0.0
H191 H 0.02557 0.22906 0.22877 0.0
H192 H 1.00285 0.26283 0.00598 0.0
H193 H 1.00056 0.23898 0.93229 0.0
H194 H 0.04763 0.21392 0.00579 0.0
H195 H 0.04914 0.23706 0.08053 0.0
N196 N 0.02341 0.28154 0.09771 0.0
N197 N 0.02286 0.28308 0.20091 0.0
N198 N 0.02587 0.25532 0.15513 0.0
C199 C 0.02245 0.29141 0.14798 0.0
C200 C 0.02454 0.26507 0.20505 0.0
C201 C 0.02532 0.26334 0.10151 0.0
C202 C 0.0203 0.31102 0.14796 0.0
C203 C 1.00346 0.31802 0.1624 0.0
C204 C 1.00203 0.33531 0.18555 0.0
C205 C 0.01746 0.34588 0.19523 0.0
C206 C 0.03413 0.33946 0.17571 0.0
C207 C 0.03555 0.32209 0.15264 0.0
C208 C 0.0233 0.25608 0.2631 0.0
C209 C 0.02055 0.26615 0.31448 0.0
C210 C 0.01693 0.25759 0.36793 0.0
C211 C 0.01603 0.23878 0.37124 0.0
C212 C 0.01981 0.22874 0.32057 0.0
C213 C 0.02343 0.23727 0.26722 0.0
C214 C 0.02614 0.25173 0.04899 0.0
C215 C 0.01288 0.25239 0.00527 0.0
C216 C 0.28942 0.0167 0.9566 0.0
C217 C 0.29189 0.02896 0.9103 0.0
C218 C 0.27849 0.04183 0.89989 0.0
C219 C 0.2638 0.04341 0.93851 0.0
H220 H 0.20076 0.01364 0.07498 0.0
H221 H 0.17086 0.01135 0.11972 0.0
H222 H 0.17339 0.06763 0.16365 0.0
H223 H 0.20328 0.06967 0.12038 0.0
H224 H 0.2382 0.04029 0.25224 0.0
H225 H 0.25575 0.03486 0.34107 0.0
H226 H 0.30459 0.04423 0.2434 0.0
H227 H 0.28725 0.04948 0.15476 0.0
H228 H 0.2741 0.00941 0.03254 0.0
H229 H 0.29934 0.00649 0.9653 0.0
H230 H 0.28005 0.0515 0.86462 0.0
H231 H 0.25453 0.0544 0.93273 0.0
N232 N 0.23297 0.03776 0.03846 0.0
N233 N 0.23329 0.04474 0.13943 0.0
N234 N 0.26023 0.03999 0.09008 0.0
C235 C 0.22398 0.04182 0.08915 0.0
C236 C 0.2514 0.04389 0.14024 0.0
C237 C 0.25131 0.03704 0.03917 0.0
C238 C 0.20422 0.04188 0.09371 0.0
C239 C 0.19451 0.02566 0.09172 0.0
C240 C 0.17744 0.02434 0.11786 0.0
C241 C 0.16988 0.03922 0.14652 0.0
C242 C 0.17896 0.05581 0.14319 0.0
C243 C 0.19597 0.05708 0.11754 0.0
C244 C 0.26138 0.04485 0.19614 0.0
C245 C 0.25266 0.04168 0.25007 0.0
C246 C 0.26267 0.03864 0.301 0.0
C247 C 0.28148 0.03879 0.29856 0.0
C248 C 0.29008 0.04372 0.24603 0.0
C249 C 0.28014 0.0467 0.19529 0.0
C250 C 0.26228 0.03204 0.98762 0.0
C251 C 0.27485 0.01825 0.99474 0.0
C252 C 0.44957 0.27825 0.23691 0.0
C253 C 0.45506 0.27086 0.29069 0.0
C254 C 0.46175 0.25333 0.29208 0.0
C255 C 0.46427 0.24387 0.23997 0.0
H256 H 0.46024 0.19056 0.08787 0.0
H257 H 0.4681 0.16184 0.13167 0.0
H258 H 0.52368 0.17857 0.13844 0.0
H259 H 0.51555 0.20753 0.09482 0.0
H260 H 0.45301 0.26594 0.97577 0.0
H261 H 0.45726 0.292 0.91246 0.0
H262 H 0.51472 0.28529 0.92273 0.0
H263 H 0.51022 0.25856 0.98442 0.0
H264 H 0.44905 0.27543 0.14358 0.0
H265 H 0.44454 0.29184 0.23465 0.0
H266 H 0.46606 0.24738 0.33311 0.0
H267 H 0.47046 0.23079 0.24228 0.0
N268 N 0.47292 0.22674 0.13028 0.0
N269 N 0.4846 0.23051 0.03487 0.0
N270 N 0.46981 0.25424 0.08238 0.0
C271 C 0.48142 0.21988 0.08287 0.0
C272 C 0.47842 0.24775 0.03449 0.0
C273 C 0.46716 0.24389 0.13063 0.0
C274 C 0.48734 0.2011 0.08709 0.0
C275 C 0.47426 0.18773 0.09612 0.0
C276 C 0.47879 0.17128 0.12158 0.0
C277 C 0.49651 0.16792 0.13942 0.0
C278 C 0.50986 0.1808 0.12595 0.0
C279 C 0.5053 0.19726 0.10001 0.0
C280 C 0.48127 0.26018 0.98454 0.0
C281 C 0.46652 0.2697 0.9628 0.0
C282 C 0.46901 0.28482 0.92723 0.0
C283 C 0.48637 0.29113 0.91353 0.0
C284 C 0.50115 0.28086 0.93213 0.0
C285 C 0.49861 0.26548 0.96725 0.0
C286 C 0.46045 0.25196 0.18555 0.0
C287 C 0.45233 0.26891 0.18472 0.0
Gd288 Gd 0.01565 0.01248 0.68964 0.0
Gd289 Gd 0.99181 0.02345 0.58302 0.0
C290 C 0.99927 0.98158 0.60172 0.0
C291 C 0.02986 0.99427 0.77282 0.0
C292 C 0.03307 0.97477 0.77192 0.0
C293 C 0.04126 0.96679 0.72284 0.0
C294 C 0.0252 0.96374 0.8149 0.0
C295 C 0.03231 0.93725 0.7574 0.0
C296 C 0.0248 0.94513 0.80767 0.0
C297 C 0.04096 0.9482 0.71584 0.0
C298 C 0.03326 0.02279 0.59114 0.0
C299 C 0.00533 0.05341 0.67951 0.0
C300 C 0.98132 0.0377 0.48672 0.0
C301 C 0.97012 0.05367 0.47876 0.0
C302 C 0.95572 0.05689 0.51716 0.0
C303 C 0.97601 0.06738 0.44115 0.0
C304 C 0.95538 0.08819 0.48755 0.0
C305 C 0.96871 0.08452 0.44545 0.0
C306 C 0.94839 0.07401 0.52139 0.0
C307 C 0.97092 0.02047 0.68105 0.0
O308 O 0.00668 0.98576 0.65261 0.0
O309 O 0.99385 0.99394 0.56405 0.0
O310 O 0.03945 1.00396 0.73624 0.0
O311 O 0.01293 0.99883 0.77343 0.0
O312 O 0.03838 0.02688 0.64391 0.0
O313 O 0.01928 0.01313 0.59308 0.0
O314 O 1.00063 0.04992 0.62439 0.0
O315 O 0.00957 0.04051 0.71703 0.0
O316 O 0.97339 0.02353 0.5097 0.0
O317 O 0.99714 0.04111 0.50961 0.0
O318 O 0.96478 0.02442 0.62954 0.0
O319 O 0.9875 0.01804 0.67622 0.0
H320 H 0.04715 0.97492 0.68824 0.0
H321 H 0.01863 0.96957 0.85266 0.0
H322 H 0.01828 0.93691 0.84082 0.0
H323 H 0.04673 0.94247 0.67655 0.0
H324 H 0.95092 0.04656 0.54685 0.0
H325 H 0.98721 0.06522 0.41172 0.0
H326 H 0.97456 0.09518 0.4191 0.0
H327 H 0.93797 0.07637 0.55359 0.0
Gd328 Gd 0.51458 0.02567 0.72147 0.0
Gd329 Gd 0.50471 1.00046 0.61461 0.0
C330 C 0.54539 0.01133 0.63052 0.0
C331 C 0.52965 0.03334 0.81903 0.0
C332 C 0.54707 0.02589 0.83697 0.0
C333 C 0.56162 0.0374 0.84851 0.0
C334 C 0.55033 0.00754 0.82824 0.0
C335 C 0.58237 0.01269 0.83444 0.0
C336 C 0.56775 1.00106 0.82619 0.0
C337 C 0.57916 0.03082 0.84769 0.0
C338 C 0.50934 0.04552 0.62261 0.0
C339 C 0.47299 0.01947 0.69704 0.0
C340 C 0.48934 0.98454 0.52799 0.0
C341 C 0.47036 0.98417 0.51091 0.0
C342 C 0.46171 0.9676 0.5018 0.0
C343 C 0.46009 0.99985 0.51486 0.0
C344 C 0.43281 0.98209 0.50919 0.0
C345 C 0.44145 0.99879 0.51379 0.0
C346 C 0.44297 0.96657 0.50074 0.0
C347 C 0.51639 0.98411 0.71337 0.0
O348 O 0.54101 0.01544 0.68526 0.0
O349 O 0.5331 0.00726 0.59077 0.0
O350 O 0.53063 0.04402 0.77342 0.0
O351 O 0.51618 0.02194 0.81582 0.0
O352 O 0.51275 0.05255 0.67356 0.0
O353 O 0.5083 0.02881 0.62908 0.0
O354 O 0.47764 0.01032 0.6492 0.0
O355 O 0.4849 0.02629 0.7341 0.0
O356 O 0.49251 0.97662 0.5782 0.0
O357 O 0.49791 0.99989 0.52214 0.0
O358 O 0.52048 0.97881 0.66087 0.0
O359 O 0.50608 0.99742 0.71048 0.0
H360 H 0.5595 0.05165 0.8543 0.0
H361 H 0.53949 0.99835 0.81904 0.0
H362 H 0.56978 0.98698 0.81676 0.0
H363 H 0.59023 0.0401 0.85408 0.0
H364 H 0.46941 0.95536 0.49922 0.0
H365 H 0.46638 0.01278 0.52244 0.0
H366 H 0.43373 0.01094 0.51921 0.0
H367 H 0.43643 0.9536 0.49662 0.0
Gd368 Gd 0.4991 0.51424 0.71837 0.0
Gd369 Gd 0.52337 0.50352 0.6108 0.0
C370 C 0.51274 0.54477 0.62307 0.0
C371 C 0.48976 0.52846 0.81569 0.0
C372 C 0.48041 0.54547 0.82447 0.0
C373 C 0.46848 0.5517 0.78135 0.0
C374 C 0.48599 0.55705 0.86921 0.0
C375 C 0.46956 0.58148 0.82357 0.0
C376 C 0.48057 0.57495 0.86886 0.0
C377 C 0.46303 0.56955 0.78108 0.0
C378 C 0.47863 0.51061 0.61996 0.0
C379 C 0.50558 0.4725 0.69722 0.0
C380 C 0.53601 0.48648 0.52252 0.0
C381 C 0.53172 0.46785 0.50466 0.0
C382 C 0.54076 0.45331 0.53049 0.0
C383 C 0.51673 0.46435 0.46905 0.0
C384 C 0.51822 0.4326 0.49323 0.0
C385 C 0.51001 0.44691 0.4636 0.0
C386 C 0.53404 0.43585 0.52491 0.0
C387 C 0.54057 0.51424 0.7089 0.0
O388 O 0.50676 0.54096 0.67664 0.0
O389 O 0.51849 0.53225 0.58658 0.0
O390 O 0.48043 0.5155 0.79102 0.0
O391 O 0.50594 0.53041 0.79359 0.0
O392 O 0.4722 0.51501 0.67081 0.0
O393 O 0.49522 0.50842 0.62577 0.0
O394 O 0.51294 0.47683 0.64598 0.0
O395 O 0.50042 0.48471 0.73559 0.0
O396 O 0.54484 0.48819 0.57192 0.0
O397 O 0.52293 0.49808 0.51755 0.0
O398 O 0.54611 0.51809 0.65614 0.0
O399 O 0.52671 0.50445 0.70668 0.0
H400 H 0.46428 0.54309 0.74565 0.0
H401 H 0.49539 0.55256 0.90228 0.0
H402 H 0.48563 0.58387 0.90253 0.0
H403 H 0.45469 0.57426 0.7454 0.0
H404 H 0.55243 0.4555 0.55788 0.0
H405 H 0.50958 0.47518 0.44783 0.0
H406 H 0.49807 0.44471 0.43749 0.0
H407 H 0.54069 0.42507 0.54806 0.0
Gd408 Gd 1.00002 0.49801 0.74493 0.0
Gd409 Gd 0.01398 0.5212 0.63652 0.0
C410 C 0.97219 0.51345 0.64553 0.0
C411 C 0.98299 0.49077 0.84006 0.0
C412 C 0.96508 0.49754 0.85618 0.0
C413 C 0.95008 0.48608 0.85243 0.0
C414 C 0.96235 0.51605 0.86321 0.0
C415 C 0.93018 0.51181 0.85259 0.0
C416 C 0.94512 0.5231 0.86116 0.0
C417 C 0.93278 0.49315 0.85054 0.0
C418 C 0.00695 0.47668 0.65085 0.0
C419 C 0.04236 0.50156 0.72858 0.0
C420 C 0.03309 0.53301 0.55084 0.0
C421 C 0.05142 0.52772 0.53342 0.0
C422 C 0.06613 0.53856 0.54927 0.0
C423 C 0.05464 0.51081 0.50852 0.0
C424 C 0.08675 0.51483 0.52239 0.0
C425 C 0.07209 0.50439 0.50344 0.0
C426 C 0.08361 0.53217 0.54392 0.0
C427 C 1.00131 0.5399 0.72904 0.0
O428 O 0.97501 0.50913 0.70132 0.0
O429 O 0.98555 0.51661 0.60838 0.0
O430 O 0.98306 0.47992 0.79505 0.0
O431 O 0.99609 0.50259 0.83796 0.0
O432 O 1.00199 0.47048 0.70167 0.0
O433 O 0.00845 0.49338 0.65527 0.0
O434 O 0.03924 0.50943 0.67715 0.0
O435 O 0.02935 0.49668 0.76514 0.0
O436 O 0.03202 0.54135 0.60126 0.0
O437 O 0.02032 0.52099 0.54372 0.0
O438 O 0.99969 0.54507 0.67481 0.0
O439 O 0.01034 0.52565 0.73128 0.0
H440 H 0.95178 0.47175 0.84714 0.0
H441 H 0.97354 0.52529 0.86649 0.0
H442 H 0.94367 0.53751 0.86293 0.0
H443 H 0.92149 0.48406 0.8455 0.0
H444 H 0.06408 0.55172 0.5681 0.0
H445 H 0.04369 0.50218 0.49501 0.0
H446 H 0.07401 0.49098 0.48665 0.0
H447 H 0.09465 0.54072 0.55746 0.0
H448 H 0.13847 0.02008 0.12758 0.0
H449 H 0.11322 0.01589 0.19607 0.0
H450 H 0.14031 0.0491 0.32322 0.0
H451 H 0.16544 0.05313 0.25597 0.0
H452 H 0.12762 0.01791 0.37178 0.0
H453 H 0.1054 0.06507 0.24442 0.0
H454 H 0.0967 0.07805 0.14902 0.0
H455 H 0.0579 0.03584 0.12505 0.0
H456 H 0.06655 0.02247 0.22002 0.0
H457 H 0.06474 0.04129 0.58398 0.0
H458 H 0.08569 0.0427 0.50163 0.0
H459 H 0.04958 0.01042 0.3977 0.0
H460 H 0.02833 0.00914 0.48034 0.0
H461 H 0.06524 0.03714 0.33145 0.0
H462 H 0.08516 0.99092 0.45897 0.0
H463 H 0.09338 0.9769 0.55319 0.0
H464 H 0.13618 0.0152 0.57454 0.0
H465 H 0.12806 0.02963 0.48078 0.0
C466 C 0.13898 0.02652 0.17007 0.0
C467 C 0.15393 0.03711 0.18588 0.0
C468 C 0.12451 0.02418 0.20908 0.0
C469 C 0.1248 0.03226 0.2648 0.0
C470 C 0.13972 0.04276 0.28053 0.0
C471 C 0.15404 0.04521 0.24163 0.0
C472 C 0.10991 0.0296 0.30788 0.0
C473 C 0.11402 0.02225 0.36303 0.0
C474 C 0.09198 0.0346 0.29592 0.0
C475 C 0.08677 0.04265 0.23896 0.0
C476 C 0.09512 0.05847 0.21855 0.0
C477 C 0.09018 0.06591 0.16462 0.0
C478 C 0.07679 0.05774 0.1309 0.0
C479 C 0.06829 0.04213 0.15115 0.0
C480 C 0.0732 0.03462 0.20504 0.0
C481 C 0.06116 0.03461 0.54346 0.0
C482 C 0.04496 0.02497 0.53884 0.0
C483 C 0.07319 0.03537 0.49641 0.0
C484 C 0.06941 0.02638 0.44369 0.0
C485 C 0.05286 0.01738 0.43798 0.0
C486 C 0.04075 0.01664 0.48523 0.0
C487 C 0.08312 0.02598 0.3959 0.0
C488 C 0.0788 0.03265 0.33997 0.0
C489 C 0.10086 0.02015 0.40677 0.0
C490 C 0.10591 0.01145 0.46303 0.0
C491 C 0.09625 0.99644 0.48394 0.0
C492 C 0.1009 0.9884 0.53725 0.0
C493 C 0.11527 0.99518 0.56989 0.0
C494 C 0.12505 0.00997 0.54921 0.0
C495 C 0.12044 0.01807 0.49595 0.0
H496 H 0.11885 0.98894 0.61117 0.0
H497 H 0.07298 0.06353 0.08916 0.0
H498 H 0.51771 0.16731 0.23722 0.0
H499 H 0.52093 0.1432 0.30874 0.0
H500 H 0.48681 0.10905 0.204 0.0
H501 H 0.48348 0.13328 0.13193 0.0
H502 H 0.47636 0.10747 0.31384 0.0
H503 H 0.53257 0.10109 0.21873 0.0
H504 H 0.56165 0.11029 0.17618 0.0
H505 H 0.57942 0.12855 0.34502 0.0
H506 H 0.55035 0.11971 0.38848 0.0
H507 H 0.49502 0.03476 0.51707 0.0
H508 H 0.49358 0.0523 0.42549 0.0
H509 H 0.51937 0.0969 0.51214 0.0
H510 H 0.52067 0.07955 0.6032 0.0
H511 H 0.53428 0.089 0.40139 0.0
H512 H 0.47611 0.09827 0.49161 0.0
H513 H 0.44719 0.08815 0.53325 0.0
H514 H 0.43362 0.06282 0.37012 0.0
H515 H 0.4626 0.0726 0.32774 0.0
C516 C 0.51127 0.15453 0.22838 0.0
C517 C 0.5004 0.15226 0.17845 0.0
C518 C 0.51308 0.14071 0.2696 0.0
C519 C 0.50424 0.12416 0.26178 0.0
C520 C 0.49375 0.12167 0.21122 0.0
C521 C 0.49187 0.13554 0.16998 0.0
C522 C 0.50516 0.11 0.30823 0.0
C523 C 0.48907 0.10316 0.33202 0.0
C524 C 0.52169 0.10442 0.33273 0.0
C525 C 0.5392 0.10985 0.30677 0.0
C526 C 0.54262 0.1072 0.24671 0.0
C527 C 0.55911 0.11233 0.22244 0.0
C528 C 0.57236 0.12003 0.25785 0.0
C529 C 0.56915 0.12259 0.31764 0.0
C530 C 0.55266 0.11751 0.34213 0.0
C531 C 0.50042 0.04825 0.51629 0.0
C532 C 0.508 0.05577 0.56709 0.0
C533 C 0.49955 0.05829 0.46413 0.0
C534 C 0.50642 0.07592 0.46196 0.0
C535 C 0.51407 0.08332 0.51268 0.0
C536 C 0.51471 0.07342 0.56477 0.0
C537 C 0.50554 0.08691 0.40744 0.0
C538 C 0.52163 0.09314 0.38231 0.0
C539 C 0.48905 0.09178 0.38143 0.0
C540 C 0.4716 0.08598 0.40674 0.0
C541 C 0.46703 0.0904 0.46479 0.0
C542 C 0.45062 0.08476 0.48849 0.0
C543 C 0.43859 0.07481 0.45439 0.0
C544 C 0.44296 0.07051 0.39649 0.0
C545 C 0.45937 0.0761 0.3726 0.0
H546 H 0.42587 0.07052 0.47277 0.0
H547 H 0.58513 0.12399 0.23897 0.0
H548 H 0.38201 0.48491 0.14694 0.0
H549 H 0.40766 0.48839 0.21314 0.0
H550 H 0.37552 0.52071 0.32873 0.0
H551 H 0.34992 0.51729 0.26315 0.0
H552 H 0.40859 0.53416 0.32254 0.0
H553 H 0.38253 0.47521 0.35275 0.0
H554 H 0.3726 0.44497 0.32272 0.0
H555 H 0.42624 0.43251 0.26828 0.0
H556 H 0.43644 0.46279 0.29722 0.0
H557 H 0.44516 0.5233 0.60359 0.0
H558 H 0.42674 0.52206 0.51531 0.0
H559 H 0.46905 0.49446 0.42415 0.0
H560 H 0.48767 0.49568 0.51338 0.0
H561 H 0.43509 0.47889 0.40668 0.0
H562 H 0.46178 0.53681 0.39021 0.0
H563 H 0.47142 0.56673 0.42426 0.0
H564 H 0.41654 0.58106 0.45521 0.0
H565 H 0.40657 0.55111 0.4223 0.0
C566 C 0.38043 0.49287 0.18623 0.0
C567 C 0.3638 0.50076 0.19957 0.0
C568 C 0.39513 0.49483 0.22415 0.0
C569 C 0.39351 0.50459 0.2766 0.0
C570 C 0.37718 0.51313 0.28862 0.0
C571 C 0.36252 0.51123 0.25073 0.0
C572 C 0.40839 0.50528 0.32051 0.0
C573 C 0.41431 0.52206 0.34105 0.0
C574 C 0.41631 0.48953 0.34378 0.0
C575 C 0.41019 0.47133 0.32644 0.0
C576 C 0.39217 0.46607 0.33391 0.0
C577 C 0.3865 0.44892 0.31716 0.0
C578 C 0.39877 0.43684 0.29342 0.0
C579 C 0.41675 0.44189 0.28653 0.0
C580 C 0.42248 0.45904 0.3031 0.0
C581 C 0.45061 0.51701 0.56473 0.0
C582 C 0.46795 0.50973 0.56522 0.0
C583 C 0.44008 0.51639 0.51414 0.0
C584 C 0.44656 0.50839 0.46271 0.0
C585 C 0.46381 0.50083 0.46316 0.0
C586 C 0.47448 0.50162 0.51395 0.0
C587 C 0.43495 0.50774 0.40947 0.0
C588 C 0.42961 0.49099 0.38734 0.0
C589 C 0.42753 0.52351 0.38486 0.0
C590 C 0.43343 0.54165 0.40409 0.0
C591 C 0.45177 0.54629 0.40465 0.0
C592 C 0.45729 0.56326 0.42371 0.0
C593 C 0.44461 0.57578 0.44196 0.0
C594 C 0.42636 0.57135 0.44106 0.0
C595 C 0.42076 0.55438 0.42214 0.0
H596 H 0.44891 0.58891 0.45671 0.0
H597 H 0.39436 0.42357 0.28051 0.0
H598 H 0.99992 0.34903 0.29903 0.0
H599 H 0.99913 0.37458 0.36489 0.0
H600 H 0.03211 0.40517 0.24453 0.0
H601 H 0.03339 0.37911 0.17861 0.0
H602 H 0.04297 0.41166 0.35132 0.0
H603 H 0.9861 0.41364 0.26092 0.0
H604 H 0.95713 0.40254 0.22296 0.0
H605 H 0.94084 0.38765 0.39733 0.0
H606 H 0.96981 0.39842 0.4363 0.0
H607 H 0.02003 0.48699 0.54326 0.0
H608 H 0.02303 0.46834 0.45481 0.0
H609 H 1.00213 0.42285 0.55111 0.0
H610 H 0.99946 0.44132 0.63897 0.0
H611 H 0.98508 0.4294 0.44093 0.0
H612 H 0.04542 0.42521 0.52495 0.0
H613 H 0.07379 0.43895 0.55871 0.0
H614 H 0.08236 0.4619 0.38784 0.0
H615 H 0.05392 0.44844 0.35322 0.0
C616 C 0.00678 0.36127 0.28593 0.0
C617 C 0.01643 0.36213 0.23296 0.0
C618 C 0.00632 0.37594 0.32377 0.0
C619 C 0.01518 0.39206 0.30926 0.0
C620 C 0.02504 0.39296 0.25662 0.0
C621 C 0.02572 0.37809 0.21889 0.0
C622 C 0.01426 0.40763 0.35029 0.0
C623 C 0.03025 0.41577 0.36994 0.0
C624 C 0.99771 0.41324 0.37461 0.0
C625 C 0.9802 0.40677 0.35149 0.0
C626 C 0.97639 0.4079 0.29115 0.0
C627 C 0.95996 0.40167 0.26945 0.0
C628 C 0.94717 0.39437 0.3077 0.0
C629 C 0.95077 0.39331 0.36775 0.0
C630 C 0.96718 0.3995 0.38969 0.0
C631 C 0.01626 0.47302 0.54533 0.0
C632 C 0.00958 0.46563 0.59779 0.0
C633 C 0.01796 0.46237 0.49498 0.0
C634 C 0.01277 0.4442 0.49642 0.0
C635 C 0.00616 0.43684 0.54896 0.0
C636 C 0.0047 0.4474 0.59919 0.0
C637 C 0.01374 0.4327 0.44342 0.0
C638 C 0.99772 0.42544 0.42141 0.0
C639 C 0.03018 0.42827 0.4162 0.0
C640 C 0.04748 0.43595 0.43665 0.0
C641 C 0.05331 0.43326 0.49466 0.0
C642 C 0.06941 0.44098 0.51393 0.0
C643 C 0.07986 0.4513 0.47545 0.0
C644 C 0.07426 0.45388 0.41756 0.0
C645 C 0.05816 0.4462 0.39808 0.0
H646 H 0.09229 0.45731 0.49049 0.0
H647 H 0.93446 0.38956 0.2908 0.0
H648 H 0.8426 0.02814 0.04683 0.0
H649 H 0.86686 0.03037 0.97507 0.0
H650 H 0.90203 1.00205 0.09268 0.0
H651 H 0.87774 0.99985 0.16536 0.0
H652 H 0.91906 0.03158 0.02809 0.0
H653 H 0.88359 0.97845 0.99414 0.0
H654 H 0.85537 0.96155 0.98017 0.0
H655 H 0.84354 0.99309 0.82721 0.0
H656 H 0.87157 0.01039 0.84084 0.0
H657 H 0.98079 0.01081 0.79361 0.0
H658 H 0.96131 0.00895 0.88061 0.0
H659 H 0.9165 0.02674 0.77633 0.0
H660 H 0.93567 0.02802 0.68984 0.0
H661 H 0.90607 1.0002 0.84106 0.0
H662 H 0.93996 0.05446 0.87584 0.0
H663 H 0.96758 0.07243 0.88898 0.0
H664 H 0.98192 0.04023 0.03808 0.0
H665 H 0.9545 0.02189 0.02526 0.0
C666 C 0.85561 0.02279 0.0583 0.0
C667 C 0.85818 0.01379 0.11198 0.0
C668 C 0.86945 0.02397 0.01694 0.0
C669 C 0.88622 0.01623 0.02824 0.0
C670 C 0.8892 0.0081 0.083 0.0
C671 C 0.87527 0.00678 0.12434 0.0
C672 C 0.89996 0.01538 0.98085 0.0
C673 C 0.91637 0.02452 0.98746 0.0
C674 C 0.89636 0.00635 0.92757 0.0
C675 C 0.87961 0.99582 0.91882 0.0
C676 C 0.87491 0.98188 0.95778 0.0
C677 C 0.85895 0.97221 0.94989 0.0
C678 C 0.84765 0.97627 0.9029 0.0
C679 C 0.8523 0.98997 0.86362 0.0
C680 C 0.86823 0.9997 0.87138 0.0
C681 C 0.96679 0.01424 0.78945 0.0
C682 C 0.95975 0.01944 0.73486 0.0
C683 C 0.95566 0.01331 0.83924 0.0
C684 C 0.93737 0.01781 0.83536 0.0
C685 C 0.93048 0.0231 0.78071 0.0
C686 C 0.9415 0.02387 0.73119 0.0
C687 C 0.92511 0.01683 0.88726 0.0
C688 C 0.90892 0.00722 0.88166 0.0
C689 C 0.9289 0.02557 0.9411 0.0
C690 C 0.94529 0.03668 0.94919 0.0
C691 C 0.94907 0.05113 0.91117 0.0
C692 C 0.96468 0.06139 0.91858 0.0
C693 C 0.97652 0.05744 0.96423 0.0
C694 C 0.97275 0.04325 0.00267 0.0
C695 C 0.95718 0.03292 0.99536 0.0
H696 H 0.9886 0.0654 0.9699 0.0
H697 H 0.8353 0.96877 0.89686 0.0
H698 H 0.50198 0.8814 0.16947 0.0
H699 H 0.50369 0.90692 0.10181 0.0
H700 H 0.54655 0.88119 0.00757 0.0
H701 H 0.54499 0.8557 0.07524 0.0
H702 H 0.55235 0.91688 0.01169 0.0
H703 H 0.50313 0.87796 0.96072 0.0
H704 H 0.47525 0.86077 0.97854 0.0
H705 H 0.44772 0.9094 0.02161 0.0
H706 H 0.47553 0.92686 0.00487 0.0
H707 H 0.54053 0.95724 0.72902 0.0
H708 H 0.54379 0.93755 0.81462 0.0
H709 H 0.50184 0.96634 0.90362 0.0
H710 H 0.49854 0.98605 0.818 0.0
H711 H 0.49588 0.93054 0.90606 0.0
H712 H 0.54529 0.96937 0.95963 0.0
H713 H 0.57347 0.98638 0.94476 0.0
H714 H 0.60016 0.93815 0.89239 0.0
H715 H 0.57223 0.92076 0.90855 0.0
C716 C 0.51192 0.88127 0.13477 0.0
C717 C 0.52325 0.86641 0.12762 0.0
C718 C 0.51288 0.89587 0.09602 0.0
C719 C 0.52502 0.89586 0.04875 0.0
C720 C 0.53705 0.88154 0.04355 0.0
C721 C 0.53618 0.86697 0.08251 0.0
C722 C 0.52434 0.9101 0.00258 0.0
C723 C 0.54003 0.91976 0.98831 0.0
C724 C 0.50823 0.91413 0.97244 0.0
C725 C 0.49146 0.90368 0.98217 0.0
C726 C 0.49116 0.88497 0.97441 0.0
C727 C 0.47537 0.87518 0.98426 0.0
C728 C 0.45973 0.88398 1.00136 0.0
C729 C 0.45985 0.9026 0.00847 0.0
C730 C 0.47562 0.91245 0.99879 0.0
C731 C 0.53213 0.95946 0.7671 0.0
C732 C 0.51923 0.97311 0.76676 0.0
C733 C 0.5341 0.9483 0.81621 0.0
C734 C 0.52314 0.9505 0.86587 0.0
C735 C 0.51048 0.96439 0.86595 0.0
C736 C 0.5086 0.97564 0.81702 0.0
C737 C 0.52384 0.93741 0.91541 0.0
C738 C 0.50816 0.92783 0.92993 0.0
C739 C 0.53994 0.93342 0.94547 0.0
C740 C 0.55667 0.94381 0.93484 0.0
C741 C 0.55716 0.96241 0.94474 0.0
C742 C 0.57311 0.9721 0.93642 0.0
C743 C 0.58856 0.96338 0.9172 0.0
C744 C 0.58817 0.94489 0.90711 0.0
C745 C 0.57233 0.93509 0.91631 0.0
H746 H 0.60085 0.97093 0.9103 0.0
H747 H 0.44752 0.87638 0.00895 0.0
H748 H 0.64687 0.50567 0.1628 0.0
H749 H 0.62177 0.50247 0.0939 0.0
H750 H 0.63771 0.55187 0.00859 0.0
H751 H 0.66226 0.55536 0.07819 0.0
H752 H 0.60358 0.55137 0.01217 0.0
H753 H 0.64761 0.50804 0.95386 0.0
H754 H 0.66784 0.48227 0.9665 0.0
H755 H 0.62281 0.44826 0.00822 0.0
H756 H 0.60233 0.47391 0.99655 0.0
H757 H 0.56862 0.53745 0.72331 0.0
H758 H 0.58818 0.54055 0.8092 0.0
H759 H 0.55732 0.49994 0.90014 0.0
H760 H 0.53743 0.49708 0.81475 0.0
H761 H 0.59625 0.49491 0.89975 0.0
H762 H 0.55214 0.53935 0.94535 0.0
H763 H 0.53319 0.56546 0.92283 0.0
H764 H 0.58026 0.59803 0.89574 0.0
H765 H 0.5995 0.57202 0.91711 0.0
C766 C 0.64491 0.51587 0.12952 0.0
C767 C 0.65652 0.53081 0.12626 0.0
C768 C 0.6306 0.51401 0.0899 0.0
C769 C 0.62788 0.52681 0.04516 0.0
C770 C 0.63935 0.54184 0.04262 0.0
C771 C 0.65342 0.54383 0.08264 0.0
C772 C 0.61348 0.5245 0.99997 0.0
C773 C 0.60212 0.53903 0.98746 0.0
C774 C 0.6112 0.50835 0.96793 0.0
C775 C 0.62348 0.49293 0.97504 0.0
C776 C 0.64205 0.49509 0.96618 0.0
C777 C 0.65355 0.48051 0.9731 0.0
C778 C 0.64662 0.46365 0.98835 0.0
C779 C 0.62816 0.46134 0.99655 0.0
C780 C 0.6166 0.47589 0.98977 0.0
C781 C 0.5659 0.52932 0.76185 0.0
C782 C 0.55152 0.51703 0.76235 0.0
C783 C 0.57707 0.5311 0.81086 0.0
C784 C 0.57423 0.52045 0.86104 0.0
C785 C 0.55977 0.50826 0.86185 0.0
C786 C 0.54839 0.5067 0.81318 0.0
C787 C 0.58668 0.5218 0.91186 0.0
C788 C 0.59765 0.50713 0.92517 0.0
C789 C 0.5888 0.5379 0.94385 0.0
C790 C 0.57727 0.55369 0.93239 0.0
C791 C 0.55846 0.55205 0.93422 0.0
C792 C 0.54766 0.56684 0.9217 0.0
C793 C 0.55552 0.58339 0.90775 0.0
C794 C 0.57419 0.5852 0.90653 0.0
C795 C 0.58505 0.57044 0.9189 0.0
H796 H 0.54714 0.59482 0.89796 0.0
H797 H 0.65554 0.45238 0.99366 0.0
H798 H 0.9624 0.64784 0.16348 0.0
H799 H 0.96403 0.62169 0.09875 0.0
H800 H 0.01514 0.64052 0.03301 0.0
H801 H 0.01372 0.66633 0.0981 0.0
H802 H 0.96364 0.61999 0.98599 0.0
H803 H 0.04058 0.60735 0.98316 0.0
H804 H 0.06622 0.60868 0.05136 0.0
H805 H 0.03054 0.60132 0.19767 0.0
H806 H 0.00472 0.59969 0.13034 0.0
H807 H 0.98669 0.5733 0.7274 0.0
H808 H 0.98324 0.59402 0.80912 0.0
H809 H 0.00399 0.55392 0.92771 0.0
H810 H 0.00929 0.53401 0.84478 0.0
H811 H 0.0174 0.58216 0.95873 0.0
H812 H 0.95586 0.56838 0.91238 0.0
H813 H 0.92887 0.56581 0.85003 0.0
H814 H 0.93102 0.62226 0.81397 0.0
H815 H 0.95816 0.62523 0.87494 0.0
C816 C 0.97411 0.64621 0.13589 0.0
C817 C 0.988 0.65911 0.1364 0.0
C818 C 0.97501 0.63129 0.09875 0.0
C819 C 0.98978 0.62896 0.06112 0.0
C820 C 1.00379 0.64168 0.06245 0.0
C821 C 1.00298 0.65647 0.09992 0.0
C822 C 0.99009 0.61395 0.01786 0.0
C823 C 0.97534 0.61159 0.98031 0.0
C824 C 0.00521 0.60276 0.01083 0.0
C825 C 0.02069 0.60354 0.05166 0.0
C826 C 0.03821 0.60593 0.02986 0.0
C827 C 0.05278 0.60675 0.06838 0.0
C828 C 0.05 0.60513 0.12882 0.0
C829 C 0.03266 0.60263 0.15086 0.0
C830 C 0.01805 0.60178 0.11254 0.0
C831 C 0.99043 0.56887 0.77099 0.0
C832 C 0.9979 0.55182 0.77978 0.0
C833 C 0.98824 0.58069 0.81805 0.0
C834 C 0.99282 0.5755 0.87552 0.0
C835 C 1.00018 0.55835 0.88419 0.0
C836 C 1.00298 0.5468 0.83677 0.0
C837 C 0.99099 0.58825 0.92587 0.0
C838 C 0.00554 0.59028 0.96469 0.0
C839 C 0.97547 0.59884 0.93488 0.0
C840 C 0.95914 0.597 0.89805 0.0
C841 C 0.95065 0.58023 0.89088 0.0
C842 C 0.93532 0.5787 0.85584 0.0
C843 C 0.92825 0.59382 0.82819 0.0
C844 C 0.9365 0.61055 0.83543 0.0
C845 C 0.95185 0.61217 0.87022 0.0
H846 H 0.91638 0.59257 0.80118 0.0
H847 H 0.0613 0.60579 0.15856 0.0
H848 H 0.98848 0.24917 0.4428 0.0
H849 H 0.97248 0.23052 0.514 0.0
H850 H 0.01117 0.18841 0.48866 0.0
H851 H 0.02769 0.20734 0.42015 0.0
H852 H 0.95558 0.20394 0.4807 0.0
H853 H 0.01002 0.15571 0.5921 0.0
H854 H 0.03633 0.15879 0.65619 0.0
H855 H 0.02233 0.21337 0.69285 0.0
H856 H 0.99536 0.21044 0.63142 0.0
H857 H 0.95007 0.11615 0.41172 0.0
H858 H 0.95173 0.14783 0.43563 0.0
H859 H 0.95229 0.13483 0.62045 0.0
H860 H 0.95173 0.10298 0.59646 0.0
H861 H 0.97896 0.1538 0.60061 0.0
H862 H 0.9194 0.16422 0.56081 0.0
H863 H 0.88975 0.16185 0.51368 0.0
H864 H 0.91115 0.18529 0.3559 0.0
H865 H 0.941 0.18755 0.40156 0.0
C866 C 0.99405 0.23626 0.45441 0.0
C867 C 0.00915 0.22956 0.42476 0.0
C868 C 0.98481 0.22555 0.49503 0.0
C869 C 0.99043 0.20794 0.50647 0.0
C870 C 0.00656 0.20198 0.48138 0.0
C871 C 0.01588 0.21273 0.44125 0.0
C872 C 0.97785 0.19454 0.5326 0.0
C873 C 0.96061 0.19314 0.50791 0.0
C874 C 0.98384 0.18088 0.57106 0.0
C875 C 1.00056 0.18288 0.60644 0.0
C876 C 0.01238 0.16837 0.61405 0.0
C877 C 0.02744 0.17007 0.65013 0.0
C878 C 0.03104 0.18629 0.6784 0.0
C879 C 0.01957 0.20084 0.67065 0.0
C880 C 0.00434 0.19914 0.63532 0.0
C881 C 0.9501 0.12004 0.45747 0.0
C882 C 0.95107 0.10705 0.50203 0.0
C883 C 0.95076 0.13823 0.4713 0.0
C884 C 0.95209 0.14382 0.53004 0.0
C885 C 0.95128 0.13088 0.57486 0.0
C886 C 0.95082 0.11264 0.561 0.0
C887 C 0.95796 0.16248 0.5427 0.0
C888 C 0.9738 0.1649 0.57509 0.0
C889 C 0.95046 0.17729 0.51302 0.0
C890 C 0.93249 0.17611 0.48487 0.0
C891 C 0.91783 0.16881 0.51597 0.0
C892 C 0.90096 0.16748 0.48949 0.0
C893 C 0.89856 0.17344 0.43187 0.0
C894 C 0.91302 0.18074 0.40061 0.0
C895 C 0.92991 0.18209 0.42687 0.0
H896 H 0.8855 0.17239 0.41143 0.0
H897 H 0.04268 0.18756 0.70647 0.0
H898 H 0.30625 0.01291 0.28932 0.0
H899 H 0.32462 0.99997 0.36616 0.0
H900 H 0.29918 0.0338 0.49463 0.0
H901 H 0.28048 0.04704 0.41644 0.0
H902 H 0.33699 0.03425 0.49931 0.0
H903 H 0.29185 0.9907 0.51272 0.0
H904 H 0.26796 0.97018 0.47896 0.0
H905 H 0.30665 0.93955 0.38296 0.0
H906 H 0.33075 0.96002 0.41527 0.0
H907 H 0.4141 0.99036 0.6067 0.0
H908 H 0.38175 0.99568 0.61304 0.0
H909 H 0.37551 0.97697 0.43521 0.0
H910 H 0.40789 0.97184 0.42887 0.0
H911 H 0.34603 0.96836 0.50716 0.0
H912 H 0.38662 0.02014 0.46632 0.0
H913 H 0.41072 0.04082 0.49745 0.0
H914 H 0.37949 0.05626 0.6473 0.0
H915 H 0.35529 0.0355 0.61733 0.0
C916 C 0.30454 0.01764 0.33388 0.0
C917 C 0.29216 0.03113 0.34695 0.0
C918 C 0.31486 0.01006 0.37793 0.0
C919 C 0.31302 0.0157 0.43623 0.0
C920 C 0.3006 0.02914 0.44991 0.0
C921 C 0.29002 0.03668 0.40545 0.0
C922 C 0.3255 0.0083 0.4803 0.0
C923 C 0.33863 0.01984 0.50337 0.0
C924 C 0.32752 0.98952 0.486 0.0
C925 C 0.31315 0.9769 0.46675 0.0
C926 C 0.29528 0.97962 0.48427 0.0
C927 C 0.28168 0.96799 0.46535 0.0
C928 C 0.28579 0.95355 0.42892 0.0
C929 C 0.3035 0.9507 0.41135 0.0
C930 C 0.31715 0.9623 0.43013 0.0
C931 C 0.40565 0.9871 0.5696 0.0
C932 C 0.41328 0.98115 0.51688 0.0
C933 C 0.38723 0.98996 0.57345 0.0
C934 C 0.3763 0.98694 0.52444 0.0
C935 C 0.38375 0.97935 0.4736 0.0
C936 C 0.40219 0.97648 0.46979 0.0
C937 C 0.35799 0.99432 0.52138 0.0
C938 C 0.34387 0.98274 0.50626 0.0
C939 C 0.35501 0.01307 0.52339 0.0
C940 C 0.3693 0.02601 0.5402 0.0
C941 C 0.38493 0.02788 0.50605 0.0
C942 C 0.3986 0.03965 0.52342 0.0
C943 C 0.39665 0.04986 0.57432 0.0
C944 C 0.381 0.04834 0.6079 0.0
C945 C 0.36732 0.03654 0.59079 0.0
H946 H 0.40727 0.05894 0.58772 0.0
H947 H 0.27524 0.94457 0.41426 0.0
H948 H 0.42998 0.29274 0.34082 0.0
H949 H 0.43631 0.31796 0.40666 0.0
H950 H 0.49174 0.30181 0.41662 0.0
H951 H 0.48524 0.27626 0.35385 0.0
H952 H 0.48409 0.31863 0.51166 0.0
H953 H 0.47552 0.32968 0.30488 0.0
H954 H 0.45871 0.3293 0.21172 0.0
H955 H 0.41779 0.36205 0.28843 0.0
H956 H 0.43425 0.36238 0.38241 0.0
H957 H 0.53458 0.40008 0.47953 0.0
H958 H 0.52013 0.37053 0.47347 0.0
H959 H 0.46847 0.39484 0.50094 0.0
H960 H 0.48281 0.42436 0.50762 0.0
H961 H 0.46981 0.37443 0.40263 0.0
H962 H 0.48779 0.36894 0.60367 0.0
H963 H 0.50947 0.36949 0.68488 0.0
H964 H 0.53804 0.32566 0.60857 0.0
H965 H 0.51719 0.32544 0.52477 0.0
C966 C 0.44331 0.29425 0.35911 0.0
C967 C 0.45717 0.28274 0.34195 0.0
C968 C 0.44696 0.30866 0.39642 0.0
C969 C 0.46463 0.3121 0.41499 0.0
C970 C 0.47802 0.29952 0.4027 0.0
C971 C 0.47429 0.28489 0.3667 0.0
C972 C 0.46995 0.32994 0.43816 0.0
C973 C 0.48096 0.33087 0.48803 0.0
C974 C 0.46582 0.34591 0.4073 0.0
C975 C 0.45597 0.34585 0.35081 0.0
C976 C 0.46288 0.33671 0.30194 0.0
C977 C 0.45342 0.3365 0.24902 0.0
C978 C 0.43716 0.3456 0.24422 0.0
C979 C 0.43036 0.35497 0.29229 0.0
C980 C 0.43973 0.35515 0.3454 0.0
C981 C 0.52018 0.39907 0.48527 0.0
C982 C 0.50979 0.41454 0.49307 0.0
C983 C 0.51196 0.38219 0.48207 0.0
C984 C 0.49325 0.38052 0.48714 0.0
C985 C 0.48293 0.39587 0.49696 0.0
C986 C 0.49112 0.41272 0.50015 0.0
C987 C 0.48426 0.36314 0.47553 0.0
C988 C 0.47259 0.36231 0.42745 0.0
C989 C 0.48845 0.34724 0.5067 0.0
C990 C 0.50092 0.34726 0.55755 0.0
C991 C 0.49879 0.35954 0.60373 0.0
C992 C 0.51093 0.35977 0.65037 0.0
C993 C 0.525 0.34754 0.65232 0.0
C994 C 0.52709 0.33511 0.60716 0.0
C995 C 0.51516 0.33498 0.55987 0.0
H996 H 0.5343 0.3477 0.68874 0.0
H997 H 0.42986 0.34543 0.2032 0.0
H998 H 0.2262 0.43116 0.40069 0.0
H999 H 0.20121 0.44054 0.46271 0.0
H1000 H 0.22611 0.49245 0.48457 0.0
H1001 H 0.25084 0.48342 0.42189 0.0
H1002 H 0.19104 0.46096 0.572 0.0
H1003 H 0.19782 0.51981 0.41702 0.0
H1004 H 0.21347 0.52824 0.32524 0.0
H1005 H 0.20946 0.47386 0.2647 0.0
H1006 H 0.19364 0.46519 0.35581 0.0
H1007 H 0.11344 0.51857 0.6043 0.0
H1008 H 0.14409 0.50709 0.59906 0.0
H1009 H 0.13206 0.4825 0.43248 0.0
H1010 H 0.10175 0.49445 0.43614 0.0
H1011 H 0.1623 0.50174 0.4279 0.0
H1012 H 0.13448 0.45932 0.56077 0.0
H1013 H 0.11962 0.44855 0.65103 0.0
H1014 H 0.16437 0.46681 0.75356 0.0
H1015 H 0.17914 0.47852 0.66447 0.0
C1016 C 0.22673 0.44429 0.42088 0.0
C1017 C 0.24019 0.45672 0.40499 0.0
C1018 C 0.21253 0.44957 0.45679 0.0
C1019 C 0.21171 0.46729 0.47699 0.0
C1020 C 0.22653 0.47873 0.46905 0.0
C1021 C 0.2407 0.4735 0.43312 0.0
C1022 C 0.19402 0.47507 0.49011 0.0
C1023 C 0.18475 0.47007 0.54118 0.0
C1024 C 0.18582 0.48666 0.44907 0.0
C1025 C 0.19474 0.49185 0.39332 0.0
C1026 C 0.20023 0.5097 0.38394 0.0
C1027 C 0.20914 0.5145 0.33212 0.0
C1028 C 0.21253 0.50157 0.28929 0.0
C1029 C 0.2069 0.48383 0.29801 0.0
C1030 C 0.19797 0.47897 0.34972 0.0
C1031 C 0.11738 0.51083 0.56635 0.0
C1032 C 0.10519 0.50752 0.52038 0.0
C1033 C 0.13482 0.5041 0.56387 0.0
C1034 C 0.14029 0.49388 0.5156 0.0
C1035 C 0.12808 0.49036 0.47017 0.0
C1036 C 0.11072 0.49711 0.47248 0.0
C1037 C 0.15899 0.48762 0.51001 0.0
C1038 C 0.16855 0.49294 0.45981 0.0
C1039 C 0.16724 0.47623 0.55187 0.0
C1040 C 0.15785 0.47001 0.60581 0.0
C1041 C 0.141 0.46142 0.60265 0.0
C1042 C 0.13258 0.45514 0.65369 0.0
C1043 C 0.14103 0.45708 0.708 0.0
C1044 C 0.15778 0.46549 0.71155 0.0
C1045 C 0.16615 0.47199 0.66082 0.0
H1046 H 0.1347 0.45188 0.7473 0.0
H1047 H 0.21947 0.5053 0.24928 0.0
H1048 H 0.97461 0.80019 0.89616 0.0
H1049 H 0.98526 0.82001 0.8178 0.0
H1050 H 0.03751 0.79561 0.82667 0.0
H1051 H 0.02681 0.77566 0.90505 0.0
H1052 H 0.03836 0.83031 0.85571 0.0
H1053 H 0.01895 0.79821 0.69345 0.0
H1054 H 1.00004 0.77947 0.62924 0.0
H1055 H 0.9604 0.82081 0.62281 0.0
H1056 H 0.97901 0.83989 0.68741 0.0
H1057 H 0.05839 0.91384 0.72322 0.0
H1058 H 0.05593 0.88103 0.71765 0.0
H1059 H 0.99978 0.88405 0.76218 0.0
H1060 H 1.00219 0.91672 0.76837 0.0
H1061 H 0.00904 0.85547 0.67855 0.0
H1062 H 0.02635 0.8811 0.87006 0.0
H1063 H 0.04622 0.8994 0.93282 0.0
H1064 H 0.09143 0.86789 0.88006 0.0
H1065 H 0.07182 0.84958 0.81625 0.0
C1066 C 0.98817 0.79863 0.87982 0.0
C1067 C 0.99998 0.78662 0.90701 0.0
C1068 C 0.99421 0.80982 0.83461 0.0
C1069 C 0.0122 0.8093 0.81639 0.0
C1070 C 0.02355 0.79614 0.83982 0.0
C1071 C 0.01743 0.78478 0.8846 0.0
C1072 C 0.01982 0.82505 0.78511 0.0
C1073 C 0.03246 0.83546 0.81559 0.0
C1074 C 0.01201 0.83189 0.73319 0.0
C1075 C 1.00039 0.82048 0.69551 0.0
C1076 C 0.00613 0.80329 0.67879 0.0
C1077 C 0.9955 0.79264 0.64213 0.0
C1078 C 0.97905 0.799 0.6219 0.0
C1079 C 0.97319 0.81601 0.63839 0.0
C1080 C 0.9838 0.82677 0.67488 0.0
C1081 C 0.04546 0.90749 0.73067 0.0
C1082 C 0.03056 0.91771 0.74755 0.0
C1083 C 0.04406 0.88882 0.72704 0.0
C1084 C 0.02769 0.8802 0.73957 0.0
C1085 C 0.0125 0.89049 0.75206 0.0
C1086 C 0.01397 0.90909 0.7566 0.0
C1087 C 0.02693 0.86069 0.75072 0.0
C1088 C 0.0155 0.84981 0.71693 0.0
C1089 C 0.03596 0.85324 0.79941 0.0
C1090 C 0.04771 0.86417 0.83784 0.0
C1091 C 0.04056 0.87819 0.87148 0.0
C1092 C 0.05176 0.88854 0.90728 0.0
C1093 C 0.07009 0.88485 0.91026 0.0
C1094 C 0.07725 0.87077 0.87755 0.0
C1095 C 0.0661 0.86041 0.84155 0.0
H1096 H 0.07874 0.89287 0.93804 0.0
H1097 H 0.97084 0.79075 0.59344 0.0
H1098 H 0.70968 0.93822 0.9972 0.0
H1099 H 0.68675 0.94376 0.92508 0.0
H1100 H 0.72295 0.9789 0.82998 0.0
H1101 H 0.74515 0.97533 0.90704 0.0
H1102 H 0.69713 0.99651 0.84212 0.0
H1103 H 0.69909 0.93959 0.76603 0.0
H1104 H 0.70202 0.90679 0.75762 0.0
H1105 H 0.65313 0.8993 0.85469 0.0
H1106 H 0.65001 0.93203 0.86459 0.0
H1107 H 0.59517 0.99103 0.7476 0.0
H1108 H 0.62561 0.97928 0.73716 0.0
H1109 H 0.64136 0.00706 0.89506 0.0
H1110 H 0.61113 0.01898 0.90515 0.0
H1111 H 0.64433 0.95777 0.80103 0.0
H1112 H 0.68303 0.02227 0.88849 0.0
H1113 H 0.68155 0.05496 0.87297 0.0
H1114 H 0.65228 0.04682 0.71298 0.0
H1115 H 0.65372 0.01412 0.72711 0.0
C1116 C 0.71288 0.94705 0.96077 0.0
C1117 C 0.72898 0.95698 0.95978 0.0
C1118 C 0.69979 0.94989 0.91824 0.0
C1119 C 0.70285 0.96201 0.87182 0.0
C1120 C 0.72 0.96981 0.86597 0.0
C1121 C 0.73287 0.96754 0.90993 0.0
C1122 C 0.68729 0.96917 0.83821 0.0
C1123 C 0.68576 0.98791 0.83234 0.0
C1124 C 0.6726 0.95814 0.82142 0.0
C1125 C 0.67433 0.93835 0.81606 0.0
C1126 C 0.68901 0.93097 0.78594 0.0
C1127 C 0.6907 0.91237 0.78086 0.0
C1128 C 0.67777 0.90097 0.8056 0.0
C1129 C 0.66311 0.90815 0.83544 0.0
C1130 C 0.66135 0.92674 0.84065 0.0
C1131 C 0.60518 0.99464 0.77997 0.0
C1132 C 0.60084 0.00595 0.82721 0.0
C1133 C 0.62254 0.98795 0.77383 0.0
C1134 C 0.63581 0.99248 0.81482 0.0
C1135 C 0.63145 1.00374 0.86202 0.0
C1136 C 0.61417 0.01053 0.86792 0.0
C1137 C 0.65406 0.98484 0.81108 0.0
C1138 C 0.65599 0.96615 0.8095 0.0
C1139 C 0.66942 0.99586 0.81728 0.0
C1140 C 0.66855 0.01564 0.80883 0.0
C1141 C 0.67642 0.02741 0.8497 0.0
C1142 C 0.67552 0.04598 0.84125 0.0
C1143 C 0.66683 0.05296 0.79202 0.0
C1144 C 0.659 0.0414 0.75114 0.0
C1145 C 0.65983 0.02285 0.75941 0.0
H1146 H 0.66616 0.06734 0.78559 0.0
H1147 H 0.67911 0.88658 0.80163 0.0
H1148 H 0.50841 0.72245 0.92886 0.0
H1149 H 0.49776 0.70152 0.85488 0.0
H1150 H 0.44455 0.72368 0.86813 0.0
H1151 H 0.45526 0.74458 0.94343 0.0
H1152 H 0.44386 0.69023 0.89659 0.0
H1153 H 0.46508 0.71965 0.72943 0.0
H1154 H 0.48433 0.73686 0.66121 0.0
H1155 H 0.52405 0.69549 0.66808 0.0
H1156 H 0.50533 0.67828 0.73763 0.0
H1157 H 0.4381 0.59874 0.7978 0.0
H1158 H 0.43366 0.63125 0.78707 0.0
H1159 H 0.48976 0.64028 0.82358 0.0
H1160 H 0.49438 0.60809 0.83257 0.0
H1161 H 0.47692 0.66204 0.73255 0.0
H1162 H 0.45948 0.64201 0.93273 0.0
H1163 H 0.44026 0.62444 1.00033 0.0
H1164 H 0.39334 0.64908 0.92745 0.0
H1165 H 0.41233 0.66664 0.859 0.0
C1166 C 0.49458 0.72322 0.9146 0.0
C1167 C 0.48256 0.73482 0.94252 0.0
C1168 C 0.48852 0.71143 0.87157 0.0
C1169 C 0.47031 0.711 0.8557 0.0
C1170 C 0.45866 0.72382 0.87948 0.0
C1171 C 0.46477 0.73572 0.92252 0.0
C1172 C 0.46314 0.69462 0.82704 0.0
C1173 C 0.45058 0.68437 0.85907 0.0
C1174 C 0.47182 0.68685 0.77813 0.0
C1175 C 0.48368 0.69758 0.73862 0.0
C1176 C 0.478 0.71429 0.71695 0.0
C1177 C 0.48883 0.72406 0.67796 0.0
C1178 C 0.50538 0.71726 0.66019 0.0
C1179 C 0.51121 0.70073 0.68173 0.0
C1180 C 0.50047 0.69095 0.7209 0.0
C1181 C 0.44948 0.60772 0.80287 0.0
C1182 C 0.46651 0.60096 0.81707 0.0
C1183 C 0.44694 0.62621 0.79654 0.0
C1184 C 0.46144 0.63809 0.80411 0.0
C1185 C 0.47849 0.63129 0.81668 0.0
C1186 C 0.48103 0.61293 0.82302 0.0
C1187 C 0.45899 0.65772 0.80523 0.0
C1188 C 0.46961 0.6684 0.76792 0.0
C1189 C 0.44861 0.66595 0.8493 0.0
C1190 C 0.43726 0.65542 0.89036 0.0
C1191 C 0.44505 0.64356 0.93091 0.0
C1192 C 0.43421 0.63363 0.96939 0.0
C1193 C 0.41558 0.63559 0.96803 0.0
C1194 C 0.40777 0.64753 0.92832 0.0
C1195 C 0.41855 0.65747 0.88968 0.0
H1196 H 0.40721 0.6279 0.99787 0.0
H1197 H 0.51369 0.72479 0.62975 0.0
H1198 H 0.80464 0.59409 0.98486 0.0
H1199 H 0.82673 0.58626 0.9112 0.0
H1200 H 0.79059 0.54623 0.84108 0.0
H1201 H 0.76895 0.55308 0.91764 0.0
H1202 H 0.81835 0.53066 0.87524 0.0
H1203 H 0.81059 0.58078 0.75455 0.0
H1204 H 0.80611 0.61204 0.72331 0.0
H1205 H 0.85725 0.62685 0.79554 0.0
H1206 H 0.86202 0.59572 0.82795 0.0
H1207 H 0.90448 0.50097 0.77411 0.0
H1208 H 0.87466 0.51382 0.75916 0.0
H1209 H 0.88584 0.5536 0.89135 0.0
H1210 H 0.91519 0.54038 0.9087 0.0
H1211 H 0.86719 0.56659 0.78368 0.0
H1212 H 0.866 0.51927 0.93618 0.0
H1213 H 0.87086 0.48806 0.96845 0.0
H1214 H 0.83549 0.46906 0.83326 0.0
H1215 H 0.8306 0.50015 0.79986 0.0
C1216 C 0.80119 0.58392 0.95286 0.0
C1217 C 0.7853 0.57379 0.95855 0.0
C1218 C 0.81376 0.57964 0.90985 0.0
C1219 C 0.81046 0.56546 0.87074 0.0
C1220 C 0.79352 0.5571 0.87111 0.0
C1221 C 0.78106 0.56115 0.91486 0.0
C1222 C 0.82586 0.55677 0.841 0.0
C1223 C 0.82868 0.53849 0.85318 0.0
C1224 C 0.83953 0.56685 0.81247 0.0
C1225 C 0.83671 0.58575 0.79348 0.0
C1226 C 0.8209 0.59065 0.76396 0.0
C1227 C 0.81829 0.6084 0.74603 0.0
C1228 C 0.83139 0.62142 0.75732 0.0
C1229 C 0.84713 0.61673 0.78663 0.0
C1230 C 0.84982 0.599 0.80464 0.0
C1231 C 0.90054 0.51239 0.80022 0.0
C1232 C 0.91218 0.5196 0.84287 0.0
C1233 C 0.88365 0.51987 0.79089 0.0
C1234 C 0.87823 0.53476 0.82365 0.0
C1235 C 0.88997 0.5423 0.86492 0.0
C1236 C 0.9067 0.53468 0.87493 0.0
C1237 C 0.8596 0.54119 0.82142 0.0
C1238 C 0.85633 0.55886 0.80329 0.0
C1239 C 0.84544 0.53066 0.8444 0.0
C1240 C 0.84819 0.51199 0.86487 0.0
C1241 C 0.8594 0.50841 0.91301 0.0
C1242 C 0.86213 0.49075 0.93159 0.0
C1243 C 0.85356 0.47657 0.90274 0.0
C1244 C 0.84218 0.48005 0.85542 0.0
C1245 C 0.83943 0.49769 0.83661 0.0
H1246 H 0.85568 0.4629 0.91719 0.0
H1247 H 0.82934 0.63515 0.74343 0.0
H1248 H 0.01136 0.22292 0.84877 0.0
H1249 H 0.00728 0.19633 0.78693 0.0
H1250 H 0.02627 0.16274 0.92765 0.0
H1251 H 0.02963 0.18884 0.99018 0.0
H1252 H 0.04275 0.15454 0.82629 0.0
H1253 H 0.98125 0.16677 0.88901 0.0
H1254 H 0.95406 0.18536 0.89474 0.0
H1255 H 0.95111 0.18699 0.70656 0.0
H1256 H 0.97837 0.16855 0.70009 0.0
H1257 H 0.01663 0.0659 0.78607 0.0
H1258 H 0.01926 0.09689 0.81862 0.0
H1259 H 0.99904 0.11536 0.65203 0.0
H1260 H 0.9962 0.08414 0.61887 0.0
H1261 H 0.98453 0.13434 0.74348 0.0
H1262 H 0.04284 0.11998 0.67834 0.0
H1263 H 0.07015 0.10182 0.6673 0.0
H1264 H 0.07979 0.10519 0.85266 0.0
H1265 H 0.05239 0.12314 0.86497 0.0
C1266 C 0.01454 0.20987 0.86676 0.0
C1267 C 0.02111 0.2082 0.92452 0.0
C1268 C 0.01231 0.19466 0.83107 0.0
C1269 C 0.01667 0.17749 0.85222 0.0
C1270 C 0.02305 0.17583 0.90985 0.0
C1271 C 0.0251 0.19089 0.94556 0.0
C1272 C 0.01487 0.16106 0.81529 0.0
C1273 C 0.02998 0.1501 0.80857 0.0
C1274 C 0.99844 0.15559 0.78943 0.0
C1275 C 0.98199 0.16655 0.79392 0.0
C1276 C 0.97489 0.17124 0.84889 0.0
C1277 C 0.95944 0.18171 0.85233 0.0
C1278 C 0.9509 0.18743 0.80107 0.0
C1279 C 0.95775 0.18262 0.74628 0.0
C1280 C 0.97319 0.17216 0.7427 0.0
C1281 C 0.0127 0.07647 0.75611 0.0
C1282 C 0.00637 0.07242 0.69953 0.0
C1283 C 0.01429 0.09426 0.7748 0.0
C1284 C 0.00965 0.10853 0.73749 0.0
C1285 C 1.00282 0.1046 0.6815 0.0
C1286 C 1.00128 0.08672 0.66257 0.0
C1287 C 0.01219 0.12742 0.75772 0.0
C1288 C 0.99733 0.13889 0.76069 0.0
C1289 C 0.02891 0.13351 0.77968 0.0
C1290 C 0.04549 0.12281 0.7726 0.0
C1291 C 0.05072 0.11674 0.71681 0.0
C1292 C 0.06622 0.1065 0.71032 0.0
C1293 C 0.07668 0.10233 0.75926 0.0
C1294 C 0.07167 0.10843 0.81479 0.0
C1295 C 0.05617 0.11866 0.82154 0.0
H1296 H 0.08868 0.09439 0.75415 0.0
H1297 H 0.93894 0.19554 0.80382 0.0
H1298 H 0.29824 0.03013 0.79073 0.0
H1299 H 0.32763 0.03036 0.74069 0.0
H1300 H 0.35422 0.02966 0.90854 0.0
H1301 H 0.32519 0.02922 0.95822 0.0
H1302 H 0.36843 0.05555 0.82786 0.0
H1303 H 0.35382 0.99094 0.83656 0.0
H1304 H 0.3336 0.9653 0.81636 0.0
H1305 H 0.33328 0.97903 0.6332 0.0
H1306 H 0.35331 0.0048 0.65269 0.0
H1307 H 0.45756 0.02783 0.80243 0.0
H1308 H 0.42577 0.03127 0.82502 0.0
H1309 H 0.41237 0.02074 0.64441 0.0
H1310 H 0.4443 0.01675 0.62191 0.0
H1311 H 0.3895 1.0032 0.71375 0.0
H1312 H 0.41008 0.06334 0.70133 0.0
H1313 H 0.42969 0.08947 0.71979 0.0
H1314 H 0.41725 0.0867 0.90363 0.0
H1315 H 0.39774 0.06038 0.8864 0.0
C1316 C 0.31039 0.03005 0.81674 0.0
C1317 C 0.30939 0.02948 0.8784 0.0
C1318 C 0.32715 0.03014 0.78819 0.0
C1319 C 0.34315 0.02999 0.82091 0.0
C1320 C 0.3421 0.02978 0.88235 0.0
C1321 C 0.32547 0.02941 0.9107 0.0
C1322 C 0.36114 0.02985 0.79216 0.0
C1323 C 0.37306 0.04412 0.80285 0.0
C1324 C 0.367 0.01527 0.75774 0.0
C1325 C 0.35509 0.99972 0.74594 0.0
C1326 C 0.34941 0.98847 0.79202 0.0
C1327 C 0.33797 0.97393 0.78073 0.0
C1328 C 0.33219 0.97051 0.7235 0.0
C1329 C 0.33783 0.98164 0.67745 0.0
C1330 C 0.34925 0.99619 0.68858 0.0
C1331 C 0.4479 0.02629 0.76732 0.0
C1332 C 0.45355 0.02196 0.7102 0.0
C1333 C 0.42965 0.02833 0.78029 0.0
C1334 C 0.41654 0.02645 0.73631 0.0
C1335 C 0.42214 0.02216 0.6792 0.0
C1336 C 0.44042 0.01989 0.66634 0.0
C1337 C 0.39708 0.02875 0.7507 0.0
C1338 C 0.38485 0.01488 0.73732 0.0
C1339 C 0.39083 0.04391 0.78189 0.0
C1340 C 0.4025 0.0598 0.79255 0.0
C1341 C 0.41159 0.06823 0.74574 0.0
C1342 C 0.42269 0.08309 0.75598 0.0
C1343 C 0.42473 0.08973 0.81286 0.0
C1344 C 0.41566 0.08154 0.85959 0.0
C1345 C 0.40455 0.06666 0.84959 0.0
H1346 H 0.43334 0.10123 0.82071 0.0
H1347 H 0.32333 0.95926 0.71484 0.0
H1348 H 0.51168 0.30168 0.83101 0.0
H1349 H 0.51574 0.33156 0.78694 0.0
H1350 H 0.47082 0.35107 0.88682 0.0
H1351 H 0.46686 0.32161 0.93145 0.0
H1352 H 0.46924 0.36262 0.77418 0.0
H1353 H 0.5139 0.35966 0.92783 0.0
H1354 H 0.54006 0.34695 0.97891 0.0
H1355 H 0.57235 0.35494 0.82472 0.0
H1356 H 0.54631 0.36752 0.77249 0.0
H1357 H 0.48346 0.45748 0.78015 0.0
H1358 H 0.48082 0.4258 0.80794 0.0
H1359 H 0.52078 0.41213 0.67906 0.0
H1360 H 0.52329 0.4438 0.65021 0.0
H1361 H 0.52608 0.39692 0.79747 0.0
H1362 H 0.48289 0.40093 0.64465 0.0
H1363 H 0.45724 0.41362 0.59092 0.0
H1364 H 0.42286 0.40322 0.73862 0.0
H1365 H 0.44839 0.39078 0.7938 0.0
C1366 C 0.50271 0.31235 0.84377 0.0
C1367 C 0.48884 0.30908 0.8846 0.0
C1368 C 0.50503 0.32943 0.81843 0.0
C1369 C 0.49361 0.34363 0.83367 0.0
C1370 C 0.47971 0.34034 0.87392 0.0
C1371 C 0.47742 0.32337 0.89924 0.0
C1372 C 0.49611 0.36204 0.80883 0.0
C1373 C 0.48163 0.37014 0.77979 0.0
C1374 C 0.51243 0.37177 0.81451 0.0
C1375 C 0.52809 0.36429 0.84599 0.0
C1376 C 0.52654 0.35856 0.90465 0.0
C1377 C 0.54135 0.35141 0.93385 0.0
C1378 C 0.55784 0.35007 0.90501 0.0
C1379 C 0.55956 0.35593 0.84696 0.0
C1380 C 0.54478 0.36308 0.81754 0.0
C1381 C 0.49166 0.44775 0.75754 0.0
C1382 C 0.50358 0.4532 0.7129 0.0
C1383 C 0.49012 0.42964 0.77345 0.0
C1384 C 0.50065 0.41662 0.74572 0.0
C1385 C 0.51259 0.42197 0.7012 0.0
C1386 C 0.51391 0.44006 0.68452 0.0
C1387 C 0.49914 0.39747 0.76374 0.0
C1388 C 0.51375 0.38931 0.79168 0.0
C1389 C 0.483 0.38762 0.75662 0.0
C1390 C 0.46761 0.39509 0.72363 0.0
C1391 C 0.46991 0.40151 0.66594 0.0
C1392 C 0.45538 0.40861 0.63514 0.0
C1393 C 0.43844 0.40924 0.66135 0.0
C1394 C 0.436 0.40274 0.7184 0.0
C1395 C 0.45049 0.39565 0.74947 0.0
H1396 H 0.42721 0.41474 0.63741 0.0
H1397 H 0.56929 0.34454 0.9277 0.0
H1398 H 0.21505 0.48781 0.84708 0.0
H1399 H 0.18601 0.49054 0.79669 0.0
H1400 H 0.15877 0.48796 0.96377 0.0
H1401 H 0.18751 0.48481 0.01347 0.0
H1402 H 0.14293 0.46627 0.89175 0.0
H1403 H 0.1643 0.52833 0.87458 0.0
H1404 H 0.18577 0.55175 0.84248 0.0
H1405 H 0.1801 0.53451 0.66377 0.0
H1406 H 0.15875 0.51087 0.69505 0.0
H1407 H 0.05537 0.49547 0.83892 0.0
H1408 H 0.0865 0.4919 0.86912 0.0
H1409 H 0.1037 0.49684 0.68892 0.0
H1410 H 0.0725 0.5013 0.65861 0.0
H1411 H 0.12603 0.51462 0.75304 0.0
H1412 H 0.10189 0.45604 0.76503 0.0
H1413 H 0.08106 0.43159 0.79215 0.0
H1414 H 0.09252 0.44018 0.97452 0.0
H1415 H 0.11329 0.46486 0.94864 0.0
C1416 C 0.20284 0.48806 0.87288 0.0
C1417 C 0.20356 0.48596 0.9342 0.0
C1418 C 0.18622 0.48963 0.8441 0.0
C1419 C 0.17003 0.48947 0.87626 0.0
C1420 C 0.17093 0.48796 0.93765 0.0
C1421 C 0.18741 0.48619 0.96613 0.0
C1422 C 0.15203 0.49016 0.84709 0.0
C1423 C 0.13917 0.47703 0.86215 0.0
C1424 C 0.14729 0.50354 0.8057 0.0
C1425 C 0.16007 0.51777 0.78715 0.0
C1426 C 0.16773 0.52948 0.82851 0.0
C1427 C 0.17986 0.5428 0.81047 0.0
C1428 C 0.18433 0.5446 0.75114 0.0
C1429 C 0.17664 0.5331 0.70971 0.0
C1430 C 0.16452 0.51976 0.72755 0.0
C1431 C 0.06573 0.4957 0.80555 0.0
C1432 C 0.06135 0.49855 0.74629 0.0
C1433 C 0.0836 0.49358 0.82288 0.0
C1434 C 0.09758 0.49378 0.78131 0.0
C1435 C 0.09325 0.49664 0.72197 0.0
C1436 C 0.07535 0.4991 0.70467 0.0
C1437 C 0.11663 0.49129 0.80038 0.0
C1438 C 0.12973 0.50389 0.7828 0.0
C1439 C 0.12168 0.47727 0.83904 0.0
C1440 C 0.10915 0.46239 0.85484 0.0
C1441 C 0.09994 0.4528 0.81097 0.0
C1442 C 0.08813 0.43888 0.82612 0.0
C1443 C 0.08545 0.43434 0.88502 0.0
C1444 C 0.09461 0.44371 0.9289 0.0
C1445 C 0.10643 0.45765 0.914 0.0
H1446 H 0.0763 0.42357 0.89666 0.0
H1447 H 0.19372 0.55492 0.73727 0.0
H1448 H 0.99187 0.80821 0.48655 0.0
H1449 H 0.99227 0.83685 0.54027 0.0
H1450 H 1.0003 0.8654 0.37737 0.0
H1451 H 0.99975 0.83726 0.324 0.0
H1452 H 0.02346 0.87698 0.45969 0.0
H1453 H 0.96012 0.86224 0.4474 0.0
H1454 H 0.93246 0.84491 0.46697 0.0
H1455 H 0.93954 0.85242 0.65223 0.0
H1456 H 0.96757 0.86931 0.63388 0.0
H1457 H 0.9967 0.96695 0.49201 0.0
H1458 H 0.9965 0.93507 0.46603 0.0
H1459 H 0.99834 0.92068 0.64909 0.0
H1460 H 0.9991 0.95255 0.67568 0.0
H1461 H 0.9723 0.90029 0.57531 0.0
H1462 H 0.03427 0.91534 0.59063 0.0
H1463 H 0.06113 0.9342 0.57409 0.0
H1464 H 0.0561 0.9268 0.38803 0.0
H1465 H 0.02903 0.90809 0.4034 0.0
C1466 C 0.9936 0.82062 0.46227 0.0
C1467 C 0.99607 0.82036 0.40094 0.0
C1468 C 0.99385 0.83697 0.49304 0.0
C1469 C 0.99641 0.85332 0.46291 0.0
C1470 C 0.99854 0.85301 0.40178 0.0
C1471 C 0.9983 0.83682 0.37127 0.0
C1472 C 0.99707 0.87095 0.49374 0.0
C1473 C 0.01222 0.88201 0.48487 0.0
C1474 C 0.98271 0.87743 0.52843 0.0
C1475 C 0.96616 0.86675 0.53929 0.0
C1476 C 0.95598 0.85992 0.49237 0.0
C1477 C 0.94019 0.85021 0.50324 0.0
C1478 C 0.93428 0.8475 0.56081 0.0
C1479 C 0.94414 0.85451 0.60765 0.0
C1480 C 0.96003 0.86406 0.59705 0.0
C1481 C 0.99694 0.95703 0.52681 0.0
C1482 C 0.99794 0.96231 0.58587 0.0
C1483 C 0.99687 0.93882 0.51191 0.0
C1484 C 0.99748 0.92553 0.55573 0.0
C1485 C 0.99791 0.93073 0.61476 0.0
C1486 C 0.99837 0.94894 0.62973 0.0
C1487 C 0.99833 0.90628 0.53923 0.0
C1488 C 0.9836 0.89501 0.55097 0.0
C1489 C 0.01309 0.89948 0.50765 0.0
C1490 C 0.02954 0.91044 0.49812 0.0
C1491 C 0.03881 0.91784 0.54615 0.0
C1492 C 0.05409 0.92848 0.537 0.0
C1493 C 0.06029 0.93174 0.48004 0.0
C1494 C 0.05127 0.92428 0.43212 0.0
C1495 C 0.03598 0.91363 0.44102 0.0
H1496 H 0.0721 0.94001 0.47304 0.0
H1497 H 0.92203 0.84002 0.56913 0.0
H1498 H 0.70721 0.03201 0.41942 0.0
H1499 H 0.67915 0.03701 0.47248 0.0
H1500 H 0.67596 0.98055 0.51403 0.0
H1501 H 0.70456 0.97578 0.46595 0.0
H1502 H 0.64777 0.02696 0.44938 0.0
H1503 H 0.65056 0.9705 0.6255 0.0
H1504 H 0.67348 0.95575 0.68638 0.0
H1505 H 0.70576 1.00369 0.6827 0.0
H1506 H 0.68312 0.01868 0.62116 0.0
H1507 H 0.56036 1.00102 0.52596 0.0
H1508 H 0.59199 1.0015 0.49815 0.0
H1509 H 0.60604 0.022 0.66896 0.0
H1510 H 0.57443 0.02111 0.6977 0.0
H1511 H 0.62998 0.99867 0.63825 0.0
H1512 H 0.60495 0.04966 0.54578 0.0
H1513 H 0.58339 0.06683 0.48637 0.0
H1514 H 0.597 0.03579 0.33454 0.0
H1515 H 0.61847 0.01823 0.39325 0.0
C1516 C 0.70087 0.02076 0.44157 0.0
C1517 C 0.70822 1.00344 0.43768 0.0
C1518 C 0.68464 0.0236 0.47138 0.0
C1519 C 0.67529 0.00921 0.49785 0.0
C1520 C 0.68291 0.99204 0.49541 0.0
C1521 C 0.69925 0.98926 0.46674 0.0
C1522 C 0.657 0.01176 0.52396 0.0
C1523 C 0.64399 0.02086 0.49089 0.0
C1524 C 0.65193 1.00424 0.57891 0.0
C1525 C 0.66523 0.99563 0.61816 0.0
C1526 C 0.66251 0.97792 0.63788 0.0
C1527 C 0.6755 0.96949 0.6722 0.0
C1528 C 0.69113 0.97873 0.68796 0.0
C1529 C 0.69373 0.99649 0.66992 0.0
C1530 C 0.68087 0.00493 0.63504 0.0
C1531 C 0.57014 0.00561 0.55775 0.0
C1532 C 0.56474 0.01115 0.61395 0.0
C1533 C 0.58828 0.00597 0.54165 0.0
C1534 C 0.60148 0.01214 0.58094 0.0
C1535 C 0.59618 0.01728 0.63761 0.0
C1536 C 0.57803 0.0168 0.65392 0.0
C1537 C 0.62072 0.01327 0.56251 0.0
C1538 C 0.63387 0.00492 0.59708 0.0
C1539 C 0.62605 0.02195 0.50977 0.0
C1540 C 0.61324 0.03254 0.47407 0.0
C1541 C 0.60327 0.04641 0.49981 0.0
C1542 C 0.59107 0.05622 0.46625 0.0
C1543 C 0.5888 0.05238 0.40674 0.0
C1544 C 0.59877 0.03874 0.38065 0.0
C1545 C 0.61097 0.02887 0.41404 0.0
H1546 H 0.57935 0.06 0.38084 0.0
H1547 H 0.7012 0.97216 0.71444 0.0
H1548 H 0.53346 0.69405 0.35219 0.0
H1549 H 0.53205 0.66467 0.39918 0.0
H1550 H 0.49963 0.68641 0.53834 0.0
H1551 H 0.50141 0.71617 0.49214 0.0
H1552 H 0.52371 0.66245 0.5814 0.0
H1553 H 0.4801 0.66279 0.42908 0.0
H1554 H 0.46834 0.66742 0.32915 0.0
H1555 H 0.50494 0.62822 0.26231 0.0
H1556 H 0.51711 0.62353 0.36175 0.0
H1557 H 0.49789 0.57398 0.67786 0.0
H1558 H 0.49767 0.60516 0.64403 0.0
H1559 H 0.52781 0.59019 0.49029 0.0
H1560 H 0.52769 0.55897 0.52299 0.0
H1561 H 0.50204 0.61169 0.45963 0.0
H1562 H 0.54622 0.61226 0.61476 0.0
H1563 H 0.55714 0.60795 0.71589 0.0
H1564 H 0.51868 0.64592 0.77889 0.0
H1565 H 0.50703 0.64991 0.67842 0.0
C1566 C 0.52631 0.69276 0.39339 0.0
C1567 C 0.51753 0.70759 0.41816 0.0
C1568 C 0.52533 0.67583 0.41993 0.0
C1569 C 0.51544 0.67316 0.47179 0.0
C1570 C 0.50722 0.68804 0.49808 0.0
C1571 C 0.50816 0.70505 0.47138 0.0
C1572 C 0.51333 0.65472 0.49703 0.0
C1573 C 0.51874 0.65138 0.55506 0.0
C1574 C 0.50694 0.64019 0.46273 0.0
C1575 C 0.49963 0.64293 0.40282 0.0
C1576 C 0.48574 0.65525 0.39301 0.0
C1577 C 0.47898 0.65788 0.33646 0.0
C1578 C 0.48592 0.64815 0.28939 0.0
C1579 C 0.4996 0.63575 0.2988 0.0
C1580 C 0.50642 0.6331 0.35526 0.0
C1581 C 0.50455 0.57731 0.63691 0.0
C1582 C 0.51288 0.56388 0.60329 0.0
C1583 C 0.50447 0.59522 0.6177 0.0
C1584 C 0.51293 0.6002 0.56483 0.0
C1585 C 0.52118 0.58678 0.53122 0.0
C1586 C 0.52115 0.56888 0.55011 0.0
C1587 C 0.51298 0.61922 0.54349 0.0
C1588 C 0.50702 0.62271 0.48614 0.0
C1589 C 0.51877 0.63385 0.57864 0.0
C1590 C 0.52563 0.63126 0.63913 0.0
C1591 C 0.53993 0.61951 0.65028 0.0
C1592 C 0.54622 0.61709 0.70751 0.0
C1593 C 0.5385 0.62654 0.75387 0.0
C1594 C 0.5245 0.63846 0.74306 0.0
C1595 C 0.51803 0.64079 0.686 0.0
H1596 H 0.54344 0.6247 0.79812 0.0
H1597 H 0.48066 0.6502 0.24564 0.0
H1598 H 0.8014 0.51466 0.49431 0.0
H1599 H 0.83022 0.50868 0.54288 0.0
H1600 H 0.85758 0.54065 0.41207 0.0
H1601 H 0.82916 0.54632 0.36312 0.0
H1602 H 0.87483 0.50934 0.43208 0.0
H1603 H 0.85044 0.5579 0.55501 0.0
H1604 H 0.8262 0.57018 0.61671 0.0
H1605 H 0.82851 0.52384 0.72848 0.0
H1606 H 0.853 0.51144 0.66829 0.0
H1607 H 0.9603 0.52813 0.54235 0.0
H1608 H 0.92955 0.53001 0.50664 0.0
H1609 H 0.91044 0.50366 0.66376 0.0
H1610 H 0.9412 0.50243 0.70107 0.0
H1611 H 0.88757 0.52796 0.63674 0.0
H1612 H 0.91437 0.48125 0.5279 0.0
H1613 H 0.93708 0.46621 0.467 0.0
H1614 H 0.92837 0.50432 0.3284 0.0
H1615 H 0.90579 0.51975 0.3888 0.0
C1616 C 0.81358 0.52034 0.47588 0.0
C1617 C 0.81287 0.53116 0.42514 0.0
C1618 C 0.83004 0.51704 0.50393 0.0
C1619 C 0.84613 0.52438 0.48159 0.0
C1620 C 0.84542 0.53489 0.43046 0.0
C1621 C 0.82907 0.53825 0.40273 0.0
C1622 C 0.86386 0.52112 0.51021 0.0
C1623 C 0.87767 0.51356 0.47665 0.0
C1624 C 0.86743 0.52586 0.56919 0.0
C1625 C 0.85343 0.53372 0.60705 0.0
C1626 C 0.84582 0.55039 0.59299 0.0
C1627 C 0.83209 0.55738 0.62777 0.0
C1628 C 0.82583 0.54775 0.67646 0.0
C1629 C 0.83347 0.53128 0.691 0.0
C1630 C 0.84733 0.52432 0.6568 0.0
C1631 C 0.94959 0.52274 0.56947 0.0
C1632 C 0.95334 0.51496 0.62436 0.0
C1633 C 0.93194 0.52373 0.54879 0.0
C1634 C 0.91756 0.51658 0.58171 0.0
C1635 C 0.92122 0.5092 0.63724 0.0
C1636 C 0.93888 0.50844 0.65843 0.0
C1637 C 0.89885 0.51678 0.55773 0.0
C1638 C 0.88481 0.52364 0.59223 0.0
C1639 C 0.89495 0.51102 0.4998 0.0
C1640 C 0.90848 0.50174 0.4631 0.0
C1641 C 0.91738 0.4865 0.48458 0.0
C1642 C 0.93022 0.47789 0.45013 0.0
C1643 C 0.93419 0.48433 0.39392 0.0
C1644 C 0.92529 0.49936 0.37198 0.0
C1645 C 0.91245 0.50803 0.40628 0.0
H1646 H 0.94414 0.47765 0.36731 0.0
H1647 H 0.81501 0.55299 0.70284 0.0
loop_
_geom_bond_atom_site_label_1
_geom_bond_atom_site_label_2
_geom_bond_distance
_geom_bond_site_symmetry_2
_ccdc_geom_bond_type
C0 C1 1.384 . S
C0 H13 0.947 . S
C0 C35 1.382 . S
C1 C0 1.384 . S
C1 C2 1.378 . S
C2 C1 1.378 . S
C2 C3 1.378 . S
C2 H14 0.952 . S
C3 C2 1.378 . S
C3 H15 0.950 . S
C3 C34 1.383 . S
H4 C23 0.947 . S
H5 C24 0.946 . S
H6 C26 0.953 . S
H7 C27 0.945 . S
H8 C29 0.952 . S
H9 C30 0.949 . S
H10 C32 0.950 . S
H11 C33 0.948 . S
H12 C35 0.951 . S
H13 C0 0.947 . S
H14 C2 0.952 . S
H15 C3 0.950 . S
N16 C19 1.382 . S
N16 C21 1.363 . S
N17 C19 1.371 . S
N17 C20 1.372 . S
N18 C20 1.361 . S
N18 C21 1.377 . S
C19 N16 1.382 . S
C19 N17 1.371 . S
C19 C22 1.480 . S
C20 N17 1.372 . S
C20 N18 1.361 . S
C20 C28 1.457 . S
C21 N16 1.363 . S
C21 N18 1.377 . S
C21 C34 1.479 . S
C22 C19 1.480 . S
C22 C23 1.383 . S
C22 C27 1.385 . S
C23 H4 0.947 . S
C23 C22 1.383 . S
C23 C24 1.388 . S
C24 H5 0.946 . S
C24 C23 1.388 . S
C24 C25 1.384 . S
C25 C24 1.384 . S
C25 C26 1.377 . S
C26 H6 0.953 . S
C26 C25 1.377 . S
C26 C27 1.369 . S
C27 H7 0.945 . S
C27 C22 1.385 . S
C27 C26 1.369 . S
C28 C20 1.457 . S
C28 C29 1.372 . S
C28 C33 1.364 . S
C29 H8 0.952 . S
C29 C28 1.372 . S
C29 C30 1.389 . S
C30 H9 0.949 . S
C30 C29 1.389 . S
C30 C31 1.387 . S
C31 C30 1.387 . S
C31 C32 1.372 . S
C32 H10 0.950 . S
C32 C31 1.372 . S
C32 C33 1.379 . S
C33 H11 0.948 . S
C33 C28 1.364 . S
C33 C32 1.379 . S
C34 C3 1.383 . S
C34 C21 1.479 . S
C34 C35 1.398 . S
C35 C0 1.382 . S
C35 H12 0.951 . S
C35 C34 1.398 . S
C36 C37 1.381 1_655 S
C36 H49 0.948 . S
C36 C71 1.382 1_655 S
C37 C36 1.381 1_455 S
C37 C38 1.388 . S
C38 C37 1.388 . S
C38 C39 1.378 . S
C38 H50 0.952 . S
C39 C38 1.378 . S
C39 H51 0.950 . S
C39 C70 1.383 . S
H40 C59 0.947 . S
H41 C60 0.952 . S
H42 C62 0.953 . S
H43 C63 0.945 . S
H44 C65 0.950 1_655 S
H45 C66 0.956 . S
H46 C68 0.950 . S
H47 C69 0.948 . S
H48 C71 0.952 1_655 S
H49 C36 0.948 . S
H50 C38 0.952 . S
H51 C39 0.950 . S
N52 C55 1.382 . S
N52 C57 1.363 . S
N53 C55 1.371 . S
N53 C56 1.372 . S
N54 C56 1.361 . S
N54 C57 1.377 . S
C55 N52 1.382 . S
C55 N53 1.371 . S
C55 C58 1.480 . S
C56 N53 1.372 . S
C56 N54 1.361 . S
C56 C64 1.457 . S
C57 N52 1.363 . S
C57 N54 1.377 . S
C57 C70 1.479 . S
C58 C55 1.480 . S
C58 C59 1.383 . S
C58 C63 1.385 . S
C59 H40 0.947 . S
C59 C58 1.383 . S
C59 C60 1.386 1_455 S
C60 H41 0.952 . S
C60 C59 1.386 1_655 S
C60 C61 1.381 1_655 S
C61 C60 1.381 1_455 S
C61 C62 1.377 . S
C62 H42 0.953 . S
C62 C61 1.377 . S
C62 C63 1.369 . S
C63 H43 0.945 . S
C63 C58 1.385 . S
C63 C62 1.369 . S
C64 C56 1.457 . S
C64 C65 1.375 . S
C64 C69 1.364 . S
C65 H44 0.950 1_455 S
C65 C64 1.375 . S
C65 C66 1.386 1_455 S
C66 H45 0.956 . S
C66 C65 1.386 1_655 S
C66 C67 1.383 1_655 S
C67 C66 1.383 1_455 S
C67 C68 1.372 . S
C68 H46 0.950 . S
C68 C67 1.372 . S
C68 C69 1.379 . S
C69 H47 0.948 . S
C69 C64 1.364 . S
C69 C68 1.379 . S
C70 C39 1.383 . S
C70 C57 1.479 . S
C70 C71 1.397 . S
C71 C36 1.382 1_455 S
C71 H48 0.952 1_455 S
C71 C70 1.397 . S
C72 C73 1.384 . S
C72 H85 0.947 . S
C72 C107 1.382 . S
C73 C72 1.384 . S
C73 C74 1.378 . S
C74 C73 1.378 . S
C74 C75 1.378 . S
C74 H86 0.952 . S
C75 C74 1.378 . S
C75 H87 0.950 . S
C75 C106 1.383 . S
H76 C95 0.947 . S
H77 C96 0.946 . S
H78 C98 0.953 . S
H79 C99 0.945 . S
H80 C101 0.952 . S
H81 C102 0.949 . S
H82 C104 0.950 . S
H83 C105 0.948 . S
H84 C107 0.951 . S
H85 C72 0.947 . S
H86 C74 0.952 . S
H87 C75 0.950 . S
N88 C91 1.382 . S
N88 C93 1.363 . S
N89 C91 1.371 . S
N89 C92 1.372 . S
N90 C92 1.361 . S
N90 C93 1.377 . S
C91 N88 1.382 . S
C91 N89 1.371 . S
C91 C94 1.480 . S
C92 N89 1.372 . S
C92 N90 1.361 . S
C92 C100 1.457 . S
C93 N88 1.363 . S
C93 N90 1.377 . S
C93 C106 1.479 . S
C94 C91 1.480 . S
C94 C95 1.383 . S
C94 C99 1.385 . S
C95 H76 0.947 . S
C95 C94 1.383 . S
C95 C96 1.388 . S
C96 H77 0.946 . S
C96 C95 1.388 . S
C96 C97 1.384 . S
C97 C96 1.384 . S
C97 C98 1.377 . S
C98 H78 0.953 . S
C98 C97 1.377 . S
C98 C99 1.369 . S
C99 H79 0.945 . S
C99 C94 1.385 . S
C99 C98 1.369 . S
C100 C92 1.457 . S
C100 C101 1.372 . S
C100 C105 1.364 . S
C101 H80 0.952 . S
C101 C100 1.372 . S
C101 C102 1.389 . S
C102 H81 0.949 . S
C102 C101 1.389 . S
C102 C103 1.387 . S
C103 C102 1.387 . S
C103 C104 1.372 . S
C104 H82 0.950 . S
C104 C103 1.372 . S
C104 C105 1.379 . S
C105 H83 0.948 . S
C105 C100 1.364 . S
C105 C104 1.379 . S
C106 C75 1.383 . S
C106 C93 1.479 . S
C106 C107 1.398 . S
C107 C72 1.382 . S
C107 H84 0.951 . S
C107 C106 1.398 . S
C108 C109 1.384 . S
C108 H121 0.947 . S
C108 C143 1.382 . S
C109 C108 1.384 . S
C109 C110 1.378 . S
C110 C109 1.378 . S
C110 C111 1.378 . S
C110 H122 0.952 . S
C111 C110 1.378 . S
C111 H123 0.950 . S
C111 C142 1.383 . S
H112 C131 0.947 . S
H113 C132 0.946 . S
H114 C134 0.953 . S
H115 C135 0.945 . S
H116 C137 0.952 . S
H117 C138 0.949 . S
H118 C140 0.950 . S
H119 C141 0.948 . S
H120 C143 0.951 . S
H121 C108 0.947 . S
H122 C110 0.952 . S
H123 C111 0.950 . S
N124 C127 1.382 . S
N124 C129 1.363 . S
N125 C127 1.371 . S
N125 C128 1.372 . S
N126 C128 1.361 . S
N126 C129 1.377 . S
C127 N124 1.382 . S
C127 N125 1.371 . S
C127 C130 1.480 . S
C128 N125 1.372 . S
C128 N126 1.361 . S
C128 C136 1.457 . S
C129 N124 1.363 . S
C129 N126 1.377 . S
C129 C142 1.479 . S
C130 C127 1.480 . S
C130 C131 1.383 . S
C130 C135 1.385 . S
C131 H112 0.947 . S
C131 C130 1.383 . S
C131 C132 1.388 . S
C132 H113 0.946 . S
C132 C131 1.388 . S
C132 C133 1.384 . S
C133 C132 1.384 . S
C133 C134 1.377 . S
C134 H114 0.953 . S
C134 C133 1.377 . S
C134 C135 1.369 . S
C135 H115 0.945 . S
C135 C130 1.385 . S
C135 C134 1.369 . S
C136 C128 1.457 . S
C136 C137 1.372 . S
C136 C141 1.364 . S
C137 H116 0.952 . S
C137 C136 1.372 . S
C137 C138 1.389 . S
C138 H117 0.949 . S
C138 C137 1.389 . S
C138 C139 1.387 . S
C139 C138 1.387 . S
C139 C140 1.372 . S
C140 H118 0.950 . S
C140 C139 1.372 . S
C140 C141 1.379 . S
C141 H119 0.948 . S
C141 C136 1.364 . S
C141 C140 1.379 . S
C142 C111 1.383 . S
C142 C129 1.479 . S
C142 C143 1.398 . S
C143 C108 1.382 . S
C143 H120 0.951 . S
C143 C142 1.398 . S
C144 C145 1.384 . S
C144 H157 0.947 . S
C144 C179 1.382 . S
C145 C144 1.384 . S
C145 C146 1.378 . S
C146 C145 1.378 . S
C146 C147 1.378 . S
C146 H158 0.952 . S
C147 C146 1.378 . S
C147 H159 0.950 . S
C147 C178 1.383 . S
H148 C167 0.947 1_556 S
H149 C168 0.946 . S
H150 C170 0.953 . S
H151 C171 0.945 . S
H152 C173 0.952 . S
H153 C174 0.949 . S
H154 C176 0.950 . S
H155 C177 0.948 . S
H156 C179 0.951 . S
H157 C144 0.947 . S
H158 C146 0.952 . S
H159 C147 0.950 . S
N160 C163 1.382 1_556 S
N160 C165 1.363 . S
N161 C163 1.371 . S
N161 C164 1.372 . S
N162 C164 1.361 . S
N162 C165 1.377 1_554 S
C163 N160 1.382 1_554 S
C163 N161 1.371 . S
C163 C166 1.480 . S
C164 N161 1.372 . S
C164 N162 1.361 . S
C164 C172 1.457 . S
C165 N160 1.363 . S
C165 N162 1.377 1_556 S
C165 C178 1.479 . S
C166 C163 1.480 . S
C166 C167 1.383 . S
C166 C171 1.385 . S
C167 H148 0.947 1_554 S
C167 C166 1.383 . S
C167 C168 1.388 . S
C168 H149 0.946 . S
C168 C167 1.388 . S
C168 C169 1.384 . S
C169 C168 1.384 . S
C169 C170 1.377 . S
C170 H150 0.953 . S
C170 C169 1.377 . S
C170 C171 1.369 . S
C171 H151 0.945 . S
C171 C166 1.385 . S
C171 C170 1.369 . S
C172 C164 1.457 . S
C172 C173 1.372 . S
C172 C177 1.364 . S
C173 H152 0.952 . S
C173 C172 1.372 . S
C173 C174 1.389 . S
C174 H153 0.949 . S
C174 C173 1.389 . S
C174 C175 1.387 . S
C175 C174 1.387 . S
C175 C176 1.372 . S
C176 H154 0.950 . S
C176 C175 1.372 . S
C176 C177 1.379 . S
C177 H155 0.948 . S
C177 C172 1.364 . S
C177 C176 1.379 . S
C178 C147 1.383 . S
C178 C165 1.479 . S
C178 C179 1.398 . S
C179 C144 1.382 . S
C179 H156 0.951 . S
C179 C178 1.398 . S
C180 C181 1.384 . S
C180 H193 0.948 1_455 S
C180 C215 1.382 . S
C181 C180 1.384 . S
C181 C182 1.378 . S
C182 C181 1.378 . S
C182 C183 1.378 . S
C182 H194 0.952 . S
C183 C182 1.378 . S
C183 H195 0.950 . S
C183 C214 1.383 . S
H184 C203 0.947 1_556 S
H185 C204 0.948 . S
H186 C206 0.953 . S
H187 C207 0.945 . S
H188 C209 0.947 1_655 S
H189 C210 0.954 . S
H190 C212 0.950 . S
H191 C213 0.948 . S
H192 C215 0.950 1_655 S
H193 C180 0.948 1_655 S
H194 C182 0.952 . S
H195 C183 0.950 . S
N196 C199 1.382 1_556 S
N196 C201 1.363 . S
N197 C199 1.371 . S
N197 C200 1.372 . S
N198 C200 1.361 . S
N198 C201 1.377 1_554 S
C199 N196 1.382 1_554 S
C199 N197 1.371 . S
C199 C202 1.480 . S
C200 N197 1.372 . S
C200 N198 1.361 . S
C200 C208 1.457 . S
C201 N196 1.363 . S
C201 N198 1.377 1_556 S
C201 C214 1.479 . S
C202 C199 1.480 . S
C202 C203 1.383 . S
C202 C207 1.385 . S
C203 H184 0.947 1_554 S
C203 C202 1.383 . S
C203 C204 1.387 1_455 S
C204 H185 0.948 . S
C204 C203 1.387 1_655 S
C204 C205 1.383 1_655 S
C205 C204 1.383 1_455 S
C205 C206 1.377 . S
C206 H186 0.953 . S
C206 C205 1.377 . S
C206 C207 1.369 . S
C207 H187 0.945 . S
C207 C202 1.385 . S
C207 C206 1.369 . S
C208 C200 1.457 . S
C208 C209 1.379 . S
C208 C213 1.364 . S
C209 H188 0.947 1_455 S
C209 C208 1.379 . S
C209 C210 1.387 1_455 S
C210 H189 0.954 . S
C210 C209 1.387 1_655 S
C210 C211 1.384 1_655 S
C211 C210 1.384 1_455 S
C211 C212 1.372 . S
C212 H190 0.950 . S
C212 C211 1.372 . S
C212 C213 1.379 . S
C213 H191 0.948 . S
C213 C208 1.364 . S
C213 C212 1.379 . S
C214 C183 1.383 . S
C214 C201 1.479 . S
C214 C215 1.399 . S
C215 C180 1.382 . S
C215 H192 0.950 1_455 S
C215 C214 1.399 . S
C216 C217 1.384 . S
C216 H229 0.947 . S
C216 C251 1.382 . S
C217 C216 1.384 . S
C217 C218 1.378 . S
C218 C217 1.378 . S
C218 C219 1.378 . S
C218 H230 0.952 . S
C219 C218 1.378 . S
C219 H231 0.950 . S
C219 C250 1.383 . S
H220 C239 0.947 1_556 S
H221 C240 0.946 . S
H222 C242 0.953 . S
H223 C243 0.945 . S
H224 C245 0.952 . S
H225 C246 0.949 . S
H226 C248 0.950 . S
H227 C249 0.948 . S
H228 C251 0.951 . S
H229 C216 0.947 . S
H230 C218 0.952 . S
H231 C219 0.950 . S
N232 C235 1.382 1_556 S
N232 C237 1.363 . S
N233 C235 1.371 . S
N233 C236 1.372 . S
N234 C236 1.361 . S
N234 C237 1.377 1_554 S
C235 N232 1.382 1_554 S
C235 N233 1.371 . S
C235 C238 1.480 . S
C236 N233 1.372 . S
C236 N234 1.361 . S
C236 C244 1.457 . S
C237 N232 1.363 . S
C237 N234 1.377 1_556 S
C237 C250 1.479 . S
C238 C235 1.480 . S
C238 C239 1.383 . S
C238 C243 1.385 . S
C239 H220 0.947 1_554 S
C239 C238 1.383 . S
C239 C240 1.388 . S
C240 H221 0.946 . S
C240 C239 1.388 . S
C240 C241 1.384 . S
C241 C240 1.384 . S
C241 C242 1.377 . S
C242 H222 0.953 . S
C242 C241 1.377 . S
C242 C243 1.369 . S
C243 H223 0.945 . S
C243 C238 1.385 . S
C243 C242 1.369 . S
C244 C236 1.457 . S
C244 C245 1.372 . S
C244 C249 1.364 . S
C245 H224 0.952 . S
C245 C244 1.372 . S
C245 C246 1.389 . S
C246 H225 0.949 . S
C246 C245 1.389 . S
C246 C247 1.387 . S
C247 C246 1.387 . S
C247 C248 1.372 . S
C248 H226 0.950 . S
C248 C247 1.372 . S
C248 C249 1.379 . S
C249 H227 0.948 . S
C249 C244 1.364 . S
C249 C248 1.379 . S
C250 C219 1.383 . S
C250 C237 1.479 . S
C250 C251 1.398 . S
C251 C216 1.382 . S
C251 H228 0.951 . S
C251 C250 1.398 . S
C252 C253 1.384 . S
C252 H265 0.947 . S
C252 C287 1.382 . S
C253 C252 1.384 . S
C253 C254 1.378 . S
C254 C253 1.378 . S
C254 C255 1.378 . S
C254 H266 0.952 . S
C255 C254 1.378 . S
C255 H267 0.950 . S
C255 C286 1.383 . S
H256 C275 0.947 . S
H257 C276 0.946 . S
H258 C278 0.953 1_556 S
H259 C279 0.945 1_556 S
H260 C281 0.952 . S
H261 C282 0.949 . S
H262 C284 0.950 . S
H263 C285 0.948 . S
H264 C287 0.951 . S
H265 C252 0.947 . S
H266 C254 0.952 . S
H267 C255 0.950 . S
N268 C271 1.382 . S
N268 C273 1.363 . S
N269 C271 1.371 1_556 S
N269 C272 1.372 . S
N270 C272 1.361 1_554 S
N270 C273 1.377 . S
C271 N268 1.382 . S
C271 N269 1.371 1_554 S
C271 C274 1.480 . S
C272 N269 1.372 . S
C272 N270 1.361 1_556 S
C272 C280 1.457 . S
C273 N268 1.363 . S
C273 N270 1.377 . S
C273 C286 1.479 . S
C274 C271 1.480 . S
C274 C275 1.383 . S
C274 C279 1.385 . S
C275 H256 0.947 . S
C275 C274 1.383 . S
C275 C276 1.388 . S
C276 H257 0.946 . S
C276 C275 1.388 . S
C276 C277 1.384 . S
C277 C276 1.384 . S
C277 C278 1.377 . S
C278 H258 0.953 1_554 S
C278 C277 1.377 . S
C278 C279 1.369 . S
C279 H259 0.945 1_554 S
C279 C274 1.385 . S
C279 C278 1.369 . S
C280 C272 1.457 . S
C280 C281 1.372 . S
C280 C285 1.364 . S
C281 H260 0.952 . S
C281 C280 1.372 . S
C281 C282 1.389 . S
C282 H261 0.949 . S
C282 C281 1.389 . S
C282 C283 1.387 . S
C283 C282 1.387 . S
C283 C284 1.372 . S
C284 H262 0.950 . S
C284 C283 1.372 . S
C284 C285 1.379 . S
C285 H263 0.948 . S
C285 C280 1.364 . S
C285 C284 1.379 . S
C286 C255 1.383 . S
C286 C273 1.479 . S
C286 C287 1.398 . S
C287 C252 1.382 . S
C287 H264 0.951 . S
C287 C286 1.398 . S
Gd288 C291 2.818 . S
Gd288 O308 2.377 . S
Gd288 O310 2.448 . S
Gd288 O311 2.506 . S
Gd288 O312 2.435 . S
Gd288 O313 2.717 1_565 S
Gd288 O315 2.395 1_565 S
Gd288 O319 2.327 1_465 S
Gd289 C300 2.818 . S
Gd289 O309 2.395 1_545 S
Gd289 O313 2.327 1_655 S
Gd289 O314 2.377 . S
Gd289 O316 2.448 . S
Gd289 O317 2.506 . S
Gd289 O318 2.435 . S
Gd289 O319 2.717 . S
C290 O308 1.240 1_655 S
C290 O309 1.240 . S
C291 Gd288 2.818 . S
C291 C292 1.510 . S
C291 O310 1.249 . S
C291 O311 1.252 . S
C292 C291 1.510 . S
C292 C293 1.404 . S
C292 C294 1.352 . S
C293 C292 1.404 . S
C293 C297 1.389 . S
C293 H320 0.930 . S
C294 C292 1.352 . S
C294 C296 1.374 . S
C294 H321 0.931 1_455 S
C295 C296 1.359 . S
C295 C297 1.364 . S
C296 C294 1.374 . S
C296 C295 1.359 . S
C296 H322 0.931 1_455 S
C297 C293 1.389 . S
C297 C295 1.364 . S
C297 H323 0.931 . S
C298 O312 1.256 1_545 S
C298 O313 1.257 . S
C299 O314 1.240 1_455 S
C299 O315 1.240 . S
C300 Gd289 2.818 . S
C300 C301 1.510 . S
C300 O316 1.249 . S
C300 O317 1.252 . S
C301 C300 1.510 . S
C301 C302 1.404 . S
C301 C303 1.352 . S
C302 C301 1.404 . S
C302 C306 1.389 . S
C302 H324 0.930 . S
C303 C301 1.352 . S
C303 C305 1.374 . S
C303 H325 0.931 1_655 S
C304 C305 1.359 . S
C304 C306 1.364 . S
C305 C303 1.374 . S
C305 C304 1.359 . S
C305 H326 0.931 1_655 S
C306 C302 1.389 . S
C306 C304 1.364 . S
C306 H327 0.931 . S
C307 O318 1.256 . S
C307 O319 1.257 . S
O308 Gd288 2.377 . S
O308 C290 1.240 1_455 S
O309 Gd289 2.395 1_565 S
O309 C290 1.240 . S
O310 Gd288 2.448 . S
O310 C291 1.249 . S
O311 Gd288 2.506 . S
O311 C291 1.252 . S
O312 Gd288 2.435 . S
O312 C298 1.256 1_565 S
O313 Gd288 2.717 1_545 S
O313 Gd289 2.327 1_455 S
O313 C298 1.257 . S
O314 Gd289 2.377 . S
O314 C299 1.240 1_655 S
O315 Gd288 2.395 1_545 S
O315 C299 1.240 . S
O316 Gd289 2.448 . S
O316 C300 1.249 . S
O317 Gd289 2.506 . S
O317 C300 1.252 . S
O318 Gd289 2.435 . S
O318 C307 1.256 . S
O319 Gd288 2.327 1_645 S
O319 Gd289 2.717 . S
O319 C307 1.257 . S
H320 C293 0.930 . S
H321 C294 0.931 1_655 S
H322 C296 0.931 1_655 S
H323 C297 0.931 . S
H324 C302 0.930 . S
H325 C303 0.931 1_455 S
H326 C305 0.931 1_455 S
H327 C306 0.931 . S
Gd328 C331 2.818 . S
Gd328 O348 2.377 . S
Gd328 O350 2.448 . S
Gd328 O351 2.506 . S
Gd328 O352 2.435 . S
Gd328 O353 2.717 . S
Gd328 O355 2.395 . S
Gd328 O359 2.327 1_545 S
Gd329 C340 2.818 . S
Gd329 O349 2.395 . S
Gd329 O353 2.327 1_565 S
Gd329 O354 2.377 1_565 S
Gd329 O356 2.448 . S
Gd329 O357 2.506 1_565 S
Gd329 O358 2.435 . S
Gd329 O359 2.717 . S
C330 O348 1.240 1_565 S
C330 O349 1.240 . S
C331 Gd328 2.818 . S
C331 C332 1.510 . S
C331 O350 1.249 . S
C331 O351 1.252 . S
C332 C331 1.510 . S
C332 C333 1.404 . S
C332 C334 1.352 . S
C333 C332 1.404 . S
C333 C337 1.389 . S
C333 H360 0.930 . S
C334 C332 1.352 . S
C334 C336 1.374 . S
C334 H361 0.931 1_545 S
C335 C336 1.359 . S
C335 C337 1.364 . S
C336 C334 1.374 . S
C336 C335 1.359 . S
C336 H362 0.931 1_545 S
C337 C333 1.389 . S
C337 C335 1.364 . S
C337 H363 0.931 . S
C338 O352 1.256 . S
C338 O353 1.257 . S
C339 O354 1.240 . S
C339 O355 1.240 . S
C340 Gd329 2.818 . S
C340 C341 1.510 . S
C340 O356 1.249 . S
C340 O357 1.252 1_565 S
C341 C340 1.510 . S
C341 C342 1.404 . S
C341 C343 1.352 1_565 S
C342 C341 1.404 . S
C342 C346 1.389 . S
C342 H364 0.930 . S
C343 C341 1.352 1_545 S
C343 C345 1.374 . S
C343 H365 0.931 . S
C344 C345 1.359 1_565 S
C344 C346 1.364 . S
C345 C343 1.374 . S
C345 C344 1.359 1_545 S
C345 H366 0.931 . S
C346 C342 1.389 . S
C346 C344 1.364 . S
C346 H367 0.931 . S
C347 O358 1.256 . S
C347 O359 1.257 . S
O348 Gd328 2.377 . S
O348 C330 1.240 1_545 S
O349 Gd329 2.395 . S
O349 C330 1.240 . S
O350 Gd328 2.448 . S
O350 C331 1.249 . S
O351 Gd328 2.506 . S
O351 C331 1.252 . S
O352 Gd328 2.435 . S
O352 C338 1.256 . S
O353 Gd328 2.717 . S
O353 Gd329 2.327 1_545 S
O353 C338 1.257 . S
O354 Gd329 2.377 1_545 S
O354 C339 1.240 . S
O355 Gd328 2.395 . S
O355 C339 1.240 . S
O356 Gd329 2.448 . S
O356 C340 1.249 . S
O357 Gd329 2.506 1_545 S
O357 C340 1.252 1_545 S
O358 Gd329 2.435 . S
O358 C347 1.256 . S
O359 Gd328 2.327 1_565 S
O359 Gd329 2.717 . S
O359 C347 1.257 . S
H360 C333 0.930 . S
H361 C334 0.931 1_565 S
H362 C336 0.931 1_565 S
H363 C337 0.931 . S
H364 C342 0.930 . S
H365 C343 0.931 . S
H366 C345 0.931 . S
H367 C346 0.931 . S
Gd368 C371 2.818 . S
Gd368 O388 2.377 . S
Gd368 O390 2.448 . S
Gd368 O391 2.506 . S
Gd368 O392 2.435 . S
Gd368 O393 2.717 . S
Gd368 O395 2.395 . S
Gd368 O399 2.327 . S
Gd369 C380 2.818 . S
Gd369 O389 2.395 . S
Gd369 O393 2.327 . S
Gd369 O394 2.377 . S
Gd369 O396 2.448 . S
Gd369 O397 2.506 . S
Gd369 O398 2.435 . S
Gd369 O399 2.717 . S
C370 O388 1.240 . S
C370 O389 1.240 . S
C371 Gd368 2.818 . S
C371 C372 1.510 . S
C371 O390 1.249 . S
C371 O391 1.252 . S
C372 C371 1.510 . S
C372 C373 1.404 . S
C372 C374 1.352 . S
C373 C372 1.404 . S
C373 C377 1.389 . S
C373 H400 0.930 . S
C374 C372 1.352 . S
C374 C376 1.374 . S
C374 H401 0.931 . S
C375 C376 1.359 . S
C375 C377 1.364 . S
C376 C374 1.374 . S
C376 C375 1.359 . S
C376 H402 0.931 . S
C377 C373 1.389 . S
C377 C375 1.364 . S
C377 H403 0.931 . S
C378 O392 1.256 . S
C378 O393 1.257 . S
C379 O394 1.240 . S
C379 O395 1.240 . S
C380 Gd369 2.818 . S
C380 C381 1.510 . S
C380 O396 1.249 . S
C380 O397 1.252 . S
C381 C380 1.510 . S
C381 C382 1.404 . S
C381 C383 1.352 . S
C382 C381 1.404 . S
C382 C386 1.389 . S
C382 H404 0.930 . S
C383 C381 1.352 . S
C383 C385 1.374 . S
C383 H405 0.931 . S
C384 C385 1.359 . S
C384 C386 1.364 . S
C385 C383 1.374 . S
C385 C384 1.359 . S
C385 H406 0.931 . S
C386 C382 1.389 . S
C386 C384 1.364 . S
C386 H407 0.931 . S
C387 O398 1.256 . S
C387 O399 1.257 . S
O388 Gd368 2.377 . S
O388 C370 1.240 . S
O389 Gd369 2.395 . S
O389 C370 1.240 . S
O390 Gd368 2.448 . S
O390 C371 1.249 . S
O391 Gd368 2.506 . S
O391 C371 1.252 . S
O392 Gd368 2.435 . S
O392 C378 1.256 . S
O393 Gd368 2.717 . S
O393 Gd369 2.327 . S
O393 C378 1.257 . S
O394 Gd369 2.377 . S
O394 C379 1.240 . S
O395 Gd368 2.395 . S
O395 C379 1.240 . S
O396 Gd369 2.448 . S
O396 C380 1.249 . S
O397 Gd369 2.506 . S
O397 C380 1.252 . S
O398 Gd369 2.435 . S
O398 C387 1.256 . S
O399 Gd368 2.327 . S
O399 Gd369 2.717 . S
O399 C387 1.257 . S
H400 C373 0.930 . S
H401 C374 0.931 . S
H402 C376 0.931 . S
H403 C377 0.931 . S
H404 C382 0.930 . S
H405 C383 0.931 . S
H406 C385 0.931 . S
H407 C386 0.931 . S
Gd408 C411 2.818 . S
Gd408 O428 2.377 . S
Gd408 O430 2.448 . S
Gd408 O431 2.506 . S
Gd408 O432 2.435 . S
Gd408 O433 2.717 1_655 S
Gd408 O435 2.395 1_655 S
Gd408 O439 2.327 . S
Gd409 C420 2.818 . S
Gd409 O429 2.395 1_455 S
Gd409 O433 2.327 . S
Gd409 O434 2.377 . S
Gd409 O436 2.448 . S
Gd409 O437 2.506 . S
Gd409 O438 2.435 . S
Gd409 O439 2.717 1_455 S
C410 O428 1.240 . S
C410 O429 1.240 . S
C411 Gd408 2.818 . S
C411 C412 1.510 . S
C411 O430 1.249 . S
C411 O431 1.252 . S
C412 C411 1.510 . S
C412 C413 1.404 . S
C412 C414 1.352 . S
C413 C412 1.404 . S
C413 C417 1.389 . S
C413 H440 0.930 . S
C414 C412 1.352 . S
C414 C416 1.374 . S
C414 H441 0.931 . S
C415 C416 1.359 . S
C415 C417 1.364 . S
C416 C414 1.374 . S
C416 C415 1.359 . S
C416 H442 0.931 . S
C417 C413 1.389 . S
C417 C415 1.364 . S
C417 H443 0.931 . S
C418 O432 1.256 . S
C418 O433 1.257 1_655 S
C419 O434 1.240 . S
C419 O435 1.240 . S
C420 Gd409 2.818 . S
C420 C421 1.510 . S
C420 O436 1.249 . S
C420 O437 1.252 . S
C421 C420 1.510 . S
C421 C422 1.404 . S
C421 C423 1.352 . S
C422 C421 1.404 . S
C422 C426 1.389 . S
C422 H444 0.930 . S
C423 C421 1.352 . S
C423 C425 1.374 . S
C423 H445 0.931 . S
C424 C425 1.359 . S
C424 C426 1.364 . S
C425 C423 1.374 . S
C425 C424 1.359 . S
C425 H446 0.931 . S
C426 C422 1.389 . S
C426 C424 1.364 . S
C426 H447 0.931 . S
C427 O438 1.256 . S
C427 O439 1.257 1_455 S
O428 Gd408 2.377 . S
O428 C410 1.240 . S
O429 Gd409 2.395 1_655 S
O429 C410 1.240 . S
O430 Gd408 2.448 . S
O430 C411 1.249 . S
O431 Gd408 2.506 . S
O431 C411 1.252 . S
O432 Gd408 2.435 . S
O432 C418 1.256 . S
O433 Gd408 2.717 1_455 S
O433 Gd409 2.327 . S
O433 C418 1.257 1_455 S
O434 Gd409 2.377 . S
O434 C419 1.240 . S
O435 Gd408 2.395 1_455 S
O435 C419 1.240 . S
O436 Gd409 2.448 . S
O436 C420 1.249 . S
O437 Gd409 2.506 . S
O437 C420 1.252 . S
O438 Gd409 2.435 . S
O438 C427 1.256 . S
O439 Gd408 2.327 . S
O439 Gd409 2.717 1_655 S
O439 C427 1.257 1_655 S
H440 C413 0.930 . S
H441 C414 0.931 . S
H442 C416 0.931 . S
H443 C417 0.931 . S
H444 C422 0.930 . S
H445 C423 0.931 . S
H446 C425 0.931 . S
H447 C426 0.931 . S
H448 C466 0.951 . S
H449 C468 0.951 . S
H450 C470 0.950 . S
H451 C471 0.950 . S
H452 C473 0.950 . S
H453 C476 0.950 . S
H454 C477 0.950 . S
H455 C479 0.950 . S
H456 C480 0.950 . S
H457 C481 0.951 . S
H458 C483 0.951 . S
H459 C485 0.950 . S
H460 C486 0.950 . S
H461 C488 0.950 . S
H462 C491 0.950 . S
H463 C492 0.950 . S
H464 C494 0.950 . S
H465 C495 0.964 . S
C466 H448 0.951 . S
C466 C467 1.366 . S
C466 C468 1.388 . S
C467 C466 1.366 . S
C467 C471 1.385 . S
C468 H449 0.951 . S
C468 C466 1.388 . S
C468 C469 1.366 . S
C469 C468 1.366 . S
C469 C470 1.414 . S
C469 C472 1.499 . S
C470 H450 0.950 . S
C470 C469 1.414 . S
C470 C471 1.374 . S
C471 H451 0.950 . S
C471 C467 1.385 . S
C471 C470 1.374 . S
C472 C469 1.499 . S
C472 C473 1.373 . S
C472 C474 1.389 . S
C473 H452 0.950 . S
C473 C472 1.373 . S
C473 C489 1.377 . S
C474 C472 1.389 . S
C474 C475 1.524 . S
C474 C488 1.377 . S
C475 C474 1.524 . S
C475 C476 1.397 . S
C475 C480 1.363 . S
C476 H453 0.950 . S
C476 C475 1.397 . S
C476 C477 1.334 . S
C477 H454 0.950 . S
C477 C476 1.334 . S
C477 C478 1.287 . S
C478 C477 1.287 . S
C478 C479 1.524 . S
C478 H497 0.913 . S
C479 H455 0.950 . S
C479 C478 1.524 . S
C479 C480 1.415 . S
C480 H456 0.950 . S
C480 C475 1.363 . S
C480 C479 1.415 . S
C481 H457 0.951 . S
C481 C482 1.366 . S
C481 C483 1.388 . S
C482 C481 1.366 . S
C482 C486 1.385 . S
C483 H458 0.951 . S
C483 C481 1.388 . S
C483 C484 1.366 . S
C484 C483 1.366 . S
C484 C485 1.414 . S
C484 C487 1.499 . S
C485 H459 0.950 . S
C485 C484 1.414 . S
C485 C486 1.374 . S
C486 H460 0.950 . S
C486 C482 1.385 . S
C486 C485 1.374 . S
C487 C484 1.499 . S
C487 C488 1.373 . S
C487 C489 1.389 . S
C488 H461 0.950 . S
C488 C474 1.377 . S
C488 C487 1.373 . S
C489 C473 1.377 . S
C489 C487 1.389 . S
C489 C490 1.524 1_545 S
C490 C489 1.524 1_565 S
C490 C491 1.397 . S
C490 C495 1.363 . S
C491 H462 0.950 . S
C491 C490 1.397 . S
C491 C492 1.334 . S
C492 H463 0.950 . S
C492 C491 1.334 . S
C492 C493 1.287 . S
C493 C492 1.287 . S
C493 C494 1.524 . S
C493 H496 0.999 . S
C494 H464 0.950 . S
C494 C493 1.524 . S
C494 C495 1.415 . S
C495 H465 0.964 . S
C495 C490 1.363 . S
C495 C494 1.415 . S
H496 C493 0.999 . S
H497 C478 0.913 . S
H498 C516 0.951 . S
H499 C518 0.951 . S
H500 C520 0.950 . S
H501 C521 0.950 . S
H502 C523 0.950 . S
H503 C526 0.950 . S
H504 C527 0.950 . S
H505 C529 0.950 . S
H506 C530 0.950 . S
H507 C531 0.951 . S
H508 C533 0.951 . S
H509 C535 0.950 . S
H510 C536 0.950 . S
H511 C538 0.950 . S
H512 C541 0.950 . S
H513 C542 0.950 . S
H514 C544 0.950 . S
H515 C545 0.950 . S
C516 H498 0.951 . S
C516 C517 1.366 . S
C516 C518 1.388 . S
C517 C516 1.366 . S
C517 C521 1.385 . S
C518 H499 0.951 . S
C518 C516 1.388 . S
C518 C519 1.366 . S
C519 C518 1.366 . S
C519 C520 1.414 . S
C519 C522 1.499 . S
C520 H500 0.950 . S
C520 C519 1.414 . S
C520 C521 1.374 . S
C521 H501 0.950 . S
C521 C517 1.385 . S
C521 C520 1.374 . S
C522 C519 1.499 . S
C522 C523 1.373 . S
C522 C524 1.389 . S
C523 H502 0.950 . S
C523 C522 1.373 . S
C523 C539 1.377 . S
C524 C522 1.389 . S
C524 C525 1.524 . S
C524 C538 1.377 . S
C525 C524 1.524 . S
C525 C526 1.397 . S
C525 C530 1.363 . S
C526 H503 0.950 . S
C526 C525 1.397 . S
C526 C527 1.334 . S
C527 H504 0.950 . S
C527 C526 1.334 . S
C527 C528 1.287 . S
C528 C527 1.287 . S
C528 C529 1.524 . S
C528 H547 0.913 . S
C529 H505 0.950 . S
C529 C528 1.524 . S
C529 C530 1.415 . S
C530 H506 0.950 . S
C530 C525 1.363 . S
C530 C529 1.415 . S
C531 H507 0.951 . S
C531 C532 1.366 . S
C531 C533 1.388 . S
C532 C531 1.366 . S
C532 C536 1.385 . S
C533 H508 0.951 . S
C533 C531 1.388 . S
C533 C534 1.366 . S
C534 C533 1.366 . S
C534 C535 1.414 . S
C534 C537 1.499 . S
C535 H509 0.950 . S
C535 C534 1.414 . S
C535 C536 1.374 . S
C536 H510 0.950 . S
C536 C532 1.385 . S
C536 C535 1.374 . S
C537 C534 1.499 . S
C537 C538 1.373 . S
C537 C539 1.389 . S
C538 H511 0.950 . S
C538 C524 1.377 . S
C538 C537 1.373 . S
C539 C523 1.377 . S
C539 C537 1.389 . S
C539 C540 1.524 . S
C540 C539 1.524 . S
C540 C541 1.397 . S
C540 C545 1.363 . S
C541 H512 0.950 . S
C541 C540 1.397 . S
C541 C542 1.334 . S
C542 H513 0.950 . S
C542 C541 1.334 . S
C542 C543 1.287 . S
C543 C542 1.287 . S
C543 C544 1.524 . S
C543 H546 0.999 . S
C544 H514 0.950 . S
C544 C543 1.524 . S
C544 C545 1.415 . S
C545 H515 0.950 . S
C545 C540 1.363 . S
C545 C544 1.415 . S
H546 C543 0.999 . S
H547 C528 0.913 . S
H548 C566 0.951 . S
H549 C568 0.951 . S
H550 C570 0.950 . S
H551 C571 0.950 . S
H552 C573 0.950 . S
H553 C576 0.950 . S
H554 C577 0.950 . S
H555 C579 0.950 . S
H556 C580 0.950 . S
H557 C581 0.951 . S
H558 C583 0.951 . S
H559 C585 0.950 . S
H560 C586 0.950 . S
H561 C588 0.950 . S
H562 C591 0.950 . S
H563 C592 0.950 . S
H564 C594 0.950 . S
H565 C595 0.950 . S
C566 H548 0.951 . S
C566 C567 1.366 . S
C566 C568 1.388 . S
C567 C566 1.366 . S
C567 C571 1.385 . S
C568 H549 0.951 . S
C568 C566 1.388 . S
C568 C569 1.366 . S
C569 C568 1.366 . S
C569 C570 1.414 . S
C569 C572 1.499 . S
C570 H550 0.950 . S
C570 C569 1.414 . S
C570 C571 1.374 . S
C571 H551 0.950 . S
C571 C567 1.385 . S
C571 C570 1.374 . S
C572 C569 1.499 . S
C572 C573 1.373 . S
C572 C574 1.389 . S
C573 H552 0.950 . S
C573 C572 1.373 . S
C573 C589 1.377 . S
C574 C572 1.389 . S
C574 C575 1.524 . S
C574 C588 1.377 . S
C575 C574 1.524 . S
C575 C576 1.397 . S
C575 C580 1.363 . S
C576 H553 0.950 . S
C576 C575 1.397 . S
C576 C577 1.334 . S
C577 H554 0.950 . S
C577 C576 1.334 . S
C577 C578 1.287 . S
C578 C577 1.287 . S
C578 C579 1.524 . S
C578 H597 0.913 . S
C579 H555 0.950 . S
C579 C578 1.524 . S
C579 C580 1.415 . S
C580 H556 0.950 . S
C580 C575 1.363 . S
C580 C579 1.415 . S
C581 H557 0.951 . S
C581 C582 1.366 . S
C581 C583 1.388 . S
C582 C581 1.366 . S
C582 C586 1.385 . S
C583 H558 0.951 . S
C583 C581 1.388 . S
C583 C584 1.366 . S
C584 C583 1.366 . S
C584 C585 1.414 . S
C584 C587 1.499 . S
C585 H559 0.950 . S
C585 C584 1.414 . S
C585 C586 1.374 . S
C586 H560 0.950 . S
C586 C582 1.385 . S
C586 C585 1.374 . S
C587 C584 1.499 . S
C587 C588 1.373 . S
C587 C589 1.389 . S
C588 H561 0.950 . S
C588 C574 1.377 . S
C588 C587 1.373 . S
C589 C573 1.377 . S
C589 C587 1.389 . S
C589 C590 1.524 . S
C590 C589 1.524 . S
C590 C591 1.397 . S
C590 C595 1.363 . S
C591 H562 0.950 . S
C591 C590 1.397 . S
C591 C592 1.334 . S
C592 H563 0.950 . S
C592 C591 1.334 . S
C592 C593 1.287 . S
C593 C592 1.287 . S
C593 C594 1.524 . S
C593 H596 0.999 . S
C594 H564 0.950 . S
C594 C593 1.524 . S
C594 C595 1.415 . S
C595 H565 0.950 . S
C595 C590 1.363 . S
C595 C594 1.415 . S
H596 C593 0.999 . S
H597 C578 0.913 . S
H598 C616 0.951 . S
H599 C618 0.951 . S
H600 C620 0.950 . S
H601 C621 0.950 . S
H602 C623 0.950 . S
H603 C626 0.950 . S
H604 C627 0.950 . S
H605 C629 0.950 . S
H606 C630 0.950 . S
H607 C631 0.951 . S
H608 C633 0.951 . S
H609 C635 0.950 . S
H610 C636 0.950 . S
H611 C638 0.950 . S
H612 C641 0.950 . S
H613 C642 0.950 . S
H614 C644 0.950 . S
H615 C645 0.950 . S
C616 H598 0.951 . S
C616 C617 1.363 1_655 S
C616 C618 1.388 . S
C617 C616 1.363 1_455 S
C617 C621 1.387 . S
C618 H599 0.951 . S
C618 C616 1.388 . S
C618 C619 1.380 . S
C619 C618 1.380 . S
C619 C620 1.399 1_655 S
C619 C622 1.498 . S
C620 H600 0.950 . S
C620 C619 1.399 1_455 S
C620 C621 1.374 . S
C621 H601 0.950 . S
C621 C617 1.387 . S
C621 C620 1.374 . S
C622 C619 1.498 . S
C622 C623 1.379 1_655 S
C622 C624 1.384 . S
C623 H602 0.950 . S
C623 C622 1.379 1_455 S
C623 C639 1.377 . S
C624 C622 1.384 . S
C624 C625 1.524 . S
C624 C638 1.377 . S
C625 C624 1.524 . S
C625 C626 1.397 . S
C625 C630 1.363 . S
C626 H603 0.950 . S
C626 C625 1.397 . S
C626 C627 1.334 . S
C627 H604 0.950 . S
C627 C626 1.334 . S
C627 C628 1.287 . S
C628 C627 1.287 . S
C628 C629 1.524 . S
C628 H647 0.913 . S
C629 H605 0.950 . S
C629 C628 1.524 . S
C629 C630 1.415 . S
C630 H606 0.950 . S
C630 C625 1.363 . S
C630 C629 1.415 . S
C631 H607 0.951 . S
C631 C632 1.379 . S
C631 C633 1.388 . S
C632 C631 1.379 . S
C632 C636 1.372 1_455 S
C633 H608 0.951 . S
C633 C631 1.388 . S
C633 C634 1.405 . S
C634 C633 1.405 . S
C634 C635 1.374 1_455 S
C634 C637 1.498 . S
C635 H609 0.950 . S
C635 C634 1.374 1_655 S
C635 C636 1.374 . S
C636 H610 0.950 . S
C636 C632 1.372 1_655 S
C636 C635 1.374 . S
C637 C634 1.498 . S
C637 C638 1.345 1_455 S
C637 C639 1.417 . S
C638 H611 0.950 . S
C638 C624 1.377 . S
C638 C637 1.345 1_655 S
C639 C623 1.377 . S
C639 C637 1.417 . S
C639 C640 1.524 . S
C640 C639 1.524 . S
C640 C641 1.397 . S
C640 C645 1.363 . S
C641 H612 0.950 . S
C641 C640 1.397 . S
C641 C642 1.334 . S
C642 H613 0.950 . S
C642 C641 1.334 . S
C642 C643 1.287 . S
C643 C642 1.287 . S
C643 C644 1.524 . S
C643 H646 0.999 . S
C644 H614 0.950 . S
C644 C643 1.524 . S
C644 C645 1.415 . S
C645 H615 0.950 . S
C645 C640 1.363 . S
C645 C644 1.415 . S
H646 C643 0.999 . S
H647 C628 0.913 . S
H648 C666 0.951 1_545 S
H649 C668 0.951 1_545 S
H650 C670 0.950 . S
H651 C671 0.950 . S
H652 C673 0.947 1_545 S
H653 C676 0.950 1_554 S
H654 C677 0.950 1_554 S
H655 C679 0.950 . S
H656 C680 0.950 . S
H657 C681 0.951 . S
H658 C683 0.951 . S
H659 C685 0.950 . S
H660 C686 0.950 . S
H661 C688 0.950 . S
H662 C691 0.950 . S
H663 C692 0.950 . S
H664 C694 0.950 . S
H665 C695 0.950 1_565 S
C666 H648 0.951 1_565 S
C666 C667 1.366 . S
C666 C668 1.388 . S
C667 C666 1.366 . S
C667 C671 1.385 . S
C668 H649 0.951 1_565 S
C668 C666 1.388 . S
C668 C669 1.366 . S
C669 C668 1.366 . S
C669 C670 1.414 . S
C669 C672 1.499 . S
C670 H650 0.950 . S
C670 C669 1.414 . S
C670 C671 1.374 . S
C671 H651 0.950 . S
C671 C667 1.385 . S
C671 C670 1.374 . S
C672 C669 1.499 . S
C672 C673 1.379 . S
C672 C674 1.389 1_554 S
C673 H652 0.947 1_565 S
C673 C672 1.379 . S
C673 C689 1.374 1_564 S
C674 C672 1.389 1_556 S
C674 C675 1.524 . S
C674 C688 1.377 . S
C675 C674 1.524 . S
C675 C676 1.397 . S
C675 C680 1.363 . S
C676 H653 0.950 1_556 S
C676 C675 1.397 . S
C676 C677 1.334 . S
C677 H654 0.950 1_556 S
C677 C676 1.334 . S
C677 C678 1.287 . S
C678 C677 1.287 . S
C678 C679 1.524 . S
C678 H697 0.913 . S
C679 H655 0.950 . S
C679 C678 1.524 . S
C679 C680 1.415 . S
C680 H656 0.950 . S
C680 C675 1.363 . S
C680 C679 1.415 . S
C681 H657 0.951 . S
C681 C682 1.366 1_565 S
C681 C683 1.388 . S
C682 C681 1.366 1_545 S
C682 C686 1.385 . S
C683 H658 0.951 . S
C683 C681 1.388 . S
C683 C684 1.375 . S
C684 C683 1.375 . S
C684 C685 1.403 1_565 S
C684 C687 1.500 . S
C685 H659 0.950 . S
C685 C684 1.403 1_545 S
C685 C686 1.374 . S
C686 H660 0.950 . S
C686 C682 1.385 . S
C686 C685 1.374 . S
C687 C684 1.500 . S
C687 C688 1.373 . S
C687 C689 1.389 1_565 S
C688 H661 0.950 . S
C688 C674 1.377 . S
C688 C687 1.373 . S
C689 C673 1.374 1_546 S
C689 C687 1.389 1_545 S
C689 C690 1.524 . S
C690 C689 1.524 . S
C690 C691 1.397 . S
C690 C695 1.363 1_556 S
C691 H662 0.950 . S
C691 C690 1.397 . S
C691 C692 1.334 . S
C692 H663 0.950 . S
C692 C691 1.334 . S
C692 C693 1.287 1_556 S
C693 C692 1.287 1_554 S
C693 C694 1.524 . S
C693 H696 0.999 . S
C694 H664 0.950 . S
C694 C693 1.524 . S
C694 C695 1.415 . S
C695 H665 0.950 1_545 S
C695 C690 1.363 1_554 S
C695 C694 1.415 . S
H696 C693 0.999 . S
H697 C678 0.913 . S
H698 C716 0.951 . S
H699 C718 0.951 . S
H700 C720 0.950 . S
H701 C721 0.950 . S
H702 C723 0.950 . S
H703 C726 0.950 . S
H704 C727 0.950 . S
H705 C729 0.950 . S
H706 C730 0.950 . S
H707 C731 0.951 . S
H708 C733 0.951 . S
H709 C735 0.950 . S
H710 C736 0.950 . S
H711 C738 0.950 . S
H712 C741 0.950 . S
H713 C742 0.950 . S
H714 C744 0.950 . S
H715 C745 0.950 . S
C716 H698 0.951 . S
C716 C717 1.366 . S
C716 C718 1.388 . S
C717 C716 1.366 . S
C717 C721 1.385 . S
C718 H699 0.951 . S
C718 C716 1.388 . S
C718 C719 1.366 . S
C719 C718 1.366 . S
C719 C720 1.414 . S
C719 C722 1.499 . S
C720 H700 0.950 . S
C720 C719 1.414 . S
C720 C721 1.374 . S
C721 H701 0.950 . S
C721 C717 1.385 . S
C721 C720 1.374 . S
C722 C719 1.499 . S
C722 C723 1.373 . S
C722 C724 1.389 1_554 S
C723 H702 0.950 . S
C723 C722 1.373 . S
C723 C739 1.377 1_554 S
C724 C722 1.389 1_556 S
C724 C725 1.524 . S
C724 C738 1.377 . S
C725 C724 1.524 . S
C725 C726 1.397 . S
C725 C730 1.363 . S
C726 H703 0.950 . S
C726 C725 1.397 . S
C726 C727 1.334 . S
C727 H704 0.950 . S
C727 C726 1.334 . S
C727 C728 1.287 . S
C728 C727 1.287 . S
C728 C729 1.524 . S
C728 H747 0.913 . S
C729 H705 0.950 . S
C729 C728 1.524 . S
C729 C730 1.415 . S
C730 H706 0.950 . S
C730 C725 1.363 . S
C730 C729 1.415 . S
C731 H707 0.951 . S
C731 C732 1.366 . S
C731 C733 1.388 . S
C732 C731 1.366 . S
C732 C736 1.385 . S
C733 H708 0.951 . S
C733 C731 1.388 . S
C733 C734 1.366 . S
C734 C733 1.366 . S
C734 C735 1.414 . S
C734 C737 1.499 . S
C735 H709 0.950 . S
C735 C734 1.414 . S
C735 C736 1.374 . S
C736 H710 0.950 . S
C736 C732 1.385 . S
C736 C735 1.374 . S
C737 C734 1.499 . S
C737 C738 1.373 . S
C737 C739 1.389 . S
C738 H711 0.950 . S
C738 C724 1.377 . S
C738 C737 1.373 . S
C739 C723 1.377 1_556 S
C739 C737 1.389 . S
C739 C740 1.524 . S
C740 C739 1.524 . S
C740 C741 1.397 . S
C740 C745 1.363 . S
C741 H712 0.950 . S
C741 C740 1.397 . S
C741 C742 1.334 . S
C742 H713 0.950 . S
C742 C741 1.334 . S
C742 C743 1.287 . S
C743 C742 1.287 . S
C743 C744 1.524 . S
C743 H746 0.999 . S
C744 H714 0.950 . S
C744 C743 1.524 . S
C744 C745 1.415 . S
C745 H715 0.950 . S
C745 C740 1.363 . S
C745 C744 1.415 . S
H746 C743 0.999 . S
H747 C728 0.913 . S
H748 C766 0.951 . S
H749 C768 0.951 . S
H750 C770 0.950 . S
H751 C771 0.950 . S
H752 C773 0.950 . S
H753 C776 0.950 . S
H754 C777 0.950 . S
H755 C779 0.950 . S
H756 C780 0.950 . S
H757 C781 0.951 . S
H758 C783 0.951 . S
H759 C785 0.950 . S
H760 C786 0.950 . S
H761 C788 0.950 . S
H762 C791 0.950 . S
H763 C792 0.950 . S
H764 C794 0.950 . S
H765 C795 0.950 . S
C766 H748 0.951 . S
C766 C767 1.366 . S
C766 C768 1.388 . S
C767 C766 1.366 . S
C767 C771 1.385 . S
C768 H749 0.951 . S
C768 C766 1.388 . S
C768 C769 1.366 . S
C769 C768 1.366 . S
C769 C770 1.414 . S
C769 C772 1.499 . S
C770 H750 0.950 . S
C770 C769 1.414 . S
C770 C771 1.374 . S
C771 H751 0.950 . S
C771 C767 1.385 . S
C771 C770 1.374 . S
C772 C769 1.499 . S
C772 C773 1.373 . S
C772 C774 1.389 1_554 S
C773 H752 0.950 . S
C773 C772 1.373 . S
C773 C789 1.377 1_554 S
C774 C772 1.389 1_556 S
C774 C775 1.524 . S
C774 C788 1.377 . S
C775 C774 1.524 . S
C775 C776 1.397 . S
C775 C780 1.363 . S
C776 H753 0.950 . S
C776 C775 1.397 . S
C776 C777 1.334 . S
C777 H754 0.950 . S
C777 C776 1.334 . S
C777 C778 1.287 . S
C778 C777 1.287 . S
C778 C779 1.524 . S
C778 H797 0.913 . S
C779 H755 0.950 . S
C779 C778 1.524 . S
C779 C780 1.415 . S
C780 H756 0.950 . S
C780 C775 1.363 . S
C780 C779 1.415 . S
C781 H757 0.951 . S
C781 C782 1.366 . S
C781 C783 1.388 . S
C782 C781 1.366 . S
C782 C786 1.385 . S
C783 H758 0.951 . S
C783 C781 1.388 . S
C783 C784 1.366 . S
C784 C783 1.366 . S
C784 C785 1.414 . S
C784 C787 1.499 . S
C785 H759 0.950 . S
C785 C784 1.414 . S
C785 C786 1.374 . S
C786 H760 0.950 . S
C786 C782 1.385 . S
C786 C785 1.374 . S
C787 C784 1.499 . S
C787 C788 1.373 . S
C787 C789 1.389 . S
C788 H761 0.950 . S
C788 C774 1.377 . S
C788 C787 1.373 . S
C789 C773 1.377 1_556 S
C789 C787 1.389 . S
C789 C790 1.524 . S
C790 C789 1.524 . S
C790 C791 1.397 . S
C790 C795 1.363 . S
C791 H762 0.950 . S
C791 C790 1.397 . S
C791 C792 1.334 . S
C792 H763 0.950 . S
C792 C791 1.334 . S
C792 C793 1.287 . S
C793 C792 1.287 . S
C793 C794 1.524 . S
C793 H796 0.999 . S
C794 H764 0.950 . S
C794 C793 1.524 . S
C794 C795 1.415 . S
C795 H765 0.950 . S
C795 C790 1.363 . S
C795 C794 1.415 . S
H796 C793 0.999 . S
H797 C778 0.913 . S
H798 C816 0.951 . S
H799 C818 0.951 . S
H800 C820 0.950 . S
H801 C821 0.950 . S
H802 C823 0.950 . S
H803 C826 0.950 . S
H804 C827 0.950 . S
H805 C829 0.950 . S
H806 C830 0.950 . S
H807 C831 0.951 . S
H808 C833 0.951 . S
H809 C835 0.950 . S
H810 C836 0.950 . S
H811 C838 0.950 . S
H812 C841 0.950 . S
H813 C842 0.950 . S
H814 C844 0.950 . S
H815 C845 0.950 . S
C816 H798 0.951 . S
C816 C817 1.365 1_455 S
C816 C818 1.388 . S
C817 C816 1.365 1_655 S
C817 C821 1.386 . S
C818 H799 0.951 . S
C818 C816 1.388 . S
C818 C819 1.377 . S
C819 C818 1.377 . S
C819 C820 1.402 1_455 S
C819 C822 1.499 . S
C820 H800 0.950 . S
C820 C819 1.402 1_655 S
C820 C821 1.374 . S
C821 H801 0.950 . S
C821 C817 1.386 . S
C821 C820 1.374 . S
C822 C819 1.499 . S
C822 C823 1.344 1_454 S
C822 C824 1.417 . S
C823 H802 0.950 . S
C823 C822 1.344 1_656 S
C823 C839 1.377 . S
C824 C822 1.417 . S
C824 C825 1.524 . S
C824 C838 1.377 1_554 S
C825 C824 1.524 . S
C825 C826 1.397 . S
C825 C830 1.363 . S
C826 H803 0.950 . S
C826 C825 1.397 . S
C826 C827 1.334 . S
C827 H804 0.950 . S
C827 C826 1.334 . S
C827 C828 1.287 . S
C828 C827 1.287 . S
C828 C829 1.524 . S
C828 H847 0.913 . S
C829 H805 0.950 . S
C829 C828 1.524 . S
C829 C830 1.415 . S
C830 H806 0.950 . S
C830 C825 1.363 . S
C830 C829 1.415 . S
C831 H807 0.951 . S
C831 C832 1.371 . S
C831 C833 1.388 . S
C832 C831 1.371 . S
C832 C836 1.380 1_655 S
C833 H808 0.951 . S
C833 C831 1.388 . S
C833 C834 1.366 . S
C834 C833 1.366 . S
C834 C835 1.414 1_655 S
C834 C837 1.499 . S
C835 H809 0.950 . S
C835 C834 1.414 1_455 S
C835 C836 1.374 . S
C836 H810 0.950 . S
C836 C832 1.380 1_455 S
C836 C835 1.374 . S
C837 C834 1.499 . S
C837 C838 1.373 1_655 S
C837 C839 1.389 . S
C838 H811 0.950 . S
C838 C824 1.377 1_556 S
C838 C837 1.373 1_455 S
C839 C823 1.377 . S
C839 C837 1.389 . S
C839 C840 1.524 . S
C840 C839 1.524 . S
C840 C841 1.397 . S
C840 C845 1.363 . S
C841 H812 0.950 . S
C841 C840 1.397 . S
C841 C842 1.334 . S
C842 H813 0.950 . S
C842 C841 1.334 . S
C842 C843 1.287 . S
C843 C842 1.287 . S
C843 C844 1.524 . S
C843 H846 0.999 . S
C844 H814 0.950 . S
C844 C843 1.524 . S
C844 C845 1.415 . S
C845 H815 0.950 . S
C845 C840 1.363 . S
C845 C844 1.415 . S
H846 C843 0.999 . S
H847 C828 0.913 . S
H848 C866 0.951 . S
H849 C868 0.951 . S
H850 C870 0.956 . S
H851 C871 0.950 . S
H852 C873 0.950 . S
H853 C876 0.950 . S
H854 C877 0.950 . S
H855 C879 0.950 . S
H856 C880 0.936 1_655 S
H857 C881 0.951 . S
H858 C883 0.951 . S
H859 C885 0.950 . S
H860 C886 0.950 . S
H861 C888 0.950 . S
H862 C891 0.950 . S
H863 C892 0.950 . S
H864 C894 0.950 . S
H865 C895 0.950 . S
C866 H848 0.951 . S
C866 C867 1.366 1_655 S
C866 C868 1.388 . S
C867 C866 1.366 1_455 S
C867 C871 1.385 . S
C868 H849 0.951 . S
C868 C866 1.388 . S
C868 C869 1.366 . S
C869 C868 1.366 . S
C869 C870 1.403 1_655 S
C869 C872 1.499 . S
C870 H850 0.956 . S
C870 C869 1.403 1_455 S
C870 C871 1.382 . S
C871 H851 0.950 . S
C871 C867 1.385 . S
C871 C870 1.382 . S
C872 C869 1.499 . S
C872 C873 1.373 . S
C872 C874 1.389 . S
C873 H852 0.950 . S
C873 C872 1.373 . S
C873 C889 1.377 . S
C874 C872 1.389 . S
C874 C875 1.524 1_655 S
C874 C888 1.377 . S
C875 C874 1.524 1_455 S
C875 C876 1.397 . S
C875 C880 1.363 . S
C876 H853 0.950 . S
C876 C875 1.397 . S
C876 C877 1.334 . S
C877 H854 0.950 . S
C877 C876 1.334 . S
C877 C878 1.287 . S
C878 C877 1.287 . S
C878 C879 1.524 . S
C878 H897 0.913 . S
C879 H855 0.950 . S
C879 C878 1.524 . S
C879 C880 1.415 . S
C880 H856 0.936 1_455 S
C880 C875 1.363 . S
C880 C879 1.415 . S
C881 H857 0.951 . S
C881 C882 1.366 . S
C881 C883 1.388 . S
C882 C881 1.366 . S
C882 C886 1.385 . S
C883 H858 0.951 . S
C883 C881 1.388 . S
C883 C884 1.366 . S
C884 C883 1.366 . S
C884 C885 1.414 . S
C884 C887 1.499 . S
C885 H859 0.950 . S
C885 C884 1.414 . S
C885 C886 1.374 . S
C886 H860 0.950 . S
C886 C882 1.385 . S
C886 C885 1.374 . S
C887 C884 1.499 . S
C887 C888 1.373 . S
C887 C889 1.389 . S
C888 H861 0.950 . S
C888 C874 1.377 . S
C888 C887 1.373 . S
C889 C873 1.377 . S
C889 C887 1.389 . S
C889 C890 1.524 . S
C890 C889 1.524 . S
C890 C891 1.397 . S
C890 C895 1.363 . S
C891 H862 0.950 . S
C891 C890 1.397 . S
C891 C892 1.334 . S
C892 H863 0.950 . S
C892 C891 1.334 . S
C892 C893 1.287 . S
C893 C892 1.287 . S
C893 C894 1.524 . S
C893 H896 0.999 . S
C894 H864 0.950 . S
C894 C893 1.524 . S
C894 C895 1.415 . S
C895 H865 0.950 . S
C895 C890 1.363 . S
C895 C894 1.415 . S
H896 C893 0.999 . S
H897 C878 0.913 . S
H898 C916 0.951 . S
H899 C918 0.951 . S
H900 C920 0.950 . S
H901 C921 0.950 . S
H902 C923 0.950 . S
H903 C926 0.950 . S
H904 C927 0.950 . S
H905 C929 0.950 . S
H906 C930 0.950 . S
H907 C931 0.951 . S
H908 C933 0.954 1_545 S
H909 C935 0.950 . S
H910 C936 0.950 . S
H911 C938 0.950 . S
H912 C941 0.950 . S
H913 C942 0.950 . S
H914 C944 0.950 . S
H915 C945 0.950 . S
C916 H898 0.951 . S
C916 C917 1.366 . S
C916 C918 1.388 . S
C917 C916 1.366 . S
C917 C921 1.385 . S
C918 H899 0.951 . S
C918 C916 1.388 . S
C918 C919 1.366 . S
C919 C918 1.366 . S
C919 C920 1.414 . S
C919 C922 1.499 . S
C920 H900 0.950 . S
C920 C919 1.414 . S
C920 C921 1.374 . S
C921 H901 0.950 . S
C921 C917 1.385 . S
C921 C920 1.374 . S
C922 C919 1.499 . S
C922 C923 1.373 . S
C922 C924 1.389 1_545 S
C923 H902 0.950 . S
C923 C922 1.373 . S
C923 C939 1.377 . S
C924 C922 1.389 1_565 S
C924 C925 1.524 . S
C924 C938 1.377 . S
C925 C924 1.524 . S
C925 C926 1.397 . S
C925 C930 1.363 . S
C926 H903 0.950 . S
C926 C925 1.397 . S
C926 C927 1.334 . S
C927 H904 0.950 . S
C927 C926 1.334 . S
C927 C928 1.287 . S
C928 C927 1.287 . S
C928 C929 1.524 . S
C928 H947 0.913 . S
C929 H905 0.950 . S
C929 C928 1.524 . S
C929 C930 1.415 . S
C930 H906 0.950 . S
C930 C925 1.363 . S
C930 C929 1.415 . S
C931 H907 0.951 . S
C931 C932 1.366 . S
C931 C933 1.386 . S
C932 C931 1.366 . S
C932 C936 1.385 . S
C933 H908 0.954 1_565 S
C933 C931 1.386 . S
C933 C934 1.365 . S
C934 C933 1.365 . S
C934 C935 1.414 . S
C934 C937 1.499 1_565 S
C935 H909 0.950 . S
C935 C934 1.414 . S
C935 C936 1.374 . S
C936 H910 0.950 . S
C936 C932 1.385 . S
C936 C935 1.374 . S
C937 C934 1.499 1_545 S
C937 C938 1.373 1_545 S
C937 C939 1.389 . S
C938 H911 0.950 . S
C938 C924 1.377 . S
C938 C937 1.373 1_565 S
C939 C923 1.377 . S
C939 C937 1.389 . S
C939 C940 1.524 . S
C940 C939 1.524 . S
C940 C941 1.397 . S
C940 C945 1.363 . S
C941 H912 0.950 . S
C941 C940 1.397 . S
C941 C942 1.334 . S
C942 H913 0.950 . S
C942 C941 1.334 . S
C942 C943 1.287 . S
C943 C942 1.287 . S
C943 C944 1.524 . S
C943 H946 0.999 . S
C944 H914 0.950 . S
C944 C943 1.524 . S
C944 C945 1.415 . S
C945 H915 0.950 . S
C945 C940 1.363 . S
C945 C944 1.415 . S
H946 C943 0.999 . S
H947 C928 0.913 . S
H948 C966 0.951 . S
H949 C968 0.951 . S
H950 C970 0.950 . S
H951 C971 0.950 . S
H952 C973 0.950 . S
H953 C976 0.950 . S
H954 C977 0.950 . S
H955 C979 0.950 . S
H956 C980 0.950 . S
H957 C981 0.951 . S
H958 C983 0.951 . S
H959 C985 0.950 . S
H960 C986 0.950 . S
H961 C988 0.950 . S
H962 C991 0.950 . S
H963 C992 0.950 . S
H964 C994 0.950 . S
H965 C995 0.950 . S
C966 H948 0.951 . S
C966 C967 1.366 . S
C966 C968 1.388 . S
C967 C966 1.366 . S
C967 C971 1.385 . S
C968 H949 0.951 . S
C968 C966 1.388 . S
C968 C969 1.366 . S
C969 C968 1.366 . S
C969 C970 1.414 . S
C969 C972 1.499 . S
C970 H950 0.950 . S
C970 C969 1.414 . S
C970 C971 1.374 . S
C971 H951 0.950 . S
C971 C967 1.385 . S
C971 C970 1.374 . S
C972 C969 1.499 . S
C972 C973 1.373 . S
C972 C974 1.389 . S
C973 H952 0.950 . S
C973 C972 1.373 . S
C973 C989 1.377 . S
C974 C972 1.389 . S
C974 C975 1.524 . S
C974 C988 1.377 . S
C975 C974 1.524 . S
C975 C976 1.397 . S
C975 C980 1.363 . S
C976 H953 0.950 . S
C976 C975 1.397 . S
C976 C977 1.334 . S
C977 H954 0.950 . S
C977 C976 1.334 . S
C977 C978 1.287 . S
C978 C977 1.287 . S
C978 C979 1.524 . S
C978 H997 0.913 . S
C979 H955 0.950 . S
C979 C978 1.524 . S
C979 C980 1.415 . S
C980 H956 0.950 . S
C980 C975 1.363 . S
C980 C979 1.415 . S
C981 H957 0.951 . S
C981 C982 1.366 . S
C981 C983 1.388 . S
C982 C981 1.366 . S
C982 C986 1.385 . S
C983 H958 0.951 . S
C983 C981 1.388 . S
C983 C984 1.366 . S
C984 C983 1.366 . S
C984 C985 1.414 . S
C984 C987 1.499 . S
C985 H959 0.950 . S
C985 C984 1.414 . S
C985 C986 1.374 . S
C986 H960 0.950 . S
C986 C982 1.385 . S
C986 C985 1.374 . S
C987 C984 1.499 . S
C987 C988 1.373 . S
C987 C989 1.389 . S
C988 H961 0.950 . S
C988 C974 1.377 . S
C988 C987 1.373 . S
C989 C973 1.377 . S
C989 C987 1.389 . S
C989 C990 1.524 . S
C990 C989 1.524 . S
C990 C991 1.397 . S
C990 C995 1.363 . S
C991 H962 0.950 . S
C991 C990 1.397 . S
C991 C992 1.334 . S
C992 H963 0.950 . S
C992 C991 1.334 . S
C992 C993 1.287 . S
C993 C992 1.287 . S
C993 C994 1.524 . S
C993 H996 0.999 . S
C994 H964 0.950 . S
C994 C993 1.524 . S
C994 C995 1.415 . S
C995 H965 0.950 . S
C995 C990 1.363 . S
C995 C994 1.415 . S
H996 C993 0.999 . S
H997 C978 0.913 . S
H998 C1016 0.951 . S
H999 C1018 0.951 . S
H1000 C1020 0.950 . S
H1001 C1021 0.950 . S
H1002 C1023 0.950 . S
H1003 C1026 0.950 . S
H1004 C1027 0.950 . S
H1005 C1029 0.950 . S
H1006 C1030 0.950 . S
H1007 C1031 0.951 . S
H1008 C1033 0.951 . S
H1009 C1035 0.950 . S
H1010 C1036 0.950 . S
H1011 C1038 0.950 . S
H1012 C1041 0.950 . S
H1013 C1042 0.950 . S
H1014 C1044 0.950 . S
H1015 C1045 0.950 . S
C1016 H998 0.951 . S
C1016 C1017 1.366 . S
C1016 C1018 1.388 . S
C1017 C1016 1.366 . S
C1017 C1021 1.385 . S
C1018 H999 0.951 . S
C1018 C1016 1.388 . S
C1018 C1019 1.366 . S
C1019 C1018 1.366 . S
C1019 C1020 1.414 . S
C1019 C1022 1.499 . S
C1020 H1000 0.950 . S
C1020 C1019 1.414 . S
C1020 C1021 1.374 . S
C1021 H1001 0.950 . S
C1021 C1017 1.385 . S
C1021 C1020 1.374 . S
C1022 C1019 1.499 . S
C1022 C1023 1.373 . S
C1022 C1024 1.389 . S
C1023 H1002 0.950 . S
C1023 C1022 1.373 . S
C1023 C1039 1.377 . S
C1024 C1022 1.389 . S
C1024 C1025 1.524 . S
C1024 C1038 1.377 . S
C1025 C1024 1.524 . S
C1025 C1026 1.397 . S
C1025 C1030 1.363 . S
C1026 H1003 0.950 . S
C1026 C1025 1.397 . S
C1026 C1027 1.334 . S
C1027 H1004 0.950 . S
C1027 C1026 1.334 . S
C1027 C1028 1.287 . S
C1028 C1027 1.287 . S
C1028 C1029 1.524 . S
C1028 H1047 0.913 . S
C1029 H1005 0.950 . S
C1029 C1028 1.524 . S
C1029 C1030 1.415 . S
C1030 H1006 0.950 . S
C1030 C1025 1.363 . S
C1030 C1029 1.415 . S
C1031 H1007 0.951 . S
C1031 C1032 1.366 . S
C1031 C1033 1.388 . S
C1032 C1031 1.366 . S
C1032 C1036 1.385 . S
C1033 H1008 0.951 . S
C1033 C1031 1.388 . S
C1033 C1034 1.366 . S
C1034 C1033 1.366 . S
C1034 C1035 1.414 . S
C1034 C1037 1.499 . S
C1035 H1009 0.950 . S
C1035 C1034 1.414 . S
C1035 C1036 1.374 . S
C1036 H1010 0.950 . S
C1036 C1032 1.385 . S
C1036 C1035 1.374 . S
C1037 C1034 1.499 . S
C1037 C1038 1.373 . S
C1037 C1039 1.389 . S
C1038 H1011 0.950 . S
C1038 C1024 1.377 . S
C1038 C1037 1.373 . S
C1039 C1023 1.377 . S
C1039 C1037 1.389 . S
C1039 C1040 1.524 . S
C1040 C1039 1.524 . S
C1040 C1041 1.397 . S
C1040 C1045 1.363 . S
C1041 H1012 0.950 . S
C1041 C1040 1.397 . S
C1041 C1042 1.334 . S
C1042 H1013 0.950 . S
C1042 C1041 1.334 . S
C1042 C1043 1.287 . S
C1043 C1042 1.287 . S
C1043 C1044 1.524 . S
C1043 H1046 0.999 . S
C1044 H1014 0.950 . S
C1044 C1043 1.524 . S
C1044 C1045 1.415 . S
C1045 H1015 0.950 . S
C1045 C1040 1.363 . S
C1045 C1044 1.415 . S
H1046 C1043 0.999 . S
H1047 C1028 0.913 . S
H1048 C1066 0.951 . S
H1049 C1068 0.951 1_556 S
H1050 C1070 0.950 . S
H1051 C1071 0.950 . S
H1052 C1073 0.950 . S
H1053 C1076 0.950 . S
H1054 C1077 0.950 . S
H1055 C1079 0.950 . S
H1056 C1080 0.950 . S
H1057 C1081 0.951 . S
H1058 C1083 0.951 . S
H1059 C1085 0.950 1_655 S
H1060 C1086 0.950 . S
H1061 C1088 0.950 . S
H1062 C1091 0.950 1_655 S
H1063 C1092 0.950 1_655 S
H1064 C1094 0.950 . S
H1065 C1095 0.950 . S
C1066 H1048 0.951 . S
C1066 C1067 1.366 . S
C1066 C1068 1.388 . S
C1067 C1066 1.366 . S
C1067 C1071 1.385 1_655 S
C1068 H1049 0.951 1_554 S
C1068 C1066 1.388 . S
C1068 C1069 1.366 1_655 S
C1069 C1068 1.366 1_455 S
C1069 C1070 1.414 . S
C1069 C1072 1.507 . S
C1070 H1050 0.950 . S
C1070 C1069 1.414 . S
C1070 C1071 1.374 . S
C1071 H1051 0.950 . S
C1071 C1067 1.385 1_455 S
C1071 C1070 1.374 . S
C1072 C1069 1.507 . S
C1072 C1073 1.383 . S
C1072 C1074 1.372 1_554 S
C1073 H1052 0.950 . S
C1073 C1072 1.383 . S
C1073 C1089 1.377 . S
C1074 C1072 1.372 1_556 S
C1074 C1075 1.524 . S
C1074 C1088 1.377 . S
C1075 C1074 1.524 . S
C1075 C1076 1.397 . S
C1075 C1080 1.363 1_455 S
C1076 H1053 0.950 . S
C1076 C1075 1.397 . S
C1076 C1077 1.334 . S
C1077 H1054 0.950 . S
C1077 C1076 1.334 . S
C1077 C1078 1.287 . S
C1078 C1077 1.287 . S
C1078 C1079 1.524 1_455 S
C1078 H1097 0.913 . S
C1079 H1055 0.950 . S
C1079 C1078 1.524 1_655 S
C1079 C1080 1.415 . S
C1080 H1056 0.950 . S
C1080 C1075 1.363 1_655 S
C1080 C1079 1.415 . S
C1081 H1057 0.951 . S
C1081 C1082 1.366 . S
C1081 C1083 1.388 . S
C1082 C1081 1.366 . S
C1082 C1086 1.385 . S
C1083 H1058 0.951 . S
C1083 C1081 1.388 . S
C1083 C1084 1.366 . S
C1084 C1083 1.366 . S
C1084 C1085 1.414 . S
C1084 C1087 1.499 . S
C1085 H1059 0.950 1_455 S
C1085 C1084 1.414 . S
C1085 C1086 1.374 . S
C1086 H1060 0.950 . S
C1086 C1082 1.385 . S
C1086 C1085 1.374 . S
C1087 C1084 1.499 . S
C1087 C1088 1.373 . S
C1087 C1089 1.389 1_556 S
C1088 H1061 0.950 . S
C1088 C1074 1.377 . S
C1088 C1087 1.373 . S
C1089 C1073 1.377 . S
C1089 C1087 1.389 1_554 S
C1089 C1090 1.524 . S
C1090 C1089 1.524 . S
C1090 C1091 1.397 . S
C1090 C1095 1.363 . S
C1091 H1062 0.950 1_455 S
C1091 C1090 1.397 . S
C1091 C1092 1.334 . S
C1092 H1063 0.950 1_455 S
C1092 C1091 1.334 . S
C1092 C1093 1.287 . S
C1093 C1092 1.287 . S
C1093 C1094 1.524 . S
C1093 H1096 0.999 . S
C1094 H1064 0.950 . S
C1094 C1093 1.524 . S
C1094 C1095 1.415 . S
C1095 H1065 0.950 . S
C1095 C1090 1.363 . S
C1095 C1094 1.415 . S
H1096 C1093 0.999 . S
H1097 C1078 0.913 . S
H1098 C1116 0.951 . S
H1099 C1118 0.951 . S
H1100 C1120 0.950 1_556 S
H1101 C1121 0.950 . S
H1102 C1123 0.950 . S
H1103 C1126 0.950 . S
H1104 C1127 0.950 . S
H1105 C1129 0.950 . S
H1106 C1130 0.950 . S
H1107 C1131 0.951 . S
H1108 C1133 0.951 . S
H1109 C1135 0.950 . S
H1110 C1136 0.950 . S
H1111 C1138 0.976 . S
H1112 C1141 0.950 . S
H1113 C1142 0.950 . S
H1114 C1144 0.950 . S
H1115 C1145 0.950 . S
C1116 H1098 0.951 . S
C1116 C1117 1.366 . S
C1116 C1118 1.388 . S
C1117 C1116 1.366 . S
C1117 C1121 1.385 . S
C1118 H1099 0.951 . S
C1118 C1116 1.388 . S
C1118 C1119 1.366 . S
C1119 C1118 1.366 . S
C1119 C1120 1.414 . S
C1119 C1122 1.490 1_554 S
C1120 H1100 0.950 1_554 S
C1120 C1119 1.414 . S
C1120 C1121 1.374 . S
C1121 H1101 0.950 . S
C1121 C1117 1.385 . S
C1121 C1120 1.374 . S
C1122 C1119 1.490 1_556 S
C1122 C1123 1.387 1_565 S
C1122 C1124 1.384 1_556 S
C1123 H1102 0.950 . S
C1123 C1122 1.387 1_545 S
C1123 C1139 1.377 . S
C1124 C1122 1.384 1_554 S
C1124 C1125 1.524 . S
C1124 C1138 1.399 1_554 S
C1125 C1124 1.524 . S
C1125 C1126 1.397 . S
C1125 C1130 1.363 . S
C1126 H1103 0.950 . S
C1126 C1125 1.397 . S
C1126 C1127 1.334 . S
C1127 H1104 0.950 . S
C1127 C1126 1.334 . S
C1127 C1128 1.287 . S
C1128 C1127 1.287 . S
C1128 C1129 1.524 . S
C1128 H1147 0.913 . S
C1129 H1105 0.950 . S
C1129 C1128 1.524 . S
C1129 C1130 1.415 . S
C1130 H1106 0.950 . S
C1130 C1125 1.363 . S
C1130 C1129 1.415 . S
C1131 H1107 0.951 . S
C1131 C1132 1.366 . S
C1131 C1133 1.388 . S
C1132 C1131 1.366 . S
C1132 C1136 1.385 . S
C1133 H1108 0.951 . S
C1133 C1131 1.388 . S
C1133 C1134 1.366 . S
C1134 C1133 1.366 . S
C1134 C1135 1.414 . S
C1134 C1137 1.499 . S
C1135 H1109 0.950 . S
C1135 C1134 1.414 . S
C1135 C1136 1.374 . S
C1136 H1110 0.950 . S
C1136 C1132 1.385 . S
C1136 C1135 1.374 . S
C1137 C1134 1.499 . S
C1137 C1138 1.329 1_545 S
C1137 C1139 1.389 . S
C1138 H1111 0.976 . S
C1138 C1124 1.399 1_556 S
C1138 C1137 1.329 1_565 S
C1139 C1123 1.377 . S
C1139 C1137 1.389 . S
C1139 C1140 1.524 . S
C1140 C1139 1.524 . S
C1140 C1141 1.397 . S
C1140 C1145 1.363 . S
C1141 H1112 0.950 . S
C1141 C1140 1.397 . S
C1141 C1142 1.334 . S
C1142 H1113 0.950 . S
C1142 C1141 1.334 . S
C1142 C1143 1.287 . S
C1143 C1142 1.287 . S
C1143 C1144 1.524 . S
C1143 H1146 0.999 . S
C1144 H1114 0.950 . S
C1144 C1143 1.524 . S
C1144 C1145 1.415 . S
C1145 H1115 0.950 . S
C1145 C1140 1.363 . S
C1145 C1144 1.415 . S
H1146 C1143 0.999 . S
H1147 C1128 0.913 . S
H1148 C1166 0.951 . S
H1149 C1168 0.951 . S
H1150 C1170 0.950 . S
H1151 C1171 0.950 . S
H1152 C1173 0.950 . S
H1153 C1176 0.950 . S
H1154 C1177 0.950 . S
H1155 C1179 0.950 . S
H1156 C1180 0.950 . S
H1157 C1181 0.951 . S
H1158 C1183 0.951 . S
H1159 C1185 0.950 . S
H1160 C1186 0.950 . S
H1161 C1188 0.950 . S
H1162 C1191 0.950 . S
H1163 C1192 0.950 . S
H1164 C1194 0.950 . S
H1165 C1195 0.950 . S
C1166 H1148 0.951 . S
C1166 C1167 1.366 . S
C1166 C1168 1.388 . S
C1167 C1166 1.366 . S
C1167 C1171 1.385 . S
C1168 H1149 0.951 . S
C1168 C1166 1.388 . S
C1168 C1169 1.366 . S
C1169 C1168 1.366 . S
C1169 C1170 1.414 . S
C1169 C1172 1.498 . S
C1170 H1150 0.950 . S
C1170 C1169 1.414 . S
C1170 C1171 1.374 . S
C1171 H1151 0.950 . S
C1171 C1167 1.385 . S
C1171 C1170 1.374 . S
C1172 C1169 1.498 . S
C1172 C1173 1.373 . S
C1172 C1174 1.391 1_554 S
C1173 H1152 0.950 . S
C1173 C1172 1.373 . S
C1173 C1189 1.377 1_554 S
C1174 C1172 1.391 1_556 S
C1174 C1175 1.524 . S
C1174 C1188 1.377 . S
C1175 C1174 1.524 . S
C1175 C1176 1.397 . S
C1175 C1180 1.363 . S
C1176 H1153 0.950 . S
C1176 C1175 1.397 . S
C1176 C1177 1.334 . S
C1177 H1154 0.950 . S
C1177 C1176 1.334 . S
C1177 C1178 1.287 . S
C1178 C1177 1.287 . S
C1178 C1179 1.524 . S
C1178 H1197 0.913 . S
C1179 H1155 0.950 . S
C1179 C1178 1.524 . S
C1179 C1180 1.415 . S
C1180 H1156 0.950 . S
C1180 C1175 1.363 . S
C1180 C1179 1.415 . S
C1181 H1157 0.951 . S
C1181 C1182 1.366 . S
C1181 C1183 1.388 . S
C1182 C1181 1.366 . S
C1182 C1186 1.385 . S
C1183 H1158 0.951 . S
C1183 C1181 1.388 . S
C1183 C1184 1.366 . S
C1184 C1183 1.366 . S
C1184 C1185 1.414 . S
C1184 C1187 1.499 . S
C1185 H1159 0.950 . S
C1185 C1184 1.414 . S
C1185 C1186 1.374 . S
C1186 H1160 0.950 . S
C1186 C1182 1.385 . S
C1186 C1185 1.374 . S
C1187 C1184 1.499 . S
C1187 C1188 1.373 . S
C1187 C1189 1.389 . S
C1188 H1161 0.950 . S
C1188 C1174 1.377 . S
C1188 C1187 1.373 . S
C1189 C1173 1.377 1_556 S
C1189 C1187 1.389 . S
C1189 C1190 1.524 1_556 S
C1190 C1189 1.524 1_554 S
C1190 C1191 1.397 . S
C1190 C1195 1.363 . S
C1191 H1162 0.950 . S
C1191 C1190 1.397 . S
C1191 C1192 1.334 . S
C1192 H1163 0.950 . S
C1192 C1191 1.334 . S
C1192 C1193 1.287 . S
C1193 C1192 1.287 . S
C1193 C1194 1.524 . S
C1193 H1196 0.999 . S
C1194 H1164 0.950 . S
C1194 C1193 1.524 . S
C1194 C1195 1.415 . S
C1195 H1165 0.950 . S
C1195 C1190 1.363 . S
C1195 C1194 1.415 . S
H1196 C1193 0.999 . S
H1197 C1178 0.913 . S
H1198 C1216 0.951 . S
H1199 C1218 0.951 . S
H1200 C1220 0.950 . S
H1201 C1221 0.950 . S
H1202 C1223 0.950 . S
H1203 C1226 0.950 . S
H1204 C1227 0.950 . S
H1205 C1229 0.950 . S
H1206 C1230 0.950 . S
H1207 C1231 0.951 . S
H1208 C1233 0.951 . S
H1209 C1235 0.950 . S
H1210 C1236 0.950 . S
H1211 C1238 0.950 . S
H1212 C1241 0.950 . S
H1213 C1242 0.950 . S
H1214 C1244 0.950 . S
H1215 C1245 0.950 . S
C1216 H1198 0.951 . S
C1216 C1217 1.366 . S
C1216 C1218 1.388 . S
C1217 C1216 1.366 . S
C1217 C1221 1.385 . S
C1218 H1199 0.951 . S
C1218 C1216 1.388 . S
C1218 C1219 1.366 . S
C1219 C1218 1.366 . S
C1219 C1220 1.414 . S
C1219 C1222 1.499 1_554 S
C1220 H1200 0.950 . S
C1220 C1219 1.414 . S
C1220 C1221 1.374 . S
C1221 H1201 0.950 . S
C1221 C1217 1.385 . S
C1221 C1220 1.374 . S
C1222 C1219 1.499 1_556 S
C1222 C1223 1.373 1_556 S
C1222 C1224 1.389 . S
C1223 H1202 0.950 . S
C1223 C1222 1.373 1_554 S
C1223 C1239 1.377 1_554 S
C1224 C1222 1.389 . S
C1224 C1225 1.524 . S
C1224 C1238 1.377 . S
C1225 C1224 1.524 . S
C1225 C1226 1.397 . S
C1225 C1230 1.363 . S
C1226 H1203 0.950 . S
C1226 C1225 1.397 . S
C1226 C1227 1.334 . S
C1227 H1204 0.950 . S
C1227 C1226 1.334 . S
C1227 C1228 1.287 . S
C1228 C1227 1.287 . S
C1228 C1229 1.524 . S
C1228 H1247 0.913 . S
C1229 H1205 0.950 . S
C1229 C1228 1.524 . S
C1229 C1230 1.415 . S
C1230 H1206 0.950 . S
C1230 C1225 1.363 . S
C1230 C1229 1.415 . S
C1231 H1207 0.951 . S
C1231 C1232 1.366 . S
C1231 C1233 1.388 . S
C1232 C1231 1.366 . S
C1232 C1236 1.385 . S
C1233 H1208 0.951 . S
C1233 C1231 1.388 . S
C1233 C1234 1.366 . S
C1234 C1233 1.366 . S
C1234 C1235 1.414 . S
C1234 C1237 1.499 . S
C1235 H1209 0.950 . S
C1235 C1234 1.414 . S
C1235 C1236 1.374 . S
C1236 H1210 0.950 . S
C1236 C1232 1.385 . S
C1236 C1235 1.374 . S
C1237 C1234 1.499 . S
C1237 C1238 1.373 . S
C1237 C1239 1.389 . S
C1238 H1211 0.950 . S
C1238 C1224 1.377 . S
C1238 C1237 1.373 . S
C1239 C1223 1.377 1_556 S
C1239 C1237 1.389 . S
C1239 C1240 1.524 1_556 S
C1240 C1239 1.524 1_554 S
C1240 C1241 1.397 . S
C1240 C1245 1.363 . S
C1241 H1212 0.950 . S
C1241 C1240 1.397 . S
C1241 C1242 1.334 . S
C1242 H1213 0.950 . S
C1242 C1241 1.334 . S
C1242 C1243 1.287 . S
C1243 C1242 1.287 . S
C1243 C1244 1.524 . S
C1243 H1246 0.999 . S
C1244 H1214 0.950 . S
C1244 C1243 1.524 . S
C1244 C1245 1.415 . S
C1245 H1215 0.950 . S
C1245 C1240 1.363 . S
C1245 C1244 1.415 . S
H1246 C1243 0.999 . S
H1247 C1228 0.913 . S
H1248 C1266 0.951 . S
H1249 C1268 0.951 . S
H1250 C1270 0.950 . S
H1251 C1271 0.950 . S
H1252 C1273 0.950 . S
H1253 C1276 0.950 . S
H1254 C1277 0.950 . S
H1255 C1279 0.950 . S
H1256 C1280 0.950 . S
H1257 C1281 0.951 . S
H1258 C1283 0.951 . S
H1259 C1285 0.950 . S
H1260 C1286 0.950 . S
H1261 C1288 0.950 . S
H1262 C1291 0.950 . S
H1263 C1292 0.950 . S
H1264 C1294 0.950 . S
H1265 C1295 0.950 . S
C1266 H1248 0.951 . S
C1266 C1267 1.366 1_655 S
C1266 C1268 1.388 . S
C1267 C1266 1.366 1_455 S
C1267 C1271 1.385 . S
C1268 H1249 0.951 . S
C1268 C1266 1.388 . S
C1268 C1269 1.366 1_655 S
C1269 C1268 1.366 1_455 S
C1269 C1270 1.414 . S
C1269 C1272 1.499 . S
C1270 H1250 0.950 . S
C1270 C1269 1.414 . S
C1270 C1271 1.374 . S
C1271 H1251 0.950 . S
C1271 C1267 1.385 . S
C1271 C1270 1.374 . S
C1272 C1269 1.499 . S
C1272 C1273 1.373 . S
C1272 C1274 1.389 1_455 S
C1273 H1252 0.950 . S
C1273 C1272 1.373 . S
C1273 C1289 1.377 . S
C1274 C1272 1.389 1_655 S
C1274 C1275 1.524 . S
C1274 C1288 1.377 . S
C1275 C1274 1.524 . S
C1275 C1276 1.397 . S
C1275 C1280 1.363 . S
C1276 H1253 0.950 . S
C1276 C1275 1.397 . S
C1276 C1277 1.334 . S
C1277 H1254 0.950 . S
C1277 C1276 1.334 . S
C1277 C1278 1.287 . S
C1278 C1277 1.287 . S
C1278 C1279 1.524 . S
C1278 H1297 0.913 . S
C1279 H1255 0.950 . S
C1279 C1278 1.524 . S
C1279 C1280 1.415 . S
C1280 H1256 0.950 . S
C1280 C1275 1.363 . S
C1280 C1279 1.415 . S
C1281 H1257 0.951 . S
C1281 C1282 1.366 . S
C1281 C1283 1.388 . S
C1282 C1281 1.366 . S
C1282 C1286 1.385 1_455 S
C1283 H1258 0.951 . S
C1283 C1281 1.388 . S
C1283 C1284 1.366 . S
C1284 C1283 1.366 . S
C1284 C1285 1.414 1_455 S
C1284 C1287 1.499 . S
C1285 H1259 0.950 . S
C1285 C1284 1.414 1_655 S
C1285 C1286 1.374 . S
C1286 H1260 0.950 . S
C1286 C1282 1.385 1_655 S
C1286 C1285 1.374 . S
C1287 C1284 1.499 . S
C1287 C1288 1.373 1_455 S
C1287 C1289 1.389 . S
C1288 H1261 0.950 . S
C1288 C1274 1.377 . S
C1288 C1287 1.373 1_655 S
C1289 C1273 1.377 . S
C1289 C1287 1.389 . S
C1289 C1290 1.524 . S
C1290 C1289 1.524 . S
C1290 C1291 1.397 . S
C1290 C1295 1.363 . S
C1291 H1262 0.950 . S
C1291 C1290 1.397 . S
C1291 C1292 1.334 . S
C1292 H1263 0.950 . S
C1292 C1291 1.334 . S
C1292 C1293 1.287 . S
C1293 C1292 1.287 . S
C1293 C1294 1.524 . S
C1293 H1296 0.999 . S
C1294 H1264 0.950 . S
C1294 C1293 1.524 . S
C1294 C1295 1.415 . S
C1295 H1265 0.950 . S
C1295 C1290 1.363 . S
C1295 C1294 1.415 . S
H1296 C1293 0.999 . S
H1297 C1278 0.913 . S
H1298 C1316 0.951 . S
H1299 C1318 0.951 . S
H1300 C1320 0.950 . S
H1301 C1321 0.950 . S
H1302 C1323 0.950 . S
H1303 C1326 0.950 . S
H1304 C1327 0.950 . S
H1305 C1329 0.950 . S
H1306 C1330 0.950 . S
H1307 C1331 0.951 . S
H1308 C1333 0.951 . S
H1309 C1335 0.950 . S
H1310 C1336 0.950 . S
H1311 C1338 0.950 1_565 S
H1312 C1341 0.950 . S
H1313 C1342 0.950 . S
H1314 C1344 0.950 . S
H1315 C1345 0.950 . S
C1316 H1298 0.951 . S
C1316 C1317 1.366 . S
C1316 C1318 1.388 . S
C1317 C1316 1.366 . S
C1317 C1321 1.385 . S
C1318 H1299 0.951 . S
C1318 C1316 1.388 . S
C1318 C1319 1.366 . S
C1319 C1318 1.366 . S
C1319 C1320 1.414 . S
C1319 C1322 1.499 . S
C1320 H1300 0.950 . S
C1320 C1319 1.414 . S
C1320 C1321 1.374 . S
C1321 H1301 0.950 . S
C1321 C1317 1.385 . S
C1321 C1320 1.374 . S
C1322 C1319 1.499 . S
C1322 C1323 1.373 . S
C1322 C1324 1.389 . S
C1323 H1302 0.950 . S
C1323 C1322 1.373 . S
C1323 C1339 1.377 . S
C1324 C1322 1.389 . S
C1324 C1325 1.524 1_545 S
C1324 C1338 1.377 . S
C1325 C1324 1.524 1_565 S
C1325 C1326 1.397 . S
C1325 C1330 1.363 . S
C1326 H1303 0.950 . S
C1326 C1325 1.397 . S
C1326 C1327 1.334 . S
C1327 H1304 0.950 . S
C1327 C1326 1.334 . S
C1327 C1328 1.287 . S
C1328 C1327 1.287 . S
C1328 C1329 1.524 . S
C1328 H1347 0.913 . S
C1329 H1305 0.950 . S
C1329 C1328 1.524 . S
C1329 C1330 1.415 . S
C1330 H1306 0.950 . S
C1330 C1325 1.363 . S
C1330 C1329 1.415 . S
C1331 H1307 0.951 . S
C1331 C1332 1.366 . S
C1331 C1333 1.388 . S
C1332 C1331 1.366 . S
C1332 C1336 1.385 . S
C1333 H1308 0.951 . S
C1333 C1331 1.388 . S
C1333 C1334 1.366 . S
C1334 C1333 1.366 . S
C1334 C1335 1.414 . S
C1334 C1337 1.499 . S
C1335 H1309 0.950 . S
C1335 C1334 1.414 . S
C1335 C1336 1.374 . S
C1336 H1310 0.950 . S
C1336 C1332 1.385 . S
C1336 C1335 1.374 . S
C1337 C1334 1.499 . S
C1337 C1338 1.373 . S
C1337 C1339 1.389 . S
C1338 H1311 0.950 1_545 S
C1338 C1324 1.377 . S
C1338 C1337 1.373 . S
C1339 C1323 1.377 . S
C1339 C1337 1.389 . S
C1339 C1340 1.524 . S
C1340 C1339 1.524 . S
C1340 C1341 1.397 . S
C1340 C1345 1.363 . S
C1341 H1312 0.950 . S
C1341 C1340 1.397 . S
C1341 C1342 1.334 . S
C1342 H1313 0.950 . S
C1342 C1341 1.334 . S
C1342 C1343 1.287 . S
C1343 C1342 1.287 . S
C1343 C1344 1.524 . S
C1343 H1346 0.999 . S
C1344 H1314 0.950 . S
C1344 C1343 1.524 . S
C1344 C1345 1.415 . S
C1345 H1315 0.950 . S
C1345 C1340 1.363 . S
C1345 C1344 1.415 . S
H1346 C1343 0.999 . S
H1347 C1328 0.913 . S
H1348 C1366 0.951 . S
H1349 C1368 0.951 . S
H1350 C1370 0.950 . S
H1351 C1371 0.950 . S
H1352 C1373 0.950 . S
H1353 C1376 0.950 . S
H1354 C1377 0.950 . S
H1355 C1379 0.950 . S
H1356 C1380 0.950 . S
H1357 C1381 0.951 . S
H1358 C1383 0.951 . S
H1359 C1385 0.950 . S
H1360 C1386 0.950 . S
H1361 C1388 0.950 . S
H1362 C1391 0.950 . S
H1363 C1392 0.950 . S
H1364 C1394 0.950 . S
H1365 C1395 0.950 . S
C1366 H1348 0.951 . S
C1366 C1367 1.366 . S
C1366 C1368 1.388 . S
C1367 C1366 1.366 . S
C1367 C1371 1.385 . S
C1368 H1349 0.951 . S
C1368 C1366 1.388 . S
C1368 C1369 1.366 . S
C1369 C1368 1.366 . S
C1369 C1370 1.414 . S
C1369 C1372 1.499 . S
C1370 H1350 0.950 . S
C1370 C1369 1.414 . S
C1370 C1371 1.374 . S
C1371 H1351 0.950 . S
C1371 C1367 1.385 . S
C1371 C1370 1.374 . S
C1372 C1369 1.499 . S
C1372 C1373 1.373 . S
C1372 C1374 1.389 . S
C1373 H1352 0.950 . S
C1373 C1372 1.373 . S
C1373 C1389 1.377 . S
C1374 C1372 1.389 . S
C1374 C1375 1.524 . S
C1374 C1388 1.377 . S
C1375 C1374 1.524 . S
C1375 C1376 1.397 . S
C1375 C1380 1.363 . S
C1376 H1353 0.950 . S
C1376 C1375 1.397 . S
C1376 C1377 1.334 . S
C1377 H1354 0.950 . S
C1377 C1376 1.334 . S
C1377 C1378 1.287 . S
C1378 C1377 1.287 . S
C1378 C1379 1.524 . S
C1378 H1397 0.913 . S
C1379 H1355 0.950 . S
C1379 C1378 1.524 . S
C1379 C1380 1.415 . S
C1380 H1356 0.950 . S
C1380 C1375 1.363 . S
C1380 C1379 1.415 . S
C1381 H1357 0.951 . S
C1381 C1382 1.366 . S
C1381 C1383 1.388 . S
C1382 C1381 1.366 . S
C1382 C1386 1.385 . S
C1383 H1358 0.951 . S
C1383 C1381 1.388 . S
C1383 C1384 1.366 . S
C1384 C1383 1.366 . S
C1384 C1385 1.414 . S
C1384 C1387 1.499 . S
C1385 H1359 0.950 . S
C1385 C1384 1.414 . S
C1385 C1386 1.374 . S
C1386 H1360 0.950 . S
C1386 C1382 1.385 . S
C1386 C1385 1.374 . S
C1387 C1384 1.499 . S
C1387 C1388 1.373 . S
C1387 C1389 1.389 . S
C1388 H1361 0.950 . S
C1388 C1374 1.377 . S
C1388 C1387 1.373 . S
C1389 C1373 1.377 . S
C1389 C1387 1.389 . S
C1389 C1390 1.524 . S
C1390 C1389 1.524 . S
C1390 C1391 1.397 . S
C1390 C1395 1.363 . S
C1391 H1362 0.950 . S
C1391 C1390 1.397 . S
C1391 C1392 1.334 . S
C1392 H1363 0.950 . S
C1392 C1391 1.334 . S
C1392 C1393 1.287 . S
C1393 C1392 1.287 . S
C1393 C1394 1.524 . S
C1393 H1396 0.999 . S
C1394 H1364 0.950 . S
C1394 C1393 1.524 . S
C1394 C1395 1.415 . S
C1395 H1365 0.950 . S
C1395 C1390 1.363 . S
C1395 C1394 1.415 . S
H1396 C1393 0.999 . S
H1397 C1378 0.913 . S
H1398 C1416 0.951 . S
H1399 C1418 0.951 . S
H1400 C1420 0.950 . S
H1401 C1421 0.950 . S
H1402 C1423 0.950 . S
H1403 C1426 0.950 . S
H1404 C1427 0.950 . S
H1405 C1429 0.950 . S
H1406 C1430 0.950 . S
H1407 C1431 0.951 . S
H1408 C1433 0.951 . S
H1409 C1435 0.950 . S
H1410 C1436 0.950 . S
H1411 C1438 0.950 . S
H1412 C1441 0.950 . S
H1413 C1442 0.950 . S
H1414 C1444 0.950 . S
H1415 C1445 0.950 . S
C1416 H1398 0.951 . S
C1416 C1417 1.366 . S
C1416 C1418 1.388 . S
C1417 C1416 1.366 . S
C1417 C1421 1.385 . S
C1418 H1399 0.951 . S
C1418 C1416 1.388 . S
C1418 C1419 1.366 . S
C1419 C1418 1.366 . S
C1419 C1420 1.414 . S
C1419 C1422 1.499 . S
C1420 H1400 0.950 . S
C1420 C1419 1.414 . S
C1420 C1421 1.374 . S
C1421 H1401 0.950 . S
C1421 C1417 1.385 . S
C1421 C1420 1.374 . S
C1422 C1419 1.499 . S
C1422 C1423 1.373 . S
C1422 C1424 1.389 . S
C1423 H1402 0.950 . S
C1423 C1422 1.373 . S
C1423 C1439 1.377 . S
C1424 C1422 1.389 . S
C1424 C1425 1.524 . S
C1424 C1438 1.377 . S
C1425 C1424 1.524 . S
C1425 C1426 1.397 . S
C1425 C1430 1.363 . S
C1426 H1403 0.950 . S
C1426 C1425 1.397 . S
C1426 C1427 1.334 . S
C1427 H1404 0.950 . S
C1427 C1426 1.334 . S
C1427 C1428 1.287 . S
C1428 C1427 1.287 . S
C1428 C1429 1.524 . S
C1428 H1447 0.913 . S
C1429 H1405 0.950 . S
C1429 C1428 1.524 . S
C1429 C1430 1.415 . S
C1430 H1406 0.950 . S
C1430 C1425 1.363 . S
C1430 C1429 1.415 . S
C1431 H1407 0.951 . S
C1431 C1432 1.366 . S
C1431 C1433 1.388 . S
C1432 C1431 1.366 . S
C1432 C1436 1.385 . S
C1433 H1408 0.951 . S
C1433 C1431 1.388 . S
C1433 C1434 1.366 . S
C1434 C1433 1.366 . S
C1434 C1435 1.414 . S
C1434 C1437 1.499 . S
C1435 H1409 0.950 . S
C1435 C1434 1.414 . S
C1435 C1436 1.374 . S
C1436 H1410 0.950 . S
C1436 C1432 1.385 . S
C1436 C1435 1.374 . S
C1437 C1434 1.499 . S
C1437 C1438 1.373 . S
C1437 C1439 1.389 . S
C1438 H1411 0.950 . S
C1438 C1424 1.377 . S
C1438 C1437 1.373 . S
C1439 C1423 1.377 . S
C1439 C1437 1.389 . S
C1439 C1440 1.524 . S
C1440 C1439 1.524 . S
C1440 C1441 1.397 . S
C1440 C1445 1.363 . S
C1441 H1412 0.950 . S
C1441 C1440 1.397 . S
C1441 C1442 1.334 . S
C1442 H1413 0.950 . S
C1442 C1441 1.334 . S
C1442 C1443 1.287 . S
C1443 C1442 1.287 . S
C1443 C1444 1.524 . S
C1443 H1446 0.999 . S
C1444 H1414 0.950 . S
C1444 C1443 1.524 . S
C1444 C1445 1.415 . S
C1445 H1415 0.950 . S
C1445 C1440 1.363 . S
C1445 C1444 1.415 . S
H1446 C1443 0.999 . S
H1447 C1428 0.913 . S
H1448 C1466 0.951 . S
H1449 C1468 0.951 . S
H1450 C1470 0.950 . S
H1451 C1471 0.950 . S
H1452 C1473 0.950 . S
H1453 C1476 0.950 . S
H1454 C1477 0.950 . S
H1455 C1479 0.950 . S
H1456 C1480 0.950 . S
H1457 C1481 0.951 . S
H1458 C1483 0.939 1_455 S
H1459 C1485 0.950 . S
H1460 C1486 0.950 . S
H1461 C1488 0.950 . S
H1462 C1491 0.950 . S
H1463 C1492 0.950 . S
H1464 C1494 0.950 . S
H1465 C1495 0.950 . S
C1466 H1448 0.951 . S
C1466 C1467 1.366 . S
C1466 C1468 1.388 . S
C1467 C1466 1.366 . S
C1467 C1471 1.385 1_655 S
C1468 H1449 0.951 . S
C1468 C1466 1.388 . S
C1468 C1469 1.366 . S
C1469 C1468 1.366 . S
C1469 C1470 1.414 1_655 S
C1469 C1472 1.499 . S
C1470 H1450 0.950 . S
C1470 C1469 1.414 1_455 S
C1470 C1471 1.374 . S
C1471 H1451 0.950 . S
C1471 C1467 1.385 1_455 S
C1471 C1470 1.374 . S
C1472 C1469 1.499 . S
C1472 C1473 1.373 1_655 S
C1472 C1474 1.389 . S
C1473 H1452 0.950 . S
C1473 C1472 1.373 1_455 S
C1473 C1489 1.377 . S
C1474 C1472 1.389 . S
C1474 C1475 1.524 . S
C1474 C1488 1.377 . S
C1475 C1474 1.524 . S
C1475 C1476 1.397 . S
C1475 C1480 1.363 . S
C1476 H1453 0.950 . S
C1476 C1475 1.397 . S
C1476 C1477 1.334 . S
C1477 H1454 0.950 . S
C1477 C1476 1.334 . S
C1477 C1478 1.287 . S
C1478 C1477 1.287 . S
C1478 C1479 1.524 . S
C1478 H1497 0.913 . S
C1479 H1455 0.950 . S
C1479 C1478 1.524 . S
C1479 C1480 1.415 . S
C1480 H1456 0.950 . S
C1480 C1475 1.363 . S
C1480 C1479 1.415 . S
C1481 H1457 0.951 . S
C1481 C1482 1.366 . S
C1481 C1483 1.388 . S
C1482 C1481 1.366 . S
C1482 C1486 1.385 . S
C1483 H1458 0.939 1_655 S
C1483 C1481 1.388 . S
C1483 C1484 1.366 . S
C1484 C1483 1.366 . S
C1484 C1485 1.414 . S
C1484 C1487 1.499 . S
C1485 H1459 0.950 . S
C1485 C1484 1.414 . S
C1485 C1486 1.374 . S
C1486 H1460 0.950 . S
C1486 C1482 1.385 . S
C1486 C1485 1.374 . S
C1487 C1484 1.499 . S
C1487 C1488 1.373 . S
C1487 C1489 1.389 1_655 S
C1488 H1461 0.950 . S
C1488 C1474 1.377 . S
C1488 C1487 1.373 . S
C1489 C1473 1.377 . S
C1489 C1487 1.389 1_455 S
C1489 C1490 1.524 . S
C1490 C1489 1.524 . S
C1490 C1491 1.397 . S
C1490 C1495 1.363 . S
C1491 H1462 0.950 . S
C1491 C1490 1.397 . S
C1491 C1492 1.334 . S
C1492 H1463 0.950 . S
C1492 C1491 1.334 . S
C1492 C1493 1.287 . S
C1493 C1492 1.287 . S
C1493 C1494 1.524 . S
C1493 H1496 0.999 . S
C1494 H1464 0.950 . S
C1494 C1493 1.524 . S
C1494 C1495 1.415 . S
C1495 H1465 0.950 . S
C1495 C1490 1.363 . S
C1495 C1494 1.415 . S
H1496 C1493 0.999 . S
H1497 C1478 0.913 . S
H1498 C1516 0.951 . S
H1499 C1518 0.951 . S
H1500 C1520 0.950 . S
H1501 C1521 0.950 . S
H1502 C1523 0.950 . S
H1503 C1526 0.950 . S
H1504 C1527 0.950 1_565 S
H1505 C1529 0.950 . S
H1506 C1530 0.950 . S
H1507 C1531 0.951 . S
H1508 C1533 0.951 . S
H1509 C1535 0.950 . S
H1510 C1536 0.950 . S
H1511 C1538 0.950 . S
H1512 C1541 0.950 . S
H1513 C1542 0.950 . S
H1514 C1544 0.950 . S
H1515 C1545 0.950 . S
C1516 H1498 0.951 . S
C1516 C1517 1.366 1_545 S
C1516 C1518 1.388 . S
C1517 C1516 1.366 1_565 S
C1517 C1521 1.385 . S
C1518 H1499 0.951 . S
C1518 C1516 1.388 . S
C1518 C1519 1.366 1_545 S
C1519 C1518 1.366 1_565 S
C1519 C1520 1.414 . S
C1519 C1522 1.499 . S
C1520 H1500 0.950 . S
C1520 C1519 1.414 . S
C1520 C1521 1.374 . S
C1521 H1501 0.950 . S
C1521 C1517 1.385 . S
C1521 C1520 1.374 . S
C1522 C1519 1.499 . S
C1522 C1523 1.373 . S
C1522 C1524 1.393 . S
C1523 H1502 0.950 . S
C1523 C1522 1.373 . S
C1523 C1539 1.377 . S
C1524 C1522 1.393 . S
C1524 C1525 1.521 1_565 S
C1524 C1538 1.376 1_565 S
C1525 C1524 1.521 1_545 S
C1525 C1526 1.397 1_545 S
C1525 C1530 1.363 . S
C1526 H1503 0.950 . S
C1526 C1525 1.397 1_565 S
C1526 C1527 1.334 1_565 S
C1527 H1504 0.950 1_545 S
C1527 C1526 1.334 1_545 S
C1527 C1528 1.287 . S
C1528 C1527 1.287 . S
C1528 C1529 1.524 . S
C1528 H1547 0.913 . S
C1529 H1505 0.950 . S
C1529 C1528 1.524 . S
C1529 C1530 1.415 . S
C1530 H1506 0.950 . S
C1530 C1525 1.363 . S
C1530 C1529 1.415 . S
C1531 H1507 0.951 . S
C1531 C1532 1.366 . S
C1531 C1533 1.388 . S
C1532 C1531 1.366 . S
C1532 C1536 1.385 1_565 S
C1533 H1508 0.951 . S
C1533 C1531 1.388 . S
C1533 C1534 1.366 . S
C1534 C1533 1.366 . S
C1534 C1535 1.414 1_565 S
C1534 C1537 1.499 . S
C1535 H1509 0.950 . S
C1535 C1534 1.414 1_545 S
C1535 C1536 1.374 . S
C1536 H1510 0.950 . S
C1536 C1532 1.385 1_545 S
C1536 C1535 1.374 . S
C1537 C1534 1.499 . S
C1537 C1538 1.373 1_565 S
C1537 C1539 1.389 . S
C1538 H1511 0.950 . S
C1538 C1524 1.376 1_545 S
C1538 C1537 1.373 1_545 S
C1539 C1523 1.377 . S
C1539 C1537 1.389 . S
C1539 C1540 1.524 . S
C1540 C1539 1.524 . S
C1540 C1541 1.397 . S
C1540 C1545 1.363 . S
C1541 H1512 0.950 . S
C1541 C1540 1.397 . S
C1541 C1542 1.334 . S
C1542 H1513 0.950 . S
C1542 C1541 1.334 . S
C1542 C1543 1.287 . S
C1543 C1542 1.287 . S
C1543 C1544 1.524 . S
C1543 H1546 0.999 . S
C1544 H1514 0.950 . S
C1544 C1543 1.524 . S
C1544 C1545 1.415 . S
C1545 H1515 0.950 . S
C1545 C1540 1.363 . S
C1545 C1544 1.415 . S
H1546 C1543 0.999 . S
H1547 C1528 0.913 . S
H1548 C1566 0.951 . S
H1549 C1568 0.951 . S
H1550 C1570 0.950 . S
H1551 C1571 0.950 . S
H1552 C1573 0.950 . S
H1553 C1576 0.950 . S
H1554 C1577 0.950 . S
H1555 C1579 0.950 . S
H1556 C1580 0.950 . S
H1557 C1581 0.951 . S
H1558 C1583 0.951 . S
H1559 C1585 0.950 . S
H1560 C1586 0.950 . S
H1561 C1588 0.950 . S
H1562 C1591 0.950 . S
H1563 C1592 0.950 . S
H1564 C1594 0.950 . S
H1565 C1595 0.950 . S
C1566 H1548 0.951 . S
C1566 C1567 1.366 . S
C1566 C1568 1.388 . S
C1567 C1566 1.366 . S
C1567 C1571 1.385 . S
C1568 H1549 0.951 . S
C1568 C1566 1.388 . S
C1568 C1569 1.366 . S
C1569 C1568 1.366 . S
C1569 C1570 1.414 . S
C1569 C1572 1.499 . S
C1570 H1550 0.950 . S
C1570 C1569 1.414 . S
C1570 C1571 1.374 . S
C1571 H1551 0.950 . S
C1571 C1567 1.385 . S
C1571 C1570 1.374 . S
C1572 C1569 1.499 . S
C1572 C1573 1.373 . S
C1572 C1574 1.389 . S
C1573 H1552 0.950 . S
C1573 C1572 1.373 . S
C1573 C1589 1.377 . S
C1574 C1572 1.389 . S
C1574 C1575 1.524 . S
C1574 C1588 1.377 . S
C1575 C1574 1.524 . S
C1575 C1576 1.397 . S
C1575 C1580 1.363 . S
C1576 H1553 0.950 . S
C1576 C1575 1.397 . S
C1576 C1577 1.334 . S
C1577 H1554 0.950 . S
C1577 C1576 1.334 . S
C1577 C1578 1.287 . S
C1578 C1577 1.287 . S
C1578 C1579 1.524 . S
C1578 H1597 0.913 . S
C1579 H1555 0.950 . S
C1579 C1578 1.524 . S
C1579 C1580 1.415 . S
C1580 H1556 0.950 . S
C1580 C1575 1.363 . S
C1580 C1579 1.415 . S
C1581 H1557 0.951 . S
C1581 C1582 1.366 . S
C1581 C1583 1.388 . S
C1582 C1581 1.366 . S
C1582 C1586 1.385 . S
C1583 H1558 0.951 . S
C1583 C1581 1.388 . S
C1583 C1584 1.366 . S
C1584 C1583 1.366 . S
C1584 C1585 1.414 . S
C1584 C1587 1.499 . S
C1585 H1559 0.950 . S
C1585 C1584 1.414 . S
C1585 C1586 1.374 . S
C1586 H1560 0.950 . S
C1586 C1582 1.385 . S
C1586 C1585 1.374 . S
C1587 C1584 1.499 . S
C1587 C1588 1.373 . S
C1587 C1589 1.389 . S
C1588 H1561 0.950 . S
C1588 C1574 1.377 . S
C1588 C1587 1.373 . S
C1589 C1573 1.377 . S
C1589 C1587 1.389 . S
C1589 C1590 1.524 . S
C1590 C1589 1.524 . S
C1590 C1591 1.397 . S
C1590 C1595 1.363 . S
C1591 H1562 0.950 . S
C1591 C1590 1.397 . S
C1591 C1592 1.334 . S
C1592 H1563 0.950 . S
C1592 C1591 1.334 . S
C1592 C1593 1.287 . S
C1593 C1592 1.287 . S
C1593 C1594 1.524 . S
C1593 H1596 0.999 . S
C1594 H1564 0.950 . S
C1594 C1593 1.524 . S
C1594 C1595 1.415 . S
C1595 H1565 0.950 . S
C1595 C1590 1.363 . S
C1595 C1594 1.415 . S
H1596 C1593 0.999 . S
H1597 C1578 0.913 . S
H1598 C1616 0.951 . S
H1599 C1618 0.951 . S
H1600 C1620 0.950 . S
H1601 C1621 0.950 . S
H1602 C1623 0.950 . S
H1603 C1626 0.950 . S
H1604 C1627 0.950 . S
H1605 C1629 0.950 . S
H1606 C1630 0.950 . S
H1607 C1631 0.951 . S
H1608 C1633 0.951 . S
H1609 C1635 0.950 . S
H1610 C1636 0.950 . S
H1611 C1638 0.950 . S
H1612 C1641 0.950 . S
H1613 C1642 0.950 . S
H1614 C1644 0.950 . S
H1615 C1645 0.950 . S
C1616 H1598 0.951 . S
C1616 C1617 1.366 . S
C1616 C1618 1.388 . S
C1617 C1616 1.366 . S
C1617 C1621 1.385 . S
C1618 H1599 0.951 . S
C1618 C1616 1.388 . S
C1618 C1619 1.366 . S
C1619 C1618 1.366 . S
C1619 C1620 1.414 . S
C1619 C1622 1.499 . S
C1620 H1600 0.950 . S
C1620 C1619 1.414 . S
C1620 C1621 1.374 . S
C1621 H1601 0.950 . S
C1621 C1617 1.385 . S
C1621 C1620 1.374 . S
C1622 C1619 1.499 . S
C1622 C1623 1.373 . S
C1622 C1624 1.389 . S
C1623 H1602 0.950 . S
C1623 C1622 1.373 . S
C1623 C1639 1.377 . S
C1624 C1622 1.389 . S
C1624 C1625 1.524 . S
C1624 C1638 1.377 . S
C1625 C1624 1.524 . S
C1625 C1626 1.397 . S
C1625 C1630 1.363 . S
C1626 H1603 0.950 . S
C1626 C1625 1.397 . S
C1626 C1627 1.334 . S
C1627 H1604 0.950 . S
C1627 C1626 1.334 . S
C1627 C1628 1.287 . S
C1628 C1627 1.287 . S
C1628 C1629 1.524 . S
C1628 H1647 0.913 . S
C1629 H1605 0.950 . S
C1629 C1628 1.524 . S
C1629 C1630 1.415 . S
C1630 H1606 0.950 . S
C1630 C1625 1.363 . S
C1630 C1629 1.415 . S
C1631 H1607 0.951 . S
C1631 C1632 1.366 . S
C1631 C1633 1.388 . S
C1632 C1631 1.366 . S
C1632 C1636 1.385 . S
C1633 H1608 0.951 . S
C1633 C1631 1.388 . S
C1633 C1634 1.366 . S
C1634 C1633 1.366 . S
C1634 C1635 1.414 . S
C1634 C1637 1.499 . S
C1635 H1609 0.950 . S
C1635 C1634 1.414 . S
C1635 C1636 1.374 . S
C1636 H1610 0.950 . S
C1636 C1632 1.385 . S
C1636 C1635 1.374 . S
C1637 C1634 1.499 . S
C1637 C1638 1.373 . S
C1637 C1639 1.389 . S
C1638 H1611 0.950 . S
C1638 C1624 1.377 . S
C1638 C1637 1.373 . S
C1639 C1623 1.377 . S
C1639 C1637 1.389 . S
C1639 C1640 1.524 . S
C1640 C1639 1.524 . S
C1640 C1641 1.397 . S
C1640 C1645 1.363 . S
C1641 H1612 0.950 . S
C1641 C1640 1.397 . S
C1641 C1642 1.334 . S
C1642 H1613 0.950 . S
C1642 C1641 1.334 . S
C1642 C1643 1.287 . S
C1643 C1642 1.287 . S
C1643 C1644 1.524 . S
C1643 H1646 0.999 . S
C1644 H1614 0.950 . S
C1644 C1643 1.524 . S
C1644 C1645 1.415 . S
C1645 H1615 0.950 . S
C1645 C1640 1.363 . S
C1645 C1644 1.415 . S
H1646 C1643 0.999 . S
H1647 C1628 0.913 . S
C467 C241 1.871 . S
C482 C298 2.010 . S
C532 C338 2.012 . S
C517 C277 1.916 . S
C582 C378 2.015 . S
C567 C169 1.872 . S
C632 C418 2.004 1_455 S
C617 C205 1.861 . S
C682 C307 2.015 . S
C667 C97 1.865 . S
C717 C133 1.913 . S
C732 C347 2.012 . S
C767 C25 1.862 . S
C782 C387 2.015 . S
C817 C61 1.861 1_655 S
C832 C427 2.004 1_655 S
C882 C304 0.299 . S
C867 C211 0.268 . S
C932 C344 0.326 . S
C917 C247 0.291 . S
C982 C384 0.292 . S
C967 C253 0.272 . S
C1017 C175 0.290 . S
C1032 C424 0.324 . S
C1067 C67 0.349 1_655 S
C1082 C295 0.287 . S
C1132 C335 0.322 . S
C1117 C103 0.388 . S
C1182 C375 0.294 . S
C1167 C109 0.195 . S
C1217 C31 0.387 . S
C1232 C415 0.329 . S
C1267 C181 2.534 . S
C1282 C299 2.819 . S
C1317 C217 2.524 . S
C1332 C339 2.804 . S
C1382 C379 2.808 . S
C1367 C283 2.462 . S
C1432 C419 2.820 . S
C1417 C145 2.533 . S
C1467 C37 2.535 1_655 S
C1482 C290 2.820 . S
C1532 C330 2.804 . S
C1517 C73 2.519 . S
C1582 C370 2.807 . S
C1567 C139 2.452 . S
C1617 C1 2.535 . S
C1632 C410 2.827 . S
