# Generated by pormake.
# Topology zzz, (3,6)-cn, num edge types: 1
# Building blocks:
#     Node 0, Type 0, BuildingBlock: BELTOD_clean_linker_0, # of connection points: 3
#     Node 1, Type 0, BuildingBlock: BELTOD_clean_linker_0, # of connection points: 3
#     Node 2, Type 0, BuildingBlock: BELTOD_clean_linker_0, # of connection points: 3
#     Node 3, Type 0, BuildingBlock: BELTOD_clean_linker_0, # of connection points: 3
#     Node 4, Type 0, BuildingBlock: BELTOD_clean_linker_0, # of connection points: 3
#     Node 5, Type 0, BuildingBlock: BELTOD_clean_linker_0, # of connection points: 3
#     Node 6, Type 0, BuildingBlock: BELTOD_clean_linker_0, # of connection points: 3
#     Node 7, Type 0, BuildingBlock: BELTOD_clean_linker_0, # of connection points: 3
#     Node 8, Type 1, BuildingBlock: BETFAJ_clean_sbu_0, # of connection points: 6
#     Node 9, Type 1, BuildingBlock: BETFAJ_clean_sbu_0, # of connection points: 6
#     Node 10, Type 1, BuildingBlock: BETFAJ_clean_sbu_0, # of connection points: 6
#     Node 11, Type 1, BuildingBlock: BETFAJ_clean_sbu_0, # of connection points: 6
#     Edge 12, Type (0, 1), BuildingBlock: CIFDUS_clean_linker_0, # of connection points: 2
#     Edge 13, Type (0, 1), BuildingBlock: CIFDUS_clean_linker_0, # of connection points: 2
#     Edge 14, Type (0, 1), BuildingBlock: CIFDUS_clean_linker_0, # of connection points: 2
#     Edge 15, Type (0, 1), BuildingBlock: CIFDUS_clean_linker_0, # of connection points: 2
#     Edge 16, Type (0, 1), BuildingBlock: CIFDUS_clean_linker_0, # of connection points: 2
#     Edge 17, Type (0, 1), BuildingBlock: CIFDUS_clean_linker_0, # of connection points: 2
#     Edge 18, Type (0, 1), BuildingBlock: CIFDUS_clean_linker_0, # of connection points: 2
#     Edge 19, Type (0, 1), BuildingBlock: CIFDUS_clean_linker_0, # of connection points: 2
#     Edge 20, Type (0, 1), BuildingBlock: CIFDUS_clean_linker_0, # of connection points: 2
#     Edge 21, Type (0, 1), BuildingBlock: CIFDUS_clean_linker_0, # of connection points: 2
#     Edge 22, Type (0, 1), BuildingBlock: CIFDUS_clean_linker_0, # of connection points: 2
#     Edge 23, Type (0, 1), BuildingBlock: CIFDUS_clean_linker_0, # of connection points: 2
#     Edge 24, Type (0, 1), BuildingBlock: CIFDUS_clean_linker_0, # of connection points: 2
#     Edge 25, Type (0, 1), BuildingBlock: CIFDUS_clean_linker_0, # of connection points: 2
#     Edge 26, Type (0, 1), BuildingBlock: CIFDUS_clean_linker_0, # of connection points: 2
#     Edge 27, Type (0, 1), BuildingBlock: CIFDUS_clean_linker_0, # of connection points: 2
#     Edge 28, Type (0, 1), BuildingBlock: CIFDUS_clean_linker_0, # of connection points: 2
#     Edge 29, Type (0, 1), BuildingBlock: CIFDUS_clean_linker_0, # of connection points: 2
#     Edge 30, Type (0, 1), BuildingBlock: CIFDUS_clean_linker_0, # of connection points: 2
#     Edge 31, Type (0, 1), BuildingBlock: CIFDUS_clean_linker_0, # of connection points: 2
#     Edge 32, Type (0, 1), BuildingBlock: CIFDUS_clean_linker_0, # of connection points: 2
#     Edge 33, Type (0, 1), BuildingBlock: CIFDUS_clean_linker_0, # of connection points: 2
#     Edge 34, Type (0, 1), BuildingBlock: CIFDUS_clean_linker_0, # of connection points: 2
#     Edge 35, Type (0, 1), BuildingBlock: CIFDUS_clean_linker_0, # of connection points: 2
# Relax obj value: 0.462
# Max RMSD: 0.255
# Mean RMSD: 0.246
data_MOF--net-zzz--node1-BETFAJ_clean_sbu_0--node2-BELTOD_clean_linker_0--edge1-CIFDUS_clean_linker_0
_symmetry_space_group_name_H-M    P1
_symmetry_Int_Tables_number       1
_symmetry_cell_setting            triclinic
loop_
_symmetry_equiv_pos_as_xyz
'x, y, z'
_cell_length_a     49.801419
_cell_length_b     49.754812
_cell_length_c     15.256063
_cell_angle_alpha  89.622379
_cell_angle_beta   89.821286
_cell_angle_gamma 90.010984
loop_
_atom_site_label
_atom_site_type_symbol
_atom_site_fract_x
_atom_site_fract_y
_atom_site_fract_z
_atom_type_partial_charge
P0 P 0.72645 0.47852 0.42375 0.0
H1 H 0.742 0.4928 0.60257 0.0
H2 H 0.78502 0.50617 0.66202 0.0
H3 H 0.81372 0.52357 0.39989 0.0
H4 H 0.7713 0.50789 0.34084 0.0
H5 H 0.67038 0.46676 0.38885 0.0
H6 H 0.64072 0.4776 0.26727 0.0
H7 H 0.70093 0.53115 0.16042 0.0
H8 H 0.73068 0.51996 0.2824 0.0
H9 H 0.76978 0.44462 0.48649 0.0
H10 H 0.72379 0.45289 0.24862 0.0
O11 O 0.70905 0.46551 0.50756 0.0
H12 H 0.80395 0.41983 0.40785 0.0
H13 H 0.75698 0.42632 0.17049 0.0
C14 C 0.75289 0.49979 0.46689 0.0
C15 C 0.75716 0.50036 0.55779 0.0
C16 C 0.78208 0.50803 0.59201 0.0
C17 C 0.80342 0.51562 0.53616 0.0
C18 C 0.79823 0.51722 0.4454 0.0
C19 C 0.77345 0.50904 0.41123 0.0
C20 C 0.70277 0.49276 0.34606 0.0
C21 C 0.67698 0.48149 0.34088 0.0
C22 C 0.65994 0.48771 0.27087 0.0
C23 C 0.66836 0.5052 0.2034 0.0
C24 C 0.69385 0.51735 0.21056 0.0
C25 C 0.71089 0.51113 0.28101 0.0
C26 C 0.7448 0.45158 0.37287 0.0
C27 C 0.76651 0.44019 0.41793 0.0
C28 C 0.78602 0.42569 0.37268 0.0
C29 C 0.78378 0.42177 0.2817 0.0
C30 C 0.75993 0.4299 0.23973 0.0
C31 C 0.74075 0.44502 0.28469 0.0
P32 P 0.02947 0.72859 0.37884 0.0
H33 H 1.00121 0.74115 0.54293 0.0
H34 H 0.98962 0.78422 0.60795 0.0
H35 H 1.00649 0.82391 0.3611 0.0
H36 H 0.017 0.78049 0.29571 0.0
H37 H 1.0021 0.67676 0.3584 0.0
H38 H 0.99151 0.6497 0.23077 0.0
H39 H 0.0192 0.71431 0.06191 0.0
H40 H 0.02749 0.74186 0.19012 0.0
H41 H 0.06142 0.7699 0.46462 0.0
H42 H 0.07225 0.71564 0.24838 0.0
O43 O 0.03224 0.70676 0.46185 0.0
H44 H 0.09493 0.79959 0.40421 0.0
H45 H 0.10734 0.74476 0.18868 0.0
C46 C 0.01 0.75743 0.4142 0.0
C47 C 1.00134 0.75891 0.5016 0.0
C48 C 0.99516 0.78377 0.53929 0.0
C49 C 0.99784 0.80784 0.49079 0.0
C50 C 1.0041 0.80596 0.40085 0.0
C51 C 0.00996 0.78099 0.36291 0.0
C52 C 0.01619 0.71117 0.28415 0.0
C53 C 1.00533 0.68532 0.2938 0.0
C54 C 0.99966 0.66962 0.22016 0.0
C55 C 1.00519 0.6792 0.13473 0.0
C56 C 0.01445 0.70592 0.12568 0.0
C57 C 0.01942 0.72183 0.19945 0.0
C58 C 0.06256 0.74195 0.35651 0.0
C59 C 0.07161 0.76395 0.40503 0.0
C60 C 0.09132 0.78087 0.37057 0.0
C61 C 0.10285 0.77556 0.288 0.0
C62 C 0.09771 0.75038 0.24958 0.0
C63 C 0.07753 0.73368 0.28357 0.0
P64 P 0.79115 0.04433 0.4103 0.0
H65 H 0.78078 0.02403 0.58873 0.0
H66 H 0.73901 0.01109 0.66126 0.0
H67 H 0.69892 0.01064 0.41037 0.0
H68 H 0.74106 0.02236 0.33834 0.0
H69 H 0.84888 0.04852 0.38155 0.0
H70 H 0.8773 0.03674 0.25785 0.0
H71 H 0.81131 0.99311 0.14282 0.0
H72 H 0.78268 1.00573 0.26659 0.0
H73 H 0.74527 0.07783 0.45563 0.0
H74 H 0.80099 0.07179 0.23959 0.0
O75 O 0.80919 0.05762 0.49124 0.0
H76 H 0.71442 0.10266 0.36383 0.0
H77 H 0.77109 0.09853 0.14854 0.0
C78 C 0.76419 0.02433 0.45788 0.0
C79 C 0.76328 0.02013 0.54885 0.0
C80 C 0.73911 0.01316 0.59058 0.0
C81 C 0.71514 0.01055 0.5424 0.0
C82 C 0.71677 0.01235 0.45024 0.0
C83 C 0.74107 0.01894 0.40851 0.0
C84 C 0.81366 0.0277 0.33445 0.0
C85 C 0.84071 0.03562 0.33138 0.0
C86 C 0.85705 0.02885 0.26003 0.0
C87 C 0.84669 0.01411 0.18937 0.0
C88 C 0.81995 1.00483 0.1952 0.0
C89 C 0.80358 0.0117 0.26675 0.0
C90 C 0.77464 0.0715 0.35307 0.0
C91 C 0.75129 0.08264 0.38906 0.0
C92 C 0.7337 0.09726 0.33621 0.0
C93 C 0.73965 0.1018 0.24696 0.0
C94 C 0.76521 0.09434 0.21563 0.0
C95 C 0.78247 0.07905 0.26803 0.0
P96 P 0.47734 0.7899 0.42763 0.0
H97 H 0.48605 0.7744 0.61074 0.0
H98 H 0.49812 0.7317 0.67698 0.0
H99 H 0.52225 0.70201 0.42294 0.0
H100 H 0.5085 0.74452 0.3564 0.0
H101 H 0.46516 0.84557 0.3871 0.0
H102 H 0.47878 0.87567 0.26885 0.0
H103 H 0.53713 0.81727 0.18275 0.0
H104 H 0.52349 0.78713 0.3028 0.0
H105 H 0.42876 0.76183 0.48273 0.0
H106 H 0.47181 0.77646 0.24135 0.0
O107 O 0.46189 0.80715 0.5066 0.0
H108 H 0.40205 0.72728 0.41031 0.0
H109 H 0.44618 0.74179 0.17004 0.0
C110 C 0.49668 0.7631 0.47834 0.0
C111 C 0.49475 0.7591 0.56931 0.0
C112 C 0.50169 0.73438 0.60747 0.0
C113 C 0.5109 0.7129 0.55568 0.0
C114 C 0.51468 0.71769 0.46518 0.0
C115 C 0.50743 0.74239 0.42696 0.0
C116 C 0.49343 0.81408 0.35491 0.0
C117 C 0.48155 0.8395 0.34486 0.0
C118 C 0.48937 0.8568 0.2768 0.0
C119 C 0.509 0.84893 0.2158 0.0
C120 C 0.5218 0.8239 0.22821 0.0
C121 C 0.51417 0.80669 0.29738 0.0
C122 C 0.45217 0.77191 0.36749 0.0
C123 C 0.43181 0.75833 0.41341 0.0
C124 C 0.41674 0.73838 0.37213 0.0
C125 C 0.42212 0.73148 0.28452 0.0
C126 C 0.44111 0.74671 0.2371 0.0
C127 C 0.45603 0.76664 0.27828 0.0
P128 P 0.29525 0.46232 0.08315 0.0
H129 H 0.27356 0.47162 0.90882 0.0
H130 H 0.22924 0.48601 0.86377 0.0
H131 H 0.21403 0.51586 0.12476 0.0
H132 H 0.25845 0.50013 0.17013 0.0
H133 H 0.32431 0.43318 0.21851 0.0
H134 H 0.35591 0.4464 0.33134 0.0
H135 H 0.35026 0.52898 0.24281 0.0
H136 H 0.31721 0.51547 0.13252 0.0
H137 H 0.26726 0.41902 0.99355 0.0
H138 H 0.27329 0.44995 0.25599 0.0
O139 O 0.31389 0.4511 1.00005 0.0
H140 H 0.22289 0.40085 0.02799 0.0
H141 H 0.22971 0.43205 0.29084 0.0
C142 C 0.26979 0.48523 0.04259 0.0
C143 C 0.26128 0.48241 0.95553 0.0
C144 C 0.23556 0.49056 0.92984 0.0
C145 C 0.21753 0.50191 0.99057 0.0
C146 C 0.22697 0.50673 0.07622 0.0
C147 C 0.25274 0.49834 0.10197 0.0
C148 C 0.31767 0.47345 0.16892 0.0
C149 C 0.32949 0.45424 0.22431 0.0
C150 C 0.34802 0.46183 0.2882 0.0
C151 C 0.35593 0.48885 0.29694 0.0
C152 C 0.3444 0.50806 0.23969 0.0
C153 C 0.32549 0.5004 0.17625 0.0
C154 C 0.27366 0.43588 0.12212 0.0
C155 C 0.25988 0.4204 0.06023 0.0
C156 C 0.23432 0.41028 0.07967 0.0
C157 C 0.22238 0.41554 0.1614 0.0
C158 C 0.23813 0.4274 0.2272 0.0
C159 C 0.26345 0.43766 0.20743 0.0
P160 P 0.05526 0.2989 0.06063 0.0
H161 H 0.04267 0.28255 0.88101 0.0
H162 H 0.02892 0.23954 0.82149 0.0
H163 H 0.01114 0.21071 0.08313 0.0
H164 H 0.02584 0.25374 0.14244 0.0
H165 H 0.06581 0.35604 0.0807 0.0
H166 H 0.05068 0.3894 0.18547 0.0
H167 H 0.99628 0.33101 0.29932 0.0
H168 H 0.01061 0.29813 0.19031 0.0
H169 H 0.09977 0.26435 0.01205 0.0
H170 H 0.0633 0.2925 0.25118 0.0
O171 O 0.07143 0.3141 0.97808 0.0
H172 H 0.11816 0.22576 0.09097 0.0
H173 H 0.08046 0.2539 0.32894 0.0
C174 C 0.03505 0.27177 0.01642 0.0
C175 C 0.03497 0.26739 0.92565 0.0
C176 C 0.02712 0.24251 0.89148 0.0
C177 C 0.01914 0.22123 0.94723 0.0
C178 C 0.0176 0.2263 0.03794 0.0
C179 C 0.02548 0.25124 0.07203 0.0
C180 C 0.03916 0.32456 0.12653 0.0
C181 C 0.05005 0.35057 0.12651 0.0
C182 C 0.04166 0.36961 0.18787 0.0
C183 C 0.02252 0.36299 0.2526 0.0
C184 C 0.01086 0.33712 0.25034 0.0
C185 C 0.01903 0.31816 0.18776 0.0
C186 C 0.07963 0.28101 0.1251 0.0
C187 C 0.09681 0.26299 0.08231 0.0
C188 C 0.10709 0.24076 0.12738 0.0
C189 C 0.09997 0.23618 0.21551 0.0
C190 C 0.08628 0.25656 0.26099 0.0
C191 C 0.07615 0.27879 0.21599 0.0
P192 P 0.21828 0.0525 0.05948 0.0
H193 H 0.23517 0.03648 0.88258 0.0
H194 H 0.27854 0.02123 0.8283 0.0
H195 H 0.30424 1.0059 0.09416 0.0
H196 H 0.26115 0.02216 0.14799 0.0
H197 H 0.1633 0.06833 0.09921 0.0
H198 H 0.1328 0.05699 0.21943 0.0
H199 H 0.1878 0.99526 0.30612 0.0
H200 H 0.21829 1.00693 0.18621 0.0
H201 H 0.26663 0.08255 0.01424 0.0
H202 H 0.21211 0.07835 0.23397 0.0
O203 O 0.20297 0.06726 0.97477 0.0
H204 H 0.30315 0.09284 0.11171 0.0
H205 H 0.24796 0.0919 0.33137 0.0
C206 C 0.24439 0.03007 0.01957 0.0
C207 C 0.24964 0.02881 0.92924 0.0
C208 C 0.27472 0.02018 0.89814 0.0
C209 C 0.29527 0.01266 0.95672 0.0
C210 C 0.28919 0.01195 0.04693 0.0
C211 C 0.2641 0.02056 0.0779 0.0
C212 C 0.19309 0.03836 0.13267 0.0
C213 C 0.16845 0.05177 0.14241 0.0
C214 C 0.15098 0.0453 0.2116 0.0
C215 C 0.15787 0.02537 0.27336 0.0
C216 C 0.182 0.01105 0.2608 0.0
C217 C 0.19945 0.01755 0.19147 0.0
C218 C 0.23724 0.07751 0.1177 0.0
C219 C 0.26215 0.08539 0.08309 0.0
C220 C 0.2832 0.09153 0.13962 0.0
C221 C 0.27901 0.09111 0.23099 0.0
C222 C 0.25233 0.0903 0.26204 0.0
C223 C 0.23159 0.08279 0.20594 0.0
P224 P 0.45838 0.21783 0.07595 0.0
H225 H 0.46879 0.23117 0.89091 0.0
H226 H 0.48532 0.27284 0.82442 0.0
H227 H 0.51305 0.29916 0.07727 0.0
H228 H 0.49687 0.25718 0.14343 0.0
H229 H 0.43103 0.18113 0.1933 0.0
H230 H 0.44587 0.14926 0.30428 0.0
H231 H 0.52853 0.16614 0.23492 0.0
H232 H 0.51313 0.19936 0.12659 0.0
H233 H 0.41993 0.25722 0.01368 0.0
H234 H 0.45295 0.23208 0.26222 0.0
O235 O 0.44009 0.20203 1.0007 0.0
H236 H 0.41028 0.30142 0.07491 0.0
H237 H 0.44217 0.27563 0.32375 0.0
C238 C 0.48172 0.24074 0.0224 0.0
C239 C 0.47959 0.24523 0.93161 0.0
C240 C 0.48886 0.26928 0.89354 0.0
C241 C 0.50004 0.28956 0.9458 0.0
C242 C 0.5042 0.28408 0.03539 0.0
C243 C 0.49534 0.25983 0.07311 0.0
C244 C 0.47094 0.19286 0.1524 0.0
C245 C 0.45238 0.17791 0.20186 0.0
C246 C 0.46098 0.15939 0.26505 0.0
C247 C 0.48853 0.15483 0.27948 0.0
C248 C 0.50716 0.16933 0.22736 0.0
C249 C 0.49844 0.18826 0.16471 0.0
C250 C 0.43724 0.24128 0.13302 0.0
C251 C 0.42325 0.26041 0.08298 0.0
C252 C 0.41766 0.28568 0.11794 0.0
C253 C 0.42544 0.29169 0.20387 0.0
C254 C 0.43559 0.27119 0.25775 0.0
C255 C 0.44178 0.24617 0.22225 0.0
Sm256 Sm 0.0196 1.0001 0.81481 0.0
Sm257 Sm 0.98505 0.02738 0.64927 0.0
C258 C 0.03392 0.9745 0.9587 0.0
C259 C 0.04917 0.94959 0.97732 0.0
C260 C 0.03766 0.92432 0.96141 0.0
C261 C 0.05202 0.90086 0.97835 0.0
C262 C 0.07836 0.90193 0.01126 0.0
C263 C 0.08997 0.92722 0.02692 0.0
C264 C 0.07548 0.95082 0.01027 0.0
C265 C 0.05144 0.01047 0.66781 0.0
C266 C 0.9944 0.96126 0.657 0.0
C267 C 0.97747 0.05264 0.49948 0.0
C268 C 0.99701 0.0688 0.45017 0.0
C269 C 0.02218 0.07393 0.48746 0.0
C270 C 0.04112 0.08945 0.44281 0.0
C271 C 0.03495 0.10091 0.36092 0.0
C272 C 0.0097 0.09543 0.32324 0.0
C273 C 0.99092 0.07934 0.36743 0.0
C274 C 0.9527 0.01547 0.79298 0.0
C275 C 0.0108 0.06548 0.80568 0.0
O276 O 0.01029 0.97153 0.92201 0.0
O277 O 0.04763 0.99488 0.92664 0.0
O278 O 0.02697 0.01536 0.67994 0.0
O279 O 0.06078 0.99983 0.73954 0.0
O280 O 1.00598 0.96297 0.73529 0.0
O281 O 0.98591 0.98253 0.6117 0.0
O282 O 0.98288 0.02689 0.50398 0.0
O283 O 0.97029 0.0628 0.57507 0.0
O284 O 0.97757 0.01228 0.78375 0.0
O285 O 0.94312 0.02483 0.71937 0.0
O286 O 1.00435 0.0634 0.72156 0.0
O287 O 0.01435 0.04418 0.85721 0.0
H288 H 0.01741 0.92252 0.93645 0.0
H289 H 0.04206 0.88181 0.96784 0.0
H290 H 0.1102 0.92878 0.05221 0.0
H291 H 0.08484 0.97004 0.02326 0.0
H292 H 0.02716 0.06597 0.55164 0.0
H293 H 0.06045 0.09276 0.47322 0.0
H294 H 1.00402 0.10431 0.26101 0.0
H295 H 0.97152 0.07562 0.33795 0.0
Sm296 Sm 0.51692 0.02544 0.83803 0.0
Sm297 Sm 0.49569 0.98876 0.68244 0.0
C298 C 0.52974 0.05079 0.9836 0.0
C299 C 0.55058 0.06993 0.00909 0.0
C300 C 0.56763 0.08128 0.9456 0.0
C301 C 0.58948 0.09698 0.97102 0.0
C302 C 0.5947 0.10134 0.06038 0.0
C303 C 0.57657 0.09116 0.12336 0.0
C304 C 0.55469 0.07553 0.09779 0.0
C305 C 0.50862 0.05098 0.67968 0.0
C306 C 0.56116 1.00048 0.70219 0.0
C307 C 0.47547 0.97847 0.52758 0.0
C308 C 0.45269 0.9921 0.48525 0.0
C309 C 0.45416 1.00025 0.39719 0.0
C310 C 0.43424 0.01691 0.36161 0.0
C311 C 0.41282 0.026 0.41422 0.0
C312 C 0.41157 0.01765 0.5023 0.0
C313 C 0.431 1.00065 0.53689 0.0
C314 C 0.51002 0.95659 0.82405 0.0
C315 C 0.45248 0.00858 0.83055 0.0
O316 O 0.53825 0.02651 0.96526 0.0
O317 O 0.51183 0.05982 0.92809 0.0
O318 O 0.49377 0.03304 0.71331 0.0
O319 O 0.52809 0.05702 0.73243 0.0
O320 O 0.55735 0.0109 0.78109 0.0
O321 O 0.54096 0.99296 0.65144 0.0
O322 O 0.4968 0.9936 0.53772 0.0
O323 O 0.46964 0.96401 0.59743 0.0
O324 O 0.51146 0.98175 0.81718 0.0
O325 O 0.50137 0.94689 0.75028 0.0
O326 O 0.4558 1.00008 0.74935 0.0
O327 O 0.47301 0.01633 0.87934 0.0
H328 H 0.56462 0.07718 0.87665 0.0
H329 H 0.60291 0.10476 0.92098 0.0
H330 H 0.58019 0.09381 0.19273 0.0
H331 H 0.54164 0.06689 0.14749 0.0
H332 H 0.47099 0.99424 0.35664 0.0
H333 H 0.43566 0.0227 0.29322 0.0
H334 H 0.39587 0.0247 0.54567 0.0
H335 H 0.42952 0.9951 0.60536 0.0
Sm336 Sm 0.4913 0.51159 0.83804 0.0
Sm337 Sm 0.52678 0.49201 0.67657 0.0
C338 C 0.46963 0.52105 0.99337 0.0
C339 C 0.45392 0.54108 0.04181 0.0
C340 C 0.46234 0.54808 0.12604 0.0
C341 C 0.44945 0.56857 0.17154 0.0
C342 C 0.42765 0.58242 0.13395 0.0
C343 C 0.41843 0.57444 0.05088 0.0
C344 C 0.43156 0.55402 1.00491 0.0
C345 C 0.46429 0.50459 0.68257 0.0
C346 C 0.51178 0.55686 0.70056 0.0
C347 C 0.54051 0.47745 0.51674 0.0
C348 C 0.52879 0.45985 0.44961 0.0
C349 C 0.50338 0.46517 0.41335 0.0
C350 C 0.49106 0.44634 0.35918 0.0
C351 C 0.50406 0.42208 0.33982 0.0
C352 C 0.53012 0.41755 0.37181 0.0
C353 C 0.54237 0.43629 0.42613 0.0
C354 C 0.55979 0.50554 0.81673 0.0
C355 C 0.50592 0.44656 0.81535 0.0
O356 O 0.49417 0.52805 0.97228 0.0
O357 O 0.45742 0.50743 0.93201 0.0
O358 O 0.48266 0.48946 0.71186 0.0
O359 O 0.45866 0.52352 0.73813 0.0
O360 O 0.50473 0.55281 0.78341 0.0
O361 O 0.51769 0.53679 0.64718 0.0
O362 O 0.52766 0.49984 0.53362 0.0
O363 O 0.54949 0.46529 0.58736 0.0
O364 O 0.5347 0.50678 0.81134 0.0
O365 O 0.56904 0.49737 0.74191 0.0
O366 O 0.5142 0.45085 0.73393 0.0
O367 O 0.49926 0.4666 0.86798 0.0
H368 H 0.47955 0.53827 0.15558 0.0
H369 H 0.45755 0.5744 0.2344 0.0
H370 H 0.40151 0.58443 0.02043 0.0
H371 H 0.42464 0.54883 0.93994 0.0
H372 H 0.49261 0.48343 0.42893 0.0
H373 H 0.47118 0.45046 0.33388 0.0
H374 H 0.54055 0.39892 0.35824 0.0
H375 H 0.56206 0.43187 0.45262 0.0
Sm376 Sm 1.00636 0.4981 0.79866 0.0
Sm377 Sm 0.02497 0.53075 0.62783 0.0
C378 C 0.99295 0.47648 0.9508 0.0
C379 C 0.96937 0.46065 0.97641 0.0
C380 C 0.96299 0.45672 0.065 0.0
C381 C 0.93833 0.44529 0.08868 0.0
C382 C 0.91974 0.43786 0.02385 0.0
C383 C 0.92699 0.4404 0.93513 0.0
C384 C 0.95159 0.45177 0.91163 0.0
C385 C 0.0129 0.46902 0.64684 0.0
C386 C 0.9605 0.51739 0.66047 0.0
C387 C 0.04217 0.53654 0.46615 0.0
C388 C 0.06218 0.51985 0.42015 0.0
C389 C 0.0547 0.50494 0.34614 0.0
C390 C 0.07173 0.48497 0.31316 0.0
C391 C 0.09634 0.4795 0.3544 0.0
C392 C 0.10428 0.49536 0.4256 0.0
C393 C 0.08742 0.51524 0.45819 0.0
C394 C 0.01135 0.56599 0.76159 0.0
C395 C 0.07057 0.51423 0.77327 0.0
O396 O 0.98778 0.50158 0.93021 0.0
O397 O 0.00941 0.46485 0.89562 0.0
O398 O 0.02806 0.48761 0.67324 0.0
O399 O 0.9938 0.46445 0.70307 0.0
O400 O 0.96522 0.5115 0.74386 0.0
O401 O 0.98004 0.52238 0.60359 0.0
O402 O 0.01966 0.5241 0.48534 0.0
O403 O 0.05111 0.55144 0.53064 0.0
O404 O 0.01056 0.54081 0.76118 0.0
O405 O 0.01886 0.57426 0.68412 0.0
O406 O 0.06561 0.5204 0.69035 0.0
O407 O 0.0511 0.50776 0.82919 0.0
H408 H 0.97649 0.46362 0.11569 0.0
H409 H 0.93313 0.44386 0.15756 0.0
H410 H 0.91314 0.43469 0.88391 0.0
H411 H 0.9562 0.45475 0.84279 0.0
H412 H 0.03519 0.50789 0.31638 0.0
H413 H 0.06517 0.47306 0.25804 0.0
H414 H 0.12344 0.49207 0.45735 0.0
H415 H 0.0938 0.52618 0.51561 0.0
H416 H 0.10275 0.02456 0.28903 0.0
H417 H 0.17545 0.01721 0.44079 0.0
H418 H 0.14907 0.01201 0.57453 0.0
H419 H 0.10545 0.01038 0.65 0.0
H420 H 0.03264 0.01641 0.50029 0.0
H421 H 0.05875 0.02201 0.36498 0.0
C422 C 0.11284 0.0219 0.35136 0.0
C423 C 0.14118 0.0211 0.35413 0.0
C424 C 0.09747 0.01905 0.42881 0.0
C425 C 0.15376 0.01737 0.43582 0.0
C426 C 0.13867 0.01464 0.51277 0.0
C427 C 0.09531 0.01297 0.5877 0.0
C428 C 0.06708 0.0138 0.58539 0.0
C429 C 0.11055 0.01552 0.51018 0.0
C430 C 0.05427 0.01669 0.50409 0.0
C431 C 0.06926 0.01956 0.42662 0.0
H432 H 0.46434 0.1081 0.33757 0.0
H433 H 0.53297 0.15909 0.38526 0.0
H434 H 0.54605 0.13053 0.50804 0.0
H435 H 0.5367 0.09269 0.60852 0.0
H436 H 0.46626 0.04408 0.56902 0.0
H437 H 0.45496 0.07035 0.43791 0.0
C438 C 0.48205 0.11324 0.37498 0.0
C439 C 0.49749 0.13604 0.35126 0.0
C440 C 0.48909 0.09716 0.4478 0.0
C441 C 0.52078 0.14162 0.4001 0.0
C442 C 0.52819 0.12539 0.47134 0.0
C443 C 0.51895 0.08774 0.5709 0.0
C444 C 0.5024 0.06628 0.59819 0.0
C445 C 0.51232 0.10334 0.49659 0.0
C446 C 0.47944 0.06025 0.54887 0.0
C447 C 0.47295 0.07536 0.47408 0.0
H448 H 0.39941 0.46033 0.35824 0.0
H449 H 0.35722 0.53537 0.39348 0.0
H450 H 0.38787 0.54742 0.51108 0.0
H451 H 0.42521 0.53574 0.61016 0.0
H452 H 0.46577 0.45977 0.58022 0.0
H453 H 0.43659 0.44867 0.45687 0.0
C454 C 0.39661 0.47922 0.392 0.0
C455 C 0.37568 0.49677 0.36641 0.0
C456 C 0.41395 0.4858 0.46148 0.0
C457 C 0.37317 0.52149 0.41015 0.0
C458 C 0.39061 0.52835 0.4783 0.0
C459 C 0.42778 0.51683 0.57617 0.0
C460 C 0.44767 0.49861 0.60438 0.0
C461 C 0.41087 0.51055 0.50524 0.0
C462 C 0.45071 0.47419 0.55974 0.0
C463 C 0.43403 0.46784 0.48907 0.0
H464 H 0.05603 0.39898 0.33291 0.0
H465 H 0.97385 0.37116 0.33508 0.0
H466 H 0.96364 0.40139 0.45614 0.0
H467 H 0.97826 0.43532 0.56409 0.0
H468 H 0.05971 0.46468 0.5551 0.0
H469 H 0.06978 0.43423 0.43419 0.0
C470 C 0.0357 0.39974 0.35836 0.0
C471 C 0.01582 0.3825 0.32418 0.0
C472 C 0.02979 0.41753 0.42724 0.0
C473 C 0.98979 0.38369 0.36037 0.0
C474 C 0.98384 0.40117 0.42947 0.0
C475 C 0.99816 0.43522 0.53496 0.0
C476 C 0.01825 0.45214 0.56889 0.0
C477 C 1.00372 0.41806 0.46388 0.0
C478 C 0.04387 0.45193 0.53018 0.0
C479 C 0.04965 0.43457 0.46089 0.0
H480 H 0.90098 1.0048 0.17133 0.0
H481 H 0.82879 0.01718 0.02019 0.0
H482 H 0.85493 0.01674 0.8852 0.0
H483 H 0.89857 0.01621 0.80961 0.0
H484 H 0.9711 1.00579 0.95916 0.0
H485 H 0.94471 1.0023 0.09458 0.0
C486 C 0.89092 1.00737 0.10893 0.0
C487 C 0.86278 0.011 0.10678 0.0
C488 C 0.90622 1.00762 0.03088 0.0
C489 C 0.85023 0.01388 0.02465 0.0
C490 C 0.86524 0.01392 0.94704 0.0
C491 C 0.90858 0.0129 0.87179 0.0
C492 C 0.93677 0.01107 0.87424 0.0
C493 C 0.89326 0.01125 0.94939 0.0
C494 C 0.94944 1.00686 0.9553 0.0
C495 C 0.93433 1.00507 0.03285 0.0
H496 H 0.51443 0.90374 0.2021 0.0
H497 H 0.51355 0.8315 0.04717 0.0
H498 H 0.5155 0.85835 0.9129 0.0
H499 H 0.51376 0.90239 0.83863 0.0
H500 H 0.51485 0.97481 0.99203 0.0
H501 H 0.51646 0.94799 0.12726 0.0
C502 C 0.51487 0.89387 0.13895 0.0
C503 C 0.51377 0.86555 0.13514 0.0
C504 C 0.51582 0.90952 0.0615 0.0
C505 C 0.51469 0.85316 0.05253 0.0
C506 C 0.51556 0.86854 0.97547 0.0
C507 C 0.51466 0.91229 0.90168 0.0
C508 C 0.51407 0.94055 0.90533 0.0
C509 C 0.51561 0.89672 0.97906 0.0
C510 C 0.51538 0.9531 0.98743 0.0
C511 C 0.51617 0.93775 0.06479 0.0
H512 H 0.61357 0.51052 0.19166 0.0
H513 H 0.68536 0.50728 0.03278 0.0
H514 H 0.65827 0.50882 0.90004 0.0
H515 H 0.61406 0.50802 0.82822 0.0
H516 H 0.54223 0.50995 0.98597 0.0
H517 H 0.56928 0.51189 0.11939 0.0
C518 C 0.62332 0.5102 0.12803 0.0
C519 C 0.65159 0.50876 0.12283 0.0
C520 C 0.60753 0.51074 0.05143 0.0
C521 C 0.66376 0.50877 0.0394 0.0
C522 C 0.64823 0.5094 0.96314 0.0
C523 C 0.60434 0.50913 0.89182 0.0
C524 C 0.57612 0.50902 0.89713 0.0
C525 C 0.6201 0.50998 0.96829 0.0
C526 C 0.56385 0.51042 0.97997 0.0
C527 C 0.57936 0.51132 0.05636 0.0
H528 H 0.01192 0.62427 0.1273 0.0
H529 H 0.99293 0.69282 0.96323 0.0
H530 H 0.99336 0.66417 0.83456 0.0
H531 H 1.00055 0.61968 0.76666 0.0
H532 H 0.01534 0.55084 0.93253 0.0
H533 H 0.01423 0.57944 0.06223 0.0
C534 C 1.00719 0.63309 0.06412 0.0
C535 C 1.00277 0.66108 0.05636 0.0
C536 C 1.00664 0.61631 0.99004 0.0
C537 C 0.99722 0.67167 0.97233 0.0
C538 C 0.9972 0.65519 0.89821 0.0
C539 C 1.00327 0.61096 0.83137 0.0
C540 C 0.00808 0.58318 0.83999 0.0
C541 C 1.00222 0.62753 0.90603 0.0
C542 C 0.01141 0.57211 0.92418 0.0
C543 C 0.01093 0.58851 0.99837 0.0
H544 H 0.08851 0.19002 0.13015 0.0
H545 H 0.1102 0.22015 0.38514 0.0
H546 H 0.09442 0.17841 0.45302 0.0
H547 H 0.06653 0.13808 0.44121 0.0
H548 H 0.04576 0.10765 0.18572 0.0
H549 H 0.06963 0.14515 0.11652 0.0
C550 C 0.09097 0.18716 0.20019 0.0
C551 C 0.10002 0.2085 0.25266 0.0
C552 C 0.08135 0.16343 0.23884 0.0
C553 C 0.10278 0.20428 0.34343 0.0
C554 C 0.09362 0.18047 0.3823 0.0
C555 C 0.06784 0.13903 0.37033 0.0
C556 C 0.05368 0.12041 0.31879 0.0
C557 C 0.08153 0.16059 0.33095 0.0
C558 C 0.05564 0.12222 0.22699 0.0
C559 C 0.0694 0.14353 0.18735 0.0
H560 H 0.33284 0.1044 0.21752 0.0
H561 H 0.27652 0.0593 0.3778 0.0
H562 H 0.31304 0.03689 0.45048 0.0
H563 H 0.35981 0.02434 0.45325 0.0
H564 H 0.41749 0.06743 0.29395 0.0
H565 H 0.3813 0.09485 0.23208 0.0
C566 C 0.32848 0.08984 0.26875 0.0
C567 C 0.3016 0.0836 0.29042 0.0
C568 C 0.34975 0.07572 0.30829 0.0
C569 C 0.29668 0.06518 0.35935 0.0
C570 C 0.31767 0.05176 0.40039 0.0
C571 C 0.36476 0.04015 0.40671 0.0
C572 C 0.39138 0.04364 0.37815 0.0
C573 C 0.3441 0.05607 0.37289 0.0
C574 C 0.39709 0.06386 0.31588 0.0
C575 C 0.37644 0.07977 0.28122 0.0
H576 H 0.46805 0.31761 0.14611 0.0
H577 H 0.3995 0.32645 0.31538 0.0
H578 H 0.41661 0.37023 0.36508 0.0
H579 H 0.45369 0.40326 0.37025 0.0
H580 H 0.52339 0.39201 0.20575 0.0
H581 H 0.50357 0.35154 0.14472 0.0
C582 C 0.45656 0.32966 0.19174 0.0
C583 C 0.43242 0.31952 0.22571 0.0
C584 C 0.46695 0.35401 0.22142 0.0
C585 C 0.41794 0.33436 0.28761 0.0
C586 C 0.42781 0.35919 0.3161 0.0
C587 C 0.4641 0.39235 0.31904 0.0
C588 C 0.48997 0.40049 0.29246 0.0
C589 C 0.4526 0.36891 0.28471 0.0
C590 C 0.50354 0.38596 0.22745 0.0
C591 C 0.49216 0.3629 0.19231 0.0
H592 H 0.19296 0.40196 0.30619 0.0
H593 H 0.18486 0.43071 0.04004 0.0
H594 H 0.14047 0.44817 0.07344 0.0
H595 H 0.1108 0.46695 0.1872 0.0
H596 H 0.12134 0.44213 0.45633 0.0
H597 H 0.15814 0.41263 0.41379 0.0
C598 C 0.18121 0.41154 0.25502 0.0
C599 C 0.19268 0.41574 0.17176 0.0
C600 C 0.15661 0.42357 0.27628 0.0
C601 C 0.1768 0.42728 0.10517 0.0
C602 C 0.15154 0.4379 0.12464 0.0
C603 C 0.12064 0.45448 0.23599 0.0
C604 C 0.11402 0.45735 0.325 0.0
C605 C 0.14228 0.43802 0.21141 0.0
C606 C 0.12674 0.44088 0.38762 0.0
C607 C 0.14769 0.42392 0.36336 0.0
H608 H 0.09811 0.78329 0.11152 0.0
H609 H 0.13157 0.82016 0.34245 0.0
H610 H 0.13059 0.86387 0.26932 0.0
H611 H 0.1099 0.89208 0.15444 0.0
H612 H 0.07845 0.85442 0.92209 0.0
H613 H 0.0896 0.8103 0.98149 0.0
C614 C 0.10638 0.80047 0.14537 0.0
C615 C 0.11358 0.79844 0.23447 0.0
C616 C 0.1055 0.82558 0.10339 0.0
C617 C 0.12463 0.82121 0.27534 0.0
C618 C 0.12407 0.8463 0.23355 0.0
C619 C 0.10636 0.87435 0.11522 0.0
C620 C 0.09228 0.87652 0.03553 0.0
C621 C 0.1128 0.84891 0.14982 0.0
C622 C 0.08822 0.85325 0.98534 0.0
C623 C 0.09471 0.82799 0.01903 0.0
H624 H 0.69606 0.13476 0.27444 0.0
H625 H 0.73297 0.0841 0.07876 0.0
H626 H 0.69202 0.08459 0.99422 0.0
H627 H 0.64359 0.09043 0.99222 0.0
H628 H 0.60462 0.13678 0.19396 0.0
H629 H 0.64822 0.1462 0.26065 0.0
C630 C 0.69529 0.12402 0.21291 0.0
C631 C 0.71763 0.1089 0.18487 0.0
C632 C 0.67098 0.12294 0.16657 0.0
C633 C 0.71641 0.09606 0.10289 0.0
C634 C 0.69272 0.09594 0.0546 0.0
C635 C 0.64462 0.10339 0.049 0.0
C636 C 0.62086 0.11258 0.08874 0.0
C637 C 0.66955 0.10802 0.08826 0.0
C638 C 0.62262 0.12907 0.16301 0.0
C639 C 0.64754 0.13446 0.20111 0.0
H640 H 0.41577 0.68354 0.36864 0.0
H641 H 0.40632 0.72159 0.11541 0.0
H642 H 0.40315 0.67759 0.04649 0.0
H643 H 0.4119 0.62923 0.05589 0.0
H644 H 0.41976 0.59113 0.30973 0.0
H645 H 0.41428 0.63453 0.38087 0.0
C646 C 0.41195 0.68237 0.29885 0.0
C647 C 0.41199 0.7059 0.24704 0.0
C648 C 0.4104 0.65703 0.25952 0.0
C649 C 0.40712 0.70379 0.15656 0.0
C650 C 0.40531 0.67862 0.11706 0.0
C651 C 0.41144 0.63013 0.12685 0.0
C652 C 0.41708 0.60699 0.17714 0.0
C653 C 0.40831 0.65516 0.16744 0.0
C654 C 0.41639 0.60875 0.26917 0.0
C655 C 0.41315 0.63356 0.31002 0.0
H656 H 0.7983 0.44135 0.12202 0.0
H657 H 0.82451 0.38637 0.32469 0.0
H658 H 0.86905 0.3845 0.25744 0.0
H659 H 0.90202 0.40363 0.15251 0.0
H660 H 0.8745 0.45823 0.95092 0.0
H661 H 0.82868 0.45423 1.00488 0.0
C662 C 0.81325 0.42807 0.15019 0.0
C663 C 0.80802 0.41444 0.22958 0.0
C664 C 0.83876 0.42718 0.11163 0.0
C665 C 0.82809 0.39767 0.26489 0.0
C666 C 0.8536 0.39656 0.22643 0.0
C667 C 0.88586 0.41427 0.11978 0.0
C668 C 0.89168 0.43136 0.04838 0.0
C669 C 0.85946 0.41215 0.15186 0.0
C670 C 0.87056 0.4448 1.00565 0.0
C671 C 0.84435 0.44269 0.03686 0.0
H672 H 0.03155 0.1722 0.02097 0.0
H673 H 0.99551 0.20773 0.79067 0.0
H674 H 0.99064 0.16332 0.72595 0.0
H675 H 0.99699 0.11419 0.73322 0.0
H676 H 0.03106 0.0786 0.96653 0.0
H677 H 0.03557 0.12296 0.0314 0.0
C678 C 0.02218 0.17033 0.95726 0.0
C679 C 0.01411 0.19365 0.91098 0.0
C680 C 0.01912 0.14455 0.92039 0.0
C681 C 1.00243 0.19044 0.82766 0.0
C682 C 0.99949 0.16493 0.79052 0.0
C683 C 1.00555 0.11609 0.79815 0.0
C684 C 0.01385 0.09285 0.84428 0.0
C685 C 1.00799 0.14183 0.83585 0.0
C686 C 0.02457 0.09593 0.92889 0.0
C687 C 0.02722 0.12141 0.96628 0.0
H688 H 0.34273 0.0276 0.033 0.0
H689 H 0.31132 0.98706 0.80598 0.0
H690 H 0.35673 0.98231 0.74725 0.0
H691 H 0.40545 0.99048 0.75838 0.0
H692 H 0.43677 0.03004 0.98748 0.0
H693 H 0.39148 0.03385 0.04747 0.0
C694 C 0.34574 0.01725 0.97144 0.0
C695 C 0.32334 1.00775 0.92424 0.0
C696 C 0.37203 0.01444 0.93801 0.0
C697 C 0.32793 0.99492 0.84356 0.0
C698 C 0.354 0.99208 0.80993 0.0
C699 C 0.40245 0.9999 0.82153 0.0
C700 C 0.42472 0.01005 0.86785 0.0
C701 C 0.37621 1.00199 0.85614 0.0
C702 C 0.4202 0.02204 0.94994 0.0
C703 C 0.39421 0.02426 0.98447 0.0
H704 H 0.48258 0.33664 0.01283 0.0
H705 H 0.52625 0.30441 0.79371 0.0
H706 H 0.53188 0.3499 0.73281 0.0
H707 H 0.52428 0.39923 0.74275 0.0
H708 H 0.48109 0.43043 0.96606 0.0
H709 H 0.47565 0.38523 0.02444 0.0
C710 C 0.49396 0.33962 0.95309 0.0
C711 C 0.50454 0.31718 0.9093 0.0
C712 C 0.49711 0.36577 0.91887 0.0
C713 C 0.51807 0.32133 0.82926 0.0
C714 C 0.5213 0.34736 0.79448 0.0
C715 C 0.51376 0.39615 0.80432 0.0
C716 C 0.5032 0.41848 0.8497 0.0
C717 C 0.51089 0.36981 0.83873 0.0
C718 C 0.48963 0.41389 0.92953 0.0
C719 C 0.48649 0.38793 0.96334 0.0
H720 H 0.19652 0.51731 0.83131 0.0
H721 H 0.17259 0.4959 0.09499 0.0
H722 H 0.12551 0.49892 0.05304 0.0
H723 H 0.0907 0.50469 0.93892 0.0
H724 H 0.11531 0.52422 0.67431 0.0
H725 H 0.16212 0.52397 0.71894 0.0
C726 C 0.18113 0.51306 0.87983 0.0
C727 C 0.18855 0.50624 0.96641 0.0
C728 C 0.15391 0.51405 0.85474 0.0
C729 C 0.1679 0.5016 0.02819 0.0
C730 C 0.14078 0.50299 1.00397 0.0
C731 C 0.10626 0.50893 0.89096 0.0
C732 C 0.09918 0.51434 0.80304 0.0
C733 C 0.1335 0.50874 0.91703 0.0
C734 C 0.11985 0.51991 0.74232 0.0
C735 C 0.1468 0.5198 0.76778 0.0
H736 H 0.97766 0.85606 0.42954 0.0
H737 H 0.01696 0.82029 0.65364 0.0
H738 H 0.01823 0.86374 0.72562 0.0
H739 H 0.01009 0.91241 0.72362 0.0
H740 H 0.97206 0.94875 0.49813 0.0
H741 H 0.96879 0.90488 0.42864 0.0
C742 C 0.98654 0.85771 0.49406 0.0
C743 C 0.99697 0.83458 0.53584 0.0
C744 C 0.98765 0.88306 0.53512 0.0
C745 C 0.00817 0.83737 0.62007 0.0
C746 C 0.00919 0.86239 0.66126 0.0
C747 C 1.00095 0.91082 0.65944 0.0
C748 C 0.99141 0.93412 0.61655 0.0
C749 C 0.9992 0.88543 0.61925 0.0
C750 C 0.97965 0.93136 0.5332 0.0
C751 C 0.97776 0.90618 0.4931 0.0
H752 H 0.66974 0.98303 0.49189 0.0
H753 H 0.69972 0.03466 0.69597 0.0
H754 H 0.65578 0.03465 0.76607 0.0
H755 H 0.60782 0.02232 0.76578 0.0
H756 H 0.57737 0.97263 0.55753 0.0
H757 H 0.6221 0.97003 0.49299 0.0
C758 C 0.66675 0.99437 0.55155 0.0
C759 C 0.68841 0.0087 0.58816 0.0
C760 C 0.64107 0.99487 0.59093 0.0
C761 C 0.68387 0.02291 0.66654 0.0
C762 C 0.65853 0.02319 0.70654 0.0
C763 C 0.61097 0.01072 0.70671 0.0
C764 C 0.58903 0.99777 0.66681 0.0
C765 C 0.63686 0.00951 0.66888 0.0
C766 C 0.59368 0.98297 0.58984 0.0
C767 C 0.61935 0.98143 0.55265 0.0
H768 H 0.50105 0.66412 0.47924 0.0
H769 H 0.52829 0.69896 0.72178 0.0
H770 H 0.52981 0.6544 0.7893 0.0
H771 H 0.52288 0.60503 0.78052 0.0
H772 H 0.49914 0.57066 0.53375 0.0
H773 H 0.49722 0.61529 0.46725 0.0
C774 C 0.50791 0.66213 0.5463 0.0
C775 C 0.51438 0.68528 0.59486 0.0
C776 C 0.50928 0.6363 0.58456 0.0
C777 C 0.52264 0.68182 0.68258 0.0
C778 C 0.52367 0.65621 0.72143 0.0
C779 C 0.5173 0.60738 0.71226 0.0
C780 C 0.5111 0.58446 0.6624 0.0
C781 C 0.5168 0.63327 0.67338 0.0
C782 C 0.50417 0.58786 0.57367 0.0
C783 C 0.50301 0.61344 0.53547 0.0
H784 H 0.85138 0.50381 0.45628 0.0
H785 H 0.81898 0.53557 0.6973 0.0
H786 H 0.86408 0.53769 0.75878 0.0
H787 H 0.91329 0.53019 0.7448 0.0
H788 H 0.94506 0.50228 0.49827 0.0
H789 H 0.89986 0.49959 0.43833 0.0
C790 C 0.85398 0.51185 0.52153 0.0
C791 C 0.83134 0.5194 0.57155 0.0
C792 C 0.88011 0.51368 0.55601 0.0
C793 C 0.83566 0.52907 0.6571 0.0
C794 C 0.8616 0.53046 0.69244 0.0
C795 C 0.91024 0.52355 0.67801 0.0
C796 C 0.93259 0.51641 0.62624 0.0
C797 C 0.88402 0.52262 0.64279 0.0
C798 C 0.92831 0.50808 0.53948 0.0
C799 C 0.90241 0.50646 0.50507 0.0
loop_
_geom_bond_atom_site_label_1
_geom_bond_atom_site_label_2
_geom_bond_distance
_geom_bond_site_symmetry_2
_ccdc_geom_bond_type
P0 O11 1.490 . S
P0 C14 1.812 . S
P0 C20 1.803 . S
P0 C26 1.819 . S
H1 C15 0.941 . S
H2 C16 0.939 . S
H3 C18 0.940 . S
H4 C19 0.940 . S
H5 C21 0.939 . S
H6 C22 0.942 . S
H7 C24 0.940 . S
H8 C25 0.939 . S
H9 C27 0.941 . S
H10 C31 0.939 . S
O11 P0 1.490 . S
H12 C28 0.939 . S
H13 C30 0.940 . S
C14 P0 1.812 . S
C14 C15 1.389 . S
C14 C19 1.391 . S
C15 H1 0.941 . S
C15 C14 1.389 . S
C15 C16 1.397 . S
C16 H2 0.939 . S
C16 C15 1.397 . S
C16 C17 1.378 . S
C17 C16 1.378 . S
C17 C18 1.378 . S
C18 H3 0.940 . S
C18 C17 1.378 . S
C18 C19 1.396 . S
C19 H4 0.940 . S
C19 C14 1.391 . S
C19 C18 1.396 . S
C20 P0 1.803 . S
C20 C21 1.378 . S
C20 C25 1.400 . S
C21 H5 0.939 . S
C21 C20 1.378 . S
C21 C22 1.361 . S
C22 H6 0.942 . S
C22 C21 1.361 . S
C22 C23 1.369 . S
C23 C22 1.369 . S
C23 C24 1.404 . S
C24 H7 0.940 . S
C24 C23 1.404 . S
C24 C25 1.389 . S
C25 H8 0.939 . S
C25 C20 1.400 . S
C25 C24 1.389 . S
C26 P0 1.819 . S
C26 C27 1.391 . S
C26 C31 1.391 . S
C27 H9 0.941 . S
C27 C26 1.391 . S
C27 C28 1.396 . S
C28 H12 0.939 . S
C28 C27 1.396 . S
C28 C29 1.397 . S
C29 C28 1.397 . S
C29 C30 1.385 . S
C30 H13 0.940 . S
C30 C29 1.385 . S
C30 C31 1.388 . S
C31 H10 0.939 . S
C31 C26 1.391 . S
C31 C30 1.388 . S
P32 O43 1.490 . S
P32 C46 1.812 . S
P32 C52 1.803 . S
P32 C58 1.819 . S
H33 C47 0.941 . S
H34 C48 0.939 . S
H35 C50 0.940 . S
H36 C51 0.950 . S
H37 C53 0.939 . S
H38 C54 0.942 . S
H39 C56 0.940 . S
H40 C57 0.959 . S
H41 C59 0.941 . S
H42 C63 0.929 1_655 S
O43 P32 1.490 . S
H44 C60 0.939 . S
H45 C62 0.940 . S
C46 P32 1.812 . S
C46 C47 1.389 . S
C46 C51 1.375 1_455 S
C47 H33 0.941 . S
C47 C46 1.389 . S
C47 C48 1.397 . S
C48 H34 0.939 . S
C48 C47 1.397 . S
C48 C49 1.378 . S
C49 C48 1.378 . S
C49 C50 1.378 1_455 S
C50 H35 0.940 . S
C50 C49 1.378 1_655 S
C50 C51 1.403 . S
C51 H36 0.950 . S
C51 C46 1.375 1_655 S
C51 C50 1.403 . S
C52 P32 1.803 . S
C52 C53 1.378 . S
C52 C57 1.368 1_455 S
C53 H37 0.939 . S
C53 C52 1.378 . S
C53 C54 1.361 . S
C54 H38 0.942 . S
C54 C53 1.361 . S
C54 C55 1.369 . S
C55 C54 1.369 . S
C55 C56 1.404 1_455 S
C56 H39 0.940 . S
C56 C55 1.404 1_655 S
C56 C57 1.402 . S
C57 H40 0.959 . S
C57 C52 1.368 1_655 S
C57 C56 1.402 . S
C58 P32 1.819 . S
C58 C59 1.391 . S
C58 C63 1.391 . S
C59 H41 0.941 . S
C59 C58 1.391 . S
C59 C60 1.396 . S
C60 H44 0.939 . S
C60 C59 1.396 . S
C60 C61 1.397 . S
C61 C60 1.397 . S
C61 C62 1.385 1_455 S
C62 H45 0.940 . S
C62 C61 1.385 1_655 S
C62 C63 1.388 1_655 S
C63 H42 0.929 1_455 S
C63 C58 1.391 . S
C63 C62 1.388 1_455 S
P64 O75 1.490 . S
P64 C78 1.812 . S
P64 C84 1.803 . S
P64 C90 1.819 . S
H65 C79 0.941 . S
H66 C80 0.939 . S
H67 C82 0.940 . S
H68 C83 0.950 . S
H69 C85 0.939 . S
H70 C86 0.942 . S
H71 C88 0.940 . S
H72 C89 0.959 . S
H73 C91 0.941 . S
H74 C95 0.929 1_565 S
O75 P64 1.490 . S
H76 C92 0.939 . S
H77 C94 0.940 . S
C78 P64 1.812 . S
C78 C79 1.389 . S
C78 C83 1.375 1_545 S
C79 H65 0.941 . S
C79 C78 1.389 . S
C79 C80 1.397 . S
C80 H66 0.939 . S
C80 C79 1.397 . S
C80 C81 1.378 . S
C81 C80 1.378 . S
C81 C82 1.378 1_545 S
C82 H67 0.940 . S
C82 C81 1.378 1_565 S
C82 C83 1.402 . S
C83 H68 0.950 . S
C83 C78 1.375 1_565 S
C83 C82 1.402 . S
C84 P64 1.803 . S
C84 C85 1.378 . S
C84 C89 1.368 1_545 S
C85 H69 0.939 . S
C85 C84 1.378 . S
C85 C86 1.361 . S
C86 H70 0.942 . S
C86 C85 1.361 . S
C86 C87 1.369 . S
C87 C86 1.369 . S
C87 C88 1.404 1_545 S
C88 H71 0.940 . S
C88 C87 1.404 1_565 S
C88 C89 1.402 . S
C89 H72 0.959 . S
C89 C84 1.368 1_565 S
C89 C88 1.402 . S
C90 P64 1.819 . S
C90 C91 1.391 . S
C90 C95 1.391 . S
C91 H73 0.941 . S
C91 C90 1.391 . S
C91 C92 1.396 . S
C92 H76 0.939 . S
C92 C91 1.396 . S
C92 C93 1.397 . S
C93 C92 1.397 . S
C93 C94 1.385 1_545 S
C94 H77 0.940 . S
C94 C93 1.385 1_565 S
C94 C95 1.388 1_565 S
C95 H74 0.929 1_545 S
C95 C90 1.391 . S
C95 C94 1.388 1_545 S
P96 O107 1.490 . S
P96 C110 1.812 . S
P96 C116 1.803 . S
P96 C122 1.819 . S
H97 C111 0.941 . S
H98 C112 0.939 . S
H99 C114 0.940 . S
H100 C115 0.940 . S
H101 C117 0.939 . S
H102 C118 0.942 . S
H103 C120 0.940 . S
H104 C121 0.939 . S
H105 C123 0.941 . S
H106 C127 0.939 . S
O107 P96 1.490 . S
H108 C124 0.939 . S
H109 C126 0.940 . S
C110 P96 1.812 . S
C110 C111 1.389 . S
C110 C115 1.391 . S
C111 H97 0.941 . S
C111 C110 1.389 . S
C111 C112 1.397 . S
C112 H98 0.939 . S
C112 C111 1.397 . S
C112 C113 1.378 . S
C113 C112 1.378 . S
C113 C114 1.378 . S
C114 H99 0.940 . S
C114 C113 1.378 . S
C114 C115 1.396 . S
C115 H100 0.940 . S
C115 C110 1.391 . S
C115 C114 1.396 . S
C116 P96 1.803 . S
C116 C117 1.378 . S
C116 C121 1.400 . S
C117 H101 0.939 . S
C117 C116 1.378 . S
C117 C118 1.361 . S
C118 H102 0.942 . S
C118 C117 1.361 . S
C118 C119 1.369 . S
C119 C118 1.369 . S
C119 C120 1.404 . S
C120 H103 0.940 . S
C120 C119 1.404 . S
C120 C121 1.389 . S
C121 H104 0.939 . S
C121 C116 1.400 . S
C121 C120 1.389 . S
C122 P96 1.819 . S
C122 C123 1.391 . S
C122 C127 1.391 . S
C123 H105 0.941 . S
C123 C122 1.391 . S
C123 C124 1.396 . S
C124 H108 0.939 . S
C124 C123 1.396 . S
C124 C125 1.397 . S
C125 C124 1.397 . S
C125 C126 1.385 . S
C126 H109 0.940 . S
C126 C125 1.385 . S
C126 C127 1.388 . S
C127 H106 0.939 . S
C127 C122 1.391 . S
C127 C126 1.388 . S
P128 O139 1.490 . S
P128 C142 1.812 1_554 S
P128 C148 1.803 . S
P128 C154 1.819 . S
H129 C143 0.941 . S
H130 C144 0.939 . S
H131 C146 0.940 . S
H132 C147 0.940 . S
H133 C149 0.939 . S
H134 C150 0.942 . S
H135 C152 0.940 . S
H136 C153 0.939 . S
H137 C155 0.941 . S
H138 C159 0.939 . S
O139 P128 1.490 . S
H140 C156 0.939 . S
H141 C158 0.940 . S
C142 P128 1.812 1_556 S
C142 C143 1.389 . S
C142 C147 1.391 . S
C143 H129 0.941 . S
C143 C142 1.389 . S
C143 C144 1.397 . S
C144 H130 0.939 . S
C144 C143 1.397 . S
C144 C145 1.378 . S
C145 C144 1.378 . S
C145 C146 1.378 . S
C146 H131 0.940 . S
C146 C145 1.378 . S
C146 C147 1.396 . S
C147 H132 0.940 . S
C147 C142 1.391 . S
C147 C146 1.396 . S
C148 P128 1.803 . S
C148 C149 1.378 . S
C148 C153 1.400 . S
C149 H133 0.939 . S
C149 C148 1.378 . S
C149 C150 1.361 . S
C150 H134 0.942 . S
C150 C149 1.361 . S
C150 C151 1.369 . S
C151 C150 1.369 . S
C151 C152 1.404 . S
C152 H135 0.940 . S
C152 C151 1.404 . S
C152 C153 1.389 . S
C153 H136 0.939 . S
C153 C148 1.400 . S
C153 C152 1.389 . S
C154 P128 1.819 . S
C154 C155 1.391 . S
C154 C159 1.391 . S
C155 H137 0.941 . S
C155 C154 1.391 . S
C155 C156 1.396 . S
C156 H140 0.939 . S
C156 C155 1.396 . S
C156 C157 1.397 . S
C157 C156 1.397 . S
C157 C158 1.385 . S
C158 H141 0.940 . S
C158 C157 1.385 . S
C158 C159 1.388 . S
C159 H138 0.939 . S
C159 C154 1.391 . S
C159 C158 1.388 . S
P160 O171 1.490 . S
P160 C174 1.812 1_554 S
P160 C180 1.803 . S
P160 C186 1.819 . S
H161 C175 0.941 . S
H162 C176 0.939 . S
H163 C178 0.940 . S
H164 C179 0.944 . S
H165 C181 0.939 . S
H166 C182 0.942 . S
H167 C184 0.940 . S
H168 C185 0.953 . S
H169 C187 0.941 . S
H170 C191 0.932 1_655 S
O171 P160 1.490 . S
H172 C188 0.939 . S
H173 C190 0.940 . S
C174 P160 1.812 1_556 S
C174 C175 1.389 . S
C174 C179 1.384 1_455 S
C175 H161 0.941 . S
C175 C174 1.389 . S
C175 C176 1.397 . S
C176 H162 0.939 . S
C176 C175 1.397 . S
C176 C177 1.378 . S
C177 C176 1.378 . S
C177 C178 1.378 1_455 S
C178 H163 0.940 . S
C178 C177 1.378 1_655 S
C178 C179 1.399 . S
C179 H164 0.944 . S
C179 C174 1.384 1_655 S
C179 C178 1.399 . S
C180 P160 1.803 . S
C180 C181 1.378 . S
C180 C185 1.378 1_455 S
C181 H165 0.939 . S
C181 C180 1.378 . S
C181 C182 1.361 . S
C182 H166 0.942 . S
C182 C181 1.361 . S
C182 C183 1.369 . S
C183 C182 1.369 . S
C183 C184 1.404 1_455 S
C184 H167 0.940 . S
C184 C183 1.404 1_655 S
C184 C185 1.398 . S
C185 H168 0.953 . S
C185 C180 1.378 1_655 S
C185 C184 1.398 . S
C186 P160 1.819 . S
C186 C187 1.391 . S
C186 C191 1.391 . S
C187 H169 0.941 . S
C187 C186 1.391 . S
C187 C188 1.396 . S
C188 H172 0.939 . S
C188 C187 1.396 . S
C188 C189 1.397 . S
C189 C188 1.397 . S
C189 C190 1.385 1_455 S
C190 H173 0.940 . S
C190 C189 1.385 1_655 S
C190 C191 1.388 1_655 S
C191 H170 0.932 1_455 S
C191 C186 1.391 . S
C191 C190 1.388 1_455 S
P192 O203 1.490 . S
P192 C206 1.812 1_554 S
P192 C212 1.803 . S
P192 C218 1.819 . S
H193 C207 0.941 . S
H194 C208 0.939 . S
H195 C210 0.940 . S
H196 C211 0.944 . S
H197 C213 0.939 . S
H198 C214 0.942 . S
H199 C216 0.940 . S
H200 C217 0.953 . S
H201 C219 0.941 . S
H202 C223 0.932 1_565 S
O203 P192 1.490 . S
H204 C220 0.939 . S
H205 C222 0.940 . S
C206 P192 1.812 1_556 S
C206 C207 1.389 . S
C206 C211 1.384 1_545 S
C207 H193 0.941 . S
C207 C206 1.389 . S
C207 C208 1.397 . S
C208 H194 0.939 . S
C208 C207 1.397 . S
C208 C209 1.378 . S
C209 C208 1.378 . S
C209 C210 1.378 1_545 S
C210 H195 0.940 . S
C210 C209 1.378 1_565 S
C210 C211 1.399 . S
C211 H196 0.944 . S
C211 C206 1.384 1_565 S
C211 C210 1.399 . S
C212 P192 1.803 . S
C212 C213 1.378 . S
C212 C217 1.378 1_545 S
C213 H197 0.939 . S
C213 C212 1.378 . S
C213 C214 1.361 . S
C214 H198 0.942 . S
C214 C213 1.361 . S
C214 C215 1.369 . S
C215 C214 1.369 . S
C215 C216 1.404 1_545 S
C216 H199 0.940 . S
C216 C215 1.404 1_565 S
C216 C217 1.398 . S
C217 H200 0.953 . S
C217 C212 1.378 1_565 S
C217 C216 1.398 . S
C218 P192 1.819 . S
C218 C219 1.391 . S
C218 C223 1.391 . S
C219 H201 0.941 . S
C219 C218 1.391 . S
C219 C220 1.396 . S
C220 H204 0.939 . S
C220 C219 1.396 . S
C220 C221 1.397 . S
C221 C220 1.397 . S
C221 C222 1.385 1_545 S
C222 H205 0.940 . S
C222 C221 1.385 1_565 S
C222 C223 1.388 1_565 S
C223 H202 0.932 1_545 S
C223 C218 1.391 . S
C223 C222 1.388 1_545 S
P224 O235 1.490 . S
P224 C238 1.812 1_554 S
P224 C244 1.803 . S
P224 C250 1.819 . S
H225 C239 0.941 . S
H226 C240 0.939 . S
H227 C242 0.940 . S
H228 C243 0.940 . S
H229 C245 0.939 . S
H230 C246 0.942 . S
H231 C248 0.940 . S
H232 C249 0.939 . S
H233 C251 0.941 . S
H234 C255 0.939 . S
O235 P224 1.490 . S
H236 C252 0.939 . S
H237 C254 0.940 . S
C238 P224 1.812 1_556 S
C238 C239 1.389 . S
C238 C243 1.391 . S
C239 H225 0.941 . S
C239 C238 1.389 . S
C239 C240 1.397 . S
C240 H226 0.939 . S
C240 C239 1.397 . S
C240 C241 1.378 . S
C241 C240 1.378 . S
C241 C242 1.378 . S
C242 H227 0.940 . S
C242 C241 1.378 . S
C242 C243 1.396 . S
C243 H228 0.940 . S
C243 C238 1.391 . S
C243 C242 1.396 . S
C244 P224 1.803 . S
C244 C245 1.378 . S
C244 C249 1.400 . S
C245 H229 0.939 . S
C245 C244 1.378 . S
C245 C246 1.361 . S
C246 H230 0.942 . S
C246 C245 1.361 . S
C246 C247 1.369 . S
C247 C246 1.369 . S
C247 C248 1.404 . S
C248 H231 0.940 . S
C248 C247 1.404 . S
C248 C249 1.389 . S
C249 H232 0.939 . S
C249 C244 1.400 . S
C249 C248 1.389 . S
C250 P224 1.819 . S
C250 C251 1.391 . S
C250 C255 1.391 . S
C251 H233 0.941 . S
C251 C250 1.391 . S
C251 C252 1.396 . S
C252 H236 0.939 . S
C252 C251 1.396 . S
C252 C253 1.397 . S
C253 C252 1.397 . S
C253 C254 1.385 . S
C254 H237 0.940 . S
C254 C253 1.385 . S
C254 C255 1.388 . S
C255 H234 0.939 . S
C255 C250 1.391 . S
C255 C254 1.388 . S
Sm256 C258 2.846 . S
Sm256 O276 2.543 . S
Sm256 O277 2.450 . S
Sm256 O278 2.681 1_565 S
Sm256 O279 2.464 . S
Sm256 O280 2.396 . S
Sm256 O284 2.386 1_455 S
Sm256 O287 2.408 1_565 S
Sm257 C267 2.846 . S
Sm257 O278 2.386 1_655 S
Sm257 O281 2.408 1_545 S
Sm257 O282 2.543 . S
Sm257 O283 2.450 . S
Sm257 O284 2.681 1_545 S
Sm257 O285 2.464 . S
Sm257 O286 2.396 . S
C258 Sm256 2.846 . S
C258 C259 1.506 . S
C258 O276 1.261 . S
C258 O277 1.242 . S
C259 C258 1.506 . S
C259 C260 1.358 . S
C259 C264 1.382 . S
C260 C259 1.358 . S
C260 C261 1.385 1_556 S
C260 H288 0.930 1_455 S
C261 C260 1.385 1_554 S
C261 C262 1.395 . S
C261 H289 0.929 . S
C262 C261 1.395 . S
C262 C263 1.335 1_554 S
C263 C262 1.335 1_556 S
C263 C264 1.398 . S
C263 H290 0.930 . S
C264 C259 1.382 . S
C264 C263 1.398 . S
C264 H291 0.929 . S
C265 O278 1.271 1_565 S
C265 O279 1.251 . S
C266 O280 1.252 1_655 S
C266 O281 1.272 . S
C267 Sm257 2.846 . S
C267 C268 1.506 . S
C267 O282 1.261 . S
C267 O283 1.242 . S
C268 C267 1.506 . S
C268 C269 1.358 . S
C268 C273 1.382 . S
C269 C268 1.358 . S
C269 C270 1.385 . S
C269 H292 0.930 1_655 S
C270 C269 1.385 . S
C270 C271 1.395 . S
C270 H293 0.929 . S
C271 C270 1.395 . S
C271 C272 1.335 . S
C272 C271 1.335 . S
C272 C273 1.398 . S
C272 H294 0.930 . S
C273 C268 1.382 . S
C273 C272 1.398 . S
C273 H295 0.929 . S
C274 O284 1.271 1_545 S
C274 O285 1.251 . S
C275 O286 1.252 1_455 S
C275 O287 1.272 . S
O276 Sm256 2.543 . S
O276 C258 1.261 . S
O277 Sm256 2.450 . S
O277 C258 1.242 . S
O278 Sm256 2.681 1_545 S
O278 Sm257 2.386 1_455 S
O278 C265 1.271 1_545 S
O279 Sm256 2.464 . S
O279 C265 1.251 . S
O280 Sm256 2.396 . S
O280 C266 1.252 1_455 S
O281 Sm257 2.408 1_565 S
O281 C266 1.272 . S
O282 Sm257 2.543 . S
O282 C267 1.261 . S
O283 Sm257 2.450 . S
O283 C267 1.242 . S
O284 Sm256 2.386 1_655 S
O284 Sm257 2.681 1_565 S
O284 C274 1.271 1_565 S
O285 Sm257 2.464 . S
O285 C274 1.251 . S
O286 Sm257 2.396 . S
O286 C275 1.252 1_655 S
O287 Sm256 2.408 1_545 S
O287 C275 1.272 . S
H288 C260 0.930 1_655 S
H289 C261 0.929 . S
H290 C263 0.930 . S
H291 C264 0.929 . S
H292 C269 0.930 1_455 S
H293 C270 0.929 . S
H294 C272 0.930 . S
H295 C273 0.929 . S
Sm296 C298 2.846 . S
Sm296 O316 2.543 . S
Sm296 O317 2.450 . S
Sm296 O318 2.681 . S
Sm296 O319 2.464 . S
Sm296 O320 2.396 . S
Sm296 O324 2.386 1_545 S
Sm296 O327 2.408 . S
Sm297 C307 2.846 . S
Sm297 O318 2.386 1_565 S
Sm297 O321 2.408 . S
Sm297 O322 2.543 . S
Sm297 O323 2.450 . S
Sm297 O324 2.681 . S
Sm297 O325 2.464 . S
Sm297 O326 2.396 . S
C298 Sm296 2.846 . S
C298 C299 1.506 . S
C298 O316 1.261 . S
C298 O317 1.242 . S
C299 C298 1.506 . S
C299 C300 1.358 . S
C299 C304 1.382 . S
C300 C299 1.358 . S
C300 C301 1.385 1_556 S
C300 H328 0.930 1_545 S
C301 C300 1.385 1_554 S
C301 C302 1.395 . S
C301 H329 0.938 . S
C302 C301 1.395 . S
C302 C303 1.335 1_554 S
C303 C302 1.335 1_556 S
C303 C304 1.398 . S
C303 H330 0.930 . S
C304 C299 1.382 . S
C304 C303 1.398 . S
C304 H331 0.929 . S
C305 O318 1.271 . S
C305 O319 1.251 . S
C306 O320 1.252 1_565 S
C306 O321 1.272 . S
C307 Sm297 2.846 . S
C307 C308 1.506 . S
C307 O322 1.261 . S
C307 O323 1.242 . S
C308 C307 1.506 . S
C308 C309 1.358 . S
C308 C313 1.382 . S
C309 C308 1.358 . S
C309 C310 1.385 . S
C309 H332 0.930 1_565 S
C310 C309 1.385 . S
C310 C311 1.395 . S
C310 H333 0.930 . S
C311 C310 1.395 . S
C311 C312 1.335 . S
C312 C311 1.335 . S
C312 C313 1.398 . S
C312 H334 0.930 . S
C313 C308 1.382 . S
C313 C312 1.398 . S
C313 H335 0.929 . S
C314 O324 1.271 . S
C314 O325 1.251 . S
C315 O326 1.252 1_545 S
C315 O327 1.272 . S
O316 Sm296 2.543 . S
O316 C298 1.261 . S
O317 Sm296 2.450 . S
O317 C298 1.242 . S
O318 Sm296 2.681 . S
O318 Sm297 2.386 1_545 S
O318 C305 1.271 . S
O319 Sm296 2.464 . S
O319 C305 1.251 . S
O320 Sm296 2.396 . S
O320 C306 1.252 1_545 S
O321 Sm297 2.408 . S
O321 C306 1.272 . S
O322 Sm297 2.543 . S
O322 C307 1.261 . S
O323 Sm297 2.450 . S
O323 C307 1.242 . S
O324 Sm296 2.386 1_565 S
O324 Sm297 2.681 . S
O324 C314 1.271 . S
O325 Sm297 2.464 . S
O325 C314 1.251 . S
O326 Sm297 2.396 . S
O326 C315 1.252 1_565 S
O327 Sm296 2.408 . S
O327 C315 1.272 . S
H328 C300 0.930 1_565 S
H329 C301 0.938 . S
H330 C303 0.930 . S
H331 C304 0.929 . S
H332 C309 0.930 1_545 S
H333 C310 0.930 . S
H334 C312 0.930 . S
H335 C313 0.929 . S
Sm336 C338 2.846 . S
Sm336 O356 2.543 . S
Sm336 O357 2.450 . S
Sm336 O358 2.681 . S
Sm336 O359 2.464 . S
Sm336 O360 2.396 . S
Sm336 O364 2.386 . S
Sm336 O367 2.408 . S
Sm337 C347 2.846 . S
Sm337 O358 2.386 . S
Sm337 O361 2.408 . S
Sm337 O362 2.543 . S
Sm337 O363 2.450 . S
Sm337 O364 2.681 . S
Sm337 O365 2.464 . S
Sm337 O366 2.396 . S
C338 Sm336 2.846 . S
C338 C339 1.506 . S
C338 O356 1.261 . S
C338 O357 1.242 . S
C339 C338 1.506 . S
C339 C340 1.358 . S
C339 C344 1.382 . S
C340 C339 1.358 . S
C340 C341 1.385 1_556 S
C340 H368 0.930 . S
C341 C340 1.385 1_554 S
C341 C342 1.395 . S
C341 H369 0.929 . S
C342 C341 1.395 . S
C342 C343 1.335 1_554 S
C343 C342 1.335 1_556 S
C343 C344 1.398 . S
C343 H370 0.930 1_556 S
C344 C339 1.382 . S
C344 C343 1.398 . S
C344 H371 0.929 . S
C345 O358 1.271 . S
C345 O359 1.251 . S
C346 O360 1.252 . S
C346 O361 1.272 . S
C347 Sm337 2.846 . S
C347 C348 1.506 . S
C347 O362 1.261 . S
C347 O363 1.242 . S
C348 C347 1.506 . S
C348 C349 1.358 . S
C348 C353 1.382 . S
C349 C348 1.358 . S
C349 C350 1.385 . S
C349 H372 0.930 . S
C350 C349 1.385 . S
C350 C351 1.395 . S
C350 H373 0.929 . S
C351 C350 1.395 . S
C351 C352 1.335 . S
C352 C351 1.335 . S
C352 C353 1.398 . S
C352 H374 0.930 . S
C353 C348 1.382 . S
C353 C352 1.398 . S
C353 H375 0.929 . S
C354 O364 1.271 . S
C354 O365 1.251 . S
C355 O366 1.252 . S
C355 O367 1.272 . S
O356 Sm336 2.543 . S
O356 C338 1.261 . S
O357 Sm336 2.450 . S
O357 C338 1.242 . S
O358 Sm336 2.681 . S
O358 Sm337 2.386 . S
O358 C345 1.271 . S
O359 Sm336 2.464 . S
O359 C345 1.251 . S
O360 Sm336 2.396 . S
O360 C346 1.252 . S
O361 Sm337 2.408 . S
O361 C346 1.272 . S
O362 Sm337 2.543 . S
O362 C347 1.261 . S
O363 Sm337 2.450 . S
O363 C347 1.242 . S
O364 Sm336 2.386 . S
O364 Sm337 2.681 . S
O364 C354 1.271 . S
O365 Sm337 2.464 . S
O365 C354 1.251 . S
O366 Sm337 2.396 . S
O366 C355 1.252 . S
O367 Sm336 2.408 . S
O367 C355 1.272 . S
H368 C340 0.930 . S
H369 C341 0.929 . S
H370 C343 0.930 1_554 S
H371 C344 0.929 . S
H372 C349 0.930 . S
H373 C350 0.929 . S
H374 C352 0.930 . S
H375 C353 0.929 . S
Sm376 C378 2.846 . S
Sm376 O396 2.543 . S
Sm376 O397 2.450 . S
Sm376 O398 2.681 1_655 S
Sm376 O399 2.464 . S
Sm376 O400 2.396 . S
Sm376 O404 2.386 . S
Sm376 O407 2.408 1_655 S
Sm377 C387 2.846 . S
Sm377 O398 2.386 . S
Sm377 O401 2.408 1_455 S
Sm377 O402 2.543 . S
Sm377 O403 2.450 . S
Sm377 O404 2.681 1_455 S
Sm377 O405 2.464 . S
Sm377 O406 2.396 . S
C378 Sm376 2.846 . S
C378 C379 1.506 . S
C378 O396 1.261 . S
C378 O397 1.242 . S
C379 C378 1.506 . S
C379 C380 1.358 . S
C379 C384 1.382 . S
C380 C379 1.358 . S
C380 C381 1.385 1_556 S
C380 H408 0.930 . S
C381 C380 1.385 1_554 S
C381 C382 1.395 . S
C381 H409 0.929 . S
C382 C381 1.395 . S
C382 C383 1.335 1_554 S
C383 C382 1.335 1_556 S
C383 C384 1.398 . S
C383 H410 0.929 1_556 S
C384 C379 1.382 . S
C384 C383 1.398 . S
C384 H411 0.929 . S
C385 O398 1.265 1_655 S
C385 O399 1.262 . S
C386 O400 1.252 . S
C386 O401 1.272 . S
C387 Sm377 2.846 . S
C387 C388 1.506 . S
C387 O402 1.261 . S
C387 O403 1.242 . S
C388 C387 1.506 . S
C388 C389 1.358 . S
C388 C393 1.382 . S
C389 C388 1.358 . S
C389 C390 1.385 . S
C389 H412 0.930 . S
C390 C389 1.385 . S
C390 C391 1.395 . S
C390 H413 0.929 . S
C391 C390 1.395 . S
C391 C392 1.335 . S
C392 C391 1.335 . S
C392 C393 1.398 . S
C392 H414 0.930 . S
C393 C388 1.382 . S
C393 C392 1.398 . S
C393 H415 0.929 . S
C394 O404 1.262 1_455 S
C394 O405 1.267 . S
C395 O406 1.252 . S
C395 O407 1.272 . S
O396 Sm376 2.543 . S
O396 C378 1.261 . S
O397 Sm376 2.450 . S
O397 C378 1.242 . S
O398 Sm376 2.681 1_455 S
O398 Sm377 2.386 . S
O398 C385 1.265 1_455 S
O399 Sm376 2.464 . S
O399 C385 1.262 . S
O400 Sm376 2.396 . S
O400 C386 1.252 . S
O401 Sm377 2.408 1_655 S
O401 C386 1.272 . S
O402 Sm377 2.543 . S
O402 C387 1.261 . S
O403 Sm377 2.450 . S
O403 C387 1.242 . S
O404 Sm376 2.386 . S
O404 Sm377 2.681 1_655 S
O404 C394 1.262 1_655 S
O405 Sm377 2.464 . S
O405 C394 1.267 . S
O406 Sm377 2.396 . S
O406 C395 1.252 . S
O407 Sm376 2.408 1_455 S
O407 C395 1.272 . S
H408 C380 0.930 . S
H409 C381 0.929 . S
H410 C383 0.929 1_554 S
H411 C384 0.929 . S
H412 C389 0.930 . S
H413 C390 0.929 . S
H414 C392 0.930 . S
H415 C393 0.929 . S
H416 C422 0.930 . S
H417 C425 0.930 . S
H418 C426 0.930 . S
H419 C427 0.930 . S
H420 C430 0.930 . S
H421 C431 0.930 . S
C422 H416 0.930 . S
C422 C423 1.355 1_545 S
C422 C424 1.415 . S
C423 C422 1.355 1_565 S
C423 C425 1.419 . S
C424 C422 1.415 . S
C424 C429 1.425 1_545 S
C424 C431 1.409 . S
C425 H417 0.930 . S
C425 C423 1.419 . S
C425 C426 1.362 . S
C426 H418 0.930 . S
C426 C425 1.362 . S
C426 C429 1.409 . S
C427 H419 0.930 . S
C427 C428 1.355 1_565 S
C427 C429 1.415 . S
C428 C427 1.355 1_545 S
C428 C430 1.419 . S
C429 C424 1.425 1_565 S
C429 C426 1.409 . S
C429 C427 1.415 . S
C430 H420 0.930 . S
C430 C428 1.419 . S
C430 C431 1.362 . S
C431 H421 0.930 . S
C431 C424 1.409 . S
C431 C430 1.362 . S
H432 C438 0.930 . S
H433 C441 0.930 . S
H434 C442 0.930 . S
H435 C443 0.930 . S
H436 C446 0.930 . S
H437 C447 0.930 . S
C438 H432 0.930 . S
C438 C439 1.355 . S
C438 C440 1.415 . S
C439 C438 1.355 . S
C439 C441 1.419 . S
C440 C438 1.415 . S
C440 C445 1.425 . S
C440 C447 1.409 . S
C441 H433 0.930 . S
C441 C439 1.419 . S
C441 C442 1.362 . S
C442 H434 0.930 . S
C442 C441 1.362 . S
C442 C445 1.409 . S
C443 H435 0.930 . S
C443 C444 1.355 . S
C443 C445 1.415 . S
C444 C443 1.355 . S
C444 C446 1.419 . S
C445 C440 1.425 . S
C445 C442 1.409 . S
C445 C443 1.415 . S
C446 H436 0.930 . S
C446 C444 1.419 . S
C446 C447 1.362 . S
C447 H437 0.930 . S
C447 C440 1.409 . S
C447 C446 1.362 . S
H448 C454 0.930 . S
H449 C457 0.930 . S
H450 C458 0.930 . S
H451 C459 0.930 . S
H452 C462 0.930 . S
H453 C463 0.930 . S
C454 H448 0.930 . S
C454 C455 1.355 . S
C454 C456 1.415 . S
C455 C454 1.355 . S
C455 C457 1.419 . S
C456 C454 1.415 . S
C456 C461 1.425 . S
C456 C463 1.409 . S
C457 H449 0.930 . S
C457 C455 1.419 . S
C457 C458 1.362 . S
C458 H450 0.930 . S
C458 C457 1.362 . S
C458 C461 1.409 . S
C459 H451 0.930 . S
C459 C460 1.355 . S
C459 C461 1.415 . S
C460 C459 1.355 . S
C460 C462 1.419 . S
C461 C456 1.425 . S
C461 C458 1.409 . S
C461 C459 1.415 . S
C462 H452 0.930 . S
C462 C460 1.419 . S
C462 C463 1.362 . S
C463 H453 0.930 . S
C463 C456 1.409 . S
C463 C462 1.362 . S
H464 C470 0.930 . S
H465 C473 0.930 . S
H466 C474 0.930 . S
H467 C475 0.930 . S
H468 C478 0.929 1_655 S
H469 C479 0.931 . S
C470 H464 0.930 . S
C470 C471 1.355 . S
C470 C472 1.415 1_655 S
C471 C470 1.355 . S
C471 C473 1.419 1_655 S
C472 C470 1.415 1_455 S
C472 C477 1.425 . S
C472 C479 1.409 1_455 S
C473 H465 0.930 . S
C473 C471 1.419 1_455 S
C473 C474 1.362 . S
C474 H466 0.930 . S
C474 C473 1.362 . S
C474 C477 1.409 . S
C475 H467 0.930 . S
C475 C476 1.355 . S
C475 C477 1.415 . S
C476 C475 1.355 . S
C476 C478 1.420 . S
C477 C472 1.425 . S
C477 C474 1.409 . S
C477 C475 1.415 . S
C478 H468 0.929 1_455 S
C478 C476 1.420 . S
C478 C479 1.362 1_455 S
C479 H469 0.931 . S
C479 C472 1.409 1_655 S
C479 C478 1.362 1_655 S
H480 C486 0.930 . S
H481 C489 0.930 . S
H482 C490 0.930 . S
H483 C491 0.930 . S
H484 C494 0.930 . S
H485 C495 0.930 . S
C486 H480 0.930 . S
C486 C487 1.355 1_565 S
C486 C488 1.415 . S
C487 C486 1.355 1_545 S
C487 C489 1.419 . S
C488 C486 1.415 . S
C488 C493 1.425 1_565 S
C488 C495 1.409 . S
C489 H481 0.930 . S
C489 C487 1.419 . S
C489 C490 1.362 . S
C490 H482 0.930 . S
C490 C489 1.362 . S
C490 C493 1.409 . S
C491 H483 0.930 . S
C491 C492 1.355 1_545 S
C491 C493 1.415 1_556 S
C492 C491 1.355 1_565 S
C492 C494 1.419 . S
C493 C488 1.425 1_545 S
C493 C490 1.409 . S
C493 C491 1.415 1_554 S
C494 H484 0.930 . S
C494 C492 1.419 . S
C494 C495 1.362 1_556 S
C495 H485 0.930 . S
C495 C488 1.409 . S
C495 C494 1.362 1_554 S
H496 C502 0.930 . S
H497 C505 0.930 . S
H498 C506 0.930 . S
H499 C507 0.930 . S
H500 C510 0.930 . S
H501 C511 0.930 . S
C502 H496 0.930 . S
C502 C503 1.355 . S
C502 C504 1.415 . S
C503 C502 1.355 . S
C503 C505 1.419 . S
C504 C502 1.415 . S
C504 C509 1.425 . S
C504 C511 1.409 . S
C505 H497 0.930 . S
C505 C503 1.419 . S
C505 C506 1.362 . S
C506 H498 0.930 . S
C506 C505 1.362 . S
C506 C509 1.409 . S
C507 H499 0.930 . S
C507 C508 1.355 . S
C507 C509 1.415 1_556 S
C508 C507 1.355 . S
C508 C510 1.419 . S
C509 C504 1.425 . S
C509 C506 1.409 . S
C509 C507 1.415 1_554 S
C510 H500 0.930 . S
C510 C508 1.419 . S
C510 C511 1.362 1_556 S
C511 H501 0.930 . S
C511 C504 1.409 . S
C511 C510 1.362 1_554 S
H512 C518 0.930 . S
H513 C521 0.930 . S
H514 C522 0.930 . S
H515 C523 0.930 . S
H516 C526 0.930 . S
H517 C527 0.930 . S
C518 H512 0.930 . S
C518 C519 1.355 . S
C518 C520 1.415 . S
C519 C518 1.355 . S
C519 C521 1.419 . S
C520 C518 1.415 . S
C520 C525 1.425 . S
C520 C527 1.409 . S
C521 H513 0.930 . S
C521 C519 1.419 . S
C521 C522 1.362 . S
C522 H514 0.930 . S
C522 C521 1.362 . S
C522 C525 1.409 . S
C523 H515 0.930 . S
C523 C524 1.355 . S
C523 C525 1.415 1_556 S
C524 C523 1.355 . S
C524 C526 1.419 . S
C525 C520 1.425 . S
C525 C522 1.409 . S
C525 C523 1.415 1_554 S
C526 H516 0.930 . S
C526 C524 1.419 . S
C526 C527 1.362 1_556 S
C527 H517 0.930 . S
C527 C520 1.409 . S
C527 C526 1.362 1_554 S
H528 C534 0.930 . S
H529 C537 0.930 . S
H530 C538 0.930 . S
H531 C539 0.930 . S
H532 C542 0.930 . S
H533 C543 0.930 . S
C534 H528 0.930 . S
C534 C535 1.355 1_455 S
C534 C536 1.415 . S
C535 C534 1.355 1_655 S
C535 C537 1.419 . S
C536 C534 1.415 . S
C536 C541 1.425 1_455 S
C536 C543 1.409 . S
C537 H529 0.930 . S
C537 C535 1.419 . S
C537 C538 1.362 . S
C538 H530 0.930 . S
C538 C537 1.362 . S
C538 C541 1.409 . S
C539 H531 0.930 . S
C539 C540 1.348 1_654 S
C539 C541 1.415 . S
C540 C539 1.348 1_456 S
C540 C542 1.428 . S
C541 C536 1.425 1_655 S
C541 C538 1.409 . S
C541 C539 1.415 . S
C542 H532 0.930 . S
C542 C540 1.428 . S
C542 C543 1.362 1_556 S
C543 H533 0.930 . S
C543 C536 1.409 . S
C543 C542 1.362 1_554 S
H544 C550 0.930 . S
H545 C553 0.930 . S
H546 C554 0.930 . S
H547 C555 0.930 . S
H548 C558 0.930 . S
H549 C559 0.930 1_455 S
C550 H544 0.930 . S
C550 C551 1.354 . S
C550 C552 1.415 1_455 S
C551 C550 1.354 . S
C551 C553 1.423 1_455 S
C552 C550 1.415 1_655 S
C552 C557 1.425 . S
C552 C559 1.409 . S
C553 H545 0.930 . S
C553 C551 1.423 1_655 S
C553 C554 1.362 . S
C554 H546 0.930 . S
C554 C553 1.362 . S
C554 C557 1.409 . S
C555 H547 0.930 . S
C555 C556 1.355 . S
C555 C557 1.415 . S
C556 C555 1.355 . S
C556 C558 1.419 . S
C557 C552 1.425 . S
C557 C554 1.409 . S
C557 C555 1.415 . S
C558 H548 0.930 . S
C558 C556 1.419 . S
C558 C559 1.362 . S
C559 H549 0.930 1_655 S
C559 C552 1.409 . S
C559 C558 1.362 . S
H560 C566 0.930 . S
H561 C569 0.930 . S
H562 C570 0.930 . S
H563 C571 0.930 . S
H564 C574 0.930 . S
H565 C575 0.930 . S
C566 H560 0.930 . S
C566 C567 1.354 1_545 S
C566 C568 1.415 1_545 S
C567 C566 1.354 1_565 S
C567 C569 1.422 . S
C568 C566 1.415 1_565 S
C568 C573 1.425 . S
C568 C575 1.409 1_565 S
C569 H561 0.930 . S
C569 C567 1.422 . S
C569 C570 1.362 . S
C570 H562 0.930 . S
C570 C569 1.362 . S
C570 C573 1.409 . S
C571 H563 0.930 . S
C571 C572 1.355 . S
C571 C573 1.415 . S
C572 C571 1.355 . S
C572 C574 1.419 . S
C573 C568 1.425 . S
C573 C570 1.409 . S
C573 C571 1.415 . S
C574 H564 0.930 . S
C574 C572 1.419 . S
C574 C575 1.362 1_565 S
C575 H565 0.930 . S
C575 C568 1.409 1_545 S
C575 C574 1.362 1_545 S
H576 C582 0.930 . S
H577 C585 0.930 . S
H578 C586 0.930 . S
H579 C587 0.930 . S
H580 C590 0.930 . S
H581 C591 0.930 . S
C582 H576 0.930 . S
C582 C583 1.355 . S
C582 C584 1.415 . S
C583 C582 1.355 . S
C583 C585 1.419 . S
C584 C582 1.415 . S
C584 C589 1.425 . S
C584 C591 1.409 . S
C585 H577 0.930 . S
C585 C583 1.419 . S
C585 C586 1.362 . S
C586 H578 0.930 . S
C586 C585 1.362 . S
C586 C589 1.409 . S
C587 H579 0.930 . S
C587 C588 1.355 . S
C587 C589 1.415 . S
C588 C587 1.355 . S
C588 C590 1.419 . S
C589 C584 1.425 . S
C589 C586 1.409 . S
C589 C587 1.415 . S
C590 H580 0.930 . S
C590 C588 1.419 . S
C590 C591 1.362 . S
C591 H581 0.930 . S
C591 C584 1.409 . S
C591 C590 1.362 . S
H592 C598 0.930 . S
H593 C601 0.930 . S
H594 C602 0.930 . S
H595 C603 0.930 . S
H596 C606 0.930 . S
H597 C607 0.930 . S
C598 H592 0.930 . S
C598 C599 1.355 . S
C598 C600 1.415 . S
C599 C598 1.355 . S
C599 C601 1.419 . S
C600 C598 1.415 . S
C600 C605 1.425 . S
C600 C607 1.409 . S
C601 H593 0.930 . S
C601 C599 1.419 . S
C601 C602 1.362 . S
C602 H594 0.930 . S
C602 C601 1.362 . S
C602 C605 1.409 . S
C603 H595 0.930 . S
C603 C604 1.355 . S
C603 C605 1.415 . S
C604 C603 1.355 . S
C604 C606 1.419 . S
C605 C600 1.425 . S
C605 C602 1.409 . S
C605 C603 1.415 . S
C606 H596 0.930 . S
C606 C604 1.419 . S
C606 C607 1.362 . S
C607 H597 0.930 . S
C607 C600 1.409 . S
C607 C606 1.362 . S
H608 C614 0.930 . S
H609 C617 0.930 . S
H610 C618 0.930 . S
H611 C619 0.930 . S
H612 C622 0.930 1_556 S
H613 C623 0.902 1_655 S
C614 H608 0.930 . S
C614 C615 1.353 1_655 S
C614 C616 1.415 1_655 S
C615 C614 1.353 1_455 S
C615 C617 1.424 . S
C616 C614 1.415 1_455 S
C616 C621 1.425 . S
C616 C623 1.418 . S
C617 H609 0.930 . S
C617 C615 1.424 . S
C617 C618 1.362 . S
C618 H610 0.930 . S
C618 C617 1.362 . S
C618 C621 1.409 . S
C619 H611 0.930 . S
C619 C620 1.355 . S
C619 C621 1.415 . S
C620 C619 1.355 . S
C620 C622 1.419 . S
C621 C616 1.425 . S
C621 C618 1.409 . S
C621 C619 1.415 . S
C622 H612 0.930 1_554 S
C622 C620 1.419 . S
C622 C623 1.381 . S
C623 H613 0.902 1_455 S
C623 C616 1.418 . S
C623 C622 1.381 . S
H624 C630 0.930 . S
H625 C633 0.930 . S
H626 C634 0.930 . S
H627 C635 0.930 . S
H628 C638 0.930 1_556 S
H629 C639 0.930 . S
C630 H624 0.930 . S
C630 C631 1.355 1_545 S
C630 C632 1.415 . S
C631 C630 1.355 1_565 S
C631 C633 1.419 . S
C632 C630 1.415 . S
C632 C637 1.425 . S
C632 C639 1.409 . S
C633 H625 0.930 . S
C633 C631 1.419 . S
C633 C634 1.362 . S
C634 H626 0.930 . S
C634 C633 1.362 . S
C634 C637 1.409 1_565 S
C635 H627 0.930 . S
C635 C636 1.355 . S
C635 C637 1.415 . S
C636 C635 1.355 . S
C636 C638 1.419 . S
C637 C632 1.425 . S
C637 C634 1.409 1_545 S
C637 C635 1.415 . S
C638 H628 0.930 1_554 S
C638 C636 1.419 . S
C638 C639 1.362 . S
C639 H629 0.930 . S
C639 C632 1.409 . S
C639 C638 1.362 . S
H640 C646 0.930 . S
H641 C649 0.930 . S
H642 C650 0.930 . S
H643 C651 0.930 . S
H644 C654 0.930 . S
H645 C655 0.930 . S
C646 H640 0.930 . S
C646 C647 1.355 . S
C646 C648 1.415 . S
C647 C646 1.355 . S
C647 C649 1.419 . S
C648 C646 1.415 . S
C648 C653 1.425 . S
C648 C655 1.409 . S
C649 H641 0.930 . S
C649 C647 1.419 . S
C649 C650 1.362 . S
C650 H642 0.930 . S
C650 C649 1.362 . S
C650 C653 1.409 . S
C651 H643 0.930 . S
C651 C652 1.355 . S
C651 C653 1.415 . S
C652 C651 1.355 . S
C652 C654 1.419 . S
C653 C648 1.425 . S
C653 C650 1.409 . S
C653 C651 1.415 . S
C654 H644 0.930 . S
C654 C652 1.419 . S
C654 C655 1.362 . S
C655 H645 0.930 . S
C655 C648 1.409 . S
C655 C654 1.362 . S
H656 C662 0.930 . S
H657 C665 0.930 . S
H658 C666 0.930 . S
H659 C667 0.930 . S
H660 C670 0.930 . S
H661 C671 0.930 . S
C662 H656 0.930 . S
C662 C663 1.355 . S
C662 C664 1.415 . S
C663 C662 1.355 . S
C663 C665 1.419 . S
C664 C662 1.415 . S
C664 C669 1.425 . S
C664 C671 1.409 . S
C665 H657 0.930 . S
C665 C663 1.419 . S
C665 C666 1.362 . S
C666 H658 0.930 . S
C666 C665 1.362 . S
C666 C669 1.409 . S
C667 H659 0.930 . S
C667 C668 1.355 . S
C667 C669 1.415 . S
C668 C667 1.355 . S
C668 C670 1.419 . S
C669 C664 1.425 . S
C669 C666 1.409 . S
C669 C667 1.415 . S
C670 H660 0.930 . S
C670 C668 1.419 . S
C670 C671 1.362 . S
C671 H661 0.930 . S
C671 C664 1.409 . S
C671 C670 1.362 . S
H672 C678 0.930 . S
H673 C681 0.930 . S
H674 C682 0.930 . S
H675 C683 0.930 . S
H676 C686 0.930 . S
H677 C687 0.930 . S
C678 H672 0.930 . S
C678 C679 1.355 . S
C678 C680 1.415 . S
C679 C678 1.355 . S
C679 C681 1.419 1_455 S
C680 C678 1.415 . S
C680 C685 1.425 1_455 S
C680 C687 1.409 . S
C681 H673 0.930 . S
C681 C679 1.419 1_655 S
C681 C682 1.362 . S
C682 H674 0.930 . S
C682 C681 1.362 . S
C682 C685 1.409 . S
C683 H675 0.930 . S
C683 C684 1.355 1_655 S
C683 C685 1.415 . S
C684 C683 1.355 1_455 S
C684 C686 1.419 . S
C685 C680 1.425 1_655 S
C685 C682 1.409 . S
C685 C683 1.415 . S
C686 H676 0.930 . S
C686 C684 1.419 . S
C686 C687 1.362 . S
C687 H677 0.930 . S
C687 C680 1.409 . S
C687 C686 1.362 . S
H688 C694 0.930 . S
H689 C697 0.930 . S
H690 C698 0.930 . S
H691 C699 0.930 . S
H692 C702 0.930 . S
H693 C703 0.930 . S
C694 H688 0.930 . S
C694 C695 1.355 . S
C694 C696 1.415 . S
C695 C694 1.355 . S
C695 C697 1.419 1_545 S
C696 C694 1.415 . S
C696 C701 1.425 1_545 S
C696 C703 1.409 . S
C697 H689 0.930 . S
C697 C695 1.419 1_565 S
C697 C698 1.362 . S
C698 H690 0.930 . S
C698 C697 1.362 . S
C698 C701 1.409 . S
C699 H691 0.930 . S
C699 C700 1.355 1_565 S
C699 C701 1.415 . S
C700 C699 1.355 1_545 S
C700 C702 1.419 . S
C701 C696 1.425 1_565 S
C701 C698 1.409 . S
C701 C699 1.415 . S
C702 H692 0.930 . S
C702 C700 1.419 . S
C702 C703 1.362 . S
C703 H693 0.930 . S
C703 C696 1.409 . S
C703 C702 1.362 . S
H704 C710 0.930 . S
H705 C713 0.930 . S
H706 C714 0.930 . S
H707 C715 0.930 . S
H708 C718 0.930 . S
H709 C719 0.930 . S
C710 H704 0.930 . S
C710 C711 1.355 . S
C710 C712 1.415 . S
C711 C710 1.355 . S
C711 C713 1.419 . S
C712 C710 1.415 . S
C712 C717 1.425 . S
C712 C719 1.409 . S
C713 H705 0.930 . S
C713 C711 1.419 . S
C713 C714 1.362 . S
C714 H706 0.930 . S
C714 C713 1.362 . S
C714 C717 1.409 . S
C715 H707 0.930 . S
C715 C716 1.355 . S
C715 C717 1.415 . S
C716 C715 1.355 . S
C716 C718 1.419 . S
C717 C712 1.425 . S
C717 C714 1.409 . S
C717 C715 1.415 . S
C718 H708 0.930 . S
C718 C716 1.419 . S
C718 C719 1.362 . S
C719 H709 0.930 . S
C719 C712 1.409 . S
C719 C718 1.362 . S
H720 C726 0.930 . S
H721 C729 0.930 . S
H722 C730 0.930 . S
H723 C731 0.930 . S
H724 C734 0.930 . S
H725 C735 0.930 . S
C726 H720 0.930 . S
C726 C727 1.355 . S
C726 C728 1.415 . S
C727 C726 1.355 . S
C727 C729 1.419 . S
C728 C726 1.415 . S
C728 C733 1.425 . S
C728 C735 1.409 . S
C729 H721 0.930 . S
C729 C727 1.419 . S
C729 C730 1.362 . S
C730 H722 0.930 . S
C730 C729 1.362 . S
C730 C733 1.409 . S
C731 H723 0.930 . S
C731 C732 1.355 . S
C731 C733 1.415 . S
C732 C731 1.355 . S
C732 C734 1.419 . S
C733 C728 1.425 . S
C733 C730 1.409 . S
C733 C731 1.415 . S
C734 H724 0.930 . S
C734 C732 1.419 . S
C734 C735 1.362 . S
C735 H725 0.930 . S
C735 C728 1.409 . S
C735 C734 1.362 . S
H736 C742 0.930 . S
H737 C745 0.930 . S
H738 C746 0.930 . S
H739 C747 0.930 . S
H740 C750 0.930 . S
H741 C751 0.930 . S
C742 H736 0.930 . S
C742 C743 1.355 . S
C742 C744 1.415 . S
C743 C742 1.355 . S
C743 C745 1.419 1_655 S
C744 C742 1.415 . S
C744 C749 1.425 1_655 S
C744 C751 1.409 . S
C745 H737 0.930 . S
C745 C743 1.419 1_455 S
C745 C746 1.362 . S
C746 H738 0.930 . S
C746 C745 1.362 . S
C746 C749 1.409 . S
C747 H739 0.930 . S
C747 C748 1.355 1_455 S
C747 C749 1.415 . S
C748 C747 1.355 1_655 S
C748 C750 1.419 . S
C749 C744 1.425 1_455 S
C749 C746 1.409 . S
C749 C747 1.415 . S
C750 H740 0.930 . S
C750 C748 1.419 . S
C750 C751 1.362 . S
C751 H741 0.930 . S
C751 C744 1.409 . S
C751 C750 1.362 . S
H752 C758 0.930 . S
H753 C761 0.930 . S
H754 C762 0.930 . S
H755 C763 0.930 . S
H756 C766 0.930 . S
H757 C767 0.930 . S
C758 H752 0.930 . S
C758 C759 1.386 . S
C758 C760 1.415 . S
C759 C758 1.386 . S
C759 C761 1.385 1_565 S
C760 C758 1.415 . S
C760 C765 1.425 1_565 S
C760 C767 1.409 . S
C761 H753 0.930 . S
C761 C759 1.385 1_545 S
C761 C762 1.362 . S
C762 H754 0.930 . S
C762 C761 1.362 . S
C762 C765 1.409 . S
C763 H755 0.930 . S
C763 C764 1.355 1_545 S
C763 C765 1.415 . S
C764 C763 1.355 1_565 S
C764 C766 1.419 . S
C765 C760 1.425 1_545 S
C765 C762 1.409 . S
C765 C763 1.415 . S
C766 H756 0.930 . S
C766 C764 1.419 . S
C766 C767 1.362 . S
C767 H757 0.930 . S
C767 C760 1.409 . S
C767 C766 1.362 . S
H768 C774 0.930 . S
H769 C777 0.930 . S
H770 C778 0.930 . S
H771 C779 0.930 . S
H772 C782 0.930 . S
H773 C783 0.930 . S
C774 H768 0.930 . S
C774 C775 1.355 . S
C774 C776 1.415 . S
C775 C774 1.355 . S
C775 C777 1.419 . S
C776 C774 1.415 . S
C776 C781 1.425 . S
C776 C783 1.409 . S
C777 H769 0.930 . S
C777 C775 1.419 . S
C777 C778 1.362 . S
C778 H770 0.930 . S
C778 C777 1.362 . S
C778 C781 1.409 . S
C779 H771 0.930 . S
C779 C780 1.355 . S
C779 C781 1.415 . S
C780 C779 1.355 . S
C780 C782 1.419 . S
C781 C776 1.425 . S
C781 C778 1.409 . S
C781 C779 1.415 . S
C782 H772 0.930 . S
C782 C780 1.419 . S
C782 C783 1.362 . S
C783 H773 0.930 . S
C783 C776 1.409 . S
C783 C782 1.362 . S
H784 C790 0.930 . S
H785 C793 0.930 . S
H786 C794 0.930 . S
H787 C795 0.930 . S
H788 C798 0.930 . S
H789 C799 0.930 . S
C790 H784 0.930 . S
C790 C791 1.355 . S
C790 C792 1.415 . S
C791 C790 1.355 . S
C791 C793 1.419 . S
C792 C790 1.415 . S
C792 C797 1.425 . S
C792 C799 1.409 . S
C793 H785 0.930 . S
C793 C791 1.419 . S
C793 C794 1.362 . S
C794 H786 0.930 . S
C794 C793 1.362 . S
C794 C797 1.409 . S
C795 H787 0.930 . S
C795 C796 1.355 . S
C795 C797 1.415 . S
C796 C795 1.355 . S
C796 C798 1.419 . S
C797 C792 1.425 . S
C797 C794 1.409 . S
C797 C795 1.415 . S
C798 H788 0.930 . S
C798 C796 1.419 . S
C798 C799 1.362 . S
C799 H789 0.930 . S
C799 C792 1.409 . S
C799 C798 1.362 . S
C423 C215 2.105 1_565 S
C428 C265 2.328 1_545 S
C444 C305 2.334 . S
C439 C247 2.081 . S
C460 C345 2.346 . S
C455 C151 2.101 . S
C476 C385 2.341 1_455 S
C471 C183 2.160 1_655 S
C492 C274 2.328 1_565 S
C487 C87 2.082 . S
C503 C119 2.119 . S
C508 C314 2.352 . S
C519 C23 2.140 . S
C524 C354 2.358 . S
C535 C55 2.161 1_655 S
C540 C394 2.330 . S
C556 C271 0.512 . S
C551 C189 0.556 . S
C572 C311 0.512 . S
C567 C221 0.537 1_565 S
C588 C351 0.674 . S
C583 C253 0.578 . S
C599 C157 0.518 . S
C604 C391 0.652 . S
C615 C61 0.528 . S
C620 C262 0.502 . S
C636 C302 0.666 . S
C631 C93 0.692 1_565 S
C652 C342 0.543 . S
C647 C125 0.600 . S
C663 C29 0.537 . S
C668 C382 0.501 . S
C679 C177 2.680 . S
C684 C275 3.015 . S
C695 C209 2.646 . S
C700 C315 2.989 . S
C716 C355 2.964 . S
C711 C241 2.625 . S
C732 C395 2.986 . S
C727 C145 2.584 . S
C743 C49 2.651 1_655 S
C748 C266 3.021 . S
C764 C306 2.991 . S
C759 C81 2.637 1_565 S
C780 C346 2.976 . S
C775 C113 2.671 . S
C791 C17 2.713 . S
C796 C386 3.002 . S
