# Generated by pormake.
# Topology wbl, (4,4)-cn, num edge types: 1
# Building blocks:
#     Node 0, Type 0, BuildingBlock: NAWXER_clean_linker_0, # of connection points: 4
#     Node 1, Type 0, BuildingBlock: NAWXER_clean_linker_0, # of connection points: 4
#     Node 2, Type 0, BuildingBlock: NAWXER_clean_linker_0, # of connection points: 4
#     Node 3, Type 0, BuildingBlock: NAWXER_clean_linker_0, # of connection points: 4
#     Node 4, Type 0, BuildingBlock: NAWXER_clean_linker_0, # of connection points: 4
#     Node 5, Type 0, BuildingBlock: NAWXER_clean_linker_0, # of connection points: 4
#     Node 6, Type 0, BuildingBlock: NAWXER_clean_linker_0, # of connection points: 4
#     Node 7, Type 0, BuildingBlock: NAWXER_clean_linker_0, # of connection points: 4
#     Node 8, Type 1, BuildingBlock: QUQFOY_clean_sbu_3, # of connection points: 4
#     Node 9, Type 1, BuildingBlock: QUQFOY_clean_sbu_3, # of connection points: 4
#     Node 10, Type 1, BuildingBlock: QUQFOY_clean_sbu_3, # of connection points: 4
#     Node 11, Type 1, BuildingBlock: QUQFOY_clean_sbu_3, # of connection points: 4
#     Node 12, Type 1, BuildingBlock: QUQFOY_clean_sbu_3, # of connection points: 4
#     Node 13, Type 1, BuildingBlock: QUQFOY_clean_sbu_3, # of connection points: 4
#     Node 14, Type 1, BuildingBlock: QUQFOY_clean_sbu_3, # of connection points: 4
#     Node 15, Type 1, BuildingBlock: QUQFOY_clean_sbu_3, # of connection points: 4
#     Edge 16, Type (0, 1), BuildingBlock: OJICUG_clean_linker_0, # of connection points: 2
#     Edge 17, Type (0, 1), BuildingBlock: OJICUG_clean_linker_0, # of connection points: 2
#     Edge 18, Type (0, 1), BuildingBlock: OJICUG_clean_linker_0, # of connection points: 2
#     Edge 19, Type (0, 1), BuildingBlock: OJICUG_clean_linker_0, # of connection points: 2
#     Edge 20, Type (0, 1), BuildingBlock: OJICUG_clean_linker_0, # of connection points: 2
#     Edge 21, Type (0, 1), BuildingBlock: OJICUG_clean_linker_0, # of connection points: 2
#     Edge 22, Type (0, 1), BuildingBlock: OJICUG_clean_linker_0, # of connection points: 2
#     Edge 23, Type (0, 1), BuildingBlock: OJICUG_clean_linker_0, # of connection points: 2
#     Edge 24, Type (0, 1), BuildingBlock: OJICUG_clean_linker_0, # of connection points: 2
#     Edge 25, Type (0, 1), BuildingBlock: OJICUG_clean_linker_0, # of connection points: 2
#     Edge 26, Type (0, 1), BuildingBlock: OJICUG_clean_linker_0, # of connection points: 2
#     Edge 27, Type (0, 1), BuildingBlock: OJICUG_clean_linker_0, # of connection points: 2
#     Edge 28, Type (0, 1), BuildingBlock: OJICUG_clean_linker_0, # of connection points: 2
#     Edge 29, Type (0, 1), BuildingBlock: OJICUG_clean_linker_0, # of connection points: 2
#     Edge 30, Type (0, 1), BuildingBlock: OJICUG_clean_linker_0, # of connection points: 2
#     Edge 31, Type (0, 1), BuildingBlock: OJICUG_clean_linker_0, # of connection points: 2
#     Edge 32, Type (0, 1), BuildingBlock: OJICUG_clean_linker_0, # of connection points: 2
#     Edge 33, Type (0, 1), BuildingBlock: OJICUG_clean_linker_0, # of connection points: 2
#     Edge 34, Type (0, 1), BuildingBlock: OJICUG_clean_linker_0, # of connection points: 2
#     Edge 35, Type (0, 1), BuildingBlock: OJICUG_clean_linker_0, # of connection points: 2
#     Edge 36, Type (0, 1), BuildingBlock: OJICUG_clean_linker_0, # of connection points: 2
#     Edge 37, Type (0, 1), BuildingBlock: OJICUG_clean_linker_0, # of connection points: 2
#     Edge 38, Type (0, 1), BuildingBlock: OJICUG_clean_linker_0, # of connection points: 2
#     Edge 39, Type (0, 1), BuildingBlock: OJICUG_clean_linker_0, # of connection points: 2
#     Edge 40, Type (0, 1), BuildingBlock: OJICUG_clean_linker_0, # of connection points: 2
#     Edge 41, Type (0, 1), BuildingBlock: OJICUG_clean_linker_0, # of connection points: 2
#     Edge 42, Type (0, 1), BuildingBlock: OJICUG_clean_linker_0, # of connection points: 2
#     Edge 43, Type (0, 1), BuildingBlock: OJICUG_clean_linker_0, # of connection points: 2
#     Edge 44, Type (0, 1), BuildingBlock: OJICUG_clean_linker_0, # of connection points: 2
#     Edge 45, Type (0, 1), BuildingBlock: OJICUG_clean_linker_0, # of connection points: 2
#     Edge 46, Type (0, 1), BuildingBlock: OJICUG_clean_linker_0, # of connection points: 2
#     Edge 47, Type (0, 1), BuildingBlock: OJICUG_clean_linker_0, # of connection points: 2
# Relax obj value: 0.171
# Max RMSD: 0.175
# Mean RMSD: 0.146
data_MOF--net-wbl--node1-QUQFOY_clean_sbu_3--node2-NAWXER_clean_linker_0--edge1-OJICUG_clean_linker_0
_symmetry_space_group_name_H-M    P1
_symmetry_Int_Tables_number       1
_symmetry_cell_setting            triclinic
loop_
_symmetry_equiv_pos_as_xyz
'x, y, z'
_cell_length_a     35.563848
_cell_length_b     35.846391
_cell_length_c     61.042519
_cell_angle_alpha  90.657241
_cell_angle_beta   90.334471
_cell_angle_gamma 89.991499
loop_
_atom_site_label
_atom_site_type_symbol
_atom_site_fract_x
_atom_site_fract_y
_atom_site_fract_z
_atom_type_partial_charge
C0 C 0.12738 0.97525 0.38045 0.0
C1 C 0.1505 -0.00316 0.39448 0.0
C2 C 0.11061 -0.00882 0.36198 0.0
C3 C 0.11639 0.02898 0.35734 0.0
C4 C 0.15866 0.03384 0.38858 0.0
C5 C 0.14125 0.0499 0.37042 0.0
C6 C 0.09097 0.04832 0.34205 0.0
C7 C 0.17794 -0.00487 0.29969 0.0
C8 C 0.16449 0.96576 0.28634 0.0
C9 C 0.15297 0.01874 0.31062 0.0
C10 C 0.11403 0.0135 0.30844 0.0
C11 C 0.12549 0.96061 0.28406 0.0
C12 C 0.10044 0.98459 0.29485 0.0
C13 C 0.0876 0.03906 0.31962 0.0
C14 C 0.96593 0.14734 0.29087 0.0
C15 C 0.94264 0.12287 0.27875 0.0
C16 C -0.00337 0.13365 0.30273 0.0
C17 C 0.00461 0.09527 0.30269 0.0
C18 C 0.95181 0.08464 0.27809 0.0
C19 C 0.98265 0.07108 0.28977 0.0
C20 C 0.03475 0.07982 0.31669 0.0
C21 C 0.94656 0.1117 0.367 0.0
C22 C 0.95882 0.13657 0.38353 0.0
C23 C 0.97169 0.09831 0.35127 0.0
C24 C 0.00944 0.10982 0.35169 0.0
C25 C -0.00412 0.15009 0.38294 0.0
C26 C 0.02103 0.13661 0.36724 0.0
C27 C 0.03808 0.0888 0.33919 0.0
H28 H 0.12016 0.94681 0.38446 0.0
H29 H 0.09093 0.97475 0.35228 0.0
H30 H 0.1772 0.05104 0.39855 0.0
H31 H 0.14591 0.07917 0.36714 0.0
H32 H 0.20785 -0.00047 0.30193 0.0
H33 H 0.16413 0.04137 0.32062 0.0
H34 H 0.11441 0.93828 0.27381 0.0
H35 H 0.07047 0.9803 0.29279 0.0
H36 H 0.96016 0.17699 0.29144 0.0
H37 H 0.01378 0.15296 0.31221 0.0
H38 H 0.93427 0.06476 0.26931 0.0
H39 H 0.98833 0.04138 0.28949 0.0
H40 H 0.91809 0.10096 0.36701 0.0
H41 H 0.96221 0.07695 0.33983 0.0
H42 H 0.00629 0.16892 0.39558 0.0
H43 H 0.05013 0.14549 0.36803 0.0
N44 N 0.06616 0.07281 0.35091 0.0
N45 N 0.05953 0.05509 0.30774 0.0
C46 C 0.893 0.50773 0.61967 0.0
C47 C 0.90498 0.47061 0.6218 0.0
C48 C 0.90848 0.53041 0.60361 0.0
C49 C 0.93552 0.51612 0.58916 0.0
C50 C 0.93035 0.4557 0.60644 0.0
C51 C 0.94548 0.4783 0.59019 0.0
C52 C 0.9583 0.54219 0.57629 0.0
C53 C 0.94941 0.45209 0.52019 0.0
C54 C 0.91035 0.44612 0.5216 0.0
C55 C 0.96575 0.48414 0.52926 0.0
C56 C 0.94354 0.51046 0.54029 0.0
C57 C 0.88789 0.47416 0.53123 0.0
C58 C 0.9044 0.5059 0.54068 0.0
C59 C 0.96204 0.54006 0.55332 0.0
C60 C 0.09055 0.63105 0.52632 0.0
C61 C 0.07851 0.66813 0.52349 0.0
C62 C 0.06687 0.60491 0.53606 0.0
C63 C 0.03099 0.61556 0.54311 0.0
C64 C 0.04196 0.67811 0.53007 0.0
C65 C 0.01843 0.65202 0.53973 0.0
C66 C 0.00685 0.58939 0.55485 0.0
C67 C 0.04996 0.66487 0.61322 0.0
C68 C 0.07347 0.64276 0.62636 0.0
C69 C 0.02883 0.64844 0.5962 0.0
C70 C 0.0316 0.60995 0.59204 0.0
C71 C 0.0777 0.60474 0.62124 0.0
C72 C 0.05693 0.58852 0.60425 0.0
C73 C 0.00446 0.5901 0.57783 0.0
H74 H 0.87384 0.52005 0.63144 0.0
H75 H 0.90088 0.55967 0.60323 0.0
H76 H 0.93998 0.42713 0.60773 0.0
H77 H 0.96686 0.46692 0.57945 0.0
H78 H 0.96785 0.4311 0.51326 0.0
H79 H -0.00394 0.48716 0.52891 0.0
H80 H 0.85767 0.47107 0.53215 0.0
H81 H 0.88679 0.52623 0.54895 0.0
H82 H 0.11841 0.6224 0.5213 0.0
H83 H 0.07684 0.5767 0.53856 0.0
H84 H 0.03197 0.70651 0.52858 0.0
H85 H -0.00928 0.66057 0.54511 0.0
H86 H 0.04611 0.69421 0.61702 0.0
H87 H 0.00886 0.66526 0.58721 0.0
H88 H 0.09585 0.58721 0.63105 0.0
H89 H 0.05924 0.55872 0.60134 0.0
N90 N 0.9801 0.56667 0.58766 0.0
N91 N 0.98604 0.56399 0.54331 0.0
C92 C 0.53531 0.39819 0.87058 0.0
C93 C 0.57347 0.40763 0.87288 0.0
C94 C 0.51344 0.41444 0.85421 0.0
C95 C 0.52953 0.43969 0.83961 0.0
C96 C 0.59018 0.43065 0.85717 0.0
C97 C 0.56834 0.44651 0.84058 0.0
C98 C 0.50474 0.46491 0.82731 0.0
C99 C 0.58384 0.45067 0.76481 0.0
C100 C 0.58773 0.41162 0.76559 0.0
C101 C 0.55606 0.46879 0.77686 0.0
C102 C 0.53203 0.44848 0.79032 0.0
C103 C 0.56202 0.39111 0.77816 0.0
C104 C 0.53454 0.40944 0.79056 0.0
C105 C 0.5055 0.46898 0.80442 0.0
C106 C 0.41674 0.60928 0.7889 0.0
C107 C 0.39115 0.59623 0.77288 0.0
C108 C 0.43992 0.58427 0.80009 0.0
C109 C 0.4378 0.5459 0.79541 0.0
C110 C 0.3902 0.55782 0.76787 0.0
C111 C 0.41352 0.53303 0.77888 0.0
C112 C 0.46108 0.51865 0.80718 0.0
C113 C 0.3834 0.56575 0.86077 0.0
C114 C 0.40369 0.5797 0.87893 0.0
C115 C 0.40201 0.54603 0.84407 0.0
C116 C 0.44111 0.5406 0.8453 0.0
C117 C 0.44293 0.57573 0.87946 0.0
C118 C 0.46139 0.55631 0.86287 0.0
C119 C 0.4612 0.51527 0.83015 0.0
H120 H 0.52163 0.38086 0.88258 0.0
H121 H 0.48342 0.40928 0.85387 0.0
H122 H 0.61958 0.43828 0.85858 0.0
H123 H 0.58114 0.46645 0.8297 0.0
H124 H 0.60341 0.4677 0.75582 0.0
H125 H 0.55452 0.49898 0.77646 0.0
H126 H 0.56364 0.36099 0.77885 0.0
H127 H 0.51564 0.39324 0.80054 0.0
H128 H 0.41855 0.63871 0.79298 0.0
H129 H 0.4593 0.59483 0.81243 0.0
H130 H 0.37036 0.54649 0.75604 0.0
H131 H 0.4117 0.50352 0.77495 0.0
H132 H 0.35307 0.56838 0.86008 0.0
H133 H 0.38574 0.53364 0.83082 0.0
H134 H 0.45927 0.58671 0.89311 0.0
H135 H 0.49157 0.55256 0.8641 0.0
N136 N 0.48285 0.48836 0.83925 0.0
N137 N 0.48336 0.49547 0.79517 0.0
C138 C 0.46815 0.87897 0.03884 0.0
C139 C 0.43635 0.89137 0.02734 0.0
C140 C 0.4898 0.90396 0.0511 0.0
C141 C 0.48013 0.94184 0.05197 0.0
C142 C 0.42627 0.92918 0.02832 0.0
C143 C 0.44846 0.95446 0.04036 0.0
C144 C 0.50459 0.96813 0.06404 0.0
C145 C 0.44216 0.90824 0.11793 0.0
C146 C 0.46495 0.8907 0.1337 0.0
C147 C 0.45824 0.93027 0.10166 0.0
C148 C 0.49747 0.93473 0.10065 0.0
C149 C 0.50423 0.89426 0.13209 0.0
C150 C 0.52021 0.91593 0.11578 0.0
C151 C 0.51503 0.96256 0.08611 0.0
C152 C 0.6041 0.09449 0.11288 0.0
C153 C 0.62871 0.07606 0.12724 0.0
C154 C 0.58326 0.07412 0.09733 0.0
C155 C 0.58716 0.03516 0.09583 0.0
C156 C 0.63451 0.03754 0.12458 0.0
C157 C 0.61383 0.01729 0.10908 0.0
C158 C 0.55947 0.01209 0.08369 0.0
C159 C 0.62329 0.07433 0.03323 0.0
C160 C 0.60175 0.10318 0.024 0.0
C161 C 0.60602 0.04621 0.04522 0.0
C162 C 0.5669 0.04621 0.04801 0.0
C163 C 0.56234 0.1021 0.02621 0.0
C164 C 0.54509 0.07364 0.0379 0.0
C165 C 0.54868 0.01804 0.06176 0.0
H166 H 0.47623 0.84982 0.03832 0.0
H167 H 0.51451 0.89379 0.05962 0.0
H168 H 0.40178 0.93912 0.01951 0.0
H169 H 0.44086 0.98373 0.04073 0.0
H170 H 0.41184 0.90587 0.11852 0.0
H171 H 0.43986 0.94518 0.0906 0.0
H172 H 0.52279 0.88188 0.14411 0.0
H173 H 0.55051 0.9191 0.11551 0.0
H174 H 0.59892 0.12414 0.11473 0.0
H175 H 0.56227 0.08845 0.08764 0.0
H176 H 0.65364 0.02276 0.13529 0.0
H177 H 0.61724 0.98726 0.10822 0.0
H178 H 0.65357 0.07373 0.0315 0.0
H179 H 0.62325 0.0247 0.05253 0.0
H180 H 0.54476 0.12406 0.01971 0.0
H181 H 0.51482 0.07394 0.03982 0.0
N182 N 0.52159 -0.00417 0.05269 0.0
N183 N 0.54215 0.98471 0.09495 0.0
C184 C 0.0784 0.61534 0.88641 0.0
C185 C 0.09287 0.59321 0.8692 0.0
C186 C 0.05476 0.59972 0.90213 0.0
C187 C 0.04562 0.56159 0.90108 0.0
C188 C 0.08464 0.55482 0.86879 0.0
C189 C 0.06145 0.53928 0.88453 0.0
C190 C 0.01597 0.54528 0.91496 0.0
C191 C 0.10684 0.57472 0.96281 0.0
C192 C 0.09866 0.60714 0.975 0.0
C193 C 0.07885 0.55688 0.95061 0.0
C194 C 0.04213 0.57098 0.95053 0.0
C195 C 0.06185 0.6213 0.97498 0.0
C196 C 0.03353 0.60291 0.96304 0.0
C197 C 0.01284 0.55148 0.93777 0.0
C198 C 0.90543 0.43279 0.96345 0.0
C199 C 0.87593 0.45168 0.97407 0.0
C200 C 0.93276 0.45264 0.95217 0.0
C201 C 0.93137 0.4917 0.95152 0.0
C202 C 0.87543 0.49101 0.97391 0.0
C203 C 0.90316 0.51085 0.96288 0.0
C204 C 0.95893 0.51219 0.93846 0.0
C205 C 0.8753 0.48059 0.88341 0.0
C206 C 0.88862 0.45017 0.87099 0.0
C207 C 0.89823 0.49723 0.89943 0.0
C208 C 0.93489 0.48402 0.90286 0.0
C209 C 0.92439 0.4355 0.87555 0.0
C210 C 0.94756 0.45264 0.89119 0.0
C211 C 0.96192 0.50633 0.91576 0.0
H212 H 0.08439 0.64493 0.88738 0.0
H213 H 0.04225 0.61783 0.91439 0.0
H214 H 0.09443 0.53688 0.85563 0.0
H215 H 0.05468 0.50985 0.88325 0.0
H216 H 0.13516 0.56358 0.96236 0.0
H217 H 0.08583 0.53199 0.94125 0.0
H218 H 0.05505 0.64634 0.98424 0.0
H219 H 0.00516 0.61393 0.96323 0.0
H220 H 0.90718 0.40264 0.96359 0.0
H221 H 0.95481 0.43749 0.94372 0.0
H222 H 0.85285 0.50655 0.98158 0.0
H223 H 0.9018 0.54103 0.96252 0.0
H224 H 0.84783 0.49237 0.88009 0.0
H225 H 0.88827 0.52178 0.90815 0.0
H226 H 0.93539 0.41234 0.86599 0.0
H227 H 0.97596 0.4424 0.89351 0.0
N228 N -0.00975 0.52297 0.90487 0.0
N229 N 0.98441 0.53467 0.94877 0.0
C230 C 0.39778 0.57241 0.13642 0.0
C231 C 0.42073 0.59026 0.12098 0.0
C232 C 0.41366 0.54889 0.15219 0.0
C233 C 0.45275 0.54321 0.15288 0.0
C234 C 0.45984 0.58474 0.12208 0.0
C235 C 0.47556 0.56169 0.13782 0.0
C236 C 0.47071 0.51595 0.16769 0.0
C237 C 0.42335 0.60541 0.20958 0.0
C238 C 0.39756 0.59407 0.22543 0.0
C239 C 0.44521 0.57927 0.19853 0.0
C240 C 0.4407 0.54101 0.20243 0.0
C241 C 0.39388 0.55604 0.23014 0.0
C242 C 0.41523 0.52956 0.21857 0.0
C243 C 0.46413 0.51351 0.19048 0.0
C244 C 0.59449 0.4221 0.2199 0.0
C245 C 0.58025 0.38752 0.22672 0.0
C246 C 0.57104 0.44795 0.20971 0.0
C247 C 0.53281 0.44002 0.20645 0.0
C248 C 0.5414 0.38054 0.2243 0.0
C249 C 0.51785 0.40674 0.21438 0.0
C250 C 0.50974 0.46472 0.19274 0.0
C251 C 0.56203 0.38762 0.14009 0.0
C252 C 0.58411 0.40738 0.12516 0.0
C253 C 0.54227 0.40689 0.15646 0.0
C254 C 0.54484 0.44594 0.15806 0.0
C255 C 0.58909 0.44591 0.12803 0.0
C256 C 0.56962 0.46502 0.14436 0.0
C257 C 0.51665 0.46792 0.1702 0.0
H258 H 0.36757 0.57611 0.1361 0.0
H259 H 0.39538 0.53444 0.16341 0.0
H260 H 0.47849 0.59702 0.1102 0.0
H261 H 0.50577 0.55764 0.1379 0.0
H262 H 0.42753 0.63477 0.2063 0.0
H263 H 0.46609 0.58916 0.18714 0.0
H264 H 0.37475 0.54697 0.24275 0.0
H265 H 0.41195 0.50024 0.22222 0.0
H266 H 0.62399 0.42886 0.22191 0.0
H267 H 0.58296 0.47369 0.20372 0.0
H268 H 0.5294 0.3541 0.22902 0.0
H269 H 0.48841 0.40012 0.21183 0.0
H270 H 0.55766 0.35789 0.13797 0.0
H271 H 0.52273 0.39173 0.16658 0.0
H272 H 0.60611 0.46158 0.11669 0.0
H273 H 0.57188 0.49515 0.14529 0.0
N274 N 0.49678 0.49316 0.15864 0.0
N275 N 0.48374 0.48764 0.2022 0.0
C276 C 0.46713 0.91346 0.39103 0.0
C277 C 0.44364 0.928 0.37471 0.0
C278 C 0.48461 0.93741 0.40616 0.0
C279 C 0.47902 0.97614 0.40492 0.0
C280 C 0.43717 0.96652 0.37386 0.0
C281 C 0.45503 0.9905 0.38877 0.0
C282 C 0.50088 0.00194 0.419 0.0
C283 C 0.41557 0.94971 0.46152 0.0
C284 C 0.42889 0.93154 0.48023 0.0
C285 C 0.43954 0.97163 0.44918 0.0
C286 C 0.47781 0.97467 0.45477 0.0
C287 C 0.46681 0.93514 0.4863 0.0
C288 C 0.49122 0.95635 0.47353 0.0
C289 C 0.50303 -0.00096 0.44203 0.0
C290 C 0.60813 0.1257 0.46658 0.0
C291 C 0.63457 0.10627 0.47938 0.0
C292 C 0.58019 0.10637 0.45493 0.0
C293 C 0.57801 0.06736 0.45605 0.0
C294 C 0.63128 0.06723 0.48095 0.0
C295 C 0.60304 0.04809 0.4696 0.0
C296 C 0.55047 0.0461 0.44283 0.0
C297 C 0.63421 0.08233 0.39087 0.0
C298 C 0.61824 0.10326 0.37383 0.0
C299 C 0.61147 0.06729 0.40714 0.0
C300 C 0.57242 0.07304 0.40663 0.0
C301 C 0.57955 0.11115 0.37429 0.0
C302 C 0.55682 0.0959 0.39046 0.0
C303 C 0.54727 0.04978 0.41992 0.0
H304 H 0.4728 0.88379 0.39162 0.0
H305 H 0.50362 0.92588 0.41825 0.0
H306 H 0.4195 0.97812 0.36112 0.0
H307 H 0.45069 0.02031 0.38746 0.0
H308 H 0.38607 0.94838 0.45701 0.0
H309 H 0.42768 0.98709 0.43568 0.0
H310 H 0.47734 0.92193 0.50099 0.0
H311 H 0.52044 0.95881 0.47843 0.0
H312 H 0.60931 0.15577 0.4653 0.0
H313 H 0.56054 0.12181 0.44488 0.0
H314 H 0.65143 0.05108 0.49022 0.0
H315 H 0.60176 0.01796 0.47067 0.0
H316 H 0.66399 0.07597 0.39095 0.0
H317 H 0.62406 0.04905 0.41915 0.0
H318 H 0.56635 0.1268 0.36126 0.0
H319 H 0.52669 0.10027 0.38963 0.0
N320 N 0.52268 0.02746 0.40892 0.0
N321 N 0.52814 0.02098 0.45306 0.0
C322 C 0.13163 0.97193 0.65421 0.0
C323 C 0.11606 0.94261 0.64171 0.0
C324 C 0.10958 -0.00864 0.66935 0.0
C325 C 0.07165 0.9819 0.67201 0.0
C326 C 0.07894 0.93129 0.64564 0.0
C327 C 0.0567 0.95116 0.66054 0.0
C328 C 0.04636 0.00848 0.68299 0.0
C329 C 0.0655 0.93033 0.73947 0.0
C330 C 0.10423 0.93371 0.74394 0.0
C331 C 0.04659 0.95784 0.72789 0.0
C332 C 0.06597 0.98917 0.72052 0.0
C333 C 0.12313 0.96629 0.7375 0.0
C334 C 0.10405 -0.00611 0.72583 0.0
C335 C 0.04659 0.01476 0.70572 0.0
C336 C 0.92028 0.12478 0.71798 0.0
C337 C 0.93913 0.15403 0.72903 0.0
C338 C 0.9404 0.09457 0.70941 0.0
C339 C 0.97957 0.09304 0.71193 0.0
C340 C 0.97827 0.1514 0.73222 0.0
C341 C -0.0018 0.12097 0.72394 0.0
C342 C 0.00175 0.06335 0.70142 0.0
C343 C 0.96199 0.1369 0.64541 0.0
C344 C 0.94373 0.11734 0.62835 0.0
C345 C 0.97955 0.11747 0.6624 0.0
C346 C 0.9783 0.07826 0.66281 0.0
C347 C 0.94154 0.07829 0.62917 0.0
C348 C 0.95866 0.05897 0.64621 0.0
C349 C 0.00102 0.05661 0.67857 0.0
H350 H 0.16013 0.98124 0.65128 0.0
H351 H 0.12132 0.01552 0.67773 0.0
H352 H 0.06627 0.90908 0.63594 0.0
H353 H 0.02727 0.94394 0.66217 0.0
H354 H 0.05015 0.90538 0.74372 0.0
H355 H 0.01716 0.95385 0.72377 0.0
H356 H 0.15286 0.96985 0.74084 0.0
H357 H 0.11926 0.01816 0.72028 0.0
H358 H 0.8901 0.1255 0.71562 0.0
H359 H 0.92554 0.07278 0.70048 0.0
H360 H -0.00609 0.17359 0.74028 0.0
H361 H 0.02847 0.12012 0.72603 0.0
H362 H 0.9644 0.167 0.64498 0.0
H363 H -0.00447 0.13302 0.67458 0.0
H364 H 0.92736 0.06261 0.61628 0.0
H365 H 0.95749 0.02876 0.64609 0.0
N366 N 0.02347 0.02939 0.67026 0.0
N367 N 0.02425 0.04192 0.71425 0.0
C368 C 0.37741 0.65522 0.03945 0.0
O369 O 0.40574 0.65736 0.02697 0.0
Cd370 Cd 0.40364 0.66922 0.98858 0.0
O371 O 0.34429 0.66126 0.03223 0.0
Cd372 Cd 0.31679 0.68189 0.99666 0.0
C373 C 0.37206 0.75842 0.99389 0.0
O374 O 0.35041 0.63608 0.97504 0.0
O375 O 0.32013 0.67657 0.9561 0.0
O376 O 0.26336 0.64572 0.00809 0.0
C377 C 0.33937 0.64681 0.95641 0.0
O378 O 0.39734 0.73629 0.98685 0.0
C379 C 0.23857 0.66858 0.00158 0.0
O380 O 0.34058 0.74594 0.00046 0.0
O381 O 0.25025 0.69912 0.99374 0.0
C382 C 0.41488 0.83171 0.21601 0.0
O383 O 0.4405 0.81731 0.22779 0.0
Cd384 Cd 0.43498 0.80383 0.26608 0.0
O385 O 0.38239 0.83829 0.2239 0.0
Cd386 Cd 0.3508 0.82666 0.25949 0.0
C387 C 0.37133 0.73439 0.26107 0.0
O388 O 0.40082 0.85445 0.2816 0.0
O389 O 0.35608 0.82874 0.29976 0.0
O390 O 0.31345 0.88167 0.25157 0.0
C391 C 0.38556 0.84857 0.29991 0.0
O392 O 0.40333 0.74434 0.26846 0.0
C393 C 0.28231 0.86792 0.25752 0.0
O394 O 0.34775 0.75854 0.25439 0.0
O395 O 0.28251 0.83385 0.26302 0.0
C396 C 0.19117 0.94183 0.48054 0.0
O397 O 0.19936 0.96555 0.49546 0.0
Cd398 Cd 0.21674 0.95214 0.53247 0.0
O399 O 0.19085 0.90697 0.48466 0.0
Cd400 Cd 0.20268 0.86737 0.5176 0.0
C401 C 0.29286 0.89754 0.52075 0.0
O402 O 0.17097 0.90818 0.5434 0.0
O403 O 0.20011 0.86212 0.55813 0.0
O404 O 0.15266 0.82677 0.50404 0.0
C405 C 0.17872 0.8901 0.56049 0.0
O406 O 0.28017 0.92709 0.52981 0.0
C407 C 0.16973 0.79655 0.5083 0.0
O408 O 0.27061 0.87236 0.51357 0.0
O409 O 0.20309 0.79936 0.51568 0.0
C410 C 0.15312 0.64527 0.7879 0.0
O411 O 0.1583 0.6193 0.7739 0.0
Cd412 Cd 0.16971 0.62741 0.73559 0.0
O413 O 0.15593 0.67942 0.78254 0.0
Cd414 Cd 0.17555 0.71242 0.74884 0.0
C415 C 0.25629 0.66314 0.74332 0.0
O416 O 0.1316 0.67906 0.72536 0.0
O417 O 0.16896 0.71572 0.70832 0.0
O418 O 0.14025 0.7647 0.76383 0.0
C419 C 0.14089 0.69398 0.70752 0.0
O420 O 0.23692 0.63814 0.73353 0.0
C421 C 0.16396 0.78928 0.75826 0.0
O422 O 0.24052 0.6913 0.75219 0.0
O423 O 0.19379 0.77782 0.74905 0.0
C424 C 0.88624 0.15784 0.46679 0.0
O425 O 0.88281 0.12881 0.47836 0.0
Cd426 Cd 0.86579 0.12788 0.5162 0.0
O427 O 0.87909 0.19006 0.47481 0.0
Cd428 Cd 0.85526 0.21528 0.51029 0.0
C429 C 0.77725 0.16101 0.50924 0.0
O430 O 0.8989 0.17926 0.53203 0.0
O431 O 0.85832 0.20995 0.55089 0.0
O432 O 0.88901 0.27144 0.4998 0.0
C433 C 0.8871 0.18912 0.5507 0.0
O434 O 0.79783 0.13474 0.51638 0.0
C435 C 0.86457 0.29394 0.50729 0.0
O436 O 0.79144 0.19216 0.50386 0.0
O437 O 0.83528 0.27981 0.51562 0.0
C438 C 0.87374 0.40642 0.70583 0.0
O439 O 0.9007 0.40676 0.71955 0.0
Cd440 Cd 0.89599 0.3894 0.75717 0.0
O441 O 0.84116 0.39539 0.71144 0.0
Cd442 Cd 0.81458 0.3688 0.74551 0.0
C443 C 0.87599 0.2984 0.74768 0.0
O444 O 0.83906 0.4147 0.77181 0.0
O445 O 0.81876 0.36359 0.78556 0.0
O446 O 0.7548 0.39624 0.73486 0.0
C447 C 0.83014 0.39669 0.78873 0.0
O448 O 0.89793 0.3215 0.75726 0.0
C449 C 0.73512 0.36858 0.7407 0.0
O450 O 0.84495 0.30908 0.73943 0.0
O451 O 0.75263 0.34023 0.7477 0.0
C452 C 0.63196 0.38204 0.95948 0.0
O453 O 0.63159 0.41014 0.97235 0.0
Cd454 Cd 0.64747 0.41037 0.01051 0.0
O455 O 0.64176 0.35 0.96633 0.0
Cd456 Cd 0.66541 0.32437 0.00154 0.0
C457 C 0.73855 0.38487 0.00271 0.0
O458 O 0.62093 0.35549 0.0254 0.0
O459 O 0.66653 0.32788 0.04192 0.0
O460 O 0.63116 0.26827 0.99125 0.0
C461 C 0.63582 0.34563 0.0433 0.0
O462 O 0.71557 0.40882 0.01038 0.0
C463 C 0.65635 0.24578 0.9977 0.0
O464 O 0.72739 0.35267 0.99641 0.0
O465 O 0.68703 0.25993 0.00462 0.0
C466 C 0.68646 0.12794 0.28992 0.0
O467 O 0.69519 0.09902 0.27886 0.0
Cd468 Cd 0.71363 0.09899 0.24122 0.0
O469 O 0.6877 0.16015 0.28132 0.0
Cd470 Cd 0.70524 0.18731 0.24548 0.0
C471 C 0.79323 0.15109 0.24798 0.0
O472 O 0.6718 0.14105 0.22378 0.0
O473 O 0.70595 0.17851 0.20509 0.0
O474 O 0.65525 0.23103 0.2545 0.0
C475 C 0.6822 0.15217 0.20519 0.0
O476 O 0.7782 0.12055 0.24171 0.0
C477 C 0.67166 0.25962 0.2471 0.0
O478 O 0.77316 0.17961 0.2525 0.0
O479 O 0.7048 0.25502 0.23984 0.0
C480 C 0.18737 0.90129 0.27723 0.0
C481 C 0.19147 0.94013 0.27552 0.0
H482 H 0.21298 0.84768 0.27267 0.0
C483 C 0.22331 0.95444 0.26503 0.0
H484 H 0.16311 0.88953 0.28528 0.0
C485 C 0.2517 0.93058 0.25771 0.0
C486 C 0.24896 0.89191 0.26088 0.0
H487 H 0.22686 0.98425 0.26317 0.0
H488 H 0.27666 0.94268 0.25059 0.0
C489 C 0.21594 0.87736 0.27003 0.0
C490 C 0.09121 0.72652 0.50245 0.0
C491 C 0.10461 0.69732 0.51557 0.0
H492 H 0.10156 0.78085 0.48963 0.0
C493 C 0.142 0.69863 0.52315 0.0
H494 H 0.06285 0.72594 0.49589 0.0
C495 C 0.16441 0.72983 0.51923 0.0
C496 C 0.14973 0.76045 0.50782 0.0
H497 H 0.15321 0.67674 0.53339 0.0
H498 H 0.19229 0.73099 0.52645 0.0
C499 C 0.11347 0.75787 0.49872 0.0
C500 C 0.34964 0.61471 0.74145 0.0
C501 C 0.36274 0.62138 0.76294 0.0
H502 H 0.30517 0.62305 0.71824 0.0
C503 C 0.34454 0.64853 0.77588 0.0
H504 H 0.36374 0.59493 0.73076 0.0
C505 C 0.31164 0.66553 0.76838 0.0
C506 C 0.2961 0.65513 0.74801 0.0
H507 H 0.35373 0.6544 0.7925 0.0
H508 H 0.29655 0.68401 0.77941 0.0
C509 C 0.31633 0.63106 0.73416 0.0
C510 C 0.43237 0.84409 0.99759 0.0
C511 C 0.4145 0.86402 0.01443 0.0
H512 H 0.43208 0.79534 0.97724 0.0
C513 C 0.37872 0.85294 0.02136 0.0
H514 H 0.45996 0.85241 0.99199 0.0
C515 C 0.36271 0.81996 0.01307 0.0
C516 C 0.3825 0.79785 -0.00218 0.0
H517 H 0.36464 0.868 0.03444 0.0
H518 H 0.33649 0.81033 0.01994 0.0
C519 C 0.4164 0.81141 0.98924 0.0
C520 C 0.13828 0.66367 0.98158 0.0
C521 C 0.12951 0.62659 0.98663 0.0
H522 H 0.1802 0.70656 0.98264 0.0
C523 C 0.15383 0.60631 0.00019 0.0
H524 H 0.11987 0.67977 0.97111 0.0
C525 C 0.1881 0.62156 0.00688 0.0
C526 C 0.19878 0.65723 -9e-05 0.0
H527 H 0.14734 0.57778 0.00447 0.0
H528 H 0.20731 0.60431 0.01616 0.0
C529 C 0.1728 0.67892 0.98815 0.0
C530 C 0.39197 0.63214 0.25924 0.0
C531 C 0.3783 0.62322 0.23826 0.0
H532 H 0.39986 0.67532 0.28332 0.0
C533 C 0.35428 0.64826 0.22755 0.0
H534 H 0.41084 0.61328 0.26764 0.0
C535 C 0.34756 0.68359 0.2366 0.0
C536 C 0.36562 0.69443 0.25618 0.0
H537 H 0.34377 0.64186 0.21123 0.0
H538 H 0.33191 0.70366 0.22703 0.0
C539 C 0.38584 0.66768 0.26812 0.0
C540 C 0.39272 0.92933 0.51474 0.0
C541 C 0.40141 0.91309 0.4944 0.0
H542 H 0.35086 0.93665 0.53945 0.0
C543 C 0.37793 0.88521 0.4856 0.0
H544 H 0.41043 0.95106 0.52172 0.0
C545 C 0.34407 0.87661 0.49581 0.0
C546 C 0.33295 0.89649 0.51467 0.0
H547 H 0.38424 0.87244 0.46986 0.0
H548 H 0.32503 0.85729 0.48766 0.0
C549 C 0.35855 0.92122 0.52478 0.0
C550 C 0.10825 0.87709 0.76758 0.0
C551 C 0.12512 0.90105 0.75243 0.0
H552 H 0.10755 0.82254 0.78144 0.0
C553 C 0.15924 0.89025 0.7427 0.0
H554 H 0.08248 0.88501 0.77578 0.0
C555 C 0.17395 0.85473 0.74627 0.0
C556 C 0.15458 0.8293 0.7594 0.0
H557 H 0.17295 0.9079 0.73089 0.0
H558 H 0.19876 0.84623 0.73728 0.0
C559 C 0.12268 0.84139 0.77091 0.0
C560 C 0.63784 0.40867 0.73669 0.0
C561 C 0.62115 0.39349 0.75547 0.0
H562 H 0.68764 0.41276 0.71728 0.0
C563 C 0.63983 0.36439 0.76634 0.0
H564 H 0.62375 0.43013 0.72739 0.0
C565 C 0.67584 0.35347 0.75995 0.0
C566 C 0.69411 0.372 0.74292 0.0
H567 H 0.62817 0.35203 0.7809 0.0
H568 H 0.69058 0.33294 0.76966 0.0
C569 C 0.67427 0.39847 0.73071 0.0
C570 C 0.6537 0.15062 0.02288 0.0
C571 C 0.62019 0.136 0.01388 0.0
H572 H 0.692 0.19658 0.02434 0.0
C573 C 0.60254 0.15533 0.99672 0.0
H574 H 0.66801 0.13684 0.03623 0.0
C575 C 0.61597 0.19008 0.99023 0.0
C576 C 0.64773 0.20587 0.00046 0.0
H577 H 0.57735 0.14442 0.98893 0.0
H578 H 0.60041 0.20539 0.97795 0.0
C579 C 0.6675 0.18505 0.01609 0.0
C580 C 0.88452 0.16302 0.27882 0.0
C581 C 0.90729 0.13624 0.26826 0.0
H582 H 0.83046 0.1894 0.28032 0.0
C583 C 0.89402 0.11943 0.24877 0.0
H584 H 0.89362 0.17639 0.29394 0.0
C585 C 0.85759 0.1264 0.24126 0.0
C586 C 0.83392 0.15094 0.25279 0.0
H587 H 0.91115 0.09955 0.23981 0.0
H588 H 0.84733 0.11126 0.22697 0.0
C589 C 0.84824 0.17051 0.27105 0.0
C590 C 0.90983 0.38771 0.49819 0.0
C591 C 0.89405 0.40922 0.51526 0.0
H592 H 0.913 0.33415 0.48235 0.0
C593 C 0.86512 0.39347 0.5278 0.0
H594 H 0.93142 0.39912 0.48778 0.0
C595 C 0.85383 0.3566 0.5242 0.0
C596 C 0.87172 0.33443 0.5083 0.0
H597 H 0.85256 0.40874 0.54129 0.0
H598 H 0.8327 0.34483 0.53481 0.0
C599 C 0.89911 0.35055 0.49493 0.0
C600 C 0.68334 0.11267 0.50916 0.0
C601 C 0.66735 0.12574 0.48955 0.0
H602 H 0.73096 0.11364 0.53078 0.0
C603 C 0.68542 0.15493 0.47852 0.0
H604 H 0.66969 0.09109 0.5185 0.0
C605 C 0.71997 0.16868 0.48602 0.0
C606 C 0.73742 0.15301 0.50442 0.0
H607 H 0.67425 0.16557 0.46329 0.0
H608 H 0.73426 0.18959 0.47647 0.0
C609 C 0.71827 0.1258 0.51635 0.0
C610 C 0.9301 0.2088 0.75449 0.0
C611 C 0.9189 0.18854 0.73568 0.0
H612 H 0.92539 0.25966 0.77296 0.0
C613 C 0.89051 0.2033 0.72217 0.0
H614 H 0.95116 0.19787 0.76557 0.0
C615 C 0.87507 0.23828 0.72676 0.0
C616 C 0.88821 0.25946 0.7447 0.0
H617 H 0.88149 0.18881 0.7074 0.0
H618 H 0.85433 0.24955 0.71558 0.0
C619 C 0.91521 0.24409 0.75881 0.0
C620 C 0.82576 0.44443 0.00253 0.0
C621 C 0.84431 0.43061 0.98385 0.0
H622 H 0.77775 0.44043 0.02333 0.0
C623 C 0.83039 0.39811 0.97348 0.0
H624 H 0.83624 0.46876 0.0113 0.0
C625 C 0.79738 0.38131 0.98075 0.0
C626 C 0.77734 0.39703 -0.00171 0.0
H627 H 0.84364 0.38681 0.95892 0.0
H628 H 0.78626 0.3576 0.97166 0.0
C629 C 0.79245 0.428 0.00957 0.0
C630 C 0.64171 0.3529 0.22485 0.0
C631 C 0.60611 0.35767 0.23449 0.0
H632 H 0.69062 0.31855 0.22159 0.0
C633 C 0.59445 0.33191 0.25029 0.0
H634 H 0.65155 0.37175 0.21239 0.0
C635 C 0.6167 0.30095 0.25525 0.0
C636 C 0.65133 0.29532 0.24475 0.0
H637 H 0.56765 0.33509 0.25843 0.0
H638 H 0.60621 0.2808 0.2668 0.0
C639 C 0.66416 0.32223 0.23005 0.0
C640 C 0.17157 0.94444 0.41923 0.0
C641 C 0.16277 0.98237 0.41622 0.0
H642 H 0.18726 0.90171 0.44189 0.0
C643 C 0.16368 0.00646 0.43459 0.0
H644 H 0.17148 0.92508 0.40548 0.0
C645 C 0.17322 -0.0068 0.45526 0.0
C646 C 0.18159 0.95532 0.45833 0.0
H647 H 0.15605 0.03557 0.4332 0.0
H648 H 0.17331 0.01268 0.46896 0.0
C649 C 0.18069 0.93102 0.44009 0.0
C650 C 0.11337 0.68915 0.64728 0.0
C651 C 0.09001 0.65758 0.64696 0.0
H652 H 0.14848 0.72537 0.66686 0.0
C653 C 0.08258 0.63916 0.66662 0.0
H654 H 0.11939 0.70378 0.63228 0.0
C655 C 0.09864 0.65156 0.68624 0.0
C656 C 0.12289 0.68247 0.68663 0.0
H657 H 0.06426 0.61501 0.66682 0.0
H658 H 0.09248 0.63645 0.70106 0.0
C659 C 0.13001 0.70134 0.66699 0.0
C660 C 0.35811 0.62459 0.89644 0.0
C661 C 0.38443 0.59557 0.89831 0.0
H662 H 0.32317 0.66406 0.91354 0.0
C663 C 0.39381 0.58225 0.91917 0.0
H664 H 0.35044 0.63525 0.8805 0.0
C665 C 0.37829 0.59837 0.93788 0.0
C666 C 0.35312 0.62841 0.93622 0.0
H667 H 0.41356 0.55948 0.92103 0.0
H668 H 0.3867 0.58772 0.9537 0.0
C669 C 0.34268 0.64106 0.9153 0.0
C670 C 0.41625 0.88643 0.16337 0.0
C671 C 0.44829 0.87168 0.15294 0.0
H672 H 0.3803 0.88509 0.19141 0.0
C673 C 0.46646 0.84086 0.16238 0.0
H674 H 0.4017 0.91038 0.15678 0.0
C675 C 0.45469 0.82699 0.18249 0.0
C676 C 0.42398 0.84309 0.19345 0.0
H677 H 0.49058 0.82809 0.15457 0.0
H678 H 0.47022 0.80418 0.18972 0.0
C679 C 0.40407 0.87209 0.18334 0.0
C680 C 0.14116 0.58952 0.83936 0.0
C681 C 0.11331 0.61004 0.8505 0.0
H682 H 0.17517 0.58445 0.81067 0.0
C683 C 0.10224 0.6448 0.84206 0.0
H684 H 0.15128 0.56323 0.84566 0.0
C685 C 0.11689 0.65747 0.82226 0.0
C686 C 0.14226 0.63528 0.81035 0.0
H687 H 0.08067 0.6613 0.85002 0.0
H688 H 0.10663 0.68349 0.81563 0.0
C689 C 0.15504 0.60173 0.81936 0.0
C690 C 0.42466 0.64247 0.09406 0.0
C691 C 0.4046 0.61209 0.10256 0.0
H692 H 0.43194 0.67951 0.06715 0.0
C693 C 0.37177 0.60005 0.09156 0.0
H694 H 0.44932 0.65337 0.10242 0.0
C695 C 0.36109 0.61609 0.07165 0.0
C696 C 0.38348 0.64383 0.06228 0.0
H697 H 0.35568 0.57666 0.09752 0.0
H698 H 0.33695 0.60496 0.06286 0.0
C699 C 0.41461 0.65769 0.07395 0.0
C700 C 0.45295 0.89576 0.33916 0.0
C701 C 0.42949 0.90389 0.35692 0.0
H702 H 0.45722 0.87171 0.30706 0.0
C703 C 0.39206 0.89165 0.35663 0.0
H704 H 0.48188 0.90526 0.33916 0.0
C705 C 0.378 0.872 0.33841 0.0
C706 C 0.40108 0.8652 0.32018 0.0
H707 H 0.3736 0.89803 0.37022 0.0
H708 H 0.34875 0.86354 0.33822 0.0
C709 C 0.4388 0.87676 0.32085 0.0
C710 C 0.145 0.95401 0.60559 0.0
C711 C 0.13578 0.92869 0.62207 0.0
H712 H 0.1654 0.96138 0.57306 0.0
C713 C 0.14245 0.89045 0.61867 0.0
H714 H 0.13963 0.98357 0.60778 0.0
C715 C 0.15795 0.87776 0.59889 0.0
C716 C 0.16574 0.90309 0.58211 0.0
H717 H 0.13523 0.87051 0.63116 0.0
H718 H 0.16247 0.84814 0.59639 0.0
C719 C 0.15945 0.9413 0.58571 0.0
C720 C 0.61019 0.42826 0.90564 0.0
C721 C 0.59343 0.39906 0.89357 0.0
H722 H 0.63514 0.44576 0.93598 0.0
C723 C 0.5918 0.36332 0.90275 0.0
H724 H 0.61131 0.45622 0.89911 0.0
C725 C 0.60576 0.35722 0.92392 0.0
C726 C 0.6207 0.387 0.93637 0.0
H727 H 0.57888 0.34039 0.89378 0.0
H728 H 0.60339 0.32965 0.93085 0.0
C729 C 0.62342 0.42237 0.92685 0.0
C730 C 0.66174 0.13052 0.1453 0.0
C731 C 0.64414 0.09557 0.1468 0.0
H732 H 0.68827 0.17586 0.16274 0.0
C733 C 0.63954 0.07952 0.16749 0.0
H734 H 0.66549 0.14347 0.12951 0.0
C735 C 0.65198 0.09804 0.18633 0.0
C736 C 0.66968 0.13291 0.18494 0.0
H737 H 0.62547 0.0529 0.16916 0.0
H738 H 0.6477 0.08494 0.20203 0.0
C739 C 0.67478 0.14893 0.16424 0.0
C740 C 0.91768 0.11375 0.41349 0.0
C741 C 0.93529 0.14378 0.4031 0.0
H742 H 0.88843 0.09468 0.44169 0.0
C743 C 0.93373 0.17938 0.41296 0.0
H744 H 0.91882 0.08587 0.40648 0.0
C745 C 0.91621 0.18447 0.43325 0.0
C746 C 0.90045 0.15392 0.44416 0.0
H747 H 0.94697 0.20304 0.40527 0.0
H748 H 0.91644 0.21197 0.4408 0.0
C749 C 0.90059 0.11873 0.4338 0.0
C750 C 0.92467 0.4342 0.65442 0.0
C751 C 0.89557 0.44976 0.64184 0.0
H752 H 0.94054 0.40862 0.68454 0.0
C753 C 0.8586 0.44877 0.64983 0.0
H754 H 0.9535 0.43504 0.64881 0.0
C755 C 0.85108 0.43332 0.67031 0.0
C756 C 0.88056 0.4194 0.68331 0.0
H757 H 0.83571 0.46066 0.64044 0.0
H758 H 0.82248 0.43362 0.67633 0.0
C759 C 0.91729 0.41943 0.67498 0.0
C760 C 0.63645 0.14662 0.3436 0.0
C761 C 0.64033 0.11207 0.35403 0.0
H762 H 0.64845 0.179 0.31519 0.0
C763 C 0.66217 0.08408 0.34404 0.0
H764 H 0.61987 0.16872 0.35099 0.0
C765 C 0.67818 0.08977 0.32354 0.0
C766 C 0.67298 0.1237 0.31264 0.0
H767 H 0.66528 0.05698 0.35152 0.0
H768 H 0.69377 0.06713 0.31598 0.0
C769 C 0.65286 0.15248 0.32314 0.0
C770 C 0.90579 0.16799 0.61057 0.0
C771 C 0.92975 0.13697 0.60875 0.0
H772 H 0.87299 0.20881 0.59347 0.0
C773 C 0.9405 0.12427 0.58788 0.0
H774 H 0.89718 0.17827 0.62653 0.0
C775 C 0.92719 0.14182 0.56913 0.0
C776 C 0.90244 0.17224 0.57082 0.0
H777 H 0.95938 0.10072 0.58605 0.0
H778 H 0.93585 0.13107 0.55329 0.0
C779 C 0.89195 0.18533 0.59171 0.0
C780 C 0.86131 0.39859 0.848 0.0
C781 C 0.86788 0.43682 0.85141 0.0
H782 H 0.84329 0.35589 0.82547 0.0
C783 C 0.85877 0.46203 0.83477 0.0
H784 H 0.86827 0.3787 0.86062 0.0
C785 C 0.84529 0.44903 0.81456 0.0
C786 C 0.84006 0.41066 0.81082 0.0
H787 H 0.86402 0.49162 0.83697 0.0
H788 H 0.83993 0.46889 0.80167 0.0
C789 C 0.84706 0.38564 0.82793 0.0
C790 C 0.62227 0.36001 0.1044 0.0
C791 C 0.59661 0.3897 0.10457 0.0
H792 H 0.65535 0.32284 0.08457 0.0
C793 C 0.58276 0.40349 0.08469 0.0
H794 H 0.63311 0.34897 0.11963 0.0
C795 C 0.59484 0.3884 0.06485 0.0
C796 C 0.62147 0.35951 0.06448 0.0
H797 H 0.5626 0.42617 0.08452 0.0
H798 H 0.58392 0.40002 0.04977 0.0
C799 C 0.63495 0.34521 0.08442 0.0
loop_
_geom_bond_atom_site_label_1
_geom_bond_atom_site_label_2
_geom_bond_distance
_geom_bond_site_symmetry_2
_ccdc_geom_bond_type
C0 C1 1.384 . S
C0 C2 1.384 . S
C0 H28 0.931 . S
C1 C0 1.384 . S
C1 C4 1.382 1_565 S
C2 C0 1.384 . S
C2 C3 1.356 1_565 S
C2 H29 0.930 . S
C3 C2 1.356 1_545 S
C3 C5 1.394 . S
C3 C6 1.500 . S
C4 C1 1.382 1_545 S
C4 C5 1.387 . S
C4 H30 0.930 . S
C5 C3 1.394 . S
C5 C4 1.387 . S
C5 H31 0.931 . S
C6 C3 1.500 . S
C6 C13 1.399 . S
C6 N44 1.343 . S
C7 C8 1.384 . S
C7 C9 1.384 . S
C7 H32 0.931 . S
C8 C7 1.384 . S
C8 C11 1.382 . S
C9 C7 1.384 . S
C9 C10 1.381 . S
C9 H33 0.930 1_565 S
C10 C9 1.381 . S
C10 C12 1.381 . S
C10 C13 1.487 1_565 S
C11 C8 1.382 . S
C11 C12 1.387 . S
C11 H34 0.930 . S
C12 C10 1.381 . S
C12 C11 1.387 . S
C12 H35 0.931 . S
C13 C6 1.399 . S
C13 C10 1.487 1_545 S
C13 N45 1.343 . S
C14 C15 1.384 . S
C14 C16 1.384 . S
C14 H36 0.931 . S
C15 C14 1.384 . S
C15 C18 1.382 . S
C16 C14 1.384 . S
C16 C17 1.381 . S
C16 H37 0.930 . S
C17 C16 1.381 . S
C17 C19 1.381 . S
C17 C20 1.487 1_655 S
C18 C15 1.382 . S
C18 C19 1.387 . S
C18 H38 0.930 . S
C19 C17 1.381 . S
C19 C18 1.387 . S
C19 H39 0.931 . S
C20 C17 1.487 1_455 S
C20 C27 1.399 . S
C20 N45 1.343 . S
C21 C22 1.384 . S
C21 C23 1.384 . S
C21 H40 0.931 . S
C22 C21 1.384 . S
C22 C25 1.382 . S
C23 C21 1.384 . S
C23 C24 1.381 . S
C23 H41 0.930 . S
C24 C23 1.381 . S
C24 C26 1.381 1_655 S
C24 C27 1.487 1_655 S
C25 C22 1.382 . S
C25 C26 1.387 1_655 S
C25 H42 0.930 . S
C26 C24 1.381 1_455 S
C26 C25 1.387 1_455 S
C26 H43 0.931 . S
C27 C20 1.399 . S
C27 C24 1.487 1_455 S
C27 N44 1.343 . S
H28 C0 0.931 . S
H29 C2 0.930 . S
H30 C4 0.930 . S
H31 C5 0.931 . S
H32 C7 0.931 . S
H33 C9 0.930 1_545 S
H34 C11 0.930 . S
H35 C12 0.931 . S
H36 C14 0.931 . S
H37 C16 0.930 . S
H38 C18 0.930 . S
H39 C19 0.931 . S
H40 C21 0.931 . S
H41 C23 0.930 . S
H42 C25 0.930 . S
H43 C26 0.931 . S
N44 C6 1.343 . S
N44 C27 1.343 . S
N45 C13 1.343 . S
N45 C20 1.343 . S
C46 C47 1.384 . S
C46 C48 1.384 . S
C46 H74 0.931 . S
C47 C46 1.384 . S
C47 C50 1.382 . S
C48 C46 1.384 . S
C48 C49 1.381 . S
C48 H75 0.930 . S
C49 C48 1.381 . S
C49 C51 1.381 . S
C49 C52 1.487 . S
C50 C47 1.382 . S
C50 C51 1.387 . S
C50 H76 0.930 . S
C51 C49 1.381 . S
C51 C50 1.387 . S
C51 H77 0.931 1_655 S
C52 C49 1.487 . S
C52 C59 1.399 . S
C52 N90 1.343 1_655 S
C53 C54 1.384 . S
C53 C55 1.384 . S
C53 H78 0.931 . S
C54 C53 1.384 . S
C54 C57 1.382 . S
C55 C53 1.384 . S
C55 C56 1.381 . S
C55 H79 0.930 . S
C56 C55 1.381 . S
C56 C58 1.381 . S
C56 C59 1.487 . S
C57 C54 1.382 . S
C57 C58 1.387 . S
C57 H80 0.930 . S
C58 C56 1.381 . S
C58 C57 1.387 . S
C58 H81 0.931 . S
C59 C52 1.399 . S
C59 C56 1.487 . S
C59 N91 1.343 1_655 S
C60 C61 1.384 . S
C60 C62 1.384 . S
C60 H82 0.931 . S
C61 C60 1.384 . S
C61 C64 1.382 . S
C62 C60 1.384 . S
C62 C63 1.381 . S
C62 H83 0.930 . S
C63 C62 1.381 . S
C63 C65 1.381 . S
C63 C66 1.487 . S
C64 C61 1.382 . S
C64 C65 1.387 . S
C64 H84 0.930 . S
C65 C63 1.381 . S
C65 C64 1.387 . S
C65 H85 0.931 . S
C66 C63 1.487 . S
C66 C73 1.399 . S
C66 N91 1.343 . S
C67 C68 1.384 . S
C67 C69 1.384 . S
C67 H86 0.931 . S
C68 C67 1.384 . S
C68 C71 1.382 . S
C69 C67 1.384 . S
C69 C70 1.381 . S
C69 H87 0.930 . S
C70 C69 1.381 . S
C70 C72 1.381 . S
C70 C73 1.487 . S
C71 C68 1.382 . S
C71 C72 1.387 . S
C71 H88 0.930 . S
C72 C70 1.381 . S
C72 C71 1.387 . S
C72 H89 0.931 . S
C73 C66 1.399 . S
C73 C70 1.487 . S
C73 N90 1.343 . S
H74 C46 0.931 . S
H75 C48 0.930 . S
H76 C50 0.930 . S
H77 C51 0.931 1_455 S
H78 C53 0.931 . S
H79 C55 0.930 . S
H80 C57 0.930 . S
H81 C58 0.931 . S
H82 C60 0.931 . S
H83 C62 0.930 . S
H84 C64 0.930 . S
H85 C65 0.931 . S
H86 C67 0.931 . S
H87 C69 0.930 . S
H88 C71 0.930 . S
H89 C72 0.931 . S
N90 C52 1.343 1_455 S
N90 C73 1.343 . S
N91 C59 1.343 1_455 S
N91 C66 1.343 . S
C92 C93 1.384 . S
C92 C94 1.384 . S
C92 H120 0.931 . S
C93 C92 1.384 . S
C93 C96 1.382 . S
C94 C92 1.384 . S
C94 C95 1.381 . S
C94 H121 0.930 . S
C95 C94 1.381 . S
C95 C97 1.381 . S
C95 C98 1.487 . S
C96 C93 1.382 . S
C96 C97 1.387 . S
C96 H122 0.930 . S
C97 C95 1.381 . S
C97 C96 1.387 . S
C97 H123 0.931 . S
C98 C95 1.487 . S
C98 C105 1.399 . S
C98 N136 1.343 . S
C99 C100 1.384 . S
C99 C101 1.384 . S
C99 H124 0.931 . S
C100 C99 1.384 . S
C100 C103 1.382 . S
C101 C99 1.384 . S
C101 C102 1.381 . S
C101 H125 0.930 . S
C102 C101 1.381 . S
C102 C104 1.381 . S
C102 C105 1.487 . S
C103 C100 1.382 . S
C103 C104 1.387 . S
C103 H126 0.930 . S
C104 C102 1.381 . S
C104 C103 1.387 . S
C104 H127 0.931 . S
C105 C98 1.399 . S
C105 C102 1.487 . S
C105 N137 1.343 . S
C106 C107 1.384 . S
C106 C108 1.384 . S
C106 H128 0.931 . S
C107 C106 1.384 . S
C107 C110 1.382 . S
C108 C106 1.384 . S
C108 C109 1.381 . S
C108 H129 0.930 . S
C109 C108 1.381 . S
C109 C111 1.381 . S
C109 C112 1.487 . S
C110 C107 1.382 . S
C110 C111 1.387 . S
C110 H130 0.930 . S
C111 C109 1.381 . S
C111 C110 1.387 . S
C111 H131 0.931 . S
C112 C109 1.487 . S
C112 C119 1.399 . S
C112 N137 1.343 . S
C113 C114 1.384 . S
C113 C115 1.384 . S
C113 H132 0.931 . S
C114 C113 1.384 . S
C114 C117 1.382 . S
C115 C113 1.384 . S
C115 C116 1.381 . S
C115 H133 0.930 . S
C116 C115 1.381 . S
C116 C118 1.381 . S
C116 C119 1.487 . S
C117 C114 1.382 . S
C117 C118 1.387 . S
C117 H134 0.930 . S
C118 C116 1.381 . S
C118 C117 1.387 . S
C118 H135 0.931 . S
C119 C112 1.399 . S
C119 C116 1.487 . S
C119 N136 1.343 . S
H120 C92 0.931 . S
H121 C94 0.930 . S
H122 C96 0.930 . S
H123 C97 0.931 . S
H124 C99 0.931 . S
H125 C101 0.930 . S
H126 C103 0.930 . S
H127 C104 0.931 . S
H128 C106 0.931 . S
H129 C108 0.930 . S
H130 C110 0.930 . S
H131 C111 0.931 . S
H132 C113 0.931 . S
H133 C115 0.930 . S
H134 C117 0.930 . S
H135 C118 0.931 . S
N136 C98 1.343 . S
N136 C119 1.343 . S
N137 C105 1.343 . S
N137 C112 1.343 . S
C138 C139 1.384 . S
C138 C140 1.384 . S
C138 H166 0.931 . S
C139 C138 1.384 . S
C139 C142 1.382 . S
C140 C138 1.384 . S
C140 C141 1.381 . S
C140 H167 0.930 . S
C141 C140 1.381 . S
C141 C143 1.381 . S
C141 C144 1.487 . S
C142 C139 1.382 . S
C142 C143 1.387 . S
C142 H168 0.930 . S
C143 C141 1.381 . S
C143 C142 1.387 . S
C143 H169 0.931 . S
C144 C141 1.487 . S
C144 C151 1.399 . S
C144 N182 1.343 1_565 S
C145 C146 1.384 . S
C145 C147 1.384 . S
C145 H170 0.931 . S
C146 C145 1.384 . S
C146 C149 1.382 . S
C147 C145 1.384 . S
C147 C148 1.381 . S
C147 H171 0.930 . S
C148 C147 1.381 . S
C148 C150 1.381 . S
C148 C151 1.487 . S
C149 C146 1.382 . S
C149 C150 1.387 . S
C149 H172 0.930 . S
C150 C148 1.381 . S
C150 C149 1.387 . S
C150 H173 0.931 . S
C151 C144 1.399 . S
C151 C148 1.487 . S
C151 N183 1.338 1_565 S
C152 C153 1.384 . S
C152 C154 1.384 . S
C152 H174 0.931 . S
C153 C152 1.384 . S
C153 C156 1.382 . S
C154 C152 1.384 . S
C154 C155 1.381 . S
C154 H175 0.930 . S
C155 C154 1.381 . S
C155 C157 1.381 . S
C155 C158 1.487 . S
C156 C153 1.382 . S
C156 C157 1.387 . S
C156 H176 0.930 . S
C157 C155 1.381 . S
C157 C156 1.387 . S
C157 H177 0.931 . S
C158 C155 1.487 . S
C158 C165 1.399 . S
C158 N183 1.349 . S
C159 C160 1.384 . S
C159 C161 1.384 . S
C159 H178 0.931 . S
C160 C159 1.384 . S
C160 C163 1.382 . S
C161 C159 1.384 . S
C161 C162 1.381 . S
C161 H179 0.930 . S
C162 C161 1.381 . S
C162 C164 1.381 . S
C162 C165 1.487 . S
C163 C160 1.382 . S
C163 C164 1.387 . S
C163 H180 0.930 . S
C164 C162 1.381 . S
C164 C163 1.387 . S
C164 H181 0.931 . S
C165 C158 1.399 . S
C165 C162 1.487 . S
C165 N182 1.343 . S
H166 C138 0.931 . S
H167 C140 0.930 . S
H168 C142 0.930 . S
H169 C143 0.931 . S
H170 C145 0.931 . S
H171 C147 0.930 . S
H172 C149 0.930 . S
H173 C150 0.931 . S
H174 C152 0.931 . S
H175 C154 0.930 . S
H176 C156 0.930 . S
H177 C157 0.931 . S
H178 C159 0.931 . S
H179 C161 0.930 . S
H180 C163 0.930 . S
H181 C164 0.931 . S
N182 C144 1.343 1_545 S
N182 C165 1.343 . S
N183 C151 1.338 1_545 S
N183 C158 1.349 . S
C184 C185 1.384 . S
C184 C186 1.384 . S
C184 H212 0.931 . S
C185 C184 1.384 . S
C185 C188 1.382 . S
C186 C184 1.384 . S
C186 C187 1.381 . S
C186 H213 0.930 . S
C187 C186 1.381 . S
C187 C189 1.381 . S
C187 C190 1.487 . S
C188 C185 1.382 . S
C188 C189 1.387 . S
C188 H214 0.930 . S
C189 C187 1.381 . S
C189 C188 1.387 . S
C189 H215 0.931 . S
C190 C187 1.487 . S
C190 C197 1.399 . S
C190 N228 1.343 . S
C191 C192 1.384 . S
C191 C193 1.384 . S
C191 H216 0.931 . S
C192 C191 1.384 . S
C192 C195 1.382 . S
C193 C191 1.384 . S
C193 C194 1.381 . S
C193 H217 0.930 . S
C194 C193 1.381 . S
C194 C196 1.381 . S
C194 C197 1.487 . S
C195 C192 1.382 . S
C195 C196 1.387 . S
C195 H218 0.930 . S
C196 C194 1.381 . S
C196 C195 1.387 . S
C196 H219 0.931 . S
C197 C190 1.399 . S
C197 C194 1.487 . S
C197 N229 1.343 1_455 S
C198 C199 1.384 . S
C198 C200 1.384 . S
C198 H220 0.931 . S
C199 C198 1.384 . S
C199 C202 1.382 . S
C200 C198 1.384 . S
C200 C201 1.381 . S
C200 H221 0.930 . S
C201 C200 1.381 . S
C201 C203 1.381 . S
C201 C204 1.487 . S
C202 C199 1.382 . S
C202 C203 1.387 . S
C202 H222 0.930 . S
C203 C201 1.381 . S
C203 C202 1.387 . S
C203 H223 0.931 . S
C204 C201 1.487 . S
C204 C211 1.399 . S
C204 N229 1.343 . S
C205 C206 1.384 . S
C205 C207 1.384 . S
C205 H224 0.931 . S
C206 C205 1.384 . S
C206 C209 1.382 . S
C207 C205 1.384 . S
C207 C208 1.381 . S
C207 H225 0.930 . S
C208 C207 1.381 . S
C208 C210 1.381 . S
C208 C211 1.487 . S
C209 C206 1.382 . S
C209 C210 1.387 . S
C209 H226 0.930 . S
C210 C208 1.381 . S
C210 C209 1.387 . S
C210 H227 0.931 . S
C211 C204 1.399 . S
C211 C208 1.487 . S
C211 N228 1.343 1_655 S
H212 C184 0.931 . S
H213 C186 0.930 . S
H214 C188 0.930 . S
H215 C189 0.931 . S
H216 C191 0.931 . S
H217 C193 0.930 . S
H218 C195 0.930 . S
H219 C196 0.931 . S
H220 C198 0.931 . S
H221 C200 0.930 . S
H222 C202 0.930 . S
H223 C203 0.931 . S
H224 C205 0.931 . S
H225 C207 0.930 . S
H226 C209 0.930 . S
H227 C210 0.931 . S
N228 C190 1.343 . S
N228 C211 1.343 1_455 S
N229 C197 1.343 1_655 S
N229 C204 1.343 . S
C230 C231 1.384 . S
C230 C232 1.384 . S
C230 H258 0.931 . S
C231 C230 1.384 . S
C231 C234 1.382 . S
C232 C230 1.384 . S
C232 C233 1.381 . S
C232 H259 0.930 . S
C233 C232 1.381 . S
C233 C235 1.381 . S
C233 C236 1.487 . S
C234 C231 1.382 . S
C234 C235 1.387 . S
C234 H260 0.930 . S
C235 C233 1.381 . S
C235 C234 1.387 . S
C235 H261 0.931 . S
C236 C233 1.487 . S
C236 C243 1.399 . S
C236 N274 1.343 . S
C237 C238 1.384 . S
C237 C239 1.384 . S
C237 H262 0.931 . S
C238 C237 1.384 . S
C238 C241 1.382 . S
C239 C237 1.384 . S
C239 C240 1.381 . S
C239 H263 0.930 . S
C240 C239 1.381 . S
C240 C242 1.381 . S
C240 C243 1.487 . S
C241 C238 1.382 . S
C241 C242 1.387 . S
C241 H264 0.930 . S
C242 C240 1.381 . S
C242 C241 1.387 . S
C242 H265 0.931 . S
C243 C236 1.399 . S
C243 C240 1.487 . S
C243 N275 1.343 . S
C244 C245 1.384 . S
C244 C246 1.384 . S
C244 H266 0.931 . S
C245 C244 1.384 . S
C245 C248 1.382 . S
C246 C244 1.384 . S
C246 C247 1.381 . S
C246 H267 0.930 . S
C247 C246 1.381 . S
C247 C249 1.381 . S
C247 C250 1.487 . S
C248 C245 1.382 . S
C248 C249 1.387 . S
C248 H268 0.930 . S
C249 C247 1.381 . S
C249 C248 1.387 . S
C249 H269 0.931 . S
C250 C247 1.487 . S
C250 C257 1.399 . S
C250 N275 1.343 . S
C251 C252 1.384 . S
C251 C253 1.384 . S
C251 H270 0.931 . S
C252 C251 1.384 . S
C252 C255 1.382 . S
C253 C251 1.384 . S
C253 C254 1.381 . S
C253 H271 0.930 . S
C254 C253 1.381 . S
C254 C256 1.381 . S
C254 C257 1.487 . S
C255 C252 1.382 . S
C255 C256 1.387 . S
C255 H272 0.930 . S
C256 C254 1.381 . S
C256 C255 1.387 . S
C256 H273 0.931 . S
C257 C250 1.399 . S
C257 C254 1.487 . S
C257 N274 1.343 . S
H258 C230 0.931 . S
H259 C232 0.930 . S
H260 C234 0.930 . S
H261 C235 0.931 . S
H262 C237 0.931 . S
H263 C239 0.930 . S
H264 C241 0.930 . S
H265 C242 0.931 . S
H266 C244 0.931 . S
H267 C246 0.930 . S
H268 C248 0.930 . S
H269 C249 0.931 . S
H270 C251 0.931 . S
H271 C253 0.930 . S
H272 C255 0.930 . S
H273 C256 0.931 . S
N274 C236 1.343 . S
N274 C257 1.343 . S
N275 C243 1.343 . S
N275 C250 1.343 . S
C276 C277 1.384 . S
C276 C278 1.384 . S
C276 H304 0.931 . S
C277 C276 1.384 . S
C277 C280 1.382 . S
C278 C276 1.384 . S
C278 C279 1.381 . S
C278 H305 0.930 . S
C279 C278 1.381 . S
C279 C281 1.381 . S
C279 C282 1.487 . S
C280 C277 1.382 . S
C280 C281 1.387 . S
C280 H306 0.930 . S
C281 C279 1.381 . S
C281 C280 1.387 . S
C281 H307 0.931 1_565 S
C282 C279 1.487 . S
C282 C289 1.399 . S
C282 N320 1.343 1_565 S
C283 C284 1.384 . S
C283 C285 1.384 . S
C283 H308 0.931 . S
C284 C283 1.384 . S
C284 C287 1.382 . S
C285 C283 1.384 . S
C285 C286 1.381 . S
C285 H309 0.930 . S
C286 C285 1.381 . S
C286 C288 1.381 . S
C286 C289 1.487 . S
C287 C284 1.382 . S
C287 C288 1.387 . S
C287 H310 0.930 . S
C288 C286 1.381 . S
C288 C287 1.387 . S
C288 H311 0.931 . S
C289 C282 1.399 . S
C289 C286 1.487 . S
C289 N321 1.343 1_565 S
C290 C291 1.384 . S
C290 C292 1.384 . S
C290 H312 0.931 . S
C291 C290 1.384 . S
C291 C294 1.382 . S
C292 C290 1.384 . S
C292 C293 1.381 . S
C292 H313 0.930 . S
C293 C292 1.381 . S
C293 C295 1.381 . S
C293 C296 1.487 . S
C294 C291 1.382 . S
C294 C295 1.387 . S
C294 H314 0.930 . S
C295 C293 1.381 . S
C295 C294 1.387 . S
C295 H315 0.931 . S
C296 C293 1.487 . S
C296 C303 1.399 . S
C296 N321 1.343 . S
C297 C298 1.384 . S
C297 C299 1.384 . S
C297 H316 0.931 . S
C298 C297 1.384 . S
C298 C301 1.382 . S
C299 C297 1.384 . S
C299 C300 1.381 . S
C299 H317 0.930 . S
C300 C299 1.381 . S
C300 C302 1.381 . S
C300 C303 1.487 . S
C301 C298 1.382 . S
C301 C302 1.387 . S
C301 H318 0.930 . S
C302 C300 1.381 . S
C302 C301 1.387 . S
C302 H319 0.931 . S
C303 C296 1.399 . S
C303 C300 1.487 . S
C303 N320 1.343 . S
H304 C276 0.931 . S
H305 C278 0.930 . S
H306 C280 0.930 . S
H307 C281 0.931 1_545 S
H308 C283 0.931 . S
H309 C285 0.930 . S
H310 C287 0.930 . S
H311 C288 0.931 . S
H312 C290 0.931 . S
H313 C292 0.930 . S
H314 C294 0.930 . S
H315 C295 0.931 . S
H316 C297 0.931 . S
H317 C299 0.930 . S
H318 C301 0.930 . S
H319 C302 0.931 . S
N320 C282 1.343 1_545 S
N320 C303 1.343 . S
N321 C289 1.343 1_545 S
N321 C296 1.343 . S
C322 C323 1.384 . S
C322 C324 1.384 . S
C322 H350 0.931 . S
C323 C322 1.384 . S
C323 C326 1.382 . S
C324 C322 1.384 . S
C324 C325 1.381 1_565 S
C324 H351 0.930 1_565 S
C325 C324 1.381 1_545 S
C325 C327 1.381 1_545 S
C325 C328 1.487 . S
C326 C323 1.382 . S
C326 C327 1.387 . S
C326 H352 0.930 . S
C327 C325 1.381 1_565 S
C327 C326 1.387 . S
C327 H353 0.931 . S
C328 C325 1.487 . S
C328 C335 1.399 . S
C328 N366 1.343 . S
C329 C330 1.384 . S
C329 C331 1.384 . S
C329 H354 0.931 . S
C330 C329 1.384 . S
C330 C333 1.382 . S
C331 C329 1.384 . S
C331 C332 1.381 1_565 S
C331 H355 0.930 . S
C332 C331 1.381 1_545 S
C332 C334 1.381 . S
C332 C335 1.487 . S
C333 C330 1.382 . S
C333 C334 1.387 1_565 S
C333 H356 0.930 1_565 S
C334 C332 1.381 . S
C334 C333 1.387 1_545 S
C334 H357 0.931 . S
C335 C328 1.399 . S
C335 C332 1.487 . S
C335 N367 1.343 . S
C336 C337 1.384 . S
C336 C338 1.384 . S
C336 H358 0.931 . S
C337 C336 1.384 . S
C337 C340 1.382 . S
C338 C336 1.384 . S
C338 C339 1.359 1_655 S
C338 H359 0.930 . S
C339 C338 1.359 1_455 S
C339 C341 1.392 . S
C339 C342 1.499 . S
C340 C337 1.382 . S
C340 C341 1.387 1_655 S
C340 H360 0.930 1_655 S
C341 C339 1.392 . S
C341 C340 1.387 1_455 S
C341 H361 0.931 . S
C342 C339 1.499 . S
C342 C349 1.399 . S
C342 N367 1.343 . S
C343 C344 1.384 . S
C343 C345 1.384 1_655 S
C343 H362 0.931 . S
C344 C343 1.384 . S
C344 C347 1.382 . S
C345 C343 1.384 1_455 S
C345 C346 1.381 . S
C345 H363 0.930 . S
C346 C345 1.381 . S
C346 C348 1.381 1_455 S
C346 C349 1.487 . S
C347 C344 1.382 . S
C347 C348 1.387 . S
C347 H364 0.930 . S
C348 C346 1.381 1_655 S
C348 C347 1.387 . S
C348 H365 0.931 . S
C349 C342 1.399 . S
C349 C346 1.487 . S
C349 N366 1.343 . S
H350 C322 0.931 . S
H351 C324 0.930 1_545 S
H352 C326 0.930 . S
H353 C327 0.931 . S
H354 C329 0.931 . S
H355 C331 0.930 . S
H356 C333 0.930 1_545 S
H357 C334 0.931 . S
H358 C336 0.931 . S
H359 C338 0.930 . S
H360 C340 0.930 1_455 S
H361 C341 0.931 . S
H362 C343 0.931 . S
H363 C345 0.930 . S
H364 C347 0.930 . S
H365 C348 0.931 . S
N366 C328 1.343 . S
N366 C349 1.343 . S
N367 C335 1.343 . S
N367 C342 1.343 . S
C368 O369 1.306 . S
C368 O371 1.160 . S
O369 C368 1.306 . S
O369 Cd370 2.228 . S
Cd370 O369 2.228 . S
Cd370 O374 2.273 1_554 S
Cd370 O378 2.277 . S
O371 C368 1.160 . S
O371 Cd372 2.203 . S
Cd372 O371 2.203 . S
Cd372 O374 2.411 1_554 S
Cd372 O375 2.333 1_554 S
Cd372 O376 2.352 . S
Cd372 O380 2.277 . S
Cd372 O381 2.355 . S
C373 O378 1.209 . S
C373 O380 1.226 . S
O374 Cd370 2.273 1_556 S
O374 Cd372 2.411 1_556 S
O374 C377 1.320 . S
O375 Cd372 2.333 1_556 S
O375 C377 1.214 . S
O376 Cd372 2.352 . S
O376 C379 1.260 . S
C377 O374 1.320 . S
C377 O375 1.214 . S
O378 Cd370 2.277 . S
O378 C373 1.209 . S
C379 O376 1.260 . S
C379 O381 1.282 . S
O380 Cd372 2.277 . S
O380 C373 1.226 . S
O381 Cd372 2.355 . S
O381 C379 1.282 . S
C382 O383 1.306 . S
C382 O385 1.160 . S
O383 C382 1.306 . S
O383 Cd384 2.228 . S
Cd384 O383 2.228 . S
Cd384 O388 2.273 . S
Cd384 O392 2.277 . S
O385 C382 1.160 . S
O385 Cd386 2.203 . S
Cd386 O385 2.203 . S
Cd386 O388 2.411 . S
Cd386 O389 2.333 . S
Cd386 O390 2.352 . S
Cd386 O394 2.277 . S
Cd386 O395 2.356 . S
C387 O392 1.209 . S
C387 O394 1.226 . S
O388 Cd384 2.273 . S
O388 Cd386 2.411 . S
O388 C391 1.320 . S
O389 Cd386 2.333 . S
O389 C391 1.214 . S
O390 Cd386 2.352 . S
O390 C393 1.258 . S
C391 O388 1.320 . S
C391 O389 1.214 . S
O392 Cd384 2.277 . S
O392 C387 1.209 . S
C393 O390 1.258 . S
C393 O395 1.282 . S
O394 Cd386 2.277 . S
O394 C387 1.226 . S
O395 Cd386 2.356 . S
O395 C393 1.282 . S
C396 O397 1.306 . S
C396 O399 1.160 . S
O397 C396 1.306 . S
O397 Cd398 2.228 . S
Cd398 O397 2.228 . S
Cd398 O402 2.273 . S
Cd398 O406 2.277 . S
O399 C396 1.160 . S
O399 Cd400 2.203 . S
Cd400 O399 2.203 . S
Cd400 O402 2.411 . S
Cd400 O403 2.333 . S
Cd400 O404 2.352 . S
Cd400 O408 2.277 . S
Cd400 O409 2.356 . S
C401 O406 1.209 . S
C401 O408 1.226 . S
O402 Cd398 2.273 . S
O402 Cd400 2.411 . S
O402 C405 1.320 . S
O403 Cd400 2.333 . S
O403 C405 1.214 . S
O404 Cd400 2.352 . S
O404 C407 1.258 . S
C405 O402 1.320 . S
C405 O403 1.214 . S
O406 Cd398 2.277 . S
O406 C401 1.209 . S
C407 O404 1.258 . S
C407 O409 1.282 . S
O408 Cd400 2.277 . S
O408 C401 1.226 . S
O409 Cd400 2.356 . S
O409 C407 1.282 . S
C410 O411 1.306 . S
C410 O413 1.160 . S
O411 C410 1.306 . S
O411 Cd412 2.228 . S
Cd412 O411 2.228 . S
Cd412 O416 2.273 . S
Cd412 O420 2.277 . S
O413 C410 1.160 . S
O413 Cd414 2.203 . S
Cd414 O413 2.203 . S
Cd414 O416 2.411 . S
Cd414 O417 2.333 . S
Cd414 O418 2.352 . S
Cd414 O422 2.277 . S
Cd414 O423 2.356 . S
C415 O420 1.209 . S
C415 O422 1.226 . S
O416 Cd412 2.273 . S
O416 Cd414 2.411 . S
O416 C419 1.320 . S
O417 Cd414 2.333 . S
O417 C419 1.214 . S
O418 Cd414 2.352 . S
O418 C421 1.258 . S
C419 O416 1.320 . S
C419 O417 1.214 . S
O420 Cd412 2.277 . S
O420 C415 1.209 . S
C421 O418 1.258 . S
C421 O423 1.282 . S
O422 Cd414 2.277 . S
O422 C415 1.226 . S
O423 Cd414 2.356 . S
O423 C421 1.282 . S
C424 O425 1.306 . S
C424 O427 1.160 . S
O425 C424 1.306 . S
O425 Cd426 2.228 . S
Cd426 O425 2.228 . S
Cd426 O430 2.273 . S
Cd426 O434 2.277 . S
O427 C424 1.160 . S
O427 Cd428 2.203 . S
Cd428 O427 2.203 . S
Cd428 O430 2.411 . S
Cd428 O431 2.333 . S
Cd428 O432 2.352 . S
Cd428 O436 2.277 . S
Cd428 O437 2.356 . S
C429 O434 1.209 . S
C429 O436 1.226 . S
O430 Cd426 2.273 . S
O430 Cd428 2.411 . S
O430 C433 1.320 . S
O431 Cd428 2.333 . S
O431 C433 1.214 . S
O432 Cd428 2.352 . S
O432 C435 1.258 . S
C433 O430 1.320 . S
C433 O431 1.214 . S
O434 Cd426 2.277 . S
O434 C429 1.209 . S
C435 O432 1.258 . S
C435 O437 1.282 . S
O436 Cd428 2.277 . S
O436 C429 1.226 . S
O437 Cd428 2.356 . S
O437 C435 1.282 . S
C438 O439 1.306 . S
C438 O441 1.160 . S
O439 C438 1.306 . S
O439 Cd440 2.228 . S
Cd440 O439 2.228 . S
Cd440 O444 2.273 . S
Cd440 O448 2.277 . S
O441 C438 1.160 . S
O441 Cd442 2.203 . S
Cd442 O441 2.203 . S
Cd442 O444 2.411 . S
Cd442 O445 2.333 . S
Cd442 O446 2.352 . S
Cd442 O450 2.277 . S
Cd442 O451 2.356 . S
C443 O448 1.209 . S
C443 O450 1.226 . S
O444 Cd440 2.273 . S
O444 Cd442 2.411 . S
O444 C447 1.320 . S
O445 Cd442 2.333 . S
O445 C447 1.214 . S
O446 Cd442 2.352 . S
O446 C449 1.258 . S
C447 O444 1.320 . S
C447 O445 1.214 . S
O448 Cd440 2.277 . S
O448 C443 1.209 . S
C449 O446 1.258 . S
C449 O451 1.282 . S
O450 Cd442 2.277 . S
O450 C443 1.226 . S
O451 Cd442 2.356 . S
O451 C449 1.282 . S
C452 O453 1.306 . S
C452 O455 1.160 . S
O453 C452 1.306 . S
O453 Cd454 2.228 . S
Cd454 O453 2.228 . S
Cd454 O458 2.273 1_556 S
Cd454 O462 2.277 . S
O455 C452 1.160 . S
O455 Cd456 2.203 1_556 S
Cd456 O455 2.203 1_554 S
Cd456 O458 2.411 . S
Cd456 O459 2.333 . S
Cd456 O460 2.352 . S
Cd456 O464 2.277 1_554 S
Cd456 O465 2.356 . S
C457 O462 1.209 . S
C457 O464 1.226 . S
O458 Cd454 2.273 1_554 S
O458 Cd456 2.411 . S
O458 C461 1.320 . S
O459 Cd456 2.333 . S
O459 C461 1.214 . S
O460 Cd456 2.352 . S
O460 C463 1.258 . S
C461 O458 1.320 . S
C461 O459 1.214 . S
O462 Cd454 2.277 . S
O462 C457 1.209 . S
C463 O460 1.258 . S
C463 O465 1.282 . S
O464 Cd456 2.277 1_556 S
O464 C457 1.226 . S
O465 Cd456 2.356 . S
O465 C463 1.282 . S
C466 O467 1.306 . S
C466 O469 1.160 . S
O467 C466 1.306 . S
O467 Cd468 2.228 . S
Cd468 O467 2.228 . S
Cd468 O472 2.273 . S
Cd468 O476 2.277 . S
O469 C466 1.160 . S
O469 Cd470 2.203 . S
Cd470 O469 2.203 . S
Cd470 O472 2.411 . S
Cd470 O473 2.333 . S
Cd470 O474 2.352 . S
Cd470 O478 2.277 . S
Cd470 O479 2.356 . S
C471 O476 1.209 . S
C471 O478 1.226 . S
O472 Cd468 2.273 . S
O472 Cd470 2.411 . S
O472 C475 1.320 . S
O473 Cd470 2.333 . S
O473 C475 1.214 . S
O474 Cd470 2.352 . S
O474 C477 1.258 . S
C475 O472 1.320 . S
C475 O473 1.214 . S
O476 Cd468 2.277 . S
O476 C471 1.209 . S
C477 O474 1.258 . S
C477 O479 1.282 . S
O478 Cd470 2.277 . S
O478 C471 1.226 . S
O479 Cd470 2.356 . S
O479 C477 1.282 . S
C480 C481 1.387 . S
C480 H484 0.950 . S
C480 C489 1.390 . S
C481 C480 1.387 . S
C481 C483 1.387 . S
H482 C489 0.950 . S
C483 C481 1.387 . S
C483 C485 1.390 . S
C483 H487 0.950 . S
H484 C480 0.950 . S
C485 C483 1.390 . S
C485 C486 1.387 . S
C485 H488 0.950 . S
C486 C485 1.387 . S
C486 C489 1.387 . S
H487 C483 0.950 . S
H488 C485 0.950 . S
C489 C480 1.390 . S
C489 H482 0.950 . S
C489 C486 1.387 . S
C490 C491 1.387 . S
C490 H494 0.950 . S
C490 C499 1.390 . S
C491 C490 1.387 . S
C491 C493 1.387 . S
H492 C499 0.950 . S
C493 C491 1.387 . S
C493 C495 1.390 . S
C493 H497 0.950 . S
H494 C490 0.950 . S
C495 C493 1.390 . S
C495 C496 1.387 . S
C495 H498 0.950 . S
C496 C495 1.387 . S
C496 C499 1.387 . S
H497 C493 0.950 . S
H498 C495 0.950 . S
C499 C490 1.390 . S
C499 H492 0.950 . S
C499 C496 1.387 . S
C500 C501 1.387 . S
C500 H504 0.950 . S
C500 C509 1.390 . S
C501 C500 1.387 . S
C501 C503 1.387 . S
H502 C509 0.950 . S
C503 C501 1.387 . S
C503 C505 1.390 . S
C503 H507 0.950 . S
H504 C500 0.950 . S
C505 C503 1.390 . S
C505 C506 1.387 . S
C505 H508 0.950 . S
C506 C505 1.387 . S
C506 C509 1.387 . S
H507 C503 0.950 . S
H508 C505 0.950 . S
C509 C500 1.390 . S
C509 H502 0.950 . S
C509 C506 1.387 . S
C510 C511 1.387 . S
C510 H514 0.950 1_554 S
C510 C519 1.390 . S
C511 C510 1.387 . S
C511 C513 1.387 . S
H512 C519 0.950 1_556 S
C513 C511 1.387 . S
C513 C515 1.390 . S
C513 H517 0.950 . S
H514 C510 0.950 1_556 S
C515 C513 1.390 . S
C515 C516 1.387 . S
C515 H518 0.950 . S
C516 C515 1.387 . S
C516 C519 1.387 . S
H517 C513 0.950 . S
H518 C515 0.950 . S
C519 C510 1.390 . S
C519 H512 0.950 1_554 S
C519 C516 1.387 . S
C520 C521 1.387 1_554 S
C520 H524 0.950 . S
C520 C529 1.390 . S
C521 C520 1.387 1_556 S
C521 C523 1.387 . S
H522 C529 0.950 . S
C523 C521 1.387 . S
C523 C525 1.390 . S
C523 H527 0.950 . S
H524 C520 0.950 . S
C525 C523 1.390 . S
C525 C526 1.387 . S
C525 H528 0.950 . S
C526 C525 1.387 . S
C526 C529 1.387 1_556 S
H527 C523 0.950 . S
H528 C525 0.950 . S
C529 C520 1.390 . S
C529 H522 0.950 . S
C529 C526 1.387 1_554 S
C530 C531 1.387 . S
C530 H534 0.950 . S
C530 C539 1.390 . S
C531 C530 1.387 . S
C531 C533 1.387 . S
H532 C539 0.950 . S
C533 C531 1.387 . S
C533 C535 1.390 . S
C533 H537 0.950 . S
H534 C530 0.950 . S
C535 C533 1.390 . S
C535 C536 1.387 . S
C535 H538 0.950 . S
C536 C535 1.387 . S
C536 C539 1.387 . S
H537 C533 0.950 . S
H538 C535 0.950 . S
C539 C530 1.390 . S
C539 H532 0.950 . S
C539 C536 1.387 . S
C540 C541 1.387 . S
C540 H544 0.950 . S
C540 C549 1.390 . S
C541 C540 1.387 . S
C541 C543 1.387 . S
H542 C549 0.950 . S
C543 C541 1.387 . S
C543 C545 1.390 . S
C543 H547 0.950 . S
H544 C540 0.950 . S
C545 C543 1.390 . S
C545 C546 1.387 . S
C545 H548 0.950 . S
C546 C545 1.387 . S
C546 C549 1.387 . S
H547 C543 0.950 . S
H548 C545 0.950 . S
C549 C540 1.390 . S
C549 H542 0.950 . S
C549 C546 1.387 . S
C550 C551 1.387 . S
C550 H554 0.950 . S
C550 C559 1.390 . S
C551 C550 1.387 . S
C551 C553 1.387 . S
H552 C559 0.950 . S
C553 C551 1.387 . S
C553 C555 1.390 . S
C553 H557 0.950 . S
H554 C550 0.950 . S
C555 C553 1.390 . S
C555 C556 1.387 . S
C555 H558 0.950 . S
C556 C555 1.387 . S
C556 C559 1.387 . S
H557 C553 0.950 . S
H558 C555 0.950 . S
C559 C550 1.390 . S
C559 H552 0.950 . S
C559 C556 1.387 . S
C560 C561 1.387 . S
C560 H564 0.950 . S
C560 C569 1.390 . S
C561 C560 1.387 . S
C561 C563 1.387 . S
H562 C569 0.950 . S
C563 C561 1.387 . S
C563 C565 1.390 . S
C563 H567 0.950 . S
H564 C560 0.950 . S
C565 C563 1.390 . S
C565 C566 1.387 . S
C565 H568 0.950 . S
C566 C565 1.387 . S
C566 C569 1.387 . S
H567 C563 0.950 . S
H568 C565 0.950 . S
C569 C560 1.390 . S
C569 H562 0.950 . S
C569 C566 1.387 . S
C570 C571 1.387 . S
C570 H574 0.950 . S
C570 C579 1.390 . S
C571 C570 1.387 . S
C571 C573 1.387 1_554 S
H572 C579 0.950 . S
C573 C571 1.387 1_556 S
C573 C575 1.390 . S
C573 H577 0.950 . S
H574 C570 0.950 . S
C575 C573 1.390 . S
C575 C576 1.387 1_556 S
C575 H578 0.950 . S
C576 C575 1.387 1_554 S
C576 C579 1.387 . S
H577 C573 0.950 . S
H578 C575 0.950 . S
C579 C570 1.390 . S
C579 H572 0.950 . S
C579 C576 1.387 . S
C580 C581 1.387 . S
C580 H584 0.950 . S
C580 C589 1.390 . S
C581 C580 1.387 . S
C581 C583 1.387 . S
H582 C589 0.950 . S
C583 C581 1.387 . S
C583 C585 1.390 . S
C583 H587 0.950 . S
H584 C580 0.950 . S
C585 C583 1.390 . S
C585 C586 1.387 . S
C585 H588 0.950 . S
C586 C585 1.387 . S
C586 C589 1.387 . S
H587 C583 0.950 . S
H588 C585 0.950 . S
C589 C580 1.390 . S
C589 H582 0.950 . S
C589 C586 1.387 . S
C590 C591 1.387 . S
C590 H594 0.950 . S
C590 C599 1.390 . S
C591 C590 1.387 . S
C591 C593 1.387 . S
H592 C599 0.950 . S
C593 C591 1.387 . S
C593 C595 1.390 . S
C593 H597 0.950 . S
H594 C590 0.950 . S
C595 C593 1.390 . S
C595 C596 1.387 . S
C595 H598 0.950 . S
C596 C595 1.387 . S
C596 C599 1.387 . S
H597 C593 0.950 . S
H598 C595 0.950 . S
C599 C590 1.390 . S
C599 H592 0.950 . S
C599 C596 1.387 . S
C600 C601 1.387 . S
C600 H604 0.950 . S
C600 C609 1.390 . S
C601 C600 1.387 . S
C601 C603 1.387 . S
H602 C609 0.950 . S
C603 C601 1.387 . S
C603 C605 1.390 . S
C603 H607 0.950 . S
H604 C600 0.950 . S
C605 C603 1.390 . S
C605 C606 1.387 . S
C605 H608 0.950 . S
C606 C605 1.387 . S
C606 C609 1.387 . S
H607 C603 0.950 . S
H608 C605 0.950 . S
C609 C600 1.390 . S
C609 H602 0.950 . S
C609 C606 1.387 . S
C610 C611 1.387 . S
C610 H614 0.950 . S
C610 C619 1.390 . S
C611 C610 1.387 . S
C611 C613 1.387 . S
H612 C619 0.950 . S
C613 C611 1.387 . S
C613 C615 1.390 . S
C613 H617 0.950 . S
H614 C610 0.950 . S
C615 C613 1.390 . S
C615 C616 1.387 . S
C615 H618 0.950 . S
C616 C615 1.387 . S
C616 C619 1.387 . S
H617 C613 0.950 . S
H618 C615 0.950 . S
C619 C610 1.390 . S
C619 H612 0.950 . S
C619 C616 1.387 . S
C620 C621 1.387 1_554 S
C620 H624 0.950 . S
C620 C629 1.390 . S
C621 C620 1.387 1_556 S
C621 C623 1.387 . S
H622 C629 0.950 . S
C623 C621 1.387 . S
C623 C625 1.390 . S
C623 H627 0.950 . S
H624 C620 0.950 . S
C625 C623 1.390 . S
C625 C626 1.387 . S
C625 H628 0.950 . S
C626 C625 1.387 . S
C626 C629 1.387 1_556 S
H627 C623 0.950 . S
H628 C625 0.950 . S
C629 C620 1.390 . S
C629 H622 0.950 . S
C629 C626 1.387 1_554 S
C630 C631 1.387 . S
C630 H634 0.950 . S
C630 C639 1.390 . S
C631 C630 1.387 . S
C631 C633 1.387 . S
H632 C639 0.950 . S
C633 C631 1.387 . S
C633 C635 1.390 . S
C633 H637 0.950 . S
H634 C630 0.950 . S
C635 C633 1.390 . S
C635 C636 1.387 . S
C635 H638 0.950 . S
C636 C635 1.387 . S
C636 C639 1.387 . S
H637 C633 0.950 . S
H638 C635 0.950 . S
C639 C630 1.390 . S
C639 H632 0.950 . S
C639 C636 1.387 . S
C640 C641 1.387 . S
C640 H644 0.950 . S
C640 C649 1.390 . S
C641 C640 1.387 . S
C641 C643 1.387 . S
H642 C649 0.950 . S
C643 C641 1.387 . S
C643 C645 1.390 . S
C643 H647 0.950 . S
H644 C640 0.950 . S
C645 C643 1.390 . S
C645 C646 1.387 . S
C645 H648 0.950 . S
C646 C645 1.387 . S
C646 C649 1.387 . S
H647 C643 0.950 . S
H648 C645 0.950 . S
C649 C640 1.390 . S
C649 H642 0.950 . S
C649 C646 1.387 . S
C650 C651 1.387 . S
C650 H654 0.950 . S
C650 C659 1.390 . S
C651 C650 1.387 . S
C651 C653 1.387 . S
H652 C659 0.950 . S
C653 C651 1.387 . S
C653 C655 1.390 . S
C653 H657 0.950 . S
H654 C650 0.950 . S
C655 C653 1.390 . S
C655 C656 1.387 . S
C655 H658 0.950 . S
C656 C655 1.387 . S
C656 C659 1.387 . S
H657 C653 0.950 . S
H658 C655 0.950 . S
C659 C650 1.390 . S
C659 H652 0.950 . S
C659 C656 1.387 . S
C660 C661 1.387 . S
C660 H664 0.950 . S
C660 C669 1.390 . S
C661 C660 1.387 . S
C661 C663 1.387 . S
H662 C669 0.950 . S
C663 C661 1.387 . S
C663 C665 1.390 . S
C663 H667 0.950 . S
H664 C660 0.950 . S
C665 C663 1.390 . S
C665 C666 1.387 . S
C665 H668 0.950 . S
C666 C665 1.387 . S
C666 C669 1.387 . S
H667 C663 0.950 . S
H668 C665 0.950 . S
C669 C660 1.390 . S
C669 H662 0.950 . S
C669 C666 1.387 . S
C670 C671 1.387 . S
C670 H674 0.950 . S
C670 C679 1.390 . S
C671 C670 1.387 . S
C671 C673 1.387 . S
H672 C679 0.950 . S
C673 C671 1.387 . S
C673 C675 1.390 . S
C673 H677 0.950 . S
H674 C670 0.950 . S
C675 C673 1.390 . S
C675 C676 1.387 . S
C675 H678 0.950 . S
C676 C675 1.387 . S
C676 C679 1.387 . S
H677 C673 0.950 . S
H678 C675 0.950 . S
C679 C670 1.390 . S
C679 H672 0.950 . S
C679 C676 1.387 . S
C680 C681 1.387 . S
C680 H684 0.950 . S
C680 C689 1.390 . S
C681 C680 1.387 . S
C681 C683 1.387 . S
H682 C689 0.950 . S
C683 C681 1.387 . S
C683 C685 1.390 . S
C683 H687 0.950 . S
H684 C680 0.950 . S
C685 C683 1.390 . S
C685 C686 1.387 . S
C685 H688 0.950 . S
C686 C685 1.387 . S
C686 C689 1.387 . S
H687 C683 0.950 . S
H688 C685 0.950 . S
C689 C680 1.390 . S
C689 H682 0.950 . S
C689 C686 1.387 . S
C690 C691 1.387 . S
C690 H694 0.950 . S
C690 C699 1.390 . S
C691 C690 1.387 . S
C691 C693 1.387 . S
H692 C699 0.950 . S
C693 C691 1.387 . S
C693 C695 1.390 . S
C693 H697 0.950 . S
H694 C690 0.950 . S
C695 C693 1.390 . S
C695 C696 1.387 . S
C695 H698 0.950 . S
C696 C695 1.387 . S
C696 C699 1.387 . S
H697 C693 0.950 . S
H698 C695 0.950 . S
C699 C690 1.390 . S
C699 H692 0.950 . S
C699 C696 1.387 . S
C700 C701 1.387 . S
C700 H704 0.950 . S
C700 C709 1.390 . S
C701 C700 1.387 . S
C701 C703 1.387 . S
H702 C709 0.950 . S
C703 C701 1.387 . S
C703 C705 1.390 . S
C703 H707 0.950 . S
H704 C700 0.950 . S
C705 C703 1.390 . S
C705 C706 1.387 . S
C705 H708 0.950 . S
C706 C705 1.387 . S
C706 C709 1.387 . S
H707 C703 0.950 . S
H708 C705 0.950 . S
C709 C700 1.390 . S
C709 H702 0.950 . S
C709 C706 1.387 . S
C710 C711 1.387 . S
C710 H714 0.950 . S
C710 C719 1.390 . S
C711 C710 1.387 . S
C711 C713 1.387 . S
H712 C719 0.950 . S
C713 C711 1.387 . S
C713 C715 1.390 . S
C713 H717 0.950 . S
H714 C710 0.950 . S
C715 C713 1.390 . S
C715 C716 1.387 . S
C715 H718 0.950 . S
C716 C715 1.387 . S
C716 C719 1.387 . S
H717 C713 0.950 . S
H718 C715 0.950 . S
C719 C710 1.390 . S
C719 H712 0.950 . S
C719 C716 1.387 . S
C720 C721 1.387 . S
C720 H724 0.950 . S
C720 C729 1.390 . S
C721 C720 1.387 . S
C721 C723 1.387 . S
H722 C729 0.950 . S
C723 C721 1.387 . S
C723 C725 1.390 . S
C723 H727 0.950 . S
H724 C720 0.950 . S
C725 C723 1.390 . S
C725 C726 1.387 . S
C725 H728 0.950 . S
C726 C725 1.387 . S
C726 C729 1.387 . S
H727 C723 0.950 . S
H728 C725 0.950 . S
C729 C720 1.390 . S
C729 H722 0.950 . S
C729 C726 1.387 . S
C730 C731 1.387 . S
C730 H734 0.950 . S
C730 C739 1.390 . S
C731 C730 1.387 . S
C731 C733 1.387 . S
H732 C739 0.950 . S
C733 C731 1.387 . S
C733 C735 1.390 . S
C733 H737 0.950 . S
H734 C730 0.950 . S
C735 C733 1.390 . S
C735 C736 1.387 . S
C735 H738 0.950 . S
C736 C735 1.387 . S
C736 C739 1.387 . S
H737 C733 0.950 . S
H738 C735 0.950 . S
C739 C730 1.390 . S
C739 H732 0.950 . S
C739 C736 1.387 . S
C740 C741 1.387 . S
C740 H744 0.950 . S
C740 C749 1.390 . S
C741 C740 1.387 . S
C741 C743 1.387 . S
H742 C749 0.950 . S
C743 C741 1.387 . S
C743 C745 1.390 . S
C743 H747 0.950 . S
H744 C740 0.950 . S
C745 C743 1.390 . S
C745 C746 1.387 . S
C745 H748 0.950 . S
C746 C745 1.387 . S
C746 C749 1.387 . S
H747 C743 0.950 . S
H748 C745 0.950 . S
C749 C740 1.390 . S
C749 H742 0.950 . S
C749 C746 1.387 . S
C750 C751 1.387 . S
C750 H754 0.950 . S
C750 C759 1.390 . S
C751 C750 1.387 . S
C751 C753 1.387 . S
H752 C759 0.950 . S
C753 C751 1.387 . S
C753 C755 1.390 . S
C753 H757 0.950 . S
H754 C750 0.950 . S
C755 C753 1.390 . S
C755 C756 1.387 . S
C755 H758 0.950 . S
C756 C755 1.387 . S
C756 C759 1.387 . S
H757 C753 0.950 . S
H758 C755 0.950 . S
C759 C750 1.390 . S
C759 H752 0.950 . S
C759 C756 1.387 . S
C760 C761 1.387 . S
C760 H764 0.950 . S
C760 C769 1.390 . S
C761 C760 1.387 . S
C761 C763 1.387 . S
H762 C769 0.950 . S
C763 C761 1.387 . S
C763 C765 1.390 . S
C763 H767 0.950 . S
H764 C760 0.950 . S
C765 C763 1.390 . S
C765 C766 1.387 . S
C765 H768 0.950 . S
C766 C765 1.387 . S
C766 C769 1.387 . S
H767 C763 0.950 . S
H768 C765 0.950 . S
C769 C760 1.390 . S
C769 H762 0.950 . S
C769 C766 1.387 . S
C770 C771 1.387 . S
C770 H774 0.950 . S
C770 C779 1.390 . S
C771 C770 1.387 . S
C771 C773 1.387 . S
H772 C779 0.950 . S
C773 C771 1.387 . S
C773 C775 1.390 . S
C773 H777 0.950 . S
H774 C770 0.950 . S
C775 C773 1.390 . S
C775 C776 1.387 . S
C775 H778 0.950 . S
C776 C775 1.387 . S
C776 C779 1.387 . S
H777 C773 0.950 . S
H778 C775 0.950 . S
C779 C770 1.390 . S
C779 H772 0.950 . S
C779 C776 1.387 . S
C780 C781 1.387 . S
C780 H784 0.950 . S
C780 C789 1.390 . S
C781 C780 1.387 . S
C781 C783 1.387 . S
H782 C789 0.950 . S
C783 C781 1.387 . S
C783 C785 1.390 . S
C783 H787 0.950 . S
H784 C780 0.950 . S
C785 C783 1.390 . S
C785 C786 1.387 . S
C785 H788 0.950 . S
C786 C785 1.387 . S
C786 C789 1.387 . S
H787 C783 0.950 . S
H788 C785 0.950 . S
C789 C780 1.390 . S
C789 H782 0.950 . S
C789 C786 1.387 . S
C790 C791 1.387 . S
C790 H794 0.950 . S
C790 C799 1.390 . S
C791 C790 1.387 . S
C791 C793 1.387 . S
H792 C799 0.950 . S
C793 C791 1.387 . S
C793 C795 1.390 . S
C793 H797 0.950 . S
H794 C790 0.950 . S
C795 C793 1.390 . S
C795 C796 1.387 . S
C795 H798 0.950 . S
C796 C795 1.387 . S
C796 C799 1.387 . S
H797 C793 0.950 . S
H798 C795 0.950 . S
C799 C790 1.390 . S
C799 H792 0.950 . S
C799 C796 1.387 . S
C486 C393 1.452 . S
C481 C8 1.388 . S
C496 C407 1.444 . S
C491 C61 1.389 . S
C506 C415 1.473 . S
C501 C107 1.428 . S
C511 C139 1.403 . S
C516 C373 1.452 . S
C521 C192 1.350 . S
C526 C379 1.410 1_556 S
C531 C238 1.342 . S
C536 C387 1.399 . S
C546 C401 1.508 . S
C541 C284 1.441 . S
C556 C421 1.471 . S
C551 C330 1.410 . S
C561 C100 1.362 . S
C566 C449 1.424 . S
C576 C463 1.502 . S
C571 C160 1.421 . S
C581 C15 1.346 . S
C586 C471 1.416 . S
C596 C435 1.371 . S
C591 C54 1.313 . S
C601 C291 1.415 . S
C606 C429 1.465 . S
C611 C337 1.431 . S
C616 C443 1.472 . S
C626 C457 1.464 . S
C621 C199 1.420 . S
C631 C245 1.420 . S
C636 C477 1.484 . S
C646 C396 1.674 . S
C641 C1 1.723 . S
C656 C419 1.721 . S
C651 C68 1.724 . S
C661 C114 1.751 . S
C666 C377 1.749 . S
C671 C146 1.776 . S
C676 C382 1.727 . S
C681 C185 1.659 . S
C686 C410 1.599 . S
C696 C368 1.616 . S
C691 C231 1.677 . S
C706 C391 1.655 . S
C701 C277 1.680 . S
C716 C405 1.652 . S
C711 C323 1.677 . S
C726 C452 1.603 . S
C721 C93 1.656 . S
C736 C475 1.644 . S
C731 C153 1.657 . S
C741 C22 1.650 . S
C746 C424 1.606 . S
C756 C438 1.593 . S
C751 C47 1.650 . S
C766 C466 1.717 . S
C761 C298 1.753 . S
C771 C344 1.774 . S
C776 C433 1.771 . S
C786 C447 1.751 . S
C781 C206 1.756 . S
C796 C461 1.721 . S
C791 C252 1.724 . S
