# Generated by pormake.
# Topology pth, (4,4)-cn, num edge types: 1
# Building blocks:
#     Node 0, Type 0, BuildingBlock: QUQFOY_clean_sbu_1, # of connection points: 4
#     Node 1, Type 0, BuildingBlock: QUQFOY_clean_sbu_1, # of connection points: 4
#     Node 2, Type 0, BuildingBlock: QUQFOY_clean_sbu_1, # of connection points: 4
#     Node 3, Type 1, BuildingBlock: MUDLON_clean_linker_0, # of connection points: 4
#     Node 4, Type 1, BuildingBlock: MUDLON_clean_linker_0, # of connection points: 4
#     Node 5, Type 1, BuildingBlock: MUDLON_clean_linker_0, # of connection points: 4
#     Edge 6, Type (0, 1), BuildingBlock: TEMPAE_clean_linker_10, # of connection points: 2
#     Edge 7, Type (0, 1), BuildingBlock: TEMPAE_clean_linker_10, # of connection points: 2
#     Edge 8, Type (0, 1), BuildingBlock: TEMPAE_clean_linker_10, # of connection points: 2
#     Edge 9, Type (0, 1), BuildingBlock: TEMPAE_clean_linker_10, # of connection points: 2
#     Edge 10, Type (0, 1), BuildingBlock: TEMPAE_clean_linker_10, # of connection points: 2
#     Edge 11, Type (0, 1), BuildingBlock: TEMPAE_clean_linker_10, # of connection points: 2
#     Edge 12, Type (0, 1), BuildingBlock: TEMPAE_clean_linker_10, # of connection points: 2
#     Edge 13, Type (0, 1), BuildingBlock: TEMPAE_clean_linker_10, # of connection points: 2
#     Edge 14, Type (0, 1), BuildingBlock: TEMPAE_clean_linker_10, # of connection points: 2
#     Edge 15, Type (0, 1), BuildingBlock: TEMPAE_clean_linker_10, # of connection points: 2
#     Edge 16, Type (0, 1), BuildingBlock: TEMPAE_clean_linker_10, # of connection points: 2
#     Edge 17, Type (0, 1), BuildingBlock: TEMPAE_clean_linker_10, # of connection points: 2
# Relax obj value: 0.050
# Max RMSD: 0.152
# Mean RMSD: 0.116
data_MOF--net-pth--node1-QUQFOY_clean_sbu_1--node2-MUDLON_clean_linker_0--edge1-TEMPAE_clean_linker_10
_symmetry_space_group_name_H-M    P1
_symmetry_Int_Tables_number       1
_symmetry_cell_setting            triclinic
loop_
_symmetry_equiv_pos_as_xyz
'x, y, z'
_cell_length_a     32.853712
_cell_length_b     35.307475
_cell_length_c     71.138179
_cell_angle_alpha  89.980847
_cell_angle_beta   90.042841
_cell_angle_gamma 120.04943
loop_
_atom_site_label
_atom_site_type_symbol
_atom_site_fract_x
_atom_site_fract_y
_atom_site_fract_z
_atom_type_partial_charge
O0 O 0.04123 0.07091 0.01732 0.0
Cd1 Cd 0.97919 0.0326 0.03166 0.0
Cd2 Cd 0.01451 0.97611 0.03063 0.0
O3 O 0.07287 0.02874 0.01894 0.0
O4 O 0.95869 0.0757 0.03751 0.0
O5 O 0.97669 0.04229 0.0595 0.0
C6 C 0.96435 0.07061 0.05506 0.0
C7 C 0.02283 0.9368 0.05523 0.0
C8 C 0.07522 0.06437 0.014 0.0
C9 C 0.9229 0.94812 0.0106 0.0
O10 O 0.95686 0.94131 0.01357 0.0
O11 O 0.92353 0.9817 0.01746 0.0
O12 O 0.0349 0.93389 0.03829 0.0
O13 O 0.00702 0.96318 0.05837 0.0
O14 O 0.97262 0.04248 0.38111 0.0
Cd15 Cd 0.02609 0.05107 0.36327 0.0
Cd16 Cd 0.97872 0.96475 0.36436 0.0
O17 O 0.92531 0.97231 0.3756 0.0
O18 O 0.0536 0.1118 0.35329 0.0
O19 O 0.01425 0.05257 0.33568 0.0
C20 C 0.03562 0.09469 0.33721 0.0
C21 C 0.96849 0.91891 0.33906 0.0
C22 C 0.93295 0.0079 0.38317 0.0
C23 C 0.07248 0.01011 0.38352 0.0
O24 O 0.03257 0.97549 0.38234 0.0
O25 O 0.08006 0.04452 0.37483 0.0
O26 O 0.95138 0.90322 0.35541 0.0
O27 O 0.98949 0.96085 0.33684 0.0
O28 O 0.93479 0.98283 0.68363 0.0
Cd29 Cd 0.97419 0.96429 0.6998 0.0
Cd30 Cd 0.03269 0.051 0.6999 0.0
O31 O 0.97691 0.05398 0.68825 0.0
O32 O 0.92832 0.90338 0.70769 0.0
O33 O 0.96462 0.95806 0.72782 0.0
C34 C 0.93446 0.91731 0.72479 0.0
C35 C 0.0738 0.09492 0.7255 0.0
C36 C 0.9409 0.02105 0.68135 0.0
C37 C 0.0641 0.99552 0.67938 0.0
O38 O 0.07029 0.03362 0.68215 0.0
O39 O 0.02908 0.96229 0.68665 0.0
O40 O 0.07843 0.11105 0.70885 0.0
O41 O 0.04452 0.05364 0.72774 0.0
H42 H 0.9393 0.64557 0.21025 0.0
N43 N 0.02497 0.65596 0.20011 0.0
H44 H 0.92467 0.68353 0.2354 0.0
H45 H 0.0852 0.70676 0.22628 0.0
H46 H 0.07161 0.74742 0.25091 0.0
H47 H 0.0998 0.71999 0.18331 0.0
H48 H 0.10098 0.76492 0.15695 0.0
H49 H 0.94959 0.63922 0.17811 0.0
H50 H 0.94962 0.68559 0.15259 0.0
H51 H 0.938 0.58247 0.2051 0.0
H52 H 0.08338 0.62662 0.19283 0.0
H53 H 0.92063 0.5071 0.20502 0.0
H54 H 0.06585 0.55081 0.19138 0.0
H55 H 0.89814 0.29837 0.231 0.0
H56 H 0.91982 0.26157 0.25467 0.0
H57 H 0.05808 0.31698 0.22971 0.0
H58 H 0.03462 0.35084 0.20541 0.0
H59 H 0.01371 0.37047 0.17316 0.0
H60 H 0.01397 0.32753 0.1462 0.0
H61 H 0.88017 0.21965 0.16429 0.0
H62 H 0.87933 0.2638 0.19043 0.0
H63 H 0.89269 0.37224 0.18896 0.0
H64 H 0.91066 0.44815 0.18712 0.0
H65 H 0.04925 0.49057 0.20967 0.0
N66 N 0.94745 0.34195 0.20104 0.0
H67 H 0.0321 0.4155 0.21028 0.0
C68 C 0.0134 0.67251 0.21657 0.0
C69 C 0.96811 0.66631 0.21944 0.0
C70 C 0.95993 0.68893 0.23369 0.0
C71 C 0.997 0.71908 0.24514 0.0
C72 C 0.04196 0.7241 0.24261 0.0
C73 C 0.0499 0.70092 0.22852 0.0
C74 C 0.02473 0.67678 0.18277 0.0
C75 C 0.06712 0.71182 0.17631 0.0
C76 C 0.06754 0.7378 0.16143 0.0
C77 C 0.02526 0.72967 0.15287 0.0
C78 C 0.98291 0.69292 0.15876 0.0
C79 C 0.9827 0.66649 0.17349 0.0
C80 C 0.01246 0.61056 0.19938 0.0
C81 C 0.96631 0.57614 0.20232 0.0
C82 C 0.95624 0.53261 0.202 0.0
C83 C 0.99181 0.52237 0.1983 0.0
C84 C 0.03764 0.55707 0.19477 0.0
C85 C 0.04775 0.60052 0.19543 0.0
C86 C 0.96479 0.32792 0.21665 0.0
C87 C 0.93341 0.30322 0.23094 0.0
C88 C 0.94603 0.28227 0.24448 0.0
C89 C 0.9908 0.28602 0.24417 0.0
C90 C 0.02302 0.31253 0.23026 0.0
C91 C 0.00997 0.33272 0.21651 0.0
C92 C 0.9461 0.32036 0.18366 0.0
C93 C 0.98395 0.33801 0.17097 0.0
C94 C 0.98428 0.31309 0.15571 0.0
C95 C 0.94721 0.26982 0.15304 0.0
C96 C 0.90894 0.25296 0.16556 0.0
C97 C 0.90837 0.27808 0.18059 0.0
C98 C 0.96049 0.38759 0.19991 0.0
C99 C 0.92706 0.39807 0.19336 0.0
C100 C 0.93733 0.44157 0.19251 0.0
C101 C 0.98137 0.47593 0.19842 0.0
C102 C 0.01516 0.46536 0.20473 0.0
C103 C 0.00509 0.42187 0.20529 0.0
H104 H 0.76022 0.12607 0.5442 0.0
N105 N 0.67824 0.06256 0.53162 0.0
H106 H 0.80306 0.12563 0.5724 0.0
H107 H 0.64658 0.99747 0.55855 0.0
H108 H 0.68871 0.99725 0.5866 0.0
H109 H 0.68418 0.98834 0.5271 0.0
H110 H 0.71543 0.96958 0.4997 0.0
H111 H 0.70828 0.10665 0.49964 0.0
H112 H 0.74002 0.08833 0.47218 0.0
H113 H 0.6396 0.11278 0.5334 0.0
H114 H 0.60487 0.97804 0.52996 0.0
H115 H 0.55607 0.08994 0.53278 0.0
H116 H 0.52161 0.95454 0.53075 0.0
H117 H 0.33296 0.03429 0.54651 0.0
H118 H 0.29024 0.03294 0.57477 0.0
H119 H 0.23602 0.89419 0.58024 0.0
H120 H 0.28067 0.89578 0.55214 0.0
H121 H 0.27089 0.90844 0.50626 0.0
H122 H 0.24059 0.92568 0.47796 0.0
H123 H 0.33235 0.06358 0.48832 0.0
H124 H 0.36378 0.04605 0.51623 0.0
H125 H 0.40439 0.0359 0.54896 0.0
H126 H 0.48689 0.05795 0.54994 0.0
H127 H 0.46022 0.95034 0.51315 0.0
N128 N 0.33409 0.96409 0.53033 0.0
H129 H 0.37655 0.92657 0.51341 0.0
C130 C 0.70005 0.06222 0.54921 0.0
C131 C 0.74422 0.09811 0.55355 0.0
C132 C 0.76865 0.09773 0.56957 0.0
C133 C 0.74907 0.06144 0.58168 0.0
C134 C 0.70431 0.02589 0.57763 0.0
C135 C 0.68016 0.02605 0.56148 0.0
C136 C 0.69435 0.04926 0.51543 0.0
C137 C 0.69599 0.0102 0.51515 0.0
C138 C 0.71396 0.99955 0.49949 0.0
C139 C 0.73027 0.02753 0.48381 0.0
C140 C 0.72725 0.06586 0.48395 0.0
C141 C 0.70948 0.07655 0.49963 0.0
C142 C 0.62854 0.04733 0.53197 0.0
C143 C 0.61381 0.07822 0.53283 0.0
C144 C 0.56599 0.06497 0.53262 0.0
C145 C 0.53171 0.02025 0.53183 0.0
C146 C 0.54674 0.98927 0.53107 0.0
C147 C 0.59458 1.00266 0.53088 0.0
C148 C 0.3107 0.96506 0.54733 0.0
C149 C 0.3128 1.00364 0.55386 0.0
C150 C 0.28834 1.00294 0.57002 0.0
C151 C 0.26041 0.96357 0.57961 0.0
C152 C 0.25777 0.92494 0.57306 0.0
C153 C 0.28313 0.92584 0.55711 0.0
C154 C 0.31885 0.97581 0.51345 0.0
C155 C 0.28472 0.94232 0.50228 0.0
C156 C 0.26771 0.95221 0.48614 0.0
C157 C 0.28421 0.99594 0.48103 0.0
C158 C 0.31897 0.02963 0.49206 0.0
C159 C 0.33665 0.01965 0.50805 0.0
C160 C 0.38367 0.97877 0.53134 0.0
C161 C 0.41574 0.01647 0.54131 0.0
C162 C 0.46352 0.02954 0.54166 0.0
C163 C 0.48063 0.006 0.53166 0.0
C164 C 0.44848 0.9688 0.52142 0.0
C165 C 0.40062 0.95528 0.5214 0.0
H166 H 0.61353 0.7427 0.88046 0.0
N167 N 0.60924 0.66848 0.87038 0.0
H168 H 0.65551 0.78936 0.90741 0.0
H169 H 0.64882 0.64679 0.89968 0.0
H170 H 0.69024 0.69289 0.9265 0.0
H171 H 0.69978 0.684 0.86907 0.0
H172 H 0.75679 0.72243 0.84421 0.0
H173 H 0.59257 0.69086 0.83684 0.0
H174 H 0.64868 0.72717 0.8113 0.0
H175 H 0.51607 0.6259 0.8705 0.0
H176 H 0.63476 0.60549 0.87136 0.0
H177 H 0.46249 0.54689 0.87078 0.0
H178 H 0.58186 0.52661 0.8729 0.0
H179 H 0.30827 0.33343 0.88482 0.0
H180 H 0.26132 0.29118 0.91159 0.0
H181 H 0.37125 0.26473 0.92797 0.0
H182 H 0.41846 0.30735 0.9009 0.0
H183 H 0.38089 0.2716 0.85623 0.0
H184 H 0.32713 0.23231 0.83034 0.0
H185 H 0.28808 0.33229 0.82748 0.0
H186 H 0.34111 0.37072 0.85368 0.0
H187 H 0.37753 0.40614 0.88952 0.0
H188 H 0.43123 0.48444 0.88927 0.0
H189 H 0.52922 0.46525 0.85573 0.0
N190 N 0.39274 0.34284 0.87365 0.0
H191 H 0.47616 0.38622 0.85715 0.0
C192 C 0.62762 0.69116 0.88797 0.0
C193 C 0.62933 0.73126 0.89071 0.0
C194 C 0.65352 0.75792 0.906 0.0
C195 C 0.67625 0.74478 0.91899 0.0
C196 C 0.67262 0.70364 0.91681 0.0
C197 C 0.64882 0.67717 0.90139 0.0
C198 C 0.64195 0.68523 0.85491 0.0
C199 C 0.68824 0.69307 0.85648 0.0
C200 C 0.72085 0.71487 0.84213 0.0
C201 C 0.70767 0.72862 0.8258 0.0
C202 C 0.66052 0.71824 0.82387 0.0
C203 C 0.6282 0.69704 0.83833 0.0
C204 C 0.57921 0.62162 0.87111 0.0
C205 C 0.53046 0.60422 0.87102 0.0
C206 C 0.49994 0.55899 0.87133 0.0
C207 C 0.5176 0.52997 0.872 0.0
C208 C 0.56675 0.54766 0.87212 0.0
C209 C 0.59723 0.59295 0.87147 0.0
C210 C 0.36697 0.32331 0.89075 0.0
C211 C 0.3227 0.31908 0.89422 0.0
C212 C 0.29573 0.29474 0.90952 0.0
C213 C 0.31241 0.27424 0.92172 0.0
C214 C 0.35761 0.28031 0.91882 0.0
C215 C 0.38454 0.30454 0.9034 0.0
C216 C 0.36531 0.32409 0.85682 0.0
C217 C 0.36127 0.28532 0.84977 0.0
C218 C 0.33057 0.263 0.83497 0.0
C219 C 0.30315 0.27909 0.82685 0.0
C220 C 0.30822 0.31872 0.83358 0.0
C221 C 0.33893 0.341 0.84843 0.0
C222 C 0.4231 0.38985 0.87357 0.0
C223 C 0.41067 0.41842 0.88229 0.0
C224 C 0.44144 0.46365 0.88193 0.0
C225 C 0.48491 0.4816 0.87251 0.0
C226 C 0.4967 0.45288 0.86351 0.0
C227 C 0.46624 0.40763 0.86415 0.0
C228 C 0.96133 0.13747 0.06398 0.0
C229 C 0.95932 0.09836 0.06941 0.0
C230 C 0.95927 0.16569 0.07733 0.0
C231 C 0.95407 0.15413 0.09658 0.0
C232 C 0.95103 0.11423 0.10215 0.0
C233 C 0.95424 0.08703 0.0885 0.0
C234 C 0.9636 0.20831 0.07085 0.0
C235 C 0.9445 0.10037 0.12251 0.0
C236 C 0.99212 0.24405 0.13323 0.0
C237 C 0.94927 0.24144 0.13794 0.0
C238 C 0.99423 0.21613 0.11969 0.0
C239 C 0.95237 0.18412 0.11088 0.0
C240 C 0.90903 0.18125 0.11551 0.0
C241 C 0.90808 0.21022 0.12878 0.0
C242 C 0.04128 0.22075 0.11489 0.0
C243 C 0.86356 0.1473 0.10655 0.0
H244 H 0.9657 0.14665 0.04926 0.0
H245 H 0.95254 0.05679 0.09276 0.0
H246 H 0.93207 0.20995 0.07513 0.0
H247 H 0.99446 0.23618 0.07766 0.0
H248 H 0.96766 0.21252 0.05536 0.0
H249 H 0.94098 0.06763 0.12444 0.0
H250 H 0.97492 0.12456 0.13091 0.0
H251 H 0.91264 0.09951 0.12824 0.0
H252 H 0.02408 0.26737 0.14039 0.0
H253 H 0.87488 0.20832 0.13199 0.0
H254 H 0.04789 0.22627 0.09957 0.0
H255 H 0.04116 0.19008 0.1184 0.0
H256 H 0.07075 0.24824 0.12254 0.0
H257 H 0.86515 0.15234 0.09112 0.0
H258 H 0.8326 0.14843 0.11212 0.0
H259 H 0.85828 0.1141 0.10903 0.0
C260 C 0.85439 0.97037 0.39929 0.0
C261 C 0.89714 0.00872 0.39558 0.0
C262 C 0.82247 0.97018 0.41249 0.0
C263 C 0.83371 0.00917 0.42223 0.0
C264 C 0.87593 0.04829 0.41803 0.0
C265 C 0.90702 0.04761 0.40474 0.0
C266 C 0.77755 0.92794 0.41648 0.0
C267 C 0.8892 0.09059 0.42811 0.0
C268 C 0.74337 0.02462 0.44921 0.0
C269 C 0.753 0.01831 0.4678 0.0
C270 C 0.76792 0.01985 0.4341 0.0
C271 C 0.80313 0.00887 0.43771 0.0
C272 C 0.81178 1.00092 0.45639 0.0
C273 C 0.78655 0.00566 0.4712 0.0
C274 C 0.75735 0.0281 0.41435 0.0
C275 C 0.84922 0.98936 0.46083 0.0
H276 H 0.84633 0.94019 0.39224 0.0
H277 H 0.9398 0.07748 0.40193 0.0
H278 H 0.77867 0.91684 0.43097 0.0
H279 H 0.74691 0.93306 0.4157 0.0
H280 H 0.77193 0.90154 0.40651 0.0
H281 H 0.9221 0.1186 0.42253 0.0
H282 H 0.86053 0.09838 0.42684 0.0
H283 H 0.89416 0.08703 0.44331 0.0
H284 H 0.71702 0.03385 0.44651 0.0
H285 H 0.7945 1.00121 0.48555 0.0
H286 H 0.75143 1.00068 0.40498 0.0
H287 H 0.78796 0.05819 0.40872 0.0
H288 H 0.72597 0.03217 0.41375 0.0
H289 H 0.84386 0.96098 0.45226 0.0
H290 H 0.84938 0.98132 0.47593 0.0
H291 H 0.88432 0.0173 0.45719 0.0
C292 C 0.8663 0.84703 0.73591 0.0
C293 C 0.90559 0.8878 0.74018 0.0
C294 C 0.83593 0.82008 0.75008 0.0
C295 C 0.84538 0.8339 0.76904 0.0
C296 C 0.88602 0.87422 0.77354 0.0
C297 C 0.91547 0.90089 0.75903 0.0
C298 C 0.79267 0.77761 0.74466 0.0
C299 C 0.89768 0.88971 0.79363 0.0
C300 C 0.74113 0.78981 0.80226 0.0
C301 C 0.74325 0.75542 0.81125 0.0
C302 C 0.77421 0.81558 0.78858 0.0
C303 C 0.81102 0.80744 0.78395 0.0
C304 C 0.81399 0.77333 0.79315 0.0
C305 C 0.77989 0.74752 0.80657 0.0
C306 C 0.76953 0.85138 0.77897 0.0
C307 C 0.85302 0.76395 0.78871 0.0
H308 H 0.85832 0.83668 0.72138 0.0
H309 H 0.9459 0.93224 0.76244 0.0
H310 H 0.79129 0.74998 0.75261 0.0
H311 H 0.76067 0.77906 0.74836 0.0
H312 H 0.79158 0.77057 0.72939 0.0
H313 H 0.93253 0.91994 0.79492 0.0
H314 H 0.87048 0.89642 0.79931 0.0
H315 H 0.89756 0.86382 0.80252 0.0
H316 H 0.71377 0.79701 0.80604 0.0
H317 H 0.78169 0.72082 0.81326 0.0
H318 H 0.7659 0.84564 0.76357 0.0
H319 H 0.80169 0.88348 0.78135 0.0
H320 H 0.73869 0.85333 0.7841 0.0
H321 H 0.85062 0.75387 0.7738 0.0
H322 H 0.85172 0.73771 0.79776 0.0
H323 H 0.88768 0.79403 0.7906 0.0
C324 C 0.05311 0.88962 0.0679 0.0
C325 C 0.02535 0.90916 0.07031 0.0
C326 C 0.05392 0.86122 0.0815 0.0
C327 C 0.02559 0.85143 0.09777 0.0
C328 C 0.99774 0.87132 0.10036 0.0
C329 C 0.99831 0.90031 0.08668 0.0
C330 C 0.08487 0.84145 0.0784 0.0
C331 C 0.96657 0.86122 0.1174 0.0
C332 C 0.99415 0.74548 0.12327 0.0
C333 C 0.0253 0.76067 0.13859 0.0
C334 C 0.99337 0.77469 0.11004 0.0
C335 C 0.02499 0.82017 0.11198 0.0
C336 C 0.05665 0.83574 0.12732 0.0
C337 C 0.05609 0.80593 0.1405 0.0
C338 C 0.95875 0.75687 0.09396 0.0
C339 C 0.09129 0.88394 0.12977 0.0
H340 H 0.07427 0.89652 0.05532 0.0
H341 H 0.97652 0.91506 0.08854 0.0
H342 H 0.10914 0.84909 0.09049 0.0
H343 H 0.06295 0.80531 0.07753 0.0
H344 H 0.10606 0.85363 0.06534 0.0
H345 H 0.94724 0.87955 0.11738 0.0
H346 H 0.94064 0.82567 0.11788 0.0
H347 H 0.98791 0.8694 0.13042 0.0
H348 H 0.97059 0.71066 0.12148 0.0
H349 H 0.07956 0.81828 0.15249 0.0
H350 H 0.97792 0.76473 0.0804 0.0
H351 H 0.93677 0.77259 0.09381 0.0
H352 H 0.93525 0.72085 0.09486 0.0
H353 H 0.11398 0.89681 0.11714 0.0
H354 H 0.11412 0.89068 0.1423 0.0
H355 H 0.07223 0.90231 0.13121 0.0
C356 C 0.15584 0.04456 0.39506 0.0
C357 C 0.10883 0.01074 0.39605 0.0
C358 C 0.18975 0.04598 0.40757 0.0
C359 C 0.17602 0.01333 0.42158 0.0
C360 C 0.12869 0.97902 0.42254 0.0
C361 C 0.09585 0.97794 0.40968 0.0
C362 C 0.2401 0.08253 0.40591 0.0
C363 C 0.11243 0.94387 0.43744 0.0
C364 C 0.25872 0.98577 0.44742 0.0
C365 C 0.26284 0.00589 0.46484 0.0
C366 C 0.2332 0.99046 0.43268 0.0
C367 C 0.21043 0.01502 0.43563 0.0
C368 C 0.21631 0.03702 0.45294 0.0
C369 C 0.24284 0.03247 0.46731 0.0
C370 C 0.2286 0.96729 0.41429 0.0
C371 C 0.19202 0.06294 0.45675 0.0
H372 H 0.16613 0.0699 0.38452 0.0
H373 H 0.05956 0.95184 0.41063 0.0
H374 H 0.2506 0.10277 0.41885 0.0
H375 H 0.26383 0.06879 0.40453 0.0
H376 H 0.24555 0.10406 0.39365 0.0
H377 H 0.07431 0.91963 0.43632 0.0
H378 H 0.13236 0.92625 0.43628 0.0
H379 H 0.11947 0.95898 0.45161 0.0
H380 H 0.27459 0.96551 0.4455 0.0
H381 H 0.24577 0.04775 0.48084 0.0
H382 H 0.23491 0.98962 0.40228 0.0
H383 H 0.19231 0.93922 0.41286 0.0
H384 H 0.25354 0.95477 0.41334 0.0
H385 H 0.19872 0.08638 0.44517 0.0
H386 H 0.20369 0.08136 0.47019 0.0
H387 H 0.15345 0.04036 0.45744 0.0
C388 C 0.13243 0.16795 0.73858 0.0
C389 C 0.10314 0.12276 0.74122 0.0
C390 C 0.16337 0.19443 0.75274 0.0
C391 C 0.1653 0.17525 0.76994 0.0
C392 C 0.1349 0.12987 0.77291 0.0
C393 C 0.10407 0.10416 0.75853 0.0
C394 C 0.19491 0.24275 0.74908 0.0
C395 C 0.13598 0.10822 0.79107 0.0
C396 C 0.27933 0.23274 0.79772 0.0
C397 C 0.26825 0.25366 0.81192 0.0
C398 C 0.24611 0.20708 0.78403 0.0
C399 C 0.2007 0.20235 0.78445 0.0
C400 C 0.18938 0.22372 0.79861 0.0
C401 C 0.22325 0.24904 0.81219 0.0
C402 C 0.25959 0.18491 0.76913 0.0
C403 C 0.14139 0.21956 0.79948 0.0
H404 H 0.1318 0.18266 0.72529 0.0
H405 H 0.08158 0.06927 0.76067 0.0
H406 H 0.19088 0.26214 0.76045 0.0
H407 H 0.23221 0.25092 0.7491 0.0
H408 H 0.1872 0.25301 0.7354 0.0
H409 H 0.10844 0.0731 0.79155 0.0
H410 H 0.17086 0.11081 0.79277 0.0
H411 H 0.131 0.1252 0.80321 0.0
H412 H 0.31418 0.2366 0.79726 0.0
H413 H 0.21413 0.26453 0.82327 0.0
H414 H 0.25614 0.19623 0.75498 0.0
H415 H 0.23537 0.149 0.76964 0.0
H416 H 0.29621 0.19156 0.77086 0.0
H417 H 0.13376 0.23087 0.78608 0.0
H418 H 0.13841 0.23882 0.8112 0.0
H419 H 0.11402 0.18473 0.80131 0.0
C420 C 0.87535 0.99295 0.65796 0.0
C421 C 0.90802 0.0274 0.66926 0.0
C422 C 0.84764 0.99952 0.64482 0.0
C423 C 0.85218 0.0414 0.6431 0.0
C424 C 0.88338 0.07578 0.65508 0.0
C425 C 0.9112 0.06846 0.66794 0.0
C426 C 0.81506 0.9621 0.63218 0.0
C427 C 0.88855 0.12067 0.65388 0.0
C428 C 0.82276 0.0688 0.59525 0.0
C429 C 0.77635 0.05938 0.59786 0.0
C430 C 0.84812 0.06391 0.60998 0.0
C431 C 0.82671 0.04979 0.62784 0.0
C432 C 0.78034 0.04157 0.63072 0.0
C433 C 0.75552 0.0461 0.61563 0.0
C434 C 0.89726 0.07242 0.60626 0.0
C435 C 0.75666 0.02716 0.64963 0.0
H436 H 0.87262 0.96112 0.65884 0.0
H437 H 0.9361 0.09518 0.67671 0.0
H438 H 0.77891 0.95694 0.6329 0.0
H439 H 0.82697 0.97017 0.61738 0.0
H440 H 0.81379 0.93099 0.63597 0.0
H441 H 0.91074 0.14255 0.66539 0.0
H442 H 0.9048 0.13602 0.64024 0.0
H443 H 0.85352 0.11816 0.65444 0.0
H444 H 0.83872 0.07857 0.58146 0.0
H445 H 0.71973 0.03914 0.61768 0.0
H446 H 0.89842 0.04183 0.60835 0.0
H447 H 0.92238 0.09692 0.61636 0.0
H448 H 0.90932 0.08449 0.59176 0.0
H449 H 0.75157 0.99447 0.6532 0.0
H450 H 0.72187 0.02525 0.64992 0.0
H451 H 0.77926 0.05018 0.66074 0.0
C452 C 0.88735 0.88629 0.98763 0.0
C453 C 0.88316 0.91724 0.99856 0.0
C454 C 0.85115 0.85798 0.9755 0.0
C455 C 0.80936 0.86018 0.97444 0.0
C456 C 0.80434 0.89057 0.98576 0.0
C457 C 0.84147 0.91899 0.9976 0.0
C458 C 0.85813 0.8264 0.96349 0.0
C459 C 0.76001 0.89341 0.98519 0.0
C460 C 0.74059 0.81845 0.92898 0.0
C461 C 0.7071 0.77535 0.93376 0.0
C462 C 0.77321 0.84681 0.94226 0.0
C463 C 0.77198 0.83185 0.96083 0.0
C464 C 0.73708 0.78888 0.96593 0.0
C465 C 0.70527 0.76097 0.95228 0.0
C466 C 0.81026 0.89216 0.93617 0.0
C467 C 0.73423 0.77198 0.98567 0.0
H468 H 0.91945 0.88474 0.98822 0.0
H469 H 0.83781 0.94261 0.00608 0.0
H470 H 0.82952 0.79239 0.96612 0.0
H471 H 0.85651 0.83351 0.9484 0.0
H472 H 0.89238 0.82825 0.96624 0.0
H473 H 0.76052 0.91698 0.99566 0.0
H474 H 0.75548 0.90374 0.97098 0.0
H475 H 0.72892 0.86075 0.98792 0.0
H476 H 0.74252 0.82948 0.91462 0.0
H477 H 0.67917 0.72775 0.95603 0.0
H478 H 0.84555 0.89534 0.93717 0.0
H479 H 0.81023 0.91711 0.94563 0.0
H480 H 0.80486 0.89955 0.9215 0.0
H481 H 0.7659 0.76943 0.98869 0.0
H482 H 0.70257 0.7393 0.98779 0.0
H483 H 0.73357 0.79517 0.99602 0.0
C484 C 0.93704 0.84436 0.32514 0.0
C485 C 0.9673 0.88973 0.32386 0.0
C486 C 0.939 0.81579 0.31192 0.0
C487 C 0.97264 0.83294 0.29727 0.0
C488 C 1.00247 0.8788 0.29563 0.0
C489 C 0.99914 0.90668 0.30885 0.0
C490 C 0.90588 0.76717 0.31391 0.0
C491 C 0.03916 0.89834 0.28035 0.0
C492 C 0.01339 0.75861 0.27613 0.0
C493 C 0.98942 0.74693 0.25887 0.0
C494 C 0.0083 0.78661 0.28871 0.0
C495 C 0.97788 0.80283 0.28412 0.0
C496 C 0.95288 0.79058 0.26692 0.0
C497 C 0.95928 0.76318 0.25445 0.0
C498 C 0.03588 0.79921 0.30686 0.0
C499 C 0.9197 0.80675 0.26161 0.0
H500 H 0.9122 0.83107 0.33666 0.0
H501 H 0.02285 0.94169 0.30786 0.0
H502 H 0.88697 0.75336 0.30049 0.0
H503 H 0.92619 0.75059 0.31712 0.0
H504 H 0.87959 0.75934 0.32524 0.0
H505 H 0.05841 0.93468 0.28057 0.0
H506 H 0.06495 0.88701 0.28206 0.0
H507 H 0.02255 0.88709 0.26635 0.0
H508 H 0.03619 0.74582 0.27985 0.0
H509 H 0.94127 0.75522 0.24103 0.0
H510 H 0.0115 0.78876 0.31902 0.0
H511 H 0.05844 0.83532 0.30768 0.0
H512 H 0.05856 0.78431 0.30823 0.0
H513 H 0.893 0.79832 0.2728 0.0
H514 H 0.90127 0.79262 0.24812 0.0
H515 H 0.93943 0.84292 0.26032 0.0
C516 C 0.09908 0.95154 0.66709 0.0
C517 C 0.09601 0.98974 0.66656 0.0
C518 C 0.12734 0.94496 0.65419 0.0
C519 C 0.15206 0.97685 0.64018 0.0
C520 C 0.14946 0.01566 0.63973 0.0
C521 C 0.12192 0.02185 0.65306 0.0
C522 C 0.13025 0.9037 0.65538 0.0
C523 C 0.17457 0.05009 0.6248 0.0
C524 C 0.25437 0.9835 0.61265 0.0
C525 C 0.23226 0.96283 0.59585 0.0
C526 C 0.22826 0.98633 0.62765 0.0
C527 C 0.17925 0.96918 0.62546 0.0
C528 C 0.15675 0.94748 0.60858 0.0
C529 C 0.18357 0.94417 0.59401 0.0
C530 C 0.2533 0.0088 0.64557 0.0
C531 C 0.10478 0.92959 0.60554 0.0
H532 H 0.07934 0.92675 0.67758 0.0
H533 H 0.11943 0.05131 0.65248 0.0
H534 H 0.11451 0.88355 0.64261 0.0
H535 H 0.16757 0.91197 0.65594 0.0
H536 H 0.11169 0.88369 0.66791 0.0
H537 H 0.16918 0.07856 0.6265 0.0
H538 H 0.21285 0.06201 0.62523 0.0
H539 H 0.16171 0.03564 0.61068 0.0
H540 H 0.29216 0.99787 0.61394 0.0
H541 H 0.16682 0.92855 0.58087 0.0
H542 H 0.2347 0.98809 0.65791 0.0
H543 H 0.25316 0.03999 0.64718 0.0
H544 H 0.29036 0.01612 0.64576 0.0
H545 H 0.08428 0.90685 0.61707 0.0
H546 H 0.09236 0.91202 0.59194 0.0
H547 H 0.09711 0.95684 0.60578 0.0
C548 C 0.14735 0.08656 0.99456 0.0
C549 C 0.11636 0.09756 0.00327 0.0
C550 C 0.18305 0.11622 0.98254 0.0
C551 C 0.18815 0.15798 0.97935 0.0
C552 C 0.15865 0.1701 0.98892 0.0
C553 C 0.12296 0.13968 0.00068 0.0
C554 C 0.21364 0.102 0.9725 0.0
C555 C 0.16334 0.21451 0.98608 0.0
C556 C 0.29783 0.24679 0.95502 0.0
C557 C 0.28133 0.2444 0.93662 0.0
C558 C 0.26805 0.21871 0.96913 0.0
C559 C 0.22097 0.18729 0.96463 0.0
C560 C 0.20448 0.18434 0.94599 0.0
C561 C 0.23479 0.21301 0.93226 0.0
C562 C 0.28667 0.22307 0.98889 0.0
C563 C 0.15469 0.15099 0.94055 0.0
H564 H 0.14252 0.05411 0.99649 0.0
H565 H 0.0995 0.14863 0.00752 0.0
H566 H 0.2054 0.09854 0.95725 0.0
H567 H 0.2513 0.12709 0.97405 0.0
H568 H 0.2083 0.07026 0.97786 0.0
H569 H 0.14111 0.22051 0.99602 0.0
H570 H 0.20048 0.24072 0.98789 0.0
H571 H 0.15276 0.21703 0.97153 0.0
H572 H 0.33377 0.27114 0.95843 0.0
H573 H 0.22218 0.21057 0.91797 0.0
H574 H 0.2823 0.19135 0.9937 0.0
H575 H 0.26619 0.23171 0.99861 0.0
H576 H 0.32442 0.24846 0.98999 0.0
H577 H 0.1475 0.11757 0.94406 0.0
H578 H 0.14784 0.15214 0.92533 0.0
H579 H 0.12949 0.15678 0.94866 0.0
C580 C 1.00062 0.10489 0.30781 0.0
C581 C 0.03573 0.12251 0.32163 0.0
C582 C 0.99586 0.13202 0.29461 0.0
C583 C 0.02768 0.17772 0.29499 0.0
C584 C 0.0648 0.19533 0.30826 0.0
C585 C 0.06802 0.16758 0.32159 0.0
C586 C 0.95535 0.11205 0.28089 0.0
C587 C 0.1002 0.24368 0.30879 0.0
C588 C 0.03027 0.24235 0.25178 0.0
C589 C 0.0027 0.26042 0.25759 0.0
C590 C 0.03982 0.21642 0.26395 0.0
C591 C 0.02038 0.20729 0.28225 0.0
C592 C 0.99289 0.22561 0.28829 0.0
C593 C 0.98491 0.25235 0.276 0.0
C594 C 0.07009 0.19821 0.25712 0.0
C595 C 0.97108 0.21627 0.30764 0.0
H596 H 0.97535 0.07013 0.30788 0.0
H597 H 0.09538 0.18131 0.33219 0.0
H598 H 0.93123 0.12486 0.28371 0.0
H599 H 0.96837 0.12138 0.26629 0.0
H600 H 0.93501 0.07578 0.28184 0.0
H601 H 0.12953 0.25149 0.3187 0.0
H602 H 0.11504 0.25545 0.29457 0.0
H603 H 0.08262 0.26209 0.31318 0.0
H604 H 0.04359 0.24752 0.23753 0.0
H605 H 0.96442 0.26675 0.28084 0.0
H606 H 0.04884 0.16202 0.2563 0.0
H607 H 0.09912 0.20638 0.2672 0.0
H608 H 0.08546 0.21103 0.24304 0.0
H609 H 0.94773 0.18048 0.3095 0.0
H610 H 0.95019 0.23265 0.31012 0.0
H611 H 0.99889 0.2274 0.31854 0.0
loop_
_geom_bond_atom_site_label_1
_geom_bond_atom_site_label_2
_geom_bond_distance
_geom_bond_site_symmetry_2
_ccdc_geom_bond_type
O0 Cd1 2.223 1_455 S
O0 C8 1.315 . S
Cd1 O0 2.223 1_655 S
Cd1 O4 2.297 . S
Cd1 O5 2.439 . S
Cd1 O11 2.240 1_545 S
Cd2 O3 2.240 1_565 S
Cd2 O10 2.223 1_455 S
Cd2 O12 2.297 . S
Cd2 O13 2.439 . S
O3 Cd2 2.240 1_545 S
O3 C8 1.279 . S
O4 Cd1 2.297 . S
O4 C6 1.247 . S
O5 Cd1 2.439 . S
O5 C6 1.208 . S
C6 O4 1.247 . S
C6 O5 1.208 . S
C7 O12 1.247 . S
C7 O13 1.208 . S
C8 O0 1.315 . S
C8 O3 1.279 . S
C9 O10 1.315 . S
C9 O11 1.279 . S
O10 Cd2 2.223 1_655 S
O10 C9 1.315 . S
O11 Cd1 2.240 1_565 S
O11 C9 1.279 . S
O12 Cd2 2.297 . S
O12 C7 1.247 . S
O13 Cd2 2.439 . S
O13 C7 1.208 . S
O14 Cd15 2.223 1_655 S
O14 C22 1.315 . S
Cd15 O14 2.223 1_455 S
Cd15 O18 2.297 . S
Cd15 O19 2.439 . S
Cd15 O25 2.240 . S
Cd16 O17 2.240 . S
Cd16 O24 2.223 1_655 S
Cd16 O26 2.297 . S
Cd16 O27 2.439 . S
O17 Cd16 2.240 . S
O17 C22 1.279 1_565 S
O18 Cd15 2.297 . S
O18 C20 1.247 . S
O19 Cd15 2.439 . S
O19 C20 1.208 . S
C20 O18 1.247 . S
C20 O19 1.208 . S
C21 O26 1.247 . S
C21 O27 1.208 . S
C22 O14 1.315 . S
C22 O17 1.279 1_545 S
C23 O24 1.315 . S
C23 O25 1.279 1_565 S
O24 Cd16 2.223 1_455 S
O24 C23 1.315 . S
O25 Cd15 2.240 . S
O25 C23 1.279 1_545 S
O26 Cd16 2.297 . S
O26 C21 1.247 . S
O27 Cd16 2.439 . S
O27 C21 1.208 . S
O28 Cd29 2.223 . S
O28 C36 1.315 . S
Cd29 O28 2.223 . S
Cd29 O32 2.297 . S
Cd29 O33 2.439 . S
Cd29 O39 2.240 1_655 S
Cd30 O31 2.240 1_455 S
Cd30 O38 2.223 . S
Cd30 O40 2.297 . S
Cd30 O41 2.439 . S
O31 Cd30 2.240 1_655 S
O31 C36 1.279 1_545 S
O32 Cd29 2.297 . S
O32 C34 1.247 . S
O33 Cd29 2.439 . S
O33 C34 1.208 . S
C34 O32 1.247 . S
C34 O33 1.208 . S
C35 O40 1.247 . S
C35 O41 1.208 . S
C36 O28 1.315 . S
C36 O31 1.279 1_565 S
C37 O38 1.315 . S
C37 O39 1.279 1_545 S
O38 Cd30 2.223 . S
O38 C37 1.315 . S
O39 Cd29 2.240 1_455 S
O39 C37 1.279 1_565 S
O40 Cd30 2.297 . S
O40 C35 1.247 . S
O41 Cd30 2.439 . S
O41 C35 1.208 . S
H42 C69 0.929 . S
N43 C68 1.433 . S
N43 C74 1.435 . S
N43 C80 1.423 . S
H44 C70 0.930 . S
H45 C73 0.931 . S
H46 C72 0.929 . S
H47 C75 0.930 . S
H48 C76 0.932 . S
H49 C79 0.929 . S
H50 C78 0.931 . S
H51 C81 0.929 . S
H52 C85 0.932 1_455 S
H53 C82 0.931 . S
H54 C84 0.929 1_455 S
H55 C87 0.929 . S
H56 C88 0.930 . S
H57 C90 0.929 . S
H58 C91 0.931 . S
H59 C93 0.930 . S
H60 C94 0.932 . S
H61 C96 0.931 . S
H62 C97 0.929 . S
H63 C99 0.929 . S
H64 C100 0.931 . S
H65 C102 0.929 1_455 S
N66 C86 1.433 . S
N66 C92 1.435 . S
N66 C98 1.423 . S
H67 C103 0.932 1_455 S
C68 N43 1.433 . S
C68 C69 1.363 . S
C68 C73 1.370 1_655 S
C69 H42 0.929 . S
C69 C68 1.363 . S
C69 C70 1.385 . S
C70 H44 0.930 . S
C70 C69 1.385 . S
C70 C71 1.357 . S
C71 C70 1.357 . S
C71 C72 1.406 1_655 S
C72 H46 0.929 . S
C72 C71 1.406 1_455 S
C72 C73 1.391 . S
C73 H45 0.931 . S
C73 C68 1.370 1_455 S
C73 C72 1.391 . S
C74 N43 1.435 . S
C74 C75 1.358 1_655 S
C74 C79 1.371 . S
C75 H47 0.930 . S
C75 C74 1.358 1_455 S
C75 C76 1.405 . S
C76 H48 0.932 . S
C76 C75 1.405 . S
C76 C77 1.383 1_455 S
C77 C76 1.383 1_655 S
C77 C78 1.393 . S
C78 H50 0.931 . S
C78 C77 1.393 . S
C78 C79 1.382 . S
C79 H49 0.929 . S
C79 C74 1.371 . S
C79 C78 1.382 . S
C80 N43 1.423 . S
C80 C81 1.362 . S
C80 C85 1.388 . S
C81 H51 0.929 . S
C81 C80 1.362 . S
C81 C82 1.376 . S
C82 H53 0.931 . S
C82 C81 1.376 . S
C82 C83 1.396 . S
C83 C82 1.396 . S
C83 C84 1.348 . S
C83 C101 1.472 . S
C84 H54 0.929 1_655 S
C84 C83 1.348 . S
C84 C85 1.443 . S
C85 H52 0.932 1_655 S
C85 C80 1.388 . S
C85 C84 1.443 . S
C86 N66 1.433 . S
C86 C87 1.363 . S
C86 C91 1.370 1_655 S
C87 H55 0.929 . S
C87 C86 1.363 . S
C87 C88 1.385 . S
C88 H56 0.930 . S
C88 C87 1.385 . S
C88 C89 1.357 . S
C89 C88 1.357 . S
C89 C90 1.406 1_655 S
C90 H57 0.929 . S
C90 C89 1.406 1_455 S
C90 C91 1.391 . S
C91 H58 0.931 . S
C91 C86 1.370 1_455 S
C91 C90 1.391 . S
C92 N66 1.435 . S
C92 C93 1.358 1_655 S
C92 C97 1.371 . S
C93 H59 0.930 . S
C93 C92 1.358 1_455 S
C93 C94 1.405 . S
C94 H60 0.932 . S
C94 C93 1.405 . S
C94 C95 1.383 1_455 S
C95 C94 1.383 1_655 S
C95 C96 1.393 . S
C96 H61 0.931 . S
C96 C95 1.393 . S
C96 C97 1.382 . S
C97 H62 0.929 . S
C97 C92 1.371 . S
C97 C96 1.382 . S
C98 N66 1.423 . S
C98 C99 1.362 . S
C98 C103 1.388 . S
C99 H63 0.929 . S
C99 C98 1.362 . S
C99 C100 1.376 . S
C100 H64 0.931 . S
C100 C99 1.376 . S
C100 C101 1.396 . S
C101 C83 1.472 . S
C101 C100 1.396 . S
C101 C102 1.348 . S
C102 H65 0.929 1_655 S
C102 C101 1.348 . S
C102 C103 1.443 . S
C103 H67 0.932 1_655 S
C103 C98 1.388 . S
C103 C102 1.443 . S
H104 C131 0.929 . S
N105 C130 1.433 . S
N105 C136 1.435 . S
N105 C142 1.423 . S
H106 C132 0.930 . S
H107 C135 0.931 . S
H108 C134 0.929 . S
H109 C137 0.930 . S
H110 C138 0.932 . S
H111 C141 0.929 . S
H112 C140 0.931 . S
H113 C143 0.929 . S
H114 C147 0.932 1_565 S
H115 C144 0.931 . S
H116 C146 0.929 1_565 S
H117 C149 0.929 . S
H118 C150 0.930 . S
H119 C152 0.929 . S
H120 C153 0.931 . S
H121 C155 0.930 . S
H122 C156 0.932 . S
H123 C158 0.931 . S
H124 C159 0.929 . S
H125 C161 0.929 . S
H126 C162 0.931 . S
H127 C164 0.929 1_565 S
N128 C148 1.433 . S
N128 C154 1.435 . S
N128 C160 1.423 . S
H129 C165 0.932 1_565 S
C130 N105 1.433 . S
C130 C131 1.363 . S
C130 C135 1.370 1_545 S
C131 H104 0.929 . S
C131 C130 1.363 . S
C131 C132 1.385 . S
C132 H106 0.930 . S
C132 C131 1.385 . S
C132 C133 1.357 . S
C133 C132 1.357 . S
C133 C134 1.406 1_545 S
C134 H108 0.929 . S
C134 C133 1.406 1_565 S
C134 C135 1.391 . S
C135 H107 0.931 . S
C135 C130 1.370 1_565 S
C135 C134 1.391 . S
C136 N105 1.435 . S
C136 C137 1.358 1_545 S
C136 C141 1.371 . S
C137 H109 0.930 . S
C137 C136 1.358 1_565 S
C137 C138 1.405 . S
C138 H110 0.932 . S
C138 C137 1.405 . S
C138 C139 1.383 1_565 S
C139 C138 1.383 1_545 S
C139 C140 1.393 . S
C140 H112 0.931 . S
C140 C139 1.393 . S
C140 C141 1.382 . S
C141 H111 0.929 . S
C141 C136 1.371 . S
C141 C140 1.382 . S
C142 N105 1.423 . S
C142 C143 1.362 . S
C142 C147 1.388 . S
C143 H113 0.929 . S
C143 C142 1.362 . S
C143 C144 1.376 . S
C144 H115 0.931 . S
C144 C143 1.376 . S
C144 C145 1.396 . S
C145 C144 1.396 . S
C145 C146 1.348 . S
C145 C163 1.472 . S
C146 H116 0.929 1_545 S
C146 C145 1.348 . S
C146 C147 1.443 . S
C147 H114 0.932 1_545 S
C147 C142 1.388 . S
C147 C146 1.443 . S
C148 N128 1.433 . S
C148 C149 1.363 . S
C148 C153 1.370 1_545 S
C149 H117 0.929 . S
C149 C148 1.363 . S
C149 C150 1.385 . S
C150 H118 0.930 . S
C150 C149 1.385 . S
C150 C151 1.357 . S
C151 C150 1.357 . S
C151 C152 1.406 1_545 S
C152 H119 0.929 . S
C152 C151 1.406 1_565 S
C152 C153 1.391 . S
C153 H120 0.931 . S
C153 C148 1.370 1_565 S
C153 C152 1.391 . S
C154 N128 1.435 . S
C154 C155 1.358 1_545 S
C154 C159 1.371 . S
C155 H121 0.930 . S
C155 C154 1.358 1_565 S
C155 C156 1.405 . S
C156 H122 0.932 . S
C156 C155 1.405 . S
C156 C157 1.383 1_565 S
C157 C156 1.383 1_545 S
C157 C158 1.393 . S
C158 H123 0.931 . S
C158 C157 1.393 . S
C158 C159 1.382 . S
C159 H124 0.929 . S
C159 C154 1.371 . S
C159 C158 1.382 . S
C160 N128 1.423 . S
C160 C161 1.362 . S
C160 C165 1.388 . S
C161 H125 0.929 . S
C161 C160 1.362 . S
C161 C162 1.376 . S
C162 H126 0.931 . S
C162 C161 1.376 . S
C162 C163 1.396 . S
C163 C145 1.472 . S
C163 C162 1.396 . S
C163 C164 1.348 . S
C164 H127 0.929 1_545 S
C164 C163 1.348 . S
C164 C165 1.443 . S
C165 H129 0.932 1_545 S
C165 C160 1.388 . S
C165 C164 1.443 . S
H166 C193 0.929 . S
N167 C192 1.433 . S
N167 C198 1.435 . S
N167 C204 1.423 . S
H168 C194 0.930 . S
H169 C197 0.931 . S
H170 C196 0.929 . S
H171 C199 0.930 . S
H172 C200 0.932 . S
H173 C203 0.929 . S
H174 C202 0.931 . S
H175 C205 0.929 . S
H176 C209 0.932 . S
H177 C206 0.931 . S
H178 C208 0.929 . S
H179 C211 0.929 . S
H180 C212 0.930 . S
H181 C214 0.929 . S
H182 C215 0.931 . S
H183 C217 0.930 . S
H184 C218 0.932 . S
H185 C220 0.931 . S
H186 C221 0.929 . S
H187 C223 0.929 . S
H188 C224 0.931 . S
H189 C226 0.929 . S
N190 C210 1.433 . S
N190 C216 1.435 . S
N190 C222 1.423 . S
H191 C227 0.932 . S
C192 N167 1.433 . S
C192 C193 1.363 . S
C192 C197 1.370 . S
C193 H166 0.929 . S
C193 C192 1.363 . S
C193 C194 1.385 . S
C194 H168 0.930 . S
C194 C193 1.385 . S
C194 C195 1.357 . S
C195 C194 1.357 . S
C195 C196 1.406 . S
C196 H170 0.929 . S
C196 C195 1.406 . S
C196 C197 1.391 . S
C197 H169 0.931 . S
C197 C192 1.370 . S
C197 C196 1.391 . S
C198 N167 1.435 . S
C198 C199 1.358 . S
C198 C203 1.371 . S
C199 H171 0.930 . S
C199 C198 1.358 . S
C199 C200 1.405 . S
C200 H172 0.932 . S
C200 C199 1.405 . S
C200 C201 1.383 . S
C201 C200 1.383 . S
C201 C202 1.393 . S
C202 H174 0.931 . S
C202 C201 1.393 . S
C202 C203 1.382 . S
C203 H173 0.929 . S
C203 C198 1.371 . S
C203 C202 1.382 . S
C204 N167 1.423 . S
C204 C205 1.362 . S
C204 C209 1.388 . S
C205 H175 0.929 . S
C205 C204 1.362 . S
C205 C206 1.376 . S
C206 H177 0.931 . S
C206 C205 1.376 . S
C206 C207 1.396 . S
C207 C206 1.396 . S
C207 C208 1.348 . S
C207 C225 1.472 . S
C208 H178 0.929 . S
C208 C207 1.348 . S
C208 C209 1.443 . S
C209 H176 0.932 . S
C209 C204 1.388 . S
C209 C208 1.443 . S
C210 N190 1.433 . S
C210 C211 1.363 . S
C210 C215 1.370 . S
C211 H179 0.929 . S
C211 C210 1.363 . S
C211 C212 1.385 . S
C212 H180 0.930 . S
C212 C211 1.385 . S
C212 C213 1.357 . S
C213 C212 1.357 . S
C213 C214 1.406 . S
C214 H181 0.929 . S
C214 C213 1.406 . S
C214 C215 1.391 . S
C215 H182 0.931 . S
C215 C210 1.370 . S
C215 C214 1.391 . S
C216 N190 1.435 . S
C216 C217 1.358 . S
C216 C221 1.371 . S
C217 H183 0.930 . S
C217 C216 1.358 . S
C217 C218 1.405 . S
C218 H184 0.932 . S
C218 C217 1.405 . S
C218 C219 1.383 . S
C219 C218 1.383 . S
C219 C220 1.393 . S
C220 H185 0.931 . S
C220 C219 1.393 . S
C220 C221 1.382 . S
C221 H186 0.929 . S
C221 C216 1.371 . S
C221 C220 1.382 . S
C222 N190 1.423 . S
C222 C223 1.362 . S
C222 C227 1.388 . S
C223 H187 0.929 . S
C223 C222 1.362 . S
C223 C224 1.376 . S
C224 H188 0.931 . S
C224 C223 1.376 . S
C224 C225 1.396 . S
C225 C207 1.472 . S
C225 C224 1.396 . S
C225 C226 1.348 . S
C226 H189 0.929 . S
C226 C225 1.348 . S
C226 C227 1.443 . S
C227 H191 0.932 . S
C227 C222 1.388 . S
C227 C226 1.443 . S
C228 C229 1.391 1_455 S
C228 C230 1.394 . S
C228 H244 0.931 . S
C229 C228 1.391 1_655 S
C229 C233 1.376 . S
C230 C228 1.394 . S
C230 C231 1.369 1_455 S
C230 C234 1.531 . S
C231 C230 1.369 1_655 S
C231 C232 1.410 . S
C231 C239 1.503 . S
C232 C231 1.410 . S
C232 C233 1.392 . S
C232 C235 1.511 . S
C233 C229 1.376 . S
C233 C232 1.392 . S
C233 H245 0.929 . S
C234 C230 1.531 . S
C234 H246 0.960 . S
C234 H247 0.962 . S
C234 H248 0.960 . S
C235 C232 1.511 . S
C235 H249 0.961 . S
C235 H250 0.961 . S
C235 H251 0.961 . S
C236 C237 1.370 1_455 S
C236 C238 1.363 . S
C236 H252 0.931 . S
C237 C236 1.370 1_655 S
C237 C241 1.408 . S
C238 C236 1.363 . S
C238 C239 1.370 1_455 S
C238 C242 1.524 . S
C239 C231 1.503 . S
C239 C238 1.370 1_655 S
C239 C240 1.403 . S
C240 C239 1.403 . S
C240 C241 1.404 . S
C240 C243 1.539 . S
C241 C237 1.408 . S
C241 C240 1.404 . S
C241 H253 0.930 . S
C242 C238 1.524 . S
C242 H254 0.956 . S
C242 H255 0.961 . S
C242 H256 0.961 . S
C243 C240 1.539 . S
C243 H257 0.958 . S
C243 H258 0.961 . S
C243 H259 0.960 . S
H244 C228 0.931 . S
H245 C233 0.929 . S
H246 C234 0.960 . S
H247 C234 0.962 . S
H248 C234 0.960 . S
H249 C235 0.961 . S
H250 C235 0.961 . S
H251 C235 0.961 . S
H252 C236 0.931 . S
H253 C241 0.930 . S
H254 C242 0.956 . S
H255 C242 0.961 . S
H256 C242 0.961 . S
H257 C243 0.958 . S
H258 C243 0.961 . S
H259 C243 0.960 . S
C260 C261 1.391 1_565 S
C260 C262 1.394 . S
C260 H276 0.931 . S
C261 C260 1.391 1_545 S
C261 C265 1.376 . S
C262 C260 1.394 . S
C262 C263 1.369 1_565 S
C262 C266 1.531 . S
C263 C262 1.369 1_545 S
C263 C264 1.410 . S
C263 C271 1.503 . S
C264 C263 1.410 . S
C264 C265 1.392 . S
C264 C267 1.511 . S
C265 C261 1.376 . S
C265 C264 1.392 . S
C265 H277 0.929 . S
C266 C262 1.531 . S
C266 H278 0.960 . S
C266 H279 0.962 . S
C266 H280 0.960 . S
C267 C264 1.511 . S
C267 H281 0.961 . S
C267 H282 0.961 . S
C267 H283 0.961 . S
C268 C269 1.370 1_565 S
C268 C270 1.363 . S
C268 H284 0.931 . S
C269 C268 1.370 1_545 S
C269 C273 1.408 . S
C270 C268 1.363 . S
C270 C271 1.370 1_565 S
C270 C274 1.524 . S
C271 C263 1.503 . S
C271 C270 1.370 1_545 S
C271 C272 1.403 . S
C272 C271 1.403 . S
C272 C273 1.404 . S
C272 C275 1.539 . S
C273 C269 1.408 . S
C273 C272 1.404 . S
C273 H285 0.930 . S
C274 C270 1.524 . S
C274 H286 0.956 . S
C274 H287 0.961 . S
C274 H288 0.961 . S
C275 C272 1.539 . S
C275 H289 0.958 . S
C275 H290 0.961 . S
C275 H291 0.960 . S
H276 C260 0.931 . S
H277 C265 0.929 . S
H278 C266 0.960 . S
H279 C266 0.962 . S
H280 C266 0.960 . S
H281 C267 0.961 . S
H282 C267 0.961 . S
H283 C267 0.961 . S
H284 C268 0.931 . S
H285 C273 0.930 . S
H286 C274 0.956 . S
H287 C274 0.961 . S
H288 C274 0.961 . S
H289 C275 0.958 . S
H290 C275 0.961 . S
H291 C275 0.960 . S
C292 C293 1.391 . S
C292 C294 1.394 . S
C292 H308 0.931 . S
C293 C292 1.391 . S
C293 C297 1.376 . S
C294 C292 1.394 . S
C294 C295 1.369 . S
C294 C298 1.531 . S
C295 C294 1.369 . S
C295 C296 1.410 . S
C295 C303 1.503 . S
C296 C295 1.410 . S
C296 C297 1.392 . S
C296 C299 1.511 . S
C297 C293 1.376 . S
C297 C296 1.392 . S
C297 H309 0.929 . S
C298 C294 1.531 . S
C298 H310 0.960 . S
C298 H311 0.962 . S
C298 H312 0.960 . S
C299 C296 1.511 . S
C299 H313 0.961 . S
C299 H314 0.961 . S
C299 H315 0.961 . S
C300 C301 1.370 . S
C300 C302 1.363 . S
C300 H316 0.931 . S
C301 C300 1.370 . S
C301 C305 1.408 . S
C302 C300 1.363 . S
C302 C303 1.370 . S
C302 C306 1.524 . S
C303 C295 1.503 . S
C303 C302 1.370 . S
C303 C304 1.403 . S
C304 C303 1.403 . S
C304 C305 1.404 . S
C304 C307 1.539 . S
C305 C301 1.408 . S
C305 C304 1.404 . S
C305 H317 0.930 . S
C306 C302 1.524 . S
C306 H318 0.956 . S
C306 H319 0.961 . S
C306 H320 0.961 . S
C307 C304 1.539 . S
C307 H321 0.958 . S
C307 H322 0.961 . S
C307 H323 0.960 . S
H308 C292 0.931 . S
H309 C297 0.929 . S
H310 C298 0.960 . S
H311 C298 0.962 . S
H312 C298 0.960 . S
H313 C299 0.961 . S
H314 C299 0.961 . S
H315 C299 0.961 . S
H316 C300 0.931 . S
H317 C305 0.930 . S
H318 C306 0.956 . S
H319 C306 0.961 . S
H320 C306 0.961 . S
H321 C307 0.958 . S
H322 C307 0.961 . S
H323 C307 0.960 . S
C324 C325 1.407 . S
C324 C326 1.394 . S
C324 H340 0.931 . S
C325 C324 1.407 . S
C325 C329 1.366 1_455 S
C326 C324 1.394 . S
C326 C327 1.369 . S
C326 C330 1.531 . S
C327 C326 1.369 . S
C327 C328 1.410 1_455 S
C327 C335 1.503 . S
C328 C327 1.410 1_655 S
C328 C329 1.392 . S
C328 C331 1.511 . S
C329 C325 1.366 1_655 S
C329 C328 1.392 . S
C329 H341 0.929 . S
C330 C326 1.531 . S
C330 H342 0.960 . S
C330 H343 0.962 . S
C330 H344 0.960 . S
C331 C328 1.511 . S
C331 H345 0.961 . S
C331 H346 0.961 . S
C331 H347 0.961 . S
C332 C333 1.369 1_655 S
C332 C334 1.363 . S
C332 H348 0.931 . S
C333 C332 1.369 1_455 S
C333 C337 1.407 . S
C334 C332 1.363 . S
C334 C335 1.370 1_655 S
C334 C338 1.524 . S
C335 C327 1.503 . S
C335 C334 1.370 1_455 S
C335 C336 1.403 . S
C336 C335 1.403 . S
C336 C337 1.404 . S
C336 C339 1.539 . S
C337 C333 1.407 . S
C337 C336 1.404 . S
C337 H349 0.930 . S
C338 C334 1.524 . S
C338 H350 0.971 . S
C338 H351 0.961 . S
C338 H352 0.961 . S
C339 C336 1.539 . S
C339 H353 0.958 . S
C339 H354 0.961 . S
C339 H355 0.960 . S
H340 C324 0.931 . S
H341 C329 0.929 . S
H342 C330 0.960 . S
H343 C330 0.962 . S
H344 C330 0.960 . S
H345 C331 0.961 . S
H346 C331 0.961 . S
H347 C331 0.961 . S
H348 C332 0.931 . S
H349 C337 0.930 . S
H350 C338 0.971 . S
H351 C338 0.961 . S
H352 C338 0.961 . S
H353 C339 0.958 . S
H354 C339 0.961 . S
H355 C339 0.960 . S
C356 C357 1.390 . S
C356 C358 1.394 . S
C356 H372 0.931 . S
C357 C356 1.390 . S
C357 C361 1.373 1_545 S
C358 C356 1.394 . S
C358 C359 1.369 . S
C358 C362 1.531 . S
C359 C358 1.369 . S
C359 C360 1.410 1_545 S
C359 C367 1.503 . S
C360 C359 1.410 1_565 S
C360 C361 1.392 . S
C360 C363 1.511 . S
C361 C357 1.373 1_565 S
C361 C360 1.392 . S
C361 H373 0.929 . S
C362 C358 1.531 . S
C362 H374 0.960 . S
C362 H375 0.962 . S
C362 H376 0.960 . S
C363 C360 1.511 . S
C363 H377 0.961 . S
C363 H378 0.961 . S
C363 H379 0.972 . S
C364 C365 1.370 1_565 S
C364 C366 1.363 . S
C364 H380 0.931 . S
C365 C364 1.370 1_545 S
C365 C369 1.408 . S
C366 C364 1.363 . S
C366 C367 1.370 1_565 S
C366 C370 1.524 . S
C367 C359 1.503 . S
C367 C366 1.370 1_545 S
C367 C368 1.403 . S
C368 C367 1.403 . S
C368 C369 1.404 . S
C368 C371 1.539 . S
C369 C365 1.408 . S
C369 C368 1.404 . S
C369 H381 0.930 . S
C370 C366 1.524 . S
C370 H382 0.956 . S
C370 H383 0.961 . S
C370 H384 0.961 . S
C371 C368 1.539 . S
C371 H385 0.958 . S
C371 H386 0.961 . S
C371 H387 0.960 . S
H372 C356 0.931 . S
H373 C361 0.929 . S
H374 C362 0.960 . S
H375 C362 0.962 . S
H376 C362 0.960 . S
H377 C363 0.961 . S
H378 C363 0.961 . S
H379 C363 0.972 . S
H380 C364 0.931 . S
H381 C369 0.930 . S
H382 C370 0.956 . S
H383 C370 0.961 . S
H384 C370 0.961 . S
H385 C371 0.958 . S
H386 C371 0.961 . S
H387 C371 0.960 . S
C388 C389 1.391 . S
C388 C390 1.394 . S
C388 H404 0.931 . S
C389 C388 1.391 . S
C389 C393 1.376 . S
C390 C388 1.394 . S
C390 C391 1.369 . S
C390 C394 1.531 . S
C391 C390 1.369 . S
C391 C392 1.410 . S
C391 C399 1.503 . S
C392 C391 1.410 . S
C392 C393 1.392 . S
C392 C395 1.511 . S
C393 C389 1.376 . S
C393 C392 1.392 . S
C393 H405 0.929 . S
C394 C390 1.531 . S
C394 H406 0.960 . S
C394 H407 0.962 . S
C394 H408 0.960 . S
C395 C392 1.511 . S
C395 H409 0.961 . S
C395 H410 0.961 . S
C395 H411 0.961 . S
C396 C397 1.370 . S
C396 C398 1.363 . S
C396 H412 0.931 . S
C397 C396 1.370 . S
C397 C401 1.408 . S
C398 C396 1.363 . S
C398 C399 1.370 . S
C398 C402 1.524 . S
C399 C391 1.503 . S
C399 C398 1.370 . S
C399 C400 1.403 . S
C400 C399 1.403 . S
C400 C401 1.404 . S
C400 C403 1.539 . S
C401 C397 1.408 . S
C401 C400 1.404 . S
C401 H413 0.930 . S
C402 C398 1.524 . S
C402 H414 0.956 . S
C402 H415 0.961 . S
C402 H416 0.961 . S
C403 C400 1.539 . S
C403 H417 0.958 . S
C403 H418 0.961 . S
C403 H419 0.960 . S
H404 C388 0.931 . S
H405 C393 0.929 . S
H406 C394 0.960 . S
H407 C394 0.962 . S
H408 C394 0.960 . S
H409 C395 0.961 . S
H410 C395 0.961 . S
H411 C395 0.961 . S
H412 C396 0.931 . S
H413 C401 0.930 . S
H414 C402 0.956 . S
H415 C402 0.961 . S
H416 C402 0.961 . S
H417 C403 0.958 . S
H418 C403 0.961 . S
H419 C403 0.960 . S
C420 C421 1.391 . S
C420 C422 1.394 . S
C420 H436 0.931 . S
C421 C420 1.391 . S
C421 C425 1.376 1_565 S
C422 C420 1.394 . S
C422 C423 1.374 . S
C422 C426 1.531 . S
C423 C422 1.374 . S
C423 C424 1.407 1_565 S
C423 C431 1.499 . S
C424 C423 1.407 1_545 S
C424 C425 1.392 . S
C424 C427 1.511 . S
C425 C421 1.376 1_545 S
C425 C424 1.392 . S
C425 H437 0.929 . S
C426 C422 1.531 . S
C426 H438 0.960 . S
C426 H439 0.962 . S
C426 H440 0.960 . S
C427 C424 1.511 . S
C427 H441 0.961 . S
C427 H442 0.961 . S
C427 H443 0.961 . S
C428 C429 1.367 1_565 S
C428 C430 1.363 . S
C428 H444 0.931 . S
C429 C428 1.367 1_545 S
C429 C433 1.410 . S
C430 C428 1.363 . S
C430 C431 1.369 . S
C430 C434 1.524 . S
C431 C423 1.499 . S
C431 C430 1.369 . S
C431 C432 1.405 1_565 S
C432 C431 1.405 1_545 S
C432 C433 1.404 . S
C432 C435 1.539 . S
C433 C429 1.410 . S
C433 C432 1.404 . S
C433 H445 0.930 . S
C434 C430 1.524 . S
C434 H446 0.956 . S
C434 H447 0.961 . S
C434 H448 0.961 . S
C435 C432 1.539 . S
C435 H449 0.958 . S
C435 H450 0.961 . S
C435 H451 0.960 . S
H436 C420 0.931 . S
H437 C425 0.929 . S
H438 C426 0.960 . S
H439 C426 0.962 . S
H440 C426 0.960 . S
H441 C427 0.961 . S
H442 C427 0.961 . S
H443 C427 0.961 . S
H444 C428 0.931 . S
H445 C433 0.930 . S
H446 C434 0.956 . S
H447 C434 0.961 . S
H448 C434 0.961 . S
H449 C435 0.958 . S
H450 C435 0.961 . S
H451 C435 0.960 . S
C452 C453 1.391 . S
C452 C454 1.394 . S
C452 H468 0.931 1_556 S
C453 C452 1.391 . S
C453 C457 1.376 . S
C454 C452 1.394 . S
C454 C455 1.369 . S
C454 C458 1.531 . S
C455 C454 1.369 . S
C455 C456 1.410 . S
C455 C463 1.503 . S
C456 C455 1.410 . S
C456 C457 1.392 . S
C456 C459 1.511 . S
C457 C453 1.376 . S
C457 C456 1.392 . S
C457 H469 0.929 . S
C458 C454 1.531 . S
C458 H470 0.960 . S
C458 H471 0.962 . S
C458 H472 0.960 1_556 S
C459 C456 1.511 . S
C459 H473 0.961 . S
C459 H474 0.961 . S
C459 H475 0.961 . S
C460 C461 1.370 . S
C460 C462 1.363 . S
C460 H476 0.931 . S
C461 C460 1.370 . S
C461 C465 1.408 . S
C462 C460 1.363 . S
C462 C463 1.370 . S
C462 C466 1.524 . S
C463 C455 1.503 . S
C463 C462 1.370 . S
C463 C464 1.403 . S
C464 C463 1.403 . S
C464 C465 1.404 . S
C464 C467 1.539 . S
C465 C461 1.408 . S
C465 C464 1.404 . S
C465 H477 0.930 . S
C466 C462 1.524 . S
C466 H478 0.956 . S
C466 H479 0.961 . S
C466 H480 0.961 . S
C467 C464 1.539 . S
C467 H481 0.950 1_556 S
C467 H482 0.961 . S
C467 H483 0.960 . S
H468 C452 0.931 1_554 S
H469 C457 0.929 . S
H470 C458 0.960 . S
H471 C458 0.962 . S
H472 C458 0.960 1_554 S
H473 C459 0.961 . S
H474 C459 0.961 . S
H475 C459 0.961 . S
H476 C460 0.931 . S
H477 C465 0.930 . S
H478 C466 0.956 . S
H479 C466 0.961 . S
H480 C466 0.961 . S
H481 C467 0.950 1_554 S
H482 C467 0.961 . S
H483 C467 0.960 . S
C484 C485 1.391 1_655 S
C484 C486 1.394 . S
C484 H500 0.931 . S
C485 C484 1.391 1_455 S
C485 C489 1.376 . S
C486 C484 1.394 . S
C486 C487 1.369 . S
C486 C490 1.531 . S
C487 C486 1.369 . S
C487 C488 1.410 1_655 S
C487 C495 1.503 . S
C488 C487 1.410 1_455 S
C488 C489 1.392 . S
C488 C491 1.511 . S
C489 C485 1.376 . S
C489 C488 1.392 . S
C489 H501 0.929 . S
C490 C486 1.531 . S
C490 H502 0.960 . S
C490 H503 0.962 . S
C490 H504 0.960 . S
C491 C488 1.511 . S
C491 H505 0.961 . S
C491 H506 0.961 . S
C491 H507 0.961 . S
C492 C493 1.371 . S
C492 C494 1.363 . S
C492 H508 0.931 . S
C493 C492 1.371 . S
C493 C497 1.406 1_455 S
C494 C492 1.363 . S
C494 C495 1.370 1_455 S
C494 C498 1.524 . S
C495 C487 1.503 . S
C495 C494 1.370 1_655 S
C495 C496 1.403 . S
C496 C495 1.403 . S
C496 C497 1.404 . S
C496 C499 1.539 . S
C497 C493 1.406 1_655 S
C497 C496 1.404 . S
C497 H509 0.930 . S
C498 C494 1.524 . S
C498 H510 0.956 . S
C498 H511 0.961 . S
C498 H512 0.961 . S
C499 C496 1.539 . S
C499 H513 0.958 . S
C499 H514 0.961 . S
C499 H515 0.960 . S
H500 C484 0.931 . S
H501 C489 0.929 . S
H502 C490 0.960 . S
H503 C490 0.962 . S
H504 C490 0.960 . S
H505 C491 0.961 . S
H506 C491 0.961 . S
H507 C491 0.961 . S
H508 C492 0.931 . S
H509 C497 0.930 . S
H510 C498 0.956 . S
H511 C498 0.961 . S
H512 C498 0.961 . S
H513 C499 0.958 . S
H514 C499 0.961 . S
H515 C499 0.960 . S
C516 C517 1.391 1_565 S
C516 C518 1.394 . S
C516 H532 0.931 . S
C517 C516 1.391 1_545 S
C517 C521 1.376 . S
C518 C516 1.394 . S
C518 C519 1.369 . S
C518 C522 1.531 . S
C519 C518 1.369 . S
C519 C520 1.410 1_565 S
C519 C527 1.491 . S
C520 C519 1.410 1_545 S
C520 C521 1.392 . S
C520 C523 1.511 . S
C521 C517 1.376 . S
C521 C520 1.392 . S
C521 H533 0.929 . S
C522 C518 1.531 . S
C522 H534 0.960 . S
C522 H535 0.962 . S
C522 H536 0.960 . S
C523 C520 1.511 . S
C523 H537 0.961 . S
C523 H538 0.961 . S
C523 H539 0.961 . S
C524 C525 1.373 . S
C524 C526 1.363 . S
C524 H540 0.931 . S
C525 C524 1.373 . S
C525 C529 1.409 1_545 S
C526 C524 1.363 . S
C526 C527 1.373 1_545 S
C526 C530 1.524 . S
C527 C519 1.491 . S
C527 C526 1.373 1_565 S
C527 C528 1.413 . S
C528 C527 1.413 . S
C528 C529 1.404 . S
C528 C531 1.539 . S
C529 C525 1.409 1_565 S
C529 C528 1.404 . S
C529 H541 0.930 . S
C530 C526 1.524 . S
C530 H542 0.956 . S
C530 H543 0.961 . S
C530 H544 0.961 . S
C531 C528 1.539 . S
C531 H545 0.958 . S
C531 H546 0.961 . S
C531 H547 0.960 . S
H532 C516 0.931 . S
H533 C521 0.929 . S
H534 C522 0.960 . S
H535 C522 0.962 . S
H536 C522 0.960 . S
H537 C523 0.961 . S
H538 C523 0.961 . S
H539 C523 0.961 . S
H540 C524 0.931 . S
H541 C529 0.930 . S
H542 C530 0.956 . S
H543 C530 0.961 . S
H544 C530 0.961 . S
H545 C531 0.958 . S
H546 C531 0.961 . S
H547 C531 0.960 . S
C548 C549 1.391 . S
C548 C550 1.394 . S
C548 H564 0.931 . S
C549 C548 1.391 . S
C549 C553 1.376 . S
C550 C548 1.394 . S
C550 C551 1.369 . S
C550 C554 1.531 . S
C551 C550 1.369 . S
C551 C552 1.410 . S
C551 C559 1.503 . S
C552 C551 1.410 . S
C552 C553 1.392 . S
C552 C555 1.511 . S
C553 C549 1.376 . S
C553 C552 1.392 . S
C553 H565 0.923 1_556 S
C554 C550 1.531 . S
C554 H566 0.960 . S
C554 H567 0.962 . S
C554 H568 0.960 . S
C555 C552 1.511 . S
C555 H569 0.961 . S
C555 H570 0.961 . S
C555 H571 0.961 . S
C556 C557 1.370 . S
C556 C558 1.363 . S
C556 H572 0.931 . S
C557 C556 1.370 . S
C557 C561 1.408 . S
C558 C556 1.363 . S
C558 C559 1.370 . S
C558 C562 1.524 . S
C559 C551 1.503 . S
C559 C558 1.370 . S
C559 C560 1.403 . S
C560 C559 1.403 . S
C560 C561 1.404 . S
C560 C563 1.539 . S
C561 C557 1.408 . S
C561 C560 1.404 . S
C561 H573 0.930 . S
C562 C558 1.524 . S
C562 H574 0.956 . S
C562 H575 0.961 . S
C562 H576 0.961 . S
C563 C560 1.539 . S
C563 H577 0.958 . S
C563 H578 0.961 . S
C563 H579 0.960 . S
H564 C548 0.931 . S
H565 C553 0.923 1_554 S
H566 C554 0.960 . S
H567 C554 0.962 . S
H568 C554 0.960 . S
H569 C555 0.961 . S
H570 C555 0.961 . S
H571 C555 0.961 . S
H572 C556 0.931 . S
H573 C561 0.930 . S
H574 C562 0.956 . S
H575 C562 0.961 . S
H576 C562 0.961 . S
H577 C563 0.958 . S
H578 C563 0.961 . S
H579 C563 0.960 . S
C580 C581 1.391 . S
C580 C582 1.394 . S
C580 H596 0.931 . S
C581 C580 1.391 . S
C581 C585 1.376 1_655 S
C582 C580 1.394 . S
C582 C583 1.369 . S
C582 C586 1.531 . S
C583 C582 1.369 . S
C583 C584 1.416 . S
C583 C591 1.503 . S
C584 C583 1.416 . S
C584 C585 1.379 1_655 S
C584 C587 1.518 1_655 S
C585 C581 1.376 1_455 S
C585 C584 1.379 1_455 S
C585 H597 0.929 . S
C586 C582 1.531 . S
C586 H598 0.960 . S
C586 H599 0.962 . S
C586 H600 0.960 . S
C587 C584 1.518 1_455 S
C587 H601 0.961 . S
C587 H602 0.961 . S
C587 H603 0.961 1_455 S
C588 C589 1.370 1_455 S
C588 C590 1.363 . S
C588 H604 0.931 . S
C589 C588 1.370 1_655 S
C589 C593 1.408 . S
C590 C588 1.363 . S
C590 C591 1.370 1_455 S
C590 C594 1.524 . S
C591 C583 1.503 . S
C591 C590 1.370 1_655 S
C591 C592 1.403 . S
C592 C591 1.403 . S
C592 C593 1.404 . S
C592 C595 1.539 . S
C593 C589 1.408 . S
C593 C592 1.404 . S
C593 H605 0.930 . S
C594 C590 1.524 . S
C594 H606 0.956 . S
C594 H607 0.961 . S
C594 H608 0.961 . S
C595 C592 1.539 . S
C595 H609 0.958 . S
C595 H610 0.961 . S
C595 H611 0.960 . S
H596 C580 0.931 . S
H597 C585 0.929 . S
H598 C586 0.960 . S
H599 C586 0.962 . S
H600 C586 0.960 . S
H601 C587 0.961 . S
H602 C587 0.961 . S
H603 C587 0.961 1_655 S
H604 C588 0.931 . S
H605 C593 0.930 . S
H606 C594 0.956 . S
H607 C594 0.961 . S
H608 C594 0.961 . S
H609 C595 0.958 . S
H610 C595 0.961 . S
H611 C595 0.960 . S
C237 C95 1.357 . S
C229 C6 1.324 . S
C261 C22 1.533 . S
C269 C139 1.552 . S
C293 C34 1.124 . S
C301 C201 1.165 . S
C325 C7 1.351 . S
C333 C77 1.353 1_455 S
C365 C157 1.552 . S
C357 C23 1.556 1_545 S
C389 C35 1.122 . S
C397 C219 1.160 . S
C429 C133 1.743 . S
C421 C36 1.800 . S
C453 C9 2.051 1_556 S
C461 C195 1.988 . S
C493 C71 1.589 1_455 S
C485 C21 1.685 1_455 S
C525 C151 1.714 . S
C517 C37 1.814 . S
C557 C213 1.966 . S
C549 C8 2.054 1_556 S
C581 C20 1.679 1_655 S
C589 C89 1.602 . S
