# Generated by pormake.
# Topology ssa, (4,4)-cn, num edge types: 1
# Building blocks:
#     Node 0, Type 0, BuildingBlock: NAWXER_clean_sbu_0, # of connection points: 4
#     Node 1, Type 0, BuildingBlock: NAWXER_clean_sbu_0, # of connection points: 4
#     Node 2, Type 0, BuildingBlock: NAWXER_clean_sbu_0, # of connection points: 4
#     Node 3, Type 0, BuildingBlock: NAWXER_clean_sbu_0, # of connection points: 4
#     Node 4, Type 0, BuildingBlock: NAWXER_clean_sbu_0, # of connection points: 4
#     Node 5, Type 0, BuildingBlock: NAWXER_clean_sbu_0, # of connection points: 4
#     Node 6, Type 1, BuildingBlock: GIZVER_clean_linker_0, # of connection points: 4
#     Node 7, Type 1, BuildingBlock: GIZVER_clean_linker_0, # of connection points: 4
#     Node 8, Type 1, BuildingBlock: GIZVER_clean_linker_0, # of connection points: 4
#     Node 9, Type 1, BuildingBlock: GIZVER_clean_linker_0, # of connection points: 4
#     Node 10, Type 1, BuildingBlock: GIZVER_clean_linker_0, # of connection points: 4
#     Node 11, Type 1, BuildingBlock: GIZVER_clean_linker_0, # of connection points: 4
#     Edge 12, Type (0, 1), BuildingBlock: TEMPAE_clean_linker_10, # of connection points: 2
#     Edge 13, Type (0, 1), BuildingBlock: TEMPAE_clean_linker_10, # of connection points: 2
#     Edge 14, Type (0, 1), BuildingBlock: TEMPAE_clean_linker_10, # of connection points: 2
#     Edge 15, Type (0, 1), BuildingBlock: TEMPAE_clean_linker_10, # of connection points: 2
#     Edge 16, Type (0, 1), BuildingBlock: TEMPAE_clean_linker_10, # of connection points: 2
#     Edge 17, Type (0, 1), BuildingBlock: TEMPAE_clean_linker_10, # of connection points: 2
#     Edge 18, Type (0, 1), BuildingBlock: TEMPAE_clean_linker_10, # of connection points: 2
#     Edge 19, Type (0, 1), BuildingBlock: TEMPAE_clean_linker_10, # of connection points: 2
#     Edge 20, Type (0, 1), BuildingBlock: TEMPAE_clean_linker_10, # of connection points: 2
#     Edge 21, Type (0, 1), BuildingBlock: TEMPAE_clean_linker_10, # of connection points: 2
#     Edge 22, Type (0, 1), BuildingBlock: TEMPAE_clean_linker_10, # of connection points: 2
#     Edge 23, Type (0, 1), BuildingBlock: TEMPAE_clean_linker_10, # of connection points: 2
#     Edge 24, Type (0, 1), BuildingBlock: TEMPAE_clean_linker_10, # of connection points: 2
#     Edge 25, Type (0, 1), BuildingBlock: TEMPAE_clean_linker_10, # of connection points: 2
#     Edge 26, Type (0, 1), BuildingBlock: TEMPAE_clean_linker_10, # of connection points: 2
#     Edge 27, Type (0, 1), BuildingBlock: TEMPAE_clean_linker_10, # of connection points: 2
#     Edge 28, Type (0, 1), BuildingBlock: TEMPAE_clean_linker_10, # of connection points: 2
#     Edge 29, Type (0, 1), BuildingBlock: TEMPAE_clean_linker_10, # of connection points: 2
#     Edge 30, Type (0, 1), BuildingBlock: TEMPAE_clean_linker_10, # of connection points: 2
#     Edge 31, Type (0, 1), BuildingBlock: TEMPAE_clean_linker_10, # of connection points: 2
#     Edge 32, Type (0, 1), BuildingBlock: TEMPAE_clean_linker_10, # of connection points: 2
#     Edge 33, Type (0, 1), BuildingBlock: TEMPAE_clean_linker_10, # of connection points: 2
#     Edge 34, Type (0, 1), BuildingBlock: TEMPAE_clean_linker_10, # of connection points: 2
#     Edge 35, Type (0, 1), BuildingBlock: TEMPAE_clean_linker_10, # of connection points: 2
# Relax obj value: 0.007
# Max RMSD: 0.038
# Mean RMSD: 0.029
data_MOF--net-ssa--node1-NAWXER_clean_sbu_0--node2-GIZVER_clean_linker_0--edge1-TEMPAE_clean_linker_10
_symmetry_space_group_name_H-M    P1
_symmetry_Int_Tables_number       1
_symmetry_cell_setting            triclinic
loop_
_symmetry_equiv_pos_as_xyz
'x, y, z'
_cell_length_a     53.598161
_cell_length_b     53.631709
_cell_length_c     28.373864
_cell_angle_alpha  89.857136
_cell_angle_beta   89.87767
_cell_angle_gamma 119.87939
loop_
_atom_site_label
_atom_site_type_symbol
_atom_site_fract_x
_atom_site_fract_y
_atom_site_fract_z
_atom_type_partial_charge
C0 C 0.02493 0.55549 0.0619 0.0
C1 C 0.96301 0.45901 9e-05 0.0
O2 O 0.00471 0.53407 0.08335 0.0
Zn3 Zn 0.9939 0.50705 0.03216 0.0
O4 O 0.03072 0.55286 0.01894 0.0
Zn5 Zn 0.01583 0.51989 0.96627 0.0
O6 O 0.00239 0.53527 0.9173 0.0
O7 O 0.97557 0.52335 0.98158 0.0
O8 O 0.98148 0.47624 0.96998 0.0
O9 O 0.96305 0.46777 0.04169 0.0
O10 O 0.0316 0.50294 0.02652 0.0
O11 O 0.04975 0.51632 0.95509 0.0
C12 C 0.98072 0.53321 0.93927 0.0
C13 C 0.05104 0.50728 0.99597 0.0
C14 C 0.48726 0.0346 0.56092 0.0
C15 C 0.5156 0.9658 0.50687 0.0
O16 O 0.4858 0.01337 0.58344 0.0
Zn17 Zn 0.50156 1.00015 0.535 0.0
O18 O 0.49701 0.0396 0.51853 0.0
Zn19 Zn 0.51392 0.02153 0.46856 0.0
O20 O 0.48663 0.00959 0.4175 0.0
O21 O 0.46839 0.98421 0.48264 0.0
O22 O 0.51931 0.98468 0.47563 0.0
O23 O 0.50629 0.96711 0.5475 0.0
O24 O 0.54479 0.03512 0.5307 0.0
O25 O 0.55295 0.05299 0.45861 0.0
C26 C 0.46546 0.98944 0.43951 0.0
C27 C 0.56178 0.05356 0.50036 0.0
C28 C 0.50351 0.45866 0.98807 0.0
C29 C 0.53065 0.55572 0.04245 0.0
O30 O 0.50383 0.4756 0.95584 0.0
Zn31 Zn 0.51205 0.51849 0.94764 0.0
O32 O 0.50938 0.46744 0.03041 0.0
Zn33 Zn 0.51737 0.50666 0.01836 0.0
O34 O 0.47586 0.50009 0.00258 0.0
O35 O 0.47476 0.51409 0.92971 0.0
O36 O 0.52887 0.53536 0.06814 0.0
O37 O 0.52521 0.55152 0.9984 0.0
O38 O 0.54474 0.53452 0.90501 0.0
O39 O 0.55509 0.52429 0.97523 0.0
C40 C 0.46216 0.50378 0.96892 0.0
C41 C 0.56293 0.53405 0.93329 0.0
C42 C 0.05515 0.55614 0.49969 0.0
C43 C 0.9899 0.45866 0.55487 0.0
O44 O 0.05408 0.54603 0.54068 0.0
Zn45 Zn 0.02264 0.50762 0.52814 0.0
O46 O 0.03714 0.54011 0.46829 0.0
Zn47 Zn 0.00217 0.49689 0.46123 0.0
O48 O 0.96938 0.5021 0.44892 0.0
O49 O 0.98666 0.5144 0.5208 0.0
O50 O 0.98526 0.46245 0.51183 0.0
O51 O 0.00978 0.47934 0.57772 0.0
O52 O 0.04146 0.49199 0.47739 0.0
O53 O 0.01648 0.48283 0.41162 0.0
C54 C 0.96821 0.51151 0.48946 0.0
C55 C 0.03727 0.4836 0.43437 0.0
C56 C 0.53203 0.97615 0.06916 0.0
C57 C 0.50153 0.04282 0.01193 0.0
O58 O 0.53226 0.99684 0.09132 0.0
Zn59 Zn 0.51739 0.01006 0.04127 0.0
O60 O 0.5235 0.97137 0.02621 0.0
Zn61 Zn 0.5069 0.98893 0.97486 0.0
O62 O 0.53512 0.00203 0.92505 0.0
O63 O 0.55165 0.02729 0.99033 0.0
O64 O 0.49906 0.02427 0.98113 0.0
O65 O 0.51117 0.0423 0.0526 0.0
O66 O 0.47454 0.97439 0.03498 0.0
O67 O 0.46871 0.95676 0.96312 0.0
C68 C 0.55554 0.02248 0.94745 0.0
C69 C 0.45865 0.95588 0.00408 0.0
C70 C 0.52745 0.49394 0.55837 0.0
C71 C 0.42986 0.47182 0.5129 0.0
O72 O 0.5102 0.49748 0.58486 0.0
Zn73 Zn 0.47766 0.48173 0.54137 0.0
O74 O 0.5191 0.48264 0.51761 0.0
Zn75 Zn 0.48267 0.46613 0.47249 0.0
O76 O 0.49865 0.49425 0.42017 0.0
O77 O 0.49545 0.51277 0.4878 0.0
O78 O 0.44315 0.46505 0.48258 0.0
O79 O 0.44147 0.48185 0.55269 0.0
O80 O 0.46706 0.43823 0.53994 0.0
O81 O 0.4718 0.42529 0.46808 0.0
C82 C 0.50258 0.51596 0.44432 0.0
C83 C 0.46587 0.41916 0.51156 0.0
H84 H 0.24864 0.52677 0.14175 0.0
H85 H 0.2359 0.51289 0.29154 0.0
H86 H 0.16362 0.47419 0.1981 0.0
H87 H 0.28547 0.55871 0.19729 0.0
H88 H 0.27959 0.55376 0.25919 0.0
H89 H 0.30253 0.53041 0.15213 0.0
H90 H 0.35213 0.50257 0.2324 0.0
H91 H 0.2956 0.52558 0.30364 0.0
C92 C 0.23467 0.51571 0.17145 0.0
C93 C 0.20487 0.49863 0.16431 0.0
C94 C 0.24617 0.52027 0.21731 0.0
C95 C 0.22746 0.50789 0.25601 0.0
C96 C 0.19763 0.49106 0.24917 0.0
C97 C 0.18676 0.48567 0.20322 0.0
C98 C 0.27741 0.54212 0.22567 0.0
C99 C 0.29623 0.52855 0.22757 0.0
C100 C 0.30813 0.52486 0.18571 0.0
C101 C 0.32875 0.51603 0.18736 0.0
C102 C 0.33653 0.50983 0.2312 0.0
C103 C 0.32487 0.51325 0.27346 0.0
C104 C 0.30426 0.52216 0.27131 0.0
H105 H 0.74205 0.23716 0.66607 0.0
H106 H 0.73189 0.21683 0.8143 0.0
H107 H 0.69948 0.14908 0.71211 0.0
H108 H 0.75 0.2738 0.72354 0.0
H109 H 0.74138 0.26435 0.78417 0.0
H110 H 0.79701 0.28107 0.6907 0.0
H111 H 0.86649 0.31671 0.78984 0.0
H112 H 0.77918 0.27563 0.83965 0.0
C113 C 0.73567 0.22146 0.69428 0.0
C114 C 0.72144 0.19203 0.68347 0.0
C115 C 0.74013 0.23056 0.74155 0.0
C116 C 0.72987 0.20996 0.77791 0.0
C117 C 0.71542 0.18052 0.76739 0.0
C118 C 0.71216 0.17181 0.72025 0.0
C119 C 0.75288 0.26195 0.75334 0.0
C120 C 0.78449 0.27534 0.76406 0.0
C121 C 0.80449 0.28426 0.72684 0.0
C122 C 0.83412 0.29899 0.73604 0.0
C123 C 0.84362 0.30377 0.78282 0.0
C124 C 0.82402 0.2957 0.82037 0.0
C125 C 0.79439 0.28115 0.81087 0.0
H126 H 0.51801 0.73624 0.20202 0.0
H127 H 0.51358 0.71587 0.35003 0.0
H128 H 0.55573 0.68743 0.25333 0.0
H129 H 0.48276 0.73893 0.25585 0.0
H130 H 0.48343 0.73338 0.31769 0.0
H131 H 0.51937 0.78493 0.21827 0.0
H132 H 0.55397 0.85835 0.30926 0.0
H133 H 0.51184 0.77341 0.36907 0.0
C134 C 0.52441 0.72779 0.23145 0.0
C135 C 0.53934 0.71295 0.22294 0.0
C136 C 0.51604 0.72998 0.27774 0.0
C137 C 0.52178 0.71611 0.31498 0.0
C138 C 0.53632 0.70084 0.30629 0.0
C139 C 0.54611 0.70067 0.26071 0.0
C140 C 0.49744 0.74335 0.28628 0.0
C141 C 0.51531 0.77548 0.29295 0.0
C142 C 0.52458 0.7939 0.25344 0.0
C143 C 0.53884 0.82386 0.25925 0.0
C144 C 0.54457 0.8353 0.3048 0.0
C145 C 0.53464 0.81734 0.34453 0.0
C146 C 0.52034 0.78738 0.33853 0.0
H147 H 0.75622 0.56841 0.63991 0.0
H148 H 0.77686 0.58705 0.78742 0.0
H149 H 0.68906 0.53521 0.74392 0.0
H150 H 0.80428 0.60681 0.66503 0.0
H151 H 0.81304 0.61381 0.72609 0.0
H152 H 0.81209 0.57177 0.62303 0.0
H153 H 0.85585 0.53422 0.69493 0.0
H154 H 0.82513 0.58193 0.77344 0.0
C155 C 0.74962 0.56541 0.67659 0.0
C156 C 0.72028 0.5495 0.68816 0.0
C157 C 0.77037 0.57825 0.71247 0.0
C158 C 0.76129 0.5759 0.75983 0.0
C159 C 0.73193 0.55991 0.77119 0.0
C160 C 0.71187 0.54628 0.73534 0.0
C161 C 0.80184 0.59628 0.69992 0.0
C162 C 0.81612 0.57812 0.69864 0.0
C163 C 0.81959 0.56712 0.65555 0.0
C164 C 0.83355 0.55088 0.6543 0.0
C165 C 0.84376 0.54551 0.69629 0.0
C166 C 0.84109 0.55673 0.73927 0.0
C167 C 0.82704 0.57291 0.7404 0.0
H168 H 0.27375 0.77403 0.16617 0.0
H169 H 0.28609 0.79694 0.31307 0.0
H170 H 0.31881 0.86285 0.20677 0.0
H171 H 0.26565 0.73819 0.22533 0.0
H172 H 0.27551 0.74861 0.28514 0.0
H173 H 0.21814 0.73009 0.19503 0.0
H174 H 0.15096 0.69813 0.29916 0.0
H175 H 0.23931 0.74037 0.34269 0.0
C176 C 0.28076 0.79024 0.19344 0.0
C177 C 0.29552 0.81946 0.18086 0.0
C178 C 0.27671 0.78199 0.24122 0.0
C179 C 0.28785 0.80322 0.27632 0.0
C180 C 0.30283 0.83248 0.26401 0.0
C181 C 0.3057 0.84034 0.21638 0.0
C182 C 0.26362 0.75076 0.25474 0.0
C183 C 0.23229 0.73813 0.26739 0.0
C184 C 0.21147 0.72812 0.23159 0.0
C185 C 0.18205 0.71389 0.24294 0.0
C186 C 0.17365 0.71074 0.29033 0.0
C187 C 0.19409 0.71996 0.32653 0.0
C188 C 0.22347 0.73403 0.3149 0.0
H189 H 0.42391 0.23871 0.86348 0.0
H190 H 0.40992 0.2221 0.71423 0.0
H191 H 0.43885 0.30702 0.76772 0.0
H192 H 0.39152 0.18939 0.83363 0.0
H193 H 0.38705 0.18243 0.77191 0.0
H194 H 0.4307 0.18908 0.87605 0.0
H195 H 0.47862 0.15645 0.80307 0.0
H196 H 0.42453 0.17949 0.72497 0.0
C197 C 0.42457 0.2463 0.8278 0.0
C198 C 0.43263 0.27518 0.81992 0.0
C199 C 0.41591 0.22686 0.78988 0.0
C200 C 0.41665 0.23691 0.74362 0.0
C201 C 0.42479 0.26581 0.73565 0.0
C202 C 0.4326 0.28467 0.77389 0.0
C203 C 0.40323 0.19513 0.79934 0.0
C204 C 0.42607 0.18652 0.80015 0.0
C205 C 0.43766 0.18405 0.8433 0.0
C206 C 0.45705 0.17364 0.84438 0.0
C207 C 0.46509 0.1662 0.80198 0.0
C208 C 0.45337 0.16796 0.75886 0.0
C209 C 0.43414 0.17856 0.75803 0.0
C210 C 0.09598 0.5051 0.97735 0.0
C211 C 0.07575 0.50376 0.01029 0.0
C212 C 0.12016 0.5033 0.99193 0.0
C213 C 0.1244 0.50066 0.04056 0.0
C214 C 0.10383 0.49897 0.07376 0.0
C215 C 0.07976 0.50031 0.0582 0.0
C216 C 0.14134 0.50463 0.9555 0.0
C217 C 0.10752 0.49638 0.12607 0.0
C218 C 0.1692 0.47369 0.10023 0.0
C219 C 0.19121 0.49932 0.11934 0.0
C220 C 0.14895 0.47397 0.06925 0.0
C221 C 0.15052 0.50047 0.058 0.0
C222 C 0.17463 0.52654 0.07288 0.0
C223 C 0.19484 0.52564 0.1032 0.0
C224 C 0.12406 0.44571 0.05316 0.0
C225 C 0.1772 0.55528 0.06193 0.0
H226 H 0.09301 0.5077 0.94026 0.0
H227 H 0.06438 0.49938 0.08402 0.0
H228 H 0.16215 0.52485 0.95966 0.0
H229 H 0.14558 0.48655 0.96063 0.0
H230 H 0.13354 0.50381 0.91898 0.0
H231 H 0.08961 0.49547 0.14722 0.0
H232 H 0.1087 0.47668 0.13349 0.0
H233 H 0.12799 0.51503 0.13818 0.0
H234 H 0.16641 0.45331 0.11268 0.0
H235 H 0.21169 0.54548 0.11825 0.0
H236 H 0.11809 0.44726 0.0163 0.0
H237 H 0.10505 0.44003 0.07581 0.0
H238 H 0.12915 0.42805 0.05564 0.0
H239 H 0.17129 0.55626 0.02483 0.0
H240 H 0.19933 0.57334 0.06826 0.0
H241 H 0.16213 0.55832 0.08486 0.0
C242 C 0.61139 0.09533 0.48363 0.0
C243 C 0.59061 0.07635 0.51581 0.0
C244 C 0.63811 0.11775 0.49938 0.0
C245 C 0.64378 0.12148 0.54837 0.0
C246 C 0.62296 0.10212 0.5808 0.0
C247 C 0.59686 0.07977 0.56411 0.0
C248 C 0.66003 0.13761 0.46381 0.0
C249 C 0.62792 0.1053 0.63348 0.0
C250 C 0.7126 0.15875 0.61634 0.0
C251 C 0.7102 0.18148 0.63567 0.0
C252 C 0.69328 0.14099 0.58176 0.0
C253 C 0.67082 0.14588 0.56717 0.0
C254 C 0.67092 0.17117 0.5818 0.0
C255 C 0.6908 0.18883 0.61583 0.0
C256 C 0.69457 0.11483 0.56589 0.0
C257 C 0.64749 0.17735 0.5671 0.0
H258 H 0.60674 0.09275 0.44623 0.0
H259 H 0.58097 0.06532 0.58934 0.0
H260 H 0.66254 0.15936 0.46663 0.0
H261 H 0.68136 0.13979 0.47108 0.0
H262 H 0.65371 0.12989 0.42712 0.0
H263 H 0.60936 0.08855 0.65384 0.0
H264 H 0.64727 0.10387 0.64265 0.0
H265 H 0.63181 0.1267 0.64498 0.0
H266 H 0.7278 0.15322 0.63146 0.0
H267 H 0.68887 0.20638 0.63079 0.0
H268 H 0.68816 0.10985 0.52843 0.0
H269 H 0.67939 0.096 0.58742 0.0
H270 H 0.7165 0.11784 0.57037 0.0
H271 H 0.64189 0.17209 0.52947 0.0
H272 H 0.65388 0.20025 0.57292 0.0
H273 H 0.62785 0.16377 0.58832 0.0
C274 C 0.54136 0.6063 0.03188 0.0
C275 C 0.53687 0.58372 0.06243 0.0
C276 C 0.54407 0.63199 0.04914 0.0
C277 C 0.54223 0.63524 0.09815 0.0
C278 C 0.53877 0.61301 0.12939 0.0
C279 C 0.53616 0.58749 0.11112 0.0
C280 C 0.54788 0.65521 0.0148 0.0
C281 C 0.53687 0.61579 0.18207 0.0
C282 C 0.568 0.70555 0.16182 0.0
C283 C 0.54164 0.70289 0.17562 0.0
C284 C 0.56882 0.68484 0.13281 0.0
C285 C 0.54266 0.66127 0.11709 0.0
C286 C 0.51639 0.66085 0.12543 0.0
C287 C 0.51623 0.68188 0.15451 0.0
C288 C 0.59734 0.68639 0.124 0.0
C289 C 0.48806 0.63635 0.10854 0.0
H290 H 0.54213 0.6037 0.99413 0.0
H291 H 0.53265 0.57016 0.13488 0.0
H292 H 0.52842 0.6575 0.01533 0.0
H293 H 0.56635 0.67623 0.02525 0.0
H294 H 0.55144 0.6504 0.97814 0.0
H295 H 0.53565 0.59722 0.20156 0.0
H296 H 0.55586 0.63578 0.19474 0.0
H297 H 0.51748 0.61731 0.19079 0.0
H298 H 0.58762 0.72174 0.17843 0.0
H299 H 0.49582 0.67966 0.16547 0.0
H300 H 0.59876 0.68004 0.08736 0.0
H301 H 0.59941 0.67118 0.14806 0.0
H302 H 0.61572 0.70832 0.13045 0.0
H303 H 0.48974 0.6309 0.07143 0.0
H304 H 0.47043 0.64149 0.11131 0.0
H305 H 0.48217 0.61695 0.13031 0.0
C306 C 0.9451 0.52882 0.54703 0.0
C307 C 0.94531 0.51826 0.50194 0.0
C308 C 0.92295 0.53374 0.56143 0.0
C309 C 0.90029 0.52813 0.52991 0.0
C310 C 0.90071 0.51832 0.48377 0.0
C311 C 0.9232 0.51338 0.47033 0.0
C312 C 0.92348 0.54426 0.61104 0.0
C313 C 0.87704 0.51224 0.44914 0.0
C314 C 0.83675 0.51457 0.60434 0.0
C315 C 0.84182 0.54269 0.60962 0.0
C316 C 0.85349 0.50859 0.57335 0.0
C317 C 0.8758 0.53135 0.54726 0.0
C318 C 0.87819 0.55889 0.54764 0.0
C319 C 0.86111 0.56427 0.57901 0.0
C320 C 0.8498 0.4788 0.57354 0.0
C321 C 0.90124 0.58359 0.51959 0.0
H322 H 0.96211 0.53283 0.57169 0.0
H323 H 0.92319 0.50525 0.4354 0.0
H324 H 0.92263 0.56451 0.61017 0.0
H325 H 0.90432 0.52812 0.6309 0.0
H326 H 0.94304 0.54827 0.63067 0.0
H327 H 0.88293 0.50955 0.4127 0.0
H328 H 0.85726 0.49218 0.4596 0.0
H329 H 0.8718 0.52982 0.44926 0.0
H330 H 0.82167 0.49785 0.6279 0.0
H331 H 0.86508 0.58605 0.58309 0.0
H332 H 0.86672 0.4787 0.59591 0.0
H333 H 0.85221 0.47231 0.53751 0.0
H334 H 0.82847 0.46258 0.58786 0.0
H335 H 0.92206 0.59232 0.53837 0.0
H336 H 0.89625 0.60123 0.51515 0.0
H337 H 0.90396 0.57637 0.48431 0.0
C338 C 0.42182 0.92898 0.0657 0.0
C339 C 0.42945 0.93291 0.01786 0.0
C340 C 0.39509 0.9067 0.0808 0.0
C341 C 0.37508 0.88795 0.04714 0.0
C342 C 0.38221 0.89219 0.99857 0.0
C343 C 0.40954 0.91448 0.98449 0.0
C344 C 0.38858 0.90301 0.13311 0.0
C345 C 0.36137 0.87297 0.96157 0.0
C346 C 0.32574 0.82085 0.11371 0.0
C347 C 0.30666 0.82895 0.13252 0.0
C348 C 0.34625 0.8381 0.07981 0.0
C349 C 0.34728 0.86373 0.06438 0.0
C350 C 0.32492 0.86917 0.07738 0.0
C351 C 0.30495 0.85181 0.11186 0.0
C352 C 0.36936 0.83119 0.06624 0.0
C353 C 0.3245 0.89556 0.06007 0.0
H354 H 0.43705 0.94301 0.09182 0.0
H355 H 0.41527 0.91743 0.94742 0.0
H356 H 0.36928 0.90491 0.14076 0.0
H357 H 0.38381 0.8813 0.14473 0.0
H358 H 0.40671 0.91923 0.15456 0.0
H359 H 0.3669 0.88325 0.92616 0.0
H360 H 0.36209 0.85269 0.95966 0.0
H361 H 0.33897 0.8673 0.97044 0.0
H362 H 0.32706 0.80312 0.12959 0.0
H363 H 0.28994 0.85787 0.12608 0.0
H364 H 0.38902 0.8448 0.08712 0.0
H365 H 0.37509 0.83592 0.02844 0.0
H366 H 0.36255 0.80828 0.07326 0.0
H367 H 0.3398 0.91442 0.08116 0.0
H368 H 0.30275 0.89314 0.06382 0.0
H369 H 0.33131 0.90009 0.0226 0.0
C370 C 0.44379 0.36509 0.50962 0.0
C371 C 0.46047 0.39154 0.53216 0.0
C372 C 0.43609 0.33905 0.5334 0.0
C373 C 0.44562 0.33979 0.5803 0.0
C374 C 0.46401 0.36662 0.60168 0.0
C375 C 0.47103 0.39201 0.57747 0.0
C376 C 0.41661 0.31092 0.50931 0.0
C377 C 0.47515 0.36865 0.65128 0.0
C378 C 0.40632 0.28813 0.67927 0.0
C379 C 0.42461 0.27704 0.68809 0.0
C380 C 0.41081 0.306 0.64025 0.0
C381 C 0.43447 0.31328 0.6098 0.0
C382 C 0.45111 0.29963 0.61586 0.0
C383 C 0.44598 0.28161 0.65517 0.0
C384 C 0.39226 0.3197 0.63497 0.0
C385 C 0.47625 0.30643 0.58391 0.0
H386 H 0.43567 0.36471 0.47451 0.0
H387 H 0.48445 0.41247 0.59465 0.0
H388 H 0.42355 0.29495 0.51652 0.0
H389 H 0.39442 0.30198 0.52329 0.0
H390 H 0.41605 0.31367 0.47058 0.0
H391 H 0.49083 0.39112 0.66138 0.0
H392 H 0.45692 0.36008 0.67665 0.0
H393 H 0.48574 0.35549 0.65487 0.0
H394 H 0.38974 0.28447 0.70482 0.0
H395 H 0.46016 0.27304 0.66216 0.0
H396 H 0.38667 0.32009 0.59747 0.0
H397 H 0.40438 0.34229 0.64736 0.0
H398 H 0.37207 0.3082 0.65589 0.0
H399 H 0.47114 0.30849 0.54673 0.0
H400 H 0.48263 0.28968 0.58621 0.0
H401 H 0.49495 0.3273 0.59444 0.0
C402 C 0.52186 0.92355 0.52803 0.0
C403 C 0.52048 0.94181 0.49386 0.0
C404 C 0.52559 0.9003 0.51486 0.0
C405 C 0.52736 0.89493 0.46646 0.0
C406 C 0.52608 0.91341 0.43196 0.0
C407 C 0.52292 0.93666 0.4461 0.0
C408 C 0.5274 0.88139 0.55257 0.0
C409 C 0.52759 0.9084 0.37983 0.0
C410 C 0.55888 0.85434 0.40684 0.0
C411 C 0.53382 0.83054 0.38982 0.0
C412 C 0.55725 0.87396 0.43757 0.0
C413 C 0.52992 0.86985 0.4506 0.0
C414 C 0.50478 0.84397 0.43819 0.0
C415 C 0.50707 0.82446 0.40811 0.0
C416 C 0.58465 0.90082 0.4511 0.0
C417 C 0.47519 0.83865 0.45116 0.0
H418 H 0.52007 0.92746 0.56501 0.0
H419 H 0.5217 0.9505 0.41939 0.0
H420 H 0.50837 0.85949 0.55049 0.0
H421 H 0.54674 0.87924 0.54697 0.0
H422 H 0.52829 0.88994 0.58853 0.0
H423 H 0.52585 0.92455 0.3576 0.0
H424 H 0.54823 0.90928 0.37135 0.0
H425 H 0.50996 0.8867 0.37006 0.0
H426 H 0.57959 0.859 0.39273 0.0
H427 H 0.48765 0.80617 0.3947 0.0
H428 H 0.58335 0.9073 0.48772 0.0
H429 H 0.588 0.9187 0.42732 0.0
H430 H 0.60364 0.8978 0.44793 0.0
H431 H 0.47467 0.8454 0.48787 0.0
H432 H 0.45859 0.81563 0.4473 0.0
H433 H 0.46947 0.85155 0.42754 0.0
C434 C 0.59989 0.54543 0.8703 0.0
C435 C 0.59278 0.5434 0.91819 0.0
C436 C 0.62735 0.55125 0.85588 0.0
C437 C 0.64832 0.55551 0.89022 0.0
C438 C 0.64174 0.55498 0.93859 0.0
C439 C 0.61397 0.54868 0.95201 0.0
C440 C 0.63347 0.55155 0.80381 0.0
C441 C 0.66362 0.56 0.9762 0.0
C442 C 0.70011 0.53473 0.83882 0.0
C443 C 0.72026 0.56081 0.81791 0.0
C444 C 0.67782 0.5331 0.86695 0.0
C445 C 0.67615 0.55829 0.87486 0.0
C446 C 0.69904 0.58529 0.85996 0.0
C447 C 0.72094 0.58624 0.83139 0.0
C448 C 0.65408 0.50387 0.88257 0.0
C449 C 0.69858 0.61276 0.86903 0.0
H450 H 0.58364 0.54136 0.84405 0.0
H451 H 0.60873 0.54746 0.98918 0.0
H452 H 0.65341 0.57164 0.79405 0.0
H453 H 0.63689 0.53329 0.79525 0.0
H454 H 0.61557 0.54983 0.78182 0.0
H455 H 0.65681 0.56356 0.01136 0.0
H456 H 0.66662 0.54101 0.97862 0.0
H457 H 0.68482 0.57884 0.96715 0.0
H458 H 0.69963 0.51508 0.82819 0.0
H459 H 0.73646 0.60641 0.81504 0.0
H460 H 0.6351 0.49711 0.85948 0.0
H461 H 0.64725 0.50458 0.91921 0.0
H462 H 0.66078 0.48735 0.88049 0.0
H463 H 0.68396 0.6146 0.84342 0.0
H464 H 0.72032 0.63195 0.8649 0.0
H465 H 0.69038 0.61278 0.90495 0.0
C466 C 0.09616 0.60526 0.52021 0.0
C467 C 0.07797 0.58551 0.48644 0.0
C468 C 0.11857 0.63263 0.50663 0.0
C469 C 0.12319 0.63997 0.45816 0.0
C470 C 0.10458 0.62018 0.42411 0.0
C471 C 0.08216 0.59341 0.43872 0.0
C472 C 0.13758 0.65323 0.54406 0.0
C473 C 0.10868 0.62694 0.37189 0.0
C474 C 0.16089 0.71039 0.39443 0.0
C475 C 0.18379 0.70843 0.37446 0.0
C476 C 0.14293 0.69032 0.42831 0.0
C477 C 0.14782 0.66763 0.44145 0.0
C478 C 0.17342 0.66833 0.42676 0.0
C479 C 0.19128 0.68892 0.39345 0.0
C480 C 0.11658 0.6911 0.44486 0.0
C481 C 0.17974 0.64484 0.44051 0.0
H482 H 0.093 0.59933 0.5572 0.0
H483 H 0.0683 0.57832 0.4123 0.0
H484 H 0.1577 0.65221 0.54662 0.0
H485 H 0.14361 0.67572 0.5352 0.0
H486 H 0.12693 0.64769 0.57917 0.0
H487 H 0.09244 0.60903 0.35011 0.0
H488 H 0.10714 0.64643 0.36431 0.0
H489 H 0.13039 0.63147 0.36064 0.0
H490 H 0.15532 0.72574 0.38011 0.0
H491 H 0.20903 0.6874 0.37813 0.0
H492 H 0.11157 0.68411 0.4822 0.0
H493 H 0.09784 0.67612 0.42324 0.0
H494 H 0.11938 0.71299 0.4412 0.0
H495 H 0.17469 0.63905 0.47823 0.0
H496 H 0.20262 0.65129 0.43394 0.0
H497 H 0.16602 0.62533 0.41941 0.0
C498 C 0.49765 0.08681 0.0301 0.0
C499 C 0.49406 0.06509 0.99865 0.0
C500 C 0.49183 0.10862 0.01606 0.0
C501 C 0.48247 0.10876 0.96945 0.0
C502 C 0.47829 0.08654 0.938 0.0
C503 C 0.48403 0.06504 0.95301 0.0
C504 C 0.49639 0.13184 0.05063 0.0
C505 C 0.46833 0.08576 0.8879 0.0
C506 C 0.44384 0.14508 0.9188 0.0
C507 C 0.46533 0.16528 0.88899 0.0
C508 C 0.44991 0.12857 0.95035 0.0
C509 C 0.47804 0.13244 0.95174 0.0
C510 C 0.50051 0.15553 0.92644 0.0
C511 C 0.49386 0.17172 0.89533 0.0
C512 C 0.42545 0.10464 0.97753 0.0
C513 C 0.5309 0.16075 0.92733 0.0
H514 H 0.50536 0.08701 0.06545 0.0
H515 H 0.48106 0.04836 0.92841 0.0
H516 H 0.51587 0.15224 0.04042 0.0
H517 H 0.47794 0.13578 0.05005 0.0
H518 H 0.49929 0.12628 0.08719 0.0
H519 H 0.46561 0.06667 0.86826 0.0
H520 H 0.44748 0.08545 0.8878 0.0
H521 H 0.48416 0.10538 0.86864 0.0
H522 H 0.42174 0.14003 0.91404 0.0
H523 H 0.51055 0.18757 0.87258 0.0
H524 H 0.43252 0.10221 0.01312 0.0
H525 H 0.41793 0.08407 0.95852 0.0
H526 H 0.40696 0.10844 0.98123 0.0
H527 H 0.53722 0.15851 0.96359 0.0
H528 H 0.54657 0.18245 0.91359 0.0
H529 H 0.53224 0.14449 0.90499 0.0
C530 C 0.38773 0.45387 0.45999 0.0
C531 C 0.404 0.47248 0.49642 0.0
C532 C 0.37004 0.45984 0.43141 0.0
C533 C 0.36837 0.485 0.43962 0.0
C534 C 0.38199 0.50197 0.47989 0.0
C535 C 0.39978 0.49554 0.50789 0.0
C536 C 0.35585 0.44097 0.38918 0.0
C537 C 0.38012 0.52849 0.49078 0.0
C538 C 0.3655 0.5198 0.32501 0.0
C539 C 0.33587 0.50904 0.31933 0.0
C540 C 0.3764 0.51341 0.36526 0.0
C541 C 0.35727 0.49602 0.40136 0.0
C542 C 0.32754 0.48676 0.39747 0.0
C543 C 0.31714 0.49329 0.35635 0.0
C544 C 0.40833 0.52406 0.36786 0.0
C545 C 0.30653 0.46882 0.43561 0.0
H546 H 0.39075 0.43587 0.45124 0.0
H547 H 0.41235 0.51008 0.5359 0.0
H548 H 0.33326 0.43608 0.38587 0.0
H549 H 0.36746 0.45251 0.35666 0.0
H550 H 0.35606 0.42038 0.39121 0.0
H551 H 0.3855 0.53501 0.52818 0.0
H552 H 0.3956 0.54652 0.46815 0.0
H553 H 0.35828 0.52496 0.4833 0.0
H554 H 0.38022 0.53272 0.2972 0.0
H555 H 0.29424 0.48506 0.3524 0.0
H556 H 0.41207 0.50548 0.36759 0.0
H557 H 0.41729 0.53587 0.40122 0.0
H558 H 0.42043 0.53851 0.33797 0.0
H559 H 0.30243 0.44644 0.43353 0.0
H560 H 0.28564 0.46829 0.43198 0.0
H561 H 0.3155 0.47719 0.47102 0.0
C562 C 0.92144 0.40932 0.01667 0.0
C563 C 0.94069 0.42998 0.98459 0.0
C564 C 0.89928 0.38248 0.00093 0.0
C565 C 0.89604 0.37653 0.95201 0.0
C566 C 0.91573 0.39716 0.91969 0.0
C567 C 0.93785 0.42342 0.9364 0.0
C568 C 0.87905 0.36083 0.03648 0.0
C569 C 0.91307 0.39187 0.8671 0.0
C570 C 0.85834 0.30655 0.88673 0.0
C571 C 0.83539 0.3085 0.86708 0.0
C572 C 0.87644 0.32665 0.92015 0.0
C573 C 0.87171 0.34943 0.93321 0.0
C574 C 0.84643 0.34919 0.91801 0.0
C575 C 0.82842 0.32853 0.88522 0.0
C576 C 0.90257 0.32552 0.9368 0.0
C577 C 0.84045 0.37298 0.93112 0.0
H578 H 0.92354 0.4142 0.05398 0.0
H579 H 0.95253 0.4392 0.91125 0.0
H580 H 0.85795 0.35994 0.03499 0.0
H581 H 0.87527 0.339 0.0283 0.0
H582 H 0.88743 0.3665 0.07298 0.0
H583 H 0.93011 0.41023 0.84679 0.0
H584 H 0.9144 0.37237 0.85882 0.0
H585 H 0.89182 0.38805 0.85475 0.0
H586 H 0.86361 0.29091 0.87288 0.0
H587 H 0.81075 0.33015 0.86991 0.0
H588 H 0.90727 0.33208 0.97425 0.0
H589 H 0.92154 0.3407 0.91551 0.0
H590 H 0.8997 0.30364 0.93282 0.0
H591 H 0.84514 0.37866 0.96885 0.0
H592 H 0.81775 0.36694 0.92404 0.0
H593 H 0.85466 0.39247 0.91003 0.0
C594 C 0.93696 0.53871 0.94067 0.0
C595 C 0.96041 0.54038 0.91565 0.0
C596 C 0.9161 0.54296 0.91799 0.0
C597 C 0.91865 0.54889 0.86907 0.0
C598 C 0.94275 0.55157 0.84393 0.0
C599 C 0.96337 0.54736 0.86754 0.0
C600 C 0.89083 0.54011 0.94603 0.0
C601 C 0.94624 0.55787 0.79166 0.0
C602 C 0.85364 0.52721 0.79157 0.0
C603 C 0.85624 0.55393 0.78086 0.0
C604 C 0.87288 0.52507 0.82245 0.0
C605 C 0.89524 0.5503 0.84318 0.0
C606 C 0.89658 0.57705 0.83536 0.0
C607 C 0.877 0.57855 0.80421 0.0
C608 C 0.87048 0.49608 0.83016 0.0
C609 C 0.91992 0.60438 0.85717 0.0
H610 H 0.93453 0.53348 0.97793 0.0
H611 H 0.98139 0.54874 0.84793 0.0
H612 H 0.88802 0.55899 0.93982 0.0
H613 H 0.87083 0.52079 0.93426 0.0
H614 H 0.89337 0.5381 0.98447 0.0
H615 H 0.96695 0.56082 0.77781 0.0
H616 H 0.92837 0.53989 0.77236 0.0
H617 H 0.94513 0.57758 0.78394 0.0
H618 H 0.83748 0.50813 0.77368 0.0
H619 H 0.87923 0.59928 0.79565 0.0
H620 H 0.87128 0.49199 0.86831 0.0
H621 H 0.88899 0.49581 0.81306 0.0
H622 H 0.85029 0.47827 0.81534 0.0
H623 H 0.92218 0.60112 0.89521 0.0
H624 H 0.91561 0.6225 0.85314 0.0
H625 H 0.94081 0.61049 0.83994 0.0
C626 C 0.43792 0.96573 0.36652 0.0
C627 C 0.43818 0.97025 0.41516 0.0
C628 C 0.41318 0.94411 0.34441 0.0
C629 C 0.38801 0.92709 0.37153 0.0
C630 C 0.38763 0.93288 0.42004 0.0
C631 C 0.41284 0.95419 0.4414 0.0
C632 C 0.41453 0.93836 0.29264 0.0
C633 C 0.36103 0.91569 0.44984 0.0
C634 C 0.32073 0.88102 0.29994 0.0
C635 C 0.32048 0.85476 0.299 0.0
C636 C 0.34169 0.90445 0.32559 0.0
C637 C 0.36317 0.9016 0.34996 0.0
C638 C 0.3621 0.87468 0.351 0.0
C639 C 0.34062 0.85152 0.32578 0.0
C640 C 0.34173 0.9326 0.32459 0.0
C641 C 0.38475 0.87081 0.37621 0.0
H642 H 0.45751 0.97799 0.34618 0.0
H643 H 0.41289 0.95782 0.47898 0.0
H644 H 0.41237 0.91682 0.28821 0.0
H645 H 0.39642 0.93819 0.27354 0.0
H646 H 0.43506 0.95463 0.27598 0.0
H647 H 0.36308 0.92529 0.48527 0.0
H648 H 0.34187 0.91414 0.43211 0.0
H649 H 0.35711 0.89348 0.45443 0.0
H650 H 0.30517 0.88353 0.27912 0.0
H651 H 0.34077 0.83139 0.32443 0.0
H652 H 0.36002 0.94842 0.30277 0.0
H653 H 0.34465 0.94162 0.36062 0.0
H654 H 0.3215 0.93019 0.30965 0.0
H655 H 0.40599 0.88443 0.35911 0.0
H656 H 0.37993 0.84812 0.37579 0.0
H657 H 0.38664 0.87787 0.41337 0.0
C658 C 0.48113 0.40565 0.00465 0.0
C659 C 0.49632 0.42924 0.97442 0.0
C660 C 0.47075 0.37737 0.9883 0.0
C661 C 0.47608 0.37286 0.94099 0.0
C662 C 0.49312 0.39682 0.91156 0.0
C663 C 0.50282 0.42461 0.92853 0.0
C664 C 0.45268 0.3524 0.02071 0.0
C665 C 0.49977 0.39313 0.8611 0.0
C666 C 0.46482 0.30347 0.8865 0.0
C667 C 0.44035 0.29583 0.85914 0.0
C668 C 0.47563 0.32733 0.91679 0.0
C669 C 0.46143 0.34361 0.91975 0.0
C670 C 0.43528 0.33428 0.89521 0.0
C671 C 0.42519 0.31063 0.86494 0.0
C672 C 0.5035 0.33649 0.94239 0.0
C673 C 0.4192 0.35071 0.89771 0.0
H674 H 0.47607 0.40918 0.04016 0.0
H675 H 0.51496 0.44285 0.90528 0.0
H676 H 0.42977 0.34237 0.01014 0.0
H677 H 0.45902 0.33568 0.01795 0.0
H678 H 0.4545 0.35926 0.05806 0.0
H679 H 0.5155 0.41389 0.84443 0.0
H680 H 0.50854 0.37829 0.85936 0.0
H681 H 0.47968 0.38349 0.84009 0.0
H682 H 0.47654 0.29199 0.88185 0.0
H683 H 0.40612 0.3045 0.84395 0.0
H684 H 0.5025 0.34339 0.97884 0.0
H685 H 0.52124 0.35515 0.92379 0.0
H686 H 0.50881 0.31895 0.94384 0.0
H687 H 0.41712 0.35596 0.93478 0.0
H688 H 0.39736 0.33846 0.88214 0.0
H689 H 0.43142 0.3713 0.87815 0.0
C690 C 0.06237 0.48115 0.36176 0.0
C691 C 0.05834 0.47764 0.41064 0.0
C692 C 0.08521 0.47994 0.33971 0.0
C693 C 0.10406 0.47447 0.36712 0.0
C694 C 0.09898 0.46911 0.41603 0.0
C695 C 0.07637 0.47111 0.43733 0.0
C696 C 0.09009 0.48612 0.28748 0.0
C697 C 0.1181 0.46242 0.44617 0.0
C698 C 0.15249 0.4574 0.29271 0.0
C699 C 0.17709 0.48465 0.28854 0.0
C700 C 0.1292 0.45315 0.32115 0.0
C701 C 0.13038 0.47688 0.34498 0.0
C702 C 0.15597 0.50396 0.34341 0.0
C703 C 0.17912 0.50744 0.31549 0.0
C704 C 0.10262 0.42378 0.32299 0.0
C705 C 0.15807 0.5299 0.36791 0.0
H706 H 0.04859 0.48635 0.34102 0.0
H707 H 0.07318 0.46814 0.47512 0.0
H708 H 0.11093 0.50614 0.2816 0.0
H709 H 0.09134 0.46848 0.26935 0.0
H710 H 0.07277 0.48873 0.27088 0.0
H711 H 0.10905 0.45506 0.48208 0.0
H712 H 0.12134 0.44558 0.42939 0.0
H713 H 0.13957 0.48195 0.44955 0.0
H714 H 0.1509 0.43979 0.27174 0.0
H715 H 0.19791 0.52863 0.31171 0.0
H716 H 0.08552 0.4238 0.30105 0.0
H717 H 0.09422 0.41825 0.35957 0.0
H718 H 0.10689 0.40681 0.30959 0.0
H719 H 0.14324 0.53599 0.35082 0.0
H720 H 0.1802 0.54872 0.36655 0.0
H721 H 0.15139 0.52486 0.40534 0.0
C722 C 0.58369 0.04619 0.87458 0.0
C723 C 0.58289 0.04242 0.92354 0.0
C724 C 0.60825 0.06818 0.85232 0.0
C725 C 0.63276 0.08637 0.87964 0.0
C726 C 0.6327 0.08142 0.92864 0.0
C727 C 0.60762 0.0597 0.95012 0.0
C728 C 0.60734 0.073 0.80002 0.0
C729 C 0.65865 0.09988 0.95868 0.0
C730 C 0.69974 0.13327 0.80714 0.0
C731 C 0.69858 0.15875 0.80384 0.0
C732 C 0.67947 0.10998 0.83426 0.0
C733 C 0.65721 0.11211 0.85748 0.0
C734 C 0.65688 0.13835 0.85615 0.0
C735 C 0.67776 0.16146 0.82965 0.0
C736 C 0.68097 0.08263 0.83589 0.0
C737 C 0.63329 0.1414 0.8799 0.0
H738 H 0.56459 0.03297 0.85394 0.0
H739 H 0.60717 0.05665 0.98797 0.0
H740 H 0.60875 0.09411 0.79386 0.0
H741 H 0.62605 0.07362 0.78208 0.0
H742 H 0.58731 0.05601 0.78344 0.0
H743 H 0.65652 0.09087 0.99473 0.0
H744 H 0.67843 0.10215 0.94204 0.0
H745 H 0.66148 0.12175 0.96173 0.0
H746 H 0.71583 0.13121 0.78701 0.0
H747 H 0.67656 0.18098 0.82645 0.0
H748 H 0.6634 0.06594 0.81425 0.0
H749 H 0.67791 0.07426 0.87251 0.0
H750 H 0.70181 0.08587 0.82217 0.0
H751 H 0.61239 0.12685 0.86283 0.0
H752 H 0.63714 0.16374 0.87789 0.0
H753 H 0.63132 0.13499 0.9175 0.0
C754 C 0.51137 0.54966 0.37628 0.0
C755 C 0.51401 0.54512 0.42416 0.0
C756 C 0.51781 0.57705 0.35987 0.0
C757 C 0.52685 0.60009 0.39226 0.0
C758 C 0.53097 0.59586 0.44006 0.0
C759 C 0.52473 0.56855 0.45528 0.0
C760 C 0.51374 0.58106 0.30835 0.0
C761 C 0.54046 0.61975 0.47573 0.0
C762 C 0.56011 0.67603 0.34383 0.0
C763 C 0.53592 0.67955 0.34014 0.0
C764 C 0.55764 0.65047 0.36152 0.0
C765 C 0.53046 0.62821 0.37691 0.0
C766 C 0.50653 0.63266 0.37723 0.0
C767 C 0.50953 0.65829 0.35866 0.0
C768 C 0.58365 0.64656 0.36061 0.0
C769 C 0.47733 0.60964 0.39453 0.0
H770 H 0.50307 0.53166 0.35217 0.0
H771 H 0.52724 0.56532 0.49233 0.0
H772 H 0.49518 0.58466 0.30421 0.0
H773 H 0.53301 0.60035 0.29416 0.0
H774 H 0.5097 0.5621 0.28697 0.0
H775 H 0.54448 0.61341 0.51097 0.0
H776 H 0.56038 0.63915 0.46363 0.0
H777 H 0.5236 0.62587 0.47945 0.0
H778 H 0.58053 0.69247 0.32948 0.0
H779 H 0.49068 0.66069 0.35531 0.0
H780 H 0.58035 0.62999 0.33414 0.0
H781 H 0.5866 0.63879 0.39527 0.0
H782 H 0.60368 0.66679 0.35146 0.0
H783 H 0.46885 0.59078 0.37076 0.0
H784 H 0.46154 0.61732 0.39589 0.0
H785 H 0.4791 0.60218 0.43022 0.0
C786 C 0.48047 0.07755 0.55846 0.0
C787 C 0.4794 0.05453 0.58394 0.0
C788 C 0.4752 0.09788 0.58055 0.0
C789 C 0.46883 0.09522 0.62932 0.0
C790 C 0.46696 0.07163 0.65496 0.0
C791 C 0.47219 0.05154 0.63194 0.0
C792 C 0.47721 0.12263 0.55202 0.0
C793 C 0.46024 0.06805 0.70711 0.0
C794 C 0.48574 0.1589 0.70708 0.0
C795 C 0.45812 0.15431 0.71698 0.0
C796 C 0.48975 0.14085 0.67614 0.0
C797 C 0.46554 0.11772 0.65447 0.0
C798 C 0.43789 0.11451 0.66119 0.0
C799 C 0.4345 0.13287 0.69248 0.0
C800 C 0.51964 0.14521 0.66959 0.0
C801 C 0.41159 0.09032 0.6383 0.0
H802 H 0.48592 0.08 0.52129 0.0
H803 H 0.47129 0.03385 0.65191 0.0
H804 H 0.4575 0.1242 0.55694 0.0
H805 H 0.49564 0.14312 0.56451 0.0
H806 H 0.48018 0.12041 0.5138 0.0
H807 H 0.45849 0.04796 0.72153 0.0
H808 H 0.47738 0.08658 0.72655 0.0
H809 H 0.43972 0.06777 0.71399 0.0
H810 H 0.50406 0.17563 0.72574 0.0
H811 H 0.41307 0.12906 0.70032 0.0
H812 H 0.52433 0.14455 0.63167 0.0
H813 H 0.52106 0.12752 0.6874 0.0
H814 H 0.53645 0.16597 0.68446 0.0
H815 H 0.41572 0.08851 0.60048 0.0
H816 H 0.39258 0.09332 0.6413 0.0
H817 H 0.40632 0.06967 0.65558 0.0
C818 C 0.42675 0.52115 0.96847 0.0
C819 C 0.43348 0.49977 0.98003 0.0
C820 C 0.4049 0.52306 0.99302 0.0
C821 C 0.38964 0.5031 0.02961 0.0
C822 C 0.39409 0.47949 0.03704 0.0
C823 C 0.41604 0.47819 0.01226 0.0
C824 C 0.40041 0.5482 0.98328 0.0
C825 C 0.37813 0.45745 0.07516 0.0
C826 C 0.37414 0.52829 0.14465 0.0
C827 C 0.34408 0.5153 0.14414 0.0
C828 C 0.38925 0.52577 0.10636 0.0
C829 C 0.37393 0.50982 0.06628 0.0
C830 C 0.34369 0.49804 0.06433 0.0
C831 C 0.32907 0.50093 0.1034 0.0
C832 C 0.42155 0.53908 0.1099 0.0
C833 C 0.32664 0.48124 0.02206 0.0
H834 H 0.44031 0.53796 0.94373 0.0
H835 H 0.42115 0.46154 0.02099 0.0
H836 H 0.37733 0.54178 0.9862 0.0
H837 H 0.41238 0.56525 0.00972 0.0
H838 H 0.40841 0.55747 0.94768 0.0
H839 H 0.38076 0.43826 0.07155 0.0
H840 H 0.38652 0.46725 0.11013 0.0
H841 H 0.35485 0.45037 0.07444 0.0
H842 H 0.38588 0.54002 0.17565 0.0
H843 H 0.30582 0.491 0.1028 0.0
H844 H 0.43221 0.55291 0.07875 0.0
H845 H 0.42733 0.52189 0.11041 0.0
H846 H 0.43034 0.5523 0.14216 0.0
H847 H 0.33777 0.49206 0.98884 0.0
H848 H 0.30465 0.47841 0.02196 0.0
H849 H 0.32465 0.45964 0.0225 0.0
C850 C 0.96591 0.43016 0.62722 0.0
C851 C 0.97036 0.43108 0.57844 0.0
C852 C 0.94418 0.40526 0.64905 0.0
C853 C 0.92698 0.38053 0.62152 0.0
C854 C 0.9327 0.38074 0.57279 0.0
C855 C 0.95411 0.40617 0.55168 0.0
C856 C 0.93852 0.40601 0.70108 0.0
C857 C 0.91538 0.35456 0.54259 0.0
C858 C 0.88106 0.31412 0.69552 0.0
C859 C 0.85528 0.31479 0.69824 0.0
C860 C 0.90408 0.33416 0.66772 0.0
C861 C 0.90136 0.35568 0.64313 0.0
C862 C 0.87471 0.35523 0.64341 0.0
C863 C 0.85189 0.3346 0.67068 0.0
C864 C 0.93187 0.33345 0.66718 0.0
C865 C 0.87098 0.37797 0.61808 0.0
H866 H 0.97835 0.4494 0.64798 0.0
H867 H 0.95771 0.40673 0.51398 0.0
H868 H 0.91691 0.40366 0.70623 0.0
H869 H 0.93853 0.38777 0.71956 0.0
H870 H 0.95474 0.42637 0.71788 0.0
H871 H 0.92519 0.35687 0.50716 0.0
H872 H 0.91336 0.33507 0.55996 0.0
H873 H 0.89333 0.35108 0.538 0.0
H874 H 0.88364 0.29878 0.71691 0.0
H875 H 0.83213 0.33542 0.67332 0.0
H876 H 0.94799 0.35108 0.68943 0.0
H877 H 0.94081 0.33687 0.63092 0.0
H878 H 0.92893 0.31274 0.68097 0.0
H879 H 0.88468 0.39914 0.63498 0.0
H880 H 0.84832 0.37326 0.61879 0.0
H881 H 0.87804 0.3799 0.58083 0.0
C882 C 0.5461 0.93817 0.06717 0.0
C883 C 0.53907 0.95598 0.09341 0.0
C884 C 0.54964 0.91666 0.08918 0.0
C885 C 0.54537 0.91244 0.13842 0.0
C886 C 0.53916 0.93096 0.16529 0.0
C887 C 0.53639 0.95271 0.14249 0.0
C888 C 0.55699 0.89785 0.05955 0.0
C889 C 0.53411 0.92696 0.21786 0.0
C890 C 0.51838 0.8391 0.19418 0.0
C891 C 0.54261 0.8434 0.21951 0.0
C892 C 0.51939 0.86097 0.16561 0.0
C893 C 0.5454 0.88757 0.16174 0.0
C894 C 0.57054 0.8911 0.18415 0.0
C895 C 0.56876 0.86905 0.21326 0.0
C896 C 0.49202 0.8564 0.14271 0.0
C897 C 0.59883 0.91883 0.17993 0.0
H898 H 0.5484 0.94075 0.02922 0.0
H899 H 0.53079 0.96629 0.1629 0.0
H900 H 0.57525 0.89657 0.07531 0.0
H901 H 0.53833 0.87568 0.05859 0.0
H902 H 0.56272 0.9059 0.02277 0.0
H903 H 0.5304 0.94374 0.23382 0.0
H904 H 0.51507 0.90558 0.22526 0.0
H905 H 0.55282 0.92748 0.23544 0.0
H906 H 0.49804 0.81947 0.19961 0.0
H907 H 0.58746 0.87239 0.23304 0.0
H908 H 0.49574 0.86235 0.10486 0.0
H909 H 0.485 0.87052 0.15972 0.0
H910 H 0.47428 0.83376 0.1458 0.0
H911 H 0.60314 0.92628 0.14274 0.0
H912 H 0.61709 0.91652 0.19306 0.0
H913 H 0.59786 0.93579 0.20081 0.0
C914 C 0.57595 0.50043 0.54047 0.0
C915 C 0.55731 0.50277 0.57285 0.0
C916 C 0.60416 0.50804 0.55276 0.0
C917 C 0.61411 0.51822 0.59862 0.0
C918 C 0.59561 0.52098 0.63142 0.0
C919 C 0.56739 0.51326 0.61811 0.0
C920 C 0.62319 0.50481 0.51681 0.0
C921 C 0.60552 0.53175 0.68077 0.0
C922 C 0.67464 0.51131 0.65398 0.0
C923 C 0.69722 0.53986 0.65267 0.0
C924 C 0.64781 0.50364 0.63427 0.0
C925 C 0.64355 0.5251 0.61289 0.0
C926 C 0.66703 0.55346 0.60796 0.0
C927 C 0.69371 0.56051 0.62792 0.0
C928 C 0.62346 0.47308 0.6397 0.0
C929 C 0.66341 0.57688 0.58503 0.0
H930 H 0.56851 0.4925 0.50523 0.0
H931 H 0.55319 0.51516 0.64326 0.0
H932 H 0.64338 0.5256 0.51183 0.0
H933 H 0.6293 0.48905 0.52969 0.0
H934 H 0.61249 0.49748 0.48208 0.0
H935 H 0.58884 0.53344 0.70155 0.0
H936 H 0.61108 0.51699 0.69947 0.0
H937 H 0.62526 0.5532 0.67951 0.0
H938 H 0.67734 0.49548 0.67373 0.0
H939 H 0.71101 0.58269 0.62777 0.0
H940 H 0.61226 0.46484 0.60564 0.0
H941 H 0.60744 0.47248 0.66521 0.0
H942 H 0.63105 0.45843 0.65259 0.0
H943 H 0.65207 0.56947 0.55087 0.0
H944 H 0.68439 0.59675 0.57887 0.0
H945 H 0.65003 0.58226 0.60809 0.0
C946 C 0.06061 0.60798 0.06137 0.0
C947 C 0.04389 0.58253 0.08699 0.0
C948 C 0.08204 0.63279 0.08347 0.0
C949 C 0.08725 0.63188 0.13211 0.0
C950 C 0.06947 0.60667 0.15862 0.0
C951 C 0.04777 0.58234 0.13576 0.0
C952 C 0.10005 0.65947 0.05429 0.0
C953 C 0.07455 0.60475 0.21052 0.0
C954 C 0.16269 0.67687 0.18005 0.0
C955 C 0.15995 0.69719 0.2071 0.0
C956 C 0.13944 0.65615 0.15396 0.0
C957 C 0.11297 0.65606 0.15442 0.0
C958 C 0.11071 0.67778 0.17905 0.0
C959 C 0.13419 0.69796 0.20556 0.0
C960 C 0.14267 0.6332 0.12849 0.0
C961 C 0.08307 0.67879 0.17946 0.0
H962 H 0.05748 0.60828 0.02367 0.0
H963 H 0.035 0.56268 0.15564 0.0
H964 H 0.10218 0.67875 0.07238 0.0
H965 H 0.12203 0.66266 0.0499 0.0
H966 H 0.09076 0.65801 0.01876 0.0
H967 H 0.05765 0.58438 0.22669 0.0
H968 H 0.09572 0.60609 0.21547 0.0
H969 H 0.07523 0.62306 0.22974 0.0
H970 H 0.18241 0.67593 0.18184 0.0
H971 H 0.13209 0.71366 0.2266 0.0
H972 H 0.13603 0.63186 0.09117 0.0
H973 H 0.12837 0.61194 0.14503 0.0
H974 H 0.16512 0.63727 0.12939 0.0
H975 H 0.07443 0.67637 0.14323 0.0
H976 H 0.08607 0.69919 0.19458 0.0
H977 H 0.06668 0.66063 0.20085 0.0
loop_
_geom_bond_atom_site_label_1
_geom_bond_atom_site_label_2
_geom_bond_distance
_geom_bond_site_symmetry_2
_ccdc_geom_bond_type
C0 O2 1.247 . S
C0 O4 1.258 . S
C1 O8 1.247 . S
C1 O9 1.258 1_556 S
O2 C0 1.247 . S
O2 Zn3 2.028 1_455 S
Zn3 O2 2.028 1_655 S
Zn3 O7 2.035 . S
Zn3 O9 2.035 . S
Zn3 O10 2.028 1_655 S
O4 C0 1.258 . S
O4 Zn5 2.035 1_554 S
Zn5 O4 2.035 1_556 S
Zn5 O6 2.028 1_455 S
Zn5 O8 2.028 1_455 S
Zn5 O11 2.035 1_556 S
O6 Zn5 2.028 1_655 S
O6 C12 1.247 . S
O7 Zn3 2.035 . S
O7 C12 1.258 1_554 S
O8 C1 1.247 . S
O8 Zn5 2.028 1_655 S
O9 C1 1.258 1_554 S
O9 Zn3 2.035 . S
O10 Zn3 2.028 1_455 S
O10 C13 1.247 . S
O11 Zn5 2.035 1_554 S
O11 C13 1.258 . S
C12 O6 1.247 . S
C12 O7 1.258 1_556 S
C13 O10 1.247 . S
C13 O11 1.258 . S
C14 O16 1.247 . S
C14 O18 1.258 . S
C15 O22 1.247 . S
C15 O23 1.258 . S
O16 C14 1.247 . S
O16 Zn17 2.028 1_545 S
Zn17 O16 2.028 1_565 S
Zn17 O21 2.035 . S
Zn17 O23 2.035 . S
Zn17 O24 2.028 1_565 S
O18 C14 1.258 . S
O18 Zn19 2.035 . S
Zn19 O18 2.035 . S
Zn19 O20 2.028 1_545 S
Zn19 O22 2.028 1_545 S
Zn19 O25 2.035 . S
O20 Zn19 2.028 1_565 S
O20 C26 1.247 . S
O21 Zn17 2.035 . S
O21 C26 1.258 . S
O22 C15 1.247 . S
O22 Zn19 2.028 1_565 S
O23 C15 1.258 . S
O23 Zn17 2.035 . S
O24 Zn17 2.028 1_545 S
O24 C27 1.247 . S
O25 Zn19 2.035 . S
O25 C27 1.258 . S
C26 O20 1.247 . S
C26 O21 1.258 . S
C27 O24 1.247 . S
C27 O25 1.258 . S
C28 O30 1.247 . S
C28 O32 1.258 1_556 S
C29 O36 1.247 . S
C29 O37 1.258 . S
O30 C28 1.247 . S
O30 Zn31 2.028 . S
Zn31 O30 2.028 . S
Zn31 O35 2.035 1_556 S
Zn31 O37 2.035 1_556 S
Zn31 O38 2.028 . S
O32 C28 1.258 1_554 S
O32 Zn33 2.035 . S
Zn33 O32 2.035 . S
Zn33 O34 2.028 . S
Zn33 O36 2.028 . S
Zn33 O39 2.035 . S
O34 Zn33 2.028 . S
O34 C40 1.247 . S
O35 Zn31 2.035 1_554 S
O35 C40 1.258 . S
O36 C29 1.247 . S
O36 Zn33 2.028 . S
O37 C29 1.258 . S
O37 Zn31 2.035 1_554 S
O38 Zn31 2.028 . S
O38 C41 1.247 . S
O39 Zn33 2.035 . S
O39 C41 1.258 1_554 S
C40 O34 1.247 . S
C40 O35 1.258 . S
C41 O38 1.247 . S
C41 O39 1.258 1_556 S
C42 O44 1.247 . S
C42 O46 1.258 . S
C43 O50 1.247 . S
C43 O51 1.258 . S
O44 C42 1.247 . S
O44 Zn45 2.028 . S
Zn45 O44 2.028 . S
Zn45 O49 2.035 1_455 S
Zn45 O51 2.035 1_455 S
Zn45 O52 2.028 . S
O46 C42 1.258 . S
O46 Zn47 2.035 1_455 S
Zn47 O46 2.035 1_655 S
Zn47 O48 2.028 . S
Zn47 O50 2.028 . S
Zn47 O53 2.035 1_655 S
O48 Zn47 2.028 . S
O48 C54 1.247 . S
O49 Zn45 2.035 1_655 S
O49 C54 1.258 . S
O50 C43 1.247 . S
O50 Zn47 2.028 . S
O51 C43 1.258 . S
O51 Zn45 2.035 1_655 S
O52 Zn45 2.028 . S
O52 C55 1.247 . S
O53 Zn47 2.035 1_455 S
O53 C55 1.258 . S
C54 O48 1.247 . S
C54 O49 1.258 . S
C55 O52 1.247 . S
C55 O53 1.258 . S
C56 O58 1.247 . S
C56 O60 1.263 . S
C57 O64 1.247 . S
C57 O65 1.258 1_556 S
O58 C56 1.247 . S
O58 Zn59 2.028 1_565 S
Zn59 O58 2.028 1_545 S
Zn59 O63 2.035 . S
Zn59 O65 2.035 . S
Zn59 O66 2.028 1_545 S
O60 C56 1.263 . S
O60 Zn61 2.032 1_554 S
Zn61 O60 2.032 1_556 S
Zn61 O62 2.028 1_565 S
Zn61 O64 2.028 1_565 S
Zn61 O67 2.030 1_556 S
O62 Zn61 2.028 1_545 S
O62 C68 1.247 . S
O63 Zn59 2.035 . S
O63 C68 1.258 1_554 S
O64 C57 1.247 . S
O64 Zn61 2.028 1_545 S
O65 C57 1.258 1_554 S
O65 Zn59 2.035 . S
O66 Zn59 2.028 1_565 S
O66 C69 1.247 . S
O67 Zn61 2.030 1_554 S
O67 C69 1.267 . S
C68 O62 1.247 . S
C68 O63 1.258 1_556 S
C69 O66 1.247 . S
C69 O67 1.267 . S
C70 O72 1.247 . S
C70 O74 1.258 . S
C71 O78 1.247 . S
C71 O79 1.258 . S
O72 C70 1.247 . S
O72 Zn73 2.028 . S
Zn73 O72 2.028 . S
Zn73 O77 2.035 . S
Zn73 O79 2.035 . S
Zn73 O80 2.028 . S
O74 C70 1.258 . S
O74 Zn75 2.035 . S
Zn75 O74 2.035 . S
Zn75 O76 2.028 . S
Zn75 O78 2.028 . S
Zn75 O81 2.035 . S
O76 Zn75 2.028 . S
O76 C82 1.247 . S
O77 Zn73 2.035 . S
O77 C82 1.258 . S
O78 C71 1.247 . S
O78 Zn75 2.028 . S
O79 C71 1.258 . S
O79 Zn73 2.035 . S
O80 Zn73 2.028 . S
O80 C83 1.247 . S
O81 Zn75 2.035 . S
O81 C83 1.258 . S
C82 O76 1.247 . S
C82 O77 1.258 . S
C83 O80 1.247 . S
C83 O81 1.258 . S
H84 C92 0.930 . S
H85 C95 0.930 . S
H86 C97 0.930 . S
H87 C98 0.970 . S
H88 C98 0.970 . S
H89 C100 0.930 . S
H90 C102 0.930 . S
H91 C104 0.930 . S
C92 H84 0.930 . S
C92 C93 1.382 . S
C92 C94 1.426 . S
C93 C92 1.382 . S
C93 C97 1.389 . S
C94 C92 1.426 . S
C94 C95 1.375 . S
C94 C98 1.532 . S
C95 H85 0.930 . S
C95 C94 1.375 . S
C95 C96 1.416 . S
C96 C95 1.416 . S
C96 C97 1.371 . S
C97 H86 0.930 . S
C97 C93 1.389 . S
C97 C96 1.371 . S
C98 H87 0.970 . S
C98 H88 0.970 . S
C98 C94 1.532 . S
C98 C99 1.499 . S
C99 C98 1.499 . S
C99 C100 1.370 . S
C99 C104 1.415 . S
C100 H89 0.930 . S
C100 C99 1.370 . S
C100 C101 1.407 . S
C101 C100 1.407 . S
C101 C102 1.365 . S
C102 H90 0.930 . S
C102 C101 1.365 . S
C102 C103 1.393 . S
C103 C102 1.393 . S
C103 C104 1.387 . S
C104 H91 0.930 . S
C104 C99 1.415 . S
C104 C103 1.387 . S
H105 C113 0.930 . S
H106 C116 0.930 . S
H107 C118 0.930 . S
H108 C119 0.970 . S
H109 C119 0.970 . S
H110 C121 0.930 . S
H111 C123 0.930 . S
H112 C125 0.930 . S
C113 H105 0.930 . S
C113 C114 1.382 . S
C113 C115 1.426 . S
C114 C113 1.382 . S
C114 C118 1.389 . S
C115 C113 1.426 . S
C115 C116 1.375 . S
C115 C119 1.532 . S
C116 H106 0.930 . S
C116 C115 1.375 . S
C116 C117 1.416 . S
C117 C116 1.416 . S
C117 C118 1.371 . S
C118 H107 0.930 . S
C118 C114 1.389 . S
C118 C117 1.371 . S
C119 H108 0.970 . S
C119 H109 0.970 . S
C119 C115 1.532 . S
C119 C120 1.499 . S
C120 C119 1.499 . S
C120 C121 1.370 . S
C120 C125 1.415 . S
C121 H110 0.930 . S
C121 C120 1.370 . S
C121 C122 1.407 . S
C122 C121 1.407 . S
C122 C123 1.365 . S
C123 H111 0.930 . S
C123 C122 1.365 . S
C123 C124 1.393 . S
C124 C123 1.393 . S
C124 C125 1.387 . S
C125 H112 0.930 . S
C125 C120 1.415 . S
C125 C124 1.387 . S
H126 C134 0.930 . S
H127 C137 0.930 . S
H128 C139 0.930 . S
H129 C140 0.970 . S
H130 C140 0.970 . S
H131 C142 0.930 . S
H132 C144 0.930 . S
H133 C146 0.930 . S
C134 H126 0.930 . S
C134 C135 1.382 . S
C134 C136 1.426 . S
C135 C134 1.382 . S
C135 C139 1.389 . S
C136 C134 1.426 . S
C136 C137 1.375 . S
C136 C140 1.532 . S
C137 H127 0.930 . S
C137 C136 1.375 . S
C137 C138 1.416 . S
C138 C137 1.416 . S
C138 C139 1.371 . S
C139 H128 0.930 . S
C139 C135 1.389 . S
C139 C138 1.371 . S
C140 H129 0.970 . S
C140 H130 0.970 . S
C140 C136 1.532 . S
C140 C141 1.499 . S
C141 C140 1.499 . S
C141 C142 1.370 . S
C141 C146 1.415 . S
C142 H131 0.930 . S
C142 C141 1.370 . S
C142 C143 1.407 . S
C143 C142 1.407 . S
C143 C144 1.365 . S
C144 H132 0.930 . S
C144 C143 1.365 . S
C144 C145 1.393 . S
C145 C144 1.393 . S
C145 C146 1.387 . S
C146 H133 0.930 . S
C146 C141 1.415 . S
C146 C145 1.387 . S
H147 C155 0.930 . S
H148 C158 0.930 . S
H149 C160 0.930 . S
H150 C161 0.970 . S
H151 C161 0.970 . S
H152 C163 0.930 . S
H153 C165 0.930 . S
H154 C167 0.930 . S
C155 H147 0.930 . S
C155 C156 1.382 . S
C155 C157 1.426 . S
C156 C155 1.382 . S
C156 C160 1.389 . S
C157 C155 1.426 . S
C157 C158 1.375 . S
C157 C161 1.532 . S
C158 H148 0.930 . S
C158 C157 1.375 . S
C158 C159 1.416 . S
C159 C158 1.416 . S
C159 C160 1.371 . S
C160 H149 0.930 . S
C160 C156 1.389 . S
C160 C159 1.371 . S
C161 H150 0.970 . S
C161 H151 0.970 . S
C161 C157 1.532 . S
C161 C162 1.499 . S
C162 C161 1.499 . S
C162 C163 1.370 . S
C162 C167 1.415 . S
C163 H152 0.930 . S
C163 C162 1.370 . S
C163 C164 1.407 . S
C164 C163 1.407 . S
C164 C165 1.365 . S
C165 H153 0.930 . S
C165 C164 1.365 . S
C165 C166 1.393 . S
C166 C165 1.393 . S
C166 C167 1.387 . S
C167 H154 0.930 . S
C167 C162 1.415 . S
C167 C166 1.387 . S
H168 C176 0.930 . S
H169 C179 0.930 . S
H170 C181 0.930 . S
H171 C182 0.970 . S
H172 C182 0.970 . S
H173 C184 0.930 . S
H174 C186 0.930 . S
H175 C188 0.930 . S
C176 H168 0.930 . S
C176 C177 1.382 . S
C176 C178 1.426 . S
C177 C176 1.382 . S
C177 C181 1.389 . S
C178 C176 1.426 . S
C178 C179 1.375 . S
C178 C182 1.532 . S
C179 H169 0.930 . S
C179 C178 1.375 . S
C179 C180 1.416 . S
C180 C179 1.416 . S
C180 C181 1.371 . S
C181 H170 0.930 . S
C181 C177 1.389 . S
C181 C180 1.371 . S
C182 H171 0.970 . S
C182 H172 0.970 . S
C182 C178 1.532 . S
C182 C183 1.499 . S
C183 C182 1.499 . S
C183 C184 1.370 . S
C183 C188 1.415 . S
C184 H173 0.930 . S
C184 C183 1.370 . S
C184 C185 1.407 . S
C185 C184 1.407 . S
C185 C186 1.365 . S
C186 H174 0.930 . S
C186 C185 1.365 . S
C186 C187 1.393 . S
C187 C186 1.393 . S
C187 C188 1.387 . S
C188 H175 0.930 . S
C188 C183 1.415 . S
C188 C187 1.387 . S
H189 C197 0.930 . S
H190 C200 0.930 . S
H191 C202 0.930 . S
H192 C203 0.970 . S
H193 C203 0.970 . S
H194 C205 0.930 . S
H195 C207 0.930 . S
H196 C209 0.930 . S
C197 H189 0.930 . S
C197 C198 1.382 . S
C197 C199 1.426 . S
C198 C197 1.382 . S
C198 C202 1.389 . S
C199 C197 1.426 . S
C199 C200 1.375 . S
C199 C203 1.532 . S
C200 H190 0.930 . S
C200 C199 1.375 . S
C200 C201 1.416 . S
C201 C200 1.416 . S
C201 C202 1.371 . S
C202 H191 0.930 . S
C202 C198 1.389 . S
C202 C201 1.371 . S
C203 H192 0.970 . S
C203 H193 0.970 . S
C203 C199 1.532 . S
C203 C204 1.499 . S
C204 C203 1.499 . S
C204 C205 1.370 . S
C204 C209 1.415 . S
C205 H194 0.930 . S
C205 C204 1.370 . S
C205 C206 1.407 . S
C206 C205 1.407 . S
C206 C207 1.365 . S
C207 H195 0.930 . S
C207 C206 1.365 . S
C207 C208 1.393 . S
C208 C207 1.393 . S
C208 C209 1.387 . S
C209 H196 0.930 . S
C209 C204 1.415 . S
C209 C208 1.387 . S
C210 C211 1.391 . S
C210 C212 1.394 . S
C210 H226 0.931 . S
C211 C210 1.391 . S
C211 C215 1.376 . S
C212 C210 1.394 . S
C212 C213 1.369 . S
C212 C216 1.531 . S
C213 C212 1.369 . S
C213 C214 1.410 . S
C213 C221 1.503 . S
C214 C213 1.410 . S
C214 C215 1.392 . S
C214 C217 1.511 . S
C215 C211 1.376 . S
C215 C214 1.392 . S
C215 H227 0.929 . S
C216 C212 1.531 . S
C216 H228 0.960 . S
C216 H229 0.962 . S
C216 H230 0.960 . S
C217 C214 1.511 . S
C217 H231 0.961 . S
C217 H232 0.961 . S
C217 H233 0.961 . S
C218 C219 1.370 . S
C218 C220 1.363 . S
C218 H234 0.931 . S
C219 C218 1.370 . S
C219 C223 1.408 . S
C220 C218 1.363 . S
C220 C221 1.370 . S
C220 C224 1.524 . S
C221 C213 1.503 . S
C221 C220 1.370 . S
C221 C222 1.403 . S
C222 C221 1.403 . S
C222 C223 1.404 . S
C222 C225 1.539 . S
C223 C219 1.408 . S
C223 C222 1.404 . S
C223 H235 0.930 . S
C224 C220 1.524 . S
C224 H236 0.956 . S
C224 H237 0.961 . S
C224 H238 0.961 . S
C225 C222 1.539 . S
C225 H239 0.958 . S
C225 H240 0.961 . S
C225 H241 0.960 . S
H226 C210 0.931 . S
H227 C215 0.929 . S
H228 C216 0.960 . S
H229 C216 0.962 . S
H230 C216 0.960 . S
H231 C217 0.961 . S
H232 C217 0.961 . S
H233 C217 0.961 . S
H234 C218 0.931 . S
H235 C223 0.930 . S
H236 C224 0.956 . S
H237 C224 0.961 . S
H238 C224 0.961 . S
H239 C225 0.958 . S
H240 C225 0.961 . S
H241 C225 0.960 . S
C242 C243 1.391 . S
C242 C244 1.394 . S
C242 H258 0.931 . S
C243 C242 1.391 . S
C243 C247 1.376 . S
C244 C242 1.394 . S
C244 C245 1.369 . S
C244 C248 1.531 . S
C245 C244 1.369 . S
C245 C246 1.410 . S
C245 C253 1.503 . S
C246 C245 1.410 . S
C246 C247 1.392 . S
C246 C249 1.511 . S
C247 C243 1.376 . S
C247 C246 1.392 . S
C247 H259 0.929 . S
C248 C244 1.531 . S
C248 H260 0.960 . S
C248 H261 0.962 . S
C248 H262 0.960 . S
C249 C246 1.511 . S
C249 H263 0.961 . S
C249 H264 0.961 . S
C249 H265 0.961 . S
C250 C251 1.370 . S
C250 C252 1.363 . S
C250 H266 0.931 . S
C251 C250 1.370 . S
C251 C255 1.408 . S
C252 C250 1.363 . S
C252 C253 1.370 . S
C252 C256 1.524 . S
C253 C245 1.503 . S
C253 C252 1.370 . S
C253 C254 1.403 . S
C254 C253 1.403 . S
C254 C255 1.404 . S
C254 C257 1.539 . S
C255 C251 1.408 . S
C255 C254 1.404 . S
C255 H267 0.930 . S
C256 C252 1.524 . S
C256 H268 0.956 . S
C256 H269 0.961 . S
C256 H270 0.961 . S
C257 C254 1.539 . S
C257 H271 0.958 . S
C257 H272 0.961 . S
C257 H273 0.960 . S
H258 C242 0.931 . S
H259 C247 0.929 . S
H260 C248 0.960 . S
H261 C248 0.962 . S
H262 C248 0.960 . S
H263 C249 0.961 . S
H264 C249 0.961 . S
H265 C249 0.961 . S
H266 C250 0.931 . S
H267 C255 0.930 . S
H268 C256 0.956 . S
H269 C256 0.961 . S
H270 C256 0.961 . S
H271 C257 0.958 . S
H272 C257 0.961 . S
H273 C257 0.960 . S
C274 C275 1.391 . S
C274 C276 1.394 . S
C274 H290 0.931 . S
C275 C274 1.391 . S
C275 C279 1.376 . S
C276 C274 1.394 . S
C276 C277 1.369 . S
C276 C280 1.531 . S
C277 C276 1.369 . S
C277 C278 1.410 . S
C277 C285 1.503 . S
C278 C277 1.410 . S
C278 C279 1.392 . S
C278 C281 1.511 . S
C279 C275 1.376 . S
C279 C278 1.392 . S
C279 H291 0.929 . S
C280 C276 1.531 . S
C280 H292 0.960 . S
C280 H293 0.962 . S
C280 H294 0.960 . S
C281 C278 1.511 . S
C281 H295 0.961 . S
C281 H296 0.961 . S
C281 H297 0.961 . S
C282 C283 1.370 . S
C282 C284 1.363 . S
C282 H298 0.931 . S
C283 C282 1.370 . S
C283 C287 1.408 . S
C284 C282 1.363 . S
C284 C285 1.370 . S
C284 C288 1.524 . S
C285 C277 1.503 . S
C285 C284 1.370 . S
C285 C286 1.403 . S
C286 C285 1.403 . S
C286 C287 1.404 . S
C286 C289 1.539 . S
C287 C283 1.408 . S
C287 C286 1.404 . S
C287 H299 0.930 . S
C288 C284 1.524 . S
C288 H300 0.956 . S
C288 H301 0.961 . S
C288 H302 0.961 . S
C289 C286 1.539 . S
C289 H303 0.958 . S
C289 H304 0.961 . S
C289 H305 0.960 . S
H290 C274 0.931 . S
H291 C279 0.929 . S
H292 C280 0.960 . S
H293 C280 0.962 . S
H294 C280 0.960 . S
H295 C281 0.961 . S
H296 C281 0.961 . S
H297 C281 0.961 . S
H298 C282 0.931 . S
H299 C287 0.930 . S
H300 C288 0.956 . S
H301 C288 0.961 . S
H302 C288 0.961 . S
H303 C289 0.958 . S
H304 C289 0.961 . S
H305 C289 0.960 . S
C306 C307 1.391 . S
C306 C308 1.394 . S
C306 H322 0.931 . S
C307 C306 1.391 . S
C307 C311 1.376 . S
C308 C306 1.394 . S
C308 C309 1.369 . S
C308 C312 1.531 . S
C309 C308 1.369 . S
C309 C310 1.410 . S
C309 C317 1.503 . S
C310 C309 1.410 . S
C310 C311 1.392 . S
C310 C313 1.511 . S
C311 C307 1.376 . S
C311 C310 1.392 . S
C311 H323 0.929 . S
C312 C308 1.531 . S
C312 H324 0.960 . S
C312 H325 0.962 . S
C312 H326 0.960 . S
C313 C310 1.511 . S
C313 H327 0.961 . S
C313 H328 0.961 . S
C313 H329 0.961 . S
C314 C315 1.370 . S
C314 C316 1.363 . S
C314 H330 0.931 . S
C315 C314 1.370 . S
C315 C319 1.408 . S
C316 C314 1.363 . S
C316 C317 1.370 . S
C316 C320 1.524 . S
C317 C309 1.503 . S
C317 C316 1.370 . S
C317 C318 1.403 . S
C318 C317 1.403 . S
C318 C319 1.404 . S
C318 C321 1.539 . S
C319 C315 1.408 . S
C319 C318 1.404 . S
C319 H331 0.930 . S
C320 C316 1.524 . S
C320 H332 0.956 . S
C320 H333 0.961 . S
C320 H334 0.961 . S
C321 C318 1.539 . S
C321 H335 0.958 . S
C321 H336 0.961 . S
C321 H337 0.960 . S
H322 C306 0.931 . S
H323 C311 0.929 . S
H324 C312 0.960 . S
H325 C312 0.962 . S
H326 C312 0.960 . S
H327 C313 0.961 . S
H328 C313 0.961 . S
H329 C313 0.961 . S
H330 C314 0.931 . S
H331 C319 0.930 . S
H332 C320 0.956 . S
H333 C320 0.961 . S
H334 C320 0.961 . S
H335 C321 0.958 . S
H336 C321 0.961 . S
H337 C321 0.960 . S
C338 C339 1.391 . S
C338 C340 1.394 . S
C338 H354 0.931 . S
C339 C338 1.391 . S
C339 C343 1.376 . S
C340 C338 1.394 . S
C340 C341 1.369 . S
C340 C344 1.531 . S
C341 C340 1.369 . S
C341 C342 1.410 . S
C341 C349 1.503 . S
C342 C341 1.410 . S
C342 C343 1.392 . S
C342 C345 1.511 . S
C343 C339 1.376 . S
C343 C342 1.392 . S
C343 H355 0.929 . S
C344 C340 1.531 . S
C344 H356 0.960 . S
C344 H357 0.962 . S
C344 H358 0.960 . S
C345 C342 1.511 . S
C345 H359 0.961 . S
C345 H360 0.961 . S
C345 H361 0.961 . S
C346 C347 1.370 . S
C346 C348 1.363 . S
C346 H362 0.931 . S
C347 C346 1.370 . S
C347 C351 1.408 . S
C348 C346 1.363 . S
C348 C349 1.370 . S
C348 C352 1.524 . S
C349 C341 1.503 . S
C349 C348 1.370 . S
C349 C350 1.403 . S
C350 C349 1.403 . S
C350 C351 1.404 . S
C350 C353 1.539 . S
C351 C347 1.408 . S
C351 C350 1.404 . S
C351 H363 0.930 . S
C352 C348 1.524 . S
C352 H364 0.956 . S
C352 H365 0.961 . S
C352 H366 0.961 . S
C353 C350 1.539 . S
C353 H367 0.958 . S
C353 H368 0.961 . S
C353 H369 0.960 . S
H354 C338 0.931 . S
H355 C343 0.929 . S
H356 C344 0.960 . S
H357 C344 0.962 . S
H358 C344 0.960 . S
H359 C345 0.961 . S
H360 C345 0.961 . S
H361 C345 0.961 . S
H362 C346 0.931 . S
H363 C351 0.930 . S
H364 C352 0.956 . S
H365 C352 0.961 . S
H366 C352 0.961 . S
H367 C353 0.958 . S
H368 C353 0.961 . S
H369 C353 0.960 . S
C370 C371 1.391 . S
C370 C372 1.394 . S
C370 H386 0.931 . S
C371 C370 1.391 . S
C371 C375 1.376 . S
C372 C370 1.394 . S
C372 C373 1.369 . S
C372 C376 1.531 . S
C373 C372 1.369 . S
C373 C374 1.410 . S
C373 C381 1.503 . S
C374 C373 1.410 . S
C374 C375 1.392 . S
C374 C377 1.511 . S
C375 C371 1.376 . S
C375 C374 1.392 . S
C375 H387 0.929 . S
C376 C372 1.531 . S
C376 H388 0.960 . S
C376 H389 0.962 . S
C376 H390 0.960 . S
C377 C374 1.511 . S
C377 H391 0.961 . S
C377 H392 0.961 . S
C377 H393 0.961 . S
C378 C379 1.370 . S
C378 C380 1.363 . S
C378 H394 0.931 . S
C379 C378 1.370 . S
C379 C383 1.408 . S
C380 C378 1.363 . S
C380 C381 1.370 . S
C380 C384 1.524 . S
C381 C373 1.503 . S
C381 C380 1.370 . S
C381 C382 1.403 . S
C382 C381 1.403 . S
C382 C383 1.404 . S
C382 C385 1.539 . S
C383 C379 1.408 . S
C383 C382 1.404 . S
C383 H395 0.930 . S
C384 C380 1.524 . S
C384 H396 0.956 . S
C384 H397 0.961 . S
C384 H398 0.961 . S
C385 C382 1.539 . S
C385 H399 0.958 . S
C385 H400 0.961 . S
C385 H401 0.960 . S
H386 C370 0.931 . S
H387 C375 0.929 . S
H388 C376 0.960 . S
H389 C376 0.962 . S
H390 C376 0.960 . S
H391 C377 0.961 . S
H392 C377 0.961 . S
H393 C377 0.961 . S
H394 C378 0.931 . S
H395 C383 0.930 . S
H396 C384 0.956 . S
H397 C384 0.961 . S
H398 C384 0.961 . S
H399 C385 0.958 . S
H400 C385 0.961 . S
H401 C385 0.960 . S
C402 C403 1.391 . S
C402 C404 1.394 . S
C402 H418 0.931 . S
C403 C402 1.391 . S
C403 C407 1.376 . S
C404 C402 1.394 . S
C404 C405 1.369 . S
C404 C408 1.531 . S
C405 C404 1.369 . S
C405 C406 1.410 . S
C405 C413 1.503 . S
C406 C405 1.410 . S
C406 C407 1.392 . S
C406 C409 1.511 . S
C407 C403 1.376 . S
C407 C406 1.392 . S
C407 H419 0.929 . S
C408 C404 1.531 . S
C408 H420 0.960 . S
C408 H421 0.962 . S
C408 H422 0.960 . S
C409 C406 1.511 . S
C409 H423 0.961 . S
C409 H424 0.961 . S
C409 H425 0.961 . S
C410 C411 1.370 . S
C410 C412 1.363 . S
C410 H426 0.931 . S
C411 C410 1.370 . S
C411 C415 1.408 . S
C412 C410 1.363 . S
C412 C413 1.370 . S
C412 C416 1.524 . S
C413 C405 1.503 . S
C413 C412 1.370 . S
C413 C414 1.403 . S
C414 C413 1.403 . S
C414 C415 1.404 . S
C414 C417 1.539 . S
C415 C411 1.408 . S
C415 C414 1.404 . S
C415 H427 0.930 . S
C416 C412 1.524 . S
C416 H428 0.956 . S
C416 H429 0.961 . S
C416 H430 0.961 . S
C417 C414 1.539 . S
C417 H431 0.958 . S
C417 H432 0.961 . S
C417 H433 0.960 . S
H418 C402 0.931 . S
H419 C407 0.929 . S
H420 C408 0.960 . S
H421 C408 0.962 . S
H422 C408 0.960 . S
H423 C409 0.961 . S
H424 C409 0.961 . S
H425 C409 0.961 . S
H426 C410 0.931 . S
H427 C415 0.930 . S
H428 C416 0.956 . S
H429 C416 0.961 . S
H430 C416 0.961 . S
H431 C417 0.958 . S
H432 C417 0.961 . S
H433 C417 0.960 . S
C434 C435 1.391 . S
C434 C436 1.394 . S
C434 H450 0.931 . S
C435 C434 1.391 . S
C435 C439 1.376 . S
C436 C434 1.394 . S
C436 C437 1.369 . S
C436 C440 1.531 . S
C437 C436 1.369 . S
C437 C438 1.410 . S
C437 C445 1.503 . S
C438 C437 1.410 . S
C438 C439 1.392 . S
C438 C441 1.511 . S
C439 C435 1.376 . S
C439 C438 1.392 . S
C439 H451 0.929 . S
C440 C436 1.531 . S
C440 H452 0.960 . S
C440 H453 0.962 . S
C440 H454 0.960 . S
C441 C438 1.511 . S
C441 H455 0.961 . S
C441 H456 0.961 . S
C441 H457 0.961 . S
C442 C443 1.370 . S
C442 C444 1.363 . S
C442 H458 0.931 . S
C443 C442 1.370 . S
C443 C447 1.408 . S
C444 C442 1.363 . S
C444 C445 1.370 . S
C444 C448 1.524 . S
C445 C437 1.503 . S
C445 C444 1.370 . S
C445 C446 1.403 . S
C446 C445 1.403 . S
C446 C447 1.404 . S
C446 C449 1.539 . S
C447 C443 1.408 . S
C447 C446 1.404 . S
C447 H459 0.930 . S
C448 C444 1.524 . S
C448 H460 0.956 . S
C448 H461 0.961 . S
C448 H462 0.961 . S
C449 C446 1.539 . S
C449 H463 0.958 . S
C449 H464 0.961 . S
C449 H465 0.960 . S
H450 C434 0.931 . S
H451 C439 0.929 . S
H452 C440 0.960 . S
H453 C440 0.962 . S
H454 C440 0.960 . S
H455 C441 0.961 . S
H456 C441 0.961 . S
H457 C441 0.961 . S
H458 C442 0.931 . S
H459 C447 0.930 . S
H460 C448 0.956 . S
H461 C448 0.961 . S
H462 C448 0.961 . S
H463 C449 0.958 . S
H464 C449 0.961 . S
H465 C449 0.960 . S
C466 C467 1.391 . S
C466 C468 1.394 . S
C466 H482 0.931 . S
C467 C466 1.391 . S
C467 C471 1.376 . S
C468 C466 1.394 . S
C468 C469 1.369 . S
C468 C472 1.531 . S
C469 C468 1.369 . S
C469 C470 1.410 . S
C469 C477 1.503 . S
C470 C469 1.410 . S
C470 C471 1.392 . S
C470 C473 1.511 . S
C471 C467 1.376 . S
C471 C470 1.392 . S
C471 H483 0.929 . S
C472 C468 1.531 . S
C472 H484 0.960 . S
C472 H485 0.962 . S
C472 H486 0.960 . S
C473 C470 1.511 . S
C473 H487 0.961 . S
C473 H488 0.961 . S
C473 H489 0.961 . S
C474 C475 1.370 . S
C474 C476 1.363 . S
C474 H490 0.931 . S
C475 C474 1.370 . S
C475 C479 1.408 . S
C476 C474 1.363 . S
C476 C477 1.370 . S
C476 C480 1.524 . S
C477 C469 1.503 . S
C477 C476 1.370 . S
C477 C478 1.403 . S
C478 C477 1.403 . S
C478 C479 1.404 . S
C478 C481 1.539 . S
C479 C475 1.408 . S
C479 C478 1.404 . S
C479 H491 0.930 . S
C480 C476 1.524 . S
C480 H492 0.956 . S
C480 H493 0.961 . S
C480 H494 0.961 . S
C481 C478 1.539 . S
C481 H495 0.958 . S
C481 H496 0.961 . S
C481 H497 0.960 . S
H482 C466 0.931 . S
H483 C471 0.929 . S
H484 C472 0.960 . S
H485 C472 0.962 . S
H486 C472 0.960 . S
H487 C473 0.961 . S
H488 C473 0.961 . S
H489 C473 0.961 . S
H490 C474 0.931 . S
H491 C479 0.930 . S
H492 C480 0.956 . S
H493 C480 0.961 . S
H494 C480 0.961 . S
H495 C481 0.958 . S
H496 C481 0.961 . S
H497 C481 0.960 . S
C498 C499 1.391 . S
C498 C500 1.394 . S
C498 H514 0.931 . S
C499 C498 1.391 . S
C499 C503 1.376 . S
C500 C498 1.394 . S
C500 C501 1.369 . S
C500 C504 1.531 . S
C501 C500 1.369 . S
C501 C502 1.410 . S
C501 C509 1.503 . S
C502 C501 1.410 . S
C502 C503 1.392 . S
C502 C505 1.511 . S
C503 C499 1.376 . S
C503 C502 1.392 . S
C503 H515 0.929 . S
C504 C500 1.531 . S
C504 H516 0.960 . S
C504 H517 0.962 . S
C504 H518 0.960 1_556 S
C505 C502 1.511 . S
C505 H519 0.961 . S
C505 H520 0.961 . S
C505 H521 0.961 . S
C506 C507 1.370 . S
C506 C508 1.363 . S
C506 H522 0.931 . S
C507 C506 1.370 . S
C507 C511 1.408 . S
C508 C506 1.363 . S
C508 C509 1.370 . S
C508 C512 1.524 . S
C509 C501 1.503 . S
C509 C508 1.370 . S
C509 C510 1.403 . S
C510 C509 1.403 . S
C510 C511 1.404 . S
C510 C513 1.539 . S
C511 C507 1.408 . S
C511 C510 1.404 . S
C511 H523 0.930 . S
C512 C508 1.524 . S
C512 H524 0.956 . S
C512 H525 0.961 . S
C512 H526 0.961 . S
C513 C510 1.539 . S
C513 H527 0.958 . S
C513 H528 0.961 . S
C513 H529 0.960 . S
H514 C498 0.931 . S
H515 C503 0.929 . S
H516 C504 0.960 . S
H517 C504 0.962 . S
H518 C504 0.960 1_554 S
H519 C505 0.961 . S
H520 C505 0.961 . S
H521 C505 0.961 . S
H522 C506 0.931 . S
H523 C511 0.930 . S
H524 C512 0.956 . S
H525 C512 0.961 . S
H526 C512 0.961 . S
H527 C513 0.958 . S
H528 C513 0.961 . S
H529 C513 0.960 . S
C530 C531 1.391 . S
C530 C532 1.394 . S
C530 H546 0.931 . S
C531 C530 1.391 . S
C531 C535 1.376 . S
C532 C530 1.394 . S
C532 C533 1.369 . S
C532 C536 1.531 . S
C533 C532 1.369 . S
C533 C534 1.410 . S
C533 C541 1.503 . S
C534 C533 1.410 . S
C534 C535 1.392 . S
C534 C537 1.511 . S
C535 C531 1.376 . S
C535 C534 1.392 . S
C535 H547 0.929 . S
C536 C532 1.531 . S
C536 H548 0.960 . S
C536 H549 0.962 . S
C536 H550 0.960 . S
C537 C534 1.511 . S
C537 H551 0.961 . S
C537 H552 0.961 . S
C537 H553 0.961 . S
C538 C539 1.370 . S
C538 C540 1.363 . S
C538 H554 0.931 . S
C539 C538 1.370 . S
C539 C543 1.408 . S
C540 C538 1.363 . S
C540 C541 1.370 . S
C540 C544 1.524 . S
C541 C533 1.503 . S
C541 C540 1.370 . S
C541 C542 1.403 . S
C542 C541 1.403 . S
C542 C543 1.404 . S
C542 C545 1.539 . S
C543 C539 1.408 . S
C543 C542 1.404 . S
C543 H555 0.930 . S
C544 C540 1.524 . S
C544 H556 0.956 . S
C544 H557 0.961 . S
C544 H558 0.961 . S
C545 C542 1.539 . S
C545 H559 0.958 . S
C545 H560 0.961 . S
C545 H561 0.960 . S
H546 C530 0.931 . S
H547 C535 0.929 . S
H548 C536 0.960 . S
H549 C536 0.962 . S
H550 C536 0.960 . S
H551 C537 0.961 . S
H552 C537 0.961 . S
H553 C537 0.961 . S
H554 C538 0.931 . S
H555 C543 0.930 . S
H556 C544 0.956 . S
H557 C544 0.961 . S
H558 C544 0.961 . S
H559 C545 0.958 . S
H560 C545 0.961 . S
H561 C545 0.960 . S
C562 C563 1.391 . S
C562 C564 1.394 . S
C562 H578 0.931 . S
C563 C562 1.391 . S
C563 C567 1.376 . S
C564 C562 1.394 . S
C564 C565 1.369 . S
C564 C568 1.531 . S
C565 C564 1.369 . S
C565 C566 1.410 . S
C565 C573 1.503 . S
C566 C565 1.410 . S
C566 C567 1.392 . S
C566 C569 1.511 . S
C567 C563 1.376 . S
C567 C566 1.392 . S
C567 H579 0.929 . S
C568 C564 1.531 . S
C568 H580 0.960 . S
C568 H581 0.962 . S
C568 H582 0.960 . S
C569 C566 1.511 . S
C569 H583 0.961 . S
C569 H584 0.961 . S
C569 H585 0.961 . S
C570 C571 1.370 . S
C570 C572 1.363 . S
C570 H586 0.931 . S
C571 C570 1.370 . S
C571 C575 1.408 . S
C572 C570 1.363 . S
C572 C573 1.370 . S
C572 C576 1.524 . S
C573 C565 1.503 . S
C573 C572 1.370 . S
C573 C574 1.403 . S
C574 C573 1.403 . S
C574 C575 1.404 . S
C574 C577 1.539 . S
C575 C571 1.408 . S
C575 C574 1.404 . S
C575 H587 0.930 . S
C576 C572 1.524 . S
C576 H588 0.956 . S
C576 H589 0.961 . S
C576 H590 0.961 . S
C577 C574 1.539 . S
C577 H591 0.958 . S
C577 H592 0.961 . S
C577 H593 0.960 . S
H578 C562 0.931 . S
H579 C567 0.929 . S
H580 C568 0.960 . S
H581 C568 0.962 . S
H582 C568 0.960 . S
H583 C569 0.961 . S
H584 C569 0.961 . S
H585 C569 0.961 . S
H586 C570 0.931 . S
H587 C575 0.930 . S
H588 C576 0.956 . S
H589 C576 0.961 . S
H590 C576 0.961 . S
H591 C577 0.958 . S
H592 C577 0.961 . S
H593 C577 0.960 . S
C594 C595 1.391 . S
C594 C596 1.394 . S
C594 H610 0.931 . S
C595 C594 1.391 . S
C595 C599 1.376 . S
C596 C594 1.394 . S
C596 C597 1.369 . S
C596 C600 1.531 . S
C597 C596 1.369 . S
C597 C598 1.410 . S
C597 C605 1.503 . S
C598 C597 1.410 . S
C598 C599 1.392 . S
C598 C601 1.511 . S
C599 C595 1.376 . S
C599 C598 1.392 . S
C599 H611 0.929 . S
C600 C596 1.531 . S
C600 H612 0.960 . S
C600 H613 0.962 . S
C600 H614 0.960 1_556 S
C601 C598 1.511 . S
C601 H615 0.961 . S
C601 H616 0.961 . S
C601 H617 0.961 . S
C602 C603 1.370 . S
C602 C604 1.363 . S
C602 H618 0.931 . S
C603 C602 1.370 . S
C603 C607 1.408 . S
C604 C602 1.363 . S
C604 C605 1.370 . S
C604 C608 1.524 . S
C605 C597 1.503 . S
C605 C604 1.370 . S
C605 C606 1.403 . S
C606 C605 1.403 . S
C606 C607 1.404 . S
C606 C609 1.539 . S
C607 C603 1.408 . S
C607 C606 1.404 . S
C607 H619 0.930 . S
C608 C604 1.524 . S
C608 H620 0.956 . S
C608 H621 0.961 . S
C608 H622 0.961 . S
C609 C606 1.539 . S
C609 H623 0.958 . S
C609 H624 0.961 . S
C609 H625 0.960 . S
H610 C594 0.931 . S
H611 C599 0.929 . S
H612 C600 0.960 . S
H613 C600 0.962 . S
H614 C600 0.960 1_554 S
H615 C601 0.961 . S
H616 C601 0.961 . S
H617 C601 0.961 . S
H618 C602 0.931 . S
H619 C607 0.930 . S
H620 C608 0.956 . S
H621 C608 0.961 . S
H622 C608 0.961 . S
H623 C609 0.958 . S
H624 C609 0.961 . S
H625 C609 0.960 . S
C626 C627 1.391 . S
C626 C628 1.394 . S
C626 H642 0.931 . S
C627 C626 1.391 . S
C627 C631 1.376 . S
C628 C626 1.394 . S
C628 C629 1.369 . S
C628 C632 1.531 . S
C629 C628 1.369 . S
C629 C630 1.410 . S
C629 C637 1.503 . S
C630 C629 1.410 . S
C630 C631 1.392 . S
C630 C633 1.511 . S
C631 C627 1.376 . S
C631 C630 1.392 . S
C631 H643 0.929 . S
C632 C628 1.531 . S
C632 H644 0.960 . S
C632 H645 0.962 . S
C632 H646 0.960 . S
C633 C630 1.511 . S
C633 H647 0.961 . S
C633 H648 0.961 . S
C633 H649 0.961 . S
C634 C635 1.370 . S
C634 C636 1.363 . S
C634 H650 0.931 . S
C635 C634 1.370 . S
C635 C639 1.408 . S
C636 C634 1.363 . S
C636 C637 1.370 . S
C636 C640 1.524 . S
C637 C629 1.503 . S
C637 C636 1.370 . S
C637 C638 1.403 . S
C638 C637 1.403 . S
C638 C639 1.404 . S
C638 C641 1.539 . S
C639 C635 1.408 . S
C639 C638 1.404 . S
C639 H651 0.930 . S
C640 C636 1.524 . S
C640 H652 0.956 . S
C640 H653 0.961 . S
C640 H654 0.961 . S
C641 C638 1.539 . S
C641 H655 0.958 . S
C641 H656 0.961 . S
C641 H657 0.960 . S
H642 C626 0.931 . S
H643 C631 0.929 . S
H644 C632 0.960 . S
H645 C632 0.962 . S
H646 C632 0.960 . S
H647 C633 0.961 . S
H648 C633 0.961 . S
H649 C633 0.961 . S
H650 C634 0.931 . S
H651 C639 0.930 . S
H652 C640 0.956 . S
H653 C640 0.961 . S
H654 C640 0.961 . S
H655 C641 0.958 . S
H656 C641 0.961 . S
H657 C641 0.960 . S
C658 C659 1.391 . S
C658 C660 1.394 . S
C658 H674 0.931 . S
C659 C658 1.391 . S
C659 C663 1.376 . S
C660 C658 1.394 . S
C660 C661 1.369 . S
C660 C664 1.531 . S
C661 C660 1.369 . S
C661 C662 1.410 . S
C661 C669 1.503 . S
C662 C661 1.410 . S
C662 C663 1.392 . S
C662 C665 1.511 . S
C663 C659 1.376 . S
C663 C662 1.392 . S
C663 H675 0.929 . S
C664 C660 1.531 . S
C664 H676 0.960 . S
C664 H677 0.962 . S
C664 H678 0.960 . S
C665 C662 1.511 . S
C665 H679 0.961 . S
C665 H680 0.961 . S
C665 H681 0.961 . S
C666 C667 1.370 . S
C666 C668 1.363 . S
C666 H682 0.931 . S
C667 C666 1.370 . S
C667 C671 1.408 . S
C668 C666 1.363 . S
C668 C669 1.370 . S
C668 C672 1.524 . S
C669 C661 1.503 . S
C669 C668 1.370 . S
C669 C670 1.403 . S
C670 C669 1.403 . S
C670 C671 1.404 . S
C670 C673 1.539 . S
C671 C667 1.408 . S
C671 C670 1.404 . S
C671 H683 0.930 . S
C672 C668 1.524 . S
C672 H684 0.956 . S
C672 H685 0.961 . S
C672 H686 0.961 . S
C673 C670 1.539 . S
C673 H687 0.958 . S
C673 H688 0.961 . S
C673 H689 0.960 . S
H674 C658 0.931 . S
H675 C663 0.929 . S
H676 C664 0.960 . S
H677 C664 0.962 . S
H678 C664 0.960 . S
H679 C665 0.961 . S
H680 C665 0.961 . S
H681 C665 0.961 . S
H682 C666 0.931 . S
H683 C671 0.930 . S
H684 C672 0.956 . S
H685 C672 0.961 . S
H686 C672 0.961 . S
H687 C673 0.958 . S
H688 C673 0.961 . S
H689 C673 0.960 . S
C690 C691 1.391 . S
C690 C692 1.394 . S
C690 H706 0.931 . S
C691 C690 1.391 . S
C691 C695 1.376 . S
C692 C690 1.394 . S
C692 C693 1.369 . S
C692 C696 1.531 . S
C693 C692 1.369 . S
C693 C694 1.410 . S
C693 C701 1.503 . S
C694 C693 1.410 . S
C694 C695 1.392 . S
C694 C697 1.511 . S
C695 C691 1.376 . S
C695 C694 1.392 . S
C695 H707 0.929 . S
C696 C692 1.531 . S
C696 H708 0.960 . S
C696 H709 0.962 . S
C696 H710 0.960 . S
C697 C694 1.511 . S
C697 H711 0.961 . S
C697 H712 0.961 . S
C697 H713 0.961 . S
C698 C699 1.370 . S
C698 C700 1.363 . S
C698 H714 0.931 . S
C699 C698 1.370 . S
C699 C703 1.408 . S
C700 C698 1.363 . S
C700 C701 1.370 . S
C700 C704 1.524 . S
C701 C693 1.503 . S
C701 C700 1.370 . S
C701 C702 1.403 . S
C702 C701 1.403 . S
C702 C703 1.404 . S
C702 C705 1.539 . S
C703 C699 1.408 . S
C703 C702 1.404 . S
C703 H715 0.930 . S
C704 C700 1.524 . S
C704 H716 0.956 . S
C704 H717 0.961 . S
C704 H718 0.961 . S
C705 C702 1.539 . S
C705 H719 0.958 . S
C705 H720 0.961 . S
C705 H721 0.960 . S
H706 C690 0.931 . S
H707 C695 0.929 . S
H708 C696 0.960 . S
H709 C696 0.962 . S
H710 C696 0.960 . S
H711 C697 0.961 . S
H712 C697 0.961 . S
H713 C697 0.961 . S
H714 C698 0.931 . S
H715 C703 0.930 . S
H716 C704 0.956 . S
H717 C704 0.961 . S
H718 C704 0.961 . S
H719 C705 0.958 . S
H720 C705 0.961 . S
H721 C705 0.960 . S
C722 C723 1.391 . S
C722 C724 1.394 . S
C722 H738 0.931 . S
C723 C722 1.391 . S
C723 C727 1.376 . S
C724 C722 1.394 . S
C724 C725 1.369 . S
C724 C728 1.531 . S
C725 C724 1.369 . S
C725 C726 1.410 . S
C725 C733 1.503 . S
C726 C725 1.410 . S
C726 C727 1.392 . S
C726 C729 1.511 . S
C727 C723 1.376 . S
C727 C726 1.392 . S
C727 H739 0.929 . S
C728 C724 1.531 . S
C728 H740 0.960 . S
C728 H741 0.962 . S
C728 H742 0.960 . S
C729 C726 1.511 . S
C729 H743 0.961 . S
C729 H744 0.961 . S
C729 H745 0.961 . S
C730 C731 1.370 . S
C730 C732 1.363 . S
C730 H746 0.931 . S
C731 C730 1.370 . S
C731 C735 1.408 . S
C732 C730 1.363 . S
C732 C733 1.370 . S
C732 C736 1.524 . S
C733 C725 1.503 . S
C733 C732 1.370 . S
C733 C734 1.403 . S
C734 C733 1.403 . S
C734 C735 1.404 . S
C734 C737 1.539 . S
C735 C731 1.408 . S
C735 C734 1.404 . S
C735 H747 0.930 . S
C736 C732 1.524 . S
C736 H748 0.956 . S
C736 H749 0.961 . S
C736 H750 0.961 . S
C737 C734 1.539 . S
C737 H751 0.958 . S
C737 H752 0.961 . S
C737 H753 0.960 . S
H738 C722 0.931 . S
H739 C727 0.929 . S
H740 C728 0.960 . S
H741 C728 0.962 . S
H742 C728 0.960 . S
H743 C729 0.961 . S
H744 C729 0.961 . S
H745 C729 0.961 . S
H746 C730 0.931 . S
H747 C735 0.930 . S
H748 C736 0.956 . S
H749 C736 0.961 . S
H750 C736 0.961 . S
H751 C737 0.958 . S
H752 C737 0.961 . S
H753 C737 0.960 . S
C754 C755 1.391 . S
C754 C756 1.394 . S
C754 H770 0.931 . S
C755 C754 1.391 . S
C755 C759 1.376 . S
C756 C754 1.394 . S
C756 C757 1.369 . S
C756 C760 1.531 . S
C757 C756 1.369 . S
C757 C758 1.410 . S
C757 C765 1.503 . S
C758 C757 1.410 . S
C758 C759 1.392 . S
C758 C761 1.511 . S
C759 C755 1.376 . S
C759 C758 1.392 . S
C759 H771 0.929 . S
C760 C756 1.531 . S
C760 H772 0.960 . S
C760 H773 0.962 . S
C760 H774 0.960 . S
C761 C758 1.511 . S
C761 H775 0.961 . S
C761 H776 0.961 . S
C761 H777 0.961 . S
C762 C763 1.370 . S
C762 C764 1.363 . S
C762 H778 0.931 . S
C763 C762 1.370 . S
C763 C767 1.408 . S
C764 C762 1.363 . S
C764 C765 1.370 . S
C764 C768 1.524 . S
C765 C757 1.503 . S
C765 C764 1.370 . S
C765 C766 1.403 . S
C766 C765 1.403 . S
C766 C767 1.404 . S
C766 C769 1.539 . S
C767 C763 1.408 . S
C767 C766 1.404 . S
C767 H779 0.930 . S
C768 C764 1.524 . S
C768 H780 0.956 . S
C768 H781 0.961 . S
C768 H782 0.961 . S
C769 C766 1.539 . S
C769 H783 0.958 . S
C769 H784 0.961 . S
C769 H785 0.960 . S
H770 C754 0.931 . S
H771 C759 0.929 . S
H772 C760 0.960 . S
H773 C760 0.962 . S
H774 C760 0.960 . S
H775 C761 0.961 . S
H776 C761 0.961 . S
H777 C761 0.961 . S
H778 C762 0.931 . S
H779 C767 0.930 . S
H780 C768 0.956 . S
H781 C768 0.961 . S
H782 C768 0.961 . S
H783 C769 0.958 . S
H784 C769 0.961 . S
H785 C769 0.960 . S
C786 C787 1.391 . S
C786 C788 1.394 . S
C786 H802 0.931 . S
C787 C786 1.391 . S
C787 C791 1.376 . S
C788 C786 1.394 . S
C788 C789 1.369 . S
C788 C792 1.531 . S
C789 C788 1.369 . S
C789 C790 1.410 . S
C789 C797 1.503 . S
C790 C789 1.410 . S
C790 C791 1.392 . S
C790 C793 1.511 . S
C791 C787 1.376 . S
C791 C790 1.392 . S
C791 H803 0.929 . S
C792 C788 1.531 . S
C792 H804 0.960 . S
C792 H805 0.962 . S
C792 H806 0.960 . S
C793 C790 1.511 . S
C793 H807 0.961 . S
C793 H808 0.961 . S
C793 H809 0.961 . S
C794 C795 1.370 . S
C794 C796 1.363 . S
C794 H810 0.931 . S
C795 C794 1.370 . S
C795 C799 1.408 . S
C796 C794 1.363 . S
C796 C797 1.370 . S
C796 C800 1.524 . S
C797 C789 1.503 . S
C797 C796 1.370 . S
C797 C798 1.403 . S
C798 C797 1.403 . S
C798 C799 1.404 . S
C798 C801 1.539 . S
C799 C795 1.408 . S
C799 C798 1.404 . S
C799 H811 0.930 . S
C800 C796 1.524 . S
C800 H812 0.956 . S
C800 H813 0.961 . S
C800 H814 0.961 . S
C801 C798 1.539 . S
C801 H815 0.958 . S
C801 H816 0.961 . S
C801 H817 0.960 . S
H802 C786 0.931 . S
H803 C791 0.929 . S
H804 C792 0.960 . S
H805 C792 0.962 . S
H806 C792 0.960 . S
H807 C793 0.961 . S
H808 C793 0.961 . S
H809 C793 0.961 . S
H810 C794 0.931 . S
H811 C799 0.930 . S
H812 C800 0.956 . S
H813 C800 0.961 . S
H814 C800 0.961 . S
H815 C801 0.958 . S
H816 C801 0.961 . S
H817 C801 0.960 . S
C818 C819 1.391 . S
C818 C820 1.394 . S
C818 H834 0.931 . S
C819 C818 1.391 . S
C819 C823 1.376 . S
C820 C818 1.394 . S
C820 C821 1.369 . S
C820 C824 1.531 . S
C821 C820 1.369 . S
C821 C822 1.410 . S
C821 C829 1.503 . S
C822 C821 1.410 . S
C822 C823 1.392 . S
C822 C825 1.511 . S
C823 C819 1.376 . S
C823 C822 1.392 . S
C823 H835 0.929 . S
C824 C820 1.531 . S
C824 H836 0.960 . S
C824 H837 0.962 . S
C824 H838 0.960 . S
C825 C822 1.511 . S
C825 H839 0.961 . S
C825 H840 0.961 . S
C825 H841 0.961 . S
C826 C827 1.370 . S
C826 C828 1.363 . S
C826 H842 0.931 . S
C827 C826 1.370 . S
C827 C831 1.408 . S
C828 C826 1.363 . S
C828 C829 1.370 . S
C828 C832 1.524 . S
C829 C821 1.503 . S
C829 C828 1.370 . S
C829 C830 1.403 . S
C830 C829 1.403 . S
C830 C831 1.404 . S
C830 C833 1.539 . S
C831 C827 1.408 . S
C831 C830 1.404 . S
C831 H843 0.930 . S
C832 C828 1.524 . S
C832 H844 0.956 . S
C832 H845 0.961 . S
C832 H846 0.961 . S
C833 C830 1.539 . S
C833 H847 0.958 . S
C833 H848 0.961 . S
C833 H849 0.960 . S
H834 C818 0.931 . S
H835 C823 0.929 . S
H836 C824 0.960 . S
H837 C824 0.962 . S
H838 C824 0.960 . S
H839 C825 0.961 . S
H840 C825 0.961 . S
H841 C825 0.961 . S
H842 C826 0.931 . S
H843 C831 0.930 . S
H844 C832 0.956 . S
H845 C832 0.961 . S
H846 C832 0.961 . S
H847 C833 0.958 . S
H848 C833 0.961 . S
H849 C833 0.960 . S
C850 C851 1.391 . S
C850 C852 1.394 . S
C850 H866 0.931 . S
C851 C850 1.391 . S
C851 C855 1.376 . S
C852 C850 1.394 . S
C852 C853 1.369 . S
C852 C856 1.531 . S
C853 C852 1.369 . S
C853 C854 1.410 . S
C853 C861 1.503 . S
C854 C853 1.410 . S
C854 C855 1.392 . S
C854 C857 1.511 . S
C855 C851 1.376 . S
C855 C854 1.392 . S
C855 H867 0.929 . S
C856 C852 1.531 . S
C856 H868 0.960 . S
C856 H869 0.962 . S
C856 H870 0.960 . S
C857 C854 1.511 . S
C857 H871 0.961 . S
C857 H872 0.961 . S
C857 H873 0.961 . S
C858 C859 1.370 . S
C858 C860 1.363 . S
C858 H874 0.931 . S
C859 C858 1.370 . S
C859 C863 1.408 . S
C860 C858 1.363 . S
C860 C861 1.370 . S
C860 C864 1.524 . S
C861 C853 1.503 . S
C861 C860 1.370 . S
C861 C862 1.403 . S
C862 C861 1.403 . S
C862 C863 1.404 . S
C862 C865 1.539 . S
C863 C859 1.408 . S
C863 C862 1.404 . S
C863 H875 0.930 . S
C864 C860 1.524 . S
C864 H876 0.956 . S
C864 H877 0.961 . S
C864 H878 0.961 . S
C865 C862 1.539 . S
C865 H879 0.958 . S
C865 H880 0.961 . S
C865 H881 0.960 . S
H866 C850 0.931 . S
H867 C855 0.929 . S
H868 C856 0.960 . S
H869 C856 0.962 . S
H870 C856 0.960 . S
H871 C857 0.961 . S
H872 C857 0.961 . S
H873 C857 0.961 . S
H874 C858 0.931 . S
H875 C863 0.930 . S
H876 C864 0.956 . S
H877 C864 0.961 . S
H878 C864 0.961 . S
H879 C865 0.958 . S
H880 C865 0.961 . S
H881 C865 0.960 . S
C882 C883 1.391 . S
C882 C884 1.394 . S
C882 H898 0.931 . S
C883 C882 1.391 . S
C883 C887 1.376 . S
C884 C882 1.394 . S
C884 C885 1.369 . S
C884 C888 1.531 . S
C885 C884 1.369 . S
C885 C886 1.410 . S
C885 C893 1.503 . S
C886 C885 1.410 . S
C886 C887 1.392 . S
C886 C889 1.511 . S
C887 C883 1.376 . S
C887 C886 1.392 . S
C887 H899 0.929 . S
C888 C884 1.531 . S
C888 H900 0.960 . S
C888 H901 0.962 . S
C888 H902 0.960 . S
C889 C886 1.511 . S
C889 H903 0.961 . S
C889 H904 0.961 . S
C889 H905 0.961 . S
C890 C891 1.370 . S
C890 C892 1.363 . S
C890 H906 0.931 . S
C891 C890 1.370 . S
C891 C895 1.408 . S
C892 C890 1.363 . S
C892 C893 1.370 . S
C892 C896 1.524 . S
C893 C885 1.503 . S
C893 C892 1.370 . S
C893 C894 1.403 . S
C894 C893 1.403 . S
C894 C895 1.404 . S
C894 C897 1.539 . S
C895 C891 1.408 . S
C895 C894 1.404 . S
C895 H907 0.930 . S
C896 C892 1.524 . S
C896 H908 0.956 . S
C896 H909 0.961 . S
C896 H910 0.961 . S
C897 C894 1.539 . S
C897 H911 0.958 . S
C897 H912 0.961 . S
C897 H913 0.960 . S
H898 C882 0.931 . S
H899 C887 0.929 . S
H900 C888 0.960 . S
H901 C888 0.962 . S
H902 C888 0.960 . S
H903 C889 0.961 . S
H904 C889 0.961 . S
H905 C889 0.961 . S
H906 C890 0.931 . S
H907 C895 0.930 . S
H908 C896 0.956 . S
H909 C896 0.961 . S
H910 C896 0.961 . S
H911 C897 0.958 . S
H912 C897 0.961 . S
H913 C897 0.960 . S
C914 C915 1.391 . S
C914 C916 1.394 . S
C914 H930 0.931 . S
C915 C914 1.391 . S
C915 C919 1.376 . S
C916 C914 1.394 . S
C916 C917 1.369 . S
C916 C920 1.531 . S
C917 C916 1.369 . S
C917 C918 1.410 . S
C917 C925 1.503 . S
C918 C917 1.410 . S
C918 C919 1.392 . S
C918 C921 1.511 . S
C919 C915 1.376 . S
C919 C918 1.392 . S
C919 H931 0.929 . S
C920 C916 1.531 . S
C920 H932 0.960 . S
C920 H933 0.962 . S
C920 H934 0.960 . S
C921 C918 1.511 . S
C921 H935 0.961 . S
C921 H936 0.961 . S
C921 H937 0.961 . S
C922 C923 1.370 . S
C922 C924 1.363 . S
C922 H938 0.931 . S
C923 C922 1.370 . S
C923 C927 1.408 . S
C924 C922 1.363 . S
C924 C925 1.370 . S
C924 C928 1.524 . S
C925 C917 1.503 . S
C925 C924 1.370 . S
C925 C926 1.403 . S
C926 C925 1.403 . S
C926 C927 1.404 . S
C926 C929 1.539 . S
C927 C923 1.408 . S
C927 C926 1.404 . S
C927 H939 0.930 . S
C928 C924 1.524 . S
C928 H940 0.956 . S
C928 H941 0.961 . S
C928 H942 0.961 . S
C929 C926 1.539 . S
C929 H943 0.958 . S
C929 H944 0.961 . S
C929 H945 0.960 . S
H930 C914 0.931 . S
H931 C919 0.929 . S
H932 C920 0.960 . S
H933 C920 0.962 . S
H934 C920 0.960 . S
H935 C921 0.961 . S
H936 C921 0.961 . S
H937 C921 0.961 . S
H938 C922 0.931 . S
H939 C927 0.930 . S
H940 C928 0.956 . S
H941 C928 0.961 . S
H942 C928 0.961 . S
H943 C929 0.958 . S
H944 C929 0.961 . S
H945 C929 0.960 . S
C946 C947 1.391 . S
C946 C948 1.394 . S
C946 H962 0.931 . S
C947 C946 1.391 . S
C947 C951 1.376 . S
C948 C946 1.394 . S
C948 C949 1.369 . S
C948 C952 1.531 . S
C949 C948 1.369 . S
C949 C950 1.410 . S
C949 C957 1.503 . S
C950 C949 1.410 . S
C950 C951 1.392 . S
C950 C953 1.511 . S
C951 C947 1.376 . S
C951 C950 1.392 . S
C951 H963 0.929 . S
C952 C948 1.531 . S
C952 H964 0.960 . S
C952 H965 0.962 . S
C952 H966 0.949 1_554 S
C953 C950 1.511 . S
C953 H967 0.961 . S
C953 H968 0.961 . S
C953 H969 0.961 . S
C954 C955 1.370 . S
C954 C956 1.363 . S
C954 H970 0.931 . S
C955 C954 1.370 . S
C955 C959 1.408 . S
C956 C954 1.363 . S
C956 C957 1.370 . S
C956 C960 1.524 . S
C957 C949 1.503 . S
C957 C956 1.370 . S
C957 C958 1.403 . S
C958 C957 1.403 . S
C958 C959 1.404 . S
C958 C961 1.539 . S
C959 C955 1.408 . S
C959 C958 1.404 . S
C959 H971 0.930 . S
C960 C956 1.524 . S
C960 H972 0.956 . S
C960 H973 0.961 . S
C960 H974 0.961 . S
C961 C958 1.539 . S
C961 H975 0.958 . S
C961 H976 0.961 . S
C961 H977 0.960 . S
H962 C946 0.931 . S
H963 C951 0.929 . S
H964 C952 0.960 . S
H965 C952 0.962 . S
H966 C952 0.949 1_556 S
H967 C953 0.961 . S
H968 C953 0.961 . S
H969 C953 0.961 . S
H970 C954 0.931 . S
H971 C959 0.930 . S
H972 C960 0.956 . S
H973 C960 0.961 . S
H974 C960 0.961 . S
H975 C961 0.958 . S
H976 C961 0.961 . S
H977 C961 0.960 . S
C211 C13 1.588 . S
C219 C93 1.411 . S
C243 C27 1.622 . S
C251 C114 1.456 . S
C283 C135 1.433 . S
C275 C29 1.586 . S
C315 C164 1.563 . S
C307 C54 1.622 . S
C347 C177 1.439 . S
C339 C69 1.579 . S
C379 C201 1.551 . S
C371 C83 1.621 . S
C403 C15 1.579 . S
C411 C145 1.429 . S
C435 C41 1.617 . S
C443 C159 1.531 . S
C475 C187 1.437 . S
C467 C42 1.582 . S
C507 C206 1.554 . S
C499 C57 1.635 . S
C531 C71 1.576 . S
C539 C103 1.456 . S
C571 C124 1.461 . S
C563 C1 1.618 . S
C603 C166 1.546 . S
C595 C12 1.596 . S
C627 C26 1.658 . S
C635 C180 1.439 . S
C667 C198 1.536 . S
C659 C28 1.618 . S
C691 C55 1.663 . S
C699 C96 1.436 . S
C723 C68 1.622 . S
C731 C117 1.406 . S
C755 C82 1.660 . S
C763 C138 1.435 . S
C787 C14 1.594 . S
C795 C208 1.540 . S
C827 C101 1.497 . S
C819 C40 1.648 . S
C851 C43 1.626 . S
C859 C122 1.422 . S
C883 C56 1.655 . S
C891 C143 1.502 . S
C915 C70 1.606 . S
C923 C156 1.555 . S
C947 C0 1.645 . S
C955 C185 1.489 . S
