# Generated by pormake.
# Topology zzz, (3,6)-cn, num edge types: 1
# Building blocks:
#     Node 0, Type 0, BuildingBlock: MIDCAF_clean_linker_0, # of connection points: 3
#     Node 1, Type 0, BuildingBlock: MIDCAF_clean_linker_0, # of connection points: 3
#     Node 2, Type 0, BuildingBlock: MIDCAF_clean_linker_0, # of connection points: 3
#     Node 3, Type 0, BuildingBlock: MIDCAF_clean_linker_0, # of connection points: 3
#     Node 4, Type 0, BuildingBlock: MIDCAF_clean_linker_0, # of connection points: 3
#     Node 5, Type 0, BuildingBlock: MIDCAF_clean_linker_0, # of connection points: 3
#     Node 6, Type 0, BuildingBlock: MIDCAF_clean_linker_0, # of connection points: 3
#     Node 7, Type 0, BuildingBlock: MIDCAF_clean_linker_0, # of connection points: 3
#     Node 8, Type 1, BuildingBlock: BETGAK_clean_sbu_0, # of connection points: 6
#     Node 9, Type 1, BuildingBlock: BETGAK_clean_sbu_0, # of connection points: 6
#     Node 10, Type 1, BuildingBlock: BETGAK_clean_sbu_0, # of connection points: 6
#     Node 11, Type 1, BuildingBlock: BETGAK_clean_sbu_0, # of connection points: 6
#     Edge 12, Type (0, 1), BuildingBlock: KIFKEQ_clean_linker_1, # of connection points: 2
#     Edge 13, Type (0, 1), BuildingBlock: KIFKEQ_clean_linker_1, # of connection points: 2
#     Edge 14, Type (0, 1), BuildingBlock: KIFKEQ_clean_linker_1, # of connection points: 2
#     Edge 15, Type (0, 1), BuildingBlock: KIFKEQ_clean_linker_1, # of connection points: 2
#     Edge 16, Type (0, 1), BuildingBlock: KIFKEQ_clean_linker_1, # of connection points: 2
#     Edge 17, Type (0, 1), BuildingBlock: KIFKEQ_clean_linker_1, # of connection points: 2
#     Edge 18, Type (0, 1), BuildingBlock: KIFKEQ_clean_linker_1, # of connection points: 2
#     Edge 19, Type (0, 1), BuildingBlock: KIFKEQ_clean_linker_1, # of connection points: 2
#     Edge 20, Type (0, 1), BuildingBlock: KIFKEQ_clean_linker_1, # of connection points: 2
#     Edge 21, Type (0, 1), BuildingBlock: KIFKEQ_clean_linker_1, # of connection points: 2
#     Edge 22, Type (0, 1), BuildingBlock: KIFKEQ_clean_linker_1, # of connection points: 2
#     Edge 23, Type (0, 1), BuildingBlock: KIFKEQ_clean_linker_1, # of connection points: 2
#     Edge 24, Type (0, 1), BuildingBlock: KIFKEQ_clean_linker_1, # of connection points: 2
#     Edge 25, Type (0, 1), BuildingBlock: KIFKEQ_clean_linker_1, # of connection points: 2
#     Edge 26, Type (0, 1), BuildingBlock: KIFKEQ_clean_linker_1, # of connection points: 2
#     Edge 27, Type (0, 1), BuildingBlock: KIFKEQ_clean_linker_1, # of connection points: 2
#     Edge 28, Type (0, 1), BuildingBlock: KIFKEQ_clean_linker_1, # of connection points: 2
#     Edge 29, Type (0, 1), BuildingBlock: KIFKEQ_clean_linker_1, # of connection points: 2
#     Edge 30, Type (0, 1), BuildingBlock: KIFKEQ_clean_linker_1, # of connection points: 2
#     Edge 31, Type (0, 1), BuildingBlock: KIFKEQ_clean_linker_1, # of connection points: 2
#     Edge 32, Type (0, 1), BuildingBlock: KIFKEQ_clean_linker_1, # of connection points: 2
#     Edge 33, Type (0, 1), BuildingBlock: KIFKEQ_clean_linker_1, # of connection points: 2
#     Edge 34, Type (0, 1), BuildingBlock: KIFKEQ_clean_linker_1, # of connection points: 2
#     Edge 35, Type (0, 1), BuildingBlock: KIFKEQ_clean_linker_1, # of connection points: 2
# Relax obj value: 0.453
# Max RMSD: 0.270
# Mean RMSD: 0.254
data_MOF--net-zzz--node1-BETGAK_clean_sbu_0--node2-MIDCAF_clean_linker_0--edge1-KIFKEQ_clean_linker_1
_symmetry_space_group_name_H-M    P1
_symmetry_Int_Tables_number       1
_symmetry_cell_setting            triclinic
loop_
_symmetry_equiv_pos_as_xyz
'x, y, z'
_cell_length_a     60.423456
_cell_length_b     60.348407
_cell_length_c     18.668415
_cell_angle_alpha  89.705808
_cell_angle_beta   89.893945
_cell_angle_gamma 89.992913
loop_
_atom_site_label
_atom_site_type_symbol
_atom_site_fract_x
_atom_site_fract_y
_atom_site_fract_z
_atom_type_partial_charge
C0 C 0.81012 0.51685 0.32401 0.0
C1 C 0.81108 0.5104 0.39653 0.0
C2 C 0.79206 0.50078 0.42769 0.0
C3 C 0.77308 0.49667 0.38638 0.0
H4 H 0.70872 0.53312 0.17648 0.0
H5 H 0.67365 0.54444 0.12059 0.0
H6 H 0.64824 0.47814 0.14974 0.0
H7 H 0.68316 0.46695 0.2043 0.0
H8 H 0.73389 0.45543 0.04286 0.0
H9 H 0.75349 0.43415 0.95156 0.0
H10 H 0.80263 0.41528 0.10801 0.0
H11 H 0.78328 0.43663 0.19888 0.0
H12 H 0.79165 0.51632 0.226 0.0
H13 H 0.82445 0.524 0.29773 0.0
H14 H 0.79211 0.49577 0.48347 0.0
H15 H 0.75922 0.48803 0.41057 0.0
N16 N 0.73525 0.50036 0.25702 0.0
N17 N 0.72808 0.47312 0.17001 0.0
N18 N 0.76275 0.47459 0.22486 0.0
C19 C 0.72105 0.49058 0.20964 0.0
C20 C 0.74885 0.46503 0.17732 0.0
C21 C 0.75615 0.49202 0.26516 0.0
C22 C 0.69856 0.49922 0.19515 0.0
C23 C 0.69531 0.52126 0.1732 0.0
C24 C 0.67534 0.52763 0.14045 0.0
C25 C 0.65818 0.51214 0.13023 0.0
C26 C 0.66097 0.49055 0.15722 0.0
C27 C 0.68098 0.48412 0.18858 0.0
C28 C 0.75733 0.44804 0.12766 0.0
C29 C 0.74848 0.44614 0.05833 0.0
C30 C 0.75966 0.43397 1.00602 0.0
C31 C 0.77962 0.42319 0.02263 0.0
C32 C 0.78718 0.42325 0.09376 0.0
C33 C 0.77623 0.43569 0.14568 0.0
C34 C 0.77274 0.50208 0.31317 0.0
C35 C 0.79127 0.51256 0.28281 0.0
C36 C 0.99871 0.80809 0.36493 0.0
C37 C 1.0064 0.80969 0.43594 0.0
C38 C 0.01748 0.79129 0.46584 0.0
C39 C 0.02223 0.77259 0.42422 0.0
H40 H 0.05254 0.68467 0.23859 0.0
H41 H 0.04316 0.6509 0.17481 0.0
H42 H 0.98226 0.68128 0.10261 0.0
H43 H 0.99129 0.71462 0.17084 0.0
H44 H 0.0816 0.73485 0.11259 0.0
H45 H 0.10708 0.75544 0.03582 0.0
H46 H 0.10368 0.81085 0.18166 0.0
H47 H 0.07945 0.79008 0.25899 0.0
H48 H 0.99895 0.7894 0.26731 0.0
H49 H 0.99038 0.82193 0.33956 0.0
H50 H 0.02336 0.79172 0.52057 0.0
H51 H 0.03228 0.75947 0.44698 0.0
N52 N 0.01906 0.73662 0.28244 0.0
N53 N 0.05036 0.7313 0.20873 0.0
N54 N 0.04691 0.76376 0.27526 0.0
C55 C 0.03083 0.72375 0.23574 0.0
C56 C 0.05848 0.75133 0.22801 0.0
C57 C 0.02746 0.75661 0.30302 0.0
C58 C 0.02258 0.70215 0.20998 0.0
C59 C 0.03685 0.68381 0.21074 0.0
C60 C 0.03158 0.66457 0.17307 0.0
C61 C 0.01217 0.66335 0.13155 0.0
C62 C 0.99729 0.68138 0.13405 0.0
C63 C 1.0024 0.70054 0.17328 0.0
C64 C 0.0779 0.76108 0.19084 0.0
C65 C 0.08688 0.75118 0.12924 0.0
C66 C 0.10141 0.76306 0.08491 0.0
C67 C 0.10709 0.7851 0.1011 0.0
C68 C 0.09993 0.79395 0.16682 0.0
C69 C 0.08564 0.78206 0.2112 0.0
C70 C 0.01577 0.77172 0.35214 0.0
C71 C 1.00346 0.78936 0.32346 0.0
C72 C 0.7092 0.0339 0.40721 0.0
C73 C 0.70359 0.01367 0.44021 0.0
C74 C 0.71756 0.99525 0.42858 0.0
C75 C 0.73597 0.99684 0.38233 0.0
H76 H 0.81466 0.97875 0.25562 0.0
H77 H 0.85258 0.97157 0.21425 0.0
H78 H 0.85835 0.04017 0.14875 0.0
H79 H 0.82124 0.04714 0.19201 0.0
H80 H 0.77912 0.05073 0.0523 0.0
H81 H 0.76158 0.06388 0.94135 0.0
H82 H 0.70026 0.03303 0.00658 0.0
H83 H 0.71745 0.02033 0.11716 0.0
H84 H 0.73033 0.05093 0.33308 0.0
H85 H 0.69881 0.04838 0.41367 0.0
H86 H 0.71389 0.97943 0.45352 0.0
H87 H 0.74567 0.98216 0.3712 0.0
N88 N 0.77789 0.01348 0.28772 0.0
N89 N 0.78153 0.02378 0.16619 0.0
N90 N 0.74677 0.0246 0.22059 0.0
C91 C 0.79086 0.0167 0.22824 0.0
C92 C 0.75954 0.02746 0.16167 0.0
C93 C 0.75565 0.01777 0.28367 0.0
C94 C 0.81514 0.01355 0.22769 0.0
C95 C 0.82455 0.99241 0.23552 0.0
C96 C 0.84614 0.98827 0.21045 0.0
C97 C 0.85864 1.00518 0.17684 0.0
C98 C 0.84964 0.02669 0.1748 0.0
C99 C 0.82823 0.03076 0.19976 0.0
C100 C 0.74956 0.03463 0.09342 0.0
C101 C 0.76195 0.04663 0.04242 0.0
C102 C 0.752 0.05413 0.97913 0.0
C103 C 0.72973 0.04919 0.96531 0.0
C104 C 0.71759 0.03672 0.0155 0.0
C105 C 0.72734 0.02966 0.07912 0.0
C106 C 0.74061 0.01683 0.3465 0.0
C107 C 0.72733 0.0354 0.36083 0.0
C108 C 0.47306 0.72177 1.0039 0.0
C109 C 0.45811 0.73285 0.95864 0.0
C110 C 0.45126 0.75438 0.9759 0.0
C111 C 0.45942 0.76472 0.03741 0.0
H112 H 0.46142 0.82517 0.16711 0.0
H113 H 0.46801 0.86259 0.12526 0.0
H114 H 0.53455 0.85977 0.20965 0.0
H115 H 0.52788 0.82155 0.24988 0.0
H116 H 0.48419 0.75901 0.40483 0.0
H117 H 0.48826 0.72737 0.48745 0.0
H118 H 0.53026 0.69478 0.33286 0.0
H119 H 0.52623 0.72616 0.2519 0.0
H120 H 0.49225 0.72279 0.09967 0.0
H121 H 0.47828 0.70498 0.99248 0.0
H122 H 0.43961 0.76314 0.94199 0.0
H123 H 0.4539 0.78134 0.04981 0.0
N124 N 0.48338 0.78613 0.15469 0.0
N125 N 0.49934 0.78307 0.26949 0.0
N126 N 0.48992 0.75118 0.20402 0.0
C127 C 0.4919 0.79594 0.2138 0.0
C128 C 0.49807 0.76047 0.26448 0.0
C129 C 0.48245 0.76385 0.1492 0.0
C130 C 0.49413 0.8204 0.2117 0.0
C131 C 0.47723 0.83279 0.17893 0.0
C132 C 0.48105 0.8544 0.15495 0.0
C133 C 0.50196 0.86435 0.16295 0.0
C134 C 0.51836 0.85257 0.20129 0.0
C135 C 0.51446 0.83079 0.22555 0.0
C136 C 0.50517 0.74517 0.32243 0.0
C137 C 0.49496 0.74542 0.39011 0.0
C138 C 0.49701 0.72712 0.4368 0.0
C139 C 0.5095 0.70836 0.41688 0.0
C140 C 0.52075 0.70892 0.35084 0.0
C141 C 0.5185 0.72698 0.30425 0.0
C142 C 0.4741 0.75341 0.08328 0.0
C143 C 0.48086 0.73188 0.06572 0.0
C144 C 0.20741 0.5395 1.00218 0.0
C145 C 0.20266 0.52037 0.96249 0.0
C146 C 0.21791 0.50267 0.96468 0.0
C147 C 0.2365 0.50347 0.01025 0.0
H148 H 0.32639 0.53464 0.12248 0.0
H149 H 0.36407 0.5287 0.16711 0.0
H150 H 0.34152 0.47074 0.28298 0.0
H151 H 0.30435 0.47658 0.23698 0.0
H152 H 0.2814 0.54904 0.35084 0.0
H153 H 0.26471 0.56265 0.46275 0.0
H154 H 0.20112 0.53811 0.39437 0.0
H155 H 0.2174 0.52518 0.28286 0.0
H156 H 0.22814 0.55485 0.08011 0.0
H157 H 0.19635 0.55362 1.00066 0.0
H158 H 0.21473 0.48769 0.93472 0.0
H159 H 0.24708 0.48905 0.01493 0.0
N160 N 0.27667 0.5136 0.11282 0.0
N161 N 0.28105 0.52136 0.23585 0.0
N162 N 0.24734 0.52871 0.17995 0.0
C163 C 0.28953 0.51376 0.17327 0.0
C164 C 0.26 0.52876 0.2396 0.0
C165 C 0.25537 0.52133 0.11645 0.0
C166 C 0.3126 0.50578 0.17503 0.0
C167 C 0.32987 0.52001 0.15437 0.0
C168 C 0.35135 0.51682 0.18127 0.0
C169 C 0.35592 0.49941 0.22977 0.0
C170 C 0.33889 0.48418 0.24533 0.0
C171 C 0.31752 0.48741 0.21856 0.0
C172 C 0.25061 0.53619 0.30824 0.0
C173 C 0.26389 0.54647 0.36027 0.0
C174 C 0.25444 0.5542 0.42402 0.0
C175 C 0.23179 0.55109 0.43713 0.0
C176 C 0.21872 0.54036 0.38579 0.0
C177 C 0.22799 0.53317 0.32176 0.0
C178 C 0.24009 0.52201 0.05412 0.0
C179 C 0.22577 0.54026 0.04736 0.0
C180 C 0.98423 0.20702 0.03508 0.0
C181 C 1.00322 0.20201 0.99475 0.0
C182 C 0.02082 0.21737 0.99433 0.0
C183 C 0.02009 0.23636 0.03807 0.0
H184 H 0.98787 0.32629 0.14019 0.0
H185 H 0.99257 0.3648 0.17875 0.0
H186 H 0.05048 0.34551 0.29955 0.0
H187 H 0.04588 0.30754 0.25962 0.0
H188 H 0.97567 0.28238 0.37793 0.0
H189 H 0.96266 0.26579 0.49117 0.0
H190 H 0.99001 0.20281 0.42722 0.0
H191 H 1.00238 0.21901 0.31446 0.0
H192 H 0.96911 0.22835 0.11199 0.0
H193 H 0.97017 0.19588 0.03549 0.0
H194 H 0.0357 0.21401 0.96382 0.0
H195 H 0.03446 0.24704 0.04091 0.0
N196 N 0.00954 0.27746 0.13743 0.0
N197 N 1.00308 0.28233 0.26115 0.0
N198 N 0.99629 0.24801 0.20876 0.0
C199 C 0.00965 0.29068 0.19693 0.0
C200 C 0.99647 0.26104 0.26745 0.0
C201 C 1.00265 0.2559 0.14373 0.0
C202 C 0.01678 0.31407 0.19579 0.0
C203 C 1.00221 0.33064 0.1719 0.0
C204 C 1.00469 0.3526 0.19529 0.0
C205 C 0.02174 0.35836 0.24332 0.0
C206 C 0.0373 0.34197 0.2621 0.0
C207 C 0.03477 0.32013 0.23889 0.0
C208 C 0.98987 0.25188 0.33751 0.0
C209 C 0.97906 0.26505 0.38875 0.0
C210 C 0.97166 0.25565 0.45326 0.0
C211 C 0.97564 0.23318 0.46795 0.0
C212 C 0.98709 0.22029 0.41758 0.0
C213 C 0.99395 0.22949 0.35279 0.0
C214 C 1.00172 0.24024 0.08265 0.0
C215 C 0.98354 0.22578 0.07847 0.0
C216 C 0.30357 0.99137 0.01627 0.0
C217 C 0.3077 0.01096 0.97746 0.0
C218 C 0.2926 0.02868 0.9846 0.0
C219 C 0.27446 0.02713 0.03197 0.0
H220 H 0.18634 0.98907 0.1482 0.0
H221 H 0.14862 0.99242 0.19538 0.0
H222 H 0.16745 0.05266 0.30378 0.0
H223 H 0.20459 0.04941 0.2549 0.0
H224 H 0.23197 0.97879 0.37234 0.0
H225 H 0.24927 0.96564 0.48382 0.0
H226 H 0.31183 0.9927 0.41365 0.0
H227 H 0.29489 1.00529 0.30244 0.0
H228 H 0.28386 0.97503 0.09585 0.0
H229 H 0.31486 0.97747 0.01313 0.0
H230 H 0.29515 0.04397 0.95514 0.0
H231 H 0.26381 0.04138 0.03924 0.0
N232 N 0.23449 0.01396 0.13353 0.0
N233 N 0.23086 1.00592 0.25683 0.0
N234 N 0.2649 1.00083 0.20015 0.0
C235 C 0.22178 0.01293 0.19434 0.0
C236 C 0.25236 0.99995 0.2602 0.0
C237 C 0.25627 1.00768 0.13674 0.0
C238 C 0.19821 0.01925 0.19661 0.0
C239 C 0.18195 1.00361 0.17889 0.0
C240 C 0.16048 1.00532 0.20735 0.0
C241 C 0.15491 0.02262 0.25468 0.0
C242 C 0.17081 0.03922 0.26714 0.0
C243 C 0.19218 0.03749 0.23868 0.0
C244 C 0.26218 0.9929 0.32875 0.0
C245 C 0.24937 0.98205 0.38128 0.0
C246 C 0.25918 0.97457 0.44483 0.0
C247 C 0.28172 0.97845 0.45734 0.0
C248 C 0.2943 0.98985 0.40564 0.0
C249 C 0.28468 0.99683 0.34174 0.0
C250 C 0.2713 1.00795 0.07372 0.0
C251 C 0.28575 0.98996 0.06392 0.0
C252 C 0.58684 0.28533 0.33117 0.0
C253 C 0.58146 0.27911 0.40174 0.0
C254 C 0.56659 0.26154 0.41307 0.0
C255 C 0.55607 0.2515 0.35503 0.0
H256 H 0.48463 0.21876 0.26382 0.0
H257 H 0.4749 0.18279 0.31519 0.0
H258 H 0.52098 0.15099 0.17141 0.0
H259 H 0.53075 0.18725 0.12074 0.0
H260 H 0.49059 0.26905 0.03555 0.0
H261 H 0.48478 0.30066 0.95415 0.0
H262 H 0.55293 0.32021 0.98343 0.0
H263 H 0.55871 0.2888 0.06229 0.0
H264 H 0.57971 0.28159 0.21977 0.0
H265 H 0.59803 0.29899 0.32072 0.0
H266 H 0.56219 0.25643 0.46697 0.0
H267 H 0.54381 0.23883 0.36561 0.0
N268 N 0.53404 0.23288 0.23008 0.0
N269 N 0.51648 0.24068 0.12003 0.0
N270 N 0.54283 0.26525 0.16745 0.0
C271 C 0.51967 0.22699 0.17784 0.0
C272 C 0.52828 0.25999 0.11482 0.0
C273 C 0.54576 0.25189 0.22514 0.0
C274 C 0.50804 0.2057 0.18721 0.0
C275 C 0.49181 0.20394 0.24083 0.0
C276 C 0.48638 0.18329 0.27059 0.0
C277 C 0.49734 0.16392 0.24815 0.0
C278 C 0.51241 0.16557 0.19064 0.0
C279 C 0.51772 0.18626 0.16061 0.0
C280 C 0.52507 0.27639 0.05572 0.0
C281 C 0.5044 0.27981 0.02297 0.0
C282 C 0.50104 0.2981 0.977 0.0
C283 C 0.51835 0.31319 0.96224 0.0
C284 C 0.53924 0.30896 0.99241 0.0
C285 C 0.54251 0.29092 0.03831 0.0
C286 C 0.56 0.25915 0.28483 0.0
C287 C 0.57612 0.27554 0.27333 0.0
La288 La 0.02432 0.99952 0.76693 0.0
La289 La 0.99027 0.01146 0.66961 0.0
C290 C 0.04938 0.9812 0.85778 0.0
C291 C 0.0635 0.96144 0.85803 0.0
C292 C 0.07667 0.95677 0.91784 0.0
C293 C 0.08925 0.93736 0.92039 0.0
C294 C 0.08868 0.92226 0.86328 0.0
C295 C 0.07604 0.92742 0.80228 0.0
C296 C 0.06367 0.94696 0.79948 0.0
C297 C 0.03969 0.01559 0.64369 0.0
C298 C 1.00505 0.96299 0.65943 0.0
C299 C 0.96511 0.03163 0.5844 0.0
C300 C 0.95318 0.05246 0.5963 0.0
C301 C 0.9484 0.05932 0.66649 0.0
C302 C 0.9407 0.08073 0.67939 0.0
C303 C 0.9378 0.09571 0.62235 0.0
C304 C 0.94147 0.08831 0.55177 0.0
C305 C 0.94912 0.06686 0.53894 0.0
C306 C 0.9748 0.99538 0.7927 0.0
C307 C 0.00931 0.04811 0.77591 0.0
O308 O 0.05563 0.99713 0.81488 0.0
O309 O 0.02808 0.97758 0.85379 0.0
O310 O 0.04756 0.02008 0.70614 0.0
O311 O 0.0239 1.00217 0.65138 0.0
O312 O 0.01463 0.96698 0.72187 0.0
O313 O 0.99686 0.97951 0.62136 0.0
O314 O 0.95873 0.0149 0.62393 0.0
O315 O 0.98666 0.03354 0.58302 0.0
O316 O 0.96708 0.99092 0.73 0.0
O317 O 0.99065 1.00879 0.78529 0.0
O318 O 1.00017 0.04405 0.71305 0.0
O319 O 0.01715 0.03155 0.81456 0.0
H320 H 0.07681 0.96788 0.96327 0.0
H321 H 0.09859 0.93366 0.96846 0.0
H322 H 0.07538 0.91611 0.75743 0.0
H323 H 0.05392 0.95053 0.75226 0.0
H324 H 0.95164 0.04847 0.71172 0.0
H325 H 0.93791 0.08583 0.73421 0.0
H326 H 0.93985 0.09951 0.50659 0.0
H327 H 0.95297 0.06192 0.4846 0.0
La328 La 0.51023 0.03093 0.75329 0.0
La329 La 0.50004 0.99638 0.65819 0.0
C330 C 0.52917 0.05709 0.83769 0.0
C331 C 0.54971 0.06954 0.82606 0.0
C332 C 0.55693 0.07415 0.75593 0.0
C333 C 0.57821 0.08233 0.74364 0.0
C334 C 0.59269 0.08585 0.80124 0.0
C335 C 0.58486 0.0824 0.87165 0.0
C336 C 0.56354 0.07428 0.88387 0.0
C337 C 0.49449 0.04567 0.62925 0.0
C338 C 0.54807 0.01218 0.64931 0.0
C339 C 0.48121 0.97011 0.57394 0.0
C340 C 0.46101 0.95719 0.58643 0.0
C341 C 0.45437 0.95211 0.65684 0.0
C342 C 0.43328 0.94364 0.67035 0.0
C343 C 0.41839 0.9403 0.61374 0.0
C344 C 0.42566 0.94416 0.54292 0.0
C345 C 0.4468 0.95256 0.52946 0.0
C346 C 0.5155 0.98168 0.78296 0.0
C347 C 0.46215 0.01511 0.76213 0.0
O348 O 0.51257 0.06282 0.79697 0.0
O349 O 0.53165 0.03558 0.8405 0.0
O350 O 0.48921 0.05324 0.69149 0.0
O351 O 0.50835 0.03024 0.6375 0.0
O352 O 0.54328 0.02167 0.71116 0.0
O353 O 0.53206 1.00359 0.61049 0.0
O354 O 0.49817 0.96461 0.6134 0.0
O355 O 0.47825 0.99156 0.57206 0.0
O356 O 0.52082 0.97402 0.72088 0.0
O357 O 0.50174 0.99713 0.77396 0.0
O358 O 0.46697 1.00548 0.70049 0.0
O359 O 0.47814 0.02384 0.80076 0.0
H360 H 0.54651 0.0704 0.71038 0.0
H361 H 0.58365 0.08493 0.68892 0.0
H362 H 0.59567 0.08451 0.9173 0.0
H363 H 0.55831 0.07058 0.93818 0.0
H364 H 0.46508 0.95577 0.70177 0.0
H365 H 0.42828 0.94072 0.72534 0.0
H366 H 0.41452 0.9422 0.49802 0.0
H367 H 0.45157 0.95662 0.47497 0.0
La368 La 0.4883 0.51453 0.73323 0.0
La369 La 0.52298 0.50551 0.6364 0.0
C370 C 0.46179 0.53212 0.81994 0.0
C371 C 0.44819 0.55203 0.81052 0.0
C372 C 0.44291 0.55956 0.74128 0.0
C373 C 0.43331 0.58038 0.73127 0.0
C374 C 0.42903 0.59409 0.7903 0.0
C375 C 0.43326 0.58588 0.85981 0.0
C376 C 0.44277 0.56502 0.86975 0.0
C377 C 0.47394 0.49907 0.60867 0.0
C378 C 0.50596 0.55333 0.62985 0.0
C379 C 0.549 0.48775 0.54837 0.0
C380 C 0.56195 0.4673 0.55471 0.0
C381 C 0.56682 0.4584 0.62256 0.0
C382 C 0.57694 0.43768 0.62875 0.0
C383 C 0.58224 0.42547 0.56716 0.0
C384 C 0.5779 0.43484 0.49928 0.0
C385 C 0.56784 0.45559 0.49319 0.0
C386 C 0.53738 0.52133 0.7604 0.0
C387 C 0.50575 0.46693 0.74122 0.0
O388 O 0.45661 0.51538 0.77928 0.0
O389 O 0.48312 0.53572 0.8206 0.0
O390 O 0.46646 0.49326 0.67076 0.0
O391 O 0.489 0.51322 0.61757 0.0
O392 O 0.49626 0.54807 0.69129 0.0
O393 O 0.51522 0.53771 0.59086 0.0
O394 O 0.55476 0.50373 0.59135 0.0
O395 O 0.52755 0.48494 0.54711 0.0
O396 O 0.54471 0.52706 0.69802 0.0
O397 O 0.52243 0.507 0.75203 0.0
O398 O 0.51502 0.47207 0.67903 0.0
O399 O 0.49661 0.48262 0.78015 0.0
H400 H 0.44715 0.54979 0.69469 0.0
H401 H 0.43014 0.58612 0.67719 0.0
H402 H 0.43061 0.59612 0.90652 0.0
H403 H 0.44696 0.55953 0.92341 0.0
H404 H 0.56222 0.46719 0.67083 0.0
H405 H 0.58016 0.43103 0.68171 0.0
H406 H 0.5813 0.42572 0.45068 0.0
H407 H 0.56397 0.46213 0.44052 0.0
La408 La 1.00159 0.49623 0.72902 0.0
La409 La 0.01267 0.52982 0.62851 0.0
C410 C 0.98339 0.47233 0.82322 0.0
C411 C 0.96337 0.45865 0.82496 0.0
C412 C 0.95359 0.45112 0.7614 0.0
C413 C 0.93389 0.43899 0.76386 0.0
C414 C 0.92357 0.43438 0.82992 0.0
C415 C 0.93367 0.44186 0.89334 0.0
C416 C 0.95341 0.45381 0.8908 0.0
C417 C 0.01768 0.48004 0.60766 0.0
C418 C 0.96455 0.51375 0.61965 0.0
C419 C 0.03208 0.55517 0.54177 0.0
C420 C 0.05212 0.56824 0.55471 0.0
C421 C 0.05815 0.57355 0.62526 0.0
C422 C 0.07904 0.58227 0.63977 0.0
C423 C 0.09433 0.58567 0.58403 0.0
C424 C 0.08769 0.58151 0.51296 0.0
C425 C 0.06675 0.57283 0.49849 0.0
C426 C 0.99725 0.54573 0.75165 0.0
C427 C 0.05 0.51186 0.7356 0.0
O428 O 0.99921 0.46547 0.78112 0.0
O429 O 0.98009 0.49367 0.81724 0.0
O430 O 0.02222 0.47267 0.671 0.0
O431 O 1.00409 0.49579 0.61342 0.0
O432 O 0.96882 0.50461 0.68282 0.0
O433 O 0.98082 0.52218 0.58103 0.0
O434 O 0.0147 0.56103 0.57873 0.0
O435 O 0.03509 0.53371 0.54317 0.0
O436 O 0.9921 0.55308 0.68884 0.0
O437 O 0.01073 0.53003 0.74381 0.0
O438 O 0.04561 0.5208 0.67232 0.0
O439 O 0.0337 0.50383 0.77492 0.0
H440 H 0.96105 0.45486 0.7099 0.0
H441 H 0.92666 0.43341 0.71408 0.0
H442 H 0.92597 0.43919 0.94508 0.0
H443 H 0.96066 0.4597 0.94024 0.0
H444 H 0.04712 0.56991 0.66964 0.0
H445 H 0.08357 0.5854 0.69491 0.0
H446 H 0.09916 0.58351 0.46877 0.0
H447 H 0.06245 0.56858 0.44394 0.0
H448 H 0.12894 0.0577 0.29844 0.0
H449 H 0.13335 0.9863 0.31097 0.0
H450 H 0.09862 0.05703 0.38496 0.0
H451 H 0.10267 0.98572 0.39569 0.0
H452 H 0.0724 0.04549 0.61898 0.0
H453 H 0.09718 0.04788 0.51576 0.0
H454 H 0.06217 0.99398 0.41541 0.0
H455 H 0.03717 0.99174 0.519 0.0
C456 C 0.12337 0.04183 0.31888 0.0
C457 C 0.13392 0.02208 0.29779 0.0
C458 C 0.10591 0.04147 0.36847 0.0
C459 C 0.09831 0.02134 0.39778 0.0
C460 C 0.10796 1.00151 0.37375 0.0
C461 C 0.12556 1.00187 0.3247 0.0
C462 C 0.06978 0.03437 0.57439 0.0
C463 C 0.05288 0.01841 0.57715 0.0
C464 C 0.08392 0.0358 0.51505 0.0
C465 C 0.08171 0.0211 0.45725 0.0
C466 C 0.06441 1.00546 0.45922 0.0
C467 C 0.05002 1.00426 0.5183 0.0
H468 H 0.45961 0.14553 0.30618 0.0
H469 H 0.53005 0.13492 0.28785 0.0
H470 H 0.45696 0.11416 0.38882 0.0
H471 H 0.52748 0.1038 0.37076 0.0
H472 H 0.46789 0.08141 0.61041 0.0
H473 H 0.46713 0.1072 0.51004 0.0
H474 H 0.51491 0.06687 0.39783 0.0
H475 H 0.51599 0.0412 0.5 0.0
C476 C 0.47451 0.13641 0.31928 0.0
C477 C 0.49505 0.1429 0.29038 0.0
C478 C 0.47302 0.11843 0.36692 0.0
C479 C 0.49204 0.10648 0.38737 0.0
C480 C 0.51241 0.11234 0.35583 0.0
C481 C 0.51388 0.13027 0.30802 0.0
C482 C 0.47803 0.07788 0.56394 0.0
C483 C 0.49211 0.05935 0.56338 0.0
C484 C 0.4775 0.09263 0.50594 0.0
C485 C 0.49102 0.08928 0.44548 0.0
C486 C 0.50449 0.07019 0.44377 0.0
C487 C 0.505 0.05536 0.50204 0.0
H488 H 0.3798 0.46268 0.27238 0.0
H489 H 0.38018 0.53418 0.28263 0.0
H490 H 0.41093 0.46132 0.35541 0.0
H491 H 0.41144 0.53277 0.36451 0.0
H492 H 0.47636 0.52383 0.48495 0.0
H493 H 0.45074 0.52304 0.38324 0.0
H494 H 0.41503 0.46915 0.48344 0.0
H495 H 0.44059 0.46993 0.58432 0.0
C496 C 0.3866 0.47813 0.29165 0.0
C497 C 0.37721 0.49854 0.27087 0.0
C498 C 0.40449 0.47734 0.33934 0.0
C499 C 0.41362 0.49693 0.36731 0.0
C500 C 0.40503 0.51735 0.3436 0.0
C501 C 0.38706 0.51815 0.29623 0.0
C502 C 0.46324 0.5116 0.48453 0.0
C503 C 0.46043 0.49699 0.54274 0.0
C504 C 0.44846 0.51124 0.42653 0.0
C505 C 0.43073 0.49608 0.4251 0.0
C506 C 0.42859 0.48089 0.48214 0.0
C507 C 0.44319 0.4814 0.54025 0.0
H508 H 0.05765 0.38371 0.28273 0.0
H509 H 0.98619 0.38265 0.29112 0.0
H510 H 0.05793 0.41581 0.36166 0.0
H511 H 0.98655 0.41495 0.36871 0.0
H512 H 0.99401 0.48144 0.48205 0.0
H513 H 0.9958 0.45497 0.38281 0.0
H514 H 0.04898 0.42038 0.48979 0.0
H515 H 0.04713 0.44669 0.58829 0.0
C516 C 0.04198 0.39041 0.30064 0.0
C517 C 0.02191 0.38029 0.28079 0.0
C518 C 0.04215 0.40887 0.34592 0.0
C519 C 0.02227 0.41787 0.37222 0.0
C520 C 1.00217 0.40861 0.34903 0.0
C521 C 1.00199 0.39005 0.30414 0.0
C522 C 1.0063 0.46838 0.4836 0.0
C523 C 0.02039 0.46608 0.54304 0.0
C524 C 1.00724 0.45313 0.42704 0.0
C525 C 0.0225 0.43548 0.42829 0.0
C526 C 0.03719 0.43386 0.48648 0.0
C527 C 0.03607 0.44889 0.54321 0.0
H528 H 0.8956 0.03163 0.15903 0.0
H529 H 0.86927 0.96766 0.10074 0.0
H530 H 0.92544 0.02695 0.07319 0.0
H531 H 0.9001 0.9622 0.01928 0.0
H532 H 0.93505 0.97479 0.80522 0.0
H533 H 0.90983 0.97486 0.90626 0.0
H534 H 0.95813 0.01055 0.03158 0.0
H535 H 0.98308 0.01128 0.928 0.0
C536 C 0.89632 0.01637 0.12889 0.0
C537 C 0.87955 1.00027 0.13623 0.0
C538 C 0.91374 0.01353 0.08006 0.0
C539 C 0.91515 0.99435 0.03768 0.0
C540 C 0.89934 0.97751 0.04916 0.0
C541 C 0.88175 0.98048 0.09725 0.0
C542 C 0.94041 0.98247 0.85454 0.0
C543 C 0.96101 0.99318 0.85833 0.0
C544 C 0.92596 0.98236 0.91312 0.0
C545 C 0.93174 0.99274 0.97787 0.0
C546 C 0.95283 1.00269 0.98252 0.0
C547 C 0.96726 1.00297 0.92336 0.0
H548 H 0.47466 0.90033 0.13958 0.0
H549 H 0.54072 0.87651 0.09582 0.0
H550 H 0.48026 0.93064 0.0554 0.0
H551 H 0.54691 0.90776 0.01578 0.0
H552 H 0.53734 0.94264 0.79895 0.0
H553 H 0.53622 0.91721 0.89988 0.0
H554 H 0.49667 0.96413 0.0188 0.0
H555 H 0.49709 0.98929 0.91543 0.0
C556 C 0.49056 0.90173 0.11304 0.0
C557 C 0.50704 0.88554 0.12384 0.0
C558 C 0.49389 0.9194 0.0652 0.0
C559 C 0.51394 0.92161 0.02727 0.0
C560 C 0.53102 0.90638 0.04228 0.0
C561 C 0.52759 0.88856 0.08948 0.0
C562 C 0.5286 0.94766 0.84691 0.0
C563 C 0.51714 0.96791 0.8489 0.0
C564 C 0.52809 0.9331 0.9054 0.0
C565 C 0.5163 0.93841 0.96815 0.0
C566 C 0.50563 0.9592 0.97121 0.0
C567 C 0.506 0.97375 0.91219 0.0
H568 H 0.65755 0.5334 1.00085 0.0
H569 H 0.61443 0.50224 0.15577 0.0
H570 H 0.62669 0.53756 0.91874 0.0
H571 H 0.58311 0.50711 0.07465 0.0
H572 H 0.54025 0.49268 0.8746 0.0
H573 H 0.56802 0.4928 0.96941 0.0
H574 H 0.59387 0.55478 0.88735 0.0
H575 H 0.56684 0.55383 0.7907 0.0
C576 C 0.6413 0.52799 0.01821 0.0
C577 C 0.6385 0.51749 0.08497 0.0
C578 C 0.62346 0.5304 0.97099 0.0
C579 C 0.60217 0.52263 0.98939 0.0
C580 C 0.59924 0.51292 0.05757 0.0
C581 C 0.61718 0.51026 0.10448 0.0
C582 C 0.55168 0.50647 0.87766 0.0
C583 C 0.55149 0.52317 0.82499 0.0
C584 C 0.56763 0.50662 0.93227 0.0
C585 C 0.58359 0.52367 0.9361 0.0
C586 C 0.58239 0.54103 0.88546 0.0
C587 C 0.56671 0.54065 0.83034 0.0
H588 H 0.04331 0.63937 0.05747 0.0
H589 H 0.97262 0.64376 0.09123 0.0
H590 H 0.03773 0.60904 0.9748 0.0
H591 H 0.96712 0.61373 1.00555 0.0
H592 H 0.02243 0.5428 0.87311 0.0
H593 H 0.02458 0.56963 0.97073 0.0
H594 H 0.97261 0.6082 0.87221 0.0
H595 H 0.97056 0.58142 0.77445 0.0
C596 C 0.02656 0.6337 0.04855 0.0
C597 C 1.00845 0.64412 0.08223 0.0
C598 C 0.02338 0.61626 1.00058 0.0
C599 C 1.002 0.60885 0.98375 0.0
C600 C 0.98382 0.61914 0.01709 0.0
C601 C 0.987 0.63645 0.06604 0.0
C602 C 0.01122 0.55681 0.87293 0.0
C603 C 0.99641 0.56008 0.81591 0.0
C604 C 0.01255 0.57226 0.9286 0.0
C605 C 0.99888 0.59116 0.92901 0.0
C606 C 0.98328 0.59378 0.8738 0.0
C607 C 0.98215 0.57848 0.81768 0.0
H608 H 0.99763 0.20884 0.56729 0.0
H609 H 0.93244 0.23168 0.5092 0.0
H610 H 0.98151 0.17969 0.64018 0.0
H611 H 0.91596 0.20262 0.58383 0.0
H612 H 0.95603 0.12099 0.72835 0.0
H613 H 0.95941 0.16111 0.7282 0.0
H614 H 0.91594 0.16476 0.54483 0.0
H615 H 0.91179 0.12482 0.54722 0.0
C616 C 0.97979 0.20821 0.5731 0.0
C617 C 0.96624 0.22205 0.53158 0.0
C618 C 0.97045 0.19156 0.61533 0.0
C619 C 0.94737 0.1884 0.61626 0.0
C620 C 0.9338 0.20434 0.58289 0.0
C621 C 0.94321 0.22108 0.54061 0.0
C622 C 0.94641 0.1304 0.68997 0.0
C623 C 0.93427 0.11967 0.63603 0.0
C624 C 0.94845 0.15345 0.68972 0.0
C625 C 0.93853 0.16614 0.63519 0.0
C626 C 0.92394 0.1556 0.58754 0.0
C627 C 0.92181 0.13259 0.5881 0.0
H628 H 0.2829 0.93532 0.50039 0.0
H629 H 0.30686 1.00048 0.55368 0.0
H630 H 0.31158 0.91869 0.5757 0.0
H631 H 0.33559 0.98417 0.62754 0.0
H632 H 0.38965 0.91382 0.53973 0.0
H633 H 0.34977 0.91811 0.5366 0.0
H634 H 0.35286 0.96185 0.71888 0.0
H635 H 0.39292 0.95826 0.72006 0.0
C636 C 0.29369 0.94607 0.53082 0.0
C637 C 0.29312 0.9691 0.52037 0.0
C638 C 0.31018 0.93657 0.57355 0.0
C639 C 0.32624 0.95004 0.60614 0.0
C640 C 0.32357 0.97321 0.6034 0.0
C641 C 0.3072 0.98264 0.56058 0.0
C642 C 0.38177 0.92388 0.58035 0.0
C643 C 0.39452 0.93643 0.62808 0.0
C644 C 0.35879 0.92611 0.57934 0.0
C645 C 0.34817 0.94088 0.62629 0.0
C646 C 0.36064 0.95076 0.68098 0.0
C647 C 0.38365 0.94861 0.68175 0.0
H648 H 0.55465 0.29599 0.5043 0.0
H649 H 0.62247 0.29625 0.43142 0.0
H650 H 0.56131 0.32917 0.57248 0.0
H651 H 0.62963 0.32932 0.50261 0.0
H652 H 0.56922 0.39341 0.66312 0.0
H653 H 0.57613 0.35382 0.65522 0.0
H654 H 0.61884 0.36533 0.4725 0.0
H655 H 0.61324 0.40483 0.48401 0.0
C656 C 0.57134 0.30253 0.5058 0.0
C657 C 0.58792 0.29386 0.46127 0.0
C658 C 0.57524 0.32168 0.54527 0.0
C659 C 0.59589 0.33243 0.54149 0.0
C660 C 0.61332 0.3219 0.50482 0.0
C661 C 0.6093 0.30289 0.46442 0.0
C662 C 0.58081 0.38757 0.62312 0.0
C663 C 0.59022 0.40224 0.57281 0.0
C664 C 0.58459 0.36478 0.61811 0.0
C665 C 0.59754 0.35619 0.56198 0.0
C666 C 0.60876 0.37114 0.51656 0.0
C667 C 0.60524 0.39389 0.52224 0.0
H668 H 0.20806 0.52875 0.53701 0.0
H669 H 0.22989 0.59431 0.47742 0.0
H670 H 0.17876 0.54447 0.60939 0.0
H671 H 0.20063 0.61043 0.55146 0.0
H672 H 0.11939 0.56839 0.6928 0.0
H673 H 0.15953 0.56625 0.69571 0.0
H674 H 0.16294 0.60982 0.51141 0.0
H675 H 0.12296 0.61277 0.51085 0.0
C676 C 0.20719 0.5466 0.54252 0.0
C677 C 0.22077 0.56036 0.50074 0.0
C678 C 0.19045 0.55572 0.58442 0.0
C679 C 0.18691 0.57878 0.58462 0.0
C680 C 0.20264 0.59259 0.55108 0.0
C681 C 0.21948 0.58341 0.50914 0.0
C682 C 0.12872 0.57834 0.65495 0.0
C683 C 0.11798 0.59012 0.59983 0.0
C684 C 0.15179 0.57701 0.65645 0.0
C685 C 0.16447 0.58723 0.60241 0.0
C686 C 0.1538 0.60156 0.55376 0.0
C687 C 0.13077 0.60301 0.55261 0.0
H688 H 0.1351 0.8207 0.11945 0.0
H689 H 0.1005 0.78422 0.95539 0.0
H690 H 0.13718 0.8525 0.04058 0.0
H691 H 0.1048 0.81516 0.87378 0.0
H692 H 0.06992 0.88241 0.83621 0.0
H693 H 0.08306 0.84639 0.87326 0.0
H694 H 0.14446 0.87577 0.94507 0.0
H695 H 0.1305 0.91228 0.91044 0.0
C696 C 0.1286 0.81915 0.0657 0.0
C697 C 0.11654 0.80026 0.04553 0.0
C698 C 0.13012 0.8374 0.01964 0.0
C699 C 0.12019 0.83687 0.9515 0.0
C700 C 0.11167 0.81657 0.92709 0.0
C701 C 0.10957 0.79855 0.97386 0.0
C702 C 0.08648 0.88111 0.85802 0.0
C703 C 0.09905 0.90016 0.87144 0.0
C704 C 0.09419 0.86031 0.87904 0.0
C705 C 0.11483 0.85798 0.91331 0.0
C706 C 0.12826 0.87691 0.92063 0.0
C707 C 0.12034 0.89783 0.90058 0.0
H708 H 0.72759 0.0924 0.92292 0.0
H709 H 0.7052 0.0268 0.86809 0.0
H710 H 0.69893 0.10849 0.84633 0.0
H711 H 0.67643 0.04255 0.79331 0.0
H712 H 0.6208 0.11274 0.8761 0.0
H713 H 0.66067 0.10879 0.88205 0.0
H714 H 0.65906 0.06422 0.70162 0.0
H715 H 0.61898 0.06737 0.69797 0.0
C716 C 0.71712 0.08145 0.89207 0.0
C717 C 0.71814 0.05842 0.9024 0.0
C718 C 0.70064 0.09064 0.84861 0.0
C719 C 0.685 0.07687 0.8152 0.0
C720 C 0.68811 0.05376 0.81806 0.0
C721 C 0.7045 0.04464 0.86149 0.0
C722 C 0.62901 0.10254 0.83655 0.0
C723 C 0.61665 0.08967 0.78861 0.0
C724 C 0.65198 0.10051 0.83916 0.0
C725 C 0.66302 0.08563 0.79355 0.0
C726 C 0.65096 0.07538 0.73861 0.0
C727 C 0.62795 0.0773 0.73634 0.0
H728 H 0.41453 0.72718 0.92523 0.0
H729 H 0.48058 0.71092 0.85506 0.0
H730 H 0.39957 0.69794 0.84919 0.0
H731 H 0.46605 0.68144 0.78144 0.0
H732 H 0.40077 0.61967 0.86967 0.0
H733 H 0.40201 0.65967 0.87871 0.0
H734 H 0.44515 0.66271 0.69383 0.0
H735 H 0.44504 0.62254 0.6878 0.0
C736 C 0.42574 0.7179 0.8914 0.0
C737 C 0.44871 0.7208 0.89714 0.0
C738 C 0.41722 0.70106 0.84827 0.0
C739 C 0.43161 0.68687 0.81076 0.0
C740 C 0.45436 0.69191 0.80938 0.0
C741 C 0.46281 0.7087 0.85224 0.0
C742 C 0.41013 0.62891 0.82998 0.0
C743 C 0.42351 0.61787 0.77999 0.0
C744 C 0.41058 0.65197 0.83436 0.0
C745 C 0.42429 0.66444 0.78832 0.0
C746 C 0.43493 0.65355 0.73141 0.0
C747 C 0.4347 0.63045 0.72762 0.0
H748 H 0.80306 0.38437 0.01268 0.0
H749 H 0.79141 0.44668 0.90489 0.0
H750 H 0.83615 0.37865 0.93981 0.0
H751 H 0.8247 0.4418 0.83535 0.0
H752 H 0.90852 0.40466 0.92998 0.0
H753 H 0.87047 0.39478 0.95354 0.0
H754 H 0.85053 0.42756 0.75731 0.0
H755 H 0.88854 0.43921 0.73737 0.0
C756 C 0.80727 0.39651 0.97195 0.0
C757 C 0.79492 0.41611 0.96516 0.0
C758 C 0.82632 0.39338 0.93061 0.0
C759 C 0.83366 0.41009 0.8832 0.0
C760 C 0.81977 0.42845 0.87083 0.0
C761 C 0.80055 0.43134 0.91108 0.0
C762 C 0.89604 0.40968 0.8916 0.0
C763 C 0.90151 0.42347 0.83336 0.0
C764 C 0.87412 0.40361 0.90433 0.0
C765 C 0.85712 0.41083 0.8583 0.0
C766 C 0.86303 0.42229 0.79523 0.0
C767 C 0.88495 0.42876 0.78325 0.0
H768 H 0.99227 0.1618 0.0513 0.0
H769 H 0.01851 0.1919 0.85888 0.0
H770 H 0.99429 0.1255 0.99598 0.0
H771 H 0.02082 0.15513 0.80316 0.0
H772 H 0.99667 0.08688 0.70898 0.0
H773 H 0.99649 0.12438 0.75863 0.0
H774 H 0.02229 0.09885 0.95805 0.0
H775 H 0.02262 0.06157 0.90874 0.0
C776 C 0.99841 0.16068 0.99688 0.0
C777 C 1.00507 0.17986 0.95942 0.0
C778 C 0.99979 0.13976 0.96536 0.0
C779 C 1.00782 0.13727 0.89513 0.0
C780 C 0.01445 0.15643 0.85722 0.0
C781 C 0.01328 0.17748 0.88927 0.0
C782 C 1.00241 0.08928 0.76333 0.0
C783 C 0.0096 0.0711 0.80488 0.0
C784 C 1.00237 0.11082 0.79167 0.0
C785 C 0.00919 0.11467 0.8626 0.0
C786 C 0.01662 0.09651 0.90362 0.0
C787 C 0.01689 0.07508 0.87515 0.0
H788 H 0.32762 0.98012 0.89042 0.0
H789 H 0.33578 0.0467 0.96961 0.0
H790 H 0.36425 0.98188 0.83561 0.0
H791 H 0.37214 0.04874 0.9127 0.0
H792 H 0.44641 0.03296 0.88696 0.0
H793 H 0.40853 0.03304 0.93199 0.0
H794 H 0.38689 0.9986 0.74249 0.0
H795 H 0.42498 0.99792 0.69822 0.0
C796 C 0.3371 0.99526 0.89544 0.0
C797 C 0.32869 0.01321 0.93502 0.0
C798 C 0.35809 0.99633 0.86337 0.0
C799 C 0.37135 0.01539 0.87003 0.0
C800 C 0.3626 0.03365 0.9073 0.0
C801 C 0.34156 0.0326 0.93917 0.0
C802 C 0.43361 0.02538 0.85476 0.0
C803 C 0.43887 0.01539 0.78894 0.0
C804 C 0.41178 0.02558 0.8804 0.0
C805 C 0.39452 0.01582 0.84101 0.0
C806 C 0.39976 1.00597 0.77487 0.0
C807 C 0.42162 1.00572 0.74923 0.0
H808 H 0.54639 0.3333 0.86534 0.0
H809 H 0.4821 0.34081 0.96363 0.0
H810 H 0.54272 0.36967 0.80988 0.0
H811 H 0.4779 0.37676 0.90511 0.0
H812 H 0.48974 0.45094 0.86872 0.0
H813 H 0.49171 0.41333 0.91569 0.0
H814 H 0.52518 0.39231 0.72287 0.0
H815 H 0.52374 0.43019 0.67677 0.0
C816 C 0.53133 0.34259 0.87463 0.0
C817 C 0.51466 0.33407 0.9199 0.0
C818 C 0.52911 0.36346 0.84201 0.0
C819 C 0.51009 0.37646 0.85333 0.0
C820 C 0.493 0.36752 0.89611 0.0
C821 C 0.49525 0.34666 0.92892 0.0
C822 C 0.49749 0.43832 0.83615 0.0
C823 C 0.50658 0.44371 0.76886 0.0
C824 C 0.49846 0.4166 0.86293 0.0
C825 C 0.5085 0.39953 0.82319 0.0
C826 C 0.51752 0.40493 0.75559 0.0
C827 C 0.51658 0.42671 0.72885 0.0
H828 H 0.16215 0.53138 0.01524 0.0
H829 H 0.19353 0.50496 0.82618 0.0
H830 H 0.12625 0.52908 0.95726 0.0
H831 H 0.15714 0.50244 0.76766 0.0
H832 H 0.08853 0.52585 0.66967 0.0
H833 H 0.12591 0.52697 0.72075 0.0
H834 H 0.10067 0.4998 0.91898 0.0
H835 H 0.06362 0.49856 0.86844 0.0
C836 C 0.1614 0.52516 0.96097 0.0
C837 C 0.18081 0.51848 0.9253 0.0
C838 C 0.14073 0.52365 0.92789 0.0
C839 C 0.13871 0.51548 0.85783 0.0
C840 C 0.15811 0.50891 0.82156 0.0
C841 C 0.17892 0.51019 0.85522 0.0
C842 C 0.09099 0.52 0.72403 0.0
C843 C 0.07296 0.51216 0.76491 0.0
C844 C 0.11244 0.52057 0.75318 0.0
C845 C 0.11631 0.51363 0.8242 0.0
C846 C 0.0983 0.50557 0.86449 0.0
C847 C 0.077 0.50478 0.83527 0.0
H848 H 0.03749 0.82883 0.52304 0.0
H849 H 0.9719 0.83961 0.43816 0.0
H850 H 0.03638 0.865 0.57983 0.0
H851 H 0.9708 0.87591 0.4951 0.0
H852 H 0.98794 0.94923 0.53142 0.0
H853 H 0.98741 0.91195 0.48224 0.0
H854 H 0.01977 0.88714 0.67256 0.0
H855 H 0.02064 0.9246 0.72134 0.0
C856 C 0.02261 0.8387 0.51757 0.0
C857 C 1.00477 0.83114 0.47582 0.0
C858 C 0.02201 0.85956 0.55016 0.0
C859 C 1.00355 0.87356 0.54197 0.0
C860 C 0.98548 0.86581 0.50162 0.0
C861 C 0.98608 0.84492 0.46901 0.0
C862 C 0.99492 0.93585 0.56299 0.0
C863 C 1.00441 0.94003 0.63037 0.0
C864 C 0.99447 0.91437 0.5349 0.0
C865 C 1.00349 0.89639 0.57331 0.0
C866 C 0.01288 0.90056 0.64095 0.0
C867 C 0.01331 0.92207 0.66913 0.0
H868 H 0.67367 0.97932 0.43947 0.0
H869 H 0.68471 0.04371 0.53265 0.0
H870 H 0.63708 0.97796 0.49456 0.0
H871 H 0.64777 0.04279 0.58509 0.0
H872 H 0.58552 0.02778 0.71575 0.0
H873 H 0.62367 0.02645 0.67258 0.0
H874 H 0.60157 0.99476 0.47853 0.0
H875 H 0.56362 0.99542 0.52263 0.0
C876 C 0.66847 0.99308 0.47247 0.0
C877 C 0.68226 0.01167 0.48109 0.0
C878 C 0.64726 0.99246 0.50328 0.0
C879 C 0.63918 0.01039 0.54375 0.0
C880 C 0.65333 0.02859 0.55475 0.0
C881 C 0.67452 0.02922 0.52395 0.0
C882 C 0.58879 0.02046 0.66395 0.0
C883 C 0.57139 0.01168 0.6228 0.0
C884 C 0.61071 0.01982 0.63892 0.0
C885 C 0.61588 0.0105 0.57187 0.0
C886 C 0.59842 1.00173 0.53089 0.0
C887 C 0.57654 1.00228 0.556 0.0
H888 H 0.54431 0.68027 0.4436 0.0
H889 H 0.47476 0.6888 0.48928 0.0
H890 H 0.54334 0.64377 0.4997 0.0
H891 H 0.47383 0.65219 0.546 0.0
H892 H 0.48525 0.58979 0.68822 0.0
H893 H 0.48644 0.6282 0.64517 0.0
H894 H 0.528 0.60807 0.46868 0.0
H895 H 0.52708 0.57002 0.51187 0.0
C896 C 0.5288 0.67443 0.4659 0.0
C897 C 0.50956 0.6875 0.46092 0.0
C898 C 0.52823 0.65341 0.49801 0.0
C899 C 0.50841 0.64476 0.52637 0.0
C900 C 0.48941 0.65828 0.52495 0.0
C901 C 0.48997 0.67935 0.49255 0.0
C902 C 0.49467 0.59359 0.64029 0.0
C903 C 0.50614 0.57674 0.60373 0.0
C904 C 0.49526 0.61562 0.61541 0.0
C905 C 0.50748 0.62137 0.55368 0.0
C906 C 0.51878 0.60443 0.51713 0.0
C907 C 0.51809 0.58249 0.54167 0.0
H908 H 0.84119 0.54457 0.39533 0.0
H909 H 0.82958 0.48003 0.48879 0.0
H910 H 0.87742 0.54589 0.45237 0.0
H911 H 0.86592 0.48119 0.54524 0.0
H912 H 0.92663 0.49738 0.68244 0.0
H913 H 0.88907 0.4976 0.63423 0.0
H914 H 0.91302 0.52955 0.4415 0.0
H915 H 0.95029 0.52985 0.49037 0.0
C916 C 0.84635 0.53064 0.42809 0.0
C917 C 0.83238 0.51217 0.43711 0.0
C918 C 0.86722 0.53134 0.46069 0.0
C919 C 0.87487 0.51355 0.50308 0.0
C920 C 0.86062 0.49534 0.51378 0.0
C921 C 0.83969 0.49468 0.48137 0.0
C922 C 0.92386 0.50453 0.62988 0.0
C923 C 0.94157 0.51366 0.59051 0.0
C924 C 0.90229 0.50455 0.60195 0.0
C925 C 0.89781 0.51369 0.53386 0.0
C926 C 0.9156 0.52275 0.49461 0.0
C927 C 0.93711 0.52276 0.52251 0.0
loop_
_geom_bond_atom_site_label_1
_geom_bond_atom_site_label_2
_geom_bond_distance
_geom_bond_site_symmetry_2
_ccdc_geom_bond_type
C0 C1 1.384 . S
C0 H13 0.947 . S
C0 C35 1.382 . S
C1 C0 1.384 . S
C1 C2 1.378 . S
C2 C1 1.378 . S
C2 C3 1.378 . S
C2 H14 0.952 . S
C3 C2 1.378 . S
C3 H15 0.950 . S
C3 C34 1.383 . S
H4 C23 0.947 . S
H5 C24 0.946 . S
H6 C26 0.953 . S
H7 C27 0.945 . S
H8 C29 0.952 . S
H9 C30 0.949 . S
H10 C32 0.950 . S
H11 C33 0.948 . S
H12 C35 0.951 . S
H13 C0 0.947 . S
H14 C2 0.952 . S
H15 C3 0.950 . S
N16 C19 1.382 . S
N16 C21 1.363 . S
N17 C19 1.371 . S
N17 C20 1.372 . S
N18 C20 1.361 . S
N18 C21 1.377 . S
C19 N16 1.382 . S
C19 N17 1.371 . S
C19 C22 1.480 . S
C20 N17 1.372 . S
C20 N18 1.361 . S
C20 C28 1.457 . S
C21 N16 1.363 . S
C21 N18 1.377 . S
C21 C34 1.479 . S
C22 C19 1.480 . S
C22 C23 1.383 . S
C22 C27 1.385 . S
C23 H4 0.947 . S
C23 C22 1.383 . S
C23 C24 1.388 . S
C24 H5 0.946 . S
C24 C23 1.388 . S
C24 C25 1.384 . S
C25 C24 1.384 . S
C25 C26 1.377 . S
C26 H6 0.953 . S
C26 C25 1.377 . S
C26 C27 1.369 . S
C27 H7 0.945 . S
C27 C22 1.385 . S
C27 C26 1.369 . S
C28 C20 1.457 . S
C28 C29 1.372 . S
C28 C33 1.364 . S
C29 H8 0.952 . S
C29 C28 1.372 . S
C29 C30 1.389 . S
C30 H9 0.949 . S
C30 C29 1.389 . S
C30 C31 1.387 . S
C31 C30 1.387 . S
C31 C32 1.372 . S
C32 H10 0.950 . S
C32 C31 1.372 . S
C32 C33 1.379 . S
C33 H11 0.948 . S
C33 C28 1.364 . S
C33 C32 1.379 . S
C34 C3 1.383 . S
C34 C21 1.479 . S
C34 C35 1.398 . S
C35 C0 1.382 . S
C35 H12 0.951 . S
C35 C34 1.398 . S
C36 C37 1.384 1_655 S
C36 H49 0.948 . S
C36 C71 1.382 1_655 S
C37 C36 1.384 1_455 S
C37 C38 1.378 . S
C38 C37 1.378 . S
C38 C39 1.378 . S
C38 H50 0.952 . S
C39 C38 1.378 . S
C39 H51 0.950 . S
C39 C70 1.383 . S
H40 C59 0.947 . S
H41 C60 0.952 . S
H42 C62 0.953 . S
H43 C63 0.945 . S
H44 C65 0.949 1_655 S
H45 C66 0.956 . S
H46 C68 0.950 . S
H47 C69 0.948 . S
H48 C71 0.951 1_655 S
H49 C36 0.948 . S
H50 C38 0.952 . S
H51 C39 0.950 . S
N52 C55 1.382 . S
N52 C57 1.363 . S
N53 C55 1.371 . S
N53 C56 1.372 . S
N54 C56 1.361 . S
N54 C57 1.377 . S
C55 N52 1.382 . S
C55 N53 1.371 . S
C55 C58 1.480 . S
C56 N53 1.372 . S
C56 N54 1.361 . S
C56 C64 1.457 . S
C57 N52 1.363 . S
C57 N54 1.377 . S
C57 C70 1.479 . S
C58 C55 1.480 . S
C58 C59 1.383 . S
C58 C63 1.385 . S
C59 H40 0.947 . S
C59 C58 1.383 . S
C59 C60 1.386 1_455 S
C60 H41 0.952 . S
C60 C59 1.386 1_655 S
C60 C61 1.381 1_655 S
C61 C60 1.381 1_455 S
C61 C62 1.377 . S
C62 H42 0.953 . S
C62 C61 1.377 . S
C62 C63 1.369 . S
C63 H43 0.945 . S
C63 C58 1.385 . S
C63 C62 1.369 . S
C64 C56 1.457 . S
C64 C65 1.376 . S
C64 C69 1.364 . S
C65 H44 0.949 1_455 S
C65 C64 1.376 . S
C65 C66 1.387 1_455 S
C66 H45 0.956 . S
C66 C65 1.387 1_655 S
C66 C67 1.383 1_655 S
C67 C66 1.383 1_455 S
C67 C68 1.372 . S
C68 H46 0.950 . S
C68 C67 1.372 . S
C68 C69 1.379 . S
C69 H47 0.948 . S
C69 C64 1.364 . S
C69 C68 1.379 . S
C70 C39 1.383 . S
C70 C57 1.479 . S
C70 C71 1.398 . S
C71 C36 1.382 1_455 S
C71 H48 0.951 1_455 S
C71 C70 1.398 . S
C72 C73 1.384 1_565 S
C72 H85 0.948 . S
C72 C107 1.382 1_565 S
C73 C72 1.384 1_545 S
C73 C74 1.378 . S
C74 C73 1.378 . S
C74 C75 1.378 . S
C74 H86 0.952 . S
C75 C74 1.378 . S
C75 H87 0.950 . S
C75 C106 1.383 . S
H76 C95 0.947 . S
H77 C96 0.952 . S
H78 C98 0.953 . S
H79 C99 0.945 . S
H80 C101 0.949 1_565 S
H81 C102 0.957 . S
H82 C104 0.950 . S
H83 C105 0.948 . S
H84 C107 0.951 1_565 S
H85 C72 0.948 . S
H86 C74 0.952 . S
H87 C75 0.950 . S
N88 C91 1.382 . S
N88 C93 1.363 . S
N89 C91 1.371 . S
N89 C92 1.372 . S
N90 C92 1.361 . S
N90 C93 1.377 . S
C91 N88 1.382 . S
C91 N89 1.371 . S
C91 C94 1.480 . S
C92 N89 1.372 . S
C92 N90 1.361 . S
C92 C100 1.457 . S
C93 N88 1.363 . S
C93 N90 1.377 . S
C93 C106 1.479 . S
C94 C91 1.480 . S
C94 C95 1.383 . S
C94 C99 1.385 . S
C95 H76 0.947 . S
C95 C94 1.383 . S
C95 C96 1.386 1_545 S
C96 H77 0.952 . S
C96 C95 1.386 1_565 S
C96 C97 1.381 1_565 S
C97 C96 1.381 1_545 S
C97 C98 1.377 . S
C98 H78 0.953 . S
C98 C97 1.377 . S
C98 C99 1.369 . S
C99 H79 0.945 . S
C99 C94 1.385 . S
C99 C98 1.369 . S
C100 C92 1.457 . S
C100 C101 1.376 . S
C100 C105 1.364 . S
C101 H80 0.949 1_545 S
C101 C100 1.376 . S
C101 C102 1.386 1_545 S
C102 H81 0.957 . S
C102 C101 1.386 1_565 S
C102 C103 1.383 1_565 S
C103 C102 1.383 1_545 S
C103 C104 1.372 . S
C104 H82 0.950 . S
C104 C103 1.372 . S
C104 C105 1.379 . S
C105 H83 0.948 . S
C105 C100 1.364 . S
C105 C104 1.379 . S
C106 C75 1.383 . S
C106 C93 1.479 . S
C106 C107 1.398 . S
C107 C72 1.382 1_545 S
C107 H84 0.951 1_545 S
C107 C106 1.398 . S
C108 C109 1.384 . S
C108 H121 0.947 . S
C108 C143 1.382 . S
C109 C108 1.384 . S
C109 C110 1.378 . S
C110 C109 1.378 . S
C110 C111 1.378 . S
C110 H122 0.952 . S
C111 C110 1.378 . S
C111 H123 0.950 . S
C111 C142 1.383 . S
H112 C131 0.947 . S
H113 C132 0.946 . S
H114 C134 0.953 . S
H115 C135 0.945 . S
H116 C137 0.952 . S
H117 C138 0.949 . S
H118 C140 0.950 . S
H119 C141 0.948 . S
H120 C143 0.951 . S
H121 C108 0.947 . S
H122 C110 0.952 . S
H123 C111 0.950 . S
N124 C127 1.382 . S
N124 C129 1.363 . S
N125 C127 1.371 . S
N125 C128 1.372 . S
N126 C128 1.361 . S
N126 C129 1.377 . S
C127 N124 1.382 . S
C127 N125 1.371 . S
C127 C130 1.480 . S
C128 N125 1.372 . S
C128 N126 1.361 . S
C128 C136 1.457 . S
C129 N124 1.363 . S
C129 N126 1.377 . S
C129 C142 1.479 . S
C130 C127 1.480 . S
C130 C131 1.383 . S
C130 C135 1.385 . S
C131 H112 0.947 . S
C131 C130 1.383 . S
C131 C132 1.388 . S
C132 H113 0.946 . S
C132 C131 1.388 . S
C132 C133 1.384 . S
C133 C132 1.384 . S
C133 C134 1.377 . S
C134 H114 0.953 . S
C134 C133 1.377 . S
C134 C135 1.369 . S
C135 H115 0.945 . S
C135 C130 1.385 . S
C135 C134 1.369 . S
C136 C128 1.457 . S
C136 C137 1.372 . S
C136 C141 1.364 . S
C137 H116 0.952 . S
C137 C136 1.372 . S
C137 C138 1.389 . S
C138 H117 0.949 . S
C138 C137 1.389 . S
C138 C139 1.387 . S
C139 C138 1.387 . S
C139 C140 1.372 . S
C140 H118 0.950 . S
C140 C139 1.372 . S
C140 C141 1.379 . S
C141 H119 0.948 . S
C141 C136 1.364 . S
C141 C140 1.379 . S
C142 C111 1.383 . S
C142 C129 1.479 . S
C142 C143 1.398 . S
C143 C108 1.382 . S
C143 H120 0.951 . S
C143 C142 1.398 . S
C144 C145 1.384 . S
C144 H157 0.947 . S
C144 C179 1.382 . S
C145 C144 1.384 . S
C145 C146 1.378 . S
C146 C145 1.378 . S
C146 C147 1.378 . S
C146 H158 0.952 . S
C147 C146 1.378 . S
C147 H159 0.950 . S
C147 C178 1.383 . S
H148 C167 0.947 1_556 S
H149 C168 0.946 . S
H150 C170 0.953 . S
H151 C171 0.945 . S
H152 C173 0.952 . S
H153 C174 0.949 . S
H154 C176 0.950 . S
H155 C177 0.948 . S
H156 C179 0.951 . S
H157 C144 0.947 . S
H158 C146 0.952 . S
H159 C147 0.950 . S
N160 C163 1.382 1_556 S
N160 C165 1.363 . S
N161 C163 1.371 . S
N161 C164 1.372 . S
N162 C164 1.361 . S
N162 C165 1.377 1_554 S
C163 N160 1.382 1_554 S
C163 N161 1.371 . S
C163 C166 1.480 . S
C164 N161 1.372 . S
C164 N162 1.361 . S
C164 C172 1.457 . S
C165 N160 1.363 . S
C165 N162 1.377 1_556 S
C165 C178 1.479 . S
C166 C163 1.480 . S
C166 C167 1.383 . S
C166 C171 1.385 . S
C167 H148 0.947 1_554 S
C167 C166 1.383 . S
C167 C168 1.388 . S
C168 H149 0.946 . S
C168 C167 1.388 . S
C168 C169 1.384 . S
C169 C168 1.384 . S
C169 C170 1.377 . S
C170 H150 0.953 . S
C170 C169 1.377 . S
C170 C171 1.369 . S
C171 H151 0.945 . S
C171 C166 1.385 . S
C171 C170 1.369 . S
C172 C164 1.457 . S
C172 C173 1.372 . S
C172 C177 1.364 . S
C173 H152 0.952 . S
C173 C172 1.372 . S
C173 C174 1.389 . S
C174 H153 0.949 . S
C174 C173 1.389 . S
C174 C175 1.387 . S
C175 C174 1.387 . S
C175 C176 1.372 . S
C176 H154 0.950 . S
C176 C175 1.372 . S
C176 C177 1.379 . S
C177 H155 0.948 . S
C177 C172 1.364 . S
C177 C176 1.379 . S
C178 C147 1.383 . S
C178 C165 1.479 . S
C178 C179 1.398 . S
C179 C144 1.382 . S
C179 H156 0.951 . S
C179 C178 1.398 . S
C180 C181 1.384 . S
C180 H193 0.948 1_455 S
C180 C215 1.382 . S
C181 C180 1.384 . S
C181 C182 1.378 . S
C182 C181 1.378 . S
C182 C183 1.378 . S
C182 H194 0.952 . S
C183 C182 1.378 . S
C183 H195 0.950 . S
C183 C214 1.383 . S
H184 C203 0.947 1_556 S
H185 C204 0.949 . S
H186 C206 0.953 . S
H187 C207 0.945 . S
H188 C209 0.947 1_655 S
H189 C210 0.954 . S
H190 C212 0.950 . S
H191 C213 0.948 . S
H192 C215 0.950 1_655 S
H193 C180 0.948 1_655 S
H194 C182 0.952 . S
H195 C183 0.950 . S
N196 C199 1.382 1_556 S
N196 C201 1.363 . S
N197 C199 1.371 . S
N197 C200 1.372 . S
N198 C200 1.361 . S
N198 C201 1.377 1_554 S
C199 N196 1.382 1_554 S
C199 N197 1.371 . S
C199 C202 1.480 . S
C200 N197 1.372 . S
C200 N198 1.361 . S
C200 C208 1.457 . S
C201 N196 1.363 . S
C201 N198 1.377 1_556 S
C201 C214 1.479 . S
C202 C199 1.480 . S
C202 C203 1.383 . S
C202 C207 1.385 . S
C203 H184 0.947 1_554 S
C203 C202 1.383 . S
C203 C204 1.387 1_455 S
C204 H185 0.949 . S
C204 C203 1.387 1_655 S
C204 C205 1.382 1_655 S
C205 C204 1.382 1_455 S
C205 C206 1.377 . S
C206 H186 0.953 . S
C206 C205 1.377 . S
C206 C207 1.369 . S
C207 H187 0.945 . S
C207 C202 1.385 . S
C207 C206 1.369 . S
C208 C200 1.457 . S
C208 C209 1.379 . S
C208 C213 1.364 . S
C209 H188 0.947 1_455 S
C209 C208 1.379 . S
C209 C210 1.387 1_455 S
C210 H189 0.954 . S
C210 C209 1.387 1_655 S
C210 C211 1.384 1_655 S
C211 C210 1.384 1_455 S
C211 C212 1.372 . S
C212 H190 0.950 . S
C212 C211 1.372 . S
C212 C213 1.379 . S
C213 H191 0.948 . S
C213 C208 1.364 . S
C213 C212 1.379 . S
C214 C183 1.383 . S
C214 C201 1.479 . S
C214 C215 1.399 . S
C215 C180 1.382 . S
C215 H192 0.950 1_455 S
C215 C214 1.399 . S
C216 C217 1.384 . S
C216 H229 0.948 1_545 S
C216 C251 1.382 . S
C217 C216 1.384 . S
C217 C218 1.378 . S
C218 C217 1.378 . S
C218 C219 1.378 . S
C218 H230 0.952 . S
C219 C218 1.378 . S
C219 H231 0.950 . S
C219 C250 1.383 . S
H220 C239 0.947 1_556 S
H221 C240 0.949 . S
H222 C242 0.953 . S
H223 C243 0.945 . S
H224 C245 0.947 1_565 S
H225 C246 0.954 . S
H226 C248 0.950 . S
H227 C249 0.948 . S
H228 C251 0.950 1_565 S
H229 C216 0.948 1_565 S
H230 C218 0.952 . S
H231 C219 0.950 . S
N232 C235 1.382 1_556 S
N232 C237 1.363 . S
N233 C235 1.371 . S
N233 C236 1.372 . S
N234 C236 1.361 . S
N234 C237 1.377 1_554 S
C235 N232 1.382 1_554 S
C235 N233 1.371 . S
C235 C238 1.480 . S
C236 N233 1.372 . S
C236 N234 1.361 . S
C236 C244 1.457 . S
C237 N232 1.363 . S
C237 N234 1.377 1_556 S
C237 C250 1.479 . S
C238 C235 1.480 . S
C238 C239 1.383 . S
C238 C243 1.385 . S
C239 H220 0.947 1_554 S
C239 C238 1.383 . S
C239 C240 1.387 1_545 S
C240 H221 0.949 . S
C240 C239 1.387 1_565 S
C240 C241 1.382 1_565 S
C241 C240 1.382 1_545 S
C241 C242 1.377 . S
C242 H222 0.953 . S
C242 C241 1.377 . S
C242 C243 1.369 . S
C243 H223 0.945 . S
C243 C238 1.385 . S
C243 C242 1.369 . S
C244 C236 1.457 . S
C244 C245 1.379 . S
C244 C249 1.364 . S
C245 H224 0.947 1_545 S
C245 C244 1.379 . S
C245 C246 1.387 1_545 S
C246 H225 0.954 . S
C246 C245 1.387 1_565 S
C246 C247 1.384 1_565 S
C247 C246 1.384 1_545 S
C247 C248 1.372 . S
C248 H226 0.950 . S
C248 C247 1.372 . S
C248 C249 1.379 . S
C249 H227 0.948 . S
C249 C244 1.364 . S
C249 C248 1.379 . S
C250 C219 1.383 . S
C250 C237 1.479 . S
C250 C251 1.399 . S
C251 C216 1.382 . S
C251 H228 0.950 1_545 S
C251 C250 1.399 . S
C252 C253 1.384 . S
C252 H265 0.947 . S
C252 C287 1.382 . S
C253 C252 1.384 . S
C253 C254 1.378 . S
C254 C253 1.378 . S
C254 C255 1.378 . S
C254 H266 0.952 . S
C255 C254 1.378 . S
C255 H267 0.950 . S
C255 C286 1.383 . S
H256 C275 0.947 . S
H257 C276 0.946 . S
H258 C278 0.953 1_556 S
H259 C279 0.945 1_556 S
H260 C281 0.952 . S
H261 C282 0.949 . S
H262 C284 0.950 . S
H263 C285 0.948 . S
H264 C287 0.951 . S
H265 C252 0.947 . S
H266 C254 0.952 . S
H267 C255 0.950 . S
N268 C271 1.382 . S
N268 C273 1.363 . S
N269 C271 1.371 1_556 S
N269 C272 1.372 . S
N270 C272 1.361 1_554 S
N270 C273 1.377 . S
C271 N268 1.382 . S
C271 N269 1.371 1_554 S
C271 C274 1.480 . S
C272 N269 1.372 . S
C272 N270 1.361 1_556 S
C272 C280 1.457 . S
C273 N268 1.363 . S
C273 N270 1.377 . S
C273 C286 1.479 . S
C274 C271 1.480 . S
C274 C275 1.383 . S
C274 C279 1.385 . S
C275 H256 0.947 . S
C275 C274 1.383 . S
C275 C276 1.388 . S
C276 H257 0.946 . S
C276 C275 1.388 . S
C276 C277 1.384 . S
C277 C276 1.384 . S
C277 C278 1.377 . S
C278 H258 0.953 1_554 S
C278 C277 1.377 . S
C278 C279 1.369 . S
C279 H259 0.945 1_554 S
C279 C274 1.385 . S
C279 C278 1.369 . S
C280 C272 1.457 . S
C280 C281 1.372 . S
C280 C285 1.364 . S
C281 H260 0.952 . S
C281 C280 1.372 . S
C281 C282 1.389 . S
C282 H261 0.949 . S
C282 C281 1.389 . S
C282 C283 1.387 . S
C283 C282 1.387 . S
C283 C284 1.372 . S
C284 H262 0.950 . S
C284 C283 1.372 . S
C284 C285 1.379 . S
C285 H263 0.948 . S
C285 C280 1.364 . S
C285 C284 1.379 . S
C286 C255 1.383 . S
C286 C273 1.479 . S
C286 C287 1.398 . S
C287 C252 1.382 . S
C287 H264 0.951 . S
C287 C286 1.398 . S
La288 C290 2.928 . S
La288 O308 2.521 . S
La288 O309 2.628 . S
La288 O310 2.554 . S
La288 O311 2.757 1_565 S
La288 O312 2.470 . S
La288 O317 2.482 1_455 S
La288 O319 2.503 1_565 S
La289 C299 2.928 . S
La289 O311 2.482 1_655 S
La289 O313 2.503 1_545 S
La289 O314 2.521 . S
La289 O315 2.628 . S
La289 O316 2.554 . S
La289 O317 2.757 1_545 S
La289 O318 2.470 . S
C290 La288 2.928 . S
C290 C291 1.503 . S
C290 O308 1.261 . S
C290 O309 1.243 . S
C291 C290 1.503 . S
C291 C292 1.394 . S
C291 C296 1.373 . S
C292 C291 1.394 . S
C292 C293 1.380 . S
C292 H320 0.930 . S
C293 C292 1.380 . S
C293 C294 1.376 . S
C293 H321 0.930 . S
C294 C293 1.376 . S
C294 C295 1.370 . S
C295 C294 1.370 . S
C295 C296 1.396 . S
C295 H322 0.933 1_455 S
C296 C291 1.373 . S
C296 C295 1.396 . S
C296 H323 0.929 1_455 S
C297 O310 1.269 . S
C297 O311 1.272 1_565 S
C298 O312 1.258 1_655 S
C298 O313 1.256 . S
C299 La289 2.928 . S
C299 C300 1.503 . S
C299 O314 1.261 . S
C299 O315 1.243 . S
C300 C299 1.503 . S
C300 C301 1.394 . S
C300 C305 1.373 . S
C301 C300 1.394 . S
C301 C302 1.380 . S
C301 H324 0.930 . S
C302 C301 1.380 . S
C302 C303 1.376 . S
C302 H325 0.930 . S
C303 C302 1.376 . S
C303 C304 1.370 . S
C304 C303 1.370 . S
C304 C305 1.396 . S
C304 H326 0.924 1_655 S
C305 C300 1.373 . S
C305 C304 1.396 . S
C305 H327 0.929 1_655 S
C306 O316 1.240 . S
C306 O317 1.289 1_545 S
C307 O318 1.258 1_455 S
C307 O319 1.256 . S
O308 La288 2.521 . S
O308 C290 1.261 . S
O309 La288 2.628 . S
O309 C290 1.243 . S
O310 La288 2.554 . S
O310 C297 1.269 . S
O311 La288 2.757 1_545 S
O311 La289 2.482 1_455 S
O311 C297 1.272 1_545 S
O312 La288 2.470 . S
O312 C298 1.258 1_455 S
O313 La289 2.503 1_565 S
O313 C298 1.256 . S
O314 La289 2.521 . S
O314 C299 1.261 . S
O315 La289 2.628 . S
O315 C299 1.243 . S
O316 La289 2.554 . S
O316 C306 1.240 . S
O317 La288 2.482 1_655 S
O317 La289 2.757 1_565 S
O317 C306 1.289 1_565 S
O318 La289 2.470 . S
O318 C307 1.258 1_655 S
O319 La288 2.503 1_545 S
O319 C307 1.256 . S
H320 C292 0.930 . S
H321 C293 0.930 . S
H322 C295 0.933 1_655 S
H323 C296 0.929 1_655 S
H324 C301 0.930 . S
H325 C302 0.930 . S
H326 C304 0.924 1_455 S
H327 C305 0.929 1_455 S
La328 C330 2.928 . S
La328 O348 2.521 . S
La328 O349 2.628 . S
La328 O350 2.554 . S
La328 O351 2.757 . S
La328 O352 2.470 . S
La328 O357 2.482 1_545 S
La328 O359 2.503 . S
La329 C339 2.928 . S
La329 O351 2.482 1_565 S
La329 O353 2.503 . S
La329 O354 2.521 . S
La329 O355 2.628 . S
La329 O356 2.554 . S
La329 O357 2.757 . S
La329 O358 2.470 . S
C330 La328 2.928 . S
C330 C331 1.503 . S
C330 O348 1.261 . S
C330 O349 1.243 . S
C331 C330 1.503 . S
C331 C332 1.394 . S
C331 C336 1.373 . S
C332 C331 1.394 . S
C332 C333 1.380 . S
C332 H360 0.930 . S
C333 C332 1.380 . S
C333 C334 1.376 . S
C333 H361 0.930 . S
C334 C333 1.376 . S
C334 C335 1.370 . S
C335 C334 1.370 . S
C335 C336 1.396 . S
C335 H362 0.913 1_545 S
C336 C331 1.373 . S
C336 C335 1.396 . S
C336 H363 0.929 1_545 S
C337 O350 1.240 . S
C337 O351 1.289 . S
C338 O352 1.258 1_565 S
C338 O353 1.256 . S
C339 La329 2.928 . S
C339 C340 1.503 . S
C339 O354 1.261 . S
C339 O355 1.243 . S
C340 C339 1.503 . S
C340 C341 1.394 . S
C340 C345 1.373 . S
C341 C340 1.394 . S
C341 C342 1.380 . S
C341 H364 0.930 . S
C342 C341 1.380 . S
C342 C343 1.376 . S
C342 H365 0.930 . S
C343 C342 1.376 . S
C343 C344 1.370 . S
C344 C343 1.370 . S
C344 C345 1.396 . S
C344 H366 0.903 1_565 S
C345 C340 1.373 . S
C345 C344 1.396 . S
C345 H367 0.929 1_565 S
C346 O356 1.240 . S
C346 O357 1.289 . S
C347 O358 1.258 1_545 S
C347 O359 1.256 . S
O348 La328 2.521 . S
O348 C330 1.261 . S
O349 La328 2.628 . S
O349 C330 1.243 . S
O350 La328 2.554 . S
O350 C337 1.240 . S
O351 La328 2.757 . S
O351 La329 2.482 1_545 S
O351 C337 1.289 . S
O352 La328 2.470 . S
O352 C338 1.258 1_545 S
O353 La329 2.503 . S
O353 C338 1.256 . S
O354 La329 2.521 . S
O354 C339 1.261 . S
O355 La329 2.628 . S
O355 C339 1.243 . S
O356 La329 2.554 . S
O356 C346 1.240 . S
O357 La328 2.482 1_565 S
O357 La329 2.757 . S
O357 C346 1.289 . S
O358 La329 2.470 . S
O358 C347 1.258 1_565 S
O359 La328 2.503 . S
O359 C347 1.256 . S
H360 C332 0.930 . S
H361 C333 0.930 . S
H362 C335 0.913 1_565 S
H363 C336 0.929 1_565 S
H364 C341 0.930 . S
H365 C342 0.930 . S
H366 C344 0.903 1_545 S
H367 C345 0.929 1_545 S
La368 C370 2.928 . S
La368 O388 2.521 . S
La368 O389 2.628 . S
La368 O390 2.554 . S
La368 O391 2.757 . S
La368 O392 2.470 . S
La368 O397 2.482 . S
La368 O399 2.503 . S
La369 C379 2.928 . S
La369 O391 2.482 . S
La369 O393 2.503 . S
La369 O394 2.521 . S
La369 O395 2.628 . S
La369 O396 2.554 . S
La369 O397 2.757 . S
La369 O398 2.470 . S
C370 La368 2.928 . S
C370 C371 1.503 . S
C370 O388 1.261 . S
C370 O389 1.243 . S
C371 C370 1.503 . S
C371 C372 1.394 . S
C371 C376 1.373 . S
C372 C371 1.394 . S
C372 C373 1.380 . S
C372 H400 0.930 . S
C373 C372 1.380 . S
C373 C374 1.376 . S
C373 H401 0.930 . S
C374 C373 1.376 . S
C374 C375 1.370 . S
C375 C374 1.370 . S
C375 C376 1.396 . S
C375 H402 0.929 . S
C376 C371 1.373 . S
C376 C375 1.396 . S
C376 H403 0.929 . S
C377 O390 1.240 . S
C377 O391 1.289 . S
C378 O392 1.258 . S
C378 O393 1.256 . S
C379 La369 2.928 . S
C379 C380 1.503 . S
C379 O394 1.261 . S
C379 O395 1.243 . S
C380 C379 1.503 . S
C380 C381 1.394 . S
C380 C385 1.373 . S
C381 C380 1.394 . S
C381 C382 1.380 . S
C381 H404 0.930 . S
C382 C381 1.380 . S
C382 C383 1.376 . S
C382 H405 0.930 . S
C383 C382 1.376 . S
C383 C384 1.370 . S
C384 C383 1.370 . S
C384 C385 1.396 . S
C384 H406 0.929 . S
C385 C380 1.373 . S
C385 C384 1.396 . S
C385 H407 0.929 . S
C386 O396 1.240 . S
C386 O397 1.289 . S
C387 O398 1.258 . S
C387 O399 1.256 . S
O388 La368 2.521 . S
O388 C370 1.261 . S
O389 La368 2.628 . S
O389 C370 1.243 . S
O390 La368 2.554 . S
O390 C377 1.240 . S
O391 La368 2.757 . S
O391 La369 2.482 . S
O391 C377 1.289 . S
O392 La368 2.470 . S
O392 C378 1.258 . S
O393 La369 2.503 . S
O393 C378 1.256 . S
O394 La369 2.521 . S
O394 C379 1.261 . S
O395 La369 2.628 . S
O395 C379 1.243 . S
O396 La369 2.554 . S
O396 C386 1.240 . S
O397 La368 2.482 . S
O397 La369 2.757 . S
O397 C386 1.289 . S
O398 La369 2.470 . S
O398 C387 1.258 . S
O399 La368 2.503 . S
O399 C387 1.256 . S
H400 C372 0.930 . S
H401 C373 0.930 . S
H402 C375 0.929 . S
H403 C376 0.929 . S
H404 C381 0.930 . S
H405 C382 0.930 . S
H406 C384 0.929 . S
H407 C385 0.929 . S
La408 C410 2.928 . S
La408 O428 2.521 . S
La408 O429 2.628 . S
La408 O430 2.554 . S
La408 O431 2.757 1_655 S
La408 O432 2.470 . S
La408 O437 2.482 . S
La408 O439 2.503 1_655 S
La409 C419 2.928 . S
La409 O431 2.482 . S
La409 O433 2.503 1_455 S
La409 O434 2.521 . S
La409 O435 2.628 . S
La409 O436 2.554 . S
La409 O437 2.757 1_455 S
La409 O438 2.470 . S
C410 La408 2.928 . S
C410 C411 1.503 . S
C410 O428 1.261 . S
C410 O429 1.243 . S
C411 C410 1.503 . S
C411 C412 1.394 . S
C411 C416 1.373 . S
C412 C411 1.394 . S
C412 C413 1.380 . S
C412 H440 0.930 . S
C413 C412 1.380 . S
C413 C414 1.376 . S
C413 H441 0.930 . S
C414 C413 1.376 . S
C414 C415 1.370 . S
C415 C414 1.370 . S
C415 C416 1.396 . S
C415 H442 0.929 . S
C416 C411 1.373 . S
C416 C415 1.396 . S
C416 H443 0.929 . S
C417 O430 1.257 . S
C417 O431 1.279 1_655 S
C418 O432 1.258 . S
C418 O433 1.256 . S
C419 La409 2.928 . S
C419 C420 1.503 . S
C419 O434 1.261 . S
C419 O435 1.243 . S
C420 C419 1.503 . S
C420 C421 1.394 . S
C420 C425 1.373 . S
C421 C420 1.394 . S
C421 C422 1.380 . S
C421 H444 0.930 . S
C422 C421 1.380 . S
C422 C423 1.376 . S
C422 H445 0.930 . S
C423 C422 1.376 . S
C423 C424 1.370 . S
C424 C423 1.370 . S
C424 C425 1.396 . S
C424 H446 0.929 . S
C425 C420 1.373 . S
C425 C424 1.396 . S
C425 H447 0.929 . S
C426 O436 1.264 . S
C426 O437 1.275 1_455 S
C427 O438 1.258 . S
C427 O439 1.256 . S
O428 La408 2.521 . S
O428 C410 1.261 . S
O429 La408 2.628 . S
O429 C410 1.243 . S
O430 La408 2.554 . S
O430 C417 1.257 . S
O431 La408 2.757 1_455 S
O431 La409 2.482 . S
O431 C417 1.279 1_455 S
O432 La408 2.470 . S
O432 C418 1.258 . S
O433 La409 2.503 1_655 S
O433 C418 1.256 . S
O434 La409 2.521 . S
O434 C419 1.261 . S
O435 La409 2.628 . S
O435 C419 1.243 . S
O436 La409 2.554 . S
O436 C426 1.264 . S
O437 La408 2.482 . S
O437 La409 2.757 1_655 S
O437 C426 1.275 1_655 S
O438 La409 2.470 . S
O438 C427 1.258 . S
O439 La408 2.503 1_455 S
O439 C427 1.256 . S
H440 C412 0.930 . S
H441 C413 0.930 . S
H442 C415 0.929 . S
H443 C416 0.929 . S
H444 C421 0.930 . S
H445 C422 0.930 . S
H446 C424 0.929 . S
H447 C425 0.929 . S
H448 C456 0.950 . S
H449 C461 0.950 . S
H450 C458 0.950 . S
H451 C460 0.950 . S
H452 C462 0.950 . S
H453 C464 0.950 . S
H454 C466 0.950 . S
H455 C467 0.950 . S
C456 H448 0.950 . S
C456 C457 1.377 1_545 S
C456 C458 1.391 . S
C457 C456 1.377 1_565 S
C457 C461 1.402 . S
C458 H450 0.950 . S
C458 C456 1.391 . S
C458 C459 1.408 . S
C459 C458 1.408 . S
C459 C460 1.390 1_545 S
C459 C465 1.491 . S
C460 H451 0.950 . S
C460 C459 1.390 1_565 S
C460 C461 1.391 . S
C461 H449 0.950 . S
C461 C457 1.402 . S
C461 C460 1.391 . S
C462 H452 0.950 . S
C462 C463 1.386 1_565 S
C462 C464 1.391 . S
C463 C462 1.386 1_545 S
C463 C467 1.393 . S
C464 H453 0.950 . S
C464 C462 1.391 . S
C464 C465 1.400 1_565 S
C465 C459 1.491 . S
C465 C464 1.400 1_545 S
C465 C466 1.398 . S
C466 H454 0.950 . S
C466 C465 1.398 . S
C466 C467 1.391 . S
C467 H455 0.950 . S
C467 C463 1.393 . S
C467 C466 1.391 . S
H468 C476 0.950 . S
H469 C481 0.950 . S
H470 C478 0.950 . S
H471 C480 0.950 . S
H472 C482 0.950 . S
H473 C484 0.950 . S
H474 C486 0.950 . S
H475 C487 0.950 . S
C476 H468 0.950 . S
C476 C477 1.386 . S
C476 C478 1.391 . S
C477 C476 1.386 . S
C477 C481 1.393 . S
C478 H470 0.950 . S
C478 C476 1.391 . S
C478 C479 1.400 . S
C479 C478 1.400 . S
C479 C480 1.398 . S
C479 C485 1.491 . S
C480 H471 0.950 . S
C480 C479 1.398 . S
C480 C481 1.391 . S
C481 H469 0.950 . S
C481 C477 1.393 . S
C481 C480 1.391 . S
C482 H472 0.950 . S
C482 C483 1.386 . S
C482 C484 1.391 . S
C483 C482 1.386 . S
C483 C487 1.393 . S
C484 H473 0.950 . S
C484 C482 1.391 . S
C484 C485 1.400 . S
C485 C479 1.491 . S
C485 C484 1.400 . S
C485 C486 1.398 . S
C486 H474 0.950 . S
C486 C485 1.398 . S
C486 C487 1.391 . S
C487 H475 0.950 . S
C487 C483 1.393 . S
C487 C486 1.391 . S
H488 C496 0.950 . S
H489 C501 0.950 . S
H490 C498 0.950 . S
H491 C500 0.950 . S
H492 C502 0.950 . S
H493 C504 0.950 . S
H494 C506 0.950 . S
H495 C507 0.950 . S
C496 H488 0.950 . S
C496 C497 1.386 . S
C496 C498 1.391 . S
C497 C496 1.386 . S
C497 C501 1.393 . S
C498 H490 0.950 . S
C498 C496 1.391 . S
C498 C499 1.400 . S
C499 C498 1.400 . S
C499 C500 1.398 . S
C499 C505 1.491 . S
C500 H491 0.950 . S
C500 C499 1.398 . S
C500 C501 1.391 . S
C501 H489 0.950 . S
C501 C497 1.393 . S
C501 C500 1.391 . S
C502 H492 0.950 . S
C502 C503 1.386 . S
C502 C504 1.391 . S
C503 C502 1.386 . S
C503 C507 1.393 . S
C504 H493 0.950 . S
C504 C502 1.391 . S
C504 C505 1.400 . S
C505 C499 1.491 . S
C505 C504 1.400 . S
C505 C506 1.398 . S
C506 H494 0.950 . S
C506 C505 1.398 . S
C506 C507 1.391 . S
C507 H495 0.950 . S
C507 C503 1.393 . S
C507 C506 1.391 . S
H508 C516 0.950 . S
H509 C521 0.950 . S
H510 C518 0.950 . S
H511 C520 0.950 . S
H512 C522 0.950 . S
H513 C524 0.950 . S
H514 C526 0.950 . S
H515 C527 0.950 . S
C516 H508 0.950 . S
C516 C517 1.389 . S
C516 C518 1.391 . S
C517 C516 1.389 . S
C517 C521 1.389 1_455 S
C518 H510 0.950 . S
C518 C516 1.391 . S
C518 C519 1.433 . S
C519 C518 1.433 . S
C519 C520 1.365 1_455 S
C519 C525 1.492 . S
C520 H511 0.950 . S
C520 C519 1.365 1_655 S
C520 C521 1.391 . S
C521 H509 0.950 . S
C521 C517 1.389 1_655 S
C521 C520 1.391 . S
C522 H512 0.950 . S
C522 C523 1.386 1_655 S
C522 C524 1.391 . S
C523 C522 1.386 1_455 S
C523 C527 1.393 . S
C524 H513 0.950 . S
C524 C522 1.391 . S
C524 C525 1.400 1_655 S
C525 C519 1.492 . S
C525 C524 1.400 1_455 S
C525 C526 1.398 . S
C526 H514 0.950 . S
C526 C525 1.398 . S
C526 C527 1.391 . S
C527 H515 0.950 . S
C527 C523 1.393 . S
C527 C526 1.391 . S
H528 C536 0.950 . S
H529 C541 0.950 . S
H530 C538 0.950 . S
H531 C540 0.950 . S
H532 C542 0.950 . S
H533 C544 0.950 . S
H534 C546 0.950 1_554 S
H535 C547 0.950 . S
C536 H528 0.950 . S
C536 C537 1.370 1_545 S
C536 C538 1.391 . S
C537 C536 1.370 1_565 S
C537 C541 1.411 . S
C538 H530 0.950 . S
C538 C536 1.391 . S
C538 C539 1.385 1_545 S
C539 C538 1.385 1_565 S
C539 C540 1.416 . S
C539 C545 1.481 1_554 S
C540 H531 0.950 . S
C540 C539 1.416 . S
C540 C541 1.391 . S
C541 H529 0.950 . S
C541 C537 1.411 . S
C541 C540 1.391 . S
C542 H532 0.950 . S
C542 C543 1.389 . S
C542 C544 1.391 . S
C543 C542 1.389 . S
C543 C547 1.389 1_565 S
C544 H533 0.950 . S
C544 C542 1.391 . S
C544 C545 1.412 . S
C545 C539 1.481 1_556 S
C545 C544 1.412 . S
C545 C546 1.396 1_565 S
C546 H534 0.950 1_556 S
C546 C545 1.396 1_545 S
C546 C547 1.391 . S
C547 H535 0.950 . S
C547 C543 1.389 1_545 S
C547 C546 1.391 . S
H548 C556 0.950 . S
H549 C561 0.950 . S
H550 C558 0.950 . S
H551 C560 0.950 . S
H552 C562 0.950 . S
H553 C564 0.950 . S
H554 C566 0.950 . S
H555 C567 0.950 . S
C556 H548 0.950 . S
C556 C557 1.386 . S
C556 C558 1.391 . S
C557 C556 1.386 . S
C557 C561 1.393 . S
C558 H550 0.950 . S
C558 C556 1.391 . S
C558 C559 1.400 . S
C559 C558 1.400 . S
C559 C560 1.398 . S
C559 C565 1.491 . S
C560 H551 0.950 . S
C560 C559 1.398 . S
C560 C561 1.391 . S
C561 H549 0.950 . S
C561 C557 1.393 . S
C561 C560 1.391 . S
C562 H552 0.950 . S
C562 C563 1.386 . S
C562 C564 1.391 . S
C563 C562 1.386 . S
C563 C567 1.393 . S
C564 H553 0.950 . S
C564 C562 1.391 . S
C564 C565 1.400 1_556 S
C565 C559 1.491 . S
C565 C564 1.400 1_554 S
C565 C566 1.398 1_554 S
C566 H554 0.950 . S
C566 C565 1.398 1_556 S
C566 C567 1.391 . S
C567 H555 0.950 . S
C567 C563 1.393 . S
C567 C566 1.391 . S
H568 C576 0.950 . S
H569 C581 0.950 . S
H570 C578 0.950 . S
H571 C580 0.950 . S
H572 C582 0.950 . S
H573 C584 0.950 . S
H574 C586 0.950 1_554 S
H575 C587 0.950 . S
C576 H568 0.950 . S
C576 C577 1.386 . S
C576 C578 1.391 . S
C577 C576 1.386 . S
C577 C581 1.393 . S
C578 H570 0.950 . S
C578 C576 1.391 . S
C578 C579 1.400 . S
C579 C578 1.400 . S
C579 C580 1.398 . S
C579 C585 1.499 . S
C580 H571 0.950 . S
C580 C579 1.398 . S
C580 C581 1.391 . S
C581 H569 0.950 . S
C581 C577 1.393 . S
C581 C580 1.391 . S
C582 H572 0.950 . S
C582 C583 1.386 . S
C582 C584 1.391 . S
C583 C582 1.386 . S
C583 C587 1.393 . S
C584 H573 0.950 . S
C584 C582 1.391 . S
C584 C585 1.395 1_556 S
C585 C579 1.499 . S
C585 C584 1.395 1_554 S
C585 C586 1.395 1_554 S
C586 H574 0.950 1_556 S
C586 C585 1.395 1_556 S
C586 C587 1.391 . S
C587 H575 0.950 . S
C587 C583 1.393 . S
C587 C586 1.391 . S
H588 C596 0.950 . S
H589 C601 0.950 . S
H590 C598 0.950 . S
H591 C600 0.950 . S
H592 C602 0.950 . S
H593 C604 0.950 1_554 S
H594 C606 0.950 . S
H595 C607 0.950 . S
C596 H588 0.950 . S
C596 C597 1.389 . S
C596 C598 1.391 . S
C597 C596 1.389 . S
C597 C601 1.390 1_455 S
C598 H590 0.950 . S
C598 C596 1.391 . S
C598 C599 1.386 1_455 S
C599 C598 1.386 1_655 S
C599 C600 1.411 . S
C599 C605 1.478 1_554 S
C600 H591 0.950 . S
C600 C599 1.411 . S
C600 C601 1.391 . S
C601 H589 0.950 . S
C601 C597 1.390 1_655 S
C601 C600 1.391 . S
C602 H592 0.950 . S
C602 C603 1.386 . S
C602 C604 1.391 . S
C603 C602 1.386 . S
C603 C607 1.393 1_655 S
C604 H593 0.950 1_556 S
C604 C602 1.391 . S
C604 C605 1.403 . S
C605 C599 1.478 1_556 S
C605 C604 1.403 . S
C605 C606 1.410 1_655 S
C606 H594 0.950 . S
C606 C605 1.410 1_455 S
C606 C607 1.391 . S
C607 H595 0.950 . S
C607 C603 1.393 1_455 S
C607 C606 1.391 . S
H608 C616 0.950 . S
H609 C621 0.950 . S
H610 C618 0.950 1_455 S
H611 C620 0.950 . S
H612 C622 0.950 . S
H613 C624 0.950 . S
H614 C626 0.950 . S
H615 C627 0.950 . S
C616 H608 0.950 . S
C616 C617 1.386 . S
C616 C618 1.391 1_455 S
C617 C616 1.386 . S
C617 C621 1.393 1_455 S
C618 H610 0.950 1_655 S
C618 C616 1.391 1_655 S
C618 C619 1.400 . S
C619 C618 1.400 . S
C619 C620 1.398 . S
C619 C625 1.491 . S
C620 H611 0.950 . S
C620 C619 1.398 . S
C620 C621 1.391 . S
C621 H609 0.950 . S
C621 C617 1.393 1_655 S
C621 C620 1.391 . S
C622 H612 0.950 . S
C622 C623 1.386 . S
C622 C624 1.391 . S
C623 C622 1.386 . S
C623 C627 1.393 . S
C624 H613 0.950 . S
C624 C622 1.391 . S
C624 C625 1.400 . S
C625 C619 1.491 . S
C625 C624 1.400 . S
C625 C626 1.398 . S
C626 H614 0.950 . S
C626 C625 1.398 . S
C626 C627 1.391 . S
C627 H615 0.950 . S
C627 C623 1.393 . S
C627 C626 1.391 . S
H628 C636 0.950 . S
H629 C641 0.950 . S
H630 C638 0.950 . S
H631 C640 0.950 . S
H632 C642 0.950 . S
H633 C644 0.950 1_545 S
H634 C646 0.950 . S
H635 C647 0.950 . S
C636 H628 0.950 . S
C636 C637 1.386 1_565 S
C636 C638 1.391 . S
C637 C636 1.386 1_545 S
C637 C641 1.393 . S
C638 H630 0.950 . S
C638 C636 1.391 . S
C638 C639 1.400 . S
C639 C638 1.400 . S
C639 C640 1.398 1_565 S
C639 C645 1.491 . S
C640 H631 0.950 . S
C640 C639 1.398 1_545 S
C640 C641 1.391 . S
C641 H629 0.950 . S
C641 C637 1.393 . S
C641 C640 1.391 . S
C642 H632 0.950 . S
C642 C643 1.386 . S
C642 C644 1.391 . S
C643 C642 1.386 . S
C643 C647 1.393 . S
C644 H633 0.950 1_565 S
C644 C642 1.391 . S
C644 C645 1.400 . S
C645 C639 1.491 . S
C645 C644 1.400 . S
C645 C646 1.398 . S
C646 H634 0.950 . S
C646 C645 1.398 . S
C646 C647 1.391 . S
C647 H635 0.950 . S
C647 C643 1.393 . S
C647 C646 1.391 . S
H648 C656 0.950 . S
H649 C661 0.950 . S
H650 C658 0.950 . S
H651 C660 0.950 . S
H652 C662 0.950 . S
H653 C664 0.950 . S
H654 C666 0.950 . S
H655 C667 0.950 . S
C656 H648 0.950 . S
C656 C657 1.386 . S
C656 C658 1.391 . S
C657 C656 1.386 . S
C657 C661 1.393 . S
C658 H650 0.950 . S
C658 C656 1.391 . S
C658 C659 1.400 . S
C659 C658 1.400 . S
C659 C660 1.398 . S
C659 C665 1.491 . S
C660 H651 0.950 . S
C660 C659 1.398 . S
C660 C661 1.391 . S
C661 H649 0.950 . S
C661 C657 1.393 . S
C661 C660 1.391 . S
C662 H652 0.950 . S
C662 C663 1.386 . S
C662 C664 1.391 . S
C663 C662 1.386 . S
C663 C667 1.393 . S
C664 H653 0.950 . S
C664 C662 1.391 . S
C664 C665 1.400 . S
C665 C659 1.491 . S
C665 C664 1.400 . S
C665 C666 1.398 . S
C666 H654 0.950 . S
C666 C665 1.398 . S
C666 C667 1.391 . S
C667 H655 0.950 . S
C667 C663 1.393 . S
C667 C666 1.391 . S
H668 C676 0.950 . S
H669 C681 0.950 . S
H670 C678 0.950 . S
H671 C680 0.950 . S
H672 C682 0.950 . S
H673 C684 0.950 . S
H674 C686 0.950 . S
H675 C687 0.950 . S
C676 H668 0.950 . S
C676 C677 1.386 . S
C676 C678 1.391 . S
C677 C676 1.386 . S
C677 C681 1.393 . S
C678 H670 0.950 . S
C678 C676 1.391 . S
C678 C679 1.400 . S
C679 C678 1.400 . S
C679 C680 1.398 . S
C679 C685 1.491 . S
C680 H671 0.950 . S
C680 C679 1.398 . S
C680 C681 1.391 . S
C681 H669 0.950 . S
C681 C677 1.393 . S
C681 C680 1.391 . S
C682 H672 0.950 . S
C682 C683 1.386 . S
C682 C684 1.391 . S
C683 C682 1.386 . S
C683 C687 1.393 . S
C684 H673 0.950 . S
C684 C682 1.391 . S
C684 C685 1.400 . S
C685 C679 1.491 . S
C685 C684 1.400 . S
C685 C686 1.398 . S
C686 H674 0.950 . S
C686 C685 1.398 . S
C686 C687 1.391 . S
C687 H675 0.950 . S
C687 C683 1.393 . S
C687 C686 1.391 . S
H688 C696 0.950 . S
H689 C701 0.950 . S
H690 C698 0.950 1_556 S
H691 C700 0.950 . S
H692 C702 0.950 . S
H693 C704 0.950 . S
H694 C706 0.950 . S
H695 C707 0.950 . S
C696 H688 0.950 . S
C696 C697 1.386 1_455 S
C696 C698 1.391 . S
C697 C696 1.386 1_655 S
C697 C701 1.393 . S
C698 H690 0.950 1_554 S
C698 C696 1.391 . S
C698 C699 1.400 . S
C699 C698 1.400 . S
C699 C700 1.398 1_455 S
C699 C705 1.491 . S
C700 H691 0.950 . S
C700 C699 1.398 1_655 S
C700 C701 1.391 . S
C701 H689 0.950 . S
C701 C697 1.393 . S
C701 C700 1.391 . S
C702 H692 0.950 . S
C702 C703 1.386 1_554 S
C702 C704 1.391 . S
C703 C702 1.386 1_556 S
C703 C707 1.393 . S
C704 H693 0.950 . S
C704 C702 1.391 . S
C704 C705 1.400 . S
C705 C699 1.491 . S
C705 C704 1.400 . S
C705 C706 1.398 1_554 S
C706 H694 0.950 . S
C706 C705 1.398 1_556 S
C706 C707 1.391 . S
C707 H695 0.950 . S
C707 C703 1.393 . S
C707 C706 1.391 . S
H708 C716 0.950 . S
H709 C721 0.950 . S
H710 C718 0.950 1_556 S
H711 C720 0.950 . S
H712 C722 0.950 . S
H713 C724 0.950 . S
H714 C726 0.950 . S
H715 C727 0.950 . S
C716 H708 0.950 . S
C716 C717 1.386 1_545 S
C716 C718 1.391 . S
C717 C716 1.386 1_565 S
C717 C721 1.393 . S
C718 H710 0.950 1_554 S
C718 C716 1.391 . S
C718 C719 1.400 . S
C719 C718 1.400 . S
C719 C720 1.398 . S
C719 C725 1.491 . S
C720 H711 0.950 . S
C720 C719 1.398 . S
C720 C721 1.391 1_545 S
C721 H709 0.950 . S
C721 C717 1.393 . S
C721 C720 1.391 1_565 S
C722 H712 0.950 . S
C722 C723 1.386 1_554 S
C722 C724 1.391 . S
C723 C722 1.386 1_556 S
C723 C727 1.393 . S
C724 H713 0.950 . S
C724 C722 1.391 . S
C724 C725 1.400 . S
C725 C719 1.491 . S
C725 C724 1.400 . S
C725 C726 1.398 1_554 S
C726 H714 0.950 . S
C726 C725 1.398 1_556 S
C726 C727 1.391 . S
C727 H715 0.950 . S
C727 C723 1.393 . S
C727 C726 1.391 . S
H728 C736 0.950 . S
H729 C741 0.950 . S
H730 C738 0.950 1_556 S
H731 C740 0.950 . S
H732 C742 0.950 . S
H733 C744 0.950 . S
H734 C746 0.950 . S
H735 C747 0.950 . S
C736 H728 0.950 . S
C736 C737 1.386 . S
C736 C738 1.391 . S
C737 C736 1.386 . S
C737 C741 1.393 . S
C738 H730 0.950 1_554 S
C738 C736 1.391 . S
C738 C739 1.400 . S
C739 C738 1.400 . S
C739 C740 1.398 . S
C739 C745 1.491 . S
C740 H731 0.950 . S
C740 C739 1.398 . S
C740 C741 1.391 . S
C741 H729 0.950 . S
C741 C737 1.393 . S
C741 C740 1.391 . S
C742 H732 0.950 . S
C742 C743 1.386 1_554 S
C742 C744 1.391 . S
C743 C742 1.386 1_556 S
C743 C747 1.393 . S
C744 H733 0.950 . S
C744 C742 1.391 . S
C744 C745 1.400 . S
C745 C739 1.491 . S
C745 C744 1.400 . S
C745 C746 1.398 1_554 S
C746 H734 0.950 . S
C746 C745 1.398 1_556 S
C746 C747 1.391 . S
C747 H735 0.950 . S
C747 C743 1.393 . S
C747 C746 1.391 . S
H748 C756 0.950 . S
H749 C761 0.950 . S
H750 C758 0.950 . S
H751 C760 0.950 . S
H752 C762 0.950 . S
H753 C764 0.950 . S
H754 C766 0.950 . S
H755 C767 0.950 . S
C756 H748 0.950 . S
C756 C757 1.386 . S
C756 C758 1.391 . S
C757 C756 1.386 . S
C757 C761 1.393 . S
C758 H750 0.950 . S
C758 C756 1.391 . S
C758 C759 1.400 . S
C759 C758 1.400 . S
C759 C760 1.398 . S
C759 C765 1.491 . S
C760 H751 0.950 . S
C760 C759 1.398 . S
C760 C761 1.391 . S
C761 H749 0.950 . S
C761 C757 1.393 . S
C761 C760 1.391 . S
C762 H752 0.950 . S
C762 C763 1.386 . S
C762 C764 1.391 1_556 S
C763 C762 1.386 . S
C763 C767 1.393 . S
C764 H753 0.950 . S
C764 C762 1.391 1_554 S
C764 C765 1.400 . S
C765 C759 1.491 . S
C765 C764 1.400 . S
C765 C766 1.398 1_554 S
C766 H754 0.950 . S
C766 C765 1.398 1_556 S
C766 C767 1.391 . S
C767 H755 0.950 . S
C767 C763 1.393 . S
C767 C766 1.391 . S
H768 C776 0.950 . S
H769 C781 0.950 . S
H770 C778 0.950 . S
H771 C780 0.950 . S
H772 C782 0.950 . S
H773 C784 0.950 . S
H774 C786 0.950 1_655 S
H775 C787 0.950 . S
C776 H768 0.950 . S
C776 C777 1.386 1_655 S
C776 C778 1.391 . S
C777 C776 1.386 1_455 S
C777 C781 1.393 . S
C778 H770 0.950 . S
C778 C776 1.391 . S
C778 C779 1.400 1_655 S
C779 C778 1.400 1_455 S
C779 C780 1.398 . S
C779 C785 1.491 . S
C780 H771 0.950 . S
C780 C779 1.398 . S
C780 C781 1.391 . S
C781 H769 0.950 . S
C781 C777 1.393 . S
C781 C780 1.391 . S
C782 H772 0.950 . S
C782 C783 1.386 . S
C782 C784 1.391 . S
C783 C782 1.386 . S
C783 C787 1.393 . S
C784 H773 0.950 . S
C784 C782 1.391 . S
C784 C785 1.400 . S
C785 C779 1.491 . S
C785 C784 1.400 . S
C785 C786 1.398 . S
C786 H774 0.950 1_455 S
C786 C785 1.398 . S
C786 C787 1.391 . S
C787 H775 0.950 . S
C787 C783 1.393 . S
C787 C786 1.391 . S
H788 C796 0.950 . S
H789 C801 0.950 . S
H790 C798 0.950 . S
H791 C800 0.950 . S
H792 C802 0.950 . S
H793 C804 0.950 . S
H794 C806 0.950 . S
H795 C807 0.950 . S
C796 H788 0.950 . S
C796 C797 1.386 1_565 S
C796 C798 1.391 . S
C797 C796 1.386 1_545 S
C797 C801 1.393 . S
C798 H790 0.950 . S
C798 C796 1.391 . S
C798 C799 1.400 1_565 S
C799 C798 1.400 1_545 S
C799 C800 1.398 . S
C799 C805 1.491 . S
C800 H791 0.950 . S
C800 C799 1.398 . S
C800 C801 1.391 . S
C801 H789 0.950 . S
C801 C797 1.393 . S
C801 C800 1.391 . S
C802 H792 0.950 . S
C802 C803 1.386 . S
C802 C804 1.391 . S
C803 C802 1.386 . S
C803 C807 1.393 1_545 S
C804 H793 0.950 . S
C804 C802 1.391 . S
C804 C805 1.400 . S
C805 C799 1.491 . S
C805 C804 1.400 . S
C805 C806 1.398 1_545 S
C806 H794 0.950 . S
C806 C805 1.398 1_565 S
C806 C807 1.391 . S
C807 H795 0.950 . S
C807 C803 1.393 1_565 S
C807 C806 1.391 . S
H808 C816 0.950 . S
H809 C821 0.950 . S
H810 C818 0.950 . S
H811 C820 0.950 . S
H812 C822 0.950 . S
H813 C824 0.950 . S
H814 C826 0.950 . S
H815 C827 0.950 . S
C816 H808 0.950 . S
C816 C817 1.386 . S
C816 C818 1.391 . S
C817 C816 1.386 . S
C817 C821 1.393 . S
C818 H810 0.950 . S
C818 C816 1.391 . S
C818 C819 1.400 . S
C819 C818 1.400 . S
C819 C820 1.398 . S
C819 C825 1.491 . S
C820 H811 0.950 . S
C820 C819 1.398 . S
C820 C821 1.391 . S
C821 H809 0.950 . S
C821 C817 1.393 . S
C821 C820 1.391 . S
C822 H812 0.950 . S
C822 C823 1.386 . S
C822 C824 1.391 . S
C823 C822 1.386 . S
C823 C827 1.393 . S
C824 H813 0.950 . S
C824 C822 1.391 . S
C824 C825 1.400 . S
C825 C819 1.491 . S
C825 C824 1.400 . S
C825 C826 1.398 . S
C826 H814 0.950 . S
C826 C825 1.398 . S
C826 C827 1.391 . S
C827 H815 0.950 . S
C827 C823 1.393 . S
C827 C826 1.391 . S
H828 C836 0.950 . S
H829 C841 0.950 . S
H830 C838 0.950 . S
H831 C840 0.950 . S
H832 C842 0.950 . S
H833 C844 0.950 . S
H834 C846 0.950 . S
H835 C847 0.950 . S
C836 H828 0.950 . S
C836 C837 1.386 . S
C836 C838 1.391 . S
C837 C836 1.386 . S
C837 C841 1.393 . S
C838 H830 0.950 . S
C838 C836 1.391 . S
C838 C839 1.400 . S
C839 C838 1.400 . S
C839 C840 1.398 . S
C839 C845 1.491 . S
C840 H831 0.950 . S
C840 C839 1.398 . S
C840 C841 1.391 . S
C841 H829 0.950 . S
C841 C837 1.393 . S
C841 C840 1.391 . S
C842 H832 0.950 . S
C842 C843 1.386 . S
C842 C844 1.391 . S
C843 C842 1.386 . S
C843 C847 1.393 . S
C844 H833 0.950 . S
C844 C842 1.391 . S
C844 C845 1.400 . S
C845 C839 1.491 . S
C845 C844 1.400 . S
C845 C846 1.398 . S
C846 H834 0.950 . S
C846 C845 1.398 . S
C846 C847 1.391 . S
C847 H835 0.950 . S
C847 C843 1.393 . S
C847 C846 1.391 . S
H848 C856 0.950 . S
H849 C861 0.950 . S
H850 C858 0.950 . S
H851 C860 0.950 . S
H852 C862 0.950 . S
H853 C864 0.950 . S
H854 C866 0.950 . S
H855 C867 0.950 . S
C856 H848 0.950 . S
C856 C857 1.386 1_455 S
C856 C858 1.391 . S
C857 C856 1.386 1_655 S
C857 C861 1.393 . S
C858 H850 0.950 . S
C858 C856 1.391 . S
C858 C859 1.400 1_455 S
C859 C858 1.400 1_655 S
C859 C860 1.398 . S
C859 C865 1.491 . S
C860 H851 0.950 . S
C860 C859 1.398 . S
C860 C861 1.391 . S
C861 H849 0.950 . S
C861 C857 1.393 . S
C861 C860 1.391 . S
C862 H852 0.950 . S
C862 C863 1.386 . S
C862 C864 1.391 . S
C863 C862 1.386 . S
C863 C867 1.393 1_655 S
C864 H853 0.950 . S
C864 C862 1.391 . S
C864 C865 1.400 . S
C865 C859 1.491 . S
C865 C864 1.400 . S
C865 C866 1.398 1_655 S
C866 H854 0.950 . S
C866 C865 1.398 1_455 S
C866 C867 1.391 . S
C867 H855 0.950 . S
C867 C863 1.393 1_455 S
C867 C866 1.391 . S
H868 C876 0.950 . S
H869 C881 0.950 . S
H870 C878 0.950 . S
H871 C880 0.950 . S
H872 C882 0.950 . S
H873 C884 0.950 . S
H874 C886 0.950 . S
H875 C887 0.950 . S
C876 H868 0.950 . S
C876 C877 1.386 . S
C876 C878 1.391 . S
C877 C876 1.386 . S
C877 C881 1.393 . S
C878 H870 0.950 . S
C878 C876 1.391 . S
C878 C879 1.400 . S
C879 C878 1.400 . S
C879 C880 1.398 . S
C879 C885 1.491 . S
C880 H871 0.950 . S
C880 C879 1.398 . S
C880 C881 1.391 . S
C881 H869 0.950 . S
C881 C877 1.393 . S
C881 C880 1.391 . S
C882 H872 0.950 . S
C882 C883 1.386 . S
C882 C884 1.391 . S
C883 C882 1.386 . S
C883 C887 1.393 . S
C884 H873 0.950 . S
C884 C882 1.391 . S
C884 C885 1.400 . S
C885 C879 1.491 . S
C885 C884 1.400 . S
C885 C886 1.398 . S
C886 H874 0.950 . S
C886 C885 1.398 . S
C886 C887 1.391 . S
C887 H875 0.950 . S
C887 C883 1.393 . S
C887 C886 1.391 . S
H888 C896 0.950 . S
H889 C901 0.950 . S
H890 C898 0.950 . S
H891 C900 0.950 . S
H892 C902 0.950 . S
H893 C904 0.950 . S
H894 C906 0.950 . S
H895 C907 0.950 . S
C896 H888 0.950 . S
C896 C897 1.386 . S
C896 C898 1.391 . S
C897 C896 1.386 . S
C897 C901 1.393 . S
C898 H890 0.950 . S
C898 C896 1.391 . S
C898 C899 1.400 . S
C899 C898 1.400 . S
C899 C900 1.398 . S
C899 C905 1.491 . S
C900 H891 0.950 . S
C900 C899 1.398 . S
C900 C901 1.391 . S
C901 H889 0.950 . S
C901 C897 1.393 . S
C901 C900 1.391 . S
C902 H892 0.950 . S
C902 C903 1.386 . S
C902 C904 1.391 . S
C903 C902 1.386 . S
C903 C907 1.393 . S
C904 H893 0.950 . S
C904 C902 1.391 . S
C904 C905 1.400 . S
C905 C899 1.491 . S
C905 C904 1.400 . S
C905 C906 1.398 . S
C906 H894 0.950 . S
C906 C905 1.398 . S
C906 C907 1.391 . S
C907 H895 0.950 . S
C907 C903 1.393 . S
C907 C906 1.391 . S
H908 C916 0.950 . S
H909 C921 0.950 . S
H910 C918 0.950 . S
H911 C920 0.950 . S
H912 C922 0.950 . S
H913 C924 0.950 . S
H914 C926 0.950 . S
H915 C927 0.950 . S
C916 H908 0.950 . S
C916 C917 1.386 . S
C916 C918 1.391 . S
C917 C916 1.386 . S
C917 C921 1.393 . S
C918 H910 0.950 . S
C918 C916 1.391 . S
C918 C919 1.400 . S
C919 C918 1.400 . S
C919 C920 1.398 . S
C919 C925 1.491 . S
C920 H911 0.950 . S
C920 C919 1.398 . S
C920 C921 1.391 . S
C921 H909 0.950 . S
C921 C917 1.393 . S
C921 C920 1.391 . S
C922 H912 0.950 . S
C922 C923 1.386 . S
C922 C924 1.391 . S
C923 C922 1.386 . S
C923 C927 1.393 . S
C924 H913 0.950 . S
C924 C922 1.391 . S
C924 C925 1.400 . S
C925 C919 1.491 . S
C925 C924 1.400 . S
C925 C926 1.398 . S
C926 H914 0.950 . S
C926 C925 1.398 . S
C926 C927 1.391 . S
C927 H915 0.950 . S
C927 C923 1.393 . S
C927 C926 1.391 . S
C457 C241 2.110 1_565 S
C463 C297 2.329 1_545 S
C483 C337 2.358 . S
C477 C277 2.189 . S
C503 C377 2.342 . S
C497 C169 2.123 . S
C523 C417 2.344 1_455 S
C517 C205 2.128 . S
C543 C306 2.329 1_565 S
C537 C97 2.109 1_565 S
C557 C133 2.193 . S
C563 C346 2.359 . S
C577 C25 2.099 . S
C583 C386 2.338 . S
C597 C61 2.123 . S
C603 C426 2.345 1_655 S
C623 C303 0.478 . S
C617 C211 0.434 . S
C643 C343 0.439 . S
C637 C247 0.374 . S
C663 C383 0.444 . S
C657 C253 0.455 . S
C677 C175 0.427 . S
C683 C423 0.473 . S
C697 C67 0.515 1_655 S
C703 C294 0.474 . S
C723 C334 0.483 . S
C717 C103 0.502 1_565 S
C743 C374 0.471 . S
C737 C109 0.394 . S
C757 C31 0.508 . S
C763 C414 0.465 . S
C777 C181 2.843 . S
C783 C307 3.187 . S
C797 C217 2.816 . S
C803 C347 3.160 . S
C823 C387 3.165 . S
C817 C283 2.762 . S
C843 C427 3.177 . S
C837 C145 2.822 . S
C857 C37 2.833 1_655 S
C863 C298 3.195 . S
C883 C338 3.159 . S
C877 C73 2.824 1_565 S
C903 C378 3.168 . S
C897 C139 2.750 . S
C917 C1 2.842 . S
C923 C418 3.176 . S
