# Generated by pormake.
# Topology apo, (3,6)-cn, num edge types: 1
# Building blocks:
#     Node 0, Type 0, BuildingBlock: VETTIZ_charged_linker_0, # of connection points: 3
#     Node 1, Type 0, BuildingBlock: VETTIZ_charged_linker_0, # of connection points: 3
#     Node 2, Type 0, BuildingBlock: VETTIZ_charged_linker_0, # of connection points: 3
#     Node 3, Type 0, BuildingBlock: VETTIZ_charged_linker_0, # of connection points: 3
#     Node 4, Type 0, BuildingBlock: VETTIZ_charged_linker_0, # of connection points: 3
#     Node 5, Type 0, BuildingBlock: VETTIZ_charged_linker_0, # of connection points: 3
#     Node 6, Type 0, BuildingBlock: VETTIZ_charged_linker_0, # of connection points: 3
#     Node 7, Type 0, BuildingBlock: VETTIZ_charged_linker_0, # of connection points: 3
#     Node 8, Type 1, BuildingBlock: KUMJIN_clean_sbu_1, # of connection points: 6
#     Node 9, Type 1, BuildingBlock: KUMJIN_clean_sbu_1, # of connection points: 6
#     Node 10, Type 1, BuildingBlock: KUMJIN_clean_sbu_1, # of connection points: 6
#     Node 11, Type 1, BuildingBlock: KUMJIN_clean_sbu_1, # of connection points: 6
#     Edge 12, Type (0, 1), BuildingBlock: XUDNAN_clean_linker_2, # of connection points: 2
#     Edge 13, Type (0, 1), BuildingBlock: XUDNAN_clean_linker_2, # of connection points: 2
#     Edge 14, Type (0, 1), BuildingBlock: XUDNAN_clean_linker_2, # of connection points: 2
#     Edge 15, Type (0, 1), BuildingBlock: XUDNAN_clean_linker_2, # of connection points: 2
#     Edge 16, Type (0, 1), BuildingBlock: XUDNAN_clean_linker_2, # of connection points: 2
#     Edge 17, Type (0, 1), BuildingBlock: XUDNAN_clean_linker_2, # of connection points: 2
#     Edge 18, Type (0, 1), BuildingBlock: XUDNAN_clean_linker_2, # of connection points: 2
#     Edge 19, Type (0, 1), BuildingBlock: XUDNAN_clean_linker_2, # of connection points: 2
#     Edge 20, Type (0, 1), BuildingBlock: XUDNAN_clean_linker_2, # of connection points: 2
#     Edge 21, Type (0, 1), BuildingBlock: XUDNAN_clean_linker_2, # of connection points: 2
#     Edge 22, Type (0, 1), BuildingBlock: XUDNAN_clean_linker_2, # of connection points: 2
#     Edge 23, Type (0, 1), BuildingBlock: XUDNAN_clean_linker_2, # of connection points: 2
#     Edge 24, Type (0, 1), BuildingBlock: XUDNAN_clean_linker_2, # of connection points: 2
#     Edge 25, Type (0, 1), BuildingBlock: XUDNAN_clean_linker_2, # of connection points: 2
#     Edge 26, Type (0, 1), BuildingBlock: XUDNAN_clean_linker_2, # of connection points: 2
#     Edge 27, Type (0, 1), BuildingBlock: XUDNAN_clean_linker_2, # of connection points: 2
#     Edge 28, Type (0, 1), BuildingBlock: XUDNAN_clean_linker_2, # of connection points: 2
#     Edge 29, Type (0, 1), BuildingBlock: XUDNAN_clean_linker_2, # of connection points: 2
#     Edge 30, Type (0, 1), BuildingBlock: XUDNAN_clean_linker_2, # of connection points: 2
#     Edge 31, Type (0, 1), BuildingBlock: XUDNAN_clean_linker_2, # of connection points: 2
#     Edge 32, Type (0, 1), BuildingBlock: XUDNAN_clean_linker_2, # of connection points: 2
#     Edge 33, Type (0, 1), BuildingBlock: XUDNAN_clean_linker_2, # of connection points: 2
#     Edge 34, Type (0, 1), BuildingBlock: XUDNAN_clean_linker_2, # of connection points: 2
#     Edge 35, Type (0, 1), BuildingBlock: XUDNAN_clean_linker_2, # of connection points: 2
# Relax obj value: 0.010
# Max RMSD: 0.095
# Mean RMSD: 0.076
data_MOF--net-apo--node1-KUMJIN_clean_sbu_1--node2-VETTIZ_charged_linker_0--edge1-XUDNAN_clean_linker_2
_symmetry_space_group_name_H-M    P1
_symmetry_Int_Tables_number       1
_symmetry_cell_setting            triclinic
loop_
_symmetry_equiv_pos_as_xyz
'x, y, z'
_cell_length_a     28.969217
_cell_length_b     51.984904
_cell_length_c     63.368526
_cell_angle_alpha  89.971015
_cell_angle_beta   90.035784
_cell_angle_gamma 90.28009
loop_
_atom_site_label
_atom_site_type_symbol
_atom_site_fract_x
_atom_site_fract_y
_atom_site_fract_z
_atom_type_partial_charge
C0 C 0.27428 0.36914 0.49561 0.0
C1 C 0.29298 0.38901 0.50815 0.0
C2 C 0.3134 0.41041 0.49802 0.0
C3 C 0.2958 0.39227 0.4637 0.0
C4 C 0.27615 0.37116 0.47353 0.0
C5 C 0.25748 0.35197 0.45786 0.0
H6 H 0.21522 0.31869 0.35622 0.0
C7 C 0.29234 0.38844 0.44061 0.0
C8 C 0.27023 0.36478 0.43706 0.0
H9 H 0.17346 0.27912 0.41315 0.0
H10 H 0.21405 0.31038 0.43429 0.0
H11 H 0.19673 0.37707 0.37386 0.0
H12 H 0.31996 0.33084 0.37136 0.0
H13 H 0.33634 0.36295 0.36687 0.0
H14 H 0.29824 0.34698 0.34841 0.0
H15 H 0.22274 0.36646 0.34965 0.0
H16 H 0.2426 0.39502 0.36274 0.0
C17 C 0.20445 0.35007 0.46095 0.0
C18 C 0.28348 0.3263 0.46102 0.0
C19 C 0.35104 0.45803 0.39111 0.0
C20 C 0.35793 0.45945 0.36908 0.0
C21 C 0.34497 0.43786 0.35676 0.0
C22 C 0.32513 0.41588 0.36608 0.0
C23 C 0.31864 0.41505 0.38806 0.0
C24 C 0.33271 0.43568 0.40018 0.0
C25 C 0.32774 0.4306 0.42343 0.0
C26 C 0.30671 0.40383 0.42327 0.0
C27 C 0.30048 0.39496 0.40251 0.0
C28 C 0.29408 0.45071 0.43268 0.0
C29 C 0.37661 0.43094 0.43352 0.0
C30 C 0.2154 0.31667 0.37323 0.0
C31 C 0.19078 0.29655 0.38306 0.0
C32 C 0.19159 0.29464 0.40524 0.0
C33 C 0.21521 0.31282 0.4175 0.0
C34 C 0.23814 0.33337 0.40756 0.0
C35 C 0.23847 0.33494 0.38577 0.0
C36 C 0.26411 0.35846 0.37808 0.0
C37 C 0.27775 0.37105 0.39885 0.0
C38 C 0.2626 0.35614 0.41605 0.0
C39 C 0.23007 0.37522 0.3653 0.0
C40 C 0.30679 0.34954 0.36537 0.0
H41 H 0.33054 0.42903 0.46934 0.0
H42 H 0.25784 0.35256 0.50278 0.0
H43 H 0.32073 0.32991 0.46421 0.0
H44 H 0.2828 0.31389 0.44689 0.0
H45 H 0.26922 0.31536 0.47462 0.0
H46 H 0.19003 0.36858 0.46672 0.0
H47 H 0.19531 0.335 0.47268 0.0
H48 H 0.18569 0.34627 0.44609 0.0
H49 H 0.35951 0.47395 0.40139 0.0
H50 H 0.35066 0.43762 0.3399 0.0
H51 H 0.31592 0.40024 0.35584 0.0
H52 H 0.26407 0.45348 0.42196 0.0
H53 H 0.31143 0.46965 0.43468 0.0
H54 H 0.27919 0.44482 0.44797 0.0
H55 H 0.40381 0.42621 0.42177 0.0
H56 H 0.38062 0.41622 0.44599 0.0
H57 H 0.38508 0.45017 0.44015 0.0
H58 H 0.32883 0.42581 0.50717 0.0
C59 C 0.31479 0.41217 0.47597 0.0
C60 C 0.3108 0.17581 0.8671 0.0
C61 C 0.33 0.19828 0.87573 0.0
C62 C 0.32123 0.20418 0.89707 0.0
C63 C 0.27737 0.16437 0.90103 0.0
C64 C 0.28473 0.15933 0.87988 0.0
C65 C 0.26268 0.13463 0.87282 0.0
H66 H 0.15643 0.02263 0.89644 0.0
C67 C 0.25054 0.14246 0.90992 0.0
C68 C 0.2418 0.12514 0.89332 0.0
H69 H 0.19684 0.05122 0.83514 0.0
H70 H 0.22281 0.09105 0.85078 0.0
H71 H 0.24441 0.04574 0.92361 0.0
H72 H 0.10797 0.07344 0.91018 0.0
H73 H 0.12197 0.08539 0.93527 0.0
H74 H 0.11836 0.05104 0.93115 0.0
H75 H 0.19243 0.03108 0.93344 0.0
H76 H 0.21996 0.05722 0.94724 0.0
C77 C 0.30142 0.11664 0.86479 0.0
C78 C 0.22515 0.14106 0.85616 0.0
C79 C 0.2129 0.13783 0.98868 0.0
C80 C 0.18913 0.11946 1.00102 0.0
C81 C 0.17125 0.0973 0.99106 0.0
C82 C 0.17699 0.09335 0.96937 0.0
C83 C 0.20085 0.11173 0.95728 0.0
C84 C 0.21805 0.13366 0.96686 0.0
C85 C 0.24154 0.15129 0.95121 0.0
C86 C 0.23549 0.1363 0.93075 0.0
C87 C 0.21195 0.113 0.93453 0.0
C88 C 0.2929 0.15386 0.95758 0.0
C89 C 0.21521 0.17711 0.95074 0.0
C90 C 0.17117 0.03752 0.88651 0.0
C91 C 0.1753 0.03383 0.86462 0.0
C92 C 0.19351 0.05374 0.85205 0.0
C93 C 0.20862 0.07681 0.86118 0.0
C94 C 0.20512 0.08015 0.88314 0.0
C95 C 0.18568 0.06095 0.89538 0.0
C96 C 0.18192 0.06874 0.91821 0.0
C97 C 0.20362 0.09547 0.91771 0.0
C98 C 0.21777 0.10177 0.89719 0.0
C99 C 0.21089 0.04971 0.93149 0.0
C100 C 0.13002 0.06958 0.9242 0.0
H101 H 0.29022 0.19253 0.92603 0.0
H102 H 0.3162 0.17104 0.85065 0.0
H103 H 0.21177 0.16094 0.85819 0.0
H104 H 0.19422 0.12859 0.85761 0.0
H105 H 0.239 0.13959 0.83987 0.0
H106 H 0.33217 0.11779 0.8753 0.0
H107 H 0.31261 0.12217 0.84864 0.0
H108 H 0.29146 0.09616 0.86468 0.0
H109 H 0.22672 0.15517 0.9958 0.0
H110 H 0.15343 0.08268 1.00017 0.0
H111 H 0.16282 0.07598 0.96288 0.0
H112 H 0.30701 0.13485 0.96233 0.0
H113 H 0.29707 0.1672 0.97115 0.0
H114 H 0.3151 0.16055 0.94455 0.0
H115 H 0.17736 0.1738 0.95214 0.0
H116 H 0.21977 0.18763 0.93575 0.0
H117 H 0.22602 0.18972 0.96402 0.0
H118 H 0.33561 0.22149 0.90401 0.0
C119 C 0.29515 0.18728 0.90981 0.0
C120 C 0.84001 0.14597 0.53241 0.0
C121 C 0.85926 0.12503 0.52149 0.0
C122 C 0.87192 0.10291 0.533 0.0
C123 C 0.84428 0.12222 0.56544 0.0
C124 C 0.83239 0.14406 0.55423 0.0
C125 C 0.80968 0.16392 0.56802 0.0
H126 H 0.70935 0.19297 0.66132 0.0
C127 C 0.82912 0.12565 0.58756 0.0
C128 C 0.80817 0.14995 0.58909 0.0
H129 H 0.73155 0.24365 0.60785 0.0
H130 H 0.77044 0.20968 0.58947 0.0
H131 H 0.6905 0.13989 0.63665 0.0
H132 H 0.81015 0.17687 0.66259 0.0
H133 H 0.82183 0.14397 0.66478 0.0
H134 H 0.77294 0.1573 0.67855 0.0
H135 H 0.7015 0.14314 0.6644 0.0
H136 H 0.72272 0.11601 0.64964 0.0
C137 C 0.76072 0.16908 0.55925 0.0
C138 C 0.84123 0.18807 0.56882 0.0
C139 C 0.86392 0.05786 0.64373 0.0
C140 C 0.85231 0.05626 0.66532 0.0
C141 C 0.82131 0.07438 0.67376 0.0
C142 C 0.80453 0.09458 0.6615 0.0
C143 C 0.81853 0.09686 0.64041 0.0
C144 C 0.84655 0.07832 0.63158 0.0
C145 C 0.85541 0.08355 0.60847 0.0
C146 C 0.83102 0.10923 0.60553 0.0
C147 C 0.80967 0.11681 0.62437 0.0
C148 C 0.83238 0.06176 0.59541 0.0
C149 C 0.90809 0.08608 0.60504 0.0
C150 C 0.72274 0.1972 0.64578 0.0
C151 C 0.71594 0.22134 0.63614 0.0
C152 C 0.73435 0.22522 0.61566 0.0
C153 C 0.75761 0.20549 0.60498 0.0
C154 C 0.76364 0.18159 0.61489 0.0
C155 C 0.74736 0.17806 0.63515 0.0
C156 C 0.76134 0.15256 0.64421 0.0
C157 C 0.78758 0.14105 0.62579 0.0
C158 C 0.7879 0.15784 0.60846 0.0
C159 C 0.7169 0.13699 0.64918 0.0
C160 C 0.79294 0.15772 0.66361 0.0
H161 H 0.87504 0.0841 0.56271 0.0
H162 H 0.82954 0.16313 0.52401 0.0
H163 H 0.87809 0.18297 0.56633 0.0
H164 H 0.8406 0.19762 0.58442 0.0
H165 H 0.83159 0.20218 0.55643 0.0
H166 H 0.74277 0.15064 0.55562 0.0
H167 H 0.76243 0.18054 0.54446 0.0
H168 H 0.73832 0.17929 0.57049 0.0
H169 H 0.88709 0.04405 0.63665 0.0
H170 H 0.81031 0.07312 0.69007 0.0
H171 H 0.78175 0.10788 0.66906 0.0
H172 H 0.80292 0.05287 0.60405 0.0
H173 H 0.8573 0.04621 0.59179 0.0
H174 H 0.8171 0.06887 0.58052 0.0
H175 H 0.92368 0.09865 0.61735 0.0
H176 H 0.91703 0.09495 0.58975 0.0
H177 H 0.92504 0.06699 0.60598 0.0
H178 H 0.88728 0.08664 0.52501 0.0
C179 C 0.86475 0.10145 0.55487 0.0
C180 C 0.7895 0.32381 0.15586 0.0
C181 C 0.81546 0.30345 0.1476 0.0
C182 C 0.81123 0.29758 0.12592 0.0
C183 C 0.75785 0.33313 0.12125 0.0
C184 C 0.76173 0.33842 0.14254 0.0
C185 C 0.7352 0.36174 0.14905 0.0
H186 H 0.60611 0.46426 0.1233 0.0
C187 C 0.72706 0.35283 0.11191 0.0
C188 C 0.71409 0.36962 0.12821 0.0
H189 H 0.6649 0.44429 0.18395 0.0
H190 H 0.69386 0.40497 0.16956 0.0
H191 H 0.69547 0.44814 0.09606 0.0
H192 H 0.56983 0.40797 0.11158 0.0
H193 H 0.58478 0.39828 0.08596 0.0
H194 H 0.57192 0.43169 0.09103 0.0
H195 H 0.63993 0.45702 0.08587 0.0
H196 H 0.67479 0.43315 0.07301 0.0
C197 C 0.77013 0.38209 0.15748 0.0
C198 C 0.69785 0.35322 0.16515 0.0
C199 C 0.68794 0.35181 0.03343 0.0
C200 C 0.66034 0.36783 0.02071 0.0
C201 C 0.63682 0.38848 0.03024 0.0
C202 C 0.64123 0.39341 0.05186 0.0
C203 C 0.66953 0.37759 0.06426 0.0
C204 C 0.69195 0.35701 0.0551 0.0
C205 C 0.72004 0.34211 0.07095 0.0
C206 C 0.71054 0.35711 0.09105 0.0
C207 C 0.68123 0.37803 0.08693 0.0
C208 C 0.77143 0.34374 0.0644 0.0
C209 C 0.70059 0.31438 0.07208 0.0
C210 C 0.62543 0.45146 0.13346 0.0
C211 C 0.6332 0.45758 0.15485 0.0
C212 C 0.65772 0.44005 0.16754 0.0
C213 C 0.6751 0.41725 0.15906 0.0
C214 C 0.66853 0.41189 0.13754 0.0
C215 C 0.64356 0.42866 0.12516 0.0
C216 C 0.64058 0.41976 0.10256 0.0
C217 C 0.66893 0.39522 0.10342 0.0
C218 C 0.68511 0.39085 0.12393 0.0
C219 C 0.66355 0.44055 0.08847 0.0
C220 C 0.5892 0.41426 0.0973 0.0
H221 H 0.78105 0.30715 0.09631 0.0
H222 H 0.79093 0.3286 0.17249 0.0
H223 H 0.68319 0.33411 0.16084 0.0
H224 H 0.66787 0.36626 0.1656 0.0
H225 H 0.71256 0.35158 0.18129 0.0
H226 H 0.80501 0.37949 0.15046 0.0
H227 H 0.77397 0.38075 0.17488 0.0
H228 H 0.76069 0.402 0.15319 0.0
H229 H 0.70673 0.33588 0.02664 0.0
H230 H 0.61459 0.4008 0.02098 0.0
H231 H 0.62251 0.40945 0.05807 0.0
H232 H 0.77988 0.36315 0.05802 0.0
H233 H 0.77949 0.3294 0.05196 0.0
H234 H 0.79529 0.34102 0.07778 0.0
H235 H 0.66219 0.31453 0.07167 0.0
H236 H 0.70974 0.30441 0.08686 0.0
H237 H 0.71274 0.30272 0.05851 0.0
H238 H 0.83089 0.28201 0.11908 0.0
C239 C 0.78249 0.3123 0.1127 0.0
C240 C 0.66525 0.55743 0.6512 0.0
C241 C 0.63736 0.53767 0.64303 0.0
C242 C 0.62948 0.53632 0.62116 0.0
C243 C 0.67488 0.57511 0.61594 0.0
C244 C 0.68326 0.57607 0.63742 0.0
C245 C 0.7101 0.59975 0.64362 0.0
H246 H 0.7955 0.71687 0.61756 0.0
C247 C 0.69524 0.59844 0.60625 0.0
C248 C 0.71576 0.61303 0.62238 0.0
H249 H 0.79864 0.67898 0.67827 0.0
H250 H 0.76429 0.64094 0.66301 0.0
H251 H 0.83061 0.66626 0.59182 0.0
H252 H 0.69431 0.69679 0.60229 0.0
H253 H 0.69998 0.68849 0.57545 0.0
H254 H 0.73691 0.71298 0.58647 0.0
H255 H 0.81054 0.69447 0.57837 0.0
H256 H 0.79904 0.66257 0.56835 0.0
C257 C 0.75709 0.59117 0.65291 0.0
C258 C 0.67987 0.61562 0.65898 0.0
C259 C 0.6791 0.61269 0.52725 0.0
C260 C 0.69238 0.63276 0.51359 0.0
C261 C 0.71448 0.65461 0.52228 0.0
C262 C 0.72344 0.65632 0.54404 0.0
C263 C 0.71022 0.636 0.5574 0.0
C264 C 0.68827 0.61471 0.54891 0.0
C265 C 0.6759 0.5951 0.56544 0.0
C266 C 0.6952 0.60775 0.58517 0.0
C267 C 0.71514 0.63177 0.58045 0.0
C268 C 0.7014 0.56977 0.5602 0.0
C269 C 0.6225 0.59259 0.56615 0.0
C270 C 0.78855 0.70035 0.62752 0.0
C271 C 0.79928 0.70098 0.6492 0.0
C272 C 0.79076 0.67893 0.66155 0.0
C273 C 0.77052 0.65692 0.65268 0.0
C274 C 0.75868 0.65681 0.63116 0.0
C275 C 0.7688 0.67802 0.61881 0.0
C276 C 0.75622 0.67368 0.59598 0.0
C277 C 0.73532 0.64679 0.59687 0.0
C278 C 0.73635 0.63721 0.61762 0.0
C279 C 0.80118 0.67443 0.58277 0.0
C280 C 0.72015 0.69408 0.5895 0.0
H281 H 0.64084 0.55287 0.59105 0.0
H282 H 0.67107 0.559 0.66805 0.0
H283 H 0.64324 0.61562 0.65368 0.0
H284 H 0.68985 0.63607 0.65983 0.0
H285 H 0.68087 0.60738 0.67515 0.0
H286 H 0.76861 0.5727 0.64583 0.0
H287 H 0.75483 0.58829 0.67025 0.0
H288 H 0.78531 0.60492 0.64939 0.0
H289 H 0.66252 0.59549 0.52122 0.0
H290 H 0.72451 0.67057 0.51227 0.0
H291 H 0.7402 0.67347 0.54963 0.0
H292 H 0.73728 0.57386 0.55485 0.0
H293 H 0.68353 0.5591 0.54736 0.0
H294 H 0.70507 0.55693 0.57397 0.0
H295 H 0.60545 0.61061 0.56086 0.0
H296 H 0.60919 0.58942 0.5823 0.0
H297 H 0.61009 0.57682 0.55574 0.0
H298 H 0.60778 0.52123 0.61469 0.0
C299 C 0.64843 0.5548 0.60754 0.0
C300 C 0.71806 0.82584 0.15876 0.0
C301 C 0.70627 0.8005 0.15293 0.0
C302 C 0.71576 0.79258 0.13203 0.0
C303 C 0.74878 0.83454 0.12385 0.0
C304 C 0.74 0.8421 0.14432 0.0
C305 C 0.75875 0.86842 0.14915 0.0
H306 H 0.8714 0.97578 0.11761 0.0
C307 C 0.77222 0.85629 0.11301 0.0
C308 C 0.77855 0.876 0.12791 0.0
H309 H 0.8249 0.95549 0.18031 0.0
H310 H 0.79315 0.9158 0.16713 0.0
H311 H 0.90907 0.91807 0.10479 0.0
H312 H 0.78105 0.95763 0.09385 0.0
H313 H 0.79009 0.93783 0.07183 0.0
H314 H 0.83076 0.96335 0.07763 0.0
H315 H 0.90387 0.94632 0.08864 0.0
H316 H 0.89345 0.91479 0.078 0.0
C317 C 0.79681 0.86568 0.1663 0.0
C318 C 0.71791 0.88589 0.15553 0.0
C319 C 0.80987 0.85111 0.0346 0.0
C320 C 0.82718 0.86923 0.02011 0.0
C321 C 0.83847 0.89415 0.02719 0.0
C322 C 0.83348 0.90083 0.0485 0.0
C323 C 0.81648 0.8825 0.06288 0.0
C324 C 0.80414 0.85826 0.05579 0.0
C325 C 0.78384 0.84188 0.07311 0.0
C326 C 0.78657 0.86016 0.09177 0.0
C327 C 0.80648 0.8838 0.08574 0.0
C328 C 0.81501 0.81808 0.07621 0.0
C329 C 0.73333 0.83536 0.06709 0.0
C330 C 0.85433 0.96273 0.12845 0.0
C331 C 0.85109 0.96866 0.15009 0.0
C332 C 0.82865 0.95116 0.16368 0.0
C333 C 0.8101 0.92811 0.15597 0.0
C334 C 0.81429 0.9222 0.13443 0.0
C335 C 0.83602 0.93936 0.12102 0.0
C336 C 0.83735 0.92958 0.09862 0.0
C337 C 0.81413 0.9034 0.10103 0.0
C338 C 0.80042 0.89939 0.12199 0.0
C339 C 0.88853 0.92712 0.09196 0.0
C340 C 0.80868 0.94803 0.0846 0.0
H341 H 0.74318 0.80223 0.10191 0.0
H342 H 0.71085 0.83313 0.1744 0.0
H343 H 0.68766 0.8824 0.14507 0.0
H344 H 0.72587 0.90659 0.15397 0.0
H345 H 0.7069 0.88198 0.17202 0.0
H346 H 0.81151 0.84595 0.16664 0.0
H347 H 0.78297 0.86971 0.1823 0.0
H348 H 0.82695 0.87833 0.16333 0.0
H349 H 0.80029 0.83194 0.02946 0.0
H350 H 0.85182 0.90835 0.01623 0.0
H351 H 0.8431 0.92002 0.05297 0.0
H352 H 0.85201 0.82325 0.07398 0.0
H353 H 0.80631 0.80273 0.06466 0.0
H354 H 0.81298 0.81008 0.09233 0.0
H355 H 0.71599 0.85244 0.06015 0.0
H356 H 0.71195 0.82983 0.08076 0.0
H357 H 0.73196 0.81964 0.05524 0.0
H358 H 0.70802 0.77315 0.12697 0.0
C359 C 0.73664 0.80947 0.11748 0.0
C360 C 0.17643 0.95622 0.36868 0.0
C361 C 0.15338 0.97652 0.37868 0.0
C362 C 0.14227 0.97417 0.40029 0.0
C363 C 0.17841 0.93215 0.40155 0.0
C364 C 0.1887 0.93447 0.38034 0.0
C365 C 0.21547 0.912 0.37212 0.0
H366 H 0.33135 0.80194 0.38974 0.0
C367 C 0.19799 0.9075 0.4091 0.0
C368 C 0.21983 0.89575 0.39188 0.0
H369 H 0.3133 0.84363 0.33119 0.0
H370 H 0.26474 0.87407 0.34856 0.0
H371 H 0.34191 0.85154 0.42039 0.0
H372 H 0.2232 0.80584 0.40324 0.0
H373 H 0.21724 0.81401 0.42997 0.0
H374 H 0.26544 0.79454 0.42173 0.0
H375 H 0.33433 0.81873 0.42863 0.0
H376 H 0.30982 0.84491 0.44337 0.0
C377 C 0.263 0.92214 0.36431 0.0
C378 C 0.18579 0.89844 0.35498 0.0
C379 C 0.17951 0.88032 0.48587 0.0
C380 C 0.19412 0.85859 0.49732 0.0
C381 C 0.22005 0.8396 0.48679 0.0
C382 C 0.23106 0.84209 0.46534 0.0
C383 C 0.21611 0.86384 0.45414 0.0
C384 C 0.19072 0.88249 0.4644 0.0
C385 C 0.17763 0.90424 0.44991 0.0
C386 C 0.19873 0.89537 0.42923 0.0
C387 C 0.22154 0.87174 0.43183 0.0
C388 C 0.20077 0.92919 0.45821 0.0
C389 C 0.12431 0.90542 0.44868 0.0
C390 C 0.3167 0.81759 0.3807 0.0
C391 C 0.32729 0.82071 0.35913 0.0
C392 C 0.30705 0.8412 0.34793 0.0
C393 C 0.27845 0.85883 0.35804 0.0
C394 C 0.26959 0.85612 0.37968 0.0
C395 C 0.28775 0.83553 0.39063 0.0
C396 C 0.273 0.83562 0.41347 0.0
C397 C 0.24426 0.86007 0.4144 0.0
C398 C 0.24281 0.87195 0.39455 0.0
C399 C 0.31686 0.83764 0.42735 0.0
C400 C 0.24342 0.81121 0.41752 0.0
H401 H 0.14527 0.95147 0.42814 0.0
H402 H 0.18622 0.95755 0.35221 0.0
H403 H 0.14828 0.90034 0.35839 0.0
H404 H 0.19164 0.87745 0.35431 0.0
H405 H 0.19212 0.90689 0.33914 0.0
H406 H 0.27523 0.93852 0.37418 0.0
H407 H 0.26092 0.92905 0.34775 0.0
H408 H 0.29077 0.90776 0.36554 0.0
H409 H 0.15921 0.89517 0.49337 0.0
H410 H 0.23241 0.82287 0.49523 0.0
H411 H 0.25098 0.82701 0.45832 0.0
H412 H 0.23531 0.92506 0.46508 0.0
H413 H 0.17954 0.93826 0.47073 0.0
H414 H 0.2075 0.94342 0.44564 0.0
H415 H 0.10923 0.88571 0.44809 0.0
H416 H 0.11173 0.91509 0.4343 0.0
H417 H 0.10979 0.9153 0.46271 0.0
H418 H 0.12412 0.98946 0.40833 0.0
C419 C 0.15451 0.95208 0.41175 0.0
C420 C 0.19232 0.67352 0.86517 0.0
C421 C 0.18552 0.69943 0.87047 0.0
C422 C 0.19675 0.70761 0.89111 0.0
C423 C 0.2256 0.66485 0.89961 0.0
C424 C 0.21308 0.65693 0.8796 0.0
C425 C 0.22816 0.63005 0.87477 0.0
H426 H 0.37234 0.53308 0.89444 0.0
C427 C 0.25026 0.64312 0.90986 0.0
C428 C 0.25216 0.6229 0.89518 0.0
H429 H 0.28148 0.54439 0.8411 0.0
H430 H 0.2439 0.57902 0.859 0.0
H431 H 0.39341 0.59237 0.90804 0.0
H432 H 0.28887 0.53884 0.92781 0.0
H433 H 0.2924 0.56171 0.94821 0.0
H434 H 0.34188 0.54206 0.9421 0.0
H435 H 0.40306 0.56268 0.92192 0.0
H436 H 0.38902 0.59151 0.93601 0.0
C437 C 0.26211 0.63156 0.85583 0.0
C438 C 0.18446 0.61332 0.87083 0.0
C439 C 0.30349 0.64854 0.98639 0.0
C440 C 0.32523 0.63069 0.99972 0.0
C441 C 0.34113 0.60732 0.99127 0.0
C442 C 0.33472 0.60151 0.96985 0.0
C443 C 0.3117 0.61913 0.95679 0.0
C444 C 0.29675 0.64231 0.96503 0.0
C445 C 0.27188 0.65829 0.94876 0.0
C446 C 0.27157 0.64013 0.92996 0.0
C447 C 0.29589 0.61742 0.93466 0.0
C448 C 0.30112 0.68273 0.94444 0.0
C449 C 0.22255 0.66387 0.9568 0.0
C450 C 0.34409 0.543 0.88682 0.0
C451 C 0.33122 0.53687 0.86593 0.0
C452 C 0.29312 0.54943 0.85683 0.0
C453 C 0.27139 0.56962 0.86721 0.0
C454 C 0.28794 0.5776 0.88693 0.0
C455 C 0.32146 0.56343 0.89713 0.0
C456 C 0.32994 0.57352 0.91921 0.0
C457 C 0.29986 0.5976 0.91928 0.0
C458 C 0.27637 0.6 0.90008 0.0
C459 C 0.38167 0.58035 0.92156 0.0
C460 C 0.3127 0.55304 0.93524 0.0
H461 H 0.22519 0.69779 0.92108 0.0
H462 H 0.18316 0.66634 0.84967 0.0
H463 H 0.15347 0.62154 0.87865 0.0
H464 H 0.18765 0.59376 0.87762 0.0
H465 H 0.17662 0.61173 0.85372 0.0
H466 H 0.28549 0.6485 0.85739 0.0
H467 H 0.24313 0.63354 0.84068 0.0
H468 H 0.28539 0.61499 0.85455 0.0
H469 H 0.29065 0.66652 0.99265 0.0
H470 H 0.35777 0.59336 1.0014 0.0
H471 H 0.34739 0.5834 0.96429 0.0
H472 H 0.33867 0.67853 0.94562 0.0
H473 H 0.29319 0.69812 0.95602 0.0
H474 H 0.29634 0.69028 0.9283 0.0
H475 H 0.20658 0.64611 0.96339 0.0
H476 H 0.19915 0.67043 0.94418 0.0
H477 H 0.22313 0.67865 0.96945 0.0
H478 H 0.19177 0.72746 0.89568 0.0
C479 C 0.21663 0.69041 0.90574 0.0
Eu480 Eu 0.06666 0.14714 0.23806 0.0
C481 C 0.87023 0.1149 0.25064 0.0
N482 N 0.88952 0.1384 0.25446 0.0
C483 C 0.83096 0.15849 0.23338 0.0
C484 C 0.83149 0.1123 0.23728 0.0
C485 C 0.8687 0.16016 0.24708 0.0
C486 C 0.81274 0.13443 0.22817 0.0
C487 C 0.86718 0.06907 0.25821 0.0
C488 C 0.888 0.09341 0.26082 0.0
C489 C 0.82936 0.06637 0.24452 0.0
C490 C 0.81182 0.08788 0.23394 0.0
Eu491 Eu 0.95528 0.13826 0.27688 0.0
N492 N 0.92563 0.09633 0.2734 0.0
C493 C 0.88475 0.04821 0.26965 0.0
C494 C 0.94234 0.0763 0.285 0.0
C495 C 0.92244 0.05186 0.28313 0.0
H496 H 0.88018 0.17897 0.25199 0.0
H497 H 0.93604 0.03588 0.29212 0.0
H498 H 0.15545 0.13145 0.26876 0.0
H499 H 0.04421 0.23139 0.18731 0.0
H500 H 0.97129 0.07928 0.29551 0.0
H501 H 0.86928 0.02927 0.2683 0.0
H502 H 0.02903 0.18725 0.19976 0.0
H503 H 0.8154 0.17581 0.22718 0.0
H504 H 0.81308 0.04778 0.24217 0.0
H505 H 0.78224 0.08554 0.22364 0.0
H506 H 0.22758 0.15127 0.28232 0.0
H507 H 0.78311 0.13323 0.21776 0.0
H508 H 0.10875 0.25658 0.20258 0.0
N509 N 0.13489 0.16497 0.25214 0.0
C510 C 0.14612 0.18915 0.24584 0.0
C511 C 0.20488 0.16216 0.27216 0.0
C512 C 0.18705 0.20112 0.25296 0.0
C513 C 0.16408 0.15104 0.26455 0.0
C514 C 0.21629 0.18738 0.26644 0.0
N515 N 0.08034 0.18861 0.22382 0.0
C516 C 0.05561 0.19853 0.20738 0.0
C517 C 0.129 0.22635 0.22417 0.0
C518 C 0.11754 0.20152 0.23156 0.0
C519 C 0.10123 0.23751 0.20861 0.0
C520 C 0.06476 0.22337 0.19996 0.0
H521 H 0.248 0.19592 0.27228 0.0
H522 H 0.22892 0.23574 0.25157 0.0
H523 H 0.1779 0.25793 0.22649 0.0
O524 O 0.10533 0.14629 0.20836 0.0
O525 O 0.07294 0.16484 0.27109 0.0
O526 O 0.99767 0.17484 0.27973 0.0
O527 O 0.09725 0.11149 0.22653 0.0
O528 O 0.99624 0.16287 0.22881 0.0
O529 O 0.96052 0.17639 0.2592 0.0
O530 O 0.95424 0.13207 0.31111 0.0
O531 O 0.97961 0.10729 0.25377 0.0
O532 O 0.99838 0.1326 0.22606 0.0
O533 O 0.89487 0.14836 0.29568 0.0
O534 O 0.02288 0.12486 0.29029 0.0
O535 O 0.07016 0.11398 0.26183 0.0
C536 C 0.04244 0.177 0.28284 0.0
C537 C 0.09725 0.10759 0.18903 0.0
C538 C 0.10345 0.10245 0.15059 0.0
C539 C 0.07223 0.08163 0.15183 0.0
C540 C 0.06612 0.08679 0.18967 0.0
C541 C 0.05362 0.07404 0.17117 0.0
C542 C 0.11569 0.11536 0.16943 0.0
C543 C 0.97259 0.18005 0.23938 0.0
C544 C 0.11037 0.12145 0.2086 0.0
C545 C 0.19783 0.22614 0.24614 0.0
C546 C 0.1687 0.2388 0.2319 0.0
C547 C 0.98073 0.11125 0.23336 0.0
C548 C 0.90662 0.1592 0.33174 0.0
C549 C 0.89453 0.16457 0.36983 0.0
C550 C 0.88913 0.19119 0.36648 0.0
C551 C 0.90099 0.18575 0.32889 0.0
C552 C 0.90389 0.14879 0.35221 0.0
C553 C 0.89271 0.20163 0.34621 0.0
C554 C 0.05777 0.11251 0.28188 0.0
C555 C 0.91336 0.14181 0.3136 0.0
H556 H 0.06265 0.07081 0.13789 0.0
H557 H 0.05147 0.08027 0.20444 0.0
H558 H 0.02962 0.05804 0.17184 0.0
H559 H 0.13916 0.13164 0.1689 0.0
H560 H 0.88102 0.20399 0.3794 0.0
H561 H 0.90289 0.19421 0.31328 0.0
H562 H 0.90888 0.1283 0.35427 0.0
H563 H 0.88828 0.2221 0.34389 0.0
Eu564 Eu 0.4377 0.35699 0.74101 0.0
C565 C 0.65507 0.38195 0.75954 0.0
N566 N 0.63097 0.35973 0.76234 0.0
C567 C 0.696 0.33522 0.75065 0.0
C568 C 0.70087 0.38162 0.75202 0.0
C569 C 0.65094 0.3365 0.75845 0.0
C570 C 0.721 0.35788 0.74728 0.0
C571 C 0.65925 0.42837 0.76321 0.0
C572 C 0.63445 0.40507 0.76493 0.0
C573 C 0.70481 0.42812 0.75565 0.0
C574 C 0.72544 0.40483 0.74991 0.0
Eu575 Eu 0.55493 0.36376 0.77526 0.0
N576 N 0.59047 0.40467 0.77244 0.0
C577 C 0.63777 0.45119 0.76947 0.0
C578 C 0.57027 0.42666 0.77958 0.0
C579 C 0.5932 0.45029 0.77784 0.0
H580 H 0.63238 0.31892 0.76185 0.0
H581 H 0.57668 0.46775 0.78315 0.0
H582 H 0.35199 0.37849 0.77113 0.0
H583 H 0.47284 0.25936 0.71236 0.0
H584 H 0.53649 0.42603 0.78658 0.0
H585 H 0.65558 0.46951 0.76827 0.0
H586 H 0.48073 0.30633 0.713 0.0
H587 H 0.71171 0.31677 0.74756 0.0
H588 H 0.72442 0.44583 0.75422 0.0
H589 H 0.76066 0.40495 0.74417 0.0
H590 H 0.2848 0.36082 0.79067 0.0
H591 H 0.75609 0.35682 0.74145 0.0
H592 H 0.41339 0.23804 0.73429 0.0
N593 N 0.37373 0.34194 0.76017 0.0
C594 C 0.36604 0.31613 0.75973 0.0
C595 C 0.30739 0.34808 0.78204 0.0
C596 C 0.32845 0.30524 0.77073 0.0
C597 C 0.34531 0.35801 0.77104 0.0
C598 C 0.29884 0.3216 0.78183 0.0
N599 N 0.43202 0.31163 0.73771 0.0
C600 C 0.45743 0.29733 0.72394 0.0
C601 C 0.38887 0.27371 0.74776 0.0
C602 C 0.39633 0.30055 0.74847 0.0
C603 C 0.418 0.2587 0.73526 0.0
C604 C 0.45182 0.27064 0.72298 0.0
H605 H 0.26945 0.31396 0.7904 0.0
H606 H 0.29294 0.26977 0.77869 0.0
H607 H 0.34582 0.24219 0.75867 0.0
O608 O 0.4263 0.35639 0.70705 0.0
O609 O 0.44263 0.34181 0.77469 0.0
O610 O 0.51537 0.32642 0.77334 0.0
O611 O 0.37302 0.37124 0.72734 0.0
O612 O 0.50662 0.34886 0.72548 0.0
O613 O 0.55066 0.33104 0.75169 0.0
O614 O 0.545 0.36728 0.8094 0.0
O615 O 0.55076 0.39048 0.7466 0.0
O616 O 0.47329 0.39553 0.73787 0.0
O617 O 0.60522 0.34797 0.79738 0.0
O618 O 0.49051 0.38373 0.7884 0.0
O619 O 0.43848 0.39271 0.7612 0.0
C620 C 0.47347 0.32512 0.78084 0.0
C621 C 0.35041 0.35278 0.69455 0.0
C622 C 0.31295 0.34977 0.66006 0.0
C623 C 0.29151 0.32676 0.66651 0.0
C624 C 0.32854 0.32989 0.70078 0.0
C625 C 0.29909 0.31702 0.6868 0.0
C626 C 0.34229 0.3627 0.67428 0.0
C627 C 0.54232 0.33528 0.73161 0.0
C628 C 0.38471 0.36558 0.70808 0.0
C629 C 0.32165 0.2785 0.77035 0.0
C630 C 0.35187 0.26278 0.75899 0.0
C631 C 0.51703 0.40238 0.73664 0.0
C632 C 0.61362 0.37049 0.82944 0.0
C633 C 0.63993 0.37683 0.86577 0.0
C634 C 0.66994 0.39635 0.85862 0.0
C635 C 0.64383 0.39 0.82277 0.0
C636 C 0.6117 0.36395 0.85096 0.0
C637 C 0.67172 0.40287 0.83729 0.0
C638 C 0.45652 0.39715 0.77999 0.0
C639 C 0.58443 0.35671 0.81407 0.0
H640 H 0.26859 0.31645 0.65593 0.0
H641 H 0.33469 0.32184 0.71626 0.0
H642 H 0.28239 0.29931 0.69165 0.0
H643 H 0.35997 0.38014 0.66936 0.0
H644 H 0.69272 0.40632 0.86947 0.0
H645 H 0.64622 0.39517 0.80633 0.0
H646 H 0.58807 0.34899 0.85613 0.0
H647 H 0.69511 0.41782 0.83196 0.0
Eu648 Eu 0.04826 0.86479 0.73783 0.0
C649 C 0.84452 0.84358 0.76173 0.0
N650 N 0.86805 0.86592 0.76507 0.0
C651 C 0.80511 0.89023 0.75104 0.0
C652 C 0.80035 0.84377 0.7524 0.0
C653 C 0.84907 0.88909 0.76009 0.0
C654 C 0.78069 0.86748 0.74711 0.0
C655 C 0.84257 0.79691 0.76295 0.0
C656 C 0.86564 0.8204 0.76688 0.0
C657 C 0.79862 0.79705 0.75358 0.0
C658 C 0.77755 0.82039 0.74836 0.0
Eu659 Eu 0.94242 0.86226 0.77968 0.0
N660 N 0.90892 0.82079 0.77536 0.0
C661 C 0.8643 0.77395 0.76859 0.0
C662 C 0.92884 0.79851 0.7821 0.0
C663 C 0.90731 0.77479 0.77848 0.0
H664 H 0.86781 0.9067 0.76318 0.0
H665 H 0.9237 0.75717 0.78356 0.0
H666 H 0.13366 0.83094 0.75977 0.0
H667 H 0.05088 0.96581 0.71253 0.0
H668 H 0.96073 0.79873 0.79074 0.0
H669 H 0.84776 0.75552 0.7658 0.0
H670 H 0.02654 0.92039 0.71121 0.0
H671 H 0.79014 0.90863 0.74704 0.0
H672 H 0.78058 0.77917 0.75034 0.0
H673 H 0.74367 0.82016 0.74111 0.0
H674 H 0.20755 0.83891 0.77839 0.0
H675 H 0.74678 0.86842 0.73993 0.0
H676 H 0.11656 0.97881 0.73522 0.0
N677 N 0.12143 0.87043 0.75374 0.0
C678 C 0.13768 0.89497 0.75509 0.0
C679 C 0.18813 0.85485 0.77199 0.0
C680 C 0.17938 0.90047 0.76566 0.0
C681 C 0.1464 0.85035 0.76149 0.0
C682 C 0.20447 0.88004 0.77428 0.0
N683 N 0.07254 0.90848 0.73547 0.0
C684 C 0.05308 0.92608 0.72222 0.0
C685 C 0.12873 0.94012 0.74655 0.0
C686 C 0.11208 0.91458 0.74599 0.0
C687 C 0.10497 0.95896 0.73517 0.0
C688 C 0.06776 0.95174 0.72245 0.0
H689 H 0.23667 0.88348 0.78254 0.0
H690 H 0.22634 0.93074 0.77553 0.0
H691 H 0.18236 0.96541 0.75853 0.0
O692 O 0.04794 0.86718 0.70336 0.0
O693 O 0.06156 0.87391 0.77248 0.0
O694 O 0.99575 0.8939 0.78379 0.0
O695 O 0.10059 0.84514 0.71899 0.0
O696 O 0.98368 0.88897 0.73152 0.0
O697 O 0.95625 0.90081 0.76439 0.0
O698 O 0.93817 0.85139 0.81307 0.0
O699 O 0.92979 0.85293 0.74511 0.0
O700 O 0.99581 0.83238 0.73508 0.0
O701 O 0.8979 0.88319 0.80137 0.0
O702 O 0.00576 0.83796 0.78713 0.0
O703 O 0.03969 0.82688 0.7552 0.0
C704 C 0.04075 0.89149 0.78372 0.0
C705 C 0.12075 0.86569 0.68693 0.0
C706 C 0.15262 0.87081 0.65138 0.0
C707 C 0.18589 0.8879 0.65962 0.0
C708 C 0.15418 0.88281 0.69472 0.0
C709 C 0.18651 0.89384 0.68111 0.0
C710 C 0.11997 0.8598 0.66527 0.0
C711 C 0.96243 0.90528 0.74414 0.0
C712 C 0.08594 0.85425 0.70109 0.0
C713 C 0.19465 0.92608 0.76726 0.0
C714 C 0.16944 0.94585 0.75769 0.0
C715 C 0.95103 0.83551 0.73386 0.0
C716 C 0.86771 0.86026 0.8306 0.0
C717 C 0.83561 0.85253 0.86565 0.0
C718 C 0.79202 0.84841 0.85654 0.0
C719 C 0.82403 0.85567 0.8217 0.0
C720 C 0.87347 0.85826 0.85257 0.0
C721 C 0.78645 0.84972 0.83466 0.0
C722 C 0.0333 0.8234 0.77564 0.0
C723 C 0.90702 0.86855 0.81747 0.0
H724 H 0.21201 0.89638 0.64953 0.0
H725 H 0.15539 0.88761 0.7113 0.0
H726 H 0.21235 0.90696 0.68726 0.0
H727 H 0.0936 0.84687 0.65927 0.0
H728 H 0.76242 0.84396 0.86635 0.0
H729 H 0.81877 0.85705 0.80483 0.0
H730 H 0.90709 0.86189 0.85954 0.0
H731 H 0.75279 0.84637 0.82773 0.0
Eu732 Eu 0.43918 0.64171 0.24183 0.0
C733 C 0.64114 0.67122 0.27353 0.0
N734 N 0.62139 0.64909 0.26646 0.0
C735 C 0.68655 0.6411 0.24418 0.0
C736 C 0.68372 0.67982 0.26531 0.0
C737 C 0.64429 0.63334 0.2528 0.0
C738 C 0.70604 0.66461 0.25023 0.0
C739 C 0.63897 0.70801 0.29707 0.0
C740 C 0.61905 0.68508 0.28928 0.0
C741 C 0.68063 0.71708 0.28843 0.0
C742 C 0.70296 0.70301 0.27261 0.0
Eu743 Eu 0.54992 0.63779 0.28172 0.0
N744 N 0.57853 0.67601 0.29721 0.0
C745 C 0.61665 0.721 0.31346 0.0
C746 C 0.55814 0.68775 0.31404 0.0
C747 C 0.57635 0.71065 0.32215 0.0
H748 H 0.62931 0.6151 0.24823 0.0
H749 H 0.55953 0.72017 0.33522 0.0
H750 H 0.37741 0.68935 0.26603 0.0
H751 H 0.38743 0.54339 0.22432 0.0
H752 H 0.52794 0.67941 0.3214 0.0
H753 H 0.63079 0.73871 0.31984 0.0
H754 H 0.43756 0.58219 0.22286 0.0
H755 H 0.7041 0.62893 0.23292 0.0
H756 H 0.69622 0.73476 0.29409 0.0
H757 H 0.73543 0.71006 0.26633 0.0
H758 H 0.30866 0.69297 0.28829 0.0
H759 H 0.7388 0.67057 0.24353 0.0
H760 H 0.31631 0.54382 0.24592 0.0
N761 N 0.37219 0.64858 0.2626 0.0
C762 C 0.34446 0.62757 0.26526 0.0
C763 C 0.31874 0.67438 0.28221 0.0
C764 C 0.30337 0.62912 0.27714 0.0
C765 C 0.35858 0.67207 0.26994 0.0
C766 C 0.29135 0.65275 0.28609 0.0
N767 N 0.39563 0.60357 0.24391 0.0
C768 C 0.40663 0.58227 0.23241 0.0
C769 C 0.32642 0.58306 0.25656 0.0
C770 C 0.35588 0.60466 0.25523 0.0
C771 C 0.33817 0.56078 0.24537 0.0
C772 C 0.37834 0.56043 0.23317 0.0
H773 H 0.26014 0.65471 0.29536 0.0
H774 H 0.24328 0.60818 0.28832 0.0
H775 H 0.26329 0.56796 0.27019 0.0
O776 O 0.4371 0.634 0.20792 0.0
O777 O 0.44891 0.60818 0.26507 0.0
O778 O 0.47698 0.63132 0.29224 0.0
O779 O 0.38683 0.65939 0.22167 0.0
O780 O 0.50393 0.62353 0.22937 0.0
O781 O 0.54116 0.60505 0.25802 0.0
O782 O 0.59058 0.63235 0.31038 0.0
O783 O 0.56083 0.6564 0.24945 0.0
O784 O 0.49133 0.67429 0.23864 0.0
O785 O 0.56708 0.59912 0.29301 0.0
O786 O 0.48696 0.6612 0.29131 0.0
O787 O 0.45525 0.67791 0.26083 0.0
C788 C 0.45513 0.611 0.28545 0.0
C789 C 0.40728 0.66643 0.18587 0.0
C790 C 0.39483 0.67374 0.14805 0.0
C791 C 0.41453 0.69841 0.15033 0.0
C792 C 0.42716 0.69096 0.18768 0.0
C793 C 0.43058 0.70686 0.16997 0.0
C794 C 0.39165 0.65783 0.16607 0.0
C795 C 0.5306 0.60597 0.23778 0.0
C796 C 0.40274 0.64937 0.20432 0.0
C797 C 0.27482 0.60733 0.27917 0.0
C798 C 0.28615 0.58443 0.26881 0.0
C799 C 0.53678 0.67405 0.23943 0.0
C800 C 0.58058 0.59383 0.33017 0.0
C801 C 0.59365 0.59099 0.36843 0.0
C802 C 0.57221 0.56665 0.3684 0.0
C803 C 0.56041 0.56921 0.33059 0.0
C804 C 0.59726 0.60453 0.34918 0.0
C805 C 0.55583 0.5559 0.34963 0.0
C806 C 0.46913 0.6804 0.28054 0.0
C807 C 0.58833 0.6074 0.30986 0.0
H808 H 0.41687 0.71142 0.13702 0.0
H809 H 0.4398 0.69782 0.20277 0.0
H810 H 0.44548 0.7259 0.1715 0.0
H811 H 0.37736 0.63859 0.16476 0.0
H812 H 0.56931 0.5555 0.38278 0.0
H813 H 0.54811 0.56019 0.31623 0.0
H814 H 0.61358 0.62333 0.34894 0.0
H815 H 0.5399 0.53702 0.34979 0.0
H816 H 0.11898 0.98075 0.33836 0.0
H817 H 0.16506 0.02623 0.39188 0.0
H818 H 0.15174 0.066 0.37148 0.0
H819 H 0.16949 0.02071 0.2976 0.0
H820 H 0.12166 0.0167 0.27967 0.0
H821 H 0.13532 0.99164 0.29828 0.0
H822 H 0.05186 0.99313 0.313 0.0
H823 H 0.03788 0.01793 0.29425 0.0
H824 H 0.02879 0.02335 0.32201 0.0
H825 H 0.13131 0.10065 0.34591 0.0
H826 H 0.10041 0.12816 0.3174 0.0
H827 H 0.07009 0.06051 0.2799 0.0
C828 C 0.12655 0.99908 0.34574 0.0
C829 C 0.14309 1.0004 0.36674 0.0
C830 C 0.15185 0.02476 0.37593 0.0
C831 C 0.14485 0.04743 0.36439 0.0
C832 C 0.12911 0.04542 0.34367 0.0
C833 C 0.1197 0.0219 0.33445 0.0
C834 C 0.10137 0.02516 0.31219 0.0
C835 C 0.13392 0.01282 0.29598 0.0
C836 C 0.05206 0.01425 0.31026 0.0
C837 C 0.10181 0.05421 0.31035 0.0
C838 C 0.11812 0.06549 0.32869 0.0
C839 C 0.11909 0.09207 0.33137 0.0
C840 C 0.10173 0.10751 0.31512 0.0
C841 C 0.08415 0.09633 0.29643 0.0
C842 C 0.08495 0.06942 0.2938 0.0
H843 H 0.36081 0.48677 0.87333 0.0
H844 H 0.36426 0.54873 0.82741 0.0
H845 H 0.40009 0.51997 0.8015 0.0
H846 H 0.47327 0.45726 0.85611 0.0
H847 H 0.45264 0.42493 0.86045 0.0
H848 H 0.43127 0.45094 0.87646 0.0
H849 H 0.34756 0.43872 0.86599 0.0
H850 H 0.36868 0.41292 0.84976 0.0
H851 H 0.33206 0.43724 0.83845 0.0
H852 H 0.42419 0.48431 0.7791 0.0
H853 H 0.44625 0.44363 0.76209 0.0
H854 H 0.43427 0.40395 0.82208 0.0
C855 C 0.3703 0.49432 0.858 0.0
C856 C 0.35927 0.51988 0.85225 0.0
C857 C 0.37179 0.52911 0.832 0.0
C858 C 0.39229 0.51296 0.81718 0.0
C859 C 0.40095 0.48765 0.82292 0.0
C860 C 0.39141 0.47836 0.84291 0.0
C861 C 0.40321 0.44992 0.84438 0.0
C862 C 0.44244 0.44551 0.8603 0.0
C863 C 0.36031 0.43376 0.84998 0.0
C864 C 0.41914 0.44471 0.82193 0.0
C865 C 0.41732 0.46687 0.80992 0.0
C866 C 0.42669 0.4669 0.78839 0.0
C867 C 0.43872 0.44368 0.77883 0.0
C868 C 0.44198 0.42082 0.7908 0.0
C869 C 0.43247 0.42132 0.81269 0.0
H870 H 0.67237 0.49762 0.66621 0.0
H871 H 0.54621 0.53841 0.65169 0.0
H872 H 0.50254 0.50938 0.67544 0.0
H873 H 0.61991 0.43453 0.66705 0.0
H874 H 0.65546 0.42267 0.68825 0.0
H875 H 0.67727 0.44732 0.67088 0.0
H876 H 0.69338 0.47734 0.703 0.0
H877 H 0.67299 0.45195 0.7199 0.0
H878 H 0.64753 0.48344 0.72159 0.0
H879 H 0.47257 0.47581 0.69974 0.0
H880 H 0.45655 0.43858 0.72251 0.0
H881 H 0.60191 0.41833 0.72134 0.0
C882 C 0.63561 0.5004 0.66823 0.0
C883 C 0.61235 0.52017 0.65735 0.0
C884 C 0.56428 0.52328 0.66 0.0
C885 C 0.53936 0.50697 0.67346 0.0
C886 C 0.5631 0.48755 0.68397 0.0
C887 C 0.61003 0.48402 0.68144 0.0
C888 C 0.62652 0.46091 0.69391 0.0
C889 C 0.64593 0.44013 0.67914 0.0
C890 C 0.6622 0.46895 0.71061 0.0
C891 C 0.58161 0.45217 0.70401 0.0
C892 C 0.54557 0.46788 0.69801 0.0
C893 C 0.5005 0.46341 0.70464 0.0
C894 C 0.49179 0.44214 0.71759 0.0
C895 C 0.52798 0.42554 0.72389 0.0
C896 C 0.57359 0.43083 0.7171 0.0
H897 H 0.90266 0.97529 0.18602 0.0
H898 H 0.84239 0.01712 0.13363 0.0
H899 H 0.86975 0.05807 0.14921 0.0
H900 H 0.87498 0.01877 0.22655 0.0
H901 H 0.92885 0.01473 0.24055 0.0
H902 H 0.90644 0.98909 0.22447 0.0
H903 H 0.98365 0.98838 0.204 0.0
H904 H 0.00554 0.01452 0.21983 0.0
H905 H 0.00439 0.01734 0.1915 0.0
H906 H 0.90151 0.09436 0.17094 0.0
H907 H 0.93684 0.12374 0.197 0.0
H908 H 0.97425 0.05854 0.23607 0.0
C909 C 0.89532 0.99308 0.17781 0.0
C910 C 0.87025 0.99307 0.15865 0.0
C911 C 0.86187 0.01669 0.14822 0.0
C912 C 0.87709 0.04002 0.157 0.0
C913 C 0.90098 0.03936 0.1761 0.0
C914 C 0.91052 0.0165 0.18628 0.0
C915 C 0.93668 0.02112 0.20666 0.0
C916 C 0.91008 0.01032 0.22569 0.0
C917 C 0.98546 0.00967 0.20541 0.0
C918 C 0.9385 0.05026 0.20689 0.0
C919 C 0.91848 0.06034 0.18888 0.0
C920 C 0.91724 0.0867 0.18509 0.0
C921 C 0.93741 0.10321 0.19996 0.0
C922 C 0.95795 0.09335 0.21854 0.0
C923 C 0.95816 0.06654 0.22212 0.0
H924 H 0.86941 0.00468 0.65739 0.0
H925 H 0.88331 0.06371 0.70551 0.0
H926 H 0.91221 0.03146 0.73055 0.0
H927 H 0.83207 0.95411 0.69104 0.0
H928 H 0.86473 0.92922 0.67817 0.0
H929 H 0.84617 0.95694 0.66342 0.0
H930 H 0.93079 0.96641 0.65243 0.0
H931 H 0.94945 0.93853 0.66698 0.0
H932 H 0.97454 0.96959 0.67253 0.0
H933 H 0.93523 0.99302 0.75112 0.0
H934 H 0.95737 0.95063 0.76524 0.0
H935 H 0.93256 0.91617 0.70389 0.0
C936 C 0.87914 0.01086 0.67309 0.0
C937 C 0.87324 0.03671 0.67955 0.0
C938 C 0.88629 0.04394 0.70031 0.0
C939 C 0.90308 0.0258 0.71465 0.0
C940 C 0.90732 1.00045 0.70799 0.0
C941 C 0.89638 0.99294 0.68767 0.0
C942 C 0.90432 0.96432 0.68476 0.0
C943 C 0.85912 0.95033 0.67901 0.0
C944 C 0.94202 0.95943 0.66819 0.0
C945 C 0.92063 0.95698 0.7067 0.0
C946 C 0.92198 0.97817 0.71982 0.0
C947 C 0.9347 0.97629 0.74096 0.0
C948 C 0.94691 0.95212 0.74888 0.0
C949 C 0.94681 0.93021 0.73563 0.0
C950 C 0.93324 0.93269 0.7143 0.0
H951 H 0.59915 0.46741 0.19466 0.0
H952 H 0.63432 0.50468 0.13537 0.0
H953 H 0.61341 0.54662 0.15058 0.0
H954 H 0.50294 0.50768 0.20814 0.0
H955 H 0.51631 0.50818 0.23591 0.0
H956 H 0.53235 0.48087 0.2201 0.0
H957 H 0.6174 0.48635 0.23213 0.0
H958 H 0.60163 0.5138 0.24784 0.0
H959 H 0.64624 0.51678 0.22816 0.0
H960 H 0.58857 0.58429 0.17189 0.0
H961 H 0.56029 0.6156 0.19807 0.0
H962 H 0.54604 0.55457 0.24436 0.0
C963 C 0.60271 0.48437 0.18486 0.0
C964 C 0.61822 0.48264 0.16373 0.0
C965 C 0.62169 0.50535 0.15143 0.0
C966 C 0.61033 0.52933 0.16 0.0
C967 C 0.59588 0.53032 0.18093 0.0
C968 C 0.59199 0.5085 0.19323 0.0
C969 C 0.57593 0.51497 0.21536 0.0
C970 C 0.5291 0.50216 0.22015 0.0
C971 C 0.61249 0.50753 0.23184 0.0
C972 C 0.57141 0.54389 0.21356 0.0
C973 C 0.58292 0.55228 0.19351 0.0
C974 C 0.57974 0.578 0.18767 0.0
C975 C 0.56364 0.59559 0.20261 0.0
C976 C 0.55143 0.58741 0.22319 0.0
C977 C 0.55601 0.56131 0.22883 0.0
H978 H 0.34784 0.47818 0.32795 0.0
H979 H 0.41755 0.4949 0.38735 0.0
H980 H 0.44508 0.5357 0.3728 0.0
H981 H 0.44355 0.50262 0.29569 0.0
H982 H 0.40575 0.5147 0.2754 0.0
H983 H 0.3888 0.48708 0.2908 0.0
H984 H 0.31308 0.51023 0.30168 0.0
H985 H 0.33025 0.53748 0.28606 0.0
H986 H 0.31653 0.54173 0.31353 0.0
H987 H 0.45885 0.57657 0.35331 0.0
H988 H 0.47463 0.61065 0.32746 0.0
H989 H 0.40872 0.56486 0.27858 0.0
C990 C 0.36944 0.49 0.33796 0.0
C991 C 0.3786 0.48321 0.35928 0.0
C992 C 0.40737 0.49979 0.37145 0.0
C993 C 0.42387 0.52308 0.36323 0.0
C994 C 0.41294 0.52935 0.34252 0.0
C995 C 0.38782 0.51296 0.32978 0.0
C996 C 0.38367 0.52378 0.30758 0.0
C997 C 0.40684 0.50598 0.29141 0.0
C998 C 0.33285 0.5286 0.3019 0.0
C999 C 0.41016 0.54889 0.30997 0.0
C1000 C 0.42561 0.5519 0.33045 0.0
C1001 C 0.44807 0.57415 0.33708 0.0
C1002 C 0.45676 0.59346 0.3222 0.0
C1003 C 0.44354 0.59038 0.30079 0.0
C1004 C 0.41958 0.56779 0.2947 0.0
H1005 H 0.11126 0.02668 0.83352 0.0
H1006 H 0.20777 0.98592 0.87352 0.0
H1007 H 0.18685 0.94494 0.85583 0.0
H1008 H 0.02312 0.97822 0.83462 0.0
H1009 H 0.00544 0.98333 0.80767 0.0
H1010 H 0.03022 0.00943 0.82259 0.0
H1011 H 0.0921 0.01579 0.79354 0.0
H1012 H 0.06815 0.98938 0.77864 0.0
H1013 H 0.12819 0.98916 0.78609 0.0
H1014 H 0.15711 0.90871 0.83265 0.0
H1015 H 0.11294 0.87916 0.80935 0.0
H1016 H 0.03142 0.94325 0.78692 0.0
C1017 C 0.12797 0.00908 0.83846 0.0
C1018 C 0.16123 0.00928 0.85473 0.0
C1019 C 0.18212 0.98598 0.86107 0.0
C1020 C 0.17069 0.96273 0.85103 0.0
C1021 C 0.1379 0.96316 0.83491 0.0
C1022 C 0.11631 0.98568 0.82889 0.0
C1023 C 0.08031 0.98073 0.81202 0.0
C1024 C 0.03191 0.98837 0.81969 0.0
C1025 C 0.09295 0.99459 0.79135 0.0
C1026 C 0.08456 0.95189 0.80969 0.0
C1027 C 0.11874 0.94216 0.82263 0.0
C1028 C 0.12991 0.91608 0.82266 0.0
C1029 C 0.1048 0.89948 0.80942 0.0
C1030 C 0.06846 0.90903 0.7968 0.0
C1031 C 0.05851 0.93552 0.79682 0.0
H1032 H 0.11137 0.11081 0.02477 0.0
H1033 H 0.25448 0.13492 0.02983 0.0
H1034 H 0.24705 0.13617 0.06874 0.0
H1035 H 0.06794 0.14925 0.06923 0.0
H1036 H 0.02765 0.12459 0.07722 0.0
H1037 H 0.04349 0.12777 0.04984 0.0
H1038 H 0.06867 0.08001 0.04924 0.0
H1039 H 0.05319 0.07672 0.07661 0.0
H1040 H 0.11079 0.06891 0.06808 0.0
H1041 H 0.22559 0.13051 0.10741 0.0
H1042 H 0.19151 0.12024 0.1421 0.0
H1043 H 0.06136 0.1017 0.11146 0.0
C1044 C 0.14106 0.11659 0.03404 0.0
C1045 C 0.18356 0.12274 0.02424 0.0
C1046 C 0.22146 0.13039 0.03696 0.0
C1047 C 0.2176 0.13104 0.05908 0.0
C1048 C 0.17543 0.1243 0.06825 0.0
C1049 C 0.13769 0.11752 0.05608 0.0
C1050 C 0.0967 0.1103 0.06972 0.0
C1051 C 0.05658 0.1291 0.0663 0.0
C1052 C 0.08147 0.08233 0.06567 0.0
C1053 C 0.11756 0.11339 0.0915 0.0
C1054 C 0.16292 0.12158 0.09037 0.0
C1055 C 0.18985 0.12451 0.10847 0.0
C1056 C 0.17001 0.11875 0.12818 0.0
C1057 C 0.12354 0.11017 0.12974 0.0
C1058 C 0.09707 0.1079 0.11101 0.0
H1059 H 0.30586 0.34668 0.53381 0.0
H1060 H 0.27587 0.42841 0.53578 0.0
H1061 H 0.27639 0.42701 0.57466 0.0
H1062 H 0.23418 0.32902 0.57891 0.0
H1063 H 0.27393 0.30496 0.58819 0.0
H1064 H 0.27052 0.31225 0.56043 0.0
H1065 H 0.35833 0.32188 0.55981 0.0
H1066 H 0.36201 0.31469 0.58756 0.0
H1067 H 0.38202 0.34535 0.5778 0.0
H1068 H 0.28318 0.41727 0.61328 0.0
H1069 H 0.29337 0.39939 0.64912 0.0
H1070 H 0.31624 0.32375 0.62231 0.0
C1071 C 0.29874 0.36422 0.54239 0.0
C1072 C 0.29116 0.38771 0.53164 0.0
C1073 C 0.28263 0.41027 0.54357 0.0
C1074 C 0.28251 0.40965 0.56569 0.0
C1075 C 0.29062 0.38628 0.57574 0.0
C1076 C 0.29828 0.36393 0.56451 0.0
C1077 C 0.30666 0.34141 0.57923 0.0
C1078 C 0.26907 0.32069 0.57653 0.0
C1079 C 0.35514 0.33018 0.5759 0.0
C1080 C 0.30281 0.35466 0.60047 0.0
C1081 C 0.29363 0.38055 0.59808 0.0
C1082 C 0.29007 0.39699 0.61536 0.0
C1083 C 0.2961 0.3867 0.63564 0.0
C1084 C 0.30539 0.3602 0.6385 0.0
C1085 C 0.30849 0.34401 0.62063 0.0
H1086 H 0.65946 0.40409 0.98925 0.0
H1087 H 0.6521 0.32165 0.99973 0.0
H1088 H 0.64432 0.31475 0.96126 0.0
H1089 H 0.57516 0.40639 0.94741 0.0
H1090 H 0.6056 0.43111 0.93302 0.0
H1091 H 0.61074 0.42935 0.96131 0.0
H1092 H 0.69978 0.42682 0.95793 0.0
H1093 H 0.69492 0.42859 0.92964 0.0
H1094 H 0.72505 0.40213 0.94172 0.0
H1095 H 0.63735 0.31714 0.92129 0.0
H1096 H 0.63456 0.32851 0.88341 0.0
H1097 H 0.64368 0.40944 0.89979 0.0
C1098 C 0.65571 0.38457 0.98354 0.0
C1099 C 0.65623 0.36341 0.99757 0.0
C1100 C 0.65226 0.33816 0.9893 0.0
C1101 C 0.64749 0.33406 0.96748 0.0
C1102 C 0.64675 0.3554 0.95414 0.0
C1103 C 0.65084 0.38015 0.96189 0.0
C1104 C 0.64961 0.39984 0.9443 0.0
C1105 C 0.60778 0.41772 0.94665 0.0
C1106 C 0.69505 0.41524 0.94335 0.0
C1107 C 0.64437 0.38233 0.92539 0.0
C1108 C 0.64263 0.35677 0.93134 0.0
C1109 C 0.63848 0.33711 0.91648 0.0
C1110 C 0.63659 0.34376 0.895 0.0
C1111 C 0.63894 0.36987 0.88856 0.0
C1112 C 0.64236 0.38929 0.90411 0.0
H1113 H 0.89367 0.16418 0.49658 0.0
H1114 H 0.83463 0.08742 0.49353 0.0
H1115 H 0.83931 0.08862 0.45462 0.0
H1116 H 0.83624 0.18973 0.45139 0.0
H1117 H 0.8849 0.20857 0.44253 0.0
H1118 H 0.87808 0.20147 0.47018 0.0
H1119 H 0.95975 0.18139 0.47105 0.0
H1120 H 0.96686 0.1885 0.44341 0.0
H1121 H 0.97382 0.15601 0.45281 0.0
H1122 H 0.84608 0.09916 0.41601 0.0
H1123 H 0.85749 0.11736 0.38055 0.0
H1124 H 0.91701 0.18632 0.40852 0.0
C1125 C 0.88181 0.14763 0.4877 0.0
C1126 C 0.86388 0.12566 0.4981 0.0
C1127 C 0.84901 0.10431 0.48593 0.0
C1128 C 0.85132 0.10486 0.46381 0.0
C1129 C 0.86902 0.12682 0.45405 0.0
C1130 C 0.88439 0.14773 0.46559 0.0
C1131 C 0.90194 0.16893 0.45117 0.0
C1132 C 0.87359 0.19363 0.45399 0.0
C1133 C 0.95367 0.17399 0.45483 0.0
C1134 C 0.89336 0.15681 0.42973 0.0
C1135 C 0.87426 0.13256 0.43177 0.0
C1136 C 0.8617 0.11799 0.41422 0.0
C1137 C 0.86876 0.12848 0.39406 0.0
C1138 C 0.88869 0.15329 0.39145 0.0
C1139 C 0.90134 0.16744 0.40971 0.0
H1140 H 0.78966 0.89264 0.98551 0.0
H1141 H 0.87923 0.83016 1.00431 0.0
H1142 H 0.89261 0.81941 0.96669 0.0
H1143 H 0.73616 0.85865 0.94204 0.0
H1144 H 0.73184 0.8869 0.92566 0.0
H1145 H 0.7306 0.88997 0.95396 0.0
H1146 H 0.79934 0.92199 0.95231 0.0
H1147 H 0.80091 0.91896 0.92401 0.0
H1148 H 0.85198 0.91253 0.93936 0.0
H1149 H 0.89891 0.817 0.92686 0.0
H1150 H 0.89125 0.82019 0.88794 0.0
H1151 H 0.79295 0.88207 0.89538 0.0
C1152 C 0.81209 0.87672 0.98163 0.0
C1153 C 0.83372 0.86227 0.99767 0.0
C1154 C 0.86239 0.84138 0.99215 0.0
C1155 C 0.87028 0.83523 0.97087 0.0
C1156 C 0.84863 0.84994 0.95538 0.0
C1157 C 0.81957 0.87002 0.96051 0.0
C1158 C 0.79916 0.8822 0.94091 0.0
C1159 C 0.74631 0.87924 0.94063 0.0
C1160 C 0.81373 0.9106 0.93904 0.0
C1161 C 0.82149 0.86599 0.92392 0.0
C1162 C 0.85038 0.84769 0.93257 0.0
C1163 C 0.87603 0.83107 0.91993 0.0
C1164 C 0.87163 0.83305 0.89791 0.0
C1165 C 0.84129 0.85119 0.88884 0.0
C1166 C 0.81599 0.86785 0.90202 0.0
H1167 H 0.61649 0.61214 0.49319 0.0
H1168 H 0.74953 0.64816 0.48131 0.0
H1169 H 0.73694 0.64345 0.44299 0.0
H1170 H 0.62481 0.56491 0.45263 0.0
H1171 H 0.56445 0.56599 0.44578 0.0
H1172 H 0.58262 0.57361 0.47224 0.0
H1173 H 0.5419 0.61776 0.46963 0.0
H1174 H 0.52359 0.61028 0.44315 0.0
H1175 H 0.55619 0.63924 0.44824 0.0
H1176 H 0.71153 0.63294 0.4059 0.0
H1177 H 0.67558 0.61728 0.37302 0.0
H1178 H 0.55895 0.58813 0.40898 0.0
C1179 C 0.64309 0.61902 0.48258 0.0
C1180 C 0.68399 0.63065 0.49039 0.0
C1181 C 0.71756 0.6396 0.47582 0.0
C1182 C 0.71085 0.63687 0.45398 0.0
C1183 C 0.67035 0.62516 0.44688 0.0
C1184 C 0.637 0.61641 0.46074 0.0
C1185 C 0.59713 0.60388 0.44903 0.0
C1186 C 0.59197 0.57541 0.45529 0.0
C1187 C 0.55204 0.61868 0.45273 0.0
C1188 C 0.61352 0.60667 0.42643 0.0
C1189 C 0.65571 0.61912 0.42552 0.0
C1190 C 0.67827 0.62339 0.40642 0.0
C1191 C 0.65734 0.61457 0.38777 0.0
C1192 C 0.61418 0.60157 0.38827 0.0
C1193 C 0.59204 0.59781 0.40796 0.0
H1194 H 0.3882 0.66006 0.02158 0.0
H1195 H 0.26825 0.61093 0.02941 0.0
H1196 H 0.27216 0.61701 0.06816 0.0
H1197 H 0.44925 0.63722 0.06738 0.0
H1198 H 0.47307 0.66823 0.07415 0.0
H1199 H 0.45981 0.6608 0.04705 0.0
H1200 H 0.40781 0.70112 0.04482 0.0
H1201 H 0.42093 0.70867 0.07193 0.0
H1202 H 0.36172 0.70512 0.06362 0.0
H1203 H 0.28891 0.62858 0.10585 0.0
H1204 H 0.31816 0.64378 0.14015 0.0
H1205 H 0.43034 0.68366 0.10824 0.0
C1206 C 0.36271 0.65079 0.03155 0.0
C1207 C 0.32767 0.63518 0.02272 0.0
C1208 C 0.29511 0.62304 0.03605 0.0
C1209 C 0.2971 0.62639 0.058 0.0
C1210 C 0.33213 0.64183 0.06634 0.0
C1211 C 0.36449 0.65376 0.05356 0.0
C1212 C 0.39926 0.66876 0.06666 0.0
C1213 C 0.44824 0.65811 0.06363 0.0
C1214 C 0.39729 0.69763 0.06144 0.0
C1215 C 0.38139 0.66339 0.08875 0.0
C1216 C 0.34252 0.64793 0.08817 0.0
C1217 C 0.31955 0.64054 0.10651 0.0
C1218 C 0.33676 0.64913 0.12599 0.0
C1219 C 0.37694 0.6648 0.12712 0.0
C1220 C 0.39934 0.67196 0.10809 0.0
H1221 H 0.19539 0.89577 0.52829 0.0
H1222 H 0.16687 0.81469 0.51798 0.0
H1223 H 0.15058 0.80927 0.55596 0.0
H1224 H 0.25214 0.88889 0.5775 0.0
H1225 H 0.22825 0.91764 0.58892 0.0
H1226 H 0.23584 0.91542 0.56079 0.0
H1227 H 0.14914 0.92537 0.55515 0.0
H1228 H 0.1413 0.92773 0.58329 0.0
H1229 H 0.10617 0.90579 0.56813 0.0
H1230 H 0.14002 0.81234 0.59535 0.0
H1231 H 0.13666 0.82362 0.63315 0.0
H1232 H 0.16957 0.90299 0.61762 0.0
C1233 C 0.18506 0.87694 0.53395 0.0
C1234 C 0.18256 0.85563 0.5201 0.0
C1235 C 0.16967 0.83124 0.52828 0.0
C1236 C 0.16002 0.82799 0.54982 0.0
C1237 C 0.16322 0.84934 0.56303 0.0
C1238 C 0.1753 0.87336 0.55541 0.0
C1239 C 0.17743 0.89301 0.57305 0.0
C1240 C 0.22632 0.9044 0.57519 0.0
C1241 C 0.14136 0.91423 0.5697 0.0
C1242 C 0.16523 0.87622 0.59182 0.0
C1243 C 0.15691 0.85113 0.58569 0.0
C1244 C 0.14606 0.83199 0.60031 0.0
C1245 C 0.14395 0.83863 0.62176 0.0
C1246 C 0.15271 0.86422 0.62847 0.0
C1247 C 0.16311 0.8832 0.61313 0.0
H1248 H 0.21427 0.27031 0.34679 0.0
H1249 H 0.10198 0.28214 0.39097 0.0
H1250 H 0.05294 0.2523 0.3705 0.0
H1251 H 0.14463 0.26677 0.29997 0.0
H1252 H 0.17828 0.24182 0.28781 0.0
H1253 H 0.20528 0.2639 0.30592 0.0
H1254 H 0.23363 0.2257 0.32854 0.0
H1255 H 0.20669 0.20331 0.31063 0.0
H1256 H 0.19246 0.20243 0.33827 0.0
H1257 H 0.01527 0.22245 0.34494 0.0
H1258 H 0.99182 0.19337 0.31622 0.0
H1259 H 0.12852 0.19933 0.2889 0.0
C1260 C 0.17933 0.26662 0.35208 0.0
C1261 C 0.16196 0.27846 0.37052 0.0
C1262 C 0.11616 0.27304 0.37705 0.0
C1263 C 0.08799 0.25621 0.36549 0.0
C1264 C 0.10615 0.24478 0.34747 0.0
C1265 C 0.15079 0.2496 0.34082 0.0
C1266 C 0.16167 0.23459 0.32092 0.0
C1267 C 0.17314 0.25288 0.30257 0.0
C1268 C 0.20094 0.21537 0.32483 0.0
C1269 C 0.11604 0.22081 0.31734 0.0
C1270 C 0.08454 0.22708 0.33284 0.0
C1271 C 0.03971 0.21737 0.33274 0.0
C1272 C 0.02662 0.20092 0.31628 0.0
C1273 C 0.05814 0.19414 0.30015 0.0
C1274 C 0.10363 0.20408 0.3009 0.0
H1275 H 0.32399 0.25044 0.86823 0.0
H1276 H 0.40362 0.18263 0.8527 0.0
H1277 H 0.45051 0.20815 0.82772 0.0
H1278 H 0.31769 0.27548 0.81681 0.0
H1279 H 0.3238 0.30881 0.82436 0.0
H1280 H 0.29929 0.28596 0.84253 0.0
H1281 H 0.36052 0.2986 0.8704 0.0
H1282 H 0.38502 0.32159 0.85224 0.0
H1283 H 0.42093 0.29707 0.86372 0.0
H1284 H 0.48728 0.24031 0.80379 0.0
H1285 H 0.51065 0.27718 0.78157 0.0
H1286 H 0.4048 0.32398 0.81074 0.0
C1287 C 0.35191 0.24118 0.85984 0.0
C1288 C 0.36038 0.21461 0.8624 0.0
C1289 C 0.3966 0.20296 0.8509 0.0
C1290 C 0.42345 0.2173 0.83673 0.0
C1291 C 0.41365 0.24331 0.83418 0.0
C1292 C 0.37889 0.25523 0.84542 0.0
C1293 C 0.37431 0.28319 0.83888 0.0
C1294 C 0.32589 0.28866 0.83009 0.0
C1295 C 0.3859 0.30117 0.85742 0.0
C1296 C 0.41094 0.28484 0.82179 0.0
C1297 C 0.4338 0.26172 0.81968 0.0
C1298 C 0.46972 0.25854 0.80531 0.0
C1299 C 0.48284 0.27958 0.7928 0.0
C1300 C 0.45959 0.30336 0.79448 0.0
C1301 C 0.42302 0.30595 0.8091 0.0
H1302 H 0.7058 0.2293 0.67944 0.0
H1303 H 0.66513 0.2609 0.61857 0.0
H1304 H 0.623 0.29511 0.63673 0.0
H1305 H 0.59377 0.23828 0.70253 0.0
H1306 H 0.61621 0.24509 0.72847 0.0
H1307 H 0.64789 0.22457 0.71082 0.0
H1308 H 0.71999 0.25426 0.71448 0.0
H1309 H 0.68804 0.27434 0.73236 0.0
H1310 H 0.7144 0.28819 0.70919 0.0
H1311 H 0.58436 0.32575 0.66115 0.0
H1312 H 0.54495 0.34819 0.69007 0.0
H1313 H 0.60099 0.2934 0.73494 0.0
C1314 C 0.68787 0.24311 0.66971 0.0
C1315 C 0.69 0.24222 0.64731 0.0
C1316 C 0.66598 0.26128 0.63563 0.0
C1317 C 0.64138 0.28081 0.64582 0.0
C1318 C 0.64007 0.2809 0.66777 0.0
C1319 C 0.66194 0.26232 0.67959 0.0
C1320 C 0.65175 0.26559 0.70294 0.0
C1321 C 0.62586 0.24198 0.7117 0.0
C1322 C 0.69622 0.27093 0.71547 0.0
C1323 C 0.62093 0.28906 0.70237 0.0
C1324 C 0.61528 0.29775 0.68191 0.0
C1325 C 0.58839 0.31908 0.67722 0.0
C1326 C 0.56608 0.33167 0.69381 0.0
C1327 C 0.57011 0.32274 0.71489 0.0
C1328 C 0.59813 0.30116 0.71916 0.0
H1329 H 0.8328 0.25117 0.14833 0.0
H1330 H 0.86982 0.32306 0.17908 0.0
H1331 H 0.91422 0.29922 0.20568 0.0
H1332 H 0.81935 0.21356 0.19395 0.0
H1333 H 0.84548 0.18494 0.18339 0.0
H1334 H 0.81774 0.20745 0.16595 0.0
H1335 H 0.89305 0.21185 0.14406 0.0
H1336 H 0.92072 0.18903 0.16129 0.0
H1337 H 0.94619 0.22034 0.15722 0.0
H1338 H 0.94754 0.2677 0.23108 0.0
H1339 H 0.97692 0.23013 0.25103 0.0
H1340 H 0.92515 0.17911 0.20232 0.0
C1341 C 0.85102 0.26195 0.16037 0.0
C1342 C 0.84694 0.28899 0.16181 0.0
C1343 C 0.87123 0.30229 0.17795 0.0
C1344 C 0.89686 0.28896 0.19309 0.0
C1345 C 0.89883 0.26232 0.19166 0.0
C1346 C 0.87748 0.24893 0.17549 0.0
C1347 C 0.88523 0.22024 0.17773 0.0
C1348 C 0.83921 0.2057 0.18041 0.0
C1349 C 0.91295 0.20975 0.15896 0.0
C1350 C 0.91338 0.21968 0.19787 0.0
C1351 C 0.92048 0.24416 0.20575 0.0
C1352 C 0.94295 0.24846 0.2249 0.0
C1353 C 0.95915 0.22713 0.23618 0.0
C1354 C 0.95344 0.20207 0.22799 0.0
C1355 C 0.93037 0.19827 0.20864 0.0
H1356 H 0.87379 0.70576 0.6758 0.0
H1357 H 0.76547 0.7497 0.64551 0.0
H1358 H 0.79233 0.78893 0.664 0.0
H1359 H 0.87016 0.73795 0.72595 0.0
H1360 H 0.93172 0.73732 0.72996 0.0
H1361 H 0.90411 0.71257 0.71449 0.0
H1362 H 0.95811 0.72285 0.68296 0.0
H1363 H 0.98622 0.74747 0.69837 0.0
H1364 H 0.96152 0.75534 0.67307 0.0
H1365 H 0.82773 0.82263 0.6877 0.0
H1366 H 0.87498 0.84963 0.7116 0.0
H1367 H 0.96376 0.78459 0.72452 0.0
C1368 C 0.85587 0.72368 0.67304 0.0
C1369 C 0.81752 0.72475 0.65925 0.0
C1370 C 0.79513 0.74855 0.65588 0.0
C1371 C 0.80994 0.77086 0.66642 0.0
C1372 C 0.84756 0.76911 0.68007 0.0
C1373 C 0.87065 0.74621 0.68319 0.0
C1374 C 0.91075 0.74969 0.69833 0.0
C1375 C 0.90375 0.73341 0.71837 0.0
C1376 C 0.95688 0.74347 0.68753 0.0
C1377 C 0.9068 0.77813 0.70315 0.0
C1378 C 0.86957 0.78886 0.69277 0.0
C1379 C 0.85741 0.81453 0.69562 0.0
C1380 C 0.88436 0.82969 0.70922 0.0
C1381 C 0.92344 0.81927 0.71948 0.0
C1382 C 0.93471 0.79316 0.71641 0.0
H1383 H 0.64521 0.75952 0.14651 0.0
H1384 H 0.72126 0.79973 0.19585 0.0
H1385 H 0.68247 0.77347 0.22257 0.0
H1386 H 0.53931 0.74866 0.17392 0.0
H1387 H 0.53175 0.71631 0.16423 0.0
H1388 H 0.56329 0.73952 0.14877 0.0
H1389 H 0.63303 0.70831 0.14778 0.0
H1390 H 0.6012 0.68539 0.16346 0.0
H1391 H 0.65695 0.69664 0.17223 0.0
H1392 H 0.63114 0.74596 0.24431 0.0
H1393 H 0.58011 0.71273 0.25958 0.0
H1394 H 0.54702 0.68465 0.19713 0.0
C1395 C 0.65427 0.76272 0.16287 0.0
C1396 C 0.68536 0.78262 0.16886 0.0
C1397 C 0.69604 0.78571 0.19061 0.0
C1398 C 0.67451 0.77064 0.20604 0.0
C1399 C 0.64331 0.75185 0.1996 0.0
C1400 C 0.63406 0.74726 0.17856 0.0
C1401 C 0.60113 0.72461 0.17607 0.0
C1402 C 0.5562 0.7328 0.1651 0.0
C1403 C 0.62449 0.70242 0.16418 0.0
C1404 C 0.59272 0.71767 0.19904 0.0
C1405 C 0.61706 0.73395 0.21227 0.0
C1406 C 0.6132 0.73252 0.23413 0.0
C1407 C 0.58486 0.71337 0.24272 0.0
C1408 C 0.56222 0.6954 0.22961 0.0
C1409 C 0.56512 0.69789 0.20746 0.0
H1410 H 0.33302 0.76782 0.36225 0.0
H1411 H 0.39392 0.83383 0.33058 0.0
H1412 H 0.44047 0.80491 0.30854 0.0
H1413 H 0.43993 0.72801 0.36171 0.0
H1414 H 0.40797 0.69866 0.35731 0.0
H1415 H 0.38216 0.7246 0.37195 0.0
H1416 H 0.3128 0.72439 0.34612 0.0
H1417 H 0.3386 0.69876 0.3312 0.0
H1418 H 0.32307 0.72835 0.31825 0.0
H1419 H 0.4723 0.76936 0.28682 0.0
H1420 H 0.49349 0.72866 0.26906 0.0
H1421 H 0.41782 0.68546 0.3163 0.0
C1422 C 0.35702 0.77618 0.35107 0.0
C1423 C 0.35934 0.8031 0.34797 0.0
C1424 C 0.39079 0.81326 0.33295 0.0
C1425 C 0.41767 0.79701 0.32044 0.0
C1426 C 0.41346 0.7706 0.32338 0.0
C1427 C 0.38459 0.76018 0.33855 0.0
C1428 C 0.38539 0.73103 0.33783 0.0
C1429 C 0.40504 0.71992 0.35843 0.0
C1430 C 0.3371 0.71999 0.33306 0.0
C1431 C 0.41812 0.7268 0.31953 0.0
C1432 C 0.43382 0.74992 0.3114 0.0
C1433 C 0.46115 0.75111 0.29332 0.0
C1434 C 0.4728 0.72803 0.28329 0.0
C1435 C 0.45773 0.70425 0.29161 0.0
C1436 C 0.43051 0.70355 0.31003 0.0
H1437 H 0.12328 0.73975 0.87381 0.0
H1438 H 0.21264 0.70063 0.82926 0.0
H1439 H 0.18235 0.72733 0.80048 0.0
H1440 H 0.02637 0.74716 0.83985 0.0
H1441 H 0.01191 0.77907 0.84868 0.0
H1442 H 0.0408 0.7572 0.86628 0.0
H1443 H 0.1065 0.79051 0.87196 0.0
H1444 H 0.0775 0.81258 0.85455 0.0
H1445 H 0.13642 0.80355 0.84939 0.0
H1446 H 0.13941 0.75592 0.77601 0.0
H1447 H 0.09205 0.78832 0.75783 0.0
H1448 H 0.03389 0.81149 0.81806 0.0
C1449 C 0.13687 0.73705 0.85806 0.0
C1450 C 0.16964 0.71762 0.8538 0.0
C1451 C 0.18653 0.71479 0.8329 0.0
C1452 C 0.16978 0.72999 0.8164 0.0
C1453 C 0.13658 0.74835 0.82099 0.0
C1454 C 0.12078 0.75232 0.84131 0.0
C1455 C 0.0853 0.77371 0.84176 0.0
C1456 C 0.03832 0.76368 0.84961 0.0
C1457 C 0.10247 0.79643 0.85521 0.0
C1458 C 0.0834 0.78078 0.81853 0.0
C1459 C 0.11308 0.76578 0.80685 0.0
C1460 C 0.11646 0.76808 0.785 0.0
C1461 C 0.08932 0.78655 0.77481 0.0
C1462 C 0.05963 0.80279 0.78647 0.0
C1463 C 0.05648 0.79959 0.80864 0.0
loop_
_geom_bond_atom_site_label_1
_geom_bond_atom_site_label_2
_geom_bond_distance
_geom_bond_site_symmetry_2
_ccdc_geom_bond_type
C0 C1 1.391 . S
C0 C4 1.391 . S
C0 H42 0.948 . S
C1 C0 1.391 . S
C1 C2 1.391 . S
C2 C1 1.391 . S
C2 H58 0.947 . S
C2 C59 1.392 . S
C3 C4 1.391 . S
C3 C7 1.397 . S
C3 C59 1.419 . S
C4 C0 1.391 . S
C4 C3 1.391 . S
C4 C5 1.399 . S
C5 C4 1.399 . S
C5 C8 1.396 . S
C5 C17 1.453 . S
C5 C18 1.684 . S
H6 C30 0.948 . S
C7 C3 1.397 . S
C7 C8 1.394 . S
C7 C26 1.723 . S
C8 C5 1.396 . S
C8 C7 1.394 . S
C8 C38 1.723 . S
H9 C32 0.947 . S
H10 C33 0.948 . S
H11 C39 0.982 . S
H12 C40 0.979 . S
H13 C40 0.980 . S
H14 C40 0.983 . S
H15 C39 0.979 . S
H16 C39 0.977 . S
C17 C5 1.453 . S
C17 H46 0.982 . S
C17 H47 0.979 . S
C17 H48 0.977 . S
C18 C5 1.684 . S
C18 H43 0.979 . S
C18 H44 0.980 . S
C18 H45 0.983 . S
C19 C20 1.391 . S
C19 C24 1.391 . S
C19 H49 0.948 . S
C20 C19 1.391 . S
C20 C21 1.391 . S
C21 C20 1.391 . S
C21 C22 1.392 . S
C21 H50 0.947 . S
C22 C21 1.392 . S
C22 C23 1.419 . S
C22 H51 0.948 . S
C23 C22 1.419 . S
C23 C24 1.391 . S
C23 C27 1.397 . S
C24 C19 1.391 . S
C24 C23 1.391 . S
C24 C25 1.399 . S
C25 C24 1.399 . S
C25 C26 1.396 . S
C25 C28 1.453 . S
C25 C29 1.684 . S
C26 C7 1.723 . S
C26 C25 1.396 . S
C26 C27 1.394 . S
C27 C23 1.397 . S
C27 C26 1.394 . S
C27 C37 1.723 . S
C28 C25 1.453 . S
C28 H52 0.982 . S
C28 H53 0.979 . S
C28 H54 0.977 . S
C29 C25 1.684 . S
C29 H55 0.979 . S
C29 H56 0.980 . S
C29 H57 0.983 . S
C30 H6 0.948 . S
C30 C31 1.391 . S
C30 C35 1.391 . S
C31 C30 1.391 . S
C31 C32 1.391 . S
C32 H9 0.947 . S
C32 C31 1.391 . S
C32 C33 1.392 . S
C33 H10 0.948 . S
C33 C32 1.392 . S
C33 C34 1.419 . S
C34 C33 1.419 . S
C34 C35 1.391 . S
C34 C38 1.397 . S
C35 C30 1.391 . S
C35 C34 1.391 . S
C35 C36 1.399 . S
C36 C35 1.399 . S
C36 C37 1.396 . S
C36 C39 1.453 . S
C36 C40 1.684 . S
C37 C27 1.723 . S
C37 C36 1.396 . S
C37 C38 1.394 . S
C38 C8 1.723 . S
C38 C34 1.397 . S
C38 C37 1.394 . S
C39 H11 0.982 . S
C39 H15 0.979 . S
C39 H16 0.977 . S
C39 C36 1.453 . S
C40 H12 0.979 . S
C40 H13 0.980 . S
C40 H14 0.983 . S
C40 C36 1.684 . S
H41 C59 0.948 . S
H42 C0 0.948 . S
H43 C18 0.979 . S
H44 C18 0.980 . S
H45 C18 0.983 . S
H46 C17 0.982 . S
H47 C17 0.979 . S
H48 C17 0.977 . S
H49 C19 0.948 . S
H50 C21 0.947 . S
H51 C22 0.948 . S
H52 C28 0.982 . S
H53 C28 0.979 . S
H54 C28 0.977 . S
H55 C29 0.979 . S
H56 C29 0.980 . S
H57 C29 0.983 . S
H58 C2 0.947 . S
C59 C2 1.392 . S
C59 C3 1.419 . S
C59 H41 0.948 . S
C60 C61 1.391 . S
C60 C64 1.391 . S
C60 H102 0.948 . S
C61 C60 1.391 . S
C61 C62 1.391 . S
C62 C61 1.391 . S
C62 H118 0.947 . S
C62 C119 1.392 . S
C63 C64 1.391 . S
C63 C67 1.397 . S
C63 C119 1.419 . S
C64 C60 1.391 . S
C64 C63 1.391 . S
C64 C65 1.399 . S
C65 C64 1.399 . S
C65 C68 1.396 . S
C65 C77 1.453 . S
C65 C78 1.684 . S
H66 C90 0.948 . S
C67 C63 1.397 . S
C67 C68 1.394 . S
C67 C86 1.723 . S
C68 C65 1.396 . S
C68 C67 1.394 . S
C68 C98 1.723 . S
H69 C92 0.947 . S
H70 C93 0.948 . S
H71 C99 0.982 . S
H72 C100 0.979 . S
H73 C100 0.980 . S
H74 C100 0.983 . S
H75 C99 0.979 . S
H76 C99 0.977 . S
C77 C65 1.453 . S
C77 H106 0.982 . S
C77 H107 0.979 . S
C77 H108 0.977 . S
C78 C65 1.684 . S
C78 H103 0.979 . S
C78 H104 0.980 . S
C78 H105 0.983 . S
C79 C80 1.391 . S
C79 C84 1.391 . S
C79 H109 0.948 . S
C80 C79 1.391 . S
C80 C81 1.391 . S
C81 C80 1.391 . S
C81 C82 1.392 . S
C81 H110 0.947 . S
C82 C81 1.392 . S
C82 C83 1.419 . S
C82 H111 0.948 . S
C83 C82 1.419 . S
C83 C84 1.391 . S
C83 C87 1.397 . S
C84 C79 1.391 . S
C84 C83 1.391 . S
C84 C85 1.399 . S
C85 C84 1.399 . S
C85 C86 1.396 . S
C85 C88 1.453 . S
C85 C89 1.684 . S
C86 C67 1.723 . S
C86 C85 1.396 . S
C86 C87 1.394 . S
C87 C83 1.397 . S
C87 C86 1.394 . S
C87 C97 1.723 . S
C88 C85 1.453 . S
C88 H112 0.982 . S
C88 H113 0.979 . S
C88 H114 0.977 . S
C89 C85 1.684 . S
C89 H115 0.979 . S
C89 H116 0.980 . S
C89 H117 0.983 . S
C90 H66 0.948 . S
C90 C91 1.391 . S
C90 C95 1.391 . S
C91 C90 1.391 . S
C91 C92 1.391 . S
C92 H69 0.947 . S
C92 C91 1.391 . S
C92 C93 1.392 . S
C93 H70 0.948 . S
C93 C92 1.392 . S
C93 C94 1.419 . S
C94 C93 1.419 . S
C94 C95 1.391 . S
C94 C98 1.397 . S
C95 C90 1.391 . S
C95 C94 1.391 . S
C95 C96 1.399 . S
C96 C95 1.399 . S
C96 C97 1.396 . S
C96 C99 1.453 . S
C96 C100 1.684 . S
C97 C87 1.723 . S
C97 C96 1.396 . S
C97 C98 1.394 . S
C98 C68 1.723 . S
C98 C94 1.397 . S
C98 C97 1.394 . S
C99 H71 0.982 . S
C99 H75 0.979 . S
C99 H76 0.977 . S
C99 C96 1.453 . S
C100 H72 0.979 . S
C100 H73 0.980 . S
C100 H74 0.983 . S
C100 C96 1.684 . S
H101 C119 0.948 . S
H102 C60 0.948 . S
H103 C78 0.979 . S
H104 C78 0.980 . S
H105 C78 0.983 . S
H106 C77 0.982 . S
H107 C77 0.979 . S
H108 C77 0.977 . S
H109 C79 0.948 . S
H110 C81 0.947 . S
H111 C82 0.948 . S
H112 C88 0.982 . S
H113 C88 0.979 . S
H114 C88 0.977 . S
H115 C89 0.979 . S
H116 C89 0.980 . S
H117 C89 0.983 . S
H118 C62 0.947 . S
C119 C62 1.392 . S
C119 C63 1.419 . S
C119 H101 0.948 . S
C120 C121 1.391 . S
C120 C124 1.391 . S
C120 H162 0.948 . S
C121 C120 1.391 . S
C121 C122 1.391 . S
C122 C121 1.391 . S
C122 H178 0.947 . S
C122 C179 1.392 . S
C123 C124 1.391 . S
C123 C127 1.397 . S
C123 C179 1.419 . S
C124 C120 1.391 . S
C124 C123 1.391 . S
C124 C125 1.399 . S
C125 C124 1.399 . S
C125 C128 1.396 . S
C125 C137 1.453 . S
C125 C138 1.684 . S
H126 C150 0.948 . S
C127 C123 1.397 . S
C127 C128 1.394 . S
C127 C146 1.723 . S
C128 C125 1.396 . S
C128 C127 1.394 . S
C128 C158 1.723 . S
H129 C152 0.947 . S
H130 C153 0.948 . S
H131 C159 0.982 . S
H132 C160 0.979 . S
H133 C160 0.980 . S
H134 C160 0.983 . S
H135 C159 0.979 . S
H136 C159 0.977 . S
C137 C125 1.453 . S
C137 H166 0.982 . S
C137 H167 0.979 . S
C137 H168 0.977 . S
C138 C125 1.684 . S
C138 H163 0.979 . S
C138 H164 0.980 . S
C138 H165 0.983 . S
C139 C140 1.391 . S
C139 C144 1.391 . S
C139 H169 0.948 . S
C140 C139 1.391 . S
C140 C141 1.391 . S
C141 C140 1.391 . S
C141 C142 1.392 . S
C141 H170 0.947 . S
C142 C141 1.392 . S
C142 C143 1.419 . S
C142 H171 0.948 . S
C143 C142 1.419 . S
C143 C144 1.391 . S
C143 C147 1.397 . S
C144 C139 1.391 . S
C144 C143 1.391 . S
C144 C145 1.399 . S
C145 C144 1.399 . S
C145 C146 1.396 . S
C145 C148 1.453 . S
C145 C149 1.684 . S
C146 C127 1.723 . S
C146 C145 1.396 . S
C146 C147 1.394 . S
C147 C143 1.397 . S
C147 C146 1.394 . S
C147 C157 1.723 . S
C148 C145 1.453 . S
C148 H172 0.982 . S
C148 H173 0.979 . S
C148 H174 0.977 . S
C149 C145 1.684 . S
C149 H175 0.979 . S
C149 H176 0.980 . S
C149 H177 0.983 . S
C150 H126 0.948 . S
C150 C151 1.391 . S
C150 C155 1.391 . S
C151 C150 1.391 . S
C151 C152 1.391 . S
C152 H129 0.947 . S
C152 C151 1.391 . S
C152 C153 1.392 . S
C153 H130 0.948 . S
C153 C152 1.392 . S
C153 C154 1.419 . S
C154 C153 1.419 . S
C154 C155 1.391 . S
C154 C158 1.397 . S
C155 C150 1.391 . S
C155 C154 1.391 . S
C155 C156 1.399 . S
C156 C155 1.399 . S
C156 C157 1.396 . S
C156 C159 1.453 . S
C156 C160 1.684 . S
C157 C147 1.723 . S
C157 C156 1.396 . S
C157 C158 1.394 . S
C158 C128 1.723 . S
C158 C154 1.397 . S
C158 C157 1.394 . S
C159 H131 0.982 . S
C159 H135 0.979 . S
C159 H136 0.977 . S
C159 C156 1.453 . S
C160 H132 0.979 . S
C160 H133 0.980 . S
C160 H134 0.983 . S
C160 C156 1.684 . S
H161 C179 0.948 . S
H162 C120 0.948 . S
H163 C138 0.979 . S
H164 C138 0.980 . S
H165 C138 0.983 . S
H166 C137 0.982 . S
H167 C137 0.979 . S
H168 C137 0.977 . S
H169 C139 0.948 . S
H170 C141 0.947 . S
H171 C142 0.948 . S
H172 C148 0.982 . S
H173 C148 0.979 . S
H174 C148 0.977 . S
H175 C149 0.979 . S
H176 C149 0.980 . S
H177 C149 0.983 . S
H178 C122 0.947 . S
C179 C122 1.392 . S
C179 C123 1.419 . S
C179 H161 0.948 . S
C180 C181 1.391 . S
C180 C184 1.391 . S
C180 H222 0.948 . S
C181 C180 1.391 . S
C181 C182 1.391 . S
C182 C181 1.391 . S
C182 H238 0.947 . S
C182 C239 1.392 . S
C183 C184 1.391 . S
C183 C187 1.397 . S
C183 C239 1.419 . S
C184 C180 1.391 . S
C184 C183 1.391 . S
C184 C185 1.399 . S
C185 C184 1.399 . S
C185 C188 1.396 . S
C185 C197 1.453 . S
C185 C198 1.684 . S
H186 C210 0.948 . S
C187 C183 1.397 . S
C187 C188 1.394 . S
C187 C206 1.723 . S
C188 C185 1.396 . S
C188 C187 1.394 . S
C188 C218 1.723 . S
H189 C212 0.947 . S
H190 C213 0.948 . S
H191 C219 0.982 . S
H192 C220 0.979 . S
H193 C220 0.980 . S
H194 C220 0.983 . S
H195 C219 0.979 . S
H196 C219 0.977 . S
C197 C185 1.453 . S
C197 H226 0.982 . S
C197 H227 0.979 . S
C197 H228 0.977 . S
C198 C185 1.684 . S
C198 H223 0.979 . S
C198 H224 0.980 . S
C198 H225 0.983 . S
C199 C200 1.391 . S
C199 C204 1.391 . S
C199 H229 0.948 . S
C200 C199 1.391 . S
C200 C201 1.391 . S
C201 C200 1.391 . S
C201 C202 1.392 . S
C201 H230 0.947 . S
C202 C201 1.392 . S
C202 C203 1.419 . S
C202 H231 0.948 . S
C203 C202 1.419 . S
C203 C204 1.391 . S
C203 C207 1.397 . S
C204 C199 1.391 . S
C204 C203 1.391 . S
C204 C205 1.399 . S
C205 C204 1.399 . S
C205 C206 1.396 . S
C205 C208 1.453 . S
C205 C209 1.684 . S
C206 C187 1.723 . S
C206 C205 1.396 . S
C206 C207 1.394 . S
C207 C203 1.397 . S
C207 C206 1.394 . S
C207 C217 1.723 . S
C208 C205 1.453 . S
C208 H232 0.982 . S
C208 H233 0.979 . S
C208 H234 0.977 . S
C209 C205 1.684 . S
C209 H235 0.979 . S
C209 H236 0.980 . S
C209 H237 0.983 . S
C210 H186 0.948 . S
C210 C211 1.391 . S
C210 C215 1.391 . S
C211 C210 1.391 . S
C211 C212 1.391 . S
C212 H189 0.947 . S
C212 C211 1.391 . S
C212 C213 1.392 . S
C213 H190 0.948 . S
C213 C212 1.392 . S
C213 C214 1.419 . S
C214 C213 1.419 . S
C214 C215 1.391 . S
C214 C218 1.397 . S
C215 C210 1.391 . S
C215 C214 1.391 . S
C215 C216 1.399 . S
C216 C215 1.399 . S
C216 C217 1.396 . S
C216 C219 1.453 . S
C216 C220 1.684 . S
C217 C207 1.723 . S
C217 C216 1.396 . S
C217 C218 1.394 . S
C218 C188 1.723 . S
C218 C214 1.397 . S
C218 C217 1.394 . S
C219 H191 0.982 . S
C219 H195 0.979 . S
C219 H196 0.977 . S
C219 C216 1.453 . S
C220 H192 0.979 . S
C220 H193 0.980 . S
C220 H194 0.983 . S
C220 C216 1.684 . S
H221 C239 0.948 . S
H222 C180 0.948 . S
H223 C198 0.979 . S
H224 C198 0.980 . S
H225 C198 0.983 . S
H226 C197 0.982 . S
H227 C197 0.979 . S
H228 C197 0.977 . S
H229 C199 0.948 . S
H230 C201 0.947 . S
H231 C202 0.948 . S
H232 C208 0.982 . S
H233 C208 0.979 . S
H234 C208 0.977 . S
H235 C209 0.979 . S
H236 C209 0.980 . S
H237 C209 0.983 . S
H238 C182 0.947 . S
C239 C182 1.392 . S
C239 C183 1.419 . S
C239 H221 0.948 . S
C240 C241 1.391 . S
C240 C244 1.391 . S
C240 H282 0.948 . S
C241 C240 1.391 . S
C241 C242 1.391 . S
C242 C241 1.391 . S
C242 H298 0.947 . S
C242 C299 1.392 . S
C243 C244 1.391 . S
C243 C247 1.397 . S
C243 C299 1.419 . S
C244 C240 1.391 . S
C244 C243 1.391 . S
C244 C245 1.399 . S
C245 C244 1.399 . S
C245 C248 1.396 . S
C245 C257 1.453 . S
C245 C258 1.684 . S
H246 C270 0.948 . S
C247 C243 1.397 . S
C247 C248 1.394 . S
C247 C266 1.723 . S
C248 C245 1.396 . S
C248 C247 1.394 . S
C248 C278 1.723 . S
H249 C272 0.947 . S
H250 C273 0.948 . S
H251 C279 0.982 . S
H252 C280 0.979 . S
H253 C280 0.980 . S
H254 C280 0.983 . S
H255 C279 0.979 . S
H256 C279 0.977 . S
C257 C245 1.453 . S
C257 H286 0.982 . S
C257 H287 0.979 . S
C257 H288 0.977 . S
C258 C245 1.684 . S
C258 H283 0.979 . S
C258 H284 0.980 . S
C258 H285 0.983 . S
C259 C260 1.391 . S
C259 C264 1.391 . S
C259 H289 0.948 . S
C260 C259 1.391 . S
C260 C261 1.391 . S
C261 C260 1.391 . S
C261 C262 1.392 . S
C261 H290 0.947 . S
C262 C261 1.392 . S
C262 C263 1.419 . S
C262 H291 0.948 . S
C263 C262 1.419 . S
C263 C264 1.391 . S
C263 C267 1.397 . S
C264 C259 1.391 . S
C264 C263 1.391 . S
C264 C265 1.399 . S
C265 C264 1.399 . S
C265 C266 1.396 . S
C265 C268 1.453 . S
C265 C269 1.684 . S
C266 C247 1.723 . S
C266 C265 1.396 . S
C266 C267 1.394 . S
C267 C263 1.397 . S
C267 C266 1.394 . S
C267 C277 1.723 . S
C268 C265 1.453 . S
C268 H292 0.982 . S
C268 H293 0.979 . S
C268 H294 0.977 . S
C269 C265 1.684 . S
C269 H295 0.979 . S
C269 H296 0.980 . S
C269 H297 0.983 . S
C270 H246 0.948 . S
C270 C271 1.391 . S
C270 C275 1.391 . S
C271 C270 1.391 . S
C271 C272 1.391 . S
C272 H249 0.947 . S
C272 C271 1.391 . S
C272 C273 1.392 . S
C273 H250 0.948 . S
C273 C272 1.392 . S
C273 C274 1.419 . S
C274 C273 1.419 . S
C274 C275 1.391 . S
C274 C278 1.397 . S
C275 C270 1.391 . S
C275 C274 1.391 . S
C275 C276 1.399 . S
C276 C275 1.399 . S
C276 C277 1.396 . S
C276 C279 1.453 . S
C276 C280 1.684 . S
C277 C267 1.723 . S
C277 C276 1.396 . S
C277 C278 1.394 . S
C278 C248 1.723 . S
C278 C274 1.397 . S
C278 C277 1.394 . S
C279 H251 0.982 . S
C279 H255 0.979 . S
C279 H256 0.977 . S
C279 C276 1.453 . S
C280 H252 0.979 . S
C280 H253 0.980 . S
C280 H254 0.983 . S
C280 C276 1.684 . S
H281 C299 0.948 . S
H282 C240 0.948 . S
H283 C258 0.979 . S
H284 C258 0.980 . S
H285 C258 0.983 . S
H286 C257 0.982 . S
H287 C257 0.979 . S
H288 C257 0.977 . S
H289 C259 0.948 . S
H290 C261 0.947 . S
H291 C262 0.948 . S
H292 C268 0.982 . S
H293 C268 0.979 . S
H294 C268 0.977 . S
H295 C269 0.979 . S
H296 C269 0.980 . S
H297 C269 0.983 . S
H298 C242 0.947 . S
C299 C242 1.392 . S
C299 C243 1.419 . S
C299 H281 0.948 . S
C300 C301 1.391 . S
C300 C304 1.391 . S
C300 H342 0.948 . S
C301 C300 1.391 . S
C301 C302 1.391 . S
C302 C301 1.391 . S
C302 H358 0.947 . S
C302 C359 1.392 . S
C303 C304 1.391 . S
C303 C307 1.397 . S
C303 C359 1.419 . S
C304 C300 1.391 . S
C304 C303 1.391 . S
C304 C305 1.399 . S
C305 C304 1.399 . S
C305 C308 1.396 . S
C305 C317 1.453 . S
C305 C318 1.684 . S
H306 C330 0.948 . S
C307 C303 1.397 . S
C307 C308 1.394 . S
C307 C326 1.723 . S
C308 C305 1.396 . S
C308 C307 1.394 . S
C308 C338 1.723 . S
H309 C332 0.947 . S
H310 C333 0.948 . S
H311 C339 0.982 . S
H312 C340 0.979 . S
H313 C340 0.980 . S
H314 C340 0.983 . S
H315 C339 0.979 . S
H316 C339 0.977 . S
C317 C305 1.453 . S
C317 H346 0.982 . S
C317 H347 0.979 . S
C317 H348 0.977 . S
C318 C305 1.684 . S
C318 H343 0.979 . S
C318 H344 0.980 . S
C318 H345 0.983 . S
C319 C320 1.391 . S
C319 C324 1.391 . S
C319 H349 0.948 . S
C320 C319 1.391 . S
C320 C321 1.391 . S
C321 C320 1.391 . S
C321 C322 1.392 . S
C321 H350 0.947 . S
C322 C321 1.392 . S
C322 C323 1.419 . S
C322 H351 0.948 . S
C323 C322 1.419 . S
C323 C324 1.391 . S
C323 C327 1.397 . S
C324 C319 1.391 . S
C324 C323 1.391 . S
C324 C325 1.399 . S
C325 C324 1.399 . S
C325 C326 1.396 . S
C325 C328 1.453 . S
C325 C329 1.684 . S
C326 C307 1.723 . S
C326 C325 1.396 . S
C326 C327 1.394 . S
C327 C323 1.397 . S
C327 C326 1.394 . S
C327 C337 1.723 . S
C328 C325 1.453 . S
C328 H352 0.982 . S
C328 H353 0.979 . S
C328 H354 0.977 . S
C329 C325 1.684 . S
C329 H355 0.979 . S
C329 H356 0.980 . S
C329 H357 0.983 . S
C330 H306 0.948 . S
C330 C331 1.391 . S
C330 C335 1.391 . S
C331 C330 1.391 . S
C331 C332 1.391 . S
C332 H309 0.947 . S
C332 C331 1.391 . S
C332 C333 1.392 . S
C333 H310 0.948 . S
C333 C332 1.392 . S
C333 C334 1.419 . S
C334 C333 1.419 . S
C334 C335 1.391 . S
C334 C338 1.397 . S
C335 C330 1.391 . S
C335 C334 1.391 . S
C335 C336 1.399 . S
C336 C335 1.399 . S
C336 C337 1.396 . S
C336 C339 1.453 . S
C336 C340 1.684 . S
C337 C327 1.723 . S
C337 C336 1.396 . S
C337 C338 1.394 . S
C338 C308 1.723 . S
C338 C334 1.397 . S
C338 C337 1.394 . S
C339 H311 0.982 . S
C339 H315 0.979 . S
C339 H316 0.977 . S
C339 C336 1.453 . S
C340 H312 0.979 . S
C340 H313 0.980 . S
C340 H314 0.983 . S
C340 C336 1.684 . S
H341 C359 0.948 . S
H342 C300 0.948 . S
H343 C318 0.979 . S
H344 C318 0.980 . S
H345 C318 0.983 . S
H346 C317 0.982 . S
H347 C317 0.979 . S
H348 C317 0.977 . S
H349 C319 0.948 . S
H350 C321 0.947 . S
H351 C322 0.948 . S
H352 C328 0.982 . S
H353 C328 0.979 . S
H354 C328 0.977 . S
H355 C329 0.979 . S
H356 C329 0.980 . S
H357 C329 0.983 . S
H358 C302 0.947 . S
C359 C302 1.392 . S
C359 C303 1.419 . S
C359 H341 0.948 . S
C360 C361 1.391 . S
C360 C364 1.391 . S
C360 H402 0.948 . S
C361 C360 1.391 . S
C361 C362 1.391 . S
C362 C361 1.391 . S
C362 H418 0.947 . S
C362 C419 1.392 . S
C363 C364 1.391 . S
C363 C367 1.397 . S
C363 C419 1.419 . S
C364 C360 1.391 . S
C364 C363 1.391 . S
C364 C365 1.399 . S
C365 C364 1.399 . S
C365 C368 1.396 . S
C365 C377 1.453 . S
C365 C378 1.684 . S
H366 C390 0.948 . S
C367 C363 1.397 . S
C367 C368 1.394 . S
C367 C386 1.723 . S
C368 C365 1.396 . S
C368 C367 1.394 . S
C368 C398 1.723 . S
H369 C392 0.947 . S
H370 C393 0.948 . S
H371 C399 0.982 . S
H372 C400 0.979 . S
H373 C400 0.980 . S
H374 C400 0.983 . S
H375 C399 0.979 . S
H376 C399 0.977 . S
C377 C365 1.453 . S
C377 H406 0.982 . S
C377 H407 0.979 . S
C377 H408 0.977 . S
C378 C365 1.684 . S
C378 H403 0.979 . S
C378 H404 0.980 . S
C378 H405 0.983 . S
C379 C380 1.391 . S
C379 C384 1.391 . S
C379 H409 0.948 . S
C380 C379 1.391 . S
C380 C381 1.391 . S
C381 C380 1.391 . S
C381 C382 1.392 . S
C381 H410 0.947 . S
C382 C381 1.392 . S
C382 C383 1.419 . S
C382 H411 0.948 . S
C383 C382 1.419 . S
C383 C384 1.391 . S
C383 C387 1.397 . S
C384 C379 1.391 . S
C384 C383 1.391 . S
C384 C385 1.399 . S
C385 C384 1.399 . S
C385 C386 1.396 . S
C385 C388 1.453 . S
C385 C389 1.684 . S
C386 C367 1.723 . S
C386 C385 1.396 . S
C386 C387 1.394 . S
C387 C383 1.397 . S
C387 C386 1.394 . S
C387 C397 1.723 . S
C388 C385 1.453 . S
C388 H412 0.982 . S
C388 H413 0.979 . S
C388 H414 0.977 . S
C389 C385 1.684 . S
C389 H415 0.979 . S
C389 H416 0.980 . S
C389 H417 0.983 . S
C390 H366 0.948 . S
C390 C391 1.391 . S
C390 C395 1.391 . S
C391 C390 1.391 . S
C391 C392 1.391 . S
C392 H369 0.947 . S
C392 C391 1.391 . S
C392 C393 1.392 . S
C393 H370 0.948 . S
C393 C392 1.392 . S
C393 C394 1.419 . S
C394 C393 1.419 . S
C394 C395 1.391 . S
C394 C398 1.397 . S
C395 C390 1.391 . S
C395 C394 1.391 . S
C395 C396 1.399 . S
C396 C395 1.399 . S
C396 C397 1.396 . S
C396 C399 1.453 . S
C396 C400 1.684 . S
C397 C387 1.723 . S
C397 C396 1.396 . S
C397 C398 1.394 . S
C398 C368 1.723 . S
C398 C394 1.397 . S
C398 C397 1.394 . S
C399 H371 0.982 . S
C399 H375 0.979 . S
C399 H376 0.977 . S
C399 C396 1.453 . S
C400 H372 0.979 . S
C400 H373 0.980 . S
C400 H374 0.983 . S
C400 C396 1.684 . S
H401 C419 0.948 . S
H402 C360 0.948 . S
H403 C378 0.979 . S
H404 C378 0.980 . S
H405 C378 0.983 . S
H406 C377 0.982 . S
H407 C377 0.979 . S
H408 C377 0.977 . S
H409 C379 0.948 . S
H410 C381 0.947 . S
H411 C382 0.948 . S
H412 C388 0.982 . S
H413 C388 0.979 . S
H414 C388 0.977 . S
H415 C389 0.979 . S
H416 C389 0.980 . S
H417 C389 0.983 . S
H418 C362 0.947 . S
C419 C362 1.392 . S
C419 C363 1.419 . S
C419 H401 0.948 . S
C420 C421 1.391 . S
C420 C424 1.391 . S
C420 H462 0.948 . S
C421 C420 1.391 . S
C421 C422 1.391 . S
C422 C421 1.391 . S
C422 H478 0.947 . S
C422 C479 1.392 . S
C423 C424 1.391 . S
C423 C427 1.397 . S
C423 C479 1.419 . S
C424 C420 1.391 . S
C424 C423 1.391 . S
C424 C425 1.399 . S
C425 C424 1.399 . S
C425 C428 1.396 . S
C425 C437 1.453 . S
C425 C438 1.684 . S
H426 C450 0.948 . S
C427 C423 1.397 . S
C427 C428 1.394 . S
C427 C446 1.723 . S
C428 C425 1.396 . S
C428 C427 1.394 . S
C428 C458 1.723 . S
H429 C452 0.947 . S
H430 C453 0.948 . S
H431 C459 0.982 . S
H432 C460 0.979 . S
H433 C460 0.980 . S
H434 C460 0.983 . S
H435 C459 0.979 . S
H436 C459 0.977 . S
C437 C425 1.453 . S
C437 H466 0.982 . S
C437 H467 0.979 . S
C437 H468 0.977 . S
C438 C425 1.684 . S
C438 H463 0.979 . S
C438 H464 0.980 . S
C438 H465 0.983 . S
C439 C440 1.391 . S
C439 C444 1.391 . S
C439 H469 0.948 . S
C440 C439 1.391 . S
C440 C441 1.391 . S
C441 C440 1.391 . S
C441 C442 1.392 . S
C441 H470 0.947 . S
C442 C441 1.392 . S
C442 C443 1.419 . S
C442 H471 0.948 . S
C443 C442 1.419 . S
C443 C444 1.391 . S
C443 C447 1.397 . S
C444 C439 1.391 . S
C444 C443 1.391 . S
C444 C445 1.399 . S
C445 C444 1.399 . S
C445 C446 1.396 . S
C445 C448 1.453 . S
C445 C449 1.684 . S
C446 C427 1.723 . S
C446 C445 1.396 . S
C446 C447 1.394 . S
C447 C443 1.397 . S
C447 C446 1.394 . S
C447 C457 1.723 . S
C448 C445 1.453 . S
C448 H472 0.982 . S
C448 H473 0.979 . S
C448 H474 0.977 . S
C449 C445 1.684 . S
C449 H475 0.979 . S
C449 H476 0.980 . S
C449 H477 0.983 . S
C450 H426 0.948 . S
C450 C451 1.391 . S
C450 C455 1.391 . S
C451 C450 1.391 . S
C451 C452 1.391 . S
C452 H429 0.947 . S
C452 C451 1.391 . S
C452 C453 1.392 . S
C453 H430 0.948 . S
C453 C452 1.392 . S
C453 C454 1.419 . S
C454 C453 1.419 . S
C454 C455 1.391 . S
C454 C458 1.397 . S
C455 C450 1.391 . S
C455 C454 1.391 . S
C455 C456 1.399 . S
C456 C455 1.399 . S
C456 C457 1.396 . S
C456 C459 1.453 . S
C456 C460 1.684 . S
C457 C447 1.723 . S
C457 C456 1.396 . S
C457 C458 1.394 . S
C458 C428 1.723 . S
C458 C454 1.397 . S
C458 C457 1.394 . S
C459 H431 0.982 . S
C459 H435 0.979 . S
C459 H436 0.977 . S
C459 C456 1.453 . S
C460 H432 0.979 . S
C460 H433 0.980 . S
C460 H434 0.983 . S
C460 C456 1.684 . S
H461 C479 0.948 . S
H462 C420 0.948 . S
H463 C438 0.979 . S
H464 C438 0.980 . S
H465 C438 0.983 . S
H466 C437 0.982 . S
H467 C437 0.979 . S
H468 C437 0.977 . S
H469 C439 0.948 . S
H470 C441 0.947 . S
H471 C442 0.948 . S
H472 C448 0.982 . S
H473 C448 0.979 . S
H474 C448 0.977 . S
H475 C449 0.979 . S
H476 C449 0.980 . S
H477 C449 0.983 . S
H478 C422 0.947 . S
C479 C422 1.392 . S
C479 C423 1.419 . S
C479 H461 0.948 . S
Eu480 N509 2.600 . S
Eu480 N515 2.562 . S
Eu480 O524 2.462 . S
Eu480 O525 2.373 . S
Eu480 O527 2.432 . S
Eu480 O528 2.291 . S
Eu480 O532 2.335 . S
Eu480 O535 2.372 . S
Eu480 C544 2.787 . S
C481 N482 1.365 . S
C481 C484 1.405 . S
C481 C488 1.448 . S
N482 C481 1.365 . S
N482 C485 1.319 . S
N482 Eu491 2.600 . S
C483 C485 1.397 . S
C483 C486 1.367 . S
C483 H503 0.931 . S
C484 C481 1.405 . S
C484 C486 1.403 . S
C484 C490 1.439 . S
C485 N482 1.319 . S
C485 C483 1.397 . S
C485 H496 0.930 . S
C486 C483 1.367 . S
C486 C484 1.403 . S
C486 H507 0.929 . S
C487 C488 1.430 . S
C487 C489 1.387 . S
C487 C493 1.404 . S
C488 C481 1.448 . S
C488 C487 1.430 . S
C488 N492 1.351 . S
C489 C487 1.387 . S
C489 C490 1.374 . S
C489 H504 0.931 . S
C490 C484 1.439 . S
C490 C489 1.374 . S
C490 H505 0.931 . S
Eu491 N482 2.600 . S
Eu491 N492 2.562 . S
Eu491 O526 2.326 1_655 S
Eu491 O529 2.372 . S
Eu491 O530 2.462 . S
Eu491 O531 2.373 . S
Eu491 O533 2.432 . S
Eu491 O534 2.291 1_655 S
Eu491 C555 2.787 . S
N492 C488 1.351 . S
N492 Eu491 2.562 . S
N492 C494 1.325 . S
C493 C487 1.404 . S
C493 C495 1.366 . S
C493 H501 0.930 . S
C494 N492 1.325 . S
C494 C495 1.416 . S
C494 H500 0.929 . S
C495 C493 1.366 . S
C495 C494 1.416 . S
C495 H497 0.930 . S
H496 C485 0.930 . S
H497 C495 0.930 . S
H498 C513 0.930 . S
H499 C520 0.930 . S
H500 C494 0.929 . S
H501 C493 0.930 . S
H502 C516 0.929 . S
H503 C483 0.931 . S
H504 C489 0.931 . S
H505 C490 0.931 . S
H506 C511 0.931 . S
H507 C486 0.929 . S
H508 C519 0.930 . S
N509 Eu480 2.600 . S
N509 C510 1.365 . S
N509 C513 1.319 . S
C510 N509 1.365 . S
C510 C512 1.405 . S
C510 C518 1.448 . S
C511 H506 0.931 . S
C511 C513 1.397 . S
C511 C514 1.367 . S
C512 C510 1.405 . S
C512 C514 1.403 . S
C512 C545 1.439 . S
C513 H498 0.930 . S
C513 N509 1.319 . S
C513 C511 1.397 . S
C514 C511 1.367 . S
C514 C512 1.403 . S
C514 H521 0.929 . S
N515 Eu480 2.562 . S
N515 C516 1.325 . S
N515 C518 1.351 . S
C516 H502 0.929 . S
C516 N515 1.325 . S
C516 C520 1.416 . S
C517 C518 1.430 . S
C517 C519 1.404 . S
C517 C546 1.387 . S
C518 C510 1.448 . S
C518 N515 1.351 . S
C518 C517 1.430 . S
C519 H508 0.930 . S
C519 C517 1.404 . S
C519 C520 1.366 . S
C520 H499 0.930 . S
C520 C516 1.416 . S
C520 C519 1.366 . S
H521 C514 0.929 . S
H522 C545 0.931 . S
H523 C546 0.931 . S
O524 Eu480 2.462 . S
O524 C544 1.252 . S
O525 Eu480 2.373 . S
O525 C536 1.249 . S
O526 Eu491 2.326 1_455 S
O526 C536 1.275 . S
O527 Eu480 2.432 . S
O527 C544 1.268 . S
O528 Eu480 2.291 . S
O528 C543 1.255 1_455 S
O529 Eu491 2.372 . S
O529 C543 1.257 . S
O530 Eu491 2.462 . S
O530 C555 1.252 . S
O531 Eu491 2.373 . S
O531 C547 1.249 . S
O532 Eu480 2.335 . S
O532 C547 1.264 1_455 S
O533 Eu491 2.432 . S
O533 C555 1.268 . S
O534 Eu491 2.291 1_455 S
O534 C554 1.255 . S
O535 Eu480 2.372 . S
O535 C554 1.257 . S
C536 O525 1.249 . S
C536 O526 1.275 . S
C537 C540 1.382 . S
C537 C542 1.390 . S
C537 C544 1.506 . S
C538 C539 1.398 . S
C538 C542 1.392 . S
C539 C538 1.398 . S
C539 C541 1.372 . S
C539 H556 0.931 . S
C540 C537 1.382 . S
C540 C541 1.390 . S
C540 H557 0.931 . S
C541 C539 1.372 . S
C541 C540 1.390 . S
C541 H558 0.929 . S
C542 C537 1.390 . S
C542 C538 1.392 . S
C542 H559 0.930 . S
C543 O528 1.255 1_655 S
C543 O529 1.257 . S
C544 Eu480 2.787 . S
C544 O524 1.252 . S
C544 O527 1.268 . S
C544 C537 1.506 . S
C545 C512 1.439 . S
C545 H522 0.931 . S
C545 C546 1.374 . S
C546 C517 1.387 . S
C546 H523 0.931 . S
C546 C545 1.374 . S
C547 O531 1.249 . S
C547 O532 1.264 1_655 S
C548 C551 1.382 . S
C548 C552 1.390 . S
C548 C555 1.506 . S
C549 C550 1.398 . S
C549 C552 1.392 . S
C550 C549 1.398 . S
C550 C553 1.372 . S
C550 H560 0.931 . S
C551 C548 1.382 . S
C551 C553 1.390 . S
C551 H561 0.931 . S
C552 C548 1.390 . S
C552 C549 1.392 . S
C552 H562 0.930 . S
C553 C550 1.372 . S
C553 C551 1.390 . S
C553 H563 0.929 . S
C554 O534 1.255 . S
C554 O535 1.257 . S
C555 Eu491 2.787 . S
C555 O530 1.252 . S
C555 O533 1.268 . S
C555 C548 1.506 . S
H556 C539 0.931 . S
H557 C540 0.931 . S
H558 C541 0.929 . S
H559 C542 0.930 . S
H560 C550 0.931 . S
H561 C551 0.931 . S
H562 C552 0.930 . S
H563 C553 0.929 . S
Eu564 N593 2.600 . S
Eu564 N599 2.562 . S
Eu564 O608 2.462 . S
Eu564 O609 2.373 . S
Eu564 O611 2.432 . S
Eu564 O612 2.291 . S
Eu564 O616 2.335 . S
Eu564 O619 2.372 . S
Eu564 C628 2.787 . S
C565 N566 1.365 . S
C565 C568 1.405 . S
C565 C572 1.448 . S
N566 C565 1.365 . S
N566 C569 1.319 . S
N566 Eu575 2.600 . S
C567 C569 1.397 . S
C567 C570 1.367 . S
C567 H587 0.931 . S
C568 C565 1.405 . S
C568 C570 1.403 . S
C568 C574 1.439 . S
C569 N566 1.319 . S
C569 C567 1.397 . S
C569 H580 0.930 . S
C570 C567 1.367 . S
C570 C568 1.403 . S
C570 H591 0.929 . S
C571 C572 1.430 . S
C571 C573 1.387 . S
C571 C577 1.404 . S
C572 C565 1.448 . S
C572 C571 1.430 . S
C572 N576 1.351 . S
C573 C571 1.387 . S
C573 C574 1.374 . S
C573 H588 0.931 . S
C574 C568 1.439 . S
C574 C573 1.374 . S
C574 H589 0.931 . S
Eu575 N566 2.600 . S
Eu575 N576 2.562 . S
Eu575 O610 2.335 . S
Eu575 O613 2.372 . S
Eu575 O614 2.462 . S
Eu575 O615 2.373 . S
Eu575 O617 2.432 . S
Eu575 O618 2.291 . S
Eu575 C639 2.787 . S
N576 C572 1.351 . S
N576 Eu575 2.562 . S
N576 C578 1.325 . S
C577 C571 1.404 . S
C577 C579 1.366 . S
C577 H585 0.930 . S
C578 N576 1.325 . S
C578 C579 1.416 . S
C578 H584 0.929 . S
C579 C577 1.366 . S
C579 C578 1.416 . S
C579 H581 0.930 . S
H580 C569 0.930 . S
H581 C579 0.930 . S
H582 C597 0.930 . S
H583 C604 0.930 . S
H584 C578 0.929 . S
H585 C577 0.930 . S
H586 C600 0.929 . S
H587 C567 0.931 . S
H588 C573 0.931 . S
H589 C574 0.931 . S
H590 C595 0.931 . S
H591 C570 0.929 . S
H592 C603 0.930 . S
N593 Eu564 2.600 . S
N593 C594 1.365 . S
N593 C597 1.319 . S
C594 N593 1.365 . S
C594 C596 1.405 . S
C594 C602 1.448 . S
C595 H590 0.931 . S
C595 C597 1.397 . S
C595 C598 1.367 . S
C596 C594 1.405 . S
C596 C598 1.403 . S
C596 C629 1.439 . S
C597 H582 0.930 . S
C597 N593 1.319 . S
C597 C595 1.397 . S
C598 C595 1.367 . S
C598 C596 1.403 . S
C598 H605 0.929 . S
N599 Eu564 2.562 . S
N599 C600 1.325 . S
N599 C602 1.351 . S
C600 H586 0.929 . S
C600 N599 1.325 . S
C600 C604 1.416 . S
C601 C602 1.430 . S
C601 C603 1.404 . S
C601 C630 1.387 . S
C602 C594 1.448 . S
C602 N599 1.351 . S
C602 C601 1.430 . S
C603 H592 0.930 . S
C603 C601 1.404 . S
C603 C604 1.366 . S
C604 H583 0.930 . S
C604 C600 1.416 . S
C604 C603 1.366 . S
H605 C598 0.929 . S
H606 C629 0.931 . S
H607 C630 0.931 . S
O608 Eu564 2.462 . S
O608 C628 1.252 . S
O609 Eu564 2.373 . S
O609 C620 1.249 . S
O610 Eu575 2.335 . S
O610 C620 1.264 . S
O611 Eu564 2.432 . S
O611 C628 1.268 . S
O612 Eu564 2.291 . S
O612 C627 1.255 . S
O613 Eu575 2.372 . S
O613 C627 1.257 . S
O614 Eu575 2.462 . S
O614 C639 1.252 . S
O615 Eu575 2.373 . S
O615 C631 1.249 . S
O616 Eu564 2.335 . S
O616 C631 1.264 . S
O617 Eu575 2.432 . S
O617 C639 1.268 . S
O618 Eu575 2.291 . S
O618 C638 1.255 . S
O619 Eu564 2.372 . S
O619 C638 1.257 . S
C620 O609 1.249 . S
C620 O610 1.264 . S
C621 C624 1.382 . S
C621 C626 1.390 . S
C621 C628 1.506 . S
C622 C623 1.398 . S
C622 C626 1.392 . S
C623 C622 1.398 . S
C623 C625 1.372 . S
C623 H640 0.931 . S
C624 C621 1.382 . S
C624 C625 1.390 . S
C624 H641 0.931 . S
C625 C623 1.372 . S
C625 C624 1.390 . S
C625 H642 0.929 . S
C626 C621 1.390 . S
C626 C622 1.392 . S
C626 H643 0.930 . S
C627 O612 1.255 . S
C627 O613 1.257 . S
C628 Eu564 2.787 . S
C628 O608 1.252 . S
C628 O611 1.268 . S
C628 C621 1.506 . S
C629 C596 1.439 . S
C629 H606 0.931 . S
C629 C630 1.374 . S
C630 C601 1.387 . S
C630 H607 0.931 . S
C630 C629 1.374 . S
C631 O615 1.249 . S
C631 O616 1.264 . S
C632 C635 1.382 . S
C632 C636 1.390 . S
C632 C639 1.506 . S
C633 C634 1.398 . S
C633 C636 1.392 . S
C634 C633 1.398 . S
C634 C637 1.372 . S
C634 H644 0.931 . S
C635 C632 1.382 . S
C635 C637 1.390 . S
C635 H645 0.931 . S
C636 C632 1.390 . S
C636 C633 1.392 . S
C636 H646 0.930 . S
C637 C634 1.372 . S
C637 C635 1.390 . S
C637 H647 0.929 . S
C638 O618 1.255 . S
C638 O619 1.257 . S
C639 Eu575 2.787 . S
C639 O614 1.252 . S
C639 O617 1.268 . S
C639 C632 1.506 . S
H640 C623 0.931 . S
H641 C624 0.931 . S
H642 C625 0.929 . S
H643 C626 0.930 . S
H644 C634 0.931 . S
H645 C635 0.931 . S
H646 C636 0.930 . S
H647 C637 0.929 . S
Eu648 N677 2.600 . S
Eu648 N683 2.562 . S
Eu648 O692 2.462 . S
Eu648 O693 2.373 . S
Eu648 O695 2.432 . S
Eu648 O696 2.291 . S
Eu648 O700 2.335 . S
Eu648 O703 2.372 . S
Eu648 C712 2.787 . S
C649 N650 1.365 . S
C649 C652 1.405 . S
C649 C656 1.448 . S
N650 C649 1.365 . S
N650 C653 1.319 . S
N650 Eu659 2.600 . S
C651 C653 1.397 . S
C651 C654 1.367 . S
C651 H671 0.931 . S
C652 C649 1.405 . S
C652 C654 1.403 . S
C652 C658 1.439 . S
C653 N650 1.319 . S
C653 C651 1.397 . S
C653 H664 0.930 . S
C654 C651 1.367 . S
C654 C652 1.403 . S
C654 H675 0.929 . S
C655 C656 1.430 . S
C655 C657 1.387 . S
C655 C661 1.404 . S
C656 C649 1.448 . S
C656 C655 1.430 . S
C656 N660 1.351 . S
C657 C655 1.387 . S
C657 C658 1.374 . S
C657 H672 0.931 . S
C658 C652 1.439 . S
C658 C657 1.374 . S
C658 H673 0.931 . S
Eu659 N650 2.600 . S
Eu659 N660 2.562 . S
Eu659 O694 2.335 1_655 S
Eu659 O697 2.372 . S
Eu659 O698 2.462 . S
Eu659 O699 2.373 . S
Eu659 O701 2.432 . S
Eu659 O702 2.291 1_655 S
Eu659 C723 2.787 . S
N660 C656 1.351 . S
N660 Eu659 2.562 . S
N660 C662 1.325 . S
C661 C655 1.404 . S
C661 C663 1.366 . S
C661 H669 0.930 . S
C662 N660 1.325 . S
C662 C663 1.416 . S
C662 H668 0.929 . S
C663 C661 1.366 . S
C663 C662 1.416 . S
C663 H665 0.930 . S
H664 C653 0.930 . S
H665 C663 0.930 . S
H666 C681 0.930 . S
H667 C688 0.930 . S
H668 C662 0.929 . S
H669 C661 0.930 . S
H670 C684 0.929 . S
H671 C651 0.931 . S
H672 C657 0.931 . S
H673 C658 0.931 . S
H674 C679 0.931 . S
H675 C654 0.929 . S
H676 C687 0.930 . S
N677 Eu648 2.600 . S
N677 C678 1.365 . S
N677 C681 1.319 . S
C678 N677 1.365 . S
C678 C680 1.405 . S
C678 C686 1.448 . S
C679 H674 0.931 . S
C679 C681 1.397 . S
C679 C682 1.367 . S
C680 C678 1.405 . S
C680 C682 1.403 . S
C680 C713 1.439 . S
C681 H666 0.930 . S
C681 N677 1.319 . S
C681 C679 1.397 . S
C682 C679 1.367 . S
C682 C680 1.403 . S
C682 H689 0.929 . S
N683 Eu648 2.562 . S
N683 C684 1.325 . S
N683 C686 1.351 . S
C684 H670 0.929 . S
C684 N683 1.325 . S
C684 C688 1.416 . S
C685 C686 1.430 . S
C685 C687 1.404 . S
C685 C714 1.387 . S
C686 C678 1.448 . S
C686 N683 1.351 . S
C686 C685 1.430 . S
C687 H676 0.930 . S
C687 C685 1.404 . S
C687 C688 1.366 . S
C688 H667 0.930 . S
C688 C684 1.416 . S
C688 C687 1.366 . S
H689 C682 0.929 . S
H690 C713 0.931 . S
H691 C714 0.931 . S
O692 Eu648 2.462 . S
O692 C712 1.252 . S
O693 Eu648 2.373 . S
O693 C704 1.249 . S
O694 Eu659 2.335 1_455 S
O694 C704 1.264 . S
O695 Eu648 2.432 . S
O695 C712 1.268 . S
O696 Eu648 2.291 . S
O696 C711 1.255 1_455 S
O697 Eu659 2.372 . S
O697 C711 1.257 . S
O698 Eu659 2.462 . S
O698 C723 1.252 . S
O699 Eu659 2.373 . S
O699 C715 1.249 . S
O700 Eu648 2.335 . S
O700 C715 1.264 1_455 S
O701 Eu659 2.432 . S
O701 C723 1.268 . S
O702 Eu659 2.291 1_455 S
O702 C722 1.255 . S
O703 Eu648 2.372 . S
O703 C722 1.257 . S
C704 O693 1.249 . S
C704 O694 1.264 . S
C705 C708 1.382 . S
C705 C710 1.390 . S
C705 C712 1.506 . S
C706 C707 1.398 . S
C706 C710 1.392 . S
C707 C706 1.398 . S
C707 C709 1.372 . S
C707 H724 0.931 . S
C708 C705 1.382 . S
C708 C709 1.390 . S
C708 H725 0.931 . S
C709 C707 1.372 . S
C709 C708 1.390 . S
C709 H726 0.929 . S
C710 C705 1.390 . S
C710 C706 1.392 . S
C710 H727 0.930 . S
C711 O696 1.255 1_655 S
C711 O697 1.257 . S
C712 Eu648 2.787 . S
C712 O692 1.252 . S
C712 O695 1.268 . S
C712 C705 1.506 . S
C713 C680 1.439 . S
C713 H690 0.931 . S
C713 C714 1.374 . S
C714 C685 1.387 . S
C714 H691 0.931 . S
C714 C713 1.374 . S
C715 O699 1.249 . S
C715 O700 1.264 1_655 S
C716 C719 1.382 . S
C716 C720 1.390 . S
C716 C723 1.506 . S
C717 C718 1.398 . S
C717 C720 1.392 . S
C718 C717 1.398 . S
C718 C721 1.372 . S
C718 H728 0.931 . S
C719 C716 1.382 . S
C719 C721 1.390 . S
C719 H729 0.931 . S
C720 C716 1.390 . S
C720 C717 1.392 . S
C720 H730 0.930 . S
C721 C718 1.372 . S
C721 C719 1.390 . S
C721 H731 0.929 . S
C722 O702 1.255 . S
C722 O703 1.257 . S
C723 Eu659 2.787 . S
C723 O698 1.252 . S
C723 O701 1.268 . S
C723 C716 1.506 . S
H724 C707 0.931 . S
H725 C708 0.931 . S
H726 C709 0.929 . S
H727 C710 0.930 . S
H728 C718 0.931 . S
H729 C719 0.931 . S
H730 C720 0.930 . S
H731 C721 0.929 . S
Eu732 N761 2.600 . S
Eu732 N767 2.562 . S
Eu732 O776 2.462 . S
Eu732 O777 2.373 . S
Eu732 O779 2.432 . S
Eu732 O780 2.291 . S
Eu732 O784 2.335 . S
Eu732 O787 2.372 . S
Eu732 C796 2.787 . S
C733 N734 1.365 . S
C733 C736 1.405 . S
C733 C740 1.448 . S
N734 C733 1.365 . S
N734 C737 1.319 . S
N734 Eu743 2.600 . S
C735 C737 1.397 . S
C735 C738 1.367 . S
C735 H755 0.931 . S
C736 C733 1.405 . S
C736 C738 1.403 . S
C736 C742 1.439 . S
C737 N734 1.319 . S
C737 C735 1.397 . S
C737 H748 0.930 . S
C738 C735 1.367 . S
C738 C736 1.403 . S
C738 H759 0.929 . S
C739 C740 1.430 . S
C739 C741 1.387 . S
C739 C745 1.404 . S
C740 C733 1.448 . S
C740 C739 1.430 . S
C740 N744 1.351 . S
C741 C739 1.387 . S
C741 C742 1.374 . S
C741 H756 0.931 . S
C742 C736 1.439 . S
C742 C741 1.374 . S
C742 H757 0.931 . S
Eu743 N734 2.600 . S
Eu743 N744 2.562 . S
Eu743 O778 2.335 . S
Eu743 O781 2.372 . S
Eu743 O782 2.462 . S
Eu743 O783 2.373 . S
Eu743 O785 2.432 . S
Eu743 O786 2.291 . S
Eu743 C807 2.787 . S
N744 C740 1.351 . S
N744 Eu743 2.562 . S
N744 C746 1.325 . S
C745 C739 1.404 . S
C745 C747 1.366 . S
C745 H753 0.930 . S
C746 N744 1.325 . S
C746 C747 1.416 . S
C746 H752 0.929 . S
C747 C745 1.366 . S
C747 C746 1.416 . S
C747 H749 0.930 . S
H748 C737 0.930 . S
H749 C747 0.930 . S
H750 C765 0.930 . S
H751 C772 0.930 . S
H752 C746 0.929 . S
H753 C745 0.930 . S
H754 C768 0.929 . S
H755 C735 0.931 . S
H756 C741 0.931 . S
H757 C742 0.931 . S
H758 C763 0.931 . S
H759 C738 0.929 . S
H760 C771 0.930 . S
N761 Eu732 2.600 . S
N761 C762 1.365 . S
N761 C765 1.319 . S
C762 N761 1.365 . S
C762 C764 1.405 . S
C762 C770 1.448 . S
C763 H758 0.931 . S
C763 C765 1.397 . S
C763 C766 1.367 . S
C764 C762 1.405 . S
C764 C766 1.403 . S
C764 C797 1.439 . S
C765 H750 0.930 . S
C765 N761 1.319 . S
C765 C763 1.397 . S
C766 C763 1.367 . S
C766 C764 1.403 . S
C766 H773 0.929 . S
N767 Eu732 2.562 . S
N767 C768 1.325 . S
N767 C770 1.351 . S
C768 H754 0.929 . S
C768 N767 1.325 . S
C768 C772 1.416 . S
C769 C770 1.430 . S
C769 C771 1.404 . S
C769 C798 1.387 . S
C770 C762 1.448 . S
C770 N767 1.351 . S
C770 C769 1.430 . S
C771 H760 0.930 . S
C771 C769 1.404 . S
C771 C772 1.366 . S
C772 H751 0.930 . S
C772 C768 1.416 . S
C772 C771 1.366 . S
H773 C766 0.929 . S
H774 C797 0.931 . S
H775 C798 0.931 . S
O776 Eu732 2.462 . S
O776 C796 1.252 . S
O777 Eu732 2.373 . S
O777 C788 1.249 . S
O778 Eu743 2.335 . S
O778 C788 1.264 . S
O779 Eu732 2.432 . S
O779 C796 1.268 . S
O780 Eu732 2.291 . S
O780 C795 1.255 . S
O781 Eu743 2.372 . S
O781 C795 1.257 . S
O782 Eu743 2.462 . S
O782 C807 1.252 . S
O783 Eu743 2.373 . S
O783 C799 1.249 . S
O784 Eu732 2.335 . S
O784 C799 1.264 . S
O785 Eu743 2.432 . S
O785 C807 1.268 . S
O786 Eu743 2.291 . S
O786 C806 1.255 . S
O787 Eu732 2.372 . S
O787 C806 1.257 . S
C788 O777 1.249 . S
C788 O778 1.264 . S
C789 C792 1.382 . S
C789 C794 1.390 . S
C789 C796 1.506 . S
C790 C791 1.398 . S
C790 C794 1.392 . S
C791 C790 1.398 . S
C791 C793 1.372 . S
C791 H808 0.931 . S
C792 C789 1.382 . S
C792 C793 1.390 . S
C792 H809 0.931 . S
C793 C791 1.372 . S
C793 C792 1.390 . S
C793 H810 0.929 . S
C794 C789 1.390 . S
C794 C790 1.392 . S
C794 H811 0.930 . S
C795 O780 1.255 . S
C795 O781 1.257 . S
C796 Eu732 2.787 . S
C796 O776 1.252 . S
C796 O779 1.268 . S
C796 C789 1.506 . S
C797 C764 1.439 . S
C797 H774 0.931 . S
C797 C798 1.374 . S
C798 C769 1.387 . S
C798 H775 0.931 . S
C798 C797 1.374 . S
C799 O783 1.249 . S
C799 O784 1.264 . S
C800 C803 1.382 . S
C800 C804 1.390 . S
C800 C807 1.506 . S
C801 C802 1.398 . S
C801 C804 1.392 . S
C802 C801 1.398 . S
C802 C805 1.372 . S
C802 H812 0.931 . S
C803 C800 1.382 . S
C803 C805 1.390 . S
C803 H813 0.931 . S
C804 C800 1.390 . S
C804 C801 1.392 . S
C804 H814 0.930 . S
C805 C802 1.372 . S
C805 C803 1.390 . S
C805 H815 0.929 . S
C806 O786 1.255 . S
C806 O787 1.257 . S
C807 Eu743 2.787 . S
C807 O782 1.252 . S
C807 O785 1.268 . S
C807 C800 1.506 . S
H808 C791 0.931 . S
H809 C792 0.931 . S
H810 C793 0.929 . S
H811 C794 0.930 . S
H812 C802 0.931 . S
H813 C803 0.931 . S
H814 C804 0.930 . S
H815 C805 0.929 . S
H816 C828 0.930 . S
H817 C830 0.930 . S
H818 C831 0.930 . S
H819 C835 0.959 . S
H820 C835 0.959 . S
H821 C835 0.961 1_565 S
H822 C836 0.960 1_565 S
H823 C836 0.961 . S
H824 C836 0.959 . S
H825 C839 0.929 . S
H826 C840 0.931 . S
H827 C842 0.930 . S
C828 H816 0.930 . S
C828 C829 1.399 . S
C828 C833 1.399 1_565 S
C829 C828 1.399 . S
C829 C830 1.376 1_565 S
C830 H817 0.930 . S
C830 C829 1.376 1_545 S
C830 C831 1.388 . S
C831 H818 0.930 . S
C831 C830 1.388 . S
C831 C832 1.390 . S
C832 C831 1.390 . S
C832 C833 1.394 . S
C832 C838 1.465 . S
C833 C828 1.399 1_545 S
C833 C832 1.394 . S
C833 C834 1.516 . S
C834 C833 1.516 . S
C834 C835 1.502 . S
C834 C836 1.561 . S
C834 C837 1.526 . S
C835 H819 0.959 . S
C835 H820 0.959 . S
C835 H821 0.961 1_545 S
C835 C834 1.502 . S
C836 H822 0.960 1_545 S
C836 H823 0.961 . S
C836 H824 0.959 . S
C836 C834 1.561 . S
C837 C834 1.526 . S
C837 C838 1.396 . S
C837 C842 1.390 . S
C838 C832 1.465 . S
C838 C837 1.396 . S
C838 C839 1.399 . S
C839 H825 0.929 . S
C839 C838 1.399 . S
C839 C840 1.385 . S
C840 H826 0.931 . S
C840 C839 1.385 . S
C840 C841 1.389 . S
C841 C840 1.389 . S
C841 C842 1.387 . S
C842 H827 0.930 . S
C842 C837 1.390 . S
C842 C841 1.387 . S
H843 C855 0.930 . S
H844 C857 0.930 . S
H845 C858 0.930 . S
H846 C862 0.959 . S
H847 C862 0.959 . S
H848 C862 0.961 . S
H849 C863 0.960 . S
H850 C863 0.961 . S
H851 C863 0.959 . S
H852 C866 0.929 . S
H853 C867 0.931 . S
H854 C869 0.930 . S
C855 H843 0.930 . S
C855 C856 1.399 . S
C855 C860 1.399 . S
C856 C855 1.399 . S
C856 C857 1.376 . S
C857 H844 0.930 . S
C857 C856 1.376 . S
C857 C858 1.388 . S
C858 H845 0.930 . S
C858 C857 1.388 . S
C858 C859 1.390 . S
C859 C858 1.390 . S
C859 C860 1.394 . S
C859 C865 1.465 . S
C860 C855 1.399 . S
C860 C859 1.394 . S
C860 C861 1.516 . S
C861 C860 1.516 . S
C861 C862 1.502 . S
C861 C863 1.561 . S
C861 C864 1.526 . S
C862 H846 0.959 . S
C862 H847 0.959 . S
C862 H848 0.961 . S
C862 C861 1.502 . S
C863 H849 0.960 . S
C863 H850 0.961 . S
C863 H851 0.959 . S
C863 C861 1.561 . S
C864 C861 1.526 . S
C864 C865 1.396 . S
C864 C869 1.390 . S
C865 C859 1.465 . S
C865 C864 1.396 . S
C865 C866 1.399 . S
C866 H852 0.929 . S
C866 C865 1.399 . S
C866 C867 1.385 . S
C867 H853 0.931 . S
C867 C866 1.385 . S
C867 C868 1.389 . S
C868 C867 1.389 . S
C868 C869 1.387 . S
C869 H854 0.930 . S
C869 C864 1.390 . S
C869 C868 1.387 . S
H870 C882 0.930 . S
H871 C884 0.930 . S
H872 C885 0.930 . S
H873 C889 0.959 . S
H874 C889 0.959 . S
H875 C889 0.961 . S
H876 C890 0.960 . S
H877 C890 0.961 . S
H878 C890 0.959 . S
H879 C893 0.929 . S
H880 C894 0.931 . S
H881 C896 0.930 . S
C882 H870 0.930 . S
C882 C883 1.399 . S
C882 C887 1.399 . S
C883 C882 1.399 . S
C883 C884 1.376 . S
C884 H871 0.930 . S
C884 C883 1.376 . S
C884 C885 1.388 . S
C885 H872 0.930 . S
C885 C884 1.388 . S
C885 C886 1.390 . S
C886 C885 1.390 . S
C886 C887 1.394 . S
C886 C892 1.465 . S
C887 C882 1.399 . S
C887 C886 1.394 . S
C887 C888 1.516 . S
C888 C887 1.516 . S
C888 C889 1.502 . S
C888 C890 1.561 . S
C888 C891 1.526 . S
C889 H873 0.959 . S
C889 H874 0.959 . S
C889 H875 0.961 . S
C889 C888 1.502 . S
C890 H876 0.960 . S
C890 H877 0.961 . S
C890 H878 0.959 . S
C890 C888 1.561 . S
C891 C888 1.526 . S
C891 C892 1.396 . S
C891 C896 1.390 . S
C892 C886 1.465 . S
C892 C891 1.396 . S
C892 C893 1.399 . S
C893 H879 0.929 . S
C893 C892 1.399 . S
C893 C894 1.385 . S
C894 H880 0.931 . S
C894 C893 1.385 . S
C894 C895 1.389 . S
C895 C894 1.389 . S
C895 C896 1.387 . S
C896 H881 0.930 . S
C896 C891 1.390 . S
C896 C895 1.387 . S
H897 C909 0.930 . S
H898 C911 0.930 . S
H899 C912 0.930 . S
H900 C916 0.959 . S
H901 C916 0.959 . S
H902 C916 0.961 1_565 S
H903 C917 0.995 . S
H904 C917 0.957 1_545 S
H905 C917 0.951 1_545 S
H906 C920 0.929 . S
H907 C921 0.931 . S
H908 C923 0.930 . S
C909 H897 0.930 . S
C909 C910 1.399 . S
C909 C914 1.399 1_565 S
C910 C909 1.399 . S
C910 C911 1.376 1_565 S
C911 H898 0.930 . S
C911 C910 1.376 1_545 S
C911 C912 1.388 . S
C912 H899 0.930 . S
C912 C911 1.388 . S
C912 C913 1.390 . S
C913 C912 1.390 . S
C913 C914 1.394 . S
C913 C919 1.465 . S
C914 C909 1.399 1_545 S
C914 C913 1.394 . S
C914 C915 1.516 . S
C915 C914 1.516 . S
C915 C916 1.502 . S
C915 C917 1.540 1_545 S
C915 C918 1.526 . S
C916 H900 0.959 . S
C916 H901 0.959 . S
C916 H902 0.961 1_545 S
C916 C915 1.502 . S
C917 H903 0.995 . S
C917 H904 0.957 1_565 S
C917 H905 0.951 1_565 S
C917 C915 1.540 1_565 S
C918 C915 1.526 . S
C918 C919 1.396 . S
C918 C923 1.390 . S
C919 C913 1.465 . S
C919 C918 1.396 . S
C919 C920 1.399 . S
C920 H906 0.929 . S
C920 C919 1.399 . S
C920 C921 1.385 . S
C921 H907 0.931 . S
C921 C920 1.385 . S
C921 C922 1.389 . S
C922 C921 1.389 . S
C922 C923 1.387 . S
C923 H908 0.930 . S
C923 C918 1.390 . S
C923 C922 1.387 . S
H924 C936 0.930 . S
H925 C938 0.930 . S
H926 C939 0.933 . S
H927 C943 0.959 . S
H928 C943 0.959 . S
H929 C943 0.961 . S
H930 C944 0.960 . S
H931 C944 0.961 . S
H932 C944 0.959 . S
H933 C947 0.929 . S
H934 C948 0.931 . S
H935 C950 0.930 . S
C936 H924 0.930 . S
C936 C937 1.399 1_565 S
C936 C941 1.399 . S
C937 C936 1.399 1_545 S
C937 C938 1.376 . S
C938 H925 0.930 . S
C938 C937 1.376 . S
C938 C939 1.398 . S
C939 H926 0.933 . S
C939 C938 1.398 . S
C939 C940 1.378 1_545 S
C940 C939 1.378 1_565 S
C940 C941 1.394 . S
C940 C946 1.465 . S
C941 C936 1.399 . S
C941 C940 1.394 . S
C941 C942 1.516 . S
C942 C941 1.516 . S
C942 C943 1.502 . S
C942 C944 1.561 . S
C942 C945 1.526 . S
C943 H927 0.959 . S
C943 H928 0.959 . S
C943 H929 0.961 . S
C943 C942 1.502 . S
C944 H930 0.960 . S
C944 H931 0.961 . S
C944 H932 0.959 . S
C944 C942 1.561 . S
C945 C942 1.526 . S
C945 C946 1.396 . S
C945 C950 1.390 . S
C946 C940 1.465 . S
C946 C945 1.396 . S
C946 C947 1.399 . S
C947 H933 0.929 . S
C947 C946 1.399 . S
C947 C948 1.385 . S
C948 H934 0.931 . S
C948 C947 1.385 . S
C948 C949 1.389 . S
C949 C948 1.389 . S
C949 C950 1.387 . S
C950 H935 0.930 . S
C950 C945 1.390 . S
C950 C949 1.387 . S
H951 C963 0.930 . S
H952 C965 0.930 . S
H953 C966 0.930 . S
H954 C970 0.959 . S
H955 C970 0.959 . S
H956 C970 0.961 . S
H957 C971 0.960 . S
H958 C971 0.961 . S
H959 C971 0.959 . S
H960 C974 0.929 . S
H961 C975 0.931 . S
H962 C977 0.930 . S
C963 H951 0.930 . S
C963 C964 1.399 . S
C963 C968 1.399 . S
C964 C963 1.399 . S
C964 C965 1.376 . S
C965 H952 0.930 . S
C965 C964 1.376 . S
C965 C966 1.388 . S
C966 H953 0.930 . S
C966 C965 1.388 . S
C966 C967 1.390 . S
C967 C966 1.390 . S
C967 C968 1.394 . S
C967 C973 1.465 . S
C968 C963 1.399 . S
C968 C967 1.394 . S
C968 C969 1.516 . S
C969 C968 1.516 . S
C969 C970 1.502 . S
C969 C971 1.561 . S
C969 C972 1.526 . S
C970 H954 0.959 . S
C970 H955 0.959 . S
C970 H956 0.961 . S
C970 C969 1.502 . S
C971 H957 0.960 . S
C971 H958 0.961 . S
C971 H959 0.959 . S
C971 C969 1.561 . S
C972 C969 1.526 . S
C972 C973 1.396 . S
C972 C977 1.390 . S
C973 C967 1.465 . S
C973 C972 1.396 . S
C973 C974 1.399 . S
C974 H960 0.929 . S
C974 C973 1.399 . S
C974 C975 1.385 . S
C975 H961 0.931 . S
C975 C974 1.385 . S
C975 C976 1.389 . S
C976 C975 1.389 . S
C976 C977 1.387 . S
C977 H962 0.930 . S
C977 C972 1.390 . S
C977 C976 1.387 . S
H978 C990 0.930 . S
H979 C992 0.930 . S
H980 C993 0.930 . S
H981 C997 0.959 . S
H982 C997 0.959 . S
H983 C997 0.961 . S
H984 C998 0.960 . S
H985 C998 0.961 . S
H986 C998 0.959 . S
H987 C1001 0.929 . S
H988 C1002 0.931 . S
H989 C1004 0.930 . S
C990 H978 0.930 . S
C990 C991 1.399 . S
C990 C995 1.399 . S
C991 C990 1.399 . S
C991 C992 1.376 . S
C992 H979 0.930 . S
C992 C991 1.376 . S
C992 C993 1.388 . S
C993 H980 0.930 . S
C993 C992 1.388 . S
C993 C994 1.390 . S
C994 C993 1.390 . S
C994 C995 1.394 . S
C994 C1000 1.465 . S
C995 C990 1.399 . S
C995 C994 1.394 . S
C995 C996 1.516 . S
C996 C995 1.516 . S
C996 C997 1.502 . S
C996 C998 1.561 . S
C996 C999 1.526 . S
C997 H981 0.959 . S
C997 H982 0.959 . S
C997 H983 0.961 . S
C997 C996 1.502 . S
C998 H984 0.960 . S
C998 H985 0.961 . S
C998 H986 0.959 . S
C998 C996 1.561 . S
C999 C996 1.526 . S
C999 C1000 1.396 . S
C999 C1004 1.390 . S
C1000 C994 1.465 . S
C1000 C999 1.396 . S
C1000 C1001 1.399 . S
C1001 H987 0.929 . S
C1001 C1000 1.399 . S
C1001 C1002 1.385 . S
C1002 H988 0.931 . S
C1002 C1001 1.385 . S
C1002 C1003 1.389 . S
C1003 C1002 1.389 . S
C1003 C1004 1.387 . S
C1004 H989 0.930 . S
C1004 C999 1.390 . S
C1004 C1003 1.387 . S
H1005 C1017 0.930 . S
H1006 C1019 0.930 . S
H1007 C1020 0.930 . S
H1008 C1024 0.959 . S
H1009 C1024 0.959 . S
H1010 C1024 0.961 1_545 S
H1011 C1025 0.989 . S
H1012 C1025 0.958 1_565 S
H1013 C1025 0.952 1_565 S
H1014 C1028 0.929 . S
H1015 C1029 0.931 . S
H1016 C1031 0.930 . S
C1017 H1005 0.930 . S
C1017 C1018 1.399 . S
C1017 C1022 1.399 1_545 S
C1018 C1017 1.399 . S
C1018 C1019 1.376 1_545 S
C1019 H1006 0.930 . S
C1019 C1018 1.376 1_565 S
C1019 C1020 1.388 . S
C1020 H1007 0.930 . S
C1020 C1019 1.388 . S
C1020 C1021 1.390 . S
C1021 C1020 1.390 . S
C1021 C1022 1.394 . S
C1021 C1027 1.465 . S
C1022 C1017 1.399 1_565 S
C1022 C1021 1.394 . S
C1022 C1023 1.516 . S
C1023 C1022 1.516 . S
C1023 C1024 1.502 . S
C1023 C1025 1.544 1_565 S
C1023 C1026 1.526 . S
C1024 H1008 0.959 . S
C1024 H1009 0.959 . S
C1024 H1010 0.961 1_565 S
C1024 C1023 1.502 . S
C1025 H1011 0.989 . S
C1025 H1012 0.958 1_545 S
C1025 H1013 0.952 1_545 S
C1025 C1023 1.544 1_545 S
C1026 C1023 1.526 . S
C1026 C1027 1.396 . S
C1026 C1031 1.390 . S
C1027 C1021 1.465 . S
C1027 C1026 1.396 . S
C1027 C1028 1.399 . S
C1028 H1014 0.929 . S
C1028 C1027 1.399 . S
C1028 C1029 1.385 . S
C1029 H1015 0.931 . S
C1029 C1028 1.385 . S
C1029 C1030 1.389 . S
C1030 C1029 1.389 . S
C1030 C1031 1.387 . S
C1031 H1016 0.930 . S
C1031 C1026 1.390 . S
C1031 C1030 1.387 . S
H1032 C1044 0.930 . S
H1033 C1046 0.930 . S
H1034 C1047 0.930 . S
H1035 C1051 0.959 . S
H1036 C1051 0.959 . S
H1037 C1051 0.961 . S
H1038 C1052 0.960 . S
H1039 C1052 0.961 . S
H1040 C1052 0.959 . S
H1041 C1055 0.929 . S
H1042 C1056 0.931 . S
H1043 C1058 0.930 . S
C1044 H1032 0.930 . S
C1044 C1045 1.399 . S
C1044 C1049 1.399 . S
C1045 C1044 1.399 . S
C1045 C1046 1.376 . S
C1046 H1033 0.930 . S
C1046 C1045 1.376 . S
C1046 C1047 1.388 . S
C1047 H1034 0.930 . S
C1047 C1046 1.388 . S
C1047 C1048 1.390 . S
C1048 C1047 1.390 . S
C1048 C1049 1.394 . S
C1048 C1054 1.465 . S
C1049 C1044 1.399 . S
C1049 C1048 1.394 . S
C1049 C1050 1.516 . S
C1050 C1049 1.516 . S
C1050 C1051 1.502 . S
C1050 C1052 1.561 . S
C1050 C1053 1.526 . S
C1051 H1035 0.959 . S
C1051 H1036 0.959 . S
C1051 H1037 0.961 . S
C1051 C1050 1.502 . S
C1052 H1038 0.960 . S
C1052 H1039 0.961 . S
C1052 H1040 0.959 . S
C1052 C1050 1.561 . S
C1053 C1050 1.526 . S
C1053 C1054 1.396 . S
C1053 C1058 1.390 . S
C1054 C1048 1.465 . S
C1054 C1053 1.396 . S
C1054 C1055 1.399 . S
C1055 H1041 0.929 . S
C1055 C1054 1.399 . S
C1055 C1056 1.385 . S
C1056 H1042 0.931 . S
C1056 C1055 1.385 . S
C1056 C1057 1.389 . S
C1057 C1056 1.389 . S
C1057 C1058 1.387 . S
C1058 H1043 0.930 . S
C1058 C1053 1.390 . S
C1058 C1057 1.387 . S
H1059 C1071 0.930 . S
H1060 C1073 0.930 . S
H1061 C1074 0.930 . S
H1062 C1078 0.959 . S
H1063 C1078 0.959 . S
H1064 C1078 0.961 . S
H1065 C1079 0.960 . S
H1066 C1079 0.961 . S
H1067 C1079 0.959 . S
H1068 C1082 0.929 . S
H1069 C1083 0.931 . S
H1070 C1085 0.930 . S
C1071 H1059 0.930 . S
C1071 C1072 1.399 . S
C1071 C1076 1.399 . S
C1072 C1071 1.399 . S
C1072 C1073 1.376 . S
C1073 H1060 0.930 . S
C1073 C1072 1.376 . S
C1073 C1074 1.388 . S
C1074 H1061 0.930 . S
C1074 C1073 1.388 . S
C1074 C1075 1.390 . S
C1075 C1074 1.390 . S
C1075 C1076 1.394 . S
C1075 C1081 1.465 . S
C1076 C1071 1.399 . S
C1076 C1075 1.394 . S
C1076 C1077 1.516 . S
C1077 C1076 1.516 . S
C1077 C1078 1.502 . S
C1077 C1079 1.561 . S
C1077 C1080 1.526 . S
C1078 H1062 0.959 . S
C1078 H1063 0.959 . S
C1078 H1064 0.961 . S
C1078 C1077 1.502 . S
C1079 H1065 0.960 . S
C1079 H1066 0.961 . S
C1079 H1067 0.959 . S
C1079 C1077 1.561 . S
C1080 C1077 1.526 . S
C1080 C1081 1.396 . S
C1080 C1085 1.390 . S
C1081 C1075 1.465 . S
C1081 C1080 1.396 . S
C1081 C1082 1.399 . S
C1082 H1068 0.929 . S
C1082 C1081 1.399 . S
C1082 C1083 1.385 . S
C1083 H1069 0.931 . S
C1083 C1082 1.385 . S
C1083 C1084 1.389 . S
C1084 C1083 1.389 . S
C1084 C1085 1.387 . S
C1085 H1070 0.930 . S
C1085 C1080 1.390 . S
C1085 C1084 1.387 . S
H1086 C1098 0.930 . S
H1087 C1100 0.930 . S
H1088 C1101 0.930 . S
H1089 C1105 0.959 . S
H1090 C1105 0.959 . S
H1091 C1105 0.961 . S
H1092 C1106 0.960 . S
H1093 C1106 0.961 . S
H1094 C1106 0.959 . S
H1095 C1109 0.929 . S
H1096 C1110 0.931 . S
H1097 C1112 0.930 . S
C1098 H1086 0.930 . S
C1098 C1099 1.399 . S
C1098 C1103 1.399 . S
C1099 C1098 1.399 . S
C1099 C1100 1.376 . S
C1100 H1087 0.930 . S
C1100 C1099 1.376 . S
C1100 C1101 1.388 . S
C1101 H1088 0.930 . S
C1101 C1100 1.388 . S
C1101 C1102 1.390 . S
C1102 C1101 1.390 . S
C1102 C1103 1.394 . S
C1102 C1108 1.465 . S
C1103 C1098 1.399 . S
C1103 C1102 1.394 . S
C1103 C1104 1.516 . S
C1104 C1103 1.516 . S
C1104 C1105 1.502 . S
C1104 C1106 1.561 . S
C1104 C1107 1.526 . S
C1105 H1089 0.959 . S
C1105 H1090 0.959 . S
C1105 H1091 0.961 . S
C1105 C1104 1.502 . S
C1106 H1092 0.960 . S
C1106 H1093 0.961 . S
C1106 H1094 0.959 . S
C1106 C1104 1.561 . S
C1107 C1104 1.526 . S
C1107 C1108 1.396 . S
C1107 C1112 1.390 . S
C1108 C1102 1.465 . S
C1108 C1107 1.396 . S
C1108 C1109 1.399 . S
C1109 H1095 0.929 . S
C1109 C1108 1.399 . S
C1109 C1110 1.385 . S
C1110 H1096 0.931 . S
C1110 C1109 1.385 . S
C1110 C1111 1.389 . S
C1111 C1110 1.389 . S
C1111 C1112 1.387 . S
C1112 H1097 0.930 . S
C1112 C1107 1.390 . S
C1112 C1111 1.387 . S
H1113 C1125 0.930 . S
H1114 C1127 0.930 . S
H1115 C1128 0.930 . S
H1116 C1132 0.959 . S
H1117 C1132 0.959 . S
H1118 C1132 0.961 . S
H1119 C1133 0.960 . S
H1120 C1133 0.961 . S
H1121 C1133 0.959 . S
H1122 C1136 0.929 . S
H1123 C1137 0.931 . S
H1124 C1139 0.930 . S
C1125 H1113 0.930 . S
C1125 C1126 1.399 . S
C1125 C1130 1.399 . S
C1126 C1125 1.399 . S
C1126 C1127 1.376 . S
C1127 H1114 0.930 . S
C1127 C1126 1.376 . S
C1127 C1128 1.388 . S
C1128 H1115 0.930 . S
C1128 C1127 1.388 . S
C1128 C1129 1.390 . S
C1129 C1128 1.390 . S
C1129 C1130 1.394 . S
C1129 C1135 1.465 . S
C1130 C1125 1.399 . S
C1130 C1129 1.394 . S
C1130 C1131 1.516 . S
C1131 C1130 1.516 . S
C1131 C1132 1.502 . S
C1131 C1133 1.561 . S
C1131 C1134 1.526 . S
C1132 H1116 0.959 . S
C1132 H1117 0.959 . S
C1132 H1118 0.961 . S
C1132 C1131 1.502 . S
C1133 H1119 0.960 . S
C1133 H1120 0.961 . S
C1133 H1121 0.959 . S
C1133 C1131 1.561 . S
C1134 C1131 1.526 . S
C1134 C1135 1.396 . S
C1134 C1139 1.390 . S
C1135 C1129 1.465 . S
C1135 C1134 1.396 . S
C1135 C1136 1.399 . S
C1136 H1122 0.929 . S
C1136 C1135 1.399 . S
C1136 C1137 1.385 . S
C1137 H1123 0.931 . S
C1137 C1136 1.385 . S
C1137 C1138 1.389 . S
C1138 C1137 1.389 . S
C1138 C1139 1.387 . S
C1139 H1124 0.930 . S
C1139 C1134 1.390 . S
C1139 C1138 1.387 . S
H1140 C1152 0.930 . S
H1141 C1154 0.930 . S
H1142 C1155 0.930 . S
H1143 C1159 0.959 . S
H1144 C1159 0.959 . S
H1145 C1159 0.961 . S
H1146 C1160 0.960 . S
H1147 C1160 0.961 . S
H1148 C1160 0.959 . S
H1149 C1163 0.929 . S
H1150 C1164 0.931 . S
H1151 C1166 0.930 . S
C1152 H1140 0.930 . S
C1152 C1153 1.399 . S
C1152 C1157 1.399 . S
C1153 C1152 1.399 . S
C1153 C1154 1.376 . S
C1154 H1141 0.930 . S
C1154 C1153 1.376 . S
C1154 C1155 1.388 . S
C1155 H1142 0.930 . S
C1155 C1154 1.388 . S
C1155 C1156 1.390 . S
C1156 C1155 1.390 . S
C1156 C1157 1.394 . S
C1156 C1162 1.465 . S
C1157 C1152 1.399 . S
C1157 C1156 1.394 . S
C1157 C1158 1.516 . S
C1158 C1157 1.516 . S
C1158 C1159 1.502 . S
C1158 C1160 1.561 . S
C1158 C1161 1.526 . S
C1159 H1143 0.959 . S
C1159 H1144 0.959 . S
C1159 H1145 0.961 . S
C1159 C1158 1.502 . S
C1160 H1146 0.960 . S
C1160 H1147 0.961 . S
C1160 H1148 0.959 . S
C1160 C1158 1.561 . S
C1161 C1158 1.526 . S
C1161 C1162 1.396 . S
C1161 C1166 1.390 . S
C1162 C1156 1.465 . S
C1162 C1161 1.396 . S
C1162 C1163 1.399 . S
C1163 H1149 0.929 . S
C1163 C1162 1.399 . S
C1163 C1164 1.385 . S
C1164 H1150 0.931 . S
C1164 C1163 1.385 . S
C1164 C1165 1.389 . S
C1165 C1164 1.389 . S
C1165 C1166 1.387 . S
C1166 H1151 0.930 . S
C1166 C1161 1.390 . S
C1166 C1165 1.387 . S
H1167 C1179 0.930 . S
H1168 C1181 0.930 . S
H1169 C1182 0.930 . S
H1170 C1186 0.959 . S
H1171 C1186 0.959 . S
H1172 C1186 0.961 . S
H1173 C1187 0.960 . S
H1174 C1187 0.961 . S
H1175 C1187 0.959 . S
H1176 C1190 0.929 . S
H1177 C1191 0.931 . S
H1178 C1193 0.930 . S
C1179 H1167 0.930 . S
C1179 C1180 1.399 . S
C1179 C1184 1.399 . S
C1180 C1179 1.399 . S
C1180 C1181 1.376 . S
C1181 H1168 0.930 . S
C1181 C1180 1.376 . S
C1181 C1182 1.388 . S
C1182 H1169 0.930 . S
C1182 C1181 1.388 . S
C1182 C1183 1.390 . S
C1183 C1182 1.390 . S
C1183 C1184 1.394 . S
C1183 C1189 1.465 . S
C1184 C1179 1.399 . S
C1184 C1183 1.394 . S
C1184 C1185 1.516 . S
C1185 C1184 1.516 . S
C1185 C1186 1.502 . S
C1185 C1187 1.561 . S
C1185 C1188 1.526 . S
C1186 H1170 0.959 . S
C1186 H1171 0.959 . S
C1186 H1172 0.961 . S
C1186 C1185 1.502 . S
C1187 H1173 0.960 . S
C1187 H1174 0.961 . S
C1187 H1175 0.959 . S
C1187 C1185 1.561 . S
C1188 C1185 1.526 . S
C1188 C1189 1.396 . S
C1188 C1193 1.390 . S
C1189 C1183 1.465 . S
C1189 C1188 1.396 . S
C1189 C1190 1.399 . S
C1190 H1176 0.929 . S
C1190 C1189 1.399 . S
C1190 C1191 1.385 . S
C1191 H1177 0.931 . S
C1191 C1190 1.385 . S
C1191 C1192 1.389 . S
C1192 C1191 1.389 . S
C1192 C1193 1.387 . S
C1193 H1178 0.930 . S
C1193 C1188 1.390 . S
C1193 C1192 1.387 . S
H1194 C1206 0.930 . S
H1195 C1208 0.930 . S
H1196 C1209 0.930 . S
H1197 C1213 0.959 . S
H1198 C1213 0.959 . S
H1199 C1213 0.961 . S
H1200 C1214 0.960 . S
H1201 C1214 0.961 . S
H1202 C1214 0.959 . S
H1203 C1217 0.929 . S
H1204 C1218 0.931 . S
H1205 C1220 0.930 . S
C1206 H1194 0.930 . S
C1206 C1207 1.399 . S
C1206 C1211 1.399 . S
C1207 C1206 1.399 . S
C1207 C1208 1.376 . S
C1208 H1195 0.930 . S
C1208 C1207 1.376 . S
C1208 C1209 1.388 . S
C1209 H1196 0.930 . S
C1209 C1208 1.388 . S
C1209 C1210 1.390 . S
C1210 C1209 1.390 . S
C1210 C1211 1.394 . S
C1210 C1216 1.465 . S
C1211 C1206 1.399 . S
C1211 C1210 1.394 . S
C1211 C1212 1.516 . S
C1212 C1211 1.516 . S
C1212 C1213 1.502 . S
C1212 C1214 1.561 . S
C1212 C1215 1.526 . S
C1213 H1197 0.959 . S
C1213 H1198 0.959 . S
C1213 H1199 0.961 . S
C1213 C1212 1.502 . S
C1214 H1200 0.960 . S
C1214 H1201 0.961 . S
C1214 H1202 0.959 . S
C1214 C1212 1.561 . S
C1215 C1212 1.526 . S
C1215 C1216 1.396 . S
C1215 C1220 1.390 . S
C1216 C1210 1.465 . S
C1216 C1215 1.396 . S
C1216 C1217 1.399 . S
C1217 H1203 0.929 . S
C1217 C1216 1.399 . S
C1217 C1218 1.385 . S
C1218 H1204 0.931 . S
C1218 C1217 1.385 . S
C1218 C1219 1.389 . S
C1219 C1218 1.389 . S
C1219 C1220 1.387 . S
C1220 H1205 0.930 . S
C1220 C1215 1.390 . S
C1220 C1219 1.387 . S
H1221 C1233 0.930 . S
H1222 C1235 0.930 . S
H1223 C1236 0.930 . S
H1224 C1240 0.959 . S
H1225 C1240 0.959 . S
H1226 C1240 0.961 . S
H1227 C1241 0.960 . S
H1228 C1241 0.961 . S
H1229 C1241 0.959 . S
H1230 C1244 0.929 . S
H1231 C1245 0.931 . S
H1232 C1247 0.930 . S
C1233 H1221 0.930 . S
C1233 C1234 1.399 . S
C1233 C1238 1.399 . S
C1234 C1233 1.399 . S
C1234 C1235 1.376 . S
C1235 H1222 0.930 . S
C1235 C1234 1.376 . S
C1235 C1236 1.388 . S
C1236 H1223 0.930 . S
C1236 C1235 1.388 . S
C1236 C1237 1.390 . S
C1237 C1236 1.390 . S
C1237 C1238 1.394 . S
C1237 C1243 1.465 . S
C1238 C1233 1.399 . S
C1238 C1237 1.394 . S
C1238 C1239 1.516 . S
C1239 C1238 1.516 . S
C1239 C1240 1.502 . S
C1239 C1241 1.561 . S
C1239 C1242 1.526 . S
C1240 H1224 0.959 . S
C1240 H1225 0.959 . S
C1240 H1226 0.961 . S
C1240 C1239 1.502 . S
C1241 H1227 0.960 . S
C1241 H1228 0.961 . S
C1241 H1229 0.959 . S
C1241 C1239 1.561 . S
C1242 C1239 1.526 . S
C1242 C1243 1.396 . S
C1242 C1247 1.390 . S
C1243 C1237 1.465 . S
C1243 C1242 1.396 . S
C1243 C1244 1.399 . S
C1244 H1230 0.929 . S
C1244 C1243 1.399 . S
C1244 C1245 1.385 . S
C1245 H1231 0.931 . S
C1245 C1244 1.385 . S
C1245 C1246 1.389 . S
C1246 C1245 1.389 . S
C1246 C1247 1.387 . S
C1247 H1232 0.930 . S
C1247 C1242 1.390 . S
C1247 C1246 1.387 . S
H1248 C1260 0.930 . S
H1249 C1262 0.930 . S
H1250 C1263 0.930 . S
H1251 C1267 0.959 . S
H1252 C1267 0.959 . S
H1253 C1267 0.961 . S
H1254 C1268 0.960 . S
H1255 C1268 0.961 . S
H1256 C1268 0.959 . S
H1257 C1271 0.929 . S
H1258 C1272 0.931 1_655 S
H1259 C1274 0.930 . S
C1260 H1248 0.930 . S
C1260 C1261 1.399 . S
C1260 C1265 1.399 . S
C1261 C1260 1.399 . S
C1261 C1262 1.376 . S
C1262 H1249 0.930 . S
C1262 C1261 1.376 . S
C1262 C1263 1.388 . S
C1263 H1250 0.930 . S
C1263 C1262 1.388 . S
C1263 C1264 1.390 . S
C1264 C1263 1.390 . S
C1264 C1265 1.394 . S
C1264 C1270 1.465 . S
C1265 C1260 1.399 . S
C1265 C1264 1.394 . S
C1265 C1266 1.516 . S
C1266 C1265 1.516 . S
C1266 C1267 1.502 . S
C1266 C1268 1.561 . S
C1266 C1269 1.526 . S
C1267 H1251 0.959 . S
C1267 H1252 0.959 . S
C1267 H1253 0.961 . S
C1267 C1266 1.502 . S
C1268 H1254 0.960 . S
C1268 H1255 0.961 . S
C1268 H1256 0.959 . S
C1268 C1266 1.561 . S
C1269 C1266 1.526 . S
C1269 C1270 1.396 . S
C1269 C1274 1.390 . S
C1270 C1264 1.465 . S
C1270 C1269 1.396 . S
C1270 C1271 1.399 . S
C1271 H1257 0.929 . S
C1271 C1270 1.399 . S
C1271 C1272 1.385 . S
C1272 H1258 0.931 1_455 S
C1272 C1271 1.385 . S
C1272 C1273 1.389 . S
C1273 C1272 1.389 . S
C1273 C1274 1.387 . S
C1274 H1259 0.930 . S
C1274 C1269 1.390 . S
C1274 C1273 1.387 . S
H1275 C1287 0.930 . S
H1276 C1289 0.930 . S
H1277 C1290 0.930 . S
H1278 C1294 0.959 . S
H1279 C1294 0.959 . S
H1280 C1294 0.961 . S
H1281 C1295 0.960 . S
H1282 C1295 0.961 . S
H1283 C1295 0.959 . S
H1284 C1298 0.929 . S
H1285 C1299 0.931 . S
H1286 C1301 0.930 . S
C1287 H1275 0.930 . S
C1287 C1288 1.399 . S
C1287 C1292 1.399 . S
C1288 C1287 1.399 . S
C1288 C1289 1.376 . S
C1289 H1276 0.930 . S
C1289 C1288 1.376 . S
C1289 C1290 1.388 . S
C1290 H1277 0.930 . S
C1290 C1289 1.388 . S
C1290 C1291 1.390 . S
C1291 C1290 1.390 . S
C1291 C1292 1.394 . S
C1291 C1297 1.465 . S
C1292 C1287 1.399 . S
C1292 C1291 1.394 . S
C1292 C1293 1.516 . S
C1293 C1292 1.516 . S
C1293 C1294 1.502 . S
C1293 C1295 1.561 . S
C1293 C1296 1.526 . S
C1294 H1278 0.959 . S
C1294 H1279 0.959 . S
C1294 H1280 0.961 . S
C1294 C1293 1.502 . S
C1295 H1281 0.960 . S
C1295 H1282 0.961 . S
C1295 H1283 0.959 . S
C1295 C1293 1.561 . S
C1296 C1293 1.526 . S
C1296 C1297 1.396 . S
C1296 C1301 1.390 . S
C1297 C1291 1.465 . S
C1297 C1296 1.396 . S
C1297 C1298 1.399 . S
C1298 H1284 0.929 . S
C1298 C1297 1.399 . S
C1298 C1299 1.385 . S
C1299 H1285 0.931 . S
C1299 C1298 1.385 . S
C1299 C1300 1.389 . S
C1300 C1299 1.389 . S
C1300 C1301 1.387 . S
C1301 H1286 0.930 . S
C1301 C1296 1.390 . S
C1301 C1300 1.387 . S
H1302 C1314 0.930 . S
H1303 C1316 0.930 . S
H1304 C1317 0.930 . S
H1305 C1321 0.959 . S
H1306 C1321 0.959 . S
H1307 C1321 0.961 . S
H1308 C1322 0.960 . S
H1309 C1322 0.961 . S
H1310 C1322 0.959 . S
H1311 C1325 0.929 . S
H1312 C1326 0.931 . S
H1313 C1328 0.930 . S
C1314 H1302 0.930 . S
C1314 C1315 1.399 . S
C1314 C1319 1.399 . S
C1315 C1314 1.399 . S
C1315 C1316 1.376 . S
C1316 H1303 0.930 . S
C1316 C1315 1.376 . S
C1316 C1317 1.388 . S
C1317 H1304 0.930 . S
C1317 C1316 1.388 . S
C1317 C1318 1.390 . S
C1318 C1317 1.390 . S
C1318 C1319 1.394 . S
C1318 C1324 1.465 . S
C1319 C1314 1.399 . S
C1319 C1318 1.394 . S
C1319 C1320 1.516 . S
C1320 C1319 1.516 . S
C1320 C1321 1.502 . S
C1320 C1322 1.561 . S
C1320 C1323 1.526 . S
C1321 H1305 0.959 . S
C1321 H1306 0.959 . S
C1321 H1307 0.961 . S
C1321 C1320 1.502 . S
C1322 H1308 0.960 . S
C1322 H1309 0.961 . S
C1322 H1310 0.959 . S
C1322 C1320 1.561 . S
C1323 C1320 1.526 . S
C1323 C1324 1.396 . S
C1323 C1328 1.390 . S
C1324 C1318 1.465 . S
C1324 C1323 1.396 . S
C1324 C1325 1.399 . S
C1325 H1311 0.929 . S
C1325 C1324 1.399 . S
C1325 C1326 1.385 . S
C1326 H1312 0.931 . S
C1326 C1325 1.385 . S
C1326 C1327 1.389 . S
C1327 C1326 1.389 . S
C1327 C1328 1.387 . S
C1328 H1313 0.930 . S
C1328 C1323 1.390 . S
C1328 C1327 1.387 . S
H1329 C1341 0.930 . S
H1330 C1343 0.930 . S
H1331 C1344 0.930 . S
H1332 C1348 0.959 . S
H1333 C1348 0.959 . S
H1334 C1348 0.961 . S
H1335 C1349 0.960 . S
H1336 C1349 0.961 . S
H1337 C1349 0.959 . S
H1338 C1352 0.929 . S
H1339 C1353 0.931 . S
H1340 C1355 0.930 . S
C1341 H1329 0.930 . S
C1341 C1342 1.399 . S
C1341 C1346 1.399 . S
C1342 C1341 1.399 . S
C1342 C1343 1.376 . S
C1343 H1330 0.930 . S
C1343 C1342 1.376 . S
C1343 C1344 1.388 . S
C1344 H1331 0.930 . S
C1344 C1343 1.388 . S
C1344 C1345 1.390 . S
C1345 C1344 1.390 . S
C1345 C1346 1.394 . S
C1345 C1351 1.465 . S
C1346 C1341 1.399 . S
C1346 C1345 1.394 . S
C1346 C1347 1.516 . S
C1347 C1346 1.516 . S
C1347 C1348 1.502 . S
C1347 C1349 1.561 . S
C1347 C1350 1.526 . S
C1348 H1332 0.959 . S
C1348 H1333 0.959 . S
C1348 H1334 0.961 . S
C1348 C1347 1.502 . S
C1349 H1335 0.960 . S
C1349 H1336 0.961 . S
C1349 H1337 0.959 . S
C1349 C1347 1.561 . S
C1350 C1347 1.526 . S
C1350 C1351 1.396 . S
C1350 C1355 1.390 . S
C1351 C1345 1.465 . S
C1351 C1350 1.396 . S
C1351 C1352 1.399 . S
C1352 H1338 0.929 . S
C1352 C1351 1.399 . S
C1352 C1353 1.385 . S
C1353 H1339 0.931 . S
C1353 C1352 1.385 . S
C1353 C1354 1.389 . S
C1354 C1353 1.389 . S
C1354 C1355 1.387 . S
C1355 H1340 0.930 . S
C1355 C1350 1.390 . S
C1355 C1354 1.387 . S
H1356 C1368 0.930 . S
H1357 C1370 0.930 . S
H1358 C1371 0.930 . S
H1359 C1375 0.959 . S
H1360 C1375 0.959 . S
H1361 C1375 0.961 . S
H1362 C1376 0.960 . S
H1363 C1376 0.961 . S
H1364 C1376 0.959 . S
H1365 C1379 0.929 . S
H1366 C1380 0.931 . S
H1367 C1382 0.930 . S
C1368 H1356 0.930 . S
C1368 C1369 1.399 . S
C1368 C1373 1.399 . S
C1369 C1368 1.399 . S
C1369 C1370 1.376 . S
C1370 H1357 0.930 . S
C1370 C1369 1.376 . S
C1370 C1371 1.388 . S
C1371 H1358 0.930 . S
C1371 C1370 1.388 . S
C1371 C1372 1.390 . S
C1372 C1371 1.390 . S
C1372 C1373 1.394 . S
C1372 C1378 1.465 . S
C1373 C1368 1.399 . S
C1373 C1372 1.394 . S
C1373 C1374 1.516 . S
C1374 C1373 1.516 . S
C1374 C1375 1.502 . S
C1374 C1376 1.561 . S
C1374 C1377 1.526 . S
C1375 H1359 0.959 . S
C1375 H1360 0.959 . S
C1375 H1361 0.961 . S
C1375 C1374 1.502 . S
C1376 H1362 0.960 . S
C1376 H1363 0.961 . S
C1376 H1364 0.959 . S
C1376 C1374 1.561 . S
C1377 C1374 1.526 . S
C1377 C1378 1.396 . S
C1377 C1382 1.390 . S
C1378 C1372 1.465 . S
C1378 C1377 1.396 . S
C1378 C1379 1.399 . S
C1379 H1365 0.929 . S
C1379 C1378 1.399 . S
C1379 C1380 1.385 . S
C1380 H1366 0.931 . S
C1380 C1379 1.385 . S
C1380 C1381 1.389 . S
C1381 C1380 1.389 . S
C1381 C1382 1.387 . S
C1382 H1367 0.930 . S
C1382 C1377 1.390 . S
C1382 C1381 1.387 . S
H1383 C1395 0.930 . S
H1384 C1397 0.930 . S
H1385 C1398 0.930 . S
H1386 C1402 0.959 . S
H1387 C1402 0.959 . S
H1388 C1402 0.961 . S
H1389 C1403 0.960 . S
H1390 C1403 0.961 . S
H1391 C1403 0.959 . S
H1392 C1406 0.929 . S
H1393 C1407 0.931 . S
H1394 C1409 0.930 . S
C1395 H1383 0.930 . S
C1395 C1396 1.399 . S
C1395 C1400 1.399 . S
C1396 C1395 1.399 . S
C1396 C1397 1.376 . S
C1397 H1384 0.930 . S
C1397 C1396 1.376 . S
C1397 C1398 1.388 . S
C1398 H1385 0.930 . S
C1398 C1397 1.388 . S
C1398 C1399 1.390 . S
C1399 C1398 1.390 . S
C1399 C1400 1.394 . S
C1399 C1405 1.465 . S
C1400 C1395 1.399 . S
C1400 C1399 1.394 . S
C1400 C1401 1.516 . S
C1401 C1400 1.516 . S
C1401 C1402 1.502 . S
C1401 C1403 1.561 . S
C1401 C1404 1.526 . S
C1402 H1386 0.959 . S
C1402 H1387 0.959 . S
C1402 H1388 0.961 . S
C1402 C1401 1.502 . S
C1403 H1389 0.960 . S
C1403 H1390 0.961 . S
C1403 H1391 0.959 . S
C1403 C1401 1.561 . S
C1404 C1401 1.526 . S
C1404 C1405 1.396 . S
C1404 C1409 1.390 . S
C1405 C1399 1.465 . S
C1405 C1404 1.396 . S
C1405 C1406 1.399 . S
C1406 H1392 0.929 . S
C1406 C1405 1.399 . S
C1406 C1407 1.385 . S
C1407 H1393 0.931 . S
C1407 C1406 1.385 . S
C1407 C1408 1.389 . S
C1408 C1407 1.389 . S
C1408 C1409 1.387 . S
C1409 H1394 0.930 . S
C1409 C1404 1.390 . S
C1409 C1408 1.387 . S
H1410 C1422 0.930 . S
H1411 C1424 0.930 . S
H1412 C1425 0.930 . S
H1413 C1429 0.959 . S
H1414 C1429 0.959 . S
H1415 C1429 0.961 . S
H1416 C1430 0.960 . S
H1417 C1430 0.961 . S
H1418 C1430 0.959 . S
H1419 C1433 0.929 . S
H1420 C1434 0.931 . S
H1421 C1436 0.930 . S
C1422 H1410 0.930 . S
C1422 C1423 1.399 . S
C1422 C1427 1.399 . S
C1423 C1422 1.399 . S
C1423 C1424 1.376 . S
C1424 H1411 0.930 . S
C1424 C1423 1.376 . S
C1424 C1425 1.388 . S
C1425 H1412 0.930 . S
C1425 C1424 1.388 . S
C1425 C1426 1.390 . S
C1426 C1425 1.390 . S
C1426 C1427 1.394 . S
C1426 C1432 1.465 . S
C1427 C1422 1.399 . S
C1427 C1426 1.394 . S
C1427 C1428 1.516 . S
C1428 C1427 1.516 . S
C1428 C1429 1.502 . S
C1428 C1430 1.561 . S
C1428 C1431 1.526 . S
C1429 H1413 0.959 . S
C1429 H1414 0.959 . S
C1429 H1415 0.961 . S
C1429 C1428 1.502 . S
C1430 H1416 0.960 . S
C1430 H1417 0.961 . S
C1430 H1418 0.959 . S
C1430 C1428 1.561 . S
C1431 C1428 1.526 . S
C1431 C1432 1.396 . S
C1431 C1436 1.390 . S
C1432 C1426 1.465 . S
C1432 C1431 1.396 . S
C1432 C1433 1.399 . S
C1433 H1419 0.929 . S
C1433 C1432 1.399 . S
C1433 C1434 1.385 . S
C1434 H1420 0.931 . S
C1434 C1433 1.385 . S
C1434 C1435 1.389 . S
C1435 C1434 1.389 . S
C1435 C1436 1.387 . S
C1436 H1421 0.930 . S
C1436 C1431 1.390 . S
C1436 C1435 1.387 . S
H1437 C1449 0.930 . S
H1438 C1451 0.930 . S
H1439 C1452 0.930 . S
H1440 C1456 0.959 . S
H1441 C1456 0.959 . S
H1442 C1456 0.961 . S
H1443 C1457 0.960 . S
H1444 C1457 0.961 . S
H1445 C1457 0.959 . S
H1446 C1460 0.929 . S
H1447 C1461 0.931 . S
H1448 C1463 0.930 . S
C1449 H1437 0.930 . S
C1449 C1450 1.399 . S
C1449 C1454 1.399 . S
C1450 C1449 1.399 . S
C1450 C1451 1.376 . S
C1451 H1438 0.930 . S
C1451 C1450 1.376 . S
C1451 C1452 1.388 . S
C1452 H1439 0.930 . S
C1452 C1451 1.388 . S
C1452 C1453 1.390 . S
C1453 C1452 1.390 . S
C1453 C1454 1.394 . S
C1453 C1459 1.465 . S
C1454 C1449 1.399 . S
C1454 C1453 1.394 . S
C1454 C1455 1.516 . S
C1455 C1454 1.516 . S
C1455 C1456 1.502 . S
C1455 C1457 1.561 . S
C1455 C1458 1.526 . S
C1456 H1440 0.959 . S
C1456 H1441 0.959 . S
C1456 H1442 0.961 . S
C1456 C1455 1.502 . S
C1457 H1443 0.960 . S
C1457 H1444 0.961 . S
C1457 H1445 0.959 . S
C1457 C1455 1.561 . S
C1458 C1455 1.526 . S
C1458 C1459 1.396 . S
C1458 C1463 1.390 . S
C1459 C1453 1.465 . S
C1459 C1458 1.396 . S
C1459 C1460 1.399 . S
C1460 H1446 0.929 . S
C1460 C1459 1.399 . S
C1460 C1461 1.385 . S
C1461 H1447 0.931 . S
C1461 C1460 1.385 . S
C1461 C1462 1.389 . S
C1462 C1461 1.389 . S
C1462 C1463 1.387 . S
C1463 H1448 0.930 . S
C1463 C1458 1.390 . S
C1463 C1462 1.387 . S
C829 C361 1.425 . S
C841 C554 1.471 . S
C868 C638 1.425 . S
C856 C451 1.420 . S
C895 C631 1.468 . S
C883 C241 1.444 . S
C910 C331 1.465 . S
C922 C547 1.446 . S
C949 C711 1.426 . S
C937 C140 1.395 . S
C976 C795 1.467 . S
C964 C211 1.457 . S
C991 C20 1.449 . S
C1003 C788 1.451 . S
C1018 C91 1.434 . S
C1030 C704 1.446 . S
C1057 C538 1.269 . S
C1045 C80 1.488 1_554 S
C1084 C622 1.318 . S
C1072 C1 1.438 . S
C1111 C633 1.343 . S
C1099 C200 1.522 1_556 S
C1138 C549 1.454 . S
C1126 C121 1.457 . S
C1165 C717 1.400 . S
C1153 C320 1.499 1_556 S
C1180 C260 1.489 . S
C1192 C801 1.280 . S
C1219 C790 1.410 . S
C1207 C440 1.499 1_554 S
C1234 C380 1.474 . S
C1246 C706 1.394 . S
C1273 C536 1.569 . S
C1261 C31 1.558 . S
C1300 C620 1.583 . S
C1288 C61 1.575 . S
C1315 C151 1.524 . S
C1327 C627 1.573 . S
C1354 C543 1.545 . S
C1342 C181 1.567 . S
C1381 C715 1.562 . S
C1369 C271 1.540 . S
C1396 C301 1.582 . S
C1408 C799 1.583 . S
C1423 C391 1.512 . S
C1435 C806 1.552 . S
C1450 C421 1.572 . S
C1462 C722 1.538 . S
