# Generated by pormake.
# Topology sqc, (4,8)-cn, num edge types: 1
# Building blocks:
#     Node 0, Type 0, BuildingBlock: KUFVIS_clean_linker_0, # of connection points: 4
#     Node 1, Type 0, BuildingBlock: KUFVIS_clean_linker_0, # of connection points: 4
#     Node 2, Type 0, BuildingBlock: KUFVIS_clean_linker_0, # of connection points: 4
#     Node 3, Type 0, BuildingBlock: KUFVIS_clean_linker_0, # of connection points: 4
#     Node 4, Type 0, BuildingBlock: KUFVIS_clean_linker_0, # of connection points: 4
#     Node 5, Type 0, BuildingBlock: KUFVIS_clean_linker_0, # of connection points: 4
#     Node 6, Type 0, BuildingBlock: KUFVIS_clean_linker_0, # of connection points: 4
#     Node 7, Type 0, BuildingBlock: KUFVIS_clean_linker_0, # of connection points: 4
#     Node 8, Type 1, BuildingBlock: VETTIZ_charged_sbu_0, # of connection points: 8
#     Node 9, Type 1, BuildingBlock: VETTIZ_charged_sbu_0, # of connection points: 8
#     Node 10, Type 1, BuildingBlock: VETTIZ_charged_sbu_0, # of connection points: 8
#     Node 11, Type 1, BuildingBlock: VETTIZ_charged_sbu_0, # of connection points: 8
#     Edge 12, Type (0, 1), BuildingBlock: OJICUG_clean_linker_0, # of connection points: 2
#     Edge 13, Type (0, 1), BuildingBlock: OJICUG_clean_linker_0, # of connection points: 2
#     Edge 14, Type (0, 1), BuildingBlock: OJICUG_clean_linker_0, # of connection points: 2
#     Edge 15, Type (0, 1), BuildingBlock: OJICUG_clean_linker_0, # of connection points: 2
#     Edge 16, Type (0, 1), BuildingBlock: OJICUG_clean_linker_0, # of connection points: 2
#     Edge 17, Type (0, 1), BuildingBlock: OJICUG_clean_linker_0, # of connection points: 2
#     Edge 18, Type (0, 1), BuildingBlock: OJICUG_clean_linker_0, # of connection points: 2
#     Edge 19, Type (0, 1), BuildingBlock: OJICUG_clean_linker_0, # of connection points: 2
#     Edge 20, Type (0, 1), BuildingBlock: OJICUG_clean_linker_0, # of connection points: 2
#     Edge 21, Type (0, 1), BuildingBlock: OJICUG_clean_linker_0, # of connection points: 2
#     Edge 22, Type (0, 1), BuildingBlock: OJICUG_clean_linker_0, # of connection points: 2
#     Edge 23, Type (0, 1), BuildingBlock: OJICUG_clean_linker_0, # of connection points: 2
#     Edge 24, Type (0, 1), BuildingBlock: OJICUG_clean_linker_0, # of connection points: 2
#     Edge 25, Type (0, 1), BuildingBlock: OJICUG_clean_linker_0, # of connection points: 2
#     Edge 26, Type (0, 1), BuildingBlock: OJICUG_clean_linker_0, # of connection points: 2
#     Edge 27, Type (0, 1), BuildingBlock: OJICUG_clean_linker_0, # of connection points: 2
#     Edge 28, Type (0, 1), BuildingBlock: OJICUG_clean_linker_0, # of connection points: 2
#     Edge 29, Type (0, 1), BuildingBlock: OJICUG_clean_linker_0, # of connection points: 2
#     Edge 30, Type (0, 1), BuildingBlock: OJICUG_clean_linker_0, # of connection points: 2
#     Edge 31, Type (0, 1), BuildingBlock: OJICUG_clean_linker_0, # of connection points: 2
#     Edge 32, Type (0, 1), BuildingBlock: OJICUG_clean_linker_0, # of connection points: 2
#     Edge 33, Type (0, 1), BuildingBlock: OJICUG_clean_linker_0, # of connection points: 2
#     Edge 34, Type (0, 1), BuildingBlock: OJICUG_clean_linker_0, # of connection points: 2
#     Edge 35, Type (0, 1), BuildingBlock: OJICUG_clean_linker_0, # of connection points: 2
#     Edge 36, Type (0, 1), BuildingBlock: OJICUG_clean_linker_0, # of connection points: 2
#     Edge 37, Type (0, 1), BuildingBlock: OJICUG_clean_linker_0, # of connection points: 2
#     Edge 38, Type (0, 1), BuildingBlock: OJICUG_clean_linker_0, # of connection points: 2
#     Edge 39, Type (0, 1), BuildingBlock: OJICUG_clean_linker_0, # of connection points: 2
#     Edge 40, Type (0, 1), BuildingBlock: OJICUG_clean_linker_0, # of connection points: 2
#     Edge 41, Type (0, 1), BuildingBlock: OJICUG_clean_linker_0, # of connection points: 2
#     Edge 42, Type (0, 1), BuildingBlock: OJICUG_clean_linker_0, # of connection points: 2
#     Edge 43, Type (0, 1), BuildingBlock: OJICUG_clean_linker_0, # of connection points: 2
# Relax obj value: 0.164
# Max RMSD: 0.278
# Mean RMSD: 0.218
data_MOF--net-sqc--node1-VETTIZ_charged_sbu_0--node2-KUFVIS_clean_linker_0--edge1-OJICUG_clean_linker_0
_symmetry_space_group_name_H-M    P1
_symmetry_Int_Tables_number       1
_symmetry_cell_setting            triclinic
loop_
_symmetry_equiv_pos_as_xyz
'x, y, z'
_cell_length_a     18.042676
_cell_length_b     18.083728
_cell_length_c     52.934337
_cell_angle_alpha  89.981243
_cell_angle_beta   89.890187
_cell_angle_gamma 88.69563
loop_
_atom_site_label
_atom_site_type_symbol
_atom_site_fract_x
_atom_site_fract_y
_atom_site_fract_z
_atom_type_partial_charge
H0 H 0.77731 1.02268 0.47887 0.0
H1 H 0.96039 0.14024 0.50921 0.0
H2 H 0.97167 0.04103 0.4344 0.0
H3 H 0.08783 0.02962 0.43874 0.0
H4 H 0.2708 0.15829 0.46045 0.0
H5 H 0.06901 0.18018 0.5022 0.0
C6 C 0.83266 0.04424 0.47701 0.0
C7 C 0.87287 0.02762 0.45523 0.0
C8 C 0.862 0.08765 0.49616 0.0
C9 C 0.93718 0.10908 0.49391 0.0
C10 C 0.98056 0.09058 0.47192 0.0
C11 C 0.94471 0.05266 0.45222 0.0
C12 C 0.06198 0.10962 0.46889 0.0
C13 C 0.10758 0.07482 0.45 0.0
C14 C 0.18205 0.09455 0.4464 0.0
C15 C 0.21195 0.14779 0.462 0.0
C16 C 0.17324 0.1732 0.48318 0.0
C17 C 0.0975 0.15773 0.48589 0.0
H18 H 0.29154 1.02157 0.73799 0.0
H19 H 0.19925 0.8225 0.76614 0.0
H20 H 0.37396 0.81377 0.70931 0.0
H21 H 0.31391 0.7102 0.69755 0.0
H22 H 0.27782 0.50516 0.73482 0.0
H23 H 0.24056 0.70751 0.77572 0.0
C24 C 0.291 0.96147 0.73788 0.0
C25 C 0.33969 0.92222 0.72229 0.0
C26 C 0.24167 0.9262 0.75362 0.0
C27 C 0.23855 0.84841 0.75369 0.0
C28 C 0.28547 0.80521 0.73754 0.0
C29 C 0.33631 0.84386 0.72171 0.0
C30 C 0.28074 0.72099 0.73704 0.0
C31 C 0.29861 0.68126 0.71461 0.0
C32 C 0.29453 0.60366 0.71376 0.0
C33 C 0.2749 0.56506 0.73543 0.0
C34 C 0.25157 0.60091 0.75752 0.0
C35 C 0.25621 0.67938 0.75845 0.0
H36 H 0.79646 0.03964 -0.0041 0.0
H37 H 0.59295 0.03302 0.03847 0.0
H38 H 0.59105 0.08685 0.95892 0.0
H39 H 0.48459 0.14593 0.96989 0.0
H40 H 0.27893 0.07144 -0.00026 0.0
H41 H 0.48156 0.97711 0.02846 0.0
C42 C 0.73688 0.04647 -0.00274 0.0
C43 C 0.69815 0.06736 0.97548 0.0
C44 C 0.70079 0.03389 0.02027 0.0
C45 C 0.62201 0.0405 0.02082 0.0
C46 C 0.58025 0.05826 -0.0012 0.0
C47 C 0.6201 0.073 0.9762 0.0
C48 C 0.49579 0.06191 -0.00059 0.0
C49 C 0.4558 0.11066 0.98298 0.0
C50 C 0.37771 0.11472 0.98349 0.0
C51 C 0.3392 0.07007 6e-05 0.0
C52 C 0.37529 1.02087 0.0162 0.0
C53 C 0.45385 1.01621 0.01598 0.0
H54 H 0.27935 0.52728 0.24296 0.0
H55 H 0.27056 0.33996 0.29108 0.0
H56 H 0.19177 0.32716 0.21351 0.0
H57 H 0.15004 0.22052 0.22376 0.0
H58 H 0.1808 0.02906 0.27025 0.0
H59 H 0.29207 0.22496 0.28972 0.0
C60 C 0.26519 0.46975 0.24552 0.0
C61 C 0.23272 0.43158 0.22572 0.0
C62 C 0.27976 0.43589 0.26862 0.0
C63 C 0.26141 0.36229 0.27241 0.0
C64 C 0.23098 0.31959 0.25277 0.0
C65 C 0.21545 0.35617 0.22926 0.0
C66 C 0.21665 0.23822 0.25746 0.0
C67 C 0.17292 0.19646 0.24079 0.0
C68 C 0.1615 0.1208 0.24516 0.0
C69 C 0.18753 0.08797 0.2674 0.0
C70 C 0.23477 0.12533 0.28339 0.0
C71 C 0.25057 0.19963 0.27812 0.0
H72 H 0.88993 0.53651 0.27359 0.0
H73 H 0.77244 0.34332 0.29238 0.0
H74 H 0.9259 0.34101 0.22931 0.0
H75 H 0.87723 0.23671 0.2183 0.0
H76 H 0.79054 0.0377 0.24931 0.0
H77 H 0.79812 0.22823 0.296 0.0
C78 C 0.88294 0.4775 0.27108 0.0
C79 C 0.91228 0.44271 0.24961 0.0
C80 C 0.83224 0.44195 0.28641 0.0
C81 C 0.81628 0.36755 0.28144 0.0
C82 C 0.85328 0.32714 0.26181 0.0
C83 C 0.90059 0.36688 0.24568 0.0
C84 C 0.8387 0.24578 0.25761 0.0
C85 C 0.85405 0.20814 0.23429 0.0
C86 C 0.83677 0.13254 0.23127 0.0
C87 C 0.80471 0.09537 0.25145 0.0
C88 C 0.78957 0.13064 0.27428 0.0
C89 C 0.80786 0.20443 0.27755 0.0
H90 H 0.76872 0.0604 0.73531 0.0
H91 H 0.8056 0.8574 0.77589 0.0
H92 H 0.7343 0.85587 0.6976 0.0
H93 H 0.6732 0.75252 0.7094 0.0
H94 H 0.75575 0.54412 0.73745 0.0
H95 H 0.84765 0.74262 0.76607 0.0
C96 C 0.77186 1.0005 0.73581 0.0
C97 C 0.75298 0.96223 0.71403 0.0
C98 C 0.79471 0.96431 0.75788 0.0
C99 C 0.7903 0.88583 0.75865 0.0
C100 C 0.76642 0.84458 0.73713 0.0
C101 C 0.74908 0.8846 0.71473 0.0
C102 C 0.76173 0.76043 0.73751 0.0
C103 C 0.71087 0.72216 0.72168 0.0
C104 C 0.7075 0.64384 0.7221 0.0
C105 C 0.75631 0.60423 0.73748 0.0
C106 C 0.80547 0.63913 0.75331 0.0
C107 C 0.80853 0.71693 0.75356 0.0
H108 H 0.76364 0.52818 -0.00221 0.0
H109 H 0.56475 0.43495 0.96916 0.0
H110 H 0.55435 0.61209 0.02465 0.0
H111 H 0.44284 0.56232 0.03358 0.0
H112 H 0.24697 0.51034 -0.00822 0.0
H113 H 0.45785 0.48927 0.95563 0.0
C114 C 0.70348 0.5266 -0.00248 0.0
C115 C 0.66325 0.57539 0.01272 0.0
C116 C 0.66874 0.47553 0.98221 0.0
C117 C 0.59065 0.4748 0.98135 0.0
C118 C 0.54686 0.52415 -0.00352 0.0
C119 C 0.58485 0.57387 0.01259 0.0
C120 C 0.46263 0.5232 -0.0048 0.0
C121 C 0.4174 0.5442 0.01625 0.0
C122 C 0.33888 0.54231 0.01491 0.0
C123 C 0.30656 0.5164 -0.00724 0.0
C124 C 0.34853 0.49924 0.97138 0.0
C125 C 0.42634 0.50197 0.97255 0.0
H126 H 0.27657 0.53845 0.47686 0.0
H127 H 0.092 0.42589 0.50878 0.0
H128 H 0.08171 0.51858 0.43301 0.0
H129 H 0.96565 0.53191 0.43753 0.0
H130 H 0.78166 0.40611 0.4605 0.0
H131 H 0.98317 0.38582 0.50226 0.0
C132 C 0.22103 0.51722 0.47534 0.0
C133 C 0.18095 0.53224 0.45344 0.0
C134 C 0.19114 0.47607 0.49505 0.0
C135 C 0.11565 0.45537 0.49313 0.0
C136 C 0.07243 0.47241 0.47104 0.0
C137 C 0.10867 0.50812 0.45089 0.0
C138 C 0.99078 0.45398 0.46835 0.0
C139 C 0.9455 0.4877 0.4492 0.0
C140 C 0.87094 0.46818 0.44582 0.0
C141 C 0.84057 0.41637 0.46193 0.0
C142 C 0.87905 0.39208 0.48326 0.0
C143 C 0.95484 0.4074 0.48581 0.0
Fe144 Fe 0.03187 0.78185 0.15612 0.0
O145 O 0.09008 0.81914 0.12718 0.0
Fe146 Fe 0.85824 0.75851 0.13397 0.0
Fe147 Fe 0.19728 0.8048 0.12767 0.0
O148 O 0.96447 0.7473 0.12937 0.0
O149 O 0.96516 0.74492 0.12659 0.0
O150 O 0.0881 0.82267 0.1244 0.0
Fe151 Fe 1.02123 0.78517 0.09686 0.0
C152 C 0.15102 0.8795 0.17606 0.0
O153 O 0.08469 0.68093 0.15464 0.0
O154 O 0.1988 0.72174 0.15556 0.0
O155 O 0.93587 0.73598 0.07399 0.0
O156 O 0.85537 0.68787 0.10398 0.0
O157 O 0.87589 0.67929 0.16114 0.0
O158 O 0.96558 0.7355 0.18375 0.0
O159 O 0.20112 0.72421 0.10123 0.0
O160 O 0.08543 0.68747 0.0932 0.0
C161 C 0.92076 0.68183 0.18006 0.0
O162 O 0.95428 0.88294 0.09602 0.0
O163 O 0.84469 0.83889 0.10803 0.0
O164 O 0.10793 0.82527 0.18111 0.0
O165 O 0.18988 0.88322 0.1556 0.0
C166 C 0.1528 0.66994 0.15904 0.0
C167 C 0.15625 0.67937 0.0916 0.0
C168 C 0.15973 0.87274 0.07619 0.0
O169 O 0.19329 0.87623 0.09783 0.0
O170 O 0.09867 0.83609 0.07126 0.0
C171 C 0.87783 0.69708 0.08087 0.0
O172 O 0.86421 0.8411 0.16177 0.0
O173 O 0.97816 0.88252 0.15809 0.0
C174 C 0.88275 0.88602 0.09635 0.0
C175 C 0.91085 0.89292 0.16415 0.0
Fe176 Fe 0.52555 0.77939 0.42655 0.0
O177 O 0.54135 0.77598 0.39052 0.0
Fe178 Fe 0.52145 0.87368 0.36784 0.0
Fe179 Fe 0.53481 0.69056 0.36696 0.0
O180 O 0.51177 0.78629 0.39041 0.0
O181 O 0.54295 0.78912 0.3447 0.0
O182 O 0.51479 0.77698 0.34449 0.0
Fe183 Fe 0.53154 0.78489 0.30857 0.0
C184 C 0.61358 0.63244 0.41233 0.0
O185 O 0.43876 0.70793 0.42386 0.0
O186 O 0.42754 0.6807 0.38177 0.0
O187 O 0.444 0.86106 0.30968 0.0
O188 O 0.41601 0.87585 0.35128 0.0
O189 O 0.48 0.94749 0.39451 0.0
O190 O 0.45002 0.86747 0.42577 0.0
O191 O 0.50776 0.6157 0.33945 0.0
O192 O 0.46266 0.69469 0.30908 0.0
C193 C 0.43919 0.9279 0.41329 0.0
O194 O 0.60049 0.87477 0.31108 0.0
O195 O 0.55182 0.95113 0.3416 0.0
O196 O 0.60139 0.69161 0.42535 0.0
O197 O 0.57421 0.6143 0.3931 0.0
C198 C 0.40312 0.68261 0.40472 0.0
C199 C 0.46562 0.63144 0.32048 0.0
C200 C 0.65621 0.67852 0.32816 0.0
O201 O 0.64202 0.691 0.35168 0.0
O202 O 0.61895 0.70864 0.30995 0.0
C203 C 0.4047 0.88998 0.32767 0.0
O204 O 0.62738 0.88103 0.38366 0.0
O205 O 0.61259 0.85092 0.42534 0.0
C206 C 0.5964 0.93691 0.32312 0.0
C207 C 0.65003 0.87725 0.40673 0.0
Fe208 Fe 0.52463 0.28311 0.63997 0.0
O209 O 0.58197 0.32823 0.61202 0.0
Fe210 Fe 0.35914 0.23938 0.61259 0.0
Fe211 Fe 0.69079 0.3269 0.61286 0.0
O212 O 0.46796 0.23802 0.61195 0.0
O213 O 0.46782 0.23829 0.60923 0.0
O214 O 0.5822 0.32796 0.6093 0.0
Fe215 Fe 0.5254 0.28305 0.58077 0.0
C216 C 0.62994 0.40289 0.65973 0.0
O217 O 0.59329 0.19271 0.63996 0.0
O218 O 0.70094 0.24794 0.6418 0.0
O219 O 0.45264 0.232 0.55556 0.0
O220 O 0.37254 0.17053 0.58189 0.0
O221 O 0.37849 0.16123 0.63951 0.0
O222 O 0.45994 0.21958 0.6657 0.0
O223 O 0.7075 0.24454 0.5873 0.0
O224 O 0.59933 0.19172 0.57848 0.0
C225 C 0.41859 0.16343 0.65967 0.0
O226 O 0.45156 0.37438 0.57827 0.0
O227 O 0.34312 0.32165 0.58691 0.0
O228 O 0.58871 0.3466 0.66576 0.0
O229 O 0.67062 0.40513 0.63966 0.0
C230 C 0.66125 0.19127 0.64542 0.0
C231 C 0.67054 0.19395 0.57701 0.0
C232 C 0.65665 0.37447 0.55986 0.0
O233 O 0.67843 0.39553 0.58203 0.0
O234 O 0.5988 0.33398 0.55566 0.0
C235 C 0.39471 0.19152 0.55972 0.0
O236 O 0.34818 0.31851 0.64145 0.0
O237 O 0.456 0.37353 0.63986 0.0
C238 C 0.38041 0.37214 0.57663 0.0
C239 C 0.38788 0.37507 0.64519 0.0
Fe240 Fe 1.02199 0.28319 0.89844 0.0
O241 O 0.06317 0.22143 0.87048 0.0
Fe242 Fe 0.98654 0.45154 0.87148 0.0
Fe243 Fe 0.05753 0.11378 0.87234 0.0
O244 O 0.97983 0.3436 0.87031 0.0
O245 O 0.97917 0.34317 0.86744 0.0
O246 O 0.06453 0.22204 0.86765 0.0
Fe247 Fe 1.02189 0.28215 0.83889 0.0
C248 C 0.13507 0.17044 0.91881 0.0
O249 O 0.92678 0.22354 0.89949 0.0
O250 O 0.97889 0.11212 0.90132 0.0
O251 O 0.9689 0.36017 0.81393 0.0
O252 O 0.91639 0.44689 0.84151 0.0
O253 O 0.90814 0.43866 0.89868 0.0
O254 O 0.9659 0.35345 0.92438 0.0
O255 O 0.97456 0.10289 0.84663 0.0
O256 O 0.92823 0.21565 0.83699 0.0
C257 C 0.91058 0.39811 0.91875 0.0
O258 O 0.11573 0.34852 0.83646 0.0
O259 O 0.06864 0.46138 0.84534 0.0
O260 O 0.07937 0.21468 0.92443 0.0
O261 O 0.13697 0.1284 0.89908 0.0
C262 C 0.92368 0.15583 0.90533 0.0
C263 C 0.92612 0.1446 0.83617 0.0
C264 C 0.11702 0.14537 0.81965 0.0
O265 O 0.12677 0.11709 0.84195 0.0
O266 O 0.07475 0.20346 0.81416 0.0
C267 C 0.92648 0.41832 0.81927 0.0
O268 O 0.06642 0.45412 0.89992 0.0
O269 O 0.11729 0.34226 0.89818 0.0
C270 C 0.11757 0.41953 0.83522 0.0
C271 C 0.12166 0.41015 0.90343 0.0
C272 C 0.29031 0.08113 0.41658 0.0
C273 C 0.23634 0.04803 0.43195 0.0
H274 H 0.39722 0.06994 0.39873 0.0
C275 C 0.24746 0.97425 0.43932 0.0
H276 H 0.28361 0.13851 0.41097 0.0
C277 C 0.31318 0.93618 0.43315 0.0
C278 C 0.3695 0.97039 0.41912 0.0
H279 H 0.20793 0.9477 0.45159 0.0
H280 H 0.32033 0.88004 0.43998 0.0
C281 C 0.35598 0.04245 0.41002 0.0
C282 C 0.42377 0.02966 0.71565 0.0
C283 C 0.38638 0.96839 0.70544 0.0
H284 H 0.462 0.14044 0.70964 0.0
C285 C 0.37311 0.96731 0.67946 0.0
H286 H 0.43479 0.03204 0.73574 0.0
C287 C 0.38798 0.02943 0.66469 0.0
C288 C 0.41628 0.09474 0.67546 0.0
H289 H 0.34423 0.92166 0.671 0.0
H290 H 0.37301 0.0274 0.6449 0.0
C291 C 0.4383 0.0924 0.70084 0.0
C292 C 0.27022 0.19794 0.97291 0.0
C293 C 0.33171 0.15476 0.9646 0.0
H294 H 0.15845 0.23506 0.96538 0.0
C295 C 0.33206 0.12753 0.9399 0.0
H296 H 0.26855 0.21912 -0.00795 0.0
C297 C 0.26871 0.13493 0.92497 0.0
C298 C 0.20362 0.17018 0.93434 0.0
H299 H 0.37816 0.09354 0.93311 0.0
H300 H 0.26995 0.10958 0.90643 0.0
C301 C 0.2065 0.2054 0.95792 0.0
C302 C 0.18577 0.06987 0.20251 0.0
C303 C 0.1422 0.06995 0.2245 0.0
H304 H 0.2248 1.00887 0.17046 0.0
C305 C 0.09742 1.00907 0.22951 0.0
H306 H 0.2219 0.11541 0.19841 0.0
C307 C 0.10112 0.94669 0.21404 0.0
C308 C 0.14866 0.94454 0.19295 0.0
H309 H 0.06346 1.00782 0.24641 0.0
H310 H 0.06737 0.89992 0.21882 0.0
C311 C 0.18903 1.0078 0.18691 0.0
C312 C 0.21774 0.14465 0.52613 0.0
C313 C 0.21944 0.1919 0.50514 0.0
H314 H 0.27371 0.10407 0.55891 0.0
C315 C 0.27961 0.23924 0.50216 0.0
H316 H 0.17329 0.10595 0.52853 0.0
C317 C 0.33898 0.23605 0.51904 0.0
C318 C 0.33856 0.18668 0.53956 0.0
H319 H 0.28273 0.27533 0.48587 0.0
H320 H 0.38489 0.27256 0.51606 0.0
C321 C 0.27662 0.1419 0.54309 0.0
C322 C 0.13587 1.01195 0.76513 0.0
C323 C 0.20246 0.97484 0.77178 0.0
H324 H 0.05632 0.09808 0.7749 0.0
C325 C 0.24395 1.00142 0.79201 0.0
H326 H 0.1049 0.99448 0.74875 0.0
C327 C 0.21934 0.06298 0.8056 0.0
C328 C 0.15143 0.0988 0.79981 0.0
H329 H 0.29725 0.97613 0.79666 0.0
H330 H 0.25223 0.08095 0.82148 0.0
C331 C 0.10983 0.073 0.77932 0.0
C332 C 0.27967 1.01833 0.04981 0.0
C333 C 0.32554 0.97824 0.03297 0.0
H334 H 0.1869 1.01754 0.07501 0.0
C335 C 0.30783 0.90451 0.02751 0.0
H336 H 0.29016 0.07601 0.05367 0.0
C337 C 0.24702 0.87116 0.03944 0.0
C338 C 0.20167 0.91165 0.05644 0.0
H339 H 0.34027 0.87319 0.01381 0.0
H340 H 0.23757 0.81292 0.03629 0.0
C341 C 0.21869 0.98577 0.06122 0.0
C342 C 0.35639 0.07211 0.29665 0.0
C343 C 0.28001 0.07925 0.30108 0.0
H344 H 0.45455 1.00536 0.30124 0.0
C345 C 0.24601 0.02822 0.31738 0.0
H346 H 0.38388 0.10955 0.28389 0.0
C347 C 0.28684 0.96811 0.3275 0.0
C348 C 0.36158 0.95751 0.32089 0.0
H349 H 0.18686 0.0321 0.32084 0.0
H350 H 0.25905 0.92765 0.33901 0.0
C351 C 0.39649 1.01158 0.30624 0.0
C352 C 0.83801 0.11372 0.54279 0.0
C353 C 0.81175 0.109 0.5179 0.0
H354 H 0.81272 0.14093 0.58136 0.0
C355 C 0.73499 0.12236 0.51379 0.0
H356 H 0.89596 0.10283 0.54696 0.0
C357 C 0.68662 0.14089 0.5337 0.0
C358 C 0.71364 0.14906 0.55828 0.0
H359 H 0.71216 0.12134 0.49491 0.0
H360 H 0.6293 0.15492 0.52942 0.0
C361 C 0.78973 0.13377 0.56264 0.0
C362 C 0.67803 0.1155 0.30135 0.0
C363 C 0.74862 0.08984 0.29363 0.0
H364 H 0.57291 0.08578 0.31705 0.0
C365 C 0.77232 1.01774 0.29979 0.0
H366 H 0.65871 0.17094 0.29661 0.0
C367 C 0.72318 0.96917 0.31072 0.0
C368 C 0.65021 0.99247 0.31608 0.0
H369 H 0.82682 0.99724 0.29418 0.0
H370 H 0.74109 0.91226 0.31381 0.0
C371 C 0.62892 0.06686 0.31273 0.0
C372 C 0.82323 1.02357 0.04488 0.0
C373 C 0.74637 1.00869 0.04276 0.0
H374 H 0.9276 0.99609 0.06284 0.0
C375 C 0.71535 0.96301 0.06115 0.0
H376 H 0.84965 0.06154 0.03211 0.0
C377 C 0.75958 0.92944 0.07963 0.0
C378 C 0.83748 0.93755 0.08006 0.0
H379 H 0.6574 0.94912 0.06067 0.0
H380 H 0.73218 0.89288 0.0927 0.0
C381 C 0.86845 0.98721 0.06291 0.0
C382 C 0.8612 0.07792 0.77314 0.0
C383 C 0.82459 1.01149 0.77899 0.0
H384 H 0.91633 0.17396 0.78651 0.0
C385 C 0.8159 0.99361 0.8047 0.0
H386 H 0.87305 0.09297 0.75378 0.0
C387 C 0.84378 0.04012 0.82368 0.0
C388 C 0.87878 0.10682 0.81749 0.0
H389 H 0.78834 0.94355 0.8102 0.0
H390 H 0.83993 1.02295 0.84324 0.0
C391 C 0.88609 0.12537 0.79199 0.0
C392 C 0.824 0.90777 0.44264 0.0
C393 C 0.83755 0.98138 0.43625 0.0
H394 H 0.75233 0.81656 0.43793 0.0
C395 C 0.79937 1.01478 0.41604 0.0
H396 H 0.8527 0.88164 0.45836 0.0
C397 C 0.74214 0.97732 0.40417 0.0
C398 C 0.72242 0.90716 0.41292 0.0
H399 H 0.8087 0.07204 0.41119 0.0
H400 H 0.70876 1.00599 0.39009 0.0
C401 C 0.76634 0.87099 0.43114 0.0
C402 C 0.79689 0.0408 0.19881 0.0
C403 C 0.85219 0.0877 0.20803 0.0
H404 H 0.77177 0.94206 0.17842 0.0
C405 C 0.92504 0.07664 0.19927 0.0
H406 H 0.73997 0.04819 0.20505 0.0
C407 C 0.94313 1.01598 0.18363 0.0
C408 C 0.88918 0.96404 0.17693 0.0
H409 H 0.96896 0.11133 0.20604 0.0
H410 H 1.00033 1.00764 0.17796 0.0
C411 C 0.8152 0.97936 0.18374 0.0
C412 C 0.79686 0.0339 0.94388 0.0
C413 C 0.74286 0.08518 0.95266 0.0
H414 H 0.89587 1.01555 0.92215 0.0
C415 C 0.74375 0.15784 0.94335 0.0
H416 H 0.79778 0.97759 0.9509 0.0
C417 C 0.80053 0.17998 0.92701 0.0
C418 C 0.85779 0.1299 0.91967 0.0
H419 H 0.70369 0.19882 0.9501 0.0
H420 H 0.80145 0.23735 0.92116 0.0
C421 C 0.85352 0.0559 0.92759 0.0
C422 C 0.78628 0.06248 0.68381 0.0
C423 C 0.73646 1.00743 0.69119 0.0
H424 H 0.80191 0.16408 0.66375 0.0
C425 C 0.66551 1.00785 0.68055 0.0
H426 H 0.84147 0.06336 0.69182 0.0
C427 C 0.64278 0.06567 0.66454 0.0
C428 C 0.69044 0.12455 0.65894 0.0
H429 H 0.6258 0.96681 0.68612 0.0
H430 H 0.58622 0.0661 0.65771 0.0
C431 C 0.76349 0.12055 0.66791 0.0
C432 C 0.78145 0.3948 0.97547 0.0
C433 C 0.71771 0.43072 0.96542 0.0
H434 H 0.89373 0.35723 0.96876 0.0
C435 C 0.71399 0.44334 0.93941 0.0
H436 H 0.78548 0.38448 -0.00441 0.0
C437 C 0.77602 0.42908 0.92428 0.0
C438 C 0.84309 0.40166 0.93481 0.0
H439 H 0.66597 0.47115 0.93119 0.0
H440 H 0.77235 0.44337 0.90444 0.0
C441 C 0.8438 0.38031 0.96026 0.0
C442 C 0.97806 0.55315 0.23344 0.0
C443 C 0.93362 0.49184 0.22867 0.0
H444 H 1.00705 0.66254 0.22233 0.0
C445 C 0.89101 0.49065 0.20655 0.0
H446 H 1.01128 0.55536 0.25044 0.0
C447 C 0.88708 0.55236 0.19082 0.0
C448 C 0.92621 0.61644 0.19677 0.0
H449 H 0.85539 0.44466 0.20255 0.0
H450 H 0.8514 0.55043 0.17442 0.0
C451 C 0.97418 0.61508 0.21768 0.0
C452 C 0.80579 0.588 0.43794 0.0
C453 C 0.817 0.51388 0.431 0.0
H454 H 0.7326 0.68197 0.43822 0.0
C455 C 0.76313 0.47997 0.41587 0.0
H456 H 0.84525 0.61521 0.45 0.0
C457 C 0.69735 0.5182 0.4092 0.0
C458 C 0.68363 0.59054 0.41799 0.0
H459 H 0.76991 0.42232 0.41061 0.0
H460 H 0.65607 0.49012 0.39816 0.0
C461 C 0.73994 0.62557 0.43168 0.0
C462 C 0.62315 0.53681 0.71557 0.0
C463 C 0.66053 0.5981 0.70532 0.0
H464 H 0.58555 0.42583 0.70964 0.0
C465 C 0.67388 0.5993 0.67933 0.0
H466 H 0.61206 0.5344 0.73567 0.0
C467 C 0.65937 0.53711 0.6646 0.0
C468 C 0.6314 0.47169 0.67543 0.0
H469 H 0.7027 0.64502 0.67085 0.0
H470 H 0.67449 0.53914 0.64481 0.0
C471 C 0.60904 0.47398 0.7008 0.0
C472 C 0.71433 0.59265 0.05533 0.0
C473 C 0.70772 0.61894 0.03064 0.0
H474 H 0.77563 0.59163 0.08946 0.0
C475 C 0.76026 0.66956 0.02169 0.0
H476 H 0.67711 0.55107 0.06232 0.0
C477 C 0.81794 0.69376 0.03737 0.0
C478 C 0.82518 0.66615 0.06207 0.0
H479 H 0.75805 0.6883 0.00226 0.0
H480 H 0.85629 0.73401 0.03024 0.0
C481 C 0.77243 0.61497 0.07063 0.0
C482 C 0.81594 0.53995 0.31991 0.0
C483 C 0.78445 0.48964 0.30283 0.0
H484 H 0.79967 0.63961 0.34181 0.0
C485 C 0.70921 0.498 0.29674 0.0
H486 H 0.87424 0.53515 0.32462 0.0
C487 C 0.66797 0.55864 0.30573 0.0
C488 C 0.70046 0.6116 0.32143 0.0
H489 H 0.68378 0.46112 0.28334 0.0
H490 H 0.61095 0.56554 0.29962 0.0
C491 C 0.77381 0.60004 0.32947 0.0
C492 C 0.83384 0.42168 0.52614 0.0
C493 C 0.83265 0.3739 0.50529 0.0
H494 H 0.77727 0.46261 0.55884 0.0
C495 C 0.77281 0.32612 0.50247 0.0
H496 H 0.87806 0.46069 0.5284 0.0
C497 C 0.71324 0.32939 0.51934 0.0
C498 C 0.71313 0.37924 0.53971 0.0
H499 H 0.77009 0.28958 0.48629 0.0
H500 H 0.6676 0.29254 0.51646 0.0
C501 C 0.77477 0.42445 0.54311 0.0
C502 C 0.80168 0.56366 0.79159 0.0
C503 C 0.84396 0.59007 0.77147 0.0
H504 H 0.79169 0.48375 0.82089 0.0
C505 C 0.91022 0.55221 0.76483 0.0
H506 H 0.74857 0.58952 0.79623 0.0
C507 C 0.93522 0.49066 0.77897 0.0
C508 C 0.89283 0.46504 0.79935 0.0
H509 H 0.94175 0.56951 0.74851 0.0
H510 H 0.98858 0.46507 0.7746 0.0
C511 C 0.82516 0.50154 0.80508 0.0
C512 C 0.21963 0.60517 0.02937 0.0
C513 C 0.28809 0.56987 0.03556 0.0
H514 H 0.12188 0.66287 0.04245 0.0
C515 C 0.30587 0.56141 0.06125 0.0
H516 H 0.20427 0.61539 0.00991 0.0
C517 C 0.25816 0.59021 0.08 0.0
C518 C 0.19096 0.62683 0.07355 0.0
H519 H 0.35722 0.53408 0.06689 0.0
H520 H 0.27562 0.58742 0.09957 0.0
C521 C 0.17136 0.63203 0.04808 0.0
C522 C 0.2295 0.57036 0.80425 0.0
C523 C 0.22104 0.55331 0.77848 0.0
H524 H 0.20479 0.54004 0.84269 0.0
C525 C 0.18415 0.48723 0.77242 0.0
H526 H 0.25725 0.62012 0.80992 0.0
C527 C 0.15869 0.43936 0.79112 0.0
C528 C 0.16582 0.45709 0.81668 0.0
H529 H 0.17253 0.4728 0.75301 0.0
H530 H 0.12818 0.39114 0.78548 0.0
C531 C 0.20115 0.52341 0.82308 0.0
C532 C 0.31787 0.44239 0.51309 0.0
C533 C 0.24102 0.45607 0.517 0.0
H534 H 0.42304 0.40992 0.52901 0.0
C535 C 0.21418 0.45228 0.54189 0.0
H536 H 0.34124 0.44254 0.49424 0.0
C537 C 0.26187 0.43258 0.56189 0.0
C538 C 0.33799 0.41684 0.55771 0.0
H539 H 0.15617 0.46347 0.54595 0.0
H540 H 0.23836 0.42601 0.58059 0.0
C541 C 0.36567 0.42431 0.53314 0.0
C542 C 0.29453 0.55072 0.29332 0.0
C543 C 0.31891 0.47827 0.28796 0.0
H544 H 0.32333 0.65642 0.30769 0.0
C545 C 0.38803 0.45274 0.29703 0.0
H546 H 0.24099 0.57109 0.28674 0.0
C547 C 0.43515 0.50158 0.3092 0.0
C548 C 0.41345 0.57609 0.31198 0.0
H549 H 0.40785 0.397 0.29296 0.0
H550 H 0.49013 0.48256 0.31475 0.0
C551 C 0.34175 0.59947 0.30503 0.0
C552 C 0.30293 0.40677 0.94022 0.0
C553 C 0.30663 0.48046 0.94824 0.0
H554 H 0.24193 0.32678 0.91952 0.0
C555 C 0.25475 0.53259 0.93868 0.0
H556 H 0.34118 0.36526 0.94771 0.0
C557 C 0.19672 0.51057 0.92309 0.0
C558 C 0.18931 0.4358 0.91663 0.0
H559 H 0.25586 0.58965 0.94491 0.0
H560 H 0.15562 0.55159 0.9172 0.0
C561 C 0.24512 0.38473 0.92442 0.0
C562 C 0.38298 0.5582 0.68046 0.0
C563 C 0.31164 0.55877 0.69088 0.0
H564 H 0.46289 0.49988 0.65779 0.0
C565 C 0.26188 0.50399 0.68329 0.0
H566 H 0.42265 0.59901 0.68619 0.0
C567 C 0.28505 0.44599 0.66742 0.0
C568 C 0.35842 0.4418 0.65867 0.0
H569 H 0.20639 0.50323 0.69114 0.0
H570 H 0.24663 0.40264 0.6631 0.0
C571 C 0.40609 0.50046 0.66446 0.0
C572 C 0.22622 0.65185 0.43889 0.0
C573 C 0.21647 0.57667 0.43393 0.0
H574 H 0.29457 0.7452 0.43297 0.0
C575 C 0.25819 0.54143 0.41485 0.0
H576 H 0.19487 0.67942 0.45378 0.0
C577 C 0.31497 0.57924 0.40277 0.0
C578 C 0.33067 0.65168 0.41019 0.0
H579 H 0.25187 0.48299 0.41115 0.0
H580 H 0.35122 0.54953 0.38975 0.0
C581 C 0.28338 0.68911 0.42717 0.0
C582 C 0.1418 0.4871 0.19478 0.0
C583 C 0.21552 0.47561 0.20247 0.0
H584 H 0.06446 0.55651 0.17466 0.0
C585 C 0.27008 0.52198 0.19235 0.0
H586 H 0.0984 0.45305 0.20236 0.0
C587 C 0.2505 0.58318 0.17731 0.0
C588 C 0.17589 0.59887 0.17155 0.0
H589 H 0.32755 0.51444 0.19788 0.0
H590 H 0.29348 0.62014 0.17126 0.0
C591 C 0.12234 0.54761 0.17931 0.0
loop_
_geom_bond_atom_site_label_1
_geom_bond_atom_site_label_2
_geom_bond_distance
_geom_bond_site_symmetry_2
_ccdc_geom_bond_type
H0 C6 0.930 . S
H1 C9 0.931 . S
H2 C11 0.931 . S
H3 C13 0.930 . S
H4 C15 0.930 . S
H5 C17 0.931 . S
C6 H0 0.930 . S
C6 C7 1.380 1_545 S
C6 C8 1.394 . S
C7 C6 1.380 1_565 S
C7 C11 1.382 . S
C8 C6 1.394 . S
C8 C9 1.400 . S
C9 H1 0.931 . S
C9 C8 1.400 . S
C9 C10 1.375 . S
C10 C9 1.375 . S
C10 C11 1.415 1_545 S
C10 C12 1.501 1_655 S
C11 H2 0.931 . S
C11 C7 1.382 . S
C11 C10 1.415 1_565 S
C12 C10 1.501 1_455 S
C12 C13 1.384 1_545 S
C12 C17 1.408 . S
C13 H3 0.930 . S
C13 C12 1.384 1_565 S
C13 C14 1.389 . S
C14 C13 1.389 . S
C14 C15 1.405 1_565 S
C15 H4 0.930 . S
C15 C14 1.405 1_545 S
C15 C16 1.364 . S
C16 C15 1.364 . S
C16 C17 1.400 . S
C17 H5 0.931 . S
C17 C12 1.408 . S
C17 C16 1.400 . S
H18 C24 0.930 . S
H19 C27 0.931 . S
H20 C29 0.931 . S
H21 C31 0.930 . S
H22 C33 0.930 . S
H23 C35 0.931 . S
C24 H18 0.930 . S
C24 C25 1.380 . S
C24 C26 1.394 . S
C25 C24 1.380 . S
C25 C29 1.382 . S
C26 C24 1.394 . S
C26 C27 1.400 . S
C27 H19 0.931 . S
C27 C26 1.400 . S
C27 C28 1.375 . S
C28 C27 1.375 . S
C28 C29 1.415 . S
C28 C30 1.501 . S
C29 H20 0.931 . S
C29 C25 1.382 . S
C29 C28 1.415 . S
C30 C28 1.501 . S
C30 C31 1.384 . S
C30 C35 1.408 . S
C31 H21 0.930 . S
C31 C30 1.384 . S
C31 C32 1.389 . S
C32 C31 1.389 . S
C32 C33 1.405 . S
C33 H22 0.930 . S
C33 C32 1.405 . S
C33 C34 1.364 . S
C34 C33 1.364 . S
C34 C35 1.400 . S
C35 H23 0.931 . S
C35 C30 1.408 . S
C35 C34 1.400 . S
H36 C42 0.929 1_565 S
H37 C45 0.931 . S
H38 C47 0.931 . S
H39 C49 0.930 . S
H40 C51 0.930 . S
H41 C53 0.931 . S
C42 H36 0.929 1_545 S
C42 C43 1.381 1_554 S
C42 C44 1.394 1_545 S
C43 C42 1.381 1_556 S
C43 C47 1.382 . S
C44 C42 1.394 1_565 S
C44 C45 1.400 . S
C45 H37 0.931 . S
C45 C44 1.400 . S
C45 C46 1.375 1_565 S
C46 C45 1.375 1_545 S
C46 C47 1.415 1_554 S
C46 C48 1.501 . S
C47 H38 0.931 . S
C47 C43 1.382 . S
C47 C46 1.415 1_556 S
C48 C46 1.501 . S
C48 C49 1.384 1_554 S
C48 C53 1.408 1_545 S
C49 H39 0.930 . S
C49 C48 1.384 1_556 S
C49 C50 1.389 . S
C50 C49 1.389 . S
C50 C51 1.405 1_556 S
C51 H40 0.930 . S
C51 C50 1.405 1_554 S
C51 C52 1.364 1_545 S
C52 C51 1.364 1_565 S
C52 C53 1.400 . S
C53 H41 0.931 . S
C53 C48 1.408 1_565 S
C53 C52 1.400 . S
H54 C60 0.930 . S
H55 C63 0.931 . S
H56 C65 0.931 . S
H57 C67 0.930 . S
H58 C69 0.930 . S
H59 C71 0.931 . S
C60 H54 0.930 . S
C60 C61 1.380 . S
C60 C62 1.394 . S
C61 C60 1.380 . S
C61 C65 1.382 . S
C62 C60 1.394 . S
C62 C63 1.400 . S
C63 H55 0.931 . S
C63 C62 1.400 . S
C63 C64 1.375 . S
C64 C63 1.375 . S
C64 C65 1.415 . S
C64 C66 1.501 . S
C65 H56 0.931 . S
C65 C61 1.382 . S
C65 C64 1.415 . S
C66 C64 1.501 . S
C66 C67 1.384 . S
C66 C71 1.408 . S
C67 H57 0.930 . S
C67 C66 1.384 . S
C67 C68 1.389 . S
C68 C67 1.389 . S
C68 C69 1.405 . S
C69 H58 0.930 . S
C69 C68 1.405 . S
C69 C70 1.364 . S
C70 C69 1.364 . S
C70 C71 1.400 . S
C71 H59 0.931 . S
C71 C66 1.408 . S
C71 C70 1.400 . S
H72 C78 0.930 . S
H73 C81 0.931 . S
H74 C83 0.931 . S
H75 C85 0.930 . S
H76 C87 0.930 . S
H77 C89 0.931 . S
C78 H72 0.930 . S
C78 C79 1.380 . S
C78 C80 1.394 . S
C79 C78 1.380 . S
C79 C83 1.382 . S
C80 C78 1.394 . S
C80 C81 1.400 . S
C81 H73 0.931 . S
C81 C80 1.400 . S
C81 C82 1.375 . S
C82 C81 1.375 . S
C82 C83 1.415 . S
C82 C84 1.501 . S
C83 H74 0.931 . S
C83 C79 1.382 . S
C83 C82 1.415 . S
C84 C82 1.501 . S
C84 C85 1.384 . S
C84 C89 1.408 . S
C85 H75 0.930 . S
C85 C84 1.384 . S
C85 C86 1.389 . S
C86 C85 1.389 . S
C86 C87 1.405 . S
C87 H76 0.930 . S
C87 C86 1.405 . S
C87 C88 1.364 . S
C88 C87 1.364 . S
C88 C89 1.400 . S
C89 H77 0.931 . S
C89 C84 1.408 . S
C89 C88 1.400 . S
H90 C96 0.930 . S
H91 C99 0.931 . S
H92 C101 0.931 . S
H93 C103 0.930 . S
H94 C105 0.930 . S
H95 C107 0.931 . S
C96 H90 0.930 . S
C96 C97 1.380 . S
C96 C98 1.394 . S
C97 C96 1.380 . S
C97 C101 1.382 . S
C98 C96 1.394 . S
C98 C99 1.400 . S
C99 H91 0.931 . S
C99 C98 1.400 . S
C99 C100 1.375 . S
C100 C99 1.375 . S
C100 C101 1.415 . S
C100 C102 1.501 . S
C101 H92 0.931 . S
C101 C97 1.382 . S
C101 C100 1.415 . S
C102 C100 1.501 . S
C102 C103 1.384 . S
C102 C107 1.408 . S
C103 H93 0.930 . S
C103 C102 1.384 . S
C103 C104 1.389 . S
C104 C103 1.389 . S
C104 C105 1.405 . S
C105 H94 0.930 . S
C105 C104 1.405 . S
C105 C106 1.364 . S
C106 C105 1.364 . S
C106 C107 1.400 . S
C107 H95 0.931 . S
C107 C102 1.408 . S
C107 C106 1.400 . S
H108 C114 0.930 . S
H109 C117 0.931 . S
H110 C119 0.931 . S
H111 C121 0.930 . S
H112 C123 0.930 . S
H113 C125 0.931 . S
C114 H108 0.930 . S
C114 C115 1.380 . S
C114 C116 1.394 1_554 S
C115 C114 1.380 . S
C115 C119 1.382 . S
C116 C114 1.394 1_556 S
C116 C117 1.400 . S
C117 H109 0.931 . S
C117 C116 1.400 . S
C117 C118 1.375 1_556 S
C118 C117 1.375 1_554 S
C118 C119 1.415 . S
C118 C120 1.501 . S
C119 H110 0.931 . S
C119 C115 1.382 . S
C119 C118 1.415 . S
C120 C118 1.501 . S
C120 C121 1.384 . S
C120 C125 1.408 1_554 S
C121 H111 0.930 . S
C121 C120 1.384 . S
C121 C122 1.389 . S
C122 C121 1.389 . S
C122 C123 1.405 . S
C123 H112 0.930 . S
C123 C122 1.405 . S
C123 C124 1.364 1_554 S
C124 C123 1.364 1_556 S
C124 C125 1.400 . S
C125 H113 0.931 . S
C125 C120 1.408 1_556 S
C125 C124 1.400 . S
H126 C132 0.930 . S
H127 C135 0.931 . S
H128 C137 0.931 . S
H129 C139 0.930 . S
H130 C141 0.930 . S
H131 C143 0.931 . S
C132 H126 0.930 . S
C132 C133 1.380 . S
C132 C134 1.394 . S
C133 C132 1.380 . S
C133 C137 1.382 . S
C134 C132 1.394 . S
C134 C135 1.400 . S
C135 H127 0.931 . S
C135 C134 1.400 . S
C135 C136 1.375 . S
C136 C135 1.375 . S
C136 C137 1.415 . S
C136 C138 1.501 1_455 S
C137 H128 0.931 . S
C137 C133 1.382 . S
C137 C136 1.415 . S
C138 C136 1.501 1_655 S
C138 C139 1.384 . S
C138 C143 1.408 . S
C139 H129 0.930 . S
C139 C138 1.384 . S
C139 C140 1.389 . S
C140 C139 1.389 . S
C140 C141 1.405 . S
C141 H130 0.930 . S
C141 C140 1.405 . S
C141 C142 1.364 . S
C142 C141 1.364 . S
C142 C143 1.400 . S
C143 H131 0.931 . S
C143 C138 1.408 . S
C143 C142 1.400 . S
Fe144 O145 1.886 . S
Fe144 O148 1.715 1_455 S
Fe144 O153 2.077 . S
Fe144 O158 1.935 1_455 S
Fe144 O164 2.077 . S
Fe144 O173 1.935 1_455 S
O145 Fe144 1.886 . S
O145 Fe147 1.715 . S
Fe146 O148 1.886 . S
Fe146 O149 1.715 . S
Fe146 O156 1.935 . S
Fe146 O157 2.077 . S
Fe146 O163 1.935 . S
Fe146 O172 2.077 . S
Fe147 O145 1.715 . S
Fe147 O150 1.886 . S
Fe147 O154 1.935 . S
Fe147 O159 2.077 . S
Fe147 O165 1.935 . S
Fe147 O169 2.077 . S
O148 Fe144 1.715 1_655 S
O148 Fe146 1.886 . S
O149 Fe146 1.715 . S
O149 Fe151 1.886 . S
O150 Fe147 1.886 . S
O150 Fe151 1.715 1_455 S
Fe151 O149 1.886 . S
Fe151 O150 1.715 1_655 S
Fe151 O155 2.077 . S
Fe151 O160 1.935 1_655 S
Fe151 O162 2.077 . S
Fe151 O170 1.935 1_655 S
C152 O164 1.381 . S
C152 O165 1.421 . S
O153 Fe144 2.077 . S
O153 C166 1.381 . S
O154 Fe147 1.935 . S
O154 C166 1.421 . S
O155 Fe151 2.077 . S
O155 C171 1.381 . S
O156 Fe146 1.935 . S
O156 C171 1.421 . S
O157 Fe146 2.077 . S
O157 C161 1.381 . S
O158 Fe144 1.935 1_655 S
O158 C161 1.421 . S
O159 Fe147 2.077 . S
O159 C167 1.381 . S
O160 Fe151 1.935 1_455 S
O160 C167 1.421 . S
C161 O157 1.381 . S
C161 O158 1.421 . S
O162 Fe151 2.077 . S
O162 C174 1.381 . S
O163 Fe146 1.935 . S
O163 C174 1.421 . S
O164 Fe144 2.077 . S
O164 C152 1.381 . S
O165 Fe147 1.935 . S
O165 C152 1.421 . S
C166 O153 1.381 . S
C166 O154 1.421 . S
C167 O159 1.381 . S
C167 O160 1.421 . S
C168 O169 1.381 . S
C168 O170 1.421 . S
O169 Fe147 2.077 . S
O169 C168 1.381 . S
O170 Fe151 1.935 1_455 S
O170 C168 1.421 . S
C171 O155 1.381 . S
C171 O156 1.421 . S
O172 Fe146 2.077 . S
O172 C175 1.381 . S
O173 Fe144 1.935 1_655 S
O173 C175 1.421 . S
C174 O162 1.381 . S
C174 O163 1.421 . S
C175 O172 1.381 . S
C175 O173 1.421 . S
Fe176 O177 1.886 . S
Fe176 O180 1.715 . S
Fe176 O185 2.077 . S
Fe176 O190 1.935 . S
Fe176 O196 2.077 . S
Fe176 O205 1.935 . S
O177 Fe176 1.886 . S
O177 Fe179 1.715 . S
Fe178 O180 1.886 . S
Fe178 O181 1.715 . S
Fe178 O188 1.935 . S
Fe178 O189 2.077 . S
Fe178 O195 1.935 . S
Fe178 O204 2.077 . S
Fe179 O177 1.715 . S
Fe179 O182 1.886 . S
Fe179 O186 1.935 . S
Fe179 O191 2.077 . S
Fe179 O197 1.935 . S
Fe179 O201 2.077 . S
O180 Fe176 1.715 . S
O180 Fe178 1.886 . S
O181 Fe178 1.715 . S
O181 Fe183 1.886 . S
O182 Fe179 1.886 . S
O182 Fe183 1.715 . S
Fe183 O181 1.886 . S
Fe183 O182 1.715 . S
Fe183 O187 2.077 . S
Fe183 O192 1.935 . S
Fe183 O194 2.077 . S
Fe183 O202 1.935 . S
C184 O196 1.381 . S
C184 O197 1.421 . S
O185 Fe176 2.077 . S
O185 C198 1.381 . S
O186 Fe179 1.935 . S
O186 C198 1.421 . S
O187 Fe183 2.077 . S
O187 C203 1.381 . S
O188 Fe178 1.935 . S
O188 C203 1.421 . S
O189 Fe178 2.077 . S
O189 C193 1.381 . S
O190 Fe176 1.935 . S
O190 C193 1.421 . S
O191 Fe179 2.077 . S
O191 C199 1.381 . S
O192 Fe183 1.935 . S
O192 C199 1.421 . S
C193 O189 1.381 . S
C193 O190 1.421 . S
O194 Fe183 2.077 . S
O194 C206 1.381 . S
O195 Fe178 1.935 . S
O195 C206 1.421 . S
O196 Fe176 2.077 . S
O196 C184 1.381 . S
O197 Fe179 1.935 . S
O197 C184 1.421 . S
C198 O185 1.381 . S
C198 O186 1.421 . S
C199 O191 1.381 . S
C199 O192 1.421 . S
C200 O201 1.381 . S
C200 O202 1.421 . S
O201 Fe179 2.077 . S
O201 C200 1.381 . S
O202 Fe183 1.935 . S
O202 C200 1.421 . S
C203 O187 1.381 . S
C203 O188 1.421 . S
O204 Fe178 2.077 . S
O204 C207 1.381 . S
O205 Fe176 1.935 . S
O205 C207 1.421 . S
C206 O194 1.381 . S
C206 O195 1.421 . S
C207 O204 1.381 . S
C207 O205 1.421 . S
Fe208 O209 1.886 . S
Fe208 O212 1.715 . S
Fe208 O217 2.077 . S
Fe208 O222 1.935 . S
Fe208 O228 2.077 . S
Fe208 O237 1.935 . S
O209 Fe208 1.886 . S
O209 Fe211 1.715 . S
Fe210 O212 1.886 . S
Fe210 O213 1.715 . S
Fe210 O220 1.935 . S
Fe210 O221 2.077 . S
Fe210 O227 1.935 . S
Fe210 O236 2.077 . S
Fe211 O209 1.715 . S
Fe211 O214 1.886 . S
Fe211 O218 1.935 . S
Fe211 O223 2.077 . S
Fe211 O229 1.935 . S
Fe211 O233 2.077 . S
O212 Fe208 1.715 . S
O212 Fe210 1.886 . S
O213 Fe210 1.715 . S
O213 Fe215 1.886 . S
O214 Fe211 1.886 . S
O214 Fe215 1.715 . S
Fe215 O213 1.886 . S
Fe215 O214 1.715 . S
Fe215 O219 2.077 . S
Fe215 O224 1.935 . S
Fe215 O226 2.077 . S
Fe215 O234 1.935 . S
C216 O228 1.381 . S
C216 O229 1.421 . S
O217 Fe208 2.077 . S
O217 C230 1.381 . S
O218 Fe211 1.935 . S
O218 C230 1.421 . S
O219 Fe215 2.077 . S
O219 C235 1.381 . S
O220 Fe210 1.935 . S
O220 C235 1.421 . S
O221 Fe210 2.077 . S
O221 C225 1.381 . S
O222 Fe208 1.935 . S
O222 C225 1.421 . S
O223 Fe211 2.077 . S
O223 C231 1.381 . S
O224 Fe215 1.935 . S
O224 C231 1.421 . S
C225 O221 1.381 . S
C225 O222 1.421 . S
O226 Fe215 2.077 . S
O226 C238 1.381 . S
O227 Fe210 1.935 . S
O227 C238 1.421 . S
O228 Fe208 2.077 . S
O228 C216 1.381 . S
O229 Fe211 1.935 . S
O229 C216 1.421 . S
C230 O217 1.381 . S
C230 O218 1.421 . S
C231 O223 1.381 . S
C231 O224 1.421 . S
C232 O233 1.381 . S
C232 O234 1.421 . S
O233 Fe211 2.077 . S
O233 C232 1.381 . S
O234 Fe215 1.935 . S
O234 C232 1.421 . S
C235 O219 1.381 . S
C235 O220 1.421 . S
O236 Fe210 2.077 . S
O236 C239 1.381 . S
O237 Fe208 1.935 . S
O237 C239 1.421 . S
C238 O226 1.381 . S
C238 O227 1.421 . S
C239 O236 1.381 . S
C239 O237 1.421 . S
Fe240 O241 1.886 . S
Fe240 O244 1.715 . S
Fe240 O249 2.077 1_455 S
Fe240 O254 1.935 1_455 S
Fe240 O260 2.077 . S
Fe240 O269 1.935 . S
O241 Fe240 1.886 . S
O241 Fe243 1.715 . S
Fe242 O244 1.886 . S
Fe242 O245 1.715 . S
Fe242 O252 1.934 1_455 S
Fe242 O253 2.076 1_455 S
Fe242 O259 1.936 . S
Fe242 O268 2.078 . S
Fe243 O241 1.715 . S
Fe243 O246 1.886 . S
Fe243 O250 1.936 1_455 S
Fe243 O255 2.078 1_455 S
Fe243 O261 1.934 . S
Fe243 O265 2.076 . S
O244 Fe240 1.715 . S
O244 Fe242 1.886 . S
O245 Fe242 1.715 . S
O245 Fe247 1.886 . S
O246 Fe243 1.886 . S
O246 Fe247 1.715 . S
Fe247 O245 1.886 . S
Fe247 O246 1.715 . S
Fe247 O251 2.077 1_455 S
Fe247 O256 1.935 1_455 S
Fe247 O258 2.077 . S
Fe247 O266 1.935 . S
C248 O260 1.381 . S
C248 O261 1.421 . S
O249 Fe240 2.077 1_655 S
O249 C262 1.381 . S
O250 Fe243 1.936 1_655 S
O250 C262 1.421 . S
O251 Fe247 2.077 1_655 S
O251 C267 1.381 . S
O252 Fe242 1.934 1_655 S
O252 C267 1.421 . S
O253 Fe242 2.076 1_655 S
O253 C257 1.381 . S
O254 Fe240 1.935 1_655 S
O254 C257 1.421 . S
O255 Fe243 2.078 1_655 S
O255 C263 1.381 . S
O256 Fe247 1.935 1_655 S
O256 C263 1.421 . S
C257 O253 1.381 . S
C257 O254 1.421 . S
O258 Fe247 2.077 . S
O258 C270 1.381 . S
O259 Fe242 1.936 . S
O259 C270 1.421 . S
O260 Fe240 2.077 . S
O260 C248 1.381 . S
O261 Fe243 1.934 . S
O261 C248 1.421 . S
C262 O249 1.381 . S
C262 O250 1.421 . S
C263 O255 1.381 . S
C263 O256 1.421 . S
C264 O265 1.381 . S
C264 O266 1.421 . S
O265 Fe243 2.076 . S
O265 C264 1.381 . S
O266 Fe247 1.935 . S
O266 C264 1.421 . S
C267 O251 1.381 . S
C267 O252 1.421 . S
O268 Fe242 2.078 . S
O268 C271 1.381 . S
O269 Fe240 1.935 . S
O269 C271 1.421 . S
C270 O258 1.381 . S
C270 O259 1.421 . S
C271 O268 1.381 . S
C271 O269 1.421 . S
C272 C273 1.387 . S
C272 H276 0.950 1_565 S
C272 C281 1.390 . S
C273 C272 1.387 . S
C273 C275 1.387 . S
H274 C281 0.950 . S
C275 C273 1.387 . S
C275 C277 1.390 . S
C275 H279 0.950 . S
H276 C272 0.950 1_545 S
C277 C275 1.390 . S
C277 C278 1.387 . S
C277 H280 0.950 . S
C278 C277 1.387 . S
C278 C281 1.387 . S
H279 C275 0.950 . S
H280 C277 0.950 . S
C281 C272 1.390 . S
C281 H274 0.950 . S
C281 C278 1.387 . S
C282 C283 1.387 1_545 S
C282 H286 0.950 . S
C282 C291 1.390 . S
C283 C282 1.387 1_565 S
C283 C285 1.387 . S
H284 C291 0.950 . S
C285 C283 1.387 . S
C285 C287 1.390 1_565 S
C285 H289 0.950 . S
H286 C282 0.950 . S
C287 C285 1.390 1_545 S
C287 C288 1.387 . S
C287 H290 0.950 . S
C288 C287 1.387 . S
C288 C291 1.387 . S
H289 C285 0.950 . S
H290 C287 0.950 . S
C291 C282 1.390 . S
C291 H284 0.950 . S
C291 C288 1.387 . S
C292 C293 1.387 . S
C292 H296 0.950 . S
C292 C301 1.390 . S
C293 C292 1.387 . S
C293 C295 1.387 . S
H294 C301 0.950 . S
C295 C293 1.387 . S
C295 C297 1.390 . S
C295 H299 0.950 1_545 S
H296 C292 0.950 . S
C297 C295 1.390 . S
C297 C298 1.387 . S
C297 H300 0.950 . S
C298 C297 1.387 . S
C298 C301 1.387 . S
H299 C295 0.950 1_565 S
H300 C297 0.950 . S
C301 C292 1.390 . S
C301 H294 0.950 . S
C301 C298 1.387 . S
C302 C303 1.387 . S
C302 H306 0.950 . S
C302 C311 1.390 1_545 S
C303 C302 1.387 . S
C303 C305 1.387 . S
H304 C311 0.950 . S
C305 C303 1.387 . S
C305 C307 1.390 1_545 S
C305 H309 0.950 . S
H306 C302 0.950 . S
C307 C305 1.390 1_565 S
C307 C308 1.387 . S
C307 H310 0.950 . S
C308 C307 1.387 . S
C308 C311 1.387 . S
H309 C305 0.950 . S
H310 C307 0.950 . S
C311 C302 1.390 1_565 S
C311 H304 0.950 . S
C311 C308 1.387 . S
C312 C313 1.387 . S
C312 H316 0.950 1_545 S
C312 C321 1.390 . S
C313 C312 1.387 . S
C313 C315 1.387 . S
H314 C321 0.950 . S
C315 C313 1.387 . S
C315 C317 1.390 . S
C315 H319 0.950 . S
H316 C312 0.950 1_565 S
C317 C315 1.390 . S
C317 C318 1.387 . S
C317 H320 0.950 . S
C318 C317 1.387 . S
C318 C321 1.387 . S
H319 C315 0.950 . S
H320 C317 0.950 . S
C321 C312 1.390 . S
C321 H314 0.950 . S
C321 C318 1.387 . S
C322 C323 1.387 . S
C322 H326 0.950 . S
C322 C331 1.390 1_565 S
C323 C322 1.387 . S
C323 C325 1.387 1_565 S
H324 C331 0.950 . S
C325 C323 1.387 1_545 S
C325 C327 1.390 . S
C325 H329 0.950 1_545 S
H326 C322 0.950 . S
C327 C325 1.390 . S
C327 C328 1.387 . S
C327 H330 0.950 . S
C328 C327 1.387 . S
C328 C331 1.387 . S
H329 C325 0.950 1_565 S
H330 C327 0.950 . S
C331 C322 1.390 1_545 S
C331 H324 0.950 . S
C331 C328 1.387 . S
C332 C333 1.387 . S
C332 H336 0.950 1_565 S
C332 C341 1.390 . S
C333 C332 1.387 . S
C333 C335 1.387 . S
H334 C341 0.950 1_545 S
C335 C333 1.387 . S
C335 C337 1.390 . S
C335 H339 0.950 . S
H336 C332 0.950 1_545 S
C337 C335 1.390 . S
C337 C338 1.387 . S
C337 H340 0.950 . S
C338 C337 1.387 . S
C338 C341 1.387 . S
H339 C335 0.950 . S
H340 C337 0.950 . S
C341 C332 1.390 . S
C341 H334 0.950 1_565 S
C341 C338 1.387 . S
C342 C343 1.387 . S
C342 H346 0.950 . S
C342 C351 1.390 1_545 S
C343 C342 1.387 . S
C343 C345 1.387 1_545 S
H344 C351 0.950 . S
C345 C343 1.387 1_565 S
C345 C347 1.390 . S
C345 H349 0.950 . S
H346 C342 0.950 . S
C347 C345 1.390 . S
C347 C348 1.387 . S
C347 H350 0.950 . S
C348 C347 1.387 . S
C348 C351 1.387 . S
H349 C345 0.950 . S
H350 C347 0.950 . S
C351 C342 1.390 1_565 S
C351 H344 0.950 . S
C351 C348 1.387 . S
C352 C353 1.387 . S
C352 H356 0.950 1_545 S
C352 C361 1.390 . S
C353 C352 1.387 . S
C353 C355 1.387 . S
H354 C361 0.950 . S
C355 C353 1.387 . S
C355 C357 1.390 . S
C355 H359 0.950 . S
H356 C352 0.950 1_565 S
C357 C355 1.390 . S
C357 C358 1.387 . S
C357 H360 0.950 . S
C358 C357 1.387 . S
C358 C361 1.387 . S
H359 C355 0.950 . S
H360 C357 0.950 . S
C361 C352 1.390 . S
C361 H354 0.950 . S
C361 C358 1.387 . S
C362 C363 1.387 . S
C362 H366 0.950 . S
C362 C371 1.390 1_545 S
C363 C362 1.387 . S
C363 C365 1.387 1_545 S
H364 C371 0.950 1_545 S
C365 C363 1.387 1_565 S
C365 C367 1.390 . S
C365 H369 0.950 . S
H366 C362 0.950 . S
C367 C365 1.390 . S
C367 C368 1.387 . S
C367 H370 0.950 . S
C368 C367 1.387 . S
C368 C371 1.387 . S
H369 C365 0.950 . S
H370 C367 0.950 . S
C371 C362 1.390 1_565 S
C371 H364 0.950 1_565 S
C371 C368 1.387 . S
C372 C373 1.387 . S
C372 H376 0.950 1_565 S
C372 C381 1.390 . S
C373 C372 1.387 . S
C373 C375 1.387 . S
H374 C381 0.950 1_545 S
C375 C373 1.387 . S
C375 C377 1.390 . S
C375 H379 0.950 . S
H376 C372 0.950 1_545 S
C377 C375 1.390 . S
C377 C378 1.387 . S
C377 H380 0.950 . S
C378 C377 1.387 . S
C378 C381 1.387 . S
H379 C375 0.950 . S
H380 C377 0.950 . S
C381 C372 1.390 . S
C381 H374 0.950 1_565 S
C381 C378 1.387 . S
C382 C383 1.387 1_545 S
C382 H386 0.950 . S
C382 C391 1.390 . S
C383 C382 1.387 1_565 S
C383 C385 1.387 . S
H384 C391 0.950 . S
C385 C383 1.387 . S
C385 C387 1.390 1_565 S
C385 H389 0.950 . S
H386 C382 0.950 . S
C387 C385 1.390 1_545 S
C387 C388 1.387 . S
C387 H390 0.950 . S
C388 C387 1.387 . S
C388 C391 1.387 . S
H389 C385 0.950 . S
H390 C387 0.950 . S
C391 C382 1.390 . S
C391 H384 0.950 . S
C391 C388 1.387 . S
C392 C393 1.387 . S
C392 H396 0.950 . S
C392 C401 1.390 . S
C393 C392 1.387 . S
C393 C395 1.387 . S
H394 C401 0.950 . S
C395 C393 1.387 . S
C395 C397 1.390 . S
C395 H399 0.950 1_565 S
H396 C392 0.950 . S
C397 C395 1.390 . S
C397 C398 1.387 . S
C397 H400 0.950 . S
C398 C397 1.387 . S
C398 C401 1.387 . S
H399 C395 0.950 1_545 S
H400 C397 0.950 . S
C401 C392 1.390 . S
C401 H394 0.950 . S
C401 C398 1.387 . S
C402 C403 1.387 1_565 S
C402 H406 0.950 . S
C402 C411 1.390 . S
C403 C402 1.387 1_545 S
C403 C405 1.387 . S
H404 C411 0.950 . S
C405 C403 1.387 . S
C405 C407 1.390 1_545 S
C405 H409 0.950 . S
H406 C402 0.950 . S
C407 C405 1.390 1_565 S
C407 C408 1.387 . S
C407 H410 0.950 . S
C408 C407 1.387 . S
C408 C411 1.387 . S
H409 C405 0.950 . S
H410 C407 0.950 . S
C411 C402 1.390 . S
C411 H404 0.950 . S
C411 C408 1.387 . S
C412 C413 1.387 . S
C412 H416 0.950 1_545 S
C412 C421 1.390 . S
C413 C412 1.387 . S
C413 C415 1.387 . S
H414 C421 0.950 . S
C415 C413 1.387 . S
C415 C417 1.390 . S
C415 H419 0.950 . S
H416 C412 0.950 1_565 S
C417 C415 1.390 . S
C417 C418 1.387 . S
C417 H420 0.950 . S
C418 C417 1.387 . S
C418 C421 1.387 . S
H419 C415 0.950 . S
H420 C417 0.950 . S
C421 C412 1.390 . S
C421 H414 0.950 . S
C421 C418 1.387 . S
C422 C423 1.387 . S
C422 H426 0.950 . S
C422 C431 1.390 1_565 S
C423 C422 1.387 . S
C423 C425 1.387 1_565 S
H424 C431 0.950 . S
C425 C423 1.387 1_545 S
C425 C427 1.390 . S
C425 H429 0.951 . S
H426 C422 0.950 . S
C427 C425 1.390 . S
C427 C428 1.387 . S
C427 H430 0.950 . S
C428 C427 1.387 . S
C428 C431 1.387 . S
H429 C425 0.951 . S
H430 C427 0.950 . S
C431 C422 1.390 1_545 S
C431 H424 0.950 . S
C431 C428 1.387 . S
C432 C433 1.387 . S
C432 H436 0.950 . S
C432 C441 1.390 . S
C433 C432 1.387 . S
C433 C435 1.387 . S
H434 C441 0.950 . S
C435 C433 1.387 . S
C435 C437 1.390 . S
C435 H439 0.950 . S
H436 C432 0.950 . S
C437 C435 1.390 . S
C437 C438 1.387 . S
C437 H440 0.950 . S
C438 C437 1.387 . S
C438 C441 1.387 . S
H439 C435 0.950 . S
H440 C437 0.950 . S
C441 C432 1.390 . S
C441 H434 0.950 . S
C441 C438 1.387 . S
C442 C443 1.387 . S
C442 H446 0.950 . S
C442 C451 1.390 . S
C443 C442 1.387 . S
C443 C445 1.387 . S
H444 C451 0.950 . S
C445 C443 1.387 . S
C445 C447 1.390 . S
C445 H449 0.950 . S
H446 C442 0.950 . S
C447 C445 1.390 . S
C447 C448 1.387 . S
C447 H450 0.950 . S
C448 C447 1.387 . S
C448 C451 1.387 . S
H449 C445 0.950 . S
H450 C447 0.950 . S
C451 C442 1.390 . S
C451 H444 0.950 . S
C451 C448 1.387 . S
C452 C453 1.387 . S
C452 H456 0.950 . S
C452 C461 1.390 . S
C453 C452 1.387 . S
C453 C455 1.387 . S
H454 C461 0.950 . S
C455 C453 1.387 . S
C455 C457 1.390 . S
C455 H459 0.950 . S
H456 C452 0.950 . S
C457 C455 1.390 . S
C457 C458 1.387 . S
C457 H460 0.950 . S
C458 C457 1.387 . S
C458 C461 1.387 . S
H459 C455 0.950 . S
H460 C457 0.950 . S
C461 C452 1.390 . S
C461 H454 0.950 . S
C461 C458 1.387 . S
C462 C463 1.387 . S
C462 H466 0.950 . S
C462 C471 1.390 . S
C463 C462 1.387 . S
C463 C465 1.387 . S
H464 C471 0.950 . S
C465 C463 1.387 . S
C465 C467 1.390 . S
C465 H469 0.950 . S
H466 C462 0.950 . S
C467 C465 1.390 . S
C467 C468 1.387 . S
C467 H470 0.950 . S
C468 C467 1.387 . S
C468 C471 1.387 . S
H469 C465 0.950 . S
H470 C467 0.950 . S
C471 C462 1.390 . S
C471 H464 0.950 . S
C471 C468 1.387 . S
C472 C473 1.387 . S
C472 H476 0.950 . S
C472 C481 1.390 . S
C473 C472 1.387 . S
C473 C475 1.387 . S
H474 C481 0.950 . S
C475 C473 1.387 . S
C475 C477 1.390 . S
C475 H479 0.950 . S
H476 C472 0.950 . S
C477 C475 1.390 . S
C477 C478 1.387 . S
C477 H480 0.950 . S
C478 C477 1.387 . S
C478 C481 1.387 . S
H479 C475 0.950 . S
H480 C477 0.950 . S
C481 C472 1.390 . S
C481 H474 0.950 . S
C481 C478 1.387 . S
C482 C483 1.387 . S
C482 H486 0.950 . S
C482 C491 1.390 . S
C483 C482 1.387 . S
C483 C485 1.387 . S
H484 C491 0.950 . S
C485 C483 1.387 . S
C485 C487 1.390 . S
C485 H489 0.950 . S
H486 C482 0.950 . S
C487 C485 1.390 . S
C487 C488 1.387 . S
C487 H490 0.950 . S
C488 C487 1.387 . S
C488 C491 1.387 . S
H489 C485 0.950 . S
H490 C487 0.950 . S
C491 C482 1.390 . S
C491 H484 0.950 . S
C491 C488 1.387 . S
C492 C493 1.387 . S
C492 H496 0.950 . S
C492 C501 1.390 . S
C493 C492 1.387 . S
C493 C495 1.387 . S
H494 C501 0.950 . S
C495 C493 1.387 . S
C495 C497 1.390 . S
C495 H499 0.950 . S
H496 C492 0.950 . S
C497 C495 1.390 . S
C497 C498 1.387 . S
C497 H500 0.950 . S
C498 C497 1.387 . S
C498 C501 1.387 . S
H499 C495 0.950 . S
H500 C497 0.950 . S
C501 C492 1.390 . S
C501 H494 0.950 . S
C501 C498 1.387 . S
C502 C503 1.387 . S
C502 H506 0.950 . S
C502 C511 1.390 . S
C503 C502 1.387 . S
C503 C505 1.387 . S
H504 C511 0.950 . S
C505 C503 1.387 . S
C505 C507 1.390 . S
C505 H509 0.950 . S
H506 C502 0.950 . S
C507 C505 1.390 . S
C507 C508 1.387 . S
C507 H510 0.950 . S
C508 C507 1.387 . S
C508 C511 1.387 . S
H509 C505 0.950 . S
H510 C507 0.950 . S
C511 C502 1.390 . S
C511 H504 0.950 . S
C511 C508 1.387 . S
C512 C513 1.387 . S
C512 H516 0.950 . S
C512 C521 1.390 . S
C513 C512 1.387 . S
C513 C515 1.387 . S
H514 C521 0.950 . S
C515 C513 1.387 . S
C515 C517 1.390 . S
C515 H519 0.950 . S
H516 C512 0.950 . S
C517 C515 1.390 . S
C517 C518 1.387 . S
C517 H520 0.950 . S
C518 C517 1.387 . S
C518 C521 1.387 . S
H519 C515 0.950 . S
H520 C517 0.950 . S
C521 C512 1.390 . S
C521 H514 0.950 . S
C521 C518 1.387 . S
C522 C523 1.387 . S
C522 H526 0.950 . S
C522 C531 1.390 . S
C523 C522 1.387 . S
C523 C525 1.387 . S
H524 C531 0.950 . S
C525 C523 1.387 . S
C525 C527 1.390 . S
C525 H529 0.950 . S
H526 C522 0.950 . S
C527 C525 1.390 . S
C527 C528 1.387 . S
C527 H530 0.950 . S
C528 C527 1.387 . S
C528 C531 1.387 . S
H529 C525 0.950 . S
H530 C527 0.950 . S
C531 C522 1.390 . S
C531 H524 0.950 . S
C531 C528 1.387 . S
C532 C533 1.387 . S
C532 H536 0.950 . S
C532 C541 1.390 . S
C533 C532 1.387 . S
C533 C535 1.387 . S
H534 C541 0.950 . S
C535 C533 1.387 . S
C535 C537 1.390 . S
C535 H539 0.950 . S
H536 C532 0.950 . S
C537 C535 1.390 . S
C537 C538 1.387 . S
C537 H540 0.950 . S
C538 C537 1.387 . S
C538 C541 1.387 . S
H539 C535 0.950 . S
H540 C537 0.950 . S
C541 C532 1.390 . S
C541 H534 0.950 . S
C541 C538 1.387 . S
C542 C543 1.387 . S
C542 H546 0.950 . S
C542 C551 1.390 . S
C543 C542 1.387 . S
C543 C545 1.387 . S
H544 C551 0.950 . S
C545 C543 1.387 . S
C545 C547 1.390 . S
C545 H549 0.950 . S
H546 C542 0.950 . S
C547 C545 1.390 . S
C547 C548 1.387 . S
C547 H550 0.950 . S
C548 C547 1.387 . S
C548 C551 1.387 . S
H549 C545 0.950 . S
H550 C547 0.950 . S
C551 C542 1.390 . S
C551 H544 0.950 . S
C551 C548 1.387 . S
C552 C553 1.387 . S
C552 H556 0.950 . S
C552 C561 1.390 . S
C553 C552 1.387 . S
C553 C555 1.387 . S
H554 C561 0.950 . S
C555 C553 1.387 . S
C555 C557 1.390 . S
C555 H559 0.950 . S
H556 C552 0.950 . S
C557 C555 1.390 . S
C557 C558 1.387 . S
C557 H560 0.950 . S
C558 C557 1.387 . S
C558 C561 1.387 . S
H559 C555 0.950 . S
H560 C557 0.950 . S
C561 C552 1.390 . S
C561 H554 0.950 . S
C561 C558 1.387 . S
C562 C563 1.387 . S
C562 H566 0.950 . S
C562 C571 1.390 . S
C563 C562 1.387 . S
C563 C565 1.387 . S
H564 C571 0.950 . S
C565 C563 1.387 . S
C565 C567 1.390 . S
C565 H569 0.950 . S
H566 C562 0.950 . S
C567 C565 1.390 . S
C567 C568 1.387 . S
C567 H570 0.950 . S
C568 C567 1.387 . S
C568 C571 1.387 . S
H569 C565 0.950 . S
H570 C567 0.950 . S
C571 C562 1.390 . S
C571 H564 0.950 . S
C571 C568 1.387 . S
C572 C573 1.387 . S
C572 H576 0.950 . S
C572 C581 1.390 . S
C573 C572 1.387 . S
C573 C575 1.387 . S
H574 C581 0.950 . S
C575 C573 1.387 . S
C575 C577 1.390 . S
C575 H579 0.950 . S
H576 C572 0.950 . S
C577 C575 1.390 . S
C577 C578 1.387 . S
C577 H580 0.950 . S
C578 C577 1.387 . S
C578 C581 1.387 . S
H579 C575 0.950 . S
H580 C577 0.950 . S
C581 C572 1.390 . S
C581 H574 0.950 . S
C581 C578 1.387 . S
C582 C583 1.387 . S
C582 H586 0.950 . S
C582 C591 1.390 . S
C583 C582 1.387 . S
C583 C585 1.387 . S
H584 C591 0.950 . S
C585 C583 1.387 . S
C585 C587 1.390 . S
C585 H589 0.950 . S
H586 C582 0.950 . S
C587 C585 1.390 . S
C587 C588 1.387 . S
C587 H590 0.950 . S
C588 C587 1.387 . S
C588 C591 1.387 . S
H589 C585 0.950 . S
H590 C587 0.950 . S
C591 C582 1.390 . S
C591 H584 0.950 . S
C591 C588 1.387 . S
C278 C193 1.585 . S
C273 C14 1.563 . S
C283 C25 1.551 . S
C288 C225 1.586 . S
C293 C50 1.559 . S
C298 C248 1.601 . S
C308 C152 1.602 . S
C303 C68 1.563 . S
C318 C235 1.409 . S
C313 C16 1.528 . S
C328 C264 1.420 . S
C323 C26 1.537 . S
C338 C168 1.424 . S
C333 C52 1.527 . S
C348 C203 1.408 . S
C343 C70 1.526 . S
C353 C8 1.516 . S
C358 C231 1.416 . S
C363 C88 1.520 . S
C368 C206 1.400 . S
C373 C44 1.515 . S
C378 C174 1.398 . S
C388 C263 1.420 . S
C383 C98 1.518 . S
C398 C207 1.580 . S
C393 C7 1.550 . S
C403 C86 1.549 . S
C408 C175 1.580 . S
C413 C43 1.547 . S
C418 C262 1.590 . S
C428 C230 1.589 . S
C423 C97 1.546 . S
C433 C116 1.555 . S
C438 C257 1.579 . S
C443 C79 1.552 . S
C448 C161 1.587 . S
C453 C140 1.559 . S
C458 C184 1.602 . S
C463 C104 1.561 . S
C468 C216 1.603 . S
C478 C171 1.412 . S
C473 C115 1.535 . S
C483 C80 1.539 . S
C488 C200 1.423 . S
C493 C142 1.527 . S
C498 C232 1.424 . S
C508 C267 1.410 . S
C503 C106 1.528 . S
C513 C122 1.521 . S
C518 C167 1.425 . S
C523 C34 1.518 . S
C528 C270 1.400 . S
C533 C134 1.517 . S
C538 C238 1.400 . S
C548 C199 1.420 . S
C543 C62 1.518 . S
C558 C271 1.576 . S
C553 C124 1.549 . S
C568 C239 1.579 . S
C563 C32 1.550 . S
C578 C198 1.590 . S
C573 C133 1.548 . S
C588 C166 1.589 . S
C583 C61 1.548 . S
