# Generated by pormake.
# Topology rtl, (3,6)-cn, num edge types: 1
# Building blocks:
#     Node 0, Type 0, BuildingBlock: PAMTOO_clean_linker_0, # of connection points: 3
#     Node 1, Type 0, BuildingBlock: PAMTOO_clean_linker_0, # of connection points: 3
#     Node 2, Type 0, BuildingBlock: PAMTOO_clean_linker_0, # of connection points: 3
#     Node 3, Type 0, BuildingBlock: PAMTOO_clean_linker_0, # of connection points: 3
#     Node 4, Type 1, BuildingBlock: FUNLAD_clean_sbu_0, # of connection points: 6
#     Node 5, Type 1, BuildingBlock: FUNLAD_clean_sbu_0, # of connection points: 6
#     Edge 6, Type (0, 1), BuildingBlock: UVAHIK_clean_linker_0, # of connection points: 2
#     Edge 7, Type (0, 1), BuildingBlock: UVAHIK_clean_linker_0, # of connection points: 2
#     Edge 8, Type (0, 1), BuildingBlock: UVAHIK_clean_linker_0, # of connection points: 2
#     Edge 9, Type (0, 1), BuildingBlock: UVAHIK_clean_linker_0, # of connection points: 2
#     Edge 10, Type (0, 1), BuildingBlock: UVAHIK_clean_linker_0, # of connection points: 2
#     Edge 11, Type (0, 1), BuildingBlock: UVAHIK_clean_linker_0, # of connection points: 2
#     Edge 12, Type (0, 1), BuildingBlock: UVAHIK_clean_linker_0, # of connection points: 2
#     Edge 13, Type (0, 1), BuildingBlock: UVAHIK_clean_linker_0, # of connection points: 2
#     Edge 14, Type (0, 1), BuildingBlock: UVAHIK_clean_linker_0, # of connection points: 2
#     Edge 15, Type (0, 1), BuildingBlock: UVAHIK_clean_linker_0, # of connection points: 2
#     Edge 16, Type (0, 1), BuildingBlock: UVAHIK_clean_linker_0, # of connection points: 2
#     Edge 17, Type (0, 1), BuildingBlock: UVAHIK_clean_linker_0, # of connection points: 2
# Relax obj value: 0.003
# Max RMSD: 0.051
# Mean RMSD: 0.038
data_MOF--net-rtl--node1-FUNLAD_clean_sbu_0--node2-PAMTOO_clean_linker_0--edge1-UVAHIK_clean_linker_0
_symmetry_space_group_name_H-M    P1
_symmetry_Int_Tables_number       1
_symmetry_cell_setting            triclinic
loop_
_symmetry_equiv_pos_as_xyz
'x, y, z'
_cell_length_a     50.825621
_cell_length_b     50.958197
_cell_length_c     27.402412
_cell_angle_alpha  92.249865
_cell_angle_beta   91.02265
_cell_angle_gamma 90.073669
loop_
_atom_site_label
_atom_site_type_symbol
_atom_site_fract_x
_atom_site_fract_y
_atom_site_fract_z
_atom_type_partial_charge
H0 H 0.15609 0.87672 0.0033 0.0
H1 H 0.19616 0.81524 0.07803 0.0
H2 H 0.19741 0.81645 0.92139 0.0
H3 H 0.19407 0.76422 0.95764 0.0
C4 C 0.2046 0.76697 0.99341 0.0
O5 O 0.21435 0.79221 -0.00156 0.0
H6 H 0.19041 0.7635 0.02299 0.0
C7 C 0.16834 0.8593 0.0023 0.0
C8 C 0.1759 0.84811 0.95713 0.0
C9 C 0.1753 0.8475 0.04608 0.0
C10 C 0.19043 0.82448 0.04452 0.0
C11 C 0.19862 0.81352 -0.00041 0.0
C12 C 0.19117 0.82518 0.95597 0.0
H13 H 0.64978 0.63044 0.51755 0.0
H14 H 0.69216 0.69082 0.44633 0.0
H15 H 0.69178 0.69004 0.60311 0.0
H16 H 0.6923 0.74274 0.56709 0.0
C17 C 0.70191 0.73907 0.53132 0.0
O18 O 0.71046 0.71343 0.52752 0.0
H19 H 0.68723 0.74275 0.50172 0.0
C20 C 0.66234 0.64769 0.51964 0.0
C21 C 0.66974 0.65883 0.56544 0.0
C22 C 0.67006 0.65921 0.4765 0.0
C23 C 0.68576 0.6819 0.47935 0.0
C24 C 0.69381 0.69277 0.525 0.0
C25 C 0.68556 0.68144 0.56798 0.0
H26 H 0.85179 0.12216 0.00916 0.0
H27 H 0.80647 0.1803 0.93512 0.0
H28 H 0.80798 0.18018 0.09201 0.0
H29 H 0.75616 0.1889 0.05274 0.0
C30 C 0.76088 0.19729 0.01706 0.0
O31 O 0.78755 0.20221 0.01522 0.0
H32 H 0.75508 0.18265 0.98754 0.0
C33 C 0.83859 0.13888 0.01044 0.0
C34 C 0.83096 0.14979 0.05576 0.0
C35 C 0.83019 0.14994 0.96679 0.0
C36 C 0.81347 0.17181 0.96859 0.0
C37 C 0.80513 0.18237 0.01373 0.0
C38 C 0.81436 0.17177 0.05727 0.0
H39 H 0.366 0.36357 0.49845 0.0
H40 H 0.3107 0.31226 0.56431 0.0
H41 H 0.31299 0.31613 0.408 0.0
H42 H 0.25996 0.31093 0.44195 0.0
C43 C 0.26384 0.30239 0.47811 0.0
O44 O 0.28978 0.2946 0.4813 0.0
H45 H 0.2598 0.31777 0.50701 0.0
C46 C 0.35038 0.34905 0.49487 0.0
C47 C 0.34071 0.34125 0.44832 0.0
C48 C 0.33988 0.33856 0.53687 0.0
C49 C 0.31921 0.32032 0.53214 0.0
C50 C 0.30967 0.31215 0.48566 0.0
C51 C 0.32065 0.32234 0.44377 0.0
C52 C 0.03235 0.97348 0.43577 0.0
N53 N 0.04465 0.04624 0.51022 0.0
C54 C 0.0707 0.04023 0.50842 0.0
C55 C 0.08957 0.06014 0.50783 0.0
C56 C 0.08158 0.08652 0.50938 0.0
C57 C 0.05459 0.09218 0.51187 0.0
C58 C 0.03637 0.07164 0.51209 0.0
Zn59 Zn 0.01759 0.01647 0.50853 0.0
C60 C 0.9748 0.02452 0.43634 0.0
N61 N 0.96214 0.95326 0.50376 0.0
C62 C 0.96926 0.92759 0.50614 0.0
C63 C 0.93637 0.96035 0.50086 0.0
C64 C 0.9166 0.94136 0.50004 0.0
C65 C 0.9233 0.91475 0.5027 0.0
C66 C 0.95003 0.90791 0.50592 0.0
Zn67 Zn 0.98969 0.98265 0.50557 0.0
O68 O 0.03903 0.99608 0.4531 0.0
C69 C 0.03262 0.97469 0.57766 0.0
O70 O 0.01175 0.96259 0.45123 0.0
H71 H 0.93107 0.98085 0.49955 0.0
H72 H 0.07688 0.01991 0.50715 0.0
H73 H 0.98986 0.92238 0.50838 0.0
O74 O 0.03948 0.99698 0.56285 0.0
O75 O 0.01186 0.96377 0.56 0.0
H76 H 0.01556 0.076 0.51327 0.0
O77 O 0.96803 0.00311 0.56043 0.0
O78 O 0.99561 0.0363 0.56342 0.0
O79 O 0.96813 0.00208 0.45059 0.0
O80 O 0.99531 0.03557 0.45463 0.0
C81 C 0.97483 0.02554 0.5783 0.0
H82 H 0.11021 0.05494 0.50647 0.0
H83 H 0.04758 0.11225 0.51258 0.0
H84 H 0.89622 0.9475 0.49829 0.0
H85 H 0.95598 0.88756 0.50779 0.0
C86 C 0.47451 0.4735 0.93313 0.0
N87 N 0.54625 0.45647 0.00207 0.0
C88 C 0.53878 0.4308 -0.00126 0.0
C89 C 0.55767 0.41093 -0.00225 0.0
C90 C 0.58451 0.41752 0.00051 0.0
C91 C 0.59166 0.44417 0.004 0.0
C92 C 0.57211 0.46341 0.00457 0.0
Zn93 Zn 0.51805 0.48505 0.00366 0.0
C94 C 0.52987 0.52728 0.93498 0.0
N95 N 0.4596 0.54525 0.00772 0.0
C96 C 0.43401 0.53762 0.01028 0.0
C97 C 0.46622 0.57107 0.00575 0.0
C98 C 0.44668 0.59036 0.00602 0.0
C99 C 0.42012 0.583 0.00877 0.0
C100 C 0.41391 0.55623 0.01104 0.0
Zn101 Zn 0.48809 0.5169 0.00614 0.0
O102 O 0.4966 0.46475 0.94746 0.0
C103 C 0.47649 0.47453 0.07492 0.0
O104 O 0.466 0.49504 0.9517 0.0
H105 H 0.48669 0.57673 0.00387 0.0
H106 H 0.51812 0.42569 -0.00296 0.0
H107 H 0.42913 0.51699 0.01145 0.0
O108 O 0.49708 0.46458 0.0563 0.0
O109 O 0.46852 0.49677 0.06134 0.0
H110 H 0.57762 0.48393 0.007 0.0
O111 O 0.51048 0.53815 0.06038 0.0
O112 O 0.53912 0.50593 0.0602 0.0
O113 O 0.50841 0.53662 0.95124 0.0
O114 O 0.53852 0.50577 0.95084 0.0
C115 C 0.53164 0.52827 0.07689 0.0
H116 H 0.55132 0.39062 0.99563 0.0
H117 H 0.61214 0.45008 0.0057 0.0
H118 H 0.4523 0.61082 0.00461 0.0
H119 H 0.39366 0.54969 0.01252 0.0
C120 C 0.24795 0.25725 0.45056 0.0
C121 C 0.24604 0.27907 0.48315 0.0
C122 C 0.23105 0.23579 0.45426 0.0
C123 C 0.1856 0.20452 0.5394 0.0
H124 H 0.15731 0.17052 0.42067 0.0
C125 C 0.0991 0.13066 0.5382 0.0
C126 C 0.10126 0.108 0.5076 0.0
C127 C 0.11747 0.15101 0.53601 0.0
C128 C 0.16526 0.17963 0.45415 0.0
H129 H 0.22492 0.29583 0.5448 0.0
H130 H 0.19502 0.25862 0.55084 0.0
H131 H 0.18804 0.207 0.41534 0.0
H132 H 0.12427 0.08901 0.45049 0.0
H133 H 0.15641 0.12449 0.44685 0.0
H134 H 0.16242 0.17733 0.57812 0.0
C135 C 0.20992 0.25773 0.52306 0.0
C136 C 0.18292 0.20052 0.45112 0.0
C137 C 0.22691 0.27912 0.51946 0.0
C138 C 0.12221 0.10612 0.47484 0.0
C139 C 0.14046 0.12653 0.47242 0.0
C140 C 0.16781 0.18372 0.54241 0.0
C141 C 0.21173 0.2358 0.49044 0.0
C142 C 0.19329 0.21326 0.49371 0.0
C143 C 0.13827 0.14922 0.50292 0.0
C144 C 0.15742 0.17108 0.49981 0.0
H145 H 0.26253 0.25687 0.42218 0.0
H146 H 0.23324 0.21911 0.42895 0.0
H147 H 0.19352 0.21357 0.57294 0.0
H148 H 0.0833 0.13259 0.56409 0.0
H149 H 0.11513 0.16834 0.5597 0.0
C150 C 0.22868 0.7293 0.03167 0.0
C151 C 0.22709 0.74785 0.99521 0.0
C152 C 0.24983 0.71182 0.03332 0.0
C153 C 0.30316 0.6831 0.95748 0.0
H154 H 0.33314 0.66521 0.08297 0.0
C155 C 0.3993 0.62348 0.9759 0.0
C156 C 0.3989 0.60299 0.00875 0.0
C157 C 0.37876 0.64168 0.97463 0.0
C158 C 0.32485 0.66988 0.04768 0.0
H159 H 0.24608 0.76277 0.93194 0.0
H160 H 0.28341 0.73265 0.93524 0.0
H161 H 0.29642 0.69588 0.07975 0.0
H162 H 0.37701 0.58591 0.06686 0.0
H163 H 0.34114 0.61768 0.06463 0.0
H164 H 0.33184 0.65725 0.92551 0.0
C165 C 0.26817 0.73121 0.96211 0.0
C166 C 0.30374 0.6874 0.04579 0.0
C167 C 0.24694 0.74857 0.96033 0.0
C168 C 0.37775 0.60135 0.04085 0.0
C169 C 0.35733 0.61966 0.03987 0.0
C170 C 0.32438 0.66573 0.95938 0.0
C171 C 0.26991 0.71261 -0.00133 0.0
C172 C 0.29255 0.69415 0.00067 0.0
C173 C 0.35751 0.63991 0.00651 0.0
C174 C 0.33539 0.65885 0.0045 0.0
H175 H 0.21355 0.7283 0.05888 0.0
H176 H 0.25028 0.6975 0.06149 0.0
H177 H 0.29479 0.6875 0.92212 0.0
H178 H 0.41524 0.62513 0.95047 0.0
H179 H 0.37955 0.65721 0.94882 0.0
C180 C 0.74553 0.75637 0.56351 0.0
C181 C 0.72521 0.75712 0.52826 0.0
C182 C 0.76767 0.77246 0.56025 0.0
C183 C 0.80424 0.81175 0.4724 0.0
H184 H 0.83588 0.84388 0.58997 0.0
C185 C 0.88074 0.8956 0.47031 0.0
C186 C 0.90232 0.8945 0.50294 0.0
C187 C 0.86013 0.87754 0.47235 0.0
C188 C 0.82745 0.83479 0.55687 0.0
H189 H 0.71179 0.77539 0.4623 0.0
H190 H 0.7501 0.80406 0.45713 0.0
H191 H 0.79748 0.81557 0.59612 0.0
H192 H 0.91941 0.87342 0.5629 0.0
H193 H 0.8833 0.84178 0.56649 0.0
H194 H 0.83397 0.83149 0.43318 0.0
C195 C 0.7493 0.79066 0.48678 0.0
C196 C 0.80544 0.81854 0.56036 0.0
C197 C 0.72725 0.77443 0.4899 0.0
C198 C 0.9031 0.87464 0.5371 0.0
C199 C 0.88235 0.8567 0.53944 0.0
C200 C 0.82613 0.82815 0.46892 0.0
C201 C 0.76987 0.78979 0.52178 0.0
C202 C 0.79349 0.80687 0.51815 0.0
C203 C 0.86055 0.8581 0.50732 0.0
C204 C 0.83792 0.8399 0.5111 0.0
H205 H 0.74437 0.74307 0.59328 0.0
H206 H 0.78325 0.77098 0.58747 0.0
H207 H 0.79589 0.80271 0.43921 0.0
H208 H 0.87971 0.91056 0.44333 0.0
H209 H 0.84352 0.87924 0.44735 0.0
C210 C 0.72613 0.22432 0.97549 0.0
C211 C 0.74565 0.22235 0.01202 0.0
C212 C 0.71083 0.24698 0.97281 0.0
C213 C 0.68836 0.30383 0.04863 0.0
H214 H 0.66584 0.3301 0.92372 0.0
C215 C 0.62658 0.39838 0.03262 0.0
C216 C 0.60489 0.39668 9e-05 0.0
C217 C 0.64536 0.37838 0.03313 0.0
C218 C 0.67186 0.32289 0.95886 0.0
H219 H 0.76472 0.24236 0.07414 0.0
H220 H 0.73835 0.28236 0.06902 0.0
H221 H 0.69626 0.29317 0.9261 0.0
H222 H 0.58624 0.37299 0.94177 0.0
H223 H 0.61894 0.33798 0.94287 0.0
H224 H 0.66386 0.33354 0.08132 0.0
C225 C 0.7346 0.26629 0.04276 0.0
C226 C 0.68926 0.30171 0.96025 0.0
C227 C 0.74983 0.24355 0.04552 0.0
C228 C 0.6026 0.37473 0.96759 0.0
C229 C 0.62146 0.35483 0.96787 0.0
C230 C 0.67106 0.32509 0.04722 0.0
C231 C 0.71473 0.26819 0.00663 0.0
C232 C 0.69749 0.29172 0.00514 0.0
C233 C 0.64296 0.35635 0.00085 0.0
C234 C 0.6624 0.33467 0.00232 0.0
H235 H 0.72236 0.20813 0.9495 0.0
H236 H 0.69544 0.24757 0.94502 0.0
H237 H 0.69394 0.2964 0.08382 0.0
H238 H 0.62877 0.41496 0.05836 0.0
H239 H 0.66182 0.38019 0.05871 0.0
C240 C 0.16913 0.88597 0.10388 0.0
C241 C 0.16574 0.85906 0.0928 0.0
C242 C 0.15723 0.89776 0.14464 0.0
C243 C 0.12189 0.88388 0.25901 0.0
H244 H 0.09177 0.95254 0.23825 0.0
C245 C 0.04436 0.93331 0.38525 0.0
C246 C 0.04863 0.95995 0.39837 0.0
C247 C 0.05999 0.92056 0.3502 0.0
C248 C 0.10028 0.93348 0.24476 0.0
H249 H 0.14804 0.82311 0.11617 0.0
H250 H 0.12655 0.84375 0.18686 0.0
H251 H 0.11723 0.93096 0.17408 0.0
H252 H 0.07271 0.99407 0.38511 0.0
H253 H 0.09969 0.97186 0.32349 0.0
H254 H 0.10404 0.88631 0.32939 0.0
C255 C 0.13885 0.85574 0.16477 0.0
C256 C 0.11502 0.92113 0.20808 0.0
C257 C 0.1511 0.84388 0.12427 0.0
C258 C 0.06886 0.97355 0.37574 0.0
C259 C 0.08426 0.96088 0.34036 0.0
C260 C 0.10687 0.89617 0.29556 0.0
C261 C 0.14128 0.88297 0.17482 0.0
C262 C 0.12611 0.89619 0.21472 0.0
C263 C 0.07998 0.93428 0.32721 0.0
C264 C 0.09597 0.92112 0.28878 0.0
H265 H 0.18058 0.89801 0.08036 0.0
H266 H 0.16015 0.91861 0.15194 0.0
H267 H 0.13037 0.86484 0.26565 0.0
H268 H 0.029 0.92227 0.40217 0.0
H269 H 0.05614 0.90009 0.34044 0.0
C270 C 0.6452 0.66169 0.64376 0.0
C271 C 0.6601 0.64689 0.61004 0.0
C272 C 0.63276 0.64942 0.68192 0.0
C273 C 0.60935 0.58338 0.71377 0.0
H274 H 0.5974 0.61719 0.84066 0.0
C275 C 0.56571 0.52883 0.87385 0.0
C276 C 0.54501 0.54144 0.89866 0.0
C277 C 0.58031 0.54218 0.83996 0.0
C278 C 0.60048 0.60762 0.80523 0.0
H279 H 0.6752 0.6082 0.59113 0.0
H280 H 0.65454 0.5869 0.65878 0.0
H281 H 0.6235 0.63962 0.78083 0.0
H282 H 0.52358 0.57804 0.90785 0.0
H283 H 0.5494 0.60148 0.84881 0.0
H284 H 0.58672 0.55122 0.73858 0.0
C285 C 0.65151 0.60776 0.65499 0.0
C286 C 0.61538 0.62046 0.7709 0.0
C287 C 0.66357 0.61995 0.61652 0.0
C288 C 0.53934 0.56776 0.88913 0.0
C289 C 0.5542 0.58124 0.85565 0.0
C290 C 0.59478 0.57046 0.74824 0.0
C291 C 0.63528 0.62216 0.68734 0.0
C292 C 0.62 0.60848 0.72469 0.0
C293 C 0.57475 0.56851 0.83062 0.0
C294 C 0.59017 0.58245 0.79425 0.0
H295 H 0.64208 0.68248 0.63914 0.0
H296 H 0.62026 0.66113 0.70577 0.0
H297 H 0.61185 0.57378 0.67821 0.0
H298 H 0.57059 0.50857 0.88042 0.0
H299 H 0.59617 0.53197 0.82142 0.0
C300 C 0.85494 0.15337 0.13629 0.0
C301 C 0.84087 0.13809 0.10101 0.0
C302 C 0.86739 0.14149 0.17564 0.0
C303 C 0.89266 0.07636 0.20972 0.0
H304 H 0.90207 0.11048 0.33783 0.0
C305 C 0.93867 0.02393 0.37309 0.0
C306 C 0.95857 0.03779 0.39946 0.0
C307 C 0.92326 0.03644 0.33832 0.0
C308 C 0.89967 0.10082 0.3021 0.0
H309 H 0.82722 0.09889 0.08041 0.0
H310 H 0.84794 0.07823 0.14997 0.0
H311 H 0.87565 0.13182 0.27547 0.0
H312 H 0.97765 0.07573 0.41058 0.0
H313 H 0.95047 0.09763 0.35001 0.0
H314 H 0.91639 0.04524 0.23665 0.0
C315 C 0.85031 0.09919 0.14659 0.0
C316 C 0.88461 0.11304 0.26633 0.0
C317 C 0.83824 0.11101 0.10698 0.0
C318 C 0.96254 0.06449 0.39069 0.0
C319 C 0.94689 0.07708 0.35632 0.0
C320 C 0.90742 0.06405 0.24559 0.0
C321 C 0.86569 0.11414 0.18068 0.0
C322 C 0.88096 0.10098 0.2196 0.0
C323 C 0.9272 0.06313 0.32963 0.0
C324 C 0.91116 0.07618 0.29205 0.0
H325 H 0.85737 0.17429 0.13214 0.0
H326 H 0.87924 0.15361 0.20086 0.0
H327 H 0.89089 0.06674 0.17388 0.0
H328 H 0.93508 0.00336 0.37907 0.0
H329 H 0.90808 0.02529 0.31849 0.0
C330 C 0.33429 0.35957 0.62009 0.0
C331 C 0.35057 0.34727 0.58527 0.0
C332 C 0.34522 0.37095 0.66314 0.0
C333 C 0.40355 0.37156 0.74429 0.0
H334 H 0.38861 0.44562 0.76656 0.0
C335 C 0.47 0.43767 0.86855 0.0
C336 C 0.45861 0.45834 0.89616 0.0
C337 C 0.45495 0.42297 0.83422 0.0
C338 C 0.39266 0.42484 0.76164 0.0
H339 H 0.39056 0.33599 0.56863 0.0
H340 H 0.40961 0.3553 0.64435 0.0
H341 H 0.36472 0.4206 0.70236 0.0
H342 H 0.42241 0.47961 0.90996 0.0
H343 H 0.39591 0.45349 0.85104 0.0
H344 H 0.43137 0.37557 0.8035 0.0
C345 C 0.38851 0.35632 0.63838 0.0
C346 C 0.37896 0.41054 0.72476 0.0
C347 C 0.37768 0.34539 0.59508 0.0
C348 C 0.4318 0.46394 0.88888 0.0
C349 C 0.41664 0.44901 0.85496 0.0
C350 C 0.41699 0.38575 0.78161 0.0
C351 C 0.37248 0.36972 0.6723 0.0
C352 C 0.38466 0.38391 0.71515 0.0
C353 C 0.42802 0.42833 0.82712 0.0
C354 C 0.41214 0.41272 0.79009 0.0
H355 H 0.31334 0.36136 0.61302 0.0
H356 H 0.33246 0.3811 0.68887 0.0
H357 H 0.40811 0.35096 0.73784 0.0
H358 H 0.49065 0.43296 0.87313 0.0
H359 H 0.46459 0.40762 0.81276 0.0
C360 C 0.66492 0.62062 0.41836 0.0
C361 C 0.66101 0.64747 0.42898 0.0
C362 C 0.65344 0.60854 0.37666 0.0
C363 C 0.61824 0.62139 0.25936 0.0
H364 H 0.58965 0.55198 0.27823 0.0
C365 C 0.54238 0.56909 0.1275 0.0
C366 C 0.54756 0.54259 0.115 0.0
C367 C 0.55757 0.58252 0.16351 0.0
C368 C 0.59773 0.57125 0.27227 0.0
H369 H 0.64288 0.68302 0.40395 0.0
H370 H 0.62205 0.66182 0.33155 0.0
H371 H 0.61427 0.5744 0.34433 0.0
H372 H 0.57278 0.50946 0.13029 0.0
H373 H 0.59895 0.53283 0.19358 0.0
H374 H 0.60075 0.6183 0.1875 0.0
C375 C 0.63444 0.65012 0.35474 0.0
C376 C 0.61199 0.5841 0.31006 0.0
C377 C 0.6463 0.6623 0.3962 0.0
C378 C 0.56824 0.52984 0.13913 0.0
C379 C 0.58319 0.54317 0.17548 0.0
C380 C 0.60366 0.60861 0.22167 0.0
C381 C 0.63736 0.62294 0.34508 0.0
C382 C 0.62257 0.60929 0.30409 0.0
C383 C 0.57797 0.56961 0.18809 0.0
C384 C 0.59336 0.58338 0.22776 0.0
H385 H 0.67642 0.60887 0.44298 0.0
H386 H 0.65676 0.58775 0.36974 0.0
H387 H 0.62631 0.64064 0.25324 0.0
H388 H 0.52665 0.57948 0.10941 0.0
H389 H 0.55302 0.60285 0.17283 0.0
C390 C 0.8368 0.11161 0.90904 0.0
C391 C 0.83962 0.1386 0.91987 0.0
C392 C 0.84883 0.10002 0.86825 0.0
C393 C 0.88393 0.11437 0.75381 0.0
H394 H 0.91538 0.04639 0.7755 0.0
C395 C 0.96254 0.06567 0.62865 0.0
C396 C 0.95844 0.039 0.61558 0.0
C397 C 0.94672 0.07835 0.6635 0.0
C398 C 0.90651 0.06526 0.76875 0.0
H399 H 0.85636 0.17491 0.89611 0.0
H400 H 0.87816 0.15462 0.82538 0.0
H401 H 0.88947 0.06766 0.83932 0.0
H402 H 0.93453 0.00475 0.62869 0.0
H403 H 0.90727 0.02682 0.69002 0.0
H404 H 0.90193 0.11206 0.68353 0.0
C405 C 0.86619 0.1424 0.84764 0.0
C406 C 0.8915 0.07743 0.80521 0.0
C407 C 0.85377 0.15406 0.88815 0.0
C408 C 0.93824 0.02529 0.63804 0.0
C409 C 0.92267 0.03788 0.67325 0.0
C410 C 0.89925 0.10227 0.71747 0.0
C411 C 0.8644 0.1151 0.83788 0.0
C412 C 0.8799 0.1021 0.79821 0.0
C413 C 0.92676 0.06452 0.68634 0.0
C414 C 0.9106 0.07756 0.7246 0.0
H415 H 0.82575 0.09937 0.93286 0.0
H416 H 0.84638 0.0791 0.86116 0.0
H417 H 0.87508 0.13321 0.7469 0.0
H418 H 0.97787 0.07678 0.61182 0.0
H419 H 0.95041 0.09885 0.67324 0.0
C420 C 0.36366 0.33889 0.36816 0.0
C421 C 0.35123 0.3538 0.40512 0.0
C422 C 0.37609 0.35137 0.33019 0.0
C423 C 0.40361 0.41657 0.30173 0.0
H424 H 0.40701 0.38622 0.17002 0.0
C425 C 0.44273 0.4733 0.14012 0.0
C426 C 0.46171 0.46025 0.11154 0.0
C427 C 0.42879 0.45984 0.17481 0.0
C428 C 0.40629 0.3948 0.20677 0.0
H429 H 0.34063 0.39304 0.43051 0.0
H430 H 0.36116 0.41482 0.3634 0.0
H431 H 0.38236 0.36361 0.23169 0.0
H432 H 0.48064 0.42275 0.09626 0.0
H433 H 0.45589 0.39914 0.15654 0.0
H434 H 0.42704 0.44803 0.27636 0.0
C435 C 0.36237 0.39364 0.36432 0.0
C436 C 0.39227 0.38184 0.24217 0.0
C437 C 0.35038 0.3812 0.40254 0.0
C438 C 0.46623 0.43337 0.11793 0.0
C439 C 0.45198 0.41981 0.15213 0.0
C440 C 0.41726 0.42965 0.26624 0.0
C441 C 0.37597 0.37897 0.32828 0.0
C442 C 0.39072 0.3926 0.29014 0.0
C443 C 0.43326 0.43298 0.18109 0.0
C444 C 0.41874 0.41891 0.21846 0.0
H445 H 0.36464 0.3177 0.36972 0.0
H446 H 0.38655 0.33942 0.3034 0.0
H447 H 0.40351 0.42516 0.3385 0.0
H448 H 0.43879 0.49399 0.13601 0.0
H449 H 0.41432 0.47038 0.19649 0.0
C450 C 0.15236 0.84508 0.87617 0.0
C451 C 0.16664 0.86006 0.91163 0.0
C452 C 0.14022 0.85721 0.8368 0.0
C453 C 0.11599 0.92276 0.80299 0.0
H454 H 0.10537 0.88854 0.67526 0.0
C455 C 0.06909 0.97523 0.64028 0.0
C456 C 0.04895 0.96144 0.61445 0.0
C457 C 0.08466 0.96272 0.67482 0.0
C458 C 0.10811 0.89824 0.71089 0.0
H459 H 0.18095 0.899 0.93243 0.0
H460 H 0.16075 0.9201 0.86279 0.0
H461 H 0.13194 0.867 0.73714 0.0
H462 H 0.02959 0.9236 0.60414 0.0
H463 H 0.05703 0.9017 0.66431 0.0
H464 H 0.09242 0.9541 0.77642 0.0
C465 C 0.15802 0.89917 0.86606 0.0
C466 C 0.12327 0.88591 0.74639 0.0
C467 C 0.1698 0.8871 0.90572 0.0
C468 C 0.04488 0.93479 0.62359 0.0
C469 C 0.06069 0.9222 0.65773 0.0
C470 C 0.10113 0.93518 0.76736 0.0
C471 C 0.14241 0.88453 0.83185 0.0
C472 C 0.1273 0.89796 0.79302 0.0
C473 C 0.08064 0.93608 0.68383 0.0
C474 C 0.09692 0.923 0.72108 0.0
H475 H 0.14947 0.82422 0.88026 0.0
H476 H 0.12818 0.84532 0.81154 0.0
H477 H 0.11807 0.93241 0.83877 0.0
H478 H 0.07276 0.99577 0.63402 0.0
H479 H 0.10004 0.97383 0.6942 0.0
loop_
_geom_bond_atom_site_label_1
_geom_bond_atom_site_label_2
_geom_bond_distance
_geom_bond_site_symmetry_2
_ccdc_geom_bond_type
H0 C7 0.929 . S
H1 C10 0.930 . S
H2 C12 0.929 . S
H3 C4 0.969 . S
C4 H3 0.969 . S
C4 O5 1.550 1_554 S
C4 H6 0.973 . S
O5 C4 1.550 1_556 S
O5 C11 1.412 1_556 S
H6 C4 0.973 . S
C7 H0 0.929 . S
C7 C8 1.400 1_554 S
C7 C9 1.364 . S
C8 C7 1.400 1_556 S
C8 C12 1.377 . S
C9 C7 1.364 . S
C9 C10 1.374 . S
C10 H1 0.930 . S
C10 C9 1.374 . S
C10 C11 1.382 . S
C11 O5 1.412 1_554 S
C11 C10 1.382 . S
C11 C12 1.395 1_554 S
C12 H2 0.929 . S
C12 C8 1.377 . S
C12 C11 1.395 1_556 S
H13 C20 0.929 . S
H14 C23 0.930 . S
H15 C25 0.929 . S
H16 C17 0.969 . S
C17 H16 0.969 . S
C17 O18 1.550 . S
C17 H19 0.973 . S
O18 C17 1.550 . S
O18 C24 1.412 . S
H19 C17 0.973 . S
C20 H13 0.929 . S
C20 C21 1.400 . S
C20 C22 1.364 . S
C21 C20 1.400 . S
C21 C25 1.377 . S
C22 C20 1.364 . S
C22 C23 1.374 . S
C23 H14 0.930 . S
C23 C22 1.374 . S
C23 C24 1.383 . S
C24 O18 1.412 . S
C24 C23 1.383 . S
C24 C25 1.394 . S
C25 H15 0.929 . S
C25 C21 1.377 . S
C25 C24 1.394 . S
H26 C33 0.929 . S
H27 C36 0.930 . S
H28 C38 0.929 . S
H29 C30 0.969 . S
C30 H29 0.969 . S
C30 O31 1.550 1_556 S
C30 H32 0.973 . S
O31 C30 1.550 1_554 S
O31 C37 1.412 . S
H32 C30 0.973 . S
C33 H26 0.929 . S
C33 C34 1.400 . S
C33 C35 1.364 1_554 S
C34 C33 1.400 . S
C34 C38 1.377 . S
C35 C33 1.364 1_556 S
C35 C36 1.374 . S
C36 H27 0.930 . S
C36 C35 1.374 . S
C36 C37 1.383 1_556 S
C37 O31 1.412 . S
C37 C36 1.383 1_554 S
C37 C38 1.394 . S
C38 H28 0.929 . S
C38 C34 1.377 . S
C38 C37 1.394 . S
H39 C46 0.929 . S
H40 C49 0.930 . S
H41 C51 0.929 . S
H42 C43 0.969 . S
C43 H42 0.969 . S
C43 O44 1.550 . S
C43 H45 0.973 . S
O44 C43 1.550 . S
O44 C50 1.412 . S
H45 C43 0.973 . S
C46 H39 0.929 . S
C46 C47 1.400 . S
C46 C48 1.364 . S
C47 C46 1.400 . S
C47 C51 1.377 . S
C48 C46 1.364 . S
C48 C49 1.374 . S
C49 H40 0.930 . S
C49 C48 1.374 . S
C49 C50 1.383 . S
C50 O44 1.412 . S
C50 C49 1.383 . S
C50 C51 1.394 . S
C51 H41 0.929 . S
C51 C47 1.377 . S
C51 C50 1.394 . S
C52 O68 1.251 . S
C52 O70 1.254 . S
N53 C54 1.333 . S
N53 C58 1.307 . S
N53 Zn59 2.020 . S
C54 N53 1.333 . S
C54 C55 1.379 . S
C54 H72 0.952 . S
C55 C54 1.379 . S
C55 C56 1.390 . S
C55 H82 0.949 . S
C56 C55 1.390 . S
C56 C57 1.357 . S
C57 C56 1.357 . S
C57 C58 1.370 . S
C57 H83 0.950 . S
C58 N53 1.307 . S
C58 C57 1.370 . S
C58 H76 0.948 . S
Zn59 N53 2.020 . S
Zn59 O68 2.039 1_545 S
Zn59 O74 2.034 1_545 S
Zn59 O78 2.025 1_455 S
Zn59 O80 2.024 1_455 S
C60 O79 1.246 . S
C60 O80 1.249 . S
N61 C62 1.307 . S
N61 C63 1.333 . S
N61 Zn67 2.020 . S
C62 N61 1.307 . S
C62 C66 1.370 . S
C62 H73 0.948 . S
C63 N61 1.333 . S
C63 C64 1.379 . S
C63 H71 0.952 . S
C64 C63 1.379 . S
C64 C65 1.390 . S
C64 H84 0.949 . S
C65 C64 1.390 . S
C65 C66 1.357 . S
C66 C62 1.370 . S
C66 C65 1.357 . S
C66 H85 0.950 . S
Zn67 N61 2.020 . S
Zn67 O70 2.025 1_655 S
Zn67 O75 2.024 1_655 S
Zn67 O77 2.039 1_565 S
Zn67 O79 2.034 1_565 S
O68 C52 1.251 . S
O68 Zn59 2.039 1_565 S
C69 O74 1.246 . S
C69 O75 1.249 . S
O70 C52 1.254 . S
O70 Zn67 2.025 1_455 S
H71 C63 0.952 . S
H72 C54 0.952 . S
H73 C62 0.948 . S
O74 Zn59 2.034 1_565 S
O74 C69 1.246 . S
O75 Zn67 2.024 1_455 S
O75 C69 1.249 . S
H76 C58 0.948 . S
O77 Zn67 2.039 1_545 S
O77 C81 1.251 . S
O78 Zn59 2.025 1_655 S
O78 C81 1.254 . S
O79 C60 1.246 . S
O79 Zn67 2.034 1_545 S
O80 Zn59 2.024 1_655 S
O80 C60 1.249 . S
C81 O77 1.251 . S
C81 O78 1.254 . S
H82 C55 0.949 . S
H83 C57 0.950 . S
H84 C64 0.949 . S
H85 C66 0.950 . S
C86 O102 1.251 . S
C86 O104 1.254 . S
N87 C88 1.333 1_554 S
N87 C92 1.307 . S
N87 Zn93 2.020 . S
C88 N87 1.333 1_556 S
C88 C89 1.379 . S
C88 H106 0.952 . S
C89 C88 1.379 . S
C89 C90 1.390 1_556 S
C89 H116 0.949 . S
C90 C89 1.390 1_554 S
C90 C91 1.357 . S
C91 C90 1.357 . S
C91 C92 1.370 . S
C91 H117 0.950 . S
C92 N87 1.307 . S
C92 C91 1.370 . S
C92 H110 0.948 . S
Zn93 N87 2.020 . S
Zn93 O102 2.039 1_554 S
Zn93 O108 2.034 . S
Zn93 O112 2.025 . S
Zn93 O114 2.024 1_554 S
C94 O113 1.246 . S
C94 O114 1.249 . S
N95 C96 1.307 1_554 S
N95 C97 1.333 . S
N95 Zn101 2.020 . S
C96 N95 1.307 1_556 S
C96 C100 1.370 . S
C96 H107 0.948 . S
C97 N95 1.333 . S
C97 C98 1.379 . S
C97 H105 0.952 . S
C98 C97 1.379 . S
C98 C99 1.390 . S
C98 H118 0.949 . S
C99 C98 1.390 . S
C99 C100 1.352 1_554 S
C100 C96 1.370 . S
C100 C99 1.352 1_556 S
C100 H119 0.955 . S
Zn101 N95 2.020 . S
Zn101 O104 2.025 1_554 S
Zn101 O109 2.024 . S
Zn101 O111 2.039 . S
Zn101 O113 2.034 1_554 S
O102 C86 1.251 . S
O102 Zn93 2.039 1_556 S
C103 O108 1.246 . S
C103 O109 1.249 . S
O104 C86 1.254 . S
O104 Zn101 2.025 1_556 S
H105 C97 0.952 . S
H106 C88 0.952 . S
H107 C96 0.948 . S
O108 Zn93 2.034 . S
O108 C103 1.246 . S
O109 Zn101 2.024 . S
O109 C103 1.249 . S
H110 C92 0.948 . S
O111 Zn101 2.039 . S
O111 C115 1.251 . S
O112 Zn93 2.025 . S
O112 C115 1.254 . S
O113 C94 1.246 . S
O113 Zn101 2.034 1_556 S
O114 Zn93 2.024 1_556 S
O114 C94 1.249 . S
C115 O111 1.251 . S
C115 O112 1.254 . S
H116 C89 0.949 . S
H117 C91 0.950 . S
H118 C98 0.949 . S
H119 C100 0.955 . S
C120 C121 1.349 . S
C120 C122 1.327 . S
C120 H145 0.950 . S
C121 C120 1.349 . S
C121 C137 1.349 . S
C122 C120 1.327 . S
C122 C141 1.429 . S
C122 H146 0.950 . S
C123 C140 1.574 . S
C123 C142 1.368 . S
C123 H147 0.949 . S
H124 C128 0.949 . S
C125 C126 1.349 . S
C125 C127 1.327 . S
C125 H148 0.950 . S
C126 C125 1.349 . S
C126 C138 1.349 . S
C127 C125 1.327 . S
C127 C143 1.429 . S
C127 H149 0.950 . S
C128 H124 0.949 . S
C128 C136 1.574 . S
C128 C144 1.368 . S
H129 C137 0.950 . S
H130 C135 0.950 . S
H131 C136 0.949 . S
H132 C138 0.950 . S
H133 C139 0.950 . S
H134 C140 0.949 . S
C135 H130 0.950 . S
C135 C137 1.327 . S
C135 C141 1.429 . S
C136 C128 1.574 . S
C136 H131 0.949 . S
C136 C142 1.368 . S
C137 C121 1.349 . S
C137 H129 0.950 . S
C137 C135 1.327 . S
C138 C126 1.349 . S
C138 H132 0.950 . S
C138 C139 1.327 . S
C139 H133 0.950 . S
C139 C138 1.327 . S
C139 C143 1.429 . S
C140 C123 1.574 . S
C140 H134 0.949 . S
C140 C144 1.368 . S
C141 C122 1.429 . S
C141 C135 1.429 . S
C141 C142 1.523 . S
C142 C123 1.368 . S
C142 C136 1.368 . S
C142 C141 1.523 . S
C143 C127 1.429 . S
C143 C139 1.429 . S
C143 C144 1.523 . S
C144 C128 1.368 . S
C144 C140 1.368 . S
C144 C143 1.523 . S
H145 C120 0.950 . S
H146 C122 0.950 . S
H147 C123 0.949 . S
H148 C125 0.950 . S
H149 C127 0.950 . S
C150 C151 1.349 . S
C150 C152 1.327 . S
C150 H175 0.950 . S
C151 C150 1.349 . S
C151 C167 1.349 1_554 S
C152 C150 1.327 . S
C152 C171 1.429 . S
C152 H176 0.950 . S
C153 C170 1.574 . S
C153 C172 1.368 1_556 S
C153 H177 0.949 . S
H154 C158 0.949 . S
C155 C156 1.349 1_556 S
C155 C157 1.327 . S
C155 H178 0.950 . S
C156 C155 1.349 1_554 S
C156 C168 1.349 . S
C157 C155 1.327 . S
C157 C173 1.429 1_556 S
C157 H179 0.950 . S
C158 H154 0.949 . S
C158 C166 1.574 . S
C158 C174 1.368 . S
H159 C167 0.950 . S
H160 C165 0.950 . S
H161 C166 0.949 . S
H162 C168 0.950 . S
H163 C169 0.950 . S
H164 C170 0.949 . S
C165 H160 0.950 . S
C165 C167 1.327 . S
C165 C171 1.429 1_556 S
C166 C158 1.574 . S
C166 H161 0.949 . S
C166 C172 1.368 . S
C167 C151 1.349 1_556 S
C167 H159 0.950 . S
C167 C165 1.327 . S
C168 C156 1.349 . S
C168 H162 0.950 . S
C168 C169 1.327 . S
C169 H163 0.950 . S
C169 C168 1.327 . S
C169 C173 1.429 . S
C170 C153 1.574 . S
C170 H164 0.949 . S
C170 C174 1.368 1_556 S
C171 C152 1.429 . S
C171 C165 1.429 1_554 S
C171 C172 1.523 . S
C172 C153 1.368 1_554 S
C172 C166 1.368 . S
C172 C171 1.523 . S
C173 C157 1.429 1_554 S
C173 C169 1.429 . S
C173 C174 1.523 . S
C174 C158 1.368 . S
C174 C170 1.368 1_554 S
C174 C173 1.523 . S
H175 C150 0.950 . S
H176 C152 0.950 . S
H177 C153 0.949 . S
H178 C155 0.950 . S
H179 C157 0.950 . S
C180 C181 1.349 . S
C180 C182 1.327 . S
C180 H205 0.950 . S
C181 C180 1.349 . S
C181 C197 1.349 . S
C182 C180 1.327 . S
C182 C201 1.429 . S
C182 H206 0.950 . S
C183 C200 1.574 . S
C183 C202 1.368 . S
C183 H207 0.949 . S
H184 C188 0.949 . S
C185 C186 1.349 . S
C185 C187 1.327 . S
C185 H208 0.950 . S
C186 C185 1.349 . S
C186 C198 1.349 . S
C187 C185 1.327 . S
C187 C203 1.429 . S
C187 H209 0.950 . S
C188 H184 0.949 . S
C188 C196 1.574 . S
C188 C204 1.368 . S
H189 C197 0.950 . S
H190 C195 0.950 . S
H191 C196 0.949 . S
H192 C198 0.950 . S
H193 C199 0.950 . S
H194 C200 0.949 . S
C195 H190 0.950 . S
C195 C197 1.327 . S
C195 C201 1.429 . S
C196 C188 1.574 . S
C196 H191 0.949 . S
C196 C202 1.368 . S
C197 C181 1.349 . S
C197 H189 0.950 . S
C197 C195 1.327 . S
C198 C186 1.349 . S
C198 H192 0.950 . S
C198 C199 1.327 . S
C199 H193 0.950 . S
C199 C198 1.327 . S
C199 C203 1.429 . S
C200 C183 1.574 . S
C200 H194 0.949 . S
C200 C204 1.368 . S
C201 C182 1.429 . S
C201 C195 1.429 . S
C201 C202 1.523 . S
C202 C183 1.368 . S
C202 C196 1.368 . S
C202 C201 1.523 . S
C203 C187 1.429 . S
C203 C199 1.429 . S
C203 C204 1.523 . S
C204 C188 1.368 . S
C204 C200 1.368 . S
C204 C203 1.523 . S
H205 C180 0.950 . S
H206 C182 0.950 . S
H207 C183 0.949 . S
H208 C185 0.950 . S
H209 C187 0.950 . S
C210 C211 1.366 . S
C210 C212 1.327 . S
C210 H235 0.950 . S
C211 C210 1.366 . S
C211 C227 1.332 1_556 S
C212 C210 1.327 . S
C212 C231 1.429 . S
C212 H236 0.950 . S
C213 C230 1.574 . S
C213 C232 1.372 . S
C213 H237 0.949 . S
H214 C218 0.949 . S
C215 C216 1.349 . S
C215 C217 1.327 . S
C215 H238 0.950 . S
C216 C215 1.349 . S
C216 C228 1.349 1_554 S
C217 C215 1.327 . S
C217 C233 1.429 . S
C217 H239 0.950 . S
C218 H214 0.949 . S
C218 C226 1.574 . S
C218 C234 1.368 1_556 S
H219 C227 0.950 . S
H220 C225 0.950 . S
H221 C226 0.949 . S
H222 C228 0.950 . S
H223 C229 0.950 . S
H224 C230 0.949 . S
C225 H220 0.950 . S
C225 C227 1.327 . S
C225 C231 1.428 1_554 S
C226 C218 1.574 . S
C226 H221 0.949 . S
C226 C232 1.364 1_556 S
C227 C211 1.332 1_554 S
C227 H219 0.950 . S
C227 C225 1.327 . S
C228 C216 1.349 1_556 S
C228 H222 0.950 . S
C228 C229 1.327 . S
C229 H223 0.950 . S
C229 C228 1.327 . S
C229 C233 1.429 1_556 S
C230 C213 1.574 . S
C230 H224 0.949 . S
C230 C234 1.368 . S
C231 C212 1.429 . S
C231 C225 1.428 1_556 S
C231 C232 1.523 1_556 S
C232 C213 1.372 . S
C232 C226 1.364 1_554 S
C232 C231 1.523 1_554 S
C233 C217 1.429 . S
C233 C229 1.429 1_554 S
C233 C234 1.523 . S
C234 C218 1.368 1_554 S
C234 C230 1.368 . S
C234 C233 1.523 . S
H235 C210 0.950 . S
H236 C212 0.950 . S
H237 C213 0.949 . S
H238 C215 0.950 . S
H239 C217 0.950 . S
C240 C241 1.349 . S
C240 C242 1.327 . S
C240 H265 0.950 . S
C241 C240 1.349 . S
C241 C257 1.349 . S
C242 C240 1.327 . S
C242 C261 1.429 . S
C242 H266 0.950 . S
C243 C260 1.574 . S
C243 C262 1.368 . S
C243 H267 0.949 . S
H244 C248 0.949 . S
C245 C246 1.349 . S
C245 C247 1.327 . S
C245 H268 0.950 . S
C246 C245 1.349 . S
C246 C258 1.349 . S
C247 C245 1.327 . S
C247 C263 1.429 . S
C247 H269 0.950 . S
C248 H244 0.949 . S
C248 C256 1.574 . S
C248 C264 1.368 . S
H249 C257 0.950 . S
H250 C255 0.950 . S
H251 C256 0.949 . S
H252 C258 0.950 . S
H253 C259 0.950 . S
H254 C260 0.949 . S
C255 H250 0.950 . S
C255 C257 1.327 . S
C255 C261 1.429 . S
C256 C248 1.574 . S
C256 H251 0.949 . S
C256 C262 1.368 . S
C257 C241 1.349 . S
C257 H249 0.950 . S
C257 C255 1.327 . S
C258 C246 1.349 . S
C258 H252 0.950 . S
C258 C259 1.327 . S
C259 H253 0.950 . S
C259 C258 1.327 . S
C259 C263 1.429 . S
C260 C243 1.574 . S
C260 H254 0.949 . S
C260 C264 1.368 . S
C261 C242 1.429 . S
C261 C255 1.429 . S
C261 C262 1.523 . S
C262 C243 1.368 . S
C262 C256 1.368 . S
C262 C261 1.523 . S
C263 C247 1.429 . S
C263 C259 1.429 . S
C263 C264 1.523 . S
C264 C248 1.368 . S
C264 C260 1.368 . S
C264 C263 1.523 . S
H265 C240 0.950 . S
H266 C242 0.950 . S
H267 C243 0.949 . S
H268 C245 0.950 . S
H269 C247 0.950 . S
C270 C271 1.349 . S
C270 C272 1.327 . S
C270 H295 0.950 . S
C271 C270 1.349 . S
C271 C287 1.349 . S
C272 C270 1.327 . S
C272 C291 1.429 . S
C272 H296 0.950 . S
C273 C290 1.574 . S
C273 C292 1.368 . S
C273 H297 0.949 . S
H274 C278 0.949 . S
C275 C276 1.349 . S
C275 C277 1.327 . S
C275 H298 0.950 . S
C276 C275 1.349 . S
C276 C288 1.349 . S
C277 C275 1.327 . S
C277 C293 1.429 . S
C277 H299 0.950 . S
C278 H274 0.949 . S
C278 C286 1.574 . S
C278 C294 1.368 . S
H279 C287 0.950 . S
H280 C285 0.950 . S
H281 C286 0.949 . S
H282 C288 0.950 . S
H283 C289 0.950 . S
H284 C290 0.949 . S
C285 H280 0.950 . S
C285 C287 1.327 . S
C285 C291 1.429 . S
C286 C278 1.574 . S
C286 H281 0.949 . S
C286 C292 1.368 . S
C287 C271 1.349 . S
C287 H279 0.950 . S
C287 C285 1.327 . S
C288 C276 1.349 . S
C288 H282 0.950 . S
C288 C289 1.327 . S
C289 H283 0.950 . S
C289 C288 1.327 . S
C289 C293 1.429 . S
C290 C273 1.574 . S
C290 H284 0.949 . S
C290 C294 1.368 . S
C291 C272 1.429 . S
C291 C285 1.429 . S
C291 C292 1.523 . S
C292 C273 1.368 . S
C292 C286 1.368 . S
C292 C291 1.523 . S
C293 C277 1.429 . S
C293 C289 1.429 . S
C293 C294 1.523 . S
C294 C278 1.368 . S
C294 C290 1.368 . S
C294 C293 1.523 . S
H295 C270 0.950 . S
H296 C272 0.950 . S
H297 C273 0.949 . S
H298 C275 0.950 . S
H299 C277 0.950 . S
C300 C301 1.349 . S
C300 C302 1.327 . S
C300 H325 0.950 . S
C301 C300 1.349 . S
C301 C317 1.349 . S
C302 C300 1.327 . S
C302 C321 1.429 . S
C302 H326 0.950 . S
C303 C320 1.574 . S
C303 C322 1.368 . S
C303 H327 0.949 . S
H304 C308 0.949 . S
C305 C306 1.349 . S
C305 C307 1.327 . S
C305 H328 0.950 . S
C306 C305 1.349 . S
C306 C318 1.349 . S
C307 C305 1.327 . S
C307 C323 1.429 . S
C307 H329 0.950 . S
C308 H304 0.949 . S
C308 C316 1.574 . S
C308 C324 1.368 . S
H309 C317 0.950 . S
H310 C315 0.950 . S
H311 C316 0.949 . S
H312 C318 0.950 . S
H313 C319 0.950 . S
H314 C320 0.949 . S
C315 H310 0.950 . S
C315 C317 1.327 . S
C315 C321 1.429 . S
C316 C308 1.574 . S
C316 H311 0.949 . S
C316 C322 1.368 . S
C317 C301 1.349 . S
C317 H309 0.950 . S
C317 C315 1.327 . S
C318 C306 1.349 . S
C318 H312 0.950 . S
C318 C319 1.327 . S
C319 H313 0.950 . S
C319 C318 1.327 . S
C319 C323 1.429 . S
C320 C303 1.574 . S
C320 H314 0.949 . S
C320 C324 1.368 . S
C321 C302 1.429 . S
C321 C315 1.429 . S
C321 C322 1.523 . S
C322 C303 1.368 . S
C322 C316 1.368 . S
C322 C321 1.523 . S
C323 C307 1.429 . S
C323 C319 1.429 . S
C323 C324 1.523 . S
C324 C308 1.368 . S
C324 C320 1.368 . S
C324 C323 1.523 . S
H325 C300 0.950 . S
H326 C302 0.950 . S
H327 C303 0.949 . S
H328 C305 0.950 . S
H329 C307 0.950 . S
C330 C331 1.349 . S
C330 C332 1.327 . S
C330 H355 0.950 . S
C331 C330 1.349 . S
C331 C347 1.349 . S
C332 C330 1.327 . S
C332 C351 1.429 . S
C332 H356 0.950 . S
C333 C350 1.574 . S
C333 C352 1.368 . S
C333 H357 0.949 . S
H334 C338 0.949 . S
C335 C336 1.349 . S
C335 C337 1.327 . S
C335 H358 0.950 . S
C336 C335 1.349 . S
C336 C348 1.349 . S
C337 C335 1.327 . S
C337 C353 1.429 . S
C337 H359 0.950 . S
C338 H334 0.949 . S
C338 C346 1.574 . S
C338 C354 1.368 . S
H339 C347 0.950 . S
H340 C345 0.950 . S
H341 C346 0.949 . S
H342 C348 0.950 . S
H343 C349 0.950 . S
H344 C350 0.949 . S
C345 H340 0.950 . S
C345 C347 1.327 . S
C345 C351 1.429 . S
C346 C338 1.574 . S
C346 H341 0.949 . S
C346 C352 1.368 . S
C347 C331 1.349 . S
C347 H339 0.950 . S
C347 C345 1.327 . S
C348 C336 1.349 . S
C348 H342 0.950 . S
C348 C349 1.327 . S
C349 H343 0.950 . S
C349 C348 1.327 . S
C349 C353 1.429 . S
C350 C333 1.574 . S
C350 H344 0.949 . S
C350 C354 1.368 . S
C351 C332 1.429 . S
C351 C345 1.429 . S
C351 C352 1.523 . S
C352 C333 1.368 . S
C352 C346 1.368 . S
C352 C351 1.523 . S
C353 C337 1.429 . S
C353 C349 1.429 . S
C353 C354 1.523 . S
C354 C338 1.368 . S
C354 C350 1.368 . S
C354 C353 1.523 . S
H355 C330 0.950 . S
H356 C332 0.950 . S
H357 C333 0.949 . S
H358 C335 0.950 . S
H359 C337 0.950 . S
C360 C361 1.349 . S
C360 C362 1.327 . S
C360 H385 0.950 . S
C361 C360 1.349 . S
C361 C377 1.349 . S
C362 C360 1.327 . S
C362 C381 1.429 . S
C362 H386 0.950 . S
C363 C380 1.574 . S
C363 C382 1.368 . S
C363 H387 0.949 . S
H364 C368 0.949 . S
C365 C366 1.349 . S
C365 C367 1.327 . S
C365 H388 0.950 . S
C366 C365 1.349 . S
C366 C378 1.349 . S
C367 C365 1.327 . S
C367 C383 1.429 . S
C367 H389 0.950 . S
C368 H364 0.949 . S
C368 C376 1.574 . S
C368 C384 1.368 . S
H369 C377 0.950 . S
H370 C375 0.950 . S
H371 C376 0.949 . S
H372 C378 0.950 . S
H373 C379 0.950 . S
H374 C380 0.949 . S
C375 H370 0.950 . S
C375 C377 1.327 . S
C375 C381 1.429 . S
C376 C368 1.574 . S
C376 H371 0.949 . S
C376 C382 1.368 . S
C377 C361 1.349 . S
C377 H369 0.950 . S
C377 C375 1.327 . S
C378 C366 1.349 . S
C378 H372 0.950 . S
C378 C379 1.327 . S
C379 H373 0.950 . S
C379 C378 1.327 . S
C379 C383 1.429 . S
C380 C363 1.574 . S
C380 H374 0.949 . S
C380 C384 1.368 . S
C381 C362 1.429 . S
C381 C375 1.429 . S
C381 C382 1.523 . S
C382 C363 1.368 . S
C382 C376 1.368 . S
C382 C381 1.523 . S
C383 C367 1.429 . S
C383 C379 1.429 . S
C383 C384 1.523 . S
C384 C368 1.368 . S
C384 C380 1.368 . S
C384 C383 1.523 . S
H385 C360 0.950 . S
H386 C362 0.950 . S
H387 C363 0.949 . S
H388 C365 0.950 . S
H389 C367 0.950 . S
C390 C391 1.349 . S
C390 C392 1.327 . S
C390 H415 0.950 . S
C391 C390 1.349 . S
C391 C407 1.349 . S
C392 C390 1.327 . S
C392 C411 1.429 . S
C392 H416 0.950 . S
C393 C410 1.574 . S
C393 C412 1.368 . S
C393 H417 0.949 . S
H394 C398 0.949 . S
C395 C396 1.349 . S
C395 C397 1.327 . S
C395 H418 0.950 . S
C396 C395 1.349 . S
C396 C408 1.349 . S
C397 C395 1.327 . S
C397 C413 1.429 . S
C397 H419 0.950 . S
C398 H394 0.949 . S
C398 C406 1.574 . S
C398 C414 1.368 . S
H399 C407 0.950 . S
H400 C405 0.950 . S
H401 C406 0.949 . S
H402 C408 0.950 . S
H403 C409 0.950 . S
H404 C410 0.949 . S
C405 H400 0.950 . S
C405 C407 1.327 . S
C405 C411 1.429 . S
C406 C398 1.574 . S
C406 H401 0.949 . S
C406 C412 1.368 . S
C407 C391 1.349 . S
C407 H399 0.950 . S
C407 C405 1.327 . S
C408 C396 1.349 . S
C408 H402 0.950 . S
C408 C409 1.327 . S
C409 H403 0.950 . S
C409 C408 1.327 . S
C409 C413 1.429 . S
C410 C393 1.574 . S
C410 H404 0.949 . S
C410 C414 1.368 . S
C411 C392 1.429 . S
C411 C405 1.429 . S
C411 C412 1.523 . S
C412 C393 1.368 . S
C412 C406 1.368 . S
C412 C411 1.523 . S
C413 C397 1.429 . S
C413 C409 1.429 . S
C413 C414 1.523 . S
C414 C398 1.368 . S
C414 C410 1.368 . S
C414 C413 1.523 . S
H415 C390 0.950 . S
H416 C392 0.950 . S
H417 C393 0.949 . S
H418 C395 0.950 . S
H419 C397 0.950 . S
C420 C421 1.349 . S
C420 C422 1.327 . S
C420 H445 0.950 . S
C421 C420 1.349 . S
C421 C437 1.349 . S
C422 C420 1.327 . S
C422 C441 1.429 . S
C422 H446 0.950 . S
C423 C440 1.574 . S
C423 C442 1.368 . S
C423 H447 0.949 . S
H424 C428 0.949 . S
C425 C426 1.349 . S
C425 C427 1.327 . S
C425 H448 0.950 . S
C426 C425 1.349 . S
C426 C438 1.349 . S
C427 C425 1.327 . S
C427 C443 1.429 . S
C427 H449 0.950 . S
C428 H424 0.949 . S
C428 C436 1.574 . S
C428 C444 1.368 . S
H429 C437 0.950 . S
H430 C435 0.950 . S
H431 C436 0.949 . S
H432 C438 0.950 . S
H433 C439 0.950 . S
H434 C440 0.949 . S
C435 H430 0.950 . S
C435 C437 1.327 . S
C435 C441 1.429 . S
C436 C428 1.574 . S
C436 H431 0.949 . S
C436 C442 1.368 . S
C437 C421 1.349 . S
C437 H429 0.950 . S
C437 C435 1.327 . S
C438 C426 1.349 . S
C438 H432 0.950 . S
C438 C439 1.327 . S
C439 H433 0.950 . S
C439 C438 1.327 . S
C439 C443 1.429 . S
C440 C423 1.574 . S
C440 H434 0.949 . S
C440 C444 1.368 . S
C441 C422 1.429 . S
C441 C435 1.429 . S
C441 C442 1.523 . S
C442 C423 1.368 . S
C442 C436 1.368 . S
C442 C441 1.523 . S
C443 C427 1.429 . S
C443 C439 1.429 . S
C443 C444 1.523 . S
C444 C428 1.368 . S
C444 C440 1.368 . S
C444 C443 1.523 . S
H445 C420 0.950 . S
H446 C422 0.950 . S
H447 C423 0.949 . S
H448 C425 0.950 . S
H449 C427 0.950 . S
C450 C451 1.349 . S
C450 C452 1.327 . S
C450 H475 0.950 . S
C451 C450 1.349 . S
C451 C467 1.349 . S
C452 C450 1.327 . S
C452 C471 1.429 . S
C452 H476 0.950 . S
C453 C470 1.574 . S
C453 C472 1.368 . S
C453 H477 0.949 . S
H454 C458 0.949 . S
C455 C456 1.349 . S
C455 C457 1.327 . S
C455 H478 0.950 . S
C456 C455 1.349 . S
C456 C468 1.349 . S
C457 C455 1.327 . S
C457 C473 1.429 . S
C457 H479 0.950 . S
C458 H454 0.949 . S
C458 C466 1.574 . S
C458 C474 1.368 . S
H459 C467 0.950 . S
H460 C465 0.950 . S
H461 C466 0.949 . S
H462 C468 0.950 . S
H463 C469 0.950 . S
H464 C470 0.949 . S
C465 H460 0.950 . S
C465 C467 1.327 . S
C465 C471 1.429 . S
C466 C458 1.574 . S
C466 H461 0.949 . S
C466 C472 1.368 . S
C467 C451 1.349 . S
C467 H459 0.950 . S
C467 C465 1.327 . S
C468 C456 1.349 . S
C468 H462 0.950 . S
C468 C469 1.327 . S
C469 H463 0.950 . S
C469 C468 1.327 . S
C469 C473 1.429 . S
C470 C453 1.574 . S
C470 H464 0.949 . S
C470 C474 1.368 . S
C471 C452 1.429 . S
C471 C465 1.429 . S
C471 C472 1.523 . S
C472 C453 1.368 . S
C472 C466 1.368 . S
C472 C471 1.523 . S
C473 C457 1.429 . S
C473 C469 1.429 . S
C473 C474 1.523 . S
C474 C458 1.368 . S
C474 C470 1.368 . S
C474 C473 1.523 . S
H475 C450 0.950 . S
H476 C452 0.950 . S
H477 C453 0.949 . S
H478 C455 0.950 . S
H479 C457 0.950 . S
C126 C56 1.510 . S
C121 C43 1.457 . S
C151 C4 1.463 . S
C156 C99 1.512 . S
C181 C17 1.463 . S
C186 C65 1.510 . S
C211 C30 1.473 . S
C216 C90 1.512 . S
C246 C52 1.512 . S
C241 C9 1.492 . S
C276 C94 1.510 . S
C271 C21 1.509 . S
C301 C34 1.510 . S
C306 C60 1.510 . S
C331 C48 1.493 . S
C336 C86 1.511 . S
C366 C115 1.511 . S
C361 C22 1.494 . S
C396 C81 1.512 . S
C391 C35 1.492 . S
C426 C103 1.510 . S
C421 C47 1.509 . S
C451 C8 1.509 . S
C456 C69 1.510 . S
