# Generated by pormake.
# Topology pth, (4,4)-cn, num edge types: 1
# Building blocks:
#     Node 0, Type 0, BuildingBlock: UXUYUI_clean_sbu_0, # of connection points: 4
#     Node 1, Type 0, BuildingBlock: UXUYUI_clean_sbu_0, # of connection points: 4
#     Node 2, Type 0, BuildingBlock: UXUYUI_clean_sbu_0, # of connection points: 4
#     Node 3, Type 1, BuildingBlock: NAHDIM_clean_linker_0, # of connection points: 4
#     Node 4, Type 1, BuildingBlock: NAHDIM_clean_linker_0, # of connection points: 4
#     Node 5, Type 1, BuildingBlock: NAHDIM_clean_linker_0, # of connection points: 4
#     Edge 6, Type (0, 1), BuildingBlock: MIFKUJ_clean_linker_0, # of connection points: 2
#     Edge 7, Type (0, 1), BuildingBlock: MIFKUJ_clean_linker_0, # of connection points: 2
#     Edge 8, Type (0, 1), BuildingBlock: MIFKUJ_clean_linker_0, # of connection points: 2
#     Edge 9, Type (0, 1), BuildingBlock: MIFKUJ_clean_linker_0, # of connection points: 2
#     Edge 10, Type (0, 1), BuildingBlock: MIFKUJ_clean_linker_0, # of connection points: 2
#     Edge 11, Type (0, 1), BuildingBlock: MIFKUJ_clean_linker_0, # of connection points: 2
#     Edge 12, Type (0, 1), BuildingBlock: MIFKUJ_clean_linker_0, # of connection points: 2
#     Edge 13, Type (0, 1), BuildingBlock: MIFKUJ_clean_linker_0, # of connection points: 2
#     Edge 14, Type (0, 1), BuildingBlock: MIFKUJ_clean_linker_0, # of connection points: 2
#     Edge 15, Type (0, 1), BuildingBlock: MIFKUJ_clean_linker_0, # of connection points: 2
#     Edge 16, Type (0, 1), BuildingBlock: MIFKUJ_clean_linker_0, # of connection points: 2
#     Edge 17, Type (0, 1), BuildingBlock: MIFKUJ_clean_linker_0, # of connection points: 2
# Relax obj value: 0.093
# Max RMSD: 0.220
# Mean RMSD: 0.135
data_MOF--net-pth--node1-UXUYUI_clean_sbu_0--node2-NAHDIM_clean_linker_0--edge1-MIFKUJ_clean_linker_0
_symmetry_space_group_name_H-M    P1
_symmetry_Int_Tables_number       1
_symmetry_cell_setting            triclinic
loop_
_symmetry_equiv_pos_as_xyz
'x, y, z'
_cell_length_a     43.613079
_cell_length_b     43.617331
_cell_length_c     111.06493
_cell_angle_alpha  89.771438
_cell_angle_beta   90.31399
_cell_angle_gamma 119.95957
loop_
_atom_site_label
_atom_site_type_symbol
_atom_site_fract_x
_atom_site_fract_y
_atom_site_fract_z
_atom_type_partial_charge
Li0 Li 0.04495 0.04335 0.076 0.0
Li1 Li 0.00749 0.04355 0.09312 0.0
Li2 Li 0.02618 0.00093 0.09192 0.0
Li3 Li 0.98245 0.99561 0.07797 0.0
C4 C 0.08058 0.05388 0.10152 0.0
N5 N 0.12641 0.05139 0.11824 0.0
C6 C 0.07642 0.05808 0.11376 0.0
C7 C 0.10815 0.04863 0.09776 0.0
C8 C 0.09985 0.05669 0.12207 0.0
C9 C 0.13102 0.0474 0.10636 0.0
C10 C 0.99904 0.07245 0.06931 0.0
C11 C 0.96673 0.0924 0.05697 0.0
N12 N 0.99589 0.1252 0.05647 0.0
C13 C 0.02868 0.10637 0.06869 0.0
C14 C 0.96781 0.06536 0.0634 0.0
C15 C 0.02657 0.13267 0.06215 0.0
C16 C 0.06703 0.06915 0.05287 0.0
N17 N 0.07895 0.07176 0.06436 0.0
C18 C 0.13654 0.11791 0.05874 0.0
C19 C 0.11297 0.09529 0.06744 0.0
C20 C 0.12456 0.1166 0.0469 0.0
C21 C 0.08946 0.09167 0.04396 0.0
H22 H 0.03974 0.05028 0.05074 0.0
H23 H 0.12153 0.09719 0.07669 0.0
C24 C 0.98736 0.06013 0.11506 0.0
N25 N 0.99738 0.07193 0.10361 0.0
C26 C 0.98094 0.08035 0.12331 0.0
C27 C 0.9949 0.12434 0.1078 0.0
C28 C 0.00096 0.10324 0.09986 0.0
C29 C 0.98506 0.11314 0.11974 0.0
H30 H 0.98488 0.03521 0.11785 0.0
H31 H 0.00924 0.11233 0.0908 0.0
C32 C 0.01566 0.95766 0.0718 0.0
N33 N 0.99679 0.88859 0.06651 0.0
C34 C 0.98989 0.92982 0.07865 0.0
C35 C 0.03184 0.95039 0.06228 0.0
C36 C 0.98069 0.89508 0.07582 0.0
C37 C 0.02195 0.91528 0.05975 0.0
C38 C 0.94469 0.98363 0.09909 0.0
C39 C 0.92665 0.95838 0.10804 0.0
C40 C 0.92836 0.00057 0.0935 0.0
C41 C 0.89252 0.95044 0.11123 0.0
C42 C 0.89421 0.9919 0.09694 0.0
N43 N 0.87714 0.96722 0.10566 0.0
C44 C 0.0258 0.96645 0.11312 0.0
C45 C 0.05925 0.95989 0.09761 0.0
C46 C 0.03147 0.94413 0.12066 0.0
N47 N 0.03925 0.97347 0.1018 0.0
C48 C 0.06526 0.93706 0.10482 0.0
C49 C 0.05087 0.92861 0.11645 0.0
H50 H 0.00999 0.97765 0.11618 0.0
H51 H 0.06989 0.96617 0.0886 0.0
C52 C 0.94316 0.97281 0.05667 0.0
N53 N 0.94238 0.9648 0.06853 0.0
C54 C 0.91607 0.94977 0.04896 0.0
C55 C 0.88766 0.91088 0.06588 0.0
C56 C 0.91531 0.93465 0.07325 0.0
C57 C 0.88805 0.91807 0.05353 0.0
H58 H 0.96539 0.99668 0.05314 0.0
H59 H 0.91562 0.92846 0.08266 0.0
O60 O 0.05734 0.0542 0.09327 0.0
O61 O 0.00071 0.04602 0.07543 0.0
O62 O 0.02545 0.99198 0.07442 0.0
O63 O 0.9781 0.99143 0.09591 0.0
H64 H 0.05518 0.06209 0.11681 0.0
H65 H 0.11143 0.04483 0.08833 0.0
H66 H 0.09685 0.05972 0.13158 0.0
H67 H 0.1523 0.04307 0.1036 0.0
H68 H 0.94272 0.0873 0.05236 0.0
H69 H 0.05297 0.11242 0.07331 0.0
H70 H 0.94461 0.03926 0.0638 0.0
H71 H 0.04929 0.15904 0.0616 0.0
H72 H 0.16338 0.13712 0.06133 0.0
H73 H 0.0794 0.08991 0.0349 0.0
H74 H 0.97317 0.07056 0.1324 0.0
H75 H 0.9991 0.14972 0.1047 0.0
H76 H 0.97729 0.93496 0.08611 0.0
H77 H 0.05192 0.97169 0.05693 0.0
H78 H 0.96082 0.87328 0.08105 0.0
H79 H 0.0343 0.90927 0.05242 0.0
H80 H 0.93891 0.94501 0.11244 0.0
H81 H 0.94178 0.02018 0.08658 0.0
H82 H 0.87825 0.93092 0.11813 0.0
H83 H 0.88128 0.00479 0.09269 0.0
H84 H 0.01953 0.93794 0.12951 0.0
H85 H 0.08056 0.92579 0.10129 0.0
H86 H 0.9178 0.95609 0.03946 0.0
H87 H 0.86648 0.88687 0.06979 0.0
Li88 Li 0.01602 0.99868 0.40968 0.0
Li89 Li 0.0561 0.04154 0.42467 0.0
Li90 Li 0.99104 0.02156 0.42459 0.0
Li91 Li 0.03065 0.06281 0.40919 0.0
C92 C 0.00241 0.95907 0.43086 0.0
N93 N 0.97735 0.8893 0.43728 0.0
C94 C 0.0247 0.9492 0.43666 0.0
C95 C 0.9673 0.93354 0.42844 0.0
C96 C 0.01155 0.91377 0.43981 0.0
C97 C 0.95515 0.89838 0.43173 0.0
C98 C 0.09593 0.05335 0.40358 0.0
C99 C 0.15517 0.09998 0.39912 0.0
N100 N 0.16467 0.07528 0.39676 0.0
C101 C 0.10612 0.02843 0.40093 0.0
C102 C 0.12049 0.08941 0.40252 0.0
C103 C 0.14106 0.04005 0.39757 0.0
C104 C 0.99413 0.95858 0.38856 0.0
N105 N 0.00797 0.96006 0.39968 0.0
C106 C 0.0122 0.90856 0.39555 0.0
C107 C 0.01736 0.93599 0.40324 0.0
C108 C 0.9981 0.9065 0.384 0.0
C109 C 0.98908 0.93194 0.3805 0.0
H110 H 0.98742 0.97841 0.3859 0.0
H111 H 0.02953 0.93843 0.41193 0.0
C112 C 0.10595 0.07617 0.44368 0.0
N113 N 0.09637 0.05283 0.43441 0.0
C114 C 0.13468 0.08275 0.45105 0.0
C115 C 0.14296 0.04109 0.43921 0.0
C116 C 0.11405 0.03521 0.43213 0.0
C117 C 0.15352 0.065 0.44886 0.0
H118 H 0.09087 0.08912 0.44553 0.0
H119 H 0.10498 0.0157 0.42505 0.0
C120 C 0.95023 0.0073 0.40376 0.0
N121 N 0.88061 0.98419 0.39757 0.0
C122 C 0.93952 0.03173 0.40082 0.0
C123 C 0.92571 0.9711 0.40332 0.0
C124 C 0.90415 0.01953 0.39779 0.0
C125 C 0.89059 0.95995 0.40023 0.0
C126 C 0.04613 0.10476 0.42986 0.0
C127 C 0.02509 0.11622 0.43552 0.0
C128 C 0.08137 0.12914 0.42718 0.0
C129 C 0.0396 0.15208 0.43827 0.0
C130 C 0.0949 0.16476 0.43007 0.0
N131 N 0.0739 0.17541 0.4355 0.0
C132 C 0.94038 0.98807 0.44344 0.0
C133 C 0.93491 0.03075 0.43181 0.0
C134 C 0.91198 0.98274 0.45068 0.0
N135 N 0.95111 0.01168 0.43419 0.0
C136 C 0.90638 0.02616 0.43875 0.0
C137 C 0.89465 0.00202 0.44838 0.0
H138 H 0.95427 0.9739 0.44537 0.0
H139 H 0.94481 0.05032 0.42471 0.0
C140 C 0.05179 0.1011 0.38762 0.0
N141 N 0.03839 0.10044 0.3987 0.0
C142 C 0.05597 0.12679 0.37922 0.0
C143 C 0.03312 0.15104 0.39388 0.0
C144 C 0.02885 0.12455 0.40192 0.0
C145 C 0.0465 0.15211 0.38233 0.0
H146 H 0.05862 0.08123 0.38524 0.0
H147 H 0.01703 0.12271 0.4106 0.0
O148 O 0.01498 0.99357 0.4276 0.0
O149 O 0.06179 0.04243 0.40684 0.0
O150 O 0.98476 0.01878 0.40673 0.0
O151 O 0.0322 0.06982 0.42698 0.0
H152 H 0.05189 0.96866 0.43867 0.0
H153 H 0.9496 0.94083 0.42413 0.0
H154 H 0.02854 0.90573 0.44425 0.0
H155 H 0.92805 0.87833 0.42988 0.0
H156 H 0.1745 0.12781 0.39832 0.0
H157 H 0.08733 0.00041 0.40157 0.0
H158 H 0.11281 0.10905 0.40418 0.0
H159 H 0.1494 0.02105 0.3956 0.0
H160 H 0.02001 0.88971 0.39848 0.0
H161 H 0.97811 0.93113 0.37166 0.0
H162 H 0.14183 0.10121 0.45846 0.0
H163 H 0.15604 0.02601 0.43743 0.0
H164 H 0.95827 0.05984 0.40098 0.0
H165 H 0.93374 0.95181 0.40523 0.0
H166 H 0.89543 0.03816 0.3956 0.0
H167 H 0.87129 0.93201 0.3999 0.0
H168 H 0.99783 0.09767 0.43773 0.0
H169 H 0.09812 0.1206 0.423 0.0
H170 H 0.02358 0.16135 0.4426 0.0
H171 H 0.12212 0.18393 0.42803 0.0
H172 H 0.90385 0.96395 0.45804 0.0
H173 H 0.89447 0.04231 0.43685 0.0
H174 H 0.06629 0.12679 0.37037 0.0
H175 H 0.02486 0.16971 0.3965 0.0
Li176 Li 0.04489 0.0251 0.74047 0.0
Li177 Li 0.04309 0.06718 0.75464 0.0
Li178 Li 0.99794 0.00245 0.75592 0.0
Li179 Li 0.99595 0.03984 0.73988 0.0
C180 C 0.06987 0.01239 0.76261 0.0
N181 N 0.10987 0.98408 0.77138 0.0
C182 C 0.10312 0.03441 0.76775 0.0
C183 C 0.05677 0.97592 0.7621 0.0
C184 C 0.123 0.01961 0.77208 0.0
C185 C 0.07743 0.96213 0.76654 0.0
C186 C 0.07349 0.10481 0.73439 0.0
C187 C 0.09346 0.16704 0.73229 0.0
N188 N 0.12653 0.17324 0.7297 0.0
C189 C 0.10756 0.11173 0.73158 0.0
C190 C 0.06626 0.13261 0.73463 0.0
C191 C 0.13406 0.14653 0.72929 0.0
C192 C 0.06257 0.00282 0.71942 0.0
N193 N 0.07454 0.01521 0.73069 0.0
C194 C 0.12883 0.01606 0.72686 0.0
C195 C 0.10703 0.02202 0.7345 0.0
C196 C 0.11724 0.00346 0.71515 0.0
C197 C 0.08358 0.9967 0.71146 0.0
H198 H 0.03679 0.99806 0.71659 0.0
H199 H 0.1165 0.03298 0.74332 0.0
C200 C 0.05695 0.11695 0.77302 0.0
N201 N 0.07206 0.10753 0.76419 0.0
C202 C 0.0781 0.14296 0.78136 0.0
C203 C 0.12991 0.14994 0.77106 0.0
C204 C 0.10777 0.12372 0.76297 0.0
C205 C 0.11513 0.15916 0.78062 0.0
H206 H 0.02851 0.10305 0.77397 0.0
H207 H 0.11913 0.11506 0.75609 0.0
C208 C 0.97443 0.95808 0.73542 0.0
N209 N 0.93683 0.88715 0.72943 0.0
C210 C 0.9391 0.94268 0.73174 0.0
C211 C 0.99084 0.93756 0.73579 0.0
C212 C 0.92047 0.90673 0.72883 0.0
C213 C 0.97134 0.90172 0.73279 0.0
C214 C 0.96642 0.05403 0.75877 0.0
C215 C 0.93284 0.02996 0.76317 0.0
C216 C 0.97425 0.08824 0.75564 0.0
C217 C 0.9074 0.04035 0.76414 0.0
C218 C 0.94809 0.09761 0.75674 0.0
N219 N 0.91547 0.07366 0.76091 0.0
C220 C 0.98285 0.96172 0.7773 0.0
C221 C 0.93477 0.94328 0.7637 0.0
C222 C 0.96128 0.93555 0.78553 0.0
N223 N 0.96935 0.9649 0.76661 0.0
C224 C 0.91224 0.91692 0.77166 0.0
C225 C 0.92538 0.91293 0.78278 0.0
H226 H 0.01017 0.98 0.77957 0.0
H227 H 0.92438 0.94721 0.75536 0.0
C228 C 0.97838 0.06809 0.71992 0.0
N229 N 0.96471 0.04589 0.72949 0.0
C230 C 0.956 0.07231 0.7119 0.0
C231 C 0.90594 0.03088 0.72379 0.0
C232 C 0.92925 0.02714 0.73149 0.0
C233 C 0.91929 0.0536 0.71382 0.0
H234 H 0.00664 0.08227 0.71845 0.0
H235 H 0.91903 0.00897 0.73899 0.0
O236 O 0.05013 0.02652 0.7583 0.0
O237 O 0.04722 0.0709 0.73668 0.0
O238 O 0.99308 0.9933 0.73826 0.0
O239 O 0.99156 0.04421 0.75762 0.0
H240 H 0.11357 0.06264 0.76833 0.0
H241 H 0.03073 0.95838 0.7585 0.0
H242 H 0.14886 0.03637 0.776 0.0
H243 H 0.0676 0.93395 0.76619 0.0
H244 H 0.08826 0.18883 0.73249 0.0
H245 H 0.11359 0.09054 0.73126 0.0
H246 H 0.0399 0.12766 0.73654 0.0
H247 H 0.1606 0.15229 0.72718 0.0
H248 H 0.15487 0.02221 0.72997 0.0
H249 H 0.07359 0.98677 0.70252 0.0
H250 H 0.06557 0.14881 0.78869 0.0
H251 H 0.1583 0.16193 0.7701 0.0
H252 H 0.92611 0.95824 0.73124 0.0
H253 H 0.01843 0.94921 0.73823 0.0
H254 H 0.89302 0.89441 0.72608 0.0
H255 H 0.9837 0.88553 0.73309 0.0
H256 H 0.92642 0.0035 0.76575 0.0
H257 H 0.00025 0.10733 0.75242 0.0
H258 H 0.88124 0.02192 0.76746 0.0
H259 H 0.95375 0.12395 0.75428 0.0
H260 H 0.97229 0.93372 0.79409 0.0
H261 H 0.88475 0.89996 0.76917 0.0
H262 H 0.96729 0.09023 0.70434 0.0
H263 H 0.87775 0.01564 0.72547 0.0
C264 C 0.93005 0.63139 0.29147 0.0
C265 C 0.95506 0.63301 0.30154 0.0
C266 C 0.99545 0.61802 0.29095 0.0
C267 C 0.02989 0.63187 0.28664 0.0
C268 C 0.03997 0.61082 0.28015 0.0
C269 C 0.01475 0.57501 0.27784 0.0
C270 C 0.97998 0.56052 0.28237 0.0
C271 C 0.9707 0.58209 0.28895 0.0
C272 C 0.07743 0.62698 0.2756 0.0
C273 C 0.95248 0.52239 0.28006 0.0
C274 C 0.03963 0.34979 0.30546 0.0
C275 C 0.03369 0.36879 0.29535 0.0
C276 C 0.05429 0.42924 0.28844 0.0
C277 C 0.02374 0.42041 0.2816 0.0
C278 C 0.01994 0.4465 0.27551 0.0
C279 C 0.04782 0.48211 0.27585 0.0
C280 C 0.07891 0.49106 0.28252 0.0
C281 C 0.08159 0.46447 0.28881 0.0
C282 C 0.98585 0.43587 0.26878 0.0
C283 C 0.10927 0.52864 0.28297 0.0
C284 C 0.07399 0.45153 0.19813 0.0
C285 C 0.04117 0.43481 0.20395 0.0
C286 C 0.02915 0.45474 0.21017 0.0
C287 C 0.05105 0.49201 0.21086 0.0
C288 C 0.0837 0.5089 0.20466 0.0
C289 C 0.09442 0.48837 0.19817 0.0
C290 C 0.99332 0.43587 0.21611 0.0
C291 C 0.10765 0.54853 0.2051 0.0
C292 C 0.92248 0.65665 0.2037 0.0
C293 C 0.95741 0.65721 0.20168 0.0
C294 C 0.96735 0.60693 0.20286 0.0
C295 C 0.94828 0.57025 0.20429 0.0
C296 C 0.96407 0.55204 0.20939 0.0
C297 C 0.0002 0.57104 0.21278 0.0
C298 C 0.02029 0.60792 0.2106 0.0
C299 C 0.00354 0.62559 0.20577 0.0
C300 C 0.94188 0.51267 0.21148 0.0
C301 C 0.05919 0.62874 0.21367 0.0
C302 C 0.02441 0.55317 0.27027 0.0
C303 C 0.03426 0.53079 0.27601 0.0
C304 C 0.04379 0.50971 0.26935 0.0
C305 C 0.04522 0.51221 0.25665 0.0
C306 C 0.05729 0.49346 0.24973 0.0
C307 C 0.05673 0.49452 0.23722 0.0
C308 C 0.04327 0.5137 0.23114 0.0
C309 C 0.04049 0.51319 0.21843 0.0
C310 C 0.02701 0.5326 0.2127 0.0
C311 C 0.01615 0.55266 0.21933 0.0
C312 C 0.01883 0.55357 0.23204 0.0
C313 C 0.00798 0.57333 0.23901 0.0
C314 C 0.01036 0.57376 0.2515 0.0
C315 C 0.02293 0.55382 0.25755 0.0
C316 C 0.03374 0.53352 0.25073 0.0
C317 C 0.03216 0.53379 0.23795 0.0
C318 C 0.125 0.41113 0.19701 0.0
C319 C 0.08664 0.40331 0.19693 0.0
O320 O 0.98741 0.64043 0.29681 0.0
O321 O 0.94993 0.62334 0.1987 0.0
O322 O 0.08642 0.43277 0.1923 0.0
O323 O 0.05809 0.40473 0.29489 0.0
H324 H 0.94283 0.60718 0.30635 0.0
H325 H 0.92431 0.60962 0.2851 0.0
H326 H 0.94205 0.6566 0.28631 0.0
H327 H 0.90453 0.62644 0.29534 0.0
H328 H 0.04887 0.6595 0.28828 0.0
H329 H 0.94401 0.57071 0.29232 0.0
H330 H 0.08903 0.61044 0.27838 0.0
H331 H 0.09461 0.65434 0.27898 0.0
H332 H 0.07732 0.62769 0.2656 0.0
H333 H 0.92626 0.51536 0.28386 0.0
H334 H 0.9613 0.50475 0.28411 0.0
H335 H 0.94947 0.51723 0.27022 0.0
H336 H 0.0289 0.35579 0.28637 0.0
H337 H 0.99463 0.33303 0.31631 0.0
H338 H 0.06737 0.36777 0.30885 0.0
H339 H 0.04626 0.33071 0.30099 0.0
H340 H 0.00248 0.39324 0.28108 0.0
H341 H 0.1051 0.47109 0.29407 0.0
H342 H 0.99069 0.43696 0.25895 0.0
H343 H 0.97608 0.45443 0.27079 0.0
H344 H 0.96475 0.4086 0.27109 0.0
H345 H 0.13304 0.53062 0.28745 0.0
H346 H 0.10104 0.54527 0.288 0.0
H347 H 0.11647 0.5396 0.27371 0.0
H348 H 0.07722 0.39834 0.20643 0.0
H349 H 0.02493 0.40625 0.20355 0.0
H350 H 0.11947 0.50091 0.19345 0.0
H351 H 0.99679 0.43472 0.22598 0.0
H352 H 0.97693 0.40836 0.21275 0.0
H353 H 0.97879 0.45042 0.21454 0.0
H354 H 0.13348 0.5572 0.20066 0.0
H355 H 0.11258 0.55772 0.21459 0.0
H356 H 0.09452 0.5616 0.20051 0.0
H357 H 0.97244 0.66567 0.21033 0.0
H358 H 0.92748 0.68322 0.20647 0.0
H359 H 0.90729 0.63751 0.21096 0.0
H360 H 0.90619 0.64855 0.19534 0.0
H361 H 0.9205 0.5561 0.20182 0.0
H362 H 0.01869 0.6539 0.20427 0.0
H363 H 0.94291 0.50658 0.22115 0.0
H364 H 0.95277 0.49871 0.20623 0.0
H365 H 0.91378 0.5021 0.20882 0.0
H366 H 0.07208 0.65593 0.20985 0.0
H367 H 0.07295 0.61493 0.21023 0.0
H368 H 0.06255 0.63074 0.2236 0.0
H369 H 0.0335 0.52902 0.28576 0.0
H370 H 0.06729 0.47773 0.25394 0.0
H371 H 0.06642 0.4796 0.23238 0.0
H372 H 0.02453 0.53176 0.20297 0.0
H373 H 0.99748 0.58872 0.23489 0.0
H374 H 0.00163 0.58947 0.25636 0.0
H375 H 0.1353 0.41473 0.18767 0.0
H376 H 0.12716 0.38936 0.2014 0.0
H377 H 0.14186 0.4358 0.20215 0.0
C378 C 0.31799 0.92596 0.62305 0.0
C379 C 0.34212 0.95376 0.63228 0.0
C380 C 0.3954 0.99427 0.62069 0.0
C381 C 0.41435 0.02834 0.61588 0.0
C382 C 0.44577 0.03935 0.60946 0.0
C383 C 0.45832 0.01542 0.60772 0.0
C384 C 0.43955 0.98097 0.61267 0.0
C385 C 0.40834 0.97074 0.61916 0.0
C386 C 0.46537 0.07646 0.60444 0.0
C387 C 0.45225 0.95483 0.61093 0.0
C388 C 0.72724 0.15606 0.62519 0.0
C389 C 0.70264 0.12284 0.63248 0.0
C390 C 0.65199 0.08497 0.61935 0.0
C391 C 0.63421 0.05178 0.61387 0.0
C392 C 0.60194 0.0402 0.60786 0.0
C393 C 0.58766 0.06301 0.60699 0.0
C394 C 0.60543 0.09667 0.61254 0.0
C395 C 0.63726 0.1072 0.61878 0.0
C396 C 0.58328 0.00366 0.60238 0.0
C397 C 0.59104 0.12171 0.61173 0.0
C398 C 0.6495 0.08888 0.53015 0.0
C399 C 0.63377 0.05494 0.53525 0.0
C400 C 0.60081 0.04048 0.54098 0.0
C401 C 0.58372 0.06079 0.54182 0.0
C402 C 0.59895 0.09444 0.53624 0.0
C403 C 0.63147 0.1078 0.53031 0.0
C404 C 0.5846 0.00384 0.54635 0.0
C405 C 0.58141 0.11671 0.53686 0.0
C406 C 0.28996 0.91754 0.53152 0.0
C407 C 0.32336 0.95397 0.53107 0.0
C408 C 0.38494 0.96803 0.53219 0.0
C409 C 0.40464 0.95088 0.53308 0.0
C410 C 0.4383 0.96758 0.53844 0.0
C411 C 0.45295 0.00276 0.54263 0.0
C412 C 0.43411 0.02114 0.54096 0.0
C413 C 0.40002 0.00338 0.5359 0.0
C414 C 0.45767 0.94721 0.53996 0.0
C415 C 0.44959 0.0592 0.5448 0.0
C416 C 0.49058 0.02627 0.60045 0.0
C417 C 0.52296 0.0394 0.60646 0.0
C418 C 0.55451 0.05175 0.60008 0.0
C419 C 0.55401 0.05195 0.58734 0.0
C420 C 0.58546 0.06619 0.58064 0.0
C421 C 0.58461 0.06533 0.56812 0.0
C422 C 0.55226 0.04984 0.56181 0.0
C423 C 0.55105 0.04771 0.54909 0.0
C424 C 0.51847 0.03271 0.54309 0.0
C425 C 0.48678 0.01936 0.54948 0.0
C426 C 0.48744 0.02087 0.56221 0.0
C427 C 0.45604 0.00717 0.56894 0.0
C428 C 0.45699 0.00916 0.58144 0.0
C429 C 0.48933 0.02426 0.58773 0.0
C430 C 0.52122 0.03752 0.58116 0.0
C431 C 0.52031 0.03617 0.56838 0.0
C432 C 0.74295 0.13773 0.52961 0.0
C433 C 0.71033 0.10074 0.5289 0.0
O434 O 0.3648 0.9854 0.62658 0.0
O435 O 0.35153 0.94962 0.52774 0.0
O436 O 0.68192 0.10412 0.52498 0.0
O437 O 0.68336 0.0944 0.62488 0.0
H438 H 0.35773 0.94386 0.63722 0.0
H439 H 0.33383 0.92017 0.61663 0.0
H440 H 0.30257 0.93549 0.61782 0.0
H441 H 0.29932 0.90089 0.62768 0.0
H442 H 0.40428 0.04634 0.61713 0.0
H443 H 0.39417 0.94428 0.62285 0.0
H444 H 0.49349 0.08984 0.60738 0.0
H445 H 0.45353 0.09264 0.60732 0.0
H446 H 0.46499 0.07536 0.59445 0.0
H447 H 0.43419 0.92869 0.61507 0.0
H448 H 0.47897 0.96546 0.615 0.0
H449 H 0.4546 0.95105 0.60117 0.0
H450 H 0.6844 0.12826 0.63786 0.0
H451 H 0.74351 0.17848 0.63135 0.0
H452 H 0.71165 0.16387 0.6193 0.0
H453 H 0.74511 0.15133 0.61938 0.0
H454 H 0.6457 0.03477 0.6144 0.0
H455 H 0.65059 0.13298 0.62298 0.0
H456 H 0.58537 0.0059 0.59243 0.0
H457 H 0.55473 0.98969 0.60471 0.0
H458 H 0.59489 0.98735 0.60545 0.0
H459 H 0.60959 0.14814 0.61558 0.0
H460 H 0.56564 0.11037 0.61669 0.0
H461 H 0.58553 0.12508 0.60219 0.0
H462 H 0.7055 0.08937 0.53817 0.0
H463 H 0.64719 0.03973 0.53474 0.0
H464 H 0.64367 0.13374 0.52614 0.0
H465 H 0.58663 0.00584 0.55631 0.0
H466 H 0.5981 0.98943 0.54324 0.0
H467 H 0.55608 0.98814 0.54395 0.0
H468 H 0.59763 0.14309 0.5326 0.0
H469 H 0.57656 0.12051 0.5464 0.0
H470 H 0.55534 0.10281 0.53223 0.0
H471 H 0.32779 0.96527 0.54033 0.0
H472 H 0.26697 0.91981 0.53459 0.0
H473 H 0.29387 0.90022 0.53796 0.0
H474 H 0.28395 0.9049 0.52249 0.0
H475 H 0.39289 0.92377 0.52999 0.0
H476 H 0.38524 0.01712 0.53486 0.0
H477 H 0.4649 0.9473 0.54957 0.0
H478 H 0.4826 0.96026 0.53471 0.0
H479 H 0.44165 0.91934 0.53689 0.0
H480 H 0.43463 0.07145 0.54096 0.0
H481 H 0.47767 0.07499 0.54196 0.0
H482 H 0.44889 0.06052 0.55476 0.0
H483 H 0.52358 0.03991 0.61622 0.0
H484 H 0.61112 0.07823 0.585 0.0
H485 H 0.60969 0.07676 0.56347 0.0
H486 H 0.51774 0.03115 0.53334 0.0
H487 H 0.4303 0.99483 0.56464 0.0
H488 H 0.43199 0.99834 0.58612 0.0
H489 H 0.74959 0.15032 0.52056 0.0
H490 H 0.76608 0.13639 0.5332 0.0
H491 H 0.73765 0.1546 0.53574 0.0
C492 C 0.64402 0.5924 0.83917 0.0
C493 C 0.65036 0.62366 0.84711 0.0
C494 C 0.62826 0.60305 0.86726 0.0
C495 C 0.60594 0.61724 0.86889 0.0
C496 C 0.57737 0.6014 0.8769 0.0
C497 C 0.5712 0.57088 0.88339 0.0
C498 C 0.59477 0.55762 0.88219 0.0
C499 C 0.62337 0.57426 0.87422 0.0
C500 C 0.55327 0.61671 0.87822 0.0
C501 C 0.58901 0.52513 0.88898 0.0
C502 C 0.32353 0.34054 0.85544 0.0
C503 C 0.35514 0.36245 0.86303 0.0
C504 C 0.39137 0.42291 0.87034 0.0
C505 C 0.4134 0.41533 0.87754 0.0
C506 C 0.44124 0.44196 0.88422 0.0
C507 C 0.44664 0.47676 0.88396 0.0
C508 C 0.4242 0.48442 0.8769 0.0
C509 C 0.39693 0.45735 0.87011 0.0
C510 C 0.46508 0.43289 0.89145 0.0
C511 C 0.42915 0.5212 0.8765 0.0
C512 C 0.37859 0.43421 0.95766 0.0
C513 C 0.40668 0.42761 0.95609 0.0
C514 C 0.43918 0.45386 0.95148 0.0
C515 C 0.44386 0.48758 0.94864 0.0
C516 C 0.41661 0.49519 0.95119 0.0
C517 C 0.38424 0.46831 0.95574 0.0
C518 C 0.46808 0.44515 0.94923 0.0
C519 C 0.42107 0.53112 0.94853 0.0
C520 C 0.72914 0.68088 0.95258 0.0
C521 C 0.69615 0.6773 0.95869 0.0
C522 C 0.63948 0.6219 0.95778 0.0
C523 C 0.62656 0.58593 0.95582 0.0
C524 C 0.59263 0.56432 0.95103 0.0
C525 C 0.57094 0.57911 0.94839 0.0
C526 C 0.58289 0.61495 0.9512 0.0
C527 C 0.61713 0.63606 0.9559 0.0
C528 C 0.58053 0.52605 0.94835 0.0
C529 C 0.56 0.63121 0.94878 0.0
C530 C 0.53856 0.55112 0.89063 0.0
C531 C 0.50788 0.52665 0.88458 0.0
C532 C 0.47657 0.50518 0.89081 0.0
C533 C 0.47542 0.50854 0.90342 0.0
C534 C 0.44422 0.48758 0.90993 0.0
C535 C 0.44395 0.48939 0.92242 0.0
C536 C 0.47483 0.51244 0.92888 0.0
C537 C 0.47529 0.51304 0.94162 0.0
C538 C 0.50655 0.53585 0.94778 0.0
C539 C 0.53764 0.55811 0.94149 0.0
C540 C 0.53762 0.55803 0.92875 0.0
C541 C 0.5685 0.57999 0.92216 0.0
C542 C 0.5687 0.57839 0.90966 0.0
C543 C 0.53815 0.55451 0.90327 0.0
C544 C 0.50648 0.53292 0.90969 0.0
C545 C 0.5062 0.53479 0.92245 0.0
C546 C 0.30207 0.37015 0.94673 0.0
C547 C 0.32887 0.37395 0.95643 0.0
O548 O 0.65451 0.61644 0.85898 0.0
O549 O 0.67358 0.64197 0.96144 0.0
O550 O 0.34578 0.40823 0.96089 0.0
O551 O 0.36479 0.39791 0.86347 0.0
H552 H 0.62675 0.62691 0.84604 0.0
H553 H 0.6192 0.56835 0.84194 0.0
H554 H 0.66619 0.58686 0.84003 0.0
H555 H 0.64128 0.59806 0.82958 0.0
H556 H 0.61072 0.64055 0.86388 0.0
H557 H 0.64119 0.56397 0.87302 0.0
H558 H 0.52682 0.59794 0.87442 0.0
H559 H 0.56368 0.64253 0.87352 0.0
H560 H 0.54965 0.62034 0.8879 0.0
H561 H 0.60947 0.51788 0.88689 0.0
H562 H 0.56258 0.5024 0.8867 0.0
H563 H 0.58947 0.52978 0.89881 0.0
H564 H 0.37792 0.35819 0.86131 0.0
H565 H 0.33345 0.33087 0.84784 0.0
H566 H 0.3194 0.35945 0.84964 0.0
H567 H 0.28574 0.3061 0.86784 0.0
H568 H 0.40932 0.38877 0.87793 0.0
H569 H 0.37977 0.46297 0.86458 0.0
H570 H 0.46085 0.43475 0.9012 0.0
H571 H 0.49329 0.452 0.88948 0.0
H572 H 0.45996 0.40573 0.88955 0.0
H573 H 0.40758 0.52214 0.87145 0.0
H574 H 0.45474 0.53944 0.87211 0.0
H575 H 0.43023 0.53102 0.88579 0.0
H576 H 0.34777 0.36778 0.95186 0.0
H577 H 0.40313 0.40183 0.95829 0.0
H578 H 0.36266 0.47339 0.95728 0.0
H579 H 0.47504 0.44853 0.93953 0.0
H580 H 0.46027 0.41766 0.95194 0.0
H581 H 0.49216 0.46375 0.95435 0.0
H582 H 0.39917 0.53412 0.95229 0.0
H583 H 0.42179 0.53505 0.93863 0.0
H584 H 0.4466 0.55219 0.95227 0.0
H585 H 0.68371 0.6872 0.95213 0.0
H586 H 0.74767 0.70897 0.9502 0.0
H587 H 0.72145 0.66498 0.94418 0.0
H588 H 0.74299 0.67125 0.95861 0.0
H589 H 0.6438 0.57515 0.95758 0.0
H590 H 0.62641 0.66356 0.95798 0.0
H591 H 0.57524 0.521 0.93855 0.0
H592 H 0.55542 0.50879 0.95315 0.0
H593 H 0.6004 0.51849 0.95109 0.0
H594 H 0.57168 0.65837 0.95251 0.0
H595 H 0.53334 0.61442 0.95273 0.0
H596 H 0.55652 0.63243 0.93891 0.0
H597 H 0.50871 0.52342 0.87492 0.0
H598 H 0.41977 0.46916 0.90545 0.0
H599 H 0.41924 0.47214 0.92693 0.0
H600 H 0.50697 0.5355 0.95754 0.0
H601 H 0.59302 0.59848 0.92659 0.0
H602 H 0.59326 0.5957 0.90506 0.0
H603 H 0.28701 0.34236 0.9435 0.0
H604 H 0.31625 0.38746 0.93895 0.0
H605 H 0.28322 0.37809 0.9502 0.0
H606 H 0.95494 0.15473 0.11628 0.0
H607 H 0.95736 0.19986 0.12991 0.0
H608 H 0.00965 0.17012 0.15672 0.0
H609 H 0.00786 0.12542 0.14314 0.0
H610 H 0.96061 0.18741 0.16658 0.0
H611 H 0.05811 0.23511 0.13759 0.0
H612 H 0.08151 0.24644 0.11688 0.0
H613 H 0.02598 0.30238 0.10901 0.0
H614 H 0.00187 0.29092 0.12963 0.0
H615 H 0.06986 0.33554 0.20198 0.0
H616 H 0.03923 0.28316 0.18936 0.0
H617 H 0.01757 0.34328 0.16312 0.0
H618 H 0.05069 0.39641 0.17525 0.0
H619 H 0.03999 0.3096 0.15191 0.0
H620 H 0.95058 0.27231 0.18153 0.0
H621 H 0.92415 0.26033 0.20178 0.0
H622 H 0.9584 0.18493 0.20823 0.0
H623 H 0.98548 0.1968 0.18808 0.0
C624 C 0.96669 0.15759 0.12512 0.0
C625 C 0.98164 0.13678 0.12856 0.0
C626 C 0.96782 0.18321 0.13292 0.0
C627 C 0.98402 0.18853 0.14426 0.0
C628 C 0.99691 0.16632 0.14801 0.0
C629 C 0.99583 0.14074 0.14023 0.0
C630 C 0.99127 0.21957 0.15169 0.0
C631 C 0.97796 0.21421 0.16344 0.0
C632 C 0.01289 0.25446 0.1474 0.0
C633 C 0.02794 0.26187 0.13509 0.0
C634 C 0.05076 0.24966 0.13141 0.0
C635 C 0.06415 0.25611 0.1197 0.0
C636 C 0.05517 0.27505 0.11162 0.0
C637 C 0.03287 0.28767 0.11526 0.0
C638 C 0.01935 0.28122 0.12696 0.0
C639 C 0.05845 0.33754 0.19353 0.0
C640 C 0.06333 0.37034 0.18958 0.0
C641 C 0.04039 0.30738 0.18639 0.0
C642 C 0.02553 0.30892 0.1753 0.0
C643 C 0.02885 0.34131 0.1716 0.0
C644 C 0.04778 0.37176 0.1786 0.0
C645 C 0.00994 0.27783 0.16707 0.0
C646 C 0.02186 0.28306 0.15511 0.0
C647 C 0.98654 0.2429 0.17115 0.0
C648 C 0.97026 0.23563 0.1833 0.0
C649 C 0.9527 0.25335 0.18729 0.0
C650 C 0.93756 0.24655 0.19875 0.0
C651 C 0.93964 0.22192 0.20629 0.0
C652 C 0.95681 0.204 0.20238 0.0
C653 C 0.97201 0.21071 0.19093 0.0
H654 H 0.92791 0.2167 0.21516 0.0
H655 H 0.06554 0.28 0.10256 0.0
H656 H 0.89213 0.99843 0.47298 0.0
H657 H 0.8492 0.00184 0.48612 0.0
H658 H 0.79003 0.00296 0.45503 0.0
H659 H 0.83284 0.99941 0.44183 0.0
H660 H 0.80675 0.05781 0.46951 0.0
H661 H 0.75523 0.93276 0.47461 0.0
H662 H 0.75482 0.87712 0.47903 0.0
H663 H 0.79335 0.91369 0.51478 0.0
H664 H 0.79447 0.96979 0.51053 0.0
H665 H 0.68918 0.08227 0.50506 0.0
H666 H 0.7083 0.05202 0.49116 0.0
H667 H 0.76941 0.03992 0.51954 0.0
H668 H 0.74863 0.06837 0.53368 0.0
H669 H 0.74481 0.98485 0.50525 0.0
H670 H 0.80561 0.11154 0.49953 0.0
H671 H 0.8094 0.16905 0.49563 0.0
H672 H 0.75771 0.13119 0.46147 0.0
H673 H 0.75319 0.07326 0.46525 0.0
C674 C 0.86946 0.99842 0.46894 0.0
C675 C 0.86604 0.99896 0.45636 0.0
C676 C 0.8449 0.00035 0.47647 0.0
C677 C 0.81632 0.00255 0.47156 0.0
C678 C 0.81193 0.00137 0.45901 0.0
C679 C 0.83649 0.99951 0.45148 0.0
C680 C 0.79358 0.01025 0.47941 0.0
C681 C 0.79252 0.04137 0.47716 0.0
C682 C 0.77596 0.98941 0.48961 0.0
C683 C 0.77517 0.95562 0.49221 0.0
C684 C 0.76388 0.92907 0.48339 0.0
C685 C 0.76347 0.89742 0.48587 0.0
C686 C 0.77411 0.8919 0.49717 0.0
C687 C 0.78512 0.918 0.50603 0.0
C688 C 0.7856 0.94971 0.50359 0.0
C689 C 0.7059 0.07234 0.50844 0.0
C690 C 0.71744 0.07771 0.5205 0.0
C691 C 0.71704 0.05525 0.50045 0.0
C692 C 0.74097 0.04441 0.50423 0.0
C693 C 0.75101 0.04808 0.5164 0.0
C694 C 0.73927 0.06447 0.52446 0.0
C695 C 0.75822 0.0325 0.49536 0.0
C696 C 0.75848 0.00083 0.49745 0.0
C697 C 0.77564 0.05307 0.48508 0.0
C698 C 0.77873 0.088 0.48273 0.0
C699 C 0.79489 0.11544 0.49122 0.0
C700 C 0.79717 0.1481 0.48903 0.0
C701 C 0.78372 0.15374 0.47832 0.0
C702 C 0.76806 0.12676 0.46977 0.0
C703 C 0.76564 0.09402 0.47193 0.0
H704 H 0.78551 0.17904 0.47664 0.0
H705 H 0.77378 0.86738 0.49907 0.0
H706 H 0.85858 0.89705 0.78893 0.0
H707 H 0.81793 0.8509 0.80264 0.0
H708 H 0.89737 0.82216 0.8104 0.0
H709 H 0.93806 0.86794 0.79642 0.0
H710 H 0.83414 0.76491 0.80535 0.0
H711 H 0.87635 0.86385 0.83151 0.0
H712 H 0.89233 0.92414 0.83785 0.0
H713 H 0.78419 0.89865 0.83372 0.0
H714 H 0.76761 0.83833 0.82717 0.0
H715 H 0.72012 0.64101 0.84908 0.0
H716 H 0.77232 0.69311 0.84087 0.0
H717 H 0.70586 0.73317 0.82762 0.0
H718 H 0.6537 0.68119 0.83577 0.0
H719 H 0.7689 0.78568 0.83782 0.0
H720 H 0.7293 0.68983 0.80913 0.0
H721 H 0.71326 0.62953 0.80276 0.0
H722 H 0.81764 0.64997 0.81187 0.0
H723 H 0.83412 0.71028 0.81847 0.0
C724 C 0.86739 0.88086 0.79353 0.0
C725 C 0.90143 0.88595 0.79154 0.0
C726 C 0.84428 0.85478 0.80147 0.0
C727 C 0.85478 0.83337 0.80764 0.0
C728 C 0.88885 0.83855 0.80577 0.0
C729 C 0.91209 0.86478 0.79784 0.0
C730 C 0.82923 0.8043 0.81546 0.0
C731 C 0.82046 0.76953 0.81264 0.0
C732 C 0.81098 0.81032 0.82483 0.0
C733 C 0.82079 0.8466 0.82876 0.0
C734 C 0.85601 0.87117 0.83186 0.0
C735 C 0.86518 0.90534 0.83551 0.0
C736 C 0.83931 0.91524 0.83617 0.0
C737 C 0.80421 0.89095 0.8332 0.0
C738 C 0.7949 0.85674 0.82953 0.0
C739 C 0.7168 0.66117 0.84453 0.0
C740 C 0.68292 0.6571 0.84303 0.0
C741 C 0.74654 0.69082 0.83985 0.0
C742 C 0.74284 0.71681 0.83359 0.0
C743 C 0.70924 0.71342 0.83246 0.0
C744 C 0.67949 0.68372 0.83708 0.0
C745 C 0.77351 0.74647 0.82754 0.0
C746 C 0.78312 0.78125 0.83068 0.0
C747 C 0.79261 0.74052 0.81847 0.0
C748 C 0.7828 0.70438 0.81443 0.0
C749 C 0.74873 0.68136 0.80987 0.0
C750 C 0.73958 0.6472 0.8062 0.0
C751 C 0.76438 0.63588 0.80694 0.0
C752 C 0.79843 0.65875 0.81132 0.0
C753 C 0.80769 0.69292 0.81503 0.0
H754 H 0.75725 0.60943 0.80409 0.0
H755 H 0.84646 0.94171 0.839 0.0
H756 H 0.06663 0.93204 0.14043 0.0
H757 H 0.06206 0.88416 0.15323 0.0
H758 H 0.03607 0.81654 0.12214 0.0
H759 H 0.04021 0.86423 0.1093 0.0
H760 H 0.98722 0.78721 0.14007 0.0
H761 H 0.11268 0.84228 0.13657 0.0
H762 H 0.17429 0.89161 0.13706 0.0
H763 H 0.16426 0.90751 0.17464 0.0
H764 H 0.1024 0.8586 0.17434 0.0
H765 H 0.9592 0.6454 0.17721 0.0
H766 H 0.98669 0.68967 0.16132 0.0
H767 H 0.02708 0.77271 0.18795 0.0
H768 H 0.00104 0.72835 0.20392 0.0
H769 H 0.07323 0.79077 0.17025 0.0
H770 H 0.9473 0.7449 0.17319 0.0
H771 H 0.88454 0.69803 0.17333 0.0
H772 H 0.89443 0.66809 0.1374 0.0
H773 H 0.95743 0.7145 0.13711 0.0
C774 C 0.06048 0.90713 0.13631 0.0
C775 C 0.05359 0.90177 0.12389 0.0
C776 C 0.05817 0.87991 0.14361 0.0
C777 C 0.04888 0.84685 0.13861 0.0
C778 C 0.04343 0.84191 0.12614 0.0
C779 C 0.04599 0.86922 0.11882 0.0
C780 C 0.04088 0.81649 0.1466 0.0
C781 C 0.00629 0.78758 0.14647 0.0
C782 C 0.0655 0.81754 0.15517 0.0
C783 C 0.10278 0.84688 0.15541 0.0
C784 C 0.12351 0.85646 0.14492 0.0
C785 C 0.1585 0.88432 0.14517 0.0
C786 C 0.17316 0.90272 0.15587 0.0
C787 C 0.15287 0.89324 0.16635 0.0
C788 C 0.11785 0.8654 0.16615 0.0
C789 C 0.97478 0.67301 0.17971 0.0
C790 C 0.97823 0.68346 0.19184 0.0
C791 C 0.99027 0.69832 0.1706 0.0
C792 C 0.00843 0.73456 0.17342 0.0
C793 C 0.01326 0.74493 0.18555 0.0
C794 C 0.99829 0.71961 0.19466 0.0
C795 C 0.01945 0.76173 0.16379 0.0
C796 C 0.05444 0.79008 0.16366 0.0
C797 C 0.99507 0.76055 0.15506 0.0
C798 C 0.95714 0.73287 0.15518 0.0
C799 C 0.93613 0.72817 0.16535 0.0
C800 C 0.90053 0.7017 0.16545 0.0
C801 C 0.88553 0.68003 0.15539 0.0
C802 C 0.9061 0.68485 0.14519 0.0
C803 C 0.94175 0.71123 0.14505 0.0
H804 H 0.85796 0.65955 0.15549 0.0
H805 H 0.20026 0.92429 0.15604 0.0
H806 H 0.21735 0.07181 0.44283 0.0
H807 H 0.25943 0.0673 0.45635 0.0
H808 H 0.19629 0.06193 0.4869 0.0
H809 H 0.15413 0.06642 0.47345 0.0
H810 H 0.26937 0.09853 0.49193 0.0
H811 H 0.18058 0.98751 0.47377 0.0
H812 H 0.14911 0.94967 0.45635 0.0
H813 H 0.24711 0.96317 0.44275 0.0
H814 H 0.27922 0.00157 0.46002 0.0
H815 H 0.28905 0.99058 0.53519 0.0
H816 H 0.27261 0.02227 0.52074 0.0
H817 H 0.3292 0.00261 0.49285 0.0
H818 H 0.34393 0.96917 0.50714 0.0
H819 H 0.2685 0.9858 0.48494 0.0
H820 H 0.35658 0.08872 0.50487 0.0
H821 H 0.38886 0.12761 0.52197 0.0
H822 H 0.29596 0.13156 0.53201 0.0
H823 H 0.26293 0.09226 0.51508 0.0
C824 C 0.21277 0.07026 0.45245 0.0
C825 C 0.18217 0.0689 0.45707 0.0
C826 C 0.23691 0.06789 0.46015 0.0
C827 C 0.23064 0.06374 0.47259 0.0
C828 C 0.20161 0.06516 0.47732 0.0
C829 C 0.17753 0.0677 0.46962 0.0
C830 C 0.25124 0.05306 0.48045 0.0
C831 C 0.26926 0.0739 0.49047 0.0
C832 C 0.25173 0.02137 0.47832 0.0
C833 C 0.23232 0.99766 0.4681 0.0
C834 C 0.19542 0.98254 0.46703 0.0
C835 C 0.17748 0.961 0.45719 0.0
C836 C 0.19611 0.95409 0.44843 0.0
C837 C 0.23272 0.9686 0.44953 0.0
C838 C 0.2508 0.99024 0.45934 0.0
C839 C 0.29849 0.99362 0.52602 0.0
C840 C 0.31807 0.97774 0.52235 0.0
C841 C 0.28935 0.012 0.51778 0.0
C842 C 0.30015 0.01544 0.50571 0.0
C843 C 0.32069 0.0005 0.50211 0.0
C844 C 0.32927 0.98153 0.51031 0.0
C845 C 0.2867 0.03106 0.49664 0.0
C846 C 0.26961 0.01093 0.48637 0.0
C847 C 0.28739 0.06354 0.49854 0.0
C848 C 0.3072 0.08732 0.50873 0.0
C849 C 0.34294 0.09767 0.51077 0.0
C850 C 0.36139 0.11982 0.52043 0.0
C851 C 0.34446 0.132 0.52808 0.0
C852 C 0.30905 0.1221 0.52607 0.0
C853 C 0.29046 0.09992 0.51643 0.0
H854 H 0.35879 0.14915 0.53555 0.0
H855 H 0.18219 0.93742 0.44082 0.0
H856 H 0.10915 0.21079 0.79274 0.0
H857 H 0.14384 0.24497 0.81021 0.0
H858 H 0.20715 0.19449 0.80808 0.0
H859 H 0.17216 0.15967 0.79096 0.0
H860 H 0.18308 0.19218 0.83059 0.0
H861 H 0.23937 0.27987 0.79917 0.0
H862 H 0.24091 0.31805 0.78248 0.0
H863 H 0.20031 0.36759 0.80582 0.0
H864 H 0.19809 0.32934 0.82262 0.0
H865 H 0.3461 0.29171 0.86971 0.0
H866 H 0.29143 0.25361 0.85207 0.0
H867 H 0.24533 0.3377 0.85663 0.0
H868 H 0.29916 0.37827 0.8745 0.0
H869 H 0.25196 0.32315 0.83319 0.0
H870 H 0.20194 0.241 0.86506 0.0
H871 H 0.19962 0.20316 0.88198 0.0
H872 H 0.22625 0.1428 0.85814 0.0
H873 H 0.22925 0.18059 0.8411 0.0
C874 C 0.13055 0.20712 0.79598 0.0
C875 C 0.13796 0.18259 0.79044 0.0
C876 C 0.15047 0.22681 0.80591 0.0
C877 C 0.17811 0.22229 0.81041 0.0
C878 C 0.18593 0.19836 0.80474 0.0
C879 C 0.16612 0.17875 0.79486 0.0
C880 C 0.19811 0.24115 0.82135 0.0
C881 C 0.19849 0.22082 0.83111 0.0
C882 C 0.21686 0.2785 0.82221 0.0
C883 C 0.21814 0.30144 0.81211 0.0
C884 C 0.23045 0.29867 0.80072 0.0
C885 C 0.23152 0.32037 0.79124 0.0
C886 C 0.2206 0.34514 0.79308 0.0
C887 C 0.20869 0.34833 0.8044 0.0
C888 C 0.20754 0.32666 0.81391 0.0
C889 C 0.32623 0.29903 0.86783 0.0
C890 C 0.33216 0.34261 0.87238 0.0
C891 C 0.29296 0.27637 0.85649 0.0
C892 C 0.26341 0.29228 0.85204 0.0
C893 C 0.2642 0.3297 0.85928 0.0
C894 C 0.29658 0.35422 0.87076 0.0
C895 C 0.23802 0.2741 0.8422 0.0
C896 C 0.23635 0.29451 0.83271 0.0
C897 C 0.218 0.23679 0.84158 0.0
C898 C 0.21611 0.21387 0.85181 0.0
C899 C 0.20757 0.21983 0.86344 0.0
C900 C 0.20609 0.19836 0.87305 0.0
C901 C 0.21286 0.17065 0.87114 0.0
C902 C 0.22103 0.16429 0.85961 0.0
C903 C 0.22256 0.1857 0.84996 0.0
H904 H 0.21172 0.15406 0.8786 0.0
H905 H 0.22146 0.36193 0.78573 0.0
H906 H 0.91944 0.05176 0.68928 0.0
H907 H 0.88061 0.06019 0.67537 0.0
H908 H 0.82607 0.07342 0.70545 0.0
H909 H 0.86439 0.06417 0.71941 0.0
H910 H 0.78007 0.03473 0.68852 0.0
H911 H 0.89007 0.14506 0.68944 0.0
H912 H 0.95479 0.18329 0.68784 0.0
H913 H 0.95067 0.15192 0.65099 0.0
H914 H 0.88595 0.11311 0.65243 0.0
H915 H 0.7043 0.12467 0.65727 0.0
H916 H 0.73907 0.10946 0.67091 0.0
H917 H 0.78394 0.085 0.64045 0.0
H918 H 0.74893 0.09974 0.62677 0.0
H919 H 0.83422 0.12829 0.65727 0.0
H920 H 0.72355 0.01945 0.65629 0.0
H921 H 0.65885 0.98147 0.65803 0.0
H922 H 0.66414 0.01092 0.69515 0.0
H923 H 0.72885 0.04953 0.69359 0.0
C924 C 0.89919 0.05653 0.69291 0.0
C925 C 0.8951 0.05766 0.70541 0.0
C926 C 0.87704 0.06134 0.68496 0.0
C927 C 0.85084 0.06809 0.68937 0.0
C928 C 0.84614 0.06833 0.70185 0.0
C929 C 0.86803 0.06307 0.70981 0.0
C930 C 0.82893 0.0757 0.68096 0.0
C931 C 0.79191 0.05549 0.68179 0.0
C932 C 0.84436 0.10231 0.672 0.0
C933 C 0.88322 0.12595 0.67108 0.0
C934 C 0.903 0.14616 0.68102 0.0
C935 C 0.93968 0.16795 0.68014 0.0
C936 C 0.95684 0.16997 0.66933 0.0
C937 C 0.93734 0.1503 0.65937 0.0
C938 C 0.90066 0.12843 0.6602 0.0
C939 C 0.7215 0.11594 0.65349 0.0
C940 C 0.724 0.11347 0.64096 0.0
C941 C 0.74122 0.10716 0.66128 0.0
C942 C 0.76388 0.09593 0.65667 0.0
C943 C 0.76659 0.09362 0.64417 0.0
C944 C 0.74665 0.10207 0.63638 0.0
C945 C 0.78546 0.08743 0.66488 0.0
C946 C 0.82241 0.10752 0.664 0.0
C947 C 0.76994 0.06087 0.67381 0.0
C948 C 0.73102 0.0377 0.67478 0.0
C949 C 0.71089 0.01811 0.6648 0.0
C950 C 0.67422 0.99641 0.66576 0.0
C951 C 0.65738 0.99386 0.67669 0.0
C952 C 0.67721 0.01296 0.68669 0.0
C953 C 0.71389 0.03475 0.68577 0.0
H954 H 0.62899 0.97703 0.67742 0.0
H955 H 0.98525 0.18684 0.66867 0.0
H956 H 0.85527 0.92999 0.03439 0.0
H957 H 0.8151 0.88671 0.0197 0.0
H958 H 0.8188 0.80321 0.03943 0.0
H959 H 0.85979 0.84635 0.05389 0.0
H960 H 0.83223 0.80143 0.01618 0.0
H961 H 0.74417 0.8104 0.03906 0.0
H962 H 0.71617 0.84086 0.04882 0.0
H963 H 0.70679 0.88159 0.01458 0.0
H964 H 0.73521 0.85177 0.00463 0.0
H965 H 0.70905 0.66001 0.9813 0.0
H966 H 0.73341 0.69872 0.9988 0.0
H967 H 0.73388 0.78397 0.97882 0.0
H968 H 0.70862 0.74496 0.96133 0.0
H969 H 0.71587 0.78374 0.00263 0.0
H970 H 0.80679 0.77834 0.98004 0.0
H971 H 0.83466 0.74816 0.97 0.0
H972 H 0.83944 0.70201 0.00368 0.0
H973 H 0.81102 0.73147 0.01389 0.0
C974 C 0.84739 0.90238 0.03562 0.0
C975 C 0.86081 0.89164 0.04529 0.0
C976 C 0.82414 0.87763 0.02729 0.0
C977 C 0.81378 0.8417 0.02852 0.0
C978 C 0.82637 0.8308 0.03834 0.0
C979 C 0.84959 0.85548 0.04666 0.0
C980 C 0.79226 0.8159 0.01905 0.0
C981 C 0.80649 0.79712 0.01339 0.0
C982 C 0.75919 0.81111 0.01515 0.0
C983 C 0.74214 0.82912 0.02111 0.0
C984 C 0.73643 0.82611 0.03362 0.0
C985 C 0.72043 0.84321 0.03919 0.0
C986 C 0.7098 0.86323 0.03233 0.0
C987 C 0.71508 0.86612 0.01989 0.0
C988 C 0.73111 0.84909 0.01428 0.0
C989 C 0.71348 0.68671 0.98074 0.0
C990 C 0.7066 0.69942 0.97 0.0
C991 C 0.72756 0.70885 0.99072 0.0
C992 C 0.73578 0.74429 0.99005 0.0
C993 C 0.7276 0.75666 0.97952 0.0
C994 C 0.71329 0.73444 0.96955 0.0
C995 C 0.75578 0.76917 -9e-05 0.0
C996 C 0.74145 0.7879 0.00556 0.0
C997 C 0.78892 0.77416 0.0038 0.0
C998 C 0.80647 0.75683 0.99771 0.0
C999 C 0.81357 0.76156 0.98529 0.0
C1000 C 0.82947 0.7446 0.97957 0.0
C1001 C 0.83874 0.72311 0.98619 0.0
C1002 C 0.8322 0.71862 0.99856 0.0
C1003 C 0.81621 0.73546 0.00432 0.0
H1004 H 0.85105 0.71 0.98174 0.0
H1005 H 0.6974 0.87644 0.03665 0.0
H1006 H 0.02082 0.91432 0.36081 0.0
H1007 H 0.01434 0.86802 0.34694 0.0
H1008 H 0.95793 0.78897 0.37422 0.0
H1009 H 0.96571 0.83552 0.38826 0.0
H1010 H 0.00153 0.77436 0.36365 0.0
H1011 H 0.91568 0.80431 0.34935 0.0
H1012 H 0.89433 0.84398 0.34219 0.0
H1013 H 0.96506 0.87496 0.31208 0.0
H1014 H 0.98717 0.83581 0.31915 0.0
H1015 H 0.92722 0.62546 0.32423 0.0
H1016 H 0.93533 0.67201 0.33833 0.0
H1017 H 0.00326 0.75158 0.31279 0.0
H1018 H 0.99516 0.70512 0.29865 0.0
H1019 H 0.95379 0.7655 0.32237 0.0
H1020 H 0.03866 0.73414 0.33692 0.0
H1021 H 0.05845 0.6933 0.34417 0.0
H1022 H 0.98677 0.66323 0.37397 0.0
H1023 H 0.96619 0.70355 0.36681 0.0
C1024 C 0.00689 0.88701 0.3638 0.0
C1025 C 0.99357 0.87838 0.37556 0.0
C1026 C 0.00308 0.86055 0.35586 0.0
C1027 C 0.98504 0.82486 0.35944 0.0
C1028 C 0.9719 0.81628 0.37123 0.0
C1029 C 0.97628 0.84282 0.37924 0.0
C1030 C 0.9803 0.79652 0.35095 0.0
C1031 C 0.99059 0.77215 0.35469 0.0
C1032 C 0.96673 0.79398 0.33915 0.0
C1033 C 0.9533 0.81736 0.33484 0.0
C1034 C 0.92684 0.81975 0.34124 0.0
C1035 C 0.91458 0.84212 0.3372 0.0
C1036 C 0.92839 0.86204 0.3267 0.0
C1037 C 0.95441 0.85954 0.32022 0.0
C1038 C 0.96679 0.83724 0.32423 0.0
C1039 C 0.94413 0.65289 0.32168 0.0
C1040 C 0.96098 0.6617 0.31042 0.0
C1041 C 0.94876 0.67942 0.32973 0.0
C1042 C 0.97021 0.71523 0.32665 0.0
C1043 C 0.98672 0.72411 0.31536 0.0
C1044 C 0.9822 0.69761 0.30733 0.0
C1045 C 0.97492 0.74347 0.33511 0.0
C1046 C 0.96464 0.76776 0.33135 0.0
C1047 C 0.98818 0.74575 0.34692 0.0
C1048 C 0.00065 0.72161 0.35127 0.0
C1049 C 0.02692 0.71861 0.34497 0.0
C1050 C 0.03831 0.6956 0.34907 0.0
C1051 C 0.02381 0.67562 0.35951 0.0
C1052 C 0.99795 0.67869 0.36588 0.0
C1053 C 0.98643 0.70164 0.36181 0.0
H1054 H 0.03267 0.65781 0.36267 0.0
H1055 H 0.91887 0.87935 0.32359 0.0
H1056 H 0.157 0.9722 0.71975 0.0
H1057 H 0.19586 0.96434 0.70585 0.0
H1058 H 0.16931 0.01572 0.67771 0.0
H1059 H 0.13008 0.02319 0.69152 0.0
H1060 H 0.16837 0.95932 0.66912 0.0
H1061 H 0.24937 0.05846 0.69293 0.0
H1062 H 0.27704 0.09129 0.71161 0.0
H1063 H 0.30835 0.01527 0.72106 0.0
H1064 H 0.28041 0.98169 0.70251 0.0
H1065 H 0.30685 0.99065 0.6289 0.0
H1066 H 0.26937 0.99943 0.64318 0.0
H1067 H 0.28887 0.93914 0.66994 0.0
H1068 H 0.32661 0.93047 0.65569 0.0
H1069 H 0.29389 9e-05 0.67925 0.0
H1070 H 0.21238 0.90156 0.65481 0.0
H1071 H 0.18574 0.87092 0.63571 0.0
H1072 H 0.15661 0.94903 0.62701 0.0
H1073 H 0.18355 0.98044 0.64599 0.0
C1074 C 0.15962 0.98196 0.71061 0.0
C1075 C 0.14054 0.99832 0.70672 0.0
C1076 C 0.18186 0.97752 0.70268 0.0
C1077 C 0.18587 0.98986 0.69077 0.0
C1078 C 0.16661 0.00596 0.68685 0.0
C1079 C 0.14415 0.01013 0.69474 0.0
C1080 C 0.20976 0.98559 0.68233 0.0
C1081 C 0.19593 0.96867 0.67128 0.0
C1082 C 0.24557 0.99719 0.68524 0.0
C1083 C 0.26247 0.01737 0.69639 0.0
C1084 C 0.2619 0.04859 0.69904 0.0
C1085 C 0.27768 0.06736 0.70959 0.0
C1086 C 0.29436 0.05532 0.71753 0.0
C1087 C 0.29537 0.02453 0.71491 0.0
C1088 C 0.2796 0.00564 0.70437 0.0
C1089 C 0.3033 0.97948 0.63786 0.0
C1090 C 0.31989 0.96015 0.64123 0.0
C1091 C 0.28179 0.98436 0.64598 0.0
C1092 C 0.27618 0.96972 0.65759 0.0
C1093 C 0.29295 0.95071 0.66103 0.0
C1094 C 0.31443 0.94575 0.65289 0.0
C1095 C 0.25245 0.9739 0.66608 0.0
C1096 C 0.2663 0.99077 0.67713 0.0
C1097 C 0.21675 0.96257 0.66313 0.0
C1098 C 0.20027 0.94353 0.65177 0.0
C1099 C 0.20052 0.91235 0.64878 0.0
C1100 C 0.18533 0.89482 0.63798 0.0
C1101 C 0.16957 0.90806 0.63014 0.0
C1102 C 0.16887 0.93882 0.63309 0.0
C1103 C 0.18406 0.95648 0.64387 0.0
H1104 H 0.15782 0.89446 0.62178 0.0
H1105 H 0.30657 0.06989 0.7257 0.0
H1106 H 0.19088 0.1316 0.04026 0.0
H1107 H 0.22891 0.17416 0.02495 0.0
H1108 H 0.14906 0.20319 0.01825 0.0
H1109 H 0.11059 0.15962 0.0331 0.0
H1110 H 0.17318 0.19781 0.99808 0.0
H1111 H 0.22827 0.2552 0.03548 0.0
H1112 H 0.25613 0.26061 0.05534 0.0
H1113 H 0.33861 0.24908 0.03884 0.0
H1114 H 0.31098 0.24315 0.0189 0.0
H1115 H 0.2751 0.36676 0.97122 0.0
H1116 H 0.24388 0.32183 0.98673 0.0
H1117 H 0.31299 0.2793 0.98074 0.0
H1118 H 0.34366 0.32347 0.96491 0.0
H1119 H 0.29764 0.28945 0.00654 0.0
H1120 H 0.24196 0.23499 0.96884 0.0
H1121 H 0.2142 0.23289 0.94924 0.0
H1122 H 0.1321 0.24233 0.967 0.0
H1123 H 0.15975 0.24508 0.98672 0.0
C1124 C 0.18163 0.14716 0.03549 0.0
C1125 C 0.14789 0.14239 0.03779 0.0
C1126 C 0.20337 0.17158 0.0268 0.0
C1127 C 0.1921 0.19231 0.02054 0.0
C1128 C 0.15836 0.18748 0.02291 0.0
C1129 C 0.1364 0.16263 0.03139 0.0
C1130 C 0.21496 0.21874 0.01138 0.0
C1131 C 0.20026 0.218 2e-05 0.0
C1132 C 0.25066 0.24468 0.01374 0.0
C1133 C 0.26735 0.24835 0.02572 0.0
C1134 C 0.25221 0.25356 0.0361 0.0
C1135 C 0.26798 0.25676 0.04737 0.0
C1136 C 0.29906 0.25508 0.04835 0.0
C1137 C 0.3145 0.25031 0.03807 0.0
C1138 C 0.29881 0.24705 0.02678 0.0
C1139 C 0.28351 0.34773 0.97316 0.0
C1140 C 0.31119 0.348 0.96663 0.0
C1141 C 0.26584 0.32228 0.98205 0.0
C1142 C 0.27603 0.2972 0.98476 0.0
C1143 C 0.30476 0.29845 0.97872 0.0
C1144 C 0.32209 0.32354 0.96967 0.0
C1145 C 0.25541 0.26868 0.9935 0.0
C1146 C 0.27058 0.26903 0.00469 0.0
C1147 C 0.22002 0.24263 0.99107 0.0
C1148 C 0.20313 0.24059 0.97924 0.0
C1149 C 0.21817 0.23694 0.96856 0.0
C1150 C 0.20242 0.23557 0.95743 0.0
C1151 C 0.17145 0.23757 0.95687 0.0
C1152 C 0.15612 0.24084 0.96745 0.0
C1153 C 0.1718 0.24227 0.9786 0.0
H1154 H 0.15929 0.23651 0.94825 0.0
H1155 H 0.31123 0.25757 0.05708 0.0
H1156 H 0.02065 0.13942 0.35945 0.0
H1157 H 0.0195 0.18161 0.34521 0.0
H1158 H 0.07636 0.26615 0.37073 0.0
H1159 H 0.0762 0.2235 0.3852 0.0
H1160 H 0.02489 0.27157 0.36218 0.0
H1161 H 0.11493 0.25679 0.34379 0.0
H1162 H 0.14308 0.22456 0.33549 0.0
H1163 H 0.0616 0.17764 0.30856 0.0
H1164 H 0.03267 0.2092 0.31679 0.0
H1165 H 0.03306 0.41219 0.31758 0.0
H1166 H 0.05103 0.37321 0.33462 0.0
H1167 H 0.98606 0.26256 0.31014 0.0
H1168 H 0.96679 0.29858 0.29233 0.0
H1169 H 0.05232 0.27595 0.31871 0.0
H1170 H 0.9602 0.28656 0.33874 0.0
H1171 H 0.93213 0.31874 0.34716 0.0
H1172 H 0.02032 0.37496 0.37118 0.0
H1173 H 0.04912 0.34339 0.36278 0.0
C1174 C 0.03336 0.16711 0.36193 0.0
C1175 C 0.04861 0.1783 0.37339 0.0
C1176 C 0.03286 0.19127 0.35377 0.0
C1177 C 0.04839 0.22727 0.35679 0.0
C1178 C 0.06426 0.23856 0.36817 0.0
C1179 C 0.0642 0.21425 0.37642 0.0
C1180 C 0.04581 0.25252 0.34839 0.0
C1181 C 0.03182 0.27317 0.35274 0.0
C1182 C 0.05409 0.25416 0.33599 0.0
C1183 C 0.07149 0.23521 0.33097 0.0
C1184 C 0.10288 0.23942 0.33615 0.0
C1185 C 0.119 0.22129 0.33145 0.0
C1186 C 0.10411 0.19902 0.32152 0.0
C1187 C 0.0731 0.19489 0.31625 0.0
C1188 C 0.05686 0.21294 0.32092 0.0
C1189 C 0.02315 0.38415 0.31647 0.0
C1190 C 0.00335 0.36083 0.30203 0.0
C1191 C 0.03555 0.36009 0.3267 0.0
C1192 C 0.02243 0.31439 0.32383 0.0
C1193 C 0.99468 0.29034 0.31121 0.0
C1194 C 0.98088 0.31193 0.30045 0.0
C1195 C 0.03141 0.29459 0.33256 0.0
C1196 C 0.04628 0.27482 0.32822 0.0
C1197 C 0.02434 0.29404 0.34497 0.0
C1198 C 0.00702 0.31297 0.35002 0.0
C1199 C 0.97373 0.30599 0.34574 0.0
C1200 C 0.95767 0.32408 0.35053 0.0
C1201 C 0.97449 0.34897 0.35967 0.0
C1202 C 0.00736 0.35573 0.36408 0.0
C1203 C 0.02355 0.33774 0.35932 0.0
H1204 H 0.96202 0.36295 0.36336 0.0
H1205 H 0.11662 0.185 0.31789 0.0
loop_
_geom_bond_atom_site_label_1
_geom_bond_atom_site_label_2
_geom_bond_distance
_geom_bond_site_symmetry_2
_ccdc_geom_bond_type
Li0 N17 1.990 . S
Li0 O60 1.956 . S
Li0 O61 1.990 . S
Li0 O62 1.961 1_545 S
Li1 N25 1.989 . S
Li1 O60 1.973 1_655 S
Li1 O61 1.956 1_655 S
Li1 O63 1.961 1_545 S
Li2 N47 1.990 . S
Li2 O60 1.961 1_565 S
Li2 O62 1.956 . S
Li2 O63 1.970 1_455 S
Li3 N53 1.990 . S
Li3 O61 1.961 1_665 S
Li3 O62 1.970 1_655 S
Li3 O63 1.956 . S
C4 C6 1.348 . S
C4 C7 1.356 . S
C4 O60 1.325 . S
N5 C8 1.314 . S
N5 C9 1.279 . S
C6 C4 1.348 . S
C6 C8 1.353 . S
C6 H64 0.929 . S
C7 C4 1.356 . S
C7 C9 1.358 . S
C7 H65 0.930 . S
C8 N5 1.314 . S
C8 C6 1.353 . S
C8 H66 0.930 . S
C9 N5 1.279 . S
C9 C7 1.358 . S
C9 H67 0.930 . S
C10 C13 1.348 1_655 S
C10 C14 1.356 . S
C10 O61 1.313 1_655 S
C11 N12 1.279 . S
C11 C14 1.358 . S
C11 H68 0.930 . S
N12 C11 1.279 . S
N12 C15 1.314 1_655 S
C13 C10 1.348 1_455 S
C13 C15 1.353 . S
C13 H69 0.929 . S
C14 C10 1.356 . S
C14 C11 1.358 . S
C14 H70 0.930 . S
C15 N12 1.314 1_455 S
C15 C13 1.353 . S
C15 H71 0.930 . S
C16 N17 1.314 . S
C16 C21 1.353 . S
C16 H22 0.930 . S
N17 Li0 1.990 . S
N17 C16 1.314 . S
N17 C19 1.279 . S
C18 C19 1.358 . S
C18 C20 1.356 . S
C18 H72 0.930 . S
C19 N17 1.279 . S
C19 C18 1.358 . S
C19 H23 0.930 . S
C20 C18 1.356 . S
C20 C21 1.348 . S
C21 C16 1.353 . S
C21 C20 1.348 . S
C21 H73 0.929 . S
H22 C16 0.930 . S
H23 C19 0.930 . S
C24 N25 1.314 . S
C24 C26 1.353 . S
C24 H30 0.930 . S
N25 Li1 1.989 . S
N25 C24 1.314 . S
N25 C28 1.279 . S
C26 C24 1.353 . S
C26 C29 1.348 . S
C26 H74 0.929 . S
C27 C28 1.358 . S
C27 C29 1.356 . S
C27 H75 0.930 . S
C28 N25 1.279 . S
C28 C27 1.358 . S
C28 H31 0.930 . S
C29 C26 1.348 . S
C29 C27 1.356 . S
H30 C24 0.930 . S
H31 C28 0.930 . S
C32 C34 1.348 . S
C32 C35 1.356 . S
C32 O62 1.325 . S
N33 C36 1.314 . S
N33 C37 1.279 . S
C34 C32 1.348 . S
C34 C36 1.353 . S
C34 H76 0.929 1_455 S
C35 C32 1.356 . S
C35 C37 1.358 . S
C35 H77 0.930 . S
C36 N33 1.314 . S
C36 C34 1.353 . S
C36 H78 0.930 1_455 S
C37 N33 1.279 . S
C37 C35 1.358 . S
C37 H79 0.930 . S
C38 C39 1.348 . S
C38 C40 1.356 . S
C38 O63 1.325 . S
C39 C38 1.348 . S
C39 C41 1.353 . S
C39 H80 0.929 . S
C40 C38 1.356 . S
C40 C42 1.358 . S
C40 H81 0.930 . S
C41 C39 1.353 . S
C41 N43 1.314 . S
C41 H82 0.930 . S
C42 C40 1.358 . S
C42 N43 1.279 . S
C42 H83 0.930 . S
N43 C41 1.314 . S
N43 C42 1.279 . S
C44 C46 1.353 . S
C44 N47 1.314 . S
C44 H50 0.930 . S
C45 N47 1.279 . S
C45 C48 1.358 . S
C45 H51 0.930 . S
C46 C44 1.353 . S
C46 C49 1.348 . S
C46 H84 0.929 . S
N47 Li2 1.990 . S
N47 C44 1.314 . S
N47 C45 1.279 . S
C48 C45 1.358 . S
C48 C49 1.356 . S
C48 H85 0.930 . S
C49 C46 1.348 . S
C49 C48 1.356 . S
H50 C44 0.930 . S
H51 C45 0.930 . S
C52 N53 1.314 . S
C52 C54 1.353 . S
C52 H58 0.930 . S
N53 Li3 1.990 . S
N53 C52 1.314 . S
N53 C56 1.279 . S
C54 C52 1.353 . S
C54 C57 1.348 . S
C54 H86 0.929 . S
C55 C56 1.358 . S
C55 C57 1.356 . S
C55 H87 0.930 . S
C56 N53 1.279 . S
C56 C55 1.358 . S
C56 H59 0.930 . S
C57 C54 1.348 . S
C57 C55 1.356 . S
H58 C52 0.930 . S
H59 C56 0.930 . S
O60 Li0 1.956 . S
O60 Li1 1.973 1_455 S
O60 Li2 1.961 1_545 S
O60 C4 1.325 . S
O61 Li0 1.990 . S
O61 Li1 1.956 1_455 S
O61 Li3 1.961 1_445 S
O61 C10 1.313 1_455 S
O62 Li0 1.961 1_565 S
O62 Li2 1.956 . S
O62 Li3 1.970 1_455 S
O62 C32 1.325 . S
O63 Li1 1.961 1_565 S
O63 Li2 1.970 1_655 S
O63 Li3 1.956 . S
O63 C38 1.325 . S
H64 C6 0.929 . S
H65 C7 0.930 . S
H66 C8 0.930 . S
H67 C9 0.930 . S
H68 C11 0.930 . S
H69 C13 0.929 . S
H70 C14 0.930 . S
H71 C15 0.930 . S
H72 C18 0.930 . S
H73 C21 0.929 . S
H74 C26 0.929 . S
H75 C27 0.930 . S
H76 C34 0.929 1_655 S
H77 C35 0.930 . S
H78 C36 0.930 1_655 S
H79 C37 0.930 . S
H80 C39 0.929 . S
H81 C40 0.930 . S
H82 C41 0.930 . S
H83 C42 0.930 . S
H84 C46 0.929 . S
H85 C48 0.930 . S
H86 C54 0.929 . S
H87 C55 0.930 . S
Li88 N105 1.990 1_455 S
Li88 O148 1.956 . S
Li88 O149 1.970 1_565 S
Li88 O150 1.961 1_465 S
Li89 N113 1.990 . S
Li89 O148 1.970 1_545 S
Li89 O149 1.956 . S
Li89 O151 1.961 . S
Li90 N135 1.990 . S
Li90 O148 1.961 1_645 S
Li90 O150 1.956 . S
Li90 O151 1.970 1_655 S
Li91 N141 1.990 . S
Li91 O149 1.961 . S
Li91 O150 1.970 1_455 S
Li91 O151 1.956 . S
C92 C94 1.348 . S
C92 C95 1.356 1_455 S
C92 O148 1.325 . S
N93 C96 1.314 1_655 S
N93 C97 1.279 . S
C94 C92 1.348 . S
C94 C96 1.353 . S
C94 H152 0.929 . S
C95 C92 1.356 1_655 S
C95 C97 1.358 . S
C95 H153 0.930 . S
C96 N93 1.314 1_455 S
C96 C94 1.353 . S
C96 H154 0.930 . S
C97 N93 1.279 . S
C97 C95 1.358 . S
C97 H155 0.930 . S
C98 C101 1.348 . S
C98 C102 1.356 . S
C98 O149 1.325 . S
C99 N100 1.279 . S
C99 C102 1.358 . S
C99 H156 0.930 . S
N100 C99 1.279 . S
N100 C103 1.314 . S
C101 C98 1.348 . S
C101 C103 1.353 . S
C101 H157 0.929 1_545 S
C102 C98 1.356 . S
C102 C99 1.358 . S
C102 H158 0.930 . S
C103 N100 1.314 . S
C103 C101 1.353 . S
C103 H159 0.930 . S
C104 N105 1.314 . S
C104 C109 1.353 . S
C104 H110 0.930 . S
N105 Li88 1.990 1_655 S
N105 C104 1.314 . S
N105 C107 1.279 . S
C106 C107 1.358 . S
C106 C108 1.356 . S
C106 H160 0.930 . S
C107 N105 1.279 . S
C107 C106 1.358 . S
C107 H111 0.924 1_655 S
C108 C106 1.356 . S
C108 C109 1.348 . S
C109 C104 1.353 . S
C109 C108 1.348 . S
C109 H161 0.929 . S
H110 C104 0.930 . S
H111 C107 0.924 1_455 S
C112 N113 1.314 . S
C112 C114 1.353 . S
C112 H118 0.930 . S
N113 Li89 1.990 . S
N113 C112 1.314 . S
N113 C116 1.279 . S
C114 C112 1.353 . S
C114 C117 1.348 . S
C114 H162 0.929 . S
C115 C116 1.358 . S
C115 C117 1.356 . S
C115 H163 0.930 . S
C116 N113 1.279 . S
C116 C115 1.358 . S
C116 H119 0.930 . S
C117 C114 1.348 . S
C117 C115 1.356 . S
H118 C112 0.930 . S
H119 C116 0.930 . S
C120 C122 1.348 . S
C120 C123 1.356 1_545 S
C120 O150 1.325 . S
N121 C124 1.314 1_565 S
N121 C125 1.279 . S
C122 C120 1.348 . S
C122 C124 1.353 . S
C122 H164 0.929 . S
C123 C120 1.356 1_565 S
C123 C125 1.358 . S
C123 H165 0.930 . S
C124 N121 1.314 1_545 S
C124 C122 1.353 . S
C124 H166 0.930 . S
C125 N121 1.279 . S
C125 C123 1.358 . S
C125 H167 0.930 . S
C126 C127 1.348 . S
C126 C128 1.356 . S
C126 O151 1.325 . S
C127 C126 1.348 . S
C127 C129 1.353 . S
C127 H168 0.929 1_455 S
C128 C126 1.356 . S
C128 C130 1.358 . S
C128 H169 0.930 . S
C129 C127 1.353 . S
C129 N131 1.314 . S
C129 H170 0.930 . S
C130 C128 1.358 . S
C130 N131 1.279 . S
C130 H171 0.930 . S
N131 C129 1.314 . S
N131 C130 1.279 . S
C132 C134 1.353 . S
C132 N135 1.314 1_565 S
C132 H138 0.930 . S
C133 N135 1.279 . S
C133 C136 1.358 1_545 S
C133 H139 0.930 . S
C134 C132 1.353 . S
C134 C137 1.348 . S
C134 H172 0.929 . S
N135 Li90 1.990 . S
N135 C132 1.314 1_545 S
N135 C133 1.279 . S
C136 C133 1.358 1_565 S
C136 C137 1.356 . S
C136 H173 0.930 . S
C137 C134 1.348 . S
C137 C136 1.356 . S
H138 C132 0.930 . S
H139 C133 0.930 . S
C140 N141 1.314 . S
C140 C142 1.353 . S
C140 H146 0.930 . S
N141 Li91 1.990 . S
N141 C140 1.314 . S
N141 C144 1.279 . S
C142 C140 1.353 . S
C142 C145 1.348 . S
C142 H174 0.929 . S
C143 C144 1.358 . S
C143 C145 1.356 . S
C143 H175 0.930 . S
C144 N141 1.279 . S
C144 C143 1.358 . S
C144 H147 0.930 . S
C145 C142 1.348 . S
C145 C143 1.356 . S
H146 C140 0.930 . S
H147 C144 0.930 . S
O148 Li88 1.956 . S
O148 Li89 1.970 1_565 S
O148 Li90 1.961 1_465 S
O148 C92 1.325 . S
O149 Li88 1.970 1_545 S
O149 Li89 1.956 . S
O149 Li91 1.961 . S
O149 C98 1.325 . S
O150 Li88 1.961 1_645 S
O150 Li90 1.956 . S
O150 Li91 1.970 1_655 S
O150 C120 1.325 . S
O151 Li89 1.961 . S
O151 Li90 1.970 1_455 S
O151 Li91 1.956 . S
O151 C126 1.325 . S
H152 C94 0.929 . S
H153 C95 0.930 . S
H154 C96 0.930 . S
H155 C97 0.930 . S
H156 C99 0.930 . S
H157 C101 0.929 1_565 S
H158 C102 0.930 . S
H159 C103 0.930 . S
H160 C106 0.930 . S
H161 C109 0.929 . S
H162 C114 0.929 . S
H163 C115 0.930 . S
H164 C122 0.929 . S
H165 C123 0.930 . S
H166 C124 0.930 . S
H167 C125 0.930 . S
H168 C127 0.929 1_655 S
H169 C128 0.930 . S
H170 C129 0.930 . S
H171 C130 0.930 . S
H172 C134 0.929 . S
H173 C136 0.930 . S
H174 C142 0.929 . S
H175 C143 0.930 . S
Li176 N193 1.990 . S
Li176 O236 1.956 . S
Li176 O237 1.970 . S
Li176 O238 1.961 1_445 S
Li177 N201 1.990 . S
Li177 O236 1.970 . S
Li177 O237 1.956 . S
Li177 O239 1.961 1_455 S
Li178 N223 1.990 . S
Li178 O236 1.961 1_665 S
Li178 O238 1.956 . S
Li178 O239 1.970 1_565 S
Li179 N229 1.990 . S
Li179 O237 1.961 1_655 S
Li179 O238 1.970 1_545 S
Li179 O239 1.956 . S
C180 C182 1.348 . S
C180 C183 1.356 1_545 S
C180 O236 1.325 . S
N181 C184 1.314 1_565 S
N181 C185 1.279 . S
C182 C180 1.348 . S
C182 C184 1.353 . S
C182 H240 0.929 . S
C183 C180 1.356 1_565 S
C183 C185 1.358 . S
C183 H241 0.930 . S
C184 N181 1.314 1_545 S
C184 C182 1.353 . S
C184 H242 0.930 . S
C185 N181 1.279 . S
C185 C183 1.358 . S
C185 H243 0.930 . S
C186 C189 1.348 . S
C186 C190 1.356 . S
C186 O237 1.325 . S
C187 N188 1.279 . S
C187 C190 1.358 . S
C187 H244 0.930 . S
N188 C187 1.279 . S
N188 C191 1.314 . S
C189 C186 1.348 . S
C189 C191 1.353 . S
C189 H245 0.929 . S
C190 C186 1.356 . S
C190 C187 1.358 . S
C190 H246 0.930 . S
C191 N188 1.314 . S
C191 C189 1.353 . S
C191 H247 0.930 . S
C192 N193 1.314 1_565 S
C192 C197 1.353 . S
C192 H198 0.930 . S
N193 Li176 1.990 . S
N193 C192 1.314 1_545 S
N193 C195 1.279 . S
C194 C195 1.358 1_565 S
C194 C196 1.356 . S
C194 H248 0.930 . S
C195 N193 1.279 . S
C195 C194 1.358 1_545 S
C195 H199 0.930 . S
C196 C194 1.356 . S
C196 C197 1.348 . S
C197 C192 1.353 . S
C197 C196 1.348 . S
C197 H249 0.929 . S
H198 C192 0.930 . S
H199 C195 0.930 . S
C200 N201 1.314 . S
C200 C202 1.353 . S
C200 H206 0.930 . S
N201 Li177 1.990 . S
N201 C200 1.314 . S
N201 C204 1.279 . S
C202 C200 1.353 . S
C202 C205 1.348 . S
C202 H250 0.929 . S
C203 C204 1.358 . S
C203 C205 1.356 . S
C203 H251 0.930 . S
C204 N201 1.279 . S
C204 C203 1.358 . S
C204 H207 0.930 . S
C205 C202 1.348 . S
C205 C203 1.356 . S
H206 C200 0.930 . S
H207 C204 0.930 . S
C208 C210 1.348 . S
C208 C211 1.356 . S
C208 O238 1.325 . S
N209 C212 1.314 . S
N209 C213 1.279 . S
C210 C208 1.348 . S
C210 C212 1.353 . S
C210 H252 0.929 . S
C211 C208 1.356 . S
C211 C213 1.358 . S
C211 H253 0.930 . S
C212 N209 1.314 . S
C212 C210 1.353 . S
C212 H254 0.930 . S
C213 N209 1.279 . S
C213 C211 1.358 . S
C213 H255 0.930 . S
C214 C215 1.348 . S
C214 C216 1.356 . S
C214 O239 1.325 . S
C215 C214 1.348 . S
C215 C217 1.353 . S
C215 H256 0.929 1_545 S
C216 C214 1.356 . S
C216 C218 1.358 . S
C216 H257 0.930 . S
C217 C215 1.353 . S
C217 N219 1.314 . S
C217 H258 0.930 . S
C218 C216 1.358 . S
C218 N219 1.279 . S
C218 H259 0.930 . S
N219 C217 1.314 . S
N219 C218 1.279 . S
C220 C222 1.353 . S
C220 N223 1.314 . S
C220 H226 0.930 . S
C221 N223 1.279 . S
C221 C224 1.358 . S
C221 H227 0.930 . S
C222 C220 1.353 . S
C222 C225 1.348 . S
C222 H260 0.929 . S
N223 Li178 1.990 . S
N223 C220 1.314 . S
N223 C221 1.279 . S
C224 C221 1.358 . S
C224 C225 1.356 . S
C224 H261 0.930 . S
C225 C222 1.348 . S
C225 C224 1.356 . S
H226 C220 0.930 . S
H227 C221 0.930 . S
C228 N229 1.314 . S
C228 C230 1.353 . S
C228 H234 0.930 . S
N229 Li179 1.990 . S
N229 C228 1.314 . S
N229 C232 1.279 . S
C230 C228 1.353 . S
C230 C233 1.348 . S
C230 H262 0.929 . S
C231 C232 1.358 . S
C231 C233 1.356 . S
C231 H263 0.930 . S
C232 N229 1.279 . S
C232 C231 1.358 . S
C232 H235 0.930 . S
C233 C230 1.348 . S
C233 C231 1.356 . S
H234 C228 0.930 . S
H235 C232 0.930 . S
O236 Li176 1.956 . S
O236 Li177 1.970 . S
O236 Li178 1.961 1_445 S
O236 C180 1.325 . S
O237 Li176 1.970 . S
O237 Li177 1.956 . S
O237 Li179 1.961 1_455 S
O237 C186 1.325 . S
O238 Li176 1.961 1_665 S
O238 Li178 1.956 . S
O238 Li179 1.970 1_565 S
O238 C208 1.325 . S
O239 Li177 1.961 1_655 S
O239 Li178 1.970 1_545 S
O239 Li179 1.956 . S
O239 C214 1.325 . S
H240 C182 0.929 . S
H241 C183 0.930 . S
H242 C184 0.930 . S
H243 C185 0.930 . S
H244 C187 0.930 . S
H245 C189 0.929 . S
H246 C190 0.930 . S
H247 C191 0.930 . S
H248 C194 0.930 . S
H249 C197 0.929 . S
H250 C202 0.929 . S
H251 C203 0.930 . S
H252 C210 0.929 . S
H253 C211 0.930 . S
H254 C212 0.930 . S
H255 C213 0.930 . S
H256 C215 0.929 1_565 S
H257 C216 0.930 . S
H258 C217 0.930 . S
H259 C218 0.930 . S
H260 C222 0.929 . S
H261 C224 0.930 . S
H262 C230 0.929 . S
H263 C231 0.930 . S
C264 C265 1.560 . S
C264 H325 0.959 . S
C264 H326 0.959 . S
C264 H327 0.960 . S
C265 C264 1.560 . S
C265 O320 1.426 . S
C265 H324 0.980 1_655 S
C266 C267 1.407 1_655 S
C266 C271 1.418 . S
C266 O320 1.334 . S
C267 C266 1.407 1_455 S
C267 C268 1.360 . S
C267 H328 0.929 . S
C268 C267 1.360 . S
C268 C269 1.401 . S
C268 C272 1.527 . S
C269 C268 1.401 . S
C269 C270 1.405 1_455 S
C269 C302 1.587 . S
C270 C269 1.405 1_655 S
C270 C271 1.332 . S
C270 C273 1.496 . S
C271 C266 1.418 . S
C271 C270 1.332 . S
C271 H329 0.929 . S
C272 C268 1.527 . S
C272 H330 0.959 . S
C272 H331 0.961 . S
C272 H332 0.961 . S
C273 C270 1.496 . S
C273 H333 0.960 . S
C273 H334 0.960 . S
C273 H335 0.961 . S
C274 C275 1.517 . S
C274 H337 0.961 . S
C274 H338 0.960 . S
C274 H339 0.959 . S
C275 C274 1.517 . S
C275 O323 1.468 . S
C275 H336 0.980 . S
C276 C277 1.349 . S
C276 C281 1.367 . S
C276 O323 1.408 . S
C277 C276 1.349 . S
C277 C278 1.407 . S
C277 H340 0.930 . S
C278 C277 1.407 . S
C278 C279 1.449 . S
C278 C282 1.535 1_455 S
C279 C278 1.449 . S
C279 C280 1.384 . S
C279 C304 1.553 . S
C280 C279 1.384 . S
C280 C281 1.364 . S
C280 C283 1.450 . S
C281 C276 1.367 . S
C281 C280 1.364 . S
C281 H341 0.931 . S
C282 C278 1.535 1_655 S
C282 H342 0.959 . S
C282 H343 0.961 . S
C282 H344 0.959 . S
C283 C280 1.450 . S
C283 H345 0.960 . S
C283 H346 0.960 . S
C283 H347 0.960 . S
C284 C285 1.309 . S
C284 C289 1.304 . S
C284 O322 1.435 . S
C285 C284 1.309 . S
C285 C286 1.476 . S
C285 H349 0.930 1_455 S
C286 C285 1.476 . S
C286 C287 1.400 . S
C286 C290 1.567 1_455 S
C287 C286 1.400 . S
C287 C288 1.373 . S
C287 C309 1.432 . S
C288 C287 1.373 . S
C288 C289 1.339 . S
C288 C291 1.530 . S
C289 C284 1.304 . S
C289 C288 1.339 . S
C289 H350 0.930 . S
C290 C286 1.567 1_655 S
C290 H351 0.961 . S
C290 H352 0.960 . S
C290 H353 0.958 . S
C291 C288 1.530 . S
C291 H354 0.961 . S
C291 H355 0.960 . S
C291 H356 0.960 . S
C292 C293 1.530 1_655 S
C292 H358 0.961 . S
C292 H359 0.961 . S
C292 H360 0.959 . S
C293 C292 1.530 1_455 S
C293 O321 1.412 1_455 S
C293 H357 0.980 . S
C294 C295 1.288 . S
C294 C299 1.377 1_655 S
C294 O321 1.393 . S
C295 C294 1.288 . S
C295 C296 1.369 . S
C295 H361 0.932 . S
C296 C295 1.369 . S
C296 C297 1.398 1_655 S
C296 C300 1.527 . S
C297 C296 1.398 1_455 S
C297 C298 1.380 . S
C297 C311 1.497 . S
C298 C297 1.380 . S
C298 C299 1.383 . S
C298 C301 1.603 . S
C299 C294 1.377 1_455 S
C299 C298 1.383 . S
C299 H362 0.929 . S
C300 C296 1.527 . S
C300 H363 0.961 . S
C300 H364 0.959 . S
C300 H365 0.959 . S
C301 C298 1.603 . S
C301 H366 0.960 . S
C301 H367 0.962 . S
C301 H368 0.961 . S
C302 C269 1.587 . S
C302 C303 1.360 . S
C302 C315 1.412 . S
C303 C302 1.360 . S
C303 C304 1.365 . S
C303 H369 0.929 . S
C304 C279 1.553 . S
C304 C303 1.365 . S
C304 C305 1.404 . S
C305 C304 1.404 . S
C305 C306 1.395 . S
C305 C316 1.451 . S
C306 C305 1.395 . S
C306 C307 1.322 . S
C306 H370 0.930 . S
C307 C306 1.322 . S
C307 C308 1.459 . S
C307 H371 0.929 . S
C308 C307 1.459 . S
C308 C309 1.445 . S
C308 C317 1.395 . S
C309 C287 1.432 . S
C309 C308 1.445 . S
C309 C310 1.370 . S
C310 C309 1.370 . S
C310 C311 1.438 . S
C310 H372 0.930 . S
C311 C297 1.497 . S
C311 C310 1.438 . S
C311 C312 1.360 . S
C312 C311 1.360 . S
C312 C313 1.401 . S
C312 C317 1.446 . S
C313 C312 1.401 . S
C313 C314 1.347 . S
C313 H373 0.929 . S
C314 C313 1.347 . S
C314 C315 1.455 . S
C314 H374 0.930 . S
C315 C302 1.412 . S
C315 C314 1.455 . S
C315 C316 1.331 . S
C316 C305 1.451 . S
C316 C315 1.331 . S
C316 C317 1.497 . S
C317 C308 1.395 . S
C317 C312 1.446 . S
C317 C316 1.497 . S
C318 C319 1.582 . S
C318 H375 0.962 . S
C318 H376 0.959 . S
C318 H377 0.958 . S
C319 C318 1.582 . S
C319 O322 1.458 . S
C319 H348 0.980 . S
O320 C265 1.426 . S
O320 C266 1.334 . S
O321 C293 1.412 1_655 S
O321 C294 1.393 . S
O322 C284 1.435 . S
O322 C319 1.458 . S
O323 C275 1.468 . S
O323 C276 1.408 . S
H324 C265 0.980 1_455 S
H325 C264 0.959 . S
H326 C264 0.959 . S
H327 C264 0.960 . S
H328 C267 0.929 . S
H329 C271 0.929 . S
H330 C272 0.959 . S
H331 C272 0.961 . S
H332 C272 0.961 . S
H333 C273 0.960 . S
H334 C273 0.960 . S
H335 C273 0.961 . S
H336 C275 0.980 . S
H337 C274 0.961 . S
H338 C274 0.960 . S
H339 C274 0.959 . S
H340 C277 0.930 . S
H341 C281 0.931 . S
H342 C282 0.959 . S
H343 C282 0.961 . S
H344 C282 0.959 . S
H345 C283 0.960 . S
H346 C283 0.960 . S
H347 C283 0.960 . S
H348 C319 0.980 . S
H349 C285 0.930 1_655 S
H350 C289 0.930 . S
H351 C290 0.961 . S
H352 C290 0.960 . S
H353 C290 0.958 . S
H354 C291 0.961 . S
H355 C291 0.960 . S
H356 C291 0.960 . S
H357 C293 0.980 . S
H358 C292 0.961 . S
H359 C292 0.961 . S
H360 C292 0.959 . S
H361 C295 0.932 . S
H362 C299 0.929 . S
H363 C300 0.961 . S
H364 C300 0.959 . S
H365 C300 0.959 . S
H366 C301 0.960 . S
H367 C301 0.962 . S
H368 C301 0.961 . S
H369 C303 0.929 . S
H370 C306 0.930 . S
H371 C307 0.929 . S
H372 C310 0.930 . S
H373 C313 0.929 . S
H374 C314 0.930 . S
H375 C318 0.962 . S
H376 C318 0.959 . S
H377 C318 0.958 . S
C378 C379 1.560 1_565 S
C378 H439 0.959 . S
C378 H440 0.959 . S
C378 H441 0.960 . S
C379 C378 1.560 1_545 S
C379 O434 1.426 1_545 S
C379 H438 0.980 . S
C380 C381 1.407 . S
C380 C385 1.418 1_545 S
C380 O434 1.334 1_545 S
C381 C380 1.407 . S
C381 C382 1.360 . S
C381 H442 0.929 . S
C382 C381 1.360 . S
C382 C383 1.401 . S
C382 C386 1.527 . S
C383 C382 1.401 . S
C383 C384 1.405 1_545 S
C383 C416 1.587 . S
C384 C383 1.405 1_565 S
C384 C385 1.332 . S
C384 C387 1.496 . S
C385 C380 1.418 1_565 S
C385 C384 1.332 . S
C385 H443 0.929 . S
C386 C382 1.527 . S
C386 H444 0.959 . S
C386 H445 0.961 . S
C386 H446 0.961 . S
C387 C384 1.496 . S
C387 H447 0.960 . S
C387 H448 0.960 . S
C387 H449 0.961 . S
C388 C389 1.517 . S
C388 H451 0.961 . S
C388 H452 0.960 . S
C388 H453 0.959 . S
C389 C388 1.517 . S
C389 O437 1.468 . S
C389 H450 0.980 . S
C390 C391 1.349 . S
C390 C395 1.367 . S
C390 O437 1.408 . S
C391 C390 1.349 . S
C391 C392 1.407 . S
C391 H454 0.930 . S
C392 C391 1.407 . S
C392 C393 1.449 . S
C392 C396 1.535 1_545 S
C393 C392 1.449 . S
C393 C394 1.384 . S
C393 C418 1.553 . S
C394 C393 1.384 . S
C394 C395 1.364 . S
C394 C397 1.450 . S
C395 C390 1.367 . S
C395 C394 1.364 . S
C395 H455 0.931 . S
C396 C392 1.535 1_565 S
C396 H456 0.959 . S
C396 H457 0.961 . S
C396 H458 0.959 . S
C397 C394 1.450 . S
C397 H459 0.960 . S
C397 H460 0.960 . S
C397 H461 0.960 . S
C398 C399 1.309 . S
C398 C403 1.304 . S
C398 O436 1.435 . S
C399 C398 1.309 . S
C399 C400 1.476 . S
C399 H463 0.930 . S
C400 C399 1.476 . S
C400 C401 1.400 . S
C400 C404 1.567 1_545 S
C401 C400 1.400 . S
C401 C402 1.373 . S
C401 C423 1.432 . S
C402 C401 1.373 . S
C402 C403 1.339 . S
C402 C405 1.530 . S
C403 C398 1.304 . S
C403 C402 1.339 . S
C403 H464 0.930 . S
C404 C400 1.567 1_565 S
C404 H465 0.961 . S
C404 H466 0.960 . S
C404 H467 0.958 . S
C405 C402 1.530 . S
C405 H468 0.961 . S
C405 H469 0.960 . S
C405 H470 0.960 . S
C406 C407 1.530 1_565 S
C406 H472 0.961 1_565 S
C406 H473 0.961 . S
C406 H474 0.959 . S
C407 C406 1.530 1_545 S
C407 O435 1.412 1_545 S
C407 H471 0.980 . S
C408 C409 1.288 1_545 S
C408 C413 1.377 . S
C408 O435 1.393 1_545 S
C409 C408 1.288 1_565 S
C409 C410 1.369 . S
C409 H475 0.932 . S
C410 C409 1.369 . S
C410 C411 1.398 1_565 S
C410 C414 1.527 . S
C411 C410 1.398 1_545 S
C411 C412 1.380 . S
C411 C425 1.497 . S
C412 C411 1.380 . S
C412 C413 1.383 . S
C412 C415 1.603 . S
C413 C408 1.377 . S
C413 C412 1.383 . S
C413 H476 0.929 . S
C414 C410 1.527 . S
C414 H477 0.961 . S
C414 H478 0.959 . S
C414 H479 0.959 . S
C415 C412 1.603 . S
C415 H480 0.960 . S
C415 H481 0.962 . S
C415 H482 0.961 . S
C416 C383 1.587 . S
C416 C417 1.360 . S
C416 C429 1.412 . S
C417 C416 1.360 . S
C417 C418 1.365 . S
C417 H483 0.929 . S
C418 C393 1.553 . S
C418 C417 1.365 . S
C418 C419 1.404 . S
C419 C418 1.404 . S
C419 C420 1.395 . S
C419 C430 1.451 . S
C420 C419 1.395 . S
C420 C421 1.322 . S
C420 H484 0.930 . S
C421 C420 1.322 . S
C421 C422 1.459 . S
C421 H485 0.929 . S
C422 C421 1.459 . S
C422 C423 1.445 . S
C422 C431 1.395 . S
C423 C401 1.432 . S
C423 C422 1.445 . S
C423 C424 1.370 . S
C424 C423 1.370 . S
C424 C425 1.438 . S
C424 H486 0.930 . S
C425 C411 1.497 . S
C425 C424 1.438 . S
C425 C426 1.360 . S
C426 C425 1.360 . S
C426 C427 1.401 . S
C426 C431 1.446 . S
C427 C426 1.401 . S
C427 C428 1.347 . S
C427 H487 0.929 . S
C428 C427 1.347 . S
C428 C429 1.455 . S
C428 H488 0.930 . S
C429 C416 1.412 . S
C429 C428 1.455 . S
C429 C430 1.331 . S
C430 C419 1.451 . S
C430 C429 1.331 . S
C430 C431 1.497 . S
C431 C422 1.395 . S
C431 C426 1.446 . S
C431 C430 1.497 . S
C432 C433 1.582 . S
C432 H489 0.962 . S
C432 H490 0.959 . S
C432 H491 0.958 . S
C433 C432 1.582 . S
C433 O436 1.458 . S
C433 H462 0.980 . S
O434 C379 1.426 1_565 S
O434 C380 1.334 1_565 S
O435 C407 1.412 1_565 S
O435 C408 1.393 1_565 S
O436 C398 1.435 . S
O436 C433 1.458 . S
O437 C389 1.468 . S
O437 C390 1.408 . S
H438 C379 0.980 . S
H439 C378 0.959 . S
H440 C378 0.959 . S
H441 C378 0.960 . S
H442 C381 0.929 . S
H443 C385 0.929 . S
H444 C386 0.959 . S
H445 C386 0.961 . S
H446 C386 0.961 . S
H447 C387 0.960 . S
H448 C387 0.960 . S
H449 C387 0.961 . S
H450 C389 0.980 . S
H451 C388 0.961 . S
H452 C388 0.960 . S
H453 C388 0.959 . S
H454 C391 0.930 . S
H455 C395 0.931 . S
H456 C396 0.959 . S
H457 C396 0.961 . S
H458 C396 0.959 . S
H459 C397 0.960 . S
H460 C397 0.960 . S
H461 C397 0.960 . S
H462 C433 0.980 . S
H463 C399 0.930 . S
H464 C403 0.930 . S
H465 C404 0.961 . S
H466 C404 0.960 . S
H467 C404 0.958 . S
H468 C405 0.961 . S
H469 C405 0.960 . S
H470 C405 0.960 . S
H471 C407 0.980 . S
H472 C406 0.961 1_545 S
H473 C406 0.961 . S
H474 C406 0.959 . S
H475 C409 0.932 . S
H476 C413 0.929 . S
H477 C414 0.961 . S
H478 C414 0.959 . S
H479 C414 0.959 . S
H480 C415 0.960 . S
H481 C415 0.962 . S
H482 C415 0.961 . S
H483 C417 0.929 . S
H484 C420 0.930 . S
H485 C421 0.929 . S
H486 C424 0.930 . S
H487 C427 0.929 . S
H488 C428 0.930 . S
H489 C432 0.962 . S
H490 C432 0.959 . S
H491 C432 0.958 . S
C492 C493 1.560 . S
C492 H553 0.959 . S
C492 H554 0.959 . S
C492 H555 0.960 . S
C493 C492 1.560 . S
C493 O548 1.426 . S
C493 H552 0.980 . S
C494 C495 1.407 . S
C494 C499 1.418 . S
C494 O548 1.334 . S
C495 C494 1.407 . S
C495 C496 1.360 . S
C495 H556 0.929 . S
C496 C495 1.360 . S
C496 C497 1.401 . S
C496 C500 1.527 . S
C497 C496 1.401 . S
C497 C498 1.405 . S
C497 C530 1.587 . S
C498 C497 1.405 . S
C498 C499 1.332 . S
C498 C501 1.496 . S
C499 C494 1.418 . S
C499 C498 1.332 . S
C499 H557 0.929 . S
C500 C496 1.527 . S
C500 H558 0.959 . S
C500 H559 0.961 . S
C500 H560 0.961 . S
C501 C498 1.496 . S
C501 H561 0.960 . S
C501 H562 0.960 . S
C501 H563 0.961 . S
C502 C503 1.517 . S
C502 H565 0.961 . S
C502 H566 0.960 . S
C502 H567 0.959 . S
C503 C502 1.517 . S
C503 O551 1.468 . S
C503 H564 0.980 . S
C504 C505 1.349 . S
C504 C509 1.367 . S
C504 O551 1.408 . S
C505 C504 1.349 . S
C505 C506 1.407 . S
C505 H568 0.930 . S
C506 C505 1.407 . S
C506 C507 1.449 . S
C506 C510 1.535 . S
C507 C506 1.449 . S
C507 C508 1.384 . S
C507 C532 1.553 . S
C508 C507 1.384 . S
C508 C509 1.364 . S
C508 C511 1.450 . S
C509 C504 1.367 . S
C509 C508 1.364 . S
C509 H569 0.931 . S
C510 C506 1.535 . S
C510 H570 0.959 . S
C510 H571 0.961 . S
C510 H572 0.959 . S
C511 C508 1.450 . S
C511 H573 0.960 . S
C511 H574 0.960 . S
C511 H575 0.960 . S
C512 C513 1.309 . S
C512 C517 1.304 . S
C512 O550 1.435 . S
C513 C512 1.309 . S
C513 C514 1.476 . S
C513 H577 0.930 . S
C514 C513 1.476 . S
C514 C515 1.400 . S
C514 C518 1.567 . S
C515 C514 1.400 . S
C515 C516 1.373 . S
C515 C537 1.432 . S
C516 C515 1.373 . S
C516 C517 1.339 . S
C516 C519 1.530 . S
C517 C512 1.304 . S
C517 C516 1.339 . S
C517 H578 0.930 . S
C518 C514 1.567 . S
C518 H579 0.961 . S
C518 H580 0.960 . S
C518 H581 0.958 . S
C519 C516 1.530 . S
C519 H582 0.961 . S
C519 H583 0.960 . S
C519 H584 0.960 . S
C520 C521 1.530 . S
C520 H586 0.961 . S
C520 H587 0.961 . S
C520 H588 0.959 . S
C521 C520 1.530 . S
C521 O549 1.412 . S
C521 H585 0.980 . S
C522 C523 1.288 . S
C522 C527 1.377 . S
C522 O549 1.393 . S
C523 C522 1.288 . S
C523 C524 1.369 . S
C523 H589 0.932 . S
C524 C523 1.369 . S
C524 C525 1.398 . S
C524 C528 1.527 . S
C525 C524 1.398 . S
C525 C526 1.380 . S
C525 C539 1.497 . S
C526 C525 1.380 . S
C526 C527 1.383 . S
C526 C529 1.603 . S
C527 C522 1.377 . S
C527 C526 1.383 . S
C527 H590 0.929 . S
C528 C524 1.527 . S
C528 H591 0.961 . S
C528 H592 0.959 . S
C528 H593 0.959 . S
C529 C526 1.603 . S
C529 H594 0.960 . S
C529 H595 0.962 . S
C529 H596 0.961 . S
C530 C497 1.587 . S
C530 C531 1.360 . S
C530 C543 1.412 . S
C531 C530 1.360 . S
C531 C532 1.365 . S
C531 H597 0.929 . S
C532 C507 1.553 . S
C532 C531 1.365 . S
C532 C533 1.404 . S
C533 C532 1.404 . S
C533 C534 1.395 . S
C533 C544 1.451 . S
C534 C533 1.395 . S
C534 C535 1.322 . S
C534 H598 0.930 . S
C535 C534 1.322 . S
C535 C536 1.459 . S
C535 H599 0.929 . S
C536 C535 1.459 . S
C536 C537 1.445 . S
C536 C545 1.395 . S
C537 C515 1.432 . S
C537 C536 1.445 . S
C537 C538 1.370 . S
C538 C537 1.370 . S
C538 C539 1.438 . S
C538 H600 0.930 . S
C539 C525 1.497 . S
C539 C538 1.438 . S
C539 C540 1.360 . S
C540 C539 1.360 . S
C540 C541 1.401 . S
C540 C545 1.446 . S
C541 C540 1.401 . S
C541 C542 1.347 . S
C541 H601 0.929 . S
C542 C541 1.347 . S
C542 C543 1.455 . S
C542 H602 0.930 . S
C543 C530 1.412 . S
C543 C542 1.455 . S
C543 C544 1.331 . S
C544 C533 1.451 . S
C544 C543 1.331 . S
C544 C545 1.497 . S
C545 C536 1.395 . S
C545 C540 1.446 . S
C545 C544 1.497 . S
C546 C547 1.582 . S
C546 H603 0.962 . S
C546 H604 0.959 . S
C546 H605 0.958 . S
C547 C546 1.582 . S
C547 O550 1.458 . S
C547 H576 0.980 . S
O548 C493 1.426 . S
O548 C494 1.334 . S
O549 C521 1.412 . S
O549 C522 1.393 . S
O550 C512 1.435 . S
O550 C547 1.458 . S
O551 C503 1.468 . S
O551 C504 1.408 . S
H552 C493 0.980 . S
H553 C492 0.959 . S
H554 C492 0.959 . S
H555 C492 0.960 . S
H556 C495 0.929 . S
H557 C499 0.929 . S
H558 C500 0.959 . S
H559 C500 0.961 . S
H560 C500 0.961 . S
H561 C501 0.960 . S
H562 C501 0.960 . S
H563 C501 0.961 . S
H564 C503 0.980 . S
H565 C502 0.961 . S
H566 C502 0.960 . S
H567 C502 0.959 . S
H568 C505 0.930 . S
H569 C509 0.931 . S
H570 C510 0.959 . S
H571 C510 0.961 . S
H572 C510 0.959 . S
H573 C511 0.960 . S
H574 C511 0.960 . S
H575 C511 0.960 . S
H576 C547 0.980 . S
H577 C513 0.930 . S
H578 C517 0.930 . S
H579 C518 0.961 . S
H580 C518 0.960 . S
H581 C518 0.958 . S
H582 C519 0.961 . S
H583 C519 0.960 . S
H584 C519 0.960 . S
H585 C521 0.980 . S
H586 C520 0.961 . S
H587 C520 0.961 . S
H588 C520 0.959 . S
H589 C523 0.932 . S
H590 C527 0.929 . S
H591 C528 0.961 . S
H592 C528 0.959 . S
H593 C528 0.959 . S
H594 C529 0.960 . S
H595 C529 0.962 . S
H596 C529 0.961 . S
H597 C531 0.929 . S
H598 C534 0.930 . S
H599 C535 0.929 . S
H600 C538 0.930 . S
H601 C541 0.929 . S
H602 C542 0.930 . S
H603 C546 0.962 . S
H604 C546 0.959 . S
H605 C546 0.958 . S
H606 C624 0.951 . S
H607 C626 0.951 . S
H608 C628 0.972 . S
H609 C629 0.950 1_455 S
H610 C631 0.950 . S
H611 C634 0.950 . S
H612 C635 0.950 . S
H613 C637 0.950 . S
H614 C638 0.950 . S
H615 C639 0.951 . S
H616 C641 0.951 . S
H617 C643 0.950 . S
H618 C644 0.950 . S
H619 C646 0.950 . S
H620 C649 0.950 . S
H621 C650 0.950 . S
H622 C652 0.950 1_455 S
H623 C653 0.934 1_455 S
C624 H606 0.951 . S
C624 C625 1.366 . S
C624 C626 1.388 . S
C625 C624 1.366 . S
C625 C629 1.385 . S
C626 H607 0.951 . S
C626 C624 1.388 . S
C626 C627 1.366 . S
C627 C626 1.366 . S
C627 C628 1.383 1_655 S
C627 C630 1.499 . S
C628 H608 0.972 . S
C628 C627 1.383 1_455 S
C628 C629 1.384 1_455 S
C629 H609 0.950 1_655 S
C629 C625 1.385 . S
C629 C628 1.384 1_655 S
C630 C627 1.499 . S
C630 C631 1.373 . S
C630 C632 1.389 . S
C631 H610 0.950 . S
C631 C630 1.373 . S
C631 C647 1.377 . S
C632 C630 1.389 . S
C632 C633 1.524 . S
C632 C646 1.377 . S
C633 C632 1.524 . S
C633 C634 1.397 1_655 S
C633 C638 1.363 . S
C634 H611 0.950 . S
C634 C633 1.397 1_455 S
C634 C635 1.334 . S
C635 H612 0.950 . S
C635 C634 1.334 . S
C635 C636 1.287 . S
C636 C635 1.287 . S
C636 C637 1.524 1_455 S
C636 H655 0.913 . S
C637 H613 0.950 . S
C637 C636 1.524 1_655 S
C637 C638 1.415 . S
C638 H614 0.950 . S
C638 C633 1.363 . S
C638 C637 1.415 . S
C639 H615 0.951 . S
C639 C640 1.366 . S
C639 C641 1.388 . S
C640 C639 1.366 . S
C640 C644 1.385 1_455 S
C641 H616 0.951 . S
C641 C639 1.388 . S
C641 C642 1.366 1_455 S
C642 C641 1.366 1_655 S
C642 C643 1.414 . S
C642 C645 1.499 . S
C643 H617 0.950 . S
C643 C642 1.414 . S
C643 C644 1.374 . S
C644 H618 0.950 . S
C644 C640 1.385 1_655 S
C644 C643 1.374 . S
C645 C642 1.499 . S
C645 C646 1.373 . S
C645 C647 1.389 . S
C646 H619 0.950 . S
C646 C632 1.377 . S
C646 C645 1.373 . S
C647 C631 1.377 . S
C647 C645 1.389 . S
C647 C648 1.524 . S
C648 C647 1.524 . S
C648 C649 1.397 . S
C648 C653 1.379 . S
C649 H620 0.950 . S
C649 C648 1.397 . S
C649 C650 1.334 . S
C650 H621 0.950 . S
C650 C649 1.334 . S
C650 C651 1.287 . S
C651 C650 1.287 . S
C651 C652 1.524 . S
C651 H654 0.999 . S
C652 H622 0.950 1_655 S
C652 C651 1.524 . S
C652 C653 1.415 . S
C653 H623 0.934 1_655 S
C653 C648 1.379 . S
C653 C652 1.415 . S
H654 C651 0.999 . S
H655 C636 0.913 . S
H656 C674 0.951 . S
H657 C676 0.951 1_545 S
H658 C678 0.950 . S
H659 C679 0.950 . S
H660 C681 0.950 . S
H661 C684 0.950 . S
H662 C685 0.950 . S
H663 C687 0.950 . S
H664 C688 0.950 . S
H665 C689 0.951 . S
H666 C691 0.951 . S
H667 C693 0.950 . S
H668 C694 0.950 . S
H669 C696 0.950 . S
H670 C699 0.950 . S
H671 C700 0.950 . S
H672 C702 0.950 . S
H673 C703 0.950 . S
C674 H656 0.951 . S
C674 C675 1.366 . S
C674 C676 1.388 . S
C675 C674 1.366 . S
C675 C679 1.385 . S
C676 H657 0.951 1_565 S
C676 C674 1.388 . S
C676 C677 1.366 . S
C677 C676 1.366 . S
C677 C678 1.414 . S
C677 C680 1.506 . S
C678 H658 0.950 . S
C678 C677 1.414 . S
C678 C679 1.374 . S
C679 H659 0.950 . S
C679 C675 1.385 . S
C679 C678 1.374 . S
C680 C677 1.506 . S
C680 C681 1.358 1_565 S
C680 C682 1.396 . S
C681 H660 0.950 . S
C681 C680 1.358 1_545 S
C681 C697 1.377 . S
C682 C680 1.396 . S
C682 C683 1.524 . S
C682 C696 1.377 . S
C683 C682 1.524 . S
C683 C684 1.397 . S
C683 C688 1.363 . S
C684 H661 0.950 . S
C684 C683 1.397 . S
C684 C685 1.334 . S
C685 H662 0.950 . S
C685 C684 1.334 . S
C685 C686 1.287 . S
C686 C685 1.287 . S
C686 C687 1.524 . S
C686 H705 0.913 . S
C687 H663 0.950 . S
C687 C686 1.524 . S
C687 C688 1.415 . S
C688 H664 0.950 . S
C688 C683 1.363 . S
C688 C687 1.415 . S
C689 H665 0.951 . S
C689 C690 1.366 . S
C689 C691 1.388 . S
C690 C689 1.366 . S
C690 C694 1.385 . S
C691 H666 0.951 . S
C691 C689 1.388 . S
C691 C692 1.366 . S
C692 C691 1.366 . S
C692 C693 1.414 . S
C692 C695 1.499 . S
C693 H667 0.950 . S
C693 C692 1.414 . S
C693 C694 1.374 . S
C694 H668 0.950 . S
C694 C690 1.385 . S
C694 C693 1.374 . S
C695 C692 1.499 . S
C695 C696 1.373 1_545 S
C695 C697 1.389 . S
C696 H669 0.950 . S
C696 C682 1.377 . S
C696 C695 1.373 1_565 S
C697 C681 1.377 . S
C697 C695 1.389 . S
C697 C698 1.524 . S
C698 C697 1.524 . S
C698 C699 1.397 . S
C698 C703 1.363 . S
C699 H670 0.950 . S
C699 C698 1.397 . S
C699 C700 1.334 . S
C700 H671 0.950 . S
C700 C699 1.334 . S
C700 C701 1.287 . S
C701 C700 1.287 . S
C701 C702 1.524 . S
C701 H704 0.999 . S
C702 H672 0.950 . S
C702 C701 1.524 . S
C702 C703 1.415 . S
C703 H673 0.950 . S
C703 C698 1.363 . S
C703 C702 1.415 . S
H704 C701 0.999 . S
H705 C686 0.913 . S
H706 C724 0.951 . S
H707 C726 0.951 . S
H708 C728 0.950 . S
H709 C729 0.950 . S
H710 C731 0.950 . S
H711 C734 0.950 . S
H712 C735 0.950 . S
H713 C737 0.950 . S
H714 C738 0.950 . S
H715 C739 0.951 . S
H716 C741 0.951 . S
H717 C743 0.950 . S
H718 C744 0.950 . S
H719 C746 0.950 . S
H720 C749 0.950 . S
H721 C750 0.950 . S
H722 C752 0.950 . S
H723 C753 0.950 . S
C724 H706 0.951 . S
C724 C725 1.366 . S
C724 C726 1.388 . S
C725 C724 1.366 . S
C725 C729 1.385 . S
C726 H707 0.951 . S
C726 C724 1.388 . S
C726 C727 1.366 . S
C727 C726 1.366 . S
C727 C728 1.414 . S
C727 C730 1.499 . S
C728 H708 0.950 . S
C728 C727 1.414 . S
C728 C729 1.374 . S
C729 H709 0.950 . S
C729 C725 1.385 . S
C729 C728 1.374 . S
C730 C727 1.499 . S
C730 C731 1.373 . S
C730 C732 1.389 . S
C731 H710 0.950 . S
C731 C730 1.373 . S
C731 C747 1.377 . S
C732 C730 1.389 . S
C732 C733 1.524 . S
C732 C746 1.377 . S
C733 C732 1.524 . S
C733 C734 1.397 . S
C733 C738 1.363 . S
C734 H711 0.950 . S
C734 C733 1.397 . S
C734 C735 1.334 . S
C735 H712 0.950 . S
C735 C734 1.334 . S
C735 C736 1.287 . S
C736 C735 1.287 . S
C736 C737 1.524 . S
C736 H755 0.913 . S
C737 H713 0.950 . S
C737 C736 1.524 . S
C737 C738 1.415 . S
C738 H714 0.950 . S
C738 C733 1.363 . S
C738 C737 1.415 . S
C739 H715 0.951 . S
C739 C740 1.366 . S
C739 C741 1.388 . S
C740 C739 1.366 . S
C740 C744 1.385 . S
C741 H716 0.951 . S
C741 C739 1.388 . S
C741 C742 1.366 . S
C742 C741 1.366 . S
C742 C743 1.414 . S
C742 C745 1.499 . S
C743 H717 0.950 . S
C743 C742 1.414 . S
C743 C744 1.374 . S
C744 H718 0.950 . S
C744 C740 1.385 . S
C744 C743 1.374 . S
C745 C742 1.499 . S
C745 C746 1.373 . S
C745 C747 1.389 . S
C746 H719 0.950 . S
C746 C732 1.377 . S
C746 C745 1.373 . S
C747 C731 1.377 . S
C747 C745 1.389 . S
C747 C748 1.524 . S
C748 C747 1.524 . S
C748 C749 1.397 . S
C748 C753 1.363 . S
C749 H720 0.950 . S
C749 C748 1.397 . S
C749 C750 1.334 . S
C750 H721 0.950 . S
C750 C749 1.334 . S
C750 C751 1.287 . S
C751 C750 1.287 . S
C751 C752 1.524 . S
C751 H754 0.999 . S
C752 H722 0.950 . S
C752 C751 1.524 . S
C752 C753 1.415 . S
C753 H723 0.950 . S
C753 C748 1.363 . S
C753 C752 1.415 . S
H754 C751 0.999 . S
H755 C736 0.913 . S
H756 C774 0.951 . S
H757 C776 0.951 . S
H758 C778 0.950 . S
H759 C779 0.950 . S
H760 C781 0.950 1_655 S
H761 C784 0.950 . S
H762 C785 0.950 . S
H763 C787 0.950 . S
H764 C788 0.950 . S
H765 C789 0.951 . S
H766 C791 0.951 . S
H767 C793 0.950 . S
H768 C794 0.950 . S
H769 C796 0.950 . S
H770 C799 0.950 . S
H771 C800 0.950 . S
H772 C802 0.950 . S
H773 C803 0.950 . S
C774 H756 0.951 . S
C774 C775 1.366 . S
C774 C776 1.388 . S
C775 C774 1.366 . S
C775 C779 1.385 . S
C776 H757 0.951 . S
C776 C774 1.388 . S
C776 C777 1.366 . S
C777 C776 1.366 . S
C777 C778 1.414 . S
C777 C780 1.499 . S
C778 H758 0.950 . S
C778 C777 1.414 . S
C778 C779 1.374 . S
C779 H759 0.950 . S
C779 C775 1.385 . S
C779 C778 1.374 . S
C780 C777 1.499 . S
C780 C781 1.373 . S
C780 C782 1.389 . S
C781 H760 0.950 1_455 S
C781 C780 1.373 . S
C781 C797 1.377 . S
C782 C780 1.389 . S
C782 C783 1.524 . S
C782 C796 1.377 . S
C783 C782 1.524 . S
C783 C784 1.397 . S
C783 C788 1.363 . S
C784 H761 0.950 . S
C784 C783 1.397 . S
C784 C785 1.334 . S
C785 H762 0.950 . S
C785 C784 1.334 . S
C785 C786 1.287 . S
C786 C785 1.287 . S
C786 C787 1.524 . S
C786 H805 0.913 . S
C787 H763 0.950 . S
C787 C786 1.524 . S
C787 C788 1.415 . S
C788 H764 0.950 . S
C788 C783 1.363 . S
C788 C787 1.415 . S
C789 H765 0.951 . S
C789 C790 1.366 . S
C789 C791 1.388 . S
C790 C789 1.366 . S
C790 C794 1.385 . S
C791 H766 0.951 . S
C791 C789 1.388 . S
C791 C792 1.366 . S
C792 C791 1.366 . S
C792 C793 1.414 . S
C792 C795 1.499 . S
C793 H767 0.950 . S
C793 C792 1.414 . S
C793 C794 1.374 . S
C794 H768 0.950 . S
C794 C790 1.385 . S
C794 C793 1.374 . S
C795 C792 1.499 . S
C795 C796 1.373 . S
C795 C797 1.389 . S
C796 H769 0.950 . S
C796 C782 1.377 . S
C796 C795 1.373 . S
C797 C781 1.377 . S
C797 C795 1.389 . S
C797 C798 1.524 1_455 S
C798 C797 1.524 1_655 S
C798 C799 1.397 . S
C798 C803 1.363 . S
C799 H770 0.950 . S
C799 C798 1.397 . S
C799 C800 1.334 . S
C800 H771 0.950 . S
C800 C799 1.334 . S
C800 C801 1.287 . S
C801 C800 1.287 . S
C801 C802 1.524 . S
C801 H804 0.999 . S
C802 H772 0.950 . S
C802 C801 1.524 . S
C802 C803 1.415 . S
C803 H773 0.950 . S
C803 C798 1.363 . S
C803 C802 1.415 . S
H804 C801 0.999 . S
H805 C786 0.913 . S
H806 C824 0.951 . S
H807 C826 0.951 . S
H808 C828 0.950 . S
H809 C829 0.950 . S
H810 C831 0.950 . S
H811 C834 0.950 . S
H812 C835 0.950 . S
H813 C837 0.950 . S
H814 C838 0.950 . S
H815 C839 0.951 . S
H816 C841 0.951 . S
H817 C843 0.950 . S
H818 C844 0.950 . S
H819 C846 0.950 . S
H820 C849 0.950 . S
H821 C850 0.950 . S
H822 C852 0.950 . S
H823 C853 0.950 . S
C824 H806 0.951 . S
C824 C825 1.366 . S
C824 C826 1.388 . S
C825 C824 1.366 . S
C825 C829 1.385 . S
C826 H807 0.951 . S
C826 C824 1.388 . S
C826 C827 1.366 . S
C827 C826 1.366 . S
C827 C828 1.414 . S
C827 C830 1.499 . S
C828 H808 0.950 . S
C828 C827 1.414 . S
C828 C829 1.374 . S
C829 H809 0.950 . S
C829 C825 1.385 . S
C829 C828 1.374 . S
C830 C827 1.499 . S
C830 C831 1.373 . S
C830 C832 1.389 . S
C831 H810 0.950 . S
C831 C830 1.373 . S
C831 C847 1.377 . S
C832 C830 1.389 . S
C832 C833 1.524 . S
C832 C846 1.377 . S
C833 C832 1.524 . S
C833 C834 1.397 1_545 S
C833 C838 1.363 . S
C834 H811 0.950 . S
C834 C833 1.397 1_565 S
C834 C835 1.334 . S
C835 H812 0.950 . S
C835 C834 1.334 . S
C835 C836 1.287 . S
C836 C835 1.287 . S
C836 C837 1.524 . S
C836 H855 0.913 . S
C837 H813 0.950 . S
C837 C836 1.524 . S
C837 C838 1.415 1_565 S
C838 H814 0.950 . S
C838 C833 1.363 . S
C838 C837 1.415 1_545 S
C839 H815 0.951 . S
C839 C840 1.366 . S
C839 C841 1.388 . S
C840 C839 1.366 . S
C840 C844 1.385 . S
C841 H816 0.951 . S
C841 C839 1.388 . S
C841 C842 1.366 . S
C842 C841 1.366 . S
C842 C843 1.414 . S
C842 C845 1.499 . S
C843 H817 0.950 . S
C843 C842 1.414 . S
C843 C844 1.374 . S
C844 H818 0.950 . S
C844 C840 1.385 . S
C844 C843 1.374 . S
C845 C842 1.499 . S
C845 C846 1.373 . S
C845 C847 1.389 . S
C846 H819 0.950 . S
C846 C832 1.377 . S
C846 C845 1.373 . S
C847 C831 1.377 . S
C847 C845 1.389 . S
C847 C848 1.524 . S
C848 C847 1.524 . S
C848 C849 1.397 . S
C848 C853 1.363 . S
C849 H820 0.950 . S
C849 C848 1.397 . S
C849 C850 1.334 . S
C850 H821 0.950 . S
C850 C849 1.334 . S
C850 C851 1.287 . S
C851 C850 1.287 . S
C851 C852 1.524 . S
C851 H854 0.999 . S
C852 H822 0.950 . S
C852 C851 1.524 . S
C852 C853 1.415 . S
C853 H823 0.950 . S
C853 C848 1.363 . S
C853 C852 1.415 . S
H854 C851 0.999 . S
H855 C836 0.913 . S
H856 C874 0.951 . S
H857 C876 0.951 . S
H858 C878 0.950 . S
H859 C879 0.950 . S
H860 C881 0.950 . S
H861 C884 0.950 . S
H862 C885 0.950 . S
H863 C887 0.950 . S
H864 C888 0.950 . S
H865 C889 0.951 . S
H866 C891 0.951 . S
H867 C893 0.950 . S
H868 C894 0.950 . S
H869 C896 0.950 . S
H870 C899 0.950 . S
H871 C900 0.950 . S
H872 C902 0.950 . S
H873 C903 0.950 . S
C874 H856 0.951 . S
C874 C875 1.366 . S
C874 C876 1.388 . S
C875 C874 1.366 . S
C875 C879 1.385 . S
C876 H857 0.951 . S
C876 C874 1.388 . S
C876 C877 1.366 . S
C877 C876 1.366 . S
C877 C878 1.414 . S
C877 C880 1.499 . S
C878 H858 0.950 . S
C878 C877 1.414 . S
C878 C879 1.374 . S
C879 H859 0.950 . S
C879 C875 1.385 . S
C879 C878 1.374 . S
C880 C877 1.499 . S
C880 C881 1.373 . S
C880 C882 1.389 . S
C881 H860 0.950 . S
C881 C880 1.373 . S
C881 C897 1.377 . S
C882 C880 1.389 . S
C882 C883 1.524 . S
C882 C896 1.377 . S
C883 C882 1.524 . S
C883 C884 1.397 . S
C883 C888 1.363 . S
C884 H861 0.950 . S
C884 C883 1.397 . S
C884 C885 1.334 . S
C885 H862 0.950 . S
C885 C884 1.334 . S
C885 C886 1.287 . S
C886 C885 1.287 . S
C886 C887 1.524 . S
C886 H905 0.913 . S
C887 H863 0.950 . S
C887 C886 1.524 . S
C887 C888 1.415 . S
C888 H864 0.950 . S
C888 C883 1.363 . S
C888 C887 1.415 . S
C889 H865 0.951 . S
C889 C890 1.366 . S
C889 C891 1.388 . S
C890 C889 1.366 . S
C890 C894 1.385 . S
C891 H866 0.951 . S
C891 C889 1.388 . S
C891 C892 1.366 . S
C892 C891 1.366 . S
C892 C893 1.414 . S
C892 C895 1.499 . S
C893 H867 0.950 . S
C893 C892 1.414 . S
C893 C894 1.374 . S
C894 H868 0.950 . S
C894 C890 1.385 . S
C894 C893 1.374 . S
C895 C892 1.499 . S
C895 C896 1.373 . S
C895 C897 1.389 . S
C896 H869 0.950 . S
C896 C882 1.377 . S
C896 C895 1.373 . S
C897 C881 1.377 . S
C897 C895 1.389 . S
C897 C898 1.524 . S
C898 C897 1.524 . S
C898 C899 1.397 . S
C898 C903 1.363 . S
C899 H870 0.950 . S
C899 C898 1.397 . S
C899 C900 1.334 . S
C900 H871 0.950 . S
C900 C899 1.334 . S
C900 C901 1.287 . S
C901 C900 1.287 . S
C901 C902 1.524 . S
C901 H904 0.999 . S
C902 H872 0.950 . S
C902 C901 1.524 . S
C902 C903 1.415 . S
C903 H873 0.950 . S
C903 C898 1.363 . S
C903 C902 1.415 . S
H904 C901 0.999 . S
H905 C886 0.913 . S
H906 C924 0.951 . S
H907 C926 0.951 . S
H908 C928 0.950 . S
H909 C929 0.950 . S
H910 C931 0.950 . S
H911 C934 0.950 . S
H912 C935 0.950 . S
H913 C937 0.950 . S
H914 C938 0.950 . S
H915 C939 0.951 . S
H916 C941 0.951 . S
H917 C943 0.950 . S
H918 C944 0.950 . S
H919 C946 0.950 . S
H920 C949 0.950 . S
H921 C950 0.950 . S
H922 C952 0.950 . S
H923 C953 0.950 1_545 S
C924 H906 0.951 . S
C924 C925 1.366 . S
C924 C926 1.388 . S
C925 C924 1.366 . S
C925 C929 1.385 . S
C926 H907 0.951 . S
C926 C924 1.388 . S
C926 C927 1.366 . S
C927 C926 1.366 . S
C927 C928 1.414 . S
C927 C930 1.499 . S
C928 H908 0.950 . S
C928 C927 1.414 . S
C928 C929 1.374 . S
C929 H909 0.950 . S
C929 C925 1.385 . S
C929 C928 1.374 . S
C930 C927 1.499 . S
C930 C931 1.373 . S
C930 C932 1.389 . S
C931 H910 0.950 . S
C931 C930 1.373 . S
C931 C947 1.377 . S
C932 C930 1.389 . S
C932 C933 1.524 . S
C932 C946 1.377 . S
C933 C932 1.524 . S
C933 C934 1.397 . S
C933 C938 1.363 . S
C934 H911 0.950 . S
C934 C933 1.397 . S
C934 C935 1.334 . S
C935 H912 0.950 . S
C935 C934 1.334 . S
C935 C936 1.287 . S
C936 C935 1.287 . S
C936 C937 1.524 . S
C936 H955 0.913 . S
C937 H913 0.950 . S
C937 C936 1.524 . S
C937 C938 1.415 . S
C938 H914 0.950 . S
C938 C933 1.363 . S
C938 C937 1.415 . S
C939 H915 0.951 . S
C939 C940 1.366 . S
C939 C941 1.388 . S
C940 C939 1.366 . S
C940 C944 1.385 . S
C941 H916 0.951 . S
C941 C939 1.388 . S
C941 C942 1.366 . S
C942 C941 1.366 . S
C942 C943 1.414 . S
C942 C945 1.499 . S
C943 H917 0.950 . S
C943 C942 1.414 . S
C943 C944 1.374 . S
C944 H918 0.950 . S
C944 C940 1.385 . S
C944 C943 1.374 . S
C945 C942 1.499 . S
C945 C946 1.373 . S
C945 C947 1.389 . S
C946 H919 0.950 . S
C946 C932 1.377 . S
C946 C945 1.373 . S
C947 C931 1.377 . S
C947 C945 1.389 . S
C947 C948 1.524 1_545 S
C948 C947 1.524 1_565 S
C948 C949 1.397 . S
C948 C953 1.363 . S
C949 H920 0.950 . S
C949 C948 1.397 . S
C949 C950 1.334 . S
C950 H921 0.950 . S
C950 C949 1.334 . S
C950 C951 1.287 . S
C951 C950 1.287 . S
C951 C952 1.524 . S
C951 H954 0.999 . S
C952 H922 0.950 . S
C952 C951 1.524 . S
C952 C953 1.415 . S
C953 H923 0.950 1_565 S
C953 C948 1.363 . S
C953 C952 1.415 . S
H954 C951 0.999 . S
H955 C936 0.913 . S
H956 C974 0.951 . S
H957 C976 0.951 . S
H958 C978 0.950 . S
H959 C979 0.950 . S
H960 C981 0.950 . S
H961 C984 0.950 . S
H962 C985 0.950 . S
H963 C987 0.950 . S
H964 C988 0.950 . S
H965 C989 0.951 . S
H966 C991 0.986 . S
H967 C993 0.950 . S
H968 C994 0.950 . S
H969 C996 0.950 . S
H970 C999 0.950 . S
H971 C1000 0.950 . S
H972 C1002 0.926 1_554 S
H973 C1003 0.950 . S
C974 H956 0.951 . S
C974 C975 1.366 . S
C974 C976 1.388 . S
C975 C974 1.366 . S
C975 C979 1.385 . S
C976 H957 0.951 . S
C976 C974 1.388 . S
C976 C977 1.366 . S
C977 C976 1.366 . S
C977 C978 1.414 . S
C977 C980 1.499 . S
C978 H958 0.950 . S
C978 C977 1.414 . S
C978 C979 1.374 . S
C979 H959 0.950 . S
C979 C975 1.385 . S
C979 C978 1.374 . S
C980 C977 1.499 . S
C980 C981 1.373 . S
C980 C982 1.389 . S
C981 H960 0.950 . S
C981 C980 1.373 . S
C981 C997 1.377 . S
C982 C980 1.389 . S
C982 C983 1.524 . S
C982 C996 1.377 . S
C983 C982 1.524 . S
C983 C984 1.397 . S
C983 C988 1.363 . S
C984 H961 0.950 . S
C984 C983 1.397 . S
C984 C985 1.334 . S
C985 H962 0.950 . S
C985 C984 1.334 . S
C985 C986 1.287 . S
C986 C985 1.287 . S
C986 C987 1.524 . S
C986 H1005 0.913 . S
C987 H963 0.950 . S
C987 C986 1.524 . S
C987 C988 1.415 . S
C988 H964 0.950 . S
C988 C983 1.363 . S
C988 C987 1.415 . S
C989 H965 0.951 . S
C989 C990 1.366 . S
C989 C991 1.388 . S
C990 C989 1.366 . S
C990 C994 1.385 . S
C991 H966 0.986 . S
C991 C989 1.388 . S
C991 C992 1.366 . S
C992 C991 1.366 . S
C992 C993 1.414 . S
C992 C995 1.523 . S
C993 H967 0.950 . S
C993 C992 1.414 . S
C993 C994 1.374 . S
C994 H968 0.950 . S
C994 C990 1.385 . S
C994 C993 1.374 . S
C995 C992 1.523 . S
C995 C996 1.358 1_556 S
C995 C997 1.379 1_556 S
C996 H969 0.950 . S
C996 C982 1.377 . S
C996 C995 1.358 1_554 S
C997 C981 1.377 . S
C997 C995 1.379 1_554 S
C997 C998 1.524 1_554 S
C998 C997 1.524 1_556 S
C998 C999 1.397 . S
C998 C1003 1.363 1_556 S
C999 H970 0.950 . S
C999 C998 1.397 . S
C999 C1000 1.334 . S
C1000 H971 0.950 . S
C1000 C999 1.334 . S
C1000 C1001 1.287 . S
C1001 C1000 1.287 . S
C1001 C1002 1.573 . S
C1001 H1004 0.999 . S
C1002 H972 0.926 1_556 S
C1002 C1001 1.573 . S
C1002 C1003 1.395 1_556 S
C1003 H973 0.950 . S
C1003 C998 1.363 1_554 S
C1003 C1002 1.395 1_554 S
H1004 C1001 0.999 . S
H1005 C986 0.913 . S
H1006 C1024 0.951 . S
H1007 C1026 0.951 . S
H1008 C1028 0.950 . S
H1009 C1029 0.950 . S
H1010 C1031 0.950 . S
H1011 C1034 0.950 . S
H1012 C1035 0.950 . S
H1013 C1037 0.950 . S
H1014 C1038 0.950 . S
H1015 C1039 0.951 . S
H1016 C1041 0.951 . S
H1017 C1043 0.950 . S
H1018 C1044 0.950 . S
H1019 C1046 0.950 . S
H1020 C1049 0.950 . S
H1021 C1050 0.950 . S
H1022 C1052 0.950 . S
H1023 C1053 0.950 . S
C1024 H1006 0.951 . S
C1024 C1025 1.366 1_455 S
C1024 C1026 1.388 . S
C1025 C1024 1.366 1_655 S
C1025 C1029 1.385 . S
C1026 H1007 0.951 . S
C1026 C1024 1.388 . S
C1026 C1027 1.366 1_455 S
C1027 C1026 1.366 1_655 S
C1027 C1028 1.414 . S
C1027 C1030 1.499 . S
C1028 H1008 0.950 . S
C1028 C1027 1.414 . S
C1028 C1029 1.374 . S
C1029 H1009 0.950 . S
C1029 C1025 1.385 . S
C1029 C1028 1.374 . S
C1030 C1027 1.499 . S
C1030 C1031 1.373 . S
C1030 C1032 1.389 . S
C1031 H1010 0.950 . S
C1031 C1030 1.373 . S
C1031 C1047 1.377 . S
C1032 C1030 1.389 . S
C1032 C1033 1.524 . S
C1032 C1046 1.377 . S
C1033 C1032 1.524 . S
C1033 C1034 1.397 . S
C1033 C1038 1.363 1_655 S
C1034 H1011 0.950 . S
C1034 C1033 1.397 . S
C1034 C1035 1.334 . S
C1035 H1012 0.950 . S
C1035 C1034 1.334 . S
C1035 C1036 1.287 . S
C1036 C1035 1.287 . S
C1036 C1037 1.524 1_655 S
C1036 H1055 0.913 . S
C1037 H1013 0.950 . S
C1037 C1036 1.524 1_455 S
C1037 C1038 1.415 . S
C1038 H1014 0.950 . S
C1038 C1033 1.363 1_455 S
C1038 C1037 1.415 . S
C1039 H1015 0.951 . S
C1039 C1040 1.366 1_655 S
C1039 C1041 1.388 . S
C1040 C1039 1.366 1_455 S
C1040 C1044 1.385 . S
C1041 H1016 0.951 . S
C1041 C1039 1.388 . S
C1041 C1042 1.360 1_655 S
C1042 C1041 1.360 1_455 S
C1042 C1043 1.437 . S
C1042 C1045 1.482 1_455 S
C1043 H1017 0.950 . S
C1043 C1042 1.437 . S
C1043 C1044 1.374 . S
C1044 H1018 0.950 . S
C1044 C1040 1.385 . S
C1044 C1043 1.374 . S
C1045 C1042 1.482 1_655 S
C1045 C1046 1.373 . S
C1045 C1047 1.389 . S
C1046 H1019 0.950 . S
C1046 C1032 1.377 . S
C1046 C1045 1.373 . S
C1047 C1031 1.377 . S
C1047 C1045 1.389 . S
C1047 C1048 1.504 1_655 S
C1048 C1047 1.504 1_455 S
C1048 C1049 1.433 . S
C1048 C1053 1.349 1_455 S
C1049 H1020 0.950 . S
C1049 C1048 1.433 . S
C1049 C1050 1.334 . S
C1050 H1021 0.950 . S
C1050 C1049 1.334 . S
C1050 C1051 1.287 . S
C1051 C1050 1.287 . S
C1051 C1052 1.524 1_455 S
C1051 H1054 0.999 . S
C1052 H1022 0.950 . S
C1052 C1051 1.524 1_655 S
C1052 C1053 1.415 . S
C1053 H1023 0.950 . S
C1053 C1048 1.349 1_655 S
C1053 C1052 1.415 . S
H1054 C1051 0.999 . S
H1055 C1036 0.913 . S
H1056 C1074 0.951 . S
H1057 C1076 0.951 . S
H1058 C1078 0.950 . S
H1059 C1079 0.950 . S
H1060 C1081 0.950 . S
H1061 C1084 0.950 . S
H1062 C1085 0.950 . S
H1063 C1087 0.950 . S
H1064 C1088 0.916 1_565 S
H1065 C1089 0.951 . S
H1066 C1091 0.951 . S
H1067 C1093 0.950 . S
H1068 C1094 0.950 1_565 S
H1069 C1096 0.950 . S
H1070 C1099 0.950 . S
H1071 C1100 0.950 . S
H1072 C1102 0.950 . S
H1073 C1103 0.950 1_545 S
C1074 H1056 0.951 . S
C1074 C1075 1.366 . S
C1074 C1076 1.388 . S
C1075 C1074 1.366 . S
C1075 C1079 1.385 1_565 S
C1076 H1057 0.951 . S
C1076 C1074 1.388 . S
C1076 C1077 1.366 . S
C1077 C1076 1.366 . S
C1077 C1078 1.414 1_565 S
C1077 C1080 1.499 1_565 S
C1078 H1058 0.950 . S
C1078 C1077 1.414 1_545 S
C1078 C1079 1.374 . S
C1079 H1059 0.950 . S
C1079 C1075 1.385 1_545 S
C1079 C1078 1.374 . S
C1080 C1077 1.499 1_545 S
C1080 C1081 1.373 1_545 S
C1080 C1082 1.389 . S
C1081 H1060 0.950 . S
C1081 C1080 1.373 1_565 S
C1081 C1097 1.377 . S
C1082 C1080 1.389 . S
C1082 C1083 1.524 . S
C1082 C1096 1.377 . S
C1083 C1082 1.524 . S
C1083 C1084 1.397 . S
C1083 C1088 1.363 . S
C1084 H1061 0.950 . S
C1084 C1083 1.397 . S
C1084 C1085 1.334 . S
C1085 H1062 0.950 . S
C1085 C1084 1.334 . S
C1085 C1086 1.287 . S
C1086 C1085 1.287 . S
C1086 C1087 1.524 . S
C1086 H1105 0.913 . S
C1087 H1063 0.950 . S
C1087 C1086 1.524 . S
C1087 C1088 1.415 . S
C1088 H1064 0.916 1_545 S
C1088 C1083 1.363 . S
C1088 C1087 1.415 . S
C1089 H1065 0.951 . S
C1089 C1090 1.366 . S
C1089 C1091 1.388 . S
C1090 C1089 1.366 . S
C1090 C1094 1.385 . S
C1091 H1066 0.951 . S
C1091 C1089 1.388 . S
C1091 C1092 1.366 . S
C1092 C1091 1.366 . S
C1092 C1093 1.414 1_545 S
C1092 C1095 1.499 . S
C1093 H1067 0.950 . S
C1093 C1092 1.414 1_565 S
C1093 C1094 1.374 1_565 S
C1094 H1068 0.950 1_545 S
C1094 C1090 1.385 . S
C1094 C1093 1.374 1_545 S
C1095 C1092 1.499 . S
C1095 C1096 1.373 . S
C1095 C1097 1.389 1_545 S
C1096 H1069 0.950 . S
C1096 C1082 1.377 . S
C1096 C1095 1.373 . S
C1097 C1081 1.377 . S
C1097 C1095 1.389 1_565 S
C1097 C1098 1.524 . S
C1098 C1097 1.524 . S
C1098 C1099 1.397 . S
C1098 C1103 1.363 . S
C1099 H1070 0.950 . S
C1099 C1098 1.397 . S
C1099 C1100 1.334 . S
C1100 H1071 0.950 . S
C1100 C1099 1.334 . S
C1100 C1101 1.287 . S
C1101 C1100 1.287 . S
C1101 C1102 1.524 . S
C1101 H1104 0.999 . S
C1102 H1072 0.950 . S
C1102 C1101 1.524 . S
C1102 C1103 1.415 . S
C1103 H1073 0.950 1_565 S
C1103 C1098 1.363 . S
C1103 C1102 1.415 . S
H1104 C1101 0.999 . S
H1105 C1086 0.913 . S
H1106 C1124 0.951 . S
H1107 C1126 0.951 . S
H1108 C1128 0.950 . S
H1109 C1129 0.950 . S
H1110 C1131 0.950 . S
H1111 C1134 0.950 . S
H1112 C1135 0.950 . S
H1113 C1137 0.950 . S
H1114 C1138 0.950 . S
H1115 C1139 0.951 . S
H1116 C1141 0.951 . S
H1117 C1143 0.950 . S
H1118 C1144 0.950 . S
H1119 C1146 0.950 . S
H1120 C1149 0.950 . S
H1121 C1150 0.950 . S
H1122 C1152 0.950 . S
H1123 C1153 0.950 . S
C1124 H1106 0.951 . S
C1124 C1125 1.366 . S
C1124 C1126 1.388 . S
C1125 C1124 1.366 . S
C1125 C1129 1.385 . S
C1126 H1107 0.951 . S
C1126 C1124 1.388 . S
C1126 C1127 1.366 . S
C1127 C1126 1.366 . S
C1127 C1128 1.414 . S
C1127 C1130 1.499 . S
C1128 H1108 0.950 . S
C1128 C1127 1.414 . S
C1128 C1129 1.374 . S
C1129 H1109 0.950 . S
C1129 C1125 1.385 . S
C1129 C1128 1.374 . S
C1130 C1127 1.499 . S
C1130 C1131 1.373 . S
C1130 C1132 1.389 . S
C1131 H1110 0.950 . S
C1131 C1130 1.373 . S
C1131 C1147 1.377 1_554 S
C1132 C1130 1.389 . S
C1132 C1133 1.524 . S
C1132 C1146 1.377 . S
C1133 C1132 1.524 . S
C1133 C1134 1.397 . S
C1133 C1138 1.363 . S
C1134 H1111 0.950 . S
C1134 C1133 1.397 . S
C1134 C1135 1.334 . S
C1135 H1112 0.950 . S
C1135 C1134 1.334 . S
C1135 C1136 1.287 . S
C1136 C1135 1.287 . S
C1136 C1137 1.524 . S
C1136 H1155 0.913 . S
C1137 H1113 0.950 . S
C1137 C1136 1.524 . S
C1137 C1138 1.415 . S
C1138 H1114 0.950 . S
C1138 C1133 1.363 . S
C1138 C1137 1.415 . S
C1139 H1115 0.951 . S
C1139 C1140 1.366 . S
C1139 C1141 1.388 . S
C1140 C1139 1.366 . S
C1140 C1144 1.385 . S
C1141 H1116 0.951 . S
C1141 C1139 1.388 . S
C1141 C1142 1.366 . S
C1142 C1141 1.366 . S
C1142 C1143 1.414 . S
C1142 C1145 1.499 . S
C1143 H1117 0.950 . S
C1143 C1142 1.414 . S
C1143 C1144 1.374 . S
C1144 H1118 0.950 . S
C1144 C1140 1.385 . S
C1144 C1143 1.374 . S
C1145 C1142 1.499 . S
C1145 C1146 1.373 1_556 S
C1145 C1147 1.389 . S
C1146 H1119 0.950 . S
C1146 C1132 1.377 . S
C1146 C1145 1.373 1_554 S
C1147 C1131 1.377 1_556 S
C1147 C1145 1.389 . S
C1147 C1148 1.524 . S
C1148 C1147 1.524 . S
C1148 C1149 1.397 . S
C1148 C1153 1.363 . S
C1149 H1120 0.950 . S
C1149 C1148 1.397 . S
C1149 C1150 1.334 . S
C1150 H1121 0.950 . S
C1150 C1149 1.334 . S
C1150 C1151 1.287 . S
C1151 C1150 1.287 . S
C1151 C1152 1.524 . S
C1151 H1154 0.999 . S
C1152 H1122 0.950 . S
C1152 C1151 1.524 . S
C1152 C1153 1.415 . S
C1153 H1123 0.950 . S
C1153 C1148 1.363 . S
C1153 C1152 1.415 . S
H1154 C1151 0.999 . S
H1155 C1136 0.913 . S
H1156 C1174 0.951 . S
H1157 C1176 0.951 . S
H1158 C1178 0.950 . S
H1159 C1179 0.950 . S
H1160 C1181 0.950 . S
H1161 C1184 0.950 . S
H1162 C1185 0.950 . S
H1163 C1187 0.950 . S
H1164 C1188 0.950 . S
H1165 C1189 0.951 . S
H1166 C1191 0.951 . S
H1167 C1193 0.950 1_655 S
H1168 C1194 0.950 1_655 S
H1169 C1196 0.950 . S
H1170 C1199 0.950 . S
H1171 C1200 0.950 . S
H1172 C1202 0.950 . S
H1173 C1203 0.950 . S
C1174 H1156 0.951 . S
C1174 C1175 1.366 . S
C1174 C1176 1.388 . S
C1175 C1174 1.366 . S
C1175 C1179 1.385 . S
C1176 H1157 0.951 . S
C1176 C1174 1.388 . S
C1176 C1177 1.366 . S
C1177 C1176 1.366 . S
C1177 C1178 1.414 . S
C1177 C1180 1.499 . S
C1178 H1158 0.950 . S
C1178 C1177 1.414 . S
C1178 C1179 1.374 . S
C1179 H1159 0.950 . S
C1179 C1175 1.385 . S
C1179 C1178 1.374 . S
C1180 C1177 1.499 . S
C1180 C1181 1.373 . S
C1180 C1182 1.389 . S
C1181 H1160 0.950 . S
C1181 C1180 1.373 . S
C1181 C1197 1.377 . S
C1182 C1180 1.389 . S
C1182 C1183 1.524 . S
C1182 C1196 1.377 . S
C1183 C1182 1.524 . S
C1183 C1184 1.397 . S
C1183 C1188 1.363 . S
C1184 H1161 0.950 . S
C1184 C1183 1.397 . S
C1184 C1185 1.334 . S
C1185 H1162 0.950 . S
C1185 C1184 1.334 . S
C1185 C1186 1.287 . S
C1186 C1185 1.287 . S
C1186 C1187 1.524 . S
C1186 H1205 0.913 . S
C1187 H1163 0.950 . S
C1187 C1186 1.524 . S
C1187 C1188 1.415 . S
C1188 H1164 0.950 . S
C1188 C1183 1.363 . S
C1188 C1187 1.415 . S
C1189 H1165 0.951 . S
C1189 C1190 1.366 . S
C1189 C1191 1.388 . S
C1190 C1189 1.366 . S
C1190 C1194 1.385 . S
C1191 H1166 0.951 . S
C1191 C1189 1.388 . S
C1191 C1192 1.366 . S
C1192 C1191 1.366 . S
C1192 C1193 1.414 . S
C1192 C1195 1.499 . S
C1193 H1167 0.950 1_455 S
C1193 C1192 1.414 . S
C1193 C1194 1.374 . S
C1194 H1168 0.950 1_455 S
C1194 C1190 1.385 . S
C1194 C1193 1.374 . S
C1195 C1192 1.499 . S
C1195 C1196 1.373 . S
C1195 C1197 1.389 . S
C1196 H1169 0.950 . S
C1196 C1182 1.377 . S
C1196 C1195 1.373 . S
C1197 C1181 1.377 . S
C1197 C1195 1.389 . S
C1197 C1198 1.524 . S
C1198 C1197 1.524 . S
C1198 C1199 1.397 1_455 S
C1198 C1203 1.363 . S
C1199 H1170 0.950 . S
C1199 C1198 1.397 1_655 S
C1199 C1200 1.334 . S
C1200 H1171 0.950 . S
C1200 C1199 1.334 . S
C1200 C1201 1.287 . S
C1201 C1200 1.287 . S
C1201 C1202 1.524 1_655 S
C1201 H1204 0.999 . S
C1202 H1172 0.950 . S
C1202 C1201 1.524 1_455 S
C1202 C1203 1.415 . S
C1203 H1173 0.950 . S
C1203 C1198 1.363 . S
C1203 C1202 1.415 . S
H1204 C1201 0.999 . S
H1205 C1186 0.913 . S
C640 C319 1.126 . S
C625 C29 1.457 . S
C675 C137 1.459 . S
C690 C433 1.130 . S
C725 C225 1.168 . S
C740 C493 0.924 . S
C775 C49 1.256 . S
C790 C293 1.061 . S
C840 C407 1.061 . S
C825 C117 1.259 . S
C875 C205 1.361 . S
C890 C503 0.800 . S
C940 C389 0.802 . S
C925 C233 1.360 . S
C975 C57 1.255 . S
C990 C521 1.059 . S
C1040 C265 0.920 1_455 S
C1025 C108 1.161 . S
C1090 C379 0.922 . S
C1075 C196 1.169 . S
C1140 C547 1.129 . S
C1125 C20 1.458 . S
C1175 C145 1.363 . S
C1190 C275 0.801 . S
