# Generated by pormake.
# Topology pth, (4,4)-cn, num edge types: 1
# Building blocks:
#     Node 0, Type 0, BuildingBlock: CEKHIL_clean_sbu_0, # of connection points: 4
#     Node 1, Type 0, BuildingBlock: CEKHIL_clean_sbu_0, # of connection points: 4
#     Node 2, Type 0, BuildingBlock: CEKHIL_clean_sbu_0, # of connection points: 4
#     Node 3, Type 1, BuildingBlock: MUDLON_clean_linker_0, # of connection points: 4
#     Node 4, Type 1, BuildingBlock: MUDLON_clean_linker_0, # of connection points: 4
#     Node 5, Type 1, BuildingBlock: MUDLON_clean_linker_0, # of connection points: 4
#     Edge 6, Type (0, 1), BuildingBlock: MIFKUJ_clean_linker_0, # of connection points: 2
#     Edge 7, Type (0, 1), BuildingBlock: MIFKUJ_clean_linker_0, # of connection points: 2
#     Edge 8, Type (0, 1), BuildingBlock: MIFKUJ_clean_linker_0, # of connection points: 2
#     Edge 9, Type (0, 1), BuildingBlock: MIFKUJ_clean_linker_0, # of connection points: 2
#     Edge 10, Type (0, 1), BuildingBlock: MIFKUJ_clean_linker_0, # of connection points: 2
#     Edge 11, Type (0, 1), BuildingBlock: MIFKUJ_clean_linker_0, # of connection points: 2
#     Edge 12, Type (0, 1), BuildingBlock: MIFKUJ_clean_linker_0, # of connection points: 2
#     Edge 13, Type (0, 1), BuildingBlock: MIFKUJ_clean_linker_0, # of connection points: 2
#     Edge 14, Type (0, 1), BuildingBlock: MIFKUJ_clean_linker_0, # of connection points: 2
#     Edge 15, Type (0, 1), BuildingBlock: MIFKUJ_clean_linker_0, # of connection points: 2
#     Edge 16, Type (0, 1), BuildingBlock: MIFKUJ_clean_linker_0, # of connection points: 2
#     Edge 17, Type (0, 1), BuildingBlock: MIFKUJ_clean_linker_0, # of connection points: 2
# Relax obj value: 0.034
# Max RMSD: 0.091
# Mean RMSD: 0.088
data_MOF--net-pth--node1-CEKHIL_clean_sbu_0--node2-MUDLON_clean_linker_0--edge1-MIFKUJ_clean_linker_0
_symmetry_space_group_name_H-M    P1
_symmetry_Int_Tables_number       1
_symmetry_cell_setting            triclinic
loop_
_symmetry_equiv_pos_as_xyz
'x, y, z'
_cell_length_a     40.711319
_cell_length_b     40.829521
_cell_length_c     84.594868
_cell_angle_alpha  90.788982
_cell_angle_beta   89.995961
_cell_angle_gamma 120.26501
loop_
_atom_site_label
_atom_site_type_symbol
_atom_site_fract_x
_atom_site_fract_y
_atom_site_fract_z
_atom_type_partial_charge
Co0 Co 0.00948 0.0197 0.05157 0.0
O1 O 0.98787 0.97802 0.06599 0.0
O2 O 0.03743 0.99288 0.05059 0.0
C3 C 0.01087 0.06301 0.0687 0.0
O4 O 0.04071 0.06128 0.03569 0.0
Co5 Co 0.96607 0.06029 0.04153 0.0
O6 O 0.01669 0.10004 0.0342 0.0
C7 C 0.94511 0.98576 0.02723 0.0
C8 C 0.01401 0.97095 0.06129 0.0
C9 C 0.04278 0.09236 0.03126 0.0
O10 O 0.97278 0.98566 0.03456 0.0
O11 O 0.93686 0.012 0.0289 0.0
O12 O 0.03816 0.0553 0.06871 0.0
O13 O 0.98254 0.04263 0.05932 0.0
Co14 Co 0.01372 0.02094 0.37225 0.0
O15 O 0.98899 0.03555 0.35681 0.0
O16 O 0.03909 0.07572 0.37122 0.0
C17 C 0.01647 0.97655 0.35707 0.0
O18 O 0.04782 0.01663 0.38885 0.0
Co19 Co 0.97357 0.93922 0.38535 0.0
O20 O 0.02326 0.95554 0.39556 0.0
C21 C 0.95134 0.99357 0.39709 0.0
C22 C 0.01413 0.0704 0.36038 0.0
C23 C 0.0495 0.9902 0.39633 0.0
O24 O 0.97786 0.0202 0.38898 0.0
O25 O 0.94388 0.95916 0.39669 0.0
O26 O 0.04199 0.01217 0.35575 0.0
O27 O 0.98854 0.96929 0.36639 0.0
Co28 Co 0.00435 0.01493 0.70491 0.0
O29 O 0.04364 0.03739 0.68935 0.0
O30 O 0.03366 0.98937 0.70442 0.0
C31 C 0.95752 0.01129 0.6894 0.0
O32 O 0.96523 0.98328 0.7216 0.0
Co33 Co 0.96499 0.05857 0.7171 0.0
O34 O 0.92876 0.00911 0.72658 0.0
C35 C 0.04299 0.08268 0.7275 0.0
C36 C 0.05308 0.01257 0.69318 0.0
C37 C 0.93617 0.98247 0.72811 0.0
O38 O 0.03972 0.05203 0.7215 0.0
O39 O 0.0178 0.09235 0.7257 0.0
O40 O 0.96712 0.98543 0.68839 0.0
O41 O 0.97863 0.03985 0.69859 0.0
H42 H 0.92429 0.64634 0.22064 0.0
N43 N 0.96955 0.62459 0.20768 0.0
H44 H 0.93704 0.68759 0.24374 0.0
H45 H 0.03332 0.65458 0.22638 0.0
H46 H 0.04596 0.69475 0.24999 0.0
H47 H 0.04014 0.67989 0.19829 0.0
H48 H 0.05455 0.71949 0.17504 0.0
H49 H 0.92172 0.61827 0.18497 0.0
H50 H 0.93524 0.65892 0.16214 0.0
H51 H 0.9208 0.5591 0.22057 0.0
H52 H 0.02951 0.61659 0.19746 0.0
H53 H 0.92678 0.50296 0.22345 0.0
H54 H 0.03474 0.56004 0.19933 0.0
H55 H 0.93687 0.32881 0.22824 0.0
H56 H 0.9424 0.29575 0.251 0.0
H57 H 0.05821 0.38699 0.25848 0.0
H58 H 0.05269 0.41838 0.23505 0.0
H59 H 0.05685 0.40055 0.20295 0.0
H60 H 0.06206 0.36537 0.18027 0.0
H61 H 0.94043 0.31068 0.17287 0.0
H62 H 0.93572 0.34496 0.1959 0.0
H63 H 0.9287 0.39515 0.21184 0.0
H64 H 0.92366 0.45205 0.20954 0.0
H65 H 0.0455 0.52159 0.21618 0.0
N66 N 0.99224 0.39194 0.21537 0.0
H67 H 0.05004 0.46414 0.2174 0.0
C68 C 0.97761 0.64725 0.22189 0.0
C69 C 0.95076 0.65667 0.22709 0.0
C70 C 0.95806 0.68002 0.24038 0.0
C71 C 0.99244 0.69432 0.24887 0.0
C72 C 0.01933 0.68455 0.24368 0.0
C73 C 0.01207 0.66136 0.23026 0.0
C74 C 0.97979 0.64572 0.19323 0.0
C75 C 0.0173 0.67452 0.19022 0.0
C76 C 0.02539 0.69752 0.17699 0.0
C77 C 0.99608 0.69268 0.16665 0.0
C78 C 0.95875 0.66319 0.16958 0.0
C79 C 0.95083 0.63995 0.18267 0.0
C80 C 0.97423 0.5919 0.20863 0.0
C81 C 0.94572 0.55937 0.21592 0.0
C82 C 0.94914 0.52719 0.21744 0.0
C83 C 0.98111 0.52657 0.21149 0.0
C84 C 0.0099 0.55943 0.20424 0.0
C85 C 0.00671 0.59188 0.20297 0.0
C86 C 0.99424 0.37601 0.2301 0.0
C87 C 0.96316 0.34179 0.23499 0.0
C88 C 0.96643 0.32309 0.24808 0.0
C89 C 0.00085 0.33855 0.25668 0.0
C90 C 0.03149 0.3738 0.25205 0.0
C91 C 0.02829 0.39215 0.23879 0.0
C92 C 0.99594 0.37516 0.20099 0.0
C93 C 0.03155 0.3813 0.19624 0.0
C94 C 0.0344 0.3613 0.18326 0.0
C95 C 0.0016 0.33493 0.1748 0.0
C96 C 0.96617 0.33019 0.17927 0.0
C97 C 0.96339 0.34999 0.19231 0.0
C98 C 0.98964 0.42564 0.21489 0.0
C99 C 0.95418 0.42276 0.21279 0.0
C100 C 0.95144 0.4554 0.21161 0.0
C101 C 0.98416 0.49172 0.21275 0.0
C102 C 0.01971 0.4943 0.215 0.0
C103 C 0.02241 0.46153 0.21592 0.0
H104 H 0.7176 0.10397 0.5521 0.0
N105 N 0.64714 0.05645 0.54236 0.0
H106 H 0.75245 0.09511 0.57368 0.0
H107 H 0.61622 1.00029 0.56492 0.0
H108 H 0.6507 0.99232 0.58669 0.0
H109 H 0.64558 0.98971 0.53625 0.0
H110 H 0.67675 0.97709 0.51424 0.0
H111 H 0.67779 0.09904 0.51709 0.0
H112 H 0.7093 0.08672 0.495 0.0
H113 H 0.62048 0.10355 0.54528 0.0
H114 H 0.5845 0.98514 0.53969 0.0
H115 H 0.55417 0.08803 0.54535 0.0
H116 H 0.51832 0.96885 0.54093 0.0
H117 H 0.37402 0.04951 0.55696 0.0
H118 H 0.34195 0.05535 0.58025 0.0
H119 H 0.30447 0.93909 0.59193 0.0
H120 H 0.33722 0.93366 0.56858 0.0
H121 H 0.30999 0.93353 0.53123 0.0
H122 H 0.27721 0.94342 0.50921 0.0
H123 H 0.3647 0.0617 0.50837 0.0
H124 H 0.39783 0.0511 0.53016 0.0
H125 H 0.4332 0.04687 0.56082 0.0
H126 H 0.49919 0.06311 0.55993 0.0
H127 H 0.46886 0.96868 0.52772 0.0
N128 N 0.37229 0.98497 0.54628 0.0
H129 H 0.40218 0.95093 0.52971 0.0
C130 C 0.66425 0.05316 0.55679 0.0
C131 C 0.7026 0.07992 0.55978 0.0
C132 C 0.72248 0.07475 0.57201 0.0
C133 C 0.70411 0.04302 0.58173 0.0
C134 C 0.66529 0.01711 0.57935 0.0
C135 C 0.64555 0.02181 0.56686 0.0
C136 C 0.65954 0.04551 0.52831 0.0
C137 C 0.65862 0.01066 0.52712 0.0
C138 C 0.67673 0.00361 0.5146 0.0
C139 C 0.69581 0.03109 0.50299 0.0
C140 C 0.69464 0.06491 0.5037 0.0
C141 C 0.67674 0.07203 0.51629 0.0
C142 C 0.60752 0.04567 0.54268 0.0
C143 C 0.59814 0.07413 0.54429 0.0
C144 C 0.56014 0.06507 0.54446 0.0
C145 C 0.53046 0.02705 0.54326 0.0
C146 C 0.5401 0.9985 0.54162 0.0
C147 C 0.57814 0.00772 0.5411 0.0
C148 C 0.35783 0.99092 0.56097 0.0
C149 C 0.35936 0.0254 0.56461 0.0
C150 C 0.34085 0.02867 0.57792 0.0
C151 C 0.32034 0.99758 0.58788 0.0
C152 C 0.3203 0.96368 0.5846 0.0
C153 C 0.33884 0.96045 0.57126 0.0
C154 C 0.35607 0.99146 0.53236 0.0
C155 C 0.32227 0.96142 0.52613 0.0
C156 C 0.30349 0.96725 0.51365 0.0
C157 C 0.31806 0.00349 0.50716 0.0
C158 C 0.35281 0.03342 0.51304 0.0
C159 C 0.37168 0.02747 0.52554 0.0
C160 C 0.41228 0.99703 0.54551 0.0
C161 C 0.44043 0.02933 0.55367 0.0
C162 C 0.4786 0.03895 0.55299 0.0
C163 C 0.48977 0.01718 0.54381 0.0
C164 C 0.46156 0.98565 0.53527 0.0
C165 C 0.42336 0.9756 0.53624 0.0
H166 H 0.64067 0.68787 0.88401 0.0
N167 N 0.64191 0.6229 0.87699 0.0
H168 H 0.67228 0.73096 0.90639 0.0
H169 H 0.67662 0.61202 0.90127 0.0
H170 H 0.70919 0.6554 0.92358 0.0
H171 H 0.70882 0.63962 0.86528 0.0
H172 H 0.74175 0.68009 0.84301 0.0
H173 H 0.61185 0.65265 0.85654 0.0
H174 H 0.64351 0.69146 0.83355 0.0
H175 H 0.58105 0.62677 0.88932 0.0
H176 H 0.61203 0.55453 0.86361 0.0
H177 H 0.51548 0.57571 0.89004 0.0
H178 H 0.54562 0.50385 0.86317 0.0
H179 H 0.30764 0.40845 0.89224 0.0
H180 H 0.27285 0.37068 0.91498 0.0
H181 H 0.35812 0.33851 0.92144 0.0
H182 H 0.39177 0.37515 0.89842 0.0
H183 H 0.37549 0.35188 0.87086 0.0
H184 H 0.34502 0.30882 0.84835 0.0
H185 H 0.29727 0.37709 0.83349 0.0
H186 H 0.32876 0.42052 0.85587 0.0
H187 H 0.39356 0.48708 0.87804 0.0
H188 H 0.45921 0.53921 0.87649 0.0
H189 H 0.49821 0.45838 0.87841 0.0
N190 N 0.36878 0.41339 0.8789 0.0
H191 H 0.43269 0.40683 0.87862 0.0
C192 C 0.65636 0.64666 0.89099 0.0
C193 C 0.65506 0.68031 0.89272 0.0
C194 C 0.67341 0.70506 0.90547 0.0
C195 C 0.69361 0.69684 0.91672 0.0
C196 C 0.6936 0.66246 0.91525 0.0
C197 C 0.67514 0.63768 0.9025 0.0
C198 C 0.6579 0.64283 0.8625 0.0
C199 C 0.69429 0.65048 0.85823 0.0
C200 C 0.71295 0.6735 0.8454 0.0
C201 C 0.6954 0.68917 0.83633 0.0
C202 C 0.65826 0.68046 0.84035 0.0
C203 C 0.63982 0.65782 0.85339 0.0
C204 C 0.60196 0.59434 0.87665 0.0
C205 C 0.57386 0.60006 0.88368 0.0
C206 C 0.53591 0.57068 0.88393 0.0
C207 C 0.52485 0.53516 0.87679 0.0
C208 C 0.5529 0.53022 0.86921 0.0
C209 C 0.59092 0.55933 0.86928 0.0
C210 C 0.35242 0.39503 0.89363 0.0
C211 C 0.31909 0.39373 0.89876 0.0
C212 C 0.29932 0.37218 0.9118 0.0
C213 C 0.31259 0.35139 0.92009 0.0
C214 C 0.34675 0.35369 0.91522 0.0
C215 C 0.36637 0.37511 0.90209 0.0
C216 C 0.35442 0.38954 0.86498 0.0
C217 C 0.35912 0.35801 0.86261 0.0
C218 C 0.34135 0.33318 0.84979 0.0
C219 C 0.31855 0.33938 0.83913 0.0
C220 C 0.31502 0.3717 0.84131 0.0
C221 C 0.33281 0.39646 0.85411 0.0
C222 C 0.40808 0.44314 0.87876 0.0
C223 C 0.41644 0.48082 0.87815 0.0
C224 C 0.4541 0.5106 0.87737 0.0
C225 C 0.48448 0.50336 0.87742 0.0
C226 C 0.47585 0.46534 0.8781 0.0
C227 C 0.43812 0.43557 0.87855 0.0
H228 H 0.9535 0.06072 0.08559 0.0
H229 H 0.95512 0.11105 0.10206 0.0
H230 H 0.07223 0.18588 0.0891 0.0
H231 H 0.07134 0.13403 0.07371 0.0
H232 H 0.06723 0.19893 0.1174 0.0
H233 H 0.99044 0.19021 0.07327 0.0
H234 H 0.93862 0.1589 0.05358 0.0
H235 H 0.85591 0.1227 0.09059 0.0
H236 H 0.90722 0.15336 0.11053 0.0
H237 H 0.05642 0.35518 0.15197 0.0
H238 H 0.0612 0.31396 0.13189 0.0
H239 H 0.95687 0.21914 0.14858 0.0
H240 H 0.95225 0.25967 0.1688 0.0
H241 H 0.95993 0.2238 0.11582 0.0
H242 H 0.04155 0.23056 0.15964 0.0
H243 H 0.09547 0.26531 0.17817 0.0
H244 H 0.17216 0.31118 0.13912 0.0
H245 H 0.11859 0.27705 0.12037 0.0
C246 C 0.97954 0.08795 0.08632 0.0
C247 C 0.01226 0.09375 0.07843 0.0
C248 C 0.9804 0.1169 0.09559 0.0
C249 C 0.01345 0.15289 0.09649 0.0
C250 C 0.0463 0.15854 0.08859 0.0
C251 C 0.04582 0.12902 0.07978 0.0
C252 C 0.01389 0.18406 0.10606 0.0
C253 C 0.04406 0.20477 0.11677 0.0
C254 C 0.98372 0.19194 0.10539 0.0
C255 C 0.95272 0.17393 0.0934 0.0
C256 C 0.96121 0.17545 0.07722 0.0
C257 C 0.93192 0.15781 0.06601 0.0
C258 C 0.894 0.13878 0.07083 0.0
C259 C 0.88529 0.13746 0.08687 0.0
C260 C 0.91446 0.15501 0.09813 0.0
C261 C 0.03458 0.32552 0.1514 0.0
C262 C 0.00392 0.31079 0.16201 0.0
C263 C 0.03729 0.30207 0.13989 0.0
C264 C 0.00947 0.26348 0.13881 0.0
C265 C 0.97853 0.2489 0.14915 0.0
C266 C 0.97586 0.27221 0.16067 0.0
C267 C 0.0127 0.2377 0.12723 0.0
C268 C 0.98325 0.21814 0.11617 0.0
C269 C 0.04389 0.23152 0.12732 0.0
C270 C 0.07605 0.25157 0.13862 0.0
C271 C 0.06988 0.24825 0.15502 0.0
C272 C 0.10038 0.2678 0.16555 0.0
C273 C 0.1372 0.29052 0.15983 0.0
C274 C 0.14363 0.29362 0.14354 0.0
C275 C 0.11322 0.27416 0.13296 0.0
H276 H 0.16077 0.30565 0.168 0.0
H277 H 0.87137 0.1251 0.06214 0.0
H278 H 0.93916 0.97868 0.42823 0.0
H279 H 0.89644 0.98823 0.44546 0.0
H280 H 0.86633 0.03559 0.40652 0.0
H281 H 0.91155 0.02861 0.38959 0.0
H282 H 0.86722 0.07112 0.43177 0.0
H283 H 0.80943 0.9383 0.41901 0.0
H284 H 0.80658 0.87661 0.41678 0.0
H285 H 0.82241 0.87692 0.46697 0.0
H286 H 0.8258 0.93882 0.46949 0.0
H287 H 0.70047 0.04547 0.47121 0.0
H288 H 0.74264 0.04013 0.45196 0.0
H289 H 0.78772 0.00114 0.48866 0.0
H290 H 0.74538 0.00583 0.50779 0.0
H291 H 0.77539 0.96017 0.46273 0.0
H292 H 0.83543 0.09482 0.47492 0.0
H293 H 0.83739 0.15614 0.47678 0.0
H294 H 0.81499 0.15109 0.42693 0.0
H295 H 0.81245 0.0895 0.42483 0.0
C296 C 0.92374 0.99159 0.42346 0.0
C297 C 0.92825 0.00269 0.40763 0.0
C298 C 0.89905 0.99671 0.43324 0.0
C299 C 0.877 0.01137 0.42718 0.0
C300 C 0.88269 0.02389 0.41147 0.0
C301 C 0.90844 0.0199 0.4018 0.0
C302 C 0.84747 0.01265 0.43713 0.0
C303 C 0.84679 0.04665 0.43834 0.0
C304 C 0.82087 0.98089 0.44588 0.0
C305 C 0.81808 0.94329 0.44442 0.0
C306 C 0.81241 0.92525 0.42956 0.0
C307 C 0.81071 0.89026 0.42825 0.0
C308 C 0.81436 0.87288 0.44172 0.0
C309 C 0.81958 0.8904 0.45655 0.0
C310 C 0.82133 0.92541 0.45793 0.0
C311 C 0.71935 0.03568 0.47513 0.0
C312 C 0.71954 0.02596 0.491 0.0
C313 C 0.74351 0.03277 0.46414 0.0
C314 C 0.76875 0.02072 0.46891 0.0
C315 C 0.76847 0.01043 0.48469 0.0
C316 C 0.74413 0.01298 0.49561 0.0
C317 C 0.79566 0.01877 0.45759 0.0
C318 C 0.7957 0.98454 0.45607 0.0
C319 C 0.82138 0.05019 0.4485 0.0
C320 C 0.8234 0.08742 0.44975 0.0
C321 C 0.83071 0.1067 0.46438 0.0
C322 C 0.83196 0.14151 0.46547 0.0
C323 C 0.82623 0.15745 0.45199 0.0
C324 C 0.81938 0.13869 0.43737 0.0
C325 C 0.81807 0.10385 0.43622 0.0
H326 H 0.82717 0.18438 0.45286 0.0
H327 H 0.81311 0.84582 0.44068 0.0
H328 H 0.94176 0.91997 0.73563 0.0
H329 H 0.89986 0.86771 0.75288 0.0
H330 H 0.83061 0.91882 0.76036 0.0
H331 H 0.87217 0.97104 0.74339 0.0
H332 H 0.84736 0.89772 0.78783 0.0
H333 H 0.80102 0.84137 0.73608 0.0
H334 H 0.80733 0.82145 0.70913 0.0
H335 H 0.84655 0.75017 0.72822 0.0
H336 H 0.84094 0.77007 0.75528 0.0
H337 H 0.69218 0.75197 0.82718 0.0
H338 H 0.73047 0.7982 0.80738 0.0
H339 H 0.78772 0.73581 0.79705 0.0
H340 H 0.74731 0.68765 0.81588 0.0
H341 H 0.77913 0.76231 0.77104 0.0
H342 H 0.82647 0.81747 0.82239 0.0
H343 H 0.82277 0.83776 0.84961 0.0
H344 H 0.78567 0.9119 0.83184 0.0
H345 H 0.78867 0.89167 0.80452 0.0
C346 C 0.91753 0.92003 0.7409 0.0
C347 C 0.9105 0.94987 0.73812 0.0
C348 C 0.89353 0.89004 0.75071 0.0
C349 C 0.86197 0.88926 0.75785 0.0
C350 C 0.85482 0.91885 0.75502 0.0
C351 C 0.87867 0.94872 0.74525 0.0
C352 C 0.8368 0.85833 0.76866 0.0
C353 C 0.83208 0.86813 0.78411 0.0
C354 C 0.8178 0.81965 0.76395 0.0
C355 C 0.82091 0.80749 0.74769 0.0
C356 C 0.81126 0.82166 0.73452 0.0
C357 C 0.81466 0.81034 0.71923 0.0
C358 C 0.82743 0.78463 0.71696 0.0
C359 C 0.83671 0.77011 0.72999 0.0
C360 C 0.83339 0.78138 0.74531 0.0
C361 C 0.71219 0.7474 0.82047 0.0
C362 C 0.71677 0.71605 0.82337 0.0
C363 C 0.73461 0.77435 0.80928 0.0
C364 C 0.76287 0.77121 0.80101 0.0
C365 C 0.76647 0.7392 0.80338 0.0
C366 C 0.74357 0.71185 0.81435 0.0
C367 C 0.78929 0.8017 0.79023 0.0
C368 C 0.79439 0.79186 0.7748 0.0
C369 C 0.80907 0.84042 0.795 0.0
C370 C 0.80747 0.85279 0.81142 0.0
C371 C 0.8173 0.83792 0.8243 0.0
C372 C 0.81535 0.84943 0.83974 0.0
C373 C 0.80391 0.87604 0.84245 0.0
C374 C 0.79449 0.89127 0.82972 0.0
C375 C 0.79633 0.87981 0.81426 0.0
H376 H 0.80241 0.88491 0.85442 0.0
H377 H 0.83006 0.77591 0.70512 0.0
H378 H 0.07299 0.97746 0.07868 0.0
H379 H 0.07401 0.92806 0.09437 0.0
H380 H 0.96383 0.84572 0.07527 0.0
H381 H 0.96176 0.89604 0.06067 0.0
H382 H 0.96069 0.83512 0.10383 0.0
H383 H 0.0552 0.85032 0.06636 0.0
H384 H 0.11364 0.88454 0.05064 0.0
H385 H 0.18077 0.92331 0.09323 0.0
H386 H 0.12269 0.88971 0.10922 0.0
H387 H 0.96262 0.67721 0.13713 0.0
H388 H 0.96987 0.7226 0.11695 0.0
H389 H 0.05491 0.81417 0.14565 0.0
H390 H 0.04674 0.76944 0.16626 0.0
H391 H 0.07133 0.81707 0.11141 0.0
H392 H 0.97311 0.80257 0.14811 0.0
H393 H 0.91363 0.76487 0.16285 0.0
H394 H 0.85212 0.72019 0.11921 0.0
H395 H 0.9114 0.75722 0.10422 0.0
C396 C 0.04942 0.9486 0.07767 0.0
C397 C 0.01744 0.94023 0.06845 0.0
C398 C 0.05004 0.92024 0.08655 0.0
C399 C 0.01923 0.88271 0.08591 0.0
C400 C 0.98794 0.87431 0.07609 0.0
C401 C 0.98682 0.90292 0.06764 0.0
C402 C 0.01801 0.853 0.09642 0.0
C403 C 0.98476 0.83084 0.10514 0.0
C404 C 0.04953 0.84758 0.09858 0.0
C405 C 0.08454 0.86774 0.08899 0.0
C406 C 0.0824 0.86635 0.07238 0.0
C407 C 0.11547 0.8856 0.06342 0.0
C408 C 0.15088 0.90615 0.07093 0.0
C409 C 0.15331 0.90741 0.08742 0.0
C410 C 0.12033 0.88822 0.09644 0.0
C411 C 0.98284 0.70698 0.13923 0.0
C412 C 0.00377 0.71954 0.15348 0.0
C413 C 0.98717 0.73282 0.12759 0.0
C414 C 0.01281 0.77169 0.12986 0.0
C415 C 0.03514 0.78422 0.14365 0.0
C416 C 0.03049 0.75848 0.1554 0.0
C417 C 0.01413 0.79955 0.11845 0.0
C418 C 0.04733 0.82135 0.10976 0.0
C419 C 0.98241 0.80423 0.11605 0.0
C420 C 0.94673 0.78233 0.12506 0.0
C421 C 0.94695 0.78446 0.14167 0.0
C422 C 0.91327 0.76326 0.15006 0.0
C423 C 0.87913 0.74007 0.14197 0.0
C424 C 0.87859 0.73812 0.12546 0.0
C425 C 0.91221 0.75922 0.11701 0.0
H426 H 0.85309 0.72367 0.14849 0.0
H427 H 0.17645 0.92105 0.06397 0.0
H428 H 0.12359 0.04799 0.39346 0.0
H429 H 0.17755 0.0618 0.41102 0.0
H430 H 0.1024 0.96915 0.44074 0.0
H431 H 0.04903 0.95461 0.42319 0.0
H432 H 0.15504 0.04362 0.45665 0.0
H433 H 0.14927 0.9501 0.41816 0.0
H434 H 0.15088 0.92824 0.391 0.0
H435 H 0.26185 0.02534 0.38445 0.0
H436 H 0.2606 0.04806 0.41152 0.0
H437 H 0.24149 0.97537 0.50625 0.0
H438 H 0.20439 0.98486 0.4862 0.0
H439 H 0.30685 0.05728 0.46051 0.0
H440 H 0.34436 0.04679 0.48042 0.0
H441 H 0.25092 0.00874 0.44071 0.0
H442 H 0.26278 0.09617 0.48063 0.0
H443 H 0.26236 0.11971 0.50758 0.0
H444 H 0.14297 0.0394 0.51122 0.0
H445 H 0.14275 0.01494 0.48438 0.0
C446 C 0.1187 0.03073 0.40378 0.0
C447 C 0.0822 1.00011 0.40693 0.0
C448 C 0.14945 0.03859 0.41375 0.0
C449 C 0.14379 0.01646 0.42714 0.0
C450 C 0.10725 0.98655 0.43047 0.0
C451 C 0.07686 0.97819 0.42038 0.0
C452 C 0.1757 0.02337 0.4377 0.0
C453 C 0.17611 0.03612 0.45321 0.0
C454 C 0.20384 0.01477 0.43298 0.0
C455 C 0.20461 0.00106 0.41676 0.0
C456 C 0.17382 0.967 0.41087 0.0
C457 C 0.17471 0.9544 0.39551 0.0
C458 C 0.20639 0.97547 0.38598 0.0
C459 C 0.23729 0.00911 0.39182 0.0
C460 C 0.23651 0.02186 0.40717 0.0
C461 C 0.25623 0.99305 0.49628 0.0
C462 C 0.29592 0.01015 0.49491 0.0
C463 C 0.23498 0.99886 0.4849 0.0
C464 C 0.25287 0.02227 0.47196 0.0
C465 C 0.29249 0.0393 0.47045 0.0
C466 C 0.31388 0.03347 0.48189 0.0
C467 C 0.22954 0.02776 0.45993 0.0
C468 C 0.23063 0.0173 0.44413 0.0
C469 C 0.20299 0.03891 0.46435 0.0
C470 C 0.20282 0.05359 0.4805 0.0
C471 C 0.23648 0.08334 0.48721 0.0
C472 C 0.23634 0.09687 0.50247 0.0
C473 C 0.20267 0.08103 0.51111 0.0
C474 C 0.16903 0.05165 0.50451 0.0
C475 C 0.16901 0.03798 0.48926 0.0
H476 H 0.20263 0.09155 0.52292 0.0
H477 H 0.20703 0.96566 0.3741 0.0
H478 H 0.07547 0.15885 0.73264 0.0
H479 H 0.12857 0.19918 0.75045 0.0
H480 H 0.13859 0.10274 0.76321 0.0
H481 H 0.08617 0.06226 0.745 0.0
H482 H 0.12611 0.16166 0.78837 0.0
H483 H 0.2052 0.14247 0.75034 0.0
H484 H 0.22684 0.14065 0.72331 0.0
H485 H 0.25819 0.25706 0.71714 0.0
H486 H 0.23616 0.25934 0.74412 0.0
H487 H 0.28057 0.26196 0.84091 0.0
H488 H 0.23968 0.21569 0.82086 0.0
H489 H 0.26405 0.30629 0.78879 0.0
H490 H 0.30619 0.35278 0.80861 0.0
H491 H 0.26065 0.24634 0.77315 0.0
H492 H 0.18388 0.2674 0.81039 0.0
H493 H 0.16009 0.27114 0.83677 0.0
H494 H 0.12163 0.15334 0.84393 0.0
H495 H 0.1457 0.14905 0.81766 0.0
C496 C 0.08924 0.14629 0.7391 0.0
C497 C 0.07664 0.10739 0.73745 0.0
C498 C 0.1196 0.16936 0.7492 0.0
C499 C 0.13748 0.15387 0.75801 0.0
C500 C 0.12528 0.11517 0.75635 0.0
C501 C 0.09542 0.09217 0.74596 0.0
C502 C 0.16709 0.17793 0.76972 0.0
C503 C 0.15573 0.1796 0.78519 0.0
C504 C 0.20527 0.20207 0.76532 0.0
C505 C 0.21854 0.20089 0.74914 0.0
C506 C 0.21625 0.16752 0.74314 0.0
C507 C 0.22872 0.16645 0.72785 0.0
C508 C 0.24374 0.19867 0.71847 0.0
C509 C 0.24646 0.23209 0.7244 0.0
C510 C 0.23402 0.2333 0.7397 0.0
C511 C 0.27797 0.27207 0.82948 0.0
C512 C 0.29651 0.31115 0.82641 0.0
C513 C 0.25427 0.24556 0.81807 0.0
C514 C 0.24834 0.25756 0.80342 0.0
C515 C 0.26809 0.2964 0.80005 0.0
C516 C 0.29188 0.32295 0.81144 0.0
C517 C 0.21989 0.22986 0.792 0.0
C518 C 0.23125 0.22789 0.7765 0.0
C519 C 0.18151 0.20553 0.79635 0.0
C520 C 0.16699 0.20802 0.81214 0.0
C521 C 0.17064 0.24238 0.81764 0.0
C522 C 0.15706 0.24459 0.83257 0.0
C523 C 0.13947 0.21253 0.84204 0.0
C524 C 0.13533 0.17817 0.83659 0.0
C525 C 0.14893 0.17583 0.82168 0.0
H526 H 0.12895 0.21428 0.85358 0.0
H527 H 0.25339 0.19778 0.70664 0.0
H528 H 0.92509 0.05537 0.69271 0.0
H529 H 0.87661 0.0557 0.67563 0.0
H530 H 0.87179 0.96468 0.64739 0.0
H531 H 0.91952 0.96344 0.66463 0.0
H532 H 0.89093 0.0592 0.63719 0.0
H533 H 0.80269 0.9228 0.65274 0.0
H534 H 0.77383 0.87626 0.67408 0.0
H535 H 0.73657 0.9464 0.69688 0.0
H536 H 0.76576 0.99358 0.67575 0.0
H537 H 0.76333 0.03213 0.57617 0.0
H538 H 0.8017 0.02176 0.59549 0.0
H539 H 0.73397 0.02862 0.63327 0.0
H540 H 0.69418 0.03695 0.61373 0.0
H541 H 0.75065 0.97713 0.64022 0.0
H542 H 0.82409 0.10533 0.62315 0.0
H543 H 0.85436 0.15709 0.60399 0.0
H544 H 0.92247 0.11145 0.58668 0.0
H545 H 0.89223 0.05911 0.60561 0.0
C546 C 0.91326 0.03502 0.68301 0.0
C547 C 0.92608 0.00939 0.67998 0.0
C548 C 0.88557 0.03521 0.67331 0.0
C549 C 0.87043 0.00992 0.66042 0.0
C550 C 0.88269 0.98391 0.65749 0.0
C551 C 0.91003 0.98336 0.6673 0.0
C552 C 0.84444 0.0131 0.64921 0.0
C553 C 0.86026 0.04099 0.63765 0.0
C554 C 0.80458 0.99026 0.65029 0.0
C555 C 0.78673 0.9618 0.66282 0.0
C556 C 0.78865 0.92841 0.66239 0.0
C557 C 0.77217 0.9019 0.67442 0.0
C558 C 0.75348 0.90843 0.68686 0.0
C559 C 0.75112 0.94142 0.68726 0.0
C560 C 0.76762 0.96803 0.67527 0.0
C561 C 0.75665 0.03127 0.58861 0.0
C562 C 0.72626 0.03577 0.59355 0.0
C563 C 0.77863 0.02551 0.59965 0.0
C564 C 0.77142 0.0254 0.6159 0.0
C565 C 0.74026 0.02881 0.62082 0.0
C566 C 0.71766 0.03371 0.6097 0.0
C567 C 0.79706 0.0227 0.62768 0.0
C568 C 0.78128 0.99525 0.63953 0.0
C569 C 0.83714 0.04647 0.627 0.0
C570 C 0.85567 0.07814 0.61571 0.0
C571 C 0.84538 0.10622 0.6152 0.0
C572 C 0.86253 0.13567 0.60438 0.0
C573 C 0.89026 0.13751 0.5941 0.0
C574 C 0.90097 0.10997 0.59465 0.0
C575 C 0.88386 0.08043 0.60543 0.0
H576 H 0.9035 0.16032 0.58573 0.0
H577 H 0.74075 0.88788 0.69616 0.0
H578 H 0.91468 0.90995 0.03202 0.0
H579 H 0.86939 0.85779 0.01482 0.0
H580 H 0.87832 0.93887 0.9803 0.0
H581 H 0.92112 0.99073 0.99802 0.0
H582 H 0.80964 0.89073 0.98251 0.0
H583 H 0.92107 0.87779 0.97728 0.0
H584 H 0.97342 0.86933 0.98701 0.0
H585 H 0.89266 0.76355 0.00776 0.0
H586 H 0.83986 0.7716 0.99831 0.0
H587 H 0.73748 0.7738 0.91413 0.0
H588 H 0.7774 0.81988 0.93439 0.0
H589 H 0.74278 0.73006 0.96801 0.0
H590 H 0.70223 0.6836 0.94779 0.0
H591 H 0.81983 0.77803 0.96819 0.0
H592 H 0.70852 0.79007 0.97075 0.0
H593 H 0.65747 0.79927 0.96001 0.0
H594 H 0.74064 0.9086 0.94286 0.0
H595 H 0.79221 0.89984 0.95331 0.0
C596 C 0.90711 0.9164 0.02068 0.0
C597 C 0.92127 0.95418 0.01628 0.0
C598 C 0.88138 0.88662 0.0108 0.0
C599 C 0.8706 0.89417 0.99609 0.0
C600 C 0.88582 0.93211 0.99159 0.0
C601 C 0.91047 0.96176 0.00166 0.0
C602 C 0.84243 0.86304 0.98555 0.0
C603 C 0.81233 0.8664 0.97924 0.0
C604 C 0.84484 0.83043 0.98164 0.0
C605 C 0.87657 0.82549 0.98722 0.0
C606 C 0.91451 0.85285 0.984 0.0
C607 C 0.94425 0.8481 0.98945 0.0
C608 C 0.93637 0.81597 0.99803 0.0
C609 C 0.89873 0.78845 0.00113 0.0
C610 C 0.86889 0.79307 0.99572 0.0
C611 C 0.73773 0.76383 0.9259 0.0
C612 C 0.71644 0.72497 0.92935 0.0
C613 C 0.76072 0.79024 0.93747 0.0
C614 C 0.76282 0.77845 0.95275 0.0
C615 C 0.74159 0.73975 0.95628 0.0
C616 C 0.71851 0.71325 0.9447 0.0
C617 C 0.7881 0.80658 0.96486 0.0
C618 C 0.81735 0.80245 0.97152 0.0
C619 C 0.78527 0.83876 0.96894 0.0
C620 C 0.75424 0.84416 0.96272 0.0
C621 C 0.71593 0.81596 0.9646 0.0
C622 C 0.6869 0.82112 0.95857 0.0
C623 C 0.69581 0.85447 0.95073 0.0
C624 C 0.73377 0.88277 0.94893 0.0
C625 C 0.76291 0.87774 0.95492 0.0
H626 H 0.67329 0.8584 0.94608 0.0
H627 H 0.95943 0.81237 0.00225 0.0
H628 H 0.96044 0.90305 0.35264 0.0
H629 H 0.96297 0.85418 0.33663 0.0
H630 H 0.08076 0.93248 0.32608 0.0
H631 H 0.07781 0.982 0.34157 0.0
H632 H 0.04566 0.89863 0.30039 0.0
H633 H 0.05106 0.85455 0.35184 0.0
H634 H 0.03091 0.83558 0.3793 0.0
H635 H 0.92285 0.74525 0.36268 0.0
H636 H 0.94213 0.76399 0.33512 0.0
H637 H 0.06037 0.75707 0.25758 0.0
H638 H 0.07163 0.80292 0.27874 0.0
H639 H 0.95363 0.73791 0.29201 0.0
H640 H 0.94267 0.69074 0.27156 0.0
H641 H 0.99644 0.76634 0.31756 0.0
H642 H 0.98865 0.81591 0.26668 0.0
H643 H 0.00822 0.83524 0.23917 0.0
H644 H 0.12125 0.91576 0.25516 0.0
H645 H 0.10243 0.89656 0.28275 0.0
C646 C 0.98697 0.90973 0.34701 0.0
C647 C 0.0189 0.94633 0.34831 0.0
C648 C 0.98849 0.88167 0.33795 0.0
C649 C 0.02225 0.88937 0.33031 0.0
C650 C 0.05441 0.9258 0.33186 0.0
C651 C 0.05271 0.95406 0.34072 0.0
C652 C 0.02323 0.86021 0.3199 0.0
C653 C 0.03564 0.86992 0.30428 0.0
C654 C 0.00949 0.82249 0.32483 0.0
C655 C 0.99799 0.81084 0.3414 0.0
C656 C 0.02292 0.83077 0.35404 0.0
C657 C 0.01166 0.82004 0.36963 0.0
C658 C 0.97561 0.78926 0.37274 0.0
C659 C 0.95077 0.76908 0.36026 0.0
C660 C 0.96188 0.77971 0.34464 0.0
C661 C 0.03698 0.75198 0.26522 0.0
C662 C 1.00043 0.72041 0.26267 0.0
C663 C 0.0434 0.77849 0.27723 0.0
C664 C 0.01327 0.77437 0.28673 0.0
C665 C 0.97727 0.74191 0.28475 0.0
C666 C 0.97094 0.71518 0.2729 0.0
C667 C 0.01838 0.80475 0.29807 0.0
C668 C 0.00703 0.79524 0.31381 0.0
C669 C 0.0331 0.84271 0.29329 0.0
C670 C 0.04425 0.85454 0.27673 0.0
C671 C 0.01772 0.83759 0.26431 0.0
C672 C 0.02868 0.84853 0.24871 0.0
C673 C 0.06598 0.87664 0.24542 0.0
C674 C 0.09238 0.89395 0.25772 0.0
C675 C 0.08159 0.88307 0.27334 0.0
H676 H 0.07442 0.88505 0.23333 0.0
H677 H 0.96693 0.78103 0.38481 0.0
H678 H 0.09082 0.97515 0.70143 0.0
H679 H 0.13954 0.97039 0.68594 0.0
H680 H 0.13085 0.03874 0.64962 0.0
H681 H 0.08324 0.04434 0.66502 0.0
H682 H 0.12413 0.96745 0.63905 0.0
H683 H 0.2037 0.08044 0.67035 0.0
H684 H 0.22864 0.11707 0.69521 0.0
H685 H 0.26658 0.0413 0.70998 0.0
H686 H 0.24146 0.00394 0.68523 0.0
H687 H 0.27511 0.029 0.58686 0.0
H688 H 0.23272 0.02879 0.60726 0.0
H689 H 0.26804 0.96943 0.63845 0.0
H690 H 0.31137 0.97012 0.61806 0.0
H691 H 0.26069 0.02799 0.65383 0.0
H692 H 0.18734 0.91929 0.62068 0.0
H693 H 0.16334 0.88431 0.5954 0.0
H694 H 0.11306 0.95174 0.5841 0.0
H695 H 0.13728 0.98756 0.60922 0.0
C696 C 0.09954 0.98931 0.69019 0.0
C697 C 0.08324 0.01011 0.68444 0.0
C698 C 0.12734 0.98663 0.68139 0.0
C699 C 0.13864 0.00418 0.66665 0.0
C700 C 0.12243 0.02496 0.66096 0.0
C701 C 0.09532 0.02821 0.66982 0.0
C702 C 0.16653 1.0003 0.65675 0.0
C703 C 0.154 0.98072 0.64226 0.0
C704 C 0.20524 0.01684 0.66116 0.0
C705 C 0.22021 0.03909 0.67606 0.0
C706 C 0.21697 0.07133 0.67898 0.0
C707 C 0.23124 0.09229 0.69303 0.0
C708 C 0.24901 0.08141 0.70422 0.0
C709 C 0.2527 0.04962 0.70133 0.0
C710 C 0.23848 0.02857 0.68729 0.0
C711 C 0.27448 0.0165 0.59814 0.0
C712 C 0.29664 0.99956 0.60082 0.0
C713 C 0.24998 0.01614 0.60975 0.0
C714 C 0.24693 0.99872 0.62429 0.0
C715 C 0.26991 0.9829 0.62728 0.0
C716 C 0.29441 0.98309 0.61559 0.0
C717 C 0.21839 0.99584 0.63595 0.0
C718 C 0.23071 0.01407 0.65075 0.0
C719 C 0.17935 0.978 0.63185 0.0
C720 C 0.16436 0.95629 0.61679 0.0
C721 C 0.17139 0.92684 0.61276 0.0
C722 C 0.15772 0.90684 0.59846 0.0
C723 C 0.13674 0.91584 0.58814 0.0
C724 C 0.12932 0.94481 0.59211 0.0
C725 C 0.14298 0.96495 0.60638 0.0
H726 H 0.12618 0.90032 0.57707 0.0
H727 H 0.26006 0.09769 0.71509 0.0
H728 H 0.06471 0.16606 0.02539 0.0
H729 H 0.11452 0.20948 0.00776 0.0
H730 H 0.14444 0.12415 0.99725 0.0
H731 H 0.09484 0.08047 0.01526 0.0
H732 H 0.20738 0.19366 0.99966 0.0
H733 H 0.08929 0.139 0.97168 0.0
H734 H 0.02196 0.11955 0.96732 0.0
H735 H 0.04991 0.23587 0.97047 0.0
H736 H 0.11737 0.25598 0.97508 0.0
H737 H 0.3009 0.28074 0.92695 0.0
H738 H 0.25988 0.23745 0.94725 0.0
H739 H 0.23028 0.3202 0.96282 0.0
H740 H 0.27202 0.36416 0.94285 0.0
H741 H 0.1676 0.24933 0.9572 0.0
H742 H 0.28715 0.30292 0.98519 0.0
H743 H 0.3542 0.32044 0.98875 0.0
H744 H 0.32302 0.20338 0.98418 0.0
H745 H 0.2558 0.18521 0.98037 0.0
C746 C 0.08195 0.15646 0.01942 0.0
C747 C 0.07539 0.11954 0.02159 0.0
C748 C 0.11043 0.18137 0.0093 0.0
C749 C 0.13268 0.16982 0.0009 0.0
C750 C 0.12745 0.13359 0.00354 0.0
C751 C 0.09905 0.10865 0.01382 0.0
C752 C 0.16021 0.19523 0.98894 0.0
C753 C 0.19861 0.20542 0.99024 0.0
C754 C 0.14887 0.2109 0.97672 0.0
C755 C 0.10834 0.19896 0.97387 0.0
C756 C 0.08104 0.16041 0.97156 0.0
C757 C 0.04286 0.14927 0.96903 0.0
C758 C 0.03165 0.17645 0.96865 0.0
C759 C 0.05863 0.21484 0.97078 0.0
C760 C 0.09685 0.22613 0.97333 0.0
C761 C 0.28638 0.29016 0.9349 0.0
C762 C 0.28979 0.32603 0.93319 0.0
C763 C 0.26279 0.26525 0.94647 0.0
C764 C 0.24208 0.27562 0.95656 0.0
C765 C 0.2459 0.31157 0.9551 0.0
C766 C 0.26965 0.33659 0.94362 0.0
C767 C 0.21486 0.24832 0.96809 0.0
C768 C 0.17639 0.23758 0.96662 0.0
C769 C 0.22613 0.23188 0.97999 0.0
C770 C 0.2665 0.24275 0.98233 0.0
C771 C 0.29463 0.28095 0.98481 0.0
C772 C 0.33266 0.29099 0.9869 0.0
C773 C 0.34288 0.26306 0.98665 0.0
C774 C 0.31506 0.225 0.98435 0.0
C775 C 0.27699 0.21481 0.98224 0.0
H776 H 0.37233 0.27089 0.98827 0.0
H777 H 0.00207 0.16777 0.96669 0.0
H778 H 0.07518 0.14022 0.35419 0.0
H779 H 0.07571 0.18999 0.33816 0.0
H780 H 0.95369 0.12221 0.33264 0.0
H781 H 0.95361 0.07167 0.34773 0.0
H782 H 0.97981 0.14746 0.30616 0.0
H783 H 0.00422 0.20775 0.35734 0.0
H784 H 0.03741 0.23221 0.38291 0.0
H785 H 0.14058 0.30764 0.35874 0.0
H786 H 0.10811 0.28329 0.33302 0.0
H787 H 0.94732 0.29229 0.27823 0.0
H788 H 0.95266 0.25102 0.29742 0.0
H789 H 0.06985 0.29509 0.2847 0.0
H790 H 0.06443 0.33495 0.26482 0.0
H791 H 0.04853 0.28462 0.32015 0.0
H792 H 0.02044 0.22067 0.2688 0.0
H793 H 0.98353 0.19714 0.24397 0.0
H794 H 0.8818 0.12868 0.27034 0.0
H795 H 0.91807 0.15231 0.29534 0.0
C796 C 0.0485 0.13624 0.34966 0.0
C797 C 0.01437 0.10215 0.35214 0.0
C798 C 0.04875 0.16479 0.34056 0.0
C799 C 0.01465 0.16025 0.33427 0.0
C800 C 0.98044 0.1265 0.33723 0.0
C801 C 0.98036 0.09763 0.34591 0.0
C802 C 0.01453 0.18942 0.32387 0.0
C803 C 0.99446 0.17732 0.30944 0.0
C804 C 0.03424 0.22871 0.32781 0.0
C805 C 0.05382 0.24342 0.34326 0.0
C806 C 0.03405 0.22936 0.35748 0.0
C807 C 0.05273 0.24324 0.372 0.0
C808 C 0.09111 0.27139 0.37245 0.0
C809 C 0.11087 0.2858 0.35838 0.0
C810 C 0.09234 0.27199 0.34382 0.0
C811 C 0.97425 0.29322 0.27941 0.0
C812 C 0.00529 0.31683 0.26976 0.0
C813 C 0.97732 0.26987 0.29052 0.0
C814 C 0.01162 0.27007 0.29242 0.0
C815 C 0.04322 0.29482 0.28346 0.0
C816 C 0.04003 0.31773 0.27213 0.0
C817 C 0.01345 0.2422 0.30284 0.0
C818 C 0.03391 0.25463 0.3171 0.0
C819 C 0.99359 0.20313 0.29895 0.0
C820 C 0.97188 0.18856 0.28393 0.0
C821 C 0.99014 0.20087 0.2693 0.0
C822 C 0.96935 0.18746 0.2552 0.0
C823 C 0.93032 0.16151 0.25558 0.0
C824 C 0.91202 0.14882 0.27006 0.0
C825 C 0.93268 0.16219 0.2842 0.0
H826 H 0.91427 0.15117 0.24465 0.0
H827 H 0.10551 0.28209 0.3837 0.0
loop_
_geom_bond_atom_site_label_1
_geom_bond_atom_site_label_2
_geom_bond_distance
_geom_bond_site_symmetry_2
_ccdc_geom_bond_type
Co0 O1 2.216 1_445 S
Co0 O2 2.091 1_545 S
Co0 O4 2.004 . S
Co0 O10 2.021 1_445 S
Co0 O12 2.137 . S
Co0 O13 2.244 1_455 S
O1 Co0 2.216 1_665 S
O1 C8 1.247 1_655 S
O2 Co0 2.091 1_565 S
O2 C8 1.261 . S
C3 O12 1.247 . S
C3 O13 1.272 1_455 S
O4 Co0 2.004 . S
O4 C9 1.259 . S
Co5 O6 2.061 1_655 S
Co5 O11 2.052 . S
Co5 O13 2.135 . S
O6 Co5 2.061 1_455 S
O6 C9 1.235 . S
C7 O10 1.238 . S
C7 O11 1.241 1_565 S
C8 O1 1.247 1_455 S
C8 O2 1.261 . S
C9 O4 1.259 . S
C9 O6 1.235 . S
O10 Co0 2.021 1_665 S
O10 C7 1.238 . S
O11 Co5 2.052 . S
O11 C7 1.241 1_545 S
O12 Co0 2.137 . S
O12 C3 1.247 . S
O13 Co0 2.244 1_655 S
O13 C3 1.272 1_655 S
O13 Co5 2.135 . S
Co14 O15 2.216 1_455 S
Co14 O16 2.091 . S
Co14 O18 2.004 . S
Co14 O24 2.021 1_455 S
Co14 O26 2.137 . S
Co14 O27 2.244 1_445 S
O15 Co14 2.216 1_655 S
O15 C22 1.247 1_655 S
O16 Co14 2.091 . S
O16 C22 1.261 . S
C17 O26 1.247 1_565 S
C17 O27 1.272 1_455 S
O18 Co14 2.004 . S
O18 C23 1.259 . S
Co19 O20 2.061 1_655 S
Co19 O25 2.052 . S
Co19 O27 2.135 . S
O20 Co19 2.061 1_455 S
O20 C23 1.235 1_565 S
C21 O24 1.238 . S
C21 O25 1.241 1_545 S
C22 O15 1.247 1_455 S
C22 O16 1.261 . S
C23 O18 1.259 . S
C23 O20 1.235 1_545 S
O24 Co14 2.021 1_655 S
O24 C21 1.238 . S
O25 Co19 2.052 . S
O25 C21 1.241 1_565 S
O26 Co14 2.137 . S
O26 C17 1.247 1_545 S
O27 Co14 2.244 1_665 S
O27 C17 1.272 1_655 S
O27 Co19 2.135 . S
Co28 O29 2.216 . S
Co28 O30 2.091 1_545 S
Co28 O32 2.004 1_445 S
Co28 O38 2.021 . S
Co28 O40 2.137 1_445 S
Co28 O41 2.244 1_455 S
O29 Co28 2.216 . S
O29 C36 1.247 . S
O30 Co28 2.091 1_565 S
O30 C36 1.261 1_565 S
C31 O40 1.247 1_545 S
C31 O41 1.272 . S
O32 Co28 2.004 1_665 S
O32 C37 1.259 . S
Co33 O34 2.061 1_545 S
Co33 O39 2.052 1_655 S
Co33 O41 2.135 . S
O34 Co33 2.061 1_565 S
O34 C37 1.235 . S
C35 O38 1.238 . S
C35 O39 1.241 . S
C36 O29 1.247 . S
C36 O30 1.261 1_545 S
C37 O32 1.259 . S
C37 O34 1.235 . S
O38 Co28 2.021 . S
O38 C35 1.238 . S
O39 Co33 2.052 1_455 S
O39 C35 1.241 . S
O40 Co28 2.137 1_665 S
O40 C31 1.247 1_565 S
O41 Co28 2.244 1_655 S
O41 C31 1.272 . S
O41 Co33 2.135 . S
H42 C69 0.929 . S
N43 C68 1.433 . S
N43 C74 1.435 . S
N43 C80 1.423 . S
H44 C70 0.930 . S
H45 C73 0.931 . S
H46 C72 0.929 . S
H47 C75 0.930 . S
H48 C76 0.932 . S
H49 C79 0.929 . S
H50 C78 0.931 . S
H51 C81 0.929 . S
H52 C85 0.943 . S
H53 C82 0.931 . S
H54 C84 0.929 1_455 S
H55 C87 0.929 . S
H56 C88 0.930 . S
H57 C90 0.929 . S
H58 C91 0.931 . S
H59 C93 0.930 . S
H60 C94 0.932 . S
H61 C96 0.931 . S
H62 C97 0.929 . S
H63 C99 0.929 . S
H64 C100 0.931 . S
H65 C102 0.929 1_455 S
N66 C86 1.433 . S
N66 C92 1.435 . S
N66 C98 1.423 . S
H67 C103 0.960 . S
C68 N43 1.433 . S
C68 C69 1.363 . S
C68 C73 1.370 1_655 S
C69 H42 0.929 . S
C69 C68 1.363 . S
C69 C70 1.385 . S
C70 H44 0.930 . S
C70 C69 1.385 . S
C70 C71 1.357 1_655 S
C71 C70 1.357 1_455 S
C71 C72 1.406 . S
C72 H46 0.929 . S
C72 C71 1.406 . S
C72 C73 1.391 . S
C73 H45 0.931 . S
C73 C68 1.370 1_455 S
C73 C72 1.391 . S
C74 N43 1.435 . S
C74 C75 1.358 1_655 S
C74 C79 1.371 . S
C75 H47 0.930 . S
C75 C74 1.358 1_455 S
C75 C76 1.405 . S
C76 H48 0.932 . S
C76 C75 1.405 . S
C76 C77 1.383 . S
C77 C76 1.383 . S
C77 C78 1.393 1_455 S
C78 H50 0.931 . S
C78 C77 1.393 1_655 S
C78 C79 1.382 . S
C79 H49 0.929 . S
C79 C74 1.371 . S
C79 C78 1.382 . S
C80 N43 1.423 . S
C80 C81 1.362 . S
C80 C85 1.364 1_655 S
C81 H51 0.929 . S
C81 C80 1.362 . S
C81 C82 1.376 . S
C82 H53 0.931 . S
C82 C81 1.376 . S
C82 C83 1.396 . S
C83 C82 1.396 . S
C83 C84 1.348 . S
C83 C101 1.472 . S
C84 H54 0.929 1_655 S
C84 C83 1.348 . S
C84 C85 1.458 1_655 S
C85 H52 0.943 . S
C85 C80 1.364 1_455 S
C85 C84 1.458 1_455 S
C86 N66 1.433 . S
C86 C87 1.363 . S
C86 C91 1.370 1_655 S
C87 H55 0.929 . S
C87 C86 1.363 . S
C87 C88 1.385 . S
C88 H56 0.930 . S
C88 C87 1.385 . S
C88 C89 1.357 1_655 S
C89 C88 1.357 1_455 S
C89 C90 1.406 . S
C90 H57 0.929 . S
C90 C89 1.406 . S
C90 C91 1.391 . S
C91 H58 0.931 . S
C91 C86 1.370 1_455 S
C91 C90 1.391 . S
C92 N66 1.435 . S
C92 C93 1.358 1_655 S
C92 C97 1.371 . S
C93 H59 0.930 . S
C93 C92 1.358 1_455 S
C93 C94 1.405 . S
C94 H60 0.932 . S
C94 C93 1.405 . S
C94 C95 1.383 . S
C95 C94 1.383 . S
C95 C96 1.393 1_455 S
C96 H61 0.931 . S
C96 C95 1.393 1_655 S
C96 C97 1.382 . S
C97 H62 0.929 . S
C97 C92 1.371 . S
C97 C96 1.382 . S
C98 N66 1.423 . S
C98 C99 1.362 . S
C98 C103 1.382 1_655 S
C99 H63 0.929 . S
C99 C98 1.362 . S
C99 C100 1.376 . S
C100 H64 0.931 . S
C100 C99 1.376 . S
C100 C101 1.396 . S
C101 C83 1.472 . S
C101 C100 1.396 . S
C101 C102 1.348 . S
C102 H65 0.929 1_655 S
C102 C101 1.348 . S
C102 C103 1.422 1_655 S
C103 H67 0.960 . S
C103 C98 1.382 1_455 S
C103 C102 1.422 1_455 S
H104 C131 0.929 . S
N105 C130 1.433 . S
N105 C136 1.435 . S
N105 C142 1.423 . S
H106 C132 0.930 . S
H107 C135 0.931 . S
H108 C134 0.929 . S
H109 C137 0.930 . S
H110 C138 0.932 . S
H111 C141 0.929 . S
H112 C140 0.931 . S
H113 C143 0.929 . S
H114 C147 0.932 1_565 S
H115 C144 0.931 . S
H116 C146 0.929 . S
H117 C149 0.929 . S
H118 C150 0.930 . S
H119 C152 0.929 . S
H120 C153 0.932 . S
H121 C155 0.930 . S
H122 C156 0.932 . S
H123 C158 0.931 . S
H124 C159 0.929 . S
H125 C161 0.929 . S
H126 C162 0.931 . S
H127 C164 0.929 . S
N128 C148 1.433 . S
N128 C154 1.435 . S
N128 C160 1.423 . S
H129 C165 0.932 1_565 S
C130 N105 1.433 . S
C130 C131 1.363 . S
C130 C135 1.370 1_545 S
C131 H104 0.929 . S
C131 C130 1.363 . S
C131 C132 1.385 . S
C132 H106 0.930 . S
C132 C131 1.385 . S
C132 C133 1.357 . S
C133 C132 1.357 . S
C133 C134 1.406 1_545 S
C134 H108 0.929 . S
C134 C133 1.406 1_565 S
C134 C135 1.392 . S
C135 H107 0.931 . S
C135 C130 1.370 1_565 S
C135 C134 1.392 . S
C136 N105 1.435 . S
C136 C137 1.358 1_545 S
C136 C141 1.371 . S
C137 H109 0.930 . S
C137 C136 1.358 1_565 S
C137 C138 1.405 . S
C138 H110 0.932 . S
C138 C137 1.405 . S
C138 C139 1.383 1_565 S
C139 C138 1.383 1_545 S
C139 C140 1.393 . S
C140 H112 0.931 . S
C140 C139 1.393 . S
C140 C141 1.382 . S
C141 H111 0.929 . S
C141 C136 1.371 . S
C141 C140 1.382 . S
C142 N105 1.423 . S
C142 C143 1.362 . S
C142 C147 1.388 . S
C143 H113 0.929 . S
C143 C142 1.362 . S
C143 C144 1.376 . S
C144 H115 0.931 . S
C144 C143 1.376 . S
C144 C145 1.396 . S
C145 C144 1.396 . S
C145 C146 1.348 . S
C145 C163 1.472 . S
C146 H116 0.929 . S
C146 C145 1.348 . S
C146 C147 1.443 . S
C147 H114 0.932 1_545 S
C147 C142 1.388 . S
C147 C146 1.443 . S
C148 N128 1.433 . S
C148 C149 1.363 . S
C148 C153 1.369 1_545 S
C149 H117 0.929 . S
C149 C148 1.363 . S
C149 C150 1.385 . S
C150 H118 0.930 . S
C150 C149 1.385 . S
C150 C151 1.357 . S
C151 C150 1.357 . S
C151 C152 1.406 1_545 S
C152 H119 0.929 . S
C152 C151 1.406 1_565 S
C152 C153 1.391 . S
C153 H120 0.932 . S
C153 C148 1.369 1_565 S
C153 C152 1.391 . S
C154 N128 1.435 . S
C154 C155 1.358 1_545 S
C154 C159 1.371 . S
C155 H121 0.930 . S
C155 C154 1.358 1_565 S
C155 C156 1.405 . S
C156 H122 0.932 . S
C156 C155 1.405 . S
C156 C157 1.383 1_565 S
C157 C156 1.383 1_545 S
C157 C158 1.393 . S
C158 H123 0.931 . S
C158 C157 1.393 . S
C158 C159 1.382 . S
C159 H124 0.929 . S
C159 C154 1.371 . S
C159 C158 1.382 . S
C160 N128 1.423 . S
C160 C161 1.362 . S
C160 C165 1.388 . S
C161 H125 0.929 . S
C161 C160 1.362 . S
C161 C162 1.376 . S
C162 H126 0.931 . S
C162 C161 1.376 . S
C162 C163 1.396 . S
C163 C145 1.472 . S
C163 C162 1.396 . S
C163 C164 1.348 . S
C164 H127 0.929 . S
C164 C163 1.348 . S
C164 C165 1.443 . S
C165 H129 0.932 1_545 S
C165 C160 1.388 . S
C165 C164 1.443 . S
H166 C193 0.929 . S
N167 C192 1.433 . S
N167 C198 1.435 . S
N167 C204 1.423 . S
H168 C194 0.930 . S
H169 C197 0.931 . S
H170 C196 0.929 . S
H171 C199 0.930 . S
H172 C200 0.932 . S
H173 C203 0.929 . S
H174 C202 0.931 . S
H175 C205 0.929 . S
H176 C209 0.932 . S
H177 C206 0.931 . S
H178 C208 0.929 . S
H179 C211 0.929 . S
H180 C212 0.930 . S
H181 C214 0.929 . S
H182 C215 0.931 . S
H183 C217 0.930 . S
H184 C218 0.932 . S
H185 C220 0.931 . S
H186 C221 0.929 . S
H187 C223 0.929 . S
H188 C224 0.931 . S
H189 C226 0.929 . S
N190 C210 1.433 . S
N190 C216 1.435 . S
N190 C222 1.423 . S
H191 C227 0.932 . S
C192 N167 1.433 . S
C192 C193 1.363 . S
C192 C197 1.370 . S
C193 H166 0.929 . S
C193 C192 1.363 . S
C193 C194 1.385 . S
C194 H168 0.930 . S
C194 C193 1.385 . S
C194 C195 1.357 . S
C195 C194 1.357 . S
C195 C196 1.406 . S
C196 H170 0.929 . S
C196 C195 1.406 . S
C196 C197 1.391 . S
C197 H169 0.931 . S
C197 C192 1.370 . S
C197 C196 1.391 . S
C198 N167 1.435 . S
C198 C199 1.358 . S
C198 C203 1.371 . S
C199 H171 0.930 . S
C199 C198 1.358 . S
C199 C200 1.405 . S
C200 H172 0.932 . S
C200 C199 1.405 . S
C200 C201 1.383 . S
C201 C200 1.383 . S
C201 C202 1.393 . S
C202 H174 0.931 . S
C202 C201 1.393 . S
C202 C203 1.382 . S
C203 H173 0.929 . S
C203 C198 1.371 . S
C203 C202 1.382 . S
C204 N167 1.423 . S
C204 C205 1.362 . S
C204 C209 1.388 . S
C205 H175 0.929 . S
C205 C204 1.362 . S
C205 C206 1.376 . S
C206 H177 0.931 . S
C206 C205 1.376 . S
C206 C207 1.396 . S
C207 C206 1.396 . S
C207 C208 1.348 . S
C207 C225 1.472 . S
C208 H178 0.929 . S
C208 C207 1.348 . S
C208 C209 1.443 . S
C209 H176 0.932 . S
C209 C204 1.388 . S
C209 C208 1.443 . S
C210 N190 1.433 . S
C210 C211 1.363 . S
C210 C215 1.370 . S
C211 H179 0.929 . S
C211 C210 1.363 . S
C211 C212 1.385 . S
C212 H180 0.930 . S
C212 C211 1.385 . S
C212 C213 1.357 . S
C213 C212 1.357 . S
C213 C214 1.406 . S
C214 H181 0.929 . S
C214 C213 1.406 . S
C214 C215 1.391 . S
C215 H182 0.931 . S
C215 C210 1.370 . S
C215 C214 1.391 . S
C216 N190 1.435 . S
C216 C217 1.358 . S
C216 C221 1.371 . S
C217 H183 0.930 . S
C217 C216 1.358 . S
C217 C218 1.405 . S
C218 H184 0.932 . S
C218 C217 1.405 . S
C218 C219 1.383 . S
C219 C218 1.383 . S
C219 C220 1.393 . S
C220 H185 0.931 . S
C220 C219 1.393 . S
C220 C221 1.382 . S
C221 H186 0.929 . S
C221 C216 1.371 . S
C221 C220 1.382 . S
C222 N190 1.423 . S
C222 C223 1.362 . S
C222 C227 1.388 . S
C223 H187 0.929 . S
C223 C222 1.362 . S
C223 C224 1.376 . S
C224 H188 0.931 . S
C224 C223 1.376 . S
C224 C225 1.396 . S
C225 C207 1.472 . S
C225 C224 1.396 . S
C225 C226 1.348 . S
C226 H189 0.929 . S
C226 C225 1.348 . S
C226 C227 1.443 . S
C227 H191 0.932 . S
C227 C222 1.388 . S
C227 C226 1.443 . S
H228 C246 0.951 . S
H229 C248 0.951 . S
H230 C250 0.950 . S
H231 C251 0.950 . S
H232 C253 0.950 . S
H233 C256 0.950 . S
H234 C257 0.950 . S
H235 C259 0.950 . S
H236 C260 0.950 . S
H237 C261 0.951 . S
H238 C263 0.951 . S
H239 C265 0.950 . S
H240 C266 0.950 . S
H241 C268 0.950 . S
H242 C271 0.950 . S
H243 C272 0.950 . S
H244 C274 0.950 . S
H245 C275 0.950 . S
C246 H228 0.951 . S
C246 C247 1.366 1_655 S
C246 C248 1.388 . S
C247 C246 1.366 1_455 S
C247 C251 1.385 . S
C248 H229 0.951 . S
C248 C246 1.388 . S
C248 C249 1.366 1_655 S
C249 C248 1.366 1_455 S
C249 C250 1.414 . S
C249 C252 1.499 . S
C250 H230 0.950 . S
C250 C249 1.414 . S
C250 C251 1.374 . S
C251 H231 0.950 . S
C251 C247 1.385 . S
C251 C250 1.374 . S
C252 C249 1.499 . S
C252 C253 1.373 . S
C252 C254 1.389 1_455 S
C253 H232 0.950 . S
C253 C252 1.373 . S
C253 C269 1.377 . S
C254 C252 1.389 1_655 S
C254 C255 1.524 . S
C254 C268 1.377 . S
C255 C254 1.524 . S
C255 C256 1.397 . S
C255 C260 1.363 . S
C256 H233 0.950 . S
C256 C255 1.397 . S
C256 C257 1.334 . S
C257 H234 0.950 . S
C257 C256 1.334 . S
C257 C258 1.287 . S
C258 C257 1.287 . S
C258 C259 1.524 . S
C258 H277 0.913 . S
C259 H235 0.950 . S
C259 C258 1.524 . S
C259 C260 1.415 . S
C260 H236 0.950 . S
C260 C255 1.363 . S
C260 C259 1.415 . S
C261 H237 0.951 . S
C261 C262 1.366 . S
C261 C263 1.388 . S
C262 C261 1.366 . S
C262 C266 1.385 1_455 S
C263 H238 0.951 . S
C263 C261 1.388 . S
C263 C264 1.366 . S
C264 C263 1.366 . S
C264 C265 1.414 1_455 S
C264 C267 1.499 . S
C265 H239 0.950 . S
C265 C264 1.414 1_655 S
C265 C266 1.374 . S
C266 H240 0.950 . S
C266 C262 1.385 1_655 S
C266 C265 1.374 . S
C267 C264 1.499 . S
C267 C268 1.373 1_455 S
C267 C269 1.389 . S
C268 H241 0.950 . S
C268 C254 1.377 . S
C268 C267 1.373 1_655 S
C269 C253 1.377 . S
C269 C267 1.389 . S
C269 C270 1.524 . S
C270 C269 1.524 . S
C270 C271 1.397 . S
C270 C275 1.363 . S
C271 H242 0.950 . S
C271 C270 1.397 . S
C271 C272 1.334 . S
C272 H243 0.950 . S
C272 C271 1.334 . S
C272 C273 1.287 . S
C273 C272 1.287 . S
C273 C274 1.524 . S
C273 H276 0.999 . S
C274 H244 0.950 . S
C274 C273 1.524 . S
C274 C275 1.415 . S
C275 H245 0.950 . S
C275 C270 1.363 . S
C275 C274 1.415 . S
H276 C273 0.999 . S
H277 C258 0.913 . S
H278 C296 0.951 . S
H279 C298 0.951 . S
H280 C300 0.950 . S
H281 C301 0.950 . S
H282 C303 0.950 . S
H283 C306 0.950 . S
H284 C307 0.950 . S
H285 C309 0.950 . S
H286 C310 0.950 . S
H287 C311 0.951 . S
H288 C313 0.951 . S
H289 C315 0.950 . S
H290 C316 0.950 . S
H291 C318 0.950 . S
H292 C321 0.950 . S
H293 C322 0.950 . S
H294 C324 0.950 . S
H295 C325 0.950 . S
C296 H278 0.951 . S
C296 C297 1.366 . S
C296 C298 1.388 . S
C297 C296 1.366 . S
C297 C301 1.385 . S
C298 H279 0.951 . S
C298 C296 1.388 . S
C298 C299 1.366 . S
C299 C298 1.366 . S
C299 C300 1.414 . S
C299 C302 1.499 . S
C300 H280 0.950 . S
C300 C299 1.414 . S
C300 C301 1.374 . S
C301 H281 0.950 . S
C301 C297 1.385 . S
C301 C300 1.374 . S
C302 C299 1.499 . S
C302 C303 1.373 . S
C302 C304 1.389 1_545 S
C303 H282 0.950 . S
C303 C302 1.373 . S
C303 C319 1.377 . S
C304 C302 1.389 1_565 S
C304 C305 1.524 . S
C304 C318 1.377 . S
C305 C304 1.524 . S
C305 C306 1.397 . S
C305 C310 1.363 . S
C306 H283 0.950 . S
C306 C305 1.397 . S
C306 C307 1.334 . S
C307 H284 0.950 . S
C307 C306 1.334 . S
C307 C308 1.287 . S
C308 C307 1.287 . S
C308 C309 1.524 . S
C308 H327 0.913 . S
C309 H285 0.950 . S
C309 C308 1.524 . S
C309 C310 1.415 . S
C310 H286 0.950 . S
C310 C305 1.363 . S
C310 C309 1.415 . S
C311 H287 0.951 . S
C311 C312 1.366 . S
C311 C313 1.388 . S
C312 C311 1.366 . S
C312 C316 1.385 . S
C313 H288 0.951 . S
C313 C311 1.388 . S
C313 C314 1.366 . S
C314 C313 1.366 . S
C314 C315 1.414 . S
C314 C317 1.499 . S
C315 H289 0.950 . S
C315 C314 1.414 . S
C315 C316 1.374 . S
C316 H290 0.950 . S
C316 C312 1.385 . S
C316 C315 1.374 . S
C317 C314 1.499 . S
C317 C318 1.373 1_545 S
C317 C319 1.389 . S
C318 H291 0.950 . S
C318 C304 1.377 . S
C318 C317 1.373 1_565 S
C319 C303 1.377 . S
C319 C317 1.389 . S
C319 C320 1.524 . S
C320 C319 1.524 . S
C320 C321 1.397 . S
C320 C325 1.363 . S
C321 H292 0.950 . S
C321 C320 1.397 . S
C321 C322 1.334 . S
C322 H293 0.950 . S
C322 C321 1.334 . S
C322 C323 1.287 . S
C323 C322 1.287 . S
C323 C324 1.524 . S
C323 H326 0.999 . S
C324 H294 0.950 . S
C324 C323 1.524 . S
C324 C325 1.415 . S
C325 H295 0.950 . S
C325 C320 1.363 . S
C325 C324 1.415 . S
H326 C323 0.999 . S
H327 C308 0.913 . S
H328 C346 0.951 . S
H329 C348 0.951 . S
H330 C350 0.950 . S
H331 C351 0.950 . S
H332 C353 0.950 . S
H333 C356 0.950 . S
H334 C357 0.950 . S
H335 C359 0.950 . S
H336 C360 0.950 . S
H337 C361 0.951 . S
H338 C363 0.951 . S
H339 C365 0.950 . S
H340 C366 0.950 . S
H341 C368 0.950 . S
H342 C371 0.950 . S
H343 C372 0.950 . S
H344 C374 0.950 . S
H345 C375 0.950 . S
C346 H328 0.951 . S
C346 C347 1.366 . S
C346 C348 1.388 . S
C347 C346 1.366 . S
C347 C351 1.385 . S
C348 H329 0.951 . S
C348 C346 1.388 . S
C348 C349 1.366 . S
C349 C348 1.366 . S
C349 C350 1.414 . S
C349 C352 1.499 . S
C350 H330 0.950 . S
C350 C349 1.414 . S
C350 C351 1.374 . S
C351 H331 0.950 . S
C351 C347 1.385 . S
C351 C350 1.374 . S
C352 C349 1.499 . S
C352 C353 1.373 . S
C352 C354 1.389 . S
C353 H332 0.950 . S
C353 C352 1.373 . S
C353 C369 1.377 . S
C354 C352 1.389 . S
C354 C355 1.524 . S
C354 C368 1.377 . S
C355 C354 1.524 . S
C355 C356 1.397 . S
C355 C360 1.363 . S
C356 H333 0.950 . S
C356 C355 1.397 . S
C356 C357 1.334 . S
C357 H334 0.950 . S
C357 C356 1.334 . S
C357 C358 1.287 . S
C358 C357 1.287 . S
C358 C359 1.524 . S
C358 H377 0.913 . S
C359 H335 0.950 . S
C359 C358 1.524 . S
C359 C360 1.415 . S
C360 H336 0.950 . S
C360 C355 1.363 . S
C360 C359 1.415 . S
C361 H337 0.951 . S
C361 C362 1.366 . S
C361 C363 1.388 . S
C362 C361 1.366 . S
C362 C366 1.385 . S
C363 H338 0.951 . S
C363 C361 1.388 . S
C363 C364 1.366 . S
C364 C363 1.366 . S
C364 C365 1.414 . S
C364 C367 1.499 . S
C365 H339 0.950 . S
C365 C364 1.414 . S
C365 C366 1.374 . S
C366 H340 0.950 . S
C366 C362 1.385 . S
C366 C365 1.374 . S
C367 C364 1.499 . S
C367 C368 1.373 . S
C367 C369 1.389 . S
C368 H341 0.950 . S
C368 C354 1.377 . S
C368 C367 1.373 . S
C369 C353 1.377 . S
C369 C367 1.389 . S
C369 C370 1.524 . S
C370 C369 1.524 . S
C370 C371 1.397 . S
C370 C375 1.363 . S
C371 H342 0.950 . S
C371 C370 1.397 . S
C371 C372 1.334 . S
C372 H343 0.950 . S
C372 C371 1.334 . S
C372 C373 1.287 . S
C373 C372 1.287 . S
C373 C374 1.524 . S
C373 H376 0.999 . S
C374 H344 0.950 . S
C374 C373 1.524 . S
C374 C375 1.415 . S
C375 H345 0.950 . S
C375 C370 1.363 . S
C375 C374 1.415 . S
H376 C373 0.999 . S
H377 C358 0.913 . S
H378 C396 0.951 . S
H379 C398 0.951 . S
H380 C400 0.950 . S
H381 C401 0.950 . S
H382 C403 0.950 . S
H383 C406 0.950 . S
H384 C407 0.950 . S
H385 C409 0.950 . S
H386 C410 0.950 . S
H387 C411 0.951 . S
H388 C413 0.951 . S
H389 C415 0.950 . S
H390 C416 0.950 . S
H391 C418 0.950 . S
H392 C421 0.950 . S
H393 C422 0.950 . S
H394 C424 0.950 . S
H395 C425 0.950 . S
C396 H378 0.951 . S
C396 C397 1.366 . S
C396 C398 1.388 . S
C397 C396 1.366 . S
C397 C401 1.385 1_455 S
C398 H379 0.951 . S
C398 C396 1.388 . S
C398 C399 1.366 . S
C399 C398 1.366 . S
C399 C400 1.414 1_455 S
C399 C402 1.499 . S
C400 H380 0.950 . S
C400 C399 1.414 1_655 S
C400 C401 1.374 . S
C401 H381 0.950 . S
C401 C397 1.385 1_655 S
C401 C400 1.374 . S
C402 C399 1.499 . S
C402 C403 1.373 1_455 S
C402 C404 1.389 . S
C403 H382 0.950 . S
C403 C402 1.373 1_655 S
C403 C419 1.377 . S
C404 C402 1.389 . S
C404 C405 1.524 . S
C404 C418 1.377 . S
C405 C404 1.524 . S
C405 C406 1.397 . S
C405 C410 1.363 . S
C406 H383 0.950 . S
C406 C405 1.397 . S
C406 C407 1.334 . S
C407 H384 0.950 . S
C407 C406 1.334 . S
C407 C408 1.287 . S
C408 C407 1.287 . S
C408 C409 1.524 . S
C408 H427 0.913 . S
C409 H385 0.950 . S
C409 C408 1.524 . S
C409 C410 1.415 . S
C410 H386 0.950 . S
C410 C405 1.363 . S
C410 C409 1.415 . S
C411 H387 0.951 . S
C411 C412 1.366 1_655 S
C411 C413 1.388 . S
C412 C411 1.366 1_455 S
C412 C416 1.385 . S
C413 H388 0.951 . S
C413 C411 1.388 . S
C413 C414 1.366 1_655 S
C414 C413 1.366 1_455 S
C414 C415 1.414 . S
C414 C417 1.499 . S
C415 H389 0.950 . S
C415 C414 1.414 . S
C415 C416 1.374 . S
C416 H390 0.950 . S
C416 C412 1.385 . S
C416 C415 1.374 . S
C417 C414 1.499 . S
C417 C418 1.373 . S
C417 C419 1.389 1_455 S
C418 H391 0.950 . S
C418 C404 1.377 . S
C418 C417 1.373 . S
C419 C403 1.377 . S
C419 C417 1.389 1_655 S
C419 C420 1.524 . S
C420 C419 1.524 . S
C420 C421 1.397 . S
C420 C425 1.363 . S
C421 H392 0.950 . S
C421 C420 1.397 . S
C421 C422 1.334 . S
C422 H393 0.950 . S
C422 C421 1.334 . S
C422 C423 1.287 . S
C423 C422 1.287 . S
C423 C424 1.524 . S
C423 H426 0.999 . S
C424 H394 0.950 . S
C424 C423 1.524 . S
C424 C425 1.415 . S
C425 H395 0.950 . S
C425 C420 1.363 . S
C425 C424 1.415 . S
H426 C423 0.999 . S
H427 C408 0.913 . S
H428 C446 0.951 . S
H429 C448 0.951 . S
H430 C450 0.950 1_565 S
H431 C451 0.950 1_565 S
H432 C453 0.950 . S
H433 C456 0.950 . S
H434 C457 0.950 . S
H435 C459 0.950 . S
H436 C460 0.950 1_545 S
H437 C461 0.951 . S
H438 C463 0.949 . S
H439 C465 0.950 . S
H440 C466 0.950 . S
H441 C468 0.950 1_565 S
H442 C471 0.950 . S
H443 C472 0.950 . S
H444 C474 0.950 . S
H445 C475 0.950 . S
C446 H428 0.951 . S
C446 C447 1.366 . S
C446 C448 1.388 . S
C447 C446 1.366 . S
C447 C451 1.385 . S
C448 H429 0.951 . S
C448 C446 1.388 . S
C448 C449 1.366 . S
C449 C448 1.366 . S
C449 C450 1.414 . S
C449 C452 1.499 . S
C450 H430 0.950 1_545 S
C450 C449 1.414 . S
C450 C451 1.374 . S
C451 H431 0.950 1_545 S
C451 C447 1.385 . S
C451 C450 1.374 . S
C452 C449 1.499 . S
C452 C453 1.373 . S
C452 C454 1.389 . S
C453 H432 0.950 . S
C453 C452 1.373 . S
C453 C469 1.377 . S
C454 C452 1.389 . S
C454 C455 1.524 1_545 S
C454 C468 1.377 . S
C455 C454 1.524 1_565 S
C455 C456 1.397 . S
C455 C460 1.363 . S
C456 H433 0.950 . S
C456 C455 1.397 . S
C456 C457 1.334 . S
C457 H434 0.950 . S
C457 C456 1.334 . S
C457 C458 1.287 . S
C458 C457 1.287 . S
C458 C459 1.524 . S
C458 H477 0.913 . S
C459 H435 0.950 . S
C459 C458 1.524 . S
C459 C460 1.415 . S
C460 H436 0.950 1_565 S
C460 C455 1.363 . S
C460 C459 1.415 . S
C461 H437 0.951 . S
C461 C462 1.366 1_565 S
C461 C463 1.393 . S
C462 C461 1.366 1_545 S
C462 C466 1.385 . S
C463 H438 0.949 . S
C463 C461 1.393 . S
C463 C464 1.362 1_565 S
C464 C463 1.362 1_545 S
C464 C465 1.414 . S
C464 C467 1.499 . S
C465 H439 0.950 . S
C465 C464 1.414 . S
C465 C466 1.374 . S
C466 H440 0.950 . S
C466 C462 1.385 . S
C466 C465 1.374 . S
C467 C464 1.499 . S
C467 C468 1.373 . S
C467 C469 1.389 . S
C468 H441 0.950 1_545 S
C468 C454 1.377 . S
C468 C467 1.373 . S
C469 C453 1.377 . S
C469 C467 1.389 . S
C469 C470 1.524 . S
C470 C469 1.524 . S
C470 C471 1.397 . S
C470 C475 1.363 . S
C471 H442 0.950 . S
C471 C470 1.397 . S
C471 C472 1.334 . S
C472 H443 0.950 . S
C472 C471 1.334 . S
C472 C473 1.287 . S
C473 C472 1.287 . S
C473 C474 1.524 . S
C473 H476 0.999 . S
C474 H444 0.950 . S
C474 C473 1.524 . S
C474 C475 1.415 . S
C475 H445 0.950 . S
C475 C470 1.363 . S
C475 C474 1.415 . S
H476 C473 0.999 . S
H477 C458 0.913 . S
H478 C496 0.951 . S
H479 C498 0.951 . S
H480 C500 0.950 . S
H481 C501 0.950 . S
H482 C503 0.950 . S
H483 C506 0.950 . S
H484 C507 0.950 . S
H485 C509 0.950 . S
H486 C510 0.950 . S
H487 C511 0.951 . S
H488 C513 0.951 . S
H489 C515 0.950 . S
H490 C516 0.950 . S
H491 C518 0.950 . S
H492 C521 0.950 . S
H493 C522 0.950 . S
H494 C524 0.950 . S
H495 C525 0.950 . S
C496 H478 0.951 . S
C496 C497 1.366 . S
C496 C498 1.388 . S
C497 C496 1.366 . S
C497 C501 1.385 . S
C498 H479 0.951 . S
C498 C496 1.388 . S
C498 C499 1.366 . S
C499 C498 1.366 . S
C499 C500 1.414 . S
C499 C502 1.499 . S
C500 H480 0.950 . S
C500 C499 1.414 . S
C500 C501 1.374 . S
C501 H481 0.950 . S
C501 C497 1.385 . S
C501 C500 1.374 . S
C502 C499 1.499 . S
C502 C503 1.373 . S
C502 C504 1.389 . S
C503 H482 0.950 . S
C503 C502 1.373 . S
C503 C519 1.377 . S
C504 C502 1.389 . S
C504 C505 1.524 . S
C504 C518 1.377 . S
C505 C504 1.524 . S
C505 C506 1.397 . S
C505 C510 1.363 . S
C506 H483 0.950 . S
C506 C505 1.397 . S
C506 C507 1.334 . S
C507 H484 0.950 . S
C507 C506 1.334 . S
C507 C508 1.287 . S
C508 C507 1.287 . S
C508 C509 1.524 . S
C508 H527 0.913 . S
C509 H485 0.950 . S
C509 C508 1.524 . S
C509 C510 1.415 . S
C510 H486 0.950 . S
C510 C505 1.363 . S
C510 C509 1.415 . S
C511 H487 0.951 . S
C511 C512 1.366 . S
C511 C513 1.388 . S
C512 C511 1.366 . S
C512 C516 1.385 . S
C513 H488 0.951 . S
C513 C511 1.388 . S
C513 C514 1.366 . S
C514 C513 1.366 . S
C514 C515 1.414 . S
C514 C517 1.499 . S
C515 H489 0.950 . S
C515 C514 1.414 . S
C515 C516 1.374 . S
C516 H490 0.950 . S
C516 C512 1.385 . S
C516 C515 1.374 . S
C517 C514 1.499 . S
C517 C518 1.373 . S
C517 C519 1.389 . S
C518 H491 0.950 . S
C518 C504 1.377 . S
C518 C517 1.373 . S
C519 C503 1.377 . S
C519 C517 1.389 . S
C519 C520 1.524 . S
C520 C519 1.524 . S
C520 C521 1.397 . S
C520 C525 1.363 . S
C521 H492 0.950 . S
C521 C520 1.397 . S
C521 C522 1.334 . S
C522 H493 0.950 . S
C522 C521 1.334 . S
C522 C523 1.287 . S
C523 C522 1.287 . S
C523 C524 1.524 . S
C523 H526 0.999 . S
C524 H494 0.950 . S
C524 C523 1.524 . S
C524 C525 1.415 . S
C525 H495 0.950 . S
C525 C520 1.363 . S
C525 C524 1.415 . S
H526 C523 0.999 . S
H527 C508 0.913 . S
H528 C546 0.951 . S
H529 C548 0.951 . S
H530 C550 0.950 . S
H531 C551 0.950 . S
H532 C553 0.950 . S
H533 C556 0.950 . S
H534 C557 0.950 . S
H535 C559 0.950 . S
H536 C560 0.950 . S
H537 C561 0.951 . S
H538 C563 0.951 . S
H539 C565 0.950 . S
H540 C566 0.950 . S
H541 C568 0.950 . S
H542 C571 0.950 . S
H543 C572 0.950 . S
H544 C574 0.950 . S
H545 C575 0.950 . S
C546 H528 0.951 . S
C546 C547 1.366 . S
C546 C548 1.388 . S
C547 C546 1.366 . S
C547 C551 1.385 . S
C548 H529 0.951 . S
C548 C546 1.388 . S
C548 C549 1.366 . S
C549 C548 1.366 . S
C549 C550 1.414 . S
C549 C552 1.499 . S
C550 H530 0.950 . S
C550 C549 1.414 . S
C550 C551 1.374 . S
C551 H531 0.950 . S
C551 C547 1.385 . S
C551 C550 1.374 . S
C552 C549 1.499 . S
C552 C553 1.373 . S
C552 C554 1.389 1_545 S
C553 H532 0.950 . S
C553 C552 1.373 . S
C553 C569 1.377 . S
C554 C552 1.389 1_565 S
C554 C555 1.524 . S
C554 C568 1.377 . S
C555 C554 1.524 . S
C555 C556 1.397 . S
C555 C560 1.363 . S
C556 H533 0.950 . S
C556 C555 1.397 . S
C556 C557 1.334 . S
C557 H534 0.950 . S
C557 C556 1.334 . S
C557 C558 1.287 . S
C558 C557 1.287 . S
C558 C559 1.524 . S
C558 H577 0.913 . S
C559 H535 0.950 . S
C559 C558 1.524 . S
C559 C560 1.415 . S
C560 H536 0.950 . S
C560 C555 1.363 . S
C560 C559 1.415 . S
C561 H537 0.951 . S
C561 C562 1.366 . S
C561 C563 1.388 . S
C562 C561 1.366 . S
C562 C566 1.385 . S
C563 H538 0.951 . S
C563 C561 1.388 . S
C563 C564 1.366 . S
C564 C563 1.366 . S
C564 C565 1.414 . S
C564 C567 1.499 . S
C565 H539 0.950 . S
C565 C564 1.414 . S
C565 C566 1.374 . S
C566 H540 0.950 . S
C566 C562 1.385 . S
C566 C565 1.374 . S
C567 C564 1.499 . S
C567 C568 1.373 1_545 S
C567 C569 1.389 . S
C568 H541 0.950 . S
C568 C554 1.377 . S
C568 C567 1.373 1_565 S
C569 C553 1.377 . S
C569 C567 1.389 . S
C569 C570 1.524 . S
C570 C569 1.524 . S
C570 C571 1.397 . S
C570 C575 1.363 . S
C571 H542 0.950 . S
C571 C570 1.397 . S
C571 C572 1.334 . S
C572 H543 0.950 . S
C572 C571 1.334 . S
C572 C573 1.287 . S
C573 C572 1.287 . S
C573 C574 1.524 . S
C573 H576 0.999 . S
C574 H544 0.950 . S
C574 C573 1.524 . S
C574 C575 1.415 . S
C575 H545 0.950 . S
C575 C570 1.363 . S
C575 C574 1.415 . S
H576 C573 0.999 . S
H577 C558 0.913 . S
H578 C596 0.951 . S
H579 C598 0.951 . S
H580 C600 0.950 . S
H581 C601 0.950 . S
H582 C603 0.950 . S
H583 C606 0.950 . S
H584 C607 0.958 . S
H585 C609 0.950 . S
H586 C610 0.950 . S
H587 C611 0.951 . S
H588 C613 0.951 . S
H589 C615 0.950 . S
H590 C616 0.950 . S
H591 C618 0.950 . S
H592 C621 0.950 . S
H593 C622 0.950 . S
H594 C624 0.950 . S
H595 C625 0.950 . S
C596 H578 0.951 . S
C596 C597 1.366 . S
C596 C598 1.388 . S
C597 C596 1.366 . S
C597 C601 1.385 1_554 S
C598 H579 0.951 . S
C598 C596 1.388 . S
C598 C599 1.366 1_554 S
C599 C598 1.366 1_556 S
C599 C600 1.414 . S
C599 C602 1.499 . S
C600 H580 0.950 . S
C600 C599 1.414 . S
C600 C601 1.374 . S
C601 H581 0.950 . S
C601 C597 1.385 1_556 S
C601 C600 1.374 . S
C602 C599 1.499 . S
C602 C603 1.373 . S
C602 C604 1.389 . S
C603 H582 0.950 . S
C603 C602 1.373 . S
C603 C619 1.377 . S
C604 C602 1.389 . S
C604 C605 1.524 . S
C604 C618 1.377 . S
C605 C604 1.524 . S
C605 C606 1.397 . S
C605 C610 1.363 1_556 S
C606 H583 0.950 . S
C606 C605 1.397 . S
C606 C607 1.358 . S
C607 H584 0.958 . S
C607 C606 1.358 . S
C607 C608 1.257 1_556 S
C608 C607 1.257 1_554 S
C608 C609 1.524 . S
C608 H627 0.913 . S
C609 H585 0.950 . S
C609 C608 1.524 . S
C609 C610 1.415 . S
C610 H586 0.950 . S
C610 C605 1.363 1_554 S
C610 C609 1.415 . S
C611 H587 0.951 . S
C611 C612 1.366 . S
C611 C613 1.388 . S
C612 C611 1.366 . S
C612 C616 1.385 . S
C613 H588 0.951 . S
C613 C611 1.388 . S
C613 C614 1.366 . S
C614 C613 1.366 . S
C614 C615 1.414 . S
C614 C617 1.499 . S
C615 H589 0.950 . S
C615 C614 1.414 . S
C615 C616 1.374 . S
C616 H590 0.950 . S
C616 C612 1.385 . S
C616 C615 1.374 . S
C617 C614 1.499 . S
C617 C618 1.373 . S
C617 C619 1.389 . S
C618 H591 0.950 . S
C618 C604 1.377 . S
C618 C617 1.373 . S
C619 C603 1.377 . S
C619 C617 1.389 . S
C619 C620 1.524 . S
C620 C619 1.524 . S
C620 C621 1.397 . S
C620 C625 1.363 . S
C621 H592 0.950 . S
C621 C620 1.397 . S
C621 C622 1.334 . S
C622 H593 0.950 . S
C622 C621 1.334 . S
C622 C623 1.287 . S
C623 C622 1.287 . S
C623 C624 1.524 . S
C623 H626 0.999 . S
C624 H594 0.950 . S
C624 C623 1.524 . S
C624 C625 1.415 . S
C625 H595 0.950 . S
C625 C620 1.363 . S
C625 C624 1.415 . S
H626 C623 0.999 . S
H627 C608 0.913 . S
H628 C646 0.951 . S
H629 C648 0.951 . S
H630 C650 0.950 . S
H631 C651 0.950 . S
H632 C653 0.950 . S
H633 C656 0.950 . S
H634 C657 0.950 . S
H635 C659 0.950 . S
H636 C660 0.950 . S
H637 C661 0.951 . S
H638 C663 0.951 . S
H639 C665 0.950 . S
H640 C666 0.950 . S
H641 C668 0.950 . S
H642 C671 0.950 . S
H643 C672 0.950 . S
H644 C674 0.950 . S
H645 C675 0.950 . S
C646 H628 0.951 . S
C646 C647 1.366 1_655 S
C646 C648 1.388 . S
C647 C646 1.366 1_455 S
C647 C651 1.385 . S
C648 H629 0.951 . S
C648 C646 1.388 . S
C648 C649 1.366 1_655 S
C649 C648 1.366 1_455 S
C649 C650 1.414 . S
C649 C652 1.499 . S
C650 H630 0.950 . S
C650 C649 1.414 . S
C650 C651 1.374 . S
C651 H631 0.950 . S
C651 C647 1.385 . S
C651 C650 1.374 . S
C652 C649 1.499 . S
C652 C653 1.373 . S
C652 C654 1.389 1_455 S
C653 H632 0.950 . S
C653 C652 1.373 . S
C653 C669 1.377 . S
C654 C652 1.389 1_655 S
C654 C655 1.524 . S
C654 C668 1.377 . S
C655 C654 1.524 . S
C655 C656 1.397 . S
C655 C660 1.363 . S
C656 H633 0.950 . S
C656 C655 1.397 . S
C656 C657 1.334 . S
C657 H634 0.950 . S
C657 C656 1.334 . S
C657 C658 1.287 . S
C658 C657 1.287 . S
C658 C659 1.524 . S
C658 H677 0.913 . S
C659 H635 0.950 . S
C659 C658 1.524 . S
C659 C660 1.415 . S
C660 H636 0.950 . S
C660 C655 1.363 . S
C660 C659 1.415 . S
C661 H637 0.951 . S
C661 C662 1.366 . S
C661 C663 1.388 . S
C662 C661 1.366 . S
C662 C666 1.385 1_455 S
C663 H638 0.951 . S
C663 C661 1.388 . S
C663 C664 1.366 . S
C664 C663 1.366 . S
C664 C665 1.414 1_455 S
C664 C667 1.499 . S
C665 H639 0.950 . S
C665 C664 1.414 1_655 S
C665 C666 1.374 . S
C666 H640 0.950 . S
C666 C662 1.385 1_655 S
C666 C665 1.374 . S
C667 C664 1.499 . S
C667 C668 1.373 1_455 S
C667 C669 1.389 . S
C668 H641 0.950 . S
C668 C654 1.377 . S
C668 C667 1.373 1_655 S
C669 C653 1.377 . S
C669 C667 1.389 . S
C669 C670 1.524 . S
C670 C669 1.524 . S
C670 C671 1.397 . S
C670 C675 1.363 . S
C671 H642 0.950 . S
C671 C670 1.397 . S
C671 C672 1.334 . S
C672 H643 0.950 . S
C672 C671 1.334 . S
C672 C673 1.287 . S
C673 C672 1.287 . S
C673 C674 1.524 . S
C673 H676 0.999 . S
C674 H644 0.950 . S
C674 C673 1.524 . S
C674 C675 1.415 . S
C675 H645 0.950 . S
C675 C670 1.363 . S
C675 C674 1.415 . S
H676 C673 0.999 . S
H677 C658 0.913 . S
H678 C696 0.951 1_565 S
H679 C698 0.951 1_565 S
H680 C700 0.950 . S
H681 C701 0.950 . S
H682 C703 0.950 . S
H683 C706 0.950 . S
H684 C707 0.950 . S
H685 C709 0.950 . S
H686 C710 0.950 . S
H687 C711 0.951 . S
H688 C713 0.951 . S
H689 C715 0.952 . S
H690 C716 0.949 1_565 S
H691 C718 0.950 . S
H692 C721 0.950 . S
H693 C722 0.950 . S
H694 C724 0.950 . S
H695 C725 0.950 . S
C696 H678 0.951 1_545 S
C696 C697 1.366 . S
C696 C698 1.388 . S
C697 C696 1.366 . S
C697 C701 1.385 . S
C698 H679 0.951 1_545 S
C698 C696 1.388 . S
C698 C699 1.366 . S
C699 C698 1.366 . S
C699 C700 1.414 . S
C699 C702 1.499 . S
C700 H680 0.950 . S
C700 C699 1.414 . S
C700 C701 1.374 . S
C701 H681 0.950 . S
C701 C697 1.385 . S
C701 C700 1.374 . S
C702 C699 1.499 . S
C702 C703 1.373 1_545 S
C702 C704 1.389 . S
C703 H682 0.950 . S
C703 C702 1.373 1_565 S
C703 C719 1.377 . S
C704 C702 1.389 . S
C704 C705 1.524 . S
C704 C718 1.377 . S
C705 C704 1.524 . S
C705 C706 1.397 . S
C705 C710 1.363 . S
C706 H683 0.950 . S
C706 C705 1.397 . S
C706 C707 1.334 . S
C707 H684 0.950 . S
C707 C706 1.334 . S
C707 C708 1.287 . S
C708 C707 1.287 . S
C708 C709 1.524 . S
C708 H727 0.913 . S
C709 H685 0.950 . S
C709 C708 1.524 . S
C709 C710 1.415 . S
C710 H686 0.950 . S
C710 C705 1.363 . S
C710 C709 1.415 . S
C711 H687 0.951 . S
C711 C712 1.366 . S
C711 C713 1.388 . S
C712 C711 1.366 . S
C712 C716 1.385 . S
C713 H688 0.951 . S
C713 C711 1.388 . S
C713 C714 1.366 . S
C714 C713 1.366 . S
C714 C715 1.408 1_545 S
C714 C717 1.499 . S
C715 H689 0.952 . S
C715 C714 1.408 1_565 S
C715 C716 1.379 1_565 S
C716 H690 0.949 1_545 S
C716 C712 1.385 . S
C716 C715 1.379 1_545 S
C717 C714 1.499 . S
C717 C718 1.373 . S
C717 C719 1.389 1_545 S
C718 H691 0.950 . S
C718 C704 1.377 . S
C718 C717 1.373 . S
C719 C703 1.377 . S
C719 C717 1.389 1_565 S
C719 C720 1.524 . S
C720 C719 1.524 . S
C720 C721 1.397 . S
C720 C725 1.363 . S
C721 H692 0.950 . S
C721 C720 1.397 . S
C721 C722 1.334 . S
C722 H693 0.950 . S
C722 C721 1.334 . S
C722 C723 1.287 . S
C723 C722 1.287 . S
C723 C724 1.524 . S
C723 H726 0.999 . S
C724 H694 0.950 . S
C724 C723 1.524 . S
C724 C725 1.415 . S
C725 H695 0.950 . S
C725 C720 1.363 . S
C725 C724 1.415 . S
H726 C723 0.999 . S
H727 C708 0.913 . S
H728 C746 0.951 . S
H729 C748 0.951 . S
H730 C750 0.950 . S
H731 C751 0.950 . S
H732 C753 0.950 . S
H733 C756 0.950 . S
H734 C757 0.950 . S
H735 C759 0.950 . S
H736 C760 0.950 . S
H737 C761 0.951 . S
H738 C763 0.951 . S
H739 C765 0.950 . S
H740 C766 0.950 . S
H741 C768 0.950 . S
H742 C771 0.950 . S
H743 C772 0.950 . S
H744 C774 0.950 . S
H745 C775 0.950 . S
C746 H728 0.951 . S
C746 C747 1.366 . S
C746 C748 1.388 . S
C747 C746 1.366 . S
C747 C751 1.385 . S
C748 H729 0.951 . S
C748 C746 1.388 . S
C748 C749 1.366 1_554 S
C749 C748 1.366 1_556 S
C749 C750 1.414 . S
C749 C752 1.499 . S
C750 H730 0.950 . S
C750 C749 1.414 . S
C750 C751 1.374 1_556 S
C751 H731 0.950 . S
C751 C747 1.385 . S
C751 C750 1.374 1_554 S
C752 C749 1.499 . S
C752 C753 1.373 . S
C752 C754 1.389 . S
C753 H732 0.950 . S
C753 C752 1.373 . S
C753 C769 1.377 . S
C754 C752 1.389 . S
C754 C755 1.524 . S
C754 C768 1.377 . S
C755 C754 1.524 . S
C755 C756 1.397 . S
C755 C760 1.363 . S
C756 H733 0.950 . S
C756 C755 1.397 . S
C756 C757 1.334 . S
C757 H734 0.950 . S
C757 C756 1.334 . S
C757 C758 1.287 . S
C758 C757 1.287 . S
C758 C759 1.524 . S
C758 H777 0.913 . S
C759 H735 0.950 . S
C759 C758 1.524 . S
C759 C760 1.415 . S
C760 H736 0.950 . S
C760 C755 1.363 . S
C760 C759 1.415 . S
C761 H737 0.951 . S
C761 C762 1.366 . S
C761 C763 1.388 . S
C762 C761 1.366 . S
C762 C766 1.385 . S
C763 H738 0.951 . S
C763 C761 1.388 . S
C763 C764 1.366 . S
C764 C763 1.366 . S
C764 C765 1.414 . S
C764 C767 1.499 . S
C765 H739 0.950 . S
C765 C764 1.414 . S
C765 C766 1.374 . S
C766 H740 0.950 . S
C766 C762 1.385 . S
C766 C765 1.374 . S
C767 C764 1.499 . S
C767 C768 1.373 . S
C767 C769 1.389 . S
C768 H741 0.950 . S
C768 C754 1.377 . S
C768 C767 1.373 . S
C769 C753 1.377 . S
C769 C767 1.389 . S
C769 C770 1.524 . S
C770 C769 1.524 . S
C770 C771 1.397 . S
C770 C775 1.363 . S
C771 H742 0.950 . S
C771 C770 1.397 . S
C771 C772 1.334 . S
C772 H743 0.950 . S
C772 C771 1.334 . S
C772 C773 1.287 . S
C773 C772 1.287 . S
C773 C774 1.524 . S
C773 H776 0.999 . S
C774 H744 0.950 . S
C774 C773 1.524 . S
C774 C775 1.415 . S
C775 H745 0.950 . S
C775 C770 1.363 . S
C775 C774 1.415 . S
H776 C773 0.999 . S
H777 C758 0.913 . S
H778 C796 0.951 . S
H779 C798 0.951 . S
H780 C800 0.950 . S
H781 C801 0.950 . S
H782 C803 0.950 . S
H783 C806 0.950 . S
H784 C807 0.950 . S
H785 C809 0.950 . S
H786 C810 0.950 . S
H787 C811 0.951 . S
H788 C813 0.951 . S
H789 C815 0.950 . S
H790 C816 0.950 . S
H791 C818 0.950 . S
H792 C821 0.950 1_455 S
H793 C822 0.950 . S
H794 C824 0.950 . S
H795 C825 0.950 . S
C796 H778 0.951 . S
C796 C797 1.366 . S
C796 C798 1.388 . S
C797 C796 1.366 . S
C797 C801 1.385 1_455 S
C798 H779 0.951 . S
C798 C796 1.388 . S
C798 C799 1.366 . S
C799 C798 1.366 . S
C799 C800 1.414 1_455 S
C799 C802 1.499 . S
C800 H780 0.950 . S
C800 C799 1.414 1_655 S
C800 C801 1.374 . S
C801 H781 0.950 . S
C801 C797 1.385 1_655 S
C801 C800 1.374 . S
C802 C799 1.499 . S
C802 C803 1.373 1_455 S
C802 C804 1.389 . S
C803 H782 0.950 . S
C803 C802 1.373 1_655 S
C803 C819 1.377 . S
C804 C802 1.389 . S
C804 C805 1.524 . S
C804 C818 1.377 . S
C805 C804 1.524 . S
C805 C806 1.397 . S
C805 C810 1.363 . S
C806 H783 0.950 . S
C806 C805 1.397 . S
C806 C807 1.334 . S
C807 H784 0.950 . S
C807 C806 1.334 . S
C807 C808 1.287 . S
C808 C807 1.287 . S
C808 C809 1.524 . S
C808 H827 0.913 . S
C809 H785 0.950 . S
C809 C808 1.524 . S
C809 C810 1.415 . S
C810 H786 0.950 . S
C810 C805 1.363 . S
C810 C809 1.415 . S
C811 H787 0.951 . S
C811 C812 1.366 1_655 S
C811 C813 1.388 . S
C812 C811 1.366 1_455 S
C812 C816 1.385 . S
C813 H788 0.951 . S
C813 C811 1.388 . S
C813 C814 1.366 1_655 S
C814 C813 1.366 1_455 S
C814 C815 1.414 . S
C814 C817 1.499 . S
C815 H789 0.950 . S
C815 C814 1.414 . S
C815 C816 1.374 . S
C816 H790 0.950 . S
C816 C812 1.385 . S
C816 C815 1.374 . S
C817 C814 1.499 . S
C817 C818 1.373 . S
C817 C819 1.389 1_455 S
C818 H791 0.950 . S
C818 C804 1.377 . S
C818 C817 1.373 . S
C819 C803 1.377 . S
C819 C817 1.389 1_655 S
C819 C820 1.524 . S
C820 C819 1.524 . S
C820 C821 1.397 . S
C820 C825 1.363 . S
C821 H792 0.950 1_655 S
C821 C820 1.397 . S
C821 C822 1.334 . S
C822 H793 0.950 . S
C822 C821 1.334 . S
C822 C823 1.287 . S
C823 C822 1.287 . S
C823 C824 1.524 . S
C823 H826 0.999 . S
C824 H794 0.950 . S
C824 C823 1.524 . S
C824 C825 1.415 . S
C825 H795 0.950 . S
C825 C820 1.363 . S
C825 C824 1.415 . S
H826 C823 0.999 . S
H827 C808 0.913 . S
C262 C95 1.374 . S
C247 C3 1.383 . S
C297 C21 1.409 . S
C312 C139 1.417 . S
C347 C37 1.391 . S
C362 C201 1.401 . S
C397 C8 1.400 . S
C412 C77 1.388 . S
C462 C157 1.407 . S
C447 C23 1.402 . S
C497 C35 1.393 . S
C512 C219 1.406 . S
C562 C133 1.614 . S
C547 C31 1.711 . S
C597 C7 1.738 . S
C612 C195 1.662 . S
C662 C71 1.637 . S
C647 C17 1.735 . S
C712 C151 1.622 . S
C697 C36 1.726 . S
C762 C213 1.658 . S
C747 C9 1.731 . S
C797 C22 1.747 . S
C812 C89 1.646 . S
