# Generated by pormake.
# Topology anh, (6,3)-cn, num edge types: 1
# Building blocks:
#     Node 0, Type 0, BuildingBlock: HISSIN_clean_sbu_0, # of connection points: 6
#     Node 1, Type 0, BuildingBlock: HISSIN_clean_sbu_0, # of connection points: 6
#     Node 2, Type 0, BuildingBlock: HISSIN_clean_sbu_0, # of connection points: 6
#     Node 3, Type 1, BuildingBlock: PAMTOO_clean_linker_0, # of connection points: 3
#     Node 4, Type 1, BuildingBlock: PAMTOO_clean_linker_0, # of connection points: 3
#     Node 5, Type 1, BuildingBlock: PAMTOO_clean_linker_0, # of connection points: 3
#     Node 6, Type 1, BuildingBlock: PAMTOO_clean_linker_0, # of connection points: 3
#     Node 7, Type 1, BuildingBlock: PAMTOO_clean_linker_0, # of connection points: 3
#     Node 8, Type 1, BuildingBlock: PAMTOO_clean_linker_0, # of connection points: 3
#     Edge 9, Type (0, 1), BuildingBlock: OJICUG_clean_linker_0, # of connection points: 2
#     Edge 10, Type (0, 1), BuildingBlock: OJICUG_clean_linker_0, # of connection points: 2
#     Edge 11, Type (0, 1), BuildingBlock: OJICUG_clean_linker_0, # of connection points: 2
#     Edge 12, Type (0, 1), BuildingBlock: OJICUG_clean_linker_0, # of connection points: 2
#     Edge 13, Type (0, 1), BuildingBlock: OJICUG_clean_linker_0, # of connection points: 2
#     Edge 14, Type (0, 1), BuildingBlock: OJICUG_clean_linker_0, # of connection points: 2
#     Edge 15, Type (0, 1), BuildingBlock: OJICUG_clean_linker_0, # of connection points: 2
#     Edge 16, Type (0, 1), BuildingBlock: OJICUG_clean_linker_0, # of connection points: 2
#     Edge 17, Type (0, 1), BuildingBlock: OJICUG_clean_linker_0, # of connection points: 2
#     Edge 18, Type (0, 1), BuildingBlock: OJICUG_clean_linker_0, # of connection points: 2
#     Edge 19, Type (0, 1), BuildingBlock: OJICUG_clean_linker_0, # of connection points: 2
#     Edge 20, Type (0, 1), BuildingBlock: OJICUG_clean_linker_0, # of connection points: 2
#     Edge 21, Type (0, 1), BuildingBlock: OJICUG_clean_linker_0, # of connection points: 2
#     Edge 22, Type (0, 1), BuildingBlock: OJICUG_clean_linker_0, # of connection points: 2
#     Edge 23, Type (0, 1), BuildingBlock: OJICUG_clean_linker_0, # of connection points: 2
#     Edge 24, Type (0, 1), BuildingBlock: OJICUG_clean_linker_0, # of connection points: 2
#     Edge 25, Type (0, 1), BuildingBlock: OJICUG_clean_linker_0, # of connection points: 2
#     Edge 26, Type (0, 1), BuildingBlock: OJICUG_clean_linker_0, # of connection points: 2
# Relax obj value: 0.377
# Max RMSD: 0.161
# Mean RMSD: 0.125
data_MOF--net-anh--node1-HISSIN_clean_sbu_0--node2-PAMTOO_clean_linker_0--edge1-OJICUG_clean_linker_0
_symmetry_space_group_name_H-M    P1
_symmetry_Int_Tables_number       1
_symmetry_cell_setting            triclinic
loop_
_symmetry_equiv_pos_as_xyz
'x, y, z'
_cell_length_a     21.226889
_cell_length_b     21.359812
_cell_length_c     36.383444
_cell_angle_alpha  88.610215
_cell_angle_beta   93.154764
_cell_angle_gamma 120.19314
loop_
_atom_site_label
_atom_site_type_symbol
_atom_site_fract_x
_atom_site_fract_y
_atom_site_fract_z
_atom_type_partial_charge
Eu0 Eu 0.27482 0.56236 0.13781 0.0
Eu1 Eu 0.35114 0.72592 0.17219 0.0
C2 C 0.27222 0.59276 0.22319 0.0
C3 C 1.11531 0.38745 0.11414 0.0
C4 C 1.08296 0.33339 0.14083 0.0
C5 C 1.00136 0.38862 0.10489 0.0
C6 C 1.01212 0.3106 0.15105 0.0
C7 C 1.072 0.4111 0.09454 0.0
C8 C 0.97248 0.34158 0.13478 0.0
C9 C 1.19591 0.43072 0.11342 0.0
O10 O 0.44478 0.70863 0.1585 0.0
O11 O 0.38926 0.58479 0.1536 0.0
C12 C 0.44859 0.64923 0.15529 0.0
O13 O 0.34382 0.63923 0.09372 0.0
O14 O 0.44591 0.83411 0.17813 0.0
O15 O 0.35173 0.80381 0.21026 0.0
O16 O 0.3403 0.73951 0.1116 0.0
C17 C 0.35407 0.70451 0.08716 0.0
O18 O 1.19442 0.59932 0.12258 0.0
O19 O 0.2312 0.69447 0.16243 0.0
O20 O 0.3358 0.65009 0.21864 0.0
O21 O 1.22213 0.48703 0.09178 0.0
O22 O 0.23061 0.44614 0.14572 0.0
O23 O 0.2313 0.55655 0.19434 0.0
C24 C 0.42423 0.92791 0.19328 0.0
C25 C 0.3644 0.93926 0.18985 0.0
C26 C 0.506 1.05604 0.18304 0.0
C27 C 0.37558 1.0089 0.18327 0.0
C28 C 0.49493 0.98688 0.18992 0.0
C29 C 0.44651 1.06775 0.17963 0.0
C30 C 0.41539 0.85595 0.20076 0.0
C31 C 1.18234 0.64627 0.13882 0.0
H32 H 1.1146 0.31352 0.15609 0.0
H33 H 0.97219 0.41314 0.09158 0.0
H34 H 0.99034 0.27248 0.17348 0.0
H35 H 1.09466 0.45201 0.07339 0.0
H36 H 0.30923 0.89464 0.19234 0.0
H37 H 0.56137 1.10074 0.18118 0.0
H38 H 0.32892 1.01674 0.18085 0.0
H39 H 0.54186 0.97947 0.1928 0.0
Eu40 Eu 0.69907 1.05187 0.44732 0.0
Eu41 Eu 0.63955 1.15022 0.48245 0.0
C42 C 0.72127 1.08964 0.53312 0.0
C43 C 0.80365 0.95294 0.43109 0.0
C44 C 0.78689 0.88093 0.42794 0.0
C45 C 0.92262 0.98451 0.45893 0.0
C46 C 0.83661 0.86023 0.44124 0.0
C47 C 0.87252 1.00506 0.44588 0.0
C48 C 0.90431 0.91141 0.45785 0.0
C49 C 0.74681 0.9712 0.42117 0.0
O50 O 0.74815 0.23138 0.45884 0.0
O51 O 0.80147 0.16097 0.45771 0.0
C52 C 0.80613 0.22483 0.45565 0.0
O53 O 0.67224 1.10302 0.39843 0.0
O54 O 0.61647 0.18922 0.5322 0.0
O55 O 0.59789 0.22514 0.47885 0.0
O56 O 0.5975 1.13773 0.42372 0.0
C57 C 0.62671 1.12787 0.39522 0.0
O58 O 0.5763 0.98602 0.44049 0.0
O59 O 0.54911 1.03265 0.48908 0.0
O60 O 0.72303 1.14937 0.52272 0.0
O61 O 0.69336 0.94729 0.44339 0.0
O62 O 0.76853 1.03741 0.41056 0.0
O63 O 0.69917 1.03629 0.50949 0.0
C64 C 0.66694 0.31487 0.52396 0.0
C65 C 0.70646 0.3635 0.49608 0.0
C66 C 0.76304 0.39229 0.56865 0.0
C67 C 0.77573 0.42241 0.50398 0.0
C68 C 0.69383 0.33247 0.56062 0.0
C69 C 0.80711 0.43493 0.54007 0.0
C70 C 0.61053 0.23964 0.51402 0.0
C71 C 0.53051 0.98012 0.46504 0.0
H72 H 0.73396 0.84001 0.41661 0.0
H73 H 0.97457 1.02537 0.47117 0.0
H74 H 0.81996 0.8033 0.44049 0.0
H75 H 0.88669 1.06112 0.44853 0.0
H76 H 0.6873 0.35249 0.46747 0.0
H77 H 0.78331 0.40237 0.59709 0.0
H78 H 0.80656 0.45365 0.48096 0.0
H79 H 0.66411 0.29664 0.58278 0.0
Eu80 Eu 0.6924 0.56454 0.80148 0.0
Eu81 Eu 0.86673 0.67026 0.79559 0.0
C82 C 0.80216 0.62632 0.87481 0.0
C83 C 0.52804 0.54161 0.83357 0.0
C84 C 0.55166 0.55618 0.87091 0.0
C85 C 0.5177 0.65 0.83169 0.0
C86 C 0.56643 0.62114 0.88691 0.0
C87 C 0.50436 0.58551 0.81538 0.0
C88 C 0.55503 0.67156 0.86639 0.0
C89 C 0.55479 0.50294 0.81152 0.0
O90 O 0.84923 0.55597 0.78954 0.0
O91 O 0.72972 0.48237 0.80489 0.0
C92 C 0.79311 0.49113 0.79627 0.0
O93 O 0.72193 0.5508 0.7444 0.0
O94 O 0.9753 0.76062 0.80925 0.0
O95 O 0.9538 0.70268 0.7576 0.0
O96 O 0.8017 0.66984 0.74514 0.0
C97 C 0.76342 0.6101 0.72648 0.0
O98 O 0.7091 0.67685 0.78836 0.0
O99 O 0.82827 0.7489 0.80822 0.0
O100 O 0.85812 0.64018 0.85543 0.0
O101 O 0.5822 0.5342 0.7804 0.0
O102 O 0.59681 0.48294 0.82953 0.0
O103 O 0.73843 0.60957 0.85882 0.0
C104 C 1.07354 0.75842 0.78363 0.0
C105 C 1.13088 0.809 0.76283 0.0
C106 C 1.15627 0.72786 0.81679 0.0
C107 C 1.20131 0.82065 0.76972 0.0
C108 C 1.0859 0.71617 0.80979 0.0
C109 C 1.21516 0.78188 0.79764 0.0
C110 C 1.00253 0.75379 0.77928 0.0
C111 C 0.76471 0.74128 0.79723 0.0
H112 H 0.56855 0.52264 0.88634 0.0
H113 H 0.50437 0.68563 0.81576 0.0
H114 H 0.59393 0.63447 0.91392 0.0
H115 H 0.48422 0.57496 0.78689 0.0
H116 H 1.1217 0.84146 0.74223 0.0
H117 H 1.16511 0.69775 0.83885 0.0
H118 H 0.24539 0.86202 0.7543 0.0
H119 H 1.04183 0.67655 0.82589 0.0
H120 H 0.72727 0.24426 0.24513 0.0
H121 H 0.56694 0.30687 0.26126 0.0
H122 H 0.71183 0.39832 0.17259 0.0
H123 H 0.56841 0.40031 0.1518 0.0
C124 C 0.54573 0.3717 0.17794 0.0
O125 O 0.60214 0.39437 0.20481 0.0
H126 H 0.50669 0.38825 0.18639 0.0
C127 C 0.7007 0.2747 0.23676 0.0
C128 C 0.72608 0.32122 0.20646 0.0
C129 C 0.64364 0.26888 0.25706 0.0
C130 C 0.61137 0.31051 0.24629 0.0
C131 C 0.63556 0.35654 0.21569 0.0
C132 C 0.69299 0.36204 0.19591 0.0
H133 H 0.89596 0.73508 0.57014 0.0
H134 H 1.00538 0.64113 0.6335 0.0
H135 H 1.11075 0.78482 0.54397 0.0
H136 H 1.14585 0.61634 0.58402 0.0
C137 C 1.1158 0.64004 0.56902 0.0
O138 O 1.11634 0.69236 0.59125 0.0
H139 H 1.14587 0.66636 0.54394 0.0
C140 C 0.9431 0.72894 0.57634 0.0
C141 C 1.00407 0.76684 0.55503 0.0
C142 C 0.94278 0.68463 0.60553 0.0
C143 C 1.00381 0.67555 0.61156 0.0
C144 C 1.06349 0.71038 0.58889 0.0
C145 C 1.0645 0.75772 0.56128 0.0
H146 H 0.3861 0.78843 0.92262 0.0
H147 H 0.59227 0.93089 0.97846 0.0
H148 H 0.56214 0.95379 0.86217 0.0
H149 H 0.74022 0.98114 0.94073 0.0
C150 C 0.7089 0.97327 0.91408 0.0
O151 O 0.65769 0.99477 0.91818 0.0
H152 H 0.74837 1.0094 0.89376 0.0
C153 C 0.44206 0.83257 0.92177 0.0
C154 C 0.46852 0.86866 0.88855 0.0
C155 C 0.48567 0.85526 0.95438 0.0
C156 C 0.55706 0.91425 0.95364 0.0
C157 C 0.5852 0.94802 0.92016 0.0
C158 C 0.54027 0.92682 0.88787 0.0
H159 H 1.06741 0.44749 0.3632 0.0
H160 H 0.26561 0.64684 0.3908 0.0
H161 H 1.10918 0.53798 0.47264 0.0
H162 H 1.20779 0.71762 0.48424 0.0
C163 C 0.23887 0.71975 0.46019 0.0
O164 O 0.237 0.65392 0.45786 0.0
H165 H 1.21132 0.72861 0.43534 0.0
C166 C 1.10269 0.48918 0.38297 0.0
C167 C 1.08073 0.48352 0.41951 0.0
C168 C 1.16836 0.5491 0.37165 0.0
C169 C 1.21309 0.60246 0.39797 0.0
C170 C 1.19151 0.6001 0.43378 0.0
C171 C 1.12499 0.54067 0.44458 0.0
H172 H 0.7546 0.96356 0.69288 0.0
H173 H 0.75679 0.16579 0.70101 0.0
H174 H 0.76573 1.0545 0.79914 0.0
H175 H 0.87025 0.2468 0.76387 0.0
C176 C 0.82611 0.23472 0.78287 0.0
O177 O 0.76328 0.17071 0.77215 0.0
H178 H 0.84509 0.22728 0.81082 0.0
C179 C 0.75593 1.0059 0.70928 0.0
C180 C 0.7589 1.0006 0.74801 0.0
C181 C 0.75632 1.0656 0.69163 0.0
C182 C 0.75921 1.12056 0.71362 0.0
C183 C 0.76354 1.11757 0.75215 0.0
C184 C 0.76384 1.05762 0.76937 0.0
H185 H 0.94105 0.64079 0.03509 0.0
H186 H 0.73846 0.63809 0.04614 0.0
H187 H 0.86379 0.63634 0.14256 0.0
H188 H 0.76921 0.73672 0.11576 0.0
C189 C 0.73883 0.68759 0.13298 0.0
O190 O 0.74011 0.62942 0.11756 0.0
H191 H 0.76732 0.69898 0.16063 0.0
C192 C 0.90089 0.64101 0.05211 0.0
C193 C 0.91142 0.64045 0.09069 0.0
C194 C 0.83911 0.64038 0.03527 0.0
C195 C 0.78655 0.63855 0.05808 0.0
C196 C 0.79486 0.63682 0.0966 0.0
C197 C 0.85781 0.63855 0.11287 0.0
C198 C 0.58383 0.72603 0.14685 0.0
C199 C 0.52202 0.65677 0.15042 0.0
H200 H 0.69842 0.78889 0.13826 0.0
C201 C 0.53139 0.59613 0.14769 0.0
H202 H 0.57954 0.77426 0.1487 0.0
C203 C 0.60053 0.60481 0.14158 0.0
C204 C 0.66176 0.67435 0.13728 0.0
H205 H 0.48538 0.54188 0.15035 0.0
H206 H 0.60597 0.55717 0.14027 0.0
C207 C 0.65228 0.73455 0.14051 0.0
C208 C 0.89312 0.36048 0.4587 0.0
C209 C 0.87806 0.2909 0.44846 0.0
H210 H 0.96867 0.4754 0.45843 0.0
C211 C 0.93172 0.28535 0.43012 0.0
H212 H 0.85348 0.36668 0.47315 0.0
C213 C 0.99726 0.34759 0.42118 0.0
C214 C 1.01198 0.41733 0.43094 0.0
H215 H 0.9223 0.23288 0.42176 0.0
H216 H 1.03665 0.3411 0.40649 0.0
C217 C 0.95943 0.42279 0.45045 0.0
C218 C 0.8116 0.87647 0.80251 0.0
C219 C 0.75859 0.80731 0.78902 0.0
H220 H 0.85252 0.99157 0.80094 0.0
C221 C 0.70237 0.80254 0.7647 0.0
H222 H 0.85564 0.88244 0.82131 0.0
C223 C 0.70124 0.86496 0.75275 0.0
C224 C 0.75562 0.93429 0.76508 0.0
H225 H 0.66046 0.75061 0.75366 0.0
H226 H 0.65844 0.85911 0.73304 0.0
C227 C 0.80971 0.9391 0.79096 0.0
C228 C 1.06196 0.59313 0.10268 0.0
C229 C 1.11133 0.64381 0.12901 0.0
H230 H 0.96092 0.5513 0.07099 0.0
C231 C 1.09152 0.6907 0.14489 0.0
H232 H 1.07427 0.5557 0.08977 0.0
C233 C 1.0252 0.68797 0.13387 0.0
C234 C 0.97747 0.63868 0.10655 0.0
H235 H 1.12766 0.7302 0.16538 0.0
H236 H 1.0125 0.72607 0.14576 0.0
C237 C 0.99647 0.59058 0.09173 0.0
C238 C 0.40516 0.90242 0.49069 0.0
C239 C 0.45693 0.9126 0.46511 0.0
H240 H 0.29693 0.83395 0.50943 0.0
C241 C 0.43765 0.85702 0.43917 0.0
H242 H 0.41767 0.94368 0.51108 0.0
C243 C 0.36863 0.79399 0.4384 0.0
C244 C 0.31675 0.78395 0.46376 0.0
H245 H 0.47565 0.86242 0.41895 0.0
H246 H 0.35557 0.75367 0.41747 0.0
C247 C 0.33599 0.83915 0.4899 0.0
C248 C 0.86383 0.43069 0.77866 0.0
C249 C 0.80053 0.42516 0.79246 0.0
H250 H 0.92061 0.37582 0.76449 0.0
C251 C 0.74396 0.35555 0.80192 0.0
H252 H 0.90864 0.48288 0.77099 0.0
C253 C 0.75088 0.29378 0.79804 0.0
C254 C 0.81399 0.2995 0.78393 0.0
H255 H 0.69438 0.3487 0.81276 0.0
H256 H 0.70709 0.24157 0.80643 0.0
C257 C 0.87048 0.36899 0.7746 0.0
C258 C 0.97868 0.9145 0.51415 0.0
C259 C 0.9497 0.88642 0.47872 0.0
H260 H 1.02038 0.89816 0.56617 0.0
C261 C 0.95428 0.8269 0.46637 0.0
H262 H 0.97543 0.95962 0.52482 0.0
C263 C 0.98003 0.79163 0.49033 0.0
C264 C 1.0021 0.81598 0.52671 0.0
H265 H 0.93344 0.80468 0.43904 0.0
H266 H 0.97705 0.74211 0.48143 0.0
C267 C 1.00447 0.8794 0.53795 0.0
C268 C 0.3414 0.87883 0.81666 0.0
C269 C 0.29088 0.80477 0.81098 0.0
H270 H 0.43907 0.95733 0.84576 0.0
C271 C 0.30914 0.75329 0.82422 0.0
H272 H 0.32894 0.91991 0.80694 0.0
C273 C 0.37216 0.77493 0.84664 0.0
C274 C 0.41785 0.8483 0.85591 0.0
H275 H 0.27205 0.69598 0.81954 0.0
H276 H 0.38219 0.73392 0.85907 0.0
C277 C 0.40461 0.90045 0.83892 0.0
C278 C 0.42965 0.17071 0.19717 0.0
C279 C 0.45992 1.14217 0.17401 0.0
H280 H 0.43305 0.26667 0.21623 0.0
C281 C 0.50947 0.18752 0.1481 0.0
H282 H 0.39188 1.13698 0.2176 0.0
C283 C 0.5322 0.26114 0.14707 0.0
C284 C 0.50603 0.29066 0.17206 0.0
H285 H 0.53314 0.16661 0.12977 0.0
H286 H 0.57398 0.29592 0.12851 0.0
C287 C 0.45286 0.24462 0.19631 0.0
C288 C 0.92664 0.47451 0.57585 0.0
C289 C 0.88686 0.48671 0.54702 0.0
H290 H 1.02998 0.51319 0.60528 0.0
C291 C 0.92517 0.54612 0.52355 0.0
H292 H 0.90038 0.42843 0.59394 0.0
C293 C 1.00041 0.59149 0.5287 0.0
C294 C 1.0389 0.58081 0.55843 0.0
H295 H 0.8973 0.55899 0.50151 0.0
H296 H 1.02803 0.63762 0.5107 0.0
C297 C 1.00151 0.52177 0.58184 0.0
C298 C 0.62031 0.80522 0.85275 0.0
C299 C 0.59144 0.7487 0.87872 0.0
H300 H 0.68067 0.91988 0.84354 0.0
C301 C 0.60444 0.7669 0.91639 0.0
H302 H 0.61285 0.79393 0.82354 0.0
C303 C 0.64628 0.83912 0.92768 0.0
C304 C 0.67447 0.89506 0.90165 0.0
H305 H 0.58215 0.72552 0.93731 0.0
H306 H 0.65464 0.85159 0.95684 0.0
C307 C 0.66079 0.87752 0.8641 0.0
C308 C 0.9083 0.33784 0.19089 0.0
C309 C 0.90734 0.33364 0.15237 0.0
H310 H 0.85303 0.33925 0.23783 0.0
C311 C 0.84688 0.32787 0.13137 0.0
H312 H 0.95498 0.34492 0.20788 0.0
C313 C 0.78821 0.32519 0.14872 0.0
C314 C 0.78915 0.32825 0.18729 0.0
H315 H 0.84474 0.32494 0.10162 0.0
H316 H 0.74163 0.31937 0.13208 0.0
C317 C 0.85008 0.33523 0.20809 0.0
C318 C 0.38901 0.70418 0.02257 0.0
C319 C 0.38786 0.74253 0.05307 0.0
H320 H 0.4214 0.7104 0.96717 0.0
C321 C 0.42184 0.81852 0.05134 0.0
H322 H 0.36371 0.64572 0.02321 0.0
C323 C 0.45583 0.8554 0.01965 0.0
C324 C 0.45546 0.81691 -0.01105 0.0
H325 H 0.42272 0.84974 0.07459 0.0
H326 H 0.48082 0.91383 0.01881 0.0
C327 C 0.42203 0.74106 -0.00937 0.0
C328 C 0.60508 0.2143 0.3568 0.0
C329 C 0.61544 0.15426 0.35897 0.0
H330 H 0.60707 0.29852 0.32301 0.0
C331 C 0.62367 1.12567 0.32648 0.0
H332 H 0.59883 0.23767 0.38147 0.0
C333 C 0.62626 0.15933 0.29274 0.0
C334 C 0.62313 0.22371 0.29097 0.0
H335 H 0.63066 1.07878 0.32731 0.0
H336 H 0.63424 1.13677 0.26827 0.0
C337 C 0.60948 0.24907 0.32318 0.0
C338 C 0.79988 0.67237 0.66758 0.0
C339 C 0.78476 0.61119 0.68871 0.0
H340 H 0.86338 0.74517 0.62639 0.0
C341 C 0.81219 0.56679 0.67856 0.0
H342 H 0.78017 0.70798 0.67531 0.0
C343 C 0.86015 0.5877 0.64975 0.0
C344 C 0.88159 0.65355 0.63109 0.0
H345 H 0.80225 0.51996 0.69497 0.0
H346 H 0.88328 0.55435 0.64349 0.0
C347 C 0.84812 0.69373 0.63942 0.0
C348 C 0.78011 1.14368 0.59458 0.0
C349 C 0.73744 1.08165 0.57267 0.0
H350 H 0.82182 0.18736 0.64844 0.0
C351 C 0.70474 1.01352 0.58976 0.0
H352 H 0.80654 0.19703 0.58225 0.0
C353 C 0.71171 1.00795 0.62816 0.0
C354 C 0.75251 1.07037 0.65036 0.0
H355 H 0.67088 0.96475 0.5737 0.0
H356 H 0.68271 0.95478 0.64046 0.0
C357 C 0.78814 1.13811 0.63274 0.0
C358 C 0.88105 0.6702 0.93325 0.0
C359 C 0.81129 0.63149 0.91571 0.0
H360 H 0.94445 0.70644 0.98396 0.0
C361 C 0.75035 0.5978 0.93768 0.0
H362 H 0.92914 0.69774 0.91722 0.0
C363 C 0.75912 0.60109 0.97623 0.0
C364 C 0.82907 0.63931 -0.00603 0.0
H365 H 0.69576 0.56738 0.9251 0.0
H366 H 0.7109 0.57207 -0.00798 0.0
C367 C 0.88976 0.67472 0.97174 0.0
C368 C 0.25846 0.63822 0.28259 0.0
C369 C 0.24251 0.57892 0.26029 0.0
H370 H 0.24422 0.67565 0.33333 0.0
C371 C 1.19843 0.50862 0.27381 0.0
H372 H 0.29069 0.69309 0.27258 0.0
C373 C 1.17368 0.49819 0.30981 0.0
C374 C 1.19098 0.55797 0.33255 0.0
H375 H 1.18494 0.46193 0.25701 0.0
H376 H 1.14248 0.44339 0.31995 0.0
C377 C 0.2321 0.62798 0.31778 0.0
loop_
_geom_bond_atom_site_label_1
_geom_bond_atom_site_label_2
_geom_bond_distance
_geom_bond_site_symmetry_2
_ccdc_geom_bond_type
Eu0 C9 2.828 . S
Eu0 O11 2.392 1_655 S
Eu0 O13 2.418 . S
Eu0 O18 2.373 . S
Eu0 O21 2.488 . S
Eu0 O22 2.471 . S
Eu0 O23 2.349 . S
Eu1 O10 2.373 . S
Eu1 O14 2.488 . S
Eu1 O15 2.471 . S
Eu1 O16 2.349 . S
Eu1 O19 2.392 1_455 S
Eu1 O20 2.418 . S
Eu1 C30 2.828 . S
C2 O20 1.244 . S
C2 O23 1.265 1_455 S
C3 C4 1.379 . S
C3 C7 1.373 . S
C3 C9 1.505 . S
C4 C3 1.379 . S
C4 C6 1.369 . S
C4 H32 0.930 . S
C5 C7 1.383 . S
C5 C8 1.382 . S
C5 H33 0.930 . S
C6 C4 1.369 . S
C6 C8 1.392 . S
C6 H34 0.930 . S
C7 C3 1.373 . S
C7 C5 1.383 . S
C7 H35 0.931 . S
C8 C5 1.382 . S
C8 C6 1.392 . S
C9 Eu0 2.828 . S
C9 C3 1.505 . S
C9 O21 1.249 . S
C9 O22 1.244 . S
O10 Eu1 2.373 . S
O10 C12 1.258 . S
O11 Eu0 2.392 1_455 S
O11 C12 1.242 . S
C12 O10 1.258 . S
C12 O11 1.242 . S
O13 Eu0 2.418 . S
O13 C17 1.244 1_655 S
O14 Eu1 2.488 . S
O14 C30 1.249 . S
O15 Eu1 2.471 . S
O15 C30 1.244 . S
O16 Eu1 2.349 . S
O16 C17 1.265 . S
C17 O13 1.244 1_455 S
C17 O16 1.265 . S
O18 Eu0 2.373 . S
O18 C31 1.258 . S
O19 Eu1 2.392 1_655 S
O19 C31 1.242 . S
O20 Eu1 2.418 . S
O20 C2 1.244 . S
O21 Eu0 2.488 . S
O21 C9 1.249 . S
O22 Eu0 2.471 . S
O22 C9 1.244 . S
O23 Eu0 2.349 . S
O23 C2 1.265 1_655 S
C24 C25 1.379 . S
C24 C28 1.373 . S
C24 C30 1.505 . S
C25 C24 1.379 . S
C25 C27 1.369 . S
C25 H36 0.930 . S
C26 C28 1.383 . S
C26 C29 1.382 . S
C26 H37 0.930 . S
C27 C25 1.369 . S
C27 C29 1.392 . S
C27 H38 0.930 . S
C28 C24 1.373 . S
C28 C26 1.383 . S
C28 H39 0.931 . S
C29 C26 1.382 . S
C29 C27 1.392 . S
C30 Eu1 2.828 . S
C30 O14 1.249 . S
C30 O15 1.244 . S
C30 C24 1.505 . S
C31 O18 1.258 . S
C31 O19 1.242 . S
H32 C4 0.930 . S
H33 C5 0.930 . S
H34 C6 0.930 . S
H35 C7 0.931 . S
H36 C25 0.930 . S
H37 C26 0.930 . S
H38 C27 0.930 . S
H39 C28 0.931 . S
Eu40 C49 2.828 . S
Eu40 O51 2.392 1_565 S
Eu40 O53 2.418 . S
Eu40 O58 2.373 . S
Eu40 O61 2.488 . S
Eu40 O62 2.471 . S
Eu40 O63 2.349 1_565 S
Eu41 O50 2.373 . S
Eu41 O54 2.488 . S
Eu41 O55 2.471 . S
Eu41 O56 2.349 . S
Eu41 O59 2.392 1_545 S
Eu41 O60 2.418 . S
Eu41 C70 2.828 . S
C42 O60 1.244 . S
C42 O63 1.265 . S
C43 C44 1.379 . S
C43 C47 1.373 . S
C43 C49 1.505 . S
C44 C43 1.379 . S
C44 C46 1.369 . S
C44 H72 0.930 . S
C45 C47 1.383 . S
C45 C48 1.382 . S
C45 H73 0.930 . S
C46 C44 1.369 . S
C46 C48 1.392 . S
C46 H74 0.930 . S
C47 C43 1.373 . S
C47 C45 1.383 . S
C47 H75 0.931 . S
C48 C45 1.382 . S
C48 C46 1.392 . S
C49 Eu40 2.828 . S
C49 C43 1.505 . S
C49 O61 1.249 . S
C49 O62 1.244 . S
O50 Eu41 2.373 . S
O50 C52 1.258 . S
O51 Eu40 2.392 1_545 S
O51 C52 1.242 . S
C52 O50 1.258 . S
C52 O51 1.242 . S
O53 Eu40 2.418 . S
O53 C57 1.244 1_565 S
O54 Eu41 2.488 . S
O54 C70 1.249 . S
O55 Eu41 2.471 . S
O55 C70 1.244 . S
O56 Eu41 2.349 . S
O56 C57 1.265 . S
C57 O53 1.244 1_545 S
C57 O56 1.265 . S
O58 Eu40 2.373 . S
O58 C71 1.258 . S
O59 Eu41 2.392 1_565 S
O59 C71 1.242 . S
O60 Eu41 2.418 . S
O60 C42 1.244 . S
O61 Eu40 2.488 . S
O61 C49 1.249 . S
O62 Eu40 2.471 . S
O62 C49 1.244 . S
O63 Eu40 2.349 1_545 S
O63 C42 1.265 . S
C64 C65 1.379 . S
C64 C68 1.373 . S
C64 C70 1.505 . S
C65 C64 1.379 . S
C65 C67 1.369 . S
C65 H76 0.930 . S
C66 C68 1.383 . S
C66 C69 1.382 . S
C66 H77 0.930 . S
C67 C65 1.369 . S
C67 C69 1.392 . S
C67 H78 0.930 . S
C68 C64 1.373 . S
C68 C66 1.383 . S
C68 H79 0.931 . S
C69 C66 1.382 . S
C69 C67 1.392 . S
C70 Eu41 2.828 . S
C70 O54 1.249 . S
C70 O55 1.244 . S
C70 C64 1.505 . S
C71 O58 1.258 . S
C71 O59 1.242 . S
H72 C44 0.930 . S
H73 C45 0.930 . S
H74 C46 0.930 . S
H75 C47 0.931 . S
H76 C65 0.930 . S
H77 C66 0.930 . S
H78 C67 0.930 . S
H79 C68 0.931 . S
Eu80 C89 2.828 . S
Eu80 O91 2.392 . S
Eu80 O93 2.418 . S
Eu80 O98 2.373 . S
Eu80 O101 2.488 . S
Eu80 O102 2.471 . S
Eu80 O103 2.349 . S
Eu81 O90 2.373 . S
Eu81 O94 2.488 . S
Eu81 O95 2.471 . S
Eu81 O96 2.349 . S
Eu81 O99 2.392 . S
Eu81 O100 2.418 . S
Eu81 C110 2.828 . S
C82 O100 1.244 . S
C82 O103 1.265 . S
C83 C84 1.379 . S
C83 C87 1.373 . S
C83 C89 1.505 . S
C84 C83 1.379 . S
C84 C86 1.369 . S
C84 H112 0.930 . S
C85 C87 1.383 . S
C85 C88 1.382 . S
C85 H113 0.930 . S
C86 C84 1.369 . S
C86 C88 1.392 . S
C86 H114 0.930 . S
C87 C83 1.373 . S
C87 C85 1.383 . S
C87 H115 0.931 . S
C88 C85 1.382 . S
C88 C86 1.392 . S
C89 Eu80 2.828 . S
C89 C83 1.505 . S
C89 O101 1.249 . S
C89 O102 1.244 . S
O90 Eu81 2.373 . S
O90 C92 1.258 . S
O91 Eu80 2.392 . S
O91 C92 1.242 . S
C92 O90 1.258 . S
C92 O91 1.242 . S
O93 Eu80 2.418 . S
O93 C97 1.244 . S
O94 Eu81 2.488 . S
O94 C110 1.249 . S
O95 Eu81 2.471 . S
O95 C110 1.244 . S
O96 Eu81 2.349 . S
O96 C97 1.265 . S
C97 O93 1.244 . S
C97 O96 1.265 . S
O98 Eu80 2.373 . S
O98 C111 1.258 . S
O99 Eu81 2.392 . S
O99 C111 1.242 . S
O100 Eu81 2.418 . S
O100 C82 1.244 . S
O101 Eu80 2.488 . S
O101 C89 1.249 . S
O102 Eu80 2.471 . S
O102 C89 1.244 . S
O103 Eu80 2.349 . S
O103 C82 1.265 . S
C104 C105 1.379 . S
C104 C108 1.373 . S
C104 C110 1.505 . S
C105 C104 1.379 . S
C105 C107 1.369 . S
C105 H116 0.930 . S
C106 C108 1.383 . S
C106 C109 1.382 . S
C106 H117 0.930 . S
C107 C105 1.369 . S
C107 C109 1.392 . S
C107 H118 0.930 . S
C108 C104 1.373 . S
C108 C106 1.383 . S
C108 H119 0.931 . S
C109 C106 1.382 . S
C109 C107 1.392 . S
C110 Eu81 2.828 . S
C110 O94 1.249 . S
C110 O95 1.244 . S
C110 C104 1.505 . S
C111 O98 1.258 . S
C111 O99 1.242 . S
H112 C84 0.930 . S
H113 C85 0.930 . S
H114 C86 0.930 . S
H115 C87 0.931 . S
H116 C105 0.930 . S
H117 C106 0.930 . S
H118 C107 0.930 . S
H119 C108 0.931 . S
H120 C127 0.929 . S
H121 C130 0.930 1_565 S
H122 C132 0.929 . S
H123 C124 0.969 . S
C124 H123 0.969 . S
C124 O125 1.550 . S
C124 H126 0.973 . S
O125 C124 1.550 . S
O125 C131 1.412 1_565 S
H126 C124 0.973 . S
C127 H120 0.929 . S
C127 C128 1.400 . S
C127 C129 1.364 . S
C128 C127 1.400 . S
C128 C132 1.377 . S
C129 C127 1.364 . S
C129 C130 1.374 . S
C130 H121 0.930 1_545 S
C130 C129 1.374 . S
C130 C131 1.383 . S
C131 O125 1.412 1_545 S
C131 C130 1.383 . S
C131 C132 1.394 . S
C132 H122 0.929 . S
C132 C128 1.377 . S
C132 C131 1.394 . S
H133 C140 0.929 . S
H134 C143 0.930 . S
H135 C145 0.929 . S
H136 C137 0.969 . S
C137 H136 0.969 . S
C137 O138 1.550 . S
C137 H139 0.973 . S
O138 C137 1.550 . S
O138 C144 1.412 . S
H139 C137 0.973 . S
C140 H133 0.929 . S
C140 C141 1.400 . S
C140 C142 1.364 . S
C141 C140 1.400 . S
C141 C145 1.377 . S
C142 C140 1.364 . S
C142 C143 1.374 . S
C143 H134 0.930 . S
C143 C142 1.374 . S
C143 C144 1.383 . S
C144 O138 1.412 . S
C144 C143 1.383 . S
C144 C145 1.394 . S
C145 H135 0.929 . S
C145 C141 1.377 . S
C145 C144 1.394 . S
H146 C153 0.929 1_655 S
H147 C156 0.930 . S
H148 C158 0.929 . S
H149 C150 0.969 . S
C150 H149 0.969 . S
C150 O151 1.550 . S
C150 H152 0.973 . S
O151 C150 1.550 . S
O151 C157 1.412 . S
H152 C150 0.973 . S
C153 H146 0.929 1_455 S
C153 C154 1.400 . S
C153 C155 1.364 . S
C154 C153 1.400 . S
C154 C158 1.377 . S
C155 C153 1.364 . S
C155 C156 1.374 . S
C156 H147 0.930 . S
C156 C155 1.374 . S
C156 C157 1.383 . S
C157 O151 1.412 . S
C157 C156 1.383 . S
C157 C158 1.394 . S
C158 H148 0.929 . S
C158 C154 1.377 . S
C158 C157 1.394 . S
H159 C166 0.929 1_655 S
H160 C169 0.930 . S
H161 C171 0.929 . S
H162 C163 0.969 . S
C163 H162 0.969 . S
C163 O164 1.550 . S
C163 H165 0.973 . S
O164 C163 1.550 . S
O164 C170 1.412 . S
H165 C163 0.973 . S
C166 H159 0.929 1_455 S
C166 C167 1.400 . S
C166 C168 1.364 . S
C167 C166 1.400 . S
C167 C171 1.377 . S
C168 C166 1.364 . S
C168 C169 1.374 . S
C169 H160 0.930 . S
C169 C168 1.374 . S
C169 C170 1.383 . S
C170 O164 1.412 . S
C170 C169 1.383 . S
C170 C171 1.394 . S
C171 H161 0.929 . S
C171 C167 1.377 . S
C171 C170 1.394 . S
H172 C179 0.929 . S
H173 C182 0.930 . S
H174 C184 0.929 . S
H175 C176 0.969 . S
C176 H175 0.969 . S
C176 O177 1.550 . S
C176 H178 0.973 . S
O177 C176 1.550 . S
O177 C183 1.412 . S
H178 C176 0.973 . S
C179 H172 0.929 . S
C179 C180 1.400 . S
C179 C181 1.364 1_565 S
C180 C179 1.400 . S
C180 C184 1.377 1_565 S
C181 C179 1.364 1_545 S
C181 C182 1.374 . S
C182 H173 0.930 . S
C182 C181 1.374 . S
C182 C183 1.383 . S
C183 O177 1.412 . S
C183 C182 1.383 . S
C183 C184 1.394 . S
C184 H174 0.929 . S
C184 C180 1.377 1_545 S
C184 C183 1.394 . S
H185 C192 0.929 . S
H186 C195 0.930 . S
H187 C197 0.929 . S
H188 C189 0.969 . S
C189 H188 0.969 . S
C189 O190 1.550 . S
C189 H191 0.973 . S
O190 C189 1.550 . S
O190 C196 1.412 . S
H191 C189 0.973 . S
C192 H185 0.929 . S
C192 C193 1.400 . S
C192 C194 1.364 . S
C193 C192 1.400 . S
C193 C197 1.377 . S
C194 C192 1.364 . S
C194 C195 1.374 . S
C195 H186 0.930 . S
C195 C194 1.374 . S
C195 C196 1.383 . S
C196 O190 1.412 . S
C196 C195 1.383 . S
C196 C197 1.394 . S
C197 H187 0.929 . S
C197 C193 1.377 . S
C197 C196 1.394 . S
C198 C199 1.387 . S
C198 H202 0.950 . S
C198 C207 1.390 . S
C199 C198 1.387 . S
C199 C201 1.387 . S
H200 C207 0.950 . S
C201 C199 1.387 . S
C201 C203 1.390 . S
C201 H205 0.950 . S
H202 C198 0.950 . S
C203 C201 1.390 . S
C203 C204 1.387 . S
C203 H206 0.950 . S
C204 C203 1.387 . S
C204 C207 1.387 . S
H205 C201 0.950 . S
H206 C203 0.950 . S
C207 C198 1.390 . S
C207 H200 0.950 . S
C207 C204 1.387 . S
C208 C209 1.387 . S
C208 H212 0.950 . S
C208 C217 1.390 . S
C209 C208 1.387 . S
C209 C211 1.387 . S
H210 C217 0.950 . S
C211 C209 1.387 . S
C211 C213 1.390 . S
C211 H215 0.950 . S
H212 C208 0.950 . S
C213 C211 1.390 . S
C213 C214 1.387 . S
C213 H216 0.950 . S
C214 C213 1.387 . S
C214 C217 1.387 . S
H215 C211 0.950 . S
H216 C213 0.950 . S
C217 C208 1.390 . S
C217 H210 0.950 . S
C217 C214 1.387 . S
C218 C219 1.387 . S
C218 H222 0.950 . S
C218 C227 1.390 . S
C219 C218 1.387 . S
C219 C221 1.387 . S
H220 C227 0.950 . S
C221 C219 1.387 . S
C221 C223 1.390 . S
C221 H225 0.950 . S
H222 C218 0.950 . S
C223 C221 1.390 . S
C223 C224 1.387 . S
C223 H226 0.950 . S
C224 C223 1.387 . S
C224 C227 1.387 . S
H225 C221 0.950 . S
H226 C223 0.950 . S
C227 C218 1.390 . S
C227 H220 0.950 . S
C227 C224 1.387 . S
C228 C229 1.387 . S
C228 H232 0.950 . S
C228 C237 1.390 . S
C229 C228 1.387 . S
C229 C231 1.387 . S
H230 C237 0.950 . S
C231 C229 1.387 . S
C231 C233 1.390 . S
C231 H235 0.950 . S
H232 C228 0.950 . S
C233 C231 1.390 . S
C233 C234 1.387 . S
C233 H236 0.950 . S
C234 C233 1.387 . S
C234 C237 1.387 . S
H235 C231 0.950 . S
H236 C233 0.950 . S
C237 C228 1.390 . S
C237 H230 0.950 . S
C237 C234 1.387 . S
C238 C239 1.387 . S
C238 H242 0.950 . S
C238 C247 1.390 . S
C239 C238 1.387 . S
C239 C241 1.387 . S
H240 C247 0.950 . S
C241 C239 1.387 . S
C241 C243 1.390 . S
C241 H245 0.950 . S
H242 C238 0.950 . S
C243 C241 1.390 . S
C243 C244 1.387 . S
C243 H246 0.950 . S
C244 C243 1.387 . S
C244 C247 1.387 . S
H245 C241 0.950 . S
H246 C243 0.950 . S
C247 C238 1.390 . S
C247 H240 0.950 . S
C247 C244 1.387 . S
C248 C249 1.387 . S
C248 H252 0.950 . S
C248 C257 1.390 . S
C249 C248 1.387 . S
C249 C251 1.387 . S
H250 C257 0.950 . S
C251 C249 1.387 . S
C251 C253 1.390 . S
C251 H255 0.950 . S
H252 C248 0.950 . S
C253 C251 1.390 . S
C253 C254 1.387 . S
C253 H256 0.950 . S
C254 C253 1.387 . S
C254 C257 1.387 . S
H255 C251 0.950 . S
H256 C253 0.950 . S
C257 C248 1.390 . S
C257 H250 0.950 . S
C257 C254 1.387 . S
C258 C259 1.387 . S
C258 H262 0.950 . S
C258 C267 1.390 . S
C259 C258 1.387 . S
C259 C261 1.387 . S
H260 C267 0.950 . S
C261 C259 1.387 . S
C261 C263 1.390 . S
C261 H265 0.950 . S
H262 C258 0.950 . S
C263 C261 1.390 . S
C263 C264 1.387 . S
C263 H266 0.950 . S
C264 C263 1.387 . S
C264 C267 1.387 . S
H265 C261 0.950 . S
H266 C263 0.950 . S
C267 C258 1.390 . S
C267 H260 0.950 . S
C267 C264 1.387 . S
C268 C269 1.387 . S
C268 H272 0.950 . S
C268 C277 1.390 . S
C269 C268 1.387 . S
C269 C271 1.387 . S
H270 C277 0.950 1_455 S
C271 C269 1.387 . S
C271 C273 1.390 . S
C271 H275 0.950 . S
H272 C268 0.950 . S
C273 C271 1.390 . S
C273 C274 1.387 . S
C273 H276 0.950 . S
C274 C273 1.387 . S
C274 C277 1.387 . S
H275 C271 0.950 . S
H276 C273 0.950 . S
C277 C268 1.390 . S
C277 H270 0.950 1_655 S
C277 C274 1.387 . S
C278 C279 1.387 . S
C278 H282 0.950 . S
C278 C287 1.390 . S
C279 C278 1.387 . S
C279 C281 1.387 . S
H280 C287 0.950 . S
C281 C279 1.387 . S
C281 C283 1.390 . S
C281 H285 0.950 . S
H282 C278 0.950 . S
C283 C281 1.390 . S
C283 C284 1.387 . S
C283 H286 0.950 . S
C284 C283 1.387 . S
C284 C287 1.387 . S
H285 C281 0.950 . S
H286 C283 0.950 . S
C287 C278 1.390 . S
C287 H280 0.950 . S
C287 C284 1.387 . S
C288 C289 1.387 . S
C288 H292 0.950 . S
C288 C297 1.390 . S
C289 C288 1.387 . S
C289 C291 1.387 . S
H290 C297 0.950 . S
C291 C289 1.387 . S
C291 C293 1.390 . S
C291 H295 0.950 . S
H292 C288 0.950 . S
C293 C291 1.390 . S
C293 C294 1.387 . S
C293 H296 0.950 . S
C294 C293 1.387 . S
C294 C297 1.387 . S
H295 C291 0.950 . S
H296 C293 0.950 . S
C297 C288 1.390 . S
C297 H290 0.950 . S
C297 C294 1.387 . S
C298 C299 1.387 . S
C298 H302 0.950 . S
C298 C307 1.390 . S
C299 C298 1.387 . S
C299 C301 1.387 . S
H300 C307 0.950 . S
C301 C299 1.387 . S
C301 C303 1.390 . S
C301 H305 0.950 . S
H302 C298 0.950 . S
C303 C301 1.390 . S
C303 C304 1.387 . S
C303 H306 0.950 . S
C304 C303 1.387 . S
C304 C307 1.387 . S
H305 C301 0.950 . S
H306 C303 0.950 . S
C307 C298 1.390 . S
C307 H300 0.950 . S
C307 C304 1.387 . S
C308 C309 1.387 . S
C308 H312 0.950 . S
C308 C317 1.390 . S
C309 C308 1.387 . S
C309 C311 1.387 . S
H310 C317 0.950 . S
C311 C309 1.387 . S
C311 C313 1.390 . S
C311 H315 0.950 . S
H312 C308 0.950 . S
C313 C311 1.390 . S
C313 C314 1.387 . S
C313 H316 0.950 . S
C314 C313 1.387 . S
C314 C317 1.387 . S
H315 C311 0.950 . S
H316 C313 0.950 . S
C317 C308 1.390 . S
C317 H310 0.950 . S
C317 C314 1.387 . S
C318 C319 1.387 . S
C318 H322 0.950 . S
C318 C327 1.390 1_554 S
C319 C318 1.387 . S
C319 C321 1.387 . S
H320 C327 0.950 . S
C321 C319 1.387 . S
C321 C323 1.390 1_554 S
C321 H325 0.950 . S
H322 C318 0.950 . S
C323 C321 1.390 1_556 S
C323 C324 1.387 . S
C323 H326 0.950 . S
C324 C323 1.387 . S
C324 C327 1.387 . S
H325 C321 0.950 . S
H326 C323 0.950 . S
C327 C318 1.390 1_556 S
C327 H320 0.950 . S
C327 C324 1.387 . S
C328 C329 1.387 1_565 S
C328 H332 0.950 . S
C328 C337 1.390 . S
C329 C328 1.387 1_545 S
C329 C331 1.387 . S
H330 C337 0.950 . S
C331 C329 1.387 . S
C331 C333 1.390 . S
C331 H335 0.950 . S
H332 C328 0.950 . S
C333 C331 1.390 . S
C333 C334 1.387 . S
C333 H336 0.950 . S
C334 C333 1.387 . S
C334 C337 1.387 1_545 S
H335 C331 0.950 . S
H336 C333 0.950 . S
C337 C328 1.390 . S
C337 H330 0.950 . S
C337 C334 1.387 1_565 S
C338 C339 1.387 . S
C338 H342 0.950 . S
C338 C347 1.390 . S
C339 C338 1.387 . S
C339 C341 1.387 . S
H340 C347 0.950 . S
C341 C339 1.387 . S
C341 C343 1.390 . S
C341 H345 0.950 . S
H342 C338 0.950 . S
C343 C341 1.390 . S
C343 C344 1.387 . S
C343 H346 0.950 . S
C344 C343 1.387 . S
C344 C347 1.387 . S
H345 C341 0.950 . S
H346 C343 0.950 . S
C347 C338 1.390 . S
C347 H340 0.950 . S
C347 C344 1.387 . S
C348 C349 1.387 . S
C348 H352 0.950 . S
C348 C357 1.390 . S
C349 C348 1.387 . S
C349 C351 1.387 1_545 S
H350 C357 0.950 . S
C351 C349 1.387 1_565 S
C351 C353 1.390 . S
C351 H355 0.950 . S
H352 C348 0.950 . S
C353 C351 1.390 . S
C353 C354 1.387 1_565 S
C353 H356 0.950 . S
C354 C353 1.387 1_545 S
C354 C357 1.387 . S
H355 C351 0.950 . S
H356 C353 0.950 . S
C357 C348 1.390 . S
C357 H350 0.950 . S
C357 C354 1.387 . S
C358 C359 1.387 . S
C358 H362 0.950 . S
C358 C367 1.390 1_556 S
C359 C358 1.387 . S
C359 C361 1.387 . S
H360 C367 0.950 . S
C361 C359 1.387 . S
C361 C363 1.390 . S
C361 H365 0.950 . S
H362 C358 0.950 . S
C363 C361 1.390 . S
C363 C364 1.387 1_556 S
C363 H366 0.950 1_556 S
C364 C363 1.387 1_554 S
C364 C367 1.387 . S
H365 C361 0.950 . S
H366 C363 0.950 1_554 S
C367 C358 1.390 1_554 S
C367 H360 0.950 . S
C367 C364 1.387 . S
C368 C369 1.387 . S
C368 H372 0.950 . S
C368 C377 1.390 . S
C369 C368 1.387 . S
C369 C371 1.387 . S
H370 C377 0.950 . S
C371 C369 1.387 . S
C371 C373 1.390 . S
C371 H375 0.950 . S
H372 C368 0.950 . S
C373 C371 1.390 . S
C373 C374 1.387 . S
C373 H376 0.950 . S
C374 C373 1.387 . S
C374 C377 1.387 . S
H375 C371 0.950 . S
H376 C373 0.950 . S
C377 C368 1.390 . S
C377 H370 0.950 . S
C377 C374 1.387 . S
C199 C12 3.064 . S
C204 C189 2.861 . S
C209 C52 2.979 . S
C214 C167 2.944 1_655 S
C219 C111 3.007 . S
C224 C180 2.964 . S
C229 C31 3.088 . S
C234 C193 3.038 . S
C244 C163 2.948 . S
C239 C71 3.178 . S
C254 C176 2.926 . S
C249 C92 3.148 . S
C259 C48 0.555 . S
C264 C141 0.465 . S
C269 C109 0.678 . S
C274 C154 0.578 1_655 S
C279 C29 0.798 . S
C284 C124 0.846 . S
C294 C137 0.720 . S
C289 C69 0.733 . S
C304 C150 0.567 . S
C299 C88 0.627 . S
C309 C8 0.559 . S
C314 C128 0.501 . S
C324 C155 1.138 . S
C319 C17 1.130 . S
C329 C57 1.198 . S
C334 C129 1.191 . S
C339 C97 1.097 . S
C344 C142 1.131 . S
C354 C181 1.838 . S
C349 C42 1.734 . S
C364 C194 1.787 . S
C359 C82 1.762 . S
C369 C2 1.742 . S
C374 C168 1.816 . S
