# Generated by pormake.
# Topology anh, (6,3)-cn, num edge types: 1
# Building blocks:
#     Node 0, Type 0, BuildingBlock: VOLQOD_clean_sbu_1, # of connection points: 6
#     Node 1, Type 0, BuildingBlock: VOLQOD_clean_sbu_1, # of connection points: 6
#     Node 2, Type 0, BuildingBlock: VOLQOD_clean_sbu_1, # of connection points: 6
#     Node 3, Type 1, BuildingBlock: BETDIP_clean_linker_0, # of connection points: 3
#     Node 4, Type 1, BuildingBlock: BETDIP_clean_linker_0, # of connection points: 3
#     Node 5, Type 1, BuildingBlock: BETDIP_clean_linker_0, # of connection points: 3
#     Node 6, Type 1, BuildingBlock: BETDIP_clean_linker_0, # of connection points: 3
#     Node 7, Type 1, BuildingBlock: BETDIP_clean_linker_0, # of connection points: 3
#     Node 8, Type 1, BuildingBlock: BETDIP_clean_linker_0, # of connection points: 3
#     Edge 9, Type (0, 1), BuildingBlock: FUNLAD_clean_linker_0, # of connection points: 2
#     Edge 10, Type (0, 1), BuildingBlock: FUNLAD_clean_linker_0, # of connection points: 2
#     Edge 11, Type (0, 1), BuildingBlock: FUNLAD_clean_linker_0, # of connection points: 2
#     Edge 12, Type (0, 1), BuildingBlock: FUNLAD_clean_linker_0, # of connection points: 2
#     Edge 13, Type (0, 1), BuildingBlock: FUNLAD_clean_linker_0, # of connection points: 2
#     Edge 14, Type (0, 1), BuildingBlock: FUNLAD_clean_linker_0, # of connection points: 2
#     Edge 15, Type (0, 1), BuildingBlock: FUNLAD_clean_linker_0, # of connection points: 2
#     Edge 16, Type (0, 1), BuildingBlock: FUNLAD_clean_linker_0, # of connection points: 2
#     Edge 17, Type (0, 1), BuildingBlock: FUNLAD_clean_linker_0, # of connection points: 2
#     Edge 18, Type (0, 1), BuildingBlock: FUNLAD_clean_linker_0, # of connection points: 2
#     Edge 19, Type (0, 1), BuildingBlock: FUNLAD_clean_linker_0, # of connection points: 2
#     Edge 20, Type (0, 1), BuildingBlock: FUNLAD_clean_linker_0, # of connection points: 2
#     Edge 21, Type (0, 1), BuildingBlock: FUNLAD_clean_linker_0, # of connection points: 2
#     Edge 22, Type (0, 1), BuildingBlock: FUNLAD_clean_linker_0, # of connection points: 2
#     Edge 23, Type (0, 1), BuildingBlock: FUNLAD_clean_linker_0, # of connection points: 2
#     Edge 24, Type (0, 1), BuildingBlock: FUNLAD_clean_linker_0, # of connection points: 2
#     Edge 25, Type (0, 1), BuildingBlock: FUNLAD_clean_linker_0, # of connection points: 2
#     Edge 26, Type (0, 1), BuildingBlock: FUNLAD_clean_linker_0, # of connection points: 2
# Relax obj value: 0.170
# Max RMSD: 0.216
# Mean RMSD: 0.153
data_MOF--net-anh--node1-VOLQOD_clean_sbu_1--node2-BETDIP_clean_linker_0--edge1-FUNLAD_clean_linker_0
_symmetry_space_group_name_H-M    P1
_symmetry_Int_Tables_number       1
_symmetry_cell_setting            triclinic
loop_
_symmetry_equiv_pos_as_xyz
'x, y, z'
_cell_length_a     34.128351
_cell_length_b     33.960713
_cell_length_c     65.941257
_cell_angle_alpha  93.837658
_cell_angle_beta   89.72363
_cell_angle_gamma 120.38842
loop_
_atom_site_label
_atom_site_type_symbol
_atom_site_fract_x
_atom_site_fract_y
_atom_site_fract_z
_atom_type_partial_charge
O0 O 0.05202 0.63086 0.2056 0.0
Zn1 Zn 0.05369 0.64938 0.17705 0.0
O2 O 0.064 0.6093 0.15759 0.0
Zn3 Zn 0.0134 0.57707 0.138 0.0
Zn4 Zn 0.07072 0.56457 0.17214 0.0
Zn5 Zn 0.11795 0.64546 0.14236 0.0
O6 O 0.03192 0.58672 0.10892 0.0
O7 O 0.1038 0.64262 0.11254 0.0
O8 O -0.00649 0.64556 0.17089 0.0
O9 O 0.97033 0.59969 0.14248 0.0
O10 O 0.97721 0.51004 0.14226 0.0
O11 O 0.01719 0.50098 0.166 0.0
O12 O 0.12852 0.56526 0.16491 0.0
O13 O 0.10528 0.71515 0.17681 0.0
O14 O 0.16156 0.6227 0.14483 0.0
O15 O 0.14938 0.71106 0.15284 0.0
C16 C 0.06063 0.60268 0.21346 0.0
C17 C 0.06872 0.6162 0.10132 0.0
C18 C 0.98245 0.48473 0.15403 0.0
C19 C 0.9651 0.62499 0.156 0.0
C20 C 0.16146 0.5908 0.15398 0.0
C21 C 0.14084 0.73404 0.16632 0.0
O22 O 0.07051 0.57682 0.20246 0.0
O23 O 0.46824 0.055 0.45322 0.0
Zn24 Zn 0.44802 0.04797 0.48227 0.0
O25 O 0.48614 0.03367 0.49887 0.0
Zn26 Zn 0.51985 0.0824 0.51988 0.0
Zn27 Zn 0.52917 0.02637 0.48181 0.0
Zn28 Zn 0.44829 0.97792 0.51211 0.0
O29 O 0.5142 0.05873 0.54763 0.0
O30 O 0.45537 0.98815 0.54255 0.0
O31 O 0.45031 0.10612 0.49374 0.0
O32 O 0.49481 0.12424 0.52143 0.0
O33 O 0.58586 0.12059 0.51318 0.0
O34 O 0.59275 0.07942 0.48736 0.0
O35 O 0.52748 0.96704 0.48572 0.0
O36 O 0.38233 0.99629 0.48163 0.0
O37 O 0.46707 0.9319 0.50472 0.0
O38 O 0.38272 0.95016 0.50388 0.0
C39 C 0.49368 0.0435 0.44345 0.0
C40 C 0.48478 0.02096 0.55441 0.0
C41 C 0.60994 0.11476 0.49984 0.0
C42 C 0.46921 0.13116 0.51005 0.0
C43 C 0.49939 0.93224 0.49487 0.0
C44 C 0.36158 0.96044 0.49139 0.0
O45 O 0.51612 0.0287 0.45242 0.0
O46 O 0.46658 0.47169 0.78994 0.0
Zn47 Zn 0.44909 0.45203 0.81838 0.0
O48 O 0.49768 0.49353 0.83835 0.0
Zn49 Zn 0.47559 0.52313 0.85766 0.0
Zn50 Zn 0.54862 0.54047 0.82423 0.0
Zn51 Zn 0.51812 0.45937 0.85347 0.0
O52 O 0.48164 0.51087 0.88651 0.0
O53 O 0.50733 0.46251 0.8835 0.0
O54 O 0.3903 0.45141 0.82397 0.0
O55 O 0.4097 0.49807 0.85209 0.0
O56 O 0.50664 0.59138 0.85509 0.0
O57 O 0.55838 0.60283 0.83215 0.0
O58 O 0.6065 0.54134 0.83038 0.0
O59 O 0.43823 0.3877 0.81854 0.0
O60 O 0.58499 0.48412 0.8503 0.0
O61 O 0.48602 0.39351 0.84289 0.0
C62 C 0.50267 0.50301 0.78257 0.0
C63 C 0.4935 0.48514 0.89442 0.0
C64 C 0.53915 0.61803 0.84427 0.0
C65 C 0.38034 0.47112 0.8385 0.0
C66 C 0.61564 0.51667 0.84084 0.0
C67 C 0.45557 0.36984 0.82909 0.0
O68 O 0.53693 0.53079 0.79398 0.0
H69 H 0.54795 0.0751 0.19933 0.0
H70 H 0.61382 0.11261 0.25869 0.0
H71 H 0.46967 0.02049 0.25225 0.0
H72 H 0.65725 0.18107 0.24263 0.0
C73 C 0.66309 0.16724 0.22835 0.0
C74 C 0.54602 0.07247 0.21564 0.0
C75 C 0.50391 0.04532 0.22437 0.0
C76 C 0.58555 0.09786 0.22794 0.0
C77 C 0.5832 0.09448 0.24912 0.0
C78 C 0.54151 0.0661 0.25791 0.0
C79 C 0.50202 0.0421 0.24547 0.0
N80 N 0.62724 0.12619 0.21862 0.0
H81 H 0.55918 0.54996 0.53849 0.0
H82 H 0.57597 0.6238 0.59648 0.0
H83 H 0.53056 0.48015 0.59333 0.0
H84 H 0.59843 0.61925 0.52666 0.0
C85 C 0.59077 0.64117 0.53655 0.0
C86 C 0.55801 0.55091 0.55489 0.0
C87 C 0.54413 0.51046 0.56453 0.0
C88 C 0.57011 0.59205 0.56648 0.0
C89 C 0.5676 0.59223 0.58769 0.0
C90 C 0.55315 0.55196 0.59752 0.0
C91 C 0.54165 0.51135 0.58581 0.0
N92 N 0.58226 0.63333 0.55743 0.0
H93 H 0.03574 0.62683 0.85607 0.0
H94 H 0.11218 0.62936 0.90817 0.0
H95 H 0.98631 0.62741 0.91626 0.0
H96 H 0.17235 0.67442 0.88439 0.0
C97 C 0.15623 0.64554 0.87306 0.0
C98 C 0.03985 0.62805 0.87243 0.0
C99 C 0.00681 0.62801 0.8852 0.0
C100 C 0.07839 0.62978 0.88061 0.0
C101 C 0.08333 0.62995 0.90177 0.0
C102 C 0.05028 0.62922 0.91471 0.0
C103 C 0.01253 0.62919 0.90636 0.0
N104 N 0.11004 0.62768 0.86724 0.0
H105 H -0.00194 0.56546 0.45707 0.0
H106 H 0.9514 0.49904 0.39708 0.0
H107 H 0.04454 0.64391 0.40454 0.0
H108 H 0.94329 0.43782 0.41264 0.0
C109 C 0.93072 0.44119 0.42743 0.0
C110 C -0.0019 0.5674 0.44073 0.0
C111 C 0.02411 0.60977 0.43235 0.0
C112 C 0.97249 0.52719 0.42819 0.0
C113 C 0.97214 0.52955 0.40696 0.0
C114 C -0.00234 0.57173 0.39835 0.0
C115 C 0.02344 0.61158 0.41116 0.0
N116 N 0.94669 0.48525 0.43747 0.0
H117 H 0.52158 0.03189 0.80016 0.0
H118 H 0.54539 0.97386 0.74481 0.0
H119 H 0.48605 0.05862 0.74215 0.0
H120 H 0.60115 0.97642 0.76535 0.0
C121 C 0.58236 0.96377 0.77906 0.0
C122 C 0.51941 0.02724 0.7837 0.0
C123 C 0.50189 0.04885 0.77237 0.0
C124 C 0.53588 0.00086 0.77394 0.0
C125 C 0.53403 0.99525 0.75255 0.0
C126 C 0.51596 0.01597 0.74102 0.0
C127 C 0.49981 0.04243 0.75105 0.0
N128 N 0.55255 0.97909 0.78606 0.0
H129 H 0.46681 0.47304 0.13882 0.0
H130 H 0.53146 0.44607 0.08814 0.0
H131 H 0.42072 0.46924 0.07775 0.0
H132 H 0.54709 0.40858 0.11391 0.0
C133 C 0.56065 0.43897 0.1244 0.0
C134 C 0.4686 0.46744 0.12255 0.0
C135 C 0.43898 0.47108 0.10916 0.0
C136 C 0.50168 0.4581 0.11512 0.0
C137 C 0.50535 0.45246 0.09399 0.0
C138 C 0.47632 0.4565 0.08032 0.0
C139 C 0.44302 0.46553 0.08809 0.0
N140 N 0.53349 0.45879 0.12913 0.0
C141 C 0.19983 0.54592 0.16003 0.0
C142 C 0.19989 0.58259 0.15129 0.0
C143 C 0.23508 0.53691 0.15649 0.0
C144 C 0.27104 0.56437 0.14405 0.0
C145 C 0.2718 0.60192 0.13597 0.0
C146 C 0.23663 0.61087 0.13947 0.0
C147 C 0.30803 0.55501 0.13874 0.0
C148 C 0.30468 0.51392 0.1397 0.0
C149 C 0.34026 0.50442 0.13209 0.0
C150 C 0.34558 0.47062 0.14067 0.0
C151 C 0.37792 0.46001 0.13338 0.0
C152 C 0.40502 0.48253 0.11712 0.0
H153 H 0.36318 0.55191 0.10825 0.0
C154 C 0.3994 0.51602 0.1084 0.0
C155 C 0.3673 0.52679 0.11575 0.0
H156 H 0.41997 0.53409 0.09592 0.0
H157 H 0.1723 0.52378 0.16941 0.0
H158 H 0.23384 0.50854 0.1636 0.0
H159 H 0.29925 0.6239 0.12649 0.0
H160 H 0.23802 0.63966 0.13263 0.0
H161 H 0.33854 0.58283 0.13282 0.0
H162 H 0.27494 0.48587 0.14592 0.0
H163 H 0.32473 0.45248 0.15309 0.0
H164 H 0.38123 0.43368 0.14023 0.0
C165 C 0.68342 0.14736 0.4817 0.0
C166 C 0.65719 0.15211 0.49713 0.0
C167 C 0.72493 0.18481 0.47689 0.0
C168 C 0.74101 0.22801 0.48733 0.0
C169 C 0.71646 0.23193 0.5037 0.0
C170 C 0.6749 0.19447 0.50852 0.0
C171 C 0.78194 0.26996 0.48105 0.0
C172 C 0.79528 0.2751 0.46163 0.0
C173 C 0.83241 0.31839 0.45416 0.0
C174 C 0.85036 0.3164 0.43516 0.0
C175 C 0.88284 0.35635 0.42673 0.0
C176 C 0.89791 0.39926 0.43708 0.0
H177 H 0.8343 0.36498 0.47903 0.0
C178 C 0.88048 0.40152 0.45619 0.0
C179 C 0.84798 0.36153 0.46465 0.0
H180 H 0.89127 0.43418 0.46448 0.0
H181 H 0.67122 0.11506 0.47283 0.0
H182 H 0.74383 0.17985 0.46477 0.0
H183 H 0.7284 0.26462 0.51221 0.0
H184 H 0.65582 0.19931 0.52062 0.0
H185 H 0.79932 0.29822 0.49252 0.0
H186 H 0.77726 0.24669 0.45026 0.0
H187 H 0.83882 0.28378 0.42665 0.0
H188 H 0.89571 0.35372 0.41196 0.0
C189 C 0.59086 0.69728 0.8339 0.0
C190 C 0.55217 0.66674 0.84415 0.0
C191 C 0.5997 0.74136 0.83104 0.0
C192 C 0.56966 0.75571 0.83816 0.0
C193 C 0.53287 0.72642 0.84968 0.0
C194 C 0.52409 0.68229 0.85263 0.0
C195 C 0.57428 0.79977 0.83296 0.0
C196 C 0.5924 0.81883 0.81546 0.0
C197 C 0.59204 0.85901 0.80792 0.0
C198 C 0.61738 0.87849 0.79077 0.0
C199 C 0.61501 0.91336 0.7818 0.0
C200 C 0.58713 0.92948 0.78974 0.0
H201 H 0.54422 0.86196 0.82915 0.0
C202 C 0.56263 0.91108 0.80719 0.0
C203 C 0.56495 0.87614 0.8162 0.0
H204 H 0.54077 0.92282 0.81366 0.0
H205 H 0.61374 0.68673 0.82754 0.0
H206 H 0.62963 0.76367 0.82292 0.0
H207 H 0.50957 0.73686 0.8556 0.0
H208 H 0.49416 0.65975 0.86073 0.0
H209 H 0.55904 0.81438 0.84307 0.0
H210 H 0.60648 0.80289 0.80538 0.0
H211 H 0.63842 0.86603 0.78398 0.0
H212 H 0.63423 0.92701 0.76835 0.0
C213 C 0.89911 0.61639 0.13638 0.0
C214 C 0.922 0.62507 0.15523 0.0
C215 C 0.85353 0.60402 0.13548 0.0
C216 C 0.82976 0.59943 0.15345 0.0
C217 C 0.85379 0.61292 0.17224 0.0
C218 C 0.89977 0.62565 0.17315 0.0
C219 C 0.77949 0.57667 0.15276 0.0
C220 C 0.75456 0.5399 0.13965 0.0
C221 C 0.7042 0.51349 0.13791 0.0
C222 C 0.68327 0.47031 0.1271 0.0
C223 C 0.63635 0.44551 0.12344 0.0
C224 C 0.60935 0.46345 0.13045 0.0
H225 H 0.69171 0.56437 0.15355 0.0
C226 C 0.62985 0.50604 0.14179 0.0
C227 C 0.67693 0.53095 0.14546 0.0
H228 H 0.60982 0.52082 0.14731 0.0
H229 H 0.91574 0.61657 0.12232 0.0
H230 H 0.8363 0.59569 0.12073 0.0
H231 H 0.83626 0.61038 0.18627 0.0
H232 H 0.91673 0.6323 0.18789 0.0
H233 H 0.76331 0.58769 0.16415 0.0
H234 H 0.77216 0.52724 0.12985 0.0
H235 H 0.70341 0.45602 0.12108 0.0
H236 H 0.62133 0.41282 0.11463 0.0
C237 C 0.28729 0.89463 0.5008 0.0
C238 C 0.31258 0.92798 0.48718 0.0
C239 C 0.24273 0.86004 0.49575 0.0
C240 C 0.22274 0.85749 0.47671 0.0
C241 C 0.24702 0.89265 0.46371 0.0
C242 C 0.29146 0.92761 0.46888 0.0
C243 C 0.17818 0.81765 0.46928 0.0
C244 C 0.16 0.77601 0.47666 0.0
C245 C 0.12096 0.73366 0.46674 0.0
C246 C 0.11542 0.69124 0.47112 0.0
C247 C 0.08265 0.65075 0.46057 0.0
C248 C 0.0545 0.65178 0.44542 0.0
H249 H 0.0925 0.76591 0.44915 0.0
C250 C 0.05812 0.69381 0.44183 0.0
C251 C 0.0908 0.73434 0.45245 0.0
H252 H 0.03614 0.69543 0.43053 0.0
H253 H 0.3023 0.89462 0.51525 0.0
H254 H 0.22467 0.8351 0.5067 0.0
H255 H 0.23232 0.89202 0.44907 0.0
H256 H 0.30995 0.953 0.45812 0.0
H257 H 0.16288 0.82177 0.45582 0.0
H258 H 0.17724 0.77125 0.48921 0.0
H259 H 0.1378 0.68952 0.48218 0.0
H260 H 0.08082 0.61893 0.46363 0.0
C261 C 0.46133 0.30134 0.83597 0.0
C262 C 0.44378 0.3219 0.82394 0.0
C263 C 0.45689 0.25927 0.82945 0.0
C264 C 0.43459 0.2367 0.81075 0.0
C265 C 0.41472 0.25595 0.79934 0.0
C266 C 0.41902 0.29799 0.8059 0.0
C267 C 0.43701 0.19705 0.80137 0.0
C268 C 0.44745 0.17054 0.81174 0.0
C269 C 0.45975 0.13848 0.80126 0.0
C270 C 0.45065 0.09845 0.8102 0.0
C271 C 0.46396 0.06901 0.80084 0.0
C272 C 0.48736 0.07957 0.78254 0.0
H273 H 0.49295 0.18082 0.77626 0.0
C274 C 0.49731 0.12027 0.77393 0.0
C275 C 0.48359 0.14926 0.78312 0.0
H276 H 0.51657 0.13034 0.76024 0.0
H277 H 0.48043 0.31873 0.85 0.0
H278 H 0.47345 0.24622 0.83857 0.0
H279 H 0.39749 0.2394 0.78485 0.0
H280 H 0.40497 0.31277 0.79628 0.0
H281 H 0.43222 0.19093 0.78493 0.0
H282 H 0.44803 0.17281 0.82824 0.0
H283 H 0.43295 0.08981 0.82435 0.0
H284 H 0.45561 0.03786 0.80784 0.0
C285 C 0.54669 0.89514 0.48939 0.0
C286 C 0.50595 0.89249 0.49553 0.0
C287 C 0.55491 0.85961 0.49267 0.0
C288 C 0.52227 0.82062 0.50201 0.0
C289 C 0.48079 0.81718 0.50717 0.0
C290 C 0.47265 0.85258 0.50395 0.0
C291 C 0.53144 0.78508 0.50862 0.0
C292 C 0.56527 0.77862 0.50196 0.0
C293 C 0.57442 0.74521 0.51107 0.0
C294 C 0.58804 0.71912 0.49884 0.0
C295 C 0.5942 0.68571 0.50721 0.0
C296 C 0.58751 0.67854 0.52798 0.0
H297 H 0.56074 0.75995 0.54199 0.0
C298 C 0.57594 0.70617 0.54036 0.0
C299 C 0.56958 0.73919 0.532 0.0
H300 H 0.5711 0.70198 0.55648 0.0
H301 H 0.57307 0.9255 0.4829 0.0
H302 H 0.58761 0.86398 0.48875 0.0
H303 H 0.45502 0.78757 0.51436 0.0
H304 H 0.44071 0.84917 0.50871 0.0
H305 H 0.50905 0.76312 0.51988 0.0
H306 H 0.58558 0.7967 0.48939 0.0
H307 H 0.59259 0.72364 0.48272 0.0
H308 H 0.6034 0.66498 0.4974 0.0
C309 C 0.69896 0.56809 0.8363 0.0
C310 C 0.66298 0.52659 0.8424 0.0
C311 C 0.74387 0.57837 0.83867 0.0
C312 C 0.75356 0.54717 0.8471 0.0
C313 C 0.71759 0.50506 0.85248 0.0
C314 C 0.67273 0.49499 0.85034 0.0
C315 C 0.80072 0.55761 0.85066 0.0
C316 C 0.83521 0.60022 0.85584 0.0
C317 C 0.88085 0.60932 0.86198 0.0
C318 C 0.90611 0.64396 0.87727 0.0
C319 C 0.94755 0.65072 0.8846 0.0
C320 C 0.96478 0.62346 0.87646 0.0
H321 H 0.88082 0.55708 0.84108 0.0
C322 C 0.94052 0.59025 0.86048 0.0
C323 C 0.89892 0.58321 0.85329 0.0
H324 H 0.953 0.56869 0.85396 0.0
H325 H 0.69254 0.59302 0.82999 0.0
H326 H 0.77084 0.61062 0.83384 0.0
H327 H 0.72425 0.48033 0.85883 0.0
H328 H 0.64574 0.46252 0.85499 0.0
H329 H 0.80619 0.52878 0.85099 0.0
H330 H 0.82875 0.62846 0.85768 0.0
H331 H 0.89303 0.6648 0.88404 0.0
H332 H 0.96592 0.67694 0.89676 0.0
C333 C 0.17835 0.80479 0.19007 0.0
C334 C 0.17526 0.7828 0.17085 0.0
C335 C 0.21571 0.84814 0.19544 0.0
C336 C 0.25054 0.87033 0.1817 0.0
C337 C 0.24522 0.84997 0.16184 0.0
C338 C 0.2082 0.80647 0.15657 0.0
C339 C 0.29301 0.91263 0.18918 0.0
C340 C 0.33364 0.92653 0.1807 0.0
C341 C 0.37785 0.96188 0.19057 0.0
C342 C 0.41757 0.9625 0.18427 0.0
C343 C 0.4591 0.99107 0.19469 0.0
C344 C 0.46165 0.01954 0.21166 0.0
H345 H 0.35214 0.99517 0.21159 0.0
C346 C 0.42267 0.02108 0.21725 0.0
C347 C 0.38124 0.99287 0.20672 0.0
H348 H 0.4241 0.04362 0.23002 0.0
H349 H 0.15332 0.78752 0.20137 0.0
H350 H 0.21851 0.8633 0.21074 0.0
H351 H 0.26997 0.86674 0.15043 0.0
H352 H 0.20612 0.79079 0.14145 0.0
H353 H 0.2913 0.92909 0.20354 0.0
H354 H 0.33553 0.90782 0.16711 0.0
H355 H 0.41617 0.93942 0.17175 0.0
H356 H 0.48873 0.98935 0.19006 0.0
C357 C 0.45621 0.19465 0.50137 0.0
C358 C 0.46299 0.17021 0.51598 0.0
C359 C 0.45701 0.2355 0.50723 0.0
C360 C 0.46404 0.252 0.52785 0.0
C361 C 0.46757 0.22565 0.54245 0.0
C362 C 0.46748 0.18551 0.53659 0.0
C363 C 0.47119 0.29754 0.53504 0.0
C364 C 0.48454 0.33292 0.52335 0.0
C365 C 0.50199 0.37974 0.5329 0.0
C366 C 0.48984 0.40943 0.52487 0.0
C367 C 0.50439 0.45264 0.53478 0.0
C368 C 0.53189 0.46686 0.55268 0.0
H369 H 0.54274 0.37345 0.55623 0.0
C370 C 0.54614 0.438 0.5599 0.0
C371 C 0.53132 0.39496 0.55017 0.0
H372 H 0.56845 0.44851 0.57327 0.0
H373 H 0.45241 0.18335 0.48537 0.0
H374 H 0.453 0.25425 0.49558 0.0
H375 H 0.47255 0.23723 0.55845 0.0
H376 H 0.4721 0.16699 0.54822 0.0
H377 H 0.4701 0.30383 0.55138 0.0
H378 H 0.48498 0.32849 0.50692 0.0
H379 H 0.46785 0.3986 0.51137 0.0
H380 H 0.4929 0.47419 0.52885 0.0
C381 C 0.31769 0.47039 0.85779 0.0
C382 C 0.33545 0.46722 0.83893 0.0
C383 C 0.2825 0.47982 0.85891 0.0
C384 C 0.26514 0.48721 0.8412 0.0
C385 C 0.27922 0.47882 0.82218 0.0
C386 C 0.31433 0.46883 0.82103 0.0
C387 C 0.23693 0.509 0.8426 0.0
C388 C 0.2472 0.54344 0.85687 0.0
C389 C 0.22378 0.57013 0.85906 0.0
C390 C 0.18016 0.55449 0.85056 0.0
C391 C 0.15851 0.57974 0.85446 0.0
C392 C 0.18003 0.6208 0.86693 0.0
H393 H 0.27905 0.62462 0.87783 0.0
C394 C 0.22389 0.63689 0.87494 0.0
C395 C 0.24547 0.61176 0.87108 0.0
H396 H 0.24107 0.66837 0.88464 0.0
H397 H 0.33294 0.46844 0.87178 0.0
H398 H 0.27093 0.48425 0.87376 0.0
H399 H 0.26575 0.48364 0.80832 0.0
H400 H 0.32748 0.4664 0.8063 0.0
H401 H 0.21127 0.50006 0.83074 0.0
H402 H 0.27616 0.55434 0.86723 0.0
H403 H 0.16199 0.52224 0.84151 0.0
H404 H 0.12449 0.56641 0.84816 0.0
C405 C 0.949 0.40834 0.16871 0.0
C406 C 0.94414 0.4378 0.15628 0.0
C407 C 0.91076 0.36837 0.1744 0.0
C408 C 0.867 0.3574 0.16785 0.0
C409 C 0.86246 0.38519 0.15439 0.0
C410 C 0.90062 0.4247 0.14846 0.0
C411 C 0.82563 0.32169 0.17707 0.0
C412 C 0.82205 0.284 0.18432 0.0
C413 C 0.78209 0.25354 0.19592 0.0
C414 C 0.75869 0.20606 0.19124 0.0
C415 C 0.71971 0.1776 0.20172 0.0
C416 C 0.70463 0.19628 0.21742 0.0
H417 H 0.78537 0.30851 0.21594 0.0
C418 C 0.72917 0.24353 0.22261 0.0
C419 C 0.76729 0.27201 0.21181 0.0
H420 H 0.71828 0.25859 0.23475 0.0
H421 H 0.98205 0.41741 0.17497 0.0
H422 H 0.91541 0.34802 0.18504 0.0
H423 H 0.82907 0.37746 0.14917 0.0
H424 H 0.89554 0.44649 0.13885 0.0
H425 H 0.79701 0.32731 0.17839 0.0
H426 H 0.84813 0.2751 0.18158 0.0
H427 H 0.76988 0.19119 0.17916 0.0
H428 H 0.70154 0.14111 0.19761 0.0
C429 C 0.03591 0.58716 0.0659 0.0
C430 C 0.07018 0.62118 0.07917 0.0
C431 C 0.0364 0.59278 0.04508 0.0
C432 C 0.07104 0.63274 0.03714 0.0
C433 C 0.10508 0.6668 0.05039 0.0
C434 C 0.10498 0.66091 0.07116 0.0
C435 C 0.07137 0.64065 0.01529 0.0
C436 C 0.05594 0.60648 0.00051 0.0
C437 C 0.05613 0.61426 0.97866 0.0
C438 C 0.06185 0.5854 0.96427 0.0
C439 C 0.061 0.59102 0.94353 0.0
C440 C 0.05342 0.62504 0.93676 0.0
H441 H 0.04307 0.67059 0.9826 0.0
C442 C 0.04719 0.65367 0.95112 0.0
C443 C 0.04876 0.64851 0.97191 0.0
H444 H 0.04107 0.67999 0.94625 0.0
H445 H 0.00852 0.55627 0.0716 0.0
H446 H 0.009 0.56635 0.03535 0.0
H447 H 0.13191 0.69803 0.04465 0.0
H448 H 0.13167 0.68795 0.08099 0.0
H449 H 0.08681 0.67584 0.01125 0.0
H450 H 0.0449 0.57187 0.00442 0.0
H451 H 0.06711 0.55848 0.9691 0.0
H452 H 0.0652 0.56804 0.93274 0.0
C453 C 0.52322 0.03236 0.41005 0.0
C454 C 0.49884 0.04896 0.42134 0.0
C455 C 0.52979 0.03894 0.38937 0.0
C456 C 0.51202 0.06223 0.37947 0.0
C457 C 0.48795 0.07911 0.39074 0.0
C458 C 0.48109 0.07226 0.41144 0.0
C459 C 0.51926 0.0706 0.35761 0.0
C460 C 0.52371 0.04188 0.344 0.0
C461 C 0.52958 0.04928 0.32204 0.0
C462 C 0.51183 0.01103 0.30795 0.0
C463 C 0.51599 0.0166 0.28713 0.0
C464 C 0.53883 0.0606 0.28002 0.0
H465 H 0.56839 0.12361 0.32548 0.0
C466 C 0.55795 0.09898 0.2941 0.0
C467 C 0.5532 0.09341 0.31496 0.0
H468 H 0.57579 0.13324 0.28896 0.0
H469 H 0.53767 0.01456 0.4172 0.0
H470 H 0.54967 0.02661 0.38132 0.0
H471 H 0.47423 0.09749 0.3835 0.0
H472 H 0.46244 0.08581 0.41971 0.0
H473 H 0.51835 0.09985 0.35244 0.0
H474 H 0.51986 0.01014 0.34878 0.0
H475 H 0.49398 0.97671 0.31304 0.0
H476 H 0.50145 0.98646 0.27655 0.0
C477 C 0.54276 0.54446 0.75212 0.0
C478 C 0.50461 0.50798 0.76037 0.0
C479 C 0.54435 0.54979 0.73125 0.0
C480 C 0.50789 0.51843 0.71808 0.0
C481 C 0.46967 0.48224 0.72637 0.0
C482 C 0.46803 0.47696 0.74725 0.0
C483 C 0.50777 0.52242 0.69574 0.0
C484 C 0.54557 0.5466 0.68517 0.0
C485 C 0.54527 0.54846 0.6627 0.0
C486 C 0.58241 0.58479 0.65387 0.0
C487 C 0.58456 0.58662 0.63275 0.0
C488 C 0.54976 0.55182 0.61998 0.0
H489 H 0.48158 0.48452 0.65588 0.0
C490 C 0.51237 0.51571 0.62879 0.0
C491 C 0.5102 0.51386 0.64987 0.0
H492 H 0.48483 0.48853 0.61936 0.0
H493 H 0.57135 0.56933 0.7618 0.0
H494 H 0.57391 0.57903 0.72572 0.0
H495 H 0.44095 0.45771 0.71665 0.0
H496 H 0.43802 0.44856 0.75307 0.0
H497 H 0.47494 0.50367 0.68775 0.0
H498 H 0.57846 0.56576 0.69306 0.0
H499 H 0.61009 0.6117 0.66335 0.0
H500 H 0.61407 0.61461 0.6264 0.0
C501 C 0.51945 0.0484 0.58969 0.0
C502 C 0.48474 0.01482 0.57644 0.0
C503 C 0.51926 0.04246 0.61047 0.0
C504 C 0.48431 0.0027 0.61844 0.0
C505 C 0.44947 0.96943 0.60525 0.0
C506 C 0.44979 0.97521 0.58447 0.0
C507 C 0.48173 0.99603 0.64053 0.0
C508 C 0.51844 0.01528 0.6533 0.0
C509 C 0.51553 0.01116 0.67563 0.0
C510 C 0.55379 0.01817 0.68676 0.0
C511 C 0.55341 0.01799 0.70796 0.0
C512 C 0.51488 0.01138 0.71847 0.0
H513 H 0.44679 -0.00084 0.67827 0.0
C514 C 0.47627 0.00346 0.70732 0.0
C515 C 0.47658 0.0035 0.68616 0.0
H516 H 0.446 -0.00195 0.71501 0.0
H517 H 0.54674 0.07944 0.58404 0.0
H518 H 0.54594 0.06957 0.62024 0.0
H519 H 0.42188 0.93875 0.61103 0.0
H520 H 0.42238 0.94872 0.57474 0.0
H521 H 0.44838 0.97333 0.64625 0.0
H522 H 0.55216 0.03422 0.64723 0.0
H523 H 0.58435 0.02452 0.67906 0.0
H524 H 0.58385 0.02472 0.71618 0.0
C525 C 0.5075 0.45695 0.92632 0.0
C526 C 0.48958 0.48035 0.91661 0.0
C527 C 0.50248 0.4514 0.94718 0.0
C528 C 0.47929 0.46905 0.95874 0.0
C529 C 0.46122 0.49215 0.94902 0.0
C530 C 0.46659 0.49808 0.92824 0.0
C531 C 0.47183 0.46274 0.98077 0.0
C532 C 0.50022 0.45838 0.9933 0.0
C533 C 0.4933 0.45503 0.01549 0.0
C534 C 0.53129 0.47456 0.02891 0.0
C535 C 0.52585 0.47434 0.04993 0.0
C536 C 0.48216 0.45383 0.05798 0.0
H537 H 0.41952 0.41626 0.01352 0.0
C538 C 0.4441 0.43246 0.04447 0.0
C539 C 0.44958 0.43308 0.02347 0.0
H540 H 0.40999 0.41534 0.05013 0.0
H541 H 0.52517 0.44264 0.91779 0.0
H542 H 0.51588 0.43239 0.95406 0.0
H543 H 0.44295 0.50581 0.95754 0.0
H544 H 0.45207 0.51601 0.92126 0.0
H545 H 0.44338 0.46476 0.98709 0.0
H546 H 0.53128 0.46107 0.98753 0.0
H547 H 0.56532 0.49137 0.02313 0.0
H548 H 0.55595 0.49154 0.05985 0.0
C549 C 0.04554 0.62607 0.24818 0.0
C550 C 0.05696 0.59837 0.23571 0.0
C551 C 0.03967 0.62038 0.26898 0.0
C552 C 0.04475 0.58651 0.27781 0.0
C553 C 0.05744 0.55978 0.26546 0.0
C554 C 0.06333 0.56547 0.24465 0.0
C555 C 0.03815 0.57863 0.29981 0.0
C556 C 0.01313 0.59085 0.31164 0.0
C557 C 0.00758 0.58384 0.3337 0.0
C558 C -0.00057 0.61367 0.34634 0.0
C559 C -0.00456 0.60927 0.36727 0.0
C560 C -0.00115 0.57442 0.37597 0.0
H561 H 0.0144 0.52345 0.33299 0.0
C562 C 0.00532 0.54345 0.36325 0.0
C563 C 0.00967 0.54808 0.34231 0.0
H564 H 0.00809 0.51626 0.36955 0.0
H565 H 0.04086 0.6521 0.24186 0.0
H566 H 0.03166 0.64299 0.27801 0.0
H567 H 0.06216 0.53384 0.27186 0.0
H568 H 0.07233 0.54363 0.23555 0.0
H569 H 0.0543 0.56167 0.30634 0.0
H570 H -0.00302 0.60794 0.30525 0.0
H571 H -0.00295 0.64111 0.34007 0.0
H572 H 0.98984 0.63325 0.37667 0.0
loop_
_geom_bond_atom_site_label_1
_geom_bond_atom_site_label_2
_geom_bond_distance
_geom_bond_site_symmetry_2
_ccdc_geom_bond_type
O0 Zn1 1.953 . S
O0 C16 1.225 . S
Zn1 O0 1.953 . S
Zn1 O2 1.949 . S
Zn1 O8 1.909 1_455 S
Zn1 O13 1.924 . S
O2 Zn1 1.949 . S
O2 Zn3 1.923 . S
O2 Zn4 1.950 . S
O2 Zn5 1.945 . S
Zn3 O2 1.923 . S
Zn3 O6 1.933 . S
Zn3 O9 1.941 1_455 S
Zn3 O10 1.965 1_455 S
Zn4 O2 1.950 . S
Zn4 O11 1.938 . S
Zn4 O12 1.906 . S
Zn4 O22 1.953 . S
Zn5 O2 1.945 . S
Zn5 O7 1.932 . S
Zn5 O14 1.977 . S
Zn5 O15 1.910 . S
O6 Zn3 1.933 . S
O6 C17 1.226 . S
O7 Zn5 1.932 . S
O7 C17 1.307 . S
O8 Zn1 1.909 1_655 S
O8 C19 1.257 . S
O9 Zn3 1.941 1_655 S
O9 C19 1.283 . S
O10 Zn3 1.965 1_655 S
O10 C18 1.303 . S
O11 Zn4 1.938 . S
O11 C18 1.247 1_455 S
O12 Zn4 1.906 . S
O12 C20 1.304 . S
O13 Zn1 1.924 . S
O13 C21 1.311 . S
O14 Zn5 1.977 . S
O14 C20 1.272 . S
O15 Zn5 1.910 . S
O15 C21 1.231 . S
C16 O0 1.225 . S
C16 O22 1.298 . S
C17 O6 1.226 . S
C17 O7 1.307 . S
C18 O10 1.303 . S
C18 O11 1.247 1_655 S
C19 O8 1.257 . S
C19 O9 1.283 . S
C20 O12 1.304 . S
C20 O14 1.272 . S
C21 O13 1.311 . S
C21 O15 1.231 . S
O22 Zn4 1.953 . S
O22 C16 1.298 . S
O23 Zn24 1.953 . S
O23 C39 1.225 . S
Zn24 O23 1.953 . S
Zn24 O25 1.949 . S
Zn24 O31 1.919 . S
Zn24 O36 1.924 . S
O25 Zn24 1.949 . S
O25 Zn26 1.923 . S
O25 Zn27 1.950 . S
O25 Zn28 1.945 1_545 S
Zn26 O25 1.923 . S
Zn26 O29 1.933 . S
Zn26 O32 1.941 . S
Zn26 O33 1.965 . S
Zn27 O25 1.950 . S
Zn27 O34 1.938 . S
Zn27 O35 1.906 1_545 S
Zn27 O45 1.953 . S
Zn28 O25 1.945 1_565 S
Zn28 O30 1.932 1_565 S
Zn28 O37 1.977 . S
Zn28 O38 1.910 . S
O29 Zn26 1.933 . S
O29 C40 1.226 . S
O30 Zn28 1.932 1_545 S
O30 C40 1.307 . S
O31 Zn24 1.919 . S
O31 C42 1.253 . S
O32 Zn26 1.941 . S
O32 C42 1.283 . S
O33 Zn26 1.965 . S
O33 C41 1.303 . S
O34 Zn27 1.938 . S
O34 C41 1.247 . S
O35 Zn27 1.906 1_565 S
O35 C43 1.304 . S
O36 Zn24 1.924 . S
O36 C44 1.311 1_545 S
O37 Zn28 1.977 . S
O37 C43 1.272 . S
O38 Zn28 1.910 . S
O38 C44 1.231 . S
C39 O23 1.225 . S
C39 O45 1.298 . S
C40 O29 1.226 . S
C40 O30 1.307 . S
C41 O33 1.303 . S
C41 O34 1.247 . S
C42 O31 1.253 . S
C42 O32 1.283 . S
C43 O35 1.304 . S
C43 O37 1.272 . S
C44 O36 1.311 1_565 S
C44 O38 1.231 . S
O45 Zn27 1.953 . S
O45 C39 1.298 . S
O46 Zn47 1.953 . S
O46 C62 1.225 . S
Zn47 O46 1.953 . S
Zn47 O48 1.949 . S
Zn47 O54 1.919 . S
Zn47 O59 1.924 . S
O48 Zn47 1.949 . S
O48 Zn49 1.923 . S
O48 Zn50 1.950 . S
O48 Zn51 1.945 . S
Zn49 O48 1.923 . S
Zn49 O52 1.933 . S
Zn49 O55 1.941 . S
Zn49 O56 1.965 . S
Zn50 O48 1.950 . S
Zn50 O57 1.938 . S
Zn50 O58 1.906 . S
Zn50 O68 1.953 . S
Zn51 O48 1.945 . S
Zn51 O53 1.932 . S
Zn51 O60 1.977 . S
Zn51 O61 1.910 . S
O52 Zn49 1.933 . S
O52 C63 1.226 . S
O53 Zn51 1.932 . S
O53 C63 1.307 . S
O54 Zn47 1.919 . S
O54 C65 1.253 . S
O55 Zn49 1.941 . S
O55 C65 1.283 . S
O56 Zn49 1.965 . S
O56 C64 1.303 . S
O57 Zn50 1.938 . S
O57 C64 1.247 . S
O58 Zn50 1.906 . S
O58 C66 1.304 . S
O59 Zn47 1.924 . S
O59 C67 1.311 . S
O60 Zn51 1.977 . S
O60 C66 1.272 . S
O61 Zn51 1.910 . S
O61 C67 1.231 . S
C62 O46 1.225 . S
C62 O68 1.298 . S
C63 O52 1.226 . S
C63 O53 1.307 . S
C64 O56 1.303 . S
C64 O57 1.247 . S
C65 O54 1.253 . S
C65 O55 1.283 . S
C66 O58 1.304 . S
C66 O60 1.272 . S
C67 O59 1.311 . S
C67 O61 1.231 . S
O68 Zn50 1.953 . S
O68 C62 1.298 . S
H69 C74 0.930 . S
H70 C77 0.930 . S
H71 C79 0.930 . S
H72 C73 1.016 . S
C73 H72 1.016 . S
C73 N80 1.286 . S
C74 H69 0.930 . S
C74 C75 1.397 . S
C74 C76 1.361 . S
C75 C74 1.397 . S
C75 C79 1.390 . S
C76 C74 1.361 . S
C76 C77 1.393 . S
C76 N80 1.413 . S
C77 H70 0.930 . S
C77 C76 1.393 . S
C77 C78 1.399 . S
C78 C77 1.399 . S
C78 C79 1.381 . S
C79 H71 0.930 . S
C79 C75 1.390 . S
C79 C78 1.381 . S
N80 C73 1.286 . S
N80 C76 1.413 . S
H81 C86 0.930 . S
H82 C89 0.930 . S
H83 C91 0.930 . S
H84 C85 1.016 . S
C85 H84 1.016 . S
C85 N92 1.286 . S
C86 H81 0.930 . S
C86 C87 1.397 . S
C86 C88 1.361 . S
C87 C86 1.397 . S
C87 C91 1.390 . S
C88 C86 1.361 . S
C88 C89 1.393 . S
C88 N92 1.413 . S
C89 H82 0.930 . S
C89 C88 1.393 . S
C89 C90 1.399 . S
C90 C89 1.399 . S
C90 C91 1.381 . S
C91 H83 0.930 . S
C91 C87 1.390 . S
C91 C90 1.381 . S
N92 C85 1.286 . S
N92 C88 1.413 . S
H93 C98 0.930 . S
H94 C101 0.930 . S
H95 C103 0.910 1_655 S
H96 C97 1.016 . S
C97 H96 1.016 . S
C97 N104 1.286 . S
C98 H93 0.930 . S
C98 C99 1.397 1_455 S
C98 C100 1.361 . S
C99 C98 1.397 1_655 S
C99 C103 1.388 1_655 S
C100 C98 1.361 . S
C100 C101 1.393 . S
C100 N104 1.413 . S
C101 H94 0.930 . S
C101 C100 1.393 . S
C101 C102 1.399 . S
C102 C101 1.399 . S
C102 C103 1.403 . S
C103 H95 0.910 1_455 S
C103 C99 1.388 1_455 S
C103 C102 1.403 . S
N104 C97 1.286 . S
N104 C100 1.413 . S
H105 C110 0.930 . S
H106 C113 0.933 . S
H107 C115 0.930 . S
H108 C109 1.016 . S
C109 H108 1.016 . S
C109 N116 1.286 . S
C110 H105 0.930 . S
C110 C111 1.397 . S
C110 C112 1.361 . S
C111 C110 1.397 . S
C111 C115 1.390 . S
C112 C110 1.361 . S
C112 C113 1.393 1_455 S
C112 N116 1.413 1_455 S
C113 H106 0.933 . S
C113 C112 1.393 1_655 S
C113 C114 1.397 1_655 S
C114 C113 1.397 1_455 S
C114 C115 1.381 . S
C115 H107 0.930 . S
C115 C111 1.390 . S
C115 C114 1.381 . S
N116 C109 1.286 . S
N116 C112 1.413 1_655 S
H117 C122 0.930 . S
H118 C125 0.930 1_565 S
H119 C127 0.930 . S
H120 C121 1.016 . S
C121 H120 1.016 . S
C121 N128 1.286 . S
C122 H117 0.930 . S
C122 C123 1.397 . S
C122 C124 1.361 . S
C123 C122 1.397 . S
C123 C127 1.390 . S
C124 C122 1.361 . S
C124 C125 1.393 . S
C124 N128 1.413 1_545 S
C125 H118 0.930 1_545 S
C125 C124 1.393 . S
C125 C126 1.399 . S
C126 C125 1.399 . S
C126 C127 1.381 . S
C127 H119 0.930 . S
C127 C123 1.390 . S
C127 C126 1.381 . S
N128 C121 1.286 . S
N128 C124 1.413 1_565 S
H129 C134 0.930 . S
H130 C137 0.930 . S
H131 C139 0.930 . S
H132 C133 1.016 . S
C133 H132 1.016 . S
C133 N140 1.286 . S
C134 H129 0.930 . S
C134 C135 1.397 . S
C134 C136 1.361 . S
C135 C134 1.397 . S
C135 C139 1.390 . S
C136 C134 1.361 . S
C136 C137 1.393 . S
C136 N140 1.413 . S
C137 H130 0.930 . S
C137 C136 1.393 . S
C137 C138 1.399 . S
C138 C137 1.399 . S
C138 C139 1.381 . S
C139 H131 0.930 . S
C139 C135 1.390 . S
C139 C138 1.381 . S
N140 C133 1.286 . S
N140 C136 1.413 . S
C141 C142 1.386 . S
C141 C143 1.383 . S
C141 H157 0.951 . S
C142 C141 1.386 . S
C142 C146 1.383 . S
C143 C141 1.383 . S
C143 C144 1.402 . S
C143 H158 0.951 . S
C144 C143 1.402 . S
C144 C145 1.375 . S
C144 C147 1.481 . S
C145 C144 1.375 . S
C145 C146 1.367 . S
C145 H159 0.951 . S
C146 C142 1.383 . S
C146 C145 1.367 . S
C146 H160 0.950 . S
C147 C144 1.481 . S
C147 C148 1.297 . S
C147 H161 0.950 . S
C148 C147 1.297 . S
C148 C149 1.479 . S
C148 H162 0.950 . S
C149 C148 1.479 . S
C149 C150 1.375 . S
C149 C155 1.404 . S
C150 C149 1.375 . S
C150 C151 1.369 . S
C150 H163 0.950 . S
C151 C150 1.369 . S
C151 C152 1.392 . S
C151 H164 0.951 . S
C152 C151 1.392 . S
C152 C154 1.384 . S
H153 C155 0.949 . S
C154 C152 1.384 . S
C154 C155 1.385 . S
C154 H156 0.950 . S
C155 C149 1.404 . S
C155 H153 0.949 . S
C155 C154 1.385 . S
H156 C154 0.950 . S
H157 C141 0.951 . S
H158 C143 0.951 . S
H159 C145 0.951 . S
H160 C146 0.950 . S
H161 C147 0.950 . S
H162 C148 0.950 . S
H163 C150 0.950 . S
H164 C151 0.951 . S
C165 C166 1.386 . S
C165 C167 1.383 . S
C165 H181 0.951 . S
C166 C165 1.386 . S
C166 C170 1.383 . S
C167 C165 1.383 . S
C167 C168 1.402 . S
C167 H182 0.951 . S
C168 C167 1.402 . S
C168 C169 1.375 . S
C168 C171 1.481 . S
C169 C168 1.375 . S
C169 C170 1.367 . S
C169 H183 0.951 . S
C170 C166 1.383 . S
C170 C169 1.367 . S
C170 H184 0.950 . S
C171 C168 1.481 . S
C171 C172 1.297 . S
C171 H185 0.950 . S
C172 C171 1.297 . S
C172 C173 1.479 . S
C172 H186 0.950 . S
C173 C172 1.479 . S
C173 C174 1.375 . S
C173 C179 1.404 . S
C174 C173 1.375 . S
C174 C175 1.369 . S
C174 H187 0.950 . S
C175 C174 1.369 . S
C175 C176 1.392 . S
C175 H188 0.951 . S
C176 C175 1.392 . S
C176 C178 1.384 . S
H177 C179 0.949 . S
C178 C176 1.384 . S
C178 C179 1.385 . S
C178 H180 0.950 . S
C179 C173 1.404 . S
C179 H177 0.949 . S
C179 C178 1.385 . S
H180 C178 0.950 . S
H181 C165 0.951 . S
H182 C167 0.951 . S
H183 C169 0.951 . S
H184 C170 0.950 . S
H185 C171 0.950 . S
H186 C172 0.950 . S
H187 C174 0.950 . S
H188 C175 0.951 . S
C189 C190 1.386 . S
C189 C191 1.383 . S
C189 H205 0.951 . S
C190 C189 1.386 . S
C190 C194 1.383 . S
C191 C189 1.383 . S
C191 C192 1.402 . S
C191 H206 0.951 . S
C192 C191 1.402 . S
C192 C193 1.375 . S
C192 C195 1.481 . S
C193 C192 1.375 . S
C193 C194 1.367 . S
C193 H207 0.951 . S
C194 C190 1.383 . S
C194 C193 1.367 . S
C194 H208 0.950 . S
C195 C192 1.481 . S
C195 C196 1.297 . S
C195 H209 0.950 . S
C196 C195 1.297 . S
C196 C197 1.479 . S
C196 H210 0.950 . S
C197 C196 1.479 . S
C197 C198 1.375 . S
C197 C203 1.404 . S
C198 C197 1.375 . S
C198 C199 1.369 . S
C198 H211 0.950 . S
C199 C198 1.369 . S
C199 C200 1.392 . S
C199 H212 0.951 . S
C200 C199 1.392 . S
C200 C202 1.384 . S
H201 C203 0.949 . S
C202 C200 1.384 . S
C202 C203 1.385 . S
C202 H204 0.950 . S
C203 C197 1.404 . S
C203 H201 0.949 . S
C203 C202 1.385 . S
H204 C202 0.950 . S
H205 C189 0.951 . S
H206 C191 0.951 . S
H207 C193 0.951 . S
H208 C194 0.950 . S
H209 C195 0.950 . S
H210 C196 0.950 . S
H211 C198 0.950 . S
H212 C199 0.951 . S
C213 C214 1.386 . S
C213 C215 1.383 . S
C213 H229 0.951 . S
C214 C213 1.386 . S
C214 C218 1.383 . S
C215 C213 1.383 . S
C215 C216 1.402 . S
C215 H230 0.951 . S
C216 C215 1.402 . S
C216 C217 1.375 . S
C216 C219 1.481 . S
C217 C216 1.375 . S
C217 C218 1.367 . S
C217 H231 0.951 . S
C218 C214 1.383 . S
C218 C217 1.367 . S
C218 H232 0.950 . S
C219 C216 1.481 . S
C219 C220 1.297 . S
C219 H233 0.950 . S
C220 C219 1.297 . S
C220 C221 1.479 . S
C220 H234 0.950 . S
C221 C220 1.479 . S
C221 C222 1.375 . S
C221 C227 1.404 . S
C222 C221 1.375 . S
C222 C223 1.369 . S
C222 H235 0.950 . S
C223 C222 1.369 . S
C223 C224 1.392 . S
C223 H236 0.951 . S
C224 C223 1.392 . S
C224 C226 1.384 . S
H225 C227 0.949 . S
C226 C224 1.384 . S
C226 C227 1.385 . S
C226 H228 0.950 . S
C227 C221 1.404 . S
C227 H225 0.949 . S
C227 C226 1.385 . S
H228 C226 0.950 . S
H229 C213 0.951 . S
H230 C215 0.951 . S
H231 C217 0.951 . S
H232 C218 0.950 . S
H233 C219 0.950 . S
H234 C220 0.950 . S
H235 C222 0.950 . S
H236 C223 0.951 . S
C237 C238 1.386 . S
C237 C239 1.383 . S
C237 H253 0.951 . S
C238 C237 1.386 . S
C238 C242 1.383 . S
C239 C237 1.383 . S
C239 C240 1.402 . S
C239 H254 0.951 . S
C240 C239 1.402 . S
C240 C241 1.375 . S
C240 C243 1.481 . S
C241 C240 1.375 . S
C241 C242 1.367 . S
C241 H255 0.951 . S
C242 C238 1.383 . S
C242 C241 1.367 . S
C242 H256 0.950 . S
C243 C240 1.481 . S
C243 C244 1.297 . S
C243 H257 0.950 . S
C244 C243 1.297 . S
C244 C245 1.479 . S
C244 H258 0.950 . S
C245 C244 1.479 . S
C245 C246 1.375 . S
C245 C251 1.404 . S
C246 C245 1.375 . S
C246 C247 1.369 . S
C246 H259 0.950 . S
C247 C246 1.369 . S
C247 C248 1.392 . S
C247 H260 0.951 . S
C248 C247 1.392 . S
C248 C250 1.384 . S
H249 C251 0.949 . S
C250 C248 1.384 . S
C250 C251 1.385 . S
C250 H252 0.950 . S
C251 C245 1.404 . S
C251 H249 0.949 . S
C251 C250 1.385 . S
H252 C250 0.950 . S
H253 C237 0.951 . S
H254 C239 0.951 . S
H255 C241 0.951 . S
H256 C242 0.950 . S
H257 C243 0.950 . S
H258 C244 0.950 . S
H259 C246 0.950 . S
H260 C247 0.951 . S
C261 C262 1.386 . S
C261 C263 1.383 . S
C261 H277 0.951 . S
C262 C261 1.386 . S
C262 C266 1.383 . S
C263 C261 1.383 . S
C263 C264 1.402 . S
C263 H278 0.951 . S
C264 C263 1.402 . S
C264 C265 1.375 . S
C264 C267 1.481 . S
C265 C264 1.375 . S
C265 C266 1.367 . S
C265 H279 0.951 . S
C266 C262 1.383 . S
C266 C265 1.367 . S
C266 H280 0.950 . S
C267 C264 1.481 . S
C267 C268 1.297 . S
C267 H281 0.950 . S
C268 C267 1.297 . S
C268 C269 1.479 . S
C268 H282 0.950 . S
C269 C268 1.479 . S
C269 C270 1.375 . S
C269 C275 1.404 . S
C270 C269 1.375 . S
C270 C271 1.369 . S
C270 H283 0.950 . S
C271 C270 1.369 . S
C271 C272 1.392 . S
C271 H284 0.951 . S
C272 C271 1.392 . S
C272 C274 1.384 . S
H273 C275 0.949 . S
C274 C272 1.384 . S
C274 C275 1.385 . S
C274 H276 0.950 . S
C275 C269 1.404 . S
C275 H273 0.949 . S
C275 C274 1.385 . S
H276 C274 0.950 . S
H277 C261 0.951 . S
H278 C263 0.951 . S
H279 C265 0.951 . S
H280 C266 0.950 . S
H281 C267 0.950 . S
H282 C268 0.950 . S
H283 C270 0.950 . S
H284 C271 0.951 . S
C285 C286 1.386 . S
C285 C287 1.383 . S
C285 H301 0.951 . S
C286 C285 1.386 . S
C286 C290 1.383 . S
C287 C285 1.383 . S
C287 C288 1.402 . S
C287 H302 0.951 . S
C288 C287 1.402 . S
C288 C289 1.375 . S
C288 C291 1.481 . S
C289 C288 1.375 . S
C289 C290 1.367 . S
C289 H303 0.951 . S
C290 C286 1.383 . S
C290 C289 1.367 . S
C290 H304 0.950 . S
C291 C288 1.481 . S
C291 C292 1.297 . S
C291 H305 0.950 . S
C292 C291 1.297 . S
C292 C293 1.479 . S
C292 H306 0.950 . S
C293 C292 1.479 . S
C293 C294 1.375 . S
C293 C299 1.404 . S
C294 C293 1.375 . S
C294 C295 1.369 . S
C294 H307 0.950 . S
C295 C294 1.369 . S
C295 C296 1.392 . S
C295 H308 0.951 . S
C296 C295 1.392 . S
C296 C298 1.384 . S
H297 C299 0.949 . S
C298 C296 1.384 . S
C298 C299 1.385 . S
C298 H300 0.950 . S
C299 C293 1.404 . S
C299 H297 0.949 . S
C299 C298 1.385 . S
H300 C298 0.950 . S
H301 C285 0.951 . S
H302 C287 0.951 . S
H303 C289 0.951 . S
H304 C290 0.950 . S
H305 C291 0.950 . S
H306 C292 0.950 . S
H307 C294 0.950 . S
H308 C295 0.951 . S
C309 C310 1.386 . S
C309 C311 1.383 . S
C309 H325 0.951 . S
C310 C309 1.386 . S
C310 C314 1.383 . S
C311 C309 1.383 . S
C311 C312 1.402 . S
C311 H326 0.951 . S
C312 C311 1.402 . S
C312 C313 1.375 . S
C312 C315 1.481 . S
C313 C312 1.375 . S
C313 C314 1.367 . S
C313 H327 0.951 . S
C314 C310 1.383 . S
C314 C313 1.367 . S
C314 H328 0.950 . S
C315 C312 1.481 . S
C315 C316 1.297 . S
C315 H329 0.950 . S
C316 C315 1.297 . S
C316 C317 1.479 . S
C316 H330 0.950 . S
C317 C316 1.479 . S
C317 C318 1.375 . S
C317 C323 1.404 . S
C318 C317 1.375 . S
C318 C319 1.369 . S
C318 H331 0.950 . S
C319 C318 1.369 . S
C319 C320 1.392 . S
C319 H332 0.951 . S
C320 C319 1.392 . S
C320 C322 1.384 . S
H321 C323 0.949 . S
C322 C320 1.384 . S
C322 C323 1.385 . S
C322 H324 0.950 . S
C323 C317 1.404 . S
C323 H321 0.949 . S
C323 C322 1.385 . S
H324 C322 0.950 . S
H325 C309 0.951 . S
H326 C311 0.951 . S
H327 C313 0.951 . S
H328 C314 0.950 . S
H329 C315 0.950 . S
H330 C316 0.950 . S
H331 C318 0.950 . S
H332 C319 0.951 . S
C333 C334 1.386 . S
C333 C335 1.383 . S
C333 H349 0.951 . S
C334 C333 1.386 . S
C334 C338 1.383 . S
C335 C333 1.383 . S
C335 C336 1.402 . S
C335 H350 0.951 . S
C336 C335 1.402 . S
C336 C337 1.375 . S
C336 C339 1.481 . S
C337 C336 1.375 . S
C337 C338 1.367 . S
C337 H351 0.951 . S
C338 C334 1.383 . S
C338 C337 1.367 . S
C338 H352 0.950 . S
C339 C336 1.481 . S
C339 C340 1.297 . S
C339 H353 0.950 . S
C340 C339 1.297 . S
C340 C341 1.479 . S
C340 H354 0.950 . S
C341 C340 1.479 . S
C341 C342 1.375 . S
C341 C347 1.404 . S
C342 C341 1.375 . S
C342 C343 1.369 . S
C342 H355 0.950 . S
C343 C342 1.369 . S
C343 C344 1.392 . S
C343 H356 0.951 . S
C344 C343 1.392 . S
C344 C346 1.384 . S
H345 C347 0.949 . S
C346 C344 1.384 . S
C346 C347 1.385 . S
C346 H348 0.950 1_565 S
C347 C341 1.404 . S
C347 H345 0.949 . S
C347 C346 1.385 . S
H348 C346 0.950 1_545 S
H349 C333 0.951 . S
H350 C335 0.951 . S
H351 C337 0.951 . S
H352 C338 0.950 . S
H353 C339 0.950 . S
H354 C340 0.950 . S
H355 C342 0.950 . S
H356 C343 0.951 . S
C357 C358 1.386 . S
C357 C359 1.383 . S
C357 H373 0.951 . S
C358 C357 1.386 . S
C358 C362 1.383 . S
C359 C357 1.383 . S
C359 C360 1.402 . S
C359 H374 0.951 . S
C360 C359 1.402 . S
C360 C361 1.375 . S
C360 C363 1.481 . S
C361 C360 1.375 . S
C361 C362 1.367 . S
C361 H375 0.951 . S
C362 C358 1.383 . S
C362 C361 1.367 . S
C362 H376 0.950 . S
C363 C360 1.481 . S
C363 C364 1.297 . S
C363 H377 0.950 . S
C364 C363 1.297 . S
C364 C365 1.479 . S
C364 H378 0.950 . S
C365 C364 1.479 . S
C365 C366 1.375 . S
C365 C371 1.404 . S
C366 C365 1.375 . S
C366 C367 1.369 . S
C366 H379 0.950 . S
C367 C366 1.369 . S
C367 C368 1.392 . S
C367 H380 0.951 . S
C368 C367 1.392 . S
C368 C370 1.384 . S
H369 C371 0.949 . S
C370 C368 1.384 . S
C370 C371 1.385 . S
C370 H372 0.950 . S
C371 C365 1.404 . S
C371 H369 0.949 . S
C371 C370 1.385 . S
H372 C370 0.950 . S
H373 C357 0.951 . S
H374 C359 0.951 . S
H375 C361 0.951 . S
H376 C362 0.950 . S
H377 C363 0.950 . S
H378 C364 0.950 . S
H379 C366 0.950 . S
H380 C367 0.951 . S
C381 C382 1.386 . S
C381 C383 1.383 . S
C381 H397 0.951 . S
C382 C381 1.386 . S
C382 C386 1.383 . S
C383 C381 1.383 . S
C383 C384 1.402 . S
C383 H398 0.951 . S
C384 C383 1.402 . S
C384 C385 1.375 . S
C384 C387 1.481 . S
C385 C384 1.375 . S
C385 C386 1.367 . S
C385 H399 0.951 . S
C386 C382 1.383 . S
C386 C385 1.367 . S
C386 H400 0.950 . S
C387 C384 1.481 . S
C387 C388 1.297 . S
C387 H401 0.950 . S
C388 C387 1.297 . S
C388 C389 1.479 . S
C388 H402 0.950 . S
C389 C388 1.479 . S
C389 C390 1.375 . S
C389 C395 1.404 . S
C390 C389 1.375 . S
C390 C391 1.369 . S
C390 H403 0.950 . S
C391 C390 1.369 . S
C391 C392 1.392 . S
C391 H404 0.951 . S
C392 C391 1.392 . S
C392 C394 1.384 . S
H393 C395 0.949 . S
C394 C392 1.384 . S
C394 C395 1.385 . S
C394 H396 0.950 . S
C395 C389 1.404 . S
C395 H393 0.949 . S
C395 C394 1.385 . S
H396 C394 0.950 . S
H397 C381 0.951 . S
H398 C383 0.951 . S
H399 C385 0.951 . S
H400 C386 0.950 . S
H401 C387 0.950 . S
H402 C388 0.950 . S
H403 C390 0.950 . S
H404 C391 0.951 . S
C405 C406 1.386 . S
C405 C407 1.383 . S
C405 H421 0.951 . S
C406 C405 1.386 . S
C406 C410 1.383 . S
C407 C405 1.383 . S
C407 C408 1.402 . S
C407 H422 0.951 . S
C408 C407 1.402 . S
C408 C409 1.375 . S
C408 C411 1.481 . S
C409 C408 1.375 . S
C409 C410 1.367 . S
C409 H423 0.951 . S
C410 C406 1.383 . S
C410 C409 1.367 . S
C410 H424 0.950 . S
C411 C408 1.481 . S
C411 C412 1.297 . S
C411 H425 0.950 . S
C412 C411 1.297 . S
C412 C413 1.479 . S
C412 H426 0.950 . S
C413 C412 1.479 . S
C413 C414 1.375 . S
C413 C419 1.404 . S
C414 C413 1.375 . S
C414 C415 1.369 . S
C414 H427 0.950 . S
C415 C414 1.369 . S
C415 C416 1.392 . S
C415 H428 0.951 . S
C416 C415 1.392 . S
C416 C418 1.384 . S
H417 C419 0.949 . S
C418 C416 1.384 . S
C418 C419 1.385 . S
C418 H420 0.950 . S
C419 C413 1.404 . S
C419 H417 0.949 . S
C419 C418 1.385 . S
H420 C418 0.950 . S
H421 C405 0.951 . S
H422 C407 0.951 . S
H423 C409 0.951 . S
H424 C410 0.950 . S
H425 C411 0.950 . S
H426 C412 0.950 . S
H427 C414 0.950 . S
H428 C415 0.951 . S
C429 C430 1.386 . S
C429 C431 1.383 . S
C429 H445 0.951 . S
C430 C429 1.386 . S
C430 C434 1.383 . S
C431 C429 1.383 . S
C431 C432 1.402 . S
C431 H446 0.951 . S
C432 C431 1.402 . S
C432 C433 1.375 . S
C432 C435 1.481 . S
C433 C432 1.375 . S
C433 C434 1.367 . S
C433 H447 0.951 . S
C434 C430 1.383 . S
C434 C433 1.367 . S
C434 H448 0.950 . S
C435 C432 1.481 . S
C435 C436 1.297 . S
C435 H449 0.950 . S
C436 C435 1.297 . S
C436 C437 1.479 1_554 S
C436 H450 0.950 . S
C437 C436 1.479 1_556 S
C437 C438 1.375 . S
C437 C443 1.404 . S
C438 C437 1.375 . S
C438 C439 1.369 . S
C438 H451 0.950 . S
C439 C438 1.369 . S
C439 C440 1.392 . S
C439 H452 0.951 . S
C440 C439 1.392 . S
C440 C442 1.384 . S
H441 C443 0.949 . S
C442 C440 1.384 . S
C442 C443 1.385 . S
C442 H444 0.950 . S
C443 C437 1.404 . S
C443 H441 0.949 . S
C443 C442 1.385 . S
H444 C442 0.950 . S
H445 C429 0.951 . S
H446 C431 0.951 . S
H447 C433 0.951 . S
H448 C434 0.950 . S
H449 C435 0.950 . S
H450 C436 0.950 . S
H451 C438 0.950 . S
H452 C439 0.951 . S
C453 C454 1.386 . S
C453 C455 1.383 . S
C453 H469 0.951 1_545 S
C454 C453 1.386 . S
C454 C458 1.383 . S
C455 C453 1.383 . S
C455 C456 1.402 . S
C455 H470 0.951 . S
C456 C455 1.402 . S
C456 C457 1.375 . S
C456 C459 1.481 . S
C457 C456 1.375 . S
C457 C458 1.367 . S
C457 H471 0.951 . S
C458 C454 1.383 . S
C458 C457 1.367 . S
C458 H472 0.950 . S
C459 C456 1.481 . S
C459 C460 1.297 . S
C459 H473 0.950 . S
C460 C459 1.297 . S
C460 C461 1.479 . S
C460 H474 0.950 . S
C461 C460 1.479 . S
C461 C462 1.375 . S
C461 C467 1.404 . S
C462 C461 1.375 . S
C462 C463 1.369 . S
C462 H475 0.950 1_545 S
C463 C462 1.369 . S
C463 C464 1.392 . S
C463 H476 0.951 . S
C464 C463 1.392 . S
C464 C466 1.384 . S
H465 C467 0.949 . S
C466 C464 1.384 . S
C466 C467 1.385 . S
C466 H468 0.950 . S
C467 C461 1.404 . S
C467 H465 0.949 . S
C467 C466 1.385 . S
H468 C466 0.950 . S
H469 C453 0.951 1_565 S
H470 C455 0.951 . S
H471 C457 0.951 . S
H472 C458 0.950 . S
H473 C459 0.950 . S
H474 C460 0.950 . S
H475 C462 0.950 1_565 S
H476 C463 0.951 . S
C477 C478 1.386 . S
C477 C479 1.383 . S
C477 H493 0.951 . S
C478 C477 1.386 . S
C478 C482 1.383 . S
C479 C477 1.383 . S
C479 C480 1.402 . S
C479 H494 0.951 . S
C480 C479 1.402 . S
C480 C481 1.375 . S
C480 C483 1.481 . S
C481 C480 1.375 . S
C481 C482 1.367 . S
C481 H495 0.951 . S
C482 C478 1.383 . S
C482 C481 1.367 . S
C482 H496 0.950 . S
C483 C480 1.481 . S
C483 C484 1.297 . S
C483 H497 0.950 . S
C484 C483 1.297 . S
C484 C485 1.479 . S
C484 H498 0.950 . S
C485 C484 1.479 . S
C485 C486 1.375 . S
C485 C491 1.404 . S
C486 C485 1.375 . S
C486 C487 1.369 . S
C486 H499 0.950 . S
C487 C486 1.369 . S
C487 C488 1.392 . S
C487 H500 0.951 . S
C488 C487 1.392 . S
C488 C490 1.384 . S
H489 C491 0.949 . S
C490 C488 1.384 . S
C490 C491 1.385 . S
C490 H492 0.950 . S
C491 C485 1.404 . S
C491 H489 0.949 . S
C491 C490 1.385 . S
H492 C490 0.950 . S
H493 C477 0.951 . S
H494 C479 0.951 . S
H495 C481 0.951 . S
H496 C482 0.950 . S
H497 C483 0.950 . S
H498 C484 0.950 . S
H499 C486 0.950 . S
H500 C487 0.951 . S
C501 C502 1.386 . S
C501 C503 1.383 . S
C501 H517 0.951 . S
C502 C501 1.386 . S
C502 C506 1.383 . S
C503 C501 1.383 . S
C503 C504 1.402 . S
C503 H518 0.951 . S
C504 C503 1.402 . S
C504 C505 1.375 . S
C504 C507 1.481 . S
C505 C504 1.375 . S
C505 C506 1.367 . S
C505 H519 0.951 . S
C506 C502 1.383 . S
C506 C505 1.367 . S
C506 H520 0.950 . S
C507 C504 1.481 . S
C507 C508 1.297 . S
C507 H521 0.950 . S
C508 C507 1.297 . S
C508 C509 1.479 . S
C508 H522 0.950 . S
C509 C508 1.479 . S
C509 C510 1.375 . S
C509 C515 1.404 . S
C510 C509 1.375 . S
C510 C511 1.369 . S
C510 H523 0.950 . S
C511 C510 1.369 . S
C511 C512 1.392 . S
C511 H524 0.951 . S
C512 C511 1.392 . S
C512 C514 1.384 . S
H513 C515 0.949 . S
C514 C512 1.384 . S
C514 C515 1.385 . S
C514 H516 0.950 . S
C515 C509 1.404 . S
C515 H513 0.949 . S
C515 C514 1.385 . S
H516 C514 0.950 . S
H517 C501 0.951 . S
H518 C503 0.951 . S
H519 C505 0.951 . S
H520 C506 0.950 . S
H521 C507 0.950 . S
H522 C508 0.950 . S
H523 C510 0.950 . S
H524 C511 0.951 . S
C525 C526 1.386 . S
C525 C527 1.383 . S
C525 H541 0.951 . S
C526 C525 1.386 . S
C526 C530 1.383 . S
C527 C525 1.383 . S
C527 C528 1.402 . S
C527 H542 0.951 . S
C528 C527 1.402 . S
C528 C529 1.375 . S
C528 C531 1.481 . S
C529 C528 1.375 . S
C529 C530 1.367 . S
C529 H543 0.951 . S
C530 C526 1.383 . S
C530 C529 1.367 . S
C530 H544 0.950 . S
C531 C528 1.481 . S
C531 C532 1.297 . S
C531 H545 0.950 . S
C532 C531 1.297 . S
C532 C533 1.479 1_556 S
C532 H546 0.950 . S
C533 C532 1.479 1_554 S
C533 C534 1.375 . S
C533 C539 1.404 . S
C534 C533 1.375 . S
C534 C535 1.369 . S
C534 H547 0.950 . S
C535 C534 1.369 . S
C535 C536 1.392 . S
C535 H548 0.951 . S
C536 C535 1.392 . S
C536 C538 1.384 . S
H537 C539 0.949 . S
C538 C536 1.384 . S
C538 C539 1.385 . S
C538 H540 0.950 . S
C539 C533 1.404 . S
C539 H537 0.949 . S
C539 C538 1.385 . S
H540 C538 0.950 . S
H541 C525 0.951 . S
H542 C527 0.951 . S
H543 C529 0.951 . S
H544 C530 0.950 . S
H545 C531 0.950 . S
H546 C532 0.950 . S
H547 C534 0.950 . S
H548 C535 0.951 . S
C549 C550 1.386 . S
C549 C551 1.383 . S
C549 H565 0.951 . S
C550 C549 1.386 . S
C550 C554 1.383 . S
C551 C549 1.383 . S
C551 C552 1.402 . S
C551 H566 0.951 . S
C552 C551 1.402 . S
C552 C553 1.375 . S
C552 C555 1.481 . S
C553 C552 1.375 . S
C553 C554 1.367 . S
C553 H567 0.951 . S
C554 C550 1.383 . S
C554 C553 1.367 . S
C554 H568 0.950 . S
C555 C552 1.481 . S
C555 C556 1.297 . S
C555 H569 0.950 . S
C556 C555 1.297 . S
C556 C557 1.479 . S
C556 H570 0.950 . S
C557 C556 1.479 . S
C557 C558 1.375 . S
C557 C563 1.404 . S
C558 C557 1.375 . S
C558 C559 1.369 . S
C558 H571 0.950 . S
C559 C558 1.369 . S
C559 C560 1.392 . S
C559 H572 0.951 . S
C560 C559 1.392 . S
C560 C562 1.384 . S
H561 C563 0.949 . S
C562 C560 1.384 . S
C562 C563 1.385 . S
C562 H564 0.950 . S
C563 C557 1.404 . S
C563 H561 0.949 . S
C563 C562 1.385 . S
H564 C562 0.950 . S
H565 C549 0.951 . S
H566 C551 0.951 . S
H567 C553 0.951 . S
H568 C554 0.950 . S
H569 C555 0.950 . S
H570 C556 0.950 . S
H571 C558 0.950 . S
H572 C559 0.951 . S
C142 C20 1.467 . S
C152 C135 1.499 . S
C166 C41 1.264 . S
C176 C109 1.273 . S
C190 C64 1.277 . S
C200 C121 1.248 . S
C214 C19 0.915 . S
C224 C133 0.966 . S
C248 C111 1.214 . S
C238 C44 1.240 . S
C272 C123 1.171 . S
C262 C67 1.204 . S
C286 C43 1.260 . S
C296 C85 1.266 . S
C310 C66 1.465 . S
C320 C99 1.499 . S
C334 C21 1.203 . S
C344 C75 1.229 1_565 S
C368 C87 1.216 . S
C358 C42 1.211 . S
C392 C97 0.914 . S
C382 C65 0.931 . S
C406 C18 1.277 . S
C416 C73 1.216 . S
C440 C102 1.500 . S
C430 C17 1.517 . S
C454 C39 1.536 . S
C464 C78 1.501 . S
C478 C62 1.538 . S
C488 C90 1.511 . S
C512 C126 1.499 . S
C502 C40 1.518 . S
C536 C138 1.501 . S
C526 C63 1.514 . S
C550 C16 1.505 . S
C560 C114 1.515 . S
