# Generated by pormake.
# Topology pyr, (3,6)-cn, num edge types: 1
# Building blocks:
#     Node 0, Type 0, BuildingBlock: BETDAH_clean_linker_0, # of connection points: 3
#     Node 1, Type 0, BuildingBlock: BETDAH_clean_linker_0, # of connection points: 3
#     Node 2, Type 0, BuildingBlock: BETDAH_clean_linker_0, # of connection points: 3
#     Node 3, Type 0, BuildingBlock: BETDAH_clean_linker_0, # of connection points: 3
#     Node 4, Type 0, BuildingBlock: BETDAH_clean_linker_0, # of connection points: 3
#     Node 5, Type 0, BuildingBlock: BETDAH_clean_linker_0, # of connection points: 3
#     Node 6, Type 0, BuildingBlock: BETDAH_clean_linker_0, # of connection points: 3
#     Node 7, Type 0, BuildingBlock: BETDAH_clean_linker_0, # of connection points: 3
#     Node 8, Type 1, BuildingBlock: PAMTOO_clean_sbu_0, # of connection points: 6
#     Node 9, Type 1, BuildingBlock: PAMTOO_clean_sbu_0, # of connection points: 6
#     Node 10, Type 1, BuildingBlock: PAMTOO_clean_sbu_0, # of connection points: 6
#     Node 11, Type 1, BuildingBlock: PAMTOO_clean_sbu_0, # of connection points: 6
#     Edge 12, Type (0, 1), BuildingBlock: EZIPEK_clean_linker_0, # of connection points: 2
#     Edge 13, Type (0, 1), BuildingBlock: EZIPEK_clean_linker_0, # of connection points: 2
#     Edge 14, Type (0, 1), BuildingBlock: EZIPEK_clean_linker_0, # of connection points: 2
#     Edge 15, Type (0, 1), BuildingBlock: EZIPEK_clean_linker_0, # of connection points: 2
#     Edge 16, Type (0, 1), BuildingBlock: EZIPEK_clean_linker_0, # of connection points: 2
#     Edge 17, Type (0, 1), BuildingBlock: EZIPEK_clean_linker_0, # of connection points: 2
#     Edge 18, Type (0, 1), BuildingBlock: EZIPEK_clean_linker_0, # of connection points: 2
#     Edge 19, Type (0, 1), BuildingBlock: EZIPEK_clean_linker_0, # of connection points: 2
#     Edge 20, Type (0, 1), BuildingBlock: EZIPEK_clean_linker_0, # of connection points: 2
#     Edge 21, Type (0, 1), BuildingBlock: EZIPEK_clean_linker_0, # of connection points: 2
#     Edge 22, Type (0, 1), BuildingBlock: EZIPEK_clean_linker_0, # of connection points: 2
#     Edge 23, Type (0, 1), BuildingBlock: EZIPEK_clean_linker_0, # of connection points: 2
#     Edge 24, Type (0, 1), BuildingBlock: EZIPEK_clean_linker_0, # of connection points: 2
#     Edge 25, Type (0, 1), BuildingBlock: EZIPEK_clean_linker_0, # of connection points: 2
#     Edge 26, Type (0, 1), BuildingBlock: EZIPEK_clean_linker_0, # of connection points: 2
#     Edge 27, Type (0, 1), BuildingBlock: EZIPEK_clean_linker_0, # of connection points: 2
#     Edge 28, Type (0, 1), BuildingBlock: EZIPEK_clean_linker_0, # of connection points: 2
#     Edge 29, Type (0, 1), BuildingBlock: EZIPEK_clean_linker_0, # of connection points: 2
#     Edge 30, Type (0, 1), BuildingBlock: EZIPEK_clean_linker_0, # of connection points: 2
#     Edge 31, Type (0, 1), BuildingBlock: EZIPEK_clean_linker_0, # of connection points: 2
#     Edge 32, Type (0, 1), BuildingBlock: EZIPEK_clean_linker_0, # of connection points: 2
#     Edge 33, Type (0, 1), BuildingBlock: EZIPEK_clean_linker_0, # of connection points: 2
#     Edge 34, Type (0, 1), BuildingBlock: EZIPEK_clean_linker_0, # of connection points: 2
#     Edge 35, Type (0, 1), BuildingBlock: EZIPEK_clean_linker_0, # of connection points: 2
# Relax obj value: 0.193
# Max RMSD: 0.221
# Mean RMSD: 0.129
data_MOF--net-pyr--node1-PAMTOO_clean_sbu_0--node2-BETDAH_clean_linker_0--edge1-EZIPEK_clean_linker_0
_symmetry_space_group_name_H-M    P1
_symmetry_Int_Tables_number       1
_symmetry_cell_setting            triclinic
loop_
_symmetry_equiv_pos_as_xyz
'x, y, z'
_cell_length_a     26.286369
_cell_length_b     29.397501
_cell_length_c     29.099649
_cell_angle_alpha  90.446323
_cell_angle_beta   90.560859
_cell_angle_gamma 111.7952
loop_
_atom_site_label
_atom_site_type_symbol
_atom_site_fract_x
_atom_site_fract_y
_atom_site_fract_z
_atom_type_partial_charge
H0 H 0.44735 0.25686 0.32568 0.0
H1 H 0.48982 0.33369 0.19808 0.0
H2 H 0.39923 0.37885 0.29929 0.0
C3 C 0.44919 0.28749 0.3043 0.0
C4 C 0.42223 0.31831 0.31798 0.0
C5 C 0.47308 0.29247 0.26093 0.0
C6 C 0.47307 0.3307 0.23232 0.0
C7 C 0.44639 0.36191 0.24586 0.0
C8 C 0.42154 0.35601 0.28912 0.0
N9 N 0.43984 0.39535 0.21372 0.0
C10 C 0.39022 0.40166 0.20896 0.0
H11 H 0.25948 0.80618 0.81774 0.0
H12 H 0.10921 0.82913 0.79564 0.0
H13 H 0.16193 0.74706 0.69624 0.0
C14 C 0.22232 0.79921 0.79761 0.0
C15 C 0.21466 0.77337 0.75593 0.0
C16 C 0.1841 0.81885 0.81206 0.0
C17 C 0.13765 0.81237 0.78497 0.0
C18 C 0.12932 0.78628 0.74318 0.0
C19 C 0.16737 0.76593 0.72913 0.0
N20 N 0.08553 0.78395 0.71329 0.0
C21 C 0.07292 0.82526 0.70576 0.0
H22 H 0.73483 0.3698 1.00194 0.0
H23 H 0.73824 0.47158 0.89464 0.0
H24 H 0.60581 0.33063 0.90061 0.0
C25 C 0.71648 0.37906 0.97164 0.0
C26 C 0.66758 0.34492 0.95362 0.0
C27 C 0.74243 0.42474 0.95082 0.0
C28 C 0.71833 0.4366 0.91106 0.0
C29 C 0.66847 0.40248 0.89288 0.0
C30 C 0.64389 0.35694 0.91446 0.0
N31 N 0.64085 0.411 0.85322 0.0
C32 C 0.6546 0.4521 0.82505 0.0
H33 H 0.85066 0.76826 0.50863 0.0
H34 H 0.94752 0.81755 0.3878 0.0
H35 H 0.83018 0.66954 0.39345 0.0
C36 C 0.8631 0.76084 0.47485 0.0
C37 C 0.83497 0.71503 0.4538 0.0
C38 C 0.90328 0.79866 0.45131 0.0
C39 C 0.91764 0.7885 0.40696 0.0
C40 C 0.89423 0.74143 0.38675 0.0
C41 C 0.85181 0.70464 0.41005 0.0
N42 N 0.91071 0.73549 0.34105 0.0
C43 C 0.91088 0.6932 0.31853 0.0
H44 H 0.75568 0.79318 0.88427 0.0
H45 H 0.66666 0.75356 1.01022 0.0
H46 H 0.61153 0.82631 0.90397 0.0
C47 C 0.72009 0.78988 0.90456 0.0
C48 C 0.68258 0.80966 0.8883 0.0
C49 C 0.71464 0.76976 0.94847 0.0
C50 C 0.67002 0.7677 0.97564 0.0
C51 C 0.63292 0.78844 0.95997 0.0
C52 C 0.63902 0.80897 0.91593 0.0
N53 N 0.593 0.79231 0.99047 0.0
C54 C 0.57832 0.83315 0.99124 0.0
H55 H 0.94227 0.25791 0.38752 0.0
H56 H 0.9794 0.32514 0.52174 0.0
H57 H 0.89093 0.37629 0.4225 0.0
C58 C 0.94269 0.28659 0.41139 0.0
C59 C 0.91558 0.31789 0.39966 0.0
C60 C 0.96522 0.28863 0.45551 0.0
C61 C 0.96357 0.3244 0.48708 0.0
C62 C 0.93673 0.35607 0.47553 0.0
C63 C 0.91329 0.3531 0.43141 0.0
N64 N 0.92865 0.38686 0.51011 0.0
C65 C 0.87995 0.39504 0.51229 0.0
H66 H 0.34114 0.77932 0.20536 0.0
H67 H 0.34831 0.67587 0.30743 0.0
H68 H 0.47617 0.81929 0.301 0.0
C69 C 0.36161 0.7702 0.23439 0.0
C70 C 0.41074 0.80503 0.25129 0.0
C71 C 0.33848 0.72378 0.25445 0.0
C72 C 0.36549 0.71182 0.29226 0.0
C73 C 0.41578 0.74642 0.30901 0.0
C74 C 0.43747 0.79278 0.28845 0.0
N75 N 0.44865 0.73617 0.34376 0.0
C76 C 0.43419 0.70021 0.37766 0.0
H77 H 0.23721 0.36869 0.70066 0.0
H78 H 0.23579 0.47778 0.80052 0.0
H79 H 0.10457 0.33582 0.79518 0.0
C80 C 0.21803 0.37965 0.7293 0.0
C81 C 0.16839 0.34664 0.74594 0.0
C82 C 0.24252 0.42704 0.74829 0.0
C83 C 0.21717 0.44134 0.78571 0.0
C84 C 0.16717 0.40799 0.80312 0.0
C85 C 0.14329 0.36119 0.78254 0.0
N86 N 0.13759 0.41895 0.83989 0.0
C87 C 0.15216 0.45935 0.86997 0.0
Dy88 Dy 0.09769 0.08437 0.58054 0.0
Dy89 Dy 0.97437 0.06005 0.61838 0.0
C90 C 0.07489 0.15802 0.65041 0.0
O91 O 0.09035 0.04758 0.64857 0.0
O92 O 1.00014 0.99983 0.64285 0.0
O93 O 0.18488 0.11181 0.59377 0.0
O94 O 0.15194 0.07842 0.52775 0.0
O95 O 0.96596 1.01744 0.55227 0.0
O96 O 0.04715 1.0072 0.55774 0.0
O97 O 0.98901 0.12367 0.57323 0.0
O98 O 0.05912 0.11873 0.52916 0.0
O99 O 0.88669 0.03597 0.60699 0.0
O100 O 0.92178 0.0577 0.67507 0.0
C101 C 0.04998 1.00611 0.65645 0.0
O102 O 0.1019 0.15451 0.61381 0.0
O103 O 0.03107 0.12119 0.66357 0.0
C104 C 0.23532 0.14509 0.52744 0.0
C105 C 0.29981 0.22055 0.47065 0.0
C106 C 0.26698 0.23021 0.50407 0.0
C107 C 0.23458 0.19249 0.53226 0.0
C108 C 0.2702 0.13626 0.49556 0.0
C109 C 0.30225 0.1738 0.46726 0.0
C110 C 0.19583 0.1036 0.55157 0.0
C111 C 0.99636 0.99199 0.54243 0.0
C112 C 0.02099 0.13655 0.53752 0.0
C113 C 0.83502 0.99599 0.67067 0.0
C114 C 0.76494 0.9249 0.72813 0.0
C115 C 0.81248 0.91974 0.71163 0.0
C116 C 0.84745 0.95518 0.68292 0.0
C117 C 0.78521 0.9989 0.68391 0.0
C118 C 0.75008 0.96332 0.71249 0.0
C119 C 0.87696 0.03876 0.65051 0.0
H120 H 0.26452 0.2661 0.50677 0.0
H121 H 0.20754 0.19986 0.55653 0.0
H122 H 0.27092 0.09986 0.49124 0.0
H123 H 0.32734 0.16592 0.44143 0.0
H124 H 0.82458 0.89044 0.72379 0.0
H125 H 0.88591 0.95258 0.67299 0.0
H126 H 0.77527 0.03033 0.67476 0.0
H127 H 0.7137 0.96786 0.72535 0.0
Dy128 Dy 0.47455 0.06772 0.08381 0.0
Dy129 Dy 0.59976 0.08952 0.12613 0.0
C130 C 0.4987 0.99285 0.15739 0.0
O131 O 0.49355 0.12997 0.13317 0.0
O132 O 0.5623 0.12288 0.17853 0.0
O133 O 0.38806 0.04617 0.0976 0.0
O134 O 0.41978 0.07331 1.03069 0.0
O135 O 0.6035 0.15718 0.08871 0.0
O136 O 0.53142 0.12476 1.03817 0.0
O137 O 0.58607 0.03221 0.0711 0.0
O138 O 0.49778 1.01422 1.04366 0.0
O139 O 0.68632 0.11852 0.11124 0.0
O140 O 0.65785 0.08843 0.17826 0.0
C141 C 0.52481 0.14132 0.17011 0.0
O142 O 0.46375 1.00604 0.13326 0.0
O143 O 0.55147 1.01892 0.1594 0.0
C144 C 0.33298 1.01224 1.03235 0.0
C145 C 0.26361 0.94277 0.97083 0.0
C146 C 0.30614 0.93358 0.99335 0.0
C147 C 0.34075 0.96822 1.02402 0.0
C148 C 0.2879 1.01971 1.01264 0.0
C149 C 0.25309 0.98493 0.98204 0.0
C150 C 0.37615 0.05305 1.05526 0.0
C151 C 0.57677 0.16033 1.05133 0.0
C152 C 0.54329 1.00573 1.04578 0.0
C153 C 0.74045 0.15533 0.17672 0.0
C154 C 0.8025 0.23092 0.23675 0.0
C155 C 0.76855 0.23978 0.20336 0.0
C156 C 0.73739 0.20195 0.1735 0.0
C157 C 0.77731 0.14777 0.20792 0.0
C158 C 0.80815 0.18535 0.2378 0.0
C159 C 0.70006 0.11267 0.1534 0.0
H160 H 0.31487 0.90131 0.98473 0.0
H161 H 0.37564 0.96218 1.03885 0.0
H162 H 0.28172 0.05371 1.0186 0.0
H163 H 0.22058 0.99252 0.96457 0.0
H164 H 0.76368 0.27477 0.20238 0.0
H165 H 0.70894 0.20832 0.14963 0.0
H166 H 0.77985 0.11196 0.21102 0.0
H167 H 0.83418 0.17808 0.2635 0.0
Dy168 Dy 0.52979 0.5234 0.57605 0.0
Dy169 Dy 0.54941 0.62555 0.63168 0.0
C170 C 0.596 0.54882 0.67365 0.0
O171 O 0.4474 0.51288 0.60592 0.0
O172 O 0.48003 0.5671 0.66594 0.0
O173 O 0.50603 0.44458 0.57493 0.0
O174 O 0.5341 0.48585 0.51294 0.0
O175 O 0.4858 0.61849 0.57675 0.0
O176 O 0.50925 0.57122 0.52504 0.0
O177 O 0.61656 0.64553 0.57935 0.0
O178 O 0.6188 0.56913 0.56677 0.0
O179 O 0.56013 0.70218 0.63172 0.0
O180 O 0.55194 0.66404 0.69585 0.0
C181 C 0.44096 0.52987 0.64656 0.0
O182 O 0.56211 0.51526 0.64609 0.0
O183 O 0.60634 0.59579 0.66774 0.0
C184 C 0.56936 0.42504 0.52884 0.0
C185 C 0.66703 0.40742 0.52036 0.0
C186 C 0.64352 0.40588 0.5636 0.0
C187 C 0.59512 0.41471 0.56788 0.0
C188 C 0.59163 0.42395 0.4853 0.0
C189 C 0.64023 0.41532 0.4811 0.0
C190 C 0.52534 0.44462 0.53378 0.0
C191 C 0.48716 0.60357 0.53424 0.0
C192 C 0.64001 0.61688 0.56178 0.0
C193 C 0.5008 0.71359 0.68616 0.0
C194 C 0.40568 0.73166 0.70698 0.0
C195 C 0.40211 0.691 0.67985 0.0
C196 C 0.44924 0.68195 0.66969 0.0
C197 C 0.50461 0.75438 0.71327 0.0
C198 C 0.45718 0.7634 0.72364 0.0
C199 C 0.54941 0.70235 0.67532 0.0
H200 H 0.66389 0.39988 0.59421 0.0
H201 H 0.5795 0.41577 0.60201 0.0
H202 H 0.57301 0.43235 0.45478 0.0
H203 H 0.65803 0.41661 0.44748 0.0
H204 H 0.36279 0.66616 0.66676 0.0
H205 H 0.44541 0.65 0.64908 0.0
H206 H 0.54397 0.77897 0.72648 0.0
H207 H 0.46051 0.79497 0.74467 0.0
Dy208 Dy 0.05179 0.62681 0.07609 0.0
Dy209 Dy 0.03088 0.52007 0.12577 0.0
C210 C 0.98444 0.59661 0.1737 0.0
O211 O 0.12794 0.64484 0.11908 0.0
O212 O 0.11173 0.57072 0.15426 0.0
O213 O 0.06517 0.70389 0.08031 0.0
O214 O 0.05047 0.66681 1.01432 0.0
O215 O 0.06832 0.51734 1.05671 0.0
O216 O 0.10461 0.5978 1.03423 0.0
O217 O 0.94956 0.50756 0.09219 0.0
O218 O 0.97747 0.57183 1.04173 0.0
O219 O 1.01397 0.44241 0.11897 0.0
O220 O 0.03459 0.47793 0.18546 0.0
C221 C 0.14166 0.61718 0.1482 0.0
O222 O 1.00171 0.62644 0.13876 0.0
O223 O 0.98972 0.55384 0.17534 0.0
C224 C 1.00436 0.71965 1.02854 0.0
C225 C 0.90794 0.7353 1.00613 0.0
C226 C 0.91139 0.71167 1.04699 0.0
C227 C 0.95913 0.70366 1.058 0.0
C228 C 1.00125 0.74418 0.9881 0.0
C229 C 0.95325 0.75202 0.97696 0.0
C230 C 0.05153 0.70532 1.03729 0.0
C231 C 0.09762 0.55144 1.0283 0.0
C232 C 0.94115 0.53031 1.05582 0.0
C233 C 0.07799 0.42427 0.1656 0.0
C234 C 0.17734 0.41093 0.18112 0.0
C235 C 0.16786 0.43021 0.13947 0.0
C236 C 0.11865 0.43694 0.1318 0.0
C237 C 0.0869 0.40355 0.20671 0.0
C238 C 0.13629 0.39683 0.21444 0.0
C239 C 0.03086 0.4397 0.16078 0.0
H240 H 0.87674 0.69859 0.06981 0.0
H241 H 0.96013 0.68383 0.08898 0.0
H242 H 0.03531 0.75607 0.96463 0.0
H243 H 0.95109 0.77046 0.94534 0.0
H244 H 0.19921 0.44135 0.11348 0.0
H245 H 0.11321 0.45369 0.1001 0.0
H246 H 0.0566 0.39434 0.23348 0.0
H247 H 0.14313 0.3819 0.2468 0.0
C248 C 0.33081 0.27657 0.35392 0.0
C249 C 0.38756 0.30512 0.35923 0.0
C250 C 0.38362 0.28741 0.44145 0.0
C251 C 0.32761 0.2572 0.43556 0.0
N252 N 0.24404 0.23385 0.39081 0.0
N253 N 0.46491 0.34806 0.40833 0.0
C254 C 0.29988 0.25577 0.39329 0.0
C255 C 0.41289 0.31414 0.40332 0.0
N256 N 0.30735 0.26642 0.31098 0.0
N257 N 0.40906 0.28874 0.48291 0.0
H258 H 0.4869 0.36804 0.3807 0.0
H259 H 0.48442 0.35936 0.43999 0.0
H260 H 0.38787 0.27108 0.51183 0.0
H261 H 0.45115 0.30558 0.48836 0.0
H262 H 0.26822 0.24062 0.3045 0.0
H263 H 0.32807 0.2814 0.28107 0.0
H264 H 0.22089 0.2359 0.36222 0.0
H265 H 0.22023 0.21733 0.41893 0.0
C266 C 0.23304 0.9014 0.84651 0.0
C267 C 0.19731 0.85215 0.85239 0.0
C268 C 0.19573 0.86587 0.93539 0.0
C269 C 0.23714 0.91288 0.92998 0.0
N270 N 0.30047 0.97384 0.8814 0.0
N271 N 0.14553 0.78573 0.90135 0.0
C272 C 0.25687 0.9305 0.88576 0.0
C273 C 0.17842 0.83391 0.89655 0.0
N274 N 0.24396 0.92036 0.80331 0.0
N275 N 0.1728 0.85224 0.9775 0.0
H276 H 0.13079 0.76189 0.87334 0.0
H277 H 0.13524 0.76864 0.93297 0.0
H278 H 0.18509 0.87497 1.00651 0.0
H279 H 0.139 0.82029 0.98308 0.0
H280 H 0.2648 0.95747 0.79705 0.0
H281 H 0.22801 0.89984 0.77352 0.0
H282 H 0.3209 0.98545 0.85064 0.0
H283 H 0.31941 0.99669 0.90915 0.0
C284 C 0.63056 0.52164 0.79692 0.0
C285 C 0.65274 0.48533 0.78805 0.0
C286 C 0.65127 0.5013 0.70505 0.0
C287 C 0.62107 0.53184 0.71345 0.0
N288 N 0.57707 0.56728 0.76792 0.0
N289 N 0.68403 0.4395 0.73392 0.0
C290 C 0.61022 0.54174 0.7596 0.0
C291 C 0.66367 0.47531 0.74217 0.0
N292 N 0.62867 0.53666 0.8412 0.0
N293 N 0.66894 0.49784 0.6616 0.0
H294 H 0.69622 0.42174 0.76028 0.0
H295 H 0.68639 0.42573 0.70128 0.0
H296 H 0.66066 0.51629 0.63379 0.0
H297 H 0.6956 0.48022 0.65369 0.0
H298 H 0.61797 0.56633 0.84996 0.0
H299 H 0.64305 0.52228 0.86893 0.0
H300 H 0.56248 0.5708 0.80035 0.0
H301 H 0.56019 0.58166 0.74195 0.0
C302 C 0.96272 0.64076 0.2947 0.0
C303 C 0.92142 0.65972 0.28517 0.0
C304 C 0.91252 0.62585 0.20626 0.0
C305 C 0.95933 0.61345 0.21364 0.0
N306 N 0.03211 0.6128 0.26465 0.0
N307 N 0.85785 0.67222 0.23134 0.0
C308 C 0.98479 0.6212 0.25805 0.0
C309 C 0.89625 0.65241 0.24085 0.0
N310 N 0.98084 0.64148 0.33897 0.0
N311 N 0.88254 0.61073 0.16658 0.0
H312 H 0.843 0.68961 0.25631 0.0
H313 H 0.84288 0.67379 0.19837 0.0
H314 H 0.89227 0.58962 0.14177 0.0
H315 H 0.84534 0.61465 0.16029 0.0
H316 H 1.00691 0.62402 0.34936 0.0
H317 H 0.96566 0.65583 0.36618 0.0
H318 H 0.05629 0.62329 0.29431 0.0
H319 H 0.04982 0.59868 0.23913 0.0
C320 C 0.54452 0.25985 0.23534 0.0
C321 C 0.4887 0.25235 0.24245 0.0
C322 C 0.46171 0.16713 0.21672 0.0
C323 C 0.51599 0.17686 0.20234 0.0
N324 N 0.60927 0.234 0.19453 0.0
N325 N 0.3929 0.20081 0.23324 0.0
C326 C 0.55783 0.22343 0.2113 0.0
C327 C 0.44689 0.20637 0.2317 0.0
N328 N 0.58466 0.30152 0.25188 0.0
N329 N 0.42433 0.12009 0.21621 0.0
H330 H 0.37982 0.22896 0.24256 0.0
H331 H 0.36117 0.16962 0.22095 0.0
H332 H 0.4343 0.09038 0.20592 0.0
H333 H 0.38553 0.11007 0.23044 0.0
H334 H 0.62612 0.3069 0.25192 0.0
H335 H 0.57606 0.32901 0.26919 0.0
H336 H 0.63951 0.26903 0.19525 0.0
H337 H 0.62076 0.20852 0.17682 0.0
C338 C 0.09403 0.89653 0.65516 0.0
C339 C 0.06757 0.87138 0.69466 0.0
C340 C 0.03227 0.93616 0.71126 0.0
C341 C 0.06121 0.96282 0.67291 0.0
N342 N 0.1286 0.97211 0.61338 0.0
N343 N 0.0173 0.86861 0.76389 0.0
C344 C 0.09502 0.94433 0.64655 0.0
C345 C 0.03837 0.89161 0.72383 0.0
N346 N 0.11663 0.87389 0.6247 0.0
N347 N 0.99861 0.95332 0.73544 0.0
H348 H 0.01928 0.83506 0.77306 0.0
H349 H 1.00079 0.88388 0.78931 0.0
H350 H 0.99665 0.98765 0.72983 0.0
H351 H 0.97099 0.93293 0.75982 0.0
H352 H 0.1298 0.88732 0.59213 0.0
H353 H 0.11794 0.8393 0.63012 0.0
H354 H 0.15907 0.96293 0.59785 0.0
H355 H 0.13009 1.00638 0.60353 0.0
C356 C 0.79975 0.49897 0.99876 0.0
C357 C 0.79627 0.45791 0.97102 0.0
C358 C 0.88773 0.46469 0.99863 0.0
C359 C 0.89147 0.50603 1.02613 0.0
N360 N 0.85742 0.56989 1.04337 0.0
N361 N 0.84159 0.40922 0.93584 0.0
C362 C 0.84953 0.52561 1.0232 0.0
C363 C 0.84187 0.44318 0.96833 0.0
N364 N 0.7547 0.51117 1.00348 0.0
N365 N 0.92795 0.44576 1.0016 0.0
H366 H 0.80898 0.39349 0.91275 0.0
H367 H 0.87532 0.40002 0.92873 0.0
H368 H 0.96382 0.4621 1.02097 0.0
H369 H 0.9246 0.41234 0.98694 0.0
H370 H 0.75237 0.53691 1.02731 0.0
H371 H 0.71807 0.49324 0.98552 0.0
H372 H 0.83083 0.58841 1.03889 0.0
H373 H 0.89304 0.59024 0.0616 0.0
C374 C 0.78557 0.6526 0.51356 0.0
C375 C 0.78308 0.68229 0.47601 0.0
C376 C 0.68517 0.66295 0.49098 0.0
C377 C 0.68939 0.63853 0.53203 0.0
N378 N 0.74485 0.61318 0.58463 0.0
N379 N 0.73184 0.71985 0.43134 0.0
C380 C 0.73984 0.63366 0.54366 0.0
C381 C 0.73309 0.68827 0.4652 0.0
N382 N 0.83188 0.64265 0.52029 0.0
N383 N 0.6349 0.66044 0.47551 0.0
H384 H 0.76506 0.73746 0.41023 0.0
H385 H 0.69907 0.73109 0.42605 0.0
H386 H 0.59875 0.64191 0.49287 0.0
H387 H 0.62822 0.67272 0.44338 0.0
H388 H 0.83531 0.61799 0.54443 0.0
H389 H 0.86567 0.65621 0.49882 0.0
H390 H 0.78163 0.61245 0.59743 0.0
H391 H 0.71286 0.60024 0.60787 0.0
C392 C 0.29636 0.36704 0.17575 0.0
C393 C 0.33612 0.40349 0.20309 0.0
C394 C 0.27225 0.44533 0.21545 0.0
C395 C 0.23139 0.40739 0.19024 0.0
N396 N 0.20088 0.3286 0.1521 0.0
N397 N 0.36033 0.47255 0.25521 0.0
C398 C 0.24241 0.36716 0.17202 0.0
C399 C 0.32359 0.44125 0.22485 0.0
N400 N 0.31059 0.33295 0.15255 0.0
N401 N 0.26259 0.48603 0.229 0.0
H402 H 0.39871 0.47109 0.26218 0.0
H403 H 0.35135 0.49747 0.27605 0.0
H404 H 0.2252 0.49 0.22344 0.0
H405 H 0.29271 0.51741 0.24275 0.0
H406 H 0.28557 0.30885 0.12797 0.0
H407 H 0.34923 0.33082 0.15554 0.0
H408 H 0.20457 0.29581 0.14247 0.0
H409 H 0.16105 0.32782 0.14831 0.0
C410 C 0.61086 0.29405 1.01738 0.0
C411 C 0.64101 0.29661 0.97667 0.0
C412 C 0.62291 0.20829 0.98171 0.0
C413 C 0.59714 0.2068 1.02468 0.0
N414 N 0.57005 0.24888 0.08556 0.0
N415 N 0.68109 0.2581 0.92214 0.0
C416 C 0.59216 0.24992 1.0431 0.0
C417 C 0.64818 0.25413 0.9592 0.0
N418 N 0.59869 0.33355 1.0307 0.0
N419 N 0.62319 0.16582 0.96242 0.0
H420 H 0.69953 0.29075 0.90446 0.0
H421 H 0.69331 0.23016 0.91068 0.0
H422 H 0.60743 0.13209 0.97879 0.0
H423 H 0.6357 0.16322 0.92901 0.0
H424 H 0.57188 0.33266 1.05707 0.0
H425 H 0.61196 0.3665 1.01292 0.0
H426 H 0.57179 0.28006 0.10376 0.0
H427 H 0.55245 0.21679 0.104 0.0
C428 C 0.98506 0.8759 0.47456 0.0
C429 C 0.92746 0.84952 0.47232 0.0
C430 C 0.91563 0.9134 0.52097 0.0
C431 C 0.97212 0.9436 0.51695 0.0
N432 N 0.05625 0.95657 0.47608 0.0
N433 N 0.83796 0.85401 0.4814 0.0
C434 C 1.00568 0.92581 0.48963 0.0
C435 C 0.8927 0.87169 0.49165 0.0
N436 N 0.0205 0.85324 0.46434 0.0
N437 N 0.88418 0.92176 0.55461 0.0
H438 H 0.81998 0.82581 0.4575 0.0
H439 H 0.81215 0.87149 0.49246 0.0
H440 H 0.90013 0.94726 0.58109 0.0
H441 H 0.84384 0.89821 0.56003 0.0
H442 H 0.06274 0.87027 0.46933 0.0
H443 H 1.00749 0.81604 0.45615 0.0
H444 H 0.08017 0.9455 0.45355 0.0
H445 H 0.07091 0.99427 0.48201 0.0
C446 C 0.29901 0.79083 0.70862 0.0
C447 C 0.25984 0.75924 0.73886 0.0
C448 C 0.3173 0.71074 0.74972 0.0
C449 C 0.35511 0.74085 0.71767 0.0
N450 N 0.37693 0.80304 0.65961 0.0
N451 N 0.22606 0.68454 0.78182 0.0
C452 C 0.34444 0.77899 0.695 0.0
C453 C 0.26725 0.71765 0.75737 0.0
N454 N 0.294 0.83323 0.6944 0.0
N455 N 0.33028 0.67691 0.77418 0.0
H456 H 0.18909 0.68885 0.78814 0.0
H457 H 0.22645 0.65092 0.79241 0.0
H458 H 0.36662 0.67092 0.76967 0.0
H459 H 0.30724 0.65745 0.80146 0.0
H460 H 0.32464 0.86063 0.67708 0.0
H461 H 0.26075 0.84282 0.7027 0.0
H462 H 0.36776 0.82745 0.63844 0.0
H463 H 0.41074 0.79554 0.64876 0.0
C464 C 0.72896 0.88953 0.8519 0.0
C465 C 0.69594 0.83961 0.84636 0.0
C466 C 0.69918 0.84768 0.76269 0.0
C467 C 0.73755 0.89637 0.76846 0.0
N468 N 0.79397 0.96284 0.81795 0.0
N469 N 0.64943 0.76919 0.79828 0.0
C470 C 0.75341 0.91745 0.81298 0.0
C471 C 0.68057 0.81804 0.80218 0.0
N472 N 0.73594 0.90884 0.8953 0.0
N473 N 0.68049 0.8303 0.71957 0.0
H474 H 0.63386 0.74735 0.82682 0.0
H475 H 0.64088 0.74977 0.76729 0.0
H476 H 0.69382 0.85132 0.69019 0.0
H477 H 0.64935 0.79656 0.71293 0.0
H478 H 0.75616 0.94581 0.90359 0.0
H479 H 0.75616 0.94581 0.90359 0.0
H480 H 0.81248 0.97753 0.84924 0.0
H481 H 0.8126 0.98487 0.79031 0.0
C482 C 0.82608 0.27779 0.35802 0.0
C483 C 0.88258 0.30782 0.35665 0.0
C484 C 0.88246 0.29822 0.27307 0.0
C485 C 0.82692 0.26605 0.27488 0.0
N486 N 0.74146 0.23673 0.31533 0.0
N487 N 0.96052 0.3577 0.3135 0.0
C488 C 0.79718 0.26011 0.31617 0.0
C489 C 0.90939 0.3219 0.31417 0.0
N490 N 0.80104 0.26338 0.3993 0.0
N491 N 0.90983 0.30417 0.23252 0.0
H492 H 0.98094 0.37526 0.3434 0.0
H493 H 0.98036 0.37302 0.28344 0.0
H494 H 0.89023 0.28879 0.20163 0.0
H495 H 0.95196 0.32262 0.22971 0.0
H496 H 0.76206 0.23657 0.40255 0.0
H497 H 0.8204 0.27597 0.43086 0.0
H498 H 0.7168 0.23538 0.34346 0.0
H499 H 0.7192 0.22252 0.28522 0.0
C500 C 0.42105 0.62222 0.42038 0.0
C501 C 0.43881 0.67406 0.41948 0.0
C502 C 0.4891 0.67943 0.49222 0.0
C503 C 0.46838 0.62743 0.49536 0.0
N504 N 0.40585 0.5495 0.46618 0.0
N505 N 0.47778 0.75105 0.46045 0.0
C506 C 0.43176 0.5988 0.46043 0.0
C507 C 0.4686 0.70219 0.4575 0.0
N508 N 0.39496 0.59544 0.38267 0.0
N509 N 0.53173 0.70733 0.51991 0.0
H510 H 0.46344 0.76907 0.43572 0.0
H511 H 0.49452 0.77234 0.48962 0.0
H512 H 0.55143 0.69234 0.54305 0.0
H513 H 0.55203 0.74493 0.51593 0.0
H514 H 0.38633 0.55804 0.37888 0.0
H515 H 0.38481 0.61148 0.3539 0.0
H516 H 0.37505 0.52724 0.44416 0.0
H517 H 0.41158 0.53153 0.4954 0.0
C518 C 0.16928 0.48627 0.95258 0.0
C519 C 0.14993 0.49191 0.90809 0.0
C520 C 0.10076 0.54096 0.94151 0.0
C521 C 0.12024 0.53561 0.98626 0.0
N522 N 0.1832 0.51301 1.03257 0.0
N523 N 0.10891 0.53416 0.85866 0.0
C524 C 0.15767 0.51121 0.99115 0.0
C525 C 0.11969 0.52263 0.90214 0.0
N526 N 0.19723 0.45565 0.95822 0.0
N527 N 0.06132 0.56057 0.9367 0.0
H528 H 0.12212 0.52108 0.82946 0.0
H529 H 0.09174 0.56012 0.85163 0.0
H530 H 0.04571 0.57383 0.96429 0.0
H531 H 0.04076 0.56017 0.90584 0.0
H532 H 0.20662 0.4449 0.99018 0.0
H533 H 0.20875 0.43896 0.93055 0.0
H534 H 0.21476 0.5002 1.0378 0.0
H535 H 0.17595 0.53144 0.06093 0.0
C536 C 0.60749 0.92384 0.99043 0.0
C537 C 0.56573 0.87705 0.99565 0.0
C538 C 0.50444 0.91443 1.02703 0.0
C539 C 0.54621 0.96187 1.02156 0.0
N540 N 0.62972 1.01131 0.98434 0.0
N541 N 0.47021 0.82839 1.0051 0.0
C542 C 0.59529 0.96639 0.99872 0.0
C543 C 0.51265 0.87267 1.00897 0.0
N544 N 0.65931 0.92775 0.97929 0.0
N545 N 0.45923 0.90812 1.05292 0.0
H546 H 0.4753 0.79699 0.99259 0.0
H547 H 0.42943 0.82404 1.00985 0.0
H548 H 0.4516 0.93635 0.06931 0.0
H549 H 0.43158 0.8738 0.06235 0.0
H550 H 0.69281 0.96083 0.97999 0.0
H551 H 0.66954 0.89736 0.97249 0.0
H552 H 0.66382 1.01638 0.9641 0.0
H553 H 0.62068 0.0428 0.98843 0.0
C554 C 0.03822 0.25738 0.48044 0.0
C555 C 0.98226 0.24831 0.47089 0.0
C556 C 0.95829 0.16185 0.48937 0.0
C557 C 1.0121 0.17263 0.5065 0.0
N558 N 0.10361 0.2315 0.52099 0.0
N559 N 0.88733 0.19313 0.47262 0.0
C560 C 0.05256 0.22048 0.50215 0.0
C561 C 0.94179 0.20072 0.47661 0.0
N562 N 0.07754 0.301 0.46832 0.0
N563 N 0.92298 0.11418 0.48533 0.0
H564 H 0.87295 0.22084 0.46494 0.0
H565 H 0.8562 0.16034 0.4813 0.0
H566 H 0.93449 0.08486 0.49379 0.0
H567 H 0.88475 0.10368 0.46915 0.0
H568 H 0.11936 0.30798 0.47019 0.0
H569 H 0.06819 0.32878 0.45263 0.0
H570 H 0.1324 0.26708 0.52414 0.0
H571 H 0.11624 0.2054 0.53605 0.0
C572 C 0.23742 0.69942 0.24092 0.0
C573 C 0.28546 0.68907 0.23444 0.0
C574 C 0.2358 0.62477 0.17788 0.0
C575 C 0.19064 0.64045 0.17907 0.0
N576 N 0.14748 0.69216 0.2128 0.0
N577 N 0.33221 0.64391 0.1951 0.0
C578 C 0.19117 0.67758 0.21104 0.0
C579 C 0.28491 0.65178 0.20293 0.0
N580 N 0.23594 0.72958 0.27648 0.0
N581 N 0.23191 0.58406 0.15288 0.0
H582 H 0.36846 0.66196 0.21352 0.0
H583 H 0.33659 0.62178 0.16853 0.0
H584 H 0.19784 0.56449 0.13267 0.0
H585 H 0.26055 0.56738 0.15494 0.0
H586 H 0.20085 0.73536 0.28632 0.0
H587 H 0.26901 0.74557 0.29908 0.0
H588 H 0.14796 0.72305 0.23079 0.0
H589 H 0.11095 0.67459 0.19463 0.0
C590 C 0.29226 0.48769 0.68733 0.0
C591 C 0.29459 0.46051 0.72699 0.0
C592 C 0.39201 0.47706 0.71251 0.0
C593 C 0.39 0.5051 0.67338 0.0
N594 N 0.34167 0.54508 0.62856 0.0
N595 N 0.34812 0.43634 0.78213 0.0
C596 C 0.34106 0.51273 0.66226 0.0
C597 C 0.34511 0.45759 0.74109 0.0
N598 N 0.24286 0.48817 0.67278 0.0
N599 N 0.43821 0.46741 0.72131 0.0
H600 H 0.31442 0.4215 0.80347 0.0
H601 H 0.38455 0.43697 0.79698 0.0
H602 H 0.47323 0.48099 0.70132 0.0
H603 H 0.44076 0.44307 0.74616 0.0
H604 H 0.23676 0.50196 0.64124 0.0
H605 H 0.20698 0.47236 0.69144 0.0
H606 H 0.30946 0.55678 0.62223 0.0
H607 H 0.37618 0.56314 0.60893 0.0
C608 C 0.76446 0.71215 0.95842 0.0
C609 C 0.76073 0.75825 0.96795 0.0
C610 C 0.85203 0.78793 1.00412 0.0
C611 C 0.85657 0.74247 0.99384 0.0
N612 N 0.81638 0.65903 0.96613 0.0
N613 N 0.80169 0.84039 1.00099 0.0
C614 C 0.81239 0.70376 0.97248 0.0
C615 C 0.80413 0.7958 0.99128 0.0
N616 N 0.72287 0.67727 0.9345 0.0
N617 N 0.89376 0.82429 1.02639 0.0
H618 H 0.76847 0.8503 0.99285 0.0
H619 H 0.76847 0.8503 0.99285 0.0
H620 H 0.92988 0.82039 1.03718 0.0
H621 H 0.89186 0.8583 1.0344 0.0
H622 H 0.72451 0.64458 0.92214 0.0
H623 H 0.68655 0.68179 0.92541 0.0
H624 H 0.78426 0.62765 0.95499 0.0
H625 H 0.85181 0.65245 0.97402 0.0
C626 C 0.41222 0.89031 0.2369 0.0
C627 C 0.43488 0.85399 0.22879 0.0
C628 C 0.49884 0.90817 0.17336 0.0
C629 C 0.47775 0.94544 0.18291 0.0
N630 N 0.4222 0.97551 0.23039 0.0
N631 N 0.50355 0.82974 0.19339 0.0
C632 C 0.43634 0.93734 0.21636 0.0
C633 C 0.47948 0.86351 0.19837 0.0
N634 N 0.36724 0.8797 0.26411 0.0
N635 N 0.53554 0.91435 0.13876 0.0
H636 H 0.4883 0.79519 0.20823 0.0
H637 H 0.5406 0.8368 0.17688 0.0
H638 H 0.5519 0.94646 0.12018 0.0
H639 H 0.54688 0.88647 0.12572 0.0
H640 H 0.34436 0.90187 0.26672 0.0
H641 H 0.35057 0.84708 0.28215 0.0
H642 H 0.39665 0.97377 0.25796 0.0
H643 H 0.44012 1.0107 0.21724 0.0
C644 C 0.14791 0.25539 0.74234 0.0
C645 C 0.14151 0.29737 0.72328 0.0
C646 C 0.08441 0.24614 0.66073 0.0
C647 C 0.09491 0.20508 0.67734 0.0
N648 N 0.14027 0.1709 0.73152 0.0
N649 N 0.10799 0.33422 0.66226 0.0
C650 C 0.12737 0.20971 0.71772 0.0
C651 C 0.11093 0.29311 0.68187 0.0
N652 N 0.17343 0.25921 0.78416 0.0
N653 N 0.04737 0.23985 0.62569 0.0
H654 H 0.12407 0.3688 0.67785 0.0
H655 H 0.09269 0.33485 0.62924 0.0
H656 H 0.0265 0.20597 0.61016 0.0
H657 H 0.03347 0.26685 0.61469 0.0
H658 H 0.17432 0.22929 0.80254 0.0
H659 H 0.19091 0.29232 0.80214 0.0
H660 H 0.16874 0.1731 0.75737 0.0
H661 H 0.12487 0.13673 0.71508 0.0
C662 C 0.77893 0.35469 0.5141 0.0
C663 C 0.8263 0.39839 0.51347 0.0
C664 C 0.76939 0.4479 0.51866 0.0
C665 C 0.72183 0.40425 0.51675 0.0
N666 N 0.67993 0.31676 0.50613 0.0
N667 N 0.86769 0.48623 0.50815 0.0
C668 C 0.7262 0.35777 0.51254 0.0
C669 C 0.82186 0.44495 0.5137 0.0
N670 N 0.78444 0.31032 0.51735 0.0
N671 N 0.76437 0.492 0.52645 0.0
H672 H 0.90687 0.48535 0.5054 0.0
H673 H 0.86668 0.52088 0.50294 0.0
H674 H 0.72662 0.49587 0.52902 0.0
H675 H 0.79744 0.52437 0.5335 0.0
H676 H 0.75188 0.27748 0.52293 0.0
H677 H 0.82237 0.30654 0.51756 0.0
H678 H 0.68039 0.28244 0.49777 0.0
H679 H 0.64061 0.31765 0.50584 0.0
loop_
_geom_bond_atom_site_label_1
_geom_bond_atom_site_label_2
_geom_bond_distance
_geom_bond_site_symmetry_2
_ccdc_geom_bond_type
H0 C3 0.929 . S
H1 C6 0.929 . S
H2 C8 0.930 . S
C3 H0 0.929 . S
C3 C4 1.398 . S
C3 C5 1.396 . S
C4 C3 1.398 . S
C4 C8 1.407 . S
C5 C3 1.396 . S
C5 C6 1.394 . S
C6 H1 0.929 . S
C6 C5 1.394 . S
C6 C7 1.382 . S
C7 C6 1.382 . S
C7 C8 1.392 . S
C7 N9 1.420 . S
C8 H2 0.930 . S
C8 C4 1.407 . S
C8 C7 1.392 . S
N9 C7 1.420 . S
N9 C10 1.244 . S
C10 N9 1.244 . S
H11 C14 0.929 . S
H12 C17 0.929 . S
H13 C19 0.930 . S
C14 H11 0.929 . S
C14 C15 1.398 . S
C14 C16 1.396 . S
C15 C14 1.398 . S
C15 C19 1.407 . S
C16 C14 1.396 . S
C16 C17 1.394 . S
C17 H12 0.929 . S
C17 C16 1.394 . S
C17 C18 1.382 . S
C18 C17 1.382 . S
C18 C19 1.392 . S
C18 N20 1.420 . S
C19 H13 0.930 . S
C19 C15 1.407 . S
C19 C18 1.392 . S
N20 C18 1.420 . S
N20 C21 1.244 . S
C21 N20 1.244 . S
H22 C25 0.929 . S
H23 C28 0.929 . S
H24 C30 0.930 . S
C25 H22 0.929 . S
C25 C26 1.398 . S
C25 C27 1.396 . S
C26 C25 1.398 . S
C26 C30 1.407 . S
C27 C25 1.396 . S
C27 C28 1.394 . S
C28 H23 0.929 . S
C28 C27 1.394 . S
C28 C29 1.382 . S
C29 C28 1.382 . S
C29 C30 1.392 . S
C29 N31 1.420 . S
C30 H24 0.930 . S
C30 C26 1.407 . S
C30 C29 1.392 . S
N31 C29 1.420 . S
N31 C32 1.244 . S
C32 N31 1.244 . S
H33 C36 0.929 . S
H34 C39 0.929 . S
H35 C41 0.930 . S
C36 H33 0.929 . S
C36 C37 1.398 . S
C36 C38 1.396 . S
C37 C36 1.398 . S
C37 C41 1.407 . S
C38 C36 1.396 . S
C38 C39 1.394 . S
C39 H34 0.929 . S
C39 C38 1.394 . S
C39 C40 1.382 . S
C40 C39 1.382 . S
C40 C41 1.392 . S
C40 N42 1.420 . S
C41 H35 0.930 . S
C41 C37 1.407 . S
C41 C40 1.392 . S
N42 C40 1.420 . S
N42 C43 1.244 . S
C43 N42 1.244 . S
H44 C47 0.929 . S
H45 C50 0.929 . S
H46 C52 0.930 . S
C47 H44 0.929 . S
C47 C48 1.398 . S
C47 C49 1.396 . S
C48 C47 1.398 . S
C48 C52 1.407 . S
C49 C47 1.396 . S
C49 C50 1.394 . S
C50 H45 0.929 . S
C50 C49 1.394 . S
C50 C51 1.382 . S
C51 C50 1.382 . S
C51 C52 1.392 . S
C51 N53 1.420 . S
C52 H46 0.930 . S
C52 C48 1.407 . S
C52 C51 1.392 . S
N53 C51 1.420 . S
N53 C54 1.244 . S
C54 N53 1.244 . S
H55 C58 0.929 . S
H56 C61 0.929 . S
H57 C63 0.930 . S
C58 H55 0.929 . S
C58 C59 1.398 . S
C58 C60 1.396 . S
C59 C58 1.398 . S
C59 C63 1.407 . S
C60 C58 1.396 . S
C60 C61 1.394 . S
C61 H56 0.929 . S
C61 C60 1.394 . S
C61 C62 1.382 . S
C62 C61 1.382 . S
C62 C63 1.392 . S
C62 N64 1.420 . S
C63 H57 0.930 . S
C63 C59 1.407 . S
C63 C62 1.392 . S
N64 C62 1.420 . S
N64 C65 1.244 . S
C65 N64 1.244 . S
H66 C69 0.929 . S
H67 C72 0.929 . S
H68 C74 0.930 . S
C69 H66 0.929 . S
C69 C70 1.398 . S
C69 C71 1.396 . S
C70 C69 1.398 . S
C70 C74 1.407 . S
C71 C69 1.396 . S
C71 C72 1.394 . S
C72 H67 0.929 . S
C72 C71 1.394 . S
C72 C73 1.382 . S
C73 C72 1.382 . S
C73 C74 1.392 . S
C73 N75 1.420 . S
C74 H68 0.930 . S
C74 C70 1.407 . S
C74 C73 1.392 . S
N75 C73 1.420 . S
N75 C76 1.244 . S
C76 N75 1.244 . S
H77 C80 0.929 . S
H78 C83 0.929 . S
H79 C85 0.930 . S
C80 H77 0.929 . S
C80 C81 1.398 . S
C80 C82 1.396 . S
C81 C80 1.398 . S
C81 C85 1.407 . S
C82 C80 1.396 . S
C82 C83 1.394 . S
C83 H78 0.929 . S
C83 C82 1.394 . S
C83 C84 1.382 . S
C84 C83 1.382 . S
C84 C85 1.392 . S
C84 N86 1.420 . S
C85 H79 0.930 . S
C85 C81 1.407 . S
C85 C84 1.392 . S
N86 C84 1.420 . S
N86 C87 1.244 . S
C87 N86 1.244 . S
Dy88 O91 2.307 1_545 S
Dy88 O93 2.395 . S
Dy88 O94 2.379 . S
Dy88 O96 2.339 1_545 S
Dy88 O98 2.298 . S
Dy88 O102 2.275 . S
Dy88 C110 2.738 . S
Dy89 O92 2.298 1_645 S
Dy89 O95 2.275 1_545 S
Dy89 O97 2.307 . S
Dy89 O99 2.395 1_545 S
Dy89 O100 2.379 1_545 S
Dy89 O103 2.339 1_655 S
Dy89 C119 2.738 1_545 S
C90 O102 1.254 . S
C90 O103 1.257 . S
O91 Dy88 2.307 1_565 S
O91 C101 1.266 . S
O92 Dy89 2.298 1_465 S
O92 C101 1.236 . S
O93 Dy88 2.395 . S
O93 C110 1.255 . S
O94 Dy88 2.379 . S
O94 C110 1.249 . S
O95 Dy89 2.275 1_565 S
O95 C111 1.254 . S
O96 Dy88 2.339 1_565 S
O96 C111 1.257 1_455 S
O97 Dy89 2.307 . S
O97 C112 1.266 . S
O98 Dy88 2.298 . S
O98 C112 1.236 1_455 S
O99 Dy89 2.395 1_565 S
O99 C119 1.255 . S
O100 Dy89 2.379 1_565 S
O100 C119 1.249 . S
C101 O91 1.266 . S
C101 O92 1.236 . S
O102 Dy88 2.275 . S
O102 C90 1.254 . S
O103 Dy89 2.339 1_455 S
O103 C90 1.257 . S
C104 C107 1.344 . S
C104 C108 1.328 . S
C104 C110 1.516 . S
C105 C106 1.304 . S
C105 C109 1.323 . S
C106 C105 1.304 . S
C106 C107 1.371 . S
C106 H120 0.930 . S
C107 C104 1.344 . S
C107 C106 1.371 . S
C107 H121 0.931 . S
C108 C104 1.328 . S
C108 C109 1.433 . S
C108 H122 0.931 . S
C109 C105 1.323 . S
C109 C108 1.433 . S
C109 H123 0.933 . S
C110 Dy88 2.738 . S
C110 O93 1.255 . S
C110 O94 1.249 . S
C110 C104 1.516 . S
C111 O95 1.254 . S
C111 O96 1.257 1_655 S
C112 O97 1.266 . S
C112 O98 1.236 1_655 S
C113 C116 1.344 . S
C113 C117 1.328 . S
C113 C119 1.516 . S
C114 C115 1.304 . S
C114 C118 1.323 . S
C115 C114 1.304 . S
C115 C116 1.371 . S
C115 H124 0.930 . S
C116 C113 1.344 . S
C116 C115 1.371 . S
C116 H125 0.931 . S
C117 C113 1.328 . S
C117 C118 1.433 . S
C117 H126 0.931 . S
C118 C114 1.323 . S
C118 C117 1.433 . S
C118 H127 0.933 . S
C119 Dy89 2.738 1_565 S
C119 O99 1.255 . S
C119 O100 1.249 . S
C119 C113 1.516 . S
H120 C106 0.930 . S
H121 C107 0.931 . S
H122 C108 0.931 . S
H123 C109 0.933 . S
H124 C115 0.930 . S
H125 C116 0.931 . S
H126 C117 0.931 . S
H127 C118 0.933 . S
Dy128 O131 2.307 . S
Dy128 O133 2.395 1_544 S
Dy128 O134 2.379 1_544 S
Dy128 O136 2.339 1_554 S
Dy128 O138 2.298 1_544 S
Dy128 O142 2.275 1_545 S
Dy128 C150 2.738 1_544 S
Dy129 O132 2.298 . S
Dy129 O135 2.275 . S
Dy129 O137 2.307 1_545 S
Dy129 O139 2.395 . S
Dy129 O140 2.379 . S
Dy129 O143 2.339 1_545 S
Dy129 C159 2.738 . S
C130 O142 1.254 . S
C130 O143 1.257 . S
O131 Dy128 2.307 . S
O131 C141 1.266 . S
O132 Dy129 2.298 . S
O132 C141 1.236 . S
O133 Dy128 2.395 1_566 S
O133 C150 1.255 . S
O134 Dy128 2.379 1_566 S
O134 C150 1.249 . S
O135 Dy129 2.275 . S
O135 C151 1.254 . S
O136 Dy128 2.339 1_556 S
O136 C151 1.257 1_556 S
O137 Dy129 2.307 1_565 S
O137 C152 1.266 . S
O138 Dy128 2.298 1_566 S
O138 C152 1.236 1_556 S
O139 Dy129 2.395 . S
O139 C159 1.255 . S
O140 Dy129 2.379 . S
O140 C159 1.249 . S
C141 O131 1.266 . S
C141 O132 1.236 . S
O142 Dy128 2.275 1_565 S
O142 C130 1.254 . S
O143 Dy129 2.339 1_565 S
O143 C130 1.257 . S
C144 C147 1.344 . S
C144 C148 1.328 . S
C144 C150 1.516 . S
C145 C146 1.304 . S
C145 C149 1.323 . S
C146 C145 1.304 . S
C146 C147 1.371 . S
C146 H160 0.930 . S
C147 C144 1.344 . S
C147 C146 1.371 . S
C147 H161 0.931 . S
C148 C144 1.328 . S
C148 C149 1.433 . S
C148 H162 0.931 . S
C149 C145 1.323 . S
C149 C148 1.433 . S
C149 H163 0.933 . S
C150 Dy128 2.738 1_566 S
C150 O133 1.255 . S
C150 O134 1.249 . S
C150 C144 1.516 . S
C151 O135 1.254 . S
C151 O136 1.257 1_554 S
C152 O137 1.266 . S
C152 O138 1.236 1_554 S
C153 C156 1.344 . S
C153 C157 1.328 . S
C153 C159 1.516 . S
C154 C155 1.304 . S
C154 C158 1.323 . S
C155 C154 1.304 . S
C155 C156 1.371 . S
C155 H164 0.930 . S
C156 C153 1.344 . S
C156 C155 1.371 . S
C156 H165 0.931 . S
C157 C153 1.328 . S
C157 C158 1.433 . S
C157 H166 0.931 . S
C158 C154 1.323 . S
C158 C157 1.433 . S
C158 H167 0.933 . S
C159 Dy129 2.738 . S
C159 O139 1.255 . S
C159 O140 1.249 . S
C159 C153 1.516 . S
H160 C146 0.930 . S
H161 C147 0.931 . S
H162 C148 0.931 . S
H163 C149 0.933 . S
H164 C155 0.930 . S
H165 C156 0.931 . S
H166 C157 0.931 . S
H167 C158 0.933 . S
Dy168 O171 2.307 . S
Dy168 O173 2.395 . S
Dy168 O174 2.379 . S
Dy168 O176 2.339 . S
Dy168 O178 2.298 . S
Dy168 O182 2.275 . S
Dy168 C190 2.738 . S
Dy169 O172 2.298 . S
Dy169 O175 2.275 . S
Dy169 O177 2.307 . S
Dy169 O179 2.395 . S
Dy169 O180 2.379 . S
Dy169 O183 2.339 . S
Dy169 C199 2.738 . S
C170 O182 1.254 . S
C170 O183 1.257 . S
O171 Dy168 2.307 . S
O171 C181 1.266 . S
O172 Dy169 2.298 . S
O172 C181 1.236 . S
O173 Dy168 2.395 . S
O173 C190 1.255 . S
O174 Dy168 2.379 . S
O174 C190 1.249 . S
O175 Dy169 2.275 . S
O175 C191 1.254 . S
O176 Dy168 2.339 . S
O176 C191 1.257 . S
O177 Dy169 2.307 . S
O177 C192 1.266 . S
O178 Dy168 2.298 . S
O178 C192 1.236 . S
O179 Dy169 2.395 . S
O179 C199 1.255 . S
O180 Dy169 2.379 . S
O180 C199 1.249 . S
C181 O171 1.266 . S
C181 O172 1.236 . S
O182 Dy168 2.275 . S
O182 C170 1.254 . S
O183 Dy169 2.339 . S
O183 C170 1.257 . S
C184 C187 1.344 . S
C184 C188 1.328 . S
C184 C190 1.516 . S
C185 C186 1.304 . S
C185 C189 1.323 . S
C186 C185 1.304 . S
C186 C187 1.371 . S
C186 H200 0.930 . S
C187 C184 1.344 . S
C187 C186 1.371 . S
C187 H201 0.931 . S
C188 C184 1.328 . S
C188 C189 1.433 . S
C188 H202 0.931 . S
C189 C185 1.323 . S
C189 C188 1.433 . S
C189 H203 0.933 . S
C190 Dy168 2.738 . S
C190 O173 1.255 . S
C190 O174 1.249 . S
C190 C184 1.516 . S
C191 O175 1.254 . S
C191 O176 1.257 . S
C192 O177 1.266 . S
C192 O178 1.236 . S
C193 C196 1.344 . S
C193 C197 1.328 . S
C193 C199 1.516 . S
C194 C195 1.304 . S
C194 C198 1.323 . S
C195 C194 1.304 . S
C195 C196 1.371 . S
C195 H204 0.930 . S
C196 C193 1.344 . S
C196 C195 1.371 . S
C196 H205 0.931 . S
C197 C193 1.328 . S
C197 C198 1.433 . S
C197 H206 0.931 . S
C198 C194 1.323 . S
C198 C197 1.433 . S
C198 H207 0.933 . S
C199 Dy169 2.738 . S
C199 O179 1.255 . S
C199 O180 1.249 . S
C199 C193 1.516 . S
H200 C186 0.930 . S
H201 C187 0.931 . S
H202 C188 0.931 . S
H203 C189 0.933 . S
H204 C195 0.930 . S
H205 C196 0.931 . S
H206 C197 0.931 . S
H207 C198 0.933 . S
Dy208 O211 2.307 1_556 S
Dy208 O213 2.395 1_455 S
Dy208 O214 2.379 . S
Dy208 O216 2.339 . S
Dy208 O218 2.298 1_455 S
Dy208 O222 2.275 1_556 S
Dy208 C230 2.738 1_455 S
Dy209 O212 2.298 . S
Dy209 O215 2.275 1_554 S
Dy209 O217 2.307 1_455 S
Dy209 O219 2.395 . S
Dy209 O220 2.379 . S
Dy209 O223 2.339 . S
Dy209 C239 2.738 . S
C210 O222 1.259 . S
C210 O223 1.266 . S
O211 Dy208 2.307 1_554 S
O211 C221 1.266 . S
O212 Dy209 2.298 . S
O212 C221 1.236 . S
O213 Dy208 2.395 1_655 S
O213 C230 1.255 . S
O214 Dy208 2.379 . S
O214 C230 1.249 1_455 S
O215 Dy209 2.275 1_556 S
O215 C231 1.254 . S
O216 Dy208 2.339 . S
O216 C231 1.257 . S
O217 Dy209 2.307 1_655 S
O217 C232 1.266 1_554 S
O218 Dy208 2.298 1_655 S
O218 C232 1.236 . S
O219 Dy209 2.395 . S
O219 C239 1.255 . S
O220 Dy209 2.379 . S
O220 C239 1.249 . S
C221 O211 1.266 . S
C221 O212 1.236 . S
O222 Dy208 2.275 1_554 S
O222 C210 1.259 . S
O223 Dy209 2.339 . S
O223 C210 1.266 . S
C224 C227 1.344 . S
C224 C228 1.328 . S
C224 C230 1.516 . S
C225 C226 1.304 . S
C225 C229 1.323 . S
C226 C225 1.304 . S
C226 C227 1.371 . S
C226 H240 0.930 . S
C227 C224 1.344 . S
C227 C226 1.371 . S
C227 H241 0.931 . S
C228 C224 1.328 . S
C228 C229 1.433 . S
C228 H242 0.931 . S
C229 C225 1.323 . S
C229 C228 1.433 . S
C229 H243 0.933 . S
C230 Dy208 2.738 1_655 S
C230 O213 1.255 . S
C230 O214 1.249 1_655 S
C230 C224 1.516 . S
C231 O215 1.254 . S
C231 O216 1.257 . S
C232 O217 1.266 1_556 S
C232 O218 1.236 . S
C233 C236 1.344 . S
C233 C237 1.328 . S
C233 C239 1.516 . S
C234 C235 1.304 . S
C234 C238 1.323 . S
C235 C234 1.304 . S
C235 C236 1.371 . S
C235 H244 0.930 . S
C236 C233 1.344 . S
C236 C235 1.371 . S
C236 H245 0.931 . S
C237 C233 1.328 . S
C237 C238 1.433 . S
C237 H246 0.931 . S
C238 C234 1.323 . S
C238 C237 1.433 . S
C238 H247 0.933 . S
C239 Dy209 2.738 . S
C239 O219 1.255 . S
C239 O220 1.249 . S
C239 C233 1.516 . S
H240 C226 0.930 . S
H241 C227 0.931 . S
H242 C228 0.931 . S
H243 C229 0.933 . S
H244 C235 0.930 . S
H245 C236 0.931 . S
H246 C237 0.931 . S
H247 C238 0.933 . S
C248 C249 1.363 . S
C248 C254 1.379 . S
C248 N256 1.356 . S
C249 C248 1.363 . S
C249 C255 1.363 . S
C250 C251 1.363 . S
C250 C255 1.379 . S
C250 N257 1.356 . S
C251 C250 1.363 . S
C251 C254 1.363 . S
N252 C254 1.356 . S
N252 H264 0.984 . S
N252 H265 0.985 . S
N253 C255 1.356 . S
N253 H258 0.984 . S
N253 H259 0.985 . S
C254 C248 1.379 . S
C254 C251 1.363 . S
C254 N252 1.356 . S
C255 C249 1.363 . S
C255 C250 1.379 . S
C255 N253 1.356 . S
N256 C248 1.356 . S
N256 H262 0.984 . S
N256 H263 0.984 . S
N257 C250 1.356 . S
N257 H260 0.984 . S
N257 H261 0.985 . S
H258 N253 0.984 . S
H259 N253 0.985 . S
H260 N257 0.984 . S
H261 N257 0.985 . S
H262 N256 0.984 . S
H263 N256 0.984 . S
H264 N252 0.984 . S
H265 N252 0.985 . S
C266 C267 1.363 . S
C266 C272 1.379 . S
C266 N274 1.356 . S
C267 C266 1.363 . S
C267 C273 1.363 . S
C268 C269 1.363 . S
C268 C273 1.379 . S
C268 N275 1.356 . S
C269 C268 1.363 . S
C269 C272 1.363 . S
N270 C272 1.356 . S
N270 H282 0.984 . S
N270 H283 0.985 . S
N271 C273 1.356 . S
N271 H276 0.984 . S
N271 H277 0.985 . S
C272 C266 1.379 . S
C272 C269 1.363 . S
C272 N270 1.356 . S
C273 C267 1.363 . S
C273 C268 1.379 . S
C273 N271 1.356 . S
N274 C266 1.356 . S
N274 H280 0.984 . S
N274 H281 0.984 . S
N275 C268 1.356 . S
N275 H278 0.984 . S
N275 H279 0.985 . S
H276 N271 0.984 . S
H277 N271 0.985 . S
H278 N275 0.984 . S
H279 N275 0.985 . S
H280 N274 0.984 . S
H281 N274 0.984 . S
H282 N270 0.984 . S
H283 N270 0.985 . S
C284 C285 1.363 . S
C284 C290 1.379 . S
C284 N292 1.356 . S
C285 C284 1.363 . S
C285 C291 1.363 . S
C286 C287 1.363 . S
C286 C291 1.379 . S
C286 N293 1.356 . S
C287 C286 1.363 . S
C287 C290 1.363 . S
N288 C290 1.356 . S
N288 H300 0.984 . S
N288 H301 0.985 . S
N289 C291 1.356 . S
N289 H294 0.984 . S
N289 H295 0.985 . S
C290 C284 1.379 . S
C290 C287 1.363 . S
C290 N288 1.356 . S
C291 C285 1.363 . S
C291 C286 1.379 . S
C291 N289 1.356 . S
N292 C284 1.356 . S
N292 H298 0.984 . S
N292 H299 0.984 . S
N293 C286 1.356 . S
N293 H296 0.984 . S
N293 H297 0.985 . S
H294 N289 0.984 . S
H295 N289 0.985 . S
H296 N293 0.984 . S
H297 N293 0.985 . S
H298 N292 0.984 . S
H299 N292 0.984 . S
H300 N288 0.984 . S
H301 N288 0.985 . S
C302 C303 1.363 . S
C302 C308 1.379 . S
C302 N310 1.356 . S
C303 C302 1.363 . S
C303 C309 1.363 . S
C304 C305 1.363 . S
C304 C309 1.379 . S
C304 N311 1.356 . S
C305 C304 1.363 . S
C305 C308 1.363 . S
N306 C308 1.356 1_455 S
N306 H318 0.984 . S
N306 H319 0.985 . S
N307 C309 1.356 . S
N307 H312 0.984 . S
N307 H313 0.985 . S
C308 C302 1.379 . S
C308 C305 1.363 . S
C308 N306 1.356 1_655 S
C309 C303 1.363 . S
C309 C304 1.379 . S
C309 N307 1.356 . S
N310 C302 1.356 . S
N310 H316 0.984 . S
N310 H317 0.984 . S
N311 C304 1.356 . S
N311 H314 0.984 . S
N311 H315 0.985 . S
H312 N307 0.984 . S
H313 N307 0.985 . S
H314 N311 0.984 . S
H315 N311 0.985 . S
H316 N310 0.984 . S
H317 N310 0.984 . S
H318 N306 0.984 . S
H319 N306 0.985 . S
C320 C321 1.363 . S
C320 C326 1.379 . S
C320 N328 1.356 . S
C321 C320 1.363 . S
C321 C327 1.363 . S
C322 C323 1.363 . S
C322 C327 1.379 . S
C322 N329 1.356 . S
C323 C322 1.363 . S
C323 C326 1.363 . S
N324 C326 1.356 . S
N324 H336 0.984 . S
N324 H337 0.985 . S
N325 C327 1.356 . S
N325 H330 0.984 . S
N325 H331 0.985 . S
C326 C320 1.379 . S
C326 C323 1.363 . S
C326 N324 1.356 . S
C327 C321 1.363 . S
C327 C322 1.379 . S
C327 N325 1.356 . S
N328 C320 1.356 . S
N328 H334 0.984 . S
N328 H335 0.984 . S
N329 C322 1.356 . S
N329 H332 0.984 . S
N329 H333 0.985 . S
H330 N325 0.984 . S
H331 N325 0.985 . S
H332 N329 0.984 . S
H333 N329 0.985 . S
H334 N328 0.984 . S
H335 N328 0.984 . S
H336 N324 0.984 . S
H337 N324 0.985 . S
C338 C339 1.363 . S
C338 C344 1.379 . S
C338 N346 1.356 . S
C339 C338 1.363 . S
C339 C345 1.363 . S
C340 C341 1.363 . S
C340 C345 1.379 . S
C340 N347 1.356 . S
C341 C340 1.363 . S
C341 C344 1.363 . S
N342 C344 1.356 . S
N342 H354 0.984 . S
N342 H355 0.985 . S
N343 C345 1.356 1_655 S
N343 H348 0.984 . S
N343 H349 0.985 . S
C344 C338 1.379 . S
C344 C341 1.363 . S
C344 N342 1.356 . S
C345 C339 1.363 . S
C345 C340 1.379 . S
C345 N343 1.356 1_455 S
N346 C338 1.356 . S
N346 H352 0.984 . S
N346 H353 0.984 . S
N347 C340 1.356 . S
N347 H350 0.984 . S
N347 H351 0.985 1_455 S
H348 N343 0.984 . S
H349 N343 0.985 . S
H350 N347 0.984 . S
H351 N347 0.985 1_655 S
H352 N346 0.984 . S
H353 N346 0.984 . S
H354 N342 0.984 . S
H355 N342 0.985 . S
C356 C357 1.363 . S
C356 C362 1.379 . S
C356 N364 1.356 . S
C357 C356 1.363 . S
C357 C363 1.363 . S
C358 C359 1.363 . S
C358 C363 1.379 . S
C358 N365 1.356 . S
C359 C358 1.363 . S
C359 C362 1.363 . S
N360 C362 1.356 1_554 S
N360 H372 0.984 . S
N360 H373 0.985 . S
N361 C363 1.356 . S
N361 H366 0.984 . S
N361 H367 0.985 . S
C362 C356 1.379 . S
C362 C359 1.363 . S
C362 N360 1.356 1_556 S
C363 C357 1.363 . S
C363 C358 1.379 . S
C363 N361 1.356 . S
N364 C356 1.356 . S
N364 H370 0.984 . S
N364 H371 0.984 . S
N365 C358 1.356 . S
N365 H368 0.984 . S
N365 H369 0.985 . S
H366 N361 0.984 . S
H367 N361 0.985 . S
H368 N365 0.984 . S
H369 N365 0.985 . S
H370 N364 0.984 . S
H371 N364 0.984 . S
H372 N360 0.984 . S
H373 N360 0.985 . S
C374 C375 1.363 . S
C374 C380 1.379 . S
C374 N382 1.356 . S
C375 C374 1.363 . S
C375 C381 1.363 . S
C376 C377 1.363 . S
C376 C381 1.379 . S
C376 N383 1.356 . S
C377 C376 1.363 . S
C377 C380 1.363 . S
N378 C380 1.356 . S
N378 H390 0.984 . S
N378 H391 0.985 . S
N379 C381 1.356 . S
N379 H384 0.984 . S
N379 H385 0.985 . S
C380 C374 1.379 . S
C380 C377 1.363 . S
C380 N378 1.356 . S
C381 C375 1.363 . S
C381 C376 1.379 . S
C381 N379 1.356 . S
N382 C374 1.356 . S
N382 H388 0.984 . S
N382 H389 0.984 . S
N383 C376 1.356 . S
N383 H386 0.984 . S
N383 H387 0.985 . S
H384 N379 0.984 . S
H385 N379 0.985 . S
H386 N383 0.984 . S
H387 N383 0.985 . S
H388 N382 0.984 . S
H389 N382 0.984 . S
H390 N378 0.984 . S
H391 N378 0.985 . S
C392 C393 1.363 . S
C392 C398 1.379 . S
C392 N400 1.356 . S
C393 C392 1.363 . S
C393 C399 1.363 . S
C394 C395 1.363 . S
C394 C399 1.379 . S
C394 N401 1.356 . S
C395 C394 1.363 . S
C395 C398 1.363 . S
N396 C398 1.356 . S
N396 H408 0.984 . S
N396 H409 0.985 . S
N397 C399 1.356 . S
N397 H402 0.984 . S
N397 H403 0.985 . S
C398 C392 1.379 . S
C398 C395 1.363 . S
C398 N396 1.356 . S
C399 C393 1.363 . S
C399 C394 1.379 . S
C399 N397 1.356 . S
N400 C392 1.356 . S
N400 H406 0.984 . S
N400 H407 0.984 . S
N401 C394 1.356 . S
N401 H404 0.984 . S
N401 H405 0.985 . S
H402 N397 0.984 . S
H403 N397 0.985 . S
H404 N401 0.984 . S
H405 N401 0.985 . S
H406 N400 0.984 . S
H407 N400 0.984 . S
H408 N396 0.984 . S
H409 N396 0.985 . S
C410 C411 1.363 . S
C410 C416 1.379 . S
C410 N418 1.356 . S
C411 C410 1.363 . S
C411 C417 1.363 . S
C412 C413 1.363 . S
C412 C417 1.379 . S
C412 N419 1.356 . S
C413 C412 1.363 . S
C413 C416 1.363 . S
N414 C416 1.356 1_554 S
N414 H426 0.984 . S
N414 H427 0.985 . S
N415 C417 1.356 . S
N415 H420 0.984 . S
N415 H421 0.985 . S
C416 C410 1.379 . S
C416 C413 1.363 . S
C416 N414 1.356 1_556 S
C417 C411 1.363 . S
C417 C412 1.379 . S
C417 N415 1.356 . S
N418 C410 1.356 . S
N418 H424 0.984 1_556 S
N418 H425 0.984 . S
N419 C412 1.356 . S
N419 H422 0.984 . S
N419 H423 0.985 . S
H420 N415 0.984 . S
H421 N415 0.985 . S
H422 N419 0.984 . S
H423 N419 0.985 . S
H424 N418 0.984 1_554 S
H425 N418 0.984 . S
H426 N414 0.984 . S
H427 N414 0.985 . S
C428 C429 1.363 . S
C428 C434 1.379 . S
C428 N436 1.356 . S
C429 C428 1.363 . S
C429 C435 1.363 . S
C430 C431 1.363 . S
C430 C435 1.379 . S
C430 N437 1.356 . S
C431 C430 1.363 . S
C431 C434 1.363 . S
N432 C434 1.356 1_455 S
N432 H444 0.984 . S
N432 H445 0.985 . S
N433 C435 1.356 . S
N433 H438 0.984 . S
N433 H439 0.985 . S
C434 C428 1.379 . S
C434 C431 1.363 . S
C434 N432 1.356 1_655 S
C435 C429 1.363 . S
C435 C430 1.379 . S
C435 N433 1.356 . S
N436 C428 1.356 . S
N436 H442 0.984 1_655 S
N436 H443 0.984 . S
N437 C430 1.356 . S
N437 H440 0.984 . S
N437 H441 0.985 . S
H438 N433 0.984 . S
H439 N433 0.985 . S
H440 N437 0.984 . S
H441 N437 0.985 . S
H442 N436 0.984 1_455 S
H443 N436 0.984 . S
H444 N432 0.984 . S
H445 N432 0.985 . S
C446 C447 1.363 . S
C446 C452 1.379 . S
C446 N454 1.356 . S
C447 C446 1.363 . S
C447 C453 1.363 . S
C448 C449 1.363 . S
C448 C453 1.379 . S
C448 N455 1.356 . S
C449 C448 1.363 . S
C449 C452 1.363 . S
N450 C452 1.356 . S
N450 H462 0.984 . S
N450 H463 0.985 . S
N451 C453 1.356 . S
N451 H456 0.984 . S
N451 H457 0.985 . S
C452 C446 1.379 . S
C452 C449 1.363 . S
C452 N450 1.356 . S
C453 C447 1.363 . S
C453 C448 1.379 . S
C453 N451 1.356 . S
N454 C446 1.356 . S
N454 H460 0.984 . S
N454 H461 0.984 . S
N455 C448 1.356 . S
N455 H458 0.984 . S
N455 H459 0.985 . S
H456 N451 0.984 . S
H457 N451 0.985 . S
H458 N455 0.984 . S
H459 N455 0.985 . S
H460 N454 0.984 . S
H461 N454 0.984 . S
H462 N450 0.984 . S
H463 N450 0.985 . S
C464 C465 1.363 . S
C464 C470 1.379 . S
C464 N472 1.356 . S
C465 C464 1.363 . S
C465 C471 1.363 . S
C466 C467 1.363 . S
C466 C471 1.379 . S
C466 N473 1.356 . S
C467 C466 1.363 . S
C467 C470 1.363 . S
N468 C470 1.356 . S
N468 H480 0.984 . S
N468 H481 0.985 . S
N469 C471 1.356 . S
N469 H474 0.984 . S
N469 H475 0.985 . S
C470 C464 1.379 . S
C470 C467 1.363 . S
C470 N468 1.356 . S
C471 C465 1.363 . S
C471 C466 1.379 . S
C471 N469 1.356 . S
N472 C464 1.356 . S
N472 H478 0.984 . S
N472 H479 0.984 . S
N473 C466 1.356 . S
N473 H476 0.984 . S
N473 H477 0.985 . S
H474 N469 0.984 . S
H475 N469 0.985 . S
H476 N473 0.984 . S
H477 N473 0.985 . S
H478 N472 0.984 . S
H479 N472 0.984 . S
H480 N468 0.984 . S
H481 N468 0.985 . S
C482 C483 1.363 . S
C482 C488 1.379 . S
C482 N490 1.356 . S
C483 C482 1.363 . S
C483 C489 1.363 . S
C484 C485 1.363 . S
C484 C489 1.379 . S
C484 N491 1.356 . S
C485 C484 1.363 . S
C485 C488 1.363 . S
N486 C488 1.356 . S
N486 H498 0.984 . S
N486 H499 0.985 . S
N487 C489 1.356 . S
N487 H492 0.984 . S
N487 H493 0.985 . S
C488 C482 1.379 . S
C488 C485 1.363 . S
C488 N486 1.356 . S
C489 C483 1.363 . S
C489 C484 1.379 . S
C489 N487 1.356 . S
N490 C482 1.356 . S
N490 H496 0.984 . S
N490 H497 0.984 . S
N491 C484 1.356 . S
N491 H494 0.984 . S
N491 H495 0.985 . S
H492 N487 0.984 . S
H493 N487 0.985 . S
H494 N491 0.984 . S
H495 N491 0.985 . S
H496 N490 0.984 . S
H497 N490 0.984 . S
H498 N486 0.984 . S
H499 N486 0.985 . S
C500 C501 1.363 . S
C500 C506 1.379 . S
C500 N508 1.356 . S
C501 C500 1.363 . S
C501 C507 1.363 . S
C502 C503 1.363 . S
C502 C507 1.379 . S
C502 N509 1.356 . S
C503 C502 1.363 . S
C503 C506 1.363 . S
N504 C506 1.356 . S
N504 H516 0.984 . S
N504 H517 0.985 . S
N505 C507 1.356 . S
N505 H510 0.984 . S
N505 H511 0.985 . S
C506 C500 1.379 . S
C506 C503 1.363 . S
C506 N504 1.356 . S
C507 C501 1.363 . S
C507 C502 1.379 . S
C507 N505 1.356 . S
N508 C500 1.356 . S
N508 H514 0.984 . S
N508 H515 0.984 . S
N509 C502 1.356 . S
N509 H512 0.984 . S
N509 H513 0.985 . S
H510 N505 0.984 . S
H511 N505 0.985 . S
H512 N509 0.984 . S
H513 N509 0.985 . S
H514 N508 0.984 . S
H515 N508 0.984 . S
H516 N504 0.984 . S
H517 N504 0.985 . S
C518 C519 1.363 . S
C518 C524 1.379 . S
C518 N526 1.356 . S
C519 C518 1.363 . S
C519 C525 1.363 . S
C520 C521 1.363 . S
C520 C525 1.379 . S
C520 N527 1.356 . S
C521 C520 1.363 . S
C521 C524 1.363 . S
N522 C524 1.356 . S
N522 H534 0.984 . S
N522 H535 0.985 . S
N523 C525 1.356 . S
N523 H528 0.984 . S
N523 H529 0.985 . S
C524 C518 1.379 . S
C524 C521 1.363 . S
C524 N522 1.356 . S
C525 C519 1.363 . S
C525 C520 1.379 . S
C525 N523 1.356 . S
N526 C518 1.356 . S
N526 H532 0.984 . S
N526 H533 0.984 . S
N527 C520 1.356 . S
N527 H530 0.984 . S
N527 H531 0.985 . S
H528 N523 0.984 . S
H529 N523 0.985 . S
H530 N527 0.984 . S
H531 N527 0.985 . S
H532 N526 0.984 . S
H533 N526 0.984 . S
H534 N522 0.984 . S
H535 N522 0.985 . S
C536 C537 1.363 . S
C536 C542 1.379 . S
C536 N544 1.356 . S
C537 C536 1.363 . S
C537 C543 1.363 . S
C538 C539 1.363 . S
C538 C543 1.379 . S
C538 N545 1.356 1_556 S
C539 C538 1.363 . S
C539 C542 1.363 . S
N540 C542 1.356 . S
N540 H552 0.984 . S
N540 H553 0.985 . S
N541 C543 1.356 . S
N541 H546 0.984 . S
N541 H547 0.985 . S
C542 C536 1.379 . S
C542 C539 1.363 . S
C542 N540 1.356 . S
C543 C537 1.363 . S
C543 C538 1.379 . S
C543 N541 1.356 . S
N544 C536 1.356 . S
N544 H550 0.984 . S
N544 H551 0.984 . S
N545 C538 1.356 1_554 S
N545 H548 0.984 . S
N545 H549 0.985 . S
H546 N541 0.984 . S
H547 N541 0.985 . S
H548 N545 0.984 . S
H549 N545 0.985 . S
H550 N544 0.984 . S
H551 N544 0.984 . S
H552 N540 0.984 . S
H553 N540 0.985 . S
C554 C555 1.363 1_455 S
C554 C560 1.379 . S
C554 N562 1.356 . S
C555 C554 1.363 1_655 S
C555 C561 1.363 . S
C556 C557 1.363 . S
C556 C561 1.379 . S
C556 N563 1.356 . S
C557 C556 1.363 . S
C557 C560 1.363 1_655 S
N558 C560 1.356 . S
N558 H570 0.984 . S
N558 H571 0.985 . S
N559 C561 1.356 . S
N559 H564 0.984 . S
N559 H565 0.985 . S
C560 C554 1.379 . S
C560 C557 1.363 1_455 S
C560 N558 1.356 . S
C561 C555 1.363 . S
C561 C556 1.379 . S
C561 N559 1.356 . S
N562 C554 1.356 . S
N562 H568 0.984 . S
N562 H569 0.984 . S
N563 C556 1.356 . S
N563 H566 0.984 . S
N563 H567 0.985 . S
H564 N559 0.984 . S
H565 N559 0.985 . S
H566 N563 0.984 . S
H567 N563 0.985 . S
H568 N562 0.984 . S
H569 N562 0.984 . S
H570 N558 0.984 . S
H571 N558 0.985 . S
C572 C573 1.363 . S
C572 C578 1.379 . S
C572 N580 1.356 . S
C573 C572 1.363 . S
C573 C579 1.363 . S
C574 C575 1.363 . S
C574 C579 1.379 . S
C574 N581 1.356 . S
C575 C574 1.363 . S
C575 C578 1.363 . S
N576 C578 1.356 . S
N576 H588 0.984 . S
N576 H589 0.985 . S
N577 C579 1.356 . S
N577 H582 0.984 . S
N577 H583 0.985 . S
C578 C572 1.379 . S
C578 C575 1.363 . S
C578 N576 1.356 . S
C579 C573 1.363 . S
C579 C574 1.379 . S
C579 N577 1.356 . S
N580 C572 1.356 . S
N580 H586 0.984 . S
N580 H587 0.984 . S
N581 C574 1.356 . S
N581 H584 0.984 . S
N581 H585 0.985 . S
H582 N577 0.984 . S
H583 N577 0.985 . S
H584 N581 0.984 . S
H585 N581 0.985 . S
H586 N580 0.984 . S
H587 N580 0.984 . S
H588 N576 0.984 . S
H589 N576 0.985 . S
C590 C591 1.363 . S
C590 C596 1.379 . S
C590 N598 1.356 . S
C591 C590 1.363 . S
C591 C597 1.363 . S
C592 C593 1.363 . S
C592 C597 1.379 . S
C592 N599 1.356 . S
C593 C592 1.363 . S
C593 C596 1.363 . S
N594 C596 1.356 . S
N594 H606 0.984 . S
N594 H607 0.985 . S
N595 C597 1.356 . S
N595 H600 0.984 . S
N595 H601 0.985 . S
C596 C590 1.379 . S
C596 C593 1.363 . S
C596 N594 1.356 . S
C597 C591 1.363 . S
C597 C592 1.379 . S
C597 N595 1.356 . S
N598 C590 1.356 . S
N598 H604 0.984 . S
N598 H605 0.984 . S
N599 C592 1.356 . S
N599 H602 0.984 . S
N599 H603 0.985 . S
H600 N595 0.984 . S
H601 N595 0.985 . S
H602 N599 0.984 . S
H603 N599 0.985 . S
H604 N598 0.984 . S
H605 N598 0.984 . S
H606 N594 0.984 . S
H607 N594 0.985 . S
C608 C609 1.363 . S
C608 C614 1.379 . S
C608 N616 1.356 . S
C609 C608 1.363 . S
C609 C615 1.363 . S
C610 C611 1.363 . S
C610 C615 1.379 . S
C610 N617 1.356 . S
C611 C610 1.363 . S
C611 C614 1.363 . S
N612 C614 1.356 . S
N612 H624 0.984 . S
N612 H625 0.985 . S
N613 C615 1.356 . S
N613 H618 0.984 . S
N613 H619 0.985 . S
C614 C608 1.379 . S
C614 C611 1.363 . S
C614 N612 1.356 . S
C615 C609 1.363 . S
C615 C610 1.379 . S
C615 N613 1.356 . S
N616 C608 1.356 . S
N616 H622 0.984 . S
N616 H623 0.984 . S
N617 C610 1.356 . S
N617 H620 0.984 . S
N617 H621 0.985 . S
H618 N613 0.984 . S
H619 N613 0.985 . S
H620 N617 0.984 . S
H621 N617 0.985 . S
H622 N616 0.984 . S
H623 N616 0.984 . S
H624 N612 0.984 . S
H625 N612 0.985 . S
C626 C627 1.363 . S
C626 C632 1.379 . S
C626 N634 1.356 . S
C627 C626 1.363 . S
C627 C633 1.363 . S
C628 C629 1.363 . S
C628 C633 1.379 . S
C628 N635 1.356 . S
C629 C628 1.363 . S
C629 C632 1.363 . S
N630 C632 1.356 . S
N630 H642 0.984 . S
N630 H643 0.985 . S
N631 C633 1.356 . S
N631 H636 0.984 . S
N631 H637 0.985 . S
C632 C626 1.379 . S
C632 C629 1.363 . S
C632 N630 1.356 . S
C633 C627 1.363 . S
C633 C628 1.379 . S
C633 N631 1.356 . S
N634 C626 1.356 . S
N634 H640 0.984 . S
N634 H641 0.984 . S
N635 C628 1.356 . S
N635 H638 0.984 . S
N635 H639 0.985 . S
H636 N631 0.984 . S
H637 N631 0.985 . S
H638 N635 0.984 . S
H639 N635 0.985 . S
H640 N634 0.984 . S
H641 N634 0.984 . S
H642 N630 0.984 . S
H643 N630 0.985 . S
C644 C645 1.363 . S
C644 C650 1.379 . S
C644 N652 1.356 . S
C645 C644 1.363 . S
C645 C651 1.363 . S
C646 C647 1.363 . S
C646 C651 1.379 . S
C646 N653 1.356 . S
C647 C646 1.363 . S
C647 C650 1.363 . S
N648 C650 1.356 . S
N648 H660 0.984 . S
N648 H661 0.985 . S
N649 C651 1.356 . S
N649 H654 0.984 . S
N649 H655 0.985 . S
C650 C644 1.379 . S
C650 C647 1.363 . S
C650 N648 1.356 . S
C651 C645 1.363 . S
C651 C646 1.379 . S
C651 N649 1.356 . S
N652 C644 1.356 . S
N652 H658 0.984 . S
N652 H659 0.984 . S
N653 C646 1.356 . S
N653 H656 0.984 . S
N653 H657 0.985 . S
H654 N649 0.984 . S
H655 N649 0.985 . S
H656 N653 0.984 . S
H657 N653 0.985 . S
H658 N652 0.984 . S
H659 N652 0.984 . S
H660 N648 0.984 . S
H661 N648 0.985 . S
C662 C663 1.363 . S
C662 C668 1.379 . S
C662 N670 1.356 . S
C663 C662 1.363 . S
C663 C669 1.363 . S
C664 C665 1.363 . S
C664 C669 1.379 . S
C664 N671 1.356 . S
C665 C664 1.363 . S
C665 C668 1.363 . S
N666 C668 1.356 . S
N666 H678 0.984 . S
N666 H679 0.985 . S
N667 C669 1.356 . S
N667 H672 0.984 . S
N667 H673 0.985 . S
C668 C662 1.379 . S
C668 C665 1.363 . S
C668 N666 1.356 . S
C669 C663 1.363 . S
C669 C664 1.379 . S
C669 N667 1.356 . S
N670 C662 1.356 . S
N670 H676 0.984 . S
N670 H677 0.984 . S
N671 C664 1.356 . S
N671 H674 0.984 . S
N671 H675 0.985 . S
H672 N667 0.984 . S
H673 N667 0.985 . S
H674 N671 0.984 . S
H675 N671 0.985 . S
H676 N670 0.984 . S
H677 N670 0.984 . S
H678 N666 0.984 . S
H679 N666 0.985 . S
C249 C4 1.088 . S
C251 C105 1.133 . S
C267 C16 1.173 . S
C269 C145 1.238 . S
C287 C170 2.188 . S
C285 C32 2.206 . S
C303 C43 2.437 . S
C305 C210 2.366 1_655 S
C323 C141 2.077 . S
C321 C5 1.950 . S
C341 C101 1.560 . S
C339 C21 1.419 . S
C359 C232 1.773 . S
C357 C27 1.792 . S
C377 C192 1.752 . S
C375 C37 1.819 . S
C393 C10 1.321 . S
C395 C234 1.338 . S
C413 C151 2.396 1_556 S
C411 C26 2.441 . S
C429 C38 1.994 . S
C431 C111 1.967 . S
C447 C15 1.682 . S
C449 C194 1.723 . S
C467 C114 1.196 . S
C465 C48 1.157 . S
C483 C59 1.065 . S
C485 C154 1.099 . S
C501 C76 2.451 . S
C503 C191 2.386 . S
C519 C87 2.279 . S
C521 C231 2.261 . S
C537 C54 1.477 . S
C539 C152 1.602 1_556 S
C557 C112 2.049 . S
C555 C60 1.936 . S
C575 C221 1.762 . S
C573 C71 1.776 . S
C593 C181 1.774 . S
C591 C82 1.789 . S
C609 C49 1.706 . S
C611 C225 1.793 . S
C629 C130 1.907 . S
C627 C70 1.955 . S
C647 C90 2.367 . S
C645 C81 2.421 . S
C663 C65 1.334 . S
C665 C185 1.368 . S
