# Generated by pormake.
# Topology eea, (3,6)-cn, num edge types: 1
# Building blocks:
#     Node 0, Type 0, BuildingBlock: VETTIZ_charged_linker_0, # of connection points: 3
#     Node 1, Type 0, BuildingBlock: VETTIZ_charged_linker_0, # of connection points: 3
#     Node 2, Type 0, BuildingBlock: VETTIZ_charged_linker_0, # of connection points: 3
#     Node 3, Type 0, BuildingBlock: VETTIZ_charged_linker_0, # of connection points: 3
#     Node 4, Type 0, BuildingBlock: VETTIZ_charged_linker_0, # of connection points: 3
#     Node 5, Type 0, BuildingBlock: VETTIZ_charged_linker_0, # of connection points: 3
#     Node 6, Type 0, BuildingBlock: VETTIZ_charged_linker_0, # of connection points: 3
#     Node 7, Type 0, BuildingBlock: VETTIZ_charged_linker_0, # of connection points: 3
#     Node 8, Type 0, BuildingBlock: VETTIZ_charged_linker_0, # of connection points: 3
#     Node 9, Type 0, BuildingBlock: VETTIZ_charged_linker_0, # of connection points: 3
#     Node 10, Type 0, BuildingBlock: VETTIZ_charged_linker_0, # of connection points: 3
#     Node 11, Type 0, BuildingBlock: VETTIZ_charged_linker_0, # of connection points: 3
#     Node 12, Type 0, BuildingBlock: VETTIZ_charged_linker_0, # of connection points: 3
#     Node 13, Type 0, BuildingBlock: VETTIZ_charged_linker_0, # of connection points: 3
#     Node 14, Type 0, BuildingBlock: VETTIZ_charged_linker_0, # of connection points: 3
#     Node 15, Type 0, BuildingBlock: VETTIZ_charged_linker_0, # of connection points: 3
#     Node 16, Type 0, BuildingBlock: VETTIZ_charged_linker_0, # of connection points: 3
#     Node 17, Type 0, BuildingBlock: VETTIZ_charged_linker_0, # of connection points: 3
#     Node 18, Type 1, BuildingBlock: CUWYAW_clean_sbu_0, # of connection points: 6
#     Node 19, Type 1, BuildingBlock: CUWYAW_clean_sbu_0, # of connection points: 6
#     Node 20, Type 1, BuildingBlock: CUWYAW_clean_sbu_0, # of connection points: 6
#     Node 21, Type 1, BuildingBlock: CUWYAW_clean_sbu_0, # of connection points: 6
#     Node 22, Type 1, BuildingBlock: CUWYAW_clean_sbu_0, # of connection points: 6
#     Node 23, Type 1, BuildingBlock: CUWYAW_clean_sbu_0, # of connection points: 6
#     Node 24, Type 1, BuildingBlock: CUWYAW_clean_sbu_0, # of connection points: 6
#     Node 25, Type 1, BuildingBlock: CUWYAW_clean_sbu_0, # of connection points: 6
#     Node 26, Type 1, BuildingBlock: CUWYAW_clean_sbu_0, # of connection points: 6
#     Edge 27, Type (0, 1), BuildingBlock: EZIPEK_clean_linker_0, # of connection points: 2
#     Edge 28, Type (0, 1), BuildingBlock: EZIPEK_clean_linker_0, # of connection points: 2
#     Edge 29, Type (0, 1), BuildingBlock: EZIPEK_clean_linker_0, # of connection points: 2
#     Edge 30, Type (0, 1), BuildingBlock: EZIPEK_clean_linker_0, # of connection points: 2
#     Edge 31, Type (0, 1), BuildingBlock: EZIPEK_clean_linker_0, # of connection points: 2
#     Edge 32, Type (0, 1), BuildingBlock: EZIPEK_clean_linker_0, # of connection points: 2
#     Edge 33, Type (0, 1), BuildingBlock: EZIPEK_clean_linker_0, # of connection points: 2
#     Edge 34, Type (0, 1), BuildingBlock: EZIPEK_clean_linker_0, # of connection points: 2
#     Edge 35, Type (0, 1), BuildingBlock: EZIPEK_clean_linker_0, # of connection points: 2
#     Edge 36, Type (0, 1), BuildingBlock: EZIPEK_clean_linker_0, # of connection points: 2
#     Edge 37, Type (0, 1), BuildingBlock: EZIPEK_clean_linker_0, # of connection points: 2
#     Edge 38, Type (0, 1), BuildingBlock: EZIPEK_clean_linker_0, # of connection points: 2
#     Edge 39, Type (0, 1), BuildingBlock: EZIPEK_clean_linker_0, # of connection points: 2
#     Edge 40, Type (0, 1), BuildingBlock: EZIPEK_clean_linker_0, # of connection points: 2
#     Edge 41, Type (0, 1), BuildingBlock: EZIPEK_clean_linker_0, # of connection points: 2
#     Edge 42, Type (0, 1), BuildingBlock: EZIPEK_clean_linker_0, # of connection points: 2
#     Edge 43, Type (0, 1), BuildingBlock: EZIPEK_clean_linker_0, # of connection points: 2
#     Edge 44, Type (0, 1), BuildingBlock: EZIPEK_clean_linker_0, # of connection points: 2
#     Edge 45, Type (0, 1), BuildingBlock: EZIPEK_clean_linker_0, # of connection points: 2
#     Edge 46, Type (0, 1), BuildingBlock: EZIPEK_clean_linker_0, # of connection points: 2
#     Edge 47, Type (0, 1), BuildingBlock: EZIPEK_clean_linker_0, # of connection points: 2
#     Edge 48, Type (0, 1), BuildingBlock: EZIPEK_clean_linker_0, # of connection points: 2
#     Edge 49, Type (0, 1), BuildingBlock: EZIPEK_clean_linker_0, # of connection points: 2
#     Edge 50, Type (0, 1), BuildingBlock: EZIPEK_clean_linker_0, # of connection points: 2
#     Edge 51, Type (0, 1), BuildingBlock: EZIPEK_clean_linker_0, # of connection points: 2
#     Edge 52, Type (0, 1), BuildingBlock: EZIPEK_clean_linker_0, # of connection points: 2
#     Edge 53, Type (0, 1), BuildingBlock: EZIPEK_clean_linker_0, # of connection points: 2
#     Edge 54, Type (0, 1), BuildingBlock: EZIPEK_clean_linker_0, # of connection points: 2
#     Edge 55, Type (0, 1), BuildingBlock: EZIPEK_clean_linker_0, # of connection points: 2
#     Edge 56, Type (0, 1), BuildingBlock: EZIPEK_clean_linker_0, # of connection points: 2
#     Edge 57, Type (0, 1), BuildingBlock: EZIPEK_clean_linker_0, # of connection points: 2
#     Edge 58, Type (0, 1), BuildingBlock: EZIPEK_clean_linker_0, # of connection points: 2
#     Edge 59, Type (0, 1), BuildingBlock: EZIPEK_clean_linker_0, # of connection points: 2
#     Edge 60, Type (0, 1), BuildingBlock: EZIPEK_clean_linker_0, # of connection points: 2
#     Edge 61, Type (0, 1), BuildingBlock: EZIPEK_clean_linker_0, # of connection points: 2
#     Edge 62, Type (0, 1), BuildingBlock: EZIPEK_clean_linker_0, # of connection points: 2
#     Edge 63, Type (0, 1), BuildingBlock: EZIPEK_clean_linker_0, # of connection points: 2
#     Edge 64, Type (0, 1), BuildingBlock: EZIPEK_clean_linker_0, # of connection points: 2
#     Edge 65, Type (0, 1), BuildingBlock: EZIPEK_clean_linker_0, # of connection points: 2
#     Edge 66, Type (0, 1), BuildingBlock: EZIPEK_clean_linker_0, # of connection points: 2
#     Edge 67, Type (0, 1), BuildingBlock: EZIPEK_clean_linker_0, # of connection points: 2
#     Edge 68, Type (0, 1), BuildingBlock: EZIPEK_clean_linker_0, # of connection points: 2
#     Edge 69, Type (0, 1), BuildingBlock: EZIPEK_clean_linker_0, # of connection points: 2
#     Edge 70, Type (0, 1), BuildingBlock: EZIPEK_clean_linker_0, # of connection points: 2
#     Edge 71, Type (0, 1), BuildingBlock: EZIPEK_clean_linker_0, # of connection points: 2
#     Edge 72, Type (0, 1), BuildingBlock: EZIPEK_clean_linker_0, # of connection points: 2
#     Edge 73, Type (0, 1), BuildingBlock: EZIPEK_clean_linker_0, # of connection points: 2
#     Edge 74, Type (0, 1), BuildingBlock: EZIPEK_clean_linker_0, # of connection points: 2
#     Edge 75, Type (0, 1), BuildingBlock: EZIPEK_clean_linker_0, # of connection points: 2
#     Edge 76, Type (0, 1), BuildingBlock: EZIPEK_clean_linker_0, # of connection points: 2
#     Edge 77, Type (0, 1), BuildingBlock: EZIPEK_clean_linker_0, # of connection points: 2
#     Edge 78, Type (0, 1), BuildingBlock: EZIPEK_clean_linker_0, # of connection points: 2
#     Edge 79, Type (0, 1), BuildingBlock: EZIPEK_clean_linker_0, # of connection points: 2
#     Edge 80, Type (0, 1), BuildingBlock: EZIPEK_clean_linker_0, # of connection points: 2
# Relax obj value: 0.035
# Max RMSD: 0.133
# Mean RMSD: 0.087
data_MOF--net-eea--node1-CUWYAW_clean_sbu_0--node2-VETTIZ_charged_linker_0--edge1-EZIPEK_clean_linker_0
_symmetry_space_group_name_H-M    P1
_symmetry_Int_Tables_number       1
_symmetry_cell_setting            triclinic
loop_
_symmetry_equiv_pos_as_xyz
'x, y, z'
_cell_length_a     48.128545
_cell_length_b     47.68799
_cell_length_c     73.834536
_cell_angle_alpha  93.381008
_cell_angle_beta   93.244865
_cell_angle_gamma 119.82907
loop_
_atom_site_label
_atom_site_type_symbol
_atom_site_fract_x
_atom_site_fract_y
_atom_site_fract_z
_atom_type_partial_charge
C0 C 0.22347 0.1953 0.37451 0.0
C1 C 0.22491 0.22315 0.38291 0.0
C2 C 0.2361 0.23276 0.4015 0.0
C3 C 0.24221 0.18546 0.40338 0.0
C4 C 0.23209 0.1768 0.38498 0.0
C5 C 0.2296 0.14515 0.37842 0.0
H6 H 0.23194 0.00973 0.39798 0.0
C7 C 0.24707 0.15972 0.41052 0.0
C8 C 0.23984 0.13613 0.39591 0.0
H9 H 0.20774 0.03249 0.34582 0.0
H10 H 0.22133 0.086 0.35904 0.0
H11 H 0.29543 0.07839 0.40898 0.0
H12 H 0.19774 0.03972 0.42165 0.0
H13 H 0.22304 0.05958 0.4419 0.0
H14 H 0.22386 0.02578 0.43032 0.0
H15 H 0.27994 0.05229 0.42679 0.0
H16 H 0.29793 0.09586 0.43104 0.0
C17 C 0.25378 0.15182 0.364 0.0
C18 C 0.19395 0.1208 0.37138 0.0
C19 C 0.27858 0.16512 0.47819 0.0
C20 C 0.28478 0.14456 0.4884 0.0
C21 C 0.28235 0.11633 0.47967 0.0
C22 C 0.27361 0.1084 0.4609 0.0
C23 C 0.26724 0.12896 0.45076 0.0
C24 C 0.27011 0.15698 0.45936 0.0
C25 C 0.26331 0.17627 0.44619 0.0
C26 C 0.25587 0.15516 0.42834 0.0
C27 C 0.25783 0.12732 0.4312 0.0
C28 C 0.29421 0.20976 0.44622 0.0
C29 C 0.23362 0.178 0.45177 0.0
C30 C 0.22998 0.02655 0.38949 0.0
C31 C 0.21875 0.01733 0.37097 0.0
C32 C 0.21639 0.03947 0.36015 0.0
C33 C 0.22413 0.07033 0.36788 0.0
C34 C 0.23411 0.07891 0.38664 0.0
C35 C 0.23752 0.05742 0.39703 0.0
C36 C 0.24849 0.07071 0.41668 0.0
C37 C 0.2503 0.10339 0.41648 0.0
C38 C 0.24167 0.10795 0.3989 0.0
C39 C 0.28207 0.07438 0.42128 0.0
C40 C 0.22217 0.04782 0.4284 0.0
H41 H 0.25276 0.22226 0.42597 0.0
H42 H 0.21456 0.18739 0.36026 0.0
H43 H 0.17735 0.12477 0.37964 0.0
H44 H 0.18704 0.09523 0.37251 0.0
H45 H 0.18866 0.12365 0.35698 0.0
H46 H 0.27592 0.17594 0.36743 0.0
H47 H 0.24312 0.1518 0.35025 0.0
H48 H 0.26242 0.13426 0.36333 0.0
H49 H 0.28058 0.18708 0.48472 0.0
H50 H 0.28717 0.10039 0.48745 0.0
H51 H 0.27203 0.08649 0.45503 0.0
H52 H 0.3161 0.20747 0.44791 0.0
H53 H 0.29599 0.22708 0.45759 0.0
H54 H 0.2958 0.22062 0.43325 0.0
H55 H 0.21553 0.15459 0.45648 0.0
H56 H 0.22062 0.18206 0.44038 0.0
H57 H 0.24059 0.19737 0.4631 0.0
H58 H 0.23709 0.25418 0.40811 0.0
C59 C 0.24491 0.2141 0.41179 0.0
C60 C 0.96951 0.20259 0.38695 0.0
C61 C 0.99796 0.22839 0.39611 0.0
C62 C 0.99985 0.23482 0.41518 0.0
C63 C 0.94548 0.18954 0.41556 0.0
C64 C 0.94411 0.18311 0.39692 0.0
C65 C 0.91438 0.15206 0.38945 0.0
H66 H 0.77738 0.01687 0.40403 0.0
C67 C 0.91527 0.16378 0.42177 0.0
C68 C 0.89727 0.14159 0.40651 0.0
H69 H 0.82473 0.03962 0.35461 0.0
H70 H 0.86431 0.09295 0.36888 0.0
H71 H 0.84073 0.04344 0.43054 0.0
H72 H 0.78546 0.08771 0.41451 0.0
H73 H 0.8009 0.1032 0.43724 0.0
H74 H 0.77381 0.06009 0.43176 0.0
H75 H 0.80144 0.03122 0.43744 0.0
H76 H 0.83719 0.06352 0.45027 0.0
C77 C 0.92479 0.12797 0.38179 0.0
C78 C 0.89519 0.16019 0.37526 0.0
C79 C 0.89033 0.16928 0.48779 0.0
C80 C 0.86331 0.14923 0.49677 0.0
C81 C 0.83732 0.12135 0.4871 0.0
C82 C 0.83801 0.11334 0.46866 0.0
C83 C 0.86504 0.13344 0.45975 0.0
C84 C 0.8906 0.16098 0.46923 0.0
C85 C 0.91702 0.17948 0.45727 0.0
C86 C 0.90268 0.15887 0.43904 0.0
C87 C 0.87239 0.13174 0.4407 0.0
C88 C 0.94766 0.1794 0.46484 0.0
C89 C 0.92144 0.21379 0.45658 0.0
C90 C 0.79611 0.03369 0.39631 0.0
C91 C 0.79825 0.02432 0.37827 0.0
C92 C 0.82285 0.04652 0.36854 0.0
C93 C 0.84593 0.07727 0.37692 0.0
C94 C 0.84472 0.08565 0.39533 0.0
C95 C 0.8198 0.06424 0.40463 0.0
C96 C 0.82312 0.07685 0.42427 0.0
C97 C 0.85476 0.1088 0.42537 0.0
C98 C 0.86712 0.11383 0.40838 0.0
C99 C 0.82556 0.05256 0.4364 0.0
C100 C 0.79433 0.08211 0.42727 0.0
H101 H 0.97639 0.22175 0.4394 0.0
H102 H 0.96772 0.19672 0.37237 0.0
H103 H 0.8947 0.18237 0.38032 0.0
H104 H 0.86973 0.14087 0.37248 0.0
H105 H 0.90637 0.16483 0.3622 0.0
H106 H 0.94908 0.13423 0.38793 0.0
H107 H 0.92567 0.12799 0.36679 0.0
H108 H 0.90885 0.10283 0.38507 0.0
H109 H 0.91053 0.19089 0.49503 0.0
H110 H 0.81637 0.10579 0.49387 0.0
H111 H 0.81745 0.09175 0.46207 0.0
H112 H 0.94135 0.1567 0.47125 0.0
H113 H 0.96226 0.20019 0.47536 0.0
H114 H 0.96287 0.17992 0.45406 0.0
H115 H 0.89766 0.21228 0.4543 0.0
H116 H 0.93516 0.22651 0.44534 0.0
H117 H 0.93381 0.22913 0.46961 0.0
H118 H 0.02178 0.25443 0.4225 0.0
C119 C 0.9736 0.21576 0.42493 0.0
C120 C 0.9715 0.77113 0.38891 0.0
C121 C 1.00005 0.77487 0.39759 0.0
C122 C 0.00179 0.77177 0.41647 0.0
C123 C 0.94721 0.76153 0.41755 0.0
C124 C 0.94603 0.76568 0.3992 0.0
C125 C 0.91653 0.7668 0.39262 0.0
H126 H 0.77982 0.76546 0.41097 0.0
C127 C 0.91704 0.75721 0.4243 0.0
C128 C 0.89941 0.7611 0.40981 0.0
H129 H 0.8261 0.78614 0.36118 0.0
H130 H 0.86663 0.775 0.37396 0.0
H131 H 0.78671 0.70368 0.41722 0.0
H132 H 0.84413 0.80392 0.43848 0.0
H133 H 0.83928 0.78008 0.45667 0.0
H134 H 0.80433 0.77713 0.44446 0.0
H135 H 0.77624 0.71992 0.43647 0.0
H136 H 0.80262 0.70333 0.43912 0.0
C137 C 0.89705 0.73861 0.37742 0.0
C138 C 0.92741 0.80115 0.38656 0.0
C139 C 0.88846 0.72279 0.488 0.0
C140 C 0.86116 0.7156 0.49716 0.0
C141 C 0.83641 0.71928 0.48872 0.0
C142 C 0.83848 0.7297 0.47127 0.0
C143 C 0.86562 0.73651 0.46211 0.0
C144 C 0.89017 0.7332 0.47045 0.0
C145 C 0.91722 0.74196 0.4585 0.0
C146 C 0.904 0.74942 0.44135 0.0
C147 C 0.87393 0.74651 0.44371 0.0
C148 C 0.9213 0.71201 0.45491 0.0
C149 C 0.94781 0.77242 0.46796 0.0
C150 C 0.79867 0.76732 0.4029 0.0
C151 C 0.80018 0.77672 0.38516 0.0
C152 C 0.82482 0.77897 0.3749 0.0
C153 C 0.84834 0.77272 0.3824 0.0
C154 C 0.84737 0.76448 0.40042 0.0
C155 C 0.82256 0.76142 0.41027 0.0
C156 C 0.82548 0.75238 0.42918 0.0
C157 C 0.85688 0.75198 0.42931 0.0
C158 C 0.86948 0.759 0.41243 0.0
C159 C 0.79626 0.7182 0.43075 0.0
C160 C 0.82826 0.77956 0.44304 0.0
H161 H 0.97804 0.76236 0.4407 0.0
H162 H 0.96969 0.7741 0.37453 0.0
H163 H 0.9516 0.8196 0.39325 0.0
H164 H 0.9115 0.81053 0.39055 0.0
H165 H 0.92876 0.80133 0.37159 0.0
H166 H 0.89609 0.71596 0.38127 0.0
H167 H 0.90831 0.74443 0.36441 0.0
H168 H 0.87173 0.73251 0.37496 0.0
H169 H 0.90779 0.72017 0.49432 0.0
H170 H 0.81528 0.71382 0.49564 0.0
H171 H 0.81877 0.73194 0.46559 0.0
H172 H 0.8976 0.68996 0.45049 0.0
H173 H 0.93161 0.70742 0.46747 0.0
H174 H 0.93691 0.71454 0.44402 0.0
H175 H 0.94155 0.78764 0.47691 0.0
H176 H 0.96272 0.78879 0.4581 0.0
H177 H 0.96273 0.76555 0.47657 0.0
H178 H 0.02371 0.77499 0.4235 0.0
C179 C 0.97537 0.76462 0.42642 0.0
C180 C 0.17874 0.20804 0.61917 0.0
C181 C 0.20772 0.21351 0.6128 0.0
C182 C 0.21596 0.22624 0.59593 0.0
C183 C 0.16622 0.22769 0.59197 0.0
C184 C 0.15856 0.21546 0.60865 0.0
C185 C 0.12725 0.21174 0.61376 0.0
H186 H 0.99853 0.23051 0.59586 0.0
C187 C 0.13991 0.23277 0.58459 0.0
C188 C 0.11717 0.22362 0.5974 0.0
H189 H 0.02093 0.19139 0.6421 0.0
H190 H 0.06919 0.19888 0.62967 0.0
H191 H 0.07256 0.28895 0.5917 0.0
H192 H 0.01565 0.19067 0.56636 0.0
H193 H 0.03786 0.21493 0.5497 0.0
H194 H 0.00866 0.22248 0.55986 0.0
H195 H 0.03764 0.27578 0.57588 0.0
H196 H 0.07671 0.28898 0.56815 0.0
C197 C 0.13441 0.23436 0.63148 0.0
C198 C 0.10372 0.17518 0.6153 0.0
C199 C 0.14316 0.27442 0.5222 0.0
C200 C 0.12219 0.28143 0.51202 0.0
C201 C 0.09405 0.27707 0.51931 0.0
C202 C 0.0868 0.26588 0.53654 0.0
C203 C 0.10792 0.25894 0.54665 0.0
C204 C 0.13556 0.26322 0.53945 0.0
C205 C 0.15524 0.25477 0.55222 0.0
C206 C 0.13467 0.24428 0.5681 0.0
C207 C 0.10698 0.24688 0.5648 0.0
C208 C 0.1882 0.28588 0.55777 0.0
C209 C 0.15748 0.22635 0.54259 0.0
C210 C 0.01411 0.22382 0.60324 0.0
C211 C 0.00632 0.21057 0.62002 0.0
C212 C 0.0267 0.20168 0.6292 0.0
C213 C 0.05466 0.20607 0.62193 0.0
C214 C 0.06231 0.2193 0.60516 0.0
C215 C 0.04204 0.22762 0.59597 0.0
C216 C 0.05346 0.23982 0.57789 0.0
C217 C 0.08428 0.23816 0.57801 0.0
C218 C 0.08931 0.22634 0.5941 0.0
C219 C 0.06033 0.27519 0.57823 0.0
C220 C 0.02763 0.21603 0.56256 0.0
H221 H 0.20276 0.24282 0.57266 0.0
H222 H 0.17205 0.19835 0.63215 0.0
H223 H 0.10861 0.15952 0.60579 0.0
H224 H 0.07832 0.16784 0.61137 0.0
H225 H 0.10597 0.16876 0.62931 0.0
H226 H 0.15779 0.25734 0.63153 0.0
H227 H 0.1359 0.22253 0.64372 0.0
H228 H 0.11655 0.24222 0.63298 0.0
H229 H 0.16502 0.27777 0.51689 0.0
H230 H 0.07774 0.2825 0.51164 0.0
H231 H 0.06506 0.26317 0.54136 0.0
H232 H 0.18559 0.30782 0.55886 0.0
H233 H 0.20544 0.28938 0.54755 0.0
H234 H 0.19905 0.28589 0.57136 0.0
H235 H 0.13394 0.2082 0.53505 0.0
H236 H 0.16325 0.21267 0.55217 0.0
H237 H 0.17572 0.23518 0.5326 0.0
H238 H 0.2383 0.23053 0.59087 0.0
C239 C 0.1953 0.23329 0.58544 0.0
C240 C 0.78033 0.81002 0.63208 0.0
C241 C 0.78127 0.78331 0.62386 0.0
C242 C 0.77301 0.77482 0.60494 0.0
C243 C 0.76363 0.8201 0.6027 0.0
C244 C 0.77219 0.82839 0.62125 0.0
C245 C 0.77428 0.85991 0.62759 0.0
H246 H 0.76902 0.99368 0.60774 0.0
C247 C 0.75791 0.84523 0.5954 0.0
C248 C 0.76461 0.8688 0.6099 0.0
H249 H 0.79803 0.973 0.6593 0.0
H250 H 0.78473 0.9197 0.6462 0.0
H251 H 0.80236 0.96333 0.58252 0.0
H252 H 0.70611 0.92376 0.59803 0.0
H253 H 0.70228 0.90553 0.57598 0.0
H254 H 0.71938 0.94904 0.57971 0.0
H255 H 0.77523 0.97688 0.57506 0.0
H256 H 0.77511 0.94298 0.56294 0.0
C257 C 0.80972 0.88449 0.6351 0.0
C258 C 0.74937 0.85299 0.64157 0.0
C259 C 0.71719 0.83366 0.52869 0.0
C260 C 0.70905 0.85294 0.51851 0.0
C261 C 0.71222 0.88172 0.52695 0.0
C262 C 0.72361 0.89145 0.54539 0.0
C263 C 0.73191 0.87216 0.55548 0.0
C264 C 0.72843 0.84365 0.54718 0.0
C265 C 0.7382 0.82621 0.56019 0.0
C266 C 0.74741 0.84859 0.5777 0.0
C267 C 0.74403 0.87565 0.57477 0.0
C268 C 0.76746 0.82497 0.55333 0.0
C269 C 0.70853 0.79247 0.56167 0.0
C270 C 0.77222 0.97737 0.61608 0.0
C271 C 0.78465 0.98715 0.63445 0.0
C272 C 0.78857 0.96565 0.64509 0.0
C273 C 0.78097 0.93488 0.63743 0.0
C274 C 0.76962 0.92564 0.61887 0.0
C275 C 0.76494 0.9465 0.60856 0.0
C276 C 0.75262 0.93228 0.58908 0.0
C277 C 0.75194 0.90007 0.58931 0.0
C278 C 0.76192 0.89644 0.60678 0.0
C279 C 0.77738 0.95499 0.57661 0.0
C280 C 0.71843 0.92752 0.58533 0.0
H281 H 0.75784 0.78543 0.57997 0.0
H282 H 0.78739 0.81738 0.64654 0.0
H283 H 0.72649 0.83001 0.63709 0.0
H284 H 0.74257 0.8719 0.64309 0.0
H285 H 0.75853 0.8504 0.65516 0.0
H286 H 0.82685 0.87812 0.62916 0.0
H287 H 0.81329 0.88512 0.65014 0.0
H288 H 0.8178 0.90938 0.63145 0.0
H289 H 0.71492 0.81144 0.52236 0.0
H290 H 0.70601 0.89675 0.51918 0.0
H291 H 0.72566 0.91371 0.55105 0.0
H292 H 0.78224 0.84625 0.5458 0.0
H293 H 0.7596 0.8027 0.54396 0.0
H294 H 0.78432 0.82626 0.5646 0.0
H295 H 0.68675 0.7946 0.56312 0.0
H296 H 0.71112 0.78101 0.5737 0.0
H297 H 0.70361 0.7757 0.54927 0.0
H298 H 0.77397 0.75439 0.59843 0.0
C299 C 0.76383 0.79291 0.59432 0.0
C300 C 0.02216 0.81225 0.62443 0.0
C301 C 0.9991 0.78116 0.61648 0.0
C302 C 0.00297 0.77006 0.59921 0.0
C303 C 0.05233 0.82132 0.59795 0.0
C304 C 0.04867 0.83163 0.6151 0.0
C305 C 0.07603 0.86471 0.62213 0.0
H306 H 0.22496 0.98773 0.61438 0.0
C307 C 0.08268 0.84747 0.5921 0.0
C308 C 0.09683 0.87268 0.60638 0.0
H309 H 0.16288 0.97685 0.65672 0.0
H310 H 0.12066 0.92948 0.6402 0.0
H311 H 0.20362 0.91134 0.60359 0.0
H312 H 0.17177 0.975 0.58442 0.0
H313 H 0.16445 0.94712 0.56562 0.0
H314 H 0.20525 0.97392 0.57567 0.0
H315 H 0.22755 0.94639 0.59193 0.0
H316 H 0.20022 0.90762 0.57951 0.0
C317 C 0.09278 0.86105 0.63964 0.0
C318 C 0.06258 0.88808 0.62497 0.0
C319 C 0.11576 0.8381 0.52854 0.0
C320 C 0.1428 0.85891 0.51982 0.0
C321 C 0.16739 0.88784 0.52947 0.0
C322 C 0.16509 0.89631 0.54758 0.0
C323 C 0.13791 0.87556 0.55617 0.0
C324 C 0.11382 0.84692 0.54674 0.0
C325 C 0.08693 0.8279 0.55831 0.0
C326 C 0.09821 0.8506 0.57587 0.0
C327 C 0.12826 0.87831 0.57453 0.0
C328 C 0.0859 0.79547 0.56116 0.0
C329 C 0.05535 0.82369 0.54893 0.0
C330 C 0.20328 0.97404 0.62095 0.0
C331 C 0.20051 0.98339 0.63907 0.0
C332 C 0.16897 0.96795 0.64475 0.0
C333 C 0.14346 0.94052 0.63467 0.0
C334 C 0.14848 0.92888 0.61808 0.0
C335 C 0.17739 0.94661 0.61095 0.0
C336 C 0.17664 0.93312 0.59182 0.0
C337 C 0.14325 0.90301 0.58936 0.0
C338 C 0.12715 0.90055 0.60494 0.0
C339 C 0.20348 0.92423 0.59153 0.0
C340 C 0.17989 0.95851 0.57862 0.0
H341 H 0.03089 0.78057 0.57662 0.0
H342 H 0.01961 0.8212 0.63771 0.0
H343 H 0.0395 0.87933 0.61638 0.0
H344 H 0.07884 0.91251 0.62081 0.0
H345 H 0.05797 0.89051 0.63939 0.0
H346 H 0.09656 0.83995 0.63747 0.0
H347 H 0.07781 0.8569 0.6512 0.0
H348 H 0.11679 0.88217 0.64387 0.0
H349 H 0.09667 0.81564 0.52134 0.0
H350 H 0.18835 0.90402 0.52289 0.0
H351 H 0.18459 0.9187 0.55419 0.0
H352 H 0.11025 0.79825 0.56106 0.0
H353 H 0.06986 0.77614 0.5502 0.0
H354 H 0.07814 0.78696 0.57456 0.0
H355 H 0.0594 0.84708 0.54426 0.0
H356 H 0.0361 0.81629 0.5581 0.0
H357 H 0.04633 0.80544 0.53681 0.0
H358 H 0.98522 0.74611 0.59289 0.0
C359 C 0.02938 0.79008 0.58983 0.0
C360 C 0.88661 0.52933 0.70665 0.0
C361 C 0.88834 0.55763 0.7146 0.0
C362 C 0.90041 0.56844 0.73299 0.0
C363 C 0.90692 0.52153 0.73565 0.0
C364 C 0.89587 0.51163 0.71741 0.0
C365 C 0.89328 0.47971 0.7114 0.0
H366 H 0.8986 0.34692 0.73362 0.0
C367 C 0.91241 0.49647 0.74322 0.0
C368 C 0.90458 0.47199 0.72902 0.0
H369 H 0.87098 0.36506 0.68093 0.0
H370 H 0.88425 0.41916 0.69304 0.0
H371 H 0.96155 0.41564 0.74264 0.0
H372 H 0.86495 0.37785 0.757 0.0
H373 H 0.89114 0.39928 0.77672 0.0
H374 H 0.89188 0.36496 0.76581 0.0
H375 H 0.94754 0.39142 0.76134 0.0
H376 H 0.96539 0.43509 0.76432 0.0
C377 C 0.91658 0.48538 0.69659 0.0
C378 C 0.85743 0.45492 0.70508 0.0
C379 C 0.94642 0.50584 0.81095 0.0
C380 C 0.953 0.48586 0.82148 0.0
C381 C 0.95107 0.45765 0.8131 0.0
C382 C 0.94219 0.44899 0.79439 0.0
C383 C 0.93509 0.46874 0.78396 0.0
C384 C 0.93776 0.49692 0.79216 0.0
C385 C 0.93017 0.51525 0.77866 0.0
C386 C 0.92225 0.49322 0.76111 0.0
C387 C 0.92478 0.46586 0.76443 0.0
C388 C 0.96079 0.54873 0.77803 0.0
C389 C 0.90058 0.51707 0.78437 0.0
C390 C 0.89571 0.36281 0.72476 0.0
C391 C 0.88363 0.35213 0.70645 0.0
C392 C 0.8802 0.37314 0.69512 0.0
C393 C 0.88781 0.40434 0.70221 0.0
C394 C 0.89881 0.41441 0.7208 0.0
C395 C 0.90315 0.39395 0.73163 0.0
C396 C 0.91518 0.40863 0.75099 0.0
C397 C 0.91661 0.44103 0.75015 0.0
C398 C 0.90683 0.44421 0.7325 0.0
C399 C 0.94906 0.4128 0.75521 0.0
C400 C 0.88973 0.38662 0.76342 0.0
H401 H 0.91841 0.55966 0.7576 0.0
H402 H 0.87701 0.52052 0.69256 0.0
H403 H 0.84125 0.45929 0.71351 0.0
H404 H 0.85085 0.42955 0.70664 0.0
H405 H 0.85128 0.45684 0.69065 0.0
H406 H 0.9389 0.50949 0.69953 0.0
H407 H 0.90527 0.48474 0.68292 0.0
H408 H 0.92501 0.46765 0.696 0.0
H409 H 0.948 0.52777 0.81721 0.0
H410 H 0.9562 0.44216 0.82113 0.0
H411 H 0.9409 0.42705 0.78882 0.0
H412 H 0.98285 0.54675 0.77973 0.0
H413 H 0.96276 0.56661 0.78911 0.0
H414 H 0.96181 0.55872 0.76481 0.0
H415 H 0.88281 0.49389 0.78944 0.0
H416 H 0.88716 0.52055 0.77295 0.0
H417 H 0.90778 0.53687 0.79546 0.0
H418 H 0.90164 0.59021 0.73925 0.0
C419 C 0.90988 0.55058 0.74357 0.0
C420 C 0.63159 0.53625 0.71886 0.0
C421 C 0.66026 0.56161 0.7281 0.0
C422 C 0.66239 0.56746 0.74722 0.0
C423 C 0.60798 0.52227 0.74754 0.0
C424 C 0.60631 0.51645 0.72882 0.0
C425 C 0.57655 0.48551 0.72126 0.0
H426 H 0.44331 0.34696 0.73606 0.0
C427 C 0.57805 0.49612 0.75374 0.0
C428 C 0.55987 0.47431 0.73838 0.0
H429 H 0.48744 0.37361 0.68586 0.0
H430 H 0.52598 0.42717 0.70035 0.0
H431 H 0.5079 0.37625 0.76211 0.0
H432 H 0.44731 0.41526 0.74731 0.0
H433 H 0.46436 0.4327 0.7696 0.0
H434 H 0.43872 0.38915 0.7652 0.0
H435 H 0.46804 0.36128 0.76886 0.0
H436 H 0.50256 0.39434 0.78211 0.0
C437 C 0.58696 0.46184 0.71293 0.0
C438 C 0.55693 0.49401 0.70758 0.0
C439 C 0.55437 0.49925 0.82014 0.0
C440 C 0.52769 0.47862 0.82917 0.0
C441 C 0.50183 0.45069 0.81946 0.0
C442 C 0.50232 0.4432 0.80093 0.0
C443 C 0.52901 0.46388 0.79196 0.0
C444 C 0.55443 0.49149 0.80148 0.0
C445 C 0.58047 0.51064 0.78945 0.0
C446 C 0.56594 0.49046 0.77111 0.0
C447 C 0.53602 0.46288 0.77281 0.0
C448 C 0.61147 0.51082 0.79657 0.0
C449 C 0.58441 0.54483 0.78923 0.0
C450 C 0.46108 0.36468 0.72824 0.0
C451 C 0.46276 0.35639 0.70993 0.0
C452 C 0.48599 0.37974 0.70001 0.0
C453 C 0.50846 0.4106 0.70851 0.0
C454 C 0.50789 0.41798 0.72716 0.0
C455 C 0.484 0.3955 0.73661 0.0
C456 C 0.48748 0.40752 0.75638 0.0
C457 C 0.51834 0.44018 0.75741 0.0
C458 C 0.53009 0.4461 0.74027 0.0
C459 C 0.49154 0.38365 0.76811 0.0
C460 C 0.45795 0.41122 0.75997 0.0
H461 H 0.63923 0.5537 0.77149 0.0
H462 H 0.6296 0.53083 0.70422 0.0
H463 H 0.55672 0.51617 0.713 0.0
H464 H 0.53137 0.47481 0.70506 0.0
H465 H 0.56755 0.49883 0.69436 0.0
H466 H 0.61127 0.46787 0.71891 0.0
H467 H 0.58781 0.46267 0.69796 0.0
H468 H 0.5711 0.43644 0.71581 0.0
H469 H 0.57448 0.5209 0.82742 0.0
H470 H 0.48115 0.43467 0.82629 0.0
H471 H 0.4819 0.42152 0.79431 0.0
H472 H 0.60564 0.48827 0.80304 0.0
H473 H 0.62642 0.53177 0.80694 0.0
H474 H 0.6262 0.51123 0.78553 0.0
H475 H 0.56047 0.54301 0.78714 0.0
H476 H 0.59801 0.55808 0.77809 0.0
H477 H 0.59672 0.55981 0.80237 0.0
H478 H 0.68445 0.58675 0.75459 0.0
C479 C 0.63623 0.54818 0.75697 0.0
C480 C 0.63863 0.10594 0.72358 0.0
C481 C 0.66753 0.11044 0.7322 0.0
C482 C 0.66977 0.10794 0.75112 0.0
C483 C 0.61498 0.097 0.7524 0.0
C484 C 0.61328 0.10041 0.73397 0.0
C485 C 0.58332 0.10067 0.72738 0.0
H486 H 0.44771 0.10105 0.74625 0.0
C487 C 0.58486 0.09263 0.75927 0.0
C488 C 0.56667 0.0956 0.74472 0.0
H489 H 0.49116 0.11658 0.69551 0.0
H490 H 0.53203 0.10617 0.70848 0.0
H491 H 0.45376 0.03936 0.75343 0.0
H492 H 0.51329 0.14008 0.77324 0.0
H493 H 0.50773 0.11672 0.79177 0.0
H494 H 0.47328 0.11432 0.77931 0.0
H495 H 0.44497 0.05657 0.77298 0.0
H496 H 0.4711 0.03959 0.77503 0.0
C497 C 0.56382 0.07167 0.71262 0.0
C498 C 0.59344 0.13448 0.72074 0.0
C499 C 0.55827 0.06063 0.82349 0.0
C500 C 0.53111 0.05337 0.83278 0.0
C501 C 0.50615 0.05686 0.82446 0.0
C502 C 0.50781 0.06699 0.80695 0.0
C503 C 0.53473 0.07364 0.7976 0.0
C504 C 0.55954 0.07067 0.80588 0.0
C505 C 0.58624 0.07904 0.79371 0.0
C506 C 0.57241 0.08568 0.77651 0.0
C507 C 0.54242 0.08286 0.77902 0.0
C508 C 0.59047 0.04912 0.79041 0.0
C509 C 0.61693 0.10989 0.80275 0.0
C510 C 0.46603 0.10196 0.73802 0.0
C511 C 0.46666 0.1098 0.71996 0.0
C512 C 0.49054 0.11066 0.70949 0.0
C513 C 0.51428 0.10483 0.71708 0.0
C514 C 0.51422 0.09824 0.73539 0.0
C515 C 0.49001 0.09622 0.74544 0.0
C516 C 0.49355 0.08817 0.76454 0.0
C517 C 0.52483 0.08751 0.76455 0.0
C518 C 0.53676 0.09346 0.74746 0.0
C519 C 0.46435 0.05432 0.76678 0.0
C520 C 0.49697 0.11608 0.77805 0.0
H521 H 0.64654 0.09904 0.77553 0.0
H522 H 0.63644 0.1084 0.70915 0.0
H523 H 0.61741 0.15354 0.7274 0.0
H524 H 0.57706 0.14349 0.72432 0.0
H525 H 0.59494 0.13406 0.70578 0.0
H526 H 0.56394 0.04963 0.71669 0.0
H527 H 0.5743 0.07716 0.69937 0.0
H528 H 0.53817 0.0646 0.71054 0.0
H529 H 0.57774 0.05812 0.82972 0.0
H530 H 0.48511 0.05134 0.83149 0.0
H531 H 0.48795 0.06904 0.80134 0.0
H532 H 0.56675 0.02687 0.78634 0.0
H533 H 0.60127 0.04514 0.803 0.0
H534 H 0.60573 0.05127 0.77939 0.0
H535 H 0.61082 0.12523 0.81171 0.0
H536 H 0.6313 0.12599 0.79264 0.0
H537 H 0.63233 0.10348 0.81128 0.0
H538 H 0.69197 0.11171 0.75808 0.0
C539 C 0.6435 0.10078 0.76121 0.0
C540 C 0.85271 0.55535 0.95675 0.0
C541 C 0.8795 0.55645 0.94949 0.0
C542 C 0.88633 0.56587 0.93184 0.0
C543 C 0.83915 0.57193 0.92865 0.0
C544 C 0.83295 0.56321 0.94614 0.0
C545 C 0.80324 0.56288 0.95171 0.0
H546 H 0.66437 0.55971 0.92785 0.0
C547 C 0.81306 0.57702 0.92101 0.0
C548 C 0.79194 0.5717 0.93443 0.0
H549 H 0.70262 0.55537 0.98133 0.0
H550 H 0.75193 0.56509 0.9695 0.0
H551 H 0.73196 0.6247 0.92162 0.0
H552 H 0.69391 0.52393 0.90224 0.0
H553 H 0.70794 0.54844 0.88405 0.0
H554 H 0.67546 0.54705 0.89561 0.0
H555 H 0.70102 0.60502 0.90297 0.0
H556 H 0.74315 0.62323 0.89952 0.0
C557 C 0.81331 0.5893 0.96797 0.0
C558 C 0.77911 0.52796 0.95597 0.0
C559 C 0.81339 0.60767 0.85627 0.0
C560 C 0.79217 0.61299 0.84517 0.0
C561 C 0.76334 0.60821 0.85173 0.0
C562 C 0.75599 0.59866 0.86931 0.0
C563 C 0.77776 0.59396 0.88044 0.0
C564 C 0.8058 0.59827 0.87377 0.0
C565 C 0.82602 0.59194 0.88733 0.0
C566 C 0.80623 0.58434 0.9035 0.0
C567 C 0.77783 0.58533 0.89942 0.0
C568 C 0.85907 0.62348 0.89163 0.0
C569 C 0.82786 0.56216 0.87931 0.0
C570 C 0.6835 0.56093 0.93693 0.0
C571 C 0.67938 0.55594 0.95546 0.0
C572 C 0.7051 0.55861 0.96699 0.0
C573 C 0.73367 0.56417 0.96009 0.0
C574 C 0.737 0.56774 0.94148 0.0
C575 C 0.71285 0.56759 0.93035 0.0
C576 C 0.72282 0.57603 0.91148 0.0
C577 C 0.75597 0.57912 0.91292 0.0
C578 C 0.76362 0.5734 0.93046 0.0
C579 C 0.72469 0.60881 0.90855 0.0
C580 C 0.69877 0.54753 0.89748 0.0
H581 H 0.87261 0.58046 0.90796 0.0
H582 H 0.84718 0.54822 0.97034 0.0
H583 H 0.77719 0.50983 0.94503 0.0
H584 H 0.75448 0.5235 0.95676 0.0
H585 H 0.78712 0.52255 0.96905 0.0
H586 H 0.83932 0.60791 0.9688 0.0
H587 H 0.80886 0.57851 0.98117 0.0
H588 H 0.80067 0.60328 0.96661 0.0
H589 H 0.83561 0.61108 0.85145 0.0
H590 H 0.74668 0.6121 0.84325 0.0
H591 H 0.73369 0.59534 0.87358 0.0
H592 H 0.85608 0.64519 0.89253 0.0
H593 H 0.87514 0.62628 0.88081 0.0
H594 H 0.87151 0.62469 0.90493 0.0
H595 H 0.80554 0.54489 0.87042 0.0
H596 H 0.82969 0.54756 0.88989 0.0
H597 H 0.84841 0.56971 0.87091 0.0
H598 H 0.90695 0.56677 0.9261 0.0
C599 C 0.86631 0.57366 0.92137 0.0
C600 C 0.44486 0.14026 0.96588 0.0
C601 C 0.44635 0.11419 0.95722 0.0
C602 C 0.43801 0.10633 0.93827 0.0
C603 C 0.42748 0.15103 0.93689 0.0
C604 C 0.43593 0.15858 0.95549 0.0
C605 C 0.4367 0.18918 0.96242 0.0
H606 H 0.43077 0.32341 0.94498 0.0
C607 C 0.42086 0.17598 0.93012 0.0
C608 C 0.42661 0.19852 0.94503 0.0
H609 H 0.45741 0.29969 0.9962 0.0
H610 H 0.44372 0.24667 0.98235 0.0
H611 H 0.46405 0.29442 0.91956 0.0
H612 H 0.36707 0.25315 0.9341 0.0
H613 H 0.36409 0.23602 0.91187 0.0
H614 H 0.38079 0.2794 0.91624 0.0
H615 H 0.437 0.30825 0.91241 0.0
H616 H 0.43737 0.27517 0.89965 0.0
C617 C 0.4718 0.21436 0.9702 0.0
C618 C 0.41144 0.18048 0.97636 0.0
C619 C 0.38277 0.16837 0.86323 0.0
C620 C 0.37453 0.18799 0.85342 0.0
C621 C 0.37655 0.21583 0.86246 0.0
C622 C 0.38691 0.22431 0.88109 0.0
C623 C 0.39538 0.20473 0.89079 0.0
C624 C 0.39299 0.17712 0.88192 0.0
C625 C 0.40276 0.15919 0.89458 0.0
C626 C 0.4107 0.18022 0.91253 0.0
C627 C 0.40671 0.20708 0.91013 0.0
C628 C 0.43282 0.15942 0.88791 0.0
C629 C 0.37348 0.12482 0.8952 0.0
C630 C 0.43314 0.30642 0.95313 0.0
C631 C 0.44528 0.3154 0.97159 0.0
C632 C 0.44812 0.293 0.98195 0.0
C633 C 0.44038 0.26241 0.97383 0.0
C634 C 0.42991 0.25425 0.95512 0.0
C635 C 0.42563 0.27572 0.94517 0.0
C636 C 0.41406 0.2626 0.92548 0.0
C637 C 0.41363 0.23045 0.92512 0.0
C638 C 0.42309 0.22588 0.9425 0.0
C639 C 0.4392 0.28629 0.91351 0.0
C640 C 0.37984 0.25766 0.92155 0.0
H641 H 0.42226 0.1175 0.91367 0.0
H642 H 0.45184 0.14708 0.98039 0.0
H643 H 0.38937 0.15679 0.97181 0.0
H644 H 0.40302 0.19815 0.97789 0.0
H645 H 0.42105 0.17841 0.98994 0.0
H646 H 0.48957 0.20985 0.96353 0.0
H647 H 0.47561 0.21337 0.98507 0.0
H648 H 0.47877 0.23952 0.96764 0.0
H649 H 0.38136 0.14685 0.85647 0.0
H650 H 0.37026 0.23112 0.855 0.0
H651 H 0.38815 0.24592 0.88718 0.0
H652 H 0.44802 0.18193 0.88139 0.0
H653 H 0.42585 0.1384 0.8777 0.0
H654 H 0.44897 0.15947 0.89917 0.0
H655 H 0.35115 0.12607 0.89629 0.0
H656 H 0.37565 0.11289 0.90711 0.0
H657 H 0.36979 0.10891 0.88261 0.0
H658 H 0.43933 0.08637 0.93142 0.0
C659 C 0.42827 0.12447 0.92806 0.0
C660 C 0.68859 0.14323 0.95712 0.0
C661 C 0.66514 0.11258 0.94883 0.0
C662 C 0.66833 0.10237 0.93115 0.0
C663 C 0.71818 0.15344 0.93033 0.0
C664 C 0.71487 0.16302 0.94776 0.0
C665 C 0.7421 0.19604 0.95496 0.0
H666 H 0.8903 0.32049 0.9478 0.0
C667 C 0.74853 0.17989 0.92459 0.0
C668 C 0.76269 0.20468 0.93911 0.0
H669 H 0.8277 0.30798 0.9901 0.0
H670 H 0.78597 0.26057 0.97337 0.0
H671 H 0.86969 0.24442 0.93667 0.0
H672 H 0.83688 0.30746 0.91767 0.0
H673 H 0.8308 0.28034 0.89873 0.0
H674 H 0.87115 0.30752 0.90931 0.0
H675 H 0.89348 0.2796 0.92508 0.0
H676 H 0.86636 0.24082 0.9126 0.0
C677 C 0.75922 0.19208 0.97221 0.0
C678 C 0.72837 0.21906 0.9583 0.0
C679 C 0.78279 0.17192 0.8611 0.0
C680 C 0.81004 0.19292 0.85257 0.0
C681 C 0.83444 0.22173 0.86244 0.0
C682 C 0.83174 0.22988 0.88053 0.0
C683 C 0.80436 0.20895 0.88893 0.0
C684 C 0.78046 0.18042 0.8793 0.0
C685 C 0.75329 0.16118 0.89068 0.0
C686 C 0.76425 0.18351 0.90837 0.0
C687 C 0.79435 0.21133 0.90726 0.0
C688 C 0.75217 0.12869 0.89335 0.0
C689 C 0.72188 0.15715 0.88116 0.0
C690 C 0.86855 0.3065 0.95426 0.0
C691 C 0.86555 0.31546 0.97243 0.0
C692 C 0.83401 0.29951 0.97807 0.0
C693 C 0.80876 0.27204 0.96786 0.0
C694 C 0.81402 0.26088 0.95118 0.0
C695 C 0.84291 0.27906 0.94412 0.0
C696 C 0.84246 0.26596 0.92494 0.0
C697 C 0.80917 0.23571 0.92227 0.0
C698 C 0.79293 0.23274 0.93784 0.0
C699 C 0.86948 0.25733 0.92464 0.0
C700 C 0.84568 0.29156 0.9119 0.0
H701 H 0.6958 0.1138 0.90834 0.0
H702 H 0.68639 0.15161 0.97064 0.0
H703 H 0.7048 0.21001 0.95018 0.0
H704 H 0.74406 0.24349 0.95394 0.0
H705 H 0.72462 0.2216 0.97288 0.0
H706 H 0.76342 0.17132 0.96965 0.0
H707 H 0.7443 0.18722 0.98384 0.0
H708 H 0.78307 0.21338 0.97654 0.0
H709 H 0.76382 0.14956 0.85375 0.0
H710 H 0.85557 0.23805 0.85603 0.0
H711 H 0.85112 0.25221 0.88729 0.0
H712 H 0.7768 0.132 0.89437 0.0
H713 H 0.73781 0.11013 0.88171 0.0
H714 H 0.74243 0.11888 0.90618 0.0
H715 H 0.72623 0.18045 0.87619 0.0
H716 H 0.70273 0.15049 0.89036 0.0
H717 H 0.7126 0.13851 0.86923 0.0
H718 H 0.65018 0.07883 0.92454 0.0
C719 C 0.69472 0.1227 0.92182 0.0
C720 C 0.55324 0.86037 0.04143 0.0
C721 C 0.55551 0.88897 0.04935 0.0
C722 C 0.56784 0.89979 0.06772 0.0
C723 C 0.57317 0.85218 0.07045 0.0
C724 C 0.56214 0.84238 0.0522 0.0
C725 C 0.55966 0.8105 0.04614 0.0
H726 H 0.56145 0.67586 0.06837 0.0
C727 C 0.57814 0.82682 0.07805 0.0
C728 C 0.57045 0.80244 0.06382 0.0
H729 H 0.54122 0.69777 0.01503 0.0
H730 H 0.55352 0.75129 0.02754 0.0
H731 H 0.62449 0.74297 0.07873 0.0
H732 H 0.52725 0.70805 0.09112 0.0
H733 H 0.55279 0.72813 0.11129 0.0
H734 H 0.55253 0.6934 0.10018 0.0
H735 H 0.60892 0.71933 0.09748 0.0
H736 H 0.62783 0.76311 0.1001 0.0
C737 C 0.58334 0.81634 0.0315 0.0
C738 C 0.52395 0.78583 0.03953 0.0
C739 C 0.61139 0.83582 0.14585 0.0
C740 C 0.61744 0.81558 0.15646 0.0
C741 C 0.61387 0.78649 0.14827 0.0
C742 C 0.6043 0.77744 0.12963 0.0
C743 C 0.59828 0.79776 0.11907 0.0
C744 C 0.60207 0.82653 0.12714 0.0
C745 C 0.59534 0.84529 0.11355 0.0
C746 C 0.58711 0.82309 0.09604 0.0
C747 C 0.58852 0.79517 0.09947 0.0
C748 C 0.6265 0.87834 0.11296 0.0
C749 C 0.56616 0.84802 0.11911 0.0
C750 C 0.55989 0.69241 0.05948 0.0
C751 C 0.55022 0.68295 0.04083 0.0
C752 C 0.54865 0.7049 0.02948 0.0
C753 C 0.55566 0.73577 0.03678 0.0
C754 C 0.56438 0.74469 0.05562 0.0
C755 C 0.56715 0.72345 0.06653 0.0
C756 C 0.57813 0.7376 0.08605 0.0
C757 C 0.58053 0.77045 0.08516 0.0
C758 C 0.57204 0.7743 0.06737 0.0
C759 C 0.61144 0.74081 0.09101 0.0
C760 C 0.55153 0.71572 0.09792 0.0
H761 H 0.58547 0.89065 0.09234 0.0
H762 H 0.5437 0.85169 0.02732 0.0
H763 H 0.50773 0.78847 0.04877 0.0
H764 H 0.51792 0.7603 0.0395 0.0
H765 H 0.51753 0.78982 0.0256 0.0
H766 H 0.60454 0.84136 0.03372 0.0
H767 H 0.57153 0.81327 0.01758 0.0
H768 H 0.59369 0.80022 0.03199 0.0
H769 H 0.61421 0.85841 0.15197 0.0
H770 H 0.61853 0.77077 0.15637 0.0
H771 H 0.60191 0.75492 0.12419 0.0
H772 H 0.64819 0.87574 0.11488 0.0
H773 H 0.62873 0.89654 0.12392 0.0
H774 H 0.62805 0.88826 0.09967 0.0
H775 H 0.54786 0.82502 0.12411 0.0
H776 H 0.55325 0.85202 0.10765 0.0
H777 H 0.57368 0.86786 0.13024 0.0
H778 H 0.56961 0.92183 0.07396 0.0
C779 C 0.57676 0.88155 0.07833 0.0
C780 C 0.30046 0.86683 0.05316 0.0
C781 C 0.32874 0.89295 0.06229 0.0
C782 C 0.33086 0.89908 0.08138 0.0
C783 C 0.27737 0.85251 0.08193 0.0
C784 C 0.27568 0.84647 0.06323 0.0
C785 C 0.24674 0.81463 0.05588 0.0
H786 H 0.11795 0.67281 0.07173 0.0
C787 C 0.24832 0.82552 0.08833 0.0
C788 C 0.23071 0.80298 0.07314 0.0
H789 H 0.15894 0.7014 0.02087 0.0
H790 H 0.19725 0.75505 0.03535 0.0
H791 H 0.18435 0.70553 0.0977 0.0
H792 H 0.11871 0.7386 0.08288 0.0
H793 H 0.13596 0.75736 0.10494 0.0
H794 H 0.11234 0.71356 0.10114 0.0
H795 H 0.14432 0.68839 0.10455 0.0
H796 H 0.17787 0.7228 0.11764 0.0
C797 C 0.25864 0.79224 0.04755 0.0
C798 C 0.22575 0.82159 0.04228 0.0
C799 C 0.22407 0.82974 0.15443 0.0
C800 C 0.19808 0.8084 0.16365 0.0
C801 C 0.17362 0.77898 0.1544 0.0
C802 C 0.17475 0.7708 0.13606 0.0
C803 C 0.20062 0.79232 0.12686 0.0
C804 C 0.22479 0.82124 0.136 0.0
C805 C 0.25028 0.84096 0.12382 0.0
C806 C 0.23657 0.81972 0.10576 0.0
C807 C 0.20773 0.7911 0.10776 0.0
C808 C 0.28241 0.84372 0.13126 0.0
C809 C 0.25188 0.87404 0.12289 0.0
C810 C 0.13518 0.69088 0.06383 0.0
C811 C 0.13598 0.68324 0.04529 0.0
C812 C 0.15829 0.70708 0.03521 0.0
C813 C 0.18053 0.73802 0.04367 0.0
C814 C 0.18052 0.74506 0.06243 0.0
C815 C 0.15765 0.72195 0.07211 0.0
C816 C 0.161 0.73413 0.09183 0.0
C817 C 0.19072 0.76765 0.09256 0.0
C818 C 0.20199 0.77381 0.07532 0.0
C819 C 0.16703 0.71157 0.10369 0.0
C820 C 0.13046 0.73589 0.09555 0.0
H821 H 0.30809 0.88495 0.10573 0.0
H822 H 0.29853 0.8612 0.03854 0.0
H823 H 0.22467 0.84333 0.04756 0.0
H824 H 0.20047 0.80163 0.0401 0.0
H825 H 0.23585 0.82639 0.0289 0.0
H826 H 0.28306 0.79909 0.05378 0.0
H827 H 0.25995 0.79365 0.03263 0.0
H828 H 0.24346 0.76658 0.05013 0.0
H829 H 0.2431 0.85251 0.16138 0.0
H830 H 0.15348 0.7624 0.16139 0.0
H831 H 0.15537 0.74804 0.12976 0.0
H832 H 0.27816 0.82273 0.13891 0.0
H833 H 0.29713 0.86618 0.14068 0.0
H834 H 0.29684 0.84316 0.12025 0.0
H835 H 0.22727 0.87044 0.12029 0.0
H836 H 0.26545 0.88748 0.11179 0.0
H837 H 0.26314 0.8897 0.13595 0.0
H838 H 0.35264 0.91893 0.08867 0.0
C839 C 0.30512 0.87923 0.09123 0.0
C840 C 0.31086 0.44734 0.05796 0.0
C841 C 0.33543 0.44266 0.06547 0.0
C842 C 0.33347 0.43161 0.08289 0.0
C843 C 0.28281 0.4306 0.08517 0.0
C844 C 0.28497 0.4413 0.068 0.0
C845 C 0.25752 0.44624 0.06209 0.0
H846 H 0.11438 0.43108 0.07664 0.0
C847 C 0.25305 0.42741 0.092 0.0
C848 C 0.23826 0.43658 0.07846 0.0
H849 H 0.17062 0.46887 0.03124 0.0
H850 H 0.21265 0.46361 0.04565 0.0
H851 H 0.13077 0.37298 0.08349 0.0
H852 H 0.17109 0.47254 0.10529 0.0
H853 H 0.17681 0.45253 0.12308 0.0
H854 H 0.13642 0.44047 0.11383 0.0
H855 H 0.11019 0.38761 0.0973 0.0
H856 H 0.13676 0.37527 0.10741 0.0
C857 C 0.239 0.42264 0.04477 0.0
C858 C 0.27124 0.48272 0.05943 0.0
C859 C 0.21991 0.38686 0.1541 0.0
C860 C 0.19364 0.38209 0.16366 0.0
C861 C 0.17079 0.38914 0.15578 0.0
C862 C 0.17371 0.40047 0.13854 0.0
C863 C 0.19977 0.4048 0.12899 0.0
C864 C 0.22261 0.39846 0.13684 0.0
C865 C 0.24922 0.40571 0.12478 0.0
C866 C 0.2384 0.41716 0.10842 0.0
C867 C 0.2092 0.4162 0.11096 0.0
C868 C 0.24917 0.37374 0.11969 0.0
C869 C 0.28121 0.43312 0.13497 0.0
C870 C 0.13422 0.43569 0.06882 0.0
C871 C 0.13536 0.44429 0.05069 0.0
C872 C 0.16565 0.45678 0.04354 0.0
C873 C 0.19102 0.45475 0.0523 0.0
C874 C 0.18728 0.4416 0.06902 0.0
C875 C 0.15984 0.43365 0.07741 0.0
C876 C 0.16153 0.42318 0.09611 0.0
C877 C 0.19396 0.42478 0.09707 0.0
C878 C 0.20873 0.43537 0.08107 0.0
C879 C 0.13331 0.38798 0.09627 0.0
C880 C 0.16124 0.44821 0.1104 0.0
H881 H 0.30704 0.41726 0.10602 0.0
H882 H 0.31219 0.45624 0.04469 0.0
H883 H 0.29491 0.49837 0.06756 0.0
H884 H 0.25573 0.49205 0.06429 0.0
H885 H 0.27482 0.48714 0.04491 0.0
H886 H 0.23569 0.39815 0.04644 0.0
H887 H 0.25244 0.43154 0.03267 0.0
H888 H 0.21456 0.41867 0.04173 0.0
H889 H 0.23781 0.38167 0.15995 0.0
H890 H 0.15046 0.3856 0.16299 0.0
H891 H 0.15543 0.40525 0.13328 0.0
H892 H 0.22409 0.35305 0.11671 0.0
H893 H 0.26101 0.36798 0.13106 0.0
H894 H 0.261 0.37427 0.10725 0.0
H895 H 0.27727 0.45128 0.14282 0.0
H896 H 0.29928 0.44714 0.12568 0.0
H897 H 0.29169 0.42323 0.14476 0.0
H898 H 0.35249 0.42816 0.08888 0.0
C899 C 0.30721 0.42547 0.09278 0.0
C900 C 0.50802 0.87057 0.28591 0.0
C901 C 0.53705 0.87596 0.27961 0.0
C902 C 0.5453 0.88832 0.26267 0.0
C903 C 0.49572 0.88999 0.25856 0.0
C904 C 0.48792 0.87795 0.27527 0.0
C905 C 0.45668 0.87465 0.28027 0.0
H906 H 0.33516 0.90398 0.26383 0.0
C907 C 0.46975 0.89547 0.25111 0.0
C908 C 0.44693 0.88668 0.26382 0.0
H909 H 0.35334 0.8591 0.30875 0.0
H910 H 0.39669 0.85997 0.29466 0.0
H911 H 0.41051 0.95783 0.25778 0.0
H912 H 0.34589 0.85932 0.2341 0.0
H913 H 0.36808 0.88228 0.21698 0.0
H914 H 0.34111 0.89256 0.22775 0.0
H915 H 0.37374 0.9461 0.24396 0.0
H916 H 0.41003 0.95548 0.23377 0.0
C917 C 0.46415 0.89741 0.29795 0.0
C918 C 0.43271 0.83823 0.28194 0.0
C919 C 0.47639 0.9389 0.18933 0.0
C920 C 0.45619 0.94624 0.17871 0.0
C921 C 0.42773 0.94218 0.18545 0.0
C922 C 0.41957 0.93101 0.20266 0.0
C923 C 0.44007 0.92378 0.21322 0.0
C924 C 0.46785 0.92761 0.2064 0.0
C925 C 0.48653 0.91821 0.21921 0.0
C926 C 0.46526 0.9076 0.23473 0.0
C927 C 0.43817 0.9112 0.23132 0.0
C928 C 0.51969 0.94886 0.22525 0.0
C929 C 0.48837 0.8896 0.20945 0.0
C930 C 0.34974 0.89692 0.2717 0.0
C931 C 0.34367 0.8873 0.28963 0.0
C932 C 0.35984 0.87152 0.29657 0.0
C933 C 0.38492 0.87124 0.28809 0.0
C934 C 0.39369 0.8856 0.27184 0.0
C935 C 0.37527 0.89667 0.26337 0.0
C936 C 0.38621 0.90757 0.24494 0.0
C937 C 0.4155 0.9032 0.24452 0.0
C938 C 0.41968 0.89046 0.26046 0.0
C939 C 0.39552 0.94362 0.24495 0.0
C940 C 0.35896 0.88451 0.23007 0.0
H941 H 0.53228 0.9046 0.23927 0.0
H942 H 0.50133 0.8611 0.29893 0.0
H943 H 0.43901 0.82207 0.27388 0.0
H944 H 0.40788 0.83069 0.27635 0.0
H945 H 0.4325 0.83258 0.29633 0.0
H946 H 0.48601 0.92141 0.29711 0.0
H947 H 0.46869 0.88685 0.31001 0.0
H948 H 0.44492 0.90285 0.30054 0.0
H949 H 0.49834 0.94178 0.18438 0.0
H950 H 0.41192 0.94775 0.17737 0.0
H951 H 0.39768 0.92849 0.20712 0.0
H952 H 0.51774 0.97119 0.22608 0.0
H953 H 0.53746 0.952 0.21544 0.0
H954 H 0.52958 0.94857 0.23906 0.0
H955 H 0.46528 0.87253 0.20113 0.0
H956 H 0.49222 0.87462 0.21899 0.0
H957 H 0.50774 0.89848 0.20014 0.0
H958 H 0.56766 0.89253 0.25767 0.0
C959 C 0.52474 0.89527 0.25207 0.0
C960 C 0.1268 0.48076 0.2973 0.0
C961 C 0.12143 0.45077 0.28958 0.0
C962 C 0.10807 0.44 0.27134 0.0
C963 C 0.10598 0.48953 0.26876 0.0
C964 C 0.11902 0.49966 0.28672 0.0
C965 C 0.12421 0.53256 0.29291 0.0
H966 H 0.11412 0.66478 0.2756 0.0
C967 C 0.10123 0.51544 0.26165 0.0
C968 C 0.11191 0.54061 0.2758 0.0
H969 H 0.1527 0.64702 0.325 0.0
H970 H 0.14045 0.59447 0.31126 0.0
H971 H 0.14698 0.63693 0.24844 0.0
H972 H 0.05238 0.59265 0.26691 0.0
H973 H 0.0477 0.57924 0.24368 0.0
H974 H 0.06471 0.62201 0.25058 0.0
H975 H 0.11731 0.64701 0.24069 0.0
H976 H 0.11934 0.61345 0.2296 0.0
C977 C 0.16087 0.55589 0.29794 0.0
C978 C 0.10309 0.52876 0.30872 0.0
C979 C 0.05558 0.50365 0.19588 0.0
C980 C 0.04874 0.52398 0.18583 0.0
C981 C 0.05378 0.55349 0.19439 0.0
C982 C 0.06601 0.56303 0.21274 0.0
C983 C 0.07329 0.54283 0.22265 0.0
C984 C 0.06777 0.51353 0.21428 0.0
C985 C 0.07668 0.49517 0.22708 0.0
C986 C 0.08879 0.51844 0.24439 0.0
C987 C 0.08684 0.54639 0.24166 0.0
C988 C 0.10372 0.4909 0.21934 0.0
C989 C 0.0458 0.46286 0.22945 0.0
C990 C 0.11978 0.64933 0.28332 0.0
C991 C 0.13432 0.65962 0.30132 0.0
C992 C 0.14155 0.63928 0.31109 0.0
C993 C 0.13439 0.60885 0.30307 0.0
C994 C 0.11998 0.59871 0.28502 0.0
C995 C 0.113 0.61883 0.27541 0.0
C996 C 0.09839 0.6041 0.25624 0.0
C997 C 0.09771 0.57183 0.25601 0.0
C998 C 0.11027 0.5689 0.27293 0.0
C999 C 0.1214 0.62646 0.24292 0.0
C1000 C 0.06407 0.59936 0.25405 0.0
H1001 H 0.09024 0.44998 0.24701 0.0
H1002 H 0.13729 0.48952 0.31127 0.0
H1003 H 0.07965 0.5056 0.30627 0.0
H1004 H 0.09658 0.54789 0.31014 0.0
H1005 H 0.1152 0.52845 0.3219 0.0
H1006 H 0.17534 0.5484 0.28985 0.0
H1007 H 0.16785 0.55622 0.31258 0.0
H1008 H 0.16892 0.58101 0.29476 0.0
H1009 H 0.05177 0.48081 0.1895 0.0
H1010 H 0.04854 0.5693 0.18675 0.0
H1011 H 0.06952 0.5859 0.21846 0.0
H1012 H 0.12099 0.51315 0.21327 0.0
H1013 H 0.09367 0.47025 0.2085 0.0
H1014 H 0.11845 0.48722 0.22989 0.0
H1015 H 0.02473 0.46651 0.22991 0.0
H1016 H 0.04724 0.45297 0.24239 0.0
H1017 H 0.04027 0.44424 0.21793 0.0
H1018 H 0.10401 0.4169 0.26522 0.0
C1019 C 0.10022 0.45925 0.26087 0.0
C1020 C 0.35909 0.4775 0.29095 0.0
C1021 C 0.33599 0.44622 0.28327 0.0
C1022 C 0.33976 0.43468 0.26608 0.0
C1023 C 0.38891 0.48598 0.26433 0.0
C1024 C 0.38544 0.49664 0.28144 0.0
C1025 C 0.4128 0.52983 0.28824 0.0
H1026 H 0.5604 0.65403 0.27909 0.0
C1027 C 0.41906 0.51214 0.25821 0.0
C1028 C 0.43329 0.5376 0.27236 0.0
H1029 H 0.49973 0.64242 0.32231 0.0
H1030 H 0.45755 0.5945 0.3062 0.0
H1031 H 0.54005 0.57759 0.2684 0.0
H1032 H 0.50683 0.6405 0.24992 0.0
H1033 H 0.49803 0.61203 0.23115 0.0
H1034 H 0.53939 0.63893 0.24025 0.0
H1035 H 0.56322 0.61287 0.25674 0.0
H1036 H 0.53618 0.57405 0.24431 0.0
C1037 C 0.42993 0.52651 0.30571 0.0
C1038 C 0.39926 0.55312 0.29107 0.0
C1039 C 0.45124 0.50261 0.19429 0.0
C1040 C 0.47763 0.52394 0.18527 0.0
C1041 C 0.50176 0.55339 0.19468 0.0
C1042 C 0.49973 0.56181 0.21284 0.0
C1043 C 0.47322 0.54056 0.22174 0.0
C1044 C 0.44946 0.51149 0.21253 0.0
C1045 C 0.42302 0.49228 0.22436 0.0
C1046 C 0.43426 0.51525 0.24183 0.0
C1047 C 0.46392 0.54328 0.2402 0.0
C1048 C 0.4229 0.46035 0.22733 0.0
C1049 C 0.39095 0.48712 0.21513 0.0
C1050 C 0.53917 0.64007 0.28596 0.0
C1051 C 0.53686 0.64946 0.30417 0.0
C1052 C 0.50559 0.63358 0.31021 0.0
C1053 C 0.48008 0.60582 0.30038 0.0
C1054 C 0.48475 0.59424 0.28366 0.0
C1055 C 0.51328 0.61227 0.27622 0.0
C1056 C 0.51213 0.5987 0.25705 0.0
C1057 C 0.47901 0.5682 0.25491 0.0
C1058 C 0.46333 0.56566 0.27067 0.0
C1059 C 0.53938 0.59044 0.25642 0.0
C1060 C 0.51439 0.62375 0.24383 0.0
H1061 H 0.3674 0.44466 0.24335 0.0
H1062 H 0.35672 0.48677 0.30417 0.0
H1063 H 0.37629 0.5444 0.28236 0.0
H1064 H 0.41554 0.57763 0.28701 0.0
H1065 H 0.39442 0.55537 0.30546 0.0
H1066 H 0.43325 0.50509 0.3037 0.0
H1067 H 0.41546 0.52309 0.31745 0.0
H1068 H 0.45422 0.54743 0.30956 0.0
H1069 H 0.43244 0.47979 0.18727 0.0
H1070 H 0.52221 0.56998 0.18789 0.0
H1071 H 0.51892 0.58457 0.21926 0.0
H1072 H 0.44768 0.4641 0.2278 0.0
H1073 H 0.40794 0.44107 0.21611 0.0
H1074 H 0.41439 0.4513 0.24051 0.0
H1075 H 0.39431 0.51018 0.21032 0.0
H1076 H 0.3719 0.47954 0.22445 0.0
H1077 H 0.38202 0.46865 0.20313 0.0
H1078 H 0.32204 0.41056 0.25997 0.0
C1079 C 0.36599 0.45451 0.25649 0.0
C1080 C 0.53843 0.02831 0.05861 0.0
Eu1081 Eu 0.51588 0.01924 0.02454 0.0
C1082 C 0.52464 0.01588 0.07579 0.0
C1083 C 0.49473 0.01204 0.07974 0.0
C1084 C 0.48225 1.0005 0.09616 0.0
C1085 C 0.49928 0.99227 0.1088 0.0
C1086 C 0.52887 0.99561 0.10474 0.0
C1087 C 0.54146 0.00737 0.08839 0.0
C1088 C 0.49323 0.0508 0.00494 0.0
C1089 C 0.43776 0.96549 0.02125 0.0
C1090 C 0.45567 0.97313 0.95279 0.0
Eu1091 Eu 0.47774 0.98237 0.98687 0.0
C1092 C 0.46995 0.98395 0.93554 0.0
C1093 C 0.49642 0.98125 0.9306 0.0
C1094 C 0.5098 0.99239 0.91432 0.0
C1095 C 0.49715 0.00669 0.9029 0.0
C1096 C 0.47108 0.0098 0.90794 0.0
C1097 C 0.45757 0.99848 0.92411 0.0
C1098 C 0.50104 0.95178 0.00692 0.0
C1099 C 0.55487 0.03811 0.98911 0.0
O1100 O 0.53908 0.00725 0.04666 0.0
O1101 O 0.53009 0.04757 0.05106 0.0
O1102 O 0.51822 0.06568 0.01699 0.0
O1103 O 0.47955 0.02051 0.00586 0.0
O1104 O 0.46576 0.98208 0.03142 0.0
O1105 O 0.43526 0.96443 1.00328 0.0
O1106 O 0.45738 0.99602 0.96431 0.0
O1107 O 0.4613 0.95234 0.96079 0.0
O1108 O 0.47415 0.93631 0.9963 0.0
O1109 O 0.51511 0.98183 0.00527 0.0
O1110 O 0.52772 0.01663 0.9794 0.0
O1111 O 0.55753 0.04257 0.0072 0.0
H1112 H 0.48103 0.01804 0.07018 0.0
H1113 H 0.45933 0.99799 0.09903 0.0
H1114 H 0.54232 0.98935 0.11431 0.0
H1115 H 0.56441 0.0099 0.0856 0.0
H1116 H 0.50677 0.97059 0.9393 0.0
H1117 H 0.52994 0.98983 0.91061 0.0
H1118 H 0.46102 0.02076 0.89926 0.0
H1119 H 0.43743 0.00115 0.92772 0.0
C1120 C 0.98343 0.51865 0.05421 0.0
Eu1121 Eu 0.99418 0.50203 0.02229 0.0
C1122 C 0.98912 0.51412 0.07334 0.0
C1123 C 0.98845 0.48574 0.0782 0.0
C1124 C 0.99641 0.48324 0.09636 0.0
C1125 C 0.00546 0.50924 0.10974 0.0
C1126 C 0.00572 0.53734 0.10489 0.0
C1127 C 0.99756 0.53974 0.08682 0.0
C1128 C 0.96709 0.4409 0.00495 0.0
C1129 C 0.04644 0.47995 0.0189 0.0
C1130 C 0.02593 0.49262 0.95141 0.0
Eu1131 Eu 0.01721 0.49967 0.9855 0.0
C1132 C 0.01157 0.49273 0.93331 0.0
C1133 C 0.0026 0.51599 0.92982 0.0
C1134 C 0.9915 0.51729 0.91215 0.0
C1135 C 0.98884 0.4951 0.89788 0.0
C1136 C 0.99684 0.47128 0.90146 0.0
C1137 C 0.00823 0.47017 0.91907 0.0
C1138 C 0.05624 0.55415 0.00812 0.0
C1139 C 0.96158 0.51871 0.98829 0.0
O1140 O 0.00939 0.53673 0.04634 0.0
O1141 O 0.96184 0.49314 0.04354 0.0
O1142 O 0.97535 0.44825 0.02235 0.0
O1143 O 0.97241 0.46606 0.99747 0.0
O1144 O 0.03779 0.497 0.0295 0.0
O1145 O 0.03685 0.47323 1.00131 0.0
O1146 O 0.00878 0.46808 0.96062 0.0
O1147 O 0.04088 0.52035 0.96158 0.0
O1148 O 0.06677 0.53935 0.99776 0.0
O1149 O 0.02603 0.53997 0.00577 0.0
O1150 O 0.98062 0.51433 0.97776 0.0
O1151 O 0.96186 0.51509 0.00588 0.0
H1152 H 0.98233 0.46581 0.06796 0.0
H1153 H 0.99617 0.46141 0.09991 0.0
H1154 H 0.01266 0.55759 0.11506 0.0
H1155 H 0.99846 0.56189 0.0833 0.0
H1156 H 0.00478 0.53354 0.94063 0.0
H1157 H 0.98539 0.5358 0.90955 0.0
H1158 H 0.99496 0.45405 0.89053 0.0
H1159 H 0.01501 0.45209 0.9215 0.0
C1160 C 0.46058 0.47325 0.95517 0.0
Eu1161 Eu 0.48491 0.49431 0.98886 0.0
C1162 C 0.47382 0.47732 0.93739 0.0
C1163 C 0.50286 0.50528 0.93471 0.0
C1164 C 0.51508 0.50877 0.9177 0.0
C1165 C 0.49856 0.48421 0.90327 0.0
C1166 C 0.46981 0.45614 0.90604 0.0
C1167 C 0.45752 0.45274 0.92299 0.0
C1168 C 0.50739 0.5534 0.00684 0.0
C1169 C 0.56327 0.52136 0.99098 0.0
C1170 C 0.54751 0.52414 0.05988 0.0
Eu1171 Eu 0.52395 0.50482 0.02589 0.0
C1172 C 0.53454 0.51972 0.07778 0.0
C1173 C 0.55456 0.53923 0.09331 0.0
C1174 C 0.54233 0.53652 0.11027 0.0
C1175 C 0.50983 0.51437 0.11193 0.0
C1176 C 0.48979 0.49459 0.09644 0.0
C1177 C 0.50208 0.49721 0.07947 0.0
C1178 C 0.49991 0.44583 0.00712 0.0
C1179 C 0.44629 0.4795 0.02447 0.0
O1180 O 0.46783 0.4566 0.96605 0.0
O1181 O 0.46248 0.49909 0.96371 0.0
O1182 O 0.48168 0.53919 0.99534 0.0
O1183 O 0.52197 0.53745 0.0065 0.0
O1184 O 0.53511 0.50818 0.98102 0.0
O1185 O 0.56602 0.52601 0.00898 0.0
O1186 O 0.54006 0.54105 0.04933 0.0
O1187 O 0.54559 0.49855 0.05097 0.0
O1188 O 0.52738 0.46029 0.01714 0.0
O1189 O 0.48575 0.46195 0.00859 0.0
O1190 O 0.47406 0.48898 0.03402 0.0
O1191 O 0.44338 0.47739 0.0064 0.0
H1192 H 0.51599 0.52441 0.94572 0.0
H1193 H 0.53731 0.53056 0.91578 0.0
H1194 H 0.4568 0.437 0.89502 0.0
H1195 H 0.43523 0.43094 0.92484 0.0
H1196 H 0.5796 0.55681 0.09228 0.0
H1197 H 0.55812 0.55197 0.12209 0.0
H1198 H 0.46465 0.47738 0.09747 0.0
H1199 H 0.48621 0.48185 0.06768 0.0
C1200 C 0.20712 0.36131 0.39254 0.0
Eu1201 Eu 0.18519 0.35293 0.35837 0.0
C1202 C 0.19238 0.34906 0.40954 0.0
C1203 C 0.20461 0.36906 0.42597 0.0
C1204 C 0.18981 0.35851 0.44196 0.0
C1205 C 0.16102 0.3282 0.44195 0.0
C1206 C 0.15152 0.30696 0.42565 0.0
C1207 C 0.16624 0.31754 0.40963 0.0
C1208 C 0.16294 0.3849 0.33875 0.0
C1209 C 0.10693 0.29947 0.35473 0.0
C1210 C 0.12525 0.30633 0.28623 0.0
Eu1211 Eu 0.14741 0.31644 0.32039 0.0
C1212 C 0.1387 0.31726 0.26868 0.0
C1213 C 0.15139 0.30101 0.25859 0.0
C1214 C 0.16304 0.31094 0.24178 0.0
C1215 C 0.16196 0.3371 0.2347 0.0
C1216 C 0.14974 0.35363 0.24482 0.0
C1217 C 0.13815 0.34378 0.26161 0.0
C1218 C 0.17023 0.28559 0.34058 0.0
C1219 C 0.22471 0.37225 0.3231 0.0
O1220 O 0.20728 0.34004 0.38051 0.0
O1221 O 0.19967 0.38121 0.38503 0.0
O1222 O 0.18737 0.39944 0.35117 0.0
O1223 O 0.14936 0.35455 0.33943 0.0
O1224 O 0.13477 0.3163 0.36501 0.0
O1225 O 0.10469 0.29807 0.33672 0.0
O1226 O 0.12554 0.32842 0.29781 0.0
O1227 O 0.1324 0.28658 0.29426 0.0
O1228 O 0.14342 0.27025 0.32991 0.0
O1229 O 0.18441 0.31565 0.33898 0.0
O1230 O 0.1974 0.35168 0.31317 0.0
O1231 O 0.22719 0.37594 0.34122 0.0
H1232 H 0.2258 0.39295 0.42648 0.0
H1233 H 0.20173 0.37443 0.45432 0.0
H1234 H 0.13326 0.28172 0.42491 0.0
H1235 H 0.15722 0.30088 0.39732 0.0
H1236 H 0.15205 0.28042 0.26357 0.0
H1237 H 0.17239 0.2979 0.23413 0.0
H1238 H 0.14871 0.37386 0.23956 0.0
H1239 H 0.12844 0.35677 0.26896 0.0
C1240 C 0.64387 0.84825 0.38747 0.0
Eu1241 Eu 0.65838 0.83509 0.3559 0.0
C1242 C 0.64869 0.84276 0.40647 0.0
C1243 C 0.64988 0.81507 0.41087 0.0
C1244 C 0.65783 0.81217 0.42894 0.0
C1245 C 0.66511 0.83715 0.44267 0.0
C1246 C 0.66334 0.86446 0.43829 0.0
C1247 C 0.65513 0.86721 0.42032 0.0
C1248 C 0.63546 0.77571 0.3375 0.0
C1249 C 0.71379 0.81602 0.35314 0.0
C1250 C 0.70038 0.83831 0.28692 0.0
Eu1251 Eu 0.68651 0.8384 0.32049 0.0
C1252 C 0.68523 0.83594 0.26853 0.0
C1253 C 0.67633 0.85873 0.26369 0.0
C1254 C 0.66395 0.85724 0.24586 0.0
C1255 C 0.65995 0.83277 0.23271 0.0
C1256 C 0.66806 0.80957 0.23758 0.0
C1257 C 0.68073 0.81122 0.25535 0.0
C1258 C 0.7202 0.89176 0.34524 0.0
C1259 C 0.62514 0.84903 0.32112 0.0
O1260 O 0.67026 0.86794 0.38041 0.0
O1261 O 0.6238 0.82296 0.37614 0.0
O1262 O 0.64221 0.78202 0.35505 0.0
O1263 O 0.64058 0.80109 0.33028 0.0
O1264 O 0.70155 0.82939 0.36388 0.0
O1265 O 0.70741 0.81212 0.33529 0.0
O1266 O 0.68766 0.81213 0.2955 0.0
O1267 O 0.70907 0.86474 0.29763 0.0
O1268 O 0.73345 0.87937 0.33528 0.0
O1269 O 0.6903 0.87603 0.34128 0.0
O1270 O 0.6455 0.84589 0.31119 0.0
O1271 O 0.62523 0.84626 0.33881 0.0
H1272 H 0.64543 0.79614 0.40032 0.0
H1273 H 0.65916 0.79097 0.43215 0.0
H1274 H 0.66889 0.8839 0.44876 0.0
H1275 H 0.65465 0.88887 0.41714 0.0
H1276 H 0.67938 0.87801 0.27357 0.0
H1277 H 0.65782 0.87533 0.24224 0.0
H1278 H 0.66519 0.79062 0.2275 0.0
H1279 H 0.68747 0.79347 0.25875 0.0
C1280 C 0.12932 0.80513 0.289 0.0
Eu1281 Eu 0.15208 0.826 0.3229 0.0
C1282 C 0.14265 0.80958 0.2712 0.0
C1283 C 0.16448 0.84062 0.26635 0.0
C1284 C 0.17687 0.84414 0.24941 0.0
C1285 C 0.16754 0.8167 0.23712 0.0
C1286 C 0.14604 0.78573 0.24201 0.0
C1287 C 0.13368 0.7822 0.25893 0.0
C1288 C 0.17177 0.88554 0.33992 0.0
C1289 C 0.23071 0.85774 0.32637 0.0
C1290 C 0.21298 0.86245 0.39457 0.0
Eu1291 Eu 0.18999 0.8411 0.36068 0.0
C1292 C 0.20005 0.85756 0.41246 0.0
C1293 C 0.1715 0.82914 0.41521 0.0
C1294 C 0.15908 0.82557 0.43218 0.0
C1295 C 0.17491 0.85053 0.4465 0.0
C1296 C 0.20336 0.87888 0.4437 0.0
C1297 C 0.21583 0.88235 0.42681 0.0
C1298 C 0.17058 0.78172 0.34311 0.0
C1299 C 0.11156 0.81037 0.35739 0.0
O1300 O 0.13713 0.78896 0.29992 0.0
O1301 O 0.1298 0.83025 0.29753 0.0
O1302 O 0.14486 0.86883 0.32959 0.0
O1303 O 0.18775 0.8712 0.33978 0.0
O1304 O 0.20284 0.83891 0.31639 0.0
O1305 O 0.23183 0.86638 0.34389 0.0
O1306 O 0.20357 0.87755 0.38375 0.0
O1307 O 0.21337 0.83782 0.38599 0.0
O1308 O 0.19709 0.79797 0.3539 0.0
O1309 O 0.15489 0.79633 0.34355 0.0
O1310 O 0.13947 0.82704 0.36752 0.0
O1311 O 0.10963 0.803 0.33961 0.0
H1312 H 0.17186 0.86215 0.27559 0.0
H1313 H 0.19347 0.8682 0.24582 0.0
H1314 H 0.13863 0.76433 0.23264 0.0
H1315 H 0.11702 0.75807 0.26242 0.0
H1316 H 0.15877 0.80986 0.40423 0.0
H1317 H 0.13706 0.80357 0.43412 0.0
H1318 H 0.21585 0.89834 0.45462 0.0
H1319 H 0.23772 0.90453 0.4249 0.0
C1320 C 0.87151 0.69447 0.7247 0.0
Eu1321 Eu 0.84813 0.68598 0.6908 0.0
C1322 C 0.85844 0.68199 0.74195 0.0
C1323 C 0.87943 0.68574 0.75707 0.0
C1324 C 0.8674 0.67405 0.77353 0.0
C1325 C 0.83416 0.6583 0.77507 0.0
C1326 C 0.81309 0.6544 0.75994 0.0
C1327 C 0.82515 0.66624 0.74351 0.0
C1328 C 0.82627 0.71891 0.67192 0.0
C1329 C 0.76981 0.6332 0.68719 0.0
C1330 C 0.7875 0.64206 0.61875 0.0
Eu1331 Eu 0.8098 0.65074 0.65277 0.0
C1332 C 0.80126 0.6517 0.60121 0.0
C1333 C 0.82415 0.64414 0.59506 0.0
C1334 C 0.83687 0.65387 0.57844 0.0
C1335 C 0.82705 0.67144 0.56783 0.0
C1336 C 0.80454 0.67932 0.57405 0.0
C1337 C 0.79171 0.66948 0.59057 0.0
C1338 C 0.83255 0.61898 0.67218 0.0
C1339 C 0.88724 0.70569 0.65539 0.0
O1340 O 0.87148 0.67338 0.71248 0.0
O1341 O 0.86248 0.71352 0.71757 0.0
O1342 O 0.85107 0.73303 0.68411 0.0
O1343 O 0.81223 0.6885 0.67238 0.0
O1344 O 0.79785 0.64878 0.69734 0.0
O1345 O 0.76734 0.63305 0.66926 0.0
O1346 O 0.79078 0.66576 0.63024 0.0
O1347 O 0.79191 0.62054 0.62676 0.0
O1348 O 0.80565 0.60404 0.66157 0.0
O1349 O 0.84685 0.64912 0.67087 0.0
O1350 O 0.85995 0.6851 0.64546 0.0
O1351 O 0.88981 0.7093 0.6735 0.0
H1352 H 0.90516 0.69778 0.75615 0.0
H1353 H 0.88399 0.67728 0.78508 0.0
H1354 H 0.78738 0.64236 0.7609 0.0
H1355 H 0.80849 0.66323 0.7321 0.0
H1356 H 0.83224 0.63075 0.60305 0.0
H1357 H 0.85428 0.64765 0.57383 0.0
H1358 H 0.79674 0.69292 0.56603 0.0
H1359 H 0.77429 0.6758 0.59506 0.0
C1360 C 0.31464 0.18559 0.7212 0.0
Eu1361 Eu 0.3263 0.1692 0.68951 0.0
C1362 C 0.31938 0.18055 0.74034 0.0
C1363 C 0.32029 0.15286 0.74507 0.0
C1364 C 0.32769 0.15013 0.76328 0.0
C1365 C 0.33465 0.17523 0.77687 0.0
C1366 C 0.3333 0.20261 0.77214 0.0
C1367 C 0.32568 0.20522 0.75401 0.0
C1368 C 0.30124 0.10871 0.67204 0.0
C1369 C 0.3806 0.14838 0.68655 0.0
C1370 C 0.36331 0.16438 0.61941 0.0
Eu1371 Eu 0.35226 0.16887 0.65326 0.0
C1372 C 0.34791 0.16167 0.60106 0.0
C1373 C 0.33767 0.18352 0.59637 0.0
C1374 C 0.32564 0.18217 0.57846 0.0
C1375 C 0.32331 0.15872 0.56513 0.0
C1376 C 0.33251 0.13626 0.56991 0.0
C1377 C 0.34483 0.13781 0.58775 0.0
C1378 C 0.38763 0.22376 0.67662 0.0
C1379 C 0.29309 0.18305 0.6545 0.0
O1380 O 0.34117 0.20344 0.71371 0.0
O1381 O 0.2931 0.16041 0.71027 0.0
O1382 O 0.308 0.11576 0.68957 0.0
O1383 O 0.30691 0.13388 0.66446 0.0
O1384 O 0.36891 0.16244 0.69724 0.0
O1385 O 0.37374 0.1437 0.66873 0.0
O1386 O 0.34939 0.13917 0.6287 0.0
O1387 O 0.37429 0.19196 0.62946 0.0
O1388 O 0.40012 0.21074 0.6665 0.0
O1389 O 0.35758 0.20794 0.67343 0.0
O1390 O 0.31241 0.17837 0.64439 0.0
O1391 O 0.29373 0.18111 0.6723 0.0
H1392 H 0.31592 0.13374 0.73466 0.0
H1393 H 0.32872 0.12888 0.76673 0.0
H1394 H 0.33863 0.22218 0.78247 0.0
H1395 H 0.32541 0.22687 0.7506 0.0
H1396 H 0.33957 0.20205 0.60641 0.0
H1397 H 0.31863 0.19965 0.57493 0.0
H1398 H 0.3309 0.1181 0.5597 0.0
H1399 H 0.35258 0.12077 0.59108 0.0
C1400 C 0.79276 0.14564 0.62177 0.0
Eu1401 Eu 0.81672 0.16337 0.65567 0.0
C1402 C 0.80629 0.15007 0.60406 0.0
C1403 C 0.83602 0.17748 0.60173 0.0
C1404 C 0.84882 0.18086 0.5849 0.0
C1405 C 0.83224 0.15669 0.57028 0.0
C1406 C 0.80273 0.12922 0.57268 0.0
C1407 C 0.78985 0.12595 0.58945 0.0
C1408 C 0.84089 0.22179 0.67548 0.0
C1409 C 0.89343 0.18509 0.65683 0.0
C1410 C 0.87943 0.19181 0.72691 0.0
Eu1411 Eu 0.85555 0.17241 0.69294 0.0
C1412 C 0.8665 0.18839 0.74483 0.0
C1413 C 0.83753 0.16072 0.74796 0.0
C1414 C 0.82551 0.15827 0.76501 0.0
C1415 C 0.84213 0.18359 0.77908 0.0
C1416 C 0.87089 0.21126 0.77589 0.0
C1417 C 0.88298 0.21362 0.75891 0.0
C1418 C 0.83101 0.11323 0.6743 0.0
C1419 C 0.77748 0.14668 0.69053 0.0
O1420 O 0.7984 0.12722 0.63206 0.0
O1421 O 0.79597 0.17162 0.63098 0.0
O1422 O 0.81383 0.20781 0.66505 0.0
O1423 O 0.85489 0.20553 0.67364 0.0
O1424 O 0.86569 0.17572 0.64726 0.0
O1425 O 0.8968 0.18883 0.67497 0.0
O1426 O 0.87336 0.20941 0.7162 0.0
O1427 O 0.87631 0.16557 0.71814 0.0
O1428 O 0.85618 0.12588 0.68616 0.0
O1429 O 0.81797 0.13055 0.67495 0.0
O1430 O 0.80572 0.16061 0.70048 0.0
O1431 O 0.77472 0.14128 0.67256 0.0
H1432 H 0.84933 0.1962 0.61292 0.0
H1433 H 0.87163 0.2022 0.58326 0.0
H1434 H 0.78963 0.11038 0.56152 0.0
H1435 H 0.76707 0.10452 0.59103 0.0
H1436 H 0.82422 0.14108 0.73723 0.0
H1437 H 0.80325 0.13676 0.76723 0.0
H1438 H 0.88401 0.23101 0.78659 0.0
H1439 H 0.90521 0.23523 0.75674 0.0
C1440 C 0.36933 0.8958 0.04138 0.0
C1441 C 0.35679 0.91211 0.05185 0.0
C1442 C 0.39864 0.9641 0.04294 0.0
C1443 C 0.40842 0.94721 0.03072 0.0
N1444 N 0.39728 0.89596 0.01526 0.0
N1445 N 0.35526 0.96127 0.05932 0.0
C1446 C 0.3918 0.91275 0.02887 0.0
C1447 C 0.37027 0.94618 0.05176 0.0
N1448 N 0.36119 0.86461 0.04406 0.0
N1449 N 0.41634 0.99717 0.04621 0.0
H1450 H 0.33382 0.94885 0.06533 0.0
H1451 H 0.3623 0.98549 0.058 0.0
H1452 H 0.43657 0.01146 0.03958 0.0
H1453 H 0.41229 0.0102 0.05653 0.0
H1454 H 0.37216 0.85282 0.03802 0.0
H1455 H 0.34633 0.85186 0.0539 0.0
H1456 H 0.38329 0.87082 0.01237 0.0
H1457 H 0.41374 0.90715 0.00583 0.0
C1458 C 0.1094 0.45419 0.02237 0.0
C1459 C 0.10705 0.44403 0.0401 0.0
C1460 C 0.05911 0.44936 0.04196 0.0
C1461 C 0.06731 0.4678 0.0266 0.0
N1462 N 0.10366 0.49017 1.00315 0.0
N1463 N 0.06409 0.40811 0.05689 0.0
C1464 C 0.09322 0.47066 0.01697 0.0
C1465 C 0.07751 0.43487 0.04751 0.0
N1466 N 0.12279 0.44379 0.00976 0.0
N1467 N 0.03369 0.44504 0.05119 0.0
H1468 H 0.07403 0.39306 0.05774 0.0
H1469 H 0.04111 0.39813 0.06121 0.0
H1470 H 0.01758 0.4524 0.04695 0.0
H1471 H 0.02965 0.43543 0.06373 0.0
H1472 H 0.12241 0.44821 0.9961 0.0
H1473 H 0.13004 0.42705 0.01258 0.0
H1474 H 0.12414 0.49449 0.99689 0.0
H1475 H 0.09427 0.50471 0.99937 0.0
C1476 C 0.56296 0.64096 0.0284 0.0
C1477 C 0.5398 0.64932 0.03329 0.0
C1478 C 0.49654 0.59357 0.02391 0.0
C1479 C 0.51932 0.58606 0.01685 0.0
N1480 N 0.57407 0.60548 0.00946 0.0
N1481 N 0.48438 0.63504 0.03437 0.0
C1482 C 0.55259 0.61036 0.01849 0.0
C1483 C 0.50654 0.62604 0.03064 0.0
N1484 N 0.59497 0.66237 0.03312 0.0
N1485 N 0.4655 0.5695 0.02492 0.0
H1486 H 0.49062 0.65797 0.04045 0.0
H1487 H 0.45985 0.62052 0.03035 0.0
H1488 H 0.45684 0.54516 0.02064 0.0
H1489 H 0.44897 0.57291 0.03183 0.0
H1490 H 0.61273 0.65612 0.03196 0.0
H1491 H 0.60362 0.68564 0.03959 0.0
H1492 H 0.59767 0.6237 0.00852 0.0
H1493 H 0.56782 0.58445 1.00122 0.0
C1494 C 0.92613 0.35578 0.97935 0.0
C1495 C 0.89428 0.34318 0.98426 0.0
C1496 C 0.91206 0.39222 1.00484 0.0
C1497 C 0.94213 0.40742 0.99742 0.0
N1498 N 0.97861 0.40277 0.97797 0.0
N1499 N 0.87196 0.34053 0.01292 0.0
C1500 C 0.9495 0.38889 0.98482 0.0
C1501 C 0.89073 0.35862 1.00022 0.0
N1502 N 0.93509 0.33495 0.9719 0.0
N1503 N 0.90341 0.40961 0.01618 0.0
H1504 H 0.86254 0.31543 0.01209 0.0
H1505 H 0.87068 0.35081 0.0255 0.0
H1506 H 0.91768 0.43464 0.01951 0.0
H1507 H 0.88055 0.39934 0.02075 0.0
H1508 H 0.95867 0.34184 0.96953 0.0
H1509 H 0.91952 0.30983 0.97043 0.0
H1510 H 0.98381 0.39178 0.96709 0.0
H1511 H 0.99686 0.42616 0.98245 0.0
C1512 C 0.63439 0.56671 0.96299 0.0
C1513 C 0.64802 0.54626 0.96304 0.0
C1514 C 0.60816 0.51173 0.98293 0.0
C1515 C 0.59256 0.53025 0.98145 0.0
N1516 N 0.58688 0.57107 0.96641 0.0
N1517 N 0.64133 0.49393 0.96849 0.0
C1518 C 0.60431 0.55628 0.97023 0.0
C1519 C 0.6329 0.51713 0.97164 0.0
N1520 N 0.6508 0.59679 0.95697 0.0
N1521 N 0.59976 0.48917 0.99519 0.0
H1522 H 0.65827 0.49627 0.95958 0.0
H1523 H 0.62892 0.47095 0.97304 0.0
H1524 H 0.5817 0.48414 1.00371 0.0
H1525 H 0.61275 0.47753 0.99803 0.0
H1526 H 0.64344 0.61391 0.95841 0.0
H1527 H 0.67336 0.60587 0.95217 0.0
H1528 H 0.59283 0.58788 0.95683 0.0
H1529 H 0.56492 0.56444 0.9715 0.0
C1530 C 0.49207 0.11194 0.97377 0.0
C1531 C 0.45869 0.09673 0.9681 0.0
C1532 C 0.4478 0.05411 0.98818 0.0
C1533 C 0.48149 0.06726 0.99255 0.0
N1534 N 0.53613 0.10694 0.98722 0.0
N1535 N 0.40518 0.05068 0.96741 0.0
C1536 C 0.50379 0.09584 0.98482 0.0
C1537 C 0.43676 0.06681 0.97439 0.0
N1538 N 0.51266 0.14198 0.96862 0.0
N1539 N 0.4262 0.03136 0.99823 0.0
H1540 H 0.39578 0.05992 0.95794 0.0
H1541 H 0.38895 0.02694 0.96988 0.0
H1542 H 0.433 0.02366 0.00966 0.0
H1543 H 0.40163 0.02324 0.99677 0.0
H1544 H 0.5363 0.15655 0.97442 0.0
H1545 H 0.50561 0.15338 0.95927 0.0
H1546 H 0.55302 0.12547 0.98035 0.0
H1547 H 0.54629 0.09551 0.99429 0.0
C1548 C 0.60732 0.09159 0.95399 0.0
C1549 C 0.63653 0.09201 0.95851 0.0
C1550 C 0.61256 0.05723 0.98311 0.0
C1551 C 0.58331 0.0572 0.97883 0.0
N1552 N 0.55101 0.06968 0.95791 0.0
N1553 N 0.66877 0.07834 0.97813 0.0
C1554 C 0.58016 0.07297 0.96359 0.0
C1555 C 0.6396 0.07562 0.97328 0.0
N1556 N 0.60617 0.11083 0.94124 0.0
N1557 N 0.61373 0.03767 0.99561 0.0
H1558 H 0.68841 0.08963 0.97053 0.0
H1559 H 0.67426 0.07104 0.99017 0.0
H1560 H 0.59442 0.02313 1.00279 0.0
H1561 H 0.63282 0.03348 0.9979 0.0
H1562 H 0.58738 0.11552 0.93909 0.0
H1563 H 0.62522 0.12438 0.93361 0.0
H1564 H 0.54596 0.07594 0.94539 0.0
H1565 H 0.53093 0.05939 0.96516 0.0
C1566 C 0.89401 0.51428 0.95662 0.0
C1567 C 0.89972 0.54643 0.96008 0.0
C1568 C 0.94368 0.55926 0.98363 0.0
C1569 C 0.93871 0.52747 0.97971 0.0
N1570 N 0.91035 0.47468 0.96258 0.0
N1571 N 0.92651 0.59839 0.97804 0.0
C1572 C 0.91409 0.50492 0.96626 0.0
C1573 C 0.92357 0.5686 0.97396 0.0
N1574 N 0.86849 0.49243 0.94461 0.0
N1575 N 0.96878 0.58101 0.99589 0.0
H1576 H 0.91328 0.60659 0.97067 0.0
H1577 H 0.94077 0.61458 0.9892 0.0
H1578 H 0.9834 0.57482 1.00358 0.0
H1579 H 0.97637 0.60562 0.99799 0.0
H1580 H 0.86077 0.46779 0.94255 0.0
H1581 H 0.85343 0.49848 0.93723 0.0
H1582 H 0.89581 0.45826 0.95156 0.0
H1583 H 0.92274 0.46605 0.97036 0.0
C1584 C 0.44066 0.35621 0.99239 0.0
C1585 C 0.45807 0.3492 0.9798 0.0
C1586 C 0.50073 0.40629 0.98344 0.0
C1587 C 0.48513 0.41264 0.99753 0.0
N1588 N 0.44292 0.39228 0.01768 0.0
N1589 N 0.50702 0.36617 0.96536 0.0
C1590 C 0.45567 0.38728 1.00257 0.0
C1591 C 0.48875 0.37387 0.97585 0.0
N1592 N 0.40963 0.3333 0.99442 0.0
N1593 N 0.5263 0.43138 0.97677 0.0
H1594 H 0.49911 0.34276 0.95935 0.0
H1595 H 0.53106 0.38243 0.96385 0.0
H1596 H 0.5354 0.45542 0.98182 0.0
H1597 H 0.53643 0.4287 0.96516 0.0
H1598 H 0.39453 0.33809 1.00194 0.0
H1599 H 0.39806 0.31023 0.98725 0.0
H1600 H 0.42331 0.37379 0.02309 0.0
H1601 H 0.45359 0.41436 0.02583 0.0
C1602 C 0.12379 0.62589 0.03866 0.0
C1603 C 0.11481 0.64977 0.03649 0.0
C1604 C 0.07024 0.61235 0.01402 0.0
C1605 C 0.07696 0.58725 0.0176 0.0
N1606 N 0.1083 0.56908 0.03476 0.0
N1607 N 0.07671 0.66452 0.0246 0.0
C1608 C 0.1033 0.59374 0.03028 0.0
C1609 C 0.0871 0.64257 0.02496 0.0
N1610 N 0.15247 0.63424 0.04822 0.0
N1611 N 0.04945 0.60824 0.99935 0.0
H1612 H 0.08876 0.68711 0.0323 0.0
H1613 H 0.0547 0.65916 0.01796 0.0
H1614 H 0.03825 0.58739 0.99015 0.0
H1615 H 0.04606 0.62685 0.99509 0.0
H1616 H 0.16225 0.61907 0.04843 0.0
H1617 H 0.16785 0.65734 0.0549 0.0
H1618 H 0.12438 0.57143 0.04559 0.0
H1619 H 0.09489 0.5455 0.02844 0.0
C1620 C 0.36336 0.42883 0.04174 0.0
C1621 C 0.3641 0.4514 0.05542 0.0
C1622 C 0.41911 0.49131 0.04977 0.0
C1623 C 0.4176 0.46989 0.03485 0.0
N1624 N 0.38788 0.41808 0.01644 0.0
N1625 N 0.39023 0.50544 0.07089 0.0
C1626 C 0.38949 0.43866 0.03071 0.0
C1627 C 0.39134 0.48291 0.05905 0.0
N1628 N 0.33805 0.3976 0.03977 0.0
N1629 N 0.44713 0.51962 0.0554 0.0
H1630 H 0.37078 0.50012 0.07842 0.0
H1631 H 0.40742 0.53008 0.07226 0.0
H1632 H 0.46752 0.52914 0.04839 0.0
H1633 H 0.45094 0.53311 0.06784 0.0
H1634 H 0.33729 0.37871 0.03154 0.0
H1635 H 0.31842 0.38981 0.04745 0.0
H1636 H 0.36678 0.39714 0.01113 0.0
H1637 H 0.4074 0.42225 0.00931 0.0
C1638 C 0.51069 0.8998 0.04119 0.0
C1639 C 0.54216 0.90584 0.0388 0.0
C1640 C 0.54596 0.94037 0.01456 0.0
C1641 C 0.51521 0.93587 0.01781 0.0
N1642 N 0.46879 0.91211 0.03496 0.0
N1643 N 0.59194 0.93559 0.02532 0.0
C1644 C 0.49785 0.91588 0.03131 0.0
C1645 C 0.56046 0.92725 0.02608 0.0
N1646 N 0.49207 0.87869 0.05292 0.0
N1647 N 0.56038 0.95537 0.99977 0.0
H1648 H 0.60309 0.92601 0.03336 0.0
H1649 H 0.60769 0.95387 0.01787 0.0
H1650 H 0.55005 0.96422 0.99062 0.0
H1651 H 0.58114 0.95646 0.99556 0.0
H1652 H 0.49902 0.86525 0.06072 0.0
H1653 H 0.49902 0.86525 0.06072 0.0
H1654 H 0.45531 0.89766 0.04479 0.0
H1655 H 0.45872 0.92416 0.02854 0.0
C1656 C 0.03937 0.28115 0.38505 0.0
C1657 C 0.02614 0.2472 0.38568 0.0
C1658 C 0.06118 0.24704 0.36288 0.0
C1659 C 0.07747 0.28148 0.36417 0.0
N1660 N 0.08486 0.3319 0.37862 0.0
N1661 N 0.03049 0.19951 0.37857 0.0
C1662 C 0.06751 0.29874 0.37598 0.0
C1663 C 0.03871 0.23058 0.37552 0.0
N1664 N 0.02429 0.29639 0.39234 0.0
N1665 N 0.06693 0.22984 0.34965 0.0
H1666 H 0.01542 0.18708 0.38842 0.0
H1667 H 0.04146 0.18748 0.37283 0.0
H1668 H 0.08333 0.24075 0.34015 0.0
H1669 H 0.05323 0.20463 0.34711 0.0
H1670 H 0.03103 0.3204 0.39061 0.0
H1671 H 0.00307 0.28422 0.39858 0.0
H1672 H 0.08081 0.34537 0.38866 0.0
H1673 H 0.10478 0.34591 0.37169 0.0
C1674 C 0.78605 0.81945 0.37932 0.0
C1675 C 0.77721 0.78623 0.37758 0.0
C1676 C 0.72567 0.77203 0.36088 0.0
C1677 C 0.7357 0.80562 0.36132 0.0
N1678 N 0.77835 0.8614 0.36732 0.0
N1679 N 0.74073 0.73102 0.36507 0.0
C1680 C 0.76664 0.82939 0.36964 0.0
C1681 C 0.74757 0.76251 0.3679 0.0
N1682 N 0.81288 0.84152 0.3904 0.0
N1683 N 0.69493 0.74924 0.35421 0.0
H1684 H 0.75575 0.72304 0.37053 0.0
H1685 H 0.72135 0.71325 0.35636 0.0
H1686 H 0.6785 0.75524 0.34858 0.0
H1687 H 0.68492 0.72449 0.35537 0.0
H1688 H 0.8185 0.86538 0.39384 0.0
H1689 H 0.82817 0.83533 0.39742 0.0
H1690 H 0.80194 0.87958 0.37148 0.0
H1691 H 0.76551 0.86937 0.35948 0.0
C1692 C 0.227 0.97657 0.35262 0.0
C1693 C 0.20718 0.98361 0.3632 0.0
C1694 C 0.16608 0.926 0.36026 0.0
C1695 C 0.18434 0.9193 0.34811 0.0
N1696 N 0.22958 0.93927 0.33003 0.0
N1697 N 0.15586 0.96633 0.37487 0.0
C1698 C 0.21423 0.94484 0.34361 0.0
C1699 C 0.17611 0.95869 0.36637 0.0
N1700 N 0.25817 1.00007 0.35142 0.0
N1701 N 0.13997 0.90108 0.36668 0.0
H1702 H 0.16245 0.98998 0.37982 0.0
H1703 H 0.13166 0.94965 0.37568 0.0
H1704 H 0.13248 0.87685 0.36291 0.0
H1705 H 0.12774 0.9043 0.37706 0.0
H1706 H 0.27488 0.99543 0.3456 0.0
H1707 H 0.26812 0.02374 0.3576 0.0
H1708 H 0.24969 0.95763 0.32491 0.0
H1709 H 0.22044 0.91675 0.32258 0.0
C1710 C 0.56205 0.69158 0.33226 0.0
C1711 C 0.56563 0.67769 0.31571 0.0
C1712 C 0.61956 0.72563 0.31605 0.0
C1713 C 0.61142 0.74234 0.32939 0.0
N1714 N 0.572 0.74096 0.3489 0.0
N1715 N 0.60746 0.67312 0.30192 0.0
C1716 C 0.58182 0.72527 0.33712 0.0
C1717 C 0.59727 0.6923 0.31016 0.0
N1718 N 0.54467 0.67222 0.34497 0.0
N1719 N 0.64848 0.7414 0.30904 0.0
H1720 H 0.59319 0.64782 0.30044 0.0
H1721 H 0.63106 0.68154 0.29894 0.0
H1722 H 0.66609 0.76489 0.31399 0.0
H1723 H 0.65417 0.73181 0.29774 0.0
H1724 H 0.54366 0.68154 0.35791 0.0
H1725 H 0.53582 0.6472 0.34348 0.0
H1726 H 0.54942 0.72909 0.35382 0.0
H1727 H 0.5847 0.76608 0.35215 0.0
C1728 C 0.31807 0.88434 0.3194 0.0
C1729 C 0.31916 0.89018 0.30079 0.0
C1730 C 0.26561 0.88459 0.30092 0.0
C1731 C 0.26152 0.87007 0.31769 0.0
N1732 N 0.28489 0.8541 0.34221 0.0
N1733 N 0.30483 0.92174 0.28236 0.0
C1734 C 0.28816 0.86982 0.3269 0.0
C1735 C 0.29583 0.89739 0.29346 0.0
N1736 N 0.34604 0.896 0.33042 0.0
N1737 N 0.24126 0.88713 0.29225 0.0
H1738 H 0.32906 0.93758 0.28093 0.0
H1739 H 0.2897 0.93003 0.27758 0.0
H1740 H 0.22024 0.8821 0.29802 0.0
H1741 H 0.24169 0.8933 0.27892 0.0
H1742 H 0.34667 0.89501 0.3445 0.0
H1743 H 0.36845 0.9103 0.32566 0.0
H1744 H 0.30328 0.85109 0.34817 0.0
H1745 H 0.26315 0.84109 0.3478 0.0
C1746 C 0.10816 0.40573 0.30957 0.0
C1747 C 0.13126 0.43168 0.30073 0.0
C1748 C 0.17501 0.42954 0.31808 0.0
C1749 C 0.15197 0.40168 0.32607 0.0
N1750 N 0.096 0.36328 0.32932 0.0
N1751 N 0.18581 0.46438 0.29368 0.0
C1752 C 0.11837 0.38958 0.32161 0.0
C1753 C 0.16441 0.44249 0.30422 0.0
N1754 N 0.07657 0.39779 0.30726 0.0
N1755 N 0.20718 0.44412 0.3236 0.0
H1756 H 0.17892 0.47425 0.28329 0.0
H1757 H 0.20984 0.47045 0.29399 0.0
H1758 H 0.21774 0.43376 0.3313 0.0
H1759 H 0.22382 0.4674 0.32064 0.0
H1760 H 0.05892 0.38203 0.31499 0.0
H1761 H 0.06813 0.40859 0.29828 0.0
H1762 H 0.07183 0.3498 0.32429 0.0
H1763 H 0.1014 0.35463 0.34079 0.0
C1764 C 0.31041 0.41131 0.30856 0.0
C1765 C 0.30731 0.42623 0.29308 0.0
C1766 C 0.25087 0.40762 0.2979 0.0
C1767 C 0.25346 0.39131 0.313 0.0
N1768 N 0.2838 0.37195 0.33004 0.0
N1769 N 0.27442 0.43655 0.2718 0.0
C1770 C 0.2828 0.3918 0.3177 0.0
C1771 C 0.27741 0.4236 0.28736 0.0
N1772 N 0.33992 0.41592 0.3146 0.0
N1773 N 0.22348 0.40904 0.29402 0.0
H1774 H 0.2937 0.45043 0.2644 0.0
H1775 H 0.25261 0.43226 0.26549 0.0
H1776 H 0.20313 0.39759 0.30097 0.0
H1777 H 0.22132 0.42364 0.28478 0.0
H1778 H 0.34479 0.40952 0.32714 0.0
H1779 H 0.36024 0.42801 0.3076 0.0
H1780 H 0.30321 0.36827 0.33246 0.0
H1781 H 0.26411 0.35661 0.33673 0.0
C1782 C 0.5568 0.83801 0.28767 0.0
C1783 C 0.55889 0.86868 0.29082 0.0
C1784 C 0.60418 0.88641 0.31427 0.0
C1785 C 0.60103 0.8552 0.31173 0.0
N1786 N 0.57145 0.79954 0.2985 0.0
N1787 N 0.58103 0.92053 0.30863 0.0
C1788 C 0.5765 0.83049 0.2991 0.0
C1789 C 0.58149 0.8924 0.30463 0.0
N1790 N 0.5364 0.81634 0.27352 0.0
N1791 N 0.62975 0.91074 0.32523 0.0
H1792 H 0.56566 0.92636 0.30139 0.0
H1793 H 0.59428 0.93712 0.31989 0.0
H1794 H 0.64659 0.90716 0.3327 0.0
H1795 H 0.63567 0.93497 0.326 0.0
H1796 H 0.53644 0.79523 0.26911 0.0
H1797 H 0.52068 0.82046 0.26531 0.0
H1798 H 0.55196 0.77962 0.29097 0.0
H1799 H 0.58529 0.79315 0.30678 0.0
C1800 C 0.12015 0.69363 0.32159 0.0
C1801 C 0.14204 0.69164 0.31031 0.0
C1802 C 0.18255 0.74832 0.3203 0.0
C1803 C 0.16049 0.75081 0.33149 0.0
N1804 N 0.10647 0.72682 0.34083 0.0
N1805 N 0.19134 0.71764 0.29609 0.0
C1806 C 0.12867 0.72384 0.33142 0.0
C1807 C 0.17243 0.71919 0.30882 0.0
N1808 N 0.09162 0.66617 0.32348 0.0
N1809 N 0.21335 0.77365 0.32066 0.0
H1810 H 0.18502 0.69649 0.28777 0.0
H1811 H 0.21201 0.73776 0.29264 0.0
H1812 H 0.22127 0.79647 0.32732 0.0
H1813 H 0.23176 0.77179 0.31501 0.0
H1814 H 0.07642 0.66462 0.33333 0.0
H1815 H 0.0838 0.64402 0.3158 0.0
H1816 H 0.08192 0.71001 0.33909 0.0
H1817 H 0.11206 0.74678 0.34987 0.0
C1818 C 0.77914 0.96483 0.37776 0.0
C1819 C 0.77681 0.99028 0.37015 0.0
C1820 C 0.73754 0.95116 0.34568 0.0
C1821 C 0.73796 0.92547 0.35429 0.0
N1822 N 0.75174 0.90771 0.38154 0.0
N1823 N 0.74913 0.007 0.34901 0.0
C1824 C 0.75658 0.93224 0.37122 0.0
C1825 C 0.75458 0.98325 0.35472 0.0
N1826 N 0.80363 0.97165 0.39076 0.0
N1827 N 0.72182 0.9452 0.32866 0.0
H1828 H 0.76097 0.03064 0.35544 0.0
H1829 H 0.73086 0.00254 0.33902 0.0
H1830 H 0.70899 0.92209 0.32158 0.0
H1831 H 0.7236 0.96352 0.32096 0.0
H1832 H 0.80814 0.95388 0.39532 0.0
H1833 H 0.82143 0.99524 0.39562 0.0
H1834 H 0.76259 0.91165 0.39478 0.0
H1835 H 0.73395 0.88381 0.3777 0.0
C1836 C 0.04345 0.76424 0.387 0.0
C1837 C 0.02841 0.78342 0.38703 0.0
C1838 C 0.06377 0.81552 0.36453 0.0
C1839 C 0.08176 0.79954 0.36665 0.0
N1840 N 0.09242 0.76307 0.38322 0.0
N1841 N 0.03085 0.83318 0.37935 0.0
C1842 C 0.07282 0.77529 0.37894 0.0
C1843 C 0.04034 0.8107 0.37673 0.0
N1844 N 0.02911 0.73481 0.39389 0.0
N1845 N 0.06902 0.83544 0.35102 0.0
H1846 H 0.01556 0.83197 0.38911 0.0
H1847 H 0.04115 0.85498 0.37338 0.0
H1848 H 0.08599 0.83969 0.34181 0.0
H1849 H 0.05441 0.84526 0.34795 0.0
H1850 H 0.03774 0.71868 0.39264 0.0
H1851 H 0.00675 0.72496 0.39903 0.0
H1852 H 0.08838 0.74777 0.39349 0.0
H1853 H 0.11427 0.77058 0.37779 0.0
C1854 C 0.17935 0.23241 0.3743 0.0
C1855 C 0.21152 0.24018 0.3726 0.0
C1856 C 0.21531 0.27474 0.34849 0.0
C1857 C 0.18425 0.26956 0.35145 0.0
N1858 N 0.1388 0.24754 0.36927 0.0
N1859 N 0.26202 0.27215 0.36021 0.0
C1860 C 0.16679 0.24942 0.3649 0.0
C1861 C 0.23011 0.26245 0.36035 0.0
N1862 N 0.16042 0.20807 0.38449 0.0
N1863 N 0.22987 0.2897 0.33373 0.0
H1864 H 0.27345 0.2632 0.36854 0.0
H1865 H 0.27768 0.29097 0.35301 0.0
H1866 H 0.21929 0.2979 0.32429 0.0
H1867 H 0.251 0.29124 0.32983 0.0
H1868 H 0.1357 0.19863 0.38444 0.0
H1869 H 0.16883 0.1954 0.39193 0.0
H1870 H 0.12697 0.2365 0.38042 0.0
H1871 H 0.12893 0.25962 0.36271 0.0
C1872 C 0.7005 0.56383 0.70705 0.0
C1873 C 0.68849 0.58047 0.71771 0.0
C1874 C 0.7311 0.63227 0.70903 0.0
C1875 C 0.7404 0.61516 0.69665 0.0
N1876 N 0.72856 0.56387 0.68096 0.0
N1877 N 0.68814 0.63017 0.72553 0.0
C1878 C 0.72327 0.5807 0.69464 0.0
C1879 C 0.70263 0.61465 0.71781 0.0
N1880 N 0.69153 0.53232 0.70945 0.0
N1881 N 0.74941 0.66527 0.71252 0.0
H1882 H 0.66665 0.61802 0.73152 0.0
H1883 H 0.69567 0.65454 0.72435 0.0
H1884 H 0.76984 0.67936 0.70599 0.0
H1885 H 0.74567 0.67838 0.72294 0.0
H1886 H 0.70205 0.52017 0.7033 0.0
H1887 H 0.67633 0.51956 0.71917 0.0
H1888 H 0.7143 0.53879 0.67793 0.0
H1889 H 0.7452 0.57509 0.67162 0.0
C1890 C 0.41171 0.09525 0.70578 0.0
C1891 C 0.44377 0.11928 0.71217 0.0
C1892 C 0.43545 0.16109 0.69952 0.0
C1893 C 0.40245 0.13792 0.69481 0.0
N1894 N 0.35822 0.08306 0.69434 0.0
N1895 N 0.48445 0.17583 0.71834 0.0
C1896 C 0.39027 0.10498 0.69822 0.0
C1897 C 0.45509 0.15245 0.71003 0.0
N1898 N 0.40214 0.06311 0.70633 0.0
N1899 N 0.4486 0.19083 0.69305 0.0
H1900 H 0.49959 0.17048 0.72621 0.0
H1901 H 0.49241 0.20059 0.71886 0.0
H1902 H 0.43537 0.19727 0.6844 0.0
H1903 H 0.47318 0.20759 0.69454 0.0
H1904 H 0.38031 0.04422 0.70008 0.0
H1905 H 0.41705 0.0552 0.71202 0.0
H1906 H 0.34706 0.05975 0.6985 0.0
H1907 H 0.34231 0.08876 0.6877 0.0
C1908 C 0.89637 0.30975 0.69498 0.0
C1909 C 0.87312 0.31822 0.69955 0.0
C1910 C 0.83062 0.26124 0.69367 0.0
C1911 C 0.85325 0.25328 0.68714 0.0
N1912 N 0.90891 0.26691 0.69065 0.0
N1913 N 0.81796 0.30285 0.70305 0.0
C1914 C 0.8866 0.27658 0.69034 0.0
C1915 C 0.84017 0.29415 0.69892 0.0
N1916 N 0.92768 0.33356 0.69449 0.0
N1917 N 0.80086 0.23677 0.69659 0.0
H1918 H 0.82416 0.32645 0.70783 0.0
H1919 H 0.7932 0.28719 0.70066 0.0
H1920 H 0.79525 0.21263 0.69528 0.0
H1921 H 0.78366 0.24024 0.70265 0.0
H1922 H 0.94494 0.32932 0.68909 0.0
H1923 H 0.93584 0.35811 0.69803 0.0
H1924 H 0.93335 0.28257 0.69446 0.0
H1925 H 0.90267 0.24267 0.68992 0.0
C1926 C 0.22568 0.02606 0.66695 0.0
C1927 C 0.22933 0.01109 0.65084 0.0
C1928 C 0.28439 0.05732 0.65158 0.0
C1929 C 0.27661 0.07533 0.66427 0.0
N1930 N 0.23724 0.07663 0.68286 0.0
N1931 N 0.27045 0.00379 0.63811 0.0
C1932 C 0.2465 0.05967 0.67161 0.0
C1933 C 0.2612 0.02421 0.64582 0.0
N1934 N 0.20722 0.00761 0.67964 0.0
N1935 N 0.31376 0.07169 0.645 0.0
H1936 H 0.25515 0.97863 0.63661 0.0
H1937 H 0.29402 0.01103 0.63556 0.0
H1938 H 0.33189 0.09499 0.64986 0.0
H1939 H 0.31938 0.06118 0.63409 0.0
H1940 H 0.206 0.01765 0.69232 0.0
H1941 H 0.19776 0.98249 0.67857 0.0
H1942 H 0.21436 0.06584 0.68743 0.0
H1943 H 0.25089 0.10174 0.68602 0.0
C1944 C 0.94657 0.17794 0.62194 0.0
C1945 C 0.97679 0.20558 0.62819 0.0
C1946 C 0.951 0.22257 0.65062 0.0
C1947 C 0.9218 0.19255 0.64641 0.0
N1948 N 0.89205 0.14051 0.62806 0.0
N1949 N 0.00868 0.25341 0.6493 0.0
C1950 C 0.91951 0.17007 0.6319 0.0
C1951 C 0.97927 0.22758 0.64283 0.0
N1952 N 0.9437 0.15919 0.6064 0.0
N1953 N 0.95111 0.24734 0.66092 0.0
H1954 H 0.0297 0.25923 0.64322 0.0
H1955 H 0.01253 0.26788 0.66136 0.0
H1956 H 0.93005 0.24552 0.66507 0.0
H1957 H 0.97086 0.27078 0.66321 0.0
H1958 H 0.9217 0.14134 0.59972 0.0
H1959 H 0.96321 0.16304 0.59929 0.0
H1960 H 0.89047 0.12162 0.61941 0.0
H1961 H 0.87123 0.13343 0.63449 0.0
C1962 C 0.771 0.73583 0.64109 0.0
C1963 C 0.79318 0.76598 0.63514 0.0
C1964 C 0.83773 0.76537 0.65272 0.0
C1965 C 0.8151 0.73615 0.65982 0.0
N1966 N 0.7595 0.69988 0.66472 0.0
N1967 N 0.84709 0.81169 0.63655 0.0
C1968 C 0.78153 0.72292 0.65499 0.0
C1969 C 0.82636 0.78148 0.64144 0.0
N1970 N 0.73964 0.71968 0.63371 0.0
N1971 N 0.87012 0.77707 0.65589 0.0
H1972 H 0.84053 0.82293 0.62685 0.0
H1973 H 0.87034 0.82656 0.64284 0.0
H1974 H 0.8802 0.76558 0.66296 0.0
H1975 H 0.88743 0.79632 0.64964 0.0
H1976 H 0.7234 0.69577 0.63589 0.0
H1977 H 0.73044 0.72911 0.62425 0.0
H1978 H 0.73491 0.69157 0.6629 0.0
H1979 H 0.76591 0.69217 0.67629 0.0
C1980 C 0.97298 0.74501 0.64113 0.0
C1981 C 0.97025 0.7609 0.62605 0.0
C1982 C 0.9136 0.74187 0.63054 0.0
C1983 C 0.91597 0.72487 0.64535 0.0
N1984 N 0.94586 0.70464 0.66202 0.0
N1985 N 0.93835 0.77346 0.60541 0.0
C1986 C 0.94518 0.7251 0.65 0.0
C1987 C 0.94057 0.75885 0.62042 0.0
N1988 N 0.00235 0.74919 0.64711 0.0
N1989 N 0.88595 0.74278 0.62652 0.0
H1990 H 0.95796 0.78783 0.59835 0.0
H1991 H 0.91702 0.77059 0.59928 0.0
H1992 H 0.86535 0.7307 0.63319 0.0
H1993 H 0.88357 0.75739 0.61738 0.0
H1994 H 0.00698 0.74204 0.65944 0.0
H1995 H 0.02283 0.76168 0.64029 0.0
H1996 H 0.96516 0.70077 0.66436 0.0
H1997 H 0.926 0.68902 0.66851 0.0
C1998 C 0.22681 0.17483 0.62037 0.0
C1999 C 0.22927 0.20561 0.62385 0.0
C2000 C 0.27317 0.22152 0.64799 0.0
C2001 C 0.26957 0.19014 0.64512 0.0
N2002 N 0.23963 0.13502 0.63106 0.0
N2003 N 0.25126 0.25672 0.6424 0.0
C2004 C 0.24545 0.16625 0.63197 0.0
C2005 C 0.25137 0.22848 0.63814 0.0
N2006 N 0.20702 0.154 0.60578 0.0
N2007 N 0.29837 0.24513 0.65949 0.0
H2008 H 0.23669 0.26334 0.63499 0.0
H2009 H 0.26401 0.27264 0.65398 0.0
H2010 H 0.31448 0.24084 0.66718 0.0
H2011 H 0.30474 0.2695 0.66053 0.0
H2012 H 0.20695 0.13291 0.60118 0.0
H2013 H 0.19205 0.15887 0.5974 0.0
H2014 H 0.22031 0.11564 0.62311 0.0
H2015 H 0.2525 0.12779 0.63955 0.0
C2016 C 0.82812 0.04433 0.64337 0.0
C2017 C 0.79524 0.02044 0.64265 0.0
C2018 C 0.78455 0.05816 0.66084 0.0
C2019 C 0.81826 0.0814 0.66303 0.0
N2020 N 0.8727 0.09439 0.65789 0.0
N2021 N 0.74205 0.00266 0.6513 0.0
C2022 C 0.84017 0.07383 0.65475 0.0
C2023 C 0.77334 0.02697 0.65134 0.0
N2024 N 0.84778 0.03918 0.63266 0.0
N2025 N 0.76314 0.06523 0.66828 0.0
H2026 H 0.73278 0.97999 0.64391 0.0
H2027 H 0.7256 0.00404 0.65932 0.0
H2028 H 0.7698 0.08451 0.67807 0.0
H2029 H 0.73844 0.05207 0.66456 0.0
H2030 H 0.87101 0.05719 0.63073 0.0
H2031 H 0.83992 0.01769 0.62429 0.0
H2032 H 0.88948 0.08747 0.65494 0.0
H2033 H 0.88344 0.11824 0.66374 0.0
C2034 C 0.41766 0.31408 0.68765 0.0
C2035 C 0.44262 0.32234 0.70167 0.0
C2036 C 0.42825 0.26535 0.70093 0.0
C2037 C 0.40592 0.2576 0.68547 0.0
N2038 N 0.38328 0.2759 0.66206 0.0
N2039 N 0.47604 0.307 0.71916 0.0
C2040 C 0.40156 0.2823 0.67827 0.0
C2041 C 0.44919 0.29831 0.7076 0.0
N2042 N 0.40891 0.33638 0.68357 0.0
N2043 N 0.42855 0.24123 0.70982 0.0
H2044 H 0.49236 0.33096 0.72427 0.0
H2045 H 0.48378 0.29081 0.72229 0.0
H2046 H 0.41266 0.21684 0.70578 0.0
H2047 H 0.44202 0.2454 0.72226 0.0
H2048 H 0.38865 0.3307 0.67485 0.0
H2049 H 0.42029 0.35989 0.69017 0.0
H2050 H 0.38191 0.29379 0.65529 0.0
H2051 H 0.37174 0.25324 0.65447 0.0
C2052 C 0.70688 0.14642 0.71111 0.0
C2053 C 0.69573 0.1193 0.72147 0.0
C2054 C 0.7396 0.11108 0.71229 0.0
C2055 C 0.74807 0.13567 0.70022 0.0
N2056 N 0.73351 0.17057 0.68478 0.0
N2057 N 0.69701 0.07091 0.72808 0.0
C2058 C 0.72962 0.15124 0.69846 0.0
C2059 C 0.71086 0.10022 0.72103 0.0
N2060 N 0.6972 0.1687 0.714 0.0
N2061 N 0.75877 0.09795 0.71545 0.0
H2062 H 0.67515 0.06127 0.73378 0.0
H2063 H 0.70541 0.05464 0.7265 0.0
H2064 H 0.77931 0.10403 0.70884 0.0
H2065 H 0.75554 0.08275 0.72568 0.0
H2066 H 0.70704 0.19042 0.70795 0.0
H2067 H 0.68226 0.16739 0.724 0.0
H2068 H 0.71837 0.1799 0.68204 0.0
H2069 H 0.74982 0.17484 0.67515 0.0
C2070 C 0.89263 0.59586 0.69153 0.0
C2071 C 0.87445 0.57399 0.70405 0.0
C2072 C 0.8293 0.58262 0.69637 0.0
C2073 C 0.84648 0.60261 0.6828 0.0
N2074 N 0.89163 0.62246 0.66475 0.0
N2075 N 0.82377 0.54209 0.71641 0.0
C2076 C 0.87746 0.60778 0.67966 0.0
C2077 C 0.84228 0.56608 0.70591 0.0
N2078 N 0.92451 0.6056 0.69117 0.0
N2079 N 0.80117 0.58044 0.70073 0.0
H2080 H 0.83254 0.52985 0.72398 0.0
H2081 H 0.79906 0.5325 0.71652 0.0
H2082 H 0.79066 0.59166 0.69386 0.0
H2083 H 0.78963 0.56974 0.71203 0.0
H2084 H 0.93993 0.62421 0.68377 0.0
H2085 H 0.9362 0.59688 0.69947 0.0
H2086 H 0.9127 0.624 0.66072 0.0
H2087 H 0.88078 0.63043 0.65533 0.0
C2088 C 0.45534 0.93563 0.14477 0.0
C2089 C 0.46512 0.95821 0.16051 0.0
C2090 C 0.49708 0.00313 0.14235 0.0
C2091 C 0.4865 0.98067 0.12649 0.0
N2092 N 0.45218 0.92649 0.11179 0.0
N2093 N 0.49121 0.01354 0.17414 0.0
C2094 C 0.46453 0.94717 0.12747 0.0
C2095 C 0.48478 0.99203 0.15923 0.0
N2096 N 0.43806 0.90305 0.14651 0.0
N2097 N 0.51952 0.03499 0.14132 0.0
H2098 H 0.48326 0.00623 0.1868 0.0
H2099 H 0.50241 0.03857 0.17376 0.0
H2100 H 0.528 0.0443 0.12908 0.0
H2101 H 0.53122 0.05194 0.15263 0.0
H2102 H 0.43331 0.88511 0.1361 0.0
H2103 H 0.42994 0.89377 0.1588 0.0
H2104 H 0.43343 0.90257 0.11119 0.0
H2105 H 0.4592 0.93384 0.09899 0.0
C2106 C 0.05959 0.52422 0.15297 0.0
C2107 C 0.03704 0.51522 0.16615 0.0
C2108 C 0.99301 0.49867 0.14207 0.0
C2109 C 0.01558 0.50785 0.1289 0.0
N2110 N 0.06889 0.52322 0.12101 0.0
N2111 N 0.98212 0.48809 0.17345 0.0
C2112 C 0.04844 0.51855 0.13412 0.0
C2113 C 0.00362 0.50053 0.16072 0.0
N2114 N 0.0918 0.5395 0.15856 0.0
N2115 N 0.96164 0.48921 0.13676 0.0
H2116 H 0.98924 0.48937 0.18723 0.0
H2117 H 0.95731 0.47431 0.17026 0.0
H2118 H 0.95278 0.48616 0.12313 0.0
H2119 H 0.94471 0.48593 0.14581 0.0
H2120 H 0.10977 0.55028 0.14987 0.0
H2121 H 0.1008 0.54311 0.1722 0.0
H2122 H 0.09227 0.52769 0.12375 0.0
H2123 H 0.06173 0.52017 0.10709 0.0
C2124 C 0.49634 0.49868 0.16154 0.0
C2125 C 0.48054 0.51627 0.16586 0.0
C2126 C 0.48109 0.53006 0.1343 0.0
C2127 C 0.49697 0.51253 0.12999 0.0
N2128 N 0.51354 0.47448 0.13804 0.0
N2129 N 0.45165 0.54268 0.15592 0.0
C2130 C 0.5026 0.49498 0.14318 0.0
C2131 C 0.47085 0.52997 0.15204 0.0
N2132 N 0.50648 0.48663 0.17515 0.0
N2133 N 0.47705 0.54794 0.12167 0.0
H2134 H 0.44402 0.54318 0.16882 0.0
H2135 H 0.44106 0.5502 0.14612 0.0
H2136 H 0.48351 0.54798 0.10842 0.0
H2137 H 0.46915 0.56429 0.12457 0.0
H2138 H 0.5215 0.47702 0.1734 0.0
H2139 H 0.50125 0.48783 0.1886 0.0
H2140 H 0.51517 0.45851 0.14647 0.0
H2141 H 0.51856 0.47145 0.12473 0.0
C2142 C 0.99427 0.51333 0.84833 0.0
C2143 C 0.96149 0.4936 0.84145 0.0
C2144 C 0.94615 0.48145 0.87237 0.0
C2145 C 0.97924 0.49753 0.87887 0.0
N2146 N 0.03518 0.52908 0.87371 0.0
N2147 N 0.90584 0.45899 0.84623 0.0
C2148 C 0.00343 0.51393 0.86706 0.0
C2149 C 0.93723 0.47803 0.85333 0.0
N2150 N 0.01649 0.53144 0.8369 0.0
N2151 N 0.92338 0.46954 0.88446 0.0
H2152 H 0.89832 0.4573 0.83248 0.0
H2153 H 0.88735 0.44376 0.85369 0.0
H2154 H 0.92915 0.47089 0.89844 0.0
H2155 H 0.89894 0.46035 0.88096 0.0
H2156 H 0.04028 0.54872 0.84126 0.0
H2157 H 0.01057 0.53096 0.82304 0.0
H2158 H 0.05415 0.53811 0.86556 0.0
H2159 H 0.04274 0.5314 0.88751 0.0
C2160 C 0.50872 0.50172 0.85363 0.0
C2161 C 0.52591 0.48585 0.84878 0.0
C2162 C 0.53174 0.4762 0.8807 0.0
C2163 C 0.5107 0.48789 0.88499 0.0
N2164 N 0.47849 0.51142 0.87595 0.0
N2165 N 0.55366 0.45746 0.85712 0.0
C2166 C 0.49929 0.50092 0.8716 0.0
C2167 C 0.53778 0.47332 0.86221 0.0
N2168 N 0.50166 0.51771 0.84101 0.0
N2169 N 0.54596 0.46801 0.89434 0.0
H2170 H 0.55956 0.45604 0.84385 0.0
H2171 H 0.55961 0.44433 0.86573 0.0
H2172 H 0.54148 0.46922 0.90794 0.0
H2173 H 0.56399 0.4624 0.89251 0.0
H2174 H 0.4919 0.53241 0.84402 0.0
H2175 H 0.50805 0.51847 0.8277 0.0
H2176 H 0.46617 0.51752 0.86639 0.0
H2177 H 0.47213 0.51244 0.88914 0.0
C2178 C 0.50668 0.00697 0.852 0.0
C2179 C 0.52744 0.04066 0.85094 0.0
C2180 C 0.5346 0.05017 0.88436 0.0
C2181 C 0.51017 0.01748 0.88522 0.0
N2182 N 0.47197 0.96456 0.87014 0.0
N2183 N 0.5607 0.09495 0.86574 0.0
C2184 C 0.49616 0.9957 0.86911 0.0
C2185 C 0.54165 0.06242 0.86704 0.0
N2186 N 0.49736 0.98579 0.8366 0.0
N2187 N 0.55112 0.06935 0.90011 0.0
H2188 H 0.56704 0.10461 0.85332 0.0
H2189 H 0.56877 0.11259 0.8768 0.0
H2190 H 0.54623 0.06108 0.91296 0.0
H2191 H 0.57131 0.09238 0.90047 0.0
H2192 H 0.4848 0.96064 0.83663 0.0
H2193 H 0.50467 0.99335 0.82387 0.0
H2194 H 0.45799 0.94864 0.8588 0.0
H2195 H 0.46452 0.95505 0.88248 0.0
C2196 C 0.14919 0.32791 0.49271 0.0
C2197 C 0.1296 0.29404 0.49384 0.0
C2198 C 0.11795 0.28605 0.46057 0.0
C2199 C 0.14376 0.31798 0.45929 0.0
N2200 N 0.16098 0.37136 0.47379 0.0
N2201 N 0.09462 0.24031 0.47851 0.0
C2202 C 0.15327 0.33998 0.4753 0.0
C2203 C 0.1137 0.27293 0.47767 0.0
N2204 N 0.16406 0.34865 0.50818 0.0
N2205 N 0.09401 0.27087 0.44664 0.0
H2206 H 0.09056 0.22973 0.49077 0.0
H2207 H 0.08498 0.22375 0.46687 0.0
H2208 H 0.09272 0.28316 0.43566 0.0
H2209 H 0.07317 0.24869 0.44744 0.0
H2210 H 0.18124 0.37306 0.50788 0.0
H2211 H 0.16088 0.34099 0.52123 0.0
H2212 H 0.16517 0.38785 0.48496 0.0
H2213 H 0.15852 0.37923 0.46121 0.0
C2214 C 0.66398 0.82715 0.49344 0.0
C2215 C 0.69752 0.84365 0.49885 0.0
C2216 C 0.7089 0.84817 0.46687 0.0
C2217 C 0.67568 0.83569 0.46168 0.0
N2218 N 0.62125 0.81356 0.46951 0.0
N2219 N 0.75237 0.87078 0.49131 0.0
C2220 C 0.65304 0.8249 0.47482 0.0
C2221 C 0.72013 0.85404 0.4857 0.0
N2222 N 0.64272 0.81344 0.50615 0.0
N2223 N 0.72962 0.8544 0.45374 0.0
H2224 H 0.76145 0.87455 0.50495 0.0
H2225 H 0.77019 0.88251 0.48267 0.0
H2226 H 0.72236 0.85128 0.43984 0.0
H2227 H 0.75348 0.86031 0.45643 0.0
H2228 H 0.61802 0.79844 0.50296 0.0
H2229 H 0.65007 0.81497 0.51992 0.0
H2230 H 0.60401 0.80898 0.47856 0.0
H2231 H 0.61224 0.81016 0.45588 0.0
C2232 C 0.16372 0.83568 0.49648 0.0
C2233 C 0.14583 0.85119 0.50047 0.0
C2234 C 0.14049 0.85874 0.46809 0.0
C2235 C 0.16208 0.84737 0.4646 0.0
N2236 N 0.19489 0.82534 0.47509 0.0
N2237 N 0.11741 0.87815 0.49059 0.0
C2238 C 0.1736 0.83557 0.47867 0.0
C2239 C 0.1339 0.86254 0.48636 0.0
N2240 N 0.17099 0.82089 0.50976 0.0
N2241 N 0.12625 0.86575 0.45388 0.0
H2242 H 0.11108 0.88023 0.50368 0.0
H2243 H 0.11138 0.89052 0.48145 0.0
H2244 H 0.13109 0.86386 0.44041 0.0
H2245 H 0.10786 0.87101 0.45513 0.0
H2246 H 0.18128 0.80646 0.50743 0.0
H2247 H 0.16434 0.82089 0.52297 0.0
H2248 H 0.20726 0.8201 0.48509 0.0
H2249 H 0.20155 0.82362 0.46204 0.0
C2250 C 0.66113 0.8439 0.1821 0.0
C2251 C 0.62785 0.82447 0.17623 0.0
C2252 C 0.61533 0.81611 0.20789 0.0
C2253 C 0.64879 0.8322 0.2135 0.0
N2254 N 0.70396 0.86119 0.20652 0.0
N2255 N 0.57289 0.79165 0.18284 0.0
C2256 C 0.67184 0.84634 0.20077 0.0
C2257 C 0.60477 0.81073 0.18897 0.0
N2258 N 0.68239 0.86006 0.16978 0.0
N2259 N 0.59377 0.80617 0.22071 0.0
H2260 H 0.5642 0.78856 0.16917 0.0
H2261 H 0.5551 0.77767 0.19104 0.0
H2262 H 0.60069 0.80887 0.23464 0.0
H2263 H 0.56924 0.79726 0.2178 0.0
H2264 H 0.70651 0.87723 0.17334 0.0
H2265 H 0.67543 0.85811 0.15591 0.0
H2266 H 0.72201 0.8685 0.19778 0.0
H2267 H 0.71274 0.86488 0.22022 0.0
C2268 C 0.17381 0.82806 0.1866 0.0
C2269 C 0.19529 0.81669 0.1829 0.0
C2270 C 0.20455 0.81363 0.21554 0.0
C2271 C 0.17941 0.82009 0.21881 0.0
N2272 N 0.13875 0.83205 0.20764 0.0
N2273 N 0.23071 0.79761 0.19336 0.0
C2274 C 0.16391 0.82734 0.20442 0.0
C2275 C 0.21091 0.80958 0.19727 0.0
N2276 N 0.16311 0.83972 0.17304 0.0
N2277 N 0.22246 0.81171 0.22995 0.0
H2278 H 0.23664 0.79526 0.1802 0.0
H2279 H 0.23985 0.78832 0.20291 0.0
H2280 H 0.2182 0.81442 0.24347 0.0
H2281 H 0.24312 0.81022 0.22867 0.0
H2282 H 0.14993 0.85131 0.1752 0.0
H2283 H 0.1699 0.84044 0.15982 0.0
H2284 H 0.12395 0.83355 0.19736 0.0
H2285 H 0.13121 0.83239 0.22058 0.0
C2286 C 0.16276 0.33716 0.18302 0.0
C2287 C 0.18889 0.36883 0.18171 0.0
C2288 C 0.2015 0.37617 0.21494 0.0
C2289 C 0.17254 0.34671 0.21637 0.0
N2290 N 0.12353 0.3005 0.2019 0.0
N2291 N 0.2318 0.41998 0.19646 0.0
C2292 C 0.15271 0.32738 0.20043 0.0
C2293 C 0.20815 0.38868 0.19768 0.0
N2294 N 0.14787 0.31627 0.16758 0.0
N2295 N 0.22286 0.39186 0.23005 0.0
H2296 H 0.23755 0.42997 0.18409 0.0
H2297 H 0.24416 0.43677 0.20778 0.0
H2298 H 0.2187 0.38317 0.24284 0.0
H2299 H 0.24584 0.41165 0.22959 0.0
H2300 H 0.1308 0.29182 0.16776 0.0
H2301 H 0.15487 0.3226 0.15462 0.0
H2302 H 0.10644 0.28766 0.19082 0.0
H2303 H 0.1152 0.29244 0.21437 0.0
C2304 C 0.8135 0.65748 0.82424 0.0
C2305 C 0.80067 0.62414 0.8268 0.0
C2306 C 0.81022 0.61319 0.79551 0.0
C2307 C 0.82152 0.64618 0.79267 0.0
N2308 N 0.82882 0.69851 0.80298 0.0
N2309 N 0.78162 0.56915 0.81424 0.0
C2310 C 0.82159 0.66796 0.80665 0.0
C2311 C 0.79749 0.60165 0.81222 0.0
N2312 N 0.81917 0.67936 0.8388 0.0
N2313 N 0.8126 0.59315 0.78243 0.0
H2314 H 0.77216 0.55992 0.82632 0.0
H2315 H 0.77549 0.55116 0.8036 0.0
H2316 H 0.82111 0.60054 0.76988 0.0
H2317 H 0.80829 0.56995 0.78444 0.0
H2318 H 0.8319 0.70442 0.83834 0.0
H2319 H 0.81322 0.67262 0.85184 0.0
H2320 H 0.82587 0.71436 0.8119 0.0
H2321 H 0.83537 0.70719 0.79036 0.0
C2322 C 0.33081 0.16358 0.82751 0.0
C2323 C 0.36412 0.18007 0.83355 0.0
C2324 C 0.37738 0.18641 0.80189 0.0
C2325 C 0.34433 0.17372 0.7961 0.0
N2326 N 0.28932 0.15097 0.80296 0.0
N2327 N 0.41955 0.20854 0.82706 0.0
C2328 C 0.3209 0.16221 0.80878 0.0
C2329 C 0.38756 0.19153 0.82087 0.0
N2330 N 0.30875 0.14894 0.8397 0.0
N2331 N 0.39897 0.19346 0.7892 0.0
H2332 H 0.42791 0.21187 0.84081 0.0
H2333 H 0.43784 0.22098 0.8188 0.0
H2334 H 0.39249 0.19083 0.77522 0.0
H2335 H 0.42279 0.19953 0.79232 0.0
H2336 H 0.2842 0.13386 0.83601 0.0
H2337 H 0.3153 0.14979 0.85353 0.0
H2338 H 0.27152 0.14586 0.8117 0.0
H2339 H 0.28105 0.14829 0.78925 0.0
C2340 C 0.83161 0.17011 0.82934 0.0
C2341 C 0.81354 0.18547 0.83323 0.0
C2342 C 0.80832 0.19283 0.80078 0.0
C2343 C 0.82985 0.18135 0.79735 0.0
N2344 N 0.86285 0.15966 0.80804 0.0
N2345 N 0.78524 0.21245 0.82319 0.0
C2346 C 0.8415 0.16985 0.81152 0.0
C2347 C 0.80171 0.19678 0.81904 0.0
N2348 N 0.83897 0.15551 0.84269 0.0
N2349 N 0.7941 0.19977 0.78653 0.0
H2350 H 0.77892 0.21466 0.83626 0.0
H2351 H 0.77927 0.22478 0.81399 0.0
H2352 H 0.79903 0.19791 0.77307 0.0
H2353 H 0.77568 0.20501 0.78774 0.0
H2354 H 0.84934 0.14113 0.84044 0.0
H2355 H 0.83233 0.1556 0.8559 0.0
H2356 H 0.87532 0.15465 0.8181 0.0
H2357 H 0.86951 0.15779 0.79501 0.0
C2358 C 0.27027 0.13698 0.52053 0.0
C2359 C 0.29404 0.1522 0.50832 0.0
C2360 C 0.33673 0.1742 0.53362 0.0
C2361 C 0.313 0.15867 0.54582 0.0
N2362 N 0.25739 0.13027 0.55191 0.0
N2363 N 0.34877 0.18975 0.50305 0.0
C2364 C 0.27976 0.14168 0.53957 0.0
C2365 C 0.32696 0.17233 0.51484 0.0
N2366 N 0.23878 0.11721 0.51377 0.0
N2367 N 0.36865 0.18987 0.53997 0.0
H2368 H 0.34257 0.18823 0.48911 0.0
H2369 H 0.37254 0.20745 0.50711 0.0
H2370 H 0.3767 0.19319 0.55377 0.0
H2371 H 0.38731 0.19827 0.53161 0.0
H2372 H 0.2207 0.10227 0.52154 0.0
H2373 H 0.2308 0.11453 0.50001 0.0
H2374 H 0.23283 0.12058 0.54855 0.0
H2375 H 0.26356 0.13246 0.5659 0.0
C2376 C 0.84399 0.17317 0.52058 0.0
C2377 C 0.86122 0.1571 0.51625 0.0
C2378 C 0.86626 0.14832 0.54843 0.0
C2379 C 0.84511 0.16013 0.5522 0.0
N2380 N 0.81339 0.1837 0.54228 0.0
N2381 N 0.88875 0.12896 0.52551 0.0
C2382 C 0.83414 0.1729 0.53842 0.0
C2383 C 0.87277 0.14495 0.53009 0.0
N2384 N 0.83732 0.18887 0.5076 0.0
N2385 N 0.88008 0.14041 0.56243 0.0
H2386 H 0.89495 0.12715 0.51236 0.0
H2387 H 0.89452 0.11611 0.53443 0.0
H2388 H 0.87517 0.14187 0.57592 0.0
H2389 H 0.89818 0.13477 0.56099 0.0
H2390 H 0.82753 0.20367 0.51021 0.0
H2391 H 0.84408 0.18928 0.4944 0.0
H2392 H 0.80133 0.18961 0.53245 0.0
H2393 H 0.80685 0.18526 0.55538 0.0
C2394 C 0.87248 0.72507 0.5314 0.0
C2395 C 0.85727 0.70318 0.51542 0.0
C2396 C 0.82446 0.65942 0.53395 0.0
C2397 C 0.83967 0.68128 0.54993 0.0
N2398 N 0.88284 0.73229 0.56442 0.0
N2399 N 0.82476 0.64824 0.50147 0.0
C2400 C 0.86529 0.7133 0.54881 0.0
C2401 C 0.83517 0.66987 0.51673 0.0
N2402 N 0.89261 0.75736 0.52992 0.0
N2403 N 0.79889 0.62911 0.53517 0.0
H2404 H 0.83229 0.65521 0.48868 0.0
H2405 H 0.81108 0.62317 0.5017 0.0
H2406 H 0.79093 0.62026 0.54757 0.0
H2407 H 0.78426 0.61343 0.5239 0.0
H2408 H 0.90149 0.7752 0.54092 0.0
H2409 H 0.89899 0.76671 0.51743 0.0
H2410 H 0.90385 0.75462 0.56452 0.0
H2411 H 0.87787 0.7244 0.57735 0.0
loop_
_geom_bond_atom_site_label_1
_geom_bond_atom_site_label_2
_geom_bond_distance
_geom_bond_site_symmetry_2
_ccdc_geom_bond_type
C0 C1 1.391 . S
C0 C4 1.391 . S
C0 H42 0.948 . S
C1 C0 1.391 . S
C1 C2 1.391 . S
C2 C1 1.391 . S
C2 H58 0.947 . S
C2 C59 1.392 . S
C3 C4 1.391 . S
C3 C7 1.397 . S
C3 C59 1.419 . S
C4 C0 1.391 . S
C4 C3 1.391 . S
C4 C5 1.399 . S
C5 C4 1.399 . S
C5 C8 1.396 . S
C5 C17 1.453 . S
C5 C18 1.684 . S
H6 C30 0.948 . S
C7 C3 1.397 . S
C7 C8 1.394 . S
C7 C26 1.723 . S
C8 C5 1.396 . S
C8 C7 1.394 . S
C8 C38 1.723 . S
H9 C32 0.947 . S
H10 C33 0.948 . S
H11 C39 0.982 . S
H12 C40 0.979 . S
H13 C40 0.980 . S
H14 C40 0.983 . S
H15 C39 0.979 . S
H16 C39 0.977 . S
C17 C5 1.453 . S
C17 H46 0.982 . S
C17 H47 0.979 . S
C17 H48 0.977 . S
C18 C5 1.684 . S
C18 H43 0.979 . S
C18 H44 0.980 . S
C18 H45 0.983 . S
C19 C20 1.391 . S
C19 C24 1.391 . S
C19 H49 0.948 . S
C20 C19 1.391 . S
C20 C21 1.391 . S
C21 C20 1.391 . S
C21 C22 1.392 . S
C21 H50 0.947 . S
C22 C21 1.392 . S
C22 C23 1.419 . S
C22 H51 0.948 . S
C23 C22 1.419 . S
C23 C24 1.391 . S
C23 C27 1.397 . S
C24 C19 1.391 . S
C24 C23 1.391 . S
C24 C25 1.399 . S
C25 C24 1.399 . S
C25 C26 1.396 . S
C25 C28 1.453 . S
C25 C29 1.684 . S
C26 C7 1.723 . S
C26 C25 1.396 . S
C26 C27 1.394 . S
C27 C23 1.397 . S
C27 C26 1.394 . S
C27 C37 1.723 . S
C28 C25 1.453 . S
C28 H52 0.982 . S
C28 H53 0.979 . S
C28 H54 0.977 . S
C29 C25 1.684 . S
C29 H55 0.979 . S
C29 H56 0.980 . S
C29 H57 0.983 . S
C30 H6 0.948 . S
C30 C31 1.391 . S
C30 C35 1.391 . S
C31 C30 1.391 . S
C31 C32 1.391 . S
C32 H9 0.947 . S
C32 C31 1.391 . S
C32 C33 1.392 . S
C33 H10 0.948 . S
C33 C32 1.392 . S
C33 C34 1.419 . S
C34 C33 1.419 . S
C34 C35 1.391 . S
C34 C38 1.397 . S
C35 C30 1.391 . S
C35 C34 1.391 . S
C35 C36 1.399 . S
C36 C35 1.399 . S
C36 C37 1.396 . S
C36 C39 1.453 . S
C36 C40 1.684 . S
C37 C27 1.723 . S
C37 C36 1.396 . S
C37 C38 1.394 . S
C38 C8 1.723 . S
C38 C34 1.397 . S
C38 C37 1.394 . S
C39 H11 0.982 . S
C39 H15 0.979 . S
C39 H16 0.977 . S
C39 C36 1.453 . S
C40 H12 0.979 . S
C40 H13 0.980 . S
C40 H14 0.983 . S
C40 C36 1.684 . S
H41 C59 0.948 . S
H42 C0 0.948 . S
H43 C18 0.979 . S
H44 C18 0.980 . S
H45 C18 0.983 . S
H46 C17 0.982 . S
H47 C17 0.979 . S
H48 C17 0.977 . S
H49 C19 0.948 . S
H50 C21 0.947 . S
H51 C22 0.948 . S
H52 C28 0.982 . S
H53 C28 0.979 . S
H54 C28 0.977 . S
H55 C29 0.979 . S
H56 C29 0.980 . S
H57 C29 0.983 . S
H58 C2 0.947 . S
C59 C2 1.392 . S
C59 C3 1.419 . S
C59 H41 0.948 . S
C60 C61 1.391 . S
C60 C64 1.391 . S
C60 H102 0.948 . S
C61 C60 1.391 . S
C61 C62 1.391 . S
C62 C61 1.391 . S
C62 H118 0.947 . S
C62 C119 1.392 . S
C63 C64 1.391 . S
C63 C67 1.397 . S
C63 C119 1.419 . S
C64 C60 1.391 . S
C64 C63 1.391 . S
C64 C65 1.399 . S
C65 C64 1.399 . S
C65 C68 1.396 . S
C65 C77 1.453 . S
C65 C78 1.684 . S
H66 C90 0.948 . S
C67 C63 1.397 . S
C67 C68 1.394 . S
C67 C86 1.723 . S
C68 C65 1.396 . S
C68 C67 1.394 . S
C68 C98 1.723 . S
H69 C92 0.947 . S
H70 C93 0.948 . S
H71 C99 0.982 . S
H72 C100 0.979 . S
H73 C100 0.980 . S
H74 C100 0.983 . S
H75 C99 0.979 . S
H76 C99 0.977 . S
C77 C65 1.453 . S
C77 H106 0.982 . S
C77 H107 0.979 . S
C77 H108 0.977 . S
C78 C65 1.684 . S
C78 H103 0.979 . S
C78 H104 0.980 . S
C78 H105 0.983 . S
C79 C80 1.391 . S
C79 C84 1.391 . S
C79 H109 0.948 . S
C80 C79 1.391 . S
C80 C81 1.391 . S
C81 C80 1.391 . S
C81 C82 1.392 . S
C81 H110 0.947 . S
C82 C81 1.392 . S
C82 C83 1.419 . S
C82 H111 0.948 . S
C83 C82 1.419 . S
C83 C84 1.391 . S
C83 C87 1.397 . S
C84 C79 1.391 . S
C84 C83 1.391 . S
C84 C85 1.399 . S
C85 C84 1.399 . S
C85 C86 1.396 . S
C85 C88 1.453 . S
C85 C89 1.684 . S
C86 C67 1.723 . S
C86 C85 1.396 . S
C86 C87 1.394 . S
C87 C83 1.397 . S
C87 C86 1.394 . S
C87 C97 1.723 . S
C88 C85 1.453 . S
C88 H112 0.982 . S
C88 H113 0.979 . S
C88 H114 0.977 . S
C89 C85 1.684 . S
C89 H115 0.979 . S
C89 H116 0.980 . S
C89 H117 0.983 . S
C90 H66 0.948 . S
C90 C91 1.391 . S
C90 C95 1.391 . S
C91 C90 1.391 . S
C91 C92 1.391 . S
C92 H69 0.947 . S
C92 C91 1.391 . S
C92 C93 1.392 . S
C93 H70 0.948 . S
C93 C92 1.392 . S
C93 C94 1.419 . S
C94 C93 1.419 . S
C94 C95 1.391 . S
C94 C98 1.397 . S
C95 C90 1.391 . S
C95 C94 1.391 . S
C95 C96 1.399 . S
C96 C95 1.399 . S
C96 C97 1.396 . S
C96 C99 1.453 . S
C96 C100 1.684 . S
C97 C87 1.723 . S
C97 C96 1.396 . S
C97 C98 1.394 . S
C98 C68 1.723 . S
C98 C94 1.397 . S
C98 C97 1.394 . S
C99 H71 0.982 . S
C99 H75 0.979 . S
C99 H76 0.977 . S
C99 C96 1.453 . S
C100 H72 0.979 . S
C100 H73 0.980 . S
C100 H74 0.983 . S
C100 C96 1.684 . S
H101 C119 0.948 . S
H102 C60 0.948 . S
H103 C78 0.979 . S
H104 C78 0.980 . S
H105 C78 0.983 . S
H106 C77 0.982 . S
H107 C77 0.979 . S
H108 C77 0.977 . S
H109 C79 0.948 . S
H110 C81 0.947 . S
H111 C82 0.948 . S
H112 C88 0.982 . S
H113 C88 0.979 . S
H114 C88 0.977 . S
H115 C89 0.979 . S
H116 C89 0.980 . S
H117 C89 0.983 . S
H118 C62 0.947 . S
C119 C62 1.392 . S
C119 C63 1.419 . S
C119 H101 0.948 . S
C120 C121 1.391 . S
C120 C124 1.391 . S
C120 H162 0.948 . S
C121 C120 1.391 . S
C121 C122 1.391 . S
C122 C121 1.391 . S
C122 H178 0.947 1_655 S
C122 C179 1.392 . S
C123 C124 1.391 . S
C123 C127 1.397 . S
C123 C179 1.419 . S
C124 C120 1.391 . S
C124 C123 1.391 . S
C124 C125 1.399 . S
C125 C124 1.399 . S
C125 C128 1.396 . S
C125 C137 1.453 . S
C125 C138 1.684 . S
H126 C150 0.948 . S
C127 C123 1.397 . S
C127 C128 1.394 . S
C127 C146 1.723 . S
C128 C125 1.396 . S
C128 C127 1.394 . S
C128 C158 1.723 . S
H129 C152 0.947 . S
H130 C153 0.948 . S
H131 C159 0.982 . S
H132 C160 0.979 . S
H133 C160 0.980 . S
H134 C160 0.983 . S
H135 C159 0.979 . S
H136 C159 0.977 . S
C137 C125 1.453 . S
C137 H166 0.982 . S
C137 H167 0.979 . S
C137 H168 0.977 . S
C138 C125 1.684 . S
C138 H163 0.979 . S
C138 H164 0.980 . S
C138 H165 0.983 . S
C139 C140 1.391 . S
C139 C144 1.391 . S
C139 H169 0.948 . S
C140 C139 1.391 . S
C140 C141 1.391 . S
C141 C140 1.391 . S
C141 C142 1.392 . S
C141 H170 0.947 . S
C142 C141 1.392 . S
C142 C143 1.419 . S
C142 H171 0.948 . S
C143 C142 1.419 . S
C143 C144 1.391 . S
C143 C147 1.397 . S
C144 C139 1.391 . S
C144 C143 1.391 . S
C144 C145 1.399 . S
C145 C144 1.399 . S
C145 C146 1.396 . S
C145 C148 1.453 . S
C145 C149 1.684 . S
C146 C127 1.723 . S
C146 C145 1.396 . S
C146 C147 1.394 . S
C147 C143 1.397 . S
C147 C146 1.394 . S
C147 C157 1.723 . S
C148 C145 1.453 . S
C148 H172 0.982 . S
C148 H173 0.979 . S
C148 H174 0.977 . S
C149 C145 1.684 . S
C149 H175 0.979 . S
C149 H176 0.980 . S
C149 H177 0.983 . S
C150 H126 0.948 . S
C150 C151 1.391 . S
C150 C155 1.391 . S
C151 C150 1.391 . S
C151 C152 1.391 . S
C152 H129 0.947 . S
C152 C151 1.391 . S
C152 C153 1.392 . S
C153 H130 0.948 . S
C153 C152 1.392 . S
C153 C154 1.419 . S
C154 C153 1.419 . S
C154 C155 1.391 . S
C154 C158 1.397 . S
C155 C150 1.391 . S
C155 C154 1.391 . S
C155 C156 1.399 . S
C156 C155 1.399 . S
C156 C157 1.396 . S
C156 C159 1.453 . S
C156 C160 1.684 . S
C157 C147 1.723 . S
C157 C156 1.396 . S
C157 C158 1.394 . S
C158 C128 1.723 . S
C158 C154 1.397 . S
C158 C157 1.394 . S
C159 H131 0.982 . S
C159 H135 0.979 . S
C159 H136 0.977 . S
C159 C156 1.453 . S
C160 H132 0.979 . S
C160 H133 0.980 . S
C160 H134 0.983 . S
C160 C156 1.684 . S
H161 C179 0.948 . S
H162 C120 0.948 . S
H163 C138 0.979 . S
H164 C138 0.980 . S
H165 C138 0.983 . S
H166 C137 0.982 . S
H167 C137 0.979 . S
H168 C137 0.977 . S
H169 C139 0.948 . S
H170 C141 0.947 . S
H171 C142 0.948 . S
H172 C148 0.982 . S
H173 C148 0.979 . S
H174 C148 0.977 . S
H175 C149 0.979 . S
H176 C149 0.980 . S
H177 C149 0.983 . S
H178 C122 0.947 1_455 S
C179 C122 1.392 . S
C179 C123 1.419 . S
C179 H161 0.948 . S
C180 C181 1.391 . S
C180 C184 1.391 . S
C180 H222 0.948 . S
C181 C180 1.391 . S
C181 C182 1.391 . S
C182 C181 1.391 . S
C182 H238 0.947 . S
C182 C239 1.392 . S
C183 C184 1.391 . S
C183 C187 1.397 . S
C183 C239 1.419 . S
C184 C180 1.391 . S
C184 C183 1.391 . S
C184 C185 1.399 . S
C185 C184 1.399 . S
C185 C188 1.396 . S
C185 C197 1.453 . S
C185 C198 1.684 . S
H186 C210 0.948 . S
C187 C183 1.397 . S
C187 C188 1.394 . S
C187 C206 1.723 . S
C188 C185 1.396 . S
C188 C187 1.394 . S
C188 C218 1.723 . S
H189 C212 0.947 . S
H190 C213 0.948 . S
H191 C219 0.982 . S
H192 C220 0.979 . S
H193 C220 0.980 . S
H194 C220 0.983 . S
H195 C219 0.979 . S
H196 C219 0.977 . S
C197 C185 1.453 . S
C197 H226 0.982 . S
C197 H227 0.979 . S
C197 H228 0.977 . S
C198 C185 1.684 . S
C198 H223 0.979 . S
C198 H224 0.980 . S
C198 H225 0.983 . S
C199 C200 1.391 . S
C199 C204 1.391 . S
C199 H229 0.948 . S
C200 C199 1.391 . S
C200 C201 1.391 . S
C201 C200 1.391 . S
C201 C202 1.392 . S
C201 H230 0.947 . S
C202 C201 1.392 . S
C202 C203 1.419 . S
C202 H231 0.948 . S
C203 C202 1.419 . S
C203 C204 1.391 . S
C203 C207 1.397 . S
C204 C199 1.391 . S
C204 C203 1.391 . S
C204 C205 1.399 . S
C205 C204 1.399 . S
C205 C206 1.396 . S
C205 C208 1.453 . S
C205 C209 1.684 . S
C206 C187 1.723 . S
C206 C205 1.396 . S
C206 C207 1.394 . S
C207 C203 1.397 . S
C207 C206 1.394 . S
C207 C217 1.723 . S
C208 C205 1.453 . S
C208 H232 0.982 . S
C208 H233 0.979 . S
C208 H234 0.977 . S
C209 C205 1.684 . S
C209 H235 0.979 . S
C209 H236 0.980 . S
C209 H237 0.983 . S
C210 H186 0.948 . S
C210 C211 1.391 . S
C210 C215 1.391 . S
C211 C210 1.391 . S
C211 C212 1.391 . S
C212 H189 0.947 . S
C212 C211 1.391 . S
C212 C213 1.392 . S
C213 H190 0.948 . S
C213 C212 1.392 . S
C213 C214 1.419 . S
C214 C213 1.419 . S
C214 C215 1.391 . S
C214 C218 1.397 . S
C215 C210 1.391 . S
C215 C214 1.391 . S
C215 C216 1.399 . S
C216 C215 1.399 . S
C216 C217 1.396 . S
C216 C219 1.453 . S
C216 C220 1.684 . S
C217 C207 1.723 . S
C217 C216 1.396 . S
C217 C218 1.394 . S
C218 C188 1.723 . S
C218 C214 1.397 . S
C218 C217 1.394 . S
C219 H191 0.982 . S
C219 H195 0.979 . S
C219 H196 0.977 . S
C219 C216 1.453 . S
C220 H192 0.979 . S
C220 H193 0.980 . S
C220 H194 0.983 . S
C220 C216 1.684 . S
H221 C239 0.948 . S
H222 C180 0.948 . S
H223 C198 0.979 . S
H224 C198 0.980 . S
H225 C198 0.983 . S
H226 C197 0.982 . S
H227 C197 0.979 . S
H228 C197 0.977 . S
H229 C199 0.948 . S
H230 C201 0.947 . S
H231 C202 0.948 . S
H232 C208 0.982 . S
H233 C208 0.979 . S
H234 C208 0.977 . S
H235 C209 0.979 . S
H236 C209 0.980 . S
H237 C209 0.983 . S
H238 C182 0.947 . S
C239 C182 1.392 . S
C239 C183 1.419 . S
C239 H221 0.948 . S
C240 C241 1.391 . S
C240 C244 1.391 . S
C240 H282 0.948 . S
C241 C240 1.391 . S
C241 C242 1.391 . S
C242 C241 1.391 . S
C242 H298 0.947 . S
C242 C299 1.392 . S
C243 C244 1.391 . S
C243 C247 1.397 . S
C243 C299 1.419 . S
C244 C240 1.391 . S
C244 C243 1.391 . S
C244 C245 1.399 . S
C245 C244 1.399 . S
C245 C248 1.396 . S
C245 C257 1.453 . S
C245 C258 1.684 . S
H246 C270 0.948 . S
C247 C243 1.397 . S
C247 C248 1.394 . S
C247 C266 1.723 . S
C248 C245 1.396 . S
C248 C247 1.394 . S
C248 C278 1.723 . S
H249 C272 0.947 . S
H250 C273 0.948 . S
H251 C279 0.982 . S
H252 C280 0.979 . S
H253 C280 0.980 . S
H254 C280 0.983 . S
H255 C279 0.979 . S
H256 C279 0.977 . S
C257 C245 1.453 . S
C257 H286 0.982 . S
C257 H287 0.979 . S
C257 H288 0.977 . S
C258 C245 1.684 . S
C258 H283 0.979 . S
C258 H284 0.980 . S
C258 H285 0.983 . S
C259 C260 1.391 . S
C259 C264 1.391 . S
C259 H289 0.948 . S
C260 C259 1.391 . S
C260 C261 1.391 . S
C261 C260 1.391 . S
C261 C262 1.392 . S
C261 H290 0.947 . S
C262 C261 1.392 . S
C262 C263 1.419 . S
C262 H291 0.948 . S
C263 C262 1.419 . S
C263 C264 1.391 . S
C263 C267 1.397 . S
C264 C259 1.391 . S
C264 C263 1.391 . S
C264 C265 1.399 . S
C265 C264 1.399 . S
C265 C266 1.396 . S
C265 C268 1.453 . S
C265 C269 1.684 . S
C266 C247 1.723 . S
C266 C265 1.396 . S
C266 C267 1.394 . S
C267 C263 1.397 . S
C267 C266 1.394 . S
C267 C277 1.723 . S
C268 C265 1.453 . S
C268 H292 0.982 . S
C268 H293 0.979 . S
C268 H294 0.977 . S
C269 C265 1.684 . S
C269 H295 0.979 . S
C269 H296 0.980 . S
C269 H297 0.983 . S
C270 H246 0.948 . S
C270 C271 1.391 . S
C270 C275 1.391 . S
C271 C270 1.391 . S
C271 C272 1.391 . S
C272 H249 0.947 . S
C272 C271 1.391 . S
C272 C273 1.392 . S
C273 H250 0.948 . S
C273 C272 1.392 . S
C273 C274 1.419 . S
C274 C273 1.419 . S
C274 C275 1.391 . S
C274 C278 1.397 . S
C275 C270 1.391 . S
C275 C274 1.391 . S
C275 C276 1.399 . S
C276 C275 1.399 . S
C276 C277 1.396 . S
C276 C279 1.453 . S
C276 C280 1.684 . S
C277 C267 1.723 . S
C277 C276 1.396 . S
C277 C278 1.394 . S
C278 C248 1.723 . S
C278 C274 1.397 . S
C278 C277 1.394 . S
C279 H251 0.982 . S
C279 H255 0.979 . S
C279 H256 0.977 . S
C279 C276 1.453 . S
C280 H252 0.979 . S
C280 H253 0.980 . S
C280 H254 0.983 . S
C280 C276 1.684 . S
H281 C299 0.948 . S
H282 C240 0.948 . S
H283 C258 0.979 . S
H284 C258 0.980 . S
H285 C258 0.983 . S
H286 C257 0.982 . S
H287 C257 0.979 . S
H288 C257 0.977 . S
H289 C259 0.948 . S
H290 C261 0.947 . S
H291 C262 0.948 . S
H292 C268 0.982 . S
H293 C268 0.979 . S
H294 C268 0.977 . S
H295 C269 0.979 . S
H296 C269 0.980 . S
H297 C269 0.983 . S
H298 C242 0.947 . S
C299 C242 1.392 . S
C299 C243 1.419 . S
C299 H281 0.948 . S
C300 C301 1.391 . S
C300 C304 1.391 . S
C300 H342 0.948 . S
C301 C300 1.391 . S
C301 C302 1.391 . S
C302 C301 1.391 . S
C302 H358 0.947 . S
C302 C359 1.392 . S
C303 C304 1.391 . S
C303 C307 1.397 . S
C303 C359 1.419 . S
C304 C300 1.391 . S
C304 C303 1.391 . S
C304 C305 1.399 . S
C305 C304 1.399 . S
C305 C308 1.396 . S
C305 C317 1.453 . S
C305 C318 1.684 . S
H306 C330 0.948 . S
C307 C303 1.397 . S
C307 C308 1.394 . S
C307 C326 1.723 . S
C308 C305 1.396 . S
C308 C307 1.394 . S
C308 C338 1.723 . S
H309 C332 0.947 . S
H310 C333 0.948 . S
H311 C339 0.982 . S
H312 C340 0.979 . S
H313 C340 0.980 . S
H314 C340 0.983 . S
H315 C339 0.979 . S
H316 C339 0.977 . S
C317 C305 1.453 . S
C317 H346 0.982 . S
C317 H347 0.979 . S
C317 H348 0.977 . S
C318 C305 1.684 . S
C318 H343 0.979 . S
C318 H344 0.980 . S
C318 H345 0.983 . S
C319 C320 1.391 . S
C319 C324 1.391 . S
C319 H349 0.948 . S
C320 C319 1.391 . S
C320 C321 1.391 . S
C321 C320 1.391 . S
C321 C322 1.392 . S
C321 H350 0.947 . S
C322 C321 1.392 . S
C322 C323 1.419 . S
C322 H351 0.948 . S
C323 C322 1.419 . S
C323 C324 1.391 . S
C323 C327 1.397 . S
C324 C319 1.391 . S
C324 C323 1.391 . S
C324 C325 1.399 . S
C325 C324 1.399 . S
C325 C326 1.396 . S
C325 C328 1.453 . S
C325 C329 1.684 . S
C326 C307 1.723 . S
C326 C325 1.396 . S
C326 C327 1.394 . S
C327 C323 1.397 . S
C327 C326 1.394 . S
C327 C337 1.723 . S
C328 C325 1.453 . S
C328 H352 0.982 . S
C328 H353 0.979 . S
C328 H354 0.977 . S
C329 C325 1.684 . S
C329 H355 0.979 . S
C329 H356 0.980 . S
C329 H357 0.983 . S
C330 H306 0.948 . S
C330 C331 1.391 . S
C330 C335 1.391 . S
C331 C330 1.391 . S
C331 C332 1.391 . S
C332 H309 0.947 . S
C332 C331 1.391 . S
C332 C333 1.392 . S
C333 H310 0.948 . S
C333 C332 1.392 . S
C333 C334 1.419 . S
C334 C333 1.419 . S
C334 C335 1.391 . S
C334 C338 1.397 . S
C335 C330 1.391 . S
C335 C334 1.391 . S
C335 C336 1.399 . S
C336 C335 1.399 . S
C336 C337 1.396 . S
C336 C339 1.453 . S
C336 C340 1.684 . S
C337 C327 1.723 . S
C337 C336 1.396 . S
C337 C338 1.394 . S
C338 C308 1.723 . S
C338 C334 1.397 . S
C338 C337 1.394 . S
C339 H311 0.982 . S
C339 H315 0.979 . S
C339 H316 0.977 . S
C339 C336 1.453 . S
C340 H312 0.979 . S
C340 H313 0.980 . S
C340 H314 0.983 . S
C340 C336 1.684 . S
H341 C359 0.948 . S
H342 C300 0.948 . S
H343 C318 0.979 . S
H344 C318 0.980 . S
H345 C318 0.983 . S
H346 C317 0.982 . S
H347 C317 0.979 . S
H348 C317 0.977 . S
H349 C319 0.948 . S
H350 C321 0.947 . S
H351 C322 0.948 . S
H352 C328 0.982 . S
H353 C328 0.979 . S
H354 C328 0.977 . S
H355 C329 0.979 . S
H356 C329 0.980 . S
H357 C329 0.983 . S
H358 C302 0.947 . S
C359 C302 1.392 . S
C359 C303 1.419 . S
C359 H341 0.948 . S
C360 C361 1.391 . S
C360 C364 1.391 . S
C360 H402 0.948 . S
C361 C360 1.391 . S
C361 C362 1.391 . S
C362 C361 1.391 . S
C362 H418 0.947 . S
C362 C419 1.392 . S
C363 C364 1.391 . S
C363 C367 1.397 . S
C363 C419 1.419 . S
C364 C360 1.391 . S
C364 C363 1.391 . S
C364 C365 1.399 . S
C365 C364 1.399 . S
C365 C368 1.396 . S
C365 C377 1.453 . S
C365 C378 1.684 . S
H366 C390 0.948 . S
C367 C363 1.397 . S
C367 C368 1.394 . S
C367 C386 1.723 . S
C368 C365 1.396 . S
C368 C367 1.394 . S
C368 C398 1.723 . S
H369 C392 0.947 . S
H370 C393 0.948 . S
H371 C399 0.982 1_455 S
H372 C400 0.979 . S
H373 C400 0.980 . S
H374 C400 0.983 . S
H375 C399 0.979 . S
H376 C399 0.977 . S
C377 C365 1.453 . S
C377 H406 0.982 . S
C377 H407 0.979 . S
C377 H408 0.977 . S
C378 C365 1.684 . S
C378 H403 0.979 . S
C378 H404 0.980 . S
C378 H405 0.983 . S
C379 C380 1.391 . S
C379 C384 1.391 . S
C379 H409 0.948 . S
C380 C379 1.391 . S
C380 C381 1.391 . S
C381 C380 1.391 . S
C381 C382 1.392 . S
C381 H410 0.947 . S
C382 C381 1.392 . S
C382 C383 1.419 . S
C382 H411 0.948 . S
C383 C382 1.419 . S
C383 C384 1.391 . S
C383 C387 1.397 . S
C384 C379 1.391 . S
C384 C383 1.391 . S
C384 C385 1.399 . S
C385 C384 1.399 . S
C385 C386 1.396 . S
C385 C388 1.453 . S
C385 C389 1.684 . S
C386 C367 1.723 . S
C386 C385 1.396 . S
C386 C387 1.394 . S
C387 C383 1.397 . S
C387 C386 1.394 . S
C387 C397 1.723 . S
C388 C385 1.453 . S
C388 H412 0.982 1_655 S
C388 H413 0.979 1_655 S
C388 H414 0.977 . S
C389 C385 1.684 . S
C389 H415 0.979 . S
C389 H416 0.980 . S
C389 H417 0.983 . S
C390 H366 0.948 . S
C390 C391 1.391 . S
C390 C395 1.391 . S
C391 C390 1.391 . S
C391 C392 1.391 . S
C392 H369 0.947 . S
C392 C391 1.391 . S
C392 C393 1.392 . S
C393 H370 0.948 . S
C393 C392 1.392 . S
C393 C394 1.419 . S
C394 C393 1.419 . S
C394 C395 1.391 . S
C394 C398 1.397 . S
C395 C390 1.391 . S
C395 C394 1.391 . S
C395 C396 1.399 . S
C396 C395 1.399 . S
C396 C397 1.396 . S
C396 C399 1.453 . S
C396 C400 1.684 . S
C397 C387 1.723 . S
C397 C396 1.396 . S
C397 C398 1.394 . S
C398 C368 1.723 . S
C398 C394 1.397 . S
C398 C397 1.394 . S
C399 H371 0.982 1_655 S
C399 H375 0.979 . S
C399 H376 0.977 . S
C399 C396 1.453 . S
C400 H372 0.979 . S
C400 H373 0.980 . S
C400 H374 0.983 . S
C400 C396 1.684 . S
H401 C419 0.948 . S
H402 C360 0.948 . S
H403 C378 0.979 . S
H404 C378 0.980 . S
H405 C378 0.983 . S
H406 C377 0.982 . S
H407 C377 0.979 . S
H408 C377 0.977 . S
H409 C379 0.948 . S
H410 C381 0.947 . S
H411 C382 0.948 . S
H412 C388 0.982 1_455 S
H413 C388 0.979 1_455 S
H414 C388 0.977 . S
H415 C389 0.979 . S
H416 C389 0.980 . S
H417 C389 0.983 . S
H418 C362 0.947 . S
C419 C362 1.392 . S
C419 C363 1.419 . S
C419 H401 0.948 . S
C420 C421 1.391 . S
C420 C424 1.391 . S
C420 H462 0.948 . S
C421 C420 1.391 . S
C421 C422 1.391 . S
C422 C421 1.391 . S
C422 H478 0.947 . S
C422 C479 1.392 . S
C423 C424 1.391 . S
C423 C427 1.397 . S
C423 C479 1.419 . S
C424 C420 1.391 . S
C424 C423 1.391 . S
C424 C425 1.399 . S
C425 C424 1.399 . S
C425 C428 1.396 . S
C425 C437 1.453 . S
C425 C438 1.684 . S
H426 C450 0.948 . S
C427 C423 1.397 . S
C427 C428 1.394 . S
C427 C446 1.723 . S
C428 C425 1.396 . S
C428 C427 1.394 . S
C428 C458 1.723 . S
H429 C452 0.947 . S
H430 C453 0.948 . S
H431 C459 0.982 . S
H432 C460 0.979 . S
H433 C460 0.980 . S
H434 C460 0.983 . S
H435 C459 0.979 . S
H436 C459 0.977 . S
C437 C425 1.453 . S
C437 H466 0.982 . S
C437 H467 0.979 . S
C437 H468 0.977 . S
C438 C425 1.684 . S
C438 H463 0.979 . S
C438 H464 0.980 . S
C438 H465 0.983 . S
C439 C440 1.391 . S
C439 C444 1.391 . S
C439 H469 0.948 . S
C440 C439 1.391 . S
C440 C441 1.391 . S
C441 C440 1.391 . S
C441 C442 1.392 . S
C441 H470 0.947 . S
C442 C441 1.392 . S
C442 C443 1.419 . S
C442 H471 0.948 . S
C443 C442 1.419 . S
C443 C444 1.391 . S
C443 C447 1.397 . S
C444 C439 1.391 . S
C444 C443 1.391 . S
C444 C445 1.399 . S
C445 C444 1.399 . S
C445 C446 1.396 . S
C445 C448 1.453 . S
C445 C449 1.684 . S
C446 C427 1.723 . S
C446 C445 1.396 . S
C446 C447 1.394 . S
C447 C443 1.397 . S
C447 C446 1.394 . S
C447 C457 1.723 . S
C448 C445 1.453 . S
C448 H472 0.982 . S
C448 H473 0.979 . S
C448 H474 0.977 . S
C449 C445 1.684 . S
C449 H475 0.979 . S
C449 H476 0.980 . S
C449 H477 0.983 . S
C450 H426 0.948 . S
C450 C451 1.391 . S
C450 C455 1.391 . S
C451 C450 1.391 . S
C451 C452 1.391 . S
C452 H429 0.947 . S
C452 C451 1.391 . S
C452 C453 1.392 . S
C453 H430 0.948 . S
C453 C452 1.392 . S
C453 C454 1.419 . S
C454 C453 1.419 . S
C454 C455 1.391 . S
C454 C458 1.397 . S
C455 C450 1.391 . S
C455 C454 1.391 . S
C455 C456 1.399 . S
C456 C455 1.399 . S
C456 C457 1.396 . S
C456 C459 1.453 . S
C456 C460 1.684 . S
C457 C447 1.723 . S
C457 C456 1.396 . S
C457 C458 1.394 . S
C458 C428 1.723 . S
C458 C454 1.397 . S
C458 C457 1.394 . S
C459 H431 0.982 . S
C459 H435 0.979 . S
C459 H436 0.977 . S
C459 C456 1.453 . S
C460 H432 0.979 . S
C460 H433 0.980 . S
C460 H434 0.983 . S
C460 C456 1.684 . S
H461 C479 0.948 . S
H462 C420 0.948 . S
H463 C438 0.979 . S
H464 C438 0.980 . S
H465 C438 0.983 . S
H466 C437 0.982 . S
H467 C437 0.979 . S
H468 C437 0.977 . S
H469 C439 0.948 . S
H470 C441 0.947 . S
H471 C442 0.948 . S
H472 C448 0.982 . S
H473 C448 0.979 . S
H474 C448 0.977 . S
H475 C449 0.979 . S
H476 C449 0.980 . S
H477 C449 0.983 . S
H478 C422 0.947 . S
C479 C422 1.392 . S
C479 C423 1.419 . S
C479 H461 0.948 . S
C480 C481 1.391 . S
C480 C484 1.391 . S
C480 H522 0.948 . S
C481 C480 1.391 . S
C481 C482 1.391 . S
C482 C481 1.391 . S
C482 H538 0.947 . S
C482 C539 1.392 . S
C483 C484 1.391 . S
C483 C487 1.397 . S
C483 C539 1.419 . S
C484 C480 1.391 . S
C484 C483 1.391 . S
C484 C485 1.399 . S
C485 C484 1.399 . S
C485 C488 1.396 . S
C485 C497 1.453 . S
C485 C498 1.684 . S
H486 C510 0.948 . S
C487 C483 1.397 . S
C487 C488 1.394 . S
C487 C506 1.723 . S
C488 C485 1.396 . S
C488 C487 1.394 . S
C488 C518 1.723 . S
H489 C512 0.947 . S
H490 C513 0.948 . S
H491 C519 0.982 . S
H492 C520 0.979 . S
H493 C520 0.980 . S
H494 C520 0.983 . S
H495 C519 0.979 . S
H496 C519 0.977 . S
C497 C485 1.453 . S
C497 H526 0.982 . S
C497 H527 0.979 . S
C497 H528 0.977 . S
C498 C485 1.684 . S
C498 H523 0.979 . S
C498 H524 0.980 . S
C498 H525 0.983 . S
C499 C500 1.391 . S
C499 C504 1.391 . S
C499 H529 0.948 . S
C500 C499 1.391 . S
C500 C501 1.391 . S
C501 C500 1.391 . S
C501 C502 1.392 . S
C501 H530 0.947 . S
C502 C501 1.392 . S
C502 C503 1.419 . S
C502 H531 0.948 . S
C503 C502 1.419 . S
C503 C504 1.391 . S
C503 C507 1.397 . S
C504 C499 1.391 . S
C504 C503 1.391 . S
C504 C505 1.399 . S
C505 C504 1.399 . S
C505 C506 1.396 . S
C505 C508 1.453 . S
C505 C509 1.684 . S
C506 C487 1.723 . S
C506 C505 1.396 . S
C506 C507 1.394 . S
C507 C503 1.397 . S
C507 C506 1.394 . S
C507 C517 1.723 . S
C508 C505 1.453 . S
C508 H532 0.982 . S
C508 H533 0.979 . S
C508 H534 0.977 . S
C509 C505 1.684 . S
C509 H535 0.979 . S
C509 H536 0.980 . S
C509 H537 0.983 . S
C510 H486 0.948 . S
C510 C511 1.391 . S
C510 C515 1.391 . S
C511 C510 1.391 . S
C511 C512 1.391 . S
C512 H489 0.947 . S
C512 C511 1.391 . S
C512 C513 1.392 . S
C513 H490 0.948 . S
C513 C512 1.392 . S
C513 C514 1.419 . S
C514 C513 1.419 . S
C514 C515 1.391 . S
C514 C518 1.397 . S
C515 C510 1.391 . S
C515 C514 1.391 . S
C515 C516 1.399 . S
C516 C515 1.399 . S
C516 C517 1.396 . S
C516 C519 1.453 . S
C516 C520 1.684 . S
C517 C507 1.723 . S
C517 C516 1.396 . S
C517 C518 1.394 . S
C518 C488 1.723 . S
C518 C514 1.397 . S
C518 C517 1.394 . S
C519 H491 0.982 . S
C519 H495 0.979 . S
C519 H496 0.977 . S
C519 C516 1.453 . S
C520 H492 0.979 . S
C520 H493 0.980 . S
C520 H494 0.983 . S
C520 C516 1.684 . S
H521 C539 0.948 . S
H522 C480 0.948 . S
H523 C498 0.979 . S
H524 C498 0.980 . S
H525 C498 0.983 . S
H526 C497 0.982 . S
H527 C497 0.979 . S
H528 C497 0.977 . S
H529 C499 0.948 . S
H530 C501 0.947 . S
H531 C502 0.948 . S
H532 C508 0.982 . S
H533 C508 0.979 . S
H534 C508 0.977 . S
H535 C509 0.979 . S
H536 C509 0.980 . S
H537 C509 0.983 . S
H538 C482 0.947 . S
C539 C482 1.392 . S
C539 C483 1.419 . S
C539 H521 0.948 . S
C540 C541 1.391 . S
C540 C544 1.391 . S
C540 H582 0.948 . S
C541 C540 1.391 . S
C541 C542 1.391 . S
C542 C541 1.391 . S
C542 H598 0.947 . S
C542 C599 1.392 . S
C543 C544 1.391 . S
C543 C547 1.397 . S
C543 C599 1.419 . S
C544 C540 1.391 . S
C544 C543 1.391 . S
C544 C545 1.399 . S
C545 C544 1.399 . S
C545 C548 1.396 . S
C545 C557 1.453 . S
C545 C558 1.684 . S
H546 C570 0.948 . S
C547 C543 1.397 . S
C547 C548 1.394 . S
C547 C566 1.723 . S
C548 C545 1.396 . S
C548 C547 1.394 . S
C548 C578 1.723 . S
H549 C572 0.947 . S
H550 C573 0.948 . S
H551 C579 0.982 . S
H552 C580 0.979 . S
H553 C580 0.980 . S
H554 C580 0.983 . S
H555 C579 0.979 . S
H556 C579 0.977 . S
C557 C545 1.453 . S
C557 H586 0.982 . S
C557 H587 0.979 . S
C557 H588 0.977 . S
C558 C545 1.684 . S
C558 H583 0.979 . S
C558 H584 0.980 . S
C558 H585 0.983 . S
C559 C560 1.391 . S
C559 C564 1.391 . S
C559 H589 0.948 . S
C560 C559 1.391 . S
C560 C561 1.391 . S
C561 C560 1.391 . S
C561 C562 1.392 . S
C561 H590 0.947 . S
C562 C561 1.392 . S
C562 C563 1.419 . S
C562 H591 0.948 . S
C563 C562 1.419 . S
C563 C564 1.391 . S
C563 C567 1.397 . S
C564 C559 1.391 . S
C564 C563 1.391 . S
C564 C565 1.399 . S
C565 C564 1.399 . S
C565 C566 1.396 . S
C565 C568 1.453 . S
C565 C569 1.684 . S
C566 C547 1.723 . S
C566 C565 1.396 . S
C566 C567 1.394 . S
C567 C563 1.397 . S
C567 C566 1.394 . S
C567 C577 1.723 . S
C568 C565 1.453 . S
C568 H592 0.982 . S
C568 H593 0.979 . S
C568 H594 0.977 . S
C569 C565 1.684 . S
C569 H595 0.979 . S
C569 H596 0.980 . S
C569 H597 0.983 . S
C570 H546 0.948 . S
C570 C571 1.391 . S
C570 C575 1.391 . S
C571 C570 1.391 . S
C571 C572 1.391 . S
C572 H549 0.947 . S
C572 C571 1.391 . S
C572 C573 1.392 . S
C573 H550 0.948 . S
C573 C572 1.392 . S
C573 C574 1.419 . S
C574 C573 1.419 . S
C574 C575 1.391 . S
C574 C578 1.397 . S
C575 C570 1.391 . S
C575 C574 1.391 . S
C575 C576 1.399 . S
C576 C575 1.399 . S
C576 C577 1.396 . S
C576 C579 1.453 . S
C576 C580 1.684 . S
C577 C567 1.723 . S
C577 C576 1.396 . S
C577 C578 1.394 . S
C578 C548 1.723 . S
C578 C574 1.397 . S
C578 C577 1.394 . S
C579 H551 0.982 . S
C579 H555 0.979 . S
C579 H556 0.977 . S
C579 C576 1.453 . S
C580 H552 0.979 . S
C580 H553 0.980 . S
C580 H554 0.983 . S
C580 C576 1.684 . S
H581 C599 0.948 . S
H582 C540 0.948 . S
H583 C558 0.979 . S
H584 C558 0.980 . S
H585 C558 0.983 . S
H586 C557 0.982 . S
H587 C557 0.979 . S
H588 C557 0.977 . S
H589 C559 0.948 . S
H590 C561 0.947 . S
H591 C562 0.948 . S
H592 C568 0.982 . S
H593 C568 0.979 . S
H594 C568 0.977 . S
H595 C569 0.979 . S
H596 C569 0.980 . S
H597 C569 0.983 . S
H598 C542 0.947 . S
C599 C542 1.392 . S
C599 C543 1.419 . S
C599 H581 0.948 . S
C600 C601 1.391 . S
C600 C604 1.391 . S
C600 H642 0.948 . S
C601 C600 1.391 . S
C601 C602 1.391 . S
C602 C601 1.391 . S
C602 H658 0.947 . S
C602 C659 1.392 . S
C603 C604 1.391 . S
C603 C607 1.397 . S
C603 C659 1.419 . S
C604 C600 1.391 . S
C604 C603 1.391 . S
C604 C605 1.399 . S
C605 C604 1.399 . S
C605 C608 1.396 . S
C605 C617 1.453 . S
C605 C618 1.684 . S
H606 C630 0.948 . S
C607 C603 1.397 . S
C607 C608 1.394 . S
C607 C626 1.723 . S
C608 C605 1.396 . S
C608 C607 1.394 . S
C608 C638 1.723 . S
H609 C632 0.947 1_554 S
H610 C633 0.948 . S
H611 C639 0.982 . S
H612 C640 0.979 . S
H613 C640 0.980 . S
H614 C640 0.983 . S
H615 C639 0.979 . S
H616 C639 0.977 . S
C617 C605 1.453 . S
C617 H646 0.982 . S
C617 H647 0.979 . S
C617 H648 0.977 . S
C618 C605 1.684 . S
C618 H643 0.979 . S
C618 H644 0.988 . S
C618 H645 0.983 1_556 S
C619 C620 1.391 . S
C619 C624 1.391 . S
C619 H649 0.948 . S
C620 C619 1.391 . S
C620 C621 1.391 . S
C621 C620 1.391 . S
C621 C622 1.392 . S
C621 H650 0.947 . S
C622 C621 1.392 . S
C622 C623 1.419 . S
C622 H651 0.948 . S
C623 C622 1.419 . S
C623 C624 1.391 . S
C623 C627 1.397 . S
C624 C619 1.391 . S
C624 C623 1.391 . S
C624 C625 1.399 . S
C625 C624 1.399 . S
C625 C626 1.396 . S
C625 C628 1.453 . S
C625 C629 1.684 . S
C626 C607 1.723 . S
C626 C625 1.396 . S
C626 C627 1.394 . S
C627 C623 1.397 . S
C627 C626 1.394 . S
C627 C637 1.723 . S
C628 C625 1.453 . S
C628 H652 0.982 . S
C628 H653 0.979 . S
C628 H654 0.977 . S
C629 C625 1.684 . S
C629 H655 0.979 . S
C629 H656 0.980 . S
C629 H657 0.983 . S
C630 H606 0.948 . S
C630 C631 1.391 . S
C630 C635 1.391 . S
C631 C630 1.391 . S
C631 C632 1.391 . S
C632 H609 0.947 1_556 S
C632 C631 1.391 . S
C632 C633 1.392 . S
C633 H610 0.948 . S
C633 C632 1.392 . S
C633 C634 1.419 . S
C634 C633 1.419 . S
C634 C635 1.391 . S
C634 C638 1.397 . S
C635 C630 1.391 . S
C635 C634 1.391 . S
C635 C636 1.399 . S
C636 C635 1.399 . S
C636 C637 1.396 . S
C636 C639 1.453 . S
C636 C640 1.684 . S
C637 C627 1.723 . S
C637 C636 1.396 . S
C637 C638 1.394 . S
C638 C608 1.723 . S
C638 C634 1.397 . S
C638 C637 1.394 . S
C639 H611 0.982 . S
C639 H615 0.979 . S
C639 H616 0.977 . S
C639 C636 1.453 . S
C640 H612 0.979 . S
C640 H613 0.980 . S
C640 H614 0.983 . S
C640 C636 1.684 . S
H641 C659 0.948 . S
H642 C600 0.948 . S
H643 C618 0.979 . S
H644 C618 0.988 . S
H645 C618 0.983 1_554 S
H646 C617 0.982 . S
H647 C617 0.979 . S
H648 C617 0.977 . S
H649 C619 0.948 . S
H650 C621 0.947 . S
H651 C622 0.948 . S
H652 C628 0.982 . S
H653 C628 0.979 . S
H654 C628 0.977 . S
H655 C629 0.979 . S
H656 C629 0.980 . S
H657 C629 0.983 . S
H658 C602 0.947 . S
C659 C602 1.392 . S
C659 C603 1.419 . S
C659 H641 0.948 . S
C660 C661 1.391 . S
C660 C664 1.391 . S
C660 H702 0.948 . S
C661 C660 1.391 . S
C661 C662 1.391 . S
C662 C661 1.391 . S
C662 H718 0.947 . S
C662 C719 1.392 . S
C663 C664 1.391 . S
C663 C667 1.397 . S
C663 C719 1.419 . S
C664 C660 1.391 . S
C664 C663 1.391 . S
C664 C665 1.399 . S
C665 C664 1.399 . S
C665 C668 1.396 . S
C665 C677 1.453 . S
C665 C678 1.684 . S
H666 C690 0.948 . S
C667 C663 1.397 . S
C667 C668 1.394 . S
C667 C686 1.723 . S
C668 C665 1.396 . S
C668 C667 1.394 . S
C668 C698 1.723 . S
H669 C692 0.947 . S
H670 C693 0.948 . S
H671 C699 0.982 . S
H672 C700 0.979 . S
H673 C700 0.980 . S
H674 C700 0.983 . S
H675 C699 0.979 . S
H676 C699 0.977 . S
C677 C665 1.453 . S
C677 H706 0.982 . S
C677 H707 0.979 . S
C677 H708 0.977 . S
C678 C665 1.684 . S
C678 H703 0.979 . S
C678 H704 0.980 . S
C678 H705 0.983 . S
C679 C680 1.391 . S
C679 C684 1.391 . S
C679 H709 0.948 . S
C680 C679 1.391 . S
C680 C681 1.391 . S
C681 C680 1.391 . S
C681 C682 1.392 . S
C681 H710 0.947 . S
C682 C681 1.392 . S
C682 C683 1.419 . S
C682 H711 0.948 . S
C683 C682 1.419 . S
C683 C684 1.391 . S
C683 C687 1.397 . S
C684 C679 1.391 . S
C684 C683 1.391 . S
C684 C685 1.399 . S
C685 C684 1.399 . S
C685 C686 1.396 . S
C685 C688 1.453 . S
C685 C689 1.684 . S
C686 C667 1.723 . S
C686 C685 1.396 . S
C686 C687 1.394 . S
C687 C683 1.397 . S
C687 C686 1.394 . S
C687 C697 1.723 . S
C688 C685 1.453 . S
C688 H712 0.982 . S
C688 H713 0.979 . S
C688 H714 0.977 . S
C689 C685 1.684 . S
C689 H715 0.979 . S
C689 H716 0.980 . S
C689 H717 0.983 . S
C690 H666 0.948 . S
C690 C691 1.391 . S
C690 C695 1.391 . S
C691 C690 1.391 . S
C691 C692 1.391 . S
C692 H669 0.947 . S
C692 C691 1.391 . S
C692 C693 1.392 . S
C693 H670 0.948 . S
C693 C692 1.392 . S
C693 C694 1.419 . S
C694 C693 1.419 . S
C694 C695 1.391 . S
C694 C698 1.397 . S
C695 C690 1.391 . S
C695 C694 1.391 . S
C695 C696 1.399 . S
C696 C695 1.399 . S
C696 C697 1.396 . S
C696 C699 1.453 . S
C696 C700 1.684 . S
C697 C687 1.723 . S
C697 C696 1.396 . S
C697 C698 1.394 . S
C698 C668 1.723 . S
C698 C694 1.397 . S
C698 C697 1.394 . S
C699 H671 0.982 . S
C699 H675 0.979 . S
C699 H676 0.977 . S
C699 C696 1.453 . S
C700 H672 0.979 . S
C700 H673 0.980 . S
C700 H674 0.983 . S
C700 C696 1.684 . S
H701 C719 0.948 . S
H702 C660 0.948 . S
H703 C678 0.979 . S
H704 C678 0.980 . S
H705 C678 0.983 . S
H706 C677 0.982 . S
H707 C677 0.979 . S
H708 C677 0.977 . S
H709 C679 0.948 . S
H710 C681 0.947 . S
H711 C682 0.948 . S
H712 C688 0.982 . S
H713 C688 0.979 . S
H714 C688 0.977 . S
H715 C689 0.979 . S
H716 C689 0.980 . S
H717 C689 0.983 . S
H718 C662 0.947 . S
C719 C662 1.392 . S
C719 C663 1.419 . S
C719 H701 0.948 . S
C720 C721 1.391 . S
C720 C724 1.391 . S
C720 H762 0.948 . S
C721 C720 1.391 . S
C721 C722 1.391 . S
C722 C721 1.391 . S
C722 H778 0.947 . S
C722 C779 1.392 . S
C723 C724 1.391 . S
C723 C727 1.397 . S
C723 C779 1.419 . S
C724 C720 1.391 . S
C724 C723 1.391 . S
C724 C725 1.399 . S
C725 C724 1.399 . S
C725 C728 1.396 . S
C725 C737 1.453 . S
C725 C738 1.684 . S
H726 C750 0.948 . S
C727 C723 1.397 . S
C727 C728 1.394 . S
C727 C746 1.723 . S
C728 C725 1.396 . S
C728 C727 1.394 . S
C728 C758 1.723 . S
H729 C752 0.947 1_556 S
H730 C753 0.948 . S
H731 C759 0.982 . S
H732 C760 0.979 . S
H733 C760 0.980 . S
H734 C760 0.983 . S
H735 C759 0.979 . S
H736 C759 0.977 . S
C737 C725 1.453 . S
C737 H766 0.982 . S
C737 H767 0.955 1_554 S
C737 H768 0.977 . S
C738 C725 1.684 . S
C738 H763 0.979 . S
C738 H764 0.980 . S
C738 H765 0.944 1_554 S
C739 C740 1.391 . S
C739 C744 1.391 . S
C739 H769 0.948 . S
C740 C739 1.391 . S
C740 C741 1.391 . S
C741 C740 1.391 . S
C741 C742 1.392 . S
C741 H770 0.947 . S
C742 C741 1.392 . S
C742 C743 1.419 . S
C742 H771 0.948 . S
C743 C742 1.419 . S
C743 C744 1.391 . S
C743 C747 1.397 . S
C744 C739 1.391 . S
C744 C743 1.391 . S
C744 C745 1.399 . S
C745 C744 1.399 . S
C745 C746 1.396 . S
C745 C748 1.453 . S
C745 C749 1.684 . S
C746 C727 1.723 . S
C746 C745 1.396 . S
C746 C747 1.394 . S
C747 C743 1.397 . S
C747 C746 1.394 . S
C747 C757 1.723 . S
C748 C745 1.453 . S
C748 H772 0.982 . S
C748 H773 0.979 . S
C748 H774 0.977 . S
C749 C745 1.684 . S
C749 H775 0.979 . S
C749 H776 0.980 . S
C749 H777 0.983 . S
C750 H726 0.948 . S
C750 C751 1.391 . S
C750 C755 1.391 . S
C751 C750 1.391 . S
C751 C752 1.391 . S
C752 H729 0.947 1_554 S
C752 C751 1.391 . S
C752 C753 1.392 . S
C753 H730 0.948 . S
C753 C752 1.392 . S
C753 C754 1.419 . S
C754 C753 1.419 . S
C754 C755 1.391 . S
C754 C758 1.397 . S
C755 C750 1.391 . S
C755 C754 1.391 . S
C755 C756 1.399 . S
C756 C755 1.399 . S
C756 C757 1.396 . S
C756 C759 1.453 . S
C756 C760 1.684 . S
C757 C747 1.723 . S
C757 C756 1.396 . S
C757 C758 1.394 . S
C758 C728 1.723 . S
C758 C754 1.397 . S
C758 C757 1.394 . S
C759 H731 0.982 . S
C759 H735 0.979 . S
C759 H736 0.977 . S
C759 C756 1.453 . S
C760 H732 0.979 . S
C760 H733 0.980 . S
C760 H734 0.983 . S
C760 C756 1.684 . S
H761 C779 0.948 . S
H762 C720 0.948 . S
H763 C738 0.979 . S
H764 C738 0.980 . S
H765 C738 0.944 1_556 S
H766 C737 0.982 . S
H767 C737 0.955 1_556 S
H768 C737 0.977 . S
H769 C739 0.948 . S
H770 C741 0.947 . S
H771 C742 0.948 . S
H772 C748 0.982 . S
H773 C748 0.979 . S
H774 C748 0.977 . S
H775 C749 0.979 . S
H776 C749 0.980 . S
H777 C749 0.983 . S
H778 C722 0.947 . S
C779 C722 1.392 . S
C779 C723 1.419 . S
C779 H761 0.948 . S
C780 C781 1.391 . S
C780 C784 1.391 . S
C780 H822 0.948 . S
C781 C780 1.391 . S
C781 C782 1.391 . S
C782 C781 1.391 . S
C782 H838 0.947 . S
C782 C839 1.392 . S
C783 C784 1.391 . S
C783 C787 1.397 . S
C783 C839 1.419 . S
C784 C780 1.391 . S
C784 C783 1.391 . S
C784 C785 1.399 . S
C785 C784 1.399 . S
C785 C788 1.396 . S
C785 C797 1.453 . S
C785 C798 1.684 . S
H786 C810 0.948 . S
C787 C783 1.397 . S
C787 C788 1.394 . S
C787 C806 1.723 . S
C788 C785 1.396 . S
C788 C787 1.394 . S
C788 C818 1.723 . S
H789 C812 0.947 . S
H790 C813 0.948 . S
H791 C819 0.982 . S
H792 C820 0.979 . S
H793 C820 0.980 . S
H794 C820 0.983 . S
H795 C819 0.979 . S
H796 C819 0.977 . S
C797 C785 1.453 . S
C797 H826 0.982 . S
C797 H827 0.979 . S
C797 H828 0.977 . S
C798 C785 1.684 . S
C798 H823 0.979 . S
C798 H824 0.980 . S
C798 H825 0.983 . S
C799 C800 1.391 . S
C799 C804 1.391 . S
C799 H829 0.948 . S
C800 C799 1.391 . S
C800 C801 1.391 . S
C801 C800 1.391 . S
C801 C802 1.392 . S
C801 H830 0.947 . S
C802 C801 1.392 . S
C802 C803 1.419 . S
C802 H831 0.948 . S
C803 C802 1.419 . S
C803 C804 1.391 . S
C803 C807 1.397 . S
C804 C799 1.391 . S
C804 C803 1.391 . S
C804 C805 1.399 . S
C805 C804 1.399 . S
C805 C806 1.396 . S
C805 C808 1.453 . S
C805 C809 1.684 . S
C806 C787 1.723 . S
C806 C805 1.396 . S
C806 C807 1.394 . S
C807 C803 1.397 . S
C807 C806 1.394 . S
C807 C817 1.723 . S
C808 C805 1.453 . S
C808 H832 0.982 . S
C808 H833 0.979 . S
C808 H834 0.977 . S
C809 C805 1.684 . S
C809 H835 0.979 . S
C809 H836 0.980 . S
C809 H837 0.983 . S
C810 H786 0.948 . S
C810 C811 1.391 . S
C810 C815 1.391 . S
C811 C810 1.391 . S
C811 C812 1.391 . S
C812 H789 0.947 . S
C812 C811 1.391 . S
C812 C813 1.392 . S
C813 H790 0.948 . S
C813 C812 1.392 . S
C813 C814 1.419 . S
C814 C813 1.419 . S
C814 C815 1.391 . S
C814 C818 1.397 . S
C815 C810 1.391 . S
C815 C814 1.391 . S
C815 C816 1.399 . S
C816 C815 1.399 . S
C816 C817 1.396 . S
C816 C819 1.453 . S
C816 C820 1.684 . S
C817 C807 1.723 . S
C817 C816 1.396 . S
C817 C818 1.394 . S
C818 C788 1.723 . S
C818 C814 1.397 . S
C818 C817 1.394 . S
C819 H791 0.982 . S
C819 H795 0.979 . S
C819 H796 0.977 . S
C819 C816 1.453 . S
C820 H792 0.979 . S
C820 H793 0.980 . S
C820 H794 0.983 . S
C820 C816 1.684 . S
H821 C839 0.948 . S
H822 C780 0.948 . S
H823 C798 0.979 . S
H824 C798 0.980 . S
H825 C798 0.983 . S
H826 C797 0.982 . S
H827 C797 0.979 . S
H828 C797 0.977 . S
H829 C799 0.948 . S
H830 C801 0.947 . S
H831 C802 0.948 . S
H832 C808 0.982 . S
H833 C808 0.979 . S
H834 C808 0.977 . S
H835 C809 0.979 . S
H836 C809 0.980 . S
H837 C809 0.983 . S
H838 C782 0.947 . S
C839 C782 1.392 . S
C839 C783 1.419 . S
C839 H821 0.948 . S
C840 C841 1.391 . S
C840 C844 1.391 . S
C840 H882 0.948 . S
C841 C840 1.391 . S
C841 C842 1.391 . S
C842 C841 1.391 . S
C842 H898 0.947 . S
C842 C899 1.392 . S
C843 C844 1.391 . S
C843 C847 1.397 . S
C843 C899 1.419 . S
C844 C840 1.391 . S
C844 C843 1.391 . S
C844 C845 1.399 . S
C845 C844 1.399 . S
C845 C848 1.396 . S
C845 C857 1.453 . S
C845 C858 1.684 . S
H846 C870 0.948 . S
C847 C843 1.397 . S
C847 C848 1.394 . S
C847 C866 1.723 . S
C848 C845 1.396 . S
C848 C847 1.394 . S
C848 C878 1.723 . S
H849 C872 0.947 . S
H850 C873 0.948 . S
H851 C879 0.982 . S
H852 C880 0.979 . S
H853 C880 0.980 . S
H854 C880 0.983 . S
H855 C879 0.979 . S
H856 C879 0.977 . S
C857 C845 1.453 . S
C857 H886 0.982 . S
C857 H887 0.979 . S
C857 H888 0.977 . S
C858 C845 1.684 . S
C858 H883 0.979 . S
C858 H884 0.980 . S
C858 H885 0.983 . S
C859 C860 1.391 . S
C859 C864 1.391 . S
C859 H889 0.948 . S
C860 C859 1.391 . S
C860 C861 1.391 . S
C861 C860 1.391 . S
C861 C862 1.392 . S
C861 H890 0.947 . S
C862 C861 1.392 . S
C862 C863 1.419 . S
C862 H891 0.948 . S
C863 C862 1.419 . S
C863 C864 1.391 . S
C863 C867 1.397 . S
C864 C859 1.391 . S
C864 C863 1.391 . S
C864 C865 1.399 . S
C865 C864 1.399 . S
C865 C866 1.396 . S
C865 C868 1.453 . S
C865 C869 1.684 . S
C866 C847 1.723 . S
C866 C865 1.396 . S
C866 C867 1.394 . S
C867 C863 1.397 . S
C867 C866 1.394 . S
C867 C877 1.723 . S
C868 C865 1.453 . S
C868 H892 0.982 . S
C868 H893 0.979 . S
C868 H894 0.977 . S
C869 C865 1.684 . S
C869 H895 0.979 . S
C869 H896 0.980 . S
C869 H897 0.983 . S
C870 H846 0.948 . S
C870 C871 1.391 . S
C870 C875 1.391 . S
C871 C870 1.391 . S
C871 C872 1.391 . S
C872 H849 0.947 . S
C872 C871 1.391 . S
C872 C873 1.392 . S
C873 H850 0.948 . S
C873 C872 1.392 . S
C873 C874 1.419 . S
C874 C873 1.419 . S
C874 C875 1.391 . S
C874 C878 1.397 . S
C875 C870 1.391 . S
C875 C874 1.391 . S
C875 C876 1.399 . S
C876 C875 1.399 . S
C876 C877 1.396 . S
C876 C879 1.453 . S
C876 C880 1.684 . S
C877 C867 1.723 . S
C877 C876 1.396 . S
C877 C878 1.394 . S
C878 C848 1.723 . S
C878 C874 1.397 . S
C878 C877 1.394 . S
C879 H851 0.982 . S
C879 H855 0.979 . S
C879 H856 0.977 . S
C879 C876 1.453 . S
C880 H852 0.979 . S
C880 H853 0.980 . S
C880 H854 0.983 . S
C880 C876 1.684 . S
H881 C899 0.948 . S
H882 C840 0.948 . S
H883 C858 0.979 . S
H884 C858 0.980 . S
H885 C858 0.983 . S
H886 C857 0.982 . S
H887 C857 0.979 . S
H888 C857 0.977 . S
H889 C859 0.948 . S
H890 C861 0.947 . S
H891 C862 0.948 . S
H892 C868 0.982 . S
H893 C868 0.979 . S
H894 C868 0.977 . S
H895 C869 0.979 . S
H896 C869 0.980 . S
H897 C869 0.983 . S
H898 C842 0.947 . S
C899 C842 1.392 . S
C899 C843 1.419 . S
C899 H881 0.948 . S
C900 C901 1.391 . S
C900 C904 1.391 . S
C900 H942 0.948 . S
C901 C900 1.391 . S
C901 C902 1.391 . S
C902 C901 1.391 . S
C902 H958 0.947 . S
C902 C959 1.392 . S
C903 C904 1.391 . S
C903 C907 1.397 . S
C903 C959 1.419 . S
C904 C900 1.391 . S
C904 C903 1.391 . S
C904 C905 1.399 . S
C905 C904 1.399 . S
C905 C908 1.396 . S
C905 C917 1.453 . S
C905 C918 1.684 . S
H906 C930 0.948 . S
C907 C903 1.397 . S
C907 C908 1.394 . S
C907 C926 1.723 . S
C908 C905 1.396 . S
C908 C907 1.394 . S
C908 C938 1.723 . S
H909 C932 0.947 . S
H910 C933 0.948 . S
H911 C939 0.982 . S
H912 C940 0.979 . S
H913 C940 0.980 . S
H914 C940 0.983 . S
H915 C939 0.979 . S
H916 C939 0.977 . S
C917 C905 1.453 . S
C917 H946 0.982 . S
C917 H947 0.979 . S
C917 H948 0.977 . S
C918 C905 1.684 . S
C918 H943 0.979 . S
C918 H944 0.980 . S
C918 H945 0.983 . S
C919 C920 1.391 . S
C919 C924 1.391 . S
C919 H949 0.948 . S
C920 C919 1.391 . S
C920 C921 1.391 . S
C921 C920 1.391 . S
C921 C922 1.392 . S
C921 H950 0.947 . S
C922 C921 1.392 . S
C922 C923 1.419 . S
C922 H951 0.948 . S
C923 C922 1.419 . S
C923 C924 1.391 . S
C923 C927 1.397 . S
C924 C919 1.391 . S
C924 C923 1.391 . S
C924 C925 1.399 . S
C925 C924 1.399 . S
C925 C926 1.396 . S
C925 C928 1.453 . S
C925 C929 1.684 . S
C926 C907 1.723 . S
C926 C925 1.396 . S
C926 C927 1.394 . S
C927 C923 1.397 . S
C927 C926 1.394 . S
C927 C937 1.723 . S
C928 C925 1.453 . S
C928 H952 0.982 . S
C928 H953 0.979 . S
C928 H954 0.977 . S
C929 C925 1.684 . S
C929 H955 0.979 . S
C929 H956 0.980 . S
C929 H957 0.983 . S
C930 H906 0.948 . S
C930 C931 1.391 . S
C930 C935 1.391 . S
C931 C930 1.391 . S
C931 C932 1.391 . S
C932 H909 0.947 . S
C932 C931 1.391 . S
C932 C933 1.392 . S
C933 H910 0.948 . S
C933 C932 1.392 . S
C933 C934 1.419 . S
C934 C933 1.419 . S
C934 C935 1.391 . S
C934 C938 1.397 . S
C935 C930 1.391 . S
C935 C934 1.391 . S
C935 C936 1.399 . S
C936 C935 1.399 . S
C936 C937 1.396 . S
C936 C939 1.453 . S
C936 C940 1.684 . S
C937 C927 1.723 . S
C937 C936 1.396 . S
C937 C938 1.394 . S
C938 C908 1.723 . S
C938 C934 1.397 . S
C938 C937 1.394 . S
C939 H911 0.982 . S
C939 H915 0.979 . S
C939 H916 0.977 . S
C939 C936 1.453 . S
C940 H912 0.979 . S
C940 H913 0.980 . S
C940 H914 0.983 . S
C940 C936 1.684 . S
H941 C959 0.948 . S
H942 C900 0.948 . S
H943 C918 0.979 . S
H944 C918 0.980 . S
H945 C918 0.983 . S
H946 C917 0.982 . S
H947 C917 0.979 . S
H948 C917 0.977 . S
H949 C919 0.948 . S
H950 C921 0.947 . S
H951 C922 0.948 . S
H952 C928 0.982 . S
H953 C928 0.979 . S
H954 C928 0.977 . S
H955 C929 0.979 . S
H956 C929 0.980 . S
H957 C929 0.983 . S
H958 C902 0.947 . S
C959 C902 1.392 . S
C959 C903 1.419 . S
C959 H941 0.948 . S
C960 C961 1.391 . S
C960 C964 1.391 . S
C960 H1002 0.948 . S
C961 C960 1.391 . S
C961 C962 1.391 . S
C962 C961 1.391 . S
C962 H1018 0.947 . S
C962 C1019 1.392 . S
C963 C964 1.391 . S
C963 C967 1.397 . S
C963 C1019 1.419 . S
C964 C960 1.391 . S
C964 C963 1.391 . S
C964 C965 1.399 . S
C965 C964 1.399 . S
C965 C968 1.396 . S
C965 C977 1.453 . S
C965 C978 1.684 . S
H966 C990 0.948 . S
C967 C963 1.397 . S
C967 C968 1.394 . S
C967 C986 1.723 . S
C968 C965 1.396 . S
C968 C967 1.394 . S
C968 C998 1.723 . S
H969 C992 0.947 . S
H970 C993 0.948 . S
H971 C999 0.982 . S
H972 C1000 0.979 1_655 S
H973 C1000 0.980 . S
H974 C1000 0.983 . S
H975 C999 0.979 . S
H976 C999 0.977 . S
C977 C965 1.453 . S
C977 H1006 0.982 . S
C977 H1007 0.979 . S
C977 H1008 0.977 . S
C978 C965 1.684 . S
C978 H1003 0.979 . S
C978 H1004 0.980 . S
C978 H1005 0.983 . S
C979 C980 1.391 1_455 S
C979 C984 1.391 . S
C979 H1009 0.944 . S
C980 C979 1.391 1_655 S
C980 C981 1.391 1_655 S
C981 C980 1.391 1_455 S
C981 C982 1.392 . S
C981 H1010 0.947 . S
C982 C981 1.392 . S
C982 C983 1.419 . S
C982 H1011 0.948 . S
C983 C982 1.419 . S
C983 C984 1.391 . S
C983 C987 1.397 . S
C984 C979 1.391 . S
C984 C983 1.391 . S
C984 C985 1.399 . S
C985 C984 1.399 . S
C985 C986 1.396 . S
C985 C988 1.453 . S
C985 C989 1.684 1_455 S
C986 C967 1.723 . S
C986 C985 1.396 . S
C986 C987 1.394 . S
C987 C983 1.397 . S
C987 C986 1.394 . S
C987 C997 1.723 . S
C988 C985 1.453 . S
C988 H1012 0.982 . S
C988 H1013 0.979 . S
C988 H1014 0.977 . S
C989 C985 1.684 1_655 S
C989 H1015 0.979 . S
C989 H1016 0.980 1_655 S
C989 H1017 0.983 . S
C990 H966 0.948 . S
C990 C991 1.391 . S
C990 C995 1.391 . S
C991 C990 1.391 . S
C991 C992 1.391 . S
C992 H969 0.947 . S
C992 C991 1.391 . S
C992 C993 1.392 . S
C993 H970 0.948 . S
C993 C992 1.392 . S
C993 C994 1.419 . S
C994 C993 1.419 . S
C994 C995 1.391 . S
C994 C998 1.397 . S
C995 C990 1.391 . S
C995 C994 1.391 . S
C995 C996 1.399 . S
C996 C995 1.399 . S
C996 C997 1.396 . S
C996 C999 1.453 . S
C996 C1000 1.684 . S
C997 C987 1.723 . S
C997 C996 1.396 . S
C997 C998 1.394 . S
C998 C968 1.723 . S
C998 C994 1.397 . S
C998 C997 1.394 . S
C999 H971 0.982 . S
C999 H975 0.979 . S
C999 H976 0.977 . S
C999 C996 1.453 . S
C1000 H972 0.979 1_455 S
C1000 H973 0.980 . S
C1000 H974 0.983 . S
C1000 C996 1.684 . S
H1001 C1019 0.948 . S
H1002 C960 0.948 . S
H1003 C978 0.979 . S
H1004 C978 0.980 . S
H1005 C978 0.983 . S
H1006 C977 0.982 . S
H1007 C977 0.979 . S
H1008 C977 0.977 . S
H1009 C979 0.944 . S
H1010 C981 0.947 . S
H1011 C982 0.948 . S
H1012 C988 0.982 . S
H1013 C988 0.979 . S
H1014 C988 0.977 . S
H1015 C989 0.979 . S
H1016 C989 0.980 1_455 S
H1017 C989 0.983 . S
H1018 C962 0.947 . S
C1019 C962 1.392 . S
C1019 C963 1.419 . S
C1019 H1001 0.948 . S
C1020 C1021 1.391 . S
C1020 C1024 1.391 . S
C1020 H1062 0.948 . S
C1021 C1020 1.391 . S
C1021 C1022 1.391 . S
C1022 C1021 1.391 . S
C1022 H1078 0.947 . S
C1022 C1079 1.392 . S
C1023 C1024 1.391 . S
C1023 C1027 1.397 . S
C1023 C1079 1.419 . S
C1024 C1020 1.391 . S
C1024 C1023 1.391 . S
C1024 C1025 1.399 . S
C1025 C1024 1.399 . S
C1025 C1028 1.396 . S
C1025 C1037 1.453 . S
C1025 C1038 1.684 . S
H1026 C1050 0.948 . S
C1027 C1023 1.397 . S
C1027 C1028 1.394 . S
C1027 C1046 1.723 . S
C1028 C1025 1.396 . S
C1028 C1027 1.394 . S
C1028 C1058 1.723 . S
H1029 C1052 0.947 . S
H1030 C1053 0.948 . S
H1031 C1059 0.982 . S
H1032 C1060 0.979 . S
H1033 C1060 0.980 . S
H1034 C1060 0.983 . S
H1035 C1059 0.979 . S
H1036 C1059 0.977 . S
C1037 C1025 1.453 . S
C1037 H1066 0.982 . S
C1037 H1067 0.979 . S
C1037 H1068 0.977 . S
C1038 C1025 1.684 . S
C1038 H1063 0.979 . S
C1038 H1064 0.980 . S
C1038 H1065 0.983 . S
C1039 C1040 1.391 . S
C1039 C1044 1.391 . S
C1039 H1069 0.948 . S
C1040 C1039 1.391 . S
C1040 C1041 1.391 . S
C1041 C1040 1.391 . S
C1041 C1042 1.392 . S
C1041 H1070 0.947 . S
C1042 C1041 1.392 . S
C1042 C1043 1.419 . S
C1042 H1071 0.948 . S
C1043 C1042 1.419 . S
C1043 C1044 1.391 . S
C1043 C1047 1.397 . S
C1044 C1039 1.391 . S
C1044 C1043 1.391 . S
C1044 C1045 1.399 . S
C1045 C1044 1.399 . S
C1045 C1046 1.396 . S
C1045 C1048 1.453 . S
C1045 C1049 1.684 . S
C1046 C1027 1.723 . S
C1046 C1045 1.396 . S
C1046 C1047 1.394 . S
C1047 C1043 1.397 . S
C1047 C1046 1.394 . S
C1047 C1057 1.723 . S
C1048 C1045 1.453 . S
C1048 H1072 0.982 . S
C1048 H1073 0.979 . S
C1048 H1074 0.977 . S
C1049 C1045 1.684 . S
C1049 H1075 0.979 . S
C1049 H1076 0.980 . S
C1049 H1077 0.983 . S
C1050 H1026 0.948 . S
C1050 C1051 1.391 . S
C1050 C1055 1.391 . S
C1051 C1050 1.391 . S
C1051 C1052 1.391 . S
C1052 H1029 0.947 . S
C1052 C1051 1.391 . S
C1052 C1053 1.392 . S
C1053 H1030 0.948 . S
C1053 C1052 1.392 . S
C1053 C1054 1.419 . S
C1054 C1053 1.419 . S
C1054 C1055 1.391 . S
C1054 C1058 1.397 . S
C1055 C1050 1.391 . S
C1055 C1054 1.391 . S
C1055 C1056 1.399 . S
C1056 C1055 1.399 . S
C1056 C1057 1.396 . S
C1056 C1059 1.453 . S
C1056 C1060 1.684 . S
C1057 C1047 1.723 . S
C1057 C1056 1.396 . S
C1057 C1058 1.394 . S
C1058 C1028 1.723 . S
C1058 C1054 1.397 . S
C1058 C1057 1.394 . S
C1059 H1031 0.982 . S
C1059 H1035 0.979 . S
C1059 H1036 0.977 . S
C1059 C1056 1.453 . S
C1060 H1032 0.979 . S
C1060 H1033 0.980 . S
C1060 H1034 0.983 . S
C1060 C1056 1.684 . S
H1061 C1079 0.948 . S
H1062 C1020 0.948 . S
H1063 C1038 0.979 . S
H1064 C1038 0.980 . S
H1065 C1038 0.983 . S
H1066 C1037 0.982 . S
H1067 C1037 0.979 . S
H1068 C1037 0.977 . S
H1069 C1039 0.948 . S
H1070 C1041 0.947 . S
H1071 C1042 0.948 . S
H1072 C1048 0.982 . S
H1073 C1048 0.979 . S
H1074 C1048 0.977 . S
H1075 C1049 0.979 . S
H1076 C1049 0.980 . S
H1077 C1049 0.983 . S
H1078 C1022 0.947 . S
C1079 C1022 1.392 . S
C1079 C1023 1.419 . S
C1079 H1061 0.948 . S
C1080 Eu1081 2.835 . S
C1080 C1082 1.500 . S
C1080 O1100 1.257 1_545 S
C1080 O1101 1.260 . S
Eu1081 C1080 2.835 . S
Eu1081 O1100 2.473 1_545 S
Eu1081 O1101 2.480 . S
Eu1081 O1102 2.430 . S
Eu1081 O1103 2.670 1_554 S
Eu1081 O1104 2.394 1_545 S
Eu1081 O1109 2.355 1_545 S
Eu1081 O1111 2.374 . S
C1082 C1080 1.500 . S
C1082 C1083 1.377 . S
C1082 C1087 1.377 1_545 S
C1083 C1082 1.377 . S
C1083 C1084 1.395 . S
C1083 H1112 0.931 . S
C1084 C1083 1.395 . S
C1084 C1085 1.383 1_545 S
C1084 H1113 0.931 . S
C1085 C1084 1.383 1_565 S
C1085 C1086 1.394 . S
C1086 C1085 1.394 . S
C1086 C1087 1.378 . S
C1086 H1114 0.931 . S
C1087 C1082 1.377 1_565 S
C1087 C1086 1.378 . S
C1087 H1115 0.931 . S
C1088 O1102 1.259 1_556 S
C1088 O1103 1.270 . S
C1089 O1104 1.251 . S
C1089 O1105 1.251 1_554 S
C1090 Eu1091 2.835 . S
C1090 C1092 1.500 . S
C1090 O1106 1.257 1_565 S
C1090 O1107 1.260 . S
Eu1091 C1090 2.835 . S
Eu1091 O1103 2.355 1_565 S
Eu1091 O1105 2.374 . S
Eu1091 O1106 2.473 1_565 S
Eu1091 O1107 2.480 . S
Eu1091 O1108 2.430 . S
Eu1091 O1109 2.670 1_556 S
Eu1091 O1110 2.394 1_565 S
C1092 C1090 1.500 . S
C1092 C1093 1.377 . S
C1092 C1097 1.377 1_565 S
C1093 C1092 1.377 . S
C1093 C1094 1.395 . S
C1093 H1116 0.931 . S
C1094 C1093 1.395 . S
C1094 C1095 1.383 1_565 S
C1094 H1117 0.931 . S
C1095 C1094 1.383 1_545 S
C1095 C1096 1.394 . S
C1096 C1095 1.394 . S
C1096 C1097 1.378 . S
C1096 H1118 0.931 . S
C1097 C1092 1.377 1_545 S
C1097 C1096 1.378 . S
C1097 H1119 0.931 . S
C1098 O1108 1.259 1_554 S
C1098 O1109 1.270 . S
C1099 O1110 1.251 . S
C1099 O1111 1.251 1_556 S
O1100 C1080 1.257 1_565 S
O1100 Eu1081 2.473 1_565 S
O1101 C1080 1.260 . S
O1101 Eu1081 2.480 . S
O1102 Eu1081 2.430 . S
O1102 C1088 1.259 1_554 S
O1103 Eu1081 2.670 1_556 S
O1103 C1088 1.270 . S
O1103 Eu1091 2.355 1_545 S
O1104 Eu1081 2.394 1_565 S
O1104 C1089 1.251 . S
O1105 C1089 1.251 1_556 S
O1105 Eu1091 2.374 . S
O1106 C1090 1.257 1_545 S
O1106 Eu1091 2.473 1_545 S
O1107 C1090 1.260 . S
O1107 Eu1091 2.480 . S
O1108 Eu1091 2.430 . S
O1108 C1098 1.259 1_556 S
O1109 Eu1081 2.355 1_565 S
O1109 Eu1091 2.670 1_554 S
O1109 C1098 1.270 . S
O1110 Eu1091 2.394 1_545 S
O1110 C1099 1.251 . S
O1111 Eu1081 2.374 . S
O1111 C1099 1.251 1_554 S
H1112 C1083 0.931 . S
H1113 C1084 0.931 . S
H1114 C1086 0.931 . S
H1115 C1087 0.931 . S
H1116 C1093 0.931 . S
H1117 C1094 0.931 . S
H1118 C1096 0.931 . S
H1119 C1097 0.931 . S
C1120 Eu1121 2.835 . S
C1120 C1122 1.500 1_655 S
C1120 O1140 1.257 1_655 S
C1120 O1141 1.260 . S
Eu1121 C1120 2.835 . S
Eu1121 O1140 2.473 1_655 S
Eu1121 O1141 2.480 . S
Eu1121 O1142 2.430 . S
Eu1121 O1143 2.670 1_554 S
Eu1121 O1144 2.394 1_655 S
Eu1121 O1149 2.355 1_655 S
Eu1121 O1151 2.397 . S
C1122 C1120 1.500 1_455 S
C1122 C1123 1.377 1_455 S
C1122 C1127 1.377 . S
C1123 C1122 1.377 1_655 S
C1123 C1124 1.395 . S
C1123 H1152 0.931 . S
C1124 C1123 1.395 . S
C1124 C1125 1.383 1_655 S
C1124 H1153 0.931 . S
C1125 C1124 1.383 1_455 S
C1125 C1126 1.394 . S
C1126 C1125 1.394 . S
C1126 C1127 1.378 . S
C1126 H1154 0.931 . S
C1127 C1122 1.377 . S
C1127 C1126 1.378 . S
C1127 H1155 0.931 . S
C1128 O1142 1.259 1_556 S
C1128 O1143 1.270 . S
C1129 O1144 1.251 . S
C1129 O1145 1.300 . S
C1130 Eu1131 2.835 . S
C1130 C1132 1.500 1_455 S
C1130 O1146 1.257 1_455 S
C1130 O1147 1.260 . S
Eu1131 C1130 2.835 . S
Eu1131 O1143 2.355 1_455 S
Eu1131 O1145 2.339 1_556 S
Eu1131 O1146 2.473 1_455 S
Eu1131 O1147 2.480 . S
Eu1131 O1148 2.430 . S
Eu1131 O1149 2.670 1_556 S
Eu1131 O1150 2.394 1_455 S
C1132 C1130 1.500 1_655 S
C1132 C1133 1.377 1_655 S
C1132 C1137 1.377 . S
C1133 C1132 1.377 1_455 S
C1133 C1134 1.395 . S
C1133 H1156 0.931 . S
C1134 C1133 1.395 . S
C1134 C1135 1.383 1_455 S
C1134 H1157 0.931 . S
C1135 C1134 1.383 1_655 S
C1135 C1136 1.394 . S
C1136 C1135 1.394 . S
C1136 C1137 1.378 . S
C1136 H1158 0.931 . S
C1137 C1132 1.377 . S
C1137 C1136 1.378 . S
C1137 H1159 0.931 . S
C1138 O1148 1.259 1_554 S
C1138 O1149 1.270 . S
C1139 O1150 1.251 . S
C1139 O1151 1.219 1_556 S
O1140 C1120 1.257 1_455 S
O1140 Eu1121 2.473 1_455 S
O1141 C1120 1.260 . S
O1141 Eu1121 2.480 . S
O1142 Eu1121 2.430 . S
O1142 C1128 1.259 1_554 S
O1143 Eu1121 2.670 1_556 S
O1143 C1128 1.270 . S
O1143 Eu1131 2.355 1_655 S
O1144 Eu1121 2.394 1_455 S
O1144 C1129 1.251 . S
O1145 C1129 1.300 . S
O1145 Eu1131 2.339 1_554 S
O1146 C1130 1.257 1_655 S
O1146 Eu1131 2.473 1_655 S
O1147 C1130 1.260 . S
O1147 Eu1131 2.480 . S
O1148 Eu1131 2.430 . S
O1148 C1138 1.259 1_556 S
O1149 Eu1121 2.355 1_455 S
O1149 Eu1131 2.670 1_554 S
O1149 C1138 1.270 . S
O1150 Eu1131 2.394 1_655 S
O1150 C1139 1.251 . S
O1151 Eu1121 2.397 . S
O1151 C1139 1.219 1_554 S
H1152 C1123 0.931 . S
H1153 C1124 0.931 . S
H1154 C1126 0.931 . S
H1155 C1127 0.931 . S
H1156 C1133 0.931 . S
H1157 C1134 0.931 . S
H1158 C1136 0.931 . S
H1159 C1137 0.931 . S
C1160 Eu1161 2.835 . S
C1160 C1162 1.500 . S
C1160 O1180 1.257 . S
C1160 O1181 1.260 . S
Eu1161 C1160 2.835 . S
Eu1161 O1180 2.473 . S
Eu1161 O1181 2.480 . S
Eu1161 O1182 2.430 . S
Eu1161 O1183 2.670 1_556 S
Eu1161 O1184 2.394 . S
Eu1161 O1189 2.355 . S
Eu1161 O1191 2.374 . S
C1162 C1160 1.500 . S
C1162 C1163 1.377 . S
C1162 C1167 1.377 . S
C1163 C1162 1.377 . S
C1163 C1164 1.395 . S
C1163 H1192 0.931 . S
C1164 C1163 1.395 . S
C1164 C1165 1.383 . S
C1164 H1193 0.931 . S
C1165 C1164 1.383 . S
C1165 C1166 1.394 . S
C1166 C1165 1.394 . S
C1166 C1167 1.378 . S
C1166 H1194 0.931 . S
C1167 C1162 1.377 . S
C1167 C1166 1.378 . S
C1167 H1195 0.931 . S
C1168 O1182 1.259 1_554 S
C1168 O1183 1.270 . S
C1169 O1184 1.251 . S
C1169 O1185 1.251 1_556 S
C1170 Eu1171 2.835 . S
C1170 C1172 1.500 . S
C1170 O1186 1.257 . S
C1170 O1187 1.260 . S
Eu1171 C1170 2.835 . S
Eu1171 O1183 2.355 . S
Eu1171 O1185 2.374 . S
Eu1171 O1186 2.473 . S
Eu1171 O1187 2.480 . S
Eu1171 O1188 2.430 . S
Eu1171 O1189 2.670 1_554 S
Eu1171 O1190 2.394 . S
C1172 C1170 1.500 . S
C1172 C1173 1.377 . S
C1172 C1177 1.377 . S
C1173 C1172 1.377 . S
C1173 C1174 1.395 . S
C1173 H1196 0.931 . S
C1174 C1173 1.395 . S
C1174 C1175 1.383 . S
C1174 H1197 0.931 . S
C1175 C1174 1.383 . S
C1175 C1176 1.394 . S
C1176 C1175 1.394 . S
C1176 C1177 1.378 . S
C1176 H1198 0.931 . S
C1177 C1172 1.377 . S
C1177 C1176 1.378 . S
C1177 H1199 0.931 . S
C1178 O1188 1.259 1_556 S
C1178 O1189 1.270 . S
C1179 O1190 1.251 . S
C1179 O1191 1.251 1_554 S
O1180 C1160 1.257 . S
O1180 Eu1161 2.473 . S
O1181 C1160 1.260 . S
O1181 Eu1161 2.480 . S
O1182 Eu1161 2.430 . S
O1182 C1168 1.259 1_556 S
O1183 Eu1161 2.670 1_554 S
O1183 C1168 1.270 . S
O1183 Eu1171 2.355 . S
O1184 Eu1161 2.394 . S
O1184 C1169 1.251 . S
O1185 C1169 1.251 1_554 S
O1185 Eu1171 2.374 . S
O1186 C1170 1.257 . S
O1186 Eu1171 2.473 . S
O1187 C1170 1.260 . S
O1187 Eu1171 2.480 . S
O1188 Eu1171 2.430 . S
O1188 C1178 1.259 1_554 S
O1189 Eu1161 2.355 . S
O1189 Eu1171 2.670 1_556 S
O1189 C1178 1.270 . S
O1190 Eu1171 2.394 . S
O1190 C1179 1.251 . S
O1191 Eu1161 2.374 . S
O1191 C1179 1.251 1_556 S
H1192 C1163 0.931 . S
H1193 C1164 0.931 . S
H1194 C1166 0.931 . S
H1195 C1167 0.931 . S
H1196 C1173 0.931 . S
H1197 C1174 0.931 . S
H1198 C1176 0.931 . S
H1199 C1177 0.931 . S
C1200 Eu1201 2.835 . S
C1200 C1202 1.500 . S
C1200 O1220 1.257 . S
C1200 O1221 1.260 . S
Eu1201 C1200 2.835 . S
Eu1201 O1220 2.473 . S
Eu1201 O1221 2.480 . S
Eu1201 O1222 2.430 . S
Eu1201 O1223 2.670 . S
Eu1201 O1224 2.394 . S
Eu1201 O1229 2.355 . S
Eu1201 O1231 2.374 . S
C1202 C1200 1.500 . S
C1202 C1203 1.377 . S
C1202 C1207 1.377 . S
C1203 C1202 1.377 . S
C1203 C1204 1.395 . S
C1203 H1232 0.931 . S
C1204 C1203 1.395 . S
C1204 C1205 1.383 . S
C1204 H1233 0.931 . S
C1205 C1204 1.383 . S
C1205 C1206 1.394 . S
C1206 C1205 1.394 . S
C1206 C1207 1.378 . S
C1206 H1234 0.931 . S
C1207 C1202 1.377 . S
C1207 C1206 1.378 . S
C1207 H1235 0.931 . S
C1208 O1222 1.259 . S
C1208 O1223 1.270 . S
C1209 O1224 1.251 . S
C1209 O1225 1.251 . S
C1210 Eu1211 2.835 . S
C1210 C1212 1.500 . S
C1210 O1226 1.257 . S
C1210 O1227 1.260 . S
Eu1211 C1210 2.835 . S
Eu1211 O1223 2.355 . S
Eu1211 O1225 2.374 . S
Eu1211 O1226 2.473 . S
Eu1211 O1227 2.480 . S
Eu1211 O1228 2.430 . S
Eu1211 O1229 2.670 . S
Eu1211 O1230 2.394 . S
C1212 C1210 1.500 . S
C1212 C1213 1.377 . S
C1212 C1217 1.377 . S
C1213 C1212 1.377 . S
C1213 C1214 1.395 . S
C1213 H1236 0.931 . S
C1214 C1213 1.395 . S
C1214 C1215 1.383 . S
C1214 H1237 0.931 . S
C1215 C1214 1.383 . S
C1215 C1216 1.394 . S
C1216 C1215 1.394 . S
C1216 C1217 1.378 . S
C1216 H1238 0.931 . S
C1217 C1212 1.377 . S
C1217 C1216 1.378 . S
C1217 H1239 0.931 . S
C1218 O1228 1.259 . S
C1218 O1229 1.270 . S
C1219 O1230 1.251 . S
C1219 O1231 1.251 . S
O1220 C1200 1.257 . S
O1220 Eu1201 2.473 . S
O1221 C1200 1.260 . S
O1221 Eu1201 2.480 . S
O1222 Eu1201 2.430 . S
O1222 C1208 1.259 . S
O1223 Eu1201 2.670 . S
O1223 C1208 1.270 . S
O1223 Eu1211 2.355 . S
O1224 Eu1201 2.394 . S
O1224 C1209 1.251 . S
O1225 C1209 1.251 . S
O1225 Eu1211 2.374 . S
O1226 C1210 1.257 . S
O1226 Eu1211 2.473 . S
O1227 C1210 1.260 . S
O1227 Eu1211 2.480 . S
O1228 Eu1211 2.430 . S
O1228 C1218 1.259 . S
O1229 Eu1201 2.355 . S
O1229 Eu1211 2.670 . S
O1229 C1218 1.270 . S
O1230 Eu1211 2.394 . S
O1230 C1219 1.251 . S
O1231 Eu1201 2.374 . S
O1231 C1219 1.251 . S
H1232 C1203 0.931 . S
H1233 C1204 0.931 . S
H1234 C1206 0.931 . S
H1235 C1207 0.931 . S
H1236 C1213 0.931 . S
H1237 C1214 0.931 . S
H1238 C1216 0.931 . S
H1239 C1217 0.931 . S
C1240 Eu1241 2.835 . S
C1240 C1242 1.500 . S
C1240 O1260 1.257 . S
C1240 O1261 1.260 . S
Eu1241 C1240 2.835 . S
Eu1241 O1260 2.473 . S
Eu1241 O1261 2.480 . S
Eu1241 O1262 2.430 . S
Eu1241 O1263 2.670 . S
Eu1241 O1264 2.394 . S
Eu1241 O1269 2.355 . S
Eu1241 O1271 2.374 . S
C1242 C1240 1.500 . S
C1242 C1243 1.377 . S
C1242 C1247 1.377 . S
C1243 C1242 1.377 . S
C1243 C1244 1.395 . S
C1243 H1272 0.931 . S
C1244 C1243 1.395 . S
C1244 C1245 1.383 . S
C1244 H1273 0.931 . S
C1245 C1244 1.383 . S
C1245 C1246 1.394 . S
C1246 C1245 1.394 . S
C1246 C1247 1.378 . S
C1246 H1274 0.931 . S
C1247 C1242 1.377 . S
C1247 C1246 1.378 . S
C1247 H1275 0.931 . S
C1248 O1262 1.259 . S
C1248 O1263 1.270 . S
C1249 O1264 1.251 . S
C1249 O1265 1.251 . S
C1250 Eu1251 2.835 . S
C1250 C1252 1.500 . S
C1250 O1266 1.257 . S
C1250 O1267 1.260 . S
Eu1251 C1250 2.835 . S
Eu1251 O1263 2.355 . S
Eu1251 O1265 2.374 . S
Eu1251 O1266 2.473 . S
Eu1251 O1267 2.480 . S
Eu1251 O1268 2.430 . S
Eu1251 O1269 2.670 . S
Eu1251 O1270 2.394 . S
C1252 C1250 1.500 . S
C1252 C1253 1.377 . S
C1252 C1257 1.377 . S
C1253 C1252 1.377 . S
C1253 C1254 1.395 . S
C1253 H1276 0.931 . S
C1254 C1253 1.395 . S
C1254 C1255 1.383 . S
C1254 H1277 0.931 . S
C1255 C1254 1.383 . S
C1255 C1256 1.394 . S
C1256 C1255 1.394 . S
C1256 C1257 1.378 . S
C1256 H1278 0.931 . S
C1257 C1252 1.377 . S
C1257 C1256 1.378 . S
C1257 H1279 0.931 . S
C1258 O1268 1.259 . S
C1258 O1269 1.270 . S
C1259 O1270 1.251 . S
C1259 O1271 1.251 . S
O1260 C1240 1.257 . S
O1260 Eu1241 2.473 . S
O1261 C1240 1.260 . S
O1261 Eu1241 2.480 . S
O1262 Eu1241 2.430 . S
O1262 C1248 1.259 . S
O1263 Eu1241 2.670 . S
O1263 C1248 1.270 . S
O1263 Eu1251 2.355 . S
O1264 Eu1241 2.394 . S
O1264 C1249 1.251 . S
O1265 C1249 1.251 . S
O1265 Eu1251 2.374 . S
O1266 C1250 1.257 . S
O1266 Eu1251 2.473 . S
O1267 C1250 1.260 . S
O1267 Eu1251 2.480 . S
O1268 Eu1251 2.430 . S
O1268 C1258 1.259 . S
O1269 Eu1241 2.355 . S
O1269 Eu1251 2.670 . S
O1269 C1258 1.270 . S
O1270 Eu1251 2.394 . S
O1270 C1259 1.251 . S
O1271 Eu1241 2.374 . S
O1271 C1259 1.251 . S
H1272 C1243 0.931 . S
H1273 C1244 0.931 . S
H1274 C1246 0.931 . S
H1275 C1247 0.931 . S
H1276 C1253 0.931 . S
H1277 C1254 0.931 . S
H1278 C1256 0.931 . S
H1279 C1257 0.931 . S
C1280 Eu1281 2.835 . S
C1280 C1282 1.500 . S
C1280 O1300 1.257 . S
C1280 O1301 1.260 . S
Eu1281 C1280 2.835 . S
Eu1281 O1300 2.473 . S
Eu1281 O1301 2.480 . S
Eu1281 O1302 2.430 . S
Eu1281 O1303 2.670 . S
Eu1281 O1304 2.394 . S
Eu1281 O1309 2.355 . S
Eu1281 O1311 2.374 . S
C1282 C1280 1.500 . S
C1282 C1283 1.377 . S
C1282 C1287 1.377 . S
C1283 C1282 1.377 . S
C1283 C1284 1.395 . S
C1283 H1312 0.931 . S
C1284 C1283 1.395 . S
C1284 C1285 1.383 . S
C1284 H1313 0.931 . S
C1285 C1284 1.383 . S
C1285 C1286 1.394 . S
C1286 C1285 1.394 . S
C1286 C1287 1.378 . S
C1286 H1314 0.931 . S
C1287 C1282 1.377 . S
C1287 C1286 1.378 . S
C1287 H1315 0.931 . S
C1288 O1302 1.259 . S
C1288 O1303 1.270 . S
C1289 O1304 1.251 . S
C1289 O1305 1.251 . S
C1290 Eu1291 2.835 . S
C1290 C1292 1.500 . S
C1290 O1306 1.257 . S
C1290 O1307 1.260 . S
Eu1291 C1290 2.835 . S
Eu1291 O1303 2.355 . S
Eu1291 O1305 2.374 . S
Eu1291 O1306 2.473 . S
Eu1291 O1307 2.480 . S
Eu1291 O1308 2.430 . S
Eu1291 O1309 2.670 . S
Eu1291 O1310 2.394 . S
C1292 C1290 1.500 . S
C1292 C1293 1.377 . S
C1292 C1297 1.377 . S
C1293 C1292 1.377 . S
C1293 C1294 1.395 . S
C1293 H1316 0.931 . S
C1294 C1293 1.395 . S
C1294 C1295 1.383 . S
C1294 H1317 0.931 . S
C1295 C1294 1.383 . S
C1295 C1296 1.394 . S
C1296 C1295 1.394 . S
C1296 C1297 1.378 . S
C1296 H1318 0.931 . S
C1297 C1292 1.377 . S
C1297 C1296 1.378 . S
C1297 H1319 0.931 . S
C1298 O1308 1.259 . S
C1298 O1309 1.270 . S
C1299 O1310 1.251 . S
C1299 O1311 1.251 . S
O1300 C1280 1.257 . S
O1300 Eu1281 2.473 . S
O1301 C1280 1.260 . S
O1301 Eu1281 2.480 . S
O1302 Eu1281 2.430 . S
O1302 C1288 1.259 . S
O1303 Eu1281 2.670 . S
O1303 C1288 1.270 . S
O1303 Eu1291 2.355 . S
O1304 Eu1281 2.394 . S
O1304 C1289 1.251 . S
O1305 C1289 1.251 . S
O1305 Eu1291 2.374 . S
O1306 C1290 1.257 . S
O1306 Eu1291 2.473 . S
O1307 C1290 1.260 . S
O1307 Eu1291 2.480 . S
O1308 Eu1291 2.430 . S
O1308 C1298 1.259 . S
O1309 Eu1281 2.355 . S
O1309 Eu1291 2.670 . S
O1309 C1298 1.270 . S
O1310 Eu1291 2.394 . S
O1310 C1299 1.251 . S
O1311 Eu1281 2.374 . S
O1311 C1299 1.251 . S
H1312 C1283 0.931 . S
H1313 C1284 0.931 . S
H1314 C1286 0.931 . S
H1315 C1287 0.931 . S
H1316 C1293 0.931 . S
H1317 C1294 0.931 . S
H1318 C1296 0.931 . S
H1319 C1297 0.931 . S
C1320 Eu1321 2.835 . S
C1320 C1322 1.500 . S
C1320 O1340 1.257 . S
C1320 O1341 1.260 . S
Eu1321 C1320 2.835 . S
Eu1321 O1340 2.473 . S
Eu1321 O1341 2.480 . S
Eu1321 O1342 2.430 . S
Eu1321 O1343 2.670 . S
Eu1321 O1344 2.394 . S
Eu1321 O1349 2.355 . S
Eu1321 O1351 2.374 . S
C1322 C1320 1.500 . S
C1322 C1323 1.377 . S
C1322 C1327 1.377 . S
C1323 C1322 1.377 . S
C1323 C1324 1.395 . S
C1323 H1352 0.931 . S
C1324 C1323 1.395 . S
C1324 C1325 1.383 . S
C1324 H1353 0.931 . S
C1325 C1324 1.383 . S
C1325 C1326 1.394 . S
C1326 C1325 1.394 . S
C1326 C1327 1.378 . S
C1326 H1354 0.931 . S
C1327 C1322 1.377 . S
C1327 C1326 1.378 . S
C1327 H1355 0.931 . S
C1328 O1342 1.259 . S
C1328 O1343 1.270 . S
C1329 O1344 1.251 . S
C1329 O1345 1.251 . S
C1330 Eu1331 2.835 . S
C1330 C1332 1.500 . S
C1330 O1346 1.257 . S
C1330 O1347 1.260 . S
Eu1331 C1330 2.835 . S
Eu1331 O1343 2.355 . S
Eu1331 O1345 2.374 . S
Eu1331 O1346 2.473 . S
Eu1331 O1347 2.480 . S
Eu1331 O1348 2.430 . S
Eu1331 O1349 2.670 . S
Eu1331 O1350 2.394 . S
C1332 C1330 1.500 . S
C1332 C1333 1.377 . S
C1332 C1337 1.377 . S
C1333 C1332 1.377 . S
C1333 C1334 1.395 . S
C1333 H1356 0.931 . S
C1334 C1333 1.395 . S
C1334 C1335 1.383 . S
C1334 H1357 0.931 . S
C1335 C1334 1.383 . S
C1335 C1336 1.394 . S
C1336 C1335 1.394 . S
C1336 C1337 1.378 . S
C1336 H1358 0.931 . S
C1337 C1332 1.377 . S
C1337 C1336 1.378 . S
C1337 H1359 0.931 . S
C1338 O1348 1.259 . S
C1338 O1349 1.270 . S
C1339 O1350 1.251 . S
C1339 O1351 1.251 . S
O1340 C1320 1.257 . S
O1340 Eu1321 2.473 . S
O1341 C1320 1.260 . S
O1341 Eu1321 2.480 . S
O1342 Eu1321 2.430 . S
O1342 C1328 1.259 . S
O1343 Eu1321 2.670 . S
O1343 C1328 1.270 . S
O1343 Eu1331 2.355 . S
O1344 Eu1321 2.394 . S
O1344 C1329 1.251 . S
O1345 C1329 1.251 . S
O1345 Eu1331 2.374 . S
O1346 C1330 1.257 . S
O1346 Eu1331 2.473 . S
O1347 C1330 1.260 . S
O1347 Eu1331 2.480 . S
O1348 Eu1331 2.430 . S
O1348 C1338 1.259 . S
O1349 Eu1321 2.355 . S
O1349 Eu1331 2.670 . S
O1349 C1338 1.270 . S
O1350 Eu1331 2.394 . S
O1350 C1339 1.251 . S
O1351 Eu1321 2.374 . S
O1351 C1339 1.251 . S
H1352 C1323 0.931 . S
H1353 C1324 0.931 . S
H1354 C1326 0.931 . S
H1355 C1327 0.931 . S
H1356 C1333 0.931 . S
H1357 C1334 0.931 . S
H1358 C1336 0.931 . S
H1359 C1337 0.931 . S
C1360 Eu1361 2.835 . S
C1360 C1362 1.500 . S
C1360 O1380 1.257 . S
C1360 O1381 1.260 . S
Eu1361 C1360 2.835 . S
Eu1361 O1380 2.473 . S
Eu1361 O1381 2.480 . S
Eu1361 O1382 2.430 . S
Eu1361 O1383 2.670 . S
Eu1361 O1384 2.394 . S
Eu1361 O1389 2.355 . S
Eu1361 O1391 2.374 . S
C1362 C1360 1.500 . S
C1362 C1363 1.377 . S
C1362 C1367 1.377 . S
C1363 C1362 1.377 . S
C1363 C1364 1.395 . S
C1363 H1392 0.931 . S
C1364 C1363 1.395 . S
C1364 C1365 1.383 . S
C1364 H1393 0.931 . S
C1365 C1364 1.383 . S
C1365 C1366 1.394 . S
C1366 C1365 1.394 . S
C1366 C1367 1.378 . S
C1366 H1394 0.931 . S
C1367 C1362 1.377 . S
C1367 C1366 1.378 . S
C1367 H1395 0.931 . S
C1368 O1382 1.259 . S
C1368 O1383 1.270 . S
C1369 O1384 1.251 . S
C1369 O1385 1.251 . S
C1370 Eu1371 2.835 . S
C1370 C1372 1.500 . S
C1370 O1386 1.257 . S
C1370 O1387 1.260 . S
Eu1371 C1370 2.835 . S
Eu1371 O1383 2.355 . S
Eu1371 O1385 2.374 . S
Eu1371 O1386 2.473 . S
Eu1371 O1387 2.480 . S
Eu1371 O1388 2.430 . S
Eu1371 O1389 2.670 . S
Eu1371 O1390 2.394 . S
C1372 C1370 1.500 . S
C1372 C1373 1.377 . S
C1372 C1377 1.377 . S
C1373 C1372 1.377 . S
C1373 C1374 1.395 . S
C1373 H1396 0.931 . S
C1374 C1373 1.395 . S
C1374 C1375 1.383 . S
C1374 H1397 0.931 . S
C1375 C1374 1.383 . S
C1375 C1376 1.394 . S
C1376 C1375 1.394 . S
C1376 C1377 1.378 . S
C1376 H1398 0.931 . S
C1377 C1372 1.377 . S
C1377 C1376 1.378 . S
C1377 H1399 0.931 . S
C1378 O1388 1.259 . S
C1378 O1389 1.270 . S
C1379 O1390 1.251 . S
C1379 O1391 1.251 . S
O1380 C1360 1.257 . S
O1380 Eu1361 2.473 . S
O1381 C1360 1.260 . S
O1381 Eu1361 2.480 . S
O1382 Eu1361 2.430 . S
O1382 C1368 1.259 . S
O1383 Eu1361 2.670 . S
O1383 C1368 1.270 . S
O1383 Eu1371 2.355 . S
O1384 Eu1361 2.394 . S
O1384 C1369 1.251 . S
O1385 C1369 1.251 . S
O1385 Eu1371 2.374 . S
O1386 C1370 1.257 . S
O1386 Eu1371 2.473 . S
O1387 C1370 1.260 . S
O1387 Eu1371 2.480 . S
O1388 Eu1371 2.430 . S
O1388 C1378 1.259 . S
O1389 Eu1361 2.355 . S
O1389 Eu1371 2.670 . S
O1389 C1378 1.270 . S
O1390 Eu1371 2.394 . S
O1390 C1379 1.251 . S
O1391 Eu1361 2.374 . S
O1391 C1379 1.251 . S
H1392 C1363 0.931 . S
H1393 C1364 0.931 . S
H1394 C1366 0.931 . S
H1395 C1367 0.931 . S
H1396 C1373 0.931 . S
H1397 C1374 0.931 . S
H1398 C1376 0.931 . S
H1399 C1377 0.931 . S
C1400 Eu1401 2.835 . S
C1400 C1402 1.500 . S
C1400 O1420 1.257 . S
C1400 O1421 1.260 . S
Eu1401 C1400 2.835 . S
Eu1401 O1420 2.473 . S
Eu1401 O1421 2.480 . S
Eu1401 O1422 2.430 . S
Eu1401 O1423 2.670 . S
Eu1401 O1424 2.394 . S
Eu1401 O1429 2.355 . S
Eu1401 O1431 2.374 . S
C1402 C1400 1.500 . S
C1402 C1403 1.377 . S
C1402 C1407 1.377 . S
C1403 C1402 1.377 . S
C1403 C1404 1.395 . S
C1403 H1432 0.931 . S
C1404 C1403 1.395 . S
C1404 C1405 1.383 . S
C1404 H1433 0.931 . S
C1405 C1404 1.383 . S
C1405 C1406 1.394 . S
C1406 C1405 1.394 . S
C1406 C1407 1.378 . S
C1406 H1434 0.931 . S
C1407 C1402 1.377 . S
C1407 C1406 1.378 . S
C1407 H1435 0.931 . S
C1408 O1422 1.259 . S
C1408 O1423 1.270 . S
C1409 O1424 1.251 . S
C1409 O1425 1.251 . S
C1410 Eu1411 2.835 . S
C1410 C1412 1.500 . S
C1410 O1426 1.257 . S
C1410 O1427 1.260 . S
Eu1411 C1410 2.835 . S
Eu1411 O1423 2.355 . S
Eu1411 O1425 2.374 . S
Eu1411 O1426 2.473 . S
Eu1411 O1427 2.480 . S
Eu1411 O1428 2.430 . S
Eu1411 O1429 2.670 . S
Eu1411 O1430 2.394 . S
C1412 C1410 1.500 . S
C1412 C1413 1.377 . S
C1412 C1417 1.377 . S
C1413 C1412 1.377 . S
C1413 C1414 1.395 . S
C1413 H1436 0.931 . S
C1414 C1413 1.395 . S
C1414 C1415 1.383 . S
C1414 H1437 0.931 . S
C1415 C1414 1.383 . S
C1415 C1416 1.394 . S
C1416 C1415 1.394 . S
C1416 C1417 1.378 . S
C1416 H1438 0.931 . S
C1417 C1412 1.377 . S
C1417 C1416 1.378 . S
C1417 H1439 0.931 . S
C1418 O1428 1.259 . S
C1418 O1429 1.270 . S
C1419 O1430 1.251 . S
C1419 O1431 1.251 . S
O1420 C1400 1.257 . S
O1420 Eu1401 2.473 . S
O1421 C1400 1.260 . S
O1421 Eu1401 2.480 . S
O1422 Eu1401 2.430 . S
O1422 C1408 1.259 . S
O1423 Eu1401 2.670 . S
O1423 C1408 1.270 . S
O1423 Eu1411 2.355 . S
O1424 Eu1401 2.394 . S
O1424 C1409 1.251 . S
O1425 C1409 1.251 . S
O1425 Eu1411 2.374 . S
O1426 C1410 1.257 . S
O1426 Eu1411 2.473 . S
O1427 C1410 1.260 . S
O1427 Eu1411 2.480 . S
O1428 Eu1411 2.430 . S
O1428 C1418 1.259 . S
O1429 Eu1401 2.355 . S
O1429 Eu1411 2.670 . S
O1429 C1418 1.270 . S
O1430 Eu1411 2.394 . S
O1430 C1419 1.251 . S
O1431 Eu1401 2.374 . S
O1431 C1419 1.251 . S
H1432 C1403 0.931 . S
H1433 C1404 0.931 . S
H1434 C1406 0.931 . S
H1435 C1407 0.931 . S
H1436 C1413 0.931 . S
H1437 C1414 0.931 . S
H1438 C1416 0.931 . S
H1439 C1417 0.931 . S
C1440 C1441 1.363 . S
C1440 C1446 1.379 . S
C1440 N1448 1.356 . S
C1441 C1440 1.363 . S
C1441 C1447 1.363 . S
C1442 C1443 1.363 . S
C1442 C1447 1.379 . S
C1442 N1449 1.356 . S
C1443 C1442 1.363 . S
C1443 C1446 1.363 . S
N1444 C1446 1.356 . S
N1444 H1456 0.984 . S
N1444 H1457 0.985 . S
N1445 C1447 1.356 . S
N1445 H1450 0.984 . S
N1445 H1451 0.985 . S
C1446 C1440 1.379 . S
C1446 C1443 1.363 . S
C1446 N1444 1.356 . S
C1447 C1441 1.363 . S
C1447 C1442 1.379 . S
C1447 N1445 1.356 . S
N1448 C1440 1.356 . S
N1448 H1454 0.984 . S
N1448 H1455 0.984 . S
N1449 C1442 1.356 . S
N1449 H1452 0.984 . S
N1449 H1453 0.985 1_565 S
H1450 N1445 0.984 . S
H1451 N1445 0.985 . S
H1452 N1449 0.984 . S
H1453 N1449 0.985 1_545 S
H1454 N1448 0.984 . S
H1455 N1448 0.984 . S
H1456 N1444 0.984 . S
H1457 N1444 0.985 . S
C1458 C1459 1.363 . S
C1458 C1464 1.379 . S
C1458 N1466 1.356 . S
C1459 C1458 1.363 . S
C1459 C1465 1.363 . S
C1460 C1461 1.363 . S
C1460 C1465 1.379 . S
C1460 N1467 1.356 . S
C1461 C1460 1.363 . S
C1461 C1464 1.363 . S
N1462 C1464 1.407 . S
N1462 H1474 0.931 1_554 S
N1462 H1475 0.991 . S
N1463 C1465 1.356 . S
N1463 H1468 0.984 . S
N1463 H1469 0.985 . S
C1464 C1458 1.379 . S
C1464 C1461 1.363 . S
C1464 N1462 1.407 . S
C1465 C1459 1.363 . S
C1465 C1460 1.379 . S
C1465 N1463 1.356 . S
N1466 C1458 1.356 . S
N1466 H1472 0.967 1_554 S
N1466 H1473 0.984 . S
N1467 C1460 1.356 . S
N1467 H1470 0.984 . S
N1467 H1471 0.985 . S
H1468 N1463 0.984 . S
H1469 N1463 0.985 . S
H1470 N1467 0.984 . S
H1471 N1467 0.985 . S
H1472 N1466 0.967 1_556 S
H1473 N1466 0.984 . S
H1474 N1462 0.931 1_556 S
H1475 N1462 0.991 . S
C1476 C1477 1.363 . S
C1476 C1482 1.379 . S
C1476 N1484 1.356 . S
C1477 C1476 1.363 . S
C1477 C1483 1.363 . S
C1478 C1479 1.388 . S
C1478 C1483 1.377 . S
C1478 N1485 1.339 1_554 S
C1479 C1478 1.388 . S
C1479 C1482 1.363 . S
N1480 C1482 1.356 . S
N1480 H1492 0.984 . S
N1480 H1493 0.985 . S
N1481 C1483 1.356 1_556 S
N1481 H1486 0.984 . S
N1481 H1487 0.985 . S
C1482 C1476 1.379 . S
C1482 C1479 1.363 . S
C1482 N1480 1.356 . S
C1483 C1477 1.363 . S
C1483 C1478 1.377 . S
C1483 N1481 1.356 1_554 S
N1484 C1476 1.356 . S
N1484 H1490 0.984 . S
N1484 H1491 0.984 . S
N1485 C1478 1.339 1_556 S
N1485 H1488 0.984 . S
N1485 H1489 0.985 . S
H1486 N1481 0.984 . S
H1487 N1481 0.985 . S
H1488 N1485 0.984 . S
H1489 N1485 0.985 . S
H1490 N1484 0.984 . S
H1491 N1484 0.984 . S
H1492 N1480 0.984 . S
H1493 N1480 0.985 . S
C1494 C1495 1.363 . S
C1494 C1500 1.379 . S
C1494 N1502 1.356 . S
C1495 C1494 1.363 . S
C1495 C1501 1.363 . S
C1496 C1497 1.363 . S
C1496 C1501 1.379 . S
C1496 N1503 1.356 1_556 S
C1497 C1496 1.363 . S
C1497 C1500 1.363 . S
N1498 C1500 1.356 . S
N1498 H1510 0.984 . S
N1498 H1511 0.985 . S
N1499 C1501 1.356 1_554 S
N1499 H1504 0.984 1_554 S
N1499 H1505 0.985 . S
C1500 C1494 1.379 . S
C1500 C1497 1.363 . S
C1500 N1498 1.356 . S
C1501 C1495 1.363 . S
C1501 C1496 1.379 . S
C1501 N1499 1.356 1_556 S
N1502 C1494 1.356 . S
N1502 H1508 0.984 . S
N1502 H1509 0.984 . S
N1503 C1496 1.356 1_554 S
N1503 H1506 0.984 . S
N1503 H1507 0.985 . S
H1504 N1499 0.984 1_556 S
H1505 N1499 0.985 . S
H1506 N1503 0.984 . S
H1507 N1503 0.985 . S
H1508 N1502 0.984 . S
H1509 N1502 0.984 . S
H1510 N1498 0.984 . S
H1511 N1498 0.985 . S
C1512 C1513 1.363 . S
C1512 C1518 1.379 . S
C1512 N1520 1.356 . S
C1513 C1512 1.363 . S
C1513 C1519 1.363 . S
C1514 C1515 1.363 . S
C1514 C1519 1.379 . S
C1514 N1521 1.356 . S
C1515 C1514 1.363 . S
C1515 C1518 1.363 . S
N1516 C1518 1.356 . S
N1516 H1528 0.984 . S
N1516 H1529 0.985 . S
N1517 C1519 1.356 . S
N1517 H1522 0.984 . S
N1517 H1523 0.985 . S
C1518 C1512 1.379 . S
C1518 C1515 1.363 . S
C1518 N1516 1.356 . S
C1519 C1513 1.363 . S
C1519 C1514 1.379 . S
C1519 N1517 1.356 . S
N1520 C1512 1.356 . S
N1520 H1526 0.984 . S
N1520 H1527 0.984 . S
N1521 C1514 1.356 . S
N1521 H1524 0.984 . S
N1521 H1525 0.985 1_556 S
H1522 N1517 0.984 . S
H1523 N1517 0.985 . S
H1524 N1521 0.984 . S
H1525 N1521 0.985 1_554 S
H1526 N1520 0.984 . S
H1527 N1520 0.984 . S
H1528 N1516 0.984 . S
H1529 N1516 0.985 . S
C1530 C1531 1.363 . S
C1530 C1536 1.385 . S
C1530 N1538 1.356 1_556 S
C1531 C1530 1.363 . S
C1531 C1537 1.363 . S
C1532 C1533 1.363 . S
C1532 C1537 1.379 . S
C1532 N1539 1.356 . S
C1533 C1532 1.363 . S
C1533 C1536 1.383 . S
N1534 C1536 1.334 1_554 S
N1534 H1546 0.984 . S
N1534 H1547 0.985 . S
N1535 C1537 1.356 . S
N1535 H1540 0.984 . S
N1535 H1541 0.985 . S
C1536 C1530 1.385 . S
C1536 C1533 1.383 . S
C1536 N1534 1.334 1_556 S
C1537 C1531 1.363 . S
C1537 C1532 1.379 . S
C1537 N1535 1.356 . S
N1538 C1530 1.356 1_554 S
N1538 H1544 0.984 . S
N1538 H1545 0.984 1_554 S
N1539 C1532 1.356 . S
N1539 H1542 0.984 . S
N1539 H1543 0.985 1_545 S
H1540 N1535 0.984 . S
H1541 N1535 0.985 . S
H1542 N1539 0.984 . S
H1543 N1539 0.985 1_565 S
H1544 N1538 0.984 . S
H1545 N1538 0.984 1_556 S
H1546 N1534 0.984 . S
H1547 N1534 0.985 . S
C1548 C1549 1.363 . S
C1548 C1554 1.379 . S
C1548 N1556 1.356 . S
C1549 C1548 1.363 . S
C1549 C1555 1.363 . S
C1550 C1551 1.363 . S
C1550 C1555 1.379 . S
C1550 N1557 1.356 1_556 S
C1551 C1550 1.363 . S
C1551 C1554 1.363 . S
N1552 C1554 1.356 . S
N1552 H1564 0.984 . S
N1552 H1565 0.985 . S
N1553 C1555 1.356 . S
N1553 H1558 0.984 . S
N1553 H1559 0.985 1_556 S
C1554 C1548 1.379 . S
C1554 C1551 1.363 . S
C1554 N1552 1.356 . S
C1555 C1549 1.363 . S
C1555 C1550 1.379 . S
C1555 N1553 1.356 . S
N1556 C1548 1.356 . S
N1556 H1562 0.984 . S
N1556 H1563 0.984 . S
N1557 C1550 1.356 1_554 S
N1557 H1560 0.984 . S
N1557 H1561 0.985 . S
H1558 N1553 0.984 . S
H1559 N1553 0.985 1_554 S
H1560 N1557 0.984 . S
H1561 N1557 0.985 . S
H1562 N1556 0.984 . S
H1563 N1556 0.984 . S
H1564 N1552 0.984 . S
H1565 N1552 0.985 . S
C1566 C1567 1.363 . S
C1566 C1572 1.379 . S
C1566 N1574 1.356 . S
C1567 C1566 1.363 . S
C1567 C1573 1.363 . S
C1568 C1569 1.363 . S
C1568 C1573 1.379 . S
C1568 N1575 1.356 . S
C1569 C1568 1.363 . S
C1569 C1572 1.363 . S
N1570 C1572 1.356 . S
N1570 H1582 0.984 . S
N1570 H1583 0.985 . S
N1571 C1573 1.356 . S
N1571 H1576 0.984 . S
N1571 H1577 0.985 . S
C1572 C1566 1.379 . S
C1572 C1569 1.363 . S
C1572 N1570 1.356 . S
C1573 C1567 1.363 . S
C1573 C1568 1.379 . S
C1573 N1571 1.356 . S
N1574 C1566 1.356 . S
N1574 H1580 0.984 . S
N1574 H1581 0.984 . S
N1575 C1568 1.356 . S
N1575 H1578 0.984 . S
N1575 H1579 0.985 1_556 S
H1576 N1571 0.984 . S
H1577 N1571 0.985 . S
H1578 N1575 0.984 . S
H1579 N1575 0.985 1_554 S
H1580 N1574 0.984 . S
H1581 N1574 0.984 . S
H1582 N1570 0.984 . S
H1583 N1570 0.985 . S
C1584 C1585 1.386 . S
C1584 C1590 1.384 1_556 S
C1584 N1592 1.336 1_556 S
C1585 C1584 1.386 . S
C1585 C1591 1.363 . S
C1586 C1587 1.363 . S
C1586 C1591 1.379 . S
C1586 N1593 1.356 . S
C1587 C1586 1.363 . S
C1587 C1590 1.345 1_556 S
N1588 C1590 1.369 . S
N1588 H1600 0.984 . S
N1588 H1601 0.985 . S
N1589 C1591 1.356 . S
N1589 H1594 0.984 . S
N1589 H1595 0.985 . S
C1590 C1584 1.384 1_554 S
C1590 C1587 1.345 1_554 S
C1590 N1588 1.369 . S
C1591 C1585 1.363 . S
C1591 C1586 1.379 . S
C1591 N1589 1.356 . S
N1592 C1584 1.336 1_554 S
N1592 H1598 0.984 . S
N1592 H1599 0.984 . S
N1593 C1586 1.356 . S
N1593 H1596 0.984 . S
N1593 H1597 0.985 . S
H1594 N1589 0.984 . S
H1595 N1589 0.985 . S
H1596 N1593 0.984 . S
H1597 N1593 0.985 . S
H1598 N1592 0.984 . S
H1599 N1592 0.984 . S
H1600 N1588 0.984 . S
H1601 N1588 0.985 . S
C1602 C1603 1.363 . S
C1602 C1608 1.379 . S
C1602 N1610 1.356 . S
C1603 C1602 1.363 . S
C1603 C1609 1.363 . S
C1604 C1605 1.363 . S
C1604 C1609 1.379 . S
C1604 N1611 1.356 1_554 S
C1605 C1604 1.363 . S
C1605 C1608 1.363 . S
N1606 C1608 1.356 . S
N1606 H1618 0.984 . S
N1606 H1619 0.985 . S
N1607 C1609 1.356 1_556 S
N1607 H1612 0.984 1_556 S
N1607 H1613 0.985 . S
C1608 C1602 1.379 . S
C1608 C1605 1.363 . S
C1608 N1606 1.356 . S
C1609 C1603 1.363 . S
C1609 C1604 1.379 . S
C1609 N1607 1.356 1_554 S
N1610 C1602 1.356 . S
N1610 H1616 0.984 . S
N1610 H1617 0.984 . S
N1611 C1604 1.356 1_556 S
N1611 H1614 0.984 . S
N1611 H1615 0.985 . S
H1612 N1607 0.984 1_554 S
H1613 N1607 0.985 . S
H1614 N1611 0.984 . S
H1615 N1611 0.985 . S
H1616 N1610 0.984 . S
H1617 N1610 0.984 . S
H1618 N1606 0.984 . S
H1619 N1606 0.985 . S
C1620 C1621 1.363 . S
C1620 C1626 1.379 . S
C1620 N1628 1.356 . S
C1621 C1620 1.363 . S
C1621 C1627 1.363 . S
C1622 C1623 1.363 . S
C1622 C1627 1.379 . S
C1622 N1629 1.356 . S
C1623 C1622 1.363 . S
C1623 C1626 1.363 . S
N1624 C1626 1.356 . S
N1624 H1636 0.984 . S
N1624 H1637 0.985 . S
N1625 C1627 1.356 . S
N1625 H1630 0.984 . S
N1625 H1631 0.985 . S
C1626 C1620 1.379 . S
C1626 C1623 1.363 . S
C1626 N1624 1.356 . S
C1627 C1621 1.363 . S
C1627 C1622 1.379 . S
C1627 N1625 1.356 . S
N1628 C1620 1.356 . S
N1628 H1634 0.984 . S
N1628 H1635 0.984 . S
N1629 C1622 1.356 . S
N1629 H1632 0.984 . S
N1629 H1633 0.985 . S
H1630 N1625 0.984 . S
H1631 N1625 0.985 . S
H1632 N1629 0.984 . S
H1633 N1629 0.985 . S
H1634 N1628 0.984 . S
H1635 N1628 0.984 . S
H1636 N1624 0.984 . S
H1637 N1624 0.985 . S
C1638 C1639 1.363 . S
C1638 C1644 1.379 . S
C1638 N1646 1.356 . S
C1639 C1638 1.363 . S
C1639 C1645 1.363 . S
C1640 C1641 1.363 1_556 S
C1640 C1645 1.379 1_556 S
C1640 N1647 1.356 . S
C1641 C1640 1.363 1_554 S
C1641 C1644 1.363 . S
N1642 C1644 1.356 . S
N1642 H1654 0.984 . S
N1642 H1655 0.985 . S
N1643 C1645 1.356 1_556 S
N1643 H1648 0.984 . S
N1643 H1649 0.985 . S
C1644 C1638 1.379 . S
C1644 C1641 1.363 . S
C1644 N1642 1.356 . S
C1645 C1639 1.363 . S
C1645 C1640 1.379 1_554 S
C1645 N1643 1.356 1_554 S
N1646 C1638 1.356 . S
N1646 H1652 0.984 . S
N1646 H1653 0.984 . S
N1647 C1640 1.356 . S
N1647 H1650 0.984 . S
N1647 H1651 0.985 . S
H1648 N1643 0.984 . S
H1649 N1643 0.985 . S
H1650 N1647 0.984 . S
H1651 N1647 0.985 . S
H1652 N1646 0.984 . S
H1653 N1646 0.984 . S
H1654 N1642 0.984 . S
H1655 N1642 0.985 . S
C1656 C1657 1.363 . S
C1656 C1662 1.379 . S
C1656 N1664 1.356 . S
C1657 C1656 1.363 . S
C1657 C1663 1.363 . S
C1658 C1659 1.363 . S
C1658 C1663 1.379 . S
C1658 N1665 1.356 . S
C1659 C1658 1.363 . S
C1659 C1662 1.363 . S
N1660 C1662 1.356 . S
N1660 H1672 0.984 . S
N1660 H1673 0.985 . S
N1661 C1663 1.376 . S
N1661 H1666 0.943 1_455 S
N1661 H1667 1.008 . S
C1662 C1656 1.379 . S
C1662 C1659 1.363 . S
C1662 N1660 1.356 . S
C1663 C1657 1.363 . S
C1663 C1658 1.379 . S
C1663 N1661 1.376 . S
N1664 C1656 1.356 . S
N1664 H1670 0.984 . S
N1664 H1671 0.984 1_455 S
N1665 C1658 1.356 . S
N1665 H1668 0.984 . S
N1665 H1669 0.985 . S
H1666 N1661 0.943 1_655 S
H1667 N1661 1.008 . S
H1668 N1665 0.984 . S
H1669 N1665 0.985 . S
H1670 N1664 0.984 . S
H1671 N1664 0.984 1_655 S
H1672 N1660 0.984 . S
H1673 N1660 0.985 . S
C1674 C1675 1.363 . S
C1674 C1680 1.379 . S
C1674 N1682 1.356 . S
C1675 C1674 1.363 . S
C1675 C1681 1.363 . S
C1676 C1677 1.363 . S
C1676 C1681 1.379 . S
C1676 N1683 1.356 . S
C1677 C1676 1.363 . S
C1677 C1680 1.363 . S
N1678 C1680 1.356 . S
N1678 H1690 0.984 . S
N1678 H1691 0.985 . S
N1679 C1681 1.356 . S
N1679 H1684 0.984 . S
N1679 H1685 0.985 . S
C1680 C1674 1.379 . S
C1680 C1677 1.363 . S
C1680 N1678 1.356 . S
C1681 C1675 1.363 . S
C1681 C1676 1.379 . S
C1681 N1679 1.356 . S
N1682 C1674 1.356 . S
N1682 H1688 0.984 . S
N1682 H1689 0.984 . S
N1683 C1676 1.356 . S
N1683 H1686 0.984 . S
N1683 H1687 0.985 . S
H1684 N1679 0.984 . S
H1685 N1679 0.985 . S
H1686 N1683 0.984 . S
H1687 N1683 0.985 . S
H1688 N1682 0.984 . S
H1689 N1682 0.984 . S
H1690 N1678 0.984 . S
H1691 N1678 0.985 . S
C1692 C1693 1.363 1_565 S
C1692 C1698 1.379 . S
C1692 N1700 1.356 1_565 S
C1693 C1692 1.363 1_545 S
C1693 C1699 1.363 1_545 S
C1694 C1695 1.363 . S
C1694 C1699 1.379 . S
C1694 N1701 1.356 . S
C1695 C1694 1.363 . S
C1695 C1698 1.363 . S
N1696 C1698 1.356 . S
N1696 H1708 0.984 . S
N1696 H1709 0.985 . S
N1697 C1699 1.356 1_545 S
N1697 H1702 0.984 . S
N1697 H1703 0.985 . S
C1698 C1692 1.379 . S
C1698 C1695 1.363 . S
C1698 N1696 1.356 . S
C1699 C1693 1.363 1_565 S
C1699 C1694 1.379 . S
C1699 N1697 1.356 1_565 S
N1700 C1692 1.356 1_545 S
N1700 H1706 0.984 . S
N1700 H1707 0.984 . S
N1701 C1694 1.356 . S
N1701 H1704 0.984 . S
N1701 H1705 0.985 . S
H1702 N1697 0.984 . S
H1703 N1697 0.985 . S
H1704 N1701 0.984 . S
H1705 N1701 0.985 . S
H1706 N1700 0.984 . S
H1707 N1700 0.984 . S
H1708 N1696 0.984 . S
H1709 N1696 0.985 . S
C1710 C1711 1.363 . S
C1710 C1716 1.379 . S
C1710 N1718 1.356 . S
C1711 C1710 1.363 . S
C1711 C1717 1.363 . S
C1712 C1713 1.363 . S
C1712 C1717 1.379 . S
C1712 N1719 1.356 . S
C1713 C1712 1.363 . S
C1713 C1716 1.363 . S
N1714 C1716 1.356 . S
N1714 H1726 0.984 . S
N1714 H1727 0.985 . S
N1715 C1717 1.356 . S
N1715 H1720 0.984 . S
N1715 H1721 0.985 . S
C1716 C1710 1.379 . S
C1716 C1713 1.363 . S
C1716 N1714 1.356 . S
C1717 C1711 1.363 . S
C1717 C1712 1.379 . S
C1717 N1715 1.356 . S
N1718 C1710 1.356 . S
N1718 H1724 0.984 . S
N1718 H1725 0.984 . S
N1719 C1712 1.356 . S
N1719 H1722 0.984 . S
N1719 H1723 0.985 . S
H1720 N1715 0.984 . S
H1721 N1715 0.985 . S
H1722 N1719 0.984 . S
H1723 N1719 0.985 . S
H1724 N1718 0.984 . S
H1725 N1718 0.984 . S
H1726 N1714 0.984 . S
H1727 N1714 0.985 . S
C1728 C1729 1.363 . S
C1728 C1734 1.379 . S
C1728 N1736 1.356 . S
C1729 C1728 1.363 . S
C1729 C1735 1.363 . S
C1730 C1731 1.363 . S
C1730 C1735 1.379 . S
C1730 N1737 1.356 . S
C1731 C1730 1.363 . S
C1731 C1734 1.363 . S
N1732 C1734 1.356 . S
N1732 H1744 0.984 . S
N1732 H1745 0.985 . S
N1733 C1735 1.356 . S
N1733 H1738 0.984 . S
N1733 H1739 0.985 . S
C1734 C1728 1.379 . S
C1734 C1731 1.363 . S
C1734 N1732 1.356 . S
C1735 C1729 1.363 . S
C1735 C1730 1.379 . S
C1735 N1733 1.356 . S
N1736 C1728 1.356 . S
N1736 H1742 0.984 . S
N1736 H1743 0.984 . S
N1737 C1730 1.356 . S
N1737 H1740 0.984 . S
N1737 H1741 0.985 . S
H1738 N1733 0.984 . S
H1739 N1733 0.985 . S
H1740 N1737 0.984 . S
H1741 N1737 0.985 . S
H1742 N1736 0.984 . S
H1743 N1736 0.984 . S
H1744 N1732 0.984 . S
H1745 N1732 0.985 . S
C1746 C1747 1.363 . S
C1746 C1752 1.379 . S
C1746 N1754 1.356 . S
C1747 C1746 1.363 . S
C1747 C1753 1.363 . S
C1748 C1749 1.363 . S
C1748 C1753 1.379 . S
C1748 N1755 1.356 . S
C1749 C1748 1.363 . S
C1749 C1752 1.363 . S
N1750 C1752 1.356 . S
N1750 H1762 0.984 . S
N1750 H1763 0.985 . S
N1751 C1753 1.356 . S
N1751 H1756 0.984 . S
N1751 H1757 0.985 . S
C1752 C1746 1.379 . S
C1752 C1749 1.363 . S
C1752 N1750 1.356 . S
C1753 C1747 1.363 . S
C1753 C1748 1.379 . S
C1753 N1751 1.356 . S
N1754 C1746 1.356 . S
N1754 H1760 0.984 . S
N1754 H1761 0.984 . S
N1755 C1748 1.356 . S
N1755 H1758 0.984 . S
N1755 H1759 0.985 . S
H1756 N1751 0.984 . S
H1757 N1751 0.985 . S
H1758 N1755 0.984 . S
H1759 N1755 0.985 . S
H1760 N1754 0.984 . S
H1761 N1754 0.984 . S
H1762 N1750 0.984 . S
H1763 N1750 0.985 . S
C1764 C1765 1.363 . S
C1764 C1770 1.379 . S
C1764 N1772 1.356 . S
C1765 C1764 1.363 . S
C1765 C1771 1.363 . S
C1766 C1767 1.363 . S
C1766 C1771 1.379 . S
C1766 N1773 1.356 . S
C1767 C1766 1.363 . S
C1767 C1770 1.363 . S
N1768 C1770 1.356 . S
N1768 H1780 0.984 . S
N1768 H1781 0.985 . S
N1769 C1771 1.356 . S
N1769 H1774 0.984 . S
N1769 H1775 0.985 . S
C1770 C1764 1.379 . S
C1770 C1767 1.363 . S
C1770 N1768 1.356 . S
C1771 C1765 1.363 . S
C1771 C1766 1.379 . S
C1771 N1769 1.356 . S
N1772 C1764 1.356 . S
N1772 H1778 0.984 . S
N1772 H1779 0.984 . S
N1773 C1766 1.356 . S
N1773 H1776 0.984 . S
N1773 H1777 0.985 . S
H1774 N1769 0.984 . S
H1775 N1769 0.985 . S
H1776 N1773 0.984 . S
H1777 N1773 0.985 . S
H1778 N1772 0.984 . S
H1779 N1772 0.984 . S
H1780 N1768 0.984 . S
H1781 N1768 0.985 . S
C1782 C1783 1.363 . S
C1782 C1788 1.379 . S
C1782 N1790 1.356 . S
C1783 C1782 1.363 . S
C1783 C1789 1.363 . S
C1784 C1785 1.363 . S
C1784 C1789 1.379 . S
C1784 N1791 1.356 . S
C1785 C1784 1.363 . S
C1785 C1788 1.363 . S
N1786 C1788 1.356 . S
N1786 H1798 0.984 . S
N1786 H1799 0.985 . S
N1787 C1789 1.356 . S
N1787 H1792 0.984 . S
N1787 H1793 0.985 . S
C1788 C1782 1.379 . S
C1788 C1785 1.363 . S
C1788 N1786 1.356 . S
C1789 C1783 1.363 . S
C1789 C1784 1.379 . S
C1789 N1787 1.356 . S
N1790 C1782 1.356 . S
N1790 H1796 0.984 . S
N1790 H1797 0.984 . S
N1791 C1784 1.356 . S
N1791 H1794 0.984 . S
N1791 H1795 0.985 . S
H1792 N1787 0.984 . S
H1793 N1787 0.985 . S
H1794 N1791 0.984 . S
H1795 N1791 0.985 . S
H1796 N1790 0.984 . S
H1797 N1790 0.984 . S
H1798 N1786 0.984 . S
H1799 N1786 0.985 . S
C1800 C1801 1.363 . S
C1800 C1806 1.379 . S
C1800 N1808 1.356 . S
C1801 C1800 1.363 . S
C1801 C1807 1.363 . S
C1802 C1803 1.363 . S
C1802 C1807 1.379 . S
C1802 N1809 1.356 . S
C1803 C1802 1.363 . S
C1803 C1806 1.363 . S
N1804 C1806 1.356 . S
N1804 H1816 0.984 . S
N1804 H1817 0.985 . S
N1805 C1807 1.356 . S
N1805 H1810 0.984 . S
N1805 H1811 0.985 . S
C1806 C1800 1.379 . S
C1806 C1803 1.363 . S
C1806 N1804 1.356 . S
C1807 C1801 1.363 . S
C1807 C1802 1.379 . S
C1807 N1805 1.356 . S
N1808 C1800 1.356 . S
N1808 H1814 0.984 . S
N1808 H1815 0.984 . S
N1809 C1802 1.356 . S
N1809 H1812 0.984 . S
N1809 H1813 0.985 . S
H1810 N1805 0.984 . S
H1811 N1805 0.985 . S
H1812 N1809 0.984 . S
H1813 N1809 0.985 . S
H1814 N1808 0.984 . S
H1815 N1808 0.984 . S
H1816 N1804 0.984 . S
H1817 N1804 0.985 . S
C1818 C1819 1.372 . S
C1818 C1824 1.379 . S
C1818 N1826 1.356 1_565 S
C1819 C1818 1.372 . S
C1819 C1825 1.366 . S
C1820 C1821 1.363 . S
C1820 C1825 1.379 . S
C1820 N1827 1.356 . S
C1821 C1820 1.363 . S
C1821 C1824 1.363 . S
N1822 C1824 1.356 . S
N1822 H1834 0.984 . S
N1822 H1835 0.985 . S
N1823 C1825 1.356 1_545 S
N1823 H1828 0.984 . S
N1823 H1829 0.988 1_545 S
C1824 C1818 1.379 . S
C1824 C1821 1.363 . S
C1824 N1822 1.356 . S
C1825 C1819 1.366 . S
C1825 C1820 1.379 . S
C1825 N1823 1.356 1_565 S
N1826 C1818 1.356 1_545 S
N1826 H1832 0.984 . S
N1826 H1833 0.984 . S
N1827 C1820 1.356 . S
N1827 H1830 0.984 . S
N1827 H1831 0.985 . S
H1828 N1823 0.984 . S
H1829 N1823 0.988 1_565 S
H1830 N1827 0.984 . S
H1831 N1827 0.985 . S
H1832 N1826 0.984 . S
H1833 N1826 0.984 . S
H1834 N1822 0.984 . S
H1835 N1822 0.985 . S
C1836 C1837 1.363 . S
C1836 C1842 1.379 . S
C1836 N1844 1.356 . S
C1837 C1836 1.363 . S
C1837 C1843 1.363 . S
C1838 C1839 1.363 . S
C1838 C1843 1.379 . S
C1838 N1845 1.356 . S
C1839 C1838 1.363 . S
C1839 C1842 1.363 . S
N1840 C1842 1.356 . S
N1840 H1852 0.984 . S
N1840 H1853 0.985 . S
N1841 C1843 1.338 1_655 S
N1841 H1846 0.994 . S
N1841 H1847 0.994 . S
C1842 C1836 1.379 . S
C1842 C1839 1.363 . S
C1842 N1840 1.356 . S
C1843 C1837 1.363 . S
C1843 C1838 1.379 . S
C1843 N1841 1.338 1_455 S
N1844 C1836 1.356 . S
N1844 H1850 0.984 . S
N1844 H1851 0.984 . S
N1845 C1838 1.356 . S
N1845 H1848 0.984 . S
N1845 H1849 0.985 . S
H1846 N1841 0.994 . S
H1847 N1841 0.994 . S
H1848 N1845 0.984 . S
H1849 N1845 0.985 . S
H1850 N1844 0.984 . S
H1851 N1844 0.984 . S
H1852 N1840 0.984 . S
H1853 N1840 0.985 . S
C1854 C1855 1.363 . S
C1854 C1860 1.379 . S
C1854 N1862 1.356 . S
C1855 C1854 1.363 . S
C1855 C1861 1.363 . S
C1856 C1857 1.363 . S
C1856 C1861 1.379 . S
C1856 N1863 1.356 . S
C1857 C1856 1.363 . S
C1857 C1860 1.363 . S
N1858 C1860 1.356 . S
N1858 H1870 0.984 . S
N1858 H1871 0.985 . S
N1859 C1861 1.356 . S
N1859 H1864 0.984 . S
N1859 H1865 0.985 . S
C1860 C1854 1.379 . S
C1860 C1857 1.363 . S
C1860 N1858 1.356 . S
C1861 C1855 1.363 . S
C1861 C1856 1.379 . S
C1861 N1859 1.356 . S
N1862 C1854 1.356 . S
N1862 H1868 0.984 . S
N1862 H1869 0.984 . S
N1863 C1856 1.356 . S
N1863 H1866 0.984 . S
N1863 H1867 0.985 . S
H1864 N1859 0.984 . S
H1865 N1859 0.985 . S
H1866 N1863 0.984 . S
H1867 N1863 0.985 . S
H1868 N1862 0.984 . S
H1869 N1862 0.984 . S
H1870 N1858 0.984 . S
H1871 N1858 0.985 . S
C1872 C1873 1.363 . S
C1872 C1878 1.379 . S
C1872 N1880 1.356 . S
C1873 C1872 1.363 . S
C1873 C1879 1.363 . S
C1874 C1875 1.363 . S
C1874 C1879 1.379 . S
C1874 N1881 1.356 . S
C1875 C1874 1.363 . S
C1875 C1878 1.363 . S
N1876 C1878 1.356 . S
N1876 H1888 0.984 . S
N1876 H1889 0.985 . S
N1877 C1879 1.356 . S
N1877 H1882 0.984 . S
N1877 H1883 0.985 . S
C1878 C1872 1.379 . S
C1878 C1875 1.363 . S
C1878 N1876 1.356 . S
C1879 C1873 1.363 . S
C1879 C1874 1.379 . S
C1879 N1877 1.356 . S
N1880 C1872 1.356 . S
N1880 H1886 0.984 . S
N1880 H1887 0.984 . S
N1881 C1874 1.356 . S
N1881 H1884 0.984 . S
N1881 H1885 0.985 . S
H1882 N1877 0.984 . S
H1883 N1877 0.985 . S
H1884 N1881 0.984 . S
H1885 N1881 0.985 . S
H1886 N1880 0.984 . S
H1887 N1880 0.984 . S
H1888 N1876 0.984 . S
H1889 N1876 0.985 . S
C1890 C1891 1.363 . S
C1890 C1896 1.379 . S
C1890 N1898 1.356 . S
C1891 C1890 1.363 . S
C1891 C1897 1.363 . S
C1892 C1893 1.363 . S
C1892 C1897 1.379 . S
C1892 N1899 1.356 . S
C1893 C1892 1.363 . S
C1893 C1896 1.363 . S
N1894 C1896 1.356 . S
N1894 H1906 0.984 . S
N1894 H1907 0.985 . S
N1895 C1897 1.356 . S
N1895 H1900 0.984 . S
N1895 H1901 0.985 . S
C1896 C1890 1.379 . S
C1896 C1893 1.363 . S
C1896 N1894 1.356 . S
C1897 C1891 1.363 . S
C1897 C1892 1.379 . S
C1897 N1895 1.356 . S
N1898 C1890 1.356 . S
N1898 H1904 0.984 . S
N1898 H1905 0.984 . S
N1899 C1892 1.356 . S
N1899 H1902 0.984 . S
N1899 H1903 0.985 . S
H1900 N1895 0.984 . S
H1901 N1895 0.985 . S
H1902 N1899 0.984 . S
H1903 N1899 0.985 . S
H1904 N1898 0.984 . S
H1905 N1898 0.984 . S
H1906 N1894 0.984 . S
H1907 N1894 0.985 . S
C1908 C1909 1.363 . S
C1908 C1914 1.379 . S
C1908 N1916 1.356 . S
C1909 C1908 1.363 . S
C1909 C1915 1.363 . S
C1910 C1911 1.363 . S
C1910 C1915 1.379 . S
C1910 N1917 1.356 . S
C1911 C1910 1.363 . S
C1911 C1914 1.363 . S
N1912 C1914 1.356 . S
N1912 H1924 0.984 . S
N1912 H1925 0.985 . S
N1913 C1915 1.356 . S
N1913 H1918 0.984 . S
N1913 H1919 0.985 . S
C1914 C1908 1.379 . S
C1914 C1911 1.363 . S
C1914 N1912 1.356 . S
C1915 C1909 1.363 . S
C1915 C1910 1.379 . S
C1915 N1913 1.356 . S
N1916 C1908 1.356 . S
N1916 H1922 0.984 . S
N1916 H1923 0.984 . S
N1917 C1910 1.356 . S
N1917 H1920 0.984 . S
N1917 H1921 0.985 . S
H1918 N1913 0.984 . S
H1919 N1913 0.985 . S
H1920 N1917 0.984 . S
H1921 N1917 0.985 . S
H1922 N1916 0.984 . S
H1923 N1916 0.984 . S
H1924 N1912 0.984 . S
H1925 N1912 0.985 . S
C1926 C1927 1.372 . S
C1926 C1932 1.379 . S
C1926 N1934 1.356 1_545 S
C1927 C1926 1.372 . S
C1927 C1933 1.369 . S
C1928 C1929 1.363 . S
C1928 C1933 1.379 . S
C1928 N1935 1.356 . S
C1929 C1928 1.363 . S
C1929 C1932 1.363 . S
N1930 C1932 1.356 . S
N1930 H1942 0.984 . S
N1930 H1943 0.985 . S
N1931 C1933 1.356 1_565 S
N1931 H1936 0.984 . S
N1931 H1937 0.985 1_565 S
C1932 C1926 1.379 . S
C1932 C1929 1.363 . S
C1932 N1930 1.356 . S
C1933 C1927 1.369 . S
C1933 C1928 1.379 . S
C1933 N1931 1.356 1_545 S
N1934 C1926 1.356 1_565 S
N1934 H1940 0.984 . S
N1934 H1941 0.984 . S
N1935 C1928 1.356 . S
N1935 H1938 0.984 . S
N1935 H1939 0.985 . S
H1936 N1931 0.984 . S
H1937 N1931 0.985 1_545 S
H1938 N1935 0.984 . S
H1939 N1935 0.985 . S
H1940 N1934 0.984 . S
H1941 N1934 0.984 . S
H1942 N1930 0.984 . S
H1943 N1930 0.985 . S
C1944 C1945 1.363 . S
C1944 C1950 1.379 . S
C1944 N1952 1.356 . S
C1945 C1944 1.363 . S
C1945 C1951 1.363 . S
C1946 C1947 1.363 . S
C1946 C1951 1.379 . S
C1946 N1953 1.356 . S
C1947 C1946 1.363 . S
C1947 C1950 1.363 . S
N1948 C1950 1.356 . S
N1948 H1960 0.984 . S
N1948 H1961 0.985 . S
N1949 C1951 1.356 1_455 S
N1949 H1954 0.984 . S
N1949 H1955 0.985 . S
C1950 C1944 1.379 . S
C1950 C1947 1.363 . S
C1950 N1948 1.356 . S
C1951 C1945 1.363 . S
C1951 C1946 1.379 . S
C1951 N1949 1.356 1_655 S
N1952 C1944 1.356 . S
N1952 H1958 0.984 . S
N1952 H1959 0.984 . S
N1953 C1946 1.356 . S
N1953 H1956 0.984 . S
N1953 H1957 0.985 . S
H1954 N1949 0.984 . S
H1955 N1949 0.985 . S
H1956 N1953 0.984 . S
H1957 N1953 0.985 . S
H1958 N1952 0.984 . S
H1959 N1952 0.984 . S
H1960 N1948 0.984 . S
H1961 N1948 0.985 . S
C1962 C1963 1.363 . S
C1962 C1968 1.379 . S
C1962 N1970 1.356 . S
C1963 C1962 1.363 . S
C1963 C1969 1.363 . S
C1964 C1965 1.363 . S
C1964 C1969 1.379 . S
C1964 N1971 1.356 . S
C1965 C1964 1.363 . S
C1965 C1968 1.363 . S
N1966 C1968 1.356 . S
N1966 H1978 0.984 . S
N1966 H1979 0.985 . S
N1967 C1969 1.356 . S
N1967 H1972 0.984 . S
N1967 H1973 0.985 . S
C1968 C1962 1.379 . S
C1968 C1965 1.363 . S
C1968 N1966 1.356 . S
C1969 C1963 1.363 . S
C1969 C1964 1.379 . S
C1969 N1967 1.356 . S
N1970 C1962 1.356 . S
N1970 H1976 0.984 . S
N1970 H1977 0.984 . S
N1971 C1964 1.356 . S
N1971 H1974 0.984 . S
N1971 H1975 0.985 . S
H1972 N1967 0.984 . S
H1973 N1967 0.985 . S
H1974 N1971 0.984 . S
H1975 N1971 0.985 . S
H1976 N1970 0.984 . S
H1977 N1970 0.984 . S
H1978 N1966 0.984 . S
H1979 N1966 0.985 . S
C1980 C1981 1.363 . S
C1980 C1986 1.379 . S
C1980 N1988 1.356 1_655 S
C1981 C1980 1.363 . S
C1981 C1987 1.363 . S
C1982 C1983 1.363 . S
C1982 C1987 1.379 . S
C1982 N1989 1.356 . S
C1983 C1982 1.363 . S
C1983 C1986 1.363 . S
N1984 C1986 1.356 . S
N1984 H1996 0.984 . S
N1984 H1997 0.985 . S
N1985 C1987 1.356 . S
N1985 H1990 0.984 1_655 S
N1985 H1991 0.985 . S
C1986 C1980 1.379 . S
C1986 C1983 1.363 . S
C1986 N1984 1.356 . S
C1987 C1981 1.363 . S
C1987 C1982 1.379 . S
C1987 N1985 1.356 . S
N1988 C1980 1.356 1_455 S
N1988 H1994 0.984 . S
N1988 H1995 0.984 . S
N1989 C1982 1.356 . S
N1989 H1992 0.984 . S
N1989 H1993 0.985 . S
H1990 N1985 0.984 1_455 S
H1991 N1985 0.985 . S
H1992 N1989 0.984 . S
H1993 N1989 0.985 . S
H1994 N1988 0.984 . S
H1995 N1988 0.984 . S
H1996 N1984 0.984 . S
H1997 N1984 0.985 . S
C1998 C1999 1.363 . S
C1998 C2004 1.379 . S
C1998 N2006 1.356 . S
C1999 C1998 1.363 . S
C1999 C2005 1.363 . S
C2000 C2001 1.363 . S
C2000 C2005 1.379 . S
C2000 N2007 1.356 . S
C2001 C2000 1.363 . S
C2001 C2004 1.363 . S
N2002 C2004 1.356 . S
N2002 H2014 0.984 . S
N2002 H2015 0.985 . S
N2003 C2005 1.356 . S
N2003 H2008 0.984 . S
N2003 H2009 0.985 . S
C2004 C1998 1.379 . S
C2004 C2001 1.363 . S
C2004 N2002 1.356 . S
C2005 C1999 1.363 . S
C2005 C2000 1.379 . S
C2005 N2003 1.356 . S
N2006 C1998 1.356 . S
N2006 H2012 0.984 . S
N2006 H2013 0.984 . S
N2007 C2000 1.356 . S
N2007 H2010 0.984 . S
N2007 H2011 0.985 . S
H2008 N2003 0.984 . S
H2009 N2003 0.985 . S
H2010 N2007 0.984 . S
H2011 N2007 0.985 . S
H2012 N2006 0.984 . S
H2013 N2006 0.984 . S
H2014 N2002 0.984 . S
H2015 N2002 0.985 . S
C2016 C2017 1.363 1_545 S
C2016 C2022 1.379 . S
C2016 N2024 1.356 1_545 S
C2017 C2016 1.363 1_565 S
C2017 C2023 1.363 1_565 S
C2018 C2019 1.363 . S
C2018 C2023 1.379 . S
C2018 N2025 1.356 . S
C2019 C2018 1.363 . S
C2019 C2022 1.363 . S
N2020 C2022 1.356 . S
N2020 H2032 0.984 . S
N2020 H2033 0.985 . S
N2021 C2023 1.356 1_565 S
N2021 H2026 0.984 . S
N2021 H2027 0.985 1_565 S
C2022 C2016 1.379 . S
C2022 C2019 1.363 . S
C2022 N2020 1.356 . S
C2023 C2017 1.363 1_545 S
C2023 C2018 1.379 . S
C2023 N2021 1.356 1_545 S
N2024 C2016 1.356 1_565 S
N2024 H2030 0.984 . S
N2024 H2031 0.984 . S
N2025 C2018 1.356 . S
N2025 H2028 0.984 . S
N2025 H2029 0.985 . S
H2026 N2021 0.984 . S
H2027 N2021 0.985 1_545 S
H2028 N2025 0.984 . S
H2029 N2025 0.985 . S
H2030 N2024 0.984 . S
H2031 N2024 0.984 . S
H2032 N2020 0.984 . S
H2033 N2020 0.985 . S
C2034 C2035 1.363 . S
C2034 C2040 1.379 . S
C2034 N2042 1.356 . S
C2035 C2034 1.363 . S
C2035 C2041 1.363 . S
C2036 C2037 1.363 . S
C2036 C2041 1.379 . S
C2036 N2043 1.356 . S
C2037 C2036 1.363 . S
C2037 C2040 1.363 . S
N2038 C2040 1.356 . S
N2038 H2050 0.984 . S
N2038 H2051 0.985 . S
N2039 C2041 1.356 . S
N2039 H2044 0.984 . S
N2039 H2045 0.985 . S
C2040 C2034 1.379 . S
C2040 C2037 1.363 . S
C2040 N2038 1.356 . S
C2041 C2035 1.363 . S
C2041 C2036 1.379 . S
C2041 N2039 1.356 . S
N2042 C2034 1.356 . S
N2042 H2048 0.984 . S
N2042 H2049 0.984 . S
N2043 C2036 1.356 . S
N2043 H2046 0.984 . S
N2043 H2047 0.985 . S
H2044 N2039 0.984 . S
H2045 N2039 0.985 . S
H2046 N2043 0.984 . S
H2047 N2043 0.985 . S
H2048 N2042 0.984 . S
H2049 N2042 0.984 . S
H2050 N2038 0.984 . S
H2051 N2038 0.985 . S
C2052 C2053 1.363 . S
C2052 C2058 1.379 . S
C2052 N2060 1.356 . S
C2053 C2052 1.363 . S
C2053 C2059 1.363 . S
C2054 C2055 1.363 . S
C2054 C2059 1.379 . S
C2054 N2061 1.356 . S
C2055 C2054 1.363 . S
C2055 C2058 1.363 . S
N2056 C2058 1.356 . S
N2056 H2068 0.984 . S
N2056 H2069 0.985 . S
N2057 C2059 1.356 . S
N2057 H2062 0.984 . S
N2057 H2063 0.985 . S
C2058 C2052 1.379 . S
C2058 C2055 1.363 . S
C2058 N2056 1.356 . S
C2059 C2053 1.363 . S
C2059 C2054 1.379 . S
C2059 N2057 1.356 . S
N2060 C2052 1.356 . S
N2060 H2066 0.984 . S
N2060 H2067 0.984 . S
N2061 C2054 1.356 . S
N2061 H2064 0.984 . S
N2061 H2065 0.985 . S
H2062 N2057 0.984 . S
H2063 N2057 0.985 . S
H2064 N2061 0.984 . S
H2065 N2061 0.985 . S
H2066 N2060 0.984 . S
H2067 N2060 0.984 . S
H2068 N2056 0.984 . S
H2069 N2056 0.985 . S
C2070 C2071 1.363 . S
C2070 C2076 1.379 . S
C2070 N2078 1.356 . S
C2071 C2070 1.363 . S
C2071 C2077 1.363 . S
C2072 C2073 1.363 . S
C2072 C2077 1.379 . S
C2072 N2079 1.356 . S
C2073 C2072 1.363 . S
C2073 C2076 1.363 . S
N2074 C2076 1.356 . S
N2074 H2086 0.984 . S
N2074 H2087 0.985 . S
N2075 C2077 1.356 . S
N2075 H2080 0.984 . S
N2075 H2081 0.985 . S
C2076 C2070 1.379 . S
C2076 C2073 1.363 . S
C2076 N2074 1.356 . S
C2077 C2071 1.363 . S
C2077 C2072 1.379 . S
C2077 N2075 1.356 . S
N2078 C2070 1.356 . S
N2078 H2084 0.984 . S
N2078 H2085 0.984 . S
N2079 C2072 1.356 . S
N2079 H2082 0.984 . S
N2079 H2083 0.985 . S
H2080 N2075 0.984 . S
H2081 N2075 0.985 . S
H2082 N2079 0.984 . S
H2083 N2079 0.985 . S
H2084 N2078 0.984 . S
H2085 N2078 0.984 . S
H2086 N2074 0.984 . S
H2087 N2074 0.985 . S
C2088 C2089 1.363 . S
C2088 C2094 1.379 . S
C2088 N2096 1.356 . S
C2089 C2088 1.363 . S
C2089 C2095 1.363 1_565 S
C2090 C2091 1.363 1_545 S
C2090 C2095 1.379 . S
C2090 N2097 1.356 . S
C2091 C2090 1.363 1_565 S
C2091 C2094 1.363 . S
N2092 C2094 1.356 . S
N2092 H2104 0.984 . S
N2092 H2105 0.985 . S
N2093 C2095 1.356 . S
N2093 H2098 0.984 . S
N2093 H2099 0.985 . S
C2094 C2088 1.379 . S
C2094 C2091 1.363 . S
C2094 N2092 1.356 . S
C2095 C2089 1.363 1_545 S
C2095 C2090 1.379 . S
C2095 N2093 1.356 . S
N2096 C2088 1.356 . S
N2096 H2102 0.984 . S
N2096 H2103 0.984 . S
N2097 C2090 1.356 . S
N2097 H2100 0.984 . S
N2097 H2101 0.985 . S
H2098 N2093 0.984 . S
H2099 N2093 0.985 . S
H2100 N2097 0.984 . S
H2101 N2097 0.985 . S
H2102 N2096 0.984 . S
H2103 N2096 0.984 . S
H2104 N2092 0.984 . S
H2105 N2092 0.985 . S
C2106 C2107 1.363 . S
C2106 C2112 1.379 . S
C2106 N2114 1.356 . S
C2107 C2106 1.363 . S
C2107 C2113 1.363 . S
C2108 C2109 1.363 . S
C2108 C2113 1.379 . S
C2108 N2115 1.356 . S
C2109 C2108 1.363 . S
C2109 C2112 1.363 . S
N2110 C2112 1.356 . S
N2110 H2122 0.984 . S
N2110 H2123 0.985 . S
N2111 C2113 1.356 1_655 S
N2111 H2116 0.984 . S
N2111 H2117 0.985 . S
C2112 C2106 1.379 . S
C2112 C2109 1.363 . S
C2112 N2110 1.356 . S
C2113 C2107 1.363 . S
C2113 C2108 1.379 . S
C2113 N2111 1.356 1_455 S
N2114 C2106 1.356 . S
N2114 H2120 0.984 . S
N2114 H2121 0.984 . S
N2115 C2108 1.356 . S
N2115 H2118 0.984 . S
N2115 H2119 0.985 . S
H2116 N2111 0.984 . S
H2117 N2111 0.985 . S
H2118 N2115 0.984 . S
H2119 N2115 0.985 . S
H2120 N2114 0.984 . S
H2121 N2114 0.984 . S
H2122 N2110 0.984 . S
H2123 N2110 0.985 . S
C2124 C2125 1.363 . S
C2124 C2130 1.379 . S
C2124 N2132 1.356 . S
C2125 C2124 1.363 . S
C2125 C2131 1.363 . S
C2126 C2127 1.363 . S
C2126 C2131 1.379 . S
C2126 N2133 1.356 . S
C2127 C2126 1.363 . S
C2127 C2130 1.363 . S
N2128 C2130 1.356 . S
N2128 H2140 0.984 . S
N2128 H2141 0.985 . S
N2129 C2131 1.356 . S
N2129 H2134 0.984 . S
N2129 H2135 0.985 . S
C2130 C2124 1.379 . S
C2130 C2127 1.363 . S
C2130 N2128 1.356 . S
C2131 C2125 1.363 . S
C2131 C2126 1.379 . S
C2131 N2129 1.356 . S
N2132 C2124 1.356 . S
N2132 H2138 0.984 . S
N2132 H2139 0.984 . S
N2133 C2126 1.356 . S
N2133 H2136 0.984 . S
N2133 H2137 0.985 . S
H2134 N2129 0.984 . S
H2135 N2129 0.985 . S
H2136 N2133 0.984 . S
H2137 N2133 0.985 . S
H2138 N2132 0.984 . S
H2139 N2132 0.984 . S
H2140 N2128 0.984 . S
H2141 N2128 0.985 . S
C2142 C2143 1.363 1_455 S
C2142 C2148 1.379 . S
C2142 N2150 1.356 . S
C2143 C2142 1.363 1_655 S
C2143 C2149 1.363 . S
C2144 C2145 1.363 . S
C2144 C2149 1.379 . S
C2144 N2151 1.356 . S
C2145 C2144 1.363 . S
C2145 C2148 1.363 1_655 S
N2146 C2148 1.356 . S
N2146 H2158 0.984 . S
N2146 H2159 0.985 . S
N2147 C2149 1.356 . S
N2147 H2152 0.984 . S
N2147 H2153 0.985 . S
C2148 C2142 1.379 . S
C2148 C2145 1.363 1_455 S
C2148 N2146 1.356 . S
C2149 C2143 1.363 . S
C2149 C2144 1.379 . S
C2149 N2147 1.356 . S
N2150 C2142 1.356 . S
N2150 H2156 0.984 . S
N2150 H2157 0.984 . S
N2151 C2144 1.356 . S
N2151 H2154 0.984 . S
N2151 H2155 0.985 . S
H2152 N2147 0.984 . S
H2153 N2147 0.985 . S
H2154 N2151 0.984 . S
H2155 N2151 0.985 . S
H2156 N2150 0.984 . S
H2157 N2150 0.984 . S
H2158 N2146 0.984 . S
H2159 N2146 0.985 . S
C2160 C2161 1.363 . S
C2160 C2166 1.379 . S
C2160 N2168 1.356 . S
C2161 C2160 1.363 . S
C2161 C2167 1.363 . S
C2162 C2163 1.363 . S
C2162 C2167 1.379 . S
C2162 N2169 1.356 . S
C2163 C2162 1.363 . S
C2163 C2166 1.363 . S
N2164 C2166 1.356 . S
N2164 H2176 0.984 . S
N2164 H2177 0.985 . S
N2165 C2167 1.356 . S
N2165 H2170 0.984 . S
N2165 H2171 0.985 . S
C2166 C2160 1.379 . S
C2166 C2163 1.363 . S
C2166 N2164 1.356 . S
C2167 C2161 1.363 . S
C2167 C2162 1.379 . S
C2167 N2165 1.356 . S
N2168 C2160 1.356 . S
N2168 H2174 0.984 . S
N2168 H2175 0.984 . S
N2169 C2162 1.356 . S
N2169 H2172 0.984 . S
N2169 H2173 0.985 . S
H2170 N2165 0.984 . S
H2171 N2165 0.985 . S
H2172 N2169 0.984 . S
H2173 N2169 0.985 . S
H2174 N2168 0.984 . S
H2175 N2168 0.984 . S
H2176 N2164 0.984 . S
H2177 N2164 0.985 . S
C2178 C2179 1.363 1_565 S
C2178 C2184 1.379 . S
C2178 N2186 1.356 . S
C2179 C2178 1.363 1_545 S
C2179 C2185 1.363 . S
C2180 C2181 1.363 . S
C2180 C2185 1.379 . S
C2180 N2187 1.356 . S
C2181 C2180 1.363 . S
C2181 C2184 1.363 1_545 S
N2182 C2184 1.356 . S
N2182 H2194 0.984 . S
N2182 H2195 0.985 . S
N2183 C2185 1.356 . S
N2183 H2188 0.984 . S
N2183 H2189 0.985 . S
C2184 C2178 1.379 . S
C2184 C2181 1.363 1_565 S
C2184 N2182 1.356 . S
C2185 C2179 1.363 . S
C2185 C2180 1.379 . S
C2185 N2183 1.356 . S
N2186 C2178 1.356 . S
N2186 H2192 0.984 . S
N2186 H2193 0.984 . S
N2187 C2180 1.356 . S
N2187 H2190 0.984 . S
N2187 H2191 0.985 . S
H2188 N2183 0.984 . S
H2189 N2183 0.985 . S
H2190 N2187 0.984 . S
H2191 N2187 0.985 . S
H2192 N2186 0.984 . S
H2193 N2186 0.984 . S
H2194 N2182 0.984 . S
H2195 N2182 0.985 . S
C2196 C2197 1.363 . S
C2196 C2202 1.379 . S
C2196 N2204 1.356 . S
C2197 C2196 1.363 . S
C2197 C2203 1.363 . S
C2198 C2199 1.363 . S
C2198 C2203 1.379 . S
C2198 N2205 1.356 . S
C2199 C2198 1.363 . S
C2199 C2202 1.363 . S
N2200 C2202 1.356 . S
N2200 H2212 0.984 . S
N2200 H2213 0.985 . S
N2201 C2203 1.356 . S
N2201 H2206 0.984 . S
N2201 H2207 0.985 . S
C2202 C2196 1.379 . S
C2202 C2199 1.363 . S
C2202 N2200 1.356 . S
C2203 C2197 1.363 . S
C2203 C2198 1.379 . S
C2203 N2201 1.356 . S
N2204 C2196 1.356 . S
N2204 H2210 0.984 . S
N2204 H2211 0.984 . S
N2205 C2198 1.356 . S
N2205 H2208 0.984 . S
N2205 H2209 0.985 . S
H2206 N2201 0.984 . S
H2207 N2201 0.985 . S
H2208 N2205 0.984 . S
H2209 N2205 0.985 . S
H2210 N2204 0.984 . S
H2211 N2204 0.984 . S
H2212 N2200 0.984 . S
H2213 N2200 0.985 . S
C2214 C2215 1.363 . S
C2214 C2220 1.379 . S
C2214 N2222 1.356 . S
C2215 C2214 1.363 . S
C2215 C2221 1.363 . S
C2216 C2217 1.363 . S
C2216 C2221 1.379 . S
C2216 N2223 1.356 . S
C2217 C2216 1.363 . S
C2217 C2220 1.363 . S
N2218 C2220 1.356 . S
N2218 H2230 0.984 . S
N2218 H2231 0.985 . S
N2219 C2221 1.356 . S
N2219 H2224 0.984 . S
N2219 H2225 0.985 . S
C2220 C2214 1.379 . S
C2220 C2217 1.363 . S
C2220 N2218 1.356 . S
C2221 C2215 1.363 . S
C2221 C2216 1.379 . S
C2221 N2219 1.356 . S
N2222 C2214 1.356 . S
N2222 H2228 0.984 . S
N2222 H2229 0.984 . S
N2223 C2216 1.356 . S
N2223 H2226 0.984 . S
N2223 H2227 0.985 . S
H2224 N2219 0.984 . S
H2225 N2219 0.985 . S
H2226 N2223 0.984 . S
H2227 N2223 0.985 . S
H2228 N2222 0.984 . S
H2229 N2222 0.984 . S
H2230 N2218 0.984 . S
H2231 N2218 0.985 . S
C2232 C2233 1.363 . S
C2232 C2238 1.379 . S
C2232 N2240 1.356 . S
C2233 C2232 1.363 . S
C2233 C2239 1.363 . S
C2234 C2235 1.363 . S
C2234 C2239 1.379 . S
C2234 N2241 1.356 . S
C2235 C2234 1.363 . S
C2235 C2238 1.363 . S
N2236 C2238 1.356 . S
N2236 H2248 0.984 . S
N2236 H2249 0.985 . S
N2237 C2239 1.356 . S
N2237 H2242 0.984 . S
N2237 H2243 0.985 . S
C2238 C2232 1.379 . S
C2238 C2235 1.363 . S
C2238 N2236 1.356 . S
C2239 C2233 1.363 . S
C2239 C2234 1.379 . S
C2239 N2237 1.356 . S
N2240 C2232 1.356 . S
N2240 H2246 0.984 . S
N2240 H2247 0.984 . S
N2241 C2234 1.356 . S
N2241 H2244 0.984 . S
N2241 H2245 0.985 . S
H2242 N2237 0.984 . S
H2243 N2237 0.985 . S
H2244 N2241 0.984 . S
H2245 N2241 0.985 . S
H2246 N2240 0.984 . S
H2247 N2240 0.984 . S
H2248 N2236 0.984 . S
H2249 N2236 0.985 . S
C2250 C2251 1.363 . S
C2250 C2256 1.379 . S
C2250 N2258 1.356 . S
C2251 C2250 1.363 . S
C2251 C2257 1.363 . S
C2252 C2253 1.363 . S
C2252 C2257 1.379 . S
C2252 N2259 1.356 . S
C2253 C2252 1.363 . S
C2253 C2256 1.363 . S
N2254 C2256 1.356 . S
N2254 H2266 0.984 . S
N2254 H2267 0.985 . S
N2255 C2257 1.356 . S
N2255 H2260 0.984 . S
N2255 H2261 0.985 . S
C2256 C2250 1.379 . S
C2256 C2253 1.363 . S
C2256 N2254 1.356 . S
C2257 C2251 1.363 . S
C2257 C2252 1.379 . S
C2257 N2255 1.356 . S
N2258 C2250 1.356 . S
N2258 H2264 0.984 . S
N2258 H2265 0.984 . S
N2259 C2252 1.356 . S
N2259 H2262 0.984 . S
N2259 H2263 0.985 . S
H2260 N2255 0.984 . S
H2261 N2255 0.985 . S
H2262 N2259 0.984 . S
H2263 N2259 0.985 . S
H2264 N2258 0.984 . S
H2265 N2258 0.984 . S
H2266 N2254 0.984 . S
H2267 N2254 0.985 . S
C2268 C2269 1.363 . S
C2268 C2274 1.379 . S
C2268 N2276 1.356 . S
C2269 C2268 1.363 . S
C2269 C2275 1.363 . S
C2270 C2271 1.363 . S
C2270 C2275 1.379 . S
C2270 N2277 1.356 . S
C2271 C2270 1.363 . S
C2271 C2274 1.363 . S
N2272 C2274 1.356 . S
N2272 H2284 0.984 . S
N2272 H2285 0.985 . S
N2273 C2275 1.356 . S
N2273 H2278 0.984 . S
N2273 H2279 0.985 . S
C2274 C2268 1.379 . S
C2274 C2271 1.363 . S
C2274 N2272 1.356 . S
C2275 C2269 1.363 . S
C2275 C2270 1.379 . S
C2275 N2273 1.356 . S
N2276 C2268 1.356 . S
N2276 H2282 0.984 . S
N2276 H2283 0.984 . S
N2277 C2270 1.356 . S
N2277 H2280 0.984 . S
N2277 H2281 0.985 . S
H2278 N2273 0.984 . S
H2279 N2273 0.985 . S
H2280 N2277 0.984 . S
H2281 N2277 0.985 . S
H2282 N2276 0.984 . S
H2283 N2276 0.984 . S
H2284 N2272 0.984 . S
H2285 N2272 0.985 . S
C2286 C2287 1.363 . S
C2286 C2292 1.379 . S
C2286 N2294 1.356 . S
C2287 C2286 1.363 . S
C2287 C2293 1.363 . S
C2288 C2289 1.363 . S
C2288 C2293 1.379 . S
C2288 N2295 1.356 . S
C2289 C2288 1.363 . S
C2289 C2292 1.363 . S
N2290 C2292 1.356 . S
N2290 H2302 0.984 . S
N2290 H2303 0.985 . S
N2291 C2293 1.356 . S
N2291 H2296 0.984 . S
N2291 H2297 0.985 . S
C2292 C2286 1.379 . S
C2292 C2289 1.363 . S
C2292 N2290 1.356 . S
C2293 C2287 1.363 . S
C2293 C2288 1.379 . S
C2293 N2291 1.356 . S
N2294 C2286 1.356 . S
N2294 H2300 0.984 . S
N2294 H2301 0.984 . S
N2295 C2288 1.356 . S
N2295 H2298 0.984 . S
N2295 H2299 0.985 . S
H2296 N2291 0.984 . S
H2297 N2291 0.985 . S
H2298 N2295 0.984 . S
H2299 N2295 0.985 . S
H2300 N2294 0.984 . S
H2301 N2294 0.984 . S
H2302 N2290 0.984 . S
H2303 N2290 0.985 . S
C2304 C2305 1.363 . S
C2304 C2310 1.379 . S
C2304 N2312 1.356 . S
C2305 C2304 1.363 . S
C2305 C2311 1.363 . S
C2306 C2307 1.363 . S
C2306 C2311 1.379 . S
C2306 N2313 1.356 . S
C2307 C2306 1.363 . S
C2307 C2310 1.363 . S
N2308 C2310 1.356 . S
N2308 H2320 0.984 . S
N2308 H2321 0.985 . S
N2309 C2311 1.356 . S
N2309 H2314 0.984 . S
N2309 H2315 0.985 . S
C2310 C2304 1.379 . S
C2310 C2307 1.363 . S
C2310 N2308 1.356 . S
C2311 C2305 1.363 . S
C2311 C2306 1.379 . S
C2311 N2309 1.356 . S
N2312 C2304 1.356 . S
N2312 H2318 0.984 . S
N2312 H2319 0.984 . S
N2313 C2306 1.356 . S
N2313 H2316 0.984 . S
N2313 H2317 0.985 . S
H2314 N2309 0.984 . S
H2315 N2309 0.985 . S
H2316 N2313 0.984 . S
H2317 N2313 0.985 . S
H2318 N2312 0.984 . S
H2319 N2312 0.984 . S
H2320 N2308 0.984 . S
H2321 N2308 0.985 . S
C2322 C2323 1.363 . S
C2322 C2328 1.379 . S
C2322 N2330 1.356 . S
C2323 C2322 1.363 . S
C2323 C2329 1.363 . S
C2324 C2325 1.363 . S
C2324 C2329 1.379 . S
C2324 N2331 1.356 . S
C2325 C2324 1.363 . S
C2325 C2328 1.363 . S
N2326 C2328 1.356 . S
N2326 H2338 0.984 . S
N2326 H2339 0.985 . S
N2327 C2329 1.356 . S
N2327 H2332 0.984 . S
N2327 H2333 0.985 . S
C2328 C2322 1.379 . S
C2328 C2325 1.363 . S
C2328 N2326 1.356 . S
C2329 C2323 1.363 . S
C2329 C2324 1.379 . S
C2329 N2327 1.356 . S
N2330 C2322 1.356 . S
N2330 H2336 0.984 . S
N2330 H2337 0.984 . S
N2331 C2324 1.356 . S
N2331 H2334 0.984 . S
N2331 H2335 0.985 . S
H2332 N2327 0.984 . S
H2333 N2327 0.985 . S
H2334 N2331 0.984 . S
H2335 N2331 0.985 . S
H2336 N2330 0.984 . S
H2337 N2330 0.984 . S
H2338 N2326 0.984 . S
H2339 N2326 0.985 . S
C2340 C2341 1.363 . S
C2340 C2346 1.379 . S
C2340 N2348 1.356 . S
C2341 C2340 1.363 . S
C2341 C2347 1.363 . S
C2342 C2343 1.363 . S
C2342 C2347 1.379 . S
C2342 N2349 1.356 . S
C2343 C2342 1.363 . S
C2343 C2346 1.363 . S
N2344 C2346 1.356 . S
N2344 H2356 0.984 . S
N2344 H2357 0.985 . S
N2345 C2347 1.356 . S
N2345 H2350 0.984 . S
N2345 H2351 0.985 . S
C2346 C2340 1.379 . S
C2346 C2343 1.363 . S
C2346 N2344 1.356 . S
C2347 C2341 1.363 . S
C2347 C2342 1.379 . S
C2347 N2345 1.356 . S
N2348 C2340 1.356 . S
N2348 H2354 0.984 . S
N2348 H2355 0.984 . S
N2349 C2342 1.356 . S
N2349 H2352 0.984 . S
N2349 H2353 0.985 . S
H2350 N2345 0.984 . S
H2351 N2345 0.985 . S
H2352 N2349 0.984 . S
H2353 N2349 0.985 . S
H2354 N2348 0.984 . S
H2355 N2348 0.984 . S
H2356 N2344 0.984 . S
H2357 N2344 0.985 . S
C2358 C2359 1.363 . S
C2358 C2364 1.379 . S
C2358 N2366 1.356 . S
C2359 C2358 1.363 . S
C2359 C2365 1.363 . S
C2360 C2361 1.363 . S
C2360 C2365 1.379 . S
C2360 N2367 1.356 . S
C2361 C2360 1.363 . S
C2361 C2364 1.363 . S
N2362 C2364 1.356 . S
N2362 H2374 0.984 . S
N2362 H2375 0.985 . S
N2363 C2365 1.356 . S
N2363 H2368 0.984 . S
N2363 H2369 0.985 . S
C2364 C2358 1.379 . S
C2364 C2361 1.363 . S
C2364 N2362 1.356 . S
C2365 C2359 1.363 . S
C2365 C2360 1.379 . S
C2365 N2363 1.356 . S
N2366 C2358 1.356 . S
N2366 H2372 0.984 . S
N2366 H2373 0.984 . S
N2367 C2360 1.356 . S
N2367 H2370 0.984 . S
N2367 H2371 0.985 . S
H2368 N2363 0.984 . S
H2369 N2363 0.985 . S
H2370 N2367 0.984 . S
H2371 N2367 0.985 . S
H2372 N2366 0.984 . S
H2373 N2366 0.984 . S
H2374 N2362 0.984 . S
H2375 N2362 0.985 . S
C2376 C2377 1.363 . S
C2376 C2382 1.379 . S
C2376 N2384 1.356 . S
C2377 C2376 1.363 . S
C2377 C2383 1.363 . S
C2378 C2379 1.363 . S
C2378 C2383 1.379 . S
C2378 N2385 1.356 . S
C2379 C2378 1.363 . S
C2379 C2382 1.363 . S
N2380 C2382 1.356 . S
N2380 H2392 0.984 . S
N2380 H2393 0.985 . S
N2381 C2383 1.356 . S
N2381 H2386 0.984 . S
N2381 H2387 0.985 . S
C2382 C2376 1.379 . S
C2382 C2379 1.363 . S
C2382 N2380 1.356 . S
C2383 C2377 1.363 . S
C2383 C2378 1.379 . S
C2383 N2381 1.356 . S
N2384 C2376 1.356 . S
N2384 H2390 0.984 . S
N2384 H2391 0.984 . S
N2385 C2378 1.356 . S
N2385 H2388 0.984 . S
N2385 H2389 0.985 . S
H2386 N2381 0.984 . S
H2387 N2381 0.985 . S
H2388 N2385 0.984 . S
H2389 N2385 0.985 . S
H2390 N2384 0.984 . S
H2391 N2384 0.984 . S
H2392 N2380 0.984 . S
H2393 N2380 0.985 . S
C2394 C2395 1.363 . S
C2394 C2400 1.379 . S
C2394 N2402 1.356 . S
C2395 C2394 1.363 . S
C2395 C2401 1.363 . S
C2396 C2397 1.363 . S
C2396 C2401 1.379 . S
C2396 N2403 1.356 . S
C2397 C2396 1.363 . S
C2397 C2400 1.363 . S
N2398 C2400 1.356 . S
N2398 H2410 0.984 . S
N2398 H2411 0.985 . S
N2399 C2401 1.356 . S
N2399 H2404 0.984 . S
N2399 H2405 0.985 . S
C2400 C2394 1.379 . S
C2400 C2397 1.363 . S
C2400 N2398 1.356 . S
C2401 C2395 1.363 . S
C2401 C2396 1.379 . S
C2401 N2399 1.356 . S
N2402 C2394 1.356 . S
N2402 H2408 0.984 . S
N2402 H2409 0.984 . S
N2403 C2396 1.356 . S
N2403 H2406 0.984 . S
N2403 H2407 0.985 . S
H2404 N2399 0.984 . S
H2405 N2399 0.985 . S
H2406 N2403 0.984 . S
H2407 N2403 0.985 . S
H2408 N2402 0.984 . S
H2409 N2402 0.984 . S
H2410 N2398 0.984 . S
H2411 N2398 0.985 . S
C1441 C781 1.746 . S
C1443 C1089 1.690 . S
C1459 C871 1.723 . S
C1461 C1129 1.733 . S
C1477 C751 1.743 . S
C1479 C1168 1.821 . S
C1495 C691 1.586 . S
C1497 C1128 1.643 . S
C1515 C1169 1.498 . S
C1513 C571 1.446 . S
C1531 C601 1.561 . S
C1533 C1088 1.598 . S
C1551 C1099 1.690 . S
C1549 C661 1.648 . S
C1569 C1139 1.736 . S
C1567 C541 1.694 . S
C1585 C631 1.851 . S
C1587 C1178 1.821 . S
C1603 C811 1.674 . S
C1605 C1138 1.644 . S
C1621 C841 1.483 . S
C1623 C1179 1.498 . S
C1641 C1098 1.600 . S
C1639 C721 1.454 . S
C1659 C1209 1.690 . S
C1657 C61 1.746 1_455 S
C1675 C151 1.723 . S
C1677 C1249 1.736 . S
C1693 C31 1.743 . S
C1695 C1288 1.821 . S
C1711 C1051 1.586 . S
C1713 C1248 1.644 . S
C1729 C931 1.445 . S
C1731 C1289 1.498 . S
C1747 C961 1.561 . S
C1749 C1208 1.600 . S
C1765 C1021 1.648 . S
C1767 C1219 1.690 . S
C1783 C901 1.691 . S
C1785 C1259 1.736 . S
C1803 C1298 1.821 . S
C1801 C991 1.851 . S
C1819 C91 1.663 1_565 S
C1821 C1258 1.644 . S
C1839 C1299 1.498 . S
C1837 C121 1.483 1_455 S
C1855 C1 1.451 . S
C1857 C1218 1.600 . S
C1875 C1329 1.690 . S
C1873 C421 1.746 . S
C1891 C511 1.723 . S
C1893 C1369 1.736 . S
C1911 C1408 1.821 . S
C1909 C391 1.743 . S
C1929 C1368 1.644 . S
C1927 C331 1.575 1_545 S
C1947 C1409 1.498 . S
C1945 C211 1.445 1_655 S
C1963 C241 1.561 . S
C1965 C1328 1.600 . S
C1981 C301 1.648 1_655 S
C1983 C1339 1.690 . S
C1999 C181 1.691 . S
C2001 C1379 1.736 . S
C2019 C1418 1.821 . S
C2017 C271 1.850 . S
C2035 C451 1.674 . S
C2037 C1378 1.644 . S
C2053 C481 1.483 . S
C2055 C1419 1.498 . S
C2071 C361 1.451 . S
C2073 C1338 1.600 . S
C2089 C920 1.378 . S
C2091 C1085 1.399 . S
C2109 C1125 1.830 . S
C2107 C980 1.827 1_455 S
C2125 C1040 1.514 . S
C2127 C1175 1.585 . S
C2143 C380 1.756 . S
C2145 C1135 1.829 . S
C2161 C440 1.555 . S
C2163 C1165 1.585 . S
C2181 C1095 1.399 . S
C2179 C500 1.394 . S
C2197 C200 1.378 . S
C2199 C1205 1.399 . S
C2215 C260 1.826 . S
C2217 C1245 1.829 . S
C2233 C320 1.514 . S
C2235 C1295 1.585 . S
C2251 C740 1.756 . S
C2253 C1255 1.830 . S
C2271 C1285 1.585 . S
C2269 C800 1.555 . S
C2287 C860 1.396 . S
C2289 C1215 1.399 . S
C2305 C560 1.378 . S
C2307 C1325 1.399 . S
C2323 C620 1.826 . S
C2325 C1365 1.829 . S
C2343 C1415 1.585 . S
C2341 C680 1.514 . S
C2359 C20 1.756 . S
C2361 C1375 1.830 . S
C2377 C80 1.555 . S
C2379 C1405 1.585 . S
C2395 C140 1.396 . S
C2397 C1335 1.399 . S
