# Generated by pormake.
# Topology nom, (4,4)-cn, num edge types: 1
# Building blocks:
#     Node 0, Type 0, BuildingBlock: KUFVIS_clean_linker_0, # of connection points: 4
#     Node 1, Type 0, BuildingBlock: KUFVIS_clean_linker_0, # of connection points: 4
#     Node 2, Type 0, BuildingBlock: KUFVIS_clean_linker_0, # of connection points: 4
#     Node 3, Type 0, BuildingBlock: KUFVIS_clean_linker_0, # of connection points: 4
#     Node 4, Type 0, BuildingBlock: KUFVIS_clean_linker_0, # of connection points: 4
#     Node 5, Type 0, BuildingBlock: KUFVIS_clean_linker_0, # of connection points: 4
#     Node 6, Type 1, BuildingBlock: QUQFOY_clean_sbu_1, # of connection points: 4
#     Node 7, Type 1, BuildingBlock: QUQFOY_clean_sbu_1, # of connection points: 4
#     Node 8, Type 1, BuildingBlock: QUQFOY_clean_sbu_1, # of connection points: 4
#     Node 9, Type 1, BuildingBlock: QUQFOY_clean_sbu_1, # of connection points: 4
#     Node 10, Type 1, BuildingBlock: QUQFOY_clean_sbu_1, # of connection points: 4
#     Node 11, Type 1, BuildingBlock: QUQFOY_clean_sbu_1, # of connection points: 4
#     Edge 12, Type (0, 1), BuildingBlock: AJUNOK_clean_linker_0, # of connection points: 2
#     Edge 13, Type (0, 1), BuildingBlock: AJUNOK_clean_linker_0, # of connection points: 2
#     Edge 14, Type (0, 1), BuildingBlock: AJUNOK_clean_linker_0, # of connection points: 2
#     Edge 15, Type (0, 1), BuildingBlock: AJUNOK_clean_linker_0, # of connection points: 2
#     Edge 16, Type (0, 1), BuildingBlock: AJUNOK_clean_linker_0, # of connection points: 2
#     Edge 17, Type (0, 1), BuildingBlock: AJUNOK_clean_linker_0, # of connection points: 2
#     Edge 18, Type (0, 1), BuildingBlock: AJUNOK_clean_linker_0, # of connection points: 2
#     Edge 19, Type (0, 1), BuildingBlock: AJUNOK_clean_linker_0, # of connection points: 2
#     Edge 20, Type (0, 1), BuildingBlock: AJUNOK_clean_linker_0, # of connection points: 2
#     Edge 21, Type (0, 1), BuildingBlock: AJUNOK_clean_linker_0, # of connection points: 2
#     Edge 22, Type (0, 1), BuildingBlock: AJUNOK_clean_linker_0, # of connection points: 2
#     Edge 23, Type (0, 1), BuildingBlock: AJUNOK_clean_linker_0, # of connection points: 2
#     Edge 24, Type (0, 1), BuildingBlock: AJUNOK_clean_linker_0, # of connection points: 2
#     Edge 25, Type (0, 1), BuildingBlock: AJUNOK_clean_linker_0, # of connection points: 2
#     Edge 26, Type (0, 1), BuildingBlock: AJUNOK_clean_linker_0, # of connection points: 2
#     Edge 27, Type (0, 1), BuildingBlock: AJUNOK_clean_linker_0, # of connection points: 2
#     Edge 28, Type (0, 1), BuildingBlock: AJUNOK_clean_linker_0, # of connection points: 2
#     Edge 29, Type (0, 1), BuildingBlock: AJUNOK_clean_linker_0, # of connection points: 2
#     Edge 30, Type (0, 1), BuildingBlock: AJUNOK_clean_linker_0, # of connection points: 2
#     Edge 31, Type (0, 1), BuildingBlock: AJUNOK_clean_linker_0, # of connection points: 2
#     Edge 32, Type (0, 1), BuildingBlock: AJUNOK_clean_linker_0, # of connection points: 2
#     Edge 33, Type (0, 1), BuildingBlock: AJUNOK_clean_linker_0, # of connection points: 2
#     Edge 34, Type (0, 1), BuildingBlock: AJUNOK_clean_linker_0, # of connection points: 2
#     Edge 35, Type (0, 1), BuildingBlock: AJUNOK_clean_linker_0, # of connection points: 2
# Relax obj value: 0.004
# Max RMSD: 0.085
# Mean RMSD: 0.069
data_MOF--net-nom--node1-QUQFOY_clean_sbu_1--node2-KUFVIS_clean_linker_0--edge1-AJUNOK_clean_linker_0
_symmetry_space_group_name_H-M    P1
_symmetry_Int_Tables_number       1
_symmetry_cell_setting            triclinic
loop_
_symmetry_equiv_pos_as_xyz
'x, y, z'
_cell_length_a     33.692237
_cell_length_b     33.683747
_cell_length_c     36.943174
_cell_angle_alpha  89.989313
_cell_angle_beta   89.926825
_cell_angle_gamma 119.99594
loop_
_atom_site_label
_atom_site_type_symbol
_atom_site_fract_x
_atom_site_fract_y
_atom_site_fract_z
_atom_type_partial_charge
H0 H 0.23846 0.66085 0.28715 0.0
H1 H 0.13354 0.63406 0.20939 0.0
H2 H 0.09784 0.57926 0.3182 0.0
H3 H 1.035 0.58617 0.30576 0.0
H4 H 0.92939 0.50711 0.22882 0.0
H5 H 1.06975 0.56445 0.19738 0.0
C6 C 0.20243 0.64413 0.27992 0.0
C7 C 0.16941 0.61977 0.30626 0.0
C8 C 0.18982 0.64921 0.24498 0.0
C9 C 0.14305 0.6292 0.23631 0.0
C10 C 0.10894 0.60311 0.26243 0.0
C11 C 0.12286 0.59915 0.29759 0.0
C12 C 1.05913 0.57845 0.25292 0.0
C13 C 1.02527 0.57132 0.279 0.0
C14 C 0.97843 0.54472 0.27057 0.0
C15 C 0.96549 0.52637 0.23586 0.0
C16 C 0.99825 0.53418 0.20951 0.0
C17 C 1.04491 0.55997 0.21795 0.0
H18 H 0.63818 0.21597 0.45449 0.0
H19 H 0.56366 0.11093 0.3759 0.0
H20 H 0.58049 0.07544 0.48534 0.0
H21 H 0.51206 1.01221 0.47236 0.0
H22 H 0.48597 0.90688 0.3952 0.0
H23 H 0.56925 1.04734 0.36418 0.0
C24 C 0.61968 0.17995 0.44713 0.0
C25 C 0.61048 0.14695 0.4736 0.0
C26 C 0.6032 0.16725 0.41189 0.0
C27 C 0.57729 0.12045 0.40303 0.0
C28 C 0.56904 0.08639 0.42923 0.0
C29 C 0.5858 0.10039 0.46464 0.0
C30 C 0.54437 1.03657 0.41967 0.0
C31 C 0.51747 1.00259 0.44563 0.0
C32 C 0.49729 0.95577 0.4371 0.0
C33 C 0.50288 0.94294 0.40237 0.0
C34 C 0.52795 0.97582 0.37611 0.0
C35 C 0.54885 1.02245 0.3847 0.0
H36 H 0.63795 0.46257 0.56106 0.0
H37 H 0.56048 0.49007 0.6391 0.0
H38 H 0.58049 0.54569 0.53051 0.0
H39 H 0.51202 0.54105 0.54307 0.0
H40 H 0.48347 0.61682 0.622 0.0
H41 H 0.56601 0.55854 0.65192 0.0
C42 C 0.6189 0.47955 0.5684 0.0
C43 C 0.61063 0.50429 0.54218 0.0
C44 C 0.60124 0.47455 0.60338 0.0
C45 C 0.57489 0.49499 0.61216 0.0
C46 C 0.56739 0.52159 0.58623 0.0
C47 C 0.58523 0.52547 0.55102 0.0
C48 C 0.5427 0.54668 0.59605 0.0
C49 C 0.51664 0.55494 0.57015 0.0
C50 C 0.49618 0.5812 0.57923 0.0
C51 C 0.50067 0.59806 0.61443 0.0
C52 C 0.52472 0.58886 0.64064 0.0
C53 C 0.54617 0.56384 0.63143 0.0
H54 H 0.2367 0.61719 0.72817 0.0
H55 H 0.13175 0.53759 0.80565 0.0
H56 H 0.09615 0.55862 0.69743 0.0
H57 H 1.03269 0.49003 0.7092 0.0
H58 H 0.9277 0.45908 0.78814 0.0
H59 H 1.06816 0.54143 0.81886 0.0
C60 C 0.20066 0.59774 0.73543 0.0
C61 C 0.16767 0.58942 0.70922 0.0
C62 C 0.18799 0.5795 0.77024 0.0
C63 C 0.14122 0.55248 0.77886 0.0
C64 C 0.1071 0.54491 0.75296 0.0
C65 C 0.1211 0.56339 0.71792 0.0
C66 C 1.05727 0.51948 0.76263 0.0
C67 C 1.0232 0.4939 0.73643 0.0
C68 C 0.97641 0.47305 0.74537 0.0
C69 C 0.96371 0.4765 0.78073 0.0
C70 C 0.99672 0.50001 0.80719 0.0
C71 C 1.04326 0.52193 0.79814 0.0
H72 H 0.52563 0.90475 -0.04645 0.0
H73 H 0.60201 1.01011 0.87555 0.0
H74 H 0.5845 1.04515 -0.01496 0.0
H75 H 0.65199 0.10861 -0.02739 0.0
H76 H 0.68109 0.21439 0.89501 0.0
H77 H 0.59824 0.07417 0.86354 0.0
C78 C 0.54456 0.94085 -0.05359 0.0
C79 C 0.55415 0.97373 -0.02695 0.0
C80 C 0.56126 0.95379 0.91122 0.0
C81 C 0.58793 1.00058 0.90259 0.0
C82 C 0.59621 1.03457 0.92886 0.0
C83 C 0.57913 1.02034 -0.03578 0.0
C84 C 0.62129 0.08451 0.91946 0.0
C85 C 0.64743 0.11835 -0.05432 0.0
C86 C 0.66801 0.16523 -0.06283 0.0
C87 C 0.66377 0.1783 0.90216 0.0
C88 C 0.63976 0.14557 0.8756 0.0
C89 C 0.61807 0.09889 0.88427 0.0
H90 H 0.52802 0.65911 0.06314 0.0
H91 H 0.60715 0.63159 0.1392 0.0
H92 H 0.58649 0.57762 0.03005 0.0
H93 H 0.65541 0.58228 0.042 0.0
H94 H 0.68228 0.50351 0.11921 0.0
H95 H 0.60053 0.56207 0.15086 0.0
C96 C 0.54748 0.64233 0.06972 0.0
C97 C 0.55583 0.61831 0.0429 0.0
C98 C 0.56539 0.64672 0.10446 0.0
C99 C 0.5924 0.62685 0.11243 0.0
C100 C 0.59988 0.60082 0.08595 0.0
C101 C 0.58172 0.59739 0.05095 0.0
C102 C 0.62443 0.57542 0.0951 0.0
C103 C 0.6505 0.56763 0.06884 0.0
C104 C 0.67051 0.54077 0.07727 0.0
C105 C 0.66546 0.52278 0.11213 0.0
C106 C 0.64111 0.53122 0.13861 0.0
C107 C 0.62043 0.55716 0.13014 0.0
O108 O 0.64123 0.4406 0.38615 0.0
Cd109 Cd 0.65206 0.4114 0.34082 0.0
Cd110 Cd 0.73375 0.49413 0.34146 0.0
O111 O 0.71016 0.50161 0.39067 0.0
O112 O 0.60508 0.34491 0.34332 0.0
O113 O 0.67953 0.37078 0.34624 0.0
C114 C 0.63814 0.33639 0.34694 0.0
C115 C 0.80919 0.50927 0.33573 0.0
C116 C 0.66986 0.47663 0.40288 0.0
C117 C 0.66902 0.47427 0.2788 0.0
O118 O 0.7045 0.50365 0.29567 0.0
O119 O 0.64458 0.43399 0.29118 0.0
O120 O 0.79997 0.54192 0.33895 0.0
O121 O 0.77527 0.46763 0.33676 0.0
O122 O 0.2613 0.6199 0.55299 0.0
Cd123 Cd 0.30127 0.63051 0.50765 0.0
Cd124 Cd 0.30084 0.71225 0.50841 0.0
O125 O 0.27006 0.68917 0.55778 0.0
O126 O 0.32061 0.58341 0.51026 0.0
O127 O 0.36932 0.65785 0.51315 0.0
C128 C 0.36221 0.61641 0.51398 0.0
C129 C 0.36192 0.78722 0.50238 0.0
C130 C 0.25435 0.64877 0.56988 0.0
C131 C 0.25511 0.64749 0.44594 0.0
O132 O 0.2615 0.68306 0.46289 0.0
O133 O 0.27103 0.62303 0.4581 0.0
O134 O 0.32031 0.77872 0.50584 0.0
O135 O 0.36893 0.75284 0.50333 0.0
O136 O 0.70406 0.24027 0.71814 0.0
Cd137 Cd 0.73208 0.28092 0.67299 0.0
Cd138 Cd 0.65025 0.28025 0.67669 0.0
O139 O 0.6446 0.25011 0.72609 0.0
O140 O 0.7985 0.29998 0.67423 0.0
O141 O 0.77315 0.34886 0.67897 0.0
C142 C 0.80735 0.34155 0.67883 0.0
C143 C 0.63628 0.34127 0.67048 0.0
C144 C 0.66917 0.23341 0.73638 0.0
C145 C 0.66642 0.23351 0.61332 0.0
O146 O 0.63797 0.23972 0.63157 0.0
O147 O 0.70772 0.25075 0.62364 0.0
O148 O 0.60328 0.29983 0.67518 0.0
O149 O 0.67766 0.34821 0.67053 0.0
O150 O 0.52491 0.68182 0.88664 0.0
Cd151 Cd 0.51396 0.71036 0.84098 0.0
Cd152 Cd 0.4317 0.62953 0.84334 0.0
O153 O 0.4549 0.62295 0.89295 0.0
O154 O 0.55973 0.77728 0.84292 0.0
O155 O 0.48493 0.74954 0.84604 0.0
C156 C 0.52588 0.78465 0.84662 0.0
C157 C 0.35658 0.61512 0.83688 0.0
C158 C 0.49569 0.64699 0.90436 0.0
C159 C 0.49588 0.64531 0.78081 0.0
O160 O 0.46028 0.61731 0.79837 0.0
O161 O 0.52079 0.68624 0.79175 0.0
O162 O 0.36528 0.58228 0.84137 0.0
O163 O 0.39083 0.6566 0.83716 0.0
O164 O 0.90377 0.43539 -0.03474 0.0
Cd165 Cd 0.86319 0.40762 0.01048 0.0
Cd166 Cd 0.8649 0.49018 0.00752 0.0
O167 O 0.89555 0.49597 -0.04167 0.0
O168 O 0.84301 0.34093 0.00891 0.0
O169 O 0.79514 0.36756 0.00452 0.0
C170 C 0.8017 0.33287 0.00441 0.0
C171 C 0.80432 0.505 0.01272 0.0
C172 C 0.91134 0.47081 -0.05252 0.0
C173 C 0.91014 0.47228 0.07103 0.0
O174 O 0.90439 0.50127 0.05315 0.0
O175 O 0.89335 0.43134 0.0599 0.0
O176 O 0.84605 0.53773 0.00884 0.0
O177 O 0.7969 0.46344 0.01262 0.0
O178 O 0.52824 0.88095 0.13082 0.0
Cd179 Cd 0.51653 0.84098 0.17621 0.0
Cd180 Cd 0.4354 0.84254 0.1745 0.0
O181 O 0.45939 0.87296 0.12507 0.0
O182 O 0.56269 0.82039 0.174 0.0
O183 O 0.488 0.77284 0.17098 0.0
C184 C 0.52909 0.77906 0.17028 0.0
C185 C 0.35986 0.78233 0.1803 0.0
C186 C 0.50005 0.8885 0.11357 0.0
C187 C 0.49995 0.8882 0.23725 0.0
O188 O 0.4647 0.88211 0.21999 0.0
O189 O 0.52408 0.87166 0.22553 0.0
O190 O 0.36916 0.82418 0.17661 0.0
O191 O 0.39377 0.77457 0.17974 0.0
C192 C 0.26288 0.66864 0.21369 0.0
C193 C 0.22701 0.67798 0.21921 0.0
C194 C 0.30474 0.7015 0.19859 0.0
C195 C 0.31247 0.74515 0.18865 0.0
H196 H 0.25955 0.63671 0.22333 0.0
H197 H 0.33208 0.6935 0.19682 0.0
S198 S 0.22676 0.78384 0.19265 0.0
N199 N 0.19984 0.73166 0.20999 0.0
N200 N 0.27828 0.7936 0.1812 0.0
C201 C 0.27538 0.75338 0.19114 0.0
C202 C 0.23266 0.71971 0.20649 0.0
C203 C 0.65655 0.24087 0.38118 0.0
C204 C 0.61155 0.20431 0.38605 0.0
C205 C 0.66504 0.28251 0.366 0.0
C206 C 0.62878 0.28931 0.35534 0.0
H207 H 0.68529 0.23823 0.3914 0.0
H208 H 0.70016 0.31041 0.36477 0.0
S209 S 0.50494 0.20155 0.35738 0.0
N210 N 0.53068 0.1755 0.37539 0.0
N211 N 0.54624 0.25353 0.34644 0.0
C212 C 0.58378 0.25154 0.35716 0.0
C213 C 0.57525 0.20906 0.37258 0.0
C214 C 0.47579 0.63462 0.54878 0.0
C215 C 0.46728 0.58959 0.55364 0.0
C216 C 0.44277 0.64317 0.53346 0.0
C217 C 0.39978 0.60695 0.52266 0.0
H218 H 0.50717 0.66335 0.559 0.0
H219 H 0.45008 0.67832 0.53218 0.0
S220 S 0.36344 0.48303 0.52483 0.0
N221 N 0.41512 0.5087 0.54296 0.0
N222 N 0.35293 0.5244 0.51378 0.0
C223 C 0.39243 0.56191 0.52457 0.0
C224 C 0.42625 0.55331 0.54013 0.0
C225 C 0.9032 0.4541 0.71473 0.0
C226 C 0.93937 0.44504 0.71936 0.0
C227 C 0.86164 0.42167 0.69905 0.0
C228 C 0.85452 0.37873 0.68764 0.0
H229 H 0.90607 0.48538 0.72545 0.0
H230 H 0.83403 0.42933 0.698 0.0
S231 S 0.94123 0.34125 0.68897 0.0
N232 N 0.9675 0.39256 0.70779 0.0
N233 N 0.88961 0.33145 0.67793 0.0
C234 C 0.89193 0.37093 0.68928 0.0
C235 C 0.93434 0.40415 0.70522 0.0
C236 C 0.58861 0.90963 0.87517 0.0
C237 C 0.5526 0.91695 0.88521 0.0
C238 C 0.57967 0.86763 0.86024 0.0
C239 C 0.53437 0.83147 0.85497 0.0
H240 H 0.62369 0.93512 0.88145 0.0
H241 H 0.60849 0.86263 0.85493 0.0
S242 S 0.42857 0.83715 0.87137 0.0
N243 N 0.47057 0.88747 0.88484 0.0
N244 N 0.45344 0.80866 0.85654 0.0
C245 C 0.4983 0.84013 0.86195 0.0
C246 C 0.50751 0.88284 0.87717 0.0
C247 C 0.69025 0.48755 0.04574 0.0
C248 C 0.69936 0.53265 0.05138 0.0
C249 C 0.72331 0.47883 0.03067 0.0
C250 C 0.76691 0.51494 0.02086 0.0
H251 H 0.65838 0.45881 0.05531 0.0
H252 H 0.7155 0.44355 0.02886 0.0
S253 S 0.80497 0.6392 0.02504 0.0
N254 N 0.75274 0.61364 0.0423 0.0
N255 N 0.81502 0.59765 0.01353 0.0
C256 C 0.77488 0.56017 0.02338 0.0
C257 C 0.74103 0.56894 0.03872 0.0
C258 C 0.47633 0.88243 0.46857 0.0
C259 C 0.46785 0.91882 0.4628 0.0
C260 C 0.44297 0.84099 0.48389 0.0
C261 C 0.39968 0.83423 0.49382 0.0
H262 H 0.50797 0.88504 0.45902 0.0
H263 H 0.45029 0.8132 0.48585 0.0
S264 S 0.36327 0.92166 0.48928 0.0
N265 N 0.41539 0.94757 0.47182 0.0
N266 N 0.35253 0.8699 0.50104 0.0
C267 C 0.39233 0.87187 0.49109 0.0
C268 C 0.42649 0.91415 0.47551 0.0
C269 C 0.65448 0.45437 0.63434 0.0
C270 C 0.60947 0.44574 0.62922 0.0
C271 C 0.663 0.42159 0.6502 0.0
C272 C 0.62678 0.37873 0.66135 0.0
H273 H 0.68324 0.48566 0.62395 0.0
H274 H 0.69815 0.42897 0.65165 0.0
S275 S 0.50287 0.34222 0.65872 0.0
N276 N 0.52856 0.39366 0.64003 0.0
N277 N 0.54421 0.33191 0.67025 0.0
C278 C 0.58174 0.3713 0.65919 0.0
C279 C 0.57316 0.40487 0.64305 0.0
C280 C 0.26117 0.63282 0.80143 0.0
C281 C 0.22505 0.58773 0.79601 0.0
C282 C 0.30256 0.64149 0.81714 0.0
C283 C 0.30956 0.60536 0.82784 0.0
H284 H 0.25837 0.66155 0.79138 0.0
H285 H 0.33013 0.67673 0.81884 0.0
S286 S 0.22291 0.48121 0.82435 0.0
N287 N 0.19684 0.50678 0.80608 0.0
N288 N 0.27439 0.52272 0.83604 0.0
C289 C 0.27219 0.56019 0.82541 0.0
C290 C 0.22995 0.55146 0.80941 0.0
C291 C 0.68837 0.23861 -0.03167 0.0
C292 C 0.69666 0.20198 -0.03676 0.0
C293 C 0.7213 0.27979 -0.01579 0.0
C294 C 0.76396 0.28604 -0.00459 0.0
H295 H 0.6573 0.2364 -0.04214 0.0
H296 H 0.71423 0.30779 -0.01439 0.0
S297 S 0.79941 0.1978 -0.00698 0.0
N298 N 0.74811 0.17247 -0.02577 0.0
N299 N 0.8101 0.24961 0.00451 0.0
C300 C 0.77097 0.24815 -0.00665 0.0
C301 C 0.73726 0.20614 -0.02282 0.0
C302 C 0.59265 0.7181 0.1406 0.0
C303 C 0.55682 0.67457 0.13087 0.0
C304 C 0.58343 0.7508 0.15585 0.0
C305 C 0.53803 0.7411 0.16174 0.0
H306 H 0.62773 0.7281 0.1338 0.0
H307 H 0.61206 0.78481 0.16089 0.0
S308 S 0.43279 0.62889 0.14639 0.0
N309 N 0.47497 0.62119 0.13226 0.0
N310 N 0.45733 0.68227 0.16112 0.0
C311 C 0.50222 0.69617 0.15511 0.0
C312 C 0.51172 0.66301 0.13959 0.0
C313 C 0.90573 0.49179 0.30256 0.0
C314 C 0.94153 0.53686 0.29643 0.0
C315 C 0.86406 0.48314 0.31781 0.0
C316 C 0.85648 0.51928 0.3273 0.0
H317 H 0.90892 0.46299 0.29328 0.0
H318 H 0.83673 0.44785 0.32004 0.0
S319 S 0.94221 0.64357 0.32164 0.0
N320 N 0.96889 0.61792 0.3046 0.0
N321 N 0.89081 0.60207 0.33368 0.0
C322 C 0.89357 0.56454 0.32421 0.0
C323 C 0.93608 0.57324 0.3087 0.0
C324 C 0.17666 0.64304 0.37074 0.0
C325 C 0.18477 0.61906 0.34341 0.0
C326 C 0.19882 0.65116 0.40422 0.0
C327 C 0.22938 0.63509 0.41153 0.0
H328 H 0.15493 0.65762 0.36555 0.0
H329 H 0.19268 0.67103 0.42421 0.0
S330 S 0.25917 0.56746 0.34919 0.0
N331 N 0.22316 0.57731 0.32592 0.0
N332 N 0.2644 0.59172 0.38908 0.0
C333 C 0.23588 0.60902 0.38487 0.0
C334 C 0.21369 0.60127 0.3507 0.0
C335 C 0.67095 0.19258 0.51882 0.0
C336 C 0.62458 0.1623 0.51108 0.0
C337 C 0.68435 0.21421 0.55252 0.0
C338 C 0.65165 0.20697 0.57931 0.0
H339 H 0.69685 0.20071 0.49822 0.0
H340 H 0.72036 0.23818 0.557 0.0
S341 S 0.52597 0.12841 0.57268 0.0
N342 N 0.54618 0.1241 0.53302 0.0
N343 N 0.571 0.165 0.59647 0.0
C344 C 0.60524 0.17538 0.57224 0.0
C345 C 0.59178 0.15291 0.53808 0.0
C346 C 0.54066 0.64958 0.68605 0.0
C347 C 0.52401 0.60311 0.6782 0.0
C348 C 0.53299 0.66313 0.71993 0.0
C349 C 0.50753 0.6305 0.74675 0.0
H350 H 0.5584 0.67543 0.66542 0.0
H351 H 0.54538 0.69921 0.72452 0.0
S352 S 0.45913 0.50463 0.73987 0.0
N353 N 0.48335 0.52469 0.7001 0.0
N354 N 0.46829 0.54983 0.76383 0.0
C355 C 0.49219 0.58399 0.73956 0.0
C356 C 0.50064 0.57037 0.70525 0.0
C357 C 0.95214 0.51588 0.85284 0.0
C358 C 0.98146 0.49872 0.84473 0.0
C359 C 0.93091 0.50813 0.88672 0.0
C360 C 0.93757 0.48209 0.91331 0.0
H361 H 0.94451 0.5342 0.83242 0.0
H362 H 0.90768 0.52104 0.89152 0.0
S363 S 1.01345 0.43193 0.90558 0.0
N364 N 1.0181 0.45676 0.86603 0.0
N365 N 0.97785 0.44151 0.92979 0.0
C366 C 0.96814 0.46608 0.90581 0.0
C367 C 0.99024 0.47461 0.87148 0.0
C368 C 0.49421 0.92826 0.01892 0.0
C369 C 0.5405 0.95831 0.01062 0.0
C370 C 0.48125 0.9071 0.05287 0.0
C371 C 0.51431 0.91454 0.0793 0.0
H372 H 0.46803 0.92006 -0.00138 0.0
H373 H 0.44527 0.88332 0.05785 0.0
S374 S 0.63996 0.99236 0.07109 0.0
N375 N 0.61924 0.99636 0.03163 0.0
N376 N 0.5952 0.95621 0.09547 0.0
C377 C 0.56065 0.94576 0.07162 0.0
C378 C 0.57368 0.9678 0.03725 0.0
C379 C 0.66394 0.54746 0.20314 0.0
C380 C 0.64068 0.51522 0.17577 0.0
C381 C 0.67208 0.53372 0.23676 0.0
C382 C 0.65669 0.48724 0.24419 0.0
H383 H 0.67793 0.5837 0.1979 0.0
H384 H 0.69136 0.55983 0.2568 0.0
S385 S 0.59112 0.38946 0.18179 0.0
N386 N 0.60037 0.43506 0.15834 0.0
N387 N 0.6148 0.40878 0.22179 0.0
C388 C 0.63137 0.45448 0.21747 0.0
C389 C 0.62363 0.46862 0.18314 0.0
C390 C 0.50524 0.96824 0.31151 0.0
C391 C 0.52892 0.96019 0.3391 0.0
C392 C 0.49693 0.94552 0.27826 0.0
C393 C 0.51248 0.91442 0.27144 0.0
H394 H 0.49098 0.99033 0.31636 0.0
H395 H 0.4773 0.95164 0.25806 0.0
S396 S 0.57919 0.88452 0.3346 0.0
N397 N 0.56985 0.92128 0.35734 0.0
N398 N 0.55509 0.87897 0.29462 0.0
C399 C 0.53829 0.90798 0.29834 0.0
C400 C 0.54624 0.93075 0.33228 0.0
C401 C 0.5949 0.48023 0.47787 0.0
C402 C 0.62681 0.50504 0.50505 0.0
C403 C 0.60928 0.4721 0.4445 0.0
C404 C 0.65606 0.48899 0.43714 0.0
H405 H 0.55852 0.46502 0.48314 0.0
H406 H 0.58344 0.4516 0.42463 0.0
S407 S 0.75301 0.55879 0.49915 0.0
N408 N 0.70685 0.54828 0.52239 0.0
N409 N 0.73433 0.53393 0.45941 0.0
C410 C 0.68839 0.51585 0.46365 0.0
C411 C 0.67362 0.52359 0.49772 0.0
C412 C 0.17536 0.57399 0.64469 0.0
C413 C 0.1831 0.60583 0.67213 0.0
C414 C 0.19779 0.58836 0.6113 0.0
C415 C 0.22825 0.63508 0.60416 0.0
H416 H 0.15375 0.53761 0.64977 0.0
H417 H 0.19197 0.56255 0.59123 0.0
S418 S 0.25707 0.73194 0.66681 0.0
N419 N 0.22101 0.68582 0.6899 0.0
N420 N 0.26274 0.71329 0.62687 0.0
C421 C 0.23434 0.66741 0.63091 0.0
C422 C 0.21189 0.65263 0.66501 0.0
C423 C 0.62446 0.19161 0.83098 0.0
C424 C 0.6407 0.16132 0.83827 0.0
C425 C 0.63239 0.21354 0.79739 0.0
C426 C 0.65769 0.20662 0.77028 0.0
H427 H 0.6068 0.19949 0.85183 0.0
H428 H 0.62024 0.2375 0.79323 0.0
S429 S 0.70515 0.12822 0.77571 0.0
N430 N 0.68091 0.12348 0.81556 0.0
N431 N 0.69641 0.16497 0.75235 0.0
C432 C 0.67267 0.17504 0.77692 0.0
C433 C 0.66397 0.15226 0.81095 0.0
C434 C 0.57066 0.64141 -0.02174 0.0
C435 C 0.53908 0.61792 0.00605 0.0
C436 C 0.55615 0.64989 -0.05488 0.0
C437 C 0.50953 0.63469 -0.0614 0.0
H438 H 0.607 0.65532 -0.01716 0.0
H439 H 0.5818 0.66927 0.92473 0.0
S440 S 0.41326 0.56875 0.00242 0.0
N441 N 0.45937 0.57762 0.02481 0.0
N442 N 0.43165 0.59278 -0.03767 0.0
C443 C 0.47742 0.60919 -0.03426 0.0
C444 C 0.49234 0.60104 -0.00045 0.0
C445 C 0.99016 0.54835 0.14473 0.0
C446 C 0.98244 0.51706 0.17264 0.0
C447 C 0.96732 0.53337 0.11159 0.0
C448 C 0.93641 0.48657 0.1052 0.0
H449 H 1.01211 0.58479 0.14923 0.0
H450 H 0.97323 0.55881 0.09112 0.0
S451 S 0.9074 0.39097 0.16935 0.0
N452 N 0.94405 0.43747 0.19166 0.0
N453 N 0.9015 0.40886 0.12916 0.0
C454 C 0.93028 0.45477 0.13245 0.0
C455 C 0.95319 0.47017 0.16627 0.0
loop_
_geom_bond_atom_site_label_1
_geom_bond_atom_site_label_2
_geom_bond_distance
_geom_bond_site_symmetry_2
_ccdc_geom_bond_type
H0 C6 0.930 . S
H1 C9 0.931 . S
H2 C11 0.931 . S
H3 C13 0.930 . S
H4 C15 0.930 . S
H5 C17 0.931 . S
C6 H0 0.930 . S
C6 C7 1.380 . S
C6 C8 1.394 . S
C7 C6 1.380 . S
C7 C11 1.382 . S
C8 C6 1.394 . S
C8 C9 1.400 . S
C9 H1 0.931 . S
C9 C8 1.400 . S
C9 C10 1.375 . S
C10 C9 1.375 . S
C10 C11 1.415 . S
C10 C12 1.501 1_455 S
C11 H2 0.931 . S
C11 C7 1.382 . S
C11 C10 1.415 . S
C12 C10 1.501 1_655 S
C12 C13 1.384 . S
C12 C17 1.408 . S
C13 H3 0.930 . S
C13 C12 1.384 . S
C13 C14 1.389 . S
C14 C13 1.389 . S
C14 C15 1.405 . S
C15 H4 0.930 . S
C15 C14 1.405 . S
C15 C16 1.364 . S
C16 C15 1.364 . S
C16 C17 1.400 . S
C17 H5 0.931 . S
C17 C12 1.408 . S
C17 C16 1.400 . S
H18 C24 0.930 . S
H19 C27 0.931 . S
H20 C29 0.931 . S
H21 C31 0.930 . S
H22 C33 0.930 . S
H23 C35 0.939 . S
C24 H18 0.930 . S
C24 C25 1.380 . S
C24 C26 1.394 . S
C25 C24 1.380 . S
C25 C29 1.382 . S
C26 C24 1.394 . S
C26 C27 1.400 . S
C27 H19 0.931 . S
C27 C26 1.400 . S
C27 C28 1.375 . S
C28 C27 1.375 . S
C28 C29 1.415 . S
C28 C30 1.501 1_545 S
C29 H20 0.931 . S
C29 C25 1.382 . S
C29 C28 1.415 . S
C30 C28 1.501 1_565 S
C30 C31 1.384 . S
C30 C35 1.408 . S
C31 H21 0.930 . S
C31 C30 1.384 . S
C31 C32 1.389 . S
C32 C31 1.389 . S
C32 C33 1.405 . S
C33 H22 0.930 . S
C33 C32 1.405 . S
C33 C34 1.364 . S
C34 C33 1.364 . S
C34 C35 1.400 . S
C35 H23 0.939 . S
C35 C30 1.408 . S
C35 C34 1.400 . S
H36 C42 0.930 . S
H37 C45 0.931 . S
H38 C47 0.931 . S
H39 C49 0.930 . S
H40 C51 0.930 . S
H41 C53 0.931 . S
C42 H36 0.930 . S
C42 C43 1.380 . S
C42 C44 1.394 . S
C43 C42 1.380 . S
C43 C47 1.382 . S
C44 C42 1.394 . S
C44 C45 1.400 . S
C45 H37 0.931 . S
C45 C44 1.400 . S
C45 C46 1.375 . S
C46 C45 1.375 . S
C46 C47 1.415 . S
C46 C48 1.501 . S
C47 H38 0.931 . S
C47 C43 1.382 . S
C47 C46 1.415 . S
C48 C46 1.501 . S
C48 C49 1.384 . S
C48 C53 1.408 . S
C49 H39 0.930 . S
C49 C48 1.384 . S
C49 C50 1.389 . S
C50 C49 1.389 . S
C50 C51 1.405 . S
C51 H40 0.930 . S
C51 C50 1.405 . S
C51 C52 1.364 . S
C52 C51 1.364 . S
C52 C53 1.400 . S
C53 H41 0.931 . S
C53 C48 1.408 . S
C53 C52 1.400 . S
H54 C60 0.930 . S
H55 C63 0.931 . S
H56 C65 0.931 . S
H57 C67 0.930 . S
H58 C69 0.930 . S
H59 C71 0.931 . S
C60 H54 0.930 . S
C60 C61 1.380 . S
C60 C62 1.394 . S
C61 C60 1.380 . S
C61 C65 1.382 . S
C62 C60 1.394 . S
C62 C63 1.400 . S
C63 H55 0.931 . S
C63 C62 1.400 . S
C63 C64 1.375 . S
C64 C63 1.375 . S
C64 C65 1.415 . S
C64 C66 1.501 1_455 S
C65 H56 0.931 . S
C65 C61 1.382 . S
C65 C64 1.415 . S
C66 C64 1.501 1_655 S
C66 C67 1.384 . S
C66 C71 1.408 . S
C67 H57 0.930 . S
C67 C66 1.384 . S
C67 C68 1.389 . S
C68 C67 1.389 . S
C68 C69 1.405 . S
C69 H58 0.930 . S
C69 C68 1.405 . S
C69 C70 1.364 . S
C70 C69 1.364 . S
C70 C71 1.400 . S
C71 H59 0.931 . S
C71 C66 1.408 . S
C71 C70 1.400 . S
H72 C78 0.930 . S
H73 C81 0.931 . S
H74 C83 0.944 . S
H75 C85 0.930 . S
H76 C87 0.930 . S
H77 C89 0.931 . S
C78 H72 0.930 . S
C78 C79 1.380 . S
C78 C80 1.394 1_554 S
C79 C78 1.380 . S
C79 C83 1.382 . S
C80 C78 1.394 1_556 S
C80 C81 1.400 . S
C81 H73 0.931 . S
C81 C80 1.400 . S
C81 C82 1.375 . S
C82 C81 1.375 . S
C82 C83 1.415 1_556 S
C82 C84 1.501 1_565 S
C83 H74 0.944 . S
C83 C79 1.382 . S
C83 C82 1.415 1_554 S
C84 C82 1.501 1_545 S
C84 C85 1.384 1_556 S
C84 C89 1.408 . S
C85 H75 0.930 . S
C85 C84 1.384 1_554 S
C85 C86 1.389 . S
C86 C85 1.389 . S
C86 C87 1.405 1_554 S
C87 H76 0.930 . S
C87 C86 1.405 1_556 S
C87 C88 1.364 . S
C88 C87 1.364 . S
C88 C89 1.400 . S
C89 H77 0.931 . S
C89 C84 1.408 . S
C89 C88 1.400 . S
H90 C96 0.930 . S
H91 C99 0.931 . S
H92 C101 0.931 . S
H93 C103 0.930 . S
H94 C105 0.930 . S
H95 C107 0.931 . S
C96 H90 0.930 . S
C96 C97 1.380 . S
C96 C98 1.394 . S
C97 C96 1.380 . S
C97 C101 1.382 . S
C98 C96 1.394 . S
C98 C99 1.400 . S
C99 H91 0.931 . S
C99 C98 1.400 . S
C99 C100 1.375 . S
C100 C99 1.375 . S
C100 C101 1.415 . S
C100 C102 1.501 . S
C101 H92 0.931 . S
C101 C97 1.382 . S
C101 C100 1.415 . S
C102 C100 1.501 . S
C102 C103 1.384 . S
C102 C107 1.408 . S
C103 H93 0.930 . S
C103 C102 1.384 . S
C103 C104 1.389 . S
C104 C103 1.389 . S
C104 C105 1.405 . S
C105 H94 0.930 . S
C105 C104 1.405 . S
C105 C106 1.364 . S
C106 C105 1.364 . S
C106 C107 1.400 . S
C107 H95 0.931 . S
C107 C102 1.408 . S
C107 C106 1.400 . S
O108 Cd109 2.223 . S
O108 C116 1.315 . S
Cd109 O108 2.223 . S
Cd109 O112 2.297 . S
Cd109 O113 2.439 . S
Cd109 O119 2.240 . S
Cd110 O111 2.240 . S
Cd110 O118 2.223 . S
Cd110 O120 2.297 . S
Cd110 O121 2.439 . S
O111 Cd110 2.240 . S
O111 C116 1.279 . S
O112 Cd109 2.297 . S
O112 C114 1.247 . S
O113 Cd109 2.439 . S
O113 C114 1.208 . S
C114 O112 1.247 . S
C114 O113 1.208 . S
C115 O120 1.247 . S
C115 O121 1.208 . S
C116 O108 1.315 . S
C116 O111 1.279 . S
C117 O118 1.315 . S
C117 O119 1.279 . S
O118 Cd110 2.223 . S
O118 C117 1.315 . S
O119 Cd109 2.240 . S
O119 C117 1.279 . S
O120 Cd110 2.297 . S
O120 C115 1.247 . S
O121 Cd110 2.439 . S
O121 C115 1.208 . S
O122 Cd123 2.223 . S
O122 C130 1.315 . S
Cd123 O122 2.223 . S
Cd123 O126 2.297 . S
Cd123 O127 2.439 . S
Cd123 O133 2.240 . S
Cd124 O125 2.240 . S
Cd124 O132 2.223 . S
Cd124 O134 2.297 . S
Cd124 O135 2.439 . S
O125 Cd124 2.240 . S
O125 C130 1.279 . S
O126 Cd123 2.297 . S
O126 C128 1.247 . S
O127 Cd123 2.439 . S
O127 C128 1.208 . S
C128 O126 1.247 . S
C128 O127 1.208 . S
C129 O134 1.247 . S
C129 O135 1.208 . S
C130 O122 1.315 . S
C130 O125 1.279 . S
C131 O132 1.315 . S
C131 O133 1.279 . S
O132 Cd124 2.223 . S
O132 C131 1.315 . S
O133 Cd123 2.240 . S
O133 C131 1.279 . S
O134 Cd124 2.297 . S
O134 C129 1.247 . S
O135 Cd124 2.439 . S
O135 C129 1.208 . S
O136 Cd137 2.223 . S
O136 C144 1.315 . S
Cd137 O136 2.223 . S
Cd137 O140 2.297 . S
Cd137 O141 2.439 . S
Cd137 O147 2.240 . S
Cd138 O139 2.240 . S
Cd138 O146 2.223 . S
Cd138 O148 2.297 . S
Cd138 O149 2.439 . S
O139 Cd138 2.240 . S
O139 C144 1.279 . S
O140 Cd137 2.297 . S
O140 C142 1.247 . S
O141 Cd137 2.439 . S
O141 C142 1.208 . S
C142 O140 1.247 . S
C142 O141 1.208 . S
C143 O148 1.247 . S
C143 O149 1.208 . S
C144 O136 1.315 . S
C144 O139 1.279 . S
C145 O146 1.315 . S
C145 O147 1.279 . S
O146 Cd138 2.223 . S
O146 C145 1.315 . S
O147 Cd137 2.240 . S
O147 C145 1.279 . S
O148 Cd138 2.297 . S
O148 C143 1.247 . S
O149 Cd138 2.439 . S
O149 C143 1.208 . S
O150 Cd151 2.223 . S
O150 C158 1.315 . S
Cd151 O150 2.223 . S
Cd151 O154 2.297 . S
Cd151 O155 2.439 . S
Cd151 O161 2.240 . S
Cd152 O153 2.240 . S
Cd152 O160 2.223 . S
Cd152 O162 2.297 . S
Cd152 O163 2.439 . S
O153 Cd152 2.240 . S
O153 C158 1.279 . S
O154 Cd151 2.297 . S
O154 C156 1.247 . S
O155 Cd151 2.439 . S
O155 C156 1.208 . S
C156 O154 1.247 . S
C156 O155 1.208 . S
C157 O162 1.247 . S
C157 O163 1.208 . S
C158 O150 1.315 . S
C158 O153 1.279 . S
C159 O160 1.315 . S
C159 O161 1.279 . S
O160 Cd152 2.223 . S
O160 C159 1.315 . S
O161 Cd151 2.240 . S
O161 C159 1.279 . S
O162 Cd152 2.297 . S
O162 C157 1.247 . S
O163 Cd152 2.439 . S
O163 C157 1.208 . S
O164 Cd165 2.223 . S
O164 C172 1.315 . S
Cd165 O164 2.223 . S
Cd165 O168 2.297 . S
Cd165 O169 2.439 . S
Cd165 O175 2.240 . S
Cd166 O167 2.240 . S
Cd166 O174 2.223 . S
Cd166 O176 2.297 . S
Cd166 O177 2.439 . S
O167 Cd166 2.240 . S
O167 C172 1.279 . S
O168 Cd165 2.297 . S
O168 C170 1.247 . S
O169 Cd165 2.439 . S
O169 C170 1.208 . S
C170 O168 1.247 . S
C170 O169 1.208 . S
C171 O176 1.247 . S
C171 O177 1.208 . S
C172 O164 1.315 . S
C172 O167 1.279 . S
C173 O174 1.315 . S
C173 O175 1.279 . S
O174 Cd166 2.223 . S
O174 C173 1.315 . S
O175 Cd165 2.240 . S
O175 C173 1.279 . S
O176 Cd166 2.297 . S
O176 C171 1.247 . S
O177 Cd166 2.439 . S
O177 C171 1.208 . S
O178 Cd179 2.223 . S
O178 C186 1.315 . S
Cd179 O178 2.223 . S
Cd179 O182 2.297 . S
Cd179 O183 2.439 . S
Cd179 O189 2.240 . S
Cd180 O181 2.240 . S
Cd180 O188 2.223 . S
Cd180 O190 2.297 . S
Cd180 O191 2.439 . S
O181 Cd180 2.240 . S
O181 C186 1.279 . S
O182 Cd179 2.297 . S
O182 C184 1.247 . S
O183 Cd179 2.439 . S
O183 C184 1.208 . S
C184 O182 1.247 . S
C184 O183 1.208 . S
C185 O190 1.247 . S
C185 O191 1.208 . S
C186 O178 1.315 . S
C186 O181 1.279 . S
C187 O188 1.315 . S
C187 O189 1.279 . S
O188 Cd180 2.223 . S
O188 C187 1.315 . S
O189 Cd179 2.240 . S
O189 C187 1.279 . S
O190 Cd180 2.297 . S
O190 C185 1.247 . S
O191 Cd180 2.439 . S
O191 C185 1.208 . S
C192 C193 1.369 . S
C192 C194 1.419 . S
C192 H196 0.930 . S
C193 C192 1.369 . S
C193 C202 1.429 . S
C194 C192 1.419 . S
C194 C195 1.363 . S
C194 H197 0.929 . S
C195 C194 1.363 . S
C195 C201 1.428 . S
H196 C192 0.930 . S
H197 C194 0.929 . S
S198 N199 1.613 . S
S198 N200 1.610 . S
N199 S198 1.613 . S
N199 C202 1.350 . S
N200 S198 1.610 . S
N200 C201 1.351 . S
C201 C195 1.428 . S
C201 N200 1.351 . S
C201 C202 1.434 . S
C202 C193 1.429 . S
C202 N199 1.350 . S
C202 C201 1.434 . S
C203 C204 1.369 . S
C203 C205 1.419 . S
C203 H207 0.930 . S
C204 C203 1.369 . S
C204 C213 1.429 . S
C205 C203 1.419 . S
C205 C206 1.363 . S
C205 H208 0.929 . S
C206 C205 1.363 . S
C206 C212 1.428 . S
H207 C203 0.930 . S
H208 C205 0.929 . S
S209 N210 1.613 . S
S209 N211 1.610 . S
N210 S209 1.613 . S
N210 C213 1.350 . S
N211 S209 1.610 . S
N211 C212 1.351 . S
C212 C206 1.428 . S
C212 N211 1.351 . S
C212 C213 1.434 . S
C213 C204 1.429 . S
C213 N210 1.350 . S
C213 C212 1.434 . S
C214 C215 1.369 . S
C214 C216 1.419 . S
C214 H218 0.930 . S
C215 C214 1.369 . S
C215 C224 1.429 . S
C216 C214 1.419 . S
C216 C217 1.363 . S
C216 H219 0.929 . S
C217 C216 1.363 . S
C217 C223 1.428 . S
H218 C214 0.930 . S
H219 C216 0.929 . S
S220 N221 1.613 . S
S220 N222 1.610 . S
N221 S220 1.613 . S
N221 C224 1.350 . S
N222 S220 1.610 . S
N222 C223 1.351 . S
C223 C217 1.428 . S
C223 N222 1.351 . S
C223 C224 1.434 . S
C224 C215 1.429 . S
C224 N221 1.350 . S
C224 C223 1.434 . S
C225 C226 1.369 . S
C225 C227 1.419 . S
C225 H229 0.930 . S
C226 C225 1.369 . S
C226 C235 1.429 . S
C227 C225 1.419 . S
C227 C228 1.363 . S
C227 H230 0.929 . S
C228 C227 1.363 . S
C228 C234 1.428 . S
H229 C225 0.930 . S
H230 C227 0.929 . S
S231 N232 1.613 . S
S231 N233 1.610 . S
N232 S231 1.613 . S
N232 C235 1.350 . S
N233 S231 1.610 . S
N233 C234 1.351 . S
C234 C228 1.428 . S
C234 N233 1.351 . S
C234 C235 1.434 . S
C235 C226 1.429 . S
C235 N232 1.350 . S
C235 C234 1.434 . S
C236 C237 1.369 . S
C236 C238 1.419 . S
C236 H240 0.930 . S
C237 C236 1.369 . S
C237 C246 1.429 . S
C238 C236 1.419 . S
C238 C239 1.363 . S
C238 H241 0.929 . S
C239 C238 1.363 . S
C239 C245 1.428 . S
H240 C236 0.930 . S
H241 C238 0.929 . S
S242 N243 1.613 . S
S242 N244 1.610 . S
N243 S242 1.613 . S
N243 C246 1.350 . S
N244 S242 1.610 . S
N244 C245 1.351 . S
C245 C239 1.428 . S
C245 N244 1.351 . S
C245 C246 1.434 . S
C246 C237 1.429 . S
C246 N243 1.350 . S
C246 C245 1.434 . S
C247 C248 1.369 . S
C247 C249 1.419 . S
C247 H251 0.930 . S
C248 C247 1.369 . S
C248 C257 1.429 . S
C249 C247 1.419 . S
C249 C250 1.363 . S
C249 H252 0.929 . S
C250 C249 1.363 . S
C250 C256 1.428 . S
H251 C247 0.930 . S
H252 C249 0.929 . S
S253 N254 1.613 . S
S253 N255 1.610 . S
N254 S253 1.613 . S
N254 C257 1.350 . S
N255 S253 1.610 . S
N255 C256 1.351 . S
C256 C250 1.428 . S
C256 N255 1.351 . S
C256 C257 1.434 . S
C257 C248 1.429 . S
C257 N254 1.350 . S
C257 C256 1.434 . S
C258 C259 1.369 . S
C258 C260 1.419 . S
C258 H262 0.930 . S
C259 C258 1.369 . S
C259 C268 1.429 . S
C260 C258 1.419 . S
C260 C261 1.363 . S
C260 H263 0.929 . S
C261 C260 1.363 . S
C261 C267 1.428 . S
H262 C258 0.930 . S
H263 C260 0.929 . S
S264 N265 1.613 . S
S264 N266 1.610 . S
N265 S264 1.613 . S
N265 C268 1.350 . S
N266 S264 1.610 . S
N266 C267 1.351 . S
C267 C261 1.428 . S
C267 N266 1.351 . S
C267 C268 1.434 . S
C268 C259 1.429 . S
C268 N265 1.350 . S
C268 C267 1.434 . S
C269 C270 1.369 . S
C269 C271 1.419 . S
C269 H273 0.930 . S
C270 C269 1.369 . S
C270 C279 1.429 . S
C271 C269 1.419 . S
C271 C272 1.363 . S
C271 H274 0.929 . S
C272 C271 1.363 . S
C272 C278 1.428 . S
H273 C269 0.930 . S
H274 C271 0.929 . S
S275 N276 1.613 . S
S275 N277 1.610 . S
N276 S275 1.613 . S
N276 C279 1.350 . S
N277 S275 1.610 . S
N277 C278 1.351 . S
C278 C272 1.428 . S
C278 N277 1.351 . S
C278 C279 1.434 . S
C279 C270 1.429 . S
C279 N276 1.350 . S
C279 C278 1.434 . S
C280 C281 1.369 . S
C280 C282 1.419 . S
C280 H284 0.930 . S
C281 C280 1.369 . S
C281 C290 1.429 . S
C282 C280 1.419 . S
C282 C283 1.363 . S
C282 H285 0.929 . S
C283 C282 1.363 . S
C283 C289 1.428 . S
H284 C280 0.930 . S
H285 C282 0.929 . S
S286 N287 1.613 . S
S286 N288 1.610 . S
N287 S286 1.613 . S
N287 C290 1.350 . S
N288 S286 1.610 . S
N288 C289 1.351 . S
C289 C283 1.428 . S
C289 N288 1.351 . S
C289 C290 1.434 . S
C290 C281 1.429 . S
C290 N287 1.350 . S
C290 C289 1.434 . S
C291 C292 1.369 . S
C291 C293 1.419 . S
C291 H295 0.930 . S
C292 C291 1.369 . S
C292 C301 1.429 . S
C293 C291 1.419 . S
C293 C294 1.363 . S
C293 H296 0.929 . S
C294 C293 1.363 . S
C294 C300 1.428 . S
H295 C291 0.930 . S
H296 C293 0.929 . S
S297 N298 1.614 . S
S297 N299 1.610 1_556 S
N298 S297 1.614 . S
N298 C301 1.345 1_556 S
N299 S297 1.610 1_554 S
N299 C300 1.351 . S
C300 C294 1.428 . S
C300 N299 1.351 . S
C300 C301 1.434 . S
C301 C292 1.429 . S
C301 N298 1.345 1_554 S
C301 C300 1.434 . S
C302 C303 1.369 . S
C302 C304 1.419 . S
C302 H306 0.930 . S
C303 C302 1.369 . S
C303 C312 1.429 . S
C304 C302 1.419 . S
C304 C305 1.363 . S
C304 H307 0.929 . S
C305 C304 1.363 . S
C305 C311 1.428 . S
H306 C302 0.930 . S
H307 C304 0.929 . S
S308 N309 1.613 . S
S308 N310 1.610 . S
N309 S308 1.613 . S
N309 C312 1.350 . S
N310 S308 1.610 . S
N310 C311 1.351 . S
C311 C305 1.428 . S
C311 N310 1.351 . S
C311 C312 1.434 . S
C312 C303 1.429 . S
C312 N309 1.350 . S
C312 C311 1.434 . S
C313 C314 1.369 . S
C313 C315 1.419 . S
C313 H317 0.930 . S
C314 C313 1.369 . S
C314 C323 1.429 . S
C315 C313 1.419 . S
C315 C316 1.363 . S
C315 H318 0.929 . S
C316 C315 1.363 . S
C316 C322 1.428 . S
H317 C313 0.930 . S
H318 C315 0.929 . S
S319 N320 1.613 . S
S319 N321 1.610 . S
N320 S319 1.613 . S
N320 C323 1.350 . S
N321 S319 1.610 . S
N321 C322 1.351 . S
C322 C316 1.428 . S
C322 N321 1.351 . S
C322 C323 1.434 . S
C323 C314 1.429 . S
C323 N320 1.350 . S
C323 C322 1.434 . S
C324 C325 1.369 . S
C324 C326 1.419 . S
C324 H328 0.930 . S
C325 C324 1.369 . S
C325 C334 1.429 . S
C326 C324 1.419 . S
C326 C327 1.363 . S
C326 H329 0.929 . S
C327 C326 1.363 . S
C327 C333 1.428 . S
H328 C324 0.930 . S
H329 C326 0.929 . S
S330 N331 1.613 . S
S330 N332 1.610 . S
N331 S330 1.613 . S
N331 C334 1.350 . S
N332 S330 1.610 . S
N332 C333 1.351 . S
C333 C327 1.428 . S
C333 N332 1.351 . S
C333 C334 1.434 . S
C334 C325 1.429 . S
C334 N331 1.350 . S
C334 C333 1.434 . S
C335 C336 1.369 . S
C335 C337 1.419 . S
C335 H339 0.930 . S
C336 C335 1.369 . S
C336 C345 1.429 . S
C337 C335 1.419 . S
C337 C338 1.363 . S
C337 H340 0.929 . S
C338 C337 1.363 . S
C338 C344 1.428 . S
H339 C335 0.930 . S
H340 C337 0.929 . S
S341 N342 1.613 . S
S341 N343 1.610 . S
N342 S341 1.613 . S
N342 C345 1.350 . S
N343 S341 1.610 . S
N343 C344 1.351 . S
C344 C338 1.428 . S
C344 N343 1.351 . S
C344 C345 1.434 . S
C345 C336 1.429 . S
C345 N342 1.350 . S
C345 C344 1.434 . S
C346 C347 1.369 . S
C346 C348 1.419 . S
C346 H350 0.930 . S
C347 C346 1.369 . S
C347 C356 1.429 . S
C348 C346 1.419 . S
C348 C349 1.363 . S
C348 H351 0.929 . S
C349 C348 1.363 . S
C349 C355 1.428 . S
H350 C346 0.930 . S
H351 C348 0.929 . S
S352 N353 1.613 . S
S352 N354 1.610 . S
N353 S352 1.613 . S
N353 C356 1.350 . S
N354 S352 1.610 . S
N354 C355 1.351 . S
C355 C349 1.428 . S
C355 N354 1.351 . S
C355 C356 1.434 . S
C356 C347 1.429 . S
C356 N353 1.350 . S
C356 C355 1.434 . S
C357 C358 1.369 . S
C357 C359 1.419 . S
C357 H361 0.930 . S
C358 C357 1.369 . S
C358 C367 1.429 . S
C359 C357 1.419 . S
C359 C360 1.363 . S
C359 H362 0.929 1_556 S
C360 C359 1.363 . S
C360 C366 1.428 . S
H361 C357 0.930 . S
H362 C359 0.929 1_554 S
S363 N364 1.613 . S
S363 N365 1.610 . S
N364 S363 1.613 . S
N364 C367 1.350 . S
N365 S363 1.610 . S
N365 C366 1.351 . S
C366 C360 1.428 . S
C366 N365 1.351 . S
C366 C367 1.434 . S
C367 C358 1.429 . S
C367 N364 1.350 . S
C367 C366 1.434 . S
C368 C369 1.369 . S
C368 C370 1.419 . S
C368 H372 0.930 . S
C369 C368 1.369 . S
C369 C378 1.429 . S
C370 C368 1.419 . S
C370 C371 1.363 . S
C370 H373 0.929 . S
C371 C370 1.363 . S
C371 C377 1.428 . S
H372 C368 0.930 . S
H373 C370 0.929 . S
S374 N375 1.613 . S
S374 N376 1.610 . S
N375 S374 1.613 . S
N375 C378 1.350 . S
N376 S374 1.610 . S
N376 C377 1.351 . S
C377 C371 1.428 . S
C377 N376 1.351 . S
C377 C378 1.434 . S
C378 C369 1.429 . S
C378 N375 1.350 . S
C378 C377 1.434 . S
C379 C380 1.369 . S
C379 C381 1.419 . S
C379 H383 0.930 . S
C380 C379 1.369 . S
C380 C389 1.429 . S
C381 C379 1.419 . S
C381 C382 1.363 . S
C381 H384 0.929 . S
C382 C381 1.363 . S
C382 C388 1.428 . S
H383 C379 0.930 . S
H384 C381 0.929 . S
S385 N386 1.613 . S
S385 N387 1.610 . S
N386 S385 1.613 . S
N386 C389 1.350 . S
N387 S385 1.610 . S
N387 C388 1.351 . S
C388 C382 1.428 . S
C388 N387 1.351 . S
C388 C389 1.434 . S
C389 C380 1.429 . S
C389 N386 1.350 . S
C389 C388 1.434 . S
C390 C391 1.369 . S
C390 C392 1.419 . S
C390 H394 0.930 . S
C391 C390 1.369 . S
C391 C400 1.429 . S
C392 C390 1.419 . S
C392 C393 1.363 . S
C392 H395 0.929 . S
C393 C392 1.363 . S
C393 C399 1.428 . S
H394 C390 0.930 . S
H395 C392 0.929 . S
S396 N397 1.613 . S
S396 N398 1.610 . S
N397 S396 1.613 . S
N397 C400 1.350 . S
N398 S396 1.610 . S
N398 C399 1.351 . S
C399 C393 1.428 . S
C399 N398 1.351 . S
C399 C400 1.434 . S
C400 C391 1.429 . S
C400 N397 1.350 . S
C400 C399 1.434 . S
C401 C402 1.369 . S
C401 C403 1.419 . S
C401 H405 0.930 . S
C402 C401 1.369 . S
C402 C411 1.429 . S
C403 C401 1.419 . S
C403 C404 1.363 . S
C403 H406 0.929 . S
C404 C403 1.363 . S
C404 C410 1.428 . S
H405 C401 0.930 . S
H406 C403 0.929 . S
S407 N408 1.613 . S
S407 N409 1.610 . S
N408 S407 1.613 . S
N408 C411 1.350 . S
N409 S407 1.610 . S
N409 C410 1.351 . S
C410 C404 1.428 . S
C410 N409 1.351 . S
C410 C411 1.434 . S
C411 C402 1.429 . S
C411 N408 1.350 . S
C411 C410 1.434 . S
C412 C413 1.369 . S
C412 C414 1.419 . S
C412 H416 0.930 . S
C413 C412 1.369 . S
C413 C422 1.429 . S
C414 C412 1.419 . S
C414 C415 1.363 . S
C414 H417 0.929 . S
C415 C414 1.363 . S
C415 C421 1.428 . S
H416 C412 0.930 . S
H417 C414 0.929 . S
S418 N419 1.613 . S
S418 N420 1.610 . S
N419 S418 1.613 . S
N419 C422 1.350 . S
N420 S418 1.610 . S
N420 C421 1.351 . S
C421 C415 1.428 . S
C421 N420 1.351 . S
C421 C422 1.434 . S
C422 C413 1.429 . S
C422 N419 1.350 . S
C422 C421 1.434 . S
C423 C424 1.369 . S
C423 C425 1.419 . S
C423 H427 0.930 . S
C424 C423 1.369 . S
C424 C433 1.429 . S
C425 C423 1.419 . S
C425 C426 1.363 . S
C425 H428 0.929 . S
C426 C425 1.363 . S
C426 C432 1.428 . S
H427 C423 0.930 . S
H428 C425 0.929 . S
S429 N430 1.613 . S
S429 N431 1.610 . S
N430 S429 1.613 . S
N430 C433 1.350 . S
N431 S429 1.610 . S
N431 C432 1.351 . S
C432 C426 1.428 . S
C432 N431 1.351 . S
C432 C433 1.434 . S
C433 C424 1.429 . S
C433 N430 1.350 . S
C433 C432 1.434 . S
C434 C435 1.369 . S
C434 C436 1.419 1_554 S
C434 H438 0.930 . S
C435 C434 1.369 . S
C435 C444 1.429 . S
C436 C434 1.419 1_556 S
C436 C437 1.363 . S
C436 H439 0.929 . S
C437 C436 1.363 . S
C437 C443 1.428 1_556 S
H438 C434 0.930 . S
H439 C436 0.929 . S
S440 N441 1.613 . S
S440 N442 1.610 . S
N441 S440 1.613 . S
N441 C444 1.350 . S
N442 S440 1.610 . S
N442 C443 1.351 . S
C443 C437 1.428 1_554 S
C443 N442 1.351 . S
C443 C444 1.434 . S
C444 C435 1.429 . S
C444 N441 1.350 . S
C444 C443 1.434 . S
C445 C446 1.369 . S
C445 C447 1.419 . S
C445 H449 0.930 . S
C446 C445 1.369 . S
C446 C455 1.429 . S
C447 C445 1.419 . S
C447 C448 1.363 . S
C447 H450 0.929 . S
C448 C447 1.363 . S
C448 C454 1.428 . S
H449 C445 0.930 . S
H450 C447 0.929 . S
S451 N452 1.613 . S
S451 N453 1.610 . S
N452 S451 1.613 . S
N452 C455 1.350 . S
N453 S451 1.610 . S
N453 C454 1.351 . S
C454 C448 1.428 . S
C454 N453 1.351 . S
C454 C455 1.434 . S
C455 C446 1.429 . S
C455 N452 1.350 . S
C455 C454 1.434 . S
C195 C185 1.474 . S
C193 C8 1.444 . S
C204 C26 1.456 . S
C206 C114 1.473 . S
C215 C50 1.458 . S
C217 C128 1.478 . S
C226 C68 1.445 . S
C228 C142 1.475 . S
C239 C156 1.476 . S
C237 C80 1.449 . S
C248 C104 1.451 . S
C250 C171 1.473 . S
C259 C32 1.458 . S
C261 C129 1.478 . S
C270 C44 1.447 . S
C272 C143 1.474 . S
C281 C62 1.454 . S
C283 C157 1.470 . S
C294 C170 1.473 . S
C292 C86 1.450 . S
C305 C184 1.476 . S
C303 C98 1.448 . S
C316 C115 1.475 . S
C314 C14 1.447 . S
C325 C7 1.494 . S
C327 C131 1.521 . S
C336 C25 1.490 . S
C338 C145 1.517 . S
C349 C159 1.516 . S
C347 C52 1.495 . S
C358 C70 1.490 . S
C360 C172 1.519 1_556 S
C371 C186 1.515 . S
C369 C79 1.487 . S
C382 C117 1.518 . S
C380 C106 1.487 . S
C393 C187 1.517 . S
C391 C34 1.487 . S
C402 C43 1.489 . S
C404 C116 1.521 . S
C415 C130 1.523 . S
C413 C61 1.491 . S
C424 C88 1.495 . S
C426 C144 1.516 . S
C435 C97 1.481 . S
C437 C158 1.518 . S
C446 C16 1.491 . S
C448 C173 1.522 . S
