# Generated by pormake.
# Topology eea, (3,6)-cn, num edge types: 1
# Building blocks:
#     Node 0, Type 0, BuildingBlock: QEWDON_clean_linker_0, # of connection points: 3
#     Node 1, Type 0, BuildingBlock: QEWDON_clean_linker_0, # of connection points: 3
#     Node 2, Type 0, BuildingBlock: QEWDON_clean_linker_0, # of connection points: 3
#     Node 3, Type 0, BuildingBlock: QEWDON_clean_linker_0, # of connection points: 3
#     Node 4, Type 0, BuildingBlock: QEWDON_clean_linker_0, # of connection points: 3
#     Node 5, Type 0, BuildingBlock: QEWDON_clean_linker_0, # of connection points: 3
#     Node 6, Type 0, BuildingBlock: QEWDON_clean_linker_0, # of connection points: 3
#     Node 7, Type 0, BuildingBlock: QEWDON_clean_linker_0, # of connection points: 3
#     Node 8, Type 0, BuildingBlock: QEWDON_clean_linker_0, # of connection points: 3
#     Node 9, Type 0, BuildingBlock: QEWDON_clean_linker_0, # of connection points: 3
#     Node 10, Type 0, BuildingBlock: QEWDON_clean_linker_0, # of connection points: 3
#     Node 11, Type 0, BuildingBlock: QEWDON_clean_linker_0, # of connection points: 3
#     Node 12, Type 0, BuildingBlock: QEWDON_clean_linker_0, # of connection points: 3
#     Node 13, Type 0, BuildingBlock: QEWDON_clean_linker_0, # of connection points: 3
#     Node 14, Type 0, BuildingBlock: QEWDON_clean_linker_0, # of connection points: 3
#     Node 15, Type 0, BuildingBlock: QEWDON_clean_linker_0, # of connection points: 3
#     Node 16, Type 0, BuildingBlock: QEWDON_clean_linker_0, # of connection points: 3
#     Node 17, Type 0, BuildingBlock: QEWDON_clean_linker_0, # of connection points: 3
#     Node 18, Type 1, BuildingBlock: NUHQIS_clean_sbu_0, # of connection points: 6
#     Node 19, Type 1, BuildingBlock: NUHQIS_clean_sbu_0, # of connection points: 6
#     Node 20, Type 1, BuildingBlock: NUHQIS_clean_sbu_0, # of connection points: 6
#     Node 21, Type 1, BuildingBlock: NUHQIS_clean_sbu_0, # of connection points: 6
#     Node 22, Type 1, BuildingBlock: NUHQIS_clean_sbu_0, # of connection points: 6
#     Node 23, Type 1, BuildingBlock: NUHQIS_clean_sbu_0, # of connection points: 6
#     Node 24, Type 1, BuildingBlock: NUHQIS_clean_sbu_0, # of connection points: 6
#     Node 25, Type 1, BuildingBlock: NUHQIS_clean_sbu_0, # of connection points: 6
#     Node 26, Type 1, BuildingBlock: NUHQIS_clean_sbu_0, # of connection points: 6
#     Edge 27, Type (0, 1), BuildingBlock: XUDNAN_clean_linker_2, # of connection points: 2
#     Edge 28, Type (0, 1), BuildingBlock: XUDNAN_clean_linker_2, # of connection points: 2
#     Edge 29, Type (0, 1), BuildingBlock: XUDNAN_clean_linker_2, # of connection points: 2
#     Edge 30, Type (0, 1), BuildingBlock: XUDNAN_clean_linker_2, # of connection points: 2
#     Edge 31, Type (0, 1), BuildingBlock: XUDNAN_clean_linker_2, # of connection points: 2
#     Edge 32, Type (0, 1), BuildingBlock: XUDNAN_clean_linker_2, # of connection points: 2
#     Edge 33, Type (0, 1), BuildingBlock: XUDNAN_clean_linker_2, # of connection points: 2
#     Edge 34, Type (0, 1), BuildingBlock: XUDNAN_clean_linker_2, # of connection points: 2
#     Edge 35, Type (0, 1), BuildingBlock: XUDNAN_clean_linker_2, # of connection points: 2
#     Edge 36, Type (0, 1), BuildingBlock: XUDNAN_clean_linker_2, # of connection points: 2
#     Edge 37, Type (0, 1), BuildingBlock: XUDNAN_clean_linker_2, # of connection points: 2
#     Edge 38, Type (0, 1), BuildingBlock: XUDNAN_clean_linker_2, # of connection points: 2
#     Edge 39, Type (0, 1), BuildingBlock: XUDNAN_clean_linker_2, # of connection points: 2
#     Edge 40, Type (0, 1), BuildingBlock: XUDNAN_clean_linker_2, # of connection points: 2
#     Edge 41, Type (0, 1), BuildingBlock: XUDNAN_clean_linker_2, # of connection points: 2
#     Edge 42, Type (0, 1), BuildingBlock: XUDNAN_clean_linker_2, # of connection points: 2
#     Edge 43, Type (0, 1), BuildingBlock: XUDNAN_clean_linker_2, # of connection points: 2
#     Edge 44, Type (0, 1), BuildingBlock: XUDNAN_clean_linker_2, # of connection points: 2
#     Edge 45, Type (0, 1), BuildingBlock: XUDNAN_clean_linker_2, # of connection points: 2
#     Edge 46, Type (0, 1), BuildingBlock: XUDNAN_clean_linker_2, # of connection points: 2
#     Edge 47, Type (0, 1), BuildingBlock: XUDNAN_clean_linker_2, # of connection points: 2
#     Edge 48, Type (0, 1), BuildingBlock: XUDNAN_clean_linker_2, # of connection points: 2
#     Edge 49, Type (0, 1), BuildingBlock: XUDNAN_clean_linker_2, # of connection points: 2
#     Edge 50, Type (0, 1), BuildingBlock: XUDNAN_clean_linker_2, # of connection points: 2
#     Edge 51, Type (0, 1), BuildingBlock: XUDNAN_clean_linker_2, # of connection points: 2
#     Edge 52, Type (0, 1), BuildingBlock: XUDNAN_clean_linker_2, # of connection points: 2
#     Edge 53, Type (0, 1), BuildingBlock: XUDNAN_clean_linker_2, # of connection points: 2
#     Edge 54, Type (0, 1), BuildingBlock: XUDNAN_clean_linker_2, # of connection points: 2
#     Edge 55, Type (0, 1), BuildingBlock: XUDNAN_clean_linker_2, # of connection points: 2
#     Edge 56, Type (0, 1), BuildingBlock: XUDNAN_clean_linker_2, # of connection points: 2
#     Edge 57, Type (0, 1), BuildingBlock: XUDNAN_clean_linker_2, # of connection points: 2
#     Edge 58, Type (0, 1), BuildingBlock: XUDNAN_clean_linker_2, # of connection points: 2
#     Edge 59, Type (0, 1), BuildingBlock: XUDNAN_clean_linker_2, # of connection points: 2
#     Edge 60, Type (0, 1), BuildingBlock: XUDNAN_clean_linker_2, # of connection points: 2
#     Edge 61, Type (0, 1), BuildingBlock: XUDNAN_clean_linker_2, # of connection points: 2
#     Edge 62, Type (0, 1), BuildingBlock: XUDNAN_clean_linker_2, # of connection points: 2
#     Edge 63, Type (0, 1), BuildingBlock: XUDNAN_clean_linker_2, # of connection points: 2
#     Edge 64, Type (0, 1), BuildingBlock: XUDNAN_clean_linker_2, # of connection points: 2
#     Edge 65, Type (0, 1), BuildingBlock: XUDNAN_clean_linker_2, # of connection points: 2
#     Edge 66, Type (0, 1), BuildingBlock: XUDNAN_clean_linker_2, # of connection points: 2
#     Edge 67, Type (0, 1), BuildingBlock: XUDNAN_clean_linker_2, # of connection points: 2
#     Edge 68, Type (0, 1), BuildingBlock: XUDNAN_clean_linker_2, # of connection points: 2
#     Edge 69, Type (0, 1), BuildingBlock: XUDNAN_clean_linker_2, # of connection points: 2
#     Edge 70, Type (0, 1), BuildingBlock: XUDNAN_clean_linker_2, # of connection points: 2
#     Edge 71, Type (0, 1), BuildingBlock: XUDNAN_clean_linker_2, # of connection points: 2
#     Edge 72, Type (0, 1), BuildingBlock: XUDNAN_clean_linker_2, # of connection points: 2
#     Edge 73, Type (0, 1), BuildingBlock: XUDNAN_clean_linker_2, # of connection points: 2
#     Edge 74, Type (0, 1), BuildingBlock: XUDNAN_clean_linker_2, # of connection points: 2
#     Edge 75, Type (0, 1), BuildingBlock: XUDNAN_clean_linker_2, # of connection points: 2
#     Edge 76, Type (0, 1), BuildingBlock: XUDNAN_clean_linker_2, # of connection points: 2
#     Edge 77, Type (0, 1), BuildingBlock: XUDNAN_clean_linker_2, # of connection points: 2
#     Edge 78, Type (0, 1), BuildingBlock: XUDNAN_clean_linker_2, # of connection points: 2
#     Edge 79, Type (0, 1), BuildingBlock: XUDNAN_clean_linker_2, # of connection points: 2
#     Edge 80, Type (0, 1), BuildingBlock: XUDNAN_clean_linker_2, # of connection points: 2
# Relax obj value: 0.087
# Max RMSD: 0.262
# Mean RMSD: 0.181
data_MOF--net-eea--node1-NUHQIS_clean_sbu_0--node2-QEWDON_clean_linker_0--edge1-XUDNAN_clean_linker_2
_symmetry_space_group_name_H-M    P1
_symmetry_Int_Tables_number       1
_symmetry_cell_setting            triclinic
loop_
_symmetry_equiv_pos_as_xyz
'x, y, z'
_cell_length_a     57.757863
_cell_length_b     58.601356
_cell_length_c     67.384652
_cell_angle_alpha  93.109706
_cell_angle_beta   93.204181
_cell_angle_gamma 120.01097
loop_
_atom_site_label
_atom_site_type_symbol
_atom_site_fract_x
_atom_site_fract_y
_atom_site_fract_z
_atom_type_partial_charge
H0 H 0.19868 0.1143 0.43241 0.0
C1 C 0.20096 0.09893 0.42467 0.0
C2 C 0.21697 0.08991 0.43385 0.0
C3 C 0.18695 0.08754 0.40588 0.0
H4 H 0.23238 0.06326 0.43037 0.0
C5 C 0.2199 0.07014 0.42345 0.0
C6 C 0.20625 0.0588 0.40439 0.0
C7 C 0.18946 0.06741 0.39591 0.0
C8 C 0.16822 0.09543 0.39729 0.0
H9 H 0.17793 0.05823 0.3816 0.0
C10 C 0.17757 0.12161 0.39284 0.0
C11 C 0.15942 0.12914 0.38535 0.0
C12 C 0.14067 0.07677 0.39399 0.0
H13 H 0.13312 0.0565 0.39736 0.0
C14 C 0.12259 0.08428 0.38674 0.0
H15 H 0.19885 0.13607 0.39522 0.0
C16 C 0.13186 0.11036 0.38253 0.0
H17 H 0.11758 0.1158 0.37675 0.0
H18 H 0.10135 0.06985 0.38438 0.0
H19 H 0.91164 0.10217 0.42881 0.0
C20 C 0.92604 0.12015 0.42278 0.0
C21 C 0.93627 0.14463 0.43411 0.0
C22 C 0.93475 0.11854 0.40401 0.0
H23 H 0.96388 0.18651 0.43542 0.0
C24 C 0.95529 0.16781 0.42631 0.0
C25 C 0.96421 0.1668 0.40738 0.0
C26 C 0.95363 0.14195 0.39635 0.0
C27 C 0.92531 0.0922 0.39304 0.0
H28 H 0.95987 0.14073 0.38165 0.0
C29 C 0.89804 0.07214 0.39165 0.0
C30 C 0.88956 0.04671 0.38237 0.0
C31 C 0.9439 0.08659 0.38473 0.0
H32 H 0.96502 0.10147 0.38578 0.0
C33 C 0.93558 0.06144 0.37551 0.0
H34 H 0.88345 0.07623 0.39789 0.0
C35 C 0.90864 0.04157 0.37441 0.0
H36 H 0.90264 0.02228 0.36702 0.0
H37 H 0.9501 0.0573 0.36927 0.0
H38 H 0.93342 0.80395 0.44286 0.0
C39 C 0.91678 0.80471 0.43531 0.0
C40 C 0.89247 0.79566 0.44429 0.0
C41 C 0.92029 0.81615 0.41716 0.0
H42 H 0.85349 0.79274 0.44191 0.0
C43 C 0.87157 0.79819 0.43463 0.0
C44 C 0.87491 0.80972 0.41639 0.0
C45 C 0.89888 0.8174 0.40751 0.0
C46 C 0.94722 0.83109 0.40963 0.0
H47 H 0.90161 0.82586 0.39332 0.0
C48 C 0.96303 0.81954 0.4054 0.0
C49 C 0.98753 0.83426 0.3968 0.0
C50 C 0.95677 0.85762 0.40599 0.0
H51 H 0.94528 0.86712 0.40938 0.0
C52 C 0.98109 0.87224 0.39794 0.0
H53 H 0.95593 0.79913 0.40811 0.0
C54 C 0.99629 0.86067 0.39327 0.0
H55 H 0.01522 0.87259 0.3871 0.0
H56 H 0.98815 0.89264 0.39525 0.0
H57 H 0.1302 0.22466 0.59292 0.0
C58 C 0.11442 0.22608 0.59984 0.0
C59 C 0.10663 0.24387 0.59329 0.0
C60 C 0.10191 0.21025 0.6153 0.0
H61 H 0.07924 0.25831 0.59636 0.0
C62 C 0.08577 0.24528 0.602 0.0
C63 C 0.07297 0.22975 0.61749 0.0
C64 C 0.08146 0.21254 0.62413 0.0
C65 C 0.10953 0.19087 0.6222 0.0
H66 H 0.07244 0.20117 0.63651 0.0
C67 C 0.13661 0.19704 0.62463 0.0
C68 C 0.14327 0.17878 0.63216 0.0
C69 C 0.08933 0.16589 0.62681 0.0
H70 H 0.06833 0.16019 0.62467 0.0
C71 C 0.09585 0.14781 0.63411 0.0
H72 H 0.15249 0.21619 0.62127 0.0
C73 C 0.12257 0.1542 0.63688 0.0
H74 H 0.12702 0.13965 0.64237 0.0
H75 H 0.08007 0.12869 0.63759 0.0
H76 H 0.8269 0.92149 0.59917 0.0
C77 C 0.8215 0.90352 0.60623 0.0
C78 C 0.80751 0.879 0.5947 0.0
C79 C 0.82948 0.90484 0.6266 0.0
H80 H 0.79102 0.83696 0.59438 0.0
C81 C 0.80123 0.85575 0.60353 0.0
C82 C 0.80876 0.85668 0.62384 0.0
C83 C 0.82272 0.88126 0.63528 0.0
C84 C 0.84559 0.93072 0.63881 0.0
H85 H 0.8282 0.88198 0.65104 0.0
C86 C 0.83951 0.95102 0.63715 0.0
C87 C 0.85456 0.97531 0.64903 0.0
C88 C 0.86714 0.93512 0.65241 0.0
H89 H 0.87266 0.92009 0.65379 0.0
C90 C 0.88208 0.95912 0.66421 0.0
H91 H 0.8227 0.94772 0.62697 0.0
C92 C 0.87586 0.97911 0.66259 0.0
H93 H 0.88805 0.99773 0.6717 0.0
H94 H 0.89867 0.96232 0.67457 0.0
H95 H 0.08905 0.87175 0.58786 0.0
C96 C 0.10735 0.88994 0.59327 0.0
C97 C 0.13086 0.89768 0.58364 0.0
C98 C 0.10688 0.90638 0.60909 0.0
H99 H 0.1723 0.92783 0.58325 0.0
C100 C 0.15421 0.92164 0.59065 0.0
C101 C 0.15417 0.93861 0.60621 0.0
C102 C 0.13044 0.93061 0.61551 0.0
C103 C 0.08103 0.89999 0.61711 0.0
H104 H 0.12988 0.94374 0.62719 0.0
C105 C 0.06342 0.87468 0.62308 0.0
C106 C 0.03849 0.8689 0.62982 0.0
C107 C 0.07343 0.91935 0.61808 0.0
H108 H 0.08633 0.93881 0.61335 0.0
C109 C 0.04883 0.91367 0.6247 0.0
H110 H 0.06903 0.85958 0.62242 0.0
C111 C 0.03145 0.88866 0.63048 0.0
H112 H 0.01259 0.88488 0.63579 0.0
H113 H 0.04319 0.92873 0.62532 0.0
H114 H 0.87859 0.46101 0.76718 0.0
C115 C 0.87858 0.4444 0.75923 0.0
C116 C 0.89721 0.43689 0.76557 0.0
C117 C 0.85914 0.42988 0.74319 0.0
H118 H 0.91142 0.40958 0.75979 0.0
C119 C 0.89665 0.41504 0.75531 0.0
C120 C 0.8778 0.40094 0.73876 0.0
C121 C 0.8588 0.40821 0.73308 0.0
C122 C 0.83877 0.43695 0.73714 0.0
H123 H 0.84372 0.39708 0.72065 0.0
C124 C 0.84647 0.46173 0.73023 0.0
C125 C 0.82694 0.46822 0.72422 0.0
C126 C 0.81143 0.41864 0.73795 0.0
H127 H 0.80516 0.3994 0.74317 0.0
C128 C 0.79201 0.42515 0.73225 0.0
H129 H 0.86758 0.47583 0.72946 0.0
C130 C 0.79967 0.44981 0.72546 0.0
H131 H 0.78425 0.45433 0.72085 0.0
H132 H 0.77096 0.411 0.73301 0.0
H133 H 0.57231 0.44143 0.7713 0.0
C134 C 0.58753 0.45538 0.76259 0.0
C135 C 0.59648 0.48252 0.76593 0.0
C136 C 0.59822 0.44609 0.74819 0.0
H137 H 0.62276 0.52133 0.7568 0.0
C138 C 0.61604 0.50042 0.7544 0.0
C139 C 0.62699 0.49143 0.73985 0.0
C140 C 0.61804 0.46419 0.73701 0.0
C141 C 0.58903 0.41748 0.74505 0.0
H142 H 0.62651 0.45697 0.72607 0.0
C143 C 0.56158 0.39861 0.74062 0.0
C144 C 0.55295 0.37144 0.7371 0.0
C145 C 0.60783 0.40898 0.74626 0.0
H146 H 0.62904 0.42315 0.74971 0.0
C147 C 0.59939 0.3821 0.74322 0.0
H148 H 0.54706 0.40516 0.73961 0.0
C149 C 0.5722 0.36344 0.73862 0.0
H150 H 0.56636 0.34281 0.73573 0.0
H151 H 0.61403 0.37572 0.74419 0.0
H152 H 0.59341 0.13649 0.78248 0.0
C153 C 0.57619 0.13405 0.77325 0.0
C154 C 0.55041 0.12085 0.78003 0.0
C155 C 0.58033 0.1455 0.75514 0.0
H156 H 0.50851 0.10815 0.77287 0.0
C157 C 0.5284 0.1182 0.76778 0.0
C158 C 0.53218 0.12936 0.74933 0.0
C159 C 0.5584 0.1432 0.74334 0.0
C160 C 0.608 0.16406 0.75052 0.0
H161 H 0.56208 0.15333 0.72987 0.0
C162 C 0.62364 0.15534 0.74088 0.0
C163 C 0.65035 0.17371 0.73744 0.0
C164 C 0.61901 0.19108 0.75644 0.0
H165 H 0.60726 0.19808 0.76387 0.0
C166 C 0.64529 0.20925 0.753 0.0
H167 H 0.61521 0.13446 0.73634 0.0
C168 C 0.66089 0.20068 0.74364 0.0
H169 H 0.68116 0.21529 0.74096 0.0
H170 H 0.65362 0.23006 0.75763 0.0
H171 H 0.79557 0.54633 0.92368 0.0
C172 C 0.77837 0.54699 0.92864 0.0
C173 C 0.7669 0.55899 0.91731 0.0
C174 C 0.76684 0.53431 0.94556 0.0
H175 H 0.73468 0.56755 0.9147 0.0
C176 C 0.74405 0.55897 0.9236 0.0
C177 C 0.73219 0.54654 0.9406 0.0
C178 C 0.74402 0.53466 0.95163 0.0
C179 C 0.77626 0.51756 0.95504 0.0
H180 H 0.73457 0.5244 0.96436 0.0
C181 C 0.8039 0.52612 0.95878 0.0
C182 C 0.81218 0.5089 0.96607 0.0
C183 C 0.75722 0.49178 0.95904 0.0
H184 H 0.73591 0.48436 0.95599 0.0
C185 C 0.76537 0.47485 0.96636 0.0
H186 H 0.81889 0.54592 0.95583 0.0
C187 C 0.7926 0.48324 0.96975 0.0
H188 H 0.79839 0.46974 0.97554 0.0
H189 H 0.75048 0.45503 0.96926 0.0
H190 H 0.47941 0.25303 0.92021 0.0
C191 C 0.48097 0.23832 0.92838 0.0
C192 C 0.46252 0.21132 0.92331 0.0
C193 C 0.50197 0.24645 0.94343 0.0
H194 H 0.44994 0.17156 0.93036 0.0
C195 C 0.46472 0.19235 0.93388 0.0
C196 C 0.48516 0.20031 0.94956 0.0
C197 C 0.5041 0.22742 0.95383 0.0
C198 C 0.52168 0.27489 0.94838 0.0
H199 H 0.5204 0.23388 0.96548 0.0
C200 C 0.51301 0.29269 0.95383 0.0
C201 C 0.53171 0.31974 0.9587 0.0
C202 C 0.54923 0.28431 0.9478 0.0
H203 H 0.5563 0.27088 0.94364 0.0
C204 C 0.56784 0.31121 0.95231 0.0
H205 H 0.49174 0.28543 0.95442 0.0
C206 C 0.55919 0.32887 0.95769 0.0
H207 H 0.57402 0.34958 0.96149 0.0
H208 H 0.58905 0.31837 0.95174 0.0
H209 H 0.76036 0.21552 0.92357 0.0
C210 C 0.77925 0.23331 0.92859 0.0
C211 C 0.80128 0.24125 0.91715 0.0
C212 C 0.7812 0.24881 0.94604 0.0
H213 H 0.84236 0.27092 0.9148 0.0
C214 C 0.82546 0.26471 0.92361 0.0
C215 C 0.82774 0.28096 0.94062 0.0
C216 C 0.80562 0.2725 0.95194 0.0
C217 C 0.75726 0.24168 0.9573 0.0
H218 H 0.80706 0.28483 0.96504 0.0
C219 C 0.73931 0.21526 0.96103 0.0
C220 C 0.71688 0.20907 0.97182 0.0
C221 C 0.75215 0.26167 0.96427 0.0
H222 H 0.76499 0.28202 0.96125 0.0
C223 C 0.7301 0.25567 0.97489 0.0
H224 H 0.74307 0.19967 0.95588 0.0
C225 C 0.71261 0.22966 0.97866 0.0
H226 H 0.69531 0.22562 0.98653 0.0
H227 H 0.72638 0.27125 0.98005 0.0
H228 H 0.5347 0.78675 0.09341 0.0
C229 C 0.53925 0.77309 0.08546 0.0
C230 C 0.55519 0.76443 0.0953 0.0
C231 C 0.52848 0.76362 0.06558 0.0
H232 H 0.57301 0.73979 0.09235 0.0
C233 C 0.56085 0.74662 0.08483 0.0
C234 C 0.55026 0.73703 0.06489 0.0
C235 C 0.53404 0.74563 0.05548 0.0
C236 C 0.51041 0.77148 0.05546 0.0
H237 H 0.52521 0.73793 0.04027 0.0
C238 C 0.51789 0.7983 0.05539 0.0
C239 C 0.50098 0.8057 0.04525 0.0
C240 C 0.48571 0.75201 0.04543 0.0
H241 H 0.47938 0.73121 0.04539 0.0
C242 C 0.46878 0.75917 0.03554 0.0
H243 H 0.5372 0.81336 0.06275 0.0
C244 C 0.47629 0.78578 0.03543 0.0
H245 H 0.46254 0.79071 0.02787 0.0
H246 H 0.4497 0.74401 0.02798 0.0
H247 H 0.25346 0.76991 0.10038 0.0
C248 C 0.2673 0.7882 0.0944 0.0
C249 C 0.27715 0.8124 0.10602 0.0
C250 C 0.27555 0.78727 0.07534 0.0
H251 H 0.30343 0.85459 0.10745 0.0
C252 C 0.29526 0.83601 0.09823 0.0
C253 C 0.30382 0.8356 0.07907 0.0
C254 C 0.29373 0.81103 0.06776 0.0
C255 C 0.26601 0.76129 0.06383 0.0
H256 H 0.2997 0.81032 0.05288 0.0
C257 C 0.23875 0.74131 0.06249 0.0
C258 C 0.23001 0.71618 0.05259 0.0
C259 C 0.28438 0.75593 0.05486 0.0
H260 H 0.3055 0.77082 0.05582 0.0
C261 C 0.2758 0.73102 0.04504 0.0
H262 H 0.22436 0.74527 0.06924 0.0
C263 C 0.24884 0.7112 0.04398 0.0
H264 H 0.24261 0.69211 0.03611 0.0
H265 H 0.29013 0.72703 0.03828 0.0
H266 H 0.2528 0.45786 0.12083 0.0
C267 C 0.2392 0.46027 0.11058 0.0
C268 C 0.21143 0.44637 0.11248 0.0
C269 C 0.24972 0.47761 0.09567 0.0
H270 H 0.17286 0.43944 0.10048 0.0
C271 C 0.19423 0.45011 0.09908 0.0
C272 C 0.20435 0.46782 0.08422 0.0
C273 C 0.2323 0.48139 0.08264 0.0
C274 C 0.27922 0.4947 0.09579 0.0
H275 H 0.24082 0.49585 0.0719 0.0
C276 C 0.29421 0.489 0.08257 0.0
C277 C 0.32252 0.50543 0.0836 0.0
C278 C 0.29254 0.51689 0.10984 0.0
H279 H 0.28137 0.52152 0.12012 0.0
C280 C 0.32029 0.53334 0.11073 0.0
H281 H 0.28394 0.47163 0.0719 0.0
C282 C 0.33516 0.52775 0.09775 0.0
H283 H 0.35664 0.54123 0.09867 0.0
H284 H 0.33035 0.55057 0.12152 0.0
H285 H 0.45942 0.87903 0.25026 0.0
C286 C 0.44474 0.88215 0.25741 0.0
C287 C 0.43472 0.89711 0.24862 0.0
C288 C 0.43501 0.87004 0.27483 0.0
H289 H 0.40688 0.91123 0.25078 0.0
C290 C 0.41527 0.90052 0.25794 0.0
C291 C 0.40546 0.88879 0.27569 0.0
C292 C 0.41566 0.87365 0.28397 0.0
C293 C 0.4427 0.85112 0.28218 0.0
H294 H 0.40856 0.86445 0.29757 0.0
C295 C 0.46979 0.8587 0.28723 0.0
C296 C 0.47657 0.83996 0.29332 0.0
C297 C 0.42257 0.82477 0.28341 0.0
H298 H 0.40164 0.81847 0.2795 0.0
C299 C 0.42926 0.80616 0.28923 0.0
H300 H 0.48545 0.87904 0.28645 0.0
C301 C 0.45605 0.81362 0.29409 0.0
H302 H 0.46072 0.7989 0.29889 0.0
H303 H 0.4136 0.78586 0.29002 0.0
H304 H 0.16611 0.57993 0.24783 0.0
C305 C 0.16575 0.56661 0.25853 0.0
C306 C 0.14887 0.5391 0.25435 0.0
C307 C 0.18335 0.57707 0.27604 0.0
H308 H 0.1356 0.50122 0.26564 0.0
C309 C 0.14934 0.52236 0.26832 0.0
C310 C 0.16755 0.53246 0.28558 0.0
C311 C 0.18445 0.56001 0.2894 0.0
C312 C 0.20225 0.60578 0.27951 0.0
H313 H 0.19901 0.56824 0.30242 0.0
C314 C 0.19394 0.62283 0.28756 0.0
C315 C 0.21196 0.65034 0.29044 0.0
C316 C 0.22863 0.61621 0.27439 0.0
H317 H 0.23528 0.60327 0.26816 0.0
C318 C 0.24653 0.64346 0.27712 0.0
H319 H 0.17349 0.6147 0.29142 0.0
C320 C 0.23828 0.66046 0.28505 0.0
H321 H 0.25265 0.6815 0.28728 0.0
H322 H 0.26687 0.65142 0.27312 0.0
H323 H 0.42628 0.54302 0.25286 0.0
C324 C 0.44477 0.56089 0.25851 0.0
C325 C 0.46766 0.56973 0.24794 0.0
C326 C 0.44509 0.57588 0.27566 0.0
H327 H 0.50892 0.60009 0.24726 0.0
C328 C 0.4913 0.59323 0.25535 0.0
C329 C 0.49201 0.60884 0.27228 0.0
C330 C 0.46879 0.59977 0.28244 0.0
C331 C 0.41978 0.56855 0.28491 0.0
H332 H 0.46867 0.61184 0.29515 0.0
C333 C 0.40302 0.54278 0.29045 0.0
C334 C 0.37858 0.5362 0.29846 0.0
C335 C 0.41186 0.58754 0.28758 0.0
H336 H 0.42416 0.60736 0.28324 0.0
C337 C 0.38774 0.58105 0.29543 0.0
H338 H 0.4089 0.52796 0.2885 0.0
C339 C 0.37116 0.55559 0.30079 0.0
H340 H 0.35265 0.55115 0.30706 0.0
H341 H 0.38182 0.59583 0.29734 0.0
Tb342 Tb 0.49781 0.00458 0.99364 0.0
Eu343 Eu 0.51628 0.02981 0.04164 0.0
C344 C 0.51546 0.97656 0.02518 0.0
C345 C 0.45688 0.98405 0.02573 0.0
C346 C 0.49048 0.00507 0.93924 0.0
C347 C 0.49419 0.00783 0.90352 0.0
C348 C 0.48648 0.99273 0.91993 0.0
C349 C 0.50178 0.03263 0.9419 0.0
C350 C 0.50939 0.04767 0.92558 0.0
C351 C 0.50615 0.03559 0.90617 0.0
C352 C 0.48473 0.9897 0.95678 0.0
O353 O 0.48844 0.03638 0.99774 0.0
O354 O 0.51623 0.06208 0.02567 0.0
O355 O 0.55487 0.04938 0.02665 0.0
O356 O 0.53779 0.03853 0.99345 0.0
C357 C 0.5009 0.05878 0.0094 0.0
O358 O 0.50673 0.04327 0.06934 0.0
O359 O 0.54248 0.04013 0.06921 0.0
O360 O 0.51213 0.98979 0.03994 0.0
O361 O 0.51419 0.9815 0.00644 0.0
O362 O 0.46614 0.97698 0.01069 0.0
O363 O 0.47116 0.00737 0.03581 0.0
C364 C 0.5578 0.05151 0.00747 0.0
O365 O 0.50571 0.99142 0.9666 0.0
O366 O 0.46907 0.99224 0.96883 0.0
C367 C 0.5178 0.02689 0.0977 0.0
C368 C 0.49935 0.99401 0.12942 0.0
C369 C 0.49048 0.01196 0.12576 0.0
C370 C 0.49962 0.02821 0.11009 0.0
C371 C 0.52726 0.00951 0.10173 0.0
C372 C 0.51822 0.99338 0.11739 0.0
C373 C 0.52585 0.04269 0.0802 0.0
H374 H 0.49164 0.99783 0.88888 0.0
H375 H 0.478 0.97149 0.9176 0.0
H376 H 0.50526 0.04259 0.95671 0.0
H377 H 0.51817 0.06889 0.92824 0.0
H378 H 0.47585 0.0129 0.13462 0.0
H379 H 0.49203 0.04144 0.10739 0.0
H380 H 0.54138 0.00799 0.09262 0.0
H381 H 0.52598 0.98026 0.11998 0.0
Tb382 Tb 0.03099 0.51044 0.98846 0.0
Eu383 Eu 1.01087 0.4955 0.03307 0.0
C384 C 0.05762 0.55235 0.0256 0.0
C385 C 0.06247 0.49402 0.01931 0.0
C386 C 0.03265 0.51558 0.93362 0.0
C387 C 0.03475 0.52383 0.89871 0.0
C388 C 0.04719 0.5294 0.91814 0.0
C389 C 1.00557 0.49585 0.92949 0.0
C390 C 0.99312 0.49013 0.91002 0.0
C391 C 1.00754 0.50426 0.89445 0.0
C392 C 0.04576 0.52261 0.95407 0.0
O393 O 1.0055 0.46767 0.98559 0.0
O394 O 0.97943 0.46186 0.01149 0.0
O395 O 0.99123 0.51703 0.01997 0.0
O396 O 0.99061 0.50498 0.98698 0.0
C397 C 0.9836 0.4534 0.99434 0.0
O398 O 0.99614 0.46778 0.05593 0.0
O399 O 1.00123 0.50694 0.06135 0.0
O400 O 0.05084 0.53349 0.03749 0.0
O401 O 0.04637 0.54742 0.00725 0.0
O402 O 0.06396 0.50908 1.00503 0.0
O403 O 0.04136 0.48278 0.02943 0.0
C404 C 0.98158 0.51367 1.00126 0.0
O405 O 0.03881 0.536 0.9659 0.0
O406 O 0.04669 0.50376 0.96283 0.0
C407 C 1.01096 0.48842 0.0888 0.0
C408 C 0.0392 0.49283 0.12563 0.0
C409 C 0.0163 0.46871 0.11824 0.0
C410 C 1.00224 0.46658 0.10002 0.0
C411 C 0.03376 0.51263 0.09625 0.0
C412 C 0.04764 0.51484 0.11457 0.0
C413 C 0.99673 0.4853 0.06909 0.0
H414 H 0.04643 0.53483 0.887 0.0
H415 H 0.06811 0.54471 0.92111 0.0
H416 H 0.99401 0.48517 0.94137 0.0
H417 H 0.97207 0.47515 0.90723 0.0
H418 H 1.00928 0.4515 0.12655 0.0
H419 H 0.98474 0.44774 0.09455 0.0
H420 H 0.04112 0.52976 0.08782 0.0
H421 H 0.06541 0.53356 0.11983 0.0
Tb422 Tb 0.52845 0.51908 0.02526 0.0
Eu423 Eu 0.50786 0.52085 0.97834 0.0
C424 C 0.50752 0.4706 0.99337 0.0
C425 C 0.5672 0.53036 0.99085 0.0
C426 C 0.52804 0.51901 0.08036 0.0
C427 C 0.53373 0.54143 0.11334 0.0
C428 C 0.54439 0.53868 0.09579 0.0
C429 C 0.5008 0.50196 0.08294 0.0
C430 C 0.49022 0.50456 0.10053 0.0
C431 C 0.50645 0.52445 0.11592 0.0
C432 C 0.53949 0.51662 0.0617 0.0
O433 O 0.54426 0.56074 0.02111 0.0
O434 O 0.51432 0.5576 0.9956 0.0
O435 O 0.47083 0.50257 0.99511 0.0
O436 O 0.49111 0.51967 0.02693 0.0
C437 C 0.53278 0.57115 0.01045 0.0
O438 O 0.51012 0.54326 0.95305 0.0
O439 O 0.48275 0.50087 0.95033 0.0
O440 O 0.51389 0.48602 0.97887 0.0
O441 O 0.50464 0.47859 0.01115 0.0
O442 O 0.56014 0.52011 0.00799 0.0
O443 O 0.55255 0.53746 0.98005 0.0
C444 C 0.4696 0.50842 0.01402 0.0
O445 O 0.52421 0.49607 0.04909 0.0
O446 O 0.55204 0.53796 0.05258 0.0
C447 C 0.50335 0.52013 0.92158 0.0
C448 C 0.52177 0.51644 0.88427 0.0
C449 C 0.5386 0.52272 0.90202 0.0
C450 C 0.52952 0.52477 0.92048 0.0
C451 C 0.48643 0.5137 0.90393 0.0
C452 C 0.4956 0.51202 0.8854 0.0
C453 C 0.49378 0.5223 0.94103 0.0
H454 H 0.54678 0.55719 0.12474 0.0
H455 H 0.56542 0.5521 0.09418 0.0
H456 H 0.48756 0.48655 0.07139 0.0
H457 H 0.46932 0.49075 0.10214 0.0
H458 H 0.55896 0.52659 0.90161 0.0
H459 H 0.54301 0.53032 0.9339 0.0
H460 H 0.46617 0.5101 0.90448 0.0
H461 H 0.48214 0.50698 0.87197 0.0
Tb462 Tb 0.16827 0.33323 0.32809 0.0
Eu463 Eu 0.18607 0.35313 0.37655 0.0
C464 C 0.18244 0.301 0.35692 0.0
C465 C 0.12563 0.3117 0.35938 0.0
C466 C 0.15934 0.33093 0.27205 0.0
C467 C 0.15529 0.32546 0.23579 0.0
C468 C 0.15239 0.31474 0.25414 0.0
C469 C 0.16961 0.35824 0.2714 0.0
C470 C 0.1725 0.36905 0.25296 0.0
C471 C 0.16513 0.35271 0.23489 0.0
C472 C 0.15591 0.31874 0.29107 0.0
O473 O 0.15987 0.36525 0.33381 0.0
O474 O 0.18716 0.38763 0.36282 0.0
O475 O 0.22442 0.3701 0.36106 0.0
O476 O 0.20669 0.36964 0.32952 0.0
C477 C 0.1726 0.38648 0.34669 0.0
O478 O 0.18279 0.3712 0.40467 0.0
O479 O 0.20926 0.35499 0.40398 0.0
O480 O 0.17546 0.3107 0.37187 0.0
O481 O 0.18709 0.31184 0.33996 0.0
O482 O 0.13463 0.30533 0.34375 0.0
O483 O 0.14107 0.3332 0.37138 0.0
C484 C 0.22724 0.37828 0.34305 0.0
O485 O 0.17767 0.32216 0.30086 0.0
O486 O 0.14019 0.32148 0.30293 0.0
C487 C 0.18818 0.35274 0.43404 0.0
C488 C 0.17238 0.33308 0.47152 0.0
C489 C 0.16694 0.35222 0.46438 0.0
C490 C 0.17486 0.362 0.44597 0.0
C491 C 0.19306 0.3331 0.44088 0.0
C492 C 0.18519 0.32334 0.45939 0.0
C493 C 0.19802 0.36482 0.41519 0.0
H494 H 0.14996 0.31232 0.22228 0.0
H495 H 0.1447 0.29368 0.25432 0.0
H496 H 0.17527 0.37112 0.28511 0.0
H497 H 0.18001 0.39008 0.25286 0.0
H498 H 0.15667 0.35985 0.47309 0.0
H499 H 0.17086 0.37715 0.44118 0.0
H500 H 0.2034 0.32558 0.43213 0.0
H501 H 0.18989 0.30876 0.46445 0.0
Tb502 Tb 0.6899 0.83639 0.3226 0.0
Eu503 Eu 0.67324 0.82399 0.36828 0.0
C504 C 0.71768 0.88103 0.35792 0.0
C505 C 0.72494 0.82459 0.35325 0.0
C506 C 0.68125 0.8354 0.26768 0.0
C507 C 0.66711 0.81182 0.23443 0.0
C508 C 0.6841 0.82023 0.2522 0.0
C509 C 0.66117 0.84215 0.265 0.0
C510 C 0.64438 0.83398 0.2472 0.0
C511 C 0.647 0.81858 0.23169 0.0
C512 C 0.69894 0.84364 0.28657 0.0
O513 O 0.66767 0.79376 0.32354 0.0
O514 O 0.64034 0.78962 0.34795 0.0
O515 O 0.65154 0.84378 0.35547 0.0
O516 O 0.64963 0.83068 0.32249 0.0
C517 C 0.64489 0.78026 0.33141 0.0
O518 O 0.66215 0.7983 0.39252 0.0
O519 O 0.66572 0.83688 0.39695 0.0
O520 O 0.71216 0.86313 0.37056 0.0
O521 O 0.7057 0.87465 0.33971 0.0
O522 O 0.72514 0.8393 0.33906 0.0
O523 O 0.70364 0.81146 0.36287 0.0
C524 C 0.64122 0.83986 0.33688 0.0
O525 O 0.69776 0.86062 0.29916 0.0
O526 O 0.69963 0.82484 0.29559 0.0
C527 C 0.68056 0.82257 0.42448 0.0
C528 C 0.71539 0.83703 0.45993 0.0
C529 C 0.71222 0.81674 0.4459 0.0
C530 C 0.69507 0.80964 0.42835 0.0
C531 C 0.6832 0.84237 0.43868 0.0
C532 C 0.70049 0.84961 0.45616 0.0
C533 C 0.66355 0.8165 0.40546 0.0
H534 H 0.6695 0.79967 0.22298 0.0
H535 H 0.69933 0.81466 0.25394 0.0
H536 H 0.65833 0.85375 0.27665 0.0
H537 H 0.62949 0.83999 0.24558 0.0
H538 H 0.72295 0.80625 0.44846 0.0
H539 H 0.69347 0.79422 0.41777 0.0
H540 H 0.67225 0.85265 0.43609 0.0
H541 H 0.70262 0.8655 0.46648 0.0
Tb542 Tb 0.20395 0.84668 0.3681 0.0
Eu543 Eu 0.18378 0.84652 0.3209 0.0
C544 C 0.18993 0.7996 0.33644 0.0
C545 C 0.24518 0.86786 0.33592 0.0
C546 C 0.20648 0.85102 0.42284 0.0
C547 C 0.19896 0.84435 0.45773 0.0
C548 C 0.21102 0.84223 0.44079 0.0
C549 C 0.19008 0.86236 0.42209 0.0
C550 C 0.17801 0.86447 0.43898 0.0
C551 C 0.18199 0.85515 0.45695 0.0
C552 C 0.21668 0.84609 0.40451 0.0
O553 O 0.21027 0.88642 0.36524 0.0
O554 O 0.18255 0.88014 0.33689 0.0
O555 O 0.14569 0.82662 0.33656 0.0
O556 O 0.16387 0.84061 0.36934 0.0
C557 C 0.19759 0.89442 0.35314 0.0
O558 O 0.18711 0.86656 0.29394 0.0
O559 O 0.15981 0.82431 0.2931 0.0
O560 O 0.19571 0.81561 0.32239 0.0
O561 O 0.18576 0.80624 0.35422 0.0
O562 O 0.23752 0.85311 0.35096 0.0
O563 O 0.22867 0.87304 0.32564 0.0
C564 C 0.14322 0.82953 0.35573 0.0
O565 O 0.19923 0.82523 0.39298 0.0
O566 O 0.22983 0.86629 0.39429 0.0
C567 C 0.1842 0.84019 0.26536 0.0
C568 C 0.20755 0.83093 0.23245 0.0
C569 C 0.18598 0.83559 0.22951 0.0
C570 C 0.17437 0.84013 0.24586 0.0
C571 C 0.20593 0.83594 0.26838 0.0
C572 C 0.21749 0.83136 0.2521 0.0
C573 C 0.17194 0.84452 0.28264 0.0
H574 H 0.20227 0.83678 0.47125 0.0
H575 H 0.22336 0.83313 0.44157 0.0
H576 H 0.18618 0.86913 0.40832 0.0
H577 H 0.16545 0.8733 0.43791 0.0
H578 H 0.1777 0.83514 0.21458 0.0
H579 H 0.15761 0.84339 0.24328 0.0
H580 H 0.21391 0.83609 0.28336 0.0
H581 H 0.23432 0.82827 0.25492 0.0
Tb582 Tb 0.82818 0.66509 0.65519 0.0
Eu583 Eu 0.84035 0.68333 0.70423 0.0
C584 C 0.84381 0.6341 0.68513 0.0
C585 C 0.7841 0.63294 0.68401 0.0
C586 C 0.83053 0.67412 0.60089 0.0
C587 C 0.83335 0.6791 0.56529 0.0
C588 C 0.82486 0.66292 0.58104 0.0
C589 C 0.84437 0.70179 0.60476 0.0
C590 C 0.85291 0.71799 0.58905 0.0
C591 C 0.84783 0.70689 0.56908 0.0
C592 C 0.82312 0.65689 0.61743 0.0
O593 O 0.80739 0.6863 0.66259 0.0
O594 O 0.83524 0.71421 0.68943 0.0
O595 O 0.8801 0.70278 0.69082 0.0
O596 O 0.86308 0.70474 0.65998 0.0
C597 C 0.81728 0.70838 0.6743 0.0
O598 O 0.82899 0.69445 0.73203 0.0
O599 O 0.86537 0.69233 0.73224 0.0
O600 O 0.83698 0.64378 0.70019 0.0
O601 O 0.8469 0.64371 0.66762 0.0
O602 O 0.79489 0.63202 0.66745 0.0
O603 O 0.79622 0.65314 0.69783 0.0
C604 C 0.88343 0.71279 0.67354 0.0
O605 O 0.84318 0.65911 0.62893 0.0
O606 O 0.80439 0.656 0.62785 0.0
C607 C 0.84042 0.67833 0.7606 0.0
C608 C 0.82519 0.64745 0.79367 0.0
C609 C 0.81088 0.65968 0.78707 0.0
C610 C 0.81842 0.67495 0.77075 0.0
C611 C 0.85501 0.6665 0.76746 0.0
C612 C 0.84748 0.65126 0.78372 0.0
C613 C 0.84816 0.69413 0.74305 0.0
H614 H 0.8293 0.66982 0.55019 0.0
H615 H 0.8143 0.64161 0.57773 0.0
H616 H 0.84891 0.71088 0.61997 0.0
H617 H 0.86361 0.73926 0.59256 0.0
H618 H 0.79351 0.65704 0.79426 0.0
H619 H 0.80687 0.68395 0.76597 0.0
H620 H 0.87228 0.66889 0.76024 0.0
H621 H 0.85932 0.6426 0.78859 0.0
Tb622 Tb 0.3577 0.16756 0.6552 0.0
Eu623 Eu 0.33419 0.15414 0.69949 0.0
C624 C 0.38255 0.21055 0.69191 0.0
C625 C 0.38569 0.15012 0.68789 0.0
C626 C 0.35713 0.17123 0.60084 0.0
C627 C 0.33911 0.14423 0.56898 0.0
C628 C 0.35582 0.15187 0.58684 0.0
C629 C 0.34226 0.18362 0.59624 0.0
C630 C 0.32564 0.17603 0.57843 0.0
C631 C 0.32341 0.15587 0.56478 0.0
C632 C 0.37257 0.17719 0.6206 0.0
O633 O 0.33101 0.12495 0.6531 0.0
O634 O 0.30357 0.12021 0.67785 0.0
O635 O 0.31333 0.17317 0.68386 0.0
O636 O 0.31861 0.16435 0.6513 0.0
C637 C 0.30839 0.11133 0.6612 0.0
O638 O 0.31859 0.12765 0.72302 0.0
O639 O 0.32261 0.16654 0.72642 0.0
O640 O 0.37412 0.19216 0.70433 0.0
O641 O 0.37284 0.20512 0.67311 0.0
O642 O 0.38865 0.16483 0.67307 0.0
O643 O 0.36442 0.14055 0.69795 0.0
C644 C 0.30708 0.17153 0.66455 0.0
O645 O 0.37144 0.19417 0.63321 0.0
O646 O 0.37022 0.1569 0.62928 0.0
C647 C 0.32882 0.14927 0.75559 0.0
C648 C 0.35146 0.16061 0.79553 0.0
C649 C 0.3241 0.15207 0.79103 0.0
C650 C 0.3129 0.14647 0.77123 0.0
C651 C 0.356 0.15721 0.75991 0.0
C652 C 0.36723 0.16274 0.77976 0.0
C653 C 0.31708 0.14512 0.73491 0.0
H654 H 0.33775 0.12855 0.55882 0.0
H655 H 0.36713 0.14207 0.58997 0.0
H656 H 0.34292 0.19879 0.60657 0.0
H657 H 0.31424 0.18578 0.57547 0.0
H658 H 0.31137 0.14992 0.80284 0.0
H659 H 0.29188 0.14035 0.76812 0.0
H660 H 0.3686 0.1596 0.74796 0.0
H661 H 0.38842 0.16952 0.78273 0.0
Tb662 Tb 0.86008 0.18379 0.69551 0.0
Eu663 Eu 0.84519 0.18827 0.648 0.0
C664 C 0.84635 0.13818 0.66195 0.0
C665 C 0.90471 0.20444 0.66591 0.0
C666 C 0.8588 0.18552 0.75053 0.0
C667 C 0.85328 0.18087 0.78584 0.0
C668 C 0.86372 0.17709 0.76852 0.0
C669 C 0.8435 0.19807 0.75008 0.0
C670 C 0.83301 0.20184 0.7674 0.0
C671 C 0.8376 0.19311 0.7855 0.0
C672 C 0.86796 0.17938 0.73208 0.0
O673 O 0.87139 0.2252 0.69346 0.0
O674 O 0.84532 0.22202 0.66503 0.0
O675 O 0.80564 0.16747 0.66182 0.0
O676 O 0.82208 0.18296 0.69453 0.0
C677 C 0.86045 0.23512 0.68156 0.0
O678 O 0.85267 0.21071 0.62194 0.0
O679 O 0.82208 0.16923 0.61926 0.0
O680 O 0.8538 0.15524 0.6486 0.0
O681 O 0.84227 0.14411 0.68001 0.0
O682 O 0.89476 0.18911 0.68039 0.0
O683 O 0.89023 0.21127 0.65472 0.0
C684 C 0.80204 0.17194 0.68044 0.0
O685 O 0.84905 0.16062 0.7197 0.0
O686 O 0.88444 0.19941 0.72281 0.0
C687 C 0.84865 0.18489 0.59257 0.0
C688 C 0.87056 0.17306 0.55982 0.0
C689 C 0.85013 0.17933 0.55674 0.0
C690 C 0.83922 0.18514 0.573 0.0
C691 C 0.86935 0.17917 0.59573 0.0
C692 C 0.88021 0.17334 0.57953 0.0
C693 C 0.83658 0.18984 0.60975 0.0
H694 H 0.85694 0.17357 0.7994 0.0
H695 H 0.87522 0.1671 0.76909 0.0
H696 H 0.83937 0.20462 0.73629 0.0
H697 H 0.82137 0.21166 0.76661 0.0
H698 H 0.84209 0.17905 0.54176 0.0
H699 H 0.82321 0.18946 0.57031 0.0
H700 H 0.87694 0.17897 0.61076 0.0
H701 H 0.89619 0.16902 0.58247 0.0
H702 H 0.34525 0.84394 0.05628 0.0
H703 H 0.30759 0.88432 0.08374 0.0
H704 H 0.34144 0.92616 0.07178 0.0
H705 H 0.41263 0.8957 0.06668 0.0
H706 H 0.42327 0.88997 0.04321 0.0
H707 H 0.39573 0.86303 0.05355 0.0
H708 H 0.36522 0.85376 0.02092 0.0
H709 H 0.39272 0.88072 0.01049 0.0
H710 H 0.3613 0.88007 0.01171 0.0
H711 H 0.38102 0.96418 0.05872 0.0
H712 H 0.42269 0.99537 0.04444 0.0
H713 H 0.43279 0.92991 0.02336 0.0
C714 C 0.34373 0.86142 0.05951 0.0
C715 C 0.32366 0.86069 0.07109 0.0
C716 C 0.32295 0.88431 0.07524 0.0
C717 C 0.34198 0.90818 0.06835 0.0
C718 C 0.36149 0.90816 0.0571 0.0
C719 C 0.36239 0.88537 0.05256 0.0
C720 C 0.38572 0.89083 0.04046 0.0
C721 C 0.4055 0.88451 0.05165 0.0
C722 C 0.37563 0.87543 0.01966 0.0
C723 C 0.39801 0.92034 0.03913 0.0
C724 C 0.38374 0.92994 0.04889 0.0
C725 C 0.39212 0.95683 0.05078 0.0
C726 C 0.41581 0.9744 0.04265 0.0
C727 C 0.4307 0.96501 0.03255 0.0
C728 C 0.42144 0.93757 0.03058 0.0
H729 H 0.15833 0.46828 0.09339 0.0
H730 H 0.20796 0.47854 0.0447 0.0
H731 H 0.17786 0.48719 0.02307 0.0
H732 H 0.095 0.4328 0.06289 0.0
H733 H 0.07954 0.44756 0.07718 0.0
H734 H 0.1057 0.44334 0.08906 0.0
H735 H 0.13292 0.49347 0.10079 0.0
H736 H 0.10684 0.49779 0.0889 0.0
H737 H 0.1409 0.51721 0.08263 0.0
H738 H 0.14229 0.4956 0.00673 0.0
H739 H 0.10317 0.50048 0.99676 0.0
H740 H 0.07519 0.48121 0.05532 0.0
C741 C 0.16283 0.47195 0.07812 0.0
C742 C 0.18583 0.47273 0.07092 0.0
C743 C 0.19092 0.47826 0.05085 0.0
C744 C 0.17377 0.48304 0.03834 0.0
C745 C 0.15134 0.48201 0.04596 0.0
C746 C 0.14574 0.47639 0.06535 0.0
C747 C 0.12 0.47582 0.0698 0.0
C748 C 0.09881 0.44824 0.07504 0.0
C749 C 0.12551 0.49736 0.08652 0.0
C750 C 0.11195 0.48196 0.04988 0.0
C751 C 0.13041 0.48575 0.03636 0.0
C752 C 0.12761 0.49245 0.01716 0.0
C753 C 0.10535 0.49522 0.01163 0.0
C754 C 0.08592 0.49095 0.02514 0.0
C755 C 0.08941 0.48421 0.0445 0.0
H756 H 0.54974 0.69372 0.07937 0.0
H757 H 0.55989 0.73432 0.02571 0.0
H758 H 0.56012 0.69752 0.00639 0.0
H759 H 0.5929 0.66502 0.0667 0.0
H760 H 0.57149 0.6348 0.07754 0.0
H761 H 0.57492 0.66561 0.08757 0.0
H762 H 0.52324 0.6448 0.08248 0.0
H763 H 0.51967 0.61409 0.07226 0.0
H764 H 0.50593 0.63047 0.058 0.0
H765 H 0.55222 0.65385 0.99208 0.0
H766 H 0.54155 0.60767 0.9843 0.0
H767 H 0.5406 0.59675 0.04742 0.0
C768 C 0.55289 0.69531 0.0637 0.0
C769 C 0.55457 0.71686 0.05404 0.0
C770 C 0.55809 0.71783 0.03339 0.0
C771 C 0.55845 0.69711 0.0223 0.0
C772 C 0.55581 0.67577 0.03214 0.0
C773 C 0.55364 0.67492 0.05244 0.0
C774 C 0.54979 0.64906 0.05915 0.0
C775 C 0.57371 0.65392 0.07359 0.0
C776 C 0.52307 0.63371 0.06852 0.0
C777 C 0.54917 0.63517 0.03933 0.0
C778 C 0.55266 0.65095 0.02394 0.0
C779 C 0.55018 0.64155 1.00404 0.0
C780 C 0.54399 0.61532 0.99975 0.0
C781 C 0.54076 0.59902 0.0153 0.0
C782 C 0.54373 0.60916 0.03534 0.0
H783 H 0.85198 0.30847 0.97791 0.0
H784 H 0.85931 0.31488 0.91427 0.0
H785 H 0.90041 0.35796 0.92158 0.0
H786 H 0.87247 0.3776 0.98952 0.0
H787 H 0.89006 0.38057 0.01334 0.0
H788 H 0.86183 0.34908 1.0034 0.0
H789 H 0.89149 0.3276 0.00654 0.0
H790 H 0.91985 0.35905 0.0164 0.0
H791 H 0.92231 0.3413 0.99469 0.0
H792 H 0.94105 0.39963 0.93518 0.0
H793 H 0.97699 0.43998 0.95439 0.0
H794 H 0.94196 0.41005 0.00933 0.0
C795 C 0.86207 0.31891 0.96547 0.0
C796 C 0.8525 0.30756 0.94547 0.0
C797 C 0.86654 0.32226 0.92974 0.0
C798 C 0.88987 0.34703 0.93371 0.0
C799 C 0.89881 0.35737 0.95348 0.0
C800 C 0.88521 0.34408 0.96913 0.0
C801 C 0.89866 0.36051 0.98895 0.0
C802 C 0.87962 0.36734 0.99942 0.0
C803 C 0.90867 0.34626 1.00244 0.0
C804 C 0.92198 0.38498 0.98191 0.0
C805 C 0.92173 0.38247 0.96138 0.0
C806 C 0.9414 0.40195 0.95125 0.0
C807 C 0.96183 0.42478 0.96235 0.0
C808 C 0.96232 0.42825 0.98338 0.0
C809 C 0.94205 0.40803 0.99327 0.0
H810 H 0.71543 0.55306 0.97737 0.0
H811 H 0.68842 0.53111 0.91422 0.0
H812 H 0.64383 0.52356 0.92096 0.0
H813 H 0.65245 0.50543 0.99565 0.0
H814 H 0.65479 0.52755 0.01634 0.0
H815 H 0.68491 0.53108 0.00693 0.0
H816 H 0.70093 0.58 1.00152 0.0
H817 H 0.6709 0.57663 0.01098 0.0
H818 H 0.67936 0.58781 0.98661 0.0
H819 H 0.60228 0.51729 0.93392 0.0
H820 H 0.56604 0.51561 0.95227 0.0
H821 H 0.61833 0.5429 0.0075 0.0
C822 C 0.70007 0.54665 0.965 0.0
C823 C 0.7056 0.54294 0.94519 0.0
C824 C 0.68496 0.53459 0.92942 0.0
C825 C 0.65943 0.53001 0.93313 0.0
C826 C 0.65467 0.53386 0.95271 0.0
C827 C 0.67433 0.54216 0.96843 0.0
C828 C 0.66366 0.54532 0.98798 0.0
C829 C 0.66398 0.5262 1.00259 0.0
C830 C 0.67967 0.57416 0.99732 0.0
C831 C 0.63502 0.53762 0.98069 0.0
C832 C 0.63043 0.53089 0.96027 0.0
C833 C 0.60576 0.52291 0.94984 0.0
C834 C 0.58536 0.52234 0.96038 0.0
C835 C 0.58954 0.53 0.98115 0.0
C836 C 0.61461 0.53719 0.99158 0.0
H837 H 0.47658 0.15057 0.93752 0.0
H838 H 0.49622 0.2056 0.99005 0.0
H839 H 0.5007 0.17464 0.01097 0.0
H840 H 0.43701 0.09034 0.96248 0.0
H841 H 0.44871 0.07164 0.94845 0.0
H842 H 0.44613 0.09776 0.93749 0.0
H843 H 0.49629 0.12026 0.93079 0.0
H844 H 0.49876 0.09412 0.9417 0.0
H845 H 0.5214 0.12809 0.95123 0.0
H846 H 0.50584 0.13949 0.02596 0.0
H847 H 0.50965 0.10106 0.03444 0.0
H848 H 0.48452 0.06729 0.97274 0.0
C849 C 0.48144 0.15594 0.95346 0.0
C850 C 0.48638 0.18072 0.96208 0.0
C851 C 0.49293 0.18704 0.983 0.0
C852 C 0.4953 0.16948 0.99506 0.0
C853 C 0.49074 0.14548 0.98607 0.0
C854 C 0.48372 0.13851 0.9658 0.0
C855 C 0.48041 0.1116 0.95997 0.0
C856 C 0.45133 0.09166 0.9516 0.0
C857 C 0.50043 0.11368 0.94504 0.0
C858 C 0.48716 0.10482 0.98008 0.0
C859 C 0.49302 0.12468 0.9949 0.0
C860 C 0.50102 0.12365 0.01454 0.0
C861 C 0.50322 0.10177 0.01919 0.0
C862 C 0.49728 0.0811 1.00429 0.0
C863 C 0.48889 0.0826 0.98451 0.0
H864 H 0.69139 0.19096 1.00575 0.0
H865 H 0.69669 0.16434 0.94569 0.0
H866 H 0.65961 0.1195 0.94998 0.0
H867 H 0.67231 0.12823 0.02834 0.0
H868 H 0.64956 0.13183 0.04371 0.0
H869 H 0.6789 0.16078 0.03697 0.0
H870 H 0.64875 0.178 0.0222 0.0
H871 H 0.61937 0.14913 0.02882 0.0
H872 H 0.62166 0.15727 1.00332 0.0
H873 H 0.61829 0.07956 0.95899 0.0
H874 H 0.57681 0.04679 0.97243 0.0
H875 H 0.59802 0.09884 0.02689 0.0
C876 C 0.68503 0.17562 0.99358 0.0
C877 C 0.69707 0.18126 0.97535 0.0
C878 C 0.68816 0.16052 0.95988 0.0
C879 C 0.66699 0.13498 0.96216 0.0
C880 C 0.65507 0.13037 0.98008 0.0
C881 C 0.66394 0.15005 0.99561 0.0
C882 C 0.6465 0.14045 0.01279 0.0
C883 C 0.66279 0.14031 0.03157 0.0
C884 C 0.63329 0.15721 0.01702 0.0
C885 C 0.62588 0.11253 1.00426 0.0
C886 C 0.63136 0.10709 0.98542 0.0
C887 C 0.6141 0.08341 0.97386 0.0
C888 C 0.59053 0.06496 0.98161 0.0
C889 C 0.58434 0.07013 1.00081 0.0
C890 C 0.60254 0.09407 0.0124 0.0
H891 H 0.83839 0.48348 0.95331 0.0
H892 H 0.85062 0.55277 0.98944 0.0
H893 H 0.89671 0.56324 1.00087 0.0
H894 H 0.8716 0.46374 0.98681 0.0
H895 H 0.8867 0.4533 0.96838 0.0
H896 H 0.85577 0.45262 0.96163 0.0
H897 H 0.87739 0.4823 0.9332 0.0
H898 H 0.90838 0.48288 0.93976 0.0
H899 H 0.90822 0.51349 0.93885 0.0
H900 H 0.93881 0.56239 0.01186 0.0
H901 H 0.97589 0.55339 0.01867 0.0
H902 H 0.93781 0.4865 0.97353 0.0
C903 C 0.85102 0.50115 0.96332 0.0
C904 C 0.84103 0.5174 0.97049 0.0
C905 C 0.85802 0.54028 0.98362 0.0
C906 C 0.88414 0.54627 0.99025 0.0
C907 C 0.89313 0.52944 0.9833 0.0
C908 C 0.87727 0.50764 0.9698 0.0
C909 C 0.89144 0.49237 0.96502 0.0
C910 C 0.87542 0.46382 0.97081 0.0
C911 C 0.89667 0.49279 0.94289 0.0
C912 C 0.91744 0.5085 0.97841 0.0
C913 C 0.91796 0.52974 0.9889 0.0
C914 C 0.93887 0.54619 1.00341 0.0
C915 C 0.95977 0.54086 0.00724 0.0
C916 C 0.95987 0.51951 0.99642 0.0
C917 C 0.93853 0.50332 0.98168 0.0
H918 H 0.54671 0.36853 0.94613 0.0
H919 H 0.49671 0.31291 0.98656 0.0
H920 H 0.48336 0.34474 0.99903 0.0
H921 H 0.57076 0.42699 0.97893 0.0
H922 H 0.57009 0.44695 0.95973 0.0
H923 H 0.57487 0.41941 0.95354 0.0
H924 H 0.53397 0.39963 0.92683 0.0
H925 H 0.52909 0.42715 0.93296 0.0
H926 H 0.50194 0.39375 0.93396 0.0
H927 H 0.47831 0.3841 0.00884 0.0
H928 H 0.47975 0.427 0.01373 0.0
H929 H 0.53136 0.45579 0.96575 0.0
C930 C 0.53288 0.36306 0.95756 0.0
C931 C 0.52271 0.33831 0.96541 0.0
C932 C 0.5045 0.3317 0.98023 0.0
C933 C 0.49691 0.34967 0.98745 0.0
C934 C 0.50748 0.37401 0.97951 0.0
C935 C 0.52487 0.38062 0.96475 0.0
C936 C 0.53352 0.40811 0.95883 0.0
C937 C 0.56412 0.42644 0.96301 0.0
C938 C 0.52405 0.40708 0.93684 0.0
C939 C 0.51857 0.41607 0.97274 0.0
C940 C 0.50376 0.39622 0.98464 0.0
C941 C 0.48951 0.39965 0.99942 0.0
C942 C 0.49048 0.42404 1.00212 0.0
C943 C 0.50532 0.44449 0.98993 0.0
C944 C 0.51935 0.44028 0.97499 0.0
H945 H 0.20824 0.66407 0.05988 0.0
H946 H 0.18695 0.72119 0.04062 0.0
H947 H 0.13929 0.68582 0.03473 0.0
H948 H 0.16477 0.6116 0.02464 0.0
H949 H 0.15591 0.58596 0.04125 0.0
H950 H 0.18786 0.61612 0.04566 0.0
H951 H 0.17706 0.62359 0.08143 0.0
H952 H 0.14501 0.59339 0.07709 0.0
H953 H 0.14658 0.62409 0.08488 0.0
H954 H 0.09545 0.6436 0.02669 0.0
H955 H 0.05763 0.59766 0.01919 0.0
H956 H 0.10633 0.5681 0.0458 0.0
C957 C 0.19345 0.66913 0.05466 0.0
C958 C 0.20121 0.69534 0.05071 0.0
C959 C 0.18136 0.70129 0.04393 0.0
C960 C 0.15428 0.68133 0.04051 0.0
C961 C 0.14734 0.65562 0.04427 0.0
C962 C 0.16628 0.64951 0.05146 0.0
C963 C 0.15365 0.62012 0.05357 0.0
C964 C 0.1663 0.60773 0.0405 0.0
C965 C 0.1557 0.615 0.07555 0.0
C966 C 0.12482 0.61052 0.04579 0.0
C967 C 0.12163 0.63134 0.04052 0.0
C968 C 0.09751 0.62721 0.03121 0.0
C969 C 0.07619 0.60112 0.02698 0.0
C970 C 0.07903 0.57958 0.03233 0.0
C971 C 0.10347 0.58436 0.04216 0.0
H972 H 0.37247 0.51141 0.0928 0.0
H973 H 0.31094 0.48779 0.04351 0.0
H974 H 0.34076 0.48329 0.02059 0.0
H975 H 0.42778 0.55172 0.06677 0.0
H976 H 0.45014 0.5426 0.07899 0.0
H977 H 0.42302 0.54142 0.09167 0.0
H978 H 0.4059 0.49242 0.09706 0.0
H979 H 0.43257 0.49307 0.08399 0.0
H980 H 0.39815 0.4688 0.07585 0.0
H981 H 0.37903 0.48457 1.00258 0.0
H982 H 0.42165 0.49086 0.99128 0.0
H983 H 0.45832 0.51486 0.05243 0.0
C984 C 0.36513 0.5052 0.0772 0.0
C985 C 0.33924 0.50004 0.07001 0.0
C986 C 0.33046 0.49156 0.0495 0.0
C987 C 0.34736 0.48911 0.03633 0.0
C988 C 0.37299 0.49506 0.04387 0.0
C989 C 0.38173 0.50278 0.06389 0.0
C990 C 0.41046 0.50898 0.06819 0.0
C991 C 0.42893 0.5379 0.07691 0.0
C992 C 0.41183 0.48966 0.0821 0.0
C993 C 0.41686 0.50429 0.04738 0.0
C994 C 0.39491 0.49598 0.03357 0.0
C995 C 0.39625 0.49091 0.01332 0.0
C996 C 0.42061 0.49456 0.00704 0.0
C997 C 0.44349 0.5034 0.0209 0.0
C998 C 0.44132 0.5081 0.04137 0.0
H999 H 0.49303 0.83051 0.01418 0.0
H1000 H 0.52604 0.84498 0.07609 0.0
H1001 H 0.53702 0.89143 0.0764 0.0
H1002 H 0.54023 0.89547 0.99874 0.0
H1003 H 0.51485 0.89694 0.98297 0.0
H1004 H 0.51171 0.86538 0.98694 0.0
H1005 H 0.46471 0.84923 0.99928 0.0
H1006 H 0.46768 0.88067 0.99526 0.0
H1007 H 0.46114 0.86838 0.01948 0.0
H1008 H 0.54095 0.93483 0.07106 0.0
H1009 H 0.53775 0.97278 0.06047 0.0
H1010 H 0.50194 0.93061 1.00196 0.0
C1011 C 0.50264 0.84343 0.0278 0.0
C1012 C 0.50877 0.83404 0.04511 0.0
C1013 C 0.52156 0.85175 0.06255 0.0
C1014 C 0.52778 0.87816 0.0629 0.0
C1015 C 0.52116 0.88662 0.04567 0.0
C1016 C 0.50892 0.86984 0.02843 0.0
C1017 C 0.50266 0.8836 0.01232 0.0
C1018 C 0.5183 0.88546 0.99417 0.0
C1019 C 0.47225 0.86964 1.00624 0.0
C1020 C 0.5129 0.91063 0.02333 0.0
C1021 C 0.5236 0.91191 0.04252 0.0
C1022 C 0.53293 0.93419 0.05601 0.0
C1023 C 0.53094 0.95561 0.04984 0.0
C1024 C 0.51976 0.95469 0.03034 0.0
C1025 C 0.51104 0.93204 0.01681 0.0
H1026 H 1.00501 0.17313 0.38436 0.0
H1027 H 0.97107 0.21687 0.41239 0.0
H1028 H 1.00719 0.25811 0.40145 0.0
H1029 H 0.07325 0.22063 0.39535 0.0
H1030 H 0.08311 0.21475 0.37156 0.0
H1031 H 0.05421 0.18862 0.38129 0.0
H1032 H 0.0254 0.18355 0.3486 0.0
H1033 H 0.05444 0.20997 0.33911 0.0
H1034 H 0.02442 0.21193 0.34058 0.0
H1035 H 0.04914 0.29516 0.39017 0.0
H1036 H 0.09277 0.32509 0.37773 0.0
H1037 H 0.09753 0.25728 0.35437 0.0
C1038 C 1.0047 0.19121 0.38787 0.0
C1039 C 0.9851 0.19153 0.39949 0.0
C1040 C 0.98604 0.21595 0.40396 0.0
C1041 C 1.00638 0.23954 0.39762 0.0
C1042 C 0.02545 0.23848 0.38645 0.0
C1043 C 0.0246 0.21491 0.38137 0.0
C1044 C 0.04777 0.21932 0.3694 0.0
C1045 C 0.06563 0.21029 0.38007 0.0
C1046 C 0.03738 0.20536 0.34816 0.0
C1047 C 0.06232 0.24918 0.36917 0.0
C1048 C 0.04901 0.2598 0.37906 0.0
C1049 C 0.05947 0.28704 0.38208 0.0
C1050 C 0.08428 0.30389 0.37501 0.0
C1051 C 0.09828 0.29349 0.36483 0.0
C1052 C 0.08691 0.26574 0.36163 0.0
H1053 H 0.81877 0.78068 0.41297 0.0
H1054 H 0.88641 0.8552 0.39965 0.0
H1055 H 0.8556 0.86586 0.38151 0.0
H1056 H 0.778 0.76591 0.3673 0.0
H1057 H 0.74666 0.75364 0.3783 0.0
H1058 H 0.77378 0.75132 0.39067 0.0
H1059 H 0.7721 0.77682 0.42268 0.0
H1060 H 0.74476 0.77896 0.41047 0.0
H1061 H 0.7747 0.80863 0.42113 0.0
H1062 H 0.81844 0.86775 0.36291 0.0
H1063 H 0.77603 0.86311 0.34836 0.0
H1064 H 0.73126 0.78934 0.3753 0.0
C1065 C 0.82706 0.79934 0.40642 0.0
C1066 C 0.85523 0.81663 0.40726 0.0
C1067 C 0.86509 0.84102 0.39862 0.0
C1068 C 0.84771 0.84744 0.38837 0.0
C1069 C 0.82028 0.82965 0.38719 0.0
C1070 C 0.80984 0.80637 0.39631 0.0
C1071 C 0.77932 0.79123 0.39304 0.0
C1072 C 0.76883 0.76391 0.38165 0.0
C1073 C 0.767 0.78877 0.41302 0.0
C1074 C 0.7745 0.8094 0.38032 0.0
C1075 C 0.79849 0.83136 0.37708 0.0
C1076 C 0.79947 0.85071 0.36543 0.0
C1077 C 0.77525 0.84778 0.35707 0.0
C1078 C 0.75029 0.82581 0.36056 0.0
C1079 C 0.75001 0.80635 0.37233 0.0
H1080 H 0.20838 0.01696 0.41965 0.0
H1081 H 0.20925 0.05196 0.36428 0.0
H1082 H 0.2087 0.01444 0.34551 0.0
H1083 H 0.25243 0.99118 0.40515 0.0
H1084 H 0.23445 0.96167 0.41774 0.0
H1085 H 0.23617 0.99196 0.42704 0.0
H1086 H 0.18419 0.96768 0.42491 0.0
H1087 H 0.18233 0.93742 0.41546 0.0
H1088 H 0.16493 0.95063 0.40147 0.0
H1089 H 0.2037 0.97158 0.33244 0.0
H1090 H 0.19852 0.92734 0.32597 0.0
H1091 H 0.20432 0.9212 0.38974 0.0
C1092 C 0.20907 0.01708 0.40363 0.0
C1093 C 0.20858 0.03737 0.39345 0.0
C1094 C 0.20906 0.03644 0.37241 0.0
C1095 C 0.20894 0.01529 0.36161 0.0
C1096 C 0.2088 0.99538 0.37205 0.0
C1097 C 0.20929 0.99623 0.3926 0.0
C1098 C 0.20857 0.97193 0.40006 0.0
C1099 C 0.23445 0.97965 0.41328 0.0
C1100 C 0.18351 0.95598 0.41112 0.0
C1101 C 0.20701 0.95707 0.38043 0.0
C1102 C 0.20707 0.97097 0.36448 0.0
C1103 C 0.20406 0.96067 0.34479 0.0
C1104 C 0.20098 0.93549 0.34127 0.0
C1105 C 0.20124 0.92103 0.35736 0.0
C1106 C 0.20452 0.93207 0.37719 0.0
H1107 H 0.51356 0.63513 0.31027 0.0
H1108 H 0.52481 0.64422 0.2473 0.0
H1109 H 0.565 0.68768 0.2561 0.0
H1110 H 0.53279 0.70391 0.32325 0.0
H1111 H 0.54924 0.70609 0.34739 0.0
H1112 H 0.52164 0.67478 0.33645 0.0
H1113 H 0.5516 0.65367 0.34 0.0
H1114 H 0.57932 0.68494 0.35087 0.0
H1115 H 0.58317 0.66828 0.32912 0.0
H1116 H 0.60435 0.72923 0.27104 0.0
H1117 H 0.63946 0.76886 0.29144 0.0
H1118 H 0.60198 0.73628 0.34505 0.0
C1119 C 0.52435 0.64628 0.29831 0.0
C1120 C 0.51615 0.63562 0.27805 0.0
C1121 C 0.531 0.65115 0.26295 0.0
C1122 C 0.55381 0.67612 0.26777 0.0
C1123 C 0.56143 0.68578 0.28777 0.0
C1124 C 0.54706 0.67162 0.30284 0.0
C1125 C 0.55942 0.68732 0.32309 0.0
C1126 C 0.53959 0.69338 0.33313 0.0
C1127 C 0.56894 0.67268 0.33656 0.0
C1128 C 0.58306 0.71235 0.31696 0.0
C1129 C 0.5838 0.71076 0.29649 0.0
C1130 C 0.60395 0.73081 0.28708 0.0
C1131 C 0.62392 0.7532 0.29886 0.0
C1132 C 0.62356 0.75566 0.31987 0.0
C1133 C 0.6027 0.73498 0.32903 0.0
H1134 H 0.36387 0.85188 0.29548 0.0
H1135 H 0.39779 0.93168 0.27746 0.0
H1136 H 0.36161 0.93555 0.29211 0.0
H1137 H 0.29509 0.83242 0.28709 0.0
H1138 H 0.28549 0.81439 0.30887 0.0
H1139 H 0.31394 0.81783 0.29678 0.0
H1140 H 0.34375 0.83809 0.33038 0.0
H1141 H 0.31525 0.83476 0.34239 0.0
H1142 H 0.34548 0.86662 0.3435 0.0
H1143 H 0.32006 0.92973 0.30685 0.0
H1144 H 0.27732 0.91527 0.32188 0.0
H1145 H 0.27281 0.84111 0.33323 0.0
C1146 C 0.36415 0.87043 0.29488 0.0
C1147 C 0.38391 0.89145 0.28513 0.0
C1148 C 0.38278 0.91504 0.28442 0.0
C1149 C 0.36239 0.91755 0.29289 0.0
C1150 C 0.34338 0.89647 0.30233 0.0
C1151 C 0.34421 0.87345 0.30354 0.0
C1152 C 0.32132 0.85373 0.31453 0.0
C1153 C 0.30288 0.82809 0.30099 0.0
C1154 C 0.3321 0.84797 0.33385 0.0
C1155 C 0.3072 0.86909 0.31903 0.0
C1156 C 0.32021 0.89367 0.31177 0.0
C1157 C 0.30998 0.91073 0.31289 0.0
C1158 C 0.28572 0.90237 0.32145 0.0
C1159 C 0.27214 0.87736 0.32907 0.0
C1160 C 0.28323 0.86067 0.32806 0.0
H1161 H 0.16455 0.48533 0.27439 0.0
H1162 H 0.17566 0.53767 0.32672 0.0
H1163 H 0.17872 0.50627 0.34834 0.0
H1164 H 0.12184 0.42481 0.29503 0.0
H1165 H 0.13568 0.40692 0.28267 0.0
H1166 H 0.13568 0.43414 0.2715 0.0
H1167 H 0.18716 0.45665 0.27005 0.0
H1168 H 0.18742 0.42965 0.2814 0.0
H1169 H 0.20859 0.4631 0.29262 0.0
H1170 H 0.18075 0.46874 0.36414 0.0
H1171 H 0.18021 0.42788 0.37269 0.0
H1172 H 0.16467 0.39964 0.30982 0.0
C1173 C 0.16732 0.49017 0.2904 0.0
C1174 C 0.1697 0.51397 0.29884 0.0
C1175 C 0.17401 0.5197 0.31988 0.0
C1176 C 0.17564 0.50193 0.33228 0.0
C1177 C 0.17285 0.47851 0.3234 0.0
C1178 C 0.16872 0.47263 0.30293 0.0
C1179 C 0.16588 0.44601 0.29702 0.0
C1180 C 0.13812 0.42684 0.2859 0.0
C1181 C 0.18862 0.44905 0.28454 0.0
C1182 C 0.16876 0.43764 0.31739 0.0
C1183 C 0.17309 0.45672 0.33244 0.0
C1184 C 0.17718 0.4536 0.35247 0.0
C1185 C 0.17684 0.43038 0.35719 0.0
C1186 C 0.17203 0.41049 0.34194 0.0
C1187 C 0.16788 0.41425 0.32183 0.0
H1188 H 0.32461 0.50423 0.28848 0.0
H1189 H 0.39212 0.5086 0.32362 0.0
H1190 H 0.36106 0.46724 0.33815 0.0
H1191 H 0.27929 0.48244 0.3248 0.0
H1192 H 0.25018 0.46035 0.30791 0.0
H1193 H 0.27778 0.48882 0.29902 0.0
H1194 H 0.28208 0.45879 0.27159 0.0
H1195 H 0.25416 0.43023 0.28018 0.0
H1196 H 0.28579 0.43142 0.27852 0.0
H1197 H 0.32143 0.42802 0.35167 0.0
H1198 H 0.27751 0.39205 0.36024 0.0
H1199 H 0.23681 0.41288 0.3149 0.0
C1200 C 0.33288 0.4962 0.29898 0.0
C1201 C 0.36075 0.50952 0.30494 0.0
C1202 C 0.37086 0.49849 0.31871 0.0
C1203 C 0.35335 0.47513 0.32712 0.0
C1204 C 0.32585 0.46285 0.32132 0.0
C1205 C 0.31577 0.4728 0.30727 0.0
C1206 C 0.28543 0.45635 0.30386 0.0
C1207 C 0.27242 0.47299 0.30922 0.0
C1208 C 0.27634 0.44343 0.28226 0.0
C1209 C 0.27991 0.43591 0.31848 0.0
C1210 C 0.30338 0.43996 0.32852 0.0
C1211 C 0.30298 0.42441 0.34364 0.0
C1212 C 0.27797 0.40412 0.34848 0.0
C1213 C 0.25377 0.39942 0.33808 0.0
C1214 C 0.25495 0.41557 0.32287 0.0
H1215 H 0.50482 0.81669 0.2806 0.0
H1216 H 0.51113 0.87972 0.32144 0.0
H1217 H 0.55534 0.88821 0.33607 0.0
H1218 H 0.53212 0.79085 0.31364 0.0
H1219 H 0.55051 0.7838 0.29593 0.0
H1220 H 0.52069 0.78429 0.2874 0.0
H1221 H 0.54751 0.81932 0.26329 0.0
H1222 H 0.57741 0.81875 0.27161 0.0
H1223 H 0.57753 0.8496 0.27295 0.0
H1224 H 0.59575 0.88567 0.34907 0.0
H1225 H 0.63213 0.87598 0.35692 0.0
H1226 H 0.601 0.81649 0.3062 0.0
C1227 C 0.51582 0.83263 0.29235 0.0
C1228 C 0.50469 0.84764 0.2999 0.0
C1229 C 0.51951 0.86825 0.31532 0.0
C1230 C 0.54453 0.87309 0.32377 0.0
C1231 C 0.55464 0.85746 0.31635 0.0
C1232 C 0.54102 0.83802 0.30069 0.0
C1233 C 0.55597 0.82359 0.2958 0.0
C1234 C 0.5388 0.79388 0.29835 0.0
C1235 C 0.56515 0.82809 0.27466 0.0
C1236 C 0.57968 0.83737 0.31156 0.0
C1237 C 0.5785 0.85678 0.32332 0.0
C1238 C 0.59715 0.87088 0.33973 0.0
C1239 C 0.61763 0.86512 0.34416 0.0
C1240 C 0.61949 0.84567 0.33208 0.0
C1241 C 0.60033 0.83178 0.3155 0.0
H1242 H 0.22084 0.69747 0.27775 0.0
H1243 H 0.18472 0.64438 0.32352 0.0
H1244 H 0.17349 0.67605 0.33974 0.0
H1245 H 0.25095 0.75779 0.30911 0.0
H1246 H 0.24417 0.77564 0.29088 0.0
H1247 H 0.24826 0.7482 0.28282 0.0
H1248 H 0.20159 0.72628 0.2623 0.0
H1249 H 0.19759 0.7537 0.27074 0.0
H1250 H 0.1725 0.72041 0.27471 0.0
H1251 H 0.16922 0.71507 0.35224 0.0
H1252 H 0.16994 0.75733 0.35903 0.0
H1253 H 0.20793 0.78422 0.30452 0.0
C1254 C 0.21047 0.69249 0.29114 0.0
C1255 C 0.20366 0.66851 0.29942 0.0
C1256 C 0.18987 0.66254 0.31685 0.0
C1257 C 0.18354 0.68044 0.3262 0.0
C1258 C 0.19087 0.70408 0.3178 0.0
C1259 C 0.20379 0.71 0.30054 0.0
C1260 C 0.2097 0.73683 0.29464 0.0
C1261 C 0.24008 0.75572 0.29437 0.0
C1262 C 0.19443 0.73413 0.2744 0.0
C1263 C 0.19867 0.74537 0.31153 0.0
C1264 C 0.18785 0.72621 0.32473 0.0
C1265 C 0.17737 0.7301 0.3419 0.0
C1266 C 0.17795 0.75419 0.34566 0.0
C1267 C 0.18882 0.77401 0.33226 0.0
C1268 C 0.19918 0.76936 0.31495 0.0
H1269 H 0.86815 0.99504 0.39082 0.0
H1270 H 0.84624 0.05069 0.36915 0.0
H1271 H 0.7988 0.01475 0.36305 0.0
H1272 H 0.82541 0.94101 0.3561 0.0
H1273 H 0.81664 0.91618 0.37342 0.0
H1274 H 0.84841 0.94659 0.3775 0.0
H1275 H 0.83714 0.95536 0.41279 0.0
H1276 H 0.8053 0.92491 0.40878 0.0
H1277 H 0.80641 0.95565 0.41553 0.0
H1278 H 0.75515 0.97192 0.35538 0.0
H1279 H 0.7175 0.92567 0.34916 0.0
H1280 H 0.76683 0.89821 0.37794 0.0
C1281 C 0.85328 0.99967 0.38501 0.0
C1282 C 0.86081 0.02563 0.38045 0.0
C1283 C 0.84082 0.031 0.37292 0.0
C1284 C 0.81388 0.01071 0.36936 0.0
C1285 C 0.80718 0.98525 0.37371 0.0
C1286 C 0.82623 0.97972 0.38164 0.0
C1287 C 0.81386 0.95054 0.3845 0.0
C1288 C 0.82685 0.93784 0.37214 0.0
C1289 C 0.81579 0.94638 0.40673 0.0
C1290 C 0.78504 0.94037 0.3764 0.0
C1291 C 0.78163 0.96072 0.37021 0.0
C1292 C 0.7574 0.95592 0.36059 0.0
C1293 C 0.73617 0.92966 0.35708 0.0
C1294 C 0.7392 0.90862 0.36348 0.0
C1295 C 0.76381 0.9141 0.37349 0.0
H1296 H 1.01019 0.83646 0.3619 0.0
H1297 H 1.00517 0.80846 0.4206 0.0
H1298 H 0.04132 0.79861 0.4145 0.0
H1299 H 0.02763 0.78915 0.3362 0.0
H1300 H 0.05007 0.81415 0.32123 0.0
H1301 H 0.02088 0.81457 0.32892 0.0
H1302 H 0.05131 0.86281 0.34475 0.0
H1303 H 0.08056 0.86248 0.33731 0.0
H1304 H 0.0786 0.87028 0.36319 0.0
H1305 H 0.08324 0.79987 0.4045 0.0
H1306 H 0.1251 0.80841 0.39038 0.0
H1307 H 0.10206 0.83399 0.33746 0.0
C1308 C 0.01617 0.8275 0.37323 0.0
C1309 C 1.00483 0.82309 0.39171 0.0
C1310 C 0.0133 0.8116 0.40625 0.0
C1311 C 0.03391 0.80608 0.40292 0.0
C1312 C 0.04547 0.81174 0.38484 0.0
C1313 C 0.03653 0.82174 0.37007 0.0
C1314 C 0.05366 0.82812 0.35265 0.0
C1315 C 0.03707 0.81043 0.33362 0.0
C1316 C 0.06681 0.85767 0.3493 0.0
C1317 C 0.07437 0.82119 0.36023 0.0
C1318 C 0.06919 0.81165 0.37879 0.0
C1319 C 0.08704 0.80659 0.38975 0.0
C1320 C 0.11082 0.81159 0.38164 0.0
C1321 C 0.11651 0.82134 0.36267 0.0
C1322 C 0.09778 0.82573 0.3517 0.0
H1323 H 0.14545 0.16426 0.40034 0.0
H1324 H 0.19456 0.15479 0.35808 0.0
H1325 H 0.20745 0.19884 0.34678 0.0
H1326 H 0.12028 0.1963 0.3708 0.0
H1327 H 0.12226 0.21861 0.39122 0.0
H1328 H 0.11797 0.18689 0.39597 0.0
H1329 H 0.16047 0.21076 0.42144 0.0
H1330 H 0.16472 0.2424 0.4162 0.0
H1331 H 0.19174 0.2358 0.41344 0.0
H1332 H 0.21121 0.24193 0.33803 0.0
H1333 H 0.20901 0.28265 0.33454 0.0
H1334 H 0.15956 0.26485 0.38404 0.0
C1335 C 0.15915 0.17169 0.38887 0.0
C1336 C 0.16905 0.15634 0.37998 0.0
C1337 C 0.18698 0.1665 0.36508 0.0
C1338 C 0.1943 0.19138 0.35857 0.0
C1339 C 0.18387 0.20594 0.36742 0.0
C1340 C 0.16706 0.19666 0.3825 0.0
C1341 C 0.15866 0.21615 0.38959 0.0
C1342 C 0.12796 0.20372 0.38669 0.0
C1343 C 0.16956 0.22691 0.41146 0.0
C1344 C 0.1725 0.23739 0.37562 0.0
C1345 C 0.18698 0.23118 0.36295 0.0
C1346 C 0.20028 0.2472 0.34806 0.0
C1347 C 0.19882 0.27019 0.34613 0.0
C1348 C 0.18434 0.27702 0.35913 0.0
C1349 C 0.17116 0.26039 0.37409 0.0
H1350 H 0.6708 0.54055 0.75228 0.0
H1351 H 0.63037 0.48494 0.6997 0.0
H1352 H 0.6656 0.51522 0.67953 0.0
H1353 H 0.69212 0.60025 0.72733 0.0
H1354 H 0.72397 0.61853 0.74227 0.0
H1355 H 0.69539 0.59257 0.75252 0.0
H1356 H 0.72263 0.56943 0.7606 0.0
H1357 H 0.75123 0.59537 0.75039 0.0
H1358 H 0.73797 0.56135 0.74092 0.0
H1359 H 0.70612 0.55119 0.6652 0.0
H1360 H 0.74832 0.59036 0.65784 0.0
H1361 H 0.76152 0.62284 0.7196 0.0
C1362 C 0.66916 0.53488 0.73648 0.0
C1363 C 0.64779 0.51028 0.72761 0.0
C1364 C 0.64669 0.50348 0.70692 0.0
C1365 C 0.66654 0.52063 0.6953 0.0
C1366 C 0.68742 0.54459 0.70454 0.0
C1367 C 0.68883 0.55175 0.72465 0.0
C1368 C 0.71359 0.57847 0.731 0.0
C1369 C 0.70579 0.59865 0.73873 0.0
C1370 C 0.73246 0.57599 0.74665 0.0
C1371 C 0.7258 0.58522 0.7113 0.0
C1372 C 0.71048 0.5654 0.69623 0.0
C1373 C 0.71818 0.56692 0.67686 0.0
C1374 C 0.7422 0.58924 0.67282 0.0
C1375 C 0.75818 0.60985 0.68805 0.0
C1376 C 0.74965 0.60768 0.7075 0.0
H1377 H 0.48919 0.13363 0.76141 0.0
H1378 H 0.52355 0.12275 0.70849 0.0
H1379 H 0.48929 0.12585 0.6873 0.0
H1380 H 0.41856 0.09445 0.73965 0.0
H1381 H 0.4091 0.11596 0.7524 0.0
H1382 H 0.43576 0.11189 0.76354 0.0
H1383 H 0.4678 0.16268 0.7662 0.0
H1384 H 0.44129 0.16683 0.75493 0.0
H1385 H 0.47279 0.17993 0.74405 0.0
H1386 H 0.45429 0.13434 0.67186 0.0
H1387 H 0.4176 0.14317 0.663 0.0
H1388 H 0.4031 0.14497 0.72538 0.0
C1389 C 0.48919 0.13129 0.74537 0.0
C1390 C 0.50941 0.12821 0.7367 0.0
C1391 C 0.50873 0.12565 0.71558 0.0
C1392 C 0.48922 0.12723 0.70337 0.0
C1393 C 0.4701 0.13095 0.71239 0.0
C1394 C 0.46959 0.13251 0.73288 0.0
C1395 C 0.4469 0.1368 0.73869 0.0
C1396 C 0.42636 0.11337 0.74919 0.0
C1397 C 0.45786 0.16313 0.75173 0.0
C1398 C 0.43508 0.13781 0.71827 0.0
C1399 C 0.44894 0.13459 0.70335 0.0
C1400 C 0.44298 0.13644 0.68338 0.0
C1401 C 0.42221 0.14159 0.67849 0.0
C1402 C 0.40734 0.14444 0.69345 0.0
C1403 C 0.41381 0.14236 0.71359 0.0
H1404 H 0.88198 0.35949 0.75239 0.0
H1405 H 0.87422 0.39306 0.69828 0.0
H1406 H 0.87141 0.35535 0.67799 0.0
H1407 H 0.92254 0.33229 0.73282 0.0
H1408 H 0.90614 0.30291 0.74579 0.0
H1409 H 0.90932 0.33344 0.75623 0.0
H1410 H 0.85777 0.30981 0.75776 0.0
H1411 H 0.85445 0.27929 0.74725 0.0
H1412 H 0.83577 0.2927 0.73533 0.0
H1413 H 0.86587 0.31306 0.66362 0.0
H1414 H 0.85952 0.26865 0.65568 0.0
H1415 H 0.8722 0.26226 0.71878 0.0
C1416 C 0.88018 0.35907 0.73627 0.0
C1417 C 0.87816 0.37909 0.72688 0.0
C1418 C 0.87543 0.37774 0.70576 0.0
C1419 C 0.87399 0.3565 0.69411 0.0
C1420 C 0.87549 0.33684 0.70379 0.0
C1421 C 0.8787 0.33793 0.72436 0.0
C1422 C 0.87866 0.31352 0.73088 0.0
C1423 C 0.90578 0.321 0.74209 0.0
C1424 C 0.85527 0.29791 0.74355 0.0
C1425 C 0.87449 0.29845 0.71074 0.0
C1426 C 0.87276 0.31236 0.69537 0.0
C1427 C 0.8675 0.30207 0.67548 0.0
C1428 C 0.86379 0.27679 0.67115 0.0
C1429 C 0.86552 0.26213 0.68661 0.0
C1430 C 0.8712 0.27323 0.70666 0.0
H1431 H 0.17518 0.9674 0.6434 0.0
H1432 H 0.18742 0.97165 0.58032 0.0
H1433 H 0.22827 0.01493 0.58805 0.0
H1434 H 0.19644 0.0373 0.65327 0.0
H1435 H 0.21238 0.04054 0.67786 0.0
H1436 H 0.18424 0.00913 0.66767 0.0
H1437 H 0.21282 0.98689 0.67339 0.0
H1438 H 0.2411 0.01826 0.68348 0.0
H1439 H 0.24447 0.99971 0.66275 0.0
H1440 H 0.26838 0.05664 0.6021 0.0
H1441 H 0.30386 0.09706 0.62156 0.0
H1442 H 0.26498 0.06894 0.6756 0.0
C1443 C 0.18633 0.97749 0.6312 0.0
C1444 C 0.17828 0.96554 0.61127 0.0
C1445 C 0.19353 0.97967 0.59579 0.0
C1446 C 0.21672 0.00449 0.59999 0.0
C1447 C 0.22432 0.01539 0.61972 0.0
C1448 C 0.20948 1.00265 0.63508 0.0
C1449 C 0.22195 0.01947 0.6549 0.0
C1450 C 0.2026 0.02706 0.66395 0.0
C1451 C 0.2306 0.00523 0.66949 0.0
C1452 C 0.24616 0.04347 0.64818 0.0
C1453 C 0.24713 0.04043 0.62783 0.0
C1454 C 0.2678 0.05937 0.61803 0.0
C1455 C 0.28796 0.08222 0.62928 0.0
C1456 C 0.28727 0.0862 0.65013 0.0
C1457 C 0.266 0.06651 0.65968 0.0
H1458 H 0.02698 0.1897 0.63127 0.0
H1459 H 0.06852 0.27405 0.6246 0.0
H1460 H 0.0309 0.27682 0.63751 0.0
H1461 H 0.96107 0.17603 0.61743 0.0
H1462 H 0.94552 0.15282 0.63566 0.0
H1463 H 0.97598 0.15735 0.62627 0.0
H1464 H 0.99894 0.16843 0.6624 0.0
H1465 H 0.9685 0.16388 0.67189 0.0
H1466 H 0.99964 0.19457 0.67828 0.0
H1467 H 0.98726 0.26995 0.64837 0.0
H1468 H 0.94169 0.25427 0.65878 0.0
H1469 H 0.92993 0.17551 0.66169 0.0
C1470 C 0.02849 0.2089 0.63285 0.0
C1471 C 0.05081 0.2316 0.62661 0.0
C1472 C 0.05152 0.25618 0.62873 0.0
C1473 C 0.0303 0.25804 0.63626 0.0
C1474 C 1.00857 0.23527 0.64197 0.0
C1475 C 1.00763 0.21122 0.64063 0.0
C1476 C 0.98173 0.18972 0.64767 0.0
C1477 C 0.9651 0.16769 0.63075 0.0
C1478 C 0.98756 0.17849 0.66616 0.0
C1479 C 0.96812 0.2054 0.65289 0.0
C1480 C 0.98393 0.23162 0.64935 0.0
C1481 C 0.97493 0.24961 0.65157 0.0
C1482 C 0.94905 0.24055 0.65746 0.0
C1483 C 0.93266 0.21391 0.66142 0.0
C1484 C 0.94244 0.19618 0.65931 0.0
H1485 H 0.84291 0.84903 0.64872 0.0
H1486 H 0.7621 0.8087 0.6188 0.0
H1487 H 0.75397 0.76683 0.63156 0.0
H1488 H 0.85672 0.79839 0.63834 0.0
H1489 H 0.87568 0.80338 0.66194 0.0
H1490 H 0.87419 0.83062 0.65217 0.0
H1491 H 0.85624 0.83834 0.6848 0.0
H1492 H 0.85768 0.81104 0.69465 0.0
H1493 H 0.82662 0.81142 0.69328 0.0
H1494 H 0.75633 0.72887 0.64431 0.0
H1495 H 0.76878 0.69719 0.65669 0.0
H1496 H 0.84739 0.76235 0.67959 0.0
C1497 C 0.82327 0.83154 0.64529 0.0
C1498 C 0.80308 0.83208 0.63283 0.0
C1499 C 0.77789 0.80864 0.62821 0.0
C1500 C 0.77303 0.78485 0.63551 0.0
C1501 C 0.79351 0.78491 0.6475 0.0
C1502 C 0.81809 0.80765 0.65247 0.0
C1503 C 0.8373 0.80198 0.66449 0.0
C1504 C 0.86244 0.809 0.65358 0.0
C1505 C 0.8449 0.81656 0.68556 0.0
C1506 C 0.81988 0.77238 0.66509 0.0
C1507 C 0.79465 0.76296 0.65529 0.0
C1508 C 0.7758 0.73603 0.65236 0.0
C1509 C 0.78307 0.71821 0.65938 0.0
C1510 C 0.80886 0.72744 0.66932 0.0
C1511 C 0.82728 0.75487 0.67253 0.0
H1512 H 0.98449 0.83763 0.6191 0.0
H1513 H 0.05013 0.84167 0.65664 0.0
H1514 H 0.01783 0.8012 0.67149 0.0
H1515 H 0.93736 0.81752 0.65455 0.0
H1516 H 0.90884 0.79543 0.63716 0.0
H1517 H 0.93727 0.82344 0.62857 0.0
H1518 H 0.94183 0.79224 0.60232 0.0
H1519 H 0.91334 0.76416 0.61084 0.0
H1520 H 0.94487 0.76492 0.61033 0.0
H1521 H 0.97737 0.76273 0.68461 0.0
H1522 H 0.93291 0.72703 0.69238 0.0
H1523 H 0.89437 0.74766 0.64522 0.0
C1524 C 0.99209 0.82975 0.63025 0.0
C1525 C 0.0198 0.84274 0.63675 0.0
C1526 C 0.02902 0.83185 0.65132 0.0
C1527 C 1.0108 0.80899 0.65991 0.0
C1528 C 0.98349 0.79706 0.65354 0.0
C1529 C 0.97425 0.80685 0.63878 0.0
C1530 C 0.94393 0.79069 0.63476 0.0
C1531 C 0.93111 0.8078 0.63902 0.0
C1532 C 0.93551 0.7772 0.61329 0.0
C1533 C 0.93746 0.77063 0.64987 0.0
C1534 C 0.96048 0.77462 0.66063 0.0
C1535 C 0.95927 0.75922 0.67607 0.0
C1536 C 0.93393 0.73909 0.68046 0.0
C1537 C 0.91017 0.7344 0.66934 0.0
C1538 C 0.91214 0.75047 0.65385 0.0
H1539 H 0.16891 0.17177 0.66472 0.0
H1540 H 0.18098 0.19788 0.60525 0.0
H1541 H 0.22568 0.2015 0.60786 0.0
H1542 H 0.23962 0.21404 0.68598 0.0
H1543 H 0.23815 0.18894 0.70105 0.0
H1544 H 0.20834 0.19076 0.69508 0.0
H1545 H 0.1834 0.14174 0.68024 0.0
H1546 H 0.21314 0.13983 0.686 0.0
H1547 H 0.19744 0.1316 0.66076 0.0
H1548 H 0.2664 0.19686 0.61544 0.0
H1549 H 0.30198 0.18846 0.62851 0.0
H1550 H 0.26441 0.16727 0.68376 0.0
C1551 C 0.18118 0.17867 0.65238 0.0
C1552 C 0.17151 0.18457 0.63476 0.0
C1553 C 0.18812 0.19355 0.61894 0.0
C1554 C 0.21346 0.19552 0.62027 0.0
C1555 C 0.22205 0.18884 0.63764 0.0
C1556 C 0.20659 0.18103 0.65356 0.0
C1557 C 0.22004 0.17417 0.6703 0.0
C1558 C 0.22695 0.19311 0.68922 0.0
C1559 C 0.20246 0.14511 0.67456 0.0
C1560 C 0.2452 0.17866 0.66114 0.0
C1561 C 0.24594 0.18706 0.64228 0.0
C1562 C 0.26625 0.19076 0.63033 0.0
C1563 C 0.28631 0.1858 0.63785 0.0
C1564 C 0.28614 0.17747 0.65724 0.0
C1565 C 0.26537 0.1741 0.66905 0.0
H1566 H 0.85294 0.00801 0.679 0.0
H1567 H 0.84328 0.99189 0.61452 0.0
H1568 H 0.83657 0.02997 0.61102 0.0
H1569 H 0.80404 0.03049 0.68209 0.0
H1570 H 0.82414 0.05579 0.70209 0.0
H1571 H 0.82579 0.02587 0.69958 0.0
H1572 H 0.87738 0.05374 0.69855 0.0
H1573 H 0.87588 0.08369 0.70103 0.0
H1574 H 0.89088 0.07732 0.68026 0.0
H1575 H 0.8354 0.07197 0.61438 0.0
H1576 H 0.83807 0.11437 0.62433 0.0
H1577 H 0.84783 0.1031 0.68674 0.0
C1578 C 0.84922 0.01239 0.66415 0.0
C1579 C 0.84859 0.99697 0.64702 0.0
C1580 C 0.84349 1.00321 0.62784 0.0
C1581 C 0.83976 0.02485 0.62571 0.0
C1582 C 0.84095 0.03988 0.6429 0.0
C1583 C 0.84534 0.03383 0.66176 0.0
C1584 C 0.84685 0.05385 0.67776 0.0
C1585 C 0.82383 0.04071 0.69117 0.0
C1586 C 0.87439 0.06798 0.69012 0.0
C1587 C 0.84328 0.07248 0.66492 0.0
C1588 C 0.83981 0.06397 0.64486 0.0
C1589 C 0.83772 0.07865 0.63004 0.0
C1590 C 0.83937 0.10276 0.63585 0.0
C1591 C 0.84297 0.11192 0.65632 0.0
C1592 C 0.84461 0.09637 0.67101 0.0
H1593 H 0.52274 0.32104 0.74858 0.0
H1594 H 0.51858 0.37656 0.71049 0.0
H1595 H 0.47259 0.34241 0.69727 0.0
H1596 H 0.49038 0.26559 0.71345 0.0
H1597 H 0.47243 0.24217 0.73101 0.0
H1598 H 0.50378 0.27177 0.73924 0.0
H1599 H 0.48064 0.28421 0.76617 0.0
H1600 H 0.44917 0.25457 0.75802 0.0
H1601 H 0.45136 0.2864 0.75884 0.0
H1602 H 0.42953 0.30112 0.68526 0.0
H1603 H 0.39145 0.25582 0.67625 0.0
H1604 H 0.42269 0.22686 0.72241 0.0
C1605 C 0.51204 0.32612 0.73762 0.0
C1606 C 0.5243 0.3516 0.73067 0.0
C1607 C 0.50953 0.3574 0.71634 0.0
C1608 C 0.48341 0.33808 0.70866 0.0
C1609 C 0.47217 0.31306 0.71555 0.0
C1610 C 0.48589 0.30707 0.72984 0.0
C1611 C 0.46976 0.27822 0.73388 0.0
C1612 C 0.485 0.26359 0.7291 0.0
C1613 C 0.46229 0.27571 0.75552 0.0
C1614 C 0.44518 0.26875 0.71921 0.0
C1615 C 0.44695 0.28922 0.70886 0.0
C1616 C 0.42768 0.28503 0.6935 0.0
C1617 C 0.40618 0.25922 0.68844 0.0
C1618 C 0.40398 0.23791 0.69878 0.0
C1619 C 0.42355 0.24287 0.71457 0.0
H1620 H 0.70224 0.18779 0.74907 0.0
H1621 H 0.63768 0.14203 0.70233 0.0
H1622 H 0.66872 0.13409 0.68301 0.0
H1623 H 0.75312 0.22041 0.71815 0.0
H1624 H 0.77903 0.2197 0.73385 0.0
H1625 H 0.7511 0.21931 0.74472 0.0
H1626 H 0.74038 0.17618 0.76053 0.0
H1627 H 0.76832 0.17643 0.7497 0.0
H1628 H 0.73516 0.14778 0.74484 0.0
H1629 H 0.70884 0.13566 0.66722 0.0
H1630 H 0.75302 0.14373 0.65774 0.0
H1631 H 0.79026 0.18772 0.7155 0.0
C1632 C 0.69452 0.17572 0.73491 0.0
C1633 C 0.66755 0.16551 0.72717 0.0
C1634 C 0.65818 0.14979 0.70862 0.0
C1635 C 0.67572 0.14531 0.69751 0.0
C1636 C 0.70245 0.15639 0.70532 0.0
C1637 C 0.71164 0.17093 0.72378 0.0
C1638 C 0.74141 0.18159 0.72861 0.0
C1639 C 0.75707 0.21205 0.73149 0.0
C1640 C 0.74661 0.16978 0.74701 0.0
C1641 C 0.74775 0.17139 0.70978 0.0
C1642 C 0.72512 0.15686 0.69649 0.0
C1643 C 0.72659 0.14669 0.67766 0.0
C1644 C 0.75178 0.15146 0.67237 0.0
C1645 C 0.77516 0.1662 0.68588 0.0
C1646 C 0.77284 0.17608 0.70484 0.0
H1647 H 0.81104 0.50322 0.73567 0.0
H1648 H 0.86022 0.49098 0.695 0.0
H1649 H 0.87097 0.53279 0.68052 0.0
H1650 H 0.78314 0.5296 0.70206 0.0
H1651 H 0.78396 0.55343 0.72059 0.0
H1652 H 0.78093 0.52304 0.72793 0.0
H1653 H 0.82311 0.54972 0.75328 0.0
H1654 H 0.82618 0.58018 0.74602 0.0
H1655 H 0.85406 0.57459 0.74474 0.0
H1656 H 0.87358 0.57477 0.66904 0.0
H1657 H 0.87068 0.61487 0.66355 0.0
H1658 H 0.82129 0.5995 0.71293 0.0
C1659 C 0.82414 0.50942 0.72376 0.0
C1660 C 0.83477 0.49396 0.71637 0.0
C1661 C 0.85205 0.50274 0.70092 0.0
C1662 C 0.85814 0.52634 0.69257 0.0
C1663 C 0.84704 0.54101 0.70005 0.0
C1664 C 0.83067 0.53301 0.71548 0.0
C1665 C 0.82133 0.55224 0.72094 0.0
C1666 C 0.79052 0.53877 0.71768 0.0
C1667 C 0.83181 0.56494 0.74252 0.0
C1668 C 0.83469 0.57215 0.70602 0.0
C1669 C 0.84932 0.56538 0.69398 0.0
C1670 C 0.86244 0.58043 0.67855 0.0
C1671 C 0.86063 0.60308 0.67549 0.0
C1672 C 0.84608 0.61046 0.68796 0.0
C1673 C 0.83301 0.59469 0.70336 0.0
H1674 H 0.44931 0.94667 0.23674 0.0
H1675 H 0.43888 0.87044 0.21583 0.0
H1676 H 0.45341 0.88677 0.18323 0.0
H1677 H 0.42606 0.95964 0.18965 0.0
H1678 H 0.45037 0.99456 0.19259 0.0
H1679 H 0.43858 0.97685 0.21428 0.0
H1680 H 0.48763 0.99261 0.22779 0.0
H1681 H 0.49956 0.01037 0.20615 0.0
H1682 H 0.50865 0.98616 0.21239 0.0
H1683 H 0.46912 0.91099 0.15303 0.0
H1684 H 0.48596 0.94198 0.12713 0.0
H1685 H 0.4875 1.00335 0.16731 0.0
C1686 C 0.44991 0.9334 0.22523 0.0
C1687 C 0.44312 0.9073 0.22891 0.0
C1688 C 0.44438 0.89061 0.2135 0.0
C1689 C 0.45244 0.89965 0.19487 0.0
C1690 C 0.45923 0.92548 0.19179 0.0
C1691 C 0.45811 0.94218 0.2065 0.0
C1692 C 0.46709 0.96925 0.1993 0.0
C1693 C 0.44416 0.97543 0.19893 0.0
C1694 C 0.49223 0.99087 0.21217 0.0
C1695 C 0.4735 0.96512 0.1783 0.0
C1696 C 0.46868 0.93967 0.17431 0.0
C1697 C 0.47311 0.93103 0.15602 0.0
C1698 C 0.4829 0.9489 0.14143 0.0
C1699 C 0.48841 0.97529 0.14515 0.0
C1700 C 0.48339 0.98333 0.16388 0.0
H1701 H 0.1212 0.55805 0.23241 0.0
H1702 H 0.13919 0.49433 0.2318 0.0
H1703 H 0.11169 0.47488 0.19971 0.0
H1704 H 0.05312 0.51964 0.2094 0.0
H1705 H 0.0557 0.54546 0.19469 0.0
H1706 H 0.07571 0.55388 0.21828 0.0
H1707 H 0.11894 0.58123 0.20082 0.0
H1708 H 0.09906 0.57293 0.17719 0.0
H1709 H 0.12588 0.56568 0.17999 0.0
H1710 H 0.08273 0.46231 0.16761 0.0
H1711 H 0.05563 0.45869 0.13664 0.0
H1712 H 0.05813 0.53149 0.15698 0.0
C1713 C 0.11946 0.54006 0.22553 0.0
C1714 C 0.13208 0.52755 0.23491 0.0
C1715 C 0.12915 0.50396 0.22531 0.0
C1716 C 0.11372 0.49281 0.20695 0.0
C1717 C 0.10152 0.50558 0.1982 0.0
C1718 C 0.10433 0.52876 0.20705 0.0
C1719 C 0.08982 0.53892 0.19407 0.0
C1720 C 0.06725 0.5395 0.20475 0.0
C1721 C 0.10961 0.56631 0.18764 0.0
C1722 C 0.07856 0.51787 0.17652 0.0
C1723 C 0.08537 0.49871 0.17931 0.0
C1724 C 0.07722 0.47716 0.16524 0.0
C1725 C 0.06175 0.4752 0.14777 0.0
C1726 C 0.0548 0.49477 0.14448 0.0
C1727 C 0.06333 0.51635 0.15908 0.0
H1728 H 0.50624 0.5614 0.23205 0.0
H1729 H 0.42651 0.54967 0.21795 0.0
H1730 H 0.42666 0.53417 0.18325 0.0
H1731 H 0.53182 0.5883 0.18781 0.0
H1732 H 0.552 0.57297 0.18521 0.0
H1733 H 0.54445 0.57987 0.2096 0.0
H1734 H 0.52409 0.53058 0.21606 0.0
H1735 H 0.53186 0.52356 0.19175 0.0
H1736 H 0.49792 0.50527 0.19851 0.0
H1737 H 0.43738 0.5246 0.14919 0.0
H1738 H 0.45687 0.51938 0.11885 0.0
H1739 H 0.52971 0.5373 0.15488 0.0
C1740 C 0.48863 0.55522 0.22176 0.0
C1741 C 0.46627 0.55664 0.22789 0.0
C1742 C 0.44366 0.54828 0.21386 0.0
C1743 C 0.44364 0.53965 0.19401 0.0
C1744 C 0.46633 0.53934 0.18835 0.0
C1745 C 0.48831 0.54664 0.20186 0.0
C1746 C 0.51073 0.54586 0.19172 0.0
C1747 C 0.53625 0.57339 0.1937 0.0
C1748 C 0.51648 0.52508 0.2 0.0
C1749 C 0.49817 0.53757 0.17031 0.0
C1750 C 0.47249 0.53376 0.16871 0.0
C1751 C 0.45728 0.52708 0.15032 0.0
C1752 C 0.46852 0.52403 0.13315 0.0
C1753 C 0.49477 0.52762 0.13438 0.0
C1754 C 0.50966 0.53449 0.15332 0.0
H1755 H 0.90957 0.41696 0.79775 0.0
H1756 H 0.92912 0.49056 0.77284 0.0
H1757 H 0.96054 0.51577 0.8027 0.0
H1758 H 0.90953 0.43905 0.84786 0.0
H1759 H 0.92411 0.42118 0.85885 0.0
H1760 H 0.90442 0.40885 0.83502 0.0
H1761 H 0.94418 0.40853 0.81925 0.0
H1762 H 0.96396 0.42073 0.84307 0.0
H1763 H 0.97654 0.43844 0.82148 0.0
H1764 H 0.9888 0.5329 0.83549 0.0
H1765 H 0.01146 0.54095 0.86943 0.0
H1766 H 0.97312 0.45621 0.87329 0.0
C1767 C 0.92079 0.43838 0.79848 0.0
C1768 C 0.91705 0.45187 0.783 0.0
C1769 C 0.93166 0.4799 0.78461 0.0
C1770 C 0.94959 0.49435 0.80145 0.0
C1771 C 0.95259 0.48046 0.81656 0.0
C1772 C 0.9386 0.45311 0.81527 0.0
C1773 C 0.94469 0.44307 0.83397 0.0
C1774 C 0.91917 0.4271 0.84454 0.0
C1775 C 0.95815 0.42673 0.82915 0.0
C1776 C 0.96415 0.46905 0.84603 0.0
C1777 C 0.96858 0.49036 0.83564 0.0
C1778 C 0.98561 0.51638 0.84373 0.0
C1779 C 0.99847 0.52075 0.86297 0.0
C1780 C 0.99411 0.49922 0.87396 0.0
C1781 C 0.9767 0.47306 0.8653 0.0
H1782 H 0.59168 0.47069 0.80476 0.0
H1783 H 0.57601 0.51552 0.76233 0.0
H1784 H 0.55537 0.52947 0.78804 0.0
H1785 H 0.53144 0.44729 0.82868 0.0
H1786 H 0.54725 0.45052 0.85331 0.0
H1787 H 0.56115 0.44457 0.83171 0.0
H1788 H 0.60708 0.48651 0.84315 0.0
H1789 H 0.59334 0.49256 0.86483 0.0
H1790 H 0.60875 0.51788 0.84804 0.0
H1791 H 0.53429 0.53646 0.81801 0.0
H1792 H 0.51739 0.53868 0.85059 0.0
H1793 H 0.54835 0.49048 0.87366 0.0
C1794 C 0.58391 0.48347 0.80091 0.0
C1795 C 0.5853 0.49197 0.78156 0.0
C1796 C 0.57524 0.50893 0.77711 0.0
C1797 C 0.56341 0.51683 0.79158 0.0
C1798 C 0.56212 0.50787 0.81047 0.0
C1799 C 0.57239 0.4918 0.81523 0.0
C1800 C 0.56877 0.48512 0.83666 0.0
C1801 C 0.5511 0.45509 0.83764 0.0
C1802 C 0.59612 0.49619 0.84889 0.0
C1803 C 0.55451 0.49962 0.84317 0.0
C1804 C 0.55074 0.51252 0.82784 0.0
C1805 C 0.53731 0.52659 0.83015 0.0
C1806 C 0.52765 0.52762 0.84865 0.0
C1807 C 0.53165 0.51484 0.86464 0.0
C1808 C 0.54529 0.50071 0.86178 0.0
H1809 H 0.50993 0.07454 0.793 0.0
H1810 H 0.58348 0.14769 0.81393 0.0
H1811 H 0.57998 0.13357 0.84785 0.0
H1812 H 0.47578 0.07114 0.83762 0.0
H1813 H 0.45961 0.03562 0.83705 0.0
H1814 H 0.4677 0.05126 0.81414 0.0
H1815 H 0.49464 0.02806 0.80592 0.0
H1816 H 0.48674 0.01244 0.82884 0.0
H1817 H 0.52127 0.03221 0.82372 0.0
H1818 H 0.5697 0.11163 0.87922 0.0
H1819 H 0.55233 0.08359 0.90674 0.0
H1820 H 0.48394 0.02505 0.86674 0.0
C1821 C 0.52518 0.08764 0.80475 0.0
C1822 C 0.54725 0.11208 0.80061 0.0
C1823 C 0.56677 0.12859 0.81649 0.0
C1824 C 0.56487 0.12085 0.8359 0.0
C1825 C 0.54318 0.09658 0.8394 0.0
C1826 C 0.52356 0.08024 0.82437 0.0
C1827 C 0.50232 0.05517 0.83239 0.0
C1828 C 0.47472 0.05319 0.83017 0.0
C1829 C 0.50119 0.03051 0.82211 0.0
C1830 C 0.51326 0.06002 0.8542 0.0
C1831 C 0.53685 0.08405 0.85783 0.0
C1832 C 0.55106 0.09289 0.87664 0.0
C1833 C 0.54086 0.07683 0.89225 0.0
C1834 C 0.51649 0.05216 0.88913 0.0
C1835 C 0.50264 0.04369 0.86971 0.0
H1836 H 0.11507 0.23066 0.55545 0.0
H1837 H 0.12865 0.29724 0.59587 0.0
H1838 H 0.14869 0.32726 0.56962 0.0
H1839 H 0.17614 0.26634 0.52951 0.0
H1840 H 0.15951 0.24907 0.50546 0.0
H1841 H 0.14808 0.23296 0.52787 0.0
H1842 H 0.10019 0.22404 0.5175 0.0
H1843 H 0.11149 0.2402 0.49512 0.0
H1844 H 0.09548 0.25136 0.5122 0.0
H1845 H 0.16549 0.3498 0.53898 0.0
H1846 H 0.17774 0.36375 0.50551 0.0
H1847 H 0.15205 0.28264 0.48387 0.0
C1848 C 0.12273 0.25164 0.55881 0.0
C1849 C 0.12046 0.26171 0.57771 0.0
C1850 C 0.13019 0.28917 0.58148 0.0
C1851 C 0.14166 0.30637 0.56669 0.0
C1852 C 0.14321 0.29583 0.54812 0.0
C1853 C 0.13405 0.26913 0.54407 0.0
C1854 C 0.13693 0.2629 0.52246 0.0
C1855 C 0.15632 0.25219 0.52126 0.0
C1856 C 0.10938 0.24347 0.51116 0.0
C1857 C 0.14887 0.2902 0.51502 0.0
C1858 C 0.15246 0.30887 0.53015 0.0
C1859 C 0.16275 0.33537 0.52699 0.0
C1860 C 0.16943 0.34305 0.50783 0.0
C1861 C 0.16565 0.32432 0.49189 0.0
C1862 C 0.15541 0.29753 0.49569 0.0
H1863 H 0.76411 0.87886 0.57643 0.0
H1864 H 0.83426 0.87344 0.56482 0.0
H1865 H 0.81968 0.86464 0.52856 0.0
H1866 H 0.7189 0.82624 0.54186 0.0
H1867 H 0.69948 0.84109 0.53408 0.0
H1868 H 0.71696 0.85007 0.55871 0.0
H1869 H 0.74183 0.89952 0.552 0.0
H1870 H 0.72425 0.8907 0.52736 0.0
H1871 H 0.76044 0.90945 0.53042 0.0
H1872 H 0.79593 0.8535 0.49409 0.0
H1873 H 0.76493 0.84101 0.4636 0.0
H1874 H 0.70901 0.85173 0.4979 0.0
C1875 C 0.77664 0.8765 0.5661 0.0
C1876 C 0.8005 0.87728 0.57312 0.0
C1877 C 0.81616 0.87333 0.55947 0.0
C1878 C 0.80801 0.86829 0.53895 0.0
C1879 C 0.78411 0.8672 0.53242 0.0
C1880 C 0.76869 0.8713 0.54556 0.0
C1881 C 0.74302 0.86737 0.53481 0.0
C1882 C 0.71813 0.84485 0.54285 0.0
C1883 C 0.74236 0.89331 0.53623 0.0
C1884 C 0.74612 0.85982 0.51368 0.0
C1885 C 0.77008 0.86012 0.51259 0.0
C1886 C 0.77714 0.85328 0.49474 0.0
C1887 C 0.75924 0.84595 0.47753 0.0
C1888 C 0.7344 0.84524 0.47828 0.0
C1889 C 0.72795 0.8524 0.49667 0.0
H1890 H 0.17092 0.88929 0.57105 0.0
H1891 H 0.09084 0.87423 0.55271 0.0
H1892 H 0.09363 0.85751 0.51912 0.0
H1893 H 0.19834 0.91605 0.52788 0.0
H1894 H 0.22037 0.9026 0.52694 0.0
H1895 H 0.21041 0.90874 0.55053 0.0
H1896 H 0.19204 0.85984 0.55744 0.0
H1897 H 0.20219 0.85358 0.53391 0.0
H1898 H 0.16781 0.8337 0.53937 0.0
H1899 H 0.10728 0.84789 0.48635 0.0
H1900 H 0.13004 0.84447 0.45738 0.0
H1901 H 0.20226 0.86837 0.49652 0.0
C1902 C 0.15373 0.88204 0.56011 0.0
C1903 C 0.13058 0.88303 0.5647 0.0
C1904 C 0.10858 0.87322 0.54985 0.0
C1905 C 0.11006 0.86386 0.53061 0.0
C1906 C 0.13364 0.86433 0.52639 0.0
C1907 C 0.15501 0.87295 0.54078 0.0
C1908 C 0.17895 0.87371 0.53199 0.0
C1909 C 0.20345 0.90195 0.53448 0.0
C1910 C 0.18563 0.85403 0.54123 0.0
C1911 C 0.16799 0.86487 0.51028 0.0
C1912 C 0.14172 0.85928 0.5074 0.0
C1913 C 0.12776 0.85197 0.48847 0.0
C1914 C 0.14097 0.85035 0.47207 0.0
C1915 C 0.168 0.85621 0.47461 0.0
C1916 C 0.1815 0.86335 0.49407 0.0
H1917 H 0.60565 0.78189 0.11383 0.0
H1918 H 0.52577 0.76524 0.12538 0.0
H1919 H 0.54051 0.77724 0.16142 0.0
H1920 H 0.61884 0.75636 0.1575 0.0
H1921 H 0.65376 0.78172 0.16173 0.0
H1922 H 0.6371 0.7722 0.13678 0.0
H1923 H 0.65063 0.82092 0.1327 0.0
H1924 H 0.66745 0.83061 0.1576 0.0
H1925 H 0.6418 0.83846 0.15072 0.0
H1926 H 0.56335 0.78923 0.19626 0.0
H1927 H 0.5933 0.80278 0.2274 0.0
H1928 H 0.65907 0.81365 0.19314 0.0
C1929 C 0.59129 0.78078 0.12397 0.0
C1930 C 0.56457 0.77269 0.11683 0.0
C1931 C 0.54641 0.77169 0.13052 0.0
C1932 C 0.55455 0.7783 0.15101 0.0
C1933 C 0.58098 0.78605 0.15758 0.0
C1934 C 0.59915 0.78754 0.14448 0.0
C1935 C 0.62645 0.79674 0.15544 0.0
C1936 C 0.6345 0.77548 0.1527 0.0
C1937 C 0.64784 0.82326 0.14871 0.0
C1938 C 0.6207 0.79997 0.17676 0.0
C1939 C 0.59433 0.79359 0.17766 0.0
C1940 C 0.58414 0.79457 0.19573 0.0
C1941 C 0.60141 0.80249 0.21335 0.0
C1942 C 0.62873 0.80959 0.21284 0.0
C1943 C 0.63832 0.80817 0.19419 0.0
H1944 H 0.26031 0.84443 0.12365 0.0
H1945 H 0.27567 0.78071 0.13472 0.0
H1946 H 0.26024 0.77911 0.1683 0.0
H1947 H 0.28119 0.87743 0.1743 0.0
H1948 H 0.25527 0.88604 0.17401 0.0
H1949 H 0.26848 0.88289 0.15107 0.0
H1950 H 0.22037 0.84856 0.1356 0.0
H1951 H 0.20703 0.85149 0.15851 0.0
H1952 H 0.20027 0.8195 0.14814 0.0
H1953 H 0.2421 0.78342 0.20015 0.0
H1954 H 0.22245 0.79347 0.22851 0.0
H1955 H 0.21896 0.85471 0.19722 0.0
C1956 C 0.26072 0.83039 0.13326 0.0
C1957 C 0.2691 0.81262 0.12656 0.0
C1958 C 0.26904 0.79429 0.13947 0.0
C1959 C 0.26043 0.79331 0.15859 0.0
C1960 C 0.25194 0.81081 0.16464 0.0
C1961 C 0.25204 0.82905 0.15242 0.0
C1962 C 0.24121 0.84512 0.16245 0.0
C1963 C 0.26283 0.87462 0.16565 0.0
C1964 C 0.21571 0.8409 0.15046 0.0
C1965 C 0.23487 0.83291 0.18214 0.0
C1966 C 0.24134 0.81324 0.18309 0.0
C1967 C 0.23713 0.79891 0.19966 0.0
C1968 C 0.22607 0.80486 0.21574 0.0
C1969 C 0.21928 0.82498 0.21518 0.0
C1970 C 0.22375 0.8391 0.19807 0.0
H1971 H 0.23247 0.45414 0.15183 0.0
H1972 H 0.16519 0.39792 0.11 0.0
H1973 H 0.14572 0.36898 0.13689 0.0
H1974 H 0.23844 0.4052 0.17878 0.0
H1975 H 0.2471 0.42426 0.20269 0.0
H1976 H 0.25562 0.44084 0.18021 0.0
H1977 H 0.23006 0.46508 0.18968 0.0
H1978 H 0.22129 0.44841 0.21211 0.0
H1979 H 0.19532 0.44602 0.19451 0.0
H1980 H 0.13321 0.34621 0.16821 0.0
H1981 H 0.12927 0.33013 0.20155 0.0
H1982 H 0.20543 0.4 0.22322 0.0
C1983 C 0.21379 0.43562 0.14824 0.0
C1984 C 0.20032 0.42846 0.12871 0.0
C1985 C 0.17571 0.40415 0.12484 0.0
C1986 C 0.16453 0.38748 0.14002 0.0
C1987 C 0.17818 0.39525 0.15907 0.0
C1988 C 0.20234 0.41865 0.16324 0.0
C1989 C 0.21297 0.42214 0.185 0.0
C1990 C 0.24014 0.42316 0.18677 0.0
C1991 C 0.21502 0.44688 0.19597 0.0
C1992 C 0.19103 0.39698 0.19238 0.0
C1993 C 0.17113 0.38185 0.17715 0.0
C1994 C 0.14877 0.3578 0.1802 0.0
C1995 C 0.14681 0.34876 0.19922 0.0
C1996 C 0.16715 0.36358 0.21507 0.0
C1997 C 0.18943 0.38822 0.21153 0.0
H1998 H 0.77377 0.60441 0.90138 0.0
H1999 H 0.78223 0.53564 0.8887 0.0
H2000 H 0.79787 0.55081 0.85611 0.0
H2001 H 0.74904 0.6057 0.85133 0.0
H2002 H 0.76689 0.64131 0.85215 0.0
H2003 H 0.75681 0.62548 0.87482 0.0
H2004 H 0.80608 0.6521 0.89065 0.0
H2005 H 0.8163 0.66808 0.86806 0.0
H2006 H 0.83203 0.65064 0.87795 0.0
H2007 H 0.81175 0.57266 0.82459 0.0
H2008 H 0.82407 0.60045 0.7965 0.0
H2009 H 0.80708 0.65554 0.82914 0.0
C2010 C 0.77889 0.59254 0.89174 0.0
C2011 C 0.77702 0.56893 0.89781 0.0
C2012 C 0.78402 0.55406 0.8847 0.0
C2013 C 0.79273 0.5624 0.86602 0.0
C2014 C 0.79433 0.58568 0.86053 0.0
C2015 C 0.78769 0.60061 0.87298 0.0
C2016 C 0.79129 0.62489 0.86335 0.0
C2017 C 0.76441 0.6243 0.86023 0.0
C2018 C 0.8127 0.65044 0.87574 0.0
C2019 C 0.80091 0.62119 0.84355 0.0
C2020 C 0.80247 0.5984 0.84227 0.0
C2021 C 0.81077 0.59065 0.82548 0.0
C2022 C 0.8179 0.6067 0.80962 0.0
C2023 C 0.81682 0.63038 0.81058 0.0
C2024 C 0.80798 0.63751 0.82781 0.0
H2025 H 0.45137 0.17767 0.88978 0.0
H2026 H 0.4262 0.22785 0.91972 0.0
H2027 H 0.39295 0.21795 0.89101 0.0
H2028 H 0.44882 0.19793 0.84189 0.0
H2029 H 0.43671 0.16592 0.82856 0.0
H2030 H 0.4564 0.17443 0.85228 0.0
H2031 H 0.41852 0.13287 0.86599 0.0
H2032 H 0.39876 0.1241 0.84223 0.0
H2033 H 0.38496 0.12774 0.86473 0.0
H2034 H 0.36464 0.20492 0.85853 0.0
H2035 H 0.34344 0.19032 0.82394 0.0
H2036 H 0.38758 0.14926 0.81444 0.0
C2037 C 0.43838 0.18603 0.8904 0.0
C2038 C 0.44102 0.20329 0.90695 0.0
C2039 C 0.42429 0.2145 0.90714 0.0
C2040 C 0.40537 0.20894 0.89096 0.0
C2041 C 0.40357 0.19226 0.87467 0.0
C2042 C 0.4196 0.18095 0.87423 0.0
C2043 C 0.41489 0.16522 0.85431 0.0
C2044 C 0.44074 0.17656 0.84363 0.0
C2045 C 0.40361 0.13573 0.85698 0.0
C2046 C 0.39403 0.16979 0.84355 0.0
C2047 C 0.38758 0.18519 0.85567 0.0
C2048 C 0.3693 0.19262 0.84895 0.0
C2049 C 0.35728 0.18414 0.82931 0.0
C2050 C 0.36371 0.16851 0.81652 0.0
C2051 C 0.38231 0.16124 0.82383 0.0
H2052 H 0.83851 0.23112 0.90127 0.0
H2053 H 0.7591 0.22035 0.88782 0.0
H2054 H 0.75831 0.20379 0.85314 0.0
H2055 H 0.86332 0.25734 0.85698 0.0
H2056 H 0.88343 0.24194 0.85432 0.0
H2057 H 0.87615 0.24906 0.87874 0.0
H2058 H 0.85583 0.19983 0.88541 0.0
H2059 H 0.86329 0.19257 0.86105 0.0
H2060 H 0.82946 0.17442 0.86804 0.0
H2061 H 0.7684 0.19306 0.81885 0.0
H2062 H 0.78748 0.18692 0.78848 0.0
H2063 H 0.86119 0.20697 0.82421 0.0
C2064 C 0.82074 0.22489 0.89115 0.0
C2065 C 0.79881 0.227 0.89738 0.0
C2066 C 0.77594 0.21851 0.88359 0.0
C2067 C 0.77541 0.20927 0.86378 0.0
C2068 C 0.79784 0.20851 0.85796 0.0
C2069 C 0.81997 0.21585 0.87133 0.0
C2070 C 0.84224 0.21495 0.86109 0.0
C2071 C 0.86778 0.24246 0.86289 0.0
C2072 C 0.84804 0.1942 0.86939 0.0
C2073 C 0.82944 0.2065 0.83977 0.0
C2074 C 0.80376 0.20269 0.83827 0.0
C2075 C 0.78841 0.19579 0.81991 0.0
C2076 C 0.79954 0.1926 0.80269 0.0
C2077 C 0.82588 0.19644 0.80387 0.0
C2078 C 0.84086 0.20343 0.82276 0.0
H2079 H 0.2679 0.10399 0.44997 0.0
H2080 H 0.1931 0.0981 0.46509 0.0
H2081 H 0.21245 0.11467 0.49989 0.0
H2082 H 0.28213 0.08246 0.49591 0.0
H2083 H 0.31786 0.10495 0.49732 0.0
H2084 H 0.29839 0.09299 0.47337 0.0
H2085 H 0.31619 0.14128 0.46496 0.0
H2086 H 0.33572 0.15338 0.48887 0.0
H2087 H 0.3121 0.16376 0.48175 0.0
H2088 H 0.23924 0.13124 0.53292 0.0
H2089 H 0.27218 0.14706 0.56251 0.0
H2090 H 0.33 0.14249 0.52643 0.0
C2091 C 0.25558 0.10609 0.46064 0.0
C2092 C 0.22905 0.09997 0.45475 0.0
C2093 C 0.21363 0.10314 0.46914 0.0
C2094 C 0.22437 0.11236 0.48898 0.0
C2095 C 0.25056 0.1183 0.49426 0.0
C2096 C 0.26601 0.11532 0.48057 0.0
C2097 C 0.29362 0.12314 0.49029 0.0
C2098 C 0.29826 0.09947 0.48915 0.0
C2099 C 0.31571 0.1468 0.48091 0.0
C2100 C 0.29116 0.13089 0.51157 0.0
C2101 C 0.26614 0.12795 0.51348 0.0
C2102 C 0.25897 0.13377 0.53162 0.0
C2103 C 0.2779 0.14293 0.54831 0.0
C2104 C 0.30378 0.14625 0.54678 0.0
C2105 C 0.31037 0.14003 0.52812 0.0
H2106 H 0.92177 0.17909 0.45086 0.0
H2107 H 0.93177 0.11249 0.46335 0.0
H2108 H 0.91647 0.11288 0.49675 0.0
H2109 H 0.94422 0.21316 0.50092 0.0
H2110 H 0.92006 0.22408 0.50032 0.0
H2111 H 0.93235 0.21896 0.47748 0.0
H2112 H 0.88348 0.18662 0.46239 0.0
H2113 H 0.87104 0.19154 0.4852 0.0
H2114 H 0.86199 0.15859 0.47543 0.0
H2115 H 0.89954 0.11989 0.52848 0.0
H2116 H 0.88185 0.13298 0.55664 0.0
H2117 H 0.88305 0.19543 0.52405 0.0
C2118 C 0.92097 0.16477 0.46072 0.0
C2119 C 0.92784 0.14566 0.45445 0.0
C2120 C 0.92626 0.12706 0.46771 0.0
C2121 C 0.91773 0.12722 0.48676 0.0
C2122 C 0.91084 0.14611 0.49238 0.0
C2123 C 0.91237 0.16457 0.4798 0.0
C2124 C 0.90331 0.18241 0.48948 0.0
C2125 C 0.92636 0.21137 0.49221 0.0
C2126 C 0.87848 0.17961 0.4774 0.0
C2127 C 0.89636 0.17099 0.50941 0.0
C2128 C 0.90097 0.15013 0.51077 0.0
C2129 C 0.89599 0.1363 0.52765 0.0
C2130 C 0.88608 0.14399 0.54362 0.0
C2131 C 0.88119 0.16535 0.54266 0.0
C2132 C 0.88639 0.17893 0.52523 0.0
H2133 H 0.84938 0.75263 0.45829 0.0
H2134 H 0.93017 0.81746 0.47655 0.0
H2135 H 0.92718 0.80215 0.51016 0.0
H2136 H 0.82197 0.75345 0.5054 0.0
H2137 H 0.80118 0.71795 0.50423 0.0
H2138 H 0.80941 0.73407 0.48153 0.0
H2139 H 0.82873 0.7047 0.4698 0.0
H2140 H 0.8206 0.6885 0.49246 0.0
H2141 H 0.85456 0.70402 0.48563 0.0
H2142 H 0.91578 0.77996 0.54184 0.0
H2143 H 0.89709 0.75172 0.56921 0.0
H2144 H 0.82336 0.7011 0.53105 0.0
C2145 C 0.86637 0.76366 0.46941 0.0
C2146 C 0.89013 0.78616 0.46464 0.0
C2147 C 0.91195 0.79992 0.47964 0.0
C2148 C 0.91038 0.79148 0.49886 0.0
C2149 C 0.88683 0.76919 0.50301 0.0
C2150 C 0.8652 0.7554 0.48874 0.0
C2151 C 0.84241 0.73181 0.49712 0.0
C2152 C 0.81725 0.73449 0.49707 0.0
C2153 C 0.83622 0.70571 0.48556 0.0
C2154 C 0.85468 0.73448 0.51828 0.0
C2155 C 0.88027 0.75628 0.52135 0.0
C2156 C 0.89571 0.76289 0.53963 0.0
C2157 C 0.88481 0.74679 0.55517 0.0
C2158 C 0.85864 0.72418 0.55245 0.0
C2159 C 0.84346 0.71808 0.53365 0.0
loop_
_geom_bond_atom_site_label_1
_geom_bond_atom_site_label_2
_geom_bond_distance
_geom_bond_site_symmetry_2
_ccdc_geom_bond_type
H0 C1 0.949 . S
C1 H0 0.949 . S
C1 C2 1.395 . S
C1 C3 1.391 . S
C2 C1 1.395 . S
C2 C5 1.390 . S
C3 C1 1.391 . S
C3 C7 1.387 . S
C3 C8 1.491 . S
H4 C5 0.950 . S
C5 C2 1.390 . S
C5 H4 0.950 . S
C5 C6 1.378 . S
C6 C5 1.378 . S
C6 C7 1.409 . S
C7 C3 1.387 . S
C7 C6 1.409 . S
C7 H9 0.951 . S
C8 C3 1.491 . S
C8 C10 1.382 . S
C8 C12 1.404 . S
H9 C7 0.951 . S
C10 C8 1.382 . S
C10 C11 1.390 . S
C10 H15 0.949 . S
C11 C10 1.390 . S
C11 C16 1.399 . S
C12 C8 1.404 . S
C12 H13 0.950 . S
C12 C14 1.375 . S
H13 C12 0.950 . S
C14 C12 1.375 . S
C14 C16 1.382 . S
C14 H18 0.950 . S
H15 C10 0.949 . S
C16 C11 1.399 . S
C16 C14 1.382 . S
C16 H17 0.952 . S
H17 C16 0.952 . S
H18 C14 0.950 . S
H19 C20 0.949 . S
C20 H19 0.949 . S
C20 C21 1.395 . S
C20 C22 1.391 . S
C21 C20 1.395 . S
C21 C24 1.390 . S
C22 C20 1.391 . S
C22 C26 1.387 . S
C22 C27 1.491 . S
H23 C24 0.950 . S
C24 C21 1.390 . S
C24 H23 0.950 . S
C24 C25 1.378 . S
C25 C24 1.378 . S
C25 C26 1.409 . S
C26 C22 1.387 . S
C26 C25 1.409 . S
C26 H28 0.951 . S
C27 C22 1.491 . S
C27 C29 1.382 . S
C27 C31 1.404 . S
H28 C26 0.951 . S
C29 C27 1.382 . S
C29 C30 1.390 . S
C29 H34 0.949 . S
C30 C29 1.390 . S
C30 C35 1.399 . S
C31 C27 1.404 . S
C31 H32 0.950 . S
C31 C33 1.375 . S
H32 C31 0.950 . S
C33 C31 1.375 . S
C33 C35 1.382 . S
C33 H37 0.950 . S
H34 C29 0.949 . S
C35 C30 1.399 . S
C35 C33 1.382 . S
C35 H36 0.952 . S
H36 C35 0.952 . S
H37 C33 0.950 . S
H38 C39 0.949 . S
C39 H38 0.949 . S
C39 C40 1.395 . S
C39 C41 1.391 . S
C40 C39 1.395 . S
C40 C43 1.390 . S
C41 C39 1.391 . S
C41 C45 1.387 . S
C41 C46 1.491 . S
H42 C43 0.950 . S
C43 C40 1.390 . S
C43 H42 0.950 . S
C43 C44 1.378 . S
C44 C43 1.378 . S
C44 C45 1.409 . S
C45 C41 1.387 . S
C45 C44 1.409 . S
C45 H47 0.951 . S
C46 C41 1.491 . S
C46 C48 1.382 . S
C46 C50 1.404 . S
H47 C45 0.951 . S
C48 C46 1.382 . S
C48 C49 1.390 . S
C48 H53 0.949 . S
C49 C48 1.390 . S
C49 C54 1.399 . S
C50 C46 1.404 . S
C50 H51 0.950 . S
C50 C52 1.375 . S
H51 C50 0.950 . S
C52 C50 1.375 . S
C52 C54 1.382 . S
C52 H56 0.950 . S
H53 C48 0.949 . S
C54 C49 1.399 . S
C54 C52 1.382 . S
C54 H55 0.952 1_655 S
H55 C54 0.952 1_455 S
H56 C52 0.950 . S
H57 C58 0.949 . S
C58 H57 0.949 . S
C58 C59 1.395 . S
C58 C60 1.391 . S
C59 C58 1.395 . S
C59 C62 1.390 . S
C60 C58 1.391 . S
C60 C64 1.387 . S
C60 C65 1.491 . S
H61 C62 0.950 . S
C62 C59 1.390 . S
C62 H61 0.950 . S
C62 C63 1.378 . S
C63 C62 1.378 . S
C63 C64 1.409 . S
C64 C60 1.387 . S
C64 C63 1.409 . S
C64 H66 0.951 . S
C65 C60 1.491 . S
C65 C67 1.382 . S
C65 C69 1.404 . S
H66 C64 0.951 . S
C67 C65 1.382 . S
C67 C68 1.390 . S
C67 H72 0.949 . S
C68 C67 1.390 . S
C68 C73 1.399 . S
C69 C65 1.404 . S
C69 H70 0.950 . S
C69 C71 1.375 . S
H70 C69 0.950 . S
C71 C69 1.375 . S
C71 C73 1.382 . S
C71 H75 0.950 . S
H72 C67 0.949 . S
C73 C68 1.399 . S
C73 C71 1.382 . S
C73 H74 0.952 . S
H74 C73 0.952 . S
H75 C71 0.950 . S
H76 C77 0.949 . S
C77 H76 0.949 . S
C77 C78 1.395 . S
C77 C79 1.391 . S
C78 C77 1.395 . S
C78 C81 1.390 . S
C79 C77 1.391 . S
C79 C83 1.387 . S
C79 C84 1.491 . S
H80 C81 0.950 . S
C81 C78 1.390 . S
C81 H80 0.950 . S
C81 C82 1.378 . S
C82 C81 1.378 . S
C82 C83 1.409 . S
C83 C79 1.387 . S
C83 C82 1.409 . S
C83 H85 0.951 . S
C84 C79 1.491 . S
C84 C86 1.382 . S
C84 C88 1.404 . S
H85 C83 0.951 . S
C86 C84 1.382 . S
C86 C87 1.390 . S
C86 H91 0.949 . S
C87 C86 1.390 . S
C87 C92 1.399 . S
C88 C84 1.404 . S
C88 H89 0.950 . S
C88 C90 1.375 . S
H89 C88 0.950 . S
C90 C88 1.375 . S
C90 C92 1.382 . S
C90 H94 0.950 . S
H91 C86 0.949 . S
C92 C87 1.399 . S
C92 C90 1.382 . S
C92 H93 0.952 . S
H93 C92 0.952 . S
H94 C90 0.950 . S
H95 C96 0.949 . S
C96 H95 0.949 . S
C96 C97 1.395 . S
C96 C98 1.391 . S
C97 C96 1.395 . S
C97 C100 1.390 . S
C98 C96 1.391 . S
C98 C102 1.387 . S
C98 C103 1.491 . S
H99 C100 0.950 . S
C100 C97 1.390 . S
C100 H99 0.950 . S
C100 C101 1.378 . S
C101 C100 1.378 . S
C101 C102 1.409 . S
C102 C98 1.387 . S
C102 C101 1.409 . S
C102 H104 0.951 . S
C103 C98 1.491 . S
C103 C105 1.382 . S
C103 C107 1.404 . S
H104 C102 0.951 . S
C105 C103 1.382 . S
C105 C106 1.390 . S
C105 H110 0.949 . S
C106 C105 1.390 . S
C106 C111 1.399 . S
C107 C103 1.404 . S
C107 H108 0.950 . S
C107 C109 1.375 . S
H108 C107 0.950 . S
C109 C107 1.375 . S
C109 C111 1.382 . S
C109 H113 0.950 . S
H110 C105 0.949 . S
C111 C106 1.399 . S
C111 C109 1.382 . S
C111 H112 0.952 . S
H112 C111 0.952 . S
H113 C109 0.950 . S
H114 C115 0.949 . S
C115 H114 0.949 . S
C115 C116 1.395 . S
C115 C117 1.391 . S
C116 C115 1.395 . S
C116 C119 1.390 . S
C117 C115 1.391 . S
C117 C121 1.387 . S
C117 C122 1.491 . S
H118 C119 0.950 . S
C119 C116 1.390 . S
C119 H118 0.950 . S
C119 C120 1.378 . S
C120 C119 1.378 . S
C120 C121 1.409 . S
C121 C117 1.387 . S
C121 C120 1.409 . S
C121 H123 0.951 . S
C122 C117 1.491 . S
C122 C124 1.382 . S
C122 C126 1.404 . S
H123 C121 0.951 . S
C124 C122 1.382 . S
C124 C125 1.390 . S
C124 H129 0.949 . S
C125 C124 1.390 . S
C125 C130 1.399 . S
C126 C122 1.404 . S
C126 H127 0.950 . S
C126 C128 1.375 . S
H127 C126 0.950 . S
C128 C126 1.375 . S
C128 C130 1.382 . S
C128 H132 0.950 . S
H129 C124 0.949 . S
C130 C125 1.399 . S
C130 C128 1.382 . S
C130 H131 0.952 . S
H131 C130 0.952 . S
H132 C128 0.950 . S
H133 C134 0.949 . S
C134 H133 0.949 . S
C134 C135 1.395 . S
C134 C136 1.391 . S
C135 C134 1.395 . S
C135 C138 1.390 . S
C136 C134 1.391 . S
C136 C140 1.387 . S
C136 C141 1.491 . S
H137 C138 0.950 . S
C138 C135 1.390 . S
C138 H137 0.950 . S
C138 C139 1.378 . S
C139 C138 1.378 . S
C139 C140 1.409 . S
C140 C136 1.387 . S
C140 C139 1.409 . S
C140 H142 0.951 . S
C141 C136 1.491 . S
C141 C143 1.382 . S
C141 C145 1.404 . S
H142 C140 0.951 . S
C143 C141 1.382 . S
C143 C144 1.390 . S
C143 H148 0.949 . S
C144 C143 1.390 . S
C144 C149 1.399 . S
C145 C141 1.404 . S
C145 H146 0.950 . S
C145 C147 1.375 . S
H146 C145 0.950 . S
C147 C145 1.375 . S
C147 C149 1.382 . S
C147 H151 0.950 . S
H148 C143 0.949 . S
C149 C144 1.399 . S
C149 C147 1.382 . S
C149 H150 0.952 . S
H150 C149 0.952 . S
H151 C147 0.950 . S
H152 C153 0.949 . S
C153 H152 0.949 . S
C153 C154 1.395 . S
C153 C155 1.391 . S
C154 C153 1.395 . S
C154 C157 1.390 . S
C155 C153 1.391 . S
C155 C159 1.387 . S
C155 C160 1.491 . S
H156 C157 0.950 . S
C157 C154 1.390 . S
C157 H156 0.950 . S
C157 C158 1.378 . S
C158 C157 1.378 . S
C158 C159 1.409 . S
C159 C155 1.387 . S
C159 C158 1.409 . S
C159 H161 0.951 . S
C160 C155 1.491 . S
C160 C162 1.382 . S
C160 C164 1.404 . S
H161 C159 0.951 . S
C162 C160 1.382 . S
C162 C163 1.390 . S
C162 H167 0.949 . S
C163 C162 1.390 . S
C163 C168 1.399 . S
C164 C160 1.404 . S
C164 H165 0.950 . S
C164 C166 1.375 . S
H165 C164 0.950 . S
C166 C164 1.375 . S
C166 C168 1.382 . S
C166 H170 0.950 . S
H167 C162 0.949 . S
C168 C163 1.399 . S
C168 C166 1.382 . S
C168 H169 0.952 . S
H169 C168 0.952 . S
H170 C166 0.950 . S
H171 C172 0.949 . S
C172 H171 0.949 . S
C172 C173 1.395 . S
C172 C174 1.391 . S
C173 C172 1.395 . S
C173 C176 1.390 . S
C174 C172 1.391 . S
C174 C178 1.387 . S
C174 C179 1.491 . S
H175 C176 0.950 . S
C176 C173 1.390 . S
C176 H175 0.950 . S
C176 C177 1.378 . S
C177 C176 1.378 . S
C177 C178 1.409 . S
C178 C174 1.387 . S
C178 C177 1.409 . S
C178 H180 0.951 . S
C179 C174 1.491 . S
C179 C181 1.382 . S
C179 C183 1.404 . S
H180 C178 0.951 . S
C181 C179 1.382 . S
C181 C182 1.390 . S
C181 H186 0.949 . S
C182 C181 1.390 . S
C182 C187 1.399 . S
C183 C179 1.404 . S
C183 H184 0.950 . S
C183 C185 1.375 . S
H184 C183 0.950 . S
C185 C183 1.375 . S
C185 C187 1.382 . S
C185 H189 0.950 . S
H186 C181 0.949 . S
C187 C182 1.399 . S
C187 C185 1.382 . S
C187 H188 0.952 . S
H188 C187 0.952 . S
H189 C185 0.950 . S
H190 C191 0.949 . S
C191 H190 0.949 . S
C191 C192 1.395 . S
C191 C193 1.391 . S
C192 C191 1.395 . S
C192 C195 1.390 . S
C193 C191 1.391 . S
C193 C197 1.387 . S
C193 C198 1.491 . S
H194 C195 0.950 . S
C195 C192 1.390 . S
C195 H194 0.950 . S
C195 C196 1.378 . S
C196 C195 1.378 . S
C196 C197 1.409 . S
C197 C193 1.387 . S
C197 C196 1.409 . S
C197 H199 0.951 1_556 S
C198 C193 1.491 . S
C198 C200 1.382 . S
C198 C202 1.404 1_556 S
H199 C197 0.951 1_554 S
C200 C198 1.382 . S
C200 C201 1.390 1_556 S
C200 H205 0.949 . S
C201 C200 1.390 1_554 S
C201 C206 1.399 . S
C202 C198 1.404 1_554 S
C202 H203 0.950 . S
C202 C204 1.375 . S
H203 C202 0.950 . S
C204 C202 1.375 . S
C204 C206 1.382 . S
C204 H208 0.950 . S
H205 C200 0.949 . S
C206 C201 1.399 . S
C206 C204 1.382 . S
C206 H207 0.952 . S
H207 C206 0.952 . S
H208 C204 0.950 . S
H209 C210 0.949 . S
C210 H209 0.949 . S
C210 C211 1.395 . S
C210 C212 1.391 . S
C211 C210 1.395 . S
C211 C214 1.390 . S
C212 C210 1.391 . S
C212 C216 1.387 . S
C212 C217 1.491 . S
H213 C214 0.950 . S
C214 C211 1.390 . S
C214 H213 0.950 . S
C214 C215 1.378 . S
C215 C214 1.378 . S
C215 C216 1.409 . S
C216 C212 1.387 . S
C216 C215 1.409 . S
C216 H218 0.951 . S
C217 C212 1.491 . S
C217 C219 1.382 . S
C217 C221 1.404 . S
H218 C216 0.951 . S
C219 C217 1.382 . S
C219 C220 1.390 . S
C219 H224 0.949 . S
C220 C219 1.390 . S
C220 C225 1.399 . S
C221 C217 1.404 . S
C221 H222 0.950 . S
C221 C223 1.375 . S
H222 C221 0.950 . S
C223 C221 1.375 . S
C223 C225 1.382 . S
C223 H227 0.950 . S
H224 C219 0.949 . S
C225 C220 1.399 . S
C225 C223 1.382 . S
C225 H226 0.952 . S
H226 C225 0.952 . S
H227 C223 0.950 . S
H228 C229 0.949 . S
C229 H228 0.949 . S
C229 C230 1.395 . S
C229 C231 1.391 . S
C230 C229 1.395 . S
C230 C233 1.390 . S
C231 C229 1.391 . S
C231 C235 1.387 . S
C231 C236 1.491 . S
H232 C233 0.950 . S
C233 C230 1.390 . S
C233 H232 0.950 . S
C233 C234 1.378 . S
C234 C233 1.378 . S
C234 C235 1.409 . S
C235 C231 1.387 . S
C235 C234 1.409 . S
C235 H237 0.951 . S
C236 C231 1.491 . S
C236 C238 1.382 . S
C236 C240 1.404 . S
H237 C235 0.951 . S
C238 C236 1.382 . S
C238 C239 1.390 . S
C238 H243 0.949 . S
C239 C238 1.390 . S
C239 C244 1.399 . S
C240 C236 1.404 . S
C240 H241 0.950 . S
C240 C242 1.375 . S
H241 C240 0.950 . S
C242 C240 1.375 . S
C242 C244 1.382 . S
C242 H246 0.949 1_554 S
H243 C238 0.949 . S
C244 C239 1.399 . S
C244 C242 1.382 . S
C244 H245 0.952 1_554 S
H245 C244 0.952 1_556 S
H246 C242 0.949 1_556 S
H247 C248 0.949 . S
C248 H247 0.949 . S
C248 C249 1.395 . S
C248 C250 1.391 . S
C249 C248 1.395 . S
C249 C252 1.390 . S
C250 C248 1.391 . S
C250 C254 1.387 . S
C250 C255 1.491 . S
H251 C252 0.950 . S
C252 C249 1.390 . S
C252 H251 0.950 . S
C252 C253 1.378 . S
C253 C252 1.378 . S
C253 C254 1.409 . S
C254 C250 1.387 . S
C254 C253 1.409 . S
C254 H256 0.951 . S
C255 C250 1.491 . S
C255 C257 1.382 . S
C255 C259 1.404 . S
H256 C254 0.951 . S
C257 C255 1.382 . S
C257 C258 1.390 . S
C257 H262 0.949 . S
C258 C257 1.390 . S
C258 C263 1.399 . S
C259 C255 1.404 . S
C259 H260 0.950 . S
C259 C261 1.375 . S
H260 C259 0.950 . S
C261 C259 1.375 . S
C261 C263 1.382 . S
C261 H265 0.950 . S
H262 C257 0.949 . S
C263 C258 1.399 . S
C263 C261 1.382 . S
C263 H264 0.952 . S
H264 C263 0.952 . S
H265 C261 0.950 . S
H266 C267 0.949 . S
C267 H266 0.949 . S
C267 C268 1.395 . S
C267 C269 1.391 . S
C268 C267 1.395 . S
C268 C271 1.390 . S
C269 C267 1.391 . S
C269 C273 1.387 . S
C269 C274 1.491 . S
H270 C271 0.950 . S
C271 C268 1.390 . S
C271 H270 0.950 . S
C271 C272 1.378 . S
C272 C271 1.378 . S
C272 C273 1.409 . S
C273 C269 1.387 . S
C273 C272 1.409 . S
C273 H275 0.951 . S
C274 C269 1.491 . S
C274 C276 1.382 . S
C274 C278 1.404 . S
H275 C273 0.951 . S
C276 C274 1.382 . S
C276 C277 1.390 . S
C276 H281 0.949 . S
C277 C276 1.390 . S
C277 C282 1.399 . S
C278 C274 1.404 . S
C278 H279 0.950 . S
C278 C280 1.375 . S
H279 C278 0.950 . S
C280 C278 1.375 . S
C280 C282 1.382 . S
C280 H284 0.950 . S
H281 C276 0.949 . S
C282 C277 1.399 . S
C282 C280 1.382 . S
C282 H283 0.952 . S
H283 C282 0.952 . S
H284 C280 0.950 . S
H285 C286 0.949 . S
C286 H285 0.949 . S
C286 C287 1.395 . S
C286 C288 1.391 . S
C287 C286 1.395 . S
C287 C290 1.390 . S
C288 C286 1.391 . S
C288 C292 1.387 . S
C288 C293 1.491 . S
H289 C290 0.950 . S
C290 C287 1.390 . S
C290 H289 0.950 . S
C290 C291 1.378 . S
C291 C290 1.378 . S
C291 C292 1.409 . S
C292 C288 1.387 . S
C292 C291 1.409 . S
C292 H294 0.951 . S
C293 C288 1.491 . S
C293 C295 1.382 . S
C293 C297 1.404 . S
H294 C292 0.951 . S
C295 C293 1.382 . S
C295 C296 1.390 . S
C295 H300 0.949 . S
C296 C295 1.390 . S
C296 C301 1.399 . S
C297 C293 1.404 . S
C297 H298 0.950 . S
C297 C299 1.375 . S
H298 C297 0.950 . S
C299 C297 1.375 . S
C299 C301 1.382 . S
C299 H303 0.950 . S
H300 C295 0.949 . S
C301 C296 1.399 . S
C301 C299 1.382 . S
C301 H302 0.952 . S
H302 C301 0.952 . S
H303 C299 0.950 . S
H304 C305 0.949 . S
C305 H304 0.949 . S
C305 C306 1.395 . S
C305 C307 1.391 . S
C306 C305 1.395 . S
C306 C309 1.390 . S
C307 C305 1.391 . S
C307 C311 1.387 . S
C307 C312 1.491 . S
H308 C309 0.950 . S
C309 C306 1.390 . S
C309 H308 0.950 . S
C309 C310 1.378 . S
C310 C309 1.378 . S
C310 C311 1.409 . S
C311 C307 1.387 . S
C311 C310 1.409 . S
C311 H313 0.951 . S
C312 C307 1.491 . S
C312 C314 1.382 . S
C312 C316 1.404 . S
H313 C311 0.951 . S
C314 C312 1.382 . S
C314 C315 1.390 . S
C314 H319 0.949 . S
C315 C314 1.390 . S
C315 C320 1.399 . S
C316 C312 1.404 . S
C316 H317 0.950 . S
C316 C318 1.375 . S
H317 C316 0.950 . S
C318 C316 1.375 . S
C318 C320 1.382 . S
C318 H322 0.950 . S
H319 C314 0.949 . S
C320 C315 1.399 . S
C320 C318 1.382 . S
C320 H321 0.952 . S
H321 C320 0.952 . S
H322 C318 0.950 . S
H323 C324 0.949 . S
C324 H323 0.949 . S
C324 C325 1.395 . S
C324 C326 1.391 . S
C325 C324 1.395 . S
C325 C328 1.390 . S
C326 C324 1.391 . S
C326 C330 1.387 . S
C326 C331 1.491 . S
H327 C328 0.950 . S
C328 C325 1.390 . S
C328 H327 0.950 . S
C328 C329 1.378 . S
C329 C328 1.378 . S
C329 C330 1.409 . S
C330 C326 1.387 . S
C330 C329 1.409 . S
C330 H332 0.951 . S
C331 C326 1.491 . S
C331 C333 1.382 . S
C331 C335 1.404 . S
H332 C330 0.951 . S
C333 C331 1.382 . S
C333 C334 1.390 . S
C333 H338 0.949 . S
C334 C333 1.390 . S
C334 C339 1.399 . S
C335 C331 1.404 . S
C335 H336 0.950 . S
C335 C337 1.375 . S
H336 C335 0.950 . S
C337 C335 1.375 . S
C337 C339 1.382 . S
C337 H341 0.950 . S
H338 C333 0.949 . S
C339 C334 1.399 . S
C339 C337 1.382 . S
C339 H340 0.952 . S
H340 C339 0.952 . S
H341 C337 0.950 . S
Tb342 C352 2.825 1_565 S
Tb342 O353 2.347 1_565 S
Tb342 O356 2.366 1_565 S
Tb342 O361 2.418 . S
Tb342 O362 2.384 . S
Tb342 O365 2.479 . S
Tb342 O366 2.471 1_565 S
Eu343 O354 2.418 . S
Eu343 O355 2.384 . S
Eu343 O358 2.479 . S
Eu343 O359 2.471 1_545 S
Eu343 O360 2.347 1_545 S
Eu343 O363 2.366 1_545 S
Eu343 C373 2.812 1_545 S
C344 O360 1.276 . S
C344 O361 1.233 1_554 S
C345 O362 1.255 1_554 S
C345 O363 1.265 . S
C346 C348 1.380 . S
C346 C349 1.374 . S
C346 C352 1.507 . S
C347 C348 1.384 . S
C347 C351 1.387 . S
C347 H374 0.930 . S
C348 C346 1.380 . S
C348 C347 1.384 . S
C348 H375 0.931 1_545 S
C349 C346 1.374 . S
C349 C350 1.390 . S
C349 H376 0.930 . S
C350 C349 1.390 . S
C350 C351 1.391 . S
C350 H377 0.930 . S
C351 C347 1.387 . S
C351 C350 1.391 . S
C352 Tb342 2.825 1_545 S
C352 C346 1.507 . S
C352 O365 1.238 1_545 S
C352 O366 1.247 . S
O353 Tb342 2.347 1_545 S
O353 C357 1.259 1_556 S
O354 Eu343 2.418 . S
O354 C357 1.265 . S
O355 Eu343 2.384 . S
O355 C364 1.255 1_554 S
O356 Tb342 2.366 1_545 S
O356 C364 1.265 . S
C357 O353 1.259 1_554 S
C357 O354 1.265 . S
O358 Eu343 2.479 . S
O358 C373 1.188 1_545 S
O359 Eu343 2.471 1_565 S
O359 C373 1.283 . S
O360 Eu343 2.347 1_565 S
O360 C344 1.276 . S
O361 Tb342 2.418 . S
O361 C344 1.233 1_556 S
O362 Tb342 2.384 . S
O362 C345 1.255 1_556 S
O363 Eu343 2.366 1_565 S
O363 C345 1.265 . S
C364 O355 1.255 1_556 S
C364 O356 1.265 . S
O365 Tb342 2.479 . S
O365 C352 1.238 1_565 S
O366 Tb342 2.471 1_545 S
O366 C352 1.247 . S
C367 C370 1.380 1_565 S
C367 C371 1.374 . S
C367 C373 1.522 . S
C368 C369 1.387 . S
C368 C372 1.391 . S
C369 C368 1.387 . S
C369 C370 1.384 1_565 S
C369 H378 0.930 1_565 S
C370 C367 1.380 1_545 S
C370 C369 1.384 1_545 S
C370 H379 0.931 . S
C371 C367 1.374 . S
C371 C372 1.390 . S
C371 H380 0.930 . S
C372 C368 1.391 . S
C372 C371 1.390 . S
C372 H381 0.930 . S
C373 Eu343 2.812 1_565 S
C373 O358 1.188 1_565 S
C373 O359 1.283 . S
C373 C367 1.522 . S
H374 C347 0.930 . S
H375 C348 0.931 1_565 S
H376 C349 0.930 . S
H377 C350 0.930 . S
H378 C369 0.930 1_545 S
H379 C370 0.931 . S
H380 C371 0.930 . S
H381 C372 0.930 . S
Tb382 C392 2.825 1_455 S
Tb382 O393 2.347 1_455 S
Tb382 O396 2.366 1_455 S
Tb382 O401 2.418 . S
Tb382 O402 2.347 1_556 S
Tb382 O405 2.479 . S
Tb382 O406 2.471 1_455 S
Eu383 O394 2.418 . S
Eu383 O395 2.384 . S
Eu383 O398 2.479 . S
Eu383 O399 2.471 1_655 S
Eu383 O400 2.347 1_655 S
Eu383 O403 2.366 1_655 S
Eu383 C413 2.825 1_655 S
C384 O400 1.259 . S
C384 O401 1.265 1_554 S
C385 O402 1.308 . S
C385 O403 1.265 . S
C386 C388 1.380 . S
C386 C389 1.374 . S
C386 C392 1.507 . S
C387 C388 1.384 . S
C387 C391 1.387 . S
C387 H414 0.930 . S
C388 C386 1.380 . S
C388 C387 1.384 . S
C388 H415 0.931 1_655 S
C389 C386 1.374 . S
C389 C390 1.390 . S
C389 H416 0.930 . S
C390 C389 1.390 . S
C390 C391 1.391 . S
C390 H417 0.930 . S
C391 C387 1.387 . S
C391 C390 1.391 . S
C392 Tb382 2.825 1_655 S
C392 C386 1.507 . S
C392 O405 1.238 1_655 S
C392 O406 1.247 . S
O393 Tb382 2.347 1_655 S
O393 C397 1.233 1_556 S
O394 Eu383 2.418 . S
O394 C397 1.312 . S
O395 Eu383 2.384 . S
O395 C404 1.255 1_554 S
O396 Tb382 2.366 1_655 S
O396 C404 1.265 . S
C397 O393 1.233 1_554 S
C397 O394 1.312 . S
O398 Eu383 2.479 . S
O398 C413 1.238 1_655 S
O399 Eu383 2.471 1_455 S
O399 C413 1.247 . S
O400 Eu383 2.347 1_455 S
O400 C384 1.259 . S
O401 Tb382 2.418 . S
O401 C384 1.265 1_556 S
O402 Tb382 2.347 1_554 S
O402 C385 1.308 . S
O403 Eu383 2.366 1_455 S
O403 C385 1.265 . S
C404 O395 1.255 1_556 S
C404 O396 1.265 . S
O405 Tb382 2.479 . S
O405 C392 1.238 1_455 S
O406 Tb382 2.471 1_655 S
O406 C392 1.247 . S
C407 C410 1.380 . S
C407 C411 1.374 . S
C407 C413 1.507 . S
C408 C409 1.387 . S
C408 C412 1.391 . S
C409 C408 1.387 . S
C409 C410 1.384 . S
C409 H418 0.930 . S
C410 C407 1.380 . S
C410 C409 1.384 . S
C410 H419 0.931 1_455 S
C411 C407 1.374 . S
C411 C412 1.390 . S
C411 H420 0.930 . S
C412 C408 1.391 . S
C412 C411 1.390 . S
C412 H421 0.930 . S
C413 Eu383 2.825 1_455 S
C413 O398 1.238 1_455 S
C413 O399 1.247 . S
C413 C407 1.507 . S
H414 C387 0.930 . S
H415 C388 0.931 1_455 S
H416 C389 0.930 . S
H417 C390 0.930 . S
H418 C409 0.930 . S
H419 C410 0.931 1_655 S
H420 C411 0.930 . S
H421 C412 0.930 . S
Tb422 C432 2.825 . S
Tb422 O433 2.347 . S
Tb422 O436 2.366 . S
Tb422 O441 2.418 . S
Tb422 O442 2.384 . S
Tb422 O445 2.479 . S
Tb422 O446 2.471 . S
Eu423 O434 2.418 . S
Eu423 O435 2.384 1_556 S
Eu423 O438 2.479 . S
Eu423 O439 2.471 . S
Eu423 O440 2.347 1_556 S
Eu423 O443 2.366 . S
Eu423 C453 2.825 . S
C424 O440 1.259 . S
C424 O441 1.265 . S
C425 O442 1.255 1_556 S
C425 O443 1.265 . S
C426 C428 1.380 . S
C426 C429 1.374 . S
C426 C432 1.507 . S
C427 C428 1.384 . S
C427 C431 1.387 . S
C427 H454 0.930 . S
C428 C426 1.380 . S
C428 C427 1.384 . S
C428 H455 0.931 . S
C429 C426 1.374 . S
C429 C430 1.390 . S
C429 H456 0.930 . S
C430 C429 1.390 . S
C430 C431 1.391 . S
C430 H457 0.930 . S
C431 C427 1.387 . S
C431 C430 1.391 . S
C432 Tb422 2.825 . S
C432 C426 1.507 . S
C432 O445 1.238 . S
C432 O446 1.247 . S
O433 Tb422 2.347 . S
O433 C437 1.259 . S
O434 Eu423 2.418 . S
O434 C437 1.265 1_556 S
O435 Eu423 2.384 1_554 S
O435 C444 1.255 . S
O436 Tb422 2.366 . S
O436 C444 1.265 . S
C437 O433 1.259 . S
C437 O434 1.265 1_554 S
O438 Eu423 2.479 . S
O438 C453 1.238 . S
O439 Eu423 2.471 . S
O439 C453 1.247 . S
O440 Eu423 2.347 1_554 S
O440 C424 1.259 . S
O441 Tb422 2.418 . S
O441 C424 1.265 . S
O442 Tb422 2.384 . S
O442 C425 1.255 1_554 S
O443 Eu423 2.366 . S
O443 C425 1.265 . S
C444 O435 1.255 . S
C444 O436 1.265 . S
O445 Tb422 2.479 . S
O445 C432 1.238 . S
O446 Tb422 2.471 . S
O446 C432 1.247 . S
C447 C450 1.380 . S
C447 C451 1.374 . S
C447 C453 1.507 . S
C448 C449 1.387 . S
C448 C452 1.391 . S
C449 C448 1.387 . S
C449 C450 1.384 . S
C449 H458 0.930 . S
C450 C447 1.380 . S
C450 C449 1.384 . S
C450 H459 0.931 . S
C451 C447 1.374 . S
C451 C452 1.390 . S
C451 H460 0.930 . S
C452 C448 1.391 . S
C452 C451 1.390 . S
C452 H461 0.930 . S
C453 Eu423 2.825 . S
C453 O438 1.238 . S
C453 O439 1.247 . S
C453 C447 1.507 . S
H454 C427 0.930 . S
H455 C428 0.931 . S
H456 C429 0.930 . S
H457 C430 0.930 . S
H458 C449 0.930 . S
H459 C450 0.931 . S
H460 C451 0.930 . S
H461 C452 0.930 . S
Tb462 C472 2.825 . S
Tb462 O473 2.347 . S
Tb462 O476 2.366 . S
Tb462 O481 2.418 . S
Tb462 O482 2.384 . S
Tb462 O485 2.479 . S
Tb462 O486 2.471 . S
Eu463 O474 2.418 . S
Eu463 O475 2.384 . S
Eu463 O478 2.479 . S
Eu463 O479 2.471 . S
Eu463 O480 2.347 . S
Eu463 O483 2.366 . S
Eu463 C493 2.825 . S
C464 O480 1.259 . S
C464 O481 1.265 . S
C465 O482 1.255 . S
C465 O483 1.265 . S
C466 C468 1.380 . S
C466 C469 1.374 . S
C466 C472 1.507 . S
C467 C468 1.384 . S
C467 C471 1.387 . S
C467 H494 0.930 . S
C468 C466 1.380 . S
C468 C467 1.384 . S
C468 H495 0.931 . S
C469 C466 1.374 . S
C469 C470 1.390 . S
C469 H496 0.930 . S
C470 C469 1.390 . S
C470 C471 1.391 . S
C470 H497 0.930 . S
C471 C467 1.387 . S
C471 C470 1.391 . S
C472 Tb462 2.825 . S
C472 C466 1.507 . S
C472 O485 1.238 . S
C472 O486 1.247 . S
O473 Tb462 2.347 . S
O473 C477 1.259 . S
O474 Eu463 2.418 . S
O474 C477 1.265 . S
O475 Eu463 2.384 . S
O475 C484 1.255 . S
O476 Tb462 2.366 . S
O476 C484 1.265 . S
C477 O473 1.259 . S
C477 O474 1.265 . S
O478 Eu463 2.479 . S
O478 C493 1.238 . S
O479 Eu463 2.471 . S
O479 C493 1.247 . S
O480 Eu463 2.347 . S
O480 C464 1.259 . S
O481 Tb462 2.418 . S
O481 C464 1.265 . S
O482 Tb462 2.384 . S
O482 C465 1.255 . S
O483 Eu463 2.366 . S
O483 C465 1.265 . S
C484 O475 1.255 . S
C484 O476 1.265 . S
O485 Tb462 2.479 . S
O485 C472 1.238 . S
O486 Tb462 2.471 . S
O486 C472 1.247 . S
C487 C490 1.380 . S
C487 C491 1.374 . S
C487 C493 1.507 . S
C488 C489 1.387 . S
C488 C492 1.391 . S
C489 C488 1.387 . S
C489 C490 1.384 . S
C489 H498 0.930 . S
C490 C487 1.380 . S
C490 C489 1.384 . S
C490 H499 0.931 . S
C491 C487 1.374 . S
C491 C492 1.390 . S
C491 H500 0.930 . S
C492 C488 1.391 . S
C492 C491 1.390 . S
C492 H501 0.930 . S
C493 Eu463 2.825 . S
C493 O478 1.238 . S
C493 O479 1.247 . S
C493 C487 1.507 . S
H494 C467 0.930 . S
H495 C468 0.931 . S
H496 C469 0.930 . S
H497 C470 0.930 . S
H498 C489 0.930 . S
H499 C490 0.931 . S
H500 C491 0.930 . S
H501 C492 0.930 . S
Tb502 C512 2.825 . S
Tb502 O513 2.347 . S
Tb502 O516 2.366 . S
Tb502 O521 2.418 . S
Tb502 O522 2.384 . S
Tb502 O525 2.479 . S
Tb502 O526 2.471 . S
Eu503 O514 2.418 . S
Eu503 O515 2.384 . S
Eu503 O518 2.479 . S
Eu503 O519 2.471 . S
Eu503 O520 2.347 . S
Eu503 O523 2.366 . S
Eu503 C533 2.825 . S
C504 O520 1.259 . S
C504 O521 1.265 . S
C505 O522 1.255 . S
C505 O523 1.265 . S
C506 C508 1.380 . S
C506 C509 1.374 . S
C506 C512 1.507 . S
C507 C508 1.384 . S
C507 C511 1.387 . S
C507 H534 0.930 . S
C508 C506 1.380 . S
C508 C507 1.384 . S
C508 H535 0.931 . S
C509 C506 1.374 . S
C509 C510 1.390 . S
C509 H536 0.930 . S
C510 C509 1.390 . S
C510 C511 1.391 . S
C510 H537 0.930 . S
C511 C507 1.387 . S
C511 C510 1.391 . S
C512 Tb502 2.825 . S
C512 C506 1.507 . S
C512 O525 1.238 . S
C512 O526 1.247 . S
O513 Tb502 2.347 . S
O513 C517 1.259 . S
O514 Eu503 2.418 . S
O514 C517 1.265 . S
O515 Eu503 2.384 . S
O515 C524 1.255 . S
O516 Tb502 2.366 . S
O516 C524 1.265 . S
C517 O513 1.259 . S
C517 O514 1.265 . S
O518 Eu503 2.479 . S
O518 C533 1.238 . S
O519 Eu503 2.471 . S
O519 C533 1.247 . S
O520 Eu503 2.347 . S
O520 C504 1.259 . S
O521 Tb502 2.418 . S
O521 C504 1.265 . S
O522 Tb502 2.384 . S
O522 C505 1.255 . S
O523 Eu503 2.366 . S
O523 C505 1.265 . S
C524 O515 1.255 . S
C524 O516 1.265 . S
O525 Tb502 2.479 . S
O525 C512 1.238 . S
O526 Tb502 2.471 . S
O526 C512 1.247 . S
C527 C530 1.380 . S
C527 C531 1.374 . S
C527 C533 1.507 . S
C528 C529 1.387 . S
C528 C532 1.391 . S
C529 C528 1.387 . S
C529 C530 1.384 . S
C529 H538 0.930 . S
C530 C527 1.380 . S
C530 C529 1.384 . S
C530 H539 0.931 . S
C531 C527 1.374 . S
C531 C532 1.390 . S
C531 H540 0.930 . S
C532 C528 1.391 . S
C532 C531 1.390 . S
C532 H541 0.930 . S
C533 Eu503 2.825 . S
C533 O518 1.238 . S
C533 O519 1.247 . S
C533 C527 1.507 . S
H534 C507 0.930 . S
H535 C508 0.931 . S
H536 C509 0.930 . S
H537 C510 0.930 . S
H538 C529 0.930 . S
H539 C530 0.931 . S
H540 C531 0.930 . S
H541 C532 0.930 . S
Tb542 C552 2.825 . S
Tb542 O553 2.347 . S
Tb542 O556 2.366 . S
Tb542 O561 2.418 . S
Tb542 O562 2.384 . S
Tb542 O565 2.479 . S
Tb542 O566 2.471 . S
Eu543 O554 2.418 . S
Eu543 O555 2.384 . S
Eu543 O558 2.479 . S
Eu543 O559 2.471 . S
Eu543 O560 2.347 . S
Eu543 O563 2.366 . S
Eu543 C573 2.825 . S
C544 O560 1.259 . S
C544 O561 1.265 . S
C545 O562 1.255 . S
C545 O563 1.265 . S
C546 C548 1.380 . S
C546 C549 1.374 . S
C546 C552 1.507 . S
C547 C548 1.384 . S
C547 C551 1.387 . S
C547 H574 0.930 . S
C548 C546 1.380 . S
C548 C547 1.384 . S
C548 H575 0.931 . S
C549 C546 1.374 . S
C549 C550 1.390 . S
C549 H576 0.930 . S
C550 C549 1.390 . S
C550 C551 1.391 . S
C550 H577 0.930 . S
C551 C547 1.387 . S
C551 C550 1.391 . S
C552 Tb542 2.825 . S
C552 C546 1.507 . S
C552 O565 1.238 . S
C552 O566 1.247 . S
O553 Tb542 2.347 . S
O553 C557 1.259 . S
O554 Eu543 2.418 . S
O554 C557 1.265 . S
O555 Eu543 2.384 . S
O555 C564 1.255 . S
O556 Tb542 2.366 . S
O556 C564 1.265 . S
C557 O553 1.259 . S
C557 O554 1.265 . S
O558 Eu543 2.479 . S
O558 C573 1.238 . S
O559 Eu543 2.471 . S
O559 C573 1.247 . S
O560 Eu543 2.347 . S
O560 C544 1.259 . S
O561 Tb542 2.418 . S
O561 C544 1.265 . S
O562 Tb542 2.384 . S
O562 C545 1.255 . S
O563 Eu543 2.366 . S
O563 C545 1.265 . S
C564 O555 1.255 . S
C564 O556 1.265 . S
O565 Tb542 2.479 . S
O565 C552 1.238 . S
O566 Tb542 2.471 . S
O566 C552 1.247 . S
C567 C570 1.380 . S
C567 C571 1.374 . S
C567 C573 1.507 . S
C568 C569 1.387 . S
C568 C572 1.391 . S
C569 C568 1.387 . S
C569 C570 1.384 . S
C569 H578 0.930 . S
C570 C567 1.380 . S
C570 C569 1.384 . S
C570 H579 0.931 . S
C571 C567 1.374 . S
C571 C572 1.390 . S
C571 H580 0.930 . S
C572 C568 1.391 . S
C572 C571 1.390 . S
C572 H581 0.930 . S
C573 Eu543 2.825 . S
C573 O558 1.238 . S
C573 O559 1.247 . S
C573 C567 1.507 . S
H574 C547 0.930 . S
H575 C548 0.931 . S
H576 C549 0.930 . S
H577 C550 0.930 . S
H578 C569 0.930 . S
H579 C570 0.931 . S
H580 C571 0.930 . S
H581 C572 0.930 . S
Tb582 C592 2.825 . S
Tb582 O593 2.347 . S
Tb582 O596 2.366 . S
Tb582 O601 2.418 . S
Tb582 O602 2.384 . S
Tb582 O605 2.479 . S
Tb582 O606 2.471 . S
Eu583 O594 2.418 . S
Eu583 O595 2.384 . S
Eu583 O598 2.479 . S
Eu583 O599 2.471 . S
Eu583 O600 2.347 . S
Eu583 O603 2.366 . S
Eu583 C613 2.825 . S
C584 O600 1.259 . S
C584 O601 1.265 . S
C585 O602 1.255 . S
C585 O603 1.265 . S
C586 C588 1.380 . S
C586 C589 1.374 . S
C586 C592 1.507 . S
C587 C588 1.384 . S
C587 C591 1.387 . S
C587 H614 0.930 . S
C588 C586 1.380 . S
C588 C587 1.384 . S
C588 H615 0.931 . S
C589 C586 1.374 . S
C589 C590 1.390 . S
C589 H616 0.930 . S
C590 C589 1.390 . S
C590 C591 1.391 . S
C590 H617 0.930 . S
C591 C587 1.387 . S
C591 C590 1.391 . S
C592 Tb582 2.825 . S
C592 C586 1.507 . S
C592 O605 1.238 . S
C592 O606 1.247 . S
O593 Tb582 2.347 . S
O593 C597 1.259 . S
O594 Eu583 2.418 . S
O594 C597 1.265 . S
O595 Eu583 2.384 . S
O595 C604 1.255 . S
O596 Tb582 2.366 . S
O596 C604 1.265 . S
C597 O593 1.259 . S
C597 O594 1.265 . S
O598 Eu583 2.479 . S
O598 C613 1.238 . S
O599 Eu583 2.471 . S
O599 C613 1.247 . S
O600 Eu583 2.347 . S
O600 C584 1.259 . S
O601 Tb582 2.418 . S
O601 C584 1.265 . S
O602 Tb582 2.384 . S
O602 C585 1.255 . S
O603 Eu583 2.366 . S
O603 C585 1.265 . S
C604 O595 1.255 . S
C604 O596 1.265 . S
O605 Tb582 2.479 . S
O605 C592 1.238 . S
O606 Tb582 2.471 . S
O606 C592 1.247 . S
C607 C610 1.380 . S
C607 C611 1.374 . S
C607 C613 1.507 . S
C608 C609 1.387 . S
C608 C612 1.391 . S
C609 C608 1.387 . S
C609 C610 1.384 . S
C609 H618 0.930 . S
C610 C607 1.380 . S
C610 C609 1.384 . S
C610 H619 0.931 . S
C611 C607 1.374 . S
C611 C612 1.390 . S
C611 H620 0.930 . S
C612 C608 1.391 . S
C612 C611 1.390 . S
C612 H621 0.930 . S
C613 Eu583 2.825 . S
C613 O598 1.238 . S
C613 O599 1.247 . S
C613 C607 1.507 . S
H614 C587 0.930 . S
H615 C588 0.931 . S
H616 C589 0.930 . S
H617 C590 0.930 . S
H618 C609 0.930 . S
H619 C610 0.931 . S
H620 C611 0.930 . S
H621 C612 0.930 . S
Tb622 C632 2.825 . S
Tb622 O633 2.347 . S
Tb622 O636 2.366 . S
Tb622 O641 2.418 . S
Tb622 O642 2.384 . S
Tb622 O645 2.479 . S
Tb622 O646 2.471 . S
Eu623 O634 2.418 . S
Eu623 O635 2.384 . S
Eu623 O638 2.479 . S
Eu623 O639 2.471 . S
Eu623 O640 2.347 . S
Eu623 O643 2.366 . S
Eu623 C653 2.825 . S
C624 O640 1.259 . S
C624 O641 1.265 . S
C625 O642 1.255 . S
C625 O643 1.265 . S
C626 C628 1.380 . S
C626 C629 1.374 . S
C626 C632 1.507 . S
C627 C628 1.384 . S
C627 C631 1.387 . S
C627 H654 0.930 . S
C628 C626 1.380 . S
C628 C627 1.384 . S
C628 H655 0.931 . S
C629 C626 1.374 . S
C629 C630 1.390 . S
C629 H656 0.930 . S
C630 C629 1.390 . S
C630 C631 1.391 . S
C630 H657 0.930 . S
C631 C627 1.387 . S
C631 C630 1.391 . S
C632 Tb622 2.825 . S
C632 C626 1.507 . S
C632 O645 1.238 . S
C632 O646 1.247 . S
O633 Tb622 2.347 . S
O633 C637 1.259 . S
O634 Eu623 2.418 . S
O634 C637 1.265 . S
O635 Eu623 2.384 . S
O635 C644 1.255 . S
O636 Tb622 2.366 . S
O636 C644 1.265 . S
C637 O633 1.259 . S
C637 O634 1.265 . S
O638 Eu623 2.479 . S
O638 C653 1.238 . S
O639 Eu623 2.471 . S
O639 C653 1.247 . S
O640 Eu623 2.347 . S
O640 C624 1.259 . S
O641 Tb622 2.418 . S
O641 C624 1.265 . S
O642 Tb622 2.384 . S
O642 C625 1.255 . S
O643 Eu623 2.366 . S
O643 C625 1.265 . S
C644 O635 1.255 . S
C644 O636 1.265 . S
O645 Tb622 2.479 . S
O645 C632 1.238 . S
O646 Tb622 2.471 . S
O646 C632 1.247 . S
C647 C650 1.380 . S
C647 C651 1.374 . S
C647 C653 1.507 . S
C648 C649 1.387 . S
C648 C652 1.391 . S
C649 C648 1.387 . S
C649 C650 1.384 . S
C649 H658 0.930 . S
C650 C647 1.380 . S
C650 C649 1.384 . S
C650 H659 0.931 . S
C651 C647 1.374 . S
C651 C652 1.390 . S
C651 H660 0.930 . S
C652 C648 1.391 . S
C652 C651 1.390 . S
C652 H661 0.930 . S
C653 Eu623 2.825 . S
C653 O638 1.238 . S
C653 O639 1.247 . S
C653 C647 1.507 . S
H654 C627 0.930 . S
H655 C628 0.931 . S
H656 C629 0.930 . S
H657 C630 0.930 . S
H658 C649 0.930 . S
H659 C650 0.931 . S
H660 C651 0.930 . S
H661 C652 0.930 . S
Tb662 C672 2.825 . S
Tb662 O673 2.347 . S
Tb662 O676 2.366 . S
Tb662 O681 2.418 . S
Tb662 O682 2.384 . S
Tb662 O685 2.479 . S
Tb662 O686 2.471 . S
Eu663 O674 2.418 . S
Eu663 O675 2.384 . S
Eu663 O678 2.479 . S
Eu663 O679 2.471 . S
Eu663 O680 2.347 . S
Eu663 O683 2.366 . S
Eu663 C693 2.825 . S
C664 O680 1.259 . S
C664 O681 1.265 . S
C665 O682 1.255 . S
C665 O683 1.265 . S
C666 C668 1.380 . S
C666 C669 1.374 . S
C666 C672 1.507 . S
C667 C668 1.384 . S
C667 C671 1.387 . S
C667 H694 0.930 . S
C668 C666 1.380 . S
C668 C667 1.384 . S
C668 H695 0.931 . S
C669 C666 1.374 . S
C669 C670 1.390 . S
C669 H696 0.930 . S
C670 C669 1.390 . S
C670 C671 1.391 . S
C670 H697 0.930 . S
C671 C667 1.387 . S
C671 C670 1.391 . S
C672 Tb662 2.825 . S
C672 C666 1.507 . S
C672 O685 1.238 . S
C672 O686 1.247 . S
O673 Tb662 2.347 . S
O673 C677 1.259 . S
O674 Eu663 2.418 . S
O674 C677 1.265 . S
O675 Eu663 2.384 . S
O675 C684 1.255 . S
O676 Tb662 2.366 . S
O676 C684 1.265 . S
C677 O673 1.259 . S
C677 O674 1.265 . S
O678 Eu663 2.479 . S
O678 C693 1.238 . S
O679 Eu663 2.471 . S
O679 C693 1.247 . S
O680 Eu663 2.347 . S
O680 C664 1.259 . S
O681 Tb662 2.418 . S
O681 C664 1.265 . S
O682 Tb662 2.384 . S
O682 C665 1.255 . S
O683 Eu663 2.366 . S
O683 C665 1.265 . S
C684 O675 1.255 . S
C684 O676 1.265 . S
O685 Tb662 2.479 . S
O685 C672 1.238 . S
O686 Tb662 2.471 . S
O686 C672 1.247 . S
C687 C690 1.380 . S
C687 C691 1.374 . S
C687 C693 1.507 . S
C688 C689 1.387 . S
C688 C692 1.391 . S
C689 C688 1.387 . S
C689 C690 1.384 . S
C689 H698 0.930 . S
C690 C687 1.380 . S
C690 C689 1.384 . S
C690 H699 0.931 . S
C691 C687 1.374 . S
C691 C692 1.390 . S
C691 H700 0.930 . S
C692 C688 1.391 . S
C692 C691 1.390 . S
C692 H701 0.930 . S
C693 Eu663 2.825 . S
C693 O678 1.238 . S
C693 O679 1.247 . S
C693 C687 1.507 . S
H694 C667 0.930 . S
H695 C668 0.931 . S
H696 C669 0.930 . S
H697 C670 0.930 . S
H698 C689 0.930 . S
H699 C690 0.931 . S
H700 C691 0.930 . S
H701 C692 0.930 . S
H702 C714 0.930 . S
H703 C716 0.930 . S
H704 C717 0.930 . S
H705 C721 0.959 . S
H706 C721 0.959 1_556 S
H707 C721 0.961 . S
H708 C722 0.960 . S
H709 C722 0.961 . S
H710 C722 0.959 . S
H711 C725 0.929 . S
H712 C726 0.931 . S
H713 C728 0.930 1_556 S
C714 H702 0.930 . S
C714 C715 1.399 . S
C714 C719 1.399 . S
C715 C714 1.399 . S
C715 C716 1.376 . S
C716 H703 0.930 . S
C716 C715 1.376 . S
C716 C717 1.388 . S
C717 H704 0.930 . S
C717 C716 1.388 . S
C717 C718 1.390 . S
C718 C717 1.390 . S
C718 C719 1.394 . S
C718 C724 1.465 . S
C719 C714 1.399 . S
C719 C718 1.394 . S
C719 C720 1.516 . S
C720 C719 1.516 . S
C720 C721 1.502 . S
C720 C722 1.561 1_554 S
C720 C723 1.526 . S
C721 H705 0.959 . S
C721 H706 0.959 1_554 S
C721 H707 0.961 . S
C721 C720 1.502 . S
C722 H708 0.960 . S
C722 H709 0.961 . S
C722 H710 0.959 . S
C722 C720 1.561 1_556 S
C723 C720 1.526 . S
C723 C724 1.396 . S
C723 C728 1.390 . S
C724 C718 1.465 . S
C724 C723 1.396 . S
C724 C725 1.399 . S
C725 H711 0.929 . S
C725 C724 1.399 . S
C725 C726 1.385 . S
C726 H712 0.931 . S
C726 C725 1.385 . S
C726 C727 1.389 . S
C727 C726 1.389 . S
C727 C728 1.387 . S
C728 H713 0.930 1_554 S
C728 C723 1.390 . S
C728 C727 1.387 . S
H729 C741 0.930 . S
H730 C743 0.930 . S
H731 C744 0.930 . S
H732 C748 0.959 . S
H733 C748 0.959 . S
H734 C748 0.961 . S
H735 C749 0.960 . S
H736 C749 0.961 . S
H737 C749 0.959 . S
H738 C752 0.929 . S
H739 C753 0.931 . S
H740 C755 0.930 . S
C741 H729 0.930 . S
C741 C742 1.399 . S
C741 C746 1.399 . S
C742 C741 1.399 . S
C742 C743 1.376 . S
C743 H730 0.930 . S
C743 C742 1.376 . S
C743 C744 1.388 . S
C744 H731 0.930 . S
C744 C743 1.388 . S
C744 C745 1.390 . S
C745 C744 1.390 . S
C745 C746 1.394 . S
C745 C751 1.465 . S
C746 C741 1.399 . S
C746 C745 1.394 . S
C746 C747 1.516 . S
C747 C746 1.516 . S
C747 C748 1.502 . S
C747 C749 1.561 . S
C747 C750 1.526 . S
C748 H732 0.959 . S
C748 H733 0.959 . S
C748 H734 0.961 . S
C748 C747 1.502 . S
C749 H735 0.960 . S
C749 H736 0.961 . S
C749 H737 0.959 . S
C749 C747 1.561 . S
C750 C747 1.526 . S
C750 C751 1.396 . S
C750 C755 1.390 . S
C751 C745 1.465 . S
C751 C750 1.396 . S
C751 C752 1.399 . S
C752 H738 0.929 . S
C752 C751 1.399 . S
C752 C753 1.385 . S
C753 H739 0.931 . S
C753 C752 1.385 . S
C753 C754 1.389 . S
C754 C753 1.389 . S
C754 C755 1.387 . S
C755 H740 0.930 . S
C755 C750 1.390 . S
C755 C754 1.387 . S
H756 C768 0.930 . S
H757 C770 0.930 1_556 S
H758 C771 0.941 . S
H759 C775 0.959 . S
H760 C775 0.959 . S
H761 C775 0.961 . S
H762 C776 0.960 . S
H763 C776 0.961 . S
H764 C776 0.959 . S
H765 C779 0.929 . S
H766 C780 0.931 . S
H767 C782 0.930 . S
C768 H756 0.930 . S
C768 C769 1.399 . S
C768 C773 1.399 . S
C769 C768 1.399 . S
C769 C770 1.376 . S
C770 H757 0.930 1_554 S
C770 C769 1.376 . S
C770 C771 1.386 1_554 S
C771 H758 0.941 . S
C771 C770 1.386 1_556 S
C771 C772 1.381 1_556 S
C772 C771 1.381 1_554 S
C772 C773 1.394 . S
C772 C778 1.465 . S
C773 C768 1.399 . S
C773 C772 1.394 . S
C773 C774 1.516 . S
C774 C773 1.516 . S
C774 C775 1.502 . S
C774 C776 1.561 . S
C774 C777 1.526 . S
C775 H759 0.959 . S
C775 H760 0.959 . S
C775 H761 0.961 . S
C775 C774 1.502 . S
C776 H762 0.960 . S
C776 H763 0.961 . S
C776 H764 0.959 . S
C776 C774 1.561 . S
C777 C774 1.526 . S
C777 C778 1.396 . S
C777 C782 1.390 . S
C778 C772 1.465 . S
C778 C777 1.396 . S
C778 C779 1.399 1_554 S
C779 H765 0.929 . S
C779 C778 1.399 1_556 S
C779 C780 1.385 . S
C780 H766 0.931 . S
C780 C779 1.385 . S
C780 C781 1.389 1_556 S
C781 C780 1.389 1_554 S
C781 C782 1.387 . S
C782 H767 0.930 . S
C782 C777 1.390 . S
C782 C781 1.387 . S
H783 C795 0.930 . S
H784 C797 0.930 . S
H785 C798 0.930 . S
H786 C802 0.959 . S
H787 C802 0.959 . S
H788 C802 0.961 . S
H789 C803 0.960 . S
H790 C803 0.961 . S
H791 C803 0.959 . S
H792 C806 0.929 . S
H793 C807 0.931 . S
H794 C809 0.930 . S
C795 H783 0.930 . S
C795 C796 1.399 . S
C795 C800 1.399 . S
C796 C795 1.399 . S
C796 C797 1.376 . S
C797 H784 0.930 . S
C797 C796 1.376 . S
C797 C798 1.388 . S
C798 H785 0.930 . S
C798 C797 1.388 . S
C798 C799 1.390 . S
C799 C798 1.390 . S
C799 C800 1.394 . S
C799 C805 1.465 . S
C800 C795 1.399 . S
C800 C799 1.394 . S
C800 C801 1.516 1_556 S
C801 C800 1.516 1_554 S
C801 C802 1.502 . S
C801 C803 1.561 . S
C801 C804 1.526 1_554 S
C802 H786 0.959 . S
C802 H787 0.959 . S
C802 H788 0.961 . S
C802 C801 1.502 . S
C803 H789 0.960 . S
C803 H790 0.961 . S
C803 H791 0.959 . S
C803 C801 1.561 . S
C804 C801 1.526 1_556 S
C804 C805 1.396 . S
C804 C809 1.390 1_556 S
C805 C799 1.465 . S
C805 C804 1.396 . S
C805 C806 1.399 . S
C806 H792 0.929 . S
C806 C805 1.399 . S
C806 C807 1.385 . S
C807 H793 0.931 . S
C807 C806 1.385 . S
C807 C808 1.389 . S
C808 C807 1.389 . S
C808 C809 1.387 1_556 S
C809 H794 0.930 . S
C809 C804 1.390 1_554 S
C809 C808 1.387 1_554 S
H810 C822 0.930 . S
H811 C824 0.930 . S
H812 C825 0.930 . S
H813 C829 0.959 1_556 S
H814 C829 0.959 . S
H815 C829 0.961 . S
H816 C830 0.960 . S
H817 C830 0.961 . S
H818 C830 0.956 1_556 S
H819 C833 0.929 . S
H820 C834 0.931 . S
H821 C836 0.930 1_554 S
C822 H810 0.930 . S
C822 C823 1.399 . S
C822 C827 1.399 . S
C823 C822 1.399 . S
C823 C824 1.376 . S
C824 H811 0.930 . S
C824 C823 1.376 . S
C824 C825 1.388 . S
C825 H812 0.930 . S
C825 C824 1.388 . S
C825 C826 1.390 . S
C826 C825 1.390 . S
C826 C827 1.394 . S
C826 C832 1.465 . S
C827 C822 1.399 . S
C827 C826 1.394 . S
C827 C828 1.516 . S
C828 C827 1.516 . S
C828 C829 1.502 1_556 S
C828 C830 1.561 1_556 S
C828 C831 1.526 . S
C829 H813 0.959 1_554 S
C829 H814 0.959 . S
C829 H815 0.961 . S
C829 C828 1.502 1_554 S
C830 H816 0.960 . S
C830 H817 0.961 . S
C830 H818 0.956 1_554 S
C830 C828 1.561 1_554 S
C831 C828 1.526 . S
C831 C832 1.396 . S
C831 C836 1.390 . S
C832 C826 1.465 . S
C832 C831 1.396 . S
C832 C833 1.399 . S
C833 H819 0.929 . S
C833 C832 1.399 . S
C833 C834 1.385 . S
C834 H820 0.931 . S
C834 C833 1.385 . S
C834 C835 1.389 . S
C835 C834 1.389 . S
C835 C836 1.387 . S
C836 H821 0.930 1_556 S
C836 C831 1.390 . S
C836 C835 1.387 . S
H837 C849 0.930 . S
H838 C851 0.929 . S
H839 C852 0.930 . S
H840 C856 0.959 . S
H841 C856 0.959 . S
H842 C856 0.961 . S
H843 C857 0.960 . S
H844 C857 0.961 . S
H845 C857 0.959 1_554 S
H846 C860 0.929 . S
H847 C861 0.931 . S
H848 C863 0.930 . S
C849 H837 0.930 . S
C849 C850 1.399 . S
C849 C854 1.399 . S
C850 C849 1.399 . S
C850 C851 1.378 1_556 S
C851 H838 0.929 . S
C851 C850 1.378 1_554 S
C851 C852 1.388 . S
C852 H839 0.930 . S
C852 C851 1.388 . S
C852 C853 1.390 1_554 S
C853 C852 1.390 1_556 S
C853 C854 1.394 . S
C853 C859 1.465 1_556 S
C854 C849 1.399 . S
C854 C853 1.394 . S
C854 C855 1.516 . S
C855 C854 1.516 . S
C855 C856 1.502 . S
C855 C857 1.561 . S
C855 C858 1.526 . S
C856 H840 0.959 . S
C856 H841 0.959 . S
C856 H842 0.961 . S
C856 C855 1.502 . S
C857 H843 0.960 . S
C857 H844 0.961 . S
C857 H845 0.959 1_556 S
C857 C855 1.561 . S
C858 C855 1.526 . S
C858 C859 1.396 1_556 S
C858 C863 1.390 . S
C859 C853 1.465 1_554 S
C859 C858 1.396 1_554 S
C859 C860 1.399 . S
C860 H846 0.929 . S
C860 C859 1.399 . S
C860 C861 1.385 . S
C861 H847 0.931 . S
C861 C860 1.385 . S
C861 C862 1.409 . S
C862 C861 1.409 . S
C862 C863 1.367 1_554 S
C863 H848 0.930 . S
C863 C858 1.390 . S
C863 C862 1.367 1_556 S
H864 C876 0.930 1_554 S
H865 C878 0.930 . S
H866 C879 0.930 . S
H867 C883 0.959 . S
H868 C883 0.959 . S
H869 C883 0.961 . S
H870 C884 0.960 . S
H871 C884 0.961 . S
H872 C884 0.959 . S
H873 C887 0.929 . S
H874 C888 0.931 . S
H875 C890 0.930 . S
C876 H864 0.930 1_556 S
C876 C877 1.399 . S
C876 C881 1.399 . S
C877 C876 1.399 . S
C877 C878 1.376 . S
C878 H865 0.930 . S
C878 C877 1.376 . S
C878 C879 1.388 . S
C879 H866 0.930 . S
C879 C878 1.388 . S
C879 C880 1.390 . S
C880 C879 1.390 . S
C880 C881 1.394 . S
C880 C886 1.465 . S
C881 C876 1.399 . S
C881 C880 1.394 . S
C881 C882 1.516 1_556 S
C882 C881 1.516 1_554 S
C882 C883 1.502 . S
C882 C884 1.561 . S
C882 C885 1.526 1_554 S
C883 H867 0.959 . S
C883 H868 0.959 . S
C883 H869 0.961 . S
C883 C882 1.502 . S
C884 H870 0.960 . S
C884 H871 0.961 . S
C884 H872 0.959 . S
C884 C882 1.561 . S
C885 C882 1.526 1_556 S
C885 C886 1.396 . S
C885 C890 1.390 1_556 S
C886 C880 1.465 . S
C886 C885 1.396 . S
C886 C887 1.399 . S
C887 H873 0.929 . S
C887 C886 1.399 . S
C887 C888 1.385 . S
C888 H874 0.931 . S
C888 C887 1.385 . S
C888 C889 1.389 . S
C889 C888 1.389 . S
C889 C890 1.387 1_556 S
C890 H875 0.930 . S
C890 C885 1.390 1_554 S
C890 C889 1.387 1_554 S
H891 C903 0.930 . S
H892 C905 0.930 . S
H893 C906 0.953 . S
H894 C910 0.959 . S
H895 C910 0.959 . S
H896 C910 0.961 . S
H897 C911 0.960 . S
H898 C911 0.961 . S
H899 C911 0.959 . S
H900 C914 0.929 1_554 S
H901 C915 0.931 1_554 S
H902 C917 0.930 . S
C903 H891 0.930 . S
C903 C904 1.399 . S
C903 C908 1.399 . S
C904 C903 1.399 . S
C904 C905 1.376 . S
C905 H892 0.930 . S
C905 C904 1.376 . S
C905 C906 1.388 . S
C906 H893 0.953 . S
C906 C905 1.388 . S
C906 C907 1.390 . S
C907 C906 1.390 . S
C907 C908 1.394 . S
C907 C913 1.465 . S
C908 C903 1.399 . S
C908 C907 1.394 . S
C908 C909 1.516 . S
C909 C908 1.516 . S
C909 C910 1.502 . S
C909 C911 1.561 . S
C909 C912 1.526 . S
C910 H894 0.959 . S
C910 H895 0.959 . S
C910 H896 0.961 . S
C910 C909 1.502 . S
C911 H897 0.960 . S
C911 H898 0.961 . S
C911 H899 0.959 . S
C911 C909 1.561 . S
C912 C909 1.526 . S
C912 C913 1.396 . S
C912 C917 1.390 . S
C913 C907 1.465 . S
C913 C912 1.396 . S
C913 C914 1.399 . S
C914 H900 0.929 1_556 S
C914 C913 1.399 . S
C914 C915 1.385 . S
C915 H901 0.931 1_556 S
C915 C914 1.385 . S
C915 C916 1.389 . S
C916 C915 1.389 . S
C916 C917 1.387 . S
C917 H902 0.930 . S
C917 C912 1.390 . S
C917 C916 1.387 . S
H918 C930 0.930 . S
H919 C932 0.930 . S
H920 C933 0.930 . S
H921 C937 0.959 . S
H922 C937 0.959 . S
H923 C937 0.961 . S
H924 C938 0.960 . S
H925 C938 0.961 . S
H926 C938 0.959 . S
H927 C941 0.929 . S
H928 C942 0.931 . S
H929 C944 0.930 . S
C930 H918 0.930 . S
C930 C931 1.399 1_556 S
C930 C935 1.399 . S
C931 C930 1.399 1_554 S
C931 C932 1.376 . S
C932 H919 0.930 . S
C932 C931 1.376 . S
C932 C933 1.388 . S
C933 H920 0.930 . S
C933 C932 1.388 . S
C933 C934 1.390 . S
C934 C933 1.390 . S
C934 C935 1.394 1_554 S
C934 C940 1.465 . S
C935 C930 1.399 . S
C935 C934 1.394 1_556 S
C935 C936 1.516 . S
C936 C935 1.516 . S
C936 C937 1.502 . S
C936 C938 1.561 . S
C936 C939 1.526 . S
C937 H921 0.959 . S
C937 H922 0.959 . S
C937 H923 0.961 . S
C937 C936 1.502 . S
C938 H924 0.960 . S
C938 H925 0.961 . S
C938 H926 0.959 . S
C938 C936 1.561 . S
C939 C936 1.526 . S
C939 C940 1.396 1_556 S
C939 C944 1.390 . S
C940 C934 1.465 . S
C940 C939 1.396 1_554 S
C940 C941 1.399 . S
C941 H927 0.929 . S
C941 C940 1.399 . S
C941 C942 1.385 . S
C942 H928 0.931 . S
C942 C941 1.385 . S
C942 C943 1.389 . S
C943 C942 1.389 . S
C943 C944 1.387 1_554 S
C944 H929 0.930 . S
C944 C939 1.390 . S
C944 C943 1.387 1_556 S
H945 C957 0.930 . S
H946 C959 0.930 1_556 S
H947 C960 0.934 1_556 S
H948 C964 0.959 . S
H949 C964 0.959 . S
H950 C964 0.961 . S
H951 C965 0.960 . S
H952 C965 0.961 . S
H953 C965 0.959 . S
H954 C968 0.929 . S
H955 C969 0.931 . S
H956 C971 0.930 . S
C957 H945 0.930 . S
C957 C958 1.399 . S
C957 C962 1.399 . S
C958 C957 1.399 . S
C958 C959 1.376 . S
C959 H946 0.930 1_554 S
C959 C958 1.376 . S
C959 C960 1.388 . S
C960 H947 0.934 1_554 S
C960 C959 1.388 . S
C960 C961 1.387 . S
C961 C960 1.387 . S
C961 C962 1.394 . S
C961 C967 1.465 . S
C962 C957 1.399 . S
C962 C961 1.394 . S
C962 C963 1.516 . S
C963 C962 1.516 . S
C963 C964 1.502 . S
C963 C965 1.561 . S
C963 C966 1.526 . S
C964 H948 0.959 . S
C964 H949 0.959 . S
C964 H950 0.961 . S
C964 C963 1.502 . S
C965 H951 0.960 . S
C965 H952 0.961 . S
C965 H953 0.959 . S
C965 C963 1.561 . S
C966 C963 1.526 . S
C966 C967 1.396 . S
C966 C971 1.390 . S
C967 C961 1.465 . S
C967 C966 1.396 . S
C967 C968 1.399 1_554 S
C968 H954 0.929 . S
C968 C967 1.399 1_556 S
C968 C969 1.385 . S
C969 H955 0.931 . S
C969 C968 1.385 . S
C969 C970 1.389 1_556 S
C970 C969 1.389 1_554 S
C970 C971 1.387 . S
C971 H956 0.930 . S
C971 C966 1.390 . S
C971 C970 1.387 . S
H972 C984 0.930 . S
H973 C986 0.930 . S
H974 C987 0.930 . S
H975 C991 0.959 . S
H976 C991 0.959 . S
H977 C991 0.961 . S
H978 C992 0.960 . S
H979 C992 0.961 . S
H980 C992 0.959 . S
H981 C995 0.904 1_556 S
H982 C996 0.931 1_556 S
H983 C998 0.930 . S
C984 H972 0.930 . S
C984 C985 1.399 . S
C984 C989 1.399 . S
C985 C984 1.399 . S
C985 C986 1.376 . S
C986 H973 0.930 . S
C986 C985 1.376 . S
C986 C987 1.388 . S
C987 H974 0.930 . S
C987 C986 1.388 . S
C987 C988 1.390 . S
C988 C987 1.390 . S
C988 C989 1.394 . S
C988 C994 1.465 . S
C989 C984 1.399 . S
C989 C988 1.394 . S
C989 C990 1.516 . S
C990 C989 1.516 . S
C990 C991 1.502 . S
C990 C992 1.561 . S
C990 C993 1.526 . S
C991 H975 0.959 . S
C991 H976 0.959 . S
C991 H977 0.961 . S
C991 C990 1.502 . S
C992 H978 0.960 . S
C992 H979 0.961 . S
C992 H980 0.959 . S
C992 C990 1.561 . S
C993 C990 1.526 . S
C993 C994 1.396 . S
C993 C998 1.390 . S
C994 C988 1.465 . S
C994 C993 1.396 . S
C994 C995 1.399 . S
C995 H981 0.904 1_554 S
C995 C994 1.399 . S
C995 C996 1.385 . S
C996 H982 0.931 1_554 S
C996 C995 1.385 . S
C996 C997 1.389 . S
C997 C996 1.389 . S
C997 C998 1.387 . S
C998 H983 0.930 . S
C998 C993 1.390 . S
C998 C997 1.387 . S
H999 C1011 0.880 1_556 S
H1000 C1013 0.930 . S
H1001 C1014 0.930 . S
H1002 C1018 0.959 . S
H1003 C1018 0.959 . S
H1004 C1018 0.961 . S
H1005 C1019 0.960 . S
H1006 C1019 0.961 . S
H1007 C1019 0.959 . S
H1008 C1022 0.929 . S
H1009 C1023 0.931 . S
H1010 C1025 0.930 . S
C1011 H999 0.880 1_554 S
C1011 C1012 1.444 . S
C1011 C1016 1.406 . S
C1012 C1011 1.444 . S
C1012 C1013 1.376 . S
C1013 H1000 0.930 . S
C1013 C1012 1.376 . S
C1013 C1014 1.388 . S
C1014 H1001 0.930 . S
C1014 C1013 1.388 . S
C1014 C1015 1.390 . S
C1015 C1014 1.390 . S
C1015 C1016 1.394 . S
C1015 C1021 1.465 . S
C1016 C1011 1.406 . S
C1016 C1015 1.394 . S
C1016 C1017 1.516 1_554 S
C1017 C1016 1.516 1_556 S
C1017 C1018 1.502 . S
C1017 C1019 1.561 . S
C1017 C1020 1.522 . S
C1018 H1002 0.959 . S
C1018 H1003 0.959 . S
C1018 H1004 0.961 . S
C1018 C1017 1.502 . S
C1019 H1005 0.960 . S
C1019 H1006 0.961 . S
C1019 H1007 0.959 . S
C1019 C1017 1.561 . S
C1020 C1017 1.522 . S
C1020 C1021 1.402 1_556 S
C1020 C1025 1.388 . S
C1021 C1015 1.465 . S
C1021 C1020 1.402 1_554 S
C1021 C1022 1.399 . S
C1022 H1008 0.929 . S
C1022 C1021 1.399 . S
C1022 C1023 1.385 . S
C1023 H1009 0.931 . S
C1023 C1022 1.385 . S
C1023 C1024 1.389 . S
C1024 C1023 1.389 . S
C1024 C1025 1.387 1_554 S
C1025 H1010 0.930 . S
C1025 C1020 1.388 . S
C1025 C1024 1.387 1_556 S
H1026 C1038 0.930 . S
H1027 C1040 0.930 . S
H1028 C1041 0.930 . S
H1029 C1045 0.966 . S
H1030 C1045 0.972 . S
H1031 C1045 0.956 1_655 S
H1032 C1046 0.960 . S
H1033 C1046 0.961 . S
H1034 C1046 0.959 . S
H1035 C1049 0.929 . S
H1036 C1050 0.931 . S
H1037 C1052 0.930 . S
C1038 H1026 0.930 . S
C1038 C1039 1.399 . S
C1038 C1043 1.399 . S
C1039 C1038 1.399 . S
C1039 C1040 1.376 . S
C1040 H1027 0.930 . S
C1040 C1039 1.376 . S
C1040 C1041 1.388 . S
C1041 H1028 0.930 . S
C1041 C1040 1.388 . S
C1041 C1042 1.390 . S
C1042 C1041 1.390 . S
C1042 C1043 1.394 . S
C1042 C1048 1.465 . S
C1043 C1038 1.399 . S
C1043 C1042 1.394 . S
C1043 C1044 1.516 . S
C1044 C1043 1.516 . S
C1044 C1045 1.487 1_655 S
C1044 C1046 1.561 . S
C1044 C1047 1.526 1_655 S
C1045 H1029 0.966 . S
C1045 H1030 0.972 . S
C1045 H1031 0.956 1_455 S
C1045 C1044 1.487 1_455 S
C1046 H1032 0.960 . S
C1046 H1033 0.961 . S
C1046 H1034 0.959 . S
C1046 C1044 1.561 . S
C1047 C1044 1.526 1_455 S
C1047 C1048 1.396 1_455 S
C1047 C1052 1.390 . S
C1048 C1042 1.465 . S
C1048 C1047 1.396 1_655 S
C1048 C1049 1.399 1_655 S
C1049 H1035 0.929 . S
C1049 C1048 1.399 1_455 S
C1049 C1050 1.385 . S
C1050 H1036 0.931 . S
C1050 C1049 1.385 . S
C1050 C1051 1.389 . S
C1051 C1050 1.389 . S
C1051 C1052 1.387 . S
C1052 H1037 0.930 . S
C1052 C1047 1.390 . S
C1052 C1051 1.387 . S
H1053 C1065 0.930 . S
H1054 C1067 0.930 . S
H1055 C1068 0.930 . S
H1056 C1072 0.959 . S
H1057 C1072 0.959 . S
H1058 C1072 0.961 . S
H1059 C1073 0.960 . S
H1060 C1073 0.961 . S
H1061 C1073 0.959 . S
H1062 C1076 0.929 . S
H1063 C1077 0.931 . S
H1064 C1079 0.930 . S
C1065 H1053 0.930 . S
C1065 C1066 1.399 . S
C1065 C1070 1.399 . S
C1066 C1065 1.399 . S
C1066 C1067 1.376 . S
C1067 H1054 0.930 . S
C1067 C1066 1.376 . S
C1067 C1068 1.388 . S
C1068 H1055 0.930 . S
C1068 C1067 1.388 . S
C1068 C1069 1.390 . S
C1069 C1068 1.390 . S
C1069 C1070 1.394 . S
C1069 C1075 1.465 . S
C1070 C1065 1.399 . S
C1070 C1069 1.394 . S
C1070 C1071 1.516 . S
C1071 C1070 1.516 . S
C1071 C1072 1.502 . S
C1071 C1073 1.561 . S
C1071 C1074 1.526 . S
C1072 H1056 0.959 . S
C1072 H1057 0.959 . S
C1072 H1058 0.961 . S
C1072 C1071 1.502 . S
C1073 H1059 0.960 . S
C1073 H1060 0.961 . S
C1073 H1061 0.959 . S
C1073 C1071 1.561 . S
C1074 C1071 1.526 . S
C1074 C1075 1.396 . S
C1074 C1079 1.390 . S
C1075 C1069 1.465 . S
C1075 C1074 1.396 . S
C1075 C1076 1.399 . S
C1076 H1062 0.929 . S
C1076 C1075 1.399 . S
C1076 C1077 1.385 . S
C1077 H1063 0.931 . S
C1077 C1076 1.385 . S
C1077 C1078 1.389 . S
C1078 C1077 1.389 . S
C1078 C1079 1.387 . S
C1079 H1064 0.930 . S
C1079 C1074 1.390 . S
C1079 C1078 1.387 . S
H1080 C1092 0.930 . S
H1081 C1094 0.930 . S
H1082 C1095 0.930 . S
H1083 C1099 0.959 . S
H1084 C1099 0.959 . S
H1085 C1099 0.961 . S
H1086 C1100 0.960 . S
H1087 C1100 0.961 . S
H1088 C1100 0.959 . S
H1089 C1103 0.929 . S
H1090 C1104 0.931 . S
H1091 C1106 0.930 . S
C1092 H1080 0.930 . S
C1092 C1093 1.399 . S
C1092 C1097 1.399 . S
C1093 C1092 1.399 . S
C1093 C1094 1.376 . S
C1094 H1081 0.930 . S
C1094 C1093 1.376 . S
C1094 C1095 1.388 . S
C1095 H1082 0.930 . S
C1095 C1094 1.388 . S
C1095 C1096 1.390 . S
C1096 C1095 1.390 . S
C1096 C1097 1.394 . S
C1096 C1102 1.465 . S
C1097 C1092 1.399 . S
C1097 C1096 1.394 . S
C1097 C1098 1.516 . S
C1098 C1097 1.516 . S
C1098 C1099 1.502 . S
C1098 C1100 1.561 . S
C1098 C1101 1.526 . S
C1099 H1083 0.959 . S
C1099 H1084 0.959 . S
C1099 H1085 0.961 . S
C1099 C1098 1.502 . S
C1100 H1086 0.960 . S
C1100 H1087 0.961 . S
C1100 H1088 0.959 . S
C1100 C1098 1.561 . S
C1101 C1098 1.526 . S
C1101 C1102 1.396 . S
C1101 C1106 1.390 1_545 S
C1102 C1096 1.465 . S
C1102 C1101 1.396 . S
C1102 C1103 1.399 1_545 S
C1103 H1089 0.929 . S
C1103 C1102 1.399 1_565 S
C1103 C1104 1.385 . S
C1104 H1090 0.931 . S
C1104 C1103 1.385 . S
C1104 C1105 1.389 . S
C1105 C1104 1.389 . S
C1105 C1106 1.387 . S
C1106 H1091 0.930 . S
C1106 C1101 1.390 1_565 S
C1106 C1105 1.387 . S
H1107 C1119 0.930 . S
H1108 C1121 0.930 . S
H1109 C1122 0.930 . S
H1110 C1126 0.959 . S
H1111 C1126 0.959 . S
H1112 C1126 0.961 . S
H1113 C1127 0.960 . S
H1114 C1127 0.961 . S
H1115 C1127 0.959 . S
H1116 C1130 0.929 . S
H1117 C1131 0.931 . S
H1118 C1133 0.930 . S
C1119 H1107 0.930 . S
C1119 C1120 1.399 . S
C1119 C1124 1.399 . S
C1120 C1119 1.399 . S
C1120 C1121 1.376 . S
C1121 H1108 0.930 . S
C1121 C1120 1.376 . S
C1121 C1122 1.388 . S
C1122 H1109 0.930 . S
C1122 C1121 1.388 . S
C1122 C1123 1.390 . S
C1123 C1122 1.390 . S
C1123 C1124 1.394 . S
C1123 C1129 1.465 . S
C1124 C1119 1.399 . S
C1124 C1123 1.394 . S
C1124 C1125 1.516 . S
C1125 C1124 1.516 . S
C1125 C1126 1.502 . S
C1125 C1127 1.561 . S
C1125 C1128 1.526 . S
C1126 H1110 0.959 . S
C1126 H1111 0.959 . S
C1126 H1112 0.961 . S
C1126 C1125 1.502 . S
C1127 H1113 0.960 . S
C1127 H1114 0.961 . S
C1127 H1115 0.959 . S
C1127 C1125 1.561 . S
C1128 C1125 1.526 . S
C1128 C1129 1.396 . S
C1128 C1133 1.390 . S
C1129 C1123 1.465 . S
C1129 C1128 1.396 . S
C1129 C1130 1.399 . S
C1130 H1116 0.929 . S
C1130 C1129 1.399 . S
C1130 C1131 1.385 . S
C1131 H1117 0.931 . S
C1131 C1130 1.385 . S
C1131 C1132 1.389 . S
C1132 C1131 1.389 . S
C1132 C1133 1.387 . S
C1133 H1118 0.930 . S
C1133 C1128 1.390 . S
C1133 C1132 1.387 . S
H1134 C1146 0.930 . S
H1135 C1148 0.930 . S
H1136 C1149 0.930 . S
H1137 C1153 0.959 . S
H1138 C1153 0.959 . S
H1139 C1153 0.961 . S
H1140 C1154 0.960 . S
H1141 C1154 0.961 . S
H1142 C1154 0.959 . S
H1143 C1157 0.929 . S
H1144 C1158 0.931 . S
H1145 C1160 0.930 . S
C1146 H1134 0.930 . S
C1146 C1147 1.399 . S
C1146 C1151 1.399 . S
C1147 C1146 1.399 . S
C1147 C1148 1.376 . S
C1148 H1135 0.930 . S
C1148 C1147 1.376 . S
C1148 C1149 1.388 . S
C1149 H1136 0.930 . S
C1149 C1148 1.388 . S
C1149 C1150 1.390 . S
C1150 C1149 1.390 . S
C1150 C1151 1.394 . S
C1150 C1156 1.465 . S
C1151 C1146 1.399 . S
C1151 C1150 1.394 . S
C1151 C1152 1.516 . S
C1152 C1151 1.516 . S
C1152 C1153 1.502 . S
C1152 C1154 1.561 . S
C1152 C1155 1.526 . S
C1153 H1137 0.959 . S
C1153 H1138 0.959 . S
C1153 H1139 0.961 . S
C1153 C1152 1.502 . S
C1154 H1140 0.960 . S
C1154 H1141 0.961 . S
C1154 H1142 0.959 . S
C1154 C1152 1.561 . S
C1155 C1152 1.526 . S
C1155 C1156 1.396 . S
C1155 C1160 1.390 . S
C1156 C1150 1.465 . S
C1156 C1155 1.396 . S
C1156 C1157 1.399 . S
C1157 H1143 0.929 . S
C1157 C1156 1.399 . S
C1157 C1158 1.385 . S
C1158 H1144 0.931 . S
C1158 C1157 1.385 . S
C1158 C1159 1.389 . S
C1159 C1158 1.389 . S
C1159 C1160 1.387 . S
C1160 H1145 0.930 . S
C1160 C1155 1.390 . S
C1160 C1159 1.387 . S
H1161 C1173 0.930 . S
H1162 C1175 0.930 . S
H1163 C1176 0.930 . S
H1164 C1180 0.959 . S
H1165 C1180 0.959 . S
H1166 C1180 0.961 . S
H1167 C1181 0.960 . S
H1168 C1181 0.961 . S
H1169 C1181 0.959 . S
H1170 C1184 0.929 . S
H1171 C1185 0.931 . S
H1172 C1187 0.930 . S
C1173 H1161 0.930 . S
C1173 C1174 1.399 . S
C1173 C1178 1.399 . S
C1174 C1173 1.399 . S
C1174 C1175 1.376 . S
C1175 H1162 0.930 . S
C1175 C1174 1.376 . S
C1175 C1176 1.388 . S
C1176 H1163 0.930 . S
C1176 C1175 1.388 . S
C1176 C1177 1.390 . S
C1177 C1176 1.390 . S
C1177 C1178 1.394 . S
C1177 C1183 1.465 . S
C1178 C1173 1.399 . S
C1178 C1177 1.394 . S
C1178 C1179 1.516 . S
C1179 C1178 1.516 . S
C1179 C1180 1.502 . S
C1179 C1181 1.561 . S
C1179 C1182 1.526 . S
C1180 H1164 0.959 . S
C1180 H1165 0.959 . S
C1180 H1166 0.961 . S
C1180 C1179 1.502 . S
C1181 H1167 0.960 . S
C1181 H1168 0.961 . S
C1181 H1169 0.959 . S
C1181 C1179 1.561 . S
C1182 C1179 1.526 . S
C1182 C1183 1.396 . S
C1182 C1187 1.390 . S
C1183 C1177 1.465 . S
C1183 C1182 1.396 . S
C1183 C1184 1.399 . S
C1184 H1170 0.929 . S
C1184 C1183 1.399 . S
C1184 C1185 1.385 . S
C1185 H1171 0.931 . S
C1185 C1184 1.385 . S
C1185 C1186 1.389 . S
C1186 C1185 1.389 . S
C1186 C1187 1.387 . S
C1187 H1172 0.930 . S
C1187 C1182 1.390 . S
C1187 C1186 1.387 . S
H1188 C1200 0.930 . S
H1189 C1202 0.930 . S
H1190 C1203 0.930 . S
H1191 C1207 0.959 . S
H1192 C1207 0.959 . S
H1193 C1207 0.961 . S
H1194 C1208 0.960 . S
H1195 C1208 0.961 . S
H1196 C1208 0.959 . S
H1197 C1211 0.929 . S
H1198 C1212 0.931 . S
H1199 C1214 0.930 . S
C1200 H1188 0.930 . S
C1200 C1201 1.399 . S
C1200 C1205 1.399 . S
C1201 C1200 1.399 . S
C1201 C1202 1.376 . S
C1202 H1189 0.930 . S
C1202 C1201 1.376 . S
C1202 C1203 1.388 . S
C1203 H1190 0.930 . S
C1203 C1202 1.388 . S
C1203 C1204 1.390 . S
C1204 C1203 1.390 . S
C1204 C1205 1.394 . S
C1204 C1210 1.465 . S
C1205 C1200 1.399 . S
C1205 C1204 1.394 . S
C1205 C1206 1.516 . S
C1206 C1205 1.516 . S
C1206 C1207 1.502 . S
C1206 C1208 1.561 . S
C1206 C1209 1.526 . S
C1207 H1191 0.959 . S
C1207 H1192 0.959 . S
C1207 H1193 0.961 . S
C1207 C1206 1.502 . S
C1208 H1194 0.960 . S
C1208 H1195 0.961 . S
C1208 H1196 0.959 . S
C1208 C1206 1.561 . S
C1209 C1206 1.526 . S
C1209 C1210 1.396 . S
C1209 C1214 1.390 . S
C1210 C1204 1.465 . S
C1210 C1209 1.396 . S
C1210 C1211 1.399 . S
C1211 H1197 0.929 . S
C1211 C1210 1.399 . S
C1211 C1212 1.385 . S
C1212 H1198 0.931 . S
C1212 C1211 1.385 . S
C1212 C1213 1.389 . S
C1213 C1212 1.389 . S
C1213 C1214 1.387 . S
C1214 H1199 0.930 . S
C1214 C1209 1.390 . S
C1214 C1213 1.387 . S
H1215 C1227 0.930 . S
H1216 C1229 0.930 . S
H1217 C1230 0.930 . S
H1218 C1234 0.959 . S
H1219 C1234 0.959 . S
H1220 C1234 0.961 . S
H1221 C1235 0.960 . S
H1222 C1235 0.961 . S
H1223 C1235 0.959 . S
H1224 C1238 0.929 . S
H1225 C1239 0.931 . S
H1226 C1241 0.930 . S
C1227 H1215 0.930 . S
C1227 C1228 1.399 . S
C1227 C1232 1.399 . S
C1228 C1227 1.399 . S
C1228 C1229 1.376 . S
C1229 H1216 0.930 . S
C1229 C1228 1.376 . S
C1229 C1230 1.388 . S
C1230 H1217 0.930 . S
C1230 C1229 1.388 . S
C1230 C1231 1.390 . S
C1231 C1230 1.390 . S
C1231 C1232 1.394 . S
C1231 C1237 1.465 . S
C1232 C1227 1.399 . S
C1232 C1231 1.394 . S
C1232 C1233 1.516 . S
C1233 C1232 1.516 . S
C1233 C1234 1.502 . S
C1233 C1235 1.561 . S
C1233 C1236 1.526 . S
C1234 H1218 0.959 . S
C1234 H1219 0.959 . S
C1234 H1220 0.961 . S
C1234 C1233 1.502 . S
C1235 H1221 0.960 . S
C1235 H1222 0.961 . S
C1235 H1223 0.959 . S
C1235 C1233 1.561 . S
C1236 C1233 1.526 . S
C1236 C1237 1.396 . S
C1236 C1241 1.390 . S
C1237 C1231 1.465 . S
C1237 C1236 1.396 . S
C1237 C1238 1.399 . S
C1238 H1224 0.929 . S
C1238 C1237 1.399 . S
C1238 C1239 1.385 . S
C1239 H1225 0.931 . S
C1239 C1238 1.385 . S
C1239 C1240 1.389 . S
C1240 C1239 1.389 . S
C1240 C1241 1.387 . S
C1241 H1226 0.930 . S
C1241 C1236 1.390 . S
C1241 C1240 1.387 . S
H1242 C1254 0.930 . S
H1243 C1256 0.930 . S
H1244 C1257 0.930 . S
H1245 C1261 0.959 . S
H1246 C1261 0.959 . S
H1247 C1261 0.961 . S
H1248 C1262 0.960 . S
H1249 C1262 0.961 . S
H1250 C1262 0.959 . S
H1251 C1265 0.929 . S
H1252 C1266 0.931 . S
H1253 C1268 0.930 . S
C1254 H1242 0.930 . S
C1254 C1255 1.399 . S
C1254 C1259 1.399 . S
C1255 C1254 1.399 . S
C1255 C1256 1.376 . S
C1256 H1243 0.930 . S
C1256 C1255 1.376 . S
C1256 C1257 1.388 . S
C1257 H1244 0.930 . S
C1257 C1256 1.388 . S
C1257 C1258 1.390 . S
C1258 C1257 1.390 . S
C1258 C1259 1.394 . S
C1258 C1264 1.465 . S
C1259 C1254 1.399 . S
C1259 C1258 1.394 . S
C1259 C1260 1.516 . S
C1260 C1259 1.516 . S
C1260 C1261 1.502 . S
C1260 C1262 1.561 . S
C1260 C1263 1.526 . S
C1261 H1245 0.959 . S
C1261 H1246 0.959 . S
C1261 H1247 0.961 . S
C1261 C1260 1.502 . S
C1262 H1248 0.960 . S
C1262 H1249 0.961 . S
C1262 H1250 0.959 . S
C1262 C1260 1.561 . S
C1263 C1260 1.526 . S
C1263 C1264 1.396 . S
C1263 C1268 1.390 . S
C1264 C1258 1.465 . S
C1264 C1263 1.396 . S
C1264 C1265 1.399 . S
C1265 H1251 0.929 . S
C1265 C1264 1.399 . S
C1265 C1266 1.385 . S
C1266 H1252 0.931 . S
C1266 C1265 1.385 . S
C1266 C1267 1.389 . S
C1267 C1266 1.389 . S
C1267 C1268 1.387 . S
C1268 H1253 0.930 . S
C1268 C1263 1.390 . S
C1268 C1267 1.387 . S
H1269 C1281 0.930 . S
H1270 C1283 0.930 . S
H1271 C1284 0.930 . S
H1272 C1288 0.959 . S
H1273 C1288 0.959 . S
H1274 C1288 0.961 . S
H1275 C1289 0.960 . S
H1276 C1289 0.961 . S
H1277 C1289 0.959 . S
H1278 C1292 0.929 . S
H1279 C1293 0.931 . S
H1280 C1295 0.930 . S
C1281 H1269 0.930 . S
C1281 C1282 1.399 1_565 S
C1281 C1286 1.399 . S
C1282 C1281 1.399 1_545 S
C1282 C1283 1.376 . S
C1283 H1270 0.930 . S
C1283 C1282 1.376 . S
C1283 C1284 1.388 1_545 S
C1284 H1271 0.930 . S
C1284 C1283 1.388 1_565 S
C1284 C1285 1.390 . S
C1285 C1284 1.390 . S
C1285 C1286 1.394 . S
C1285 C1291 1.465 . S
C1286 C1281 1.399 . S
C1286 C1285 1.394 . S
C1286 C1287 1.516 . S
C1287 C1286 1.516 . S
C1287 C1288 1.502 . S
C1287 C1289 1.561 . S
C1287 C1290 1.526 . S
C1288 H1272 0.959 . S
C1288 H1273 0.959 . S
C1288 H1274 0.961 . S
C1288 C1287 1.502 . S
C1289 H1275 0.960 . S
C1289 H1276 0.961 . S
C1289 H1277 0.959 . S
C1289 C1287 1.561 . S
C1290 C1287 1.526 . S
C1290 C1291 1.396 . S
C1290 C1295 1.390 . S
C1291 C1285 1.465 . S
C1291 C1290 1.396 . S
C1291 C1292 1.399 . S
C1292 H1278 0.929 . S
C1292 C1291 1.399 . S
C1292 C1293 1.385 . S
C1293 H1279 0.931 . S
C1293 C1292 1.385 . S
C1293 C1294 1.389 . S
C1294 C1293 1.389 . S
C1294 C1295 1.387 . S
C1295 H1280 0.930 . S
C1295 C1290 1.390 . S
C1295 C1294 1.387 . S
H1296 C1308 0.930 . S
H1297 C1310 0.930 . S
H1298 C1311 0.930 . S
H1299 C1315 0.959 . S
H1300 C1315 0.959 . S
H1301 C1315 0.961 . S
H1302 C1316 0.960 . S
H1303 C1316 0.961 . S
H1304 C1316 0.959 . S
H1305 C1319 0.929 . S
H1306 C1320 0.931 . S
H1307 C1322 0.930 . S
C1308 H1296 0.930 . S
C1308 C1309 1.399 . S
C1308 C1313 1.399 . S
C1309 C1308 1.399 . S
C1309 C1310 1.376 . S
C1310 H1297 0.930 . S
C1310 C1309 1.376 . S
C1310 C1311 1.388 . S
C1311 H1298 0.930 . S
C1311 C1310 1.388 . S
C1311 C1312 1.390 . S
C1312 C1311 1.390 . S
C1312 C1313 1.394 . S
C1312 C1318 1.465 . S
C1313 C1308 1.399 . S
C1313 C1312 1.394 . S
C1313 C1314 1.516 . S
C1314 C1313 1.516 . S
C1314 C1315 1.502 . S
C1314 C1316 1.561 . S
C1314 C1317 1.526 . S
C1315 H1299 0.959 . S
C1315 H1300 0.959 . S
C1315 H1301 0.961 . S
C1315 C1314 1.502 . S
C1316 H1302 0.960 . S
C1316 H1303 0.961 . S
C1316 H1304 0.959 . S
C1316 C1314 1.561 . S
C1317 C1314 1.526 . S
C1317 C1318 1.396 . S
C1317 C1322 1.390 . S
C1318 C1312 1.465 . S
C1318 C1317 1.396 . S
C1318 C1319 1.399 . S
C1319 H1305 0.929 . S
C1319 C1318 1.399 . S
C1319 C1320 1.385 . S
C1320 H1306 0.931 . S
C1320 C1319 1.385 . S
C1320 C1321 1.389 . S
C1321 C1320 1.389 . S
C1321 C1322 1.387 . S
C1322 H1307 0.930 . S
C1322 C1317 1.390 . S
C1322 C1321 1.387 . S
H1323 C1335 0.930 . S
H1324 C1337 0.930 . S
H1325 C1338 0.930 . S
H1326 C1342 0.959 . S
H1327 C1342 0.959 . S
H1328 C1342 0.961 . S
H1329 C1343 0.960 . S
H1330 C1343 0.961 . S
H1331 C1343 0.959 . S
H1332 C1346 0.929 . S
H1333 C1347 0.931 . S
H1334 C1349 0.930 . S
C1335 H1323 0.930 . S
C1335 C1336 1.399 . S
C1335 C1340 1.399 . S
C1336 C1335 1.399 . S
C1336 C1337 1.376 . S
C1337 H1324 0.930 . S
C1337 C1336 1.376 . S
C1337 C1338 1.388 . S
C1338 H1325 0.930 . S
C1338 C1337 1.388 . S
C1338 C1339 1.390 . S
C1339 C1338 1.390 . S
C1339 C1340 1.394 . S
C1339 C1345 1.465 . S
C1340 C1335 1.399 . S
C1340 C1339 1.394 . S
C1340 C1341 1.516 . S
C1341 C1340 1.516 . S
C1341 C1342 1.502 . S
C1341 C1343 1.561 . S
C1341 C1344 1.526 . S
C1342 H1326 0.959 . S
C1342 H1327 0.959 . S
C1342 H1328 0.961 . S
C1342 C1341 1.502 . S
C1343 H1329 0.960 . S
C1343 H1330 0.961 . S
C1343 H1331 0.959 . S
C1343 C1341 1.561 . S
C1344 C1341 1.526 . S
C1344 C1345 1.396 . S
C1344 C1349 1.390 . S
C1345 C1339 1.465 . S
C1345 C1344 1.396 . S
C1345 C1346 1.399 . S
C1346 H1332 0.929 . S
C1346 C1345 1.399 . S
C1346 C1347 1.385 . S
C1347 H1333 0.931 . S
C1347 C1346 1.385 . S
C1347 C1348 1.389 . S
C1348 C1347 1.389 . S
C1348 C1349 1.387 . S
C1349 H1334 0.930 . S
C1349 C1344 1.390 . S
C1349 C1348 1.387 . S
H1350 C1362 0.930 . S
H1351 C1364 0.930 . S
H1352 C1365 0.930 . S
H1353 C1369 0.959 . S
H1354 C1369 0.959 . S
H1355 C1369 0.961 . S
H1356 C1370 0.960 . S
H1357 C1370 0.961 . S
H1358 C1370 0.959 . S
H1359 C1373 0.929 . S
H1360 C1374 0.931 . S
H1361 C1376 0.930 . S
C1362 H1350 0.930 . S
C1362 C1363 1.399 . S
C1362 C1367 1.399 . S
C1363 C1362 1.399 . S
C1363 C1364 1.376 . S
C1364 H1351 0.930 . S
C1364 C1363 1.376 . S
C1364 C1365 1.388 . S
C1365 H1352 0.930 . S
C1365 C1364 1.388 . S
C1365 C1366 1.390 . S
C1366 C1365 1.390 . S
C1366 C1367 1.394 . S
C1366 C1372 1.465 . S
C1367 C1362 1.399 . S
C1367 C1366 1.394 . S
C1367 C1368 1.516 . S
C1368 C1367 1.516 . S
C1368 C1369 1.502 . S
C1368 C1370 1.561 . S
C1368 C1371 1.526 . S
C1369 H1353 0.959 . S
C1369 H1354 0.959 . S
C1369 H1355 0.961 . S
C1369 C1368 1.502 . S
C1370 H1356 0.960 . S
C1370 H1357 0.961 . S
C1370 H1358 0.959 . S
C1370 C1368 1.561 . S
C1371 C1368 1.526 . S
C1371 C1372 1.396 . S
C1371 C1376 1.390 . S
C1372 C1366 1.465 . S
C1372 C1371 1.396 . S
C1372 C1373 1.399 . S
C1373 H1359 0.929 . S
C1373 C1372 1.399 . S
C1373 C1374 1.385 . S
C1374 H1360 0.931 . S
C1374 C1373 1.385 . S
C1374 C1375 1.389 . S
C1375 C1374 1.389 . S
C1375 C1376 1.387 . S
C1376 H1361 0.930 . S
C1376 C1371 1.390 . S
C1376 C1375 1.387 . S
H1377 C1389 0.930 . S
H1378 C1391 0.930 . S
H1379 C1392 0.930 . S
H1380 C1396 0.959 . S
H1381 C1396 0.959 . S
H1382 C1396 0.961 . S
H1383 C1397 0.960 . S
H1384 C1397 0.961 . S
H1385 C1397 0.959 . S
H1386 C1400 0.929 . S
H1387 C1401 0.931 . S
H1388 C1403 0.930 . S
C1389 H1377 0.930 . S
C1389 C1390 1.399 . S
C1389 C1394 1.399 . S
C1390 C1389 1.399 . S
C1390 C1391 1.376 . S
C1391 H1378 0.930 . S
C1391 C1390 1.376 . S
C1391 C1392 1.388 . S
C1392 H1379 0.930 . S
C1392 C1391 1.388 . S
C1392 C1393 1.390 . S
C1393 C1392 1.390 . S
C1393 C1394 1.394 . S
C1393 C1399 1.465 . S
C1394 C1389 1.399 . S
C1394 C1393 1.394 . S
C1394 C1395 1.516 . S
C1395 C1394 1.516 . S
C1395 C1396 1.502 . S
C1395 C1397 1.561 . S
C1395 C1398 1.526 . S
C1396 H1380 0.959 . S
C1396 H1381 0.959 . S
C1396 H1382 0.961 . S
C1396 C1395 1.502 . S
C1397 H1383 0.960 . S
C1397 H1384 0.961 . S
C1397 H1385 0.959 . S
C1397 C1395 1.561 . S
C1398 C1395 1.526 . S
C1398 C1399 1.396 . S
C1398 C1403 1.390 . S
C1399 C1393 1.465 . S
C1399 C1398 1.396 . S
C1399 C1400 1.399 . S
C1400 H1386 0.929 . S
C1400 C1399 1.399 . S
C1400 C1401 1.385 . S
C1401 H1387 0.931 . S
C1401 C1400 1.385 . S
C1401 C1402 1.389 . S
C1402 C1401 1.389 . S
C1402 C1403 1.387 . S
C1403 H1388 0.930 . S
C1403 C1398 1.390 . S
C1403 C1402 1.387 . S
H1404 C1416 0.930 . S
H1405 C1418 0.930 . S
H1406 C1419 0.930 . S
H1407 C1423 0.959 . S
H1408 C1423 0.959 . S
H1409 C1423 0.961 . S
H1410 C1424 0.960 . S
H1411 C1424 0.961 . S
H1412 C1424 0.959 . S
H1413 C1427 0.929 . S
H1414 C1428 0.931 . S
H1415 C1430 0.930 . S
C1416 H1404 0.930 . S
C1416 C1417 1.399 . S
C1416 C1421 1.399 . S
C1417 C1416 1.399 . S
C1417 C1418 1.376 . S
C1418 H1405 0.930 . S
C1418 C1417 1.376 . S
C1418 C1419 1.388 . S
C1419 H1406 0.930 . S
C1419 C1418 1.388 . S
C1419 C1420 1.390 . S
C1420 C1419 1.390 . S
C1420 C1421 1.394 . S
C1420 C1426 1.465 . S
C1421 C1416 1.399 . S
C1421 C1420 1.394 . S
C1421 C1422 1.516 . S
C1422 C1421 1.516 . S
C1422 C1423 1.502 . S
C1422 C1424 1.561 . S
C1422 C1425 1.526 . S
C1423 H1407 0.959 . S
C1423 H1408 0.959 . S
C1423 H1409 0.961 . S
C1423 C1422 1.502 . S
C1424 H1410 0.960 . S
C1424 H1411 0.961 . S
C1424 H1412 0.959 . S
C1424 C1422 1.561 . S
C1425 C1422 1.526 . S
C1425 C1426 1.396 . S
C1425 C1430 1.390 . S
C1426 C1420 1.465 . S
C1426 C1425 1.396 . S
C1426 C1427 1.399 . S
C1427 H1413 0.929 . S
C1427 C1426 1.399 . S
C1427 C1428 1.385 . S
C1428 H1414 0.931 . S
C1428 C1427 1.385 . S
C1428 C1429 1.389 . S
C1429 C1428 1.389 . S
C1429 C1430 1.387 . S
C1430 H1415 0.930 . S
C1430 C1425 1.390 . S
C1430 C1429 1.387 . S
H1431 C1443 0.930 . S
H1432 C1445 0.930 . S
H1433 C1446 0.930 . S
H1434 C1450 0.959 1_545 S
H1435 C1450 0.959 1_545 S
H1436 C1450 0.961 . S
H1437 C1451 0.960 . S
H1438 C1451 0.961 . S
H1439 C1451 0.959 . S
H1440 C1454 0.929 . S
H1441 C1455 0.931 . S
H1442 C1457 0.930 . S
C1443 H1431 0.930 . S
C1443 C1444 1.399 . S
C1443 C1448 1.399 . S
C1444 C1443 1.399 . S
C1444 C1445 1.376 . S
C1445 H1432 0.930 . S
C1445 C1444 1.376 . S
C1445 C1446 1.388 . S
C1446 H1433 0.930 . S
C1446 C1445 1.388 . S
C1446 C1447 1.390 . S
C1447 C1446 1.390 . S
C1447 C1448 1.394 . S
C1447 C1453 1.465 1_565 S
C1448 C1443 1.399 . S
C1448 C1447 1.394 . S
C1448 C1449 1.516 . S
C1449 C1448 1.516 . S
C1449 C1450 1.502 . S
C1449 C1451 1.561 . S
C1449 C1452 1.526 1_565 S
C1450 H1434 0.959 1_565 S
C1450 H1435 0.959 1_565 S
C1450 H1436 0.961 . S
C1450 C1449 1.502 . S
C1451 H1437 0.960 . S
C1451 H1438 0.961 . S
C1451 H1439 0.959 . S
C1451 C1449 1.561 . S
C1452 C1449 1.526 1_545 S
C1452 C1453 1.396 . S
C1452 C1457 1.390 . S
C1453 C1447 1.465 1_545 S
C1453 C1452 1.396 . S
C1453 C1454 1.399 . S
C1454 H1440 0.929 . S
C1454 C1453 1.399 . S
C1454 C1455 1.385 . S
C1455 H1441 0.931 . S
C1455 C1454 1.385 . S
C1455 C1456 1.389 . S
C1456 C1455 1.389 . S
C1456 C1457 1.387 . S
C1457 H1442 0.930 . S
C1457 C1452 1.390 . S
C1457 C1456 1.387 . S
H1458 C1470 0.930 . S
H1459 C1472 0.930 . S
H1460 C1473 0.930 . S
H1461 C1477 0.959 . S
H1462 C1477 0.959 . S
H1463 C1477 0.961 . S
H1464 C1478 0.960 1_455 S
H1465 C1478 0.961 . S
H1466 C1478 0.959 1_455 S
H1467 C1481 0.929 1_455 S
H1468 C1482 0.931 . S
H1469 C1484 0.930 . S
C1470 H1458 0.930 . S
C1470 C1471 1.399 . S
C1470 C1475 1.399 . S
C1471 C1470 1.399 . S
C1471 C1472 1.376 . S
C1472 H1459 0.930 . S
C1472 C1471 1.376 . S
C1472 C1473 1.388 . S
C1473 H1460 0.930 . S
C1473 C1472 1.388 . S
C1473 C1474 1.390 . S
C1474 C1473 1.390 . S
C1474 C1475 1.394 . S
C1474 C1480 1.490 . S
C1475 C1470 1.399 . S
C1475 C1474 1.394 . S
C1475 C1476 1.516 1_455 S
C1476 C1475 1.516 1_655 S
C1476 C1477 1.502 . S
C1476 C1478 1.561 . S
C1476 C1479 1.526 . S
C1477 H1461 0.959 . S
C1477 H1462 0.959 . S
C1477 H1463 0.961 . S
C1477 C1476 1.502 . S
C1478 H1464 0.960 1_655 S
C1478 H1465 0.961 . S
C1478 H1466 0.959 1_655 S
C1478 C1476 1.561 . S
C1479 C1476 1.526 . S
C1479 C1480 1.390 1_655 S
C1479 C1484 1.390 . S
C1480 C1474 1.490 . S
C1480 C1479 1.390 1_455 S
C1480 C1481 1.382 1_455 S
C1481 H1467 0.929 1_655 S
C1481 C1480 1.382 1_655 S
C1481 C1482 1.385 . S
C1482 H1468 0.931 . S
C1482 C1481 1.385 . S
C1482 C1483 1.389 . S
C1483 C1482 1.389 . S
C1483 C1484 1.387 . S
C1484 H1469 0.930 . S
C1484 C1479 1.390 . S
C1484 C1483 1.387 . S
H1485 C1497 0.930 . S
H1486 C1499 0.930 . S
H1487 C1500 0.930 . S
H1488 C1504 0.959 . S
H1489 C1504 0.959 . S
H1490 C1504 0.961 . S
H1491 C1505 0.960 . S
H1492 C1505 0.961 . S
H1493 C1505 0.959 . S
H1494 C1508 0.929 . S
H1495 C1509 0.931 . S
H1496 C1511 0.930 . S
C1497 H1485 0.930 . S
C1497 C1498 1.399 . S
C1497 C1502 1.399 . S
C1498 C1497 1.399 . S
C1498 C1499 1.376 . S
C1499 H1486 0.930 . S
C1499 C1498 1.376 . S
C1499 C1500 1.388 . S
C1500 H1487 0.930 . S
C1500 C1499 1.388 . S
C1500 C1501 1.390 . S
C1501 C1500 1.390 . S
C1501 C1502 1.394 . S
C1501 C1507 1.465 . S
C1502 C1497 1.399 . S
C1502 C1501 1.394 . S
C1502 C1503 1.516 . S
C1503 C1502 1.516 . S
C1503 C1504 1.502 . S
C1503 C1505 1.561 . S
C1503 C1506 1.526 . S
C1504 H1488 0.959 . S
C1504 H1489 0.959 . S
C1504 H1490 0.961 . S
C1504 C1503 1.502 . S
C1505 H1491 0.960 . S
C1505 H1492 0.961 . S
C1505 H1493 0.959 . S
C1505 C1503 1.561 . S
C1506 C1503 1.526 . S
C1506 C1507 1.396 . S
C1506 C1511 1.390 . S
C1507 C1501 1.465 . S
C1507 C1506 1.396 . S
C1507 C1508 1.399 . S
C1508 H1494 0.929 . S
C1508 C1507 1.399 . S
C1508 C1509 1.385 . S
C1509 H1495 0.931 . S
C1509 C1508 1.385 . S
C1509 C1510 1.389 . S
C1510 C1509 1.389 . S
C1510 C1511 1.387 . S
C1511 H1496 0.930 . S
C1511 C1506 1.390 . S
C1511 C1510 1.387 . S
H1512 C1524 0.930 . S
H1513 C1526 0.930 . S
H1514 C1527 0.930 . S
H1515 C1531 0.959 . S
H1516 C1531 0.959 . S
H1517 C1531 0.961 . S
H1518 C1532 0.960 . S
H1519 C1532 0.961 . S
H1520 C1532 0.959 . S
H1521 C1535 0.929 . S
H1522 C1536 0.931 . S
H1523 C1538 0.930 . S
C1524 H1512 0.930 . S
C1524 C1525 1.399 1_655 S
C1524 C1529 1.399 . S
C1525 C1524 1.399 1_455 S
C1525 C1526 1.376 . S
C1526 H1513 0.930 . S
C1526 C1525 1.376 . S
C1526 C1527 1.388 1_455 S
C1527 H1514 0.930 . S
C1527 C1526 1.388 1_655 S
C1527 C1528 1.390 . S
C1528 C1527 1.390 . S
C1528 C1529 1.394 . S
C1528 C1534 1.465 . S
C1529 C1524 1.399 . S
C1529 C1528 1.394 . S
C1529 C1530 1.516 . S
C1530 C1529 1.516 . S
C1530 C1531 1.502 . S
C1530 C1532 1.561 . S
C1530 C1533 1.526 . S
C1531 H1515 0.959 . S
C1531 H1516 0.959 . S
C1531 H1517 0.961 . S
C1531 C1530 1.502 . S
C1532 H1518 0.960 . S
C1532 H1519 0.961 . S
C1532 H1520 0.959 . S
C1532 C1530 1.561 . S
C1533 C1530 1.526 . S
C1533 C1534 1.396 . S
C1533 C1538 1.390 . S
C1534 C1528 1.465 . S
C1534 C1533 1.396 . S
C1534 C1535 1.399 . S
C1535 H1521 0.929 . S
C1535 C1534 1.399 . S
C1535 C1536 1.385 . S
C1536 H1522 0.931 . S
C1536 C1535 1.385 . S
C1536 C1537 1.389 . S
C1537 C1536 1.389 . S
C1537 C1538 1.387 . S
C1538 H1523 0.930 . S
C1538 C1533 1.390 . S
C1538 C1537 1.387 . S
H1539 C1551 0.930 . S
H1540 C1553 0.930 . S
H1541 C1554 0.930 . S
H1542 C1558 0.959 . S
H1543 C1558 0.959 . S
H1544 C1558 0.961 . S
H1545 C1559 0.960 . S
H1546 C1559 0.961 . S
H1547 C1559 0.959 . S
H1548 C1562 0.929 . S
H1549 C1563 0.931 . S
H1550 C1565 0.930 . S
C1551 H1539 0.930 . S
C1551 C1552 1.399 . S
C1551 C1556 1.399 . S
C1552 C1551 1.399 . S
C1552 C1553 1.376 . S
C1553 H1540 0.930 . S
C1553 C1552 1.376 . S
C1553 C1554 1.388 . S
C1554 H1541 0.930 . S
C1554 C1553 1.388 . S
C1554 C1555 1.390 . S
C1555 C1554 1.390 . S
C1555 C1556 1.394 . S
C1555 C1561 1.465 . S
C1556 C1551 1.399 . S
C1556 C1555 1.394 . S
C1556 C1557 1.516 . S
C1557 C1556 1.516 . S
C1557 C1558 1.502 . S
C1557 C1559 1.561 . S
C1557 C1560 1.526 . S
C1558 H1542 0.959 . S
C1558 H1543 0.959 . S
C1558 H1544 0.961 . S
C1558 C1557 1.502 . S
C1559 H1545 0.960 . S
C1559 H1546 0.961 . S
C1559 H1547 0.959 . S
C1559 C1557 1.561 . S
C1560 C1557 1.526 . S
C1560 C1561 1.396 . S
C1560 C1565 1.390 . S
C1561 C1555 1.465 . S
C1561 C1560 1.396 . S
C1561 C1562 1.399 . S
C1562 H1548 0.929 . S
C1562 C1561 1.399 . S
C1562 C1563 1.385 . S
C1563 H1549 0.931 . S
C1563 C1562 1.385 . S
C1563 C1564 1.389 . S
C1564 C1563 1.389 . S
C1564 C1565 1.387 . S
C1565 H1550 0.930 . S
C1565 C1560 1.390 . S
C1565 C1564 1.387 . S
H1566 C1578 0.930 . S
H1567 C1580 0.930 1_565 S
H1568 C1581 0.930 . S
H1569 C1585 0.959 . S
H1570 C1585 0.959 . S
H1571 C1585 0.961 . S
H1572 C1586 0.960 . S
H1573 C1586 0.961 . S
H1574 C1586 0.959 . S
H1575 C1589 0.929 . S
H1576 C1590 0.931 . S
H1577 C1592 0.930 . S
C1578 H1566 0.930 . S
C1578 C1579 1.399 1_545 S
C1578 C1583 1.399 . S
C1579 C1578 1.399 1_565 S
C1579 C1580 1.376 1_565 S
C1580 H1567 0.930 1_545 S
C1580 C1579 1.376 1_545 S
C1580 C1581 1.388 . S
C1581 H1568 0.930 . S
C1581 C1580 1.388 . S
C1581 C1582 1.390 . S
C1582 C1581 1.390 . S
C1582 C1583 1.394 . S
C1582 C1588 1.465 . S
C1583 C1578 1.399 . S
C1583 C1582 1.394 . S
C1583 C1584 1.516 . S
C1584 C1583 1.516 . S
C1584 C1585 1.502 . S
C1584 C1586 1.561 . S
C1584 C1587 1.526 . S
C1585 H1569 0.959 . S
C1585 H1570 0.959 . S
C1585 H1571 0.961 . S
C1585 C1584 1.502 . S
C1586 H1572 0.960 . S
C1586 H1573 0.961 . S
C1586 H1574 0.959 . S
C1586 C1584 1.561 . S
C1587 C1584 1.526 . S
C1587 C1588 1.396 . S
C1587 C1592 1.390 . S
C1588 C1582 1.465 . S
C1588 C1587 1.396 . S
C1588 C1589 1.399 . S
C1589 H1575 0.929 . S
C1589 C1588 1.399 . S
C1589 C1590 1.385 . S
C1590 H1576 0.931 . S
C1590 C1589 1.385 . S
C1590 C1591 1.389 . S
C1591 C1590 1.389 . S
C1591 C1592 1.387 . S
C1592 H1577 0.930 . S
C1592 C1587 1.390 . S
C1592 C1591 1.387 . S
H1593 C1605 0.930 . S
H1594 C1607 0.930 . S
H1595 C1608 0.930 . S
H1596 C1612 0.959 . S
H1597 C1612 0.959 . S
H1598 C1612 0.961 . S
H1599 C1613 0.960 . S
H1600 C1613 0.961 . S
H1601 C1613 0.959 . S
H1602 C1616 0.929 . S
H1603 C1617 0.931 . S
H1604 C1619 0.930 . S
C1605 H1593 0.930 . S
C1605 C1606 1.399 . S
C1605 C1610 1.399 . S
C1606 C1605 1.399 . S
C1606 C1607 1.376 . S
C1607 H1594 0.930 . S
C1607 C1606 1.376 . S
C1607 C1608 1.388 . S
C1608 H1595 0.930 . S
C1608 C1607 1.388 . S
C1608 C1609 1.390 . S
C1609 C1608 1.390 . S
C1609 C1610 1.394 . S
C1609 C1615 1.465 . S
C1610 C1605 1.399 . S
C1610 C1609 1.394 . S
C1610 C1611 1.516 . S
C1611 C1610 1.516 . S
C1611 C1612 1.502 . S
C1611 C1613 1.561 . S
C1611 C1614 1.526 . S
C1612 H1596 0.959 . S
C1612 H1597 0.959 . S
C1612 H1598 0.961 . S
C1612 C1611 1.502 . S
C1613 H1599 0.960 . S
C1613 H1600 0.961 . S
C1613 H1601 0.959 . S
C1613 C1611 1.561 . S
C1614 C1611 1.526 . S
C1614 C1615 1.396 . S
C1614 C1619 1.390 . S
C1615 C1609 1.465 . S
C1615 C1614 1.396 . S
C1615 C1616 1.399 . S
C1616 H1602 0.929 . S
C1616 C1615 1.399 . S
C1616 C1617 1.385 . S
C1617 H1603 0.931 . S
C1617 C1616 1.385 . S
C1617 C1618 1.389 . S
C1618 C1617 1.389 . S
C1618 C1619 1.387 . S
C1619 H1604 0.930 . S
C1619 C1614 1.390 . S
C1619 C1618 1.387 . S
H1620 C1632 0.930 . S
H1621 C1634 0.930 . S
H1622 C1635 0.930 . S
H1623 C1639 0.959 . S
H1624 C1639 0.959 . S
H1625 C1639 0.961 . S
H1626 C1640 0.960 . S
H1627 C1640 0.961 . S
H1628 C1640 0.959 . S
H1629 C1643 0.929 . S
H1630 C1644 0.931 . S
H1631 C1646 0.930 . S
C1632 H1620 0.930 . S
C1632 C1633 1.399 . S
C1632 C1637 1.399 . S
C1633 C1632 1.399 . S
C1633 C1634 1.376 . S
C1634 H1621 0.930 . S
C1634 C1633 1.376 . S
C1634 C1635 1.388 . S
C1635 H1622 0.930 . S
C1635 C1634 1.388 . S
C1635 C1636 1.390 . S
C1636 C1635 1.390 . S
C1636 C1637 1.394 . S
C1636 C1642 1.465 . S
C1637 C1632 1.399 . S
C1637 C1636 1.394 . S
C1637 C1638 1.516 . S
C1638 C1637 1.516 . S
C1638 C1639 1.502 . S
C1638 C1640 1.561 . S
C1638 C1641 1.526 . S
C1639 H1623 0.959 . S
C1639 H1624 0.959 . S
C1639 H1625 0.961 . S
C1639 C1638 1.502 . S
C1640 H1626 0.960 . S
C1640 H1627 0.961 . S
C1640 H1628 0.959 . S
C1640 C1638 1.561 . S
C1641 C1638 1.526 . S
C1641 C1642 1.396 . S
C1641 C1646 1.390 . S
C1642 C1636 1.465 . S
C1642 C1641 1.396 . S
C1642 C1643 1.399 . S
C1643 H1629 0.929 . S
C1643 C1642 1.399 . S
C1643 C1644 1.385 . S
C1644 H1630 0.931 . S
C1644 C1643 1.385 . S
C1644 C1645 1.389 . S
C1645 C1644 1.389 . S
C1645 C1646 1.387 . S
C1646 H1631 0.930 . S
C1646 C1641 1.390 . S
C1646 C1645 1.387 . S
H1647 C1659 0.930 . S
H1648 C1661 0.930 . S
H1649 C1662 0.930 . S
H1650 C1666 0.959 . S
H1651 C1666 0.959 . S
H1652 C1666 0.961 . S
H1653 C1667 0.960 . S
H1654 C1667 0.961 . S
H1655 C1667 0.959 . S
H1656 C1670 0.929 . S
H1657 C1671 0.931 . S
H1658 C1673 0.930 . S
C1659 H1647 0.930 . S
C1659 C1660 1.399 . S
C1659 C1664 1.399 . S
C1660 C1659 1.399 . S
C1660 C1661 1.376 . S
C1661 H1648 0.930 . S
C1661 C1660 1.376 . S
C1661 C1662 1.388 . S
C1662 H1649 0.930 . S
C1662 C1661 1.388 . S
C1662 C1663 1.390 . S
C1663 C1662 1.390 . S
C1663 C1664 1.394 . S
C1663 C1669 1.465 . S
C1664 C1659 1.399 . S
C1664 C1663 1.394 . S
C1664 C1665 1.516 . S
C1665 C1664 1.516 . S
C1665 C1666 1.502 . S
C1665 C1667 1.561 . S
C1665 C1668 1.526 . S
C1666 H1650 0.959 . S
C1666 H1651 0.959 . S
C1666 H1652 0.961 . S
C1666 C1665 1.502 . S
C1667 H1653 0.960 . S
C1667 H1654 0.961 . S
C1667 H1655 0.959 . S
C1667 C1665 1.561 . S
C1668 C1665 1.526 . S
C1668 C1669 1.396 . S
C1668 C1673 1.390 . S
C1669 C1663 1.465 . S
C1669 C1668 1.396 . S
C1669 C1670 1.399 . S
C1670 H1656 0.929 . S
C1670 C1669 1.399 . S
C1670 C1671 1.385 . S
C1671 H1657 0.931 . S
C1671 C1670 1.385 . S
C1671 C1672 1.389 . S
C1672 C1671 1.389 . S
C1672 C1673 1.387 . S
C1673 H1658 0.930 . S
C1673 C1668 1.390 . S
C1673 C1672 1.387 . S
H1674 C1686 0.930 . S
H1675 C1688 0.930 . S
H1676 C1689 0.930 . S
H1677 C1693 0.959 . S
H1678 C1693 0.959 . S
H1679 C1693 0.961 . S
H1680 C1694 0.960 . S
H1681 C1694 0.920 1_545 S
H1682 C1694 0.959 . S
H1683 C1697 0.929 . S
H1684 C1698 0.931 . S
H1685 C1700 0.930 . S
C1686 H1674 0.930 . S
C1686 C1687 1.399 . S
C1686 C1691 1.399 . S
C1687 C1686 1.399 . S
C1687 C1688 1.376 . S
C1688 H1675 0.930 . S
C1688 C1687 1.376 . S
C1688 C1689 1.388 . S
C1689 H1676 0.930 . S
C1689 C1688 1.388 . S
C1689 C1690 1.390 . S
C1690 C1689 1.390 . S
C1690 C1691 1.394 . S
C1690 C1696 1.465 . S
C1691 C1686 1.399 . S
C1691 C1690 1.394 . S
C1691 C1692 1.516 . S
C1692 C1691 1.516 . S
C1692 C1693 1.502 . S
C1692 C1694 1.561 . S
C1692 C1695 1.526 . S
C1693 H1677 0.959 . S
C1693 H1678 0.959 . S
C1693 H1679 0.961 . S
C1693 C1692 1.502 . S
C1694 H1680 0.960 . S
C1694 H1681 0.920 1_565 S
C1694 H1682 0.959 . S
C1694 C1692 1.561 . S
C1695 C1692 1.526 . S
C1695 C1696 1.396 . S
C1695 C1700 1.390 . S
C1696 C1690 1.465 . S
C1696 C1695 1.396 . S
C1696 C1697 1.399 . S
C1697 H1683 0.929 . S
C1697 C1696 1.399 . S
C1697 C1698 1.385 . S
C1698 H1684 0.931 . S
C1698 C1697 1.385 . S
C1698 C1699 1.389 . S
C1699 C1698 1.389 . S
C1699 C1700 1.387 . S
C1700 H1685 0.930 . S
C1700 C1695 1.390 . S
C1700 C1699 1.387 . S
H1701 C1713 0.930 . S
H1702 C1715 0.930 . S
H1703 C1716 0.930 . S
H1704 C1720 0.959 . S
H1705 C1720 0.959 . S
H1706 C1720 0.961 . S
H1707 C1721 0.960 . S
H1708 C1721 0.961 . S
H1709 C1721 0.959 . S
H1710 C1724 0.929 . S
H1711 C1725 0.931 . S
H1712 C1727 0.930 . S
C1713 H1701 0.930 . S
C1713 C1714 1.399 . S
C1713 C1718 1.399 . S
C1714 C1713 1.399 . S
C1714 C1715 1.376 . S
C1715 H1702 0.930 . S
C1715 C1714 1.376 . S
C1715 C1716 1.388 . S
C1716 H1703 0.930 . S
C1716 C1715 1.388 . S
C1716 C1717 1.390 . S
C1717 C1716 1.390 . S
C1717 C1718 1.394 . S
C1717 C1723 1.465 . S
C1718 C1713 1.399 . S
C1718 C1717 1.394 . S
C1718 C1719 1.516 . S
C1719 C1718 1.516 . S
C1719 C1720 1.502 . S
C1719 C1721 1.561 . S
C1719 C1722 1.526 . S
C1720 H1704 0.959 . S
C1720 H1705 0.959 . S
C1720 H1706 0.961 . S
C1720 C1719 1.502 . S
C1721 H1707 0.960 . S
C1721 H1708 0.961 . S
C1721 H1709 0.959 . S
C1721 C1719 1.561 . S
C1722 C1719 1.526 . S
C1722 C1723 1.396 . S
C1722 C1727 1.390 . S
C1723 C1717 1.465 . S
C1723 C1722 1.396 . S
C1723 C1724 1.399 . S
C1724 H1710 0.929 . S
C1724 C1723 1.399 . S
C1724 C1725 1.385 . S
C1725 H1711 0.931 . S
C1725 C1724 1.385 . S
C1725 C1726 1.389 . S
C1726 C1725 1.389 . S
C1726 C1727 1.387 . S
C1727 H1712 0.930 . S
C1727 C1722 1.390 . S
C1727 C1726 1.387 . S
H1728 C1740 0.930 . S
H1729 C1742 0.930 . S
H1730 C1743 0.930 . S
H1731 C1747 0.959 . S
H1732 C1747 0.959 . S
H1733 C1747 0.961 . S
H1734 C1748 0.960 . S
H1735 C1748 0.961 . S
H1736 C1748 0.959 . S
H1737 C1751 0.929 . S
H1738 C1752 0.931 . S
H1739 C1754 0.930 . S
C1740 H1728 0.930 . S
C1740 C1741 1.399 . S
C1740 C1745 1.399 . S
C1741 C1740 1.399 . S
C1741 C1742 1.376 . S
C1742 H1729 0.930 . S
C1742 C1741 1.376 . S
C1742 C1743 1.388 . S
C1743 H1730 0.930 . S
C1743 C1742 1.388 . S
C1743 C1744 1.390 . S
C1744 C1743 1.390 . S
C1744 C1745 1.394 . S
C1744 C1750 1.465 . S
C1745 C1740 1.399 . S
C1745 C1744 1.394 . S
C1745 C1746 1.516 . S
C1746 C1745 1.516 . S
C1746 C1747 1.502 . S
C1746 C1748 1.561 . S
C1746 C1749 1.526 . S
C1747 H1731 0.959 . S
C1747 H1732 0.959 . S
C1747 H1733 0.961 . S
C1747 C1746 1.502 . S
C1748 H1734 0.960 . S
C1748 H1735 0.961 . S
C1748 H1736 0.959 . S
C1748 C1746 1.561 . S
C1749 C1746 1.526 . S
C1749 C1750 1.396 . S
C1749 C1754 1.390 . S
C1750 C1744 1.465 . S
C1750 C1749 1.396 . S
C1750 C1751 1.399 . S
C1751 H1737 0.929 . S
C1751 C1750 1.399 . S
C1751 C1752 1.385 . S
C1752 H1738 0.931 . S
C1752 C1751 1.385 . S
C1752 C1753 1.389 . S
C1753 C1752 1.389 . S
C1753 C1754 1.387 . S
C1754 H1739 0.930 . S
C1754 C1749 1.390 . S
C1754 C1753 1.387 . S
H1755 C1767 0.930 . S
H1756 C1769 0.930 . S
H1757 C1770 0.930 . S
H1758 C1774 0.959 . S
H1759 C1774 0.959 . S
H1760 C1774 0.961 . S
H1761 C1775 0.960 . S
H1762 C1775 0.961 . S
H1763 C1775 0.959 . S
H1764 C1778 0.929 . S
H1765 C1779 0.931 . S
H1766 C1781 0.930 . S
C1767 H1755 0.930 . S
C1767 C1768 1.399 . S
C1767 C1772 1.399 . S
C1768 C1767 1.399 . S
C1768 C1769 1.376 . S
C1769 H1756 0.930 . S
C1769 C1768 1.376 . S
C1769 C1770 1.388 . S
C1770 H1757 0.930 . S
C1770 C1769 1.388 . S
C1770 C1771 1.390 . S
C1771 C1770 1.390 . S
C1771 C1772 1.394 . S
C1771 C1777 1.465 . S
C1772 C1767 1.399 . S
C1772 C1771 1.394 . S
C1772 C1773 1.516 . S
C1773 C1772 1.516 . S
C1773 C1774 1.502 . S
C1773 C1775 1.561 . S
C1773 C1776 1.526 . S
C1774 H1758 0.959 . S
C1774 H1759 0.959 . S
C1774 H1760 0.961 . S
C1774 C1773 1.502 . S
C1775 H1761 0.960 . S
C1775 H1762 0.961 . S
C1775 H1763 0.959 . S
C1775 C1773 1.561 . S
C1776 C1773 1.526 . S
C1776 C1777 1.396 . S
C1776 C1781 1.390 . S
C1777 C1771 1.465 . S
C1777 C1776 1.396 . S
C1777 C1778 1.399 . S
C1778 H1764 0.929 . S
C1778 C1777 1.399 . S
C1778 C1779 1.385 . S
C1779 H1765 0.931 . S
C1779 C1778 1.385 . S
C1779 C1780 1.389 . S
C1780 C1779 1.389 . S
C1780 C1781 1.387 . S
C1781 H1766 0.930 . S
C1781 C1776 1.390 . S
C1781 C1780 1.387 . S
H1782 C1794 0.930 . S
H1783 C1796 0.930 . S
H1784 C1797 0.930 . S
H1785 C1801 0.959 . S
H1786 C1801 0.959 . S
H1787 C1801 0.961 . S
H1788 C1802 0.960 . S
H1789 C1802 0.961 . S
H1790 C1802 0.959 . S
H1791 C1805 0.929 . S
H1792 C1806 0.931 . S
H1793 C1808 0.930 . S
C1794 H1782 0.930 . S
C1794 C1795 1.399 . S
C1794 C1799 1.399 . S
C1795 C1794 1.399 . S
C1795 C1796 1.376 . S
C1796 H1783 0.930 . S
C1796 C1795 1.376 . S
C1796 C1797 1.388 . S
C1797 H1784 0.930 . S
C1797 C1796 1.388 . S
C1797 C1798 1.390 . S
C1798 C1797 1.390 . S
C1798 C1799 1.394 . S
C1798 C1804 1.465 . S
C1799 C1794 1.399 . S
C1799 C1798 1.394 . S
C1799 C1800 1.516 . S
C1800 C1799 1.516 . S
C1800 C1801 1.502 . S
C1800 C1802 1.561 . S
C1800 C1803 1.526 . S
C1801 H1785 0.959 . S
C1801 H1786 0.959 . S
C1801 H1787 0.961 . S
C1801 C1800 1.502 . S
C1802 H1788 0.960 . S
C1802 H1789 0.961 . S
C1802 H1790 0.959 . S
C1802 C1800 1.561 . S
C1803 C1800 1.526 . S
C1803 C1804 1.396 . S
C1803 C1808 1.390 . S
C1804 C1798 1.465 . S
C1804 C1803 1.396 . S
C1804 C1805 1.399 . S
C1805 H1791 0.929 . S
C1805 C1804 1.399 . S
C1805 C1806 1.385 . S
C1806 H1792 0.931 . S
C1806 C1805 1.385 . S
C1806 C1807 1.389 . S
C1807 C1806 1.389 . S
C1807 C1808 1.387 . S
C1808 H1793 0.930 . S
C1808 C1803 1.390 . S
C1808 C1807 1.387 . S
H1809 C1821 0.930 . S
H1810 C1823 0.930 . S
H1811 C1824 0.930 . S
H1812 C1828 0.959 . S
H1813 C1828 0.959 . S
H1814 C1828 0.961 . S
H1815 C1829 0.960 . S
H1816 C1829 0.961 . S
H1817 C1829 0.959 . S
H1818 C1832 0.929 . S
H1819 C1833 0.931 . S
H1820 C1835 0.930 . S
C1821 H1809 0.930 . S
C1821 C1822 1.399 . S
C1821 C1826 1.399 . S
C1822 C1821 1.399 . S
C1822 C1823 1.376 . S
C1823 H1810 0.930 . S
C1823 C1822 1.376 . S
C1823 C1824 1.388 . S
C1824 H1811 0.930 . S
C1824 C1823 1.388 . S
C1824 C1825 1.390 . S
C1825 C1824 1.390 . S
C1825 C1826 1.394 . S
C1825 C1831 1.465 . S
C1826 C1821 1.399 . S
C1826 C1825 1.394 . S
C1826 C1827 1.516 . S
C1827 C1826 1.516 . S
C1827 C1828 1.502 . S
C1827 C1829 1.561 . S
C1827 C1830 1.526 . S
C1828 H1812 0.959 . S
C1828 H1813 0.959 . S
C1828 H1814 0.961 . S
C1828 C1827 1.502 . S
C1829 H1815 0.960 . S
C1829 H1816 0.961 . S
C1829 H1817 0.959 . S
C1829 C1827 1.561 . S
C1830 C1827 1.526 . S
C1830 C1831 1.396 . S
C1830 C1835 1.390 . S
C1831 C1825 1.465 . S
C1831 C1830 1.396 . S
C1831 C1832 1.399 . S
C1832 H1818 0.929 . S
C1832 C1831 1.399 . S
C1832 C1833 1.385 . S
C1833 H1819 0.931 . S
C1833 C1832 1.385 . S
C1833 C1834 1.389 . S
C1834 C1833 1.389 . S
C1834 C1835 1.387 . S
C1835 H1820 0.930 . S
C1835 C1830 1.390 . S
C1835 C1834 1.387 . S
H1836 C1848 0.930 . S
H1837 C1850 0.930 . S
H1838 C1851 0.930 . S
H1839 C1855 0.959 . S
H1840 C1855 0.959 . S
H1841 C1855 0.961 . S
H1842 C1856 0.960 . S
H1843 C1856 0.961 . S
H1844 C1856 0.959 . S
H1845 C1859 0.929 . S
H1846 C1860 0.931 . S
H1847 C1862 0.930 . S
C1848 H1836 0.930 . S
C1848 C1849 1.399 . S
C1848 C1853 1.399 . S
C1849 C1848 1.399 . S
C1849 C1850 1.376 . S
C1850 H1837 0.930 . S
C1850 C1849 1.376 . S
C1850 C1851 1.388 . S
C1851 H1838 0.930 . S
C1851 C1850 1.388 . S
C1851 C1852 1.390 . S
C1852 C1851 1.390 . S
C1852 C1853 1.394 . S
C1852 C1858 1.465 . S
C1853 C1848 1.399 . S
C1853 C1852 1.394 . S
C1853 C1854 1.516 . S
C1854 C1853 1.516 . S
C1854 C1855 1.502 . S
C1854 C1856 1.561 . S
C1854 C1857 1.526 . S
C1855 H1839 0.959 . S
C1855 H1840 0.959 . S
C1855 H1841 0.961 . S
C1855 C1854 1.502 . S
C1856 H1842 0.960 . S
C1856 H1843 0.961 . S
C1856 H1844 0.959 . S
C1856 C1854 1.561 . S
C1857 C1854 1.526 . S
C1857 C1858 1.396 . S
C1857 C1862 1.390 . S
C1858 C1852 1.465 . S
C1858 C1857 1.396 . S
C1858 C1859 1.399 . S
C1859 H1845 0.929 . S
C1859 C1858 1.399 . S
C1859 C1860 1.385 . S
C1860 H1846 0.931 . S
C1860 C1859 1.385 . S
C1860 C1861 1.389 . S
C1861 C1860 1.389 . S
C1861 C1862 1.387 . S
C1862 H1847 0.930 . S
C1862 C1857 1.390 . S
C1862 C1861 1.387 . S
H1863 C1875 0.930 . S
H1864 C1877 0.930 . S
H1865 C1878 0.930 . S
H1866 C1882 0.959 . S
H1867 C1882 0.959 . S
H1868 C1882 0.961 . S
H1869 C1883 0.960 . S
H1870 C1883 0.961 . S
H1871 C1883 0.959 . S
H1872 C1886 0.929 . S
H1873 C1887 0.931 . S
H1874 C1889 0.930 . S
C1875 H1863 0.930 . S
C1875 C1876 1.399 . S
C1875 C1880 1.399 . S
C1876 C1875 1.399 . S
C1876 C1877 1.376 . S
C1877 H1864 0.930 . S
C1877 C1876 1.376 . S
C1877 C1878 1.388 . S
C1878 H1865 0.930 . S
C1878 C1877 1.388 . S
C1878 C1879 1.390 . S
C1879 C1878 1.390 . S
C1879 C1880 1.394 . S
C1879 C1885 1.465 . S
C1880 C1875 1.399 . S
C1880 C1879 1.394 . S
C1880 C1881 1.516 . S
C1881 C1880 1.516 . S
C1881 C1882 1.502 . S
C1881 C1883 1.561 . S
C1881 C1884 1.526 . S
C1882 H1866 0.959 . S
C1882 H1867 0.959 . S
C1882 H1868 0.961 . S
C1882 C1881 1.502 . S
C1883 H1869 0.960 . S
C1883 H1870 0.961 . S
C1883 H1871 0.959 . S
C1883 C1881 1.561 . S
C1884 C1881 1.526 . S
C1884 C1885 1.396 . S
C1884 C1889 1.390 . S
C1885 C1879 1.465 . S
C1885 C1884 1.396 . S
C1885 C1886 1.399 . S
C1886 H1872 0.929 . S
C1886 C1885 1.399 . S
C1886 C1887 1.385 . S
C1887 H1873 0.931 . S
C1887 C1886 1.385 . S
C1887 C1888 1.389 . S
C1888 C1887 1.389 . S
C1888 C1889 1.387 . S
C1889 H1874 0.930 . S
C1889 C1884 1.390 . S
C1889 C1888 1.387 . S
H1890 C1902 0.930 . S
H1891 C1904 0.930 . S
H1892 C1905 0.930 . S
H1893 C1909 0.959 . S
H1894 C1909 0.959 . S
H1895 C1909 0.961 . S
H1896 C1910 0.960 . S
H1897 C1910 0.961 . S
H1898 C1910 0.959 . S
H1899 C1913 0.929 . S
H1900 C1914 0.931 . S
H1901 C1916 0.930 . S
C1902 H1890 0.930 . S
C1902 C1903 1.399 . S
C1902 C1907 1.399 . S
C1903 C1902 1.399 . S
C1903 C1904 1.376 . S
C1904 H1891 0.930 . S
C1904 C1903 1.376 . S
C1904 C1905 1.388 . S
C1905 H1892 0.930 . S
C1905 C1904 1.388 . S
C1905 C1906 1.390 . S
C1906 C1905 1.390 . S
C1906 C1907 1.394 . S
C1906 C1912 1.465 . S
C1907 C1902 1.399 . S
C1907 C1906 1.394 . S
C1907 C1908 1.516 . S
C1908 C1907 1.516 . S
C1908 C1909 1.502 . S
C1908 C1910 1.561 . S
C1908 C1911 1.526 . S
C1909 H1893 0.959 . S
C1909 H1894 0.959 . S
C1909 H1895 0.961 . S
C1909 C1908 1.502 . S
C1910 H1896 0.960 . S
C1910 H1897 0.961 . S
C1910 H1898 0.959 . S
C1910 C1908 1.561 . S
C1911 C1908 1.526 . S
C1911 C1912 1.396 . S
C1911 C1916 1.390 . S
C1912 C1906 1.465 . S
C1912 C1911 1.396 . S
C1912 C1913 1.399 . S
C1913 H1899 0.929 . S
C1913 C1912 1.399 . S
C1913 C1914 1.385 . S
C1914 H1900 0.931 . S
C1914 C1913 1.385 . S
C1914 C1915 1.389 . S
C1915 C1914 1.389 . S
C1915 C1916 1.387 . S
C1916 H1901 0.930 . S
C1916 C1911 1.390 . S
C1916 C1915 1.387 . S
H1917 C1929 0.930 . S
H1918 C1931 0.930 . S
H1919 C1932 0.930 . S
H1920 C1936 0.959 . S
H1921 C1936 0.959 . S
H1922 C1936 0.961 . S
H1923 C1937 0.960 . S
H1924 C1937 0.961 . S
H1925 C1937 0.959 . S
H1926 C1940 0.929 . S
H1927 C1941 0.931 . S
H1928 C1943 0.930 . S
C1929 H1917 0.930 . S
C1929 C1930 1.399 . S
C1929 C1934 1.399 . S
C1930 C1929 1.399 . S
C1930 C1931 1.376 . S
C1931 H1918 0.930 . S
C1931 C1930 1.376 . S
C1931 C1932 1.388 . S
C1932 H1919 0.930 . S
C1932 C1931 1.388 . S
C1932 C1933 1.390 . S
C1933 C1932 1.390 . S
C1933 C1934 1.394 . S
C1933 C1939 1.465 . S
C1934 C1929 1.399 . S
C1934 C1933 1.394 . S
C1934 C1935 1.516 . S
C1935 C1934 1.516 . S
C1935 C1936 1.502 . S
C1935 C1937 1.561 . S
C1935 C1938 1.526 . S
C1936 H1920 0.959 . S
C1936 H1921 0.959 . S
C1936 H1922 0.961 . S
C1936 C1935 1.502 . S
C1937 H1923 0.960 . S
C1937 H1924 0.961 . S
C1937 H1925 0.959 . S
C1937 C1935 1.561 . S
C1938 C1935 1.526 . S
C1938 C1939 1.396 . S
C1938 C1943 1.390 . S
C1939 C1933 1.465 . S
C1939 C1938 1.396 . S
C1939 C1940 1.399 . S
C1940 H1926 0.929 . S
C1940 C1939 1.399 . S
C1940 C1941 1.385 . S
C1941 H1927 0.931 . S
C1941 C1940 1.385 . S
C1941 C1942 1.389 . S
C1942 C1941 1.389 . S
C1942 C1943 1.387 . S
C1943 H1928 0.930 . S
C1943 C1938 1.390 . S
C1943 C1942 1.387 . S
H1944 C1956 0.930 . S
H1945 C1958 0.930 . S
H1946 C1959 0.930 . S
H1947 C1963 0.959 . S
H1948 C1963 0.959 . S
H1949 C1963 0.961 . S
H1950 C1964 0.960 . S
H1951 C1964 0.961 . S
H1952 C1964 0.959 . S
H1953 C1967 0.929 . S
H1954 C1968 0.931 . S
H1955 C1970 0.930 . S
C1956 H1944 0.930 . S
C1956 C1957 1.399 . S
C1956 C1961 1.399 . S
C1957 C1956 1.399 . S
C1957 C1958 1.376 . S
C1958 H1945 0.930 . S
C1958 C1957 1.376 . S
C1958 C1959 1.388 . S
C1959 H1946 0.930 . S
C1959 C1958 1.388 . S
C1959 C1960 1.390 . S
C1960 C1959 1.390 . S
C1960 C1961 1.394 . S
C1960 C1966 1.465 . S
C1961 C1956 1.399 . S
C1961 C1960 1.394 . S
C1961 C1962 1.516 . S
C1962 C1961 1.516 . S
C1962 C1963 1.502 . S
C1962 C1964 1.561 . S
C1962 C1965 1.526 . S
C1963 H1947 0.959 . S
C1963 H1948 0.959 . S
C1963 H1949 0.961 . S
C1963 C1962 1.502 . S
C1964 H1950 0.960 . S
C1964 H1951 0.961 . S
C1964 H1952 0.959 . S
C1964 C1962 1.561 . S
C1965 C1962 1.526 . S
C1965 C1966 1.396 . S
C1965 C1970 1.390 . S
C1966 C1960 1.465 . S
C1966 C1965 1.396 . S
C1966 C1967 1.399 . S
C1967 H1953 0.929 . S
C1967 C1966 1.399 . S
C1967 C1968 1.385 . S
C1968 H1954 0.931 . S
C1968 C1967 1.385 . S
C1968 C1969 1.389 . S
C1969 C1968 1.389 . S
C1969 C1970 1.387 . S
C1970 H1955 0.930 . S
C1970 C1965 1.390 . S
C1970 C1969 1.387 . S
H1971 C1983 0.930 . S
H1972 C1985 0.930 . S
H1973 C1986 0.930 . S
H1974 C1990 0.959 . S
H1975 C1990 0.959 . S
H1976 C1990 0.961 . S
H1977 C1991 0.960 . S
H1978 C1991 0.961 . S
H1979 C1991 0.959 . S
H1980 C1994 0.929 . S
H1981 C1995 0.931 . S
H1982 C1997 0.930 . S
C1983 H1971 0.930 . S
C1983 C1984 1.399 . S
C1983 C1988 1.399 . S
C1984 C1983 1.399 . S
C1984 C1985 1.376 . S
C1985 H1972 0.930 . S
C1985 C1984 1.376 . S
C1985 C1986 1.388 . S
C1986 H1973 0.930 . S
C1986 C1985 1.388 . S
C1986 C1987 1.390 . S
C1987 C1986 1.390 . S
C1987 C1988 1.394 . S
C1987 C1993 1.465 . S
C1988 C1983 1.399 . S
C1988 C1987 1.394 . S
C1988 C1989 1.516 . S
C1989 C1988 1.516 . S
C1989 C1990 1.502 . S
C1989 C1991 1.561 . S
C1989 C1992 1.526 . S
C1990 H1974 0.959 . S
C1990 H1975 0.959 . S
C1990 H1976 0.961 . S
C1990 C1989 1.502 . S
C1991 H1977 0.960 . S
C1991 H1978 0.961 . S
C1991 H1979 0.959 . S
C1991 C1989 1.561 . S
C1992 C1989 1.526 . S
C1992 C1993 1.396 . S
C1992 C1997 1.390 . S
C1993 C1987 1.465 . S
C1993 C1992 1.396 . S
C1993 C1994 1.399 . S
C1994 H1980 0.929 . S
C1994 C1993 1.399 . S
C1994 C1995 1.385 . S
C1995 H1981 0.931 . S
C1995 C1994 1.385 . S
C1995 C1996 1.389 . S
C1996 C1995 1.389 . S
C1996 C1997 1.387 . S
C1997 H1982 0.930 . S
C1997 C1992 1.390 . S
C1997 C1996 1.387 . S
H1998 C2010 0.930 . S
H1999 C2012 0.930 . S
H2000 C2013 0.930 . S
H2001 C2017 0.959 . S
H2002 C2017 0.959 . S
H2003 C2017 0.961 . S
H2004 C2018 0.960 . S
H2005 C2018 0.961 . S
H2006 C2018 0.959 . S
H2007 C2021 0.929 . S
H2008 C2022 0.931 . S
H2009 C2024 0.930 . S
C2010 H1998 0.930 . S
C2010 C2011 1.399 . S
C2010 C2015 1.399 . S
C2011 C2010 1.399 . S
C2011 C2012 1.376 . S
C2012 H1999 0.930 . S
C2012 C2011 1.376 . S
C2012 C2013 1.388 . S
C2013 H2000 0.930 . S
C2013 C2012 1.388 . S
C2013 C2014 1.390 . S
C2014 C2013 1.390 . S
C2014 C2015 1.394 . S
C2014 C2020 1.465 . S
C2015 C2010 1.399 . S
C2015 C2014 1.394 . S
C2015 C2016 1.516 . S
C2016 C2015 1.516 . S
C2016 C2017 1.502 . S
C2016 C2018 1.561 . S
C2016 C2019 1.526 . S
C2017 H2001 0.959 . S
C2017 H2002 0.959 . S
C2017 H2003 0.961 . S
C2017 C2016 1.502 . S
C2018 H2004 0.960 . S
C2018 H2005 0.961 . S
C2018 H2006 0.959 . S
C2018 C2016 1.561 . S
C2019 C2016 1.526 . S
C2019 C2020 1.396 . S
C2019 C2024 1.390 . S
C2020 C2014 1.465 . S
C2020 C2019 1.396 . S
C2020 C2021 1.399 . S
C2021 H2007 0.929 . S
C2021 C2020 1.399 . S
C2021 C2022 1.385 . S
C2022 H2008 0.931 . S
C2022 C2021 1.385 . S
C2022 C2023 1.389 . S
C2023 C2022 1.389 . S
C2023 C2024 1.387 . S
C2024 H2009 0.930 . S
C2024 C2019 1.390 . S
C2024 C2023 1.387 . S
H2025 C2037 0.930 . S
H2026 C2039 0.930 . S
H2027 C2040 0.930 . S
H2028 C2044 0.959 . S
H2029 C2044 0.959 . S
H2030 C2044 0.961 . S
H2031 C2045 0.960 . S
H2032 C2045 0.961 . S
H2033 C2045 0.959 . S
H2034 C2048 0.929 . S
H2035 C2049 0.931 . S
H2036 C2051 0.930 . S
C2037 H2025 0.930 . S
C2037 C2038 1.399 . S
C2037 C2042 1.399 . S
C2038 C2037 1.399 . S
C2038 C2039 1.376 . S
C2039 H2026 0.930 . S
C2039 C2038 1.376 . S
C2039 C2040 1.388 . S
C2040 H2027 0.930 . S
C2040 C2039 1.388 . S
C2040 C2041 1.390 . S
C2041 C2040 1.390 . S
C2041 C2042 1.394 . S
C2041 C2047 1.465 . S
C2042 C2037 1.399 . S
C2042 C2041 1.394 . S
C2042 C2043 1.516 . S
C2043 C2042 1.516 . S
C2043 C2044 1.502 . S
C2043 C2045 1.561 . S
C2043 C2046 1.526 . S
C2044 H2028 0.959 . S
C2044 H2029 0.959 . S
C2044 H2030 0.961 . S
C2044 C2043 1.502 . S
C2045 H2031 0.960 . S
C2045 H2032 0.961 . S
C2045 H2033 0.959 . S
C2045 C2043 1.561 . S
C2046 C2043 1.526 . S
C2046 C2047 1.396 . S
C2046 C2051 1.390 . S
C2047 C2041 1.465 . S
C2047 C2046 1.396 . S
C2047 C2048 1.399 . S
C2048 H2034 0.929 . S
C2048 C2047 1.399 . S
C2048 C2049 1.385 . S
C2049 H2035 0.931 . S
C2049 C2048 1.385 . S
C2049 C2050 1.389 . S
C2050 C2049 1.389 . S
C2050 C2051 1.387 . S
C2051 H2036 0.930 . S
C2051 C2046 1.390 . S
C2051 C2050 1.387 . S
H2052 C2064 0.930 . S
H2053 C2066 0.930 . S
H2054 C2067 0.930 . S
H2055 C2071 0.959 . S
H2056 C2071 0.959 . S
H2057 C2071 0.961 . S
H2058 C2072 0.960 . S
H2059 C2072 0.961 . S
H2060 C2072 0.959 . S
H2061 C2075 0.929 . S
H2062 C2076 0.931 . S
H2063 C2078 0.930 . S
C2064 H2052 0.930 . S
C2064 C2065 1.399 . S
C2064 C2069 1.399 . S
C2065 C2064 1.399 . S
C2065 C2066 1.376 . S
C2066 H2053 0.930 . S
C2066 C2065 1.376 . S
C2066 C2067 1.388 . S
C2067 H2054 0.930 . S
C2067 C2066 1.388 . S
C2067 C2068 1.390 . S
C2068 C2067 1.390 . S
C2068 C2069 1.394 . S
C2068 C2074 1.465 . S
C2069 C2064 1.399 . S
C2069 C2068 1.394 . S
C2069 C2070 1.516 . S
C2070 C2069 1.516 . S
C2070 C2071 1.502 . S
C2070 C2072 1.561 . S
C2070 C2073 1.526 . S
C2071 H2055 0.959 . S
C2071 H2056 0.959 . S
C2071 H2057 0.961 . S
C2071 C2070 1.502 . S
C2072 H2058 0.960 . S
C2072 H2059 0.961 . S
C2072 H2060 0.959 . S
C2072 C2070 1.561 . S
C2073 C2070 1.526 . S
C2073 C2074 1.396 . S
C2073 C2078 1.390 . S
C2074 C2068 1.465 . S
C2074 C2073 1.396 . S
C2074 C2075 1.399 . S
C2075 H2061 0.929 . S
C2075 C2074 1.399 . S
C2075 C2076 1.385 . S
C2076 H2062 0.931 . S
C2076 C2075 1.385 . S
C2076 C2077 1.389 . S
C2077 C2076 1.389 . S
C2077 C2078 1.387 . S
C2078 H2063 0.930 . S
C2078 C2073 1.390 . S
C2078 C2077 1.387 . S
H2079 C2091 0.930 . S
H2080 C2093 0.930 . S
H2081 C2094 0.930 . S
H2082 C2098 0.959 . S
H2083 C2098 0.959 . S
H2084 C2098 0.961 . S
H2085 C2099 0.960 . S
H2086 C2099 0.961 . S
H2087 C2099 0.959 . S
H2088 C2102 0.929 . S
H2089 C2103 0.931 . S
H2090 C2105 0.930 . S
C2091 H2079 0.930 . S
C2091 C2092 1.399 . S
C2091 C2096 1.399 . S
C2092 C2091 1.399 . S
C2092 C2093 1.376 . S
C2093 H2080 0.930 . S
C2093 C2092 1.376 . S
C2093 C2094 1.388 . S
C2094 H2081 0.930 . S
C2094 C2093 1.388 . S
C2094 C2095 1.390 . S
C2095 C2094 1.390 . S
C2095 C2096 1.394 . S
C2095 C2101 1.465 . S
C2096 C2091 1.399 . S
C2096 C2095 1.394 . S
C2096 C2097 1.516 . S
C2097 C2096 1.516 . S
C2097 C2098 1.502 . S
C2097 C2099 1.561 . S
C2097 C2100 1.526 . S
C2098 H2082 0.959 . S
C2098 H2083 0.959 . S
C2098 H2084 0.961 . S
C2098 C2097 1.502 . S
C2099 H2085 0.960 . S
C2099 H2086 0.961 . S
C2099 H2087 0.959 . S
C2099 C2097 1.561 . S
C2100 C2097 1.526 . S
C2100 C2101 1.396 . S
C2100 C2105 1.390 . S
C2101 C2095 1.465 . S
C2101 C2100 1.396 . S
C2101 C2102 1.399 . S
C2102 H2088 0.929 . S
C2102 C2101 1.399 . S
C2102 C2103 1.385 . S
C2103 H2089 0.931 . S
C2103 C2102 1.385 . S
C2103 C2104 1.389 . S
C2104 C2103 1.389 . S
C2104 C2105 1.387 . S
C2105 H2090 0.930 . S
C2105 C2100 1.390 . S
C2105 C2104 1.387 . S
H2106 C2118 0.930 . S
H2107 C2120 0.930 . S
H2108 C2121 0.930 . S
H2109 C2125 0.959 . S
H2110 C2125 0.959 . S
H2111 C2125 0.961 . S
H2112 C2126 0.960 . S
H2113 C2126 0.961 . S
H2114 C2126 0.959 . S
H2115 C2129 0.929 . S
H2116 C2130 0.931 . S
H2117 C2132 0.930 . S
C2118 H2106 0.930 . S
C2118 C2119 1.399 . S
C2118 C2123 1.399 . S
C2119 C2118 1.399 . S
C2119 C2120 1.376 . S
C2120 H2107 0.930 . S
C2120 C2119 1.376 . S
C2120 C2121 1.388 . S
C2121 H2108 0.930 . S
C2121 C2120 1.388 . S
C2121 C2122 1.390 . S
C2122 C2121 1.390 . S
C2122 C2123 1.394 . S
C2122 C2128 1.465 . S
C2123 C2118 1.399 . S
C2123 C2122 1.394 . S
C2123 C2124 1.516 . S
C2124 C2123 1.516 . S
C2124 C2125 1.502 . S
C2124 C2126 1.561 . S
C2124 C2127 1.526 . S
C2125 H2109 0.959 . S
C2125 H2110 0.959 . S
C2125 H2111 0.961 . S
C2125 C2124 1.502 . S
C2126 H2112 0.960 . S
C2126 H2113 0.961 . S
C2126 H2114 0.959 . S
C2126 C2124 1.561 . S
C2127 C2124 1.526 . S
C2127 C2128 1.396 . S
C2127 C2132 1.390 . S
C2128 C2122 1.465 . S
C2128 C2127 1.396 . S
C2128 C2129 1.399 . S
C2129 H2115 0.929 . S
C2129 C2128 1.399 . S
C2129 C2130 1.385 . S
C2130 H2116 0.931 . S
C2130 C2129 1.385 . S
C2130 C2131 1.389 . S
C2131 C2130 1.389 . S
C2131 C2132 1.387 . S
C2132 H2117 0.930 . S
C2132 C2127 1.390 . S
C2132 C2131 1.387 . S
H2133 C2145 0.930 . S
H2134 C2147 0.930 . S
H2135 C2148 0.930 . S
H2136 C2152 0.959 . S
H2137 C2152 0.959 . S
H2138 C2152 0.961 . S
H2139 C2153 0.960 . S
H2140 C2153 0.961 . S
H2141 C2153 0.959 . S
H2142 C2156 0.929 . S
H2143 C2157 0.931 . S
H2144 C2159 0.930 . S
C2145 H2133 0.930 . S
C2145 C2146 1.399 . S
C2145 C2150 1.399 . S
C2146 C2145 1.399 . S
C2146 C2147 1.376 . S
C2147 H2134 0.930 . S
C2147 C2146 1.376 . S
C2147 C2148 1.388 . S
C2148 H2135 0.930 . S
C2148 C2147 1.388 . S
C2148 C2149 1.390 . S
C2149 C2148 1.390 . S
C2149 C2150 1.394 . S
C2149 C2155 1.465 . S
C2150 C2145 1.399 . S
C2150 C2149 1.394 . S
C2150 C2151 1.516 . S
C2151 C2150 1.516 . S
C2151 C2152 1.502 . S
C2151 C2153 1.561 . S
C2151 C2154 1.526 . S
C2152 H2136 0.959 . S
C2152 H2137 0.959 . S
C2152 H2138 0.961 . S
C2152 C2151 1.502 . S
C2153 H2139 0.960 . S
C2153 H2140 0.961 . S
C2153 H2141 0.959 . S
C2153 C2151 1.561 . S
C2154 C2151 1.526 . S
C2154 C2155 1.396 . S
C2154 C2159 1.390 . S
C2155 C2149 1.465 . S
C2155 C2154 1.396 . S
C2155 C2156 1.399 . S
C2156 H2142 0.929 . S
C2156 C2155 1.399 . S
C2156 C2157 1.385 . S
C2157 H2143 0.931 . S
C2157 C2156 1.385 . S
C2157 C2158 1.389 . S
C2158 C2157 1.389 . S
C2158 C2159 1.387 . S
C2159 H2144 0.930 . S
C2159 C2154 1.390 . S
C2159 C2158 1.387 . S
C715 C253 1.728 . S
C727 C345 1.742 . S
C742 C272 1.852 . S
C754 C385 1.837 . S
C769 C234 1.621 . S
C781 C437 1.565 . S
C796 C215 1.464 . S
C808 C397 1.467 1_556 S
C835 C425 1.558 . S
C823 C177 1.559 . S
C850 C196 1.415 . S
C862 C357 1.388 . S
C889 C364 1.712 . S
C877 C220 1.523 . S
C916 C404 1.639 . S
C904 C182 1.586 . S
C931 C201 1.655 . S
C943 C424 1.709 . S
C958 C258 1.482 . S
C970 C384 1.513 . S
C985 C277 1.327 . S
C997 C444 1.443 . S
C1024 C344 1.570 . S
C1012 C239 1.360 . S
C1051 C465 1.742 . S
C1039 C25 1.730 . S
C1066 C44 1.835 . S
C1078 C505 1.831 . S
C1093 C6 1.620 . S
C1105 C557 1.565 . S
C1120 C329 1.459 . S
C1132 C517 1.481 . S
C1147 C291 1.562 . S
C1159 C545 1.567 . S
C1174 C310 1.396 . S
C1186 C477 1.356 . S
C1201 C334 1.587 . S
C1213 C484 1.689 . S
C1228 C296 1.597 . S
C1240 C524 1.643 . S
C1267 C544 1.724 . S
C1255 C315 1.674 . S
C1282 C30 1.465 . S
C1294 C504 1.507 . S
C1321 C564 1.454 . S
C1309 C49 1.359 1_455 S
C1336 C11 1.450 . S
C1348 C464 1.509 . S
C1375 C585 1.734 . S
C1363 C139 1.737 . S
C1390 C158 1.851 . S
C1402 C625 1.840 . S
C1429 C677 1.569 . S
C1417 C120 1.628 . S
C1456 C637 1.481 . S
C1444 C101 1.460 . S
C1483 C665 1.567 . S
C1471 C63 1.563 . S
C1498 C82 1.381 . S
C1510 C597 1.413 . S
C1525 C106 1.559 . S
C1537 C604 1.686 . S
C1552 C68 1.503 . S
C1564 C644 1.666 . S
C1591 C664 1.762 . S
C1579 C87 1.591 . S
C1606 C144 1.471 . S
C1618 C624 1.508 . S
C1633 C163 1.348 . S
C1645 C684 1.439 . S
C1660 C125 1.439 . S
C1672 C584 1.506 . S
C1687 C287 1.606 . S
C1699 C368 1.544 . S
C1726 C408 2.070 . S
C1714 C306 2.058 . S
C1741 C325 1.605 . S
C1753 C431 1.675 . S
C1768 C116 1.869 . S
C1780 C391 1.847 . S
C1795 C135 1.825 . S
C1807 C448 1.756 . S
C1834 C351 1.341 . S
C1822 C154 1.331 . S
C1849 C59 1.563 . S
C1861 C488 1.566 . S
C1876 C78 2.058 . S
C1888 C528 2.069 . S
C1903 C97 1.638 . S
C1915 C551 1.665 . S
C1930 C230 1.822 . S
C1942 C511 1.876 . S
C1969 C568 1.760 . S
C1957 C249 1.824 . S
C1984 C268 1.288 . S
C1996 C471 1.329 . S
C2011 C173 1.606 . S
C2023 C608 1.546 . S
C2038 C192 2.092 . S
C2050 C648 2.025 . S
C2077 C671 1.649 . S
C2065 C211 1.655 . S
C2092 C2 1.834 . S
C2104 C631 1.885 . S
C2119 C21 1.824 . S
C2131 C688 1.761 . S
C2146 C40 1.333 . S
C2158 C591 1.340 . S
