# Generated by pormake.
# Topology llj, (12,3)-cn, num edge types: 1
# Building blocks:
#     Node 0, Type 0, BuildingBlock: QEWDON_clean_sbu_0, # of connection points: 12
#     Node 1, Type 0, BuildingBlock: QEWDON_clean_sbu_0, # of connection points: 12
#     Node 2, Type 1, BuildingBlock: BELTOD_clean_linker_0, # of connection points: 3
#     Node 3, Type 1, BuildingBlock: BELTOD_clean_linker_0, # of connection points: 3
#     Node 4, Type 1, BuildingBlock: BELTOD_clean_linker_0, # of connection points: 3
#     Node 5, Type 1, BuildingBlock: BELTOD_clean_linker_0, # of connection points: 3
#     Node 6, Type 1, BuildingBlock: BELTOD_clean_linker_0, # of connection points: 3
#     Node 7, Type 1, BuildingBlock: BELTOD_clean_linker_0, # of connection points: 3
#     Node 8, Type 1, BuildingBlock: BELTOD_clean_linker_0, # of connection points: 3
#     Node 9, Type 1, BuildingBlock: BELTOD_clean_linker_0, # of connection points: 3
#     Edge 10, Type (0, 1), BuildingBlock: CIFDUS_clean_linker_0, # of connection points: 2
#     Edge 11, Type (0, 1), BuildingBlock: CIFDUS_clean_linker_0, # of connection points: 2
#     Edge 12, Type (0, 1), BuildingBlock: CIFDUS_clean_linker_0, # of connection points: 2
#     Edge 13, Type (0, 1), BuildingBlock: CIFDUS_clean_linker_0, # of connection points: 2
#     Edge 14, Type (0, 1), BuildingBlock: CIFDUS_clean_linker_0, # of connection points: 2
#     Edge 15, Type (0, 1), BuildingBlock: CIFDUS_clean_linker_0, # of connection points: 2
#     Edge 16, Type (0, 1), BuildingBlock: CIFDUS_clean_linker_0, # of connection points: 2
#     Edge 17, Type (0, 1), BuildingBlock: CIFDUS_clean_linker_0, # of connection points: 2
#     Edge 18, Type (0, 1), BuildingBlock: CIFDUS_clean_linker_0, # of connection points: 2
#     Edge 19, Type (0, 1), BuildingBlock: CIFDUS_clean_linker_0, # of connection points: 2
#     Edge 20, Type (0, 1), BuildingBlock: CIFDUS_clean_linker_0, # of connection points: 2
#     Edge 21, Type (0, 1), BuildingBlock: CIFDUS_clean_linker_0, # of connection points: 2
#     Edge 22, Type (0, 1), BuildingBlock: CIFDUS_clean_linker_0, # of connection points: 2
#     Edge 23, Type (0, 1), BuildingBlock: CIFDUS_clean_linker_0, # of connection points: 2
#     Edge 24, Type (0, 1), BuildingBlock: CIFDUS_clean_linker_0, # of connection points: 2
#     Edge 25, Type (0, 1), BuildingBlock: CIFDUS_clean_linker_0, # of connection points: 2
#     Edge 26, Type (0, 1), BuildingBlock: CIFDUS_clean_linker_0, # of connection points: 2
#     Edge 27, Type (0, 1), BuildingBlock: CIFDUS_clean_linker_0, # of connection points: 2
#     Edge 28, Type (0, 1), BuildingBlock: CIFDUS_clean_linker_0, # of connection points: 2
#     Edge 29, Type (0, 1), BuildingBlock: CIFDUS_clean_linker_0, # of connection points: 2
#     Edge 30, Type (0, 1), BuildingBlock: CIFDUS_clean_linker_0, # of connection points: 2
#     Edge 31, Type (0, 1), BuildingBlock: CIFDUS_clean_linker_0, # of connection points: 2
#     Edge 32, Type (0, 1), BuildingBlock: CIFDUS_clean_linker_0, # of connection points: 2
#     Edge 33, Type (0, 1), BuildingBlock: CIFDUS_clean_linker_0, # of connection points: 2
# Relax obj value: 0.009
# Max RMSD: 0.046
# Mean RMSD: 0.044
data_MOF--net-llj--node1-QEWDON_clean_sbu_0--node2-BELTOD_clean_linker_0--edge1-CIFDUS_clean_linker_0
_symmetry_space_group_name_H-M    P1
_symmetry_Int_Tables_number       1
_symmetry_cell_setting            triclinic
loop_
_symmetry_equiv_pos_as_xyz
'x, y, z'
_cell_length_a     38.166321
_cell_length_b     38.195923
_cell_length_c     26.155407
_cell_angle_alpha  89.488434
_cell_angle_beta   89.960227
_cell_angle_gamma 90.089711
loop_
_atom_site_label
_atom_site_type_symbol
_atom_site_fract_x
_atom_site_fract_y
_atom_site_fract_z
_atom_type_partial_charge
Zn0 Zn 0.9379 0.08443 0.96161 0.0
Zn1 Zn 0.92906 0.07317 0.08389 0.0
O2 O 0.95721 0.05804 0.02324 0.0
H3 H 0.96965 0.03611 0.02107 0.0
C4 C 0.87084 0.03721 0.93735 0.0
O5 O 0.85246 0.0429 0.97894 0.0
Zn6 Zn 0.01389 0.93159 0.08534 0.0
Zn7 Zn 0.9952 0.87602 0.00968 0.0
O8 O 0.00479 0.92834 0.01047 0.0
H9 H 0.01636 0.94193 0.98407 0.0
Zn10 Zn 0.88518 0.97051 0.99093 0.0
O11 O 0.91809 0.97226 0.05191 0.0
Zn12 Zn 0.8887 0.95477 0.11038 0.0
H13 H 0.94204 0.98048 0.0527 0.0
Zn14 Zn 0.04802 0.06376 0.94793 0.0
O15 O 0.03981 0.02829 0.00472 0.0
H16 H 0.02878 0.00567 0.00118 0.0
Zn17 Zn 0.05037 0.0539 0.06942 0.0
C18 C 0.09108 0.05194 0.86045 0.0
O19 O 0.1123 0.06892 0.891 0.0
O20 O 0.90245 0.12273 0.9806 0.0
O21 O 0.89842 0.11431 0.06477 0.0
O22 O 0.03245 0.85023 0.05261 0.0
O23 O 0.04772 0.89262 0.10596 0.0
O24 O 0.84224 0.93784 0.00024 0.0
O25 O 0.84404 0.93192 0.08494 0.0
C26 C 0.99273 0.08097 0.14035 0.0
O27 O 0.08019 0.10354 0.97184 0.0
O28 O 0.08366 0.09446 0.05572 0.0
O29 O 0.98243 0.85449 0.93932 0.0
C30 C 0.89001 0.13092 0.02411 0.0
O31 O 0.97048 0.09276 0.89879 0.0
C32 C 0.94666 0.90976 0.14413 0.0
O33 O 0.88729 0.00846 0.93316 0.0
C34 C 0.05171 0.86168 0.08862 0.0
O35 O 0.06015 0.04519 0.87566 0.0
C36 C 0.88832 0.02457 0.15013 0.0
O37 O 0.95999 0.08617 0.14353 0.0
O38 O 0.00466 0.07051 0.09775 0.0
C39 C 0.82956 0.92573 0.04195 0.0
O40 O 0.96536 0.9295 0.11582 0.0
O41 O 0.91421 0.91649 0.14842 0.0
C42 C 0.06075 0.98934 0.12301 0.0
O43 O 0.87856 0.99349 0.16042 0.0
O44 O 0.90134 0.03104 0.10633 0.0
C45 C 0.09247 0.11137 0.01548 0.0
O46 O 0.07212 0.02046 0.11896 0.0
O47 O 0.0354 0.97953 0.09506 0.0
C48 C 0.95105 0.84756 0.92664 0.0
O49 O 0.92562 0.85395 0.95912 0.0
C50 C 0.99601 0.114 0.9026 0.0
O51 O 0.00096 0.13018 0.94613 0.0
Zn52 Zn 0.41178 0.57841 0.44454 0.0
Zn53 Zn 0.42079 0.58157 0.56643 0.0
O54 O 0.44598 0.57036 0.5022 0.0
H55 H 0.4664 0.55564 0.49945 0.0
C56 C 0.39282 0.48477 0.40068 0.0
O57 O 0.37433 0.49116 0.44196 0.0
Zn58 Zn 0.54703 0.44711 0.57442 0.0
Zn59 Zn 0.55284 0.43848 0.45687 0.0
O60 O 0.51677 0.4409 0.51361 0.0
H61 H 0.49319 0.44973 0.50986 0.0
Zn62 Zn 0.42223 0.44265 0.47659 0.0
O63 O 0.42158 0.48161 0.52786 0.0
Zn64 Zn 0.4203 0.45604 0.59392 0.0
H65 H 0.43461 0.50285 0.52146 0.0
Zn66 Zn 0.56308 0.55541 0.43674 0.0
O67 O 0.5369 0.53801 0.49843 0.0
H68 H 0.51925 0.51983 0.49834 0.0
Zn69 Zn 0.54505 0.57353 0.55248 0.0
C70 C 0.59863 0.49371 0.39808 0.0
O71 O 0.61121 0.49309 0.44483 0.0
O72 O 0.37203 0.61183 0.4652 0.0
O73 O 0.37894 0.61309 0.54983 0.0
O74 O 0.59947 0.41621 0.48058 0.0
O75 O 0.59421 0.42267 0.56466 0.0
O76 O 0.39291 0.40084 0.50159 0.0
O77 O 0.39215 0.4099 0.58573 0.0
C78 C 0.48642 0.60562 0.60735 0.0
O79 O 0.59968 0.59342 0.45317 0.0
O80 O 0.58414 0.60762 0.53226 0.0
O81 O 0.53324 0.42531 0.38591 0.0
C82 C 0.36304 0.62295 0.50916 0.0
O83 O 0.43623 0.58503 0.37449 0.0
C84 C 0.48893 0.42957 0.64015 0.0
O85 O 0.41644 0.46145 0.40294 0.0
C86 C 0.61134 0.41199 0.52578 0.0
O87 O 0.57737 0.51776 0.38516 0.0
C88 C 0.3973 0.52159 0.64028 0.0
O89 O 0.45361 0.60634 0.6151 0.0
O90 O 0.49765 0.59402 0.56517 0.0
C91 C 0.38333 0.3919 0.54659 0.0
O92 O 0.52191 0.42635 0.63511 0.0
O93 O 0.47197 0.44736 0.60724 0.0
C94 C 0.56133 0.51663 0.62014 0.0
O95 O 0.39831 0.48847 0.64704 0.0
O96 O 0.40897 0.53401 0.5982 0.0
C97 C 0.60401 0.61161 0.4933 0.0
O98 O 0.56066 0.54974 0.61731 0.0
O99 O 0.55191 0.49893 0.5818 0.0
C100 C 0.50482 0.40796 0.38648 0.0
O101 O 0.4904 0.40001 0.43071 0.0
C102 C 0.46003 0.56286 0.36465 0.0
O103 O 0.46564 0.53713 0.3973 0.0
P104 P 0.39163 0.24325 0.01195 0.0
H105 H 0.40694 0.22051 0.11616 0.0
H106 H 0.42028 0.25244 0.19446 0.0
H107 H 0.40641 0.35044 0.11341 0.0
H108 H 0.39267 0.31849 0.03547 0.0
H109 H 0.34386 0.23906 0.92388 0.0
H110 H 0.28314 0.22249 0.91586 0.0
H111 H 0.28018 0.19719 0.07761 0.0
H112 H 0.33985 0.21851 0.08617 0.0
H113 H 0.45801 0.24405 0.95683 0.0
H114 H 0.36015 0.30012 0.95117 0.0
O115 O 0.4143 0.20595 0.01449 0.0
H116 H 0.47888 0.27693 0.88268 0.0
H117 H 0.3795 0.33117 0.87445 0.0
C118 C 0.3995 0.26708 0.06977 0.0
C119 C 0.40661 0.24886 0.11529 0.0
C120 C 0.41401 0.2671 0.16002 0.0
C121 C 0.41458 0.30388 0.15976 0.0
C122 C 0.40656 0.32208 0.11439 0.0
C123 C 0.39872 0.30379 0.06983 0.0
C124 C 0.34607 0.23178 0.00612 0.0
C125 C 0.32979 0.23155 0.95814 0.0
C126 C 0.29498 0.22102 0.95338 0.0
C127 C 0.27621 0.20824 0.99601 0.0
C128 C 0.29303 0.20779 0.04399 0.0
C129 C 0.32749 0.21971 0.04897 0.0
C130 C 0.40703 0.26863 0.95815 0.0
C131 C 0.44077 0.26305 0.93903 0.0
C132 C 0.45255 0.28174 0.89628 0.0
C133 C 0.4306 0.30618 0.87151 0.0
C134 C 0.39724 0.31268 0.89231 0.0
C135 C 0.38588 0.29454 0.93581 0.0
P136 P 0.74367 0.42169 0.99219 0.0
H137 H 0.75655 0.45153 0.0926 0.0
H138 H 0.72033 0.45643 0.16903 0.0
H139 H 0.6354 0.40411 0.09123 0.0
H140 H 0.6717 0.4002 0.01426 0.0
H141 H 0.81132 0.39205 0.02128 0.0
H142 H 0.83369 0.33194 0.0222 0.0
H143 H 0.73375 0.29442 0.96817 0.0
H144 H 0.71097 0.35445 0.96904 0.0
H145 H 0.69382 0.47643 0.9655 0.0
H146 H 0.74162 0.38812 0.89136 0.0
O147 O 0.77698 0.44998 0.99469 0.0
H148 H 0.66114 0.48974 0.88772 0.0
H149 H 0.70671 0.39891 0.81556 0.0
C150 C 0.71645 0.42628 0.04759 0.0
C151 C 0.73005 0.44138 0.09188 0.0
C152 C 0.70945 0.44369 0.13578 0.0
C153 C 0.67499 0.4305 0.1363 0.0
C154 C 0.66169 0.41482 0.0919 0.0
C155 C 0.68236 0.4126 0.04793 0.0
C156 C 0.7599 0.37768 0.99355 0.0
C157 C 0.79422 0.37093 0.00966 0.0
C158 C 0.80689 0.3367 0.01042 0.0
C159 C 0.7854 0.30895 0.99474 0.0
C160 C 0.75077 0.31562 0.97984 0.0
C161 C 0.73788 0.34977 0.98023 0.0
C162 C 0.71918 0.4306 0.9349 0.0
C163 C 0.69666 0.45944 0.93282 0.0
C164 C 0.6777 0.46676 0.88837 0.0
C165 C 0.68065 0.44506 0.84528 0.0
C166 C 0.70378 0.41643 0.84757 0.0
C167 C 0.7234 0.40976 0.89152 0.0
P168 P 0.66335 0.64626 0.00582 0.0
H169 H 0.67852 0.61559 0.90576 0.0
H170 H 0.64113 0.60311 0.83169 0.0
H171 H 0.55261 0.64777 0.91063 0.0
H172 H 0.5899 0.66046 0.98386 0.0
H173 H 0.71012 0.68276 0.07483 0.0
H174 H 0.73673 0.74105 0.07256 0.0
H175 H 0.68107 0.76451 0.93259 0.0
H176 H 0.65497 0.70615 0.93476 0.0
H177 H 0.63419 0.58211 0.04704 0.0
H178 H 0.62971 0.69218 0.08149 0.0
O179 O 0.6967 0.61808 0.00702 0.0
H180 H 0.58977 0.57014 0.11186 0.0
H181 H 0.58645 0.68035 0.14826 0.0
C182 C 0.63673 0.63817 0.9506 0.0
C183 C 0.65106 0.62262 0.90701 0.0
C184 C 0.62978 0.61563 0.8648 0.0
C185 C 0.59395 0.62404 0.86594 0.0
C186 C 0.57999 0.64037 0.90927 0.0
C187 C 0.60129 0.64766 0.95105 0.0
C188 C 0.68072 0.69008 0.005 0.0
C189 C 0.70351 0.70058 0.04388 0.0
C190 C 0.71848 0.73397 0.04268 0.0
C191 C 0.71096 0.75743 0.00238 0.0
C192 C 0.68762 0.74694 0.96386 0.0
C193 C 0.67257 0.71355 0.96521 0.0
C194 C 0.63583 0.63784 0.06033 0.0
C195 C 0.62434 0.60357 0.0697 0.0
C196 C 0.59889 0.59681 0.1068 0.0
C197 C 0.58449 0.62427 0.13549 0.0
C198 C 0.5966 0.65862 0.12648 0.0
C199 C 0.62183 0.66538 0.08887 0.0
P200 P 0.32779 0.69081 0.03802 0.0
H201 H 0.31157 0.69996 0.92903 0.0
H202 H 0.3183 0.66177 0.85515 0.0
H203 H 0.36205 0.58151 0.95379 0.0
H204 H 0.35294 0.61849 0.02692 0.0
H205 H 0.30347 0.74107 0.11202 0.0
H206 H 0.24626 0.76586 0.13111 0.0
H207 H 0.20276 0.71201 0.00069 0.0
H208 H 0.25929 0.68507 0.98503 0.0
H209 H 0.39224 0.67388 0.09398 0.0
H210 H 0.28163 0.65195 0.107 0.0
O211 O 0.35829 0.72186 0.0315 0.0
H212 H 0.40335 0.6377 0.17046 0.0
H213 H 0.29248 0.61664 0.1835 0.0
C214 C 0.33078 0.66193 0.98386 0.0
C215 C 0.32184 0.6738 0.93472 0.0
C216 C 0.32619 0.65202 0.89237 0.0
C217 C 0.34062 0.61825 0.89817 0.0
C218 C 0.34994 0.6068 0.9476 0.0
C219 C 0.34494 0.62827 0.98983 0.0
C220 C 0.28592 0.71182 0.04645 0.0
C221 C 0.28157 0.73484 0.08738 0.0
C222 C 0.24873 0.74913 0.09813 0.0
C223 C 0.21951 0.7412 0.06749 0.0
C224 C 0.22426 0.71836 0.02594 0.0
C225 C 0.25697 0.7034 0.01607 0.0
C226 C 0.33604 0.66635 0.09579 0.0
C227 C 0.37036 0.66176 0.11372 0.0
C228 C 0.37669 0.64097 0.15703 0.0
C229 C 0.34868 0.62482 0.18298 0.0
C230 C 0.31442 0.62936 0.16464 0.0
C231 C 0.30821 0.64961 0.12103 0.0
P232 P 0.91726 0.70482 0.49851 0.0
H233 H 0.97621 0.70177 0.56937 0.0
H234 H 0.9888 0.73189 0.64932 0.0
H235 H 0.8935 0.79185 0.63207 0.0
H236 H 0.88082 0.76105 0.55252 0.0
H237 H 0.86653 0.66703 0.56107 0.0
H238 H 0.80358 0.65623 0.5522 0.0
H239 H 0.80204 0.72044 0.41543 0.0
H240 H 0.86476 0.73122 0.42453 0.0
H241 H 0.94057 0.77699 0.47603 0.0
H242 H 0.93029 0.67925 0.3961 0.0
O243 O 0.93509 0.66507 0.50337 0.0
H244 H 0.95488 0.8068 0.39553 0.0
H245 H 0.94443 0.709 0.31537 0.0
C246 C 0.92727 0.7287 0.55569 0.0
C247 C 0.95804 0.72139 0.58284 0.0
C248 C 0.96532 0.73883 0.62837 0.0
C249 C 0.94202 0.76413 0.64734 0.0
C250 C 0.91164 0.77205 0.61906 0.0
C251 C 0.90442 0.75457 0.5735 0.0
C252 C 0.87049 0.69935 0.49306 0.0
C253 C 0.85256 0.67895 0.52938 0.0
C254 C 0.81655 0.67303 0.52447 0.0
C255 C 0.79789 0.68737 0.48294 0.0
C256 C 0.8158 0.7087 0.44745 0.0
C257 C 0.85175 0.71482 0.45264 0.0
C258 C 0.93464 0.72584 0.44205 0.0
C259 C 0.94233 0.76174 0.44146 0.0
C260 C 0.9507 0.77874 0.39543 0.0
C261 C 0.95087 0.76017 0.34923 0.0
C262 C 0.94455 0.72392 0.35041 0.0
C263 C 0.93655 0.70692 0.39647 0.0
P264 P 0.2499 0.92226 0.48931 0.0
H265 H 0.25549 0.9949 0.52238 0.0
H266 H 0.2264 0.02779 0.59012 0.0
H267 H 0.16715 0.93538 0.63206 0.0
H268 H 0.19599 0.90286 0.56387 0.0
H269 H 0.30786 0.89147 0.5463 0.0
H270 H 0.32273 0.83107 0.56879 0.0
H271 H 0.22521 0.79586 0.50271 0.0
H272 H 0.21066 0.85642 0.48004 0.0
H273 H 0.18219 0.95427 0.46198 0.0
H274 H 0.26034 0.8893 0.39078 0.0
O275 O 0.28793 0.94169 0.47518 0.0
H276 H 0.14888 0.95569 0.3828 0.0
H277 H 0.22654 0.89002 0.31116 0.0
C278 C 0.22859 0.94622 0.53923 0.0
C279 C 0.23636 0.98171 0.54634 0.0
C280 C 0.21967 0.00049 0.58491 0.0
C281 C 0.19465 0.98411 0.61656 0.0
C282 C 0.18611 0.9488 0.60806 0.0
C283 C 0.20289 0.93005 0.56956 0.0
C284 C 0.25871 0.8782 0.51025 0.0
C285 C 0.2896 0.87076 0.53699 0.0
C286 C 0.29788 0.83625 0.55025 0.0
C287 C 0.27524 0.80865 0.53715 0.0
C288 C 0.24341 0.81651 0.5126 0.0
C289 C 0.23511 0.85107 0.49955 0.0
C290 C 0.22379 0.92169 0.4322 0.0
C291 C 0.192 0.93988 0.42956 0.0
C292 C 0.17274 0.9404 0.38426 0.0
C293 C 0.18495 0.92276 0.34077 0.0
C294 C 0.21655 0.904 0.34393 0.0
C295 C 0.23583 0.90354 0.38932 0.0
P296 P 0.19336 0.12212 0.51658 0.0
H297 H 0.20028 0.15368 0.41299 0.0
H298 H 0.1675 0.14504 0.33371 0.0
H299 H 0.10615 0.06408 0.40776 0.0
H300 H 0.13858 0.07325 0.48698 0.0
H301 H 0.26285 0.13982 0.556 0.0
H302 H 0.29618 0.19457 0.55903 0.0
H303 H 0.20941 0.24924 0.48904 0.0
H304 H 0.17593 0.19437 0.48683 0.0
H305 H 0.20071 0.10361 0.62469 0.0
H306 H 0.1187 0.14027 0.52431 0.0
O307 O 0.22132 0.08893 0.52415 0.0
H308 H 0.15875 0.10097 0.69572 0.0
H309 H 0.07644 0.13569 0.59442 0.0
C310 C 0.17079 0.11524 0.4567 0.0
C311 C 0.17949 0.13441 0.41245 0.0
C312 C 0.16099 0.12913 0.36687 0.0
C313 C 0.13376 0.10429 0.36463 0.0
C314 C 0.12632 0.08405 0.4085 0.0
C315 C 0.14488 0.08926 0.45384 0.0
C316 C 0.21737 0.16282 0.5195 0.0
C317 C 0.25097 0.16356 0.54121 0.0
C318 C 0.2699 0.19493 0.54342 0.0
C319 C 0.25555 0.22613 0.52384 0.0
C320 C 0.22134 0.2255 0.50374 0.0
C321 C 0.20225 0.19418 0.50226 0.0
C322 C 0.1626 0.12107 0.56887 0.0
C323 C 0.17365 0.11072 0.61781 0.0
C324 C 0.14971 0.10912 0.65829 0.0
C325 C 0.11424 0.11724 0.65018 0.0
C326 C 0.10348 0.12852 0.60141 0.0
C327 C 0.12761 0.13104 0.56132 0.0
P328 P 0.88044 0.22037 0.53478 0.0
H329 H 0.90548 0.22768 0.42956 0.0
H330 H 0.91051 0.18632 0.35884 0.0
H331 H 0.86512 0.10518 0.45424 0.0
H332 H 0.86051 0.14645 0.5246 0.0
H333 H 0.85883 0.28443 0.58546 0.0
H334 H 0.80721 0.32206 0.57682 0.0
H335 H 0.76337 0.25013 0.46739 0.0
H336 H 0.81507 0.213 0.4758 0.0
H337 H 0.93976 0.19331 0.59263 0.0
H338 H 0.82724 0.19382 0.60679 0.0
O339 O 0.91457 0.24764 0.53104 0.0
H340 H 0.94428 0.15746 0.67023 0.0
H341 H 0.83141 0.15736 0.68392 0.0
C342 C 0.88342 0.18993 0.48267 0.0
C343 C 0.89678 0.20093 0.43523 0.0
C344 C 0.89942 0.17733 0.39476 0.0
C345 C 0.88857 0.14234 0.40108 0.0
C346 C 0.87441 0.13173 0.44844 0.0
C347 C 0.87168 0.15536 0.48873 0.0
C348 C 0.84106 0.24626 0.53071 0.0
C349 C 0.83801 0.27677 0.55975 0.0
C350 C 0.80841 0.29814 0.55497 0.0
C351 C 0.7813 0.2893 0.52101 0.0
C352 C 0.78407 0.25807 0.49312 0.0
C353 C 0.81362 0.23669 0.49807 0.0
C354 C 0.88323 0.19679 0.5946 0.0
C355 C 0.91603 0.18603 0.61286 0.0
C356 C 0.91855 0.16526 0.65697 0.0
C357 C 0.88821 0.15455 0.68343 0.0
C358 C 0.85533 0.16564 0.66506 0.0
C359 C 0.85287 0.18645 0.62088 0.0
H360 H 0.13709 0.12842 0.93966 0.0
H361 H 0.11359 0.15026 0.09755 0.0
H362 H 0.1669 0.18588 0.10369 0.0
H363 H 0.22214 0.2067 0.06571 0.0
H364 H 0.24895 0.17507 0.91204 0.0
H365 H 0.1919 0.14839 0.90246 0.0
C366 C 0.14327 0.14142 0.97525 0.0
C367 C 0.12144 0.13686 0.01803 0.0
C368 C 0.17466 0.16011 0.97924 0.0
C369 C 0.13005 0.15348 0.06405 0.0
C370 C 0.16056 0.17367 0.0676 0.0
C371 C 0.21585 0.19371 0.03023 0.0
C372 C 0.24029 0.19334 0.98972 0.0
C373 C 0.18353 0.17637 0.02576 0.0
C374 C 0.23081 0.17692 0.94368 0.0
C375 C 0.19815 0.16112 0.9382 0.0
H376 H 0.85483 0.164 0.94757 0.0
H377 H 0.87417 0.16743 0.11011 0.0
H378 H 0.84189 0.2223 0.11573 0.0
H379 H 0.81192 0.27151 0.07334 0.0
H380 H 0.79055 0.26717 0.91181 0.0
H381 H 0.8197 0.21015 0.90678 0.0
C382 C 0.85168 0.17656 0.98428 0.0
C383 C 0.86722 0.1619 0.02817 0.0
C384 C 0.8329 0.20795 0.98734 0.0
C385 C 0.86256 0.17825 0.07565 0.0
C386 C 0.84422 0.20969 0.07892 0.0
C387 C 0.81347 0.25778 0.03727 0.0
C388 C 0.79962 0.27325 0.99293 0.0
C389 C 0.82991 0.22509 0.03487 0.0
C390 C 0.80118 0.25543 0.94632 0.0
C391 C 0.8179 0.22303 0.94345 0.0
H392 H 0.80488 0.89031 0.95948 0.0
H393 H 0.7892 0.90295 0.12178 0.0
H394 H 0.74863 0.85357 0.12291 0.0
H395 H 0.72223 0.80328 0.07966 0.0
H396 H 0.74006 0.78894 0.91829 0.0
H397 H 0.77465 0.84274 0.91486 0.0
C398 C 0.79206 0.88274 0.99492 0.0
C399 C 0.80035 0.90017 0.04054 0.0
C400 C 0.76936 0.85375 0.99559 0.0
C401 C 0.78354 0.88986 0.08615 0.0
C402 C 0.7604 0.86152 0.08691 0.0
C403 C 0.73361 0.81202 0.04372 0.0
C404 C 0.72884 0.79195 -0.00056 0.0
C405 C 0.75396 0.84264 0.04218 0.0
C406 C 0.74314 0.80398 0.95291 0.0
C407 C 0.76312 0.83464 0.95096 0.0
H408 H 0.06243 0.79214 0.07489 0.0
H409 H 0.11196 0.88517 0.13327 0.0
H410 H 0.16841 0.85524 0.13503 0.0
H411 H 0.20468 0.80585 0.10742 0.0
H412 H 0.15455 0.71163 0.05316 0.0
H413 H 0.09752 0.73936 0.06102 0.0
C414 C 0.08544 0.80565 0.08906 0.0
C415 C 0.08306 0.84105 0.10305 0.0
C416 C 0.11791 0.78845 0.08921 0.0
C417 C 0.11301 0.85798 0.1221 0.0
C418 C 0.14543 0.84097 0.12257 0.0
C419 C 0.18139 0.79086 0.09846 0.0
C420 C 0.18439 0.75685 0.07826 0.0
C421 C 0.14839 0.80666 0.10425 0.0
C422 C 0.1535 0.73828 0.0668 0.0
C423 C 0.12068 0.75397 0.07188 0.0
H424 H 0.65071 0.62791 0.41803 0.0
H425 H 0.62916 0.64513 0.57797 0.0
H426 H 0.68656 0.67245 0.58815 0.0
H427 H 0.74523 0.68602 0.5536 0.0
H428 H 0.7667 0.66762 0.39412 0.0
H429 H 0.70695 0.64652 0.38183 0.0
C430 C 0.65827 0.6381 0.455 0.0
C431 C 0.63571 0.63401 0.49726 0.0
C432 C 0.69153 0.65331 0.46084 0.0
C433 C 0.64595 0.64774 0.54473 0.0
C434 C 0.67892 0.6632 0.55072 0.0
C435 C 0.7367 0.67756 0.51613 0.0
C436 C 0.76047 0.67813 0.47495 0.0
C437 C 0.70232 0.66518 0.50939 0.0
C438 C 0.7489 0.66766 0.4264 0.0
C439 C 0.71478 0.65539 0.41939 0.0
H440 H 0.35136 0.66688 0.58867 0.0
H441 H 0.31692 0.64401 0.43528 0.0
H442 H 0.28296 0.69804 0.43314 0.0
H443 H 0.26986 0.75526 0.47003 0.0
H444 H 0.30639 0.77959 0.62169 0.0
H445 H 0.33281 0.72149 0.62923 0.0
C446 C 0.33582 0.67329 0.55517 0.0
C447 C 0.33704 0.6516 0.51198 0.0
C448 C 0.31719 0.70496 0.55356 0.0
C449 C 0.31674 0.66038 0.46889 0.0
C450 C 0.2974 0.69136 0.46754 0.0
C451 C 0.28282 0.74755 0.50526 0.0
C452 C 0.28641 0.77179 0.54507 0.0
C453 C 0.29845 0.7144 0.50893 0.0
C454 C 0.30372 0.76155 0.5902 0.0
C455 C 0.31876 0.72833 0.59457 0.0
H456 H 0.34261 0.36274 0.47389 0.0
H457 H 0.3722 0.35097 0.63227 0.0
H458 H 0.33516 0.29858 0.63958 0.0
H459 H 0.29485 0.25552 0.59996 0.0
H460 H 0.26443 0.26969 0.4423 0.0
H461 H 0.30119 0.32186 0.4358 0.0
C462 C 0.3411 0.34872 0.51008 0.0
C463 C 0.36044 0.36061 0.55236 0.0
C464 C 0.31947 0.31908 0.51412 0.0
C465 C 0.35763 0.34238 0.59912 0.0
C466 C 0.3365 0.31239 0.60326 0.0
C467 C 0.29632 0.27011 0.56426 0.0
C468 C 0.2769 0.25874 0.52164 0.0
C469 C 0.31739 0.3004 0.5609 0.0
C470 C 0.27878 0.27807 0.47576 0.0
C471 C 0.29996 0.3078 0.47194 0.0
H472 H 0.65209 0.38186 0.45289 0.0
H473 H 0.64523 0.39755 0.61589 0.0
H474 H 0.69768 0.362 0.62873 0.0
H475 H 0.74398 0.32404 0.59398 0.0
H476 H 0.74989 0.30788 0.4311 0.0
H477 H 0.69904 0.34555 0.41814 0.0
C478 C 0.6621 0.37772 0.49127 0.0
C479 C 0.64459 0.39243 0.53334 0.0
C480 C 0.69193 0.35676 0.4985 0.0
C481 C 0.65812 0.38668 0.58274 0.0
C482 C 0.68808 0.3662 0.59017 0.0
C483 C 0.73434 0.32902 0.55562 0.0
C484 C 0.75064 0.31289 0.51363 0.0
C485 C 0.70498 0.35077 0.54838 0.0
C486 C 0.73753 0.31941 0.46421 0.0
C487 C 0.70857 0.34115 0.4567 0.0
H488 H 0.06419 0.0881 0.14627 0.0
H489 H 0.97088 0.08339 0.23905 0.0
H490 H 0.006 0.0898 0.31606 0.0
H491 H 0.06311 0.09717 0.35737 0.0
H492 H 0.15685 0.10189 0.26532 0.0
H493 H 0.12176 0.09508 0.18771 0.0
C494 C 0.05161 0.08807 0.1832 0.0
C495 C 0.01497 0.0849 0.18654 0.0
C496 C 0.07207 0.0919 0.22758 0.0
C497 C 0.99904 0.08576 0.23507 0.0
C498 C 0.01912 0.08936 0.27929 0.0
C499 C 0.07595 0.09633 0.32039 0.0
C500 C 0.1126 0.0999 0.31726 0.0
C501 C 0.05565 0.09245 0.27602 0.0
C502 C 0.12867 0.09948 0.26885 0.0
C503 C 0.10864 0.09542 0.22446 0.0
H504 H 0.90642 0.01574 0.2491 0.0
H505 H 0.86747 0.09249 0.14207 0.0
H506 H 0.86621 0.13667 0.20933 0.0
H507 H 0.87366 0.15244 0.2999 0.0
H508 H 0.91161 0.07484 0.40718 0.0
H509 H 0.91527 0.03185 0.33892 0.0
C510 C 0.89773 0.0422 0.24063 0.0
C511 C 0.88783 0.05126 0.19054 0.0
C512 C 0.89653 0.06711 0.27975 0.0
C513 C 0.87653 0.08547 0.17989 0.0
C514 C 0.87534 0.11051 0.21855 0.0
C515 C 0.88309 0.12624 0.30822 0.0
C516 C 0.89207 0.11683 0.35871 0.0
C517 C 0.88514 0.10157 0.26872 0.0
C518 C 0.90393 0.08262 0.36887 0.0
C519 C 0.90621 0.05805 0.32982 0.0
H520 H 0.91599 0.84686 0.15228 0.0
H521 H 0.00737 0.90411 0.19888 0.0
H522 H 0.01977 0.85994 0.26502 0.0
H523 H 0.99799 0.81026 0.31841 0.0
H524 H 0.90618 0.75358 0.26964 0.0
H525 H 0.90066 0.79187 0.19516 0.0
C526 C 0.93919 0.84909 0.17603 0.0
C527 C 0.96052 0.87893 0.17165 0.0
C528 C 0.94562 0.82388 0.21405 0.0
C529 C 0.99066 0.88144 0.20194 0.0
C530 C 0.99745 0.85632 0.24002 0.0
C531 C 0.97724 0.80599 0.29084 0.0
C532 C 0.9523 0.77941 0.29977 0.0
C533 C 0.97409 0.8283 0.24796 0.0
C534 C 0.92576 0.77376 0.26354 0.0
C535 C 0.92243 0.79579 0.22108 0.0
H536 H 0.12824 0.97018 0.12629 0.0
H537 H 0.03 0.96026 0.2057 0.0
H538 H 0.0596 0.93273 0.27886 0.0
H539 H 0.11456 0.92 0.32433 0.0
H540 H 0.21333 0.93463 0.24646 0.0
H541 H 0.1826 0.95104 0.16819 0.0
C542 C 0.11338 0.96095 0.15915 0.0
C543 C 0.07705 0.96603 0.16062 0.0
C544 C 0.13081 0.94653 0.20148 0.0
C545 C 0.05784 0.95501 0.20341 0.0
C546 C 0.07485 0.93994 0.24542 0.0
C547 C 0.12931 0.92644 0.29004 0.0
C548 C 0.16615 0.92661 0.29144 0.0
C549 C 0.11149 0.93678 0.24553 0.0
C550 C 0.18495 0.93421 0.24644 0.0
C551 C 0.16742 0.94391 0.20174 0.0
H552 H 0.15606 0.06049 0.82093 0.0
H553 H 0.05422 0.01758 0.78623 0.0
H554 H 0.07664 0.9952 0.70522 0.0
H555 H 0.12636 0.98439 0.64724 0.0
H556 H 0.22834 0.02598 0.68439 0.0
H557 H 0.20458 0.05244 0.76145 0.0
C558 C 0.13868 0.04628 0.7957 0.0
C559 C 0.10368 0.04019 0.81 0.0
C560 C 0.15183 0.0331 0.74974 0.0
C561 C 0.08143 0.02218 0.77644 0.0
C562 C 0.09421 0.00941 0.73011 0.0
C563 C 0.1433 0.99935 0.67219 0.0
C564 C 0.1791 0.003 0.66031 0.0
C565 C 0.12956 0.01414 0.71686 0.0
C566 C 0.20065 0.02295 0.69246 0.0
C567 C 0.18717 0.03783 0.73678 0.0
H568 H 0.99065 0.08878 0.80581 0.0
H569 H 0.05732 0.151 0.90265 0.0
H570 H 0.10026 0.15639 0.83396 0.0
H571 H 0.11922 0.14318 0.74626 0.0
H572 H 0.05141 0.08348 0.64812 0.0
H573 H 0.00843 0.07763 0.71717 0.0
C574 C 0.01446 0.1037 0.81181 0.0
C575 C 0.02088 0.11908 0.8596 0.0
C576 C 0.03882 0.10724 0.7718 0.0
C577 C 0.05179 0.13856 0.8665 0.0
C578 C 0.0764 0.14173 0.82717 0.0
C579 C 0.09506 0.12882 0.74017 0.0
C580 C 0.08843 0.11378 0.69231 0.0
C581 C 0.07029 0.12602 0.77976 0.0
C582 C 0.05689 0.09553 0.68459 0.0
C583 C 0.03239 0.09212 0.72404 0.0
H584 H 0.91182 0.03722 0.85202 0.0
H585 H 0.83115 0.09637 0.92805 0.0
H586 H 0.83021 0.13843 0.85725 0.0
H587 H 0.85105 0.15756 0.77251 0.0
H588 H 0.93122 0.09791 0.69617 0.0
H589 H 0.93388 0.0573 0.76854 0.0
C590 C 0.89402 0.0593 0.85314 0.0
C591 C 0.87138 0.06341 0.89516 0.0
C592 C 0.89358 0.08342 0.81225 0.0
C593 C 0.84876 0.09242 0.89614 0.0
C594 C 0.84818 0.11652 0.85562 0.0
C595 C 0.86899 0.13559 0.77159 0.0
C596 C 0.89075 0.13078 0.72874 0.0
C597 C 0.87023 0.1121 0.81325 0.0
C598 C 0.91436 0.10251 0.72874 0.0
C599 C 0.91575 0.07909 0.77002 0.0
H600 H 0.99708 0.83496 0.84949 0.0
H601 H 0.88766 0.82594 0.88966 0.0
H602 H 0.87515 0.80006 0.80658 0.0
H603 H 0.89548 0.77873 0.72329 0.0
H604 H 0.00473 0.78871 0.68282 0.0
H605 H 0.01708 0.81519 0.76548 0.0
C606 C 0.97046 0.82737 0.84013 0.0
C607 C 0.94339 0.83231 0.87592 0.0
C608 C 0.96342 0.81255 0.79228 0.0
C609 C 0.90904 0.82243 0.86295 0.0
C610 C 0.90184 0.8076 0.81541 0.0
C611 C 0.92192 0.78711 0.73226 0.0
C612 C 0.94914 0.78162 0.69687 0.0
C613 C 0.92884 0.80246 0.77984 0.0
C614 C 0.98335 0.79215 0.70956 0.0
C615 C 0.99042 0.80746 0.75674 0.0
H616 H 0.4762 0.58824 0.70619 0.0
H617 H 0.55024 0.63722 0.60373 0.0
H618 H 0.59165 0.64494 0.67429 0.0
H619 H 0.60572 0.63918 0.76589 0.0
H620 H 0.53057 0.5916 0.86838 0.0
H621 H 0.49043 0.58189 0.79711 0.0
C622 C 0.50134 0.60079 0.69951 0.0
C623 C 0.51057 0.61183 0.65001 0.0
C624 C 0.52467 0.60532 0.74022 0.0
C625 C 0.54316 0.62786 0.64148 0.0
C626 C 0.56663 0.63244 0.68181 0.0
C627 C 0.58071 0.62635 0.77236 0.0
C628 C 0.57095 0.61622 0.82211 0.0
C629 C 0.55764 0.62126 0.73135 0.0
C630 C 0.53838 0.59992 0.83033 0.0
C631 C 0.51549 0.59436 0.7897 0.0
H632 H 0.37412 0.50176 0.73469 0.0
H633 H 0.39144 0.59333 0.64056 0.0
H634 H 0.37609 0.63099 0.71127 0.0
H635 H 0.3599 0.6381 0.8012 0.0
H636 H 0.33609 0.54649 0.89305 0.0
H637 H 0.35197 0.50888 0.82209 0.0
C638 C 0.37444 0.52996 0.72943 0.0
C639 C 0.38518 0.5446 0.68232 0.0
C640 C 0.36447 0.55156 0.77017 0.0
C641 C 0.38467 0.58118 0.6764 0.0
C642 C 0.3755 0.60285 0.71696 0.0
C643 C 0.35742 0.60997 0.80567 0.0
C644 C 0.34723 0.5954 0.85309 0.0
C645 C 0.3657 0.58833 0.76422 0.0
C646 C 0.34476 0.55869 0.85772 0.0
C647 C 0.35358 0.53703 0.81693 0.0
H648 H 0.49843 0.36257 0.66665 0.0
H649 H 0.4412 0.45521 0.70763 0.0
H650 H 0.41712 0.42493 0.78299 0.0
H651 H 0.41621 0.3733 0.8399 0.0
H652 H 0.47102 0.2795 0.79478 0.0
H653 H 0.49302 0.30941 0.71891 0.0
C654 C 0.48035 0.37589 0.69191 0.0
C655 C 0.47124 0.41079 0.68189 0.0
C656 C 0.46682 0.35835 0.73476 0.0
C657 C 0.44783 0.42804 0.71435 0.0
C658 C 0.43447 0.41085 0.75762 0.0
C659 C 0.43242 0.35909 0.81314 0.0
C660 C 0.44237 0.32426 0.82387 0.0
C661 C 0.44423 0.37613 0.76857 0.0
C662 C 0.46377 0.3066 0.78866 0.0
C663 C 0.47609 0.32355 0.74483 0.0
H664 H 0.61814 0.47606 0.62593 0.0
H665 H 0.5365 0.52217 0.71674 0.0
H666 H 0.56492 0.50112 0.79527 0.0
H667 H 0.61484 0.47282 0.8374 0.0
H668 H 0.70089 0.43487 0.7457 0.0
H669 H 0.66857 0.44867 0.66822 0.0
C670 C 0.60627 0.48059 0.66299 0.0
C671 C 0.57512 0.49974 0.66615 0.0
C672 C 0.62365 0.47001 0.70765 0.0
C673 C 0.56031 0.50688 0.71398 0.0
C674 C 0.57663 0.49506 0.75864 0.0
C675 C 0.6268 0.46783 0.80059 0.0
C676 C 0.66038 0.4527 0.79787 0.0
C677 C 0.60872 0.47725 0.75591 0.0
C678 C 0.67487 0.44577 0.74946 0.0
C679 C 0.6565 0.45391 0.70488 0.0
H680 H 0.5701 0.47874 0.30638 0.0
H681 H 0.6596 0.45619 0.40146 0.0
H682 H 0.68952 0.42955 0.3289 0.0
H683 H 0.69373 0.42148 0.23594 0.0
H684 H 0.60604 0.44947 0.13981 0.0
H685 H 0.57192 0.46522 0.21504 0.0
C686 C 0.59619 0.46809 0.31104 0.0
C687 C 0.61323 0.47074 0.3584 0.0
C688 C 0.61367 0.45413 0.26883 0.0
C689 C 0.64619 0.45505 0.36501 0.0
C690 C 0.66341 0.44004 0.32347 0.0
C691 C 0.6671 0.43088 0.2315 0.0
C692 C 0.6527 0.43489 0.18228 0.0
C693 C 0.64802 0.44094 0.27475 0.0
C694 C 0.61778 0.44609 0.17721 0.0
C695 C 0.59832 0.45535 0.22018 0.0
H696 H 0.45953 0.61607 0.29437 0.0
H697 H 0.51258 0.51978 0.33392 0.0
H698 H 0.55532 0.53046 0.26601 0.0
H699 H 0.58 0.56837 0.20029 0.0
H700 H 0.52642 0.66374 0.15778 0.0
H701 H 0.48196 0.6523 0.22307 0.0
C702 C 0.4803 0.59726 0.28796 0.0
C703 C 0.48322 0.56752 0.31982 0.0
C704 C 0.505 0.60351 0.24907 0.0
C705 C 0.51001 0.54318 0.31053 0.0
C706 C 0.5345 0.54918 0.27183 0.0
C707 C 0.55835 0.58646 0.2046 0.0
C708 C 0.55684 0.61702 0.17431 0.0
C709 C 0.53264 0.57953 0.2416 0.0
C710 C 0.52876 0.64037 0.18125 0.0
C711 C 0.50311 0.63371 0.2183 0.0
H712 H 0.34934 0.53996 0.38971 0.0
H713 H 0.42714 0.47998 0.30879 0.0
H714 H 0.42191 0.51949 0.23501 0.0
H715 H 0.39446 0.57085 0.19328 0.0
H716 H 0.3161 0.62951 0.27475 0.0
H717 H 0.32265 0.59088 0.34905 0.0
C718 C 0.36498 0.53526 0.35583 0.0
C719 C 0.3884 0.50694 0.35462 0.0
C720 C 0.36192 0.558 0.31387 0.0
C721 C 0.40867 0.50145 0.31051 0.0
C722 C 0.40582 0.52411 0.26843 0.0
C723 C 0.37912 0.57524 0.22756 0.0
C724 C 0.35479 0.6028 0.22876 0.0
C725 C 0.38255 0.55251 0.26973 0.0
C726 C 0.33478 0.60821 0.27304 0.0
C727 C 0.33847 0.58616 0.31538 0.0
H728 H 0.45054 0.3628 0.37737 0.0
H729 H 0.52446 0.42347 0.28816 0.0
H730 H 0.50116 0.39831 0.20956 0.0
H731 H 0.46227 0.35623 0.16683 0.0
H732 H 0.39029 0.29399 0.25676 0.0
H733 H 0.41041 0.32262 0.33469 0.0
C734 C 0.46144 0.37074 0.34074 0.0
C735 C 0.48935 0.39476 0.33863 0.0
C736 C 0.44838 0.35574 0.29593 0.0
C737 C 0.50311 0.40482 0.29084 0.0
C738 C 0.48981 0.39045 0.24589 0.0
C739 C 0.45069 0.34935 0.20346 0.0
C740 C 0.42492 0.32306 0.20625 0.0
C741 C 0.46281 0.36549 0.24808 0.0
C742 C 0.41039 0.31397 0.2539 0.0
C743 C 0.42183 0.33035 0.29834 0.0
loop_
_geom_bond_atom_site_label_1
_geom_bond_atom_site_label_2
_geom_bond_distance
_geom_bond_site_symmetry_2
_ccdc_geom_bond_type
Zn0 O2 1.933 1_556 S
Zn0 O20 1.985 . S
Zn0 O31 1.955 . S
Zn1 O2 1.911 . S
Zn1 O21 1.970 . S
Zn1 O37 1.945 . S
Zn1 O44 1.981 . S
O2 Zn0 1.933 1_554 S
O2 Zn1 1.911 . S
O2 H3 0.841 1_655 S
H3 O2 0.841 1_455 S
C4 O5 1.246 . S
C4 O33 1.276 1_545 S
O5 C4 1.246 . S
Zn6 O8 1.911 . S
Zn6 O23 1.970 . S
Zn6 O40 1.945 . S
Zn6 O47 1.981 . S
Zn7 O8 1.933 1_556 S
Zn7 O22 1.985 . S
Zn7 O29 1.955 . S
O8 Zn6 1.911 . S
O8 Zn7 1.933 1_554 S
O8 H9 0.841 1_455 S
H9 O8 0.841 1_655 S
Zn10 O11 1.933 1_556 S
Zn10 O24 1.985 . S
Zn10 O33 1.955 . S
O11 Zn10 1.933 1_554 S
O11 Zn12 1.911 . S
O11 H13 0.841 1_565 S
Zn12 O11 1.911 . S
Zn12 O25 1.970 . S
Zn12 O41 1.981 . S
Zn12 O43 1.945 . S
H13 O11 0.841 1_545 S
Zn14 O15 1.933 1_556 S
Zn14 O27 1.985 . S
Zn14 O35 1.955 . S
O15 Zn14 1.933 1_554 S
O15 H16 0.841 1_545 S
O15 Zn17 1.911 . S
H16 O15 0.841 1_565 S
Zn17 O15 1.911 . S
Zn17 O28 1.970 . S
Zn17 O38 1.981 . S
Zn17 O46 1.945 . S
C18 O19 1.246 . S
C18 O35 1.276 1_565 S
O19 C18 1.246 . S
O20 Zn0 1.985 . S
O20 C30 1.245 1_556 S
O21 Zn1 1.970 . S
O21 C30 1.263 . S
O22 Zn7 1.985 . S
O22 C34 1.245 1_556 S
O23 Zn6 1.970 . S
O23 C34 1.263 . S
O24 Zn10 1.985 . S
O24 C39 1.245 1_556 S
O25 Zn12 1.970 . S
O25 C39 1.263 . S
C26 O37 1.262 1_455 S
C26 O38 1.245 . S
O27 Zn14 1.985 . S
O27 C45 1.245 1_556 S
O28 Zn17 1.970 . S
O28 C45 1.263 . S
O29 Zn7 1.955 . S
O29 C48 1.276 1_455 S
C30 O20 1.245 1_554 S
C30 O21 1.263 . S
O31 Zn0 1.955 . S
O31 C50 1.276 1_655 S
C32 O40 1.262 1_655 S
C32 O41 1.245 . S
O33 C4 1.276 1_565 S
O33 Zn10 1.955 . S
C34 O22 1.245 1_554 S
C34 O23 1.263 . S
O35 Zn14 1.955 . S
O35 C18 1.276 1_545 S
C36 O43 1.262 1_545 S
C36 O44 1.245 . S
O37 Zn1 1.945 . S
O37 C26 1.262 1_655 S
O38 Zn17 1.981 . S
O38 C26 1.245 . S
C39 O24 1.245 1_554 S
C39 O25 1.263 . S
O40 Zn6 1.945 . S
O40 C32 1.262 1_455 S
O41 Zn12 1.981 . S
O41 C32 1.245 . S
C42 O46 1.262 1_565 S
C42 O47 1.245 . S
O43 Zn12 1.945 . S
O43 C36 1.262 1_565 S
O44 Zn1 1.981 . S
O44 C36 1.245 . S
C45 O27 1.245 1_554 S
C45 O28 1.263 . S
O46 Zn17 1.945 . S
O46 C42 1.262 1_545 S
O47 Zn6 1.981 . S
O47 C42 1.245 . S
C48 O29 1.276 1_655 S
C48 O49 1.246 . S
O49 C48 1.246 . S
C50 O31 1.276 1_455 S
C50 O51 1.246 . S
O51 C50 1.246 . S
Zn52 O54 1.933 . S
Zn52 O72 1.985 . S
Zn52 O83 1.955 . S
Zn53 O54 1.911 . S
Zn53 O73 1.970 . S
Zn53 O89 1.945 . S
Zn53 O96 1.981 . S
O54 Zn52 1.933 . S
O54 Zn53 1.911 . S
O54 H55 0.841 . S
H55 O54 0.841 . S
C56 O57 1.246 . S
C56 O85 1.276 . S
O57 C56 1.246 . S
Zn58 O60 1.911 . S
Zn58 O75 1.970 . S
Zn58 O92 1.945 . S
Zn58 O99 1.981 . S
Zn59 O60 1.933 . S
Zn59 O74 1.985 . S
Zn59 O81 1.955 . S
O60 Zn58 1.911 . S
O60 Zn59 1.933 . S
O60 H61 0.841 . S
H61 O60 0.841 . S
Zn62 O63 1.933 . S
Zn62 O76 1.985 . S
Zn62 O85 1.955 . S
O63 Zn62 1.933 . S
O63 Zn64 1.911 . S
O63 H65 0.841 . S
Zn64 O63 1.911 . S
Zn64 O77 1.970 . S
Zn64 O93 1.981 . S
Zn64 O95 1.945 . S
H65 O63 0.841 . S
Zn66 O67 1.933 . S
Zn66 O79 1.985 . S
Zn66 O87 1.955 . S
O67 Zn66 1.933 . S
O67 H68 0.841 . S
O67 Zn69 1.911 . S
H68 O67 0.841 . S
Zn69 O67 1.911 . S
Zn69 O80 1.970 . S
Zn69 O90 1.981 . S
Zn69 O98 1.945 . S
C70 O71 1.246 . S
C70 O87 1.276 . S
O71 C70 1.246 . S
O72 Zn52 1.985 . S
O72 C82 1.245 . S
O73 Zn53 1.970 . S
O73 C82 1.263 . S
O74 Zn59 1.985 . S
O74 C86 1.245 . S
O75 Zn58 1.970 . S
O75 C86 1.263 . S
O76 Zn62 1.985 . S
O76 C91 1.245 . S
O77 Zn64 1.970 . S
O77 C91 1.263 . S
C78 O89 1.262 . S
C78 O90 1.245 . S
O79 Zn66 1.985 . S
O79 C97 1.245 . S
O80 Zn69 1.970 . S
O80 C97 1.263 . S
O81 Zn59 1.955 . S
O81 C100 1.276 . S
C82 O72 1.245 . S
C82 O73 1.263 . S
O83 Zn52 1.955 . S
O83 C102 1.276 . S
C84 O92 1.262 . S
C84 O93 1.245 . S
O85 C56 1.276 . S
O85 Zn62 1.955 . S
C86 O74 1.245 . S
C86 O75 1.263 . S
O87 Zn66 1.955 . S
O87 C70 1.276 . S
C88 O95 1.262 . S
C88 O96 1.245 . S
O89 Zn53 1.945 . S
O89 C78 1.262 . S
O90 Zn69 1.981 . S
O90 C78 1.245 . S
C91 O76 1.245 . S
C91 O77 1.263 . S
O92 Zn58 1.945 . S
O92 C84 1.262 . S
O93 Zn64 1.981 . S
O93 C84 1.245 . S
C94 O98 1.262 . S
C94 O99 1.245 . S
O95 Zn64 1.945 . S
O95 C88 1.262 . S
O96 Zn53 1.981 . S
O96 C88 1.245 . S
C97 O79 1.245 . S
C97 O80 1.263 . S
O98 Zn69 1.945 . S
O98 C94 1.262 . S
O99 Zn58 1.981 . S
O99 C94 1.245 . S
C100 O81 1.276 . S
C100 O101 1.246 . S
O101 C100 1.246 . S
C102 O83 1.276 . S
C102 O103 1.246 . S
O103 C102 1.246 . S
P104 O115 1.490 . S
P104 C118 1.812 . S
P104 C124 1.803 . S
P104 C130 1.819 1_554 S
H105 C119 0.941 . S
H106 C120 0.939 . S
H107 C122 0.940 . S
H108 C123 0.940 . S
H109 C125 0.939 1_556 S
H110 C126 0.942 . S
H111 C128 0.940 . S
H112 C129 0.939 . S
H113 C131 0.941 . S
H114 C135 0.939 . S
O115 P104 1.490 . S
H116 C132 0.939 . S
H117 C134 0.940 . S
C118 P104 1.812 . S
C118 C119 1.389 . S
C118 C123 1.391 . S
C119 H105 0.941 . S
C119 C118 1.389 . S
C119 C120 1.397 . S
C120 H106 0.939 . S
C120 C119 1.397 . S
C120 C121 1.378 . S
C121 C120 1.378 . S
C121 C122 1.378 . S
C122 H107 0.940 . S
C122 C121 1.378 . S
C122 C123 1.396 . S
C123 H108 0.940 . S
C123 C118 1.391 . S
C123 C122 1.396 . S
C124 P104 1.803 . S
C124 C125 1.379 . S
C124 C129 1.400 . S
C125 H109 0.939 1_554 S
C125 C124 1.379 . S
C125 C126 1.361 1_554 S
C126 H110 0.942 . S
C126 C125 1.361 1_556 S
C126 C127 1.369 1_556 S
C127 C126 1.369 1_554 S
C127 C128 1.404 . S
C128 H111 0.940 . S
C128 C127 1.404 . S
C128 C129 1.389 . S
C129 H112 0.939 . S
C129 C124 1.400 . S
C129 C128 1.389 . S
C130 P104 1.819 1_556 S
C130 C131 1.391 . S
C130 C135 1.391 . S
C131 H113 0.941 . S
C131 C130 1.391 . S
C131 C132 1.396 . S
C132 H116 0.939 . S
C132 C131 1.396 . S
C132 C133 1.397 . S
C133 C132 1.397 . S
C133 C134 1.385 . S
C134 H117 0.940 . S
C134 C133 1.385 . S
C134 C135 1.388 . S
C135 H114 0.939 . S
C135 C130 1.391 . S
C135 C134 1.388 . S
P136 O147 1.490 . S
P136 C150 1.812 . S
P136 C156 1.803 . S
P136 C162 1.819 1_554 S
H137 C151 0.941 . S
H138 C152 0.939 . S
H139 C154 0.940 . S
H140 C155 0.940 . S
H141 C157 0.939 . S
H142 C158 0.942 . S
H143 C160 0.940 . S
H144 C161 0.939 . S
H145 C163 0.941 . S
H146 C167 0.939 . S
O147 P136 1.490 . S
H148 C164 0.939 . S
H149 C166 0.940 . S
C150 P136 1.812 . S
C150 C151 1.389 . S
C150 C155 1.391 . S
C151 H137 0.941 . S
C151 C150 1.389 . S
C151 C152 1.397 . S
C152 H138 0.939 . S
C152 C151 1.397 . S
C152 C153 1.378 . S
C153 C152 1.378 . S
C153 C154 1.378 . S
C154 H139 0.940 . S
C154 C153 1.378 . S
C154 C155 1.396 . S
C155 H140 0.940 . S
C155 C150 1.391 . S
C155 C154 1.396 . S
C156 P136 1.803 . S
C156 C157 1.378 1_554 S
C156 C161 1.400 . S
C157 H141 0.939 . S
C157 C156 1.378 1_556 S
C157 C158 1.361 . S
C158 H142 0.942 . S
C158 C157 1.361 . S
C158 C159 1.369 1_556 S
C159 C158 1.369 1_554 S
C159 C160 1.404 . S
C160 H143 0.940 . S
C160 C159 1.404 . S
C160 C161 1.389 . S
C161 H144 0.939 . S
C161 C156 1.400 . S
C161 C160 1.389 . S
C162 P136 1.819 1_556 S
C162 C163 1.391 . S
C162 C167 1.391 . S
C163 H145 0.941 . S
C163 C162 1.391 . S
C163 C164 1.396 . S
C164 H148 0.939 . S
C164 C163 1.396 . S
C164 C165 1.397 . S
C165 C164 1.397 . S
C165 C166 1.385 . S
C166 H149 0.940 . S
C166 C165 1.385 . S
C166 C167 1.388 . S
C167 H146 0.939 . S
C167 C162 1.391 . S
C167 C166 1.388 . S
P168 O179 1.490 . S
P168 C182 1.812 1_554 S
P168 C188 1.803 . S
P168 C194 1.819 . S
H169 C183 0.941 . S
H170 C184 0.939 . S
H171 C186 0.940 . S
H172 C187 0.940 . S
H173 C189 0.939 . S
H174 C190 0.942 . S
H175 C192 0.940 . S
H176 C193 0.939 . S
H177 C195 0.941 . S
H178 C199 0.939 . S
O179 P168 1.490 . S
H180 C196 0.939 . S
H181 C198 0.940 . S
C182 P168 1.812 1_556 S
C182 C183 1.389 . S
C182 C187 1.391 . S
C183 H169 0.941 . S
C183 C182 1.389 . S
C183 C184 1.397 . S
C184 H170 0.939 . S
C184 C183 1.397 . S
C184 C185 1.378 . S
C185 C184 1.378 . S
C185 C186 1.378 . S
C186 H171 0.940 . S
C186 C185 1.378 . S
C186 C187 1.396 . S
C187 H172 0.940 . S
C187 C182 1.391 . S
C187 C186 1.396 . S
C188 P168 1.803 . S
C188 C189 1.378 . S
C188 C193 1.400 1_554 S
C189 H173 0.939 . S
C189 C188 1.378 . S
C189 C190 1.361 . S
C190 H174 0.942 . S
C190 C189 1.361 . S
C190 C191 1.369 . S
C191 C190 1.369 . S
C191 C192 1.404 1_554 S
C192 H175 0.940 . S
C192 C191 1.404 1_556 S
C192 C193 1.389 . S
C193 H176 0.939 . S
C193 C188 1.400 1_556 S
C193 C192 1.389 . S
C194 P168 1.819 . S
C194 C195 1.391 . S
C194 C199 1.391 . S
C195 H177 0.941 . S
C195 C194 1.391 . S
C195 C196 1.396 . S
C196 H180 0.939 . S
C196 C195 1.396 . S
C196 C197 1.397 . S
C197 C196 1.397 . S
C197 C198 1.385 . S
C198 H181 0.940 . S
C198 C197 1.385 . S
C198 C199 1.388 . S
C199 H178 0.939 . S
C199 C194 1.391 . S
C199 C198 1.388 . S
P200 O211 1.490 . S
P200 C214 1.812 1_554 S
P200 C220 1.803 . S
P200 C226 1.819 . S
H201 C215 0.941 . S
H202 C216 0.939 . S
H203 C218 0.940 . S
H204 C219 0.940 . S
H205 C221 0.939 . S
H206 C222 0.942 . S
H207 C224 0.940 . S
H208 C225 0.939 . S
H209 C227 0.941 . S
H210 C231 0.939 . S
O211 P200 1.490 . S
H212 C228 0.939 . S
H213 C230 0.940 . S
C214 P200 1.812 1_556 S
C214 C215 1.389 . S
C214 C219 1.391 . S
C215 H201 0.941 . S
C215 C214 1.389 . S
C215 C216 1.397 . S
C216 H202 0.939 . S
C216 C215 1.397 . S
C216 C217 1.378 . S
C217 C216 1.378 . S
C217 C218 1.378 . S
C218 H203 0.940 . S
C218 C217 1.378 . S
C218 C219 1.396 . S
C219 H204 0.940 . S
C219 C214 1.391 . S
C219 C218 1.396 . S
C220 P200 1.803 . S
C220 C221 1.378 . S
C220 C225 1.400 1_554 S
C221 H205 0.939 . S
C221 C220 1.378 . S
C221 C222 1.361 . S
C222 H206 0.942 . S
C222 C221 1.361 . S
C222 C223 1.369 . S
C223 C222 1.369 . S
C223 C224 1.404 1_554 S
C224 H207 0.940 . S
C224 C223 1.404 1_556 S
C224 C225 1.389 . S
C225 H208 0.939 . S
C225 C220 1.400 1_556 S
C225 C224 1.389 . S
C226 P200 1.819 . S
C226 C227 1.391 . S
C226 C231 1.391 . S
C227 H209 0.941 . S
C227 C226 1.391 . S
C227 C228 1.396 . S
C228 H212 0.939 . S
C228 C227 1.396 . S
C228 C229 1.397 . S
C229 C228 1.397 . S
C229 C230 1.385 . S
C230 H213 0.940 . S
C230 C229 1.385 . S
C230 C231 1.388 . S
C231 H210 0.939 . S
C231 C226 1.391 . S
C231 C230 1.388 . S
P232 O243 1.490 . S
P232 C246 1.812 . S
P232 C252 1.803 . S
P232 C258 1.819 . S
H233 C247 0.941 . S
H234 C248 0.939 . S
H235 C250 0.940 . S
H236 C251 0.940 . S
H237 C253 0.939 . S
H238 C254 0.942 . S
H239 C256 0.940 . S
H240 C257 0.939 . S
H241 C259 0.941 . S
H242 C263 0.939 . S
O243 P232 1.490 . S
H244 C260 0.939 . S
H245 C262 0.940 . S
C246 P232 1.812 . S
C246 C247 1.389 . S
C246 C251 1.391 . S
C247 H233 0.941 . S
C247 C246 1.389 . S
C247 C248 1.397 . S
C248 H234 0.939 . S
C248 C247 1.397 . S
C248 C249 1.378 . S
C249 C248 1.378 . S
C249 C250 1.378 . S
C250 H235 0.940 . S
C250 C249 1.378 . S
C250 C251 1.396 . S
C251 H236 0.940 . S
C251 C246 1.391 . S
C251 C250 1.396 . S
C252 P232 1.803 . S
C252 C253 1.378 . S
C252 C257 1.400 . S
C253 H237 0.939 . S
C253 C252 1.378 . S
C253 C254 1.361 . S
C254 H238 0.942 . S
C254 C253 1.361 . S
C254 C255 1.369 . S
C255 C254 1.369 . S
C255 C256 1.404 . S
C256 H239 0.940 . S
C256 C255 1.404 . S
C256 C257 1.389 . S
C257 H240 0.939 . S
C257 C252 1.400 . S
C257 C256 1.389 . S
C258 P232 1.819 . S
C258 C259 1.391 . S
C258 C263 1.391 . S
C259 H241 0.941 . S
C259 C258 1.391 . S
C259 C260 1.396 . S
C260 H244 0.939 . S
C260 C259 1.396 . S
C260 C261 1.397 . S
C261 C260 1.397 . S
C261 C262 1.385 . S
C262 H245 0.940 . S
C262 C261 1.385 . S
C262 C263 1.388 . S
C263 H242 0.939 . S
C263 C258 1.391 . S
C263 C262 1.388 . S
P264 O275 1.490 . S
P264 C278 1.812 . S
P264 C284 1.803 . S
P264 C290 1.819 . S
H265 C279 0.941 . S
H266 C280 0.939 . S
H267 C282 0.940 . S
H268 C283 0.940 . S
H269 C285 0.939 . S
H270 C286 0.942 . S
H271 C288 0.940 . S
H272 C289 0.939 . S
H273 C291 0.941 . S
H274 C295 0.939 . S
O275 P264 1.490 . S
H276 C292 0.939 . S
H277 C294 0.940 . S
C278 P264 1.812 . S
C278 C279 1.389 . S
C278 C283 1.391 . S
C279 H265 0.941 . S
C279 C278 1.389 . S
C279 C280 1.397 . S
C280 H266 0.939 . S
C280 C279 1.397 . S
C280 C281 1.378 . S
C281 C280 1.378 . S
C281 C282 1.378 . S
C282 H267 0.940 . S
C282 C281 1.378 . S
C282 C283 1.396 . S
C283 H268 0.940 . S
C283 C278 1.391 . S
C283 C282 1.396 . S
C284 P264 1.803 . S
C284 C285 1.378 . S
C284 C289 1.400 . S
C285 H269 0.939 . S
C285 C284 1.378 . S
C285 C286 1.361 . S
C286 H270 0.942 . S
C286 C285 1.361 . S
C286 C287 1.369 . S
C287 C286 1.369 . S
C287 C288 1.404 . S
C288 H271 0.940 . S
C288 C287 1.404 . S
C288 C289 1.389 . S
C289 H272 0.939 . S
C289 C284 1.400 . S
C289 C288 1.389 . S
C290 P264 1.819 . S
C290 C291 1.391 . S
C290 C295 1.391 . S
C291 H273 0.941 . S
C291 C290 1.391 . S
C291 C292 1.396 . S
C292 H276 0.939 . S
C292 C291 1.396 . S
C292 C293 1.397 . S
C293 C292 1.397 . S
C293 C294 1.385 . S
C294 H277 0.940 . S
C294 C293 1.385 . S
C294 C295 1.388 . S
C295 H274 0.939 . S
C295 C290 1.391 . S
C295 C294 1.388 . S
P296 O307 1.490 . S
P296 C310 1.812 . S
P296 C316 1.803 . S
P296 C322 1.819 . S
H297 C311 0.941 . S
H298 C312 0.939 . S
H299 C314 0.940 . S
H300 C315 0.940 . S
H301 C317 0.939 . S
H302 C318 0.942 . S
H303 C320 0.940 . S
H304 C321 0.939 . S
H305 C323 0.941 . S
H306 C327 0.939 . S
O307 P296 1.490 . S
H308 C324 0.939 . S
H309 C326 0.940 . S
C310 P296 1.812 . S
C310 C311 1.389 . S
C310 C315 1.391 . S
C311 H297 0.941 . S
C311 C310 1.389 . S
C311 C312 1.397 . S
C312 H298 0.939 . S
C312 C311 1.397 . S
C312 C313 1.378 . S
C313 C312 1.378 . S
C313 C314 1.378 . S
C314 H299 0.940 . S
C314 C313 1.378 . S
C314 C315 1.396 . S
C315 H300 0.940 . S
C315 C310 1.391 . S
C315 C314 1.396 . S
C316 P296 1.803 . S
C316 C317 1.378 . S
C316 C321 1.400 . S
C317 H301 0.939 . S
C317 C316 1.378 . S
C317 C318 1.361 . S
C318 H302 0.942 . S
C318 C317 1.361 . S
C318 C319 1.369 . S
C319 C318 1.369 . S
C319 C320 1.404 . S
C320 H303 0.940 . S
C320 C319 1.404 . S
C320 C321 1.389 . S
C321 H304 0.939 . S
C321 C316 1.400 . S
C321 C320 1.389 . S
C322 P296 1.819 . S
C322 C323 1.391 . S
C322 C327 1.391 . S
C323 H305 0.941 . S
C323 C322 1.391 . S
C323 C324 1.396 . S
C324 H308 0.939 . S
C324 C323 1.396 . S
C324 C325 1.397 . S
C325 C324 1.397 . S
C325 C326 1.385 . S
C326 H309 0.940 . S
C326 C325 1.385 . S
C326 C327 1.388 . S
C327 H306 0.939 . S
C327 C322 1.391 . S
C327 C326 1.388 . S
P328 O339 1.490 . S
P328 C342 1.812 . S
P328 C348 1.803 . S
P328 C354 1.819 . S
H329 C343 0.941 . S
H330 C344 0.939 . S
H331 C346 0.940 . S
H332 C347 0.940 . S
H333 C349 0.939 . S
H334 C350 0.942 . S
H335 C352 0.940 . S
H336 C353 0.939 . S
H337 C355 0.941 . S
H338 C359 0.939 . S
O339 P328 1.490 . S
H340 C356 0.939 . S
H341 C358 0.940 . S
C342 P328 1.812 . S
C342 C343 1.389 . S
C342 C347 1.391 . S
C343 H329 0.941 . S
C343 C342 1.389 . S
C343 C344 1.397 . S
C344 H330 0.939 . S
C344 C343 1.397 . S
C344 C345 1.378 . S
C345 C344 1.378 . S
C345 C346 1.378 . S
C346 H331 0.940 . S
C346 C345 1.378 . S
C346 C347 1.396 . S
C347 H332 0.940 . S
C347 C342 1.391 . S
C347 C346 1.396 . S
C348 P328 1.803 . S
C348 C349 1.378 . S
C348 C353 1.400 . S
C349 H333 0.939 . S
C349 C348 1.378 . S
C349 C350 1.361 . S
C350 H334 0.942 . S
C350 C349 1.361 . S
C350 C351 1.369 . S
C351 C350 1.369 . S
C351 C352 1.404 . S
C352 H335 0.940 . S
C352 C351 1.404 . S
C352 C353 1.389 . S
C353 H336 0.939 . S
C353 C348 1.400 . S
C353 C352 1.389 . S
C354 P328 1.819 . S
C354 C355 1.391 . S
C354 C359 1.391 . S
C355 H337 0.941 . S
C355 C354 1.391 . S
C355 C356 1.396 . S
C356 H340 0.939 . S
C356 C355 1.396 . S
C356 C357 1.397 . S
C357 C356 1.397 . S
C357 C358 1.385 . S
C358 H341 0.940 . S
C358 C357 1.385 . S
C358 C359 1.388 . S
C359 H338 0.939 . S
C359 C354 1.391 . S
C359 C358 1.388 . S
H360 C366 0.930 1_556 S
H361 C369 0.930 . S
H362 C370 0.930 . S
H363 C371 0.930 . S
H364 C374 0.930 . S
H365 C375 0.930 . S
C366 H360 0.930 1_554 S
C366 C367 1.355 . S
C366 C368 1.415 . S
C367 C366 1.355 . S
C367 C369 1.419 . S
C368 C366 1.415 . S
C368 C373 1.425 . S
C368 C375 1.409 1_554 S
C369 H361 0.930 . S
C369 C367 1.419 . S
C369 C370 1.362 . S
C370 H362 0.930 . S
C370 C369 1.362 . S
C370 C373 1.409 . S
C371 H363 0.930 . S
C371 C372 1.355 . S
C371 C373 1.415 . S
C372 C371 1.355 . S
C372 C374 1.419 1_554 S
C373 C368 1.425 . S
C373 C370 1.409 . S
C373 C371 1.415 . S
C374 H364 0.930 . S
C374 C372 1.419 1_556 S
C374 C375 1.362 . S
C375 H365 0.930 . S
C375 C368 1.409 1_556 S
C375 C374 1.362 . S
H376 C382 0.930 . S
H377 C385 0.930 . S
H378 C386 0.930 . S
H379 C387 0.930 . S
H380 C390 0.930 . S
H381 C391 0.930 . S
C382 H376 0.930 . S
C382 C383 1.355 1_556 S
C382 C384 1.415 1_556 S
C383 C382 1.355 1_554 S
C383 C385 1.419 . S
C384 C382 1.415 1_554 S
C384 C389 1.425 . S
C384 C391 1.409 1_554 S
C385 H377 0.930 . S
C385 C383 1.419 . S
C385 C386 1.362 . S
C386 H378 0.930 . S
C386 C385 1.362 . S
C386 C389 1.409 . S
C387 H379 0.930 . S
C387 C388 1.355 . S
C387 C389 1.415 . S
C388 C387 1.355 . S
C388 C390 1.419 1_554 S
C389 C384 1.425 . S
C389 C386 1.409 . S
C389 C387 1.415 . S
C390 H380 0.930 . S
C390 C388 1.419 1_556 S
C390 C391 1.362 . S
C391 H381 0.930 . S
C391 C384 1.409 1_556 S
C391 C390 1.362 . S
H392 C398 0.930 . S
H393 C401 0.930 . S
H394 C402 0.930 . S
H395 C403 0.930 . S
H396 C406 0.930 . S
H397 C407 0.930 . S
C398 H392 0.930 . S
C398 C399 1.355 . S
C398 C400 1.415 . S
C399 C398 1.355 . S
C399 C401 1.419 . S
C400 C398 1.415 . S
C400 C405 1.425 . S
C400 C407 1.409 . S
C401 H393 0.930 . S
C401 C399 1.419 . S
C401 C402 1.362 . S
C402 H394 0.930 . S
C402 C401 1.362 . S
C402 C405 1.409 . S
C403 H395 0.930 . S
C403 C404 1.355 . S
C403 C405 1.415 . S
C404 C403 1.355 . S
C404 C406 1.419 . S
C405 C400 1.425 . S
C405 C402 1.409 . S
C405 C403 1.415 . S
C406 H396 0.930 . S
C406 C404 1.419 . S
C406 C407 1.362 . S
C407 H397 0.930 . S
C407 C400 1.409 . S
C407 C406 1.362 . S
H408 C414 0.930 1_556 S
H409 C417 0.930 . S
H410 C418 0.930 . S
H411 C419 0.930 . S
H412 C422 0.930 . S
H413 C423 0.930 . S
C414 H408 0.930 1_554 S
C414 C415 1.355 . S
C414 C416 1.415 . S
C415 C414 1.355 . S
C415 C417 1.419 . S
C416 C414 1.415 . S
C416 C421 1.425 . S
C416 C423 1.409 1_554 S
C417 H409 0.930 . S
C417 C415 1.419 . S
C417 C418 1.362 . S
C418 H410 0.930 . S
C418 C417 1.362 . S
C418 C421 1.409 . S
C419 H411 0.930 . S
C419 C420 1.355 . S
C419 C421 1.415 . S
C420 C419 1.355 . S
C420 C422 1.419 1_554 S
C421 C416 1.425 . S
C421 C418 1.409 . S
C421 C419 1.415 . S
C422 H412 0.930 . S
C422 C420 1.419 1_556 S
C422 C423 1.362 . S
C423 H413 0.930 . S
C423 C416 1.409 1_556 S
C423 C422 1.362 . S
H424 C430 0.930 . S
H425 C433 0.930 . S
H426 C434 0.930 . S
H427 C435 0.930 . S
H428 C438 0.930 . S
H429 C439 0.930 . S
C430 H424 0.930 . S
C430 C431 1.355 . S
C430 C432 1.415 . S
C431 C430 1.355 . S
C431 C433 1.419 . S
C432 C430 1.415 . S
C432 C437 1.425 . S
C432 C439 1.409 . S
C433 H425 0.930 . S
C433 C431 1.419 . S
C433 C434 1.362 . S
C434 H426 0.930 . S
C434 C433 1.362 . S
C434 C437 1.409 . S
C435 H427 0.930 . S
C435 C436 1.355 . S
C435 C437 1.415 . S
C436 C435 1.355 . S
C436 C438 1.419 . S
C437 C432 1.425 . S
C437 C434 1.409 . S
C437 C435 1.415 . S
C438 H428 0.930 . S
C438 C436 1.419 . S
C438 C439 1.362 . S
C439 H429 0.930 . S
C439 C432 1.409 . S
C439 C438 1.362 . S
H440 C446 0.930 . S
H441 C449 0.930 . S
H442 C450 0.930 . S
H443 C451 0.930 . S
H444 C454 0.930 . S
H445 C455 0.930 . S
C446 H440 0.930 . S
C446 C447 1.355 . S
C446 C448 1.415 . S
C447 C446 1.355 . S
C447 C449 1.419 . S
C448 C446 1.415 . S
C448 C453 1.425 . S
C448 C455 1.409 . S
C449 H441 0.930 . S
C449 C447 1.419 . S
C449 C450 1.362 . S
C450 H442 0.930 . S
C450 C449 1.362 . S
C450 C453 1.409 . S
C451 H443 0.930 . S
C451 C452 1.355 . S
C451 C453 1.415 . S
C452 C451 1.355 . S
C452 C454 1.419 . S
C453 C448 1.425 . S
C453 C450 1.409 . S
C453 C451 1.415 . S
C454 H444 0.930 . S
C454 C452 1.419 . S
C454 C455 1.362 . S
C455 H445 0.930 . S
C455 C448 1.409 . S
C455 C454 1.362 . S
H456 C462 0.930 . S
H457 C465 0.930 . S
H458 C466 0.930 . S
H459 C467 0.930 . S
H460 C470 0.930 . S
H461 C471 0.930 . S
C462 H456 0.930 . S
C462 C463 1.355 . S
C462 C464 1.415 . S
C463 C462 1.355 . S
C463 C465 1.419 . S
C464 C462 1.415 . S
C464 C469 1.425 . S
C464 C471 1.409 . S
C465 H457 0.930 . S
C465 C463 1.419 . S
C465 C466 1.362 . S
C466 H458 0.930 . S
C466 C465 1.362 . S
C466 C469 1.409 . S
C467 H459 0.930 . S
C467 C468 1.355 . S
C467 C469 1.415 . S
C468 C467 1.355 . S
C468 C470 1.419 . S
C469 C464 1.425 . S
C469 C466 1.409 . S
C469 C467 1.415 . S
C470 H460 0.930 . S
C470 C468 1.419 . S
C470 C471 1.362 . S
C471 H461 0.930 . S
C471 C464 1.409 . S
C471 C470 1.362 . S
H472 C478 0.930 . S
H473 C481 0.930 . S
H474 C482 0.930 . S
H475 C483 0.930 . S
H476 C486 0.930 . S
H477 C487 0.930 . S
C478 H472 0.930 . S
C478 C479 1.355 . S
C478 C480 1.415 . S
C479 C478 1.355 . S
C479 C481 1.419 . S
C480 C478 1.415 . S
C480 C485 1.425 . S
C480 C487 1.409 . S
C481 H473 0.930 . S
C481 C479 1.419 . S
C481 C482 1.362 . S
C482 H474 0.930 . S
C482 C481 1.362 . S
C482 C485 1.409 . S
C483 H475 0.930 . S
C483 C484 1.355 . S
C483 C485 1.415 . S
C484 C483 1.355 . S
C484 C486 1.419 . S
C485 C480 1.425 . S
C485 C482 1.409 . S
C485 C483 1.415 . S
C486 H476 0.930 . S
C486 C484 1.419 . S
C486 C487 1.362 . S
C487 H477 0.930 . S
C487 C480 1.409 . S
C487 C486 1.362 . S
H488 C494 0.930 . S
H489 C497 0.930 1_655 S
H490 C498 0.930 1_655 S
H491 C499 0.930 . S
H492 C502 0.930 . S
H493 C503 0.930 . S
C494 H488 0.930 . S
C494 C495 1.355 . S
C494 C496 1.415 . S
C495 C494 1.355 . S
C495 C497 1.419 . S
C496 C494 1.415 . S
C496 C501 1.425 . S
C496 C503 1.409 . S
C497 H489 0.930 1_455 S
C497 C495 1.419 . S
C497 C498 1.362 . S
C498 H490 0.930 1_455 S
C498 C497 1.362 . S
C498 C501 1.409 . S
C499 H491 0.930 . S
C499 C500 1.355 . S
C499 C501 1.415 . S
C500 C499 1.355 . S
C500 C502 1.419 . S
C501 C496 1.425 . S
C501 C498 1.409 . S
C501 C499 1.415 . S
C502 H492 0.930 . S
C502 C500 1.419 . S
C502 C503 1.362 . S
C503 H493 0.930 . S
C503 C496 1.409 . S
C503 C502 1.362 . S
H504 C510 0.930 . S
H505 C513 0.930 . S
H506 C514 0.930 . S
H507 C515 0.930 . S
H508 C518 0.930 . S
H509 C519 0.930 . S
C510 H504 0.930 . S
C510 C511 1.355 . S
C510 C512 1.415 . S
C511 C510 1.355 . S
C511 C513 1.419 . S
C512 C510 1.415 . S
C512 C517 1.425 . S
C512 C519 1.409 . S
C513 H505 0.930 . S
C513 C511 1.419 . S
C513 C514 1.362 . S
C514 H506 0.930 . S
C514 C513 1.362 . S
C514 C517 1.409 . S
C515 H507 0.930 . S
C515 C516 1.355 . S
C515 C517 1.415 . S
C516 C515 1.355 . S
C516 C518 1.419 . S
C517 C512 1.425 . S
C517 C514 1.409 . S
C517 C515 1.415 . S
C518 H508 0.930 . S
C518 C516 1.419 . S
C518 C519 1.362 . S
C519 H509 0.930 . S
C519 C512 1.409 . S
C519 C518 1.362 . S
H520 C526 0.930 . S
H521 C529 0.930 1_455 S
H522 C530 0.930 1_455 S
H523 C531 0.930 . S
H524 C534 0.930 . S
H525 C535 0.930 . S
C526 H520 0.930 . S
C526 C527 1.355 . S
C526 C528 1.415 . S
C527 C526 1.355 . S
C527 C529 1.419 . S
C528 C526 1.415 . S
C528 C533 1.425 . S
C528 C535 1.409 . S
C529 H521 0.930 1_655 S
C529 C527 1.419 . S
C529 C530 1.362 . S
C530 H522 0.930 1_655 S
C530 C529 1.362 . S
C530 C533 1.409 . S
C531 H523 0.930 . S
C531 C532 1.355 . S
C531 C533 1.415 . S
C532 C531 1.355 . S
C532 C534 1.419 . S
C533 C528 1.425 . S
C533 C530 1.409 . S
C533 C531 1.415 . S
C534 H524 0.930 . S
C534 C532 1.419 . S
C534 C535 1.362 . S
C535 H525 0.930 . S
C535 C528 1.409 . S
C535 C534 1.362 . S
H536 C542 0.930 . S
H537 C545 0.930 . S
H538 C546 0.930 . S
H539 C547 0.930 . S
H540 C550 0.930 . S
H541 C551 0.930 . S
C542 H536 0.930 . S
C542 C543 1.355 . S
C542 C544 1.415 . S
C543 C542 1.355 . S
C543 C545 1.419 . S
C544 C542 1.415 . S
C544 C549 1.425 . S
C544 C551 1.409 . S
C545 H537 0.930 . S
C545 C543 1.419 . S
C545 C546 1.362 . S
C546 H538 0.930 . S
C546 C545 1.362 . S
C546 C549 1.409 . S
C547 H539 0.930 . S
C547 C548 1.355 . S
C547 C549 1.415 . S
C548 C547 1.355 . S
C548 C550 1.419 . S
C549 C544 1.425 . S
C549 C546 1.409 . S
C549 C547 1.415 . S
C550 H540 0.930 . S
C550 C548 1.419 . S
C550 C551 1.362 . S
C551 H541 0.930 . S
C551 C544 1.409 . S
C551 C550 1.362 . S
H552 C558 0.930 . S
H553 C561 0.930 . S
H554 C562 0.930 . S
H555 C563 0.930 . S
H556 C566 0.930 . S
H557 C567 0.930 . S
C558 H552 0.930 . S
C558 C559 1.355 . S
C558 C560 1.415 . S
C559 C558 1.355 . S
C559 C561 1.419 . S
C560 C558 1.415 . S
C560 C565 1.425 . S
C560 C567 1.409 . S
C561 H553 0.930 . S
C561 C559 1.419 . S
C561 C562 1.362 . S
C562 H554 0.930 . S
C562 C561 1.362 . S
C562 C565 1.409 . S
C563 H555 0.930 . S
C563 C564 1.355 . S
C563 C565 1.415 . S
C564 C563 1.355 . S
C564 C566 1.419 . S
C565 C560 1.425 . S
C565 C562 1.409 . S
C565 C563 1.415 . S
C566 H556 0.930 . S
C566 C564 1.419 . S
C566 C567 1.362 . S
C567 H557 0.930 . S
C567 C560 1.409 . S
C567 C566 1.362 . S
H568 C574 0.930 1_655 S
H569 C577 0.930 . S
H570 C578 0.930 . S
H571 C579 0.930 . S
H572 C582 0.930 . S
H573 C583 0.930 1_655 S
C574 H568 0.930 1_455 S
C574 C575 1.355 . S
C574 C576 1.415 . S
C575 C574 1.355 . S
C575 C577 1.419 . S
C576 C574 1.415 . S
C576 C581 1.425 . S
C576 C583 1.409 . S
C577 H569 0.930 . S
C577 C575 1.419 . S
C577 C578 1.362 . S
C578 H570 0.930 . S
C578 C577 1.362 . S
C578 C581 1.409 . S
C579 H571 0.930 . S
C579 C580 1.355 . S
C579 C581 1.415 . S
C580 C579 1.355 . S
C580 C582 1.419 . S
C581 C576 1.425 . S
C581 C578 1.409 . S
C581 C579 1.415 . S
C582 H572 0.930 . S
C582 C580 1.419 . S
C582 C583 1.362 . S
C583 H573 0.930 1_455 S
C583 C576 1.409 . S
C583 C582 1.362 . S
H584 C590 0.930 . S
H585 C593 0.930 . S
H586 C594 0.930 . S
H587 C595 0.930 . S
H588 C598 0.930 . S
H589 C599 0.930 1_565 S
C590 H584 0.930 . S
C590 C591 1.355 . S
C590 C592 1.415 . S
C591 C590 1.355 . S
C591 C593 1.419 . S
C592 C590 1.415 . S
C592 C597 1.425 . S
C592 C599 1.409 . S
C593 H585 0.930 . S
C593 C591 1.419 . S
C593 C594 1.362 . S
C594 H586 0.930 . S
C594 C593 1.362 . S
C594 C597 1.409 . S
C595 H587 0.930 . S
C595 C596 1.355 . S
C595 C597 1.415 . S
C596 C595 1.355 . S
C596 C598 1.419 . S
C597 C592 1.425 . S
C597 C594 1.409 . S
C597 C595 1.415 . S
C598 H588 0.930 . S
C598 C596 1.419 . S
C598 C599 1.362 . S
C599 H589 0.930 1_545 S
C599 C592 1.409 . S
C599 C598 1.362 . S
H600 C606 0.940 . S
H601 C609 0.930 . S
H602 C610 0.930 . S
H603 C611 0.930 . S
H604 C614 0.930 . S
H605 C615 0.930 1_455 S
C606 H600 0.940 . S
C606 C607 1.355 . S
C606 C608 1.415 . S
C607 C606 1.355 . S
C607 C609 1.419 . S
C608 C606 1.415 . S
C608 C613 1.425 . S
C608 C615 1.409 . S
C609 H601 0.930 . S
C609 C607 1.419 . S
C609 C610 1.362 . S
C610 H602 0.930 . S
C610 C609 1.362 . S
C610 C613 1.409 . S
C611 H603 0.930 . S
C611 C612 1.355 . S
C611 C613 1.415 . S
C612 C611 1.355 . S
C612 C614 1.419 . S
C613 C608 1.425 . S
C613 C610 1.409 . S
C613 C611 1.415 . S
C614 H604 0.930 . S
C614 C612 1.419 . S
C614 C615 1.362 . S
C615 H605 0.930 1_655 S
C615 C608 1.409 . S
C615 C614 1.362 . S
H616 C622 0.930 . S
H617 C625 0.930 . S
H618 C626 0.930 . S
H619 C627 0.930 . S
H620 C630 0.930 . S
H621 C631 0.930 . S
C622 H616 0.930 . S
C622 C623 1.355 . S
C622 C624 1.415 . S
C623 C622 1.355 . S
C623 C625 1.419 . S
C624 C622 1.415 . S
C624 C629 1.425 . S
C624 C631 1.409 . S
C625 H617 0.930 . S
C625 C623 1.419 . S
C625 C626 1.362 . S
C626 H618 0.930 . S
C626 C625 1.362 . S
C626 C629 1.409 . S
C627 H619 0.930 . S
C627 C628 1.355 . S
C627 C629 1.415 . S
C628 C627 1.355 . S
C628 C630 1.419 . S
C629 C624 1.425 . S
C629 C626 1.409 . S
C629 C627 1.415 . S
C630 H620 0.930 . S
C630 C628 1.419 . S
C630 C631 1.362 . S
C631 H621 0.930 . S
C631 C624 1.409 . S
C631 C630 1.362 . S
H632 C638 0.930 . S
H633 C641 0.930 . S
H634 C642 0.930 . S
H635 C643 0.930 . S
H636 C646 0.930 . S
H637 C647 0.930 . S
C638 H632 0.930 . S
C638 C639 1.355 . S
C638 C640 1.415 . S
C639 C638 1.355 . S
C639 C641 1.419 . S
C640 C638 1.415 . S
C640 C645 1.425 . S
C640 C647 1.409 . S
C641 H633 0.930 . S
C641 C639 1.419 . S
C641 C642 1.362 . S
C642 H634 0.930 . S
C642 C641 1.362 . S
C642 C645 1.409 . S
C643 H635 0.930 . S
C643 C644 1.355 . S
C643 C645 1.415 . S
C644 C643 1.355 . S
C644 C646 1.419 . S
C645 C640 1.425 . S
C645 C642 1.409 . S
C645 C643 1.415 . S
C646 H636 0.930 . S
C646 C644 1.419 . S
C646 C647 1.362 . S
C647 H637 0.930 . S
C647 C640 1.409 . S
C647 C646 1.362 . S
H648 C654 0.930 . S
H649 C657 0.930 . S
H650 C658 0.930 . S
H651 C659 0.930 . S
H652 C662 0.930 . S
H653 C663 0.930 . S
C654 H648 0.930 . S
C654 C655 1.355 . S
C654 C656 1.415 . S
C655 C654 1.355 . S
C655 C657 1.419 . S
C656 C654 1.415 . S
C656 C661 1.425 . S
C656 C663 1.409 . S
C657 H649 0.930 . S
C657 C655 1.419 . S
C657 C658 1.362 . S
C658 H650 0.930 . S
C658 C657 1.362 . S
C658 C661 1.409 . S
C659 H651 0.930 . S
C659 C660 1.355 . S
C659 C661 1.415 . S
C660 C659 1.355 . S
C660 C662 1.419 . S
C661 C656 1.425 . S
C661 C658 1.409 . S
C661 C659 1.415 . S
C662 H652 0.930 . S
C662 C660 1.419 . S
C662 C663 1.362 . S
C663 H653 0.930 . S
C663 C656 1.409 . S
C663 C662 1.362 . S
H664 C670 0.930 . S
H665 C673 0.930 . S
H666 C674 0.930 . S
H667 C675 0.930 . S
H668 C678 0.930 . S
H669 C679 0.930 . S
C670 H664 0.930 . S
C670 C671 1.355 . S
C670 C672 1.415 . S
C671 C670 1.355 . S
C671 C673 1.419 . S
C672 C670 1.415 . S
C672 C677 1.425 . S
C672 C679 1.409 . S
C673 H665 0.930 . S
C673 C671 1.419 . S
C673 C674 1.362 . S
C674 H666 0.930 . S
C674 C673 1.362 . S
C674 C677 1.409 . S
C675 H667 0.930 . S
C675 C676 1.355 . S
C675 C677 1.415 . S
C676 C675 1.355 . S
C676 C678 1.419 . S
C677 C672 1.425 . S
C677 C674 1.409 . S
C677 C675 1.415 . S
C678 H668 0.930 . S
C678 C676 1.419 . S
C678 C679 1.362 . S
C679 H669 0.930 . S
C679 C672 1.409 . S
C679 C678 1.362 . S
H680 C686 0.930 . S
H681 C689 0.930 . S
H682 C690 0.930 . S
H683 C691 0.930 . S
H684 C694 0.930 . S
H685 C695 0.930 . S
C686 H680 0.930 . S
C686 C687 1.355 . S
C686 C688 1.415 . S
C687 C686 1.355 . S
C687 C689 1.419 . S
C688 C686 1.415 . S
C688 C693 1.425 . S
C688 C695 1.409 . S
C689 H681 0.930 . S
C689 C687 1.419 . S
C689 C690 1.362 . S
C690 H682 0.930 . S
C690 C689 1.362 . S
C690 C693 1.409 . S
C691 H683 0.930 . S
C691 C692 1.355 . S
C691 C693 1.415 . S
C692 C691 1.355 . S
C692 C694 1.419 . S
C693 C688 1.425 . S
C693 C690 1.409 . S
C693 C691 1.415 . S
C694 H684 0.930 . S
C694 C692 1.419 . S
C694 C695 1.362 . S
C695 H685 0.930 . S
C695 C688 1.409 . S
C695 C694 1.362 . S
H696 C702 0.930 . S
H697 C705 0.930 . S
H698 C706 0.930 . S
H699 C707 0.930 . S
H700 C710 0.930 . S
H701 C711 0.930 . S
C702 H696 0.930 . S
C702 C703 1.355 . S
C702 C704 1.415 . S
C703 C702 1.355 . S
C703 C705 1.419 . S
C704 C702 1.415 . S
C704 C709 1.425 . S
C704 C711 1.409 . S
C705 H697 0.930 . S
C705 C703 1.419 . S
C705 C706 1.362 . S
C706 H698 0.930 . S
C706 C705 1.362 . S
C706 C709 1.409 . S
C707 H699 0.930 . S
C707 C708 1.355 . S
C707 C709 1.415 . S
C708 C707 1.355 . S
C708 C710 1.419 . S
C709 C704 1.425 . S
C709 C706 1.409 . S
C709 C707 1.415 . S
C710 H700 0.930 . S
C710 C708 1.419 . S
C710 C711 1.362 . S
C711 H701 0.930 . S
C711 C704 1.409 . S
C711 C710 1.362 . S
H712 C718 0.930 . S
H713 C721 0.930 . S
H714 C722 0.930 . S
H715 C723 0.930 . S
H716 C726 0.930 . S
H717 C727 0.930 . S
C718 H712 0.930 . S
C718 C719 1.355 . S
C718 C720 1.415 . S
C719 C718 1.355 . S
C719 C721 1.419 . S
C720 C718 1.415 . S
C720 C725 1.425 . S
C720 C727 1.409 . S
C721 H713 0.930 . S
C721 C719 1.419 . S
C721 C722 1.362 . S
C722 H714 0.930 . S
C722 C721 1.362 . S
C722 C725 1.409 . S
C723 H715 0.930 . S
C723 C724 1.355 . S
C723 C725 1.415 . S
C724 C723 1.355 . S
C724 C726 1.419 . S
C725 C720 1.425 . S
C725 C722 1.409 . S
C725 C723 1.415 . S
C726 H716 0.930 . S
C726 C724 1.419 . S
C726 C727 1.362 . S
C727 H717 0.930 . S
C727 C720 1.409 . S
C727 C726 1.362 . S
H728 C734 0.930 . S
H729 C737 0.930 . S
H730 C738 0.930 . S
H731 C739 0.930 . S
H732 C742 0.930 . S
H733 C743 0.930 . S
C734 H728 0.930 . S
C734 C735 1.355 . S
C734 C736 1.415 . S
C735 C734 1.355 . S
C735 C737 1.419 . S
C736 C734 1.415 . S
C736 C741 1.425 . S
C736 C743 1.409 . S
C737 H729 0.930 . S
C737 C735 1.419 . S
C737 C738 1.362 . S
C738 H730 0.930 . S
C738 C737 1.362 . S
C738 C741 1.409 . S
C739 H731 0.930 . S
C739 C740 1.355 . S
C739 C741 1.415 . S
C740 C739 1.355 . S
C740 C742 1.419 . S
C741 C736 1.425 . S
C741 C738 1.409 . S
C741 C739 1.415 . S
C742 H732 0.930 . S
C742 C740 1.419 . S
C742 C743 1.362 . S
C743 H733 0.930 . S
C743 C736 1.409 . S
C743 C742 1.362 . S
C367 C45 1.612 . S
C372 C127 1.630 . S
C383 C30 1.563 . S
C388 C159 1.628 . S
C399 C39 1.565 . S
C404 C191 1.481 . S
C420 C223 1.551 . S
C415 C34 1.610 . S
C431 C97 1.565 . S
C436 C255 1.630 . S
C452 C287 1.624 . S
C447 C82 1.614 . S
C468 C319 1.478 . S
C463 C91 1.564 . S
C484 C351 1.498 . S
C479 C86 1.579 . S
C500 C313 1.409 . S
C495 C26 1.438 . S
C516 C345 1.402 . S
C511 C36 1.423 . S
C532 C261 1.554 . S
C527 C32 1.446 . S
C548 C293 1.552 . S
C543 C42 1.505 . S
C559 C18 1.556 . S
C564 C281 1.632 . S
C580 C325 1.562 . S
C575 C50 1.579 . S
C591 C4 1.564 . S
C596 C357 1.552 . S
C607 C48 1.552 . S
C612 C249 1.633 . S
C628 C185 1.472 . S
C623 C78 1.475 . S
C639 C88 1.493 . S
C644 C217 1.486 . S
C660 C133 1.547 . S
C655 C84 1.514 . S
C676 C165 1.550 . S
C671 C94 1.512 . S
C692 C153 1.627 . S
C687 C70 1.495 . S
C708 C197 1.552 . S
C703 C102 1.579 . S
C719 C56 1.565 . S
C724 C229 1.533 . S
C735 C100 1.523 . S
C740 C121 1.632 . S
