# Generated by pormake.
# Topology nom, (4,4)-cn, num edge types: 1
# Building blocks:
#     Node 0, Type 0, BuildingBlock: KUFVIS_clean_linker_0, # of connection points: 4
#     Node 1, Type 0, BuildingBlock: KUFVIS_clean_linker_0, # of connection points: 4
#     Node 2, Type 0, BuildingBlock: KUFVIS_clean_linker_0, # of connection points: 4
#     Node 3, Type 0, BuildingBlock: KUFVIS_clean_linker_0, # of connection points: 4
#     Node 4, Type 0, BuildingBlock: KUFVIS_clean_linker_0, # of connection points: 4
#     Node 5, Type 0, BuildingBlock: KUFVIS_clean_linker_0, # of connection points: 4
#     Node 6, Type 1, BuildingBlock: CEKHIL_clean_sbu_0, # of connection points: 4
#     Node 7, Type 1, BuildingBlock: CEKHIL_clean_sbu_0, # of connection points: 4
#     Node 8, Type 1, BuildingBlock: CEKHIL_clean_sbu_0, # of connection points: 4
#     Node 9, Type 1, BuildingBlock: CEKHIL_clean_sbu_0, # of connection points: 4
#     Node 10, Type 1, BuildingBlock: CEKHIL_clean_sbu_0, # of connection points: 4
#     Node 11, Type 1, BuildingBlock: CEKHIL_clean_sbu_0, # of connection points: 4
#     Edge 12, Type (0, 1), BuildingBlock: XUDNAN_clean_linker_2, # of connection points: 2
#     Edge 13, Type (0, 1), BuildingBlock: XUDNAN_clean_linker_2, # of connection points: 2
#     Edge 14, Type (0, 1), BuildingBlock: XUDNAN_clean_linker_2, # of connection points: 2
#     Edge 15, Type (0, 1), BuildingBlock: XUDNAN_clean_linker_2, # of connection points: 2
#     Edge 16, Type (0, 1), BuildingBlock: XUDNAN_clean_linker_2, # of connection points: 2
#     Edge 17, Type (0, 1), BuildingBlock: XUDNAN_clean_linker_2, # of connection points: 2
#     Edge 18, Type (0, 1), BuildingBlock: XUDNAN_clean_linker_2, # of connection points: 2
#     Edge 19, Type (0, 1), BuildingBlock: XUDNAN_clean_linker_2, # of connection points: 2
#     Edge 20, Type (0, 1), BuildingBlock: XUDNAN_clean_linker_2, # of connection points: 2
#     Edge 21, Type (0, 1), BuildingBlock: XUDNAN_clean_linker_2, # of connection points: 2
#     Edge 22, Type (0, 1), BuildingBlock: XUDNAN_clean_linker_2, # of connection points: 2
#     Edge 23, Type (0, 1), BuildingBlock: XUDNAN_clean_linker_2, # of connection points: 2
#     Edge 24, Type (0, 1), BuildingBlock: XUDNAN_clean_linker_2, # of connection points: 2
#     Edge 25, Type (0, 1), BuildingBlock: XUDNAN_clean_linker_2, # of connection points: 2
#     Edge 26, Type (0, 1), BuildingBlock: XUDNAN_clean_linker_2, # of connection points: 2
#     Edge 27, Type (0, 1), BuildingBlock: XUDNAN_clean_linker_2, # of connection points: 2
#     Edge 28, Type (0, 1), BuildingBlock: XUDNAN_clean_linker_2, # of connection points: 2
#     Edge 29, Type (0, 1), BuildingBlock: XUDNAN_clean_linker_2, # of connection points: 2
#     Edge 30, Type (0, 1), BuildingBlock: XUDNAN_clean_linker_2, # of connection points: 2
#     Edge 31, Type (0, 1), BuildingBlock: XUDNAN_clean_linker_2, # of connection points: 2
#     Edge 32, Type (0, 1), BuildingBlock: XUDNAN_clean_linker_2, # of connection points: 2
#     Edge 33, Type (0, 1), BuildingBlock: XUDNAN_clean_linker_2, # of connection points: 2
#     Edge 34, Type (0, 1), BuildingBlock: XUDNAN_clean_linker_2, # of connection points: 2
#     Edge 35, Type (0, 1), BuildingBlock: XUDNAN_clean_linker_2, # of connection points: 2
# Relax obj value: 0.004
# Max RMSD: 0.050
# Mean RMSD: 0.042
data_MOF--net-nom--node1-CEKHIL_clean_sbu_0--node2-KUFVIS_clean_linker_0--edge1-XUDNAN_clean_linker_2
_symmetry_space_group_name_H-M    P1
_symmetry_Int_Tables_number       1
_symmetry_cell_setting            triclinic
loop_
_symmetry_equiv_pos_as_xyz
'x, y, z'
_cell_length_a     45.770832
_cell_length_b     45.474453
_cell_length_c     46.339952
_cell_angle_alpha  89.938108
_cell_angle_beta   89.984315
_cell_angle_gamma 121.02291
loop_
_atom_site_label
_atom_site_type_symbol
_atom_site_fract_x
_atom_site_fract_y
_atom_site_fract_z
_atom_type_partial_charge
H0 H 0.13836 0.6084 0.36324 0.0
H1 H 0.06791 0.59138 0.29538 0.0
H2 H 0.0318 0.55117 0.38152 0.0
H3 H 0.98587 0.5521 0.36993 0.0
H4 H 0.91441 0.5196 0.30014 0.0
H5 H 1.01772 0.55176 0.28155 0.0
C6 C 0.11239 0.59709 0.35549 0.0
C7 C 0.08576 0.57989 0.37513 0.0
C8 C 0.10627 0.60023 0.32644 0.0
C9 C 0.07223 0.58729 0.31753 0.0
C10 C 0.04428 0.56938 0.33702 0.0
C11 C 0.05185 0.56541 0.36594 0.0
C12 C 1.00769 0.55503 0.3272 0.0
C13 C 0.98085 0.54757 0.34708 0.0
C14 C 0.94703 0.53471 0.33748 0.0
C15 C 0.94028 0.53007 0.30791 0.0
C16 C 0.9658 0.53686 0.28804 0.0
C17 C 0.99907 0.54846 0.29754 0.0
H18 H 0.53789 0.12725 0.51913 0.0
H19 H 0.4958 0.05657 0.44888 0.0
H20 H 0.49591 0.02086 0.536 0.0
H21 H 0.45508 0.97146 0.52211 0.0
H22 H 0.42784 0.90174 0.45139 0.0
H23 H 0.49007 1.00888 0.43502 0.0
C24 C 0.52565 0.1012 0.51093 0.0
C25 C 0.51674 0.07451 0.53034 0.0
C26 C 0.51958 0.09512 0.48141 0.0
C27 C 0.50177 0.06085 0.47158 0.0
C28 C 0.49237 0.03282 0.49085 0.0
C29 C 0.50077 0.04059 0.52045 0.0
C30 C 0.47468 0.99602 0.48017 0.0
C31 C 0.45688 0.96759 0.49935 0.0
C32 C 0.4413 0.93346 0.4893 0.0
C33 C 0.44113 0.92777 0.4597 0.0
C34 C 0.4581 0.9549 0.44039 0.0
C35 C 0.47572 0.98874 0.45054 0.0
H36 H 0.54608 0.41417 0.62203 0.0
H37 H 0.49954 0.4386 0.69037 0.0
H38 H 0.49803 0.47104 0.60242 0.0
H39 H 0.45489 0.4749 0.61534 0.0
H40 H 0.42896 0.52139 0.68257 0.0
H41 H 0.49179 0.4799 0.70258 0.0
C42 C 0.53318 0.42718 0.62939 0.0
C43 C 0.52266 0.44255 0.60911 0.0
C44 C 0.52593 0.42661 0.65876 0.0
C45 C 0.50629 0.44078 0.66782 0.0
C46 C 0.4957 0.45744 0.64789 0.0
C47 C 0.50459 0.45814 0.61844 0.0
C48 C 0.47595 0.47427 0.65764 0.0
C49 C 0.4569 0.4819 0.63783 0.0
C50 C 0.43972 0.49859 0.64696 0.0
C51 C 0.44085 0.50709 0.67601 0.0
C52 C 0.45898 0.4999 0.69623 0.0
C53 C 0.4768 0.48396 0.68688 0.0
H54 H 0.14451 0.52144 0.79628 0.0
H55 H 0.07671 0.48213 0.86859 0.0
H56 H 0.0384 0.47885 0.78191 0.0
H57 H 0.99039 0.43798 0.79727 0.0
H58 H 0.92223 0.41385 0.86843 0.0
H59 H 0.02917 0.47748 0.88298 0.0
C60 C 0.11887 0.50944 0.80508 0.0
C61 C 0.09174 0.49961 0.78629 0.0
C62 C 0.11384 0.5045 0.83479 0.0
C63 C 0.08019 0.4872 0.84569 0.0
C64 C 0.05172 0.4771 0.82703 0.0
C65 C 0.05846 0.48428 0.79709 0.0
C66 C 1.01545 0.45971 0.83849 0.0
C67 C 0.98689 0.44081 0.8199 0.0
C68 C 0.95314 0.42557 0.83027 0.0
C69 C 0.94797 0.42679 0.85983 0.0
C70 C 0.97521 0.445 0.87868 0.0
C71 C 1.00876 0.46223 0.86803 0.0
H72 H 0.51656 0.90972 0.01929 0.0
H73 H 0.56859 0.98062 0.95041 0.0
H74 H 0.5645 0.01692 0.03593 0.0
H75 H 0.6082 0.06568 0.02077 0.0
H76 H 0.62103 0.13368 0.95131 0.0
H77 H 0.56767 0.02597 0.93573 0.0
C78 C 0.53274 0.93583 0.01176 0.0
C79 C 0.54226 0.96263 0.0313 0.0
C80 C 0.54226 0.94179 0.9827 0.0
C81 C 0.56051 0.97605 0.97271 0.0
C82 C 0.56838 1.00402 0.99141 0.0
C83 C 0.55919 0.99659 0.02092 0.0
C84 C 0.58479 0.04049 0.98014 0.0
C85 C 0.60332 0.06931 -0.00138 0.0
C86 C 0.61656 0.10321 0.98847 0.0
C87 C 0.61146 0.108 0.95946 0.0
C88 C 0.59527 0.08051 0.94026 0.0
C89 C 0.58145 0.04688 0.95073 0.0
H90 H 0.52804 0.63255 0.11767 0.0
H91 H 0.5676 0.60515 0.18967 0.0
H92 H 0.57184 0.57108 0.10281 0.0
H93 H 0.6124 0.56466 0.11727 0.0
H94 H 0.63543 0.51874 0.18691 0.0
H95 H 0.57788 0.56664 0.20426 0.0
C96 C 0.5404 0.61951 0.12633 0.0
C97 C 0.55073 0.60291 0.10737 0.0
C98 C 0.54485 0.61898 0.15607 0.0
C99 C 0.56279 0.60358 0.16677 0.0
C100 C 0.57371 0.58616 0.14796 0.0
C101 C 0.56612 0.5853 0.11812 0.0
C102 C 0.59207 0.56835 0.15907 0.0
C103 C 0.60995 0.55844 0.13996 0.0
C104 C 0.62463 0.53961 0.14985 0.0
C105 C 0.62385 0.53294 0.17932 0.0
C106 C 0.60804 0.5435 0.19911 0.0
C107 C 0.5914 0.5603 0.18881 0.0
Co108 Co 0.6509 0.38742 0.39869 0.0
O109 O 0.69053 0.39539 0.37683 0.0
O110 O 0.69205 0.42717 0.41352 0.0
C111 C 0.62803 0.32975 0.40449 0.0
O112 O 0.61666 0.3873 0.42728 0.0
Co113 Co 0.57638 0.33816 0.37707 0.0
O114 O 0.56288 0.34784 0.41478 0.0
C115 C 0.61576 0.41023 0.35588 0.0
C116 C 0.7086 0.42094 0.39407 0.0
C117 C 0.58417 0.3713 0.43157 0.0
O118 O 0.64209 0.41708 0.37126 0.0
O119 O 0.58883 0.38044 0.35441 0.0
O120 O 0.65239 0.35147 0.42123 0.0
O121 O 0.62031 0.34338 0.38372 0.0
Co122 Co 0.29151 0.64124 0.57712 0.0
O123 O 0.327 0.64051 0.59955 0.0
O124 O 0.29594 0.60262 0.56598 0.0
C125 C 0.32199 0.69853 0.56709 0.0
O126 O 0.254 0.63298 0.5486 0.0
Co127 Co 0.25907 0.685 0.59235 0.0
O128 O 0.23586 0.67 0.55447 0.0
C129 C 0.23827 0.62029 0.62422 0.0
C130 C 0.32026 0.6134 0.58485 0.0
C131 C 0.23538 0.64534 0.54103 0.0
O132 O 0.25565 0.61261 0.60713 0.0
O133 O 0.2391 0.64886 0.62306 0.0
O134 O 0.32653 0.67714 0.55191 0.0
O135 O 0.30107 0.68506 0.58834 0.0
Co136 Co 0.66546 0.27723 0.73706 0.0
O137 O 0.66173 0.31228 0.71645 0.0
O138 O 0.62561 0.27836 0.74984 0.0
C139 C 0.7223 0.30976 0.74675 0.0
O140 O 0.66076 0.239 0.76359 0.0
Co141 Co 0.71226 0.25069 0.71485 0.0
O142 O 0.69771 0.22269 0.75054 0.0
C143 C 0.64539 0.2266 0.68727 0.0
C144 C 0.63437 0.30317 0.73146 0.0
C145 C 0.6742 0.2203 0.76694 0.0
O146 O 0.63747 0.24184 0.7065 0.0
O147 O 0.67489 0.22999 0.68559 0.0
O148 O 0.70036 0.31225 0.76283 0.0
O149 O 0.70954 0.29042 0.72444 0.0
Co150 Co 0.41139 0.65095 0.89667 0.0
O151 O 0.37257 0.64382 0.87394 0.0
O152 O 0.37062 0.60884 0.908 0.0
C153 C 0.43128 0.70717 0.90612 0.0
O154 O 0.44314 0.64818 0.92576 0.0
Co155 Co 0.48742 0.70334 0.88407 0.0
O156 O 0.49737 0.69137 0.92256 0.0
C157 C 0.4522 0.6352 0.85456 0.0
C158 C 0.35433 0.6161 0.88911 0.0
C159 C 0.4741 0.66429 0.93479 0.0
O160 O 0.42371 0.6258 0.86751 0.0
O161 O 0.47893 0.66497 0.85751 0.0
O162 O 0.40681 0.68329 0.92155 0.0
O163 O 0.44217 0.6968 0.88514 0.0
Co164 Co 0.77042 0.39477 0.07662 0.0
O165 O 0.73541 0.39862 0.0969 0.0
O166 O 0.77029 0.43541 0.06427 0.0
C167 C 0.73718 0.33803 0.06631 0.0
O168 O 0.80865 0.40044 0.05026 0.0
Co169 Co 0.79716 0.34744 0.09497 0.0
O170 O 0.82269 0.36058 0.05795 0.0
C171 C 0.82164 0.41365 0.12528 0.0
C172 C 0.74525 0.42656 0.08217 0.0
C173 C 0.8259 0.3862 0.04399 0.0
O174 O 0.80492 0.42169 0.10778 0.0
O175 O 0.81975 0.38456 0.12475 0.0
O176 O 0.73622 0.36086 0.05007 0.0
O177 O 0.75652 0.34971 0.08871 0.0
Co178 Co 0.39309 0.75884 0.23097 0.0
O179 O 0.39908 0.72742 0.20643 0.0
O180 O 0.43351 0.75834 0.24179 0.0
C181 C 0.33611 0.72333 0.23974 0.0
O182 O 0.39735 0.7926 0.26173 0.0
Co183 Co 0.34452 0.78669 0.22034 0.0
O184 O 0.35839 0.80829 0.25899 0.0
C185 C 0.41259 0.81968 0.19153 0.0
C186 C 0.42625 0.73588 0.22162 0.0
C187 C 0.38385 0.80944 0.27122 0.0
O188 O 0.42029 0.79888 0.20354 0.0
O189 O 0.38365 0.81733 0.19454 0.0
O190 O 0.35854 0.71977 0.25409 0.0
O191 O 0.34848 0.74635 0.21978 0.0
H192 H 0.16456 0.5965 0.32631 0.0
H193 H 0.11665 0.64455 0.28129 0.0
H194 H 0.169 0.67818 0.25221 0.0
H195 H 0.24481 0.67198 0.33366 0.0
H196 H 0.26903 0.65117 0.32921 0.0
H197 H 0.22647 0.62757 0.3437 0.0
H198 H 0.20891 0.58167 0.30377 0.0
H199 H 0.25151 0.60502 0.28922 0.0
H200 H 0.21555 0.59467 0.26642 0.0
H201 H 0.22803 0.70932 0.23026 0.0
H202 H 0.28861 0.73598 0.21734 0.0
H203 H 0.29992 0.67106 0.27952 0.0
C204 C 0.16485 0.61402 0.31032 0.0
C205 C 0.13617 0.61781 0.3063 0.0
C206 C 0.13782 0.64065 0.28465 0.0
C207 C 0.16763 0.66009 0.26814 0.0
C208 C 0.19569 0.65652 0.27351 0.0
C209 C 0.19451 0.63399 0.29407 0.0
C210 C 0.22878 0.63647 0.29702 0.0
C211 C 0.24311 0.64746 0.32772 0.0
C212 C 0.22601 0.60243 0.2886 0.0
C213 C 0.24977 0.66442 0.27519 0.0
C214 C 0.23002 0.67526 0.26162 0.0
C215 C 0.24364 0.70096 0.24075 0.0
C216 C 0.27825 0.71603 0.23362 0.0
C217 C 0.29928 0.70584 0.24752 0.0
C218 C 0.28465 0.67952 0.26855 0.0
H219 H 0.58113 0.15528 0.48442 0.0
H220 H 0.48775 0.10423 0.43435 0.0
H221 H 0.50729 0.15798 0.40675 0.0
H222 H 0.58232 0.23213 0.49337 0.0
H223 H 0.62805 0.2593 0.49155 0.0
H224 H 0.60915 0.2158 0.50419 0.0
H225 H 0.64212 0.20358 0.46526 0.0
H226 H 0.66143 0.24718 0.4526 0.0
H227 H 0.63833 0.21204 0.42786 0.0
H228 H 0.53557 0.21917 0.38736 0.0
H229 H 0.56941 0.28146 0.37778 0.0
H230 H 0.64207 0.2929 0.44347 0.0
C231 C 0.56476 0.15517 0.4675 0.0
C232 C 0.5327 0.12541 0.4617 0.0
C233 C 0.5125 0.12645 0.43904 0.0
C234 C 0.52333 0.15698 0.42339 0.0
C235 C 0.55444 0.18618 0.43064 0.0
C236 C 0.57488 0.18538 0.45212 0.0
C237 C 0.60594 0.22061 0.45734 0.0
C238 C 0.60636 0.23266 0.48845 0.0
C239 C 0.63891 0.22085 0.45034 0.0
C240 C 0.59964 0.24172 0.43574 0.0
C241 C 0.57005 0.22135 0.42026 0.0
C242 C 0.55881 0.23524 0.3993 0.0
C243 C 0.57822 0.27074 0.39407 0.0
C244 C 0.60836 0.29217 0.40996 0.0
C245 C 0.61914 0.27728 0.43101 0.0
H246 H 0.37457 0.48597 0.64985 0.0
H247 H 0.46807 0.54133 0.60055 0.0
H248 H 0.44579 0.57447 0.57641 0.0
H249 H 0.31602 0.48508 0.59192 0.0
H250 H 0.29013 0.49037 0.61829 0.0
H251 H 0.31125 0.46744 0.62766 0.0
H252 H 0.33977 0.50832 0.67102 0.0
H253 H 0.31946 0.53188 0.66149 0.0
H254 H 0.3652 0.55393 0.6648 0.0
H255 H 0.41706 0.608 0.56395 0.0
H256 H 0.38147 0.63445 0.55983 0.0
H257 H 0.30605 0.55647 0.61648 0.0
C258 C 0.38971 0.50406 0.63306 0.0
C259 C 0.42285 0.51073 0.62669 0.0
C260 C 0.44235 0.53525 0.60521 0.0
C261 C 0.42999 0.55442 0.59164 0.0
C262 C 0.39787 0.5484 0.5995 0.0
C263 C 0.37765 0.5232 0.61923 0.0
C264 C 0.34507 0.52322 0.62538 0.0
C265 C 0.31376 0.48952 0.6152 0.0
C266 C 0.34224 0.52973 0.65758 0.0
C267 C 0.35061 0.55323 0.60693 0.0
C268 C 0.38117 0.56735 0.59205 0.0
C269 C 0.39281 0.59668 0.57505 0.0
C270 C 0.37259 0.61165 0.57294 0.0
C271 C 0.3411 0.59729 0.58768 0.0
C272 C 0.32993 0.56766 0.60478 0.0
H273 H 0.89467 0.42826 0.83404 0.0
H274 H 0.94196 0.38398 0.78289 0.0
H275 H 0.88891 0.35199 0.75432 0.0
H276 H 0.81441 0.35214 0.84001 0.0
H277 H 0.7903 0.37334 0.83846 0.0
H278 H 0.83307 0.39572 0.85251 0.0
H279 H 0.85024 0.44457 0.81534 0.0
H280 H 0.80745 0.42245 0.80125 0.0
H281 H 0.84302 0.4344 0.77745 0.0
H282 H 0.82939 0.32252 0.73311 0.0
H283 H 0.76869 0.29755 0.72111 0.0
H284 H 0.75904 0.35786 0.78884 0.0
C285 C 0.89405 0.41184 0.81685 0.0
C286 C 0.92267 0.40858 0.8109 0.0
C287 C 0.92071 0.38731 0.78775 0.0
C288 C 0.89055 0.36885 0.77152 0.0
C289 C 0.86257 0.37189 0.77871 0.0
C290 C 0.86413 0.39292 0.80084 0.0
C291 C 0.83005 0.39035 0.8054 0.0
C292 C 0.81615 0.37709 0.8359 0.0
C293 C 0.83287 0.425 0.7995 0.0
C294 C 0.80875 0.36414 0.7826 0.0
C295 C 0.82811 0.35415 0.76721 0.0
C296 C 0.81407 0.3302 0.74503 0.0
C297 C 0.77946 0.31609 0.73843 0.0
C298 C 0.75894 0.32555 0.75415 0.0
C299 C 0.77395 0.34997 0.77653 0.0
H300 H 0.5365 0.87992 0.99618 0.0
H301 H 0.52121 0.93361 0.92567 0.0
H302 H 0.49357 0.8798 0.89738 0.0
H303 H 0.54734 0.81831 0.95459 0.0
H304 H 0.52296 0.78405 0.97987 0.0
H305 H 0.54657 0.82784 0.99224 0.0
H306 H 0.49134 0.82078 0.01442 0.0
H307 H 0.46745 0.77713 0.00186 0.0
H308 H 0.4545 0.80704 0.99179 0.0
H309 H 0.46483 0.81858 0.8778 0.0
H310 H 0.43628 0.7559 0.86937 0.0
H311 H 0.46286 0.74161 0.95579 0.0
C312 C 0.52749 0.88068 0.97475 0.0
C313 C 0.53097 0.91133 0.96337 0.0
C314 C 0.51942 0.91085 0.93489 0.0
C315 C 0.50335 0.88023 0.91873 0.0
C316 C 0.4987 0.85021 0.93143 0.0
C317 C 0.51043 0.85029 0.95886 0.0
C318 C 0.4997 0.81431 0.96882 0.0
C319 C 0.53101 0.81094 0.97419 0.0
C320 C 0.4769 0.80423 0.99581 0.0
C321 C 0.47975 0.7937 0.94277 0.0
C322 C 0.48003 0.81493 0.92118 0.0
C323 C 0.46427 0.80182 0.89467 0.0
C324 C 0.44804 0.76625 0.8901 0.0
C325 C 0.44685 0.74412 0.91216 0.0
C326 C 0.46277 0.75801 0.93886 0.0
H327 H 0.61582 0.47545 0.15023 0.0
H328 H 0.67159 0.57353 0.10631 0.0
H329 H 0.70605 0.55361 0.08095 0.0
H330 H 0.68612 0.46853 0.1652 0.0
H331 H 0.66462 0.42265 0.16068 0.0
H332 H 0.64086 0.44234 0.17139 0.0
H333 H 0.60022 0.41458 0.12783 0.0
H334 H 0.6236 0.39438 0.11714 0.0
H335 H 0.6177 0.42111 0.09193 0.0
H336 H 0.73852 0.52446 0.06455 0.0
H337 H 0.76466 0.48901 0.05768 0.0
H338 H 0.68902 0.41151 0.11482 0.0
C339 C 0.63488 0.4926 0.13486 0.0
C340 C 0.64103 0.52614 0.13028 0.0
C341 C 0.66611 0.54763 0.10992 0.0
C342 C 0.68595 0.53656 0.09559 0.0
C343 C 0.68025 0.50389 0.10178 0.0
C344 C 0.65504 0.48215 0.12079 0.0
C345 C 0.65555 0.44945 0.12568 0.0
C346 C 0.66219 0.44554 0.15762 0.0
C347 C 0.62229 0.41802 0.115 0.0
C348 C 0.68548 0.4563 0.10689 0.0
C349 C 0.69921 0.48763 0.093 0.0
C350 C 0.7277 0.49979 0.07515 0.0
C351 C 0.74244 0.47947 0.07143 0.0
C352 C 0.72893 0.44742 0.0857 0.0
C353 C 0.69996 0.43581 0.10355 0.0
H354 H 0.44574 0.87575 0.48615 0.0
H355 H 0.39882 0.92135 0.53592 0.0
H356 H 0.36537 0.86684 0.563 0.0
H357 H 0.37141 0.79593 0.47656 0.0
H358 H 0.39198 0.77123 0.4789 0.0
H359 H 0.41554 0.81493 0.46634 0.0
H360 H 0.46108 0.83012 0.50593 0.0
H361 H 0.43789 0.78633 0.51845 0.0
H362 H 0.44808 0.82089 0.54317 0.0
H363 H 0.33377 0.80573 0.58172 0.0
H364 H 0.30759 0.74399 0.59177 0.0
H365 H 0.37283 0.73729 0.52742 0.0
C366 C 0.42867 0.87448 0.50295 0.0
C367 C 0.42484 0.90292 0.50882 0.0
C368 C 0.40253 0.90017 0.53122 0.0
C369 C 0.38325 0.8692 0.54655 0.0
C370 C 0.38668 0.84129 0.53926 0.0
C371 C 0.40905 0.84378 0.5181 0.0
C372 C 0.40661 0.80961 0.51306 0.0
C373 C 0.39573 0.7972 0.48187 0.0
C374 C 0.44043 0.81188 0.52061 0.0
C375 C 0.37884 0.78713 0.53437 0.0
C376 C 0.36795 0.80601 0.54947 0.0
C377 C 0.34225 0.79083 0.57011 0.0
C378 C 0.32745 0.75562 0.57558 0.0
C379 C 0.33802 0.73565 0.5603 0.0
C380 C 0.36409 0.75176 0.53938 0.0
H381 H 0.58909 0.43399 0.6593 0.0
H382 H 0.49124 0.38028 0.70278 0.0
H383 H 0.50989 0.34537 0.72938 0.0
H384 H 0.59484 0.36216 0.64642 0.0
H385 H 0.64033 0.38336 0.65137 0.0
H386 H 0.62143 0.40754 0.63958 0.0
H387 H 0.649 0.44925 0.68264 0.0
H388 H 0.66837 0.42542 0.69443 0.0
H389 H 0.64188 0.4324 0.71886 0.0
H390 H 0.53791 0.3121 0.74733 0.0
H391 H 0.57236 0.2851 0.75557 0.0
H392 H 0.65031 0.35936 0.69798 0.0
C393 C 0.57172 0.41531 0.67482 0.0
C394 C 0.53862 0.40992 0.67894 0.0
C395 C 0.51682 0.38525 0.69952 0.0
C396 C 0.52717 0.36514 0.71456 0.0
C397 C 0.55945 0.37012 0.7089 0.0
C398 C 0.58146 0.39491 0.68965 0.0
C399 C 0.61369 0.39373 0.68552 0.0
C400 C 0.61779 0.38624 0.65385 0.0
C401 C 0.64509 0.42719 0.69599 0.0
C402 C 0.60625 0.36387 0.70496 0.0
C403 C 0.57504 0.35077 0.71857 0.0
C404 C 0.56247 0.32244 0.73695 0.0
C405 C 0.58222 0.30721 0.74146 0.0
C406 C 0.61409 0.32005 0.72745 0.0
C407 C 0.62613 0.34889 0.70909 0.0
H408 H 0.1705 0.56825 0.83231 0.0
H409 H 0.12814 0.47105 0.87725 0.0
H410 H 0.18496 0.49043 0.89873 0.0
H411 H 0.24486 0.57282 0.81125 0.0
H412 H 0.27182 0.6187 0.81477 0.0
H413 H 0.22711 0.59997 0.80738 0.0
H414 H 0.22026 0.62937 0.85257 0.0
H415 H 0.26516 0.64884 0.85985 0.0
H416 H 0.23437 0.62332 0.8872 0.0
H417 H 0.2485 0.51864 0.91063 0.0
H418 H 0.31138 0.55348 0.91389 0.0
H419 H 0.31181 0.63051 0.85831 0.0
C420 C 0.17294 0.55135 0.84732 0.0
C421 C 0.14485 0.51815 0.85324 0.0
C422 C 0.14913 0.49674 0.87278 0.0
C423 C 0.1814 0.50748 0.88484 0.0
C424 C 0.20899 0.5397 0.87716 0.0
C425 C 0.20486 0.56144 0.85907 0.0
C426 C 0.23868 0.59347 0.85208 0.0
C427 C 0.24603 0.59639 0.81944 0.0
C428 C 0.23967 0.62565 0.86362 0.0
C429 C 0.26283 0.58624 0.8686 0.0
C430 C 0.24526 0.5553 0.88319 0.0
C431 C 0.26236 0.54299 0.89946 0.0
C432 C 0.29814 0.56293 0.90108 0.0
C433 C 0.31662 0.59471 0.88628 0.0
C434 C 0.29853 0.60631 0.86978 0.0
H435 H 0.66994 0.1677 0.97353 0.0
H436 H 0.60623 0.11008 0.04646 0.0
H437 H 0.63259 0.16353 0.07517 0.0
H438 H 0.74441 0.23181 0.012 0.0
H439 H 0.7511 0.26583 0.98783 0.0
H440 H 0.7313 0.22238 0.97481 0.0
H441 H 0.67942 0.22574 0.95707 0.0
H442 H 0.69891 0.26909 0.97017 0.0
H443 H 0.65681 0.23712 0.98222 0.0
H444 H 0.66519 0.22458 0.09532 0.0
H445 H 0.69807 0.28727 0.10418 0.0
H446 H 0.7325 0.30508 0.01535 0.0
C447 C 0.66108 0.16596 0.99546 0.0
C448 C 0.63546 0.13425 0.00745 0.0
C449 C 0.62598 0.13366 0.03668 0.0
C450 C 0.64064 0.16405 0.05312 0.0
C451 C 0.66447 0.19495 0.03998 0.0
C452 C 0.67441 0.19604 0.01171 0.0
C453 C 0.69808 0.23263 0.0016 0.0
C454 C 0.73331 0.2385 0.9936 0.0
C455 C 0.68235 0.24167 0.97627 0.0
C456 C 0.69987 0.25222 0.02858 0.0
C457 C 0.68091 0.23 0.0507 0.0
C458 C 0.67979 0.2421 0.07806 0.0
C459 C 0.69848 0.27769 0.08288 0.0
C460 C 0.71721 0.30082 0.0603 0.0
C461 C 0.71777 0.2879 0.03278 0.0
H462 H 0.48151 0.61082 0.15189 0.0
H463 H 0.57487 0.66396 0.2017 0.0
H464 H 0.55318 0.69763 0.22598 0.0
H465 H 0.4758 0.68274 0.13728 0.0
H466 H 0.42996 0.66089 0.13927 0.0
H467 H 0.45039 0.63758 0.12921 0.0
H468 H 0.41941 0.59421 0.17072 0.0
H469 H 0.39844 0.61709 0.18071 0.0
H470 H 0.42292 0.60972 0.20709 0.0
H471 H 0.52309 0.72934 0.24113 0.0
H472 H 0.48702 0.75458 0.24753 0.0
H473 H 0.41455 0.68235 0.18559 0.0
C474 C 0.49725 0.62915 0.16828 0.0
C475 C 0.53001 0.63477 0.17487 0.0
C476 C 0.54961 0.65888 0.19653 0.0
C477 C 0.53754 0.67829 0.21023 0.0
C478 C 0.5058 0.67317 0.20211 0.0
C479 C 0.48581 0.64889 0.18179 0.0
C480 C 0.45372 0.64971 0.17534 0.0
C481 C 0.45241 0.65824 0.14338 0.0
C482 C 0.42173 0.61566 0.18399 0.0
C483 C 0.45889 0.67875 0.19482 0.0
C484 C 0.48892 0.69174 0.21028 0.0
C485 C 0.49946 0.71912 0.22926 0.0
C486 C 0.47876 0.73337 0.23268 0.0
C487 C 0.44786 0.72053 0.21705 0.0
C488 C 0.43797 0.69283 0.19783 0.0
H489 H 0.89524 0.5481 0.33304 0.0
H490 H 0.93024 0.49314 0.38521 0.0
H491 H 0.87391 0.46201 0.40939 0.0
H492 H 0.83634 0.55124 0.38804 0.0
H493 H 0.80565 0.54476 0.36061 0.0
H494 H 0.85049 0.56735 0.35202 0.0
H495 H 0.83831 0.52466 0.31032 0.0
H496 H 0.79364 0.5016 0.31903 0.0
H497 H 0.81674 0.47933 0.31799 0.0
H498 H 0.81087 0.43052 0.42227 0.0
H499 H 0.74807 0.40377 0.4245 0.0
H500 H 0.7536 0.47765 0.3624 0.0
C501 C 0.89143 0.53034 0.35026 0.0
C502 C 0.91734 0.52326 0.35738 0.0
C503 C 0.91115 0.49953 0.37977 0.0
C504 C 0.87906 0.4815 0.39343 0.0
C505 C 0.85349 0.48771 0.38465 0.0
C506 C 0.85955 0.512 0.36385 0.0
C507 C 0.82713 0.5117 0.35621 0.0
C508 C 0.83008 0.54579 0.36474 0.0
C509 C 0.81846 0.50385 0.32399 0.0
C510 C 0.80145 0.48251 0.37509 0.0
C511 C 0.81724 0.46934 0.39169 0.0
C512 C 0.79847 0.44108 0.40974 0.0
C513 C 0.76284 0.426 0.41085 0.0
C514 C 0.74627 0.43896 0.39388 0.0
C515 C 0.76583 0.46764 0.37589 0.0
H516 H 0.10936 0.63011 0.4153 0.0
H517 H 0.0877 0.52691 0.40023 0.0
H518 H 0.12151 0.53108 0.44346 0.0
H519 H 0.19255 0.66489 0.43284 0.0
H520 H 0.19462 0.69359 0.46065 0.0
H521 H 0.16346 0.68049 0.43237 0.0
H522 H 0.11456 0.65734 0.4699 0.0
H523 H 0.14562 0.67133 0.49846 0.0
H524 H 0.1112 0.62726 0.49699 0.0
H525 H 0.16582 0.5506 0.48274 0.0
H526 H 0.21066 0.58062 0.51951 0.0
H527 H 0.20271 0.67117 0.50944 0.0
C528 C 0.11026 0.60781 0.42214 0.0
C529 C 0.09514 0.57777 0.40518 0.0
C530 C 0.09817 0.5496 0.41366 0.0
C531 C 0.11764 0.55196 0.43795 0.0
C532 C 0.13365 0.58262 0.45349 0.0
C533 C 0.12948 0.60977 0.44634 0.0
C534 C 0.15156 0.64084 0.465 0.0
C535 C 0.17704 0.67176 0.44661 0.0
C536 C 0.12941 0.6497 0.48371 0.0
C537 C 0.16962 0.62735 0.4832 0.0
C538 C 0.15899 0.59375 0.47623 0.0
C539 C 0.1738 0.57667 0.48878 0.0
C540 C 0.19953 0.59409 0.50944 0.0
C541 C 0.21016 0.62824 0.5175 0.0
C542 C 0.19494 0.64498 0.50402 0.0
H543 H 0.57995 0.10211 0.55201 0.0
H544 H 0.47675 0.07266 0.57481 0.0
H545 H 0.49786 0.10686 0.61982 0.0
H546 H 0.61329 0.10738 0.62717 0.0
H547 H 0.65382 0.1443 0.61749 0.0
H548 H 0.62927 0.11201 0.59086 0.0
H549 H 0.63192 0.15923 0.55764 0.0
H550 H 0.65535 0.19149 0.58447 0.0
H551 H 0.61586 0.18558 0.57067 0.0
H552 H 0.53215 0.15189 0.65848 0.0
H553 H 0.57547 0.19792 0.68983 0.0
H554 H 0.65559 0.19824 0.63937 0.0
C555 C 0.56173 0.10142 0.56734 0.0
C556 C 0.52674 0.08403 0.56066 0.0
C557 C 0.50354 0.08496 0.58025 0.0
C558 C 0.51539 0.10464 0.60561 0.0
C559 C 0.55045 0.1231 0.61085 0.0
C560 C 0.57317 0.12106 0.59245 0.0
C561 C 0.60968 0.14571 0.60111 0.0
C562 C 0.62756 0.12618 0.60968 0.0
C563 C 0.62933 0.17204 0.57705 0.0
C564 C 0.60413 0.16249 0.62693 0.0
C565 C 0.56991 0.14922 0.6324 0.0
C566 C 0.55901 0.16207 0.65461 0.0
C567 C 0.58378 0.18846 0.67212 0.0
C568 C 0.61898 0.20169 0.6672 0.0
C569 C 0.62896 0.18863 0.644 0.0
H570 H 0.40853 0.49992 0.72861 0.0
H571 H 0.51523 0.52994 0.7316 0.0
H572 H 0.52183 0.56063 0.77713 0.0
H573 H 0.42227 0.57879 0.74703 0.0
H574 H 0.38411 0.56387 0.76819 0.0
H575 H 0.38508 0.5374 0.73986 0.0
H576 H 0.36778 0.48774 0.77618 0.0
H577 H 0.36637 0.51396 0.80468 0.0
H578 H 0.39262 0.49526 0.80848 0.0
H579 H 0.51987 0.5959 0.81673 0.0
H580 H 0.5095 0.63247 0.8489 0.0
H581 H 0.40451 0.58264 0.81975 0.0
C582 C 0.43315 0.5123 0.73915 0.0
C583 C 0.46137 0.51234 0.72642 0.0
C584 C 0.49305 0.52882 0.74104 0.0
C585 C 0.49709 0.54656 0.76689 0.0
C586 C 0.46922 0.54752 0.77791 0.0
C587 C 0.43775 0.5306 0.76467 0.0
C588 C 0.41313 0.53917 0.77889 0.0
C589 C 0.40042 0.5558 0.7572 0.0
C590 C 0.3832 0.50712 0.79289 0.0
C591 C 0.43611 0.56467 0.80153 0.0
C592 C 0.46818 0.5686 0.80079 0.0
C593 C 0.49474 0.59262 0.81785 0.0
C594 C 0.48861 0.61347 0.8359 0.0
C595 C 0.45618 0.61043 0.8368 0.0
C596 C 0.42936 0.58516 0.81981 0.0
H597 H 0.94623 0.39235 0.9169 0.0
H598 H 0.98131 0.50022 0.90709 0.0
H599 H 0.94966 0.49793 0.95125 0.0
H600 H 0.86515 0.36616 0.93524 0.0
H601 H 0.85894 0.33418 0.96153 0.0
H602 H 0.88967 0.34541 0.93309 0.0
H603 H 0.93756 0.36076 0.97037 0.0
H604 H 0.9068 0.34856 -0.00094 0.0
H605 H 0.9447 0.39064 -0.00107 0.0
H606 H 0.90542 0.48089 0.99017 0.0
H607 H 0.85885 0.45289 0.02583 0.0
H608 H 0.85364 0.35604 0.01134 0.0
C609 C 0.94865 0.41583 0.92504 0.0
C610 C 0.96679 0.44668 0.90918 0.0
C611 C 0.96836 0.47668 0.91953 0.0
C612 C 0.95015 0.47545 0.94437 0.0
C613 C 0.93094 0.44411 0.95869 0.0
C614 C 0.93082 0.41502 0.94984 0.0
C615 C 0.90595 0.38392 0.96746 0.0
C616 C 0.8783 0.35578 0.94817 0.0
C617 C 0.92489 0.37017 0.98501 0.0
C618 C 0.89112 0.39972 0.98689 0.0
C619 C 0.90584 0.43444 0.98149 0.0
C620 C 0.89431 0.45392 0.99505 0.0
C621 C 0.86757 0.43767 0.01505 0.0
C622 C 0.8527 0.40229 0.0215 0.0
C623 C 0.86478 0.38319 0.00718 0.0
H624 H 0.54336 0.91252 0.06331 0.0
H625 H 0.51646 0.99101 0.0685 0.0
H626 H 0.48877 0.96755 0.11552 0.0
H627 H 0.46571 0.84723 0.08409 0.0
H628 H 0.48037 0.82325 0.10408 0.0
H629 H 0.50588 0.85107 0.07519 0.0
H630 H 0.55708 0.88371 0.10993 0.0
H631 H 0.5318 0.8557 0.139 0.0
H632 H 0.55183 0.90155 0.14288 0.0
H633 H 0.4555 0.93015 0.15646 0.0
H634 H 0.41884 0.882 0.18859 0.0
H635 H 0.46356 0.82464 0.15568 0.0
C636 C 0.53237 0.92536 0.07465 0.0
C637 C 0.5321 0.95369 0.06212 0.0
C638 C 0.51755 0.96972 0.07775 0.0
C639 C 0.5016 0.95641 0.10445 0.0
C640 C 0.50055 0.92718 0.11524 0.0
C641 C 0.51576 0.91195 0.10092 0.0
C642 C 0.50686 0.87804 0.1148 0.0
C643 C 0.48862 0.84816 0.09326 0.0
C644 C 0.5388 0.87988 0.12741 0.0
C645 C 0.48296 0.87575 0.1385 0.0
C646 C 0.48035 0.90478 0.13868 0.0
C647 C 0.45778 0.90762 0.15684 0.0
C648 C 0.43687 0.87995 0.17486 0.0
C649 C 0.4383 0.84951 0.17458 0.0
C650 C 0.46232 0.84776 0.15667 0.0
H651 H 0.65965 0.54463 0.23036 0.0
H652 H 0.55462 0.51933 0.23757 0.0
H653 H 0.55009 0.49189 0.28461 0.0
H654 H 0.64319 0.46607 0.25061 0.0
H655 H 0.6824 0.4799 0.26984 0.0
H656 H 0.68114 0.50605 0.24137 0.0
H657 H 0.70335 0.55761 0.27634 0.0
H658 H 0.70503 0.53166 0.305 0.0
H659 H 0.68113 0.55277 0.30977 0.0
H660 H 0.55287 0.45783 0.32499 0.0
H661 H 0.56209 0.41915 0.35564 0.0
H662 H 0.66422 0.4623 0.32113 0.0
C663 C 0.63589 0.53407 0.24214 0.0
C664 C 0.60743 0.53418 0.23011 0.0
C665 C 0.57696 0.5202 0.24638 0.0
C666 C 0.57412 0.50437 0.27313 0.0
C667 C 0.60198 0.50278 0.28336 0.0
C668 C 0.63241 0.51745 0.26844 0.0
C669 C 0.65662 0.50762 0.28161 0.0
C670 C 0.66638 0.48879 0.25955 0.0
C671 C 0.68842 0.53931 0.29392 0.0
C672 C 0.63446 0.48377 0.30553 0.0
C673 C 0.60337 0.48208 0.30651 0.0
C674 C 0.57732 0.45948 0.32481 0.0
C675 C 0.58276 0.43748 0.34202 0.0
C676 C 0.61393 0.43791 0.34081 0.0
C677 C 0.6405 0.46204 0.32292 0.0
H678 H 0.40416 0.9298 0.40414 0.0
H679 H 0.50945 0.95658 0.40967 0.0
H680 H 0.50269 0.92465 0.36445 0.0
H681 H 0.37111 0.84745 0.38366 0.0
H682 H 0.33957 0.84473 0.35874 0.0
H683 H 0.35397 0.8751 0.3879 0.0
H684 H 0.37176 0.92521 0.35197 0.0
H685 H 0.35641 0.8949 0.32262 0.0
H686 H 0.39962 0.93081 0.32226 0.0
H687 H 0.48136 0.88128 0.32477 0.0
H688 H 0.44987 0.83663 0.28823 0.0
H689 H 0.35822 0.83901 0.30735 0.0
C690 C 0.42618 0.93036 0.39488 0.0
C691 C 0.45757 0.94622 0.40972 0.0
C692 C 0.48559 0.94537 0.39797 0.0
C693 C 0.48181 0.92702 0.37253 0.0
C694 C 0.44996 0.91013 0.35912 0.0
C695 C 0.42285 0.91239 0.36944 0.0
C696 C 0.39064 0.8897 0.35236 0.0
C697 C 0.36216 0.86265 0.37184 0.0
C698 C 0.37893 0.91146 0.33635 0.0
C699 C 0.40349 0.87327 0.33154 0.0
C700 C 0.43776 0.88541 0.33584 0.0
C701 C 0.45473 0.87217 0.32076 0.0
C702 C 0.43645 0.84648 0.30027 0.0
C703 C 0.40153 0.83434 0.29484 0.0
C704 C 0.38493 0.84797 0.3108 0.0
H705 H 0.58148 0.45295 0.58364 0.0
H706 H 0.47684 0.42284 0.56486 0.0
H707 H 0.48276 0.40482 0.51599 0.0
H708 H 0.61598 0.48204 0.50903 0.0
H709 H 0.6439 0.4652 0.51219 0.0
H710 H 0.63306 0.48077 0.54375 0.0
H711 H 0.61169 0.42224 0.56889 0.0
H712 H 0.6218 0.40622 0.53729 0.0
H713 H 0.57914 0.3835 0.55178 0.0
H714 H 0.49692 0.38175 0.47274 0.0
H715 H 0.5203 0.36149 0.43515 0.0
H716 H 0.61645 0.40688 0.48137 0.0
C717 C 0.56011 0.44344 0.56893 0.0
C718 C 0.52867 0.43937 0.57801 0.0
C719 C 0.50126 0.42668 0.55824 0.0
C720 C 0.50434 0.41612 0.53052 0.0
C721 C 0.5351 0.4188 0.52283 0.0
C722 C 0.56277 0.4328 0.54123 0.0
C723 C 0.59221 0.43076 0.52843 0.0
C724 C 0.62312 0.46684 0.52302 0.0
C725 C 0.60175 0.40941 0.54775 0.0
C726 C 0.57642 0.41245 0.50029 0.0
C727 C 0.54348 0.40585 0.49756 0.0
C728 C 0.52286 0.3873 0.47441 0.0
C729 C 0.53635 0.3756 0.45328 0.0
C730 C 0.57029 0.38257 0.45523 0.0
C731 C 0.59055 0.40138 0.47911 0.0
H732 H 0.11652 0.56123 0.76095 0.0
H733 H 0.09048 0.4569 0.74452 0.0
H734 H 0.12364 0.47558 0.69891 0.0
H735 H 0.11933 0.58836 0.68368 0.0
H736 H 0.15523 0.63046 0.69131 0.0
H737 H 0.12388 0.60708 0.71889 0.0
H738 H 0.17213 0.61424 0.75283 0.0
H739 H 0.20349 0.63649 0.72513 0.0
H740 H 0.19931 0.59853 0.74151 0.0
H741 H 0.1676 0.50814 0.65911 0.0
H742 H 0.21218 0.55022 0.62589 0.0
H743 H 0.20954 0.63272 0.67048 0.0
C744 C 0.11627 0.54212 0.74684 0.0
C745 C 0.10014 0.50754 0.7555 0.0
C746 C 0.10175 0.4833 0.73752 0.0
C747 C 0.12086 0.4938 0.71184 0.0
C748 C 0.1381 0.52858 0.70462 0.0
C749 C 0.13533 0.55223 0.72138 0.0
C750 C 0.15871 0.58844 0.71072 0.0
C751 C 0.13805 0.60452 0.70053 0.0
C752 C 0.18495 0.6107 0.73393 0.0
C753 C 0.17558 0.58167 0.6857 0.0
C754 C 0.16351 0.5471 0.68235 0.0
C755 C 0.17681 0.53523 0.66129 0.0
C756 C 0.20237 0.55931 0.64271 0.0
C757 C 0.21428 0.59478 0.64541 0.0
C758 C 0.20084 0.60581 0.66752 0.0
H759 H 0.58231 0.12685 0.91398 0.0
H760 H 0.61409 0.0538 0.89629 0.0
H761 H 0.6328 0.07862 0.84761 0.0
H762 H 0.55705 0.13419 0.83783 0.0
H763 H 0.57393 0.17954 0.84212 0.0
H764 H 0.55617 0.15119 0.87273 0.0
H765 H 0.61262 0.18855 0.90054 0.0
H766 H 0.63093 0.21652 0.86989 0.0
H767 H 0.65205 0.19591 0.88521 0.0
H768 H 0.6581 0.11802 0.80543 0.0
H769 H 0.68198 0.16473 0.76968 0.0
H770 H 0.63479 0.21348 0.81465 0.0
C771 C 0.5921 0.1153 0.89946 0.0
C772 C 0.59668 0.0883 0.90892 0.0
C773 C 0.60979 0.07404 0.88939 0.0
C774 C 0.62079 0.08821 0.86177 0.0
C775 C 0.61813 0.11638 0.85392 0.0
C776 C 0.60342 0.12933 0.87195 0.0
C777 C 0.60664 0.1618 0.85957 0.0
C778 C 0.57134 0.15634 0.85264 0.0
C779 C 0.62676 0.19249 0.88002 0.0
C780 C 0.6266 0.16583 0.83226 0.0
C781 C 0.63275 0.13922 0.82938 0.0
C782 C 0.65283 0.13858 0.80713 0.0
C783 C 0.66658 0.16551 0.78707 0.0
C784 C 0.66026 0.19287 0.78924 0.0
C785 C 0.63983 0.19282 0.81217 0.0
H786 H 0.57539 0.6587 0.07253 0.0
H787 H 0.50654 0.5486 0.07413 0.0
H788 H 0.48171 0.55194 0.0276 0.0
H789 H 0.51847 0.67989 0.04894 0.0
H790 H 0.54682 0.71498 0.02572 0.0
H791 H 0.56367 0.70365 0.05596 0.0
H792 H 0.60422 0.69562 0.02231 0.0
H793 H 0.58821 0.70787 0.99192 0.0
H794 H 0.58703 0.66763 0.9915 0.0
H795 H 0.4578 0.56882 0.9864 0.0
H796 H 0.44162 0.59652 0.94911 0.0
H797 H 0.52751 0.69595 0.97321 0.0
C798 C 0.55616 0.63519 0.0623 0.0
C799 C 0.54318 0.60329 0.07643 0.0
C800 C 0.51727 0.57307 0.06316 0.0
C801 C 0.50288 0.57484 0.03692 0.0
C802 C 0.51511 0.60698 0.02422 0.0
C803 C 0.54178 0.63653 0.03609 0.0
C804 C 0.54855 0.66813 0.01937 0.0
C805 C 0.5441 0.69311 0.03866 0.0
C806 C 0.58412 0.68585 0.00544 0.0
C807 C 0.52074 0.65191 0.99683 0.0
C808 C 0.50173 0.61663 4e-05 0.0
C809 C 0.47298 0.59632 0.98327 0.0
C810 C 0.46379 0.61237 0.96235 0.0
C811 C 0.4834 0.6484 0.95817 0.0
C812 C 0.5123 0.66833 0.97565 0.0
H813 H 0.94939 0.47895 0.25858 0.0
H814 H 0.95547 0.57676 0.25093 0.0
H815 H 0.92221 0.55749 0.20556 0.0
H816 H 0.95027 0.46219 0.1787 0.0
H817 H 0.92007 0.41707 0.18369 0.0
H818 H 0.95 0.44134 0.21189 0.0
H819 H 0.89969 0.42138 0.24765 0.0
H820 H 0.86956 0.39785 0.2195 0.0
H821 H 0.86628 0.43 0.23952 0.0
H822 H 0.8808 0.52408 0.16544 0.0
H823 H 0.83881 0.4811 0.1315 0.0
H824 H 0.85932 0.40488 0.16656 0.0
C825 C 0.94521 0.49682 0.24642 0.0
C826 C 0.95582 0.52966 0.25746 0.0
C827 C 0.94841 0.55191 0.24208 0.0
C828 C 0.92932 0.54105 0.2165 0.0
C829 C 0.91786 0.50786 0.20673 0.0
C830 C 0.92604 0.48626 0.22097 0.0
C831 C 0.90786 0.45077 0.20778 0.0
C832 C 0.93359 0.44236 0.19473 0.0
C833 C 0.88447 0.42341 0.22994 0.0
C834 C 0.88738 0.45543 0.18453 0.0
C835 C 0.89361 0.48853 0.18405 0.0
C836 C 0.87616 0.49823 0.16531 0.0
C837 C 0.85216 0.47354 0.14626 0.0
C838 C 0.8457 0.43953 0.14622 0.0
C839 C 0.86364 0.4306 0.16578 0.0
loop_
_geom_bond_atom_site_label_1
_geom_bond_atom_site_label_2
_geom_bond_distance
_geom_bond_site_symmetry_2
_ccdc_geom_bond_type
H0 C6 0.930 . S
H1 C9 0.931 . S
H2 C11 0.931 . S
H3 C13 0.930 . S
H4 C15 0.930 . S
H5 C17 0.903 1_455 S
C6 H0 0.930 . S
C6 C7 1.380 . S
C6 C8 1.394 . S
C7 C6 1.380 . S
C7 C11 1.382 . S
C8 C6 1.394 . S
C8 C9 1.400 . S
C9 H1 0.931 . S
C9 C8 1.400 . S
C9 C10 1.375 . S
C10 C9 1.375 . S
C10 C11 1.415 . S
C10 C12 1.501 1_455 S
C11 H2 0.931 . S
C11 C7 1.382 . S
C11 C10 1.415 . S
C12 C10 1.501 1_655 S
C12 C13 1.384 . S
C12 C17 1.408 . S
C13 H3 0.930 . S
C13 C12 1.384 . S
C13 C14 1.389 . S
C14 C13 1.389 . S
C14 C15 1.405 . S
C15 H4 0.930 . S
C15 C14 1.405 . S
C15 C16 1.364 . S
C16 C15 1.364 . S
C16 C17 1.400 . S
C17 H5 0.903 1_655 S
C17 C12 1.408 . S
C17 C16 1.400 . S
H18 C24 0.930 . S
H19 C27 0.931 . S
H20 C29 0.931 . S
H21 C31 0.930 . S
H22 C33 0.930 . S
H23 C35 0.928 1_545 S
C24 H18 0.930 . S
C24 C25 1.380 . S
C24 C26 1.394 . S
C25 C24 1.380 . S
C25 C29 1.382 . S
C26 C24 1.394 . S
C26 C27 1.400 . S
C27 H19 0.931 . S
C27 C26 1.400 . S
C27 C28 1.375 . S
C28 C27 1.375 . S
C28 C29 1.415 . S
C28 C30 1.501 1_545 S
C29 H20 0.931 . S
C29 C25 1.382 . S
C29 C28 1.415 . S
C30 C28 1.501 1_565 S
C30 C31 1.384 . S
C30 C35 1.408 . S
C31 H21 0.930 . S
C31 C30 1.384 . S
C31 C32 1.389 . S
C32 C31 1.389 . S
C32 C33 1.405 . S
C33 H22 0.930 . S
C33 C32 1.405 . S
C33 C34 1.364 . S
C34 C33 1.364 . S
C34 C35 1.400 . S
C35 H23 0.928 1_565 S
C35 C30 1.408 . S
C35 C34 1.400 . S
H36 C42 0.930 . S
H37 C45 0.931 . S
H38 C47 0.931 . S
H39 C49 0.930 . S
H40 C51 0.930 . S
H41 C53 0.931 . S
C42 H36 0.930 . S
C42 C43 1.380 . S
C42 C44 1.394 . S
C43 C42 1.380 . S
C43 C47 1.382 . S
C44 C42 1.394 . S
C44 C45 1.400 . S
C45 H37 0.931 . S
C45 C44 1.400 . S
C45 C46 1.375 . S
C46 C45 1.375 . S
C46 C47 1.415 . S
C46 C48 1.501 . S
C47 H38 0.931 . S
C47 C43 1.382 . S
C47 C46 1.415 . S
C48 C46 1.501 . S
C48 C49 1.384 . S
C48 C53 1.408 . S
C49 H39 0.930 . S
C49 C48 1.384 . S
C49 C50 1.389 . S
C50 C49 1.389 . S
C50 C51 1.405 . S
C51 H40 0.930 . S
C51 C50 1.405 . S
C51 C52 1.364 . S
C52 C51 1.364 . S
C52 C53 1.400 . S
C53 H41 0.931 . S
C53 C48 1.408 . S
C53 C52 1.400 . S
H54 C60 0.930 . S
H55 C63 0.931 . S
H56 C65 0.931 . S
H57 C67 0.930 . S
H58 C69 0.930 . S
H59 C71 0.937 . S
C60 H54 0.930 . S
C60 C61 1.380 . S
C60 C62 1.394 . S
C61 C60 1.380 . S
C61 C65 1.382 . S
C62 C60 1.394 . S
C62 C63 1.400 . S
C63 H55 0.931 . S
C63 C62 1.400 . S
C63 C64 1.375 . S
C64 C63 1.375 . S
C64 C65 1.415 . S
C64 C66 1.501 1_455 S
C65 H56 0.931 . S
C65 C61 1.382 . S
C65 C64 1.415 . S
C66 C64 1.501 1_655 S
C66 C67 1.384 . S
C66 C71 1.408 . S
C67 H57 0.930 . S
C67 C66 1.384 . S
C67 C68 1.389 . S
C68 C67 1.389 . S
C68 C69 1.405 . S
C69 H58 0.930 . S
C69 C68 1.405 . S
C69 C70 1.364 . S
C70 C69 1.364 . S
C70 C71 1.400 . S
C71 H59 0.937 . S
C71 C66 1.408 . S
C71 C70 1.400 . S
H72 C78 0.930 . S
H73 C81 0.931 . S
H74 C83 0.931 . S
H75 C85 0.930 . S
H76 C87 0.930 . S
H77 C89 0.931 . S
C78 H72 0.930 . S
C78 C79 1.380 . S
C78 C80 1.394 1_554 S
C79 C78 1.380 . S
C79 C83 1.382 . S
C80 C78 1.394 1_556 S
C80 C81 1.400 . S
C81 H73 0.931 . S
C81 C80 1.400 . S
C81 C82 1.375 . S
C82 C81 1.375 . S
C82 C83 1.415 1_556 S
C82 C84 1.501 1_565 S
C83 H74 0.931 . S
C83 C79 1.382 . S
C83 C82 1.415 1_554 S
C84 C82 1.501 1_545 S
C84 C85 1.384 1_556 S
C84 C89 1.408 . S
C85 H75 0.930 . S
C85 C84 1.384 1_554 S
C85 C86 1.389 1_554 S
C86 C85 1.389 1_556 S
C86 C87 1.405 . S
C87 H76 0.930 . S
C87 C86 1.405 . S
C87 C88 1.364 . S
C88 C87 1.364 . S
C88 C89 1.400 . S
C89 H77 0.931 . S
C89 C84 1.408 . S
C89 C88 1.400 . S
H90 C96 0.930 . S
H91 C99 0.931 . S
H92 C101 0.931 . S
H93 C103 0.930 . S
H94 C105 0.930 . S
H95 C107 0.931 . S
C96 H90 0.930 . S
C96 C97 1.380 . S
C96 C98 1.394 . S
C97 C96 1.380 . S
C97 C101 1.382 . S
C98 C96 1.394 . S
C98 C99 1.400 . S
C99 H91 0.931 . S
C99 C98 1.400 . S
C99 C100 1.375 . S
C100 C99 1.375 . S
C100 C101 1.415 . S
C100 C102 1.501 . S
C101 H92 0.931 . S
C101 C97 1.382 . S
C101 C100 1.415 . S
C102 C100 1.501 . S
C102 C103 1.384 . S
C102 C107 1.408 . S
C103 H93 0.930 . S
C103 C102 1.384 . S
C103 C104 1.389 . S
C104 C103 1.389 . S
C104 C105 1.405 . S
C105 H94 0.930 . S
C105 C104 1.405 . S
C105 C106 1.364 . S
C106 C105 1.364 . S
C106 C107 1.400 . S
C107 H95 0.931 . S
C107 C102 1.408 . S
C107 C106 1.400 . S
Co108 O109 2.216 . S
Co108 O110 2.091 . S
Co108 O112 2.004 . S
Co108 O118 2.021 . S
Co108 O120 2.137 . S
Co108 O121 2.244 . S
O109 Co108 2.216 . S
O109 C116 1.247 . S
O110 Co108 2.091 . S
O110 C116 1.261 . S
C111 O120 1.247 . S
C111 O121 1.272 . S
O112 Co108 2.004 . S
O112 C117 1.259 . S
Co113 O114 2.061 . S
Co113 O119 2.052 . S
Co113 O121 2.135 . S
O114 Co113 2.061 . S
O114 C117 1.235 . S
C115 O118 1.238 . S
C115 O119 1.241 . S
C116 O109 1.247 . S
C116 O110 1.261 . S
C117 O112 1.259 . S
C117 O114 1.235 . S
O118 Co108 2.021 . S
O118 C115 1.238 . S
O119 Co113 2.052 . S
O119 C115 1.241 . S
O120 Co108 2.137 . S
O120 C111 1.247 . S
O121 Co108 2.244 . S
O121 C111 1.272 . S
O121 Co113 2.135 . S
Co122 O123 2.216 . S
Co122 O124 2.091 . S
Co122 O126 2.004 . S
Co122 O132 2.021 . S
Co122 O134 2.137 . S
Co122 O135 2.244 . S
O123 Co122 2.216 . S
O123 C130 1.247 . S
O124 Co122 2.091 . S
O124 C130 1.261 . S
C125 O134 1.247 . S
C125 O135 1.272 . S
O126 Co122 2.004 . S
O126 C131 1.259 . S
Co127 O128 2.061 . S
Co127 O133 2.052 . S
Co127 O135 2.135 . S
O128 Co127 2.061 . S
O128 C131 1.235 . S
C129 O132 1.238 . S
C129 O133 1.241 . S
C130 O123 1.247 . S
C130 O124 1.261 . S
C131 O126 1.259 . S
C131 O128 1.235 . S
O132 Co122 2.021 . S
O132 C129 1.238 . S
O133 Co127 2.052 . S
O133 C129 1.241 . S
O134 Co122 2.137 . S
O134 C125 1.247 . S
O135 Co122 2.244 . S
O135 C125 1.272 . S
O135 Co127 2.135 . S
Co136 O137 2.216 . S
Co136 O138 2.091 . S
Co136 O140 2.004 . S
Co136 O146 2.021 . S
Co136 O148 2.137 . S
Co136 O149 2.244 . S
O137 Co136 2.216 . S
O137 C144 1.247 . S
O138 Co136 2.091 . S
O138 C144 1.261 . S
C139 O148 1.247 . S
C139 O149 1.272 . S
O140 Co136 2.004 . S
O140 C145 1.259 . S
Co141 O142 2.061 . S
Co141 O147 2.052 . S
Co141 O149 2.135 . S
O142 Co141 2.061 . S
O142 C145 1.235 . S
C143 O146 1.238 . S
C143 O147 1.241 . S
C144 O137 1.247 . S
C144 O138 1.261 . S
C145 O140 1.259 . S
C145 O142 1.235 . S
O146 Co136 2.021 . S
O146 C143 1.238 . S
O147 Co141 2.052 . S
O147 C143 1.241 . S
O148 Co136 2.137 . S
O148 C139 1.247 . S
O149 Co136 2.244 . S
O149 C139 1.272 . S
O149 Co141 2.135 . S
Co150 O151 2.216 . S
Co150 O152 2.091 . S
Co150 O154 2.004 . S
Co150 O160 2.021 . S
Co150 O162 2.137 . S
Co150 O163 2.244 . S
O151 Co150 2.216 . S
O151 C158 1.247 . S
O152 Co150 2.091 . S
O152 C158 1.261 . S
C153 O162 1.247 . S
C153 O163 1.272 . S
O154 Co150 2.004 . S
O154 C159 1.259 . S
Co155 O156 2.061 . S
Co155 O161 2.052 . S
Co155 O163 2.135 . S
O156 Co155 2.061 . S
O156 C159 1.235 . S
C157 O160 1.238 . S
C157 O161 1.241 . S
C158 O151 1.247 . S
C158 O152 1.261 . S
C159 O154 1.259 . S
C159 O156 1.235 . S
O160 Co150 2.021 . S
O160 C157 1.238 . S
O161 Co155 2.052 . S
O161 C157 1.241 . S
O162 Co150 2.137 . S
O162 C153 1.247 . S
O163 Co150 2.244 . S
O163 C153 1.272 . S
O163 Co155 2.135 . S
Co164 O165 2.216 . S
Co164 O166 2.091 . S
Co164 O168 2.004 . S
Co164 O174 2.021 . S
Co164 O176 2.137 . S
Co164 O177 2.244 . S
O165 Co164 2.216 . S
O165 C172 1.247 . S
O166 Co164 2.091 . S
O166 C172 1.261 . S
C167 O176 1.247 . S
C167 O177 1.272 . S
O168 Co164 2.004 . S
O168 C173 1.259 . S
Co169 O170 2.061 . S
Co169 O175 2.052 . S
Co169 O177 2.135 . S
O170 Co169 2.061 . S
O170 C173 1.235 . S
C171 O174 1.238 . S
C171 O175 1.241 . S
C172 O165 1.247 . S
C172 O166 1.261 . S
C173 O168 1.259 . S
C173 O170 1.235 . S
O174 Co164 2.021 . S
O174 C171 1.238 . S
O175 Co169 2.052 . S
O175 C171 1.241 . S
O176 Co164 2.137 . S
O176 C167 1.247 . S
O177 Co164 2.244 . S
O177 C167 1.272 . S
O177 Co169 2.135 . S
Co178 O179 2.216 . S
Co178 O180 2.091 . S
Co178 O182 2.004 . S
Co178 O188 2.021 . S
Co178 O190 2.137 . S
Co178 O191 2.244 . S
O179 Co178 2.216 . S
O179 C186 1.247 . S
O180 Co178 2.091 . S
O180 C186 1.261 . S
C181 O190 1.247 . S
C181 O191 1.272 . S
O182 Co178 2.004 . S
O182 C187 1.259 . S
Co183 O184 2.061 . S
Co183 O189 2.052 . S
Co183 O191 2.135 . S
O184 Co183 2.061 . S
O184 C187 1.235 . S
C185 O188 1.238 . S
C185 O189 1.241 . S
C186 O179 1.247 . S
C186 O180 1.261 . S
C187 O182 1.259 . S
C187 O184 1.235 . S
O188 Co178 2.021 . S
O188 C185 1.238 . S
O189 Co183 2.052 . S
O189 C185 1.241 . S
O190 Co178 2.137 . S
O190 C181 1.247 . S
O191 Co178 2.244 . S
O191 C181 1.272 . S
O191 Co183 2.135 . S
H192 C204 0.930 . S
H193 C206 0.930 . S
H194 C207 0.930 . S
H195 C211 0.959 . S
H196 C211 0.959 . S
H197 C211 0.961 . S
H198 C212 0.960 . S
H199 C212 0.961 . S
H200 C212 0.959 . S
H201 C215 0.929 . S
H202 C216 0.931 . S
H203 C218 0.930 . S
C204 H192 0.930 . S
C204 C205 1.399 . S
C204 C209 1.399 . S
C205 C204 1.399 . S
C205 C206 1.376 . S
C206 H193 0.930 . S
C206 C205 1.376 . S
C206 C207 1.388 . S
C207 H194 0.930 . S
C207 C206 1.388 . S
C207 C208 1.390 . S
C208 C207 1.390 . S
C208 C209 1.394 . S
C208 C214 1.465 . S
C209 C204 1.399 . S
C209 C208 1.394 . S
C209 C210 1.516 . S
C210 C209 1.516 . S
C210 C211 1.502 . S
C210 C212 1.561 . S
C210 C213 1.526 . S
C211 H195 0.959 . S
C211 H196 0.959 . S
C211 H197 0.961 . S
C211 C210 1.502 . S
C212 H198 0.960 . S
C212 H199 0.961 . S
C212 H200 0.959 . S
C212 C210 1.561 . S
C213 C210 1.526 . S
C213 C214 1.396 . S
C213 C218 1.390 . S
C214 C208 1.465 . S
C214 C213 1.396 . S
C214 C215 1.399 . S
C215 H201 0.929 . S
C215 C214 1.399 . S
C215 C216 1.385 . S
C216 H202 0.931 . S
C216 C215 1.385 . S
C216 C217 1.389 . S
C217 C216 1.389 . S
C217 C218 1.387 . S
C218 H203 0.930 . S
C218 C213 1.390 . S
C218 C217 1.387 . S
H219 C231 0.930 . S
H220 C233 0.930 . S
H221 C234 0.930 . S
H222 C238 0.959 . S
H223 C238 0.959 . S
H224 C238 0.961 . S
H225 C239 0.960 . S
H226 C239 0.961 . S
H227 C239 0.959 . S
H228 C242 0.929 . S
H229 C243 0.931 . S
H230 C245 0.930 . S
C231 H219 0.930 . S
C231 C232 1.399 . S
C231 C236 1.399 . S
C232 C231 1.399 . S
C232 C233 1.376 . S
C233 H220 0.930 . S
C233 C232 1.376 . S
C233 C234 1.388 . S
C234 H221 0.930 . S
C234 C233 1.388 . S
C234 C235 1.390 . S
C235 C234 1.390 . S
C235 C236 1.394 . S
C235 C241 1.465 . S
C236 C231 1.399 . S
C236 C235 1.394 . S
C236 C237 1.516 . S
C237 C236 1.516 . S
C237 C238 1.502 . S
C237 C239 1.561 . S
C237 C240 1.526 . S
C238 H222 0.959 . S
C238 H223 0.959 . S
C238 H224 0.961 . S
C238 C237 1.502 . S
C239 H225 0.960 . S
C239 H226 0.961 . S
C239 H227 0.959 . S
C239 C237 1.561 . S
C240 C237 1.526 . S
C240 C241 1.396 . S
C240 C245 1.390 . S
C241 C235 1.465 . S
C241 C240 1.396 . S
C241 C242 1.399 . S
C242 H228 0.929 . S
C242 C241 1.399 . S
C242 C243 1.385 . S
C243 H229 0.931 . S
C243 C242 1.385 . S
C243 C244 1.389 . S
C244 C243 1.389 . S
C244 C245 1.387 . S
C245 H230 0.930 . S
C245 C240 1.390 . S
C245 C244 1.387 . S
H246 C258 0.930 . S
H247 C260 0.930 . S
H248 C261 0.930 . S
H249 C265 0.959 . S
H250 C265 0.959 . S
H251 C265 0.961 . S
H252 C266 0.960 . S
H253 C266 0.961 . S
H254 C266 0.959 . S
H255 C269 0.929 . S
H256 C270 0.931 . S
H257 C272 0.930 . S
C258 H246 0.930 . S
C258 C259 1.399 . S
C258 C263 1.399 . S
C259 C258 1.399 . S
C259 C260 1.376 . S
C260 H247 0.930 . S
C260 C259 1.376 . S
C260 C261 1.388 . S
C261 H248 0.930 . S
C261 C260 1.388 . S
C261 C262 1.390 . S
C262 C261 1.390 . S
C262 C263 1.394 . S
C262 C268 1.465 . S
C263 C258 1.399 . S
C263 C262 1.394 . S
C263 C264 1.516 . S
C264 C263 1.516 . S
C264 C265 1.502 . S
C264 C266 1.561 . S
C264 C267 1.526 . S
C265 H249 0.959 . S
C265 H250 0.959 . S
C265 H251 0.961 . S
C265 C264 1.502 . S
C266 H252 0.960 . S
C266 H253 0.961 . S
C266 H254 0.959 . S
C266 C264 1.561 . S
C267 C264 1.526 . S
C267 C268 1.396 . S
C267 C272 1.390 . S
C268 C262 1.465 . S
C268 C267 1.396 . S
C268 C269 1.399 . S
C269 H255 0.929 . S
C269 C268 1.399 . S
C269 C270 1.385 . S
C270 H256 0.931 . S
C270 C269 1.385 . S
C270 C271 1.389 . S
C271 C270 1.389 . S
C271 C272 1.387 . S
C272 H257 0.930 . S
C272 C267 1.390 . S
C272 C271 1.387 . S
H273 C285 0.930 . S
H274 C287 0.930 . S
H275 C288 0.930 . S
H276 C292 0.959 . S
H277 C292 0.959 . S
H278 C292 0.961 . S
H279 C293 0.960 . S
H280 C293 0.961 . S
H281 C293 0.959 . S
H282 C296 0.929 . S
H283 C297 0.931 . S
H284 C299 0.930 . S
C285 H273 0.930 . S
C285 C286 1.399 . S
C285 C290 1.399 . S
C286 C285 1.399 . S
C286 C287 1.376 . S
C287 H274 0.930 . S
C287 C286 1.376 . S
C287 C288 1.388 . S
C288 H275 0.930 . S
C288 C287 1.388 . S
C288 C289 1.390 . S
C289 C288 1.390 . S
C289 C290 1.394 . S
C289 C295 1.465 . S
C290 C285 1.399 . S
C290 C289 1.394 . S
C290 C291 1.516 . S
C291 C290 1.516 . S
C291 C292 1.502 . S
C291 C293 1.561 . S
C291 C294 1.526 . S
C292 H276 0.959 . S
C292 H277 0.959 . S
C292 H278 0.961 . S
C292 C291 1.502 . S
C293 H279 0.960 . S
C293 H280 0.961 . S
C293 H281 0.959 . S
C293 C291 1.561 . S
C294 C291 1.526 . S
C294 C295 1.396 . S
C294 C299 1.390 . S
C295 C289 1.465 . S
C295 C294 1.396 . S
C295 C296 1.399 . S
C296 H282 0.929 . S
C296 C295 1.399 . S
C296 C297 1.385 . S
C297 H283 0.931 . S
C297 C296 1.385 . S
C297 C298 1.389 . S
C298 C297 1.389 . S
C298 C299 1.387 . S
C299 H284 0.930 . S
C299 C294 1.390 . S
C299 C298 1.387 . S
H300 C312 0.930 1_554 S
H301 C314 0.930 . S
H302 C315 0.930 . S
H303 C319 0.954 1_556 S
H304 C319 0.963 . S
H305 C319 0.967 . S
H306 C320 0.960 . S
H307 C320 0.961 . S
H308 C320 0.959 1_556 S
H309 C323 0.929 . S
H310 C324 0.931 . S
H311 C326 0.930 . S
C312 H300 0.930 1_556 S
C312 C313 1.399 . S
C312 C317 1.399 . S
C313 C312 1.399 . S
C313 C314 1.376 . S
C314 H301 0.930 . S
C314 C313 1.376 . S
C314 C315 1.388 . S
C315 H302 0.930 . S
C315 C314 1.388 . S
C315 C316 1.390 . S
C316 C315 1.390 . S
C316 C317 1.394 . S
C316 C322 1.465 . S
C317 C312 1.399 . S
C317 C316 1.394 . S
C317 C318 1.516 . S
C318 C317 1.516 . S
C318 C319 1.497 1_556 S
C318 C320 1.561 1_556 S
C318 C321 1.526 . S
C319 H303 0.954 1_554 S
C319 H304 0.963 . S
C319 H305 0.967 . S
C319 C318 1.497 1_554 S
C320 H306 0.960 . S
C320 H307 0.961 . S
C320 H308 0.959 1_554 S
C320 C318 1.561 1_554 S
C321 C318 1.526 . S
C321 C322 1.396 . S
C321 C326 1.390 . S
C322 C316 1.465 . S
C322 C321 1.396 . S
C322 C323 1.399 . S
C323 H309 0.929 . S
C323 C322 1.399 . S
C323 C324 1.385 . S
C324 H310 0.931 . S
C324 C323 1.385 . S
C324 C325 1.389 . S
C325 C324 1.389 . S
C325 C326 1.387 . S
C326 H311 0.930 . S
C326 C321 1.390 . S
C326 C325 1.387 . S
H327 C339 0.930 . S
H328 C341 0.930 . S
H329 C342 0.930 . S
H330 C346 0.959 . S
H331 C346 0.959 . S
H332 C346 0.961 . S
H333 C347 0.960 . S
H334 C347 0.961 . S
H335 C347 0.959 . S
H336 C350 0.929 . S
H337 C351 0.931 . S
H338 C353 0.930 . S
C339 H327 0.930 . S
C339 C340 1.399 . S
C339 C344 1.399 . S
C340 C339 1.399 . S
C340 C341 1.376 . S
C341 H328 0.930 . S
C341 C340 1.376 . S
C341 C342 1.388 . S
C342 H329 0.930 . S
C342 C341 1.388 . S
C342 C343 1.390 . S
C343 C342 1.390 . S
C343 C344 1.394 . S
C343 C349 1.465 . S
C344 C339 1.399 . S
C344 C343 1.394 . S
C344 C345 1.516 . S
C345 C344 1.516 . S
C345 C346 1.502 . S
C345 C347 1.561 . S
C345 C348 1.526 . S
C346 H330 0.959 . S
C346 H331 0.959 . S
C346 H332 0.961 . S
C346 C345 1.502 . S
C347 H333 0.960 . S
C347 H334 0.961 . S
C347 H335 0.959 . S
C347 C345 1.561 . S
C348 C345 1.526 . S
C348 C349 1.396 . S
C348 C353 1.390 . S
C349 C343 1.465 . S
C349 C348 1.396 . S
C349 C350 1.399 . S
C350 H336 0.929 . S
C350 C349 1.399 . S
C350 C351 1.385 . S
C351 H337 0.931 . S
C351 C350 1.385 . S
C351 C352 1.389 . S
C352 C351 1.389 . S
C352 C353 1.387 . S
C353 H338 0.930 . S
C353 C348 1.390 . S
C353 C352 1.387 . S
H354 C366 0.930 . S
H355 C368 0.930 . S
H356 C369 0.930 . S
H357 C373 0.959 . S
H358 C373 0.959 . S
H359 C373 0.961 . S
H360 C374 0.960 . S
H361 C374 0.961 . S
H362 C374 0.959 . S
H363 C377 0.929 . S
H364 C378 0.931 . S
H365 C380 0.930 . S
C366 H354 0.930 . S
C366 C367 1.399 . S
C366 C371 1.399 . S
C367 C366 1.399 . S
C367 C368 1.376 . S
C368 H355 0.930 . S
C368 C367 1.376 . S
C368 C369 1.388 . S
C369 H356 0.930 . S
C369 C368 1.388 . S
C369 C370 1.390 . S
C370 C369 1.390 . S
C370 C371 1.394 . S
C370 C376 1.465 . S
C371 C366 1.399 . S
C371 C370 1.394 . S
C371 C372 1.516 . S
C372 C371 1.516 . S
C372 C373 1.502 . S
C372 C374 1.561 . S
C372 C375 1.526 . S
C373 H357 0.959 . S
C373 H358 0.959 . S
C373 H359 0.961 . S
C373 C372 1.502 . S
C374 H360 0.960 . S
C374 H361 0.961 . S
C374 H362 0.959 . S
C374 C372 1.561 . S
C375 C372 1.526 . S
C375 C376 1.396 . S
C375 C380 1.390 . S
C376 C370 1.465 . S
C376 C375 1.396 . S
C376 C377 1.399 . S
C377 H363 0.929 . S
C377 C376 1.399 . S
C377 C378 1.385 . S
C378 H364 0.931 . S
C378 C377 1.385 . S
C378 C379 1.389 . S
C379 C378 1.389 . S
C379 C380 1.387 . S
C380 H365 0.930 . S
C380 C375 1.390 . S
C380 C379 1.387 . S
H381 C393 0.930 . S
H382 C395 0.930 . S
H383 C396 0.930 . S
H384 C400 0.959 . S
H385 C400 0.959 . S
H386 C400 0.961 . S
H387 C401 0.960 . S
H388 C401 0.961 . S
H389 C401 0.959 . S
H390 C404 0.929 . S
H391 C405 0.931 . S
H392 C407 0.930 . S
C393 H381 0.930 . S
C393 C394 1.399 . S
C393 C398 1.399 . S
C394 C393 1.399 . S
C394 C395 1.376 . S
C395 H382 0.930 . S
C395 C394 1.376 . S
C395 C396 1.388 . S
C396 H383 0.930 . S
C396 C395 1.388 . S
C396 C397 1.390 . S
C397 C396 1.390 . S
C397 C398 1.394 . S
C397 C403 1.465 . S
C398 C393 1.399 . S
C398 C397 1.394 . S
C398 C399 1.516 . S
C399 C398 1.516 . S
C399 C400 1.502 . S
C399 C401 1.561 . S
C399 C402 1.526 . S
C400 H384 0.959 . S
C400 H385 0.959 . S
C400 H386 0.961 . S
C400 C399 1.502 . S
C401 H387 0.960 . S
C401 H388 0.961 . S
C401 H389 0.959 . S
C401 C399 1.561 . S
C402 C399 1.526 . S
C402 C403 1.396 . S
C402 C407 1.390 . S
C403 C397 1.465 . S
C403 C402 1.396 . S
C403 C404 1.399 . S
C404 H390 0.929 . S
C404 C403 1.399 . S
C404 C405 1.385 . S
C405 H391 0.931 . S
C405 C404 1.385 . S
C405 C406 1.389 . S
C406 C405 1.389 . S
C406 C407 1.387 . S
C407 H392 0.930 . S
C407 C402 1.390 . S
C407 C406 1.387 . S
H408 C420 0.930 . S
H409 C422 0.930 . S
H410 C423 0.930 . S
H411 C427 0.959 . S
H412 C427 0.959 . S
H413 C427 0.961 . S
H414 C428 0.960 . S
H415 C428 0.961 . S
H416 C428 0.959 . S
H417 C431 0.929 . S
H418 C432 0.931 . S
H419 C434 0.930 . S
C420 H408 0.930 . S
C420 C421 1.399 . S
C420 C425 1.399 . S
C421 C420 1.399 . S
C421 C422 1.376 . S
C422 H409 0.930 . S
C422 C421 1.376 . S
C422 C423 1.388 . S
C423 H410 0.930 . S
C423 C422 1.388 . S
C423 C424 1.390 . S
C424 C423 1.390 . S
C424 C425 1.394 . S
C424 C430 1.465 . S
C425 C420 1.399 . S
C425 C424 1.394 . S
C425 C426 1.516 . S
C426 C425 1.516 . S
C426 C427 1.502 . S
C426 C428 1.561 . S
C426 C429 1.526 . S
C427 H411 0.959 . S
C427 H412 0.959 . S
C427 H413 0.961 . S
C427 C426 1.502 . S
C428 H414 0.960 . S
C428 H415 0.961 . S
C428 H416 0.959 . S
C428 C426 1.561 . S
C429 C426 1.526 . S
C429 C430 1.396 . S
C429 C434 1.390 . S
C430 C424 1.465 . S
C430 C429 1.396 . S
C430 C431 1.399 . S
C431 H417 0.929 . S
C431 C430 1.399 . S
C431 C432 1.385 . S
C432 H418 0.931 . S
C432 C431 1.385 . S
C432 C433 1.389 . S
C433 C432 1.389 . S
C433 C434 1.387 . S
C434 H419 0.930 . S
C434 C429 1.390 . S
C434 C433 1.387 . S
H435 C447 0.935 . S
H436 C449 0.930 . S
H437 C450 0.930 . S
H438 C454 0.959 . S
H439 C454 0.959 . S
H440 C454 0.961 . S
H441 C455 0.960 . S
H442 C455 0.961 . S
H443 C455 0.959 . S
H444 C458 0.929 . S
H445 C459 0.931 . S
H446 C461 0.930 . S
C447 H435 0.935 . S
C447 C448 1.396 1_556 S
C447 C452 1.397 1_556 S
C448 C447 1.396 1_554 S
C448 C449 1.376 . S
C449 H436 0.930 . S
C449 C448 1.376 . S
C449 C450 1.388 . S
C450 H437 0.930 . S
C450 C449 1.388 . S
C450 C451 1.390 . S
C451 C450 1.390 . S
C451 C452 1.394 . S
C451 C457 1.465 . S
C452 C447 1.397 1_554 S
C452 C451 1.394 . S
C452 C453 1.516 1_554 S
C453 C452 1.516 1_556 S
C453 C454 1.502 . S
C453 C455 1.561 . S
C453 C456 1.526 1_556 S
C454 H438 0.959 . S
C454 H439 0.959 . S
C454 H440 0.961 . S
C454 C453 1.502 . S
C455 H441 0.960 . S
C455 H442 0.961 . S
C455 H443 0.959 . S
C455 C453 1.561 . S
C456 C453 1.526 1_554 S
C456 C457 1.396 . S
C456 C461 1.390 . S
C457 C451 1.465 . S
C457 C456 1.396 . S
C457 C458 1.399 . S
C458 H444 0.929 . S
C458 C457 1.399 . S
C458 C459 1.385 . S
C459 H445 0.931 . S
C459 C458 1.385 . S
C459 C460 1.389 . S
C460 C459 1.389 . S
C460 C461 1.387 . S
C461 H446 0.930 . S
C461 C456 1.390 . S
C461 C460 1.387 . S
H462 C474 0.930 . S
H463 C476 0.930 . S
H464 C477 0.930 . S
H465 C481 0.959 . S
H466 C481 0.959 . S
H467 C481 0.961 . S
H468 C482 0.960 . S
H469 C482 0.961 . S
H470 C482 0.959 . S
H471 C485 0.929 . S
H472 C486 0.931 . S
H473 C488 0.930 . S
C474 H462 0.930 . S
C474 C475 1.399 . S
C474 C479 1.399 . S
C475 C474 1.399 . S
C475 C476 1.376 . S
C476 H463 0.930 . S
C476 C475 1.376 . S
C476 C477 1.388 . S
C477 H464 0.930 . S
C477 C476 1.388 . S
C477 C478 1.390 . S
C478 C477 1.390 . S
C478 C479 1.394 . S
C478 C484 1.465 . S
C479 C474 1.399 . S
C479 C478 1.394 . S
C479 C480 1.516 . S
C480 C479 1.516 . S
C480 C481 1.502 . S
C480 C482 1.561 . S
C480 C483 1.526 . S
C481 H465 0.959 . S
C481 H466 0.959 . S
C481 H467 0.961 . S
C481 C480 1.502 . S
C482 H468 0.960 . S
C482 H469 0.961 . S
C482 H470 0.959 . S
C482 C480 1.561 . S
C483 C480 1.526 . S
C483 C484 1.396 . S
C483 C488 1.390 . S
C484 C478 1.465 . S
C484 C483 1.396 . S
C484 C485 1.399 . S
C485 H471 0.929 . S
C485 C484 1.399 . S
C485 C486 1.385 . S
C486 H472 0.931 . S
C486 C485 1.385 . S
C486 C487 1.389 . S
C487 C486 1.389 . S
C487 C488 1.387 . S
C488 H473 0.930 . S
C488 C483 1.390 . S
C488 C487 1.387 . S
H489 C501 0.930 . S
H490 C503 0.930 . S
H491 C504 0.930 . S
H492 C508 0.959 . S
H493 C508 0.959 . S
H494 C508 0.961 . S
H495 C509 0.960 . S
H496 C509 0.961 . S
H497 C509 0.959 . S
H498 C512 0.929 . S
H499 C513 0.931 . S
H500 C515 0.930 . S
C501 H489 0.930 . S
C501 C502 1.399 . S
C501 C506 1.399 . S
C502 C501 1.399 . S
C502 C503 1.376 . S
C503 H490 0.930 . S
C503 C502 1.376 . S
C503 C504 1.388 . S
C504 H491 0.930 . S
C504 C503 1.388 . S
C504 C505 1.390 . S
C505 C504 1.390 . S
C505 C506 1.394 . S
C505 C511 1.465 . S
C506 C501 1.399 . S
C506 C505 1.394 . S
C506 C507 1.516 . S
C507 C506 1.516 . S
C507 C508 1.502 . S
C507 C509 1.561 . S
C507 C510 1.526 . S
C508 H492 0.959 . S
C508 H493 0.959 . S
C508 H494 0.961 . S
C508 C507 1.502 . S
C509 H495 0.960 . S
C509 H496 0.961 . S
C509 H497 0.959 . S
C509 C507 1.561 . S
C510 C507 1.526 . S
C510 C511 1.396 . S
C510 C515 1.390 . S
C511 C505 1.465 . S
C511 C510 1.396 . S
C511 C512 1.399 . S
C512 H498 0.929 . S
C512 C511 1.399 . S
C512 C513 1.385 . S
C513 H499 0.931 . S
C513 C512 1.385 . S
C513 C514 1.389 . S
C514 C513 1.389 . S
C514 C515 1.387 . S
C515 H500 0.930 . S
C515 C510 1.390 . S
C515 C514 1.387 . S
H516 C528 0.930 . S
H517 C530 0.930 . S
H518 C531 0.930 . S
H519 C535 0.959 . S
H520 C535 0.959 . S
H521 C535 0.961 . S
H522 C536 0.960 . S
H523 C536 0.961 . S
H524 C536 0.959 . S
H525 C539 0.929 . S
H526 C540 0.931 . S
H527 C542 0.930 . S
C528 H516 0.930 . S
C528 C529 1.399 . S
C528 C533 1.399 . S
C529 C528 1.399 . S
C529 C530 1.376 . S
C530 H517 0.930 . S
C530 C529 1.376 . S
C530 C531 1.388 . S
C531 H518 0.930 . S
C531 C530 1.388 . S
C531 C532 1.390 . S
C532 C531 1.390 . S
C532 C533 1.394 . S
C532 C538 1.465 . S
C533 C528 1.399 . S
C533 C532 1.394 . S
C533 C534 1.516 . S
C534 C533 1.516 . S
C534 C535 1.502 . S
C534 C536 1.561 . S
C534 C537 1.526 . S
C535 H519 0.959 . S
C535 H520 0.959 . S
C535 H521 0.961 . S
C535 C534 1.502 . S
C536 H522 0.960 . S
C536 H523 0.961 . S
C536 H524 0.959 . S
C536 C534 1.561 . S
C537 C534 1.526 . S
C537 C538 1.396 . S
C537 C542 1.390 . S
C538 C532 1.465 . S
C538 C537 1.396 . S
C538 C539 1.399 . S
C539 H525 0.929 . S
C539 C538 1.399 . S
C539 C540 1.385 . S
C540 H526 0.931 . S
C540 C539 1.385 . S
C540 C541 1.389 . S
C541 C540 1.389 . S
C541 C542 1.387 . S
C542 H527 0.930 . S
C542 C537 1.390 . S
C542 C541 1.387 . S
H543 C555 0.930 . S
H544 C557 0.930 . S
H545 C558 0.930 . S
H546 C562 0.959 . S
H547 C562 0.959 . S
H548 C562 0.961 . S
H549 C563 0.960 . S
H550 C563 0.961 . S
H551 C563 0.959 . S
H552 C566 0.929 . S
H553 C567 0.931 . S
H554 C569 0.930 . S
C555 H543 0.930 . S
C555 C556 1.399 . S
C555 C560 1.399 . S
C556 C555 1.399 . S
C556 C557 1.376 . S
C557 H544 0.930 . S
C557 C556 1.376 . S
C557 C558 1.388 . S
C558 H545 0.930 . S
C558 C557 1.388 . S
C558 C559 1.390 . S
C559 C558 1.390 . S
C559 C560 1.394 . S
C559 C565 1.465 . S
C560 C555 1.399 . S
C560 C559 1.394 . S
C560 C561 1.516 . S
C561 C560 1.516 . S
C561 C562 1.502 . S
C561 C563 1.561 . S
C561 C564 1.526 . S
C562 H546 0.959 . S
C562 H547 0.959 . S
C562 H548 0.961 . S
C562 C561 1.502 . S
C563 H549 0.960 . S
C563 H550 0.961 . S
C563 H551 0.959 . S
C563 C561 1.561 . S
C564 C561 1.526 . S
C564 C565 1.396 . S
C564 C569 1.390 . S
C565 C559 1.465 . S
C565 C564 1.396 . S
C565 C566 1.399 . S
C566 H552 0.929 . S
C566 C565 1.399 . S
C566 C567 1.385 . S
C567 H553 0.931 . S
C567 C566 1.385 . S
C567 C568 1.389 . S
C568 C567 1.389 . S
C568 C569 1.387 . S
C569 H554 0.930 . S
C569 C564 1.390 . S
C569 C568 1.387 . S
H570 C582 0.930 . S
H571 C584 0.930 . S
H572 C585 0.930 . S
H573 C589 0.959 . S
H574 C589 0.959 . S
H575 C589 0.961 . S
H576 C590 0.960 . S
H577 C590 0.961 . S
H578 C590 0.959 . S
H579 C593 0.929 . S
H580 C594 0.931 . S
H581 C596 0.930 . S
C582 H570 0.930 . S
C582 C583 1.399 . S
C582 C587 1.399 . S
C583 C582 1.399 . S
C583 C584 1.376 . S
C584 H571 0.930 . S
C584 C583 1.376 . S
C584 C585 1.388 . S
C585 H572 0.930 . S
C585 C584 1.388 . S
C585 C586 1.390 . S
C586 C585 1.390 . S
C586 C587 1.394 . S
C586 C592 1.465 . S
C587 C582 1.399 . S
C587 C586 1.394 . S
C587 C588 1.516 . S
C588 C587 1.516 . S
C588 C589 1.502 . S
C588 C590 1.561 . S
C588 C591 1.526 . S
C589 H573 0.959 . S
C589 H574 0.959 . S
C589 H575 0.961 . S
C589 C588 1.502 . S
C590 H576 0.960 . S
C590 H577 0.961 . S
C590 H578 0.959 . S
C590 C588 1.561 . S
C591 C588 1.526 . S
C591 C592 1.396 . S
C591 C596 1.390 . S
C592 C586 1.465 . S
C592 C591 1.396 . S
C592 C593 1.399 . S
C593 H579 0.929 . S
C593 C592 1.399 . S
C593 C594 1.385 . S
C594 H580 0.931 . S
C594 C593 1.385 . S
C594 C595 1.389 . S
C595 C594 1.389 . S
C595 C596 1.387 . S
C596 H581 0.930 . S
C596 C591 1.390 . S
C596 C595 1.387 . S
H597 C609 0.930 . S
H598 C611 0.930 . S
H599 C612 0.930 . S
H600 C616 0.959 . S
H601 C616 0.959 1_554 S
H602 C616 0.961 . S
H603 C617 0.960 . S
H604 C617 0.961 . S
H605 C617 0.959 . S
H606 C620 0.929 . S
H607 C621 0.931 . S
H608 C623 0.936 . S
C609 H597 0.930 . S
C609 C610 1.399 . S
C609 C614 1.399 . S
C610 C609 1.399 . S
C610 C611 1.376 . S
C611 H598 0.930 . S
C611 C610 1.376 . S
C611 C612 1.388 . S
C612 H599 0.930 . S
C612 C611 1.388 . S
C612 C613 1.390 . S
C613 C612 1.390 . S
C613 C614 1.394 . S
C613 C619 1.465 . S
C614 C609 1.399 . S
C614 C613 1.394 . S
C614 C615 1.516 . S
C615 C614 1.516 . S
C615 C616 1.502 . S
C615 C617 1.561 . S
C615 C618 1.526 . S
C616 H600 0.959 . S
C616 H601 0.959 1_556 S
C616 H602 0.961 . S
C616 C615 1.502 . S
C617 H603 0.960 . S
C617 H604 0.961 . S
C617 H605 0.959 . S
C617 C615 1.561 . S
C618 C615 1.526 . S
C618 C619 1.396 . S
C618 C623 1.384 1_556 S
C619 C613 1.465 . S
C619 C618 1.396 . S
C619 C620 1.399 . S
C620 H606 0.929 . S
C620 C619 1.399 . S
C620 C621 1.385 . S
C621 H607 0.931 . S
C621 C620 1.385 . S
C621 C622 1.379 1_556 S
C622 C621 1.379 1_554 S
C622 C623 1.387 . S
C623 H608 0.936 . S
C623 C618 1.384 1_554 S
C623 C622 1.387 . S
H624 C636 0.930 . S
H625 C638 0.930 . S
H626 C639 0.930 . S
H627 C643 0.959 . S
H628 C643 0.959 . S
H629 C643 0.961 . S
H630 C644 0.960 . S
H631 C644 0.961 . S
H632 C644 0.959 . S
H633 C647 0.929 . S
H634 C648 0.931 . S
H635 C650 0.930 . S
C636 H624 0.930 . S
C636 C637 1.399 . S
C636 C641 1.399 . S
C637 C636 1.399 . S
C637 C638 1.376 . S
C638 H625 0.930 . S
C638 C637 1.376 . S
C638 C639 1.388 . S
C639 H626 0.930 . S
C639 C638 1.388 . S
C639 C640 1.390 . S
C640 C639 1.390 . S
C640 C641 1.394 . S
C640 C646 1.465 . S
C641 C636 1.399 . S
C641 C640 1.394 . S
C641 C642 1.516 . S
C642 C641 1.516 . S
C642 C643 1.502 . S
C642 C644 1.561 . S
C642 C645 1.526 . S
C643 H627 0.959 . S
C643 H628 0.959 . S
C643 H629 0.961 . S
C643 C642 1.502 . S
C644 H630 0.960 . S
C644 H631 0.961 . S
C644 H632 0.959 . S
C644 C642 1.561 . S
C645 C642 1.526 . S
C645 C646 1.396 . S
C645 C650 1.390 . S
C646 C640 1.465 . S
C646 C645 1.396 . S
C646 C647 1.399 . S
C647 H633 0.929 . S
C647 C646 1.399 . S
C647 C648 1.385 . S
C648 H634 0.931 . S
C648 C647 1.385 . S
C648 C649 1.389 . S
C649 C648 1.389 . S
C649 C650 1.387 . S
C650 H635 0.930 . S
C650 C645 1.390 . S
C650 C649 1.387 . S
H651 C663 0.930 . S
H652 C665 0.930 . S
H653 C666 0.930 . S
H654 C670 0.959 . S
H655 C670 0.959 . S
H656 C670 0.961 . S
H657 C671 0.960 . S
H658 C671 0.961 . S
H659 C671 0.959 . S
H660 C674 0.929 . S
H661 C675 0.931 . S
H662 C677 0.930 . S
C663 H651 0.930 . S
C663 C664 1.399 . S
C663 C668 1.399 . S
C664 C663 1.399 . S
C664 C665 1.376 . S
C665 H652 0.930 . S
C665 C664 1.376 . S
C665 C666 1.388 . S
C666 H653 0.930 . S
C666 C665 1.388 . S
C666 C667 1.390 . S
C667 C666 1.390 . S
C667 C668 1.394 . S
C667 C673 1.465 . S
C668 C663 1.399 . S
C668 C667 1.394 . S
C668 C669 1.516 . S
C669 C668 1.516 . S
C669 C670 1.502 . S
C669 C671 1.561 . S
C669 C672 1.526 . S
C670 H654 0.959 . S
C670 H655 0.959 . S
C670 H656 0.961 . S
C670 C669 1.502 . S
C671 H657 0.960 . S
C671 H658 0.961 . S
C671 H659 0.959 . S
C671 C669 1.561 . S
C672 C669 1.526 . S
C672 C673 1.396 . S
C672 C677 1.390 . S
C673 C667 1.465 . S
C673 C672 1.396 . S
C673 C674 1.399 . S
C674 H660 0.929 . S
C674 C673 1.399 . S
C674 C675 1.385 . S
C675 H661 0.931 . S
C675 C674 1.385 . S
C675 C676 1.389 . S
C676 C675 1.389 . S
C676 C677 1.387 . S
C677 H662 0.930 . S
C677 C672 1.390 . S
C677 C676 1.387 . S
H678 C690 0.930 . S
H679 C692 0.930 . S
H680 C693 0.930 . S
H681 C697 0.959 . S
H682 C697 0.959 . S
H683 C697 0.961 . S
H684 C698 0.960 . S
H685 C698 0.961 . S
H686 C698 0.959 . S
H687 C701 0.929 . S
H688 C702 0.931 . S
H689 C704 0.930 . S
C690 H678 0.930 . S
C690 C691 1.399 . S
C690 C695 1.399 . S
C691 C690 1.399 . S
C691 C692 1.376 . S
C692 H679 0.930 . S
C692 C691 1.376 . S
C692 C693 1.388 . S
C693 H680 0.930 . S
C693 C692 1.388 . S
C693 C694 1.390 . S
C694 C693 1.390 . S
C694 C695 1.394 . S
C694 C700 1.465 . S
C695 C690 1.399 . S
C695 C694 1.394 . S
C695 C696 1.516 . S
C696 C695 1.516 . S
C696 C697 1.502 . S
C696 C698 1.561 . S
C696 C699 1.526 . S
C697 H681 0.959 . S
C697 H682 0.959 . S
C697 H683 0.961 . S
C697 C696 1.502 . S
C698 H684 0.960 . S
C698 H685 0.961 . S
C698 H686 0.959 . S
C698 C696 1.561 . S
C699 C696 1.526 . S
C699 C700 1.396 . S
C699 C704 1.390 . S
C700 C694 1.465 . S
C700 C699 1.396 . S
C700 C701 1.399 . S
C701 H687 0.929 . S
C701 C700 1.399 . S
C701 C702 1.385 . S
C702 H688 0.931 . S
C702 C701 1.385 . S
C702 C703 1.389 . S
C703 C702 1.389 . S
C703 C704 1.387 . S
C704 H689 0.930 . S
C704 C699 1.390 . S
C704 C703 1.387 . S
H705 C717 0.930 . S
H706 C719 0.930 . S
H707 C720 0.930 . S
H708 C724 0.959 . S
H709 C724 0.959 . S
H710 C724 0.961 . S
H711 C725 0.960 . S
H712 C725 0.961 . S
H713 C725 0.959 . S
H714 C728 0.929 . S
H715 C729 0.931 . S
H716 C731 0.930 . S
C717 H705 0.930 . S
C717 C718 1.399 . S
C717 C722 1.399 . S
C718 C717 1.399 . S
C718 C719 1.376 . S
C719 H706 0.930 . S
C719 C718 1.376 . S
C719 C720 1.388 . S
C720 H707 0.930 . S
C720 C719 1.388 . S
C720 C721 1.390 . S
C721 C720 1.390 . S
C721 C722 1.394 . S
C721 C727 1.465 . S
C722 C717 1.399 . S
C722 C721 1.394 . S
C722 C723 1.516 . S
C723 C722 1.516 . S
C723 C724 1.502 . S
C723 C725 1.561 . S
C723 C726 1.526 . S
C724 H708 0.959 . S
C724 H709 0.959 . S
C724 H710 0.961 . S
C724 C723 1.502 . S
C725 H711 0.960 . S
C725 H712 0.961 . S
C725 H713 0.959 . S
C725 C723 1.561 . S
C726 C723 1.526 . S
C726 C727 1.396 . S
C726 C731 1.390 . S
C727 C721 1.465 . S
C727 C726 1.396 . S
C727 C728 1.399 . S
C728 H714 0.929 . S
C728 C727 1.399 . S
C728 C729 1.385 . S
C729 H715 0.931 . S
C729 C728 1.385 . S
C729 C730 1.389 . S
C730 C729 1.389 . S
C730 C731 1.387 . S
C731 H716 0.930 . S
C731 C726 1.390 . S
C731 C730 1.387 . S
H732 C744 0.930 . S
H733 C746 0.930 . S
H734 C747 0.930 . S
H735 C751 0.959 . S
H736 C751 0.959 . S
H737 C751 0.961 . S
H738 C752 0.960 . S
H739 C752 0.961 . S
H740 C752 0.959 . S
H741 C755 0.929 . S
H742 C756 0.931 . S
H743 C758 0.930 . S
C744 H732 0.930 . S
C744 C745 1.399 . S
C744 C749 1.399 . S
C745 C744 1.399 . S
C745 C746 1.376 . S
C746 H733 0.930 . S
C746 C745 1.376 . S
C746 C747 1.388 . S
C747 H734 0.930 . S
C747 C746 1.388 . S
C747 C748 1.390 . S
C748 C747 1.390 . S
C748 C749 1.394 . S
C748 C754 1.465 . S
C749 C744 1.399 . S
C749 C748 1.394 . S
C749 C750 1.516 . S
C750 C749 1.516 . S
C750 C751 1.502 . S
C750 C752 1.561 . S
C750 C753 1.526 . S
C751 H735 0.959 . S
C751 H736 0.959 . S
C751 H737 0.961 . S
C751 C750 1.502 . S
C752 H738 0.960 . S
C752 H739 0.961 . S
C752 H740 0.959 . S
C752 C750 1.561 . S
C753 C750 1.526 . S
C753 C754 1.396 . S
C753 C758 1.390 . S
C754 C748 1.465 . S
C754 C753 1.396 . S
C754 C755 1.399 . S
C755 H741 0.929 . S
C755 C754 1.399 . S
C755 C756 1.385 . S
C756 H742 0.931 . S
C756 C755 1.385 . S
C756 C757 1.389 . S
C757 C756 1.389 . S
C757 C758 1.387 . S
C758 H743 0.930 . S
C758 C753 1.390 . S
C758 C757 1.387 . S
H759 C771 0.930 . S
H760 C773 0.930 . S
H761 C774 0.930 . S
H762 C778 0.959 . S
H763 C778 0.959 . S
H764 C778 0.961 . S
H765 C779 0.960 . S
H766 C779 0.961 . S
H767 C779 0.959 . S
H768 C782 0.929 . S
H769 C783 0.931 . S
H770 C785 0.930 . S
C771 H759 0.930 . S
C771 C772 1.399 . S
C771 C776 1.399 . S
C772 C771 1.399 . S
C772 C773 1.376 . S
C773 H760 0.930 . S
C773 C772 1.376 . S
C773 C774 1.388 . S
C774 H761 0.930 . S
C774 C773 1.388 . S
C774 C775 1.390 . S
C775 C774 1.390 . S
C775 C776 1.394 . S
C775 C781 1.465 . S
C776 C771 1.399 . S
C776 C775 1.394 . S
C776 C777 1.516 . S
C777 C776 1.516 . S
C777 C778 1.502 . S
C777 C779 1.561 . S
C777 C780 1.526 . S
C778 H762 0.959 . S
C778 H763 0.959 . S
C778 H764 0.961 . S
C778 C777 1.502 . S
C779 H765 0.960 . S
C779 H766 0.961 . S
C779 H767 0.959 . S
C779 C777 1.561 . S
C780 C777 1.526 . S
C780 C781 1.396 . S
C780 C785 1.390 . S
C781 C775 1.465 . S
C781 C780 1.396 . S
C781 C782 1.399 . S
C782 H768 0.929 . S
C782 C781 1.399 . S
C782 C783 1.385 . S
C783 H769 0.931 . S
C783 C782 1.385 . S
C783 C784 1.389 . S
C784 C783 1.389 . S
C784 C785 1.387 . S
C785 H770 0.930 . S
C785 C780 1.390 . S
C785 C784 1.387 . S
H786 C798 0.930 . S
H787 C800 0.930 . S
H788 C801 0.930 . S
H789 C805 0.959 . S
H790 C805 0.959 . S
H791 C805 0.961 . S
H792 C806 0.960 . S
H793 C806 0.974 . S
H794 C806 0.967 . S
H795 C809 0.929 . S
H796 C810 0.931 . S
H797 C812 0.930 . S
C798 H786 0.930 . S
C798 C799 1.399 . S
C798 C803 1.399 . S
C799 C798 1.399 . S
C799 C800 1.376 . S
C800 H787 0.930 . S
C800 C799 1.376 . S
C800 C801 1.388 . S
C801 H788 0.930 . S
C801 C800 1.388 . S
C801 C802 1.390 . S
C802 C801 1.390 . S
C802 C803 1.394 . S
C802 C808 1.465 . S
C803 C798 1.399 . S
C803 C802 1.394 . S
C803 C804 1.516 . S
C804 C803 1.516 . S
C804 C805 1.502 . S
C804 C806 1.561 . S
C804 C807 1.526 . S
C805 H789 0.959 . S
C805 H790 0.959 . S
C805 H791 0.961 . S
C805 C804 1.502 . S
C806 H792 0.960 . S
C806 H793 0.974 . S
C806 H794 0.967 . S
C806 C804 1.561 . S
C807 C804 1.526 . S
C807 C808 1.396 . S
C807 C812 1.390 1_554 S
C808 C802 1.465 . S
C808 C807 1.396 . S
C808 C809 1.399 . S
C809 H795 0.929 . S
C809 C808 1.399 . S
C809 C810 1.385 1_554 S
C810 H796 0.931 . S
C810 C809 1.385 1_556 S
C810 C811 1.389 . S
C811 C810 1.389 . S
C811 C812 1.387 . S
C812 H797 0.930 . S
C812 C807 1.390 1_556 S
C812 C811 1.387 . S
H813 C825 0.930 . S
H814 C827 0.930 . S
H815 C828 0.930 . S
H816 C832 0.959 . S
H817 C832 0.959 . S
H818 C832 0.961 . S
H819 C833 0.960 . S
H820 C833 0.961 . S
H821 C833 0.959 . S
H822 C836 0.929 . S
H823 C837 0.931 . S
H824 C839 0.930 . S
C825 H813 0.930 . S
C825 C826 1.399 . S
C825 C830 1.399 . S
C826 C825 1.399 . S
C826 C827 1.376 . S
C827 H814 0.930 . S
C827 C826 1.376 . S
C827 C828 1.388 . S
C828 H815 0.930 . S
C828 C827 1.388 . S
C828 C829 1.390 . S
C829 C828 1.390 . S
C829 C830 1.394 . S
C829 C835 1.465 . S
C830 C825 1.399 . S
C830 C829 1.394 . S
C830 C831 1.516 . S
C831 C830 1.516 . S
C831 C832 1.502 . S
C831 C833 1.561 . S
C831 C834 1.526 . S
C832 H816 0.959 . S
C832 H817 0.959 . S
C832 H818 0.961 . S
C832 C831 1.502 . S
C833 H819 0.960 . S
C833 H820 0.961 . S
C833 H821 0.959 . S
C833 C831 1.561 . S
C834 C831 1.526 . S
C834 C835 1.396 . S
C834 C839 1.390 . S
C835 C829 1.465 . S
C835 C834 1.396 . S
C835 C836 1.399 . S
C836 H822 0.929 . S
C836 C835 1.399 . S
C836 C837 1.385 . S
C837 H823 0.931 . S
C837 C836 1.385 . S
C837 C838 1.389 . S
C838 C837 1.389 . S
C838 C839 1.387 . S
C839 H824 0.930 . S
C839 C834 1.390 . S
C839 C838 1.387 . S
C217 C181 1.582 . S
C205 C8 1.506 . S
C232 C26 1.550 . S
C244 C111 1.591 . S
C259 C50 1.511 . S
C271 C130 1.606 . S
C286 C68 1.517 . S
C298 C139 1.589 . S
C325 C153 1.586 . S
C313 C80 1.567 . S
C340 C104 1.572 . S
C352 C172 1.588 . S
C367 C32 1.551 . S
C379 C125 1.585 . S
C394 C44 1.495 . S
C406 C144 1.585 . S
C421 C62 1.564 . S
C433 C158 1.569 . S
C460 C167 1.576 . S
C448 C86 1.553 1_554 S
C487 C186 1.575 . S
C475 C98 1.539 . S
C514 C116 1.587 . S
C502 C14 1.495 . S
C529 C7 1.498 . S
C541 C131 1.509 . S
C556 C25 1.472 . S
C568 C143 1.490 . S
C595 C157 1.460 . S
C583 C52 1.470 . S
C610 C70 1.434 . S
C622 C173 1.519 . S
C649 C185 1.460 . S
C637 C79 1.497 . S
C676 C115 1.494 . S
C664 C106 1.434 . S
C703 C187 1.521 . S
C691 C34 1.453 . S
C718 C43 1.434 . S
C730 C117 1.518 . S
C757 C129 1.512 . S
C745 C61 1.463 . S
C772 C88 1.485 . S
C784 C145 1.492 . S
C799 C97 1.496 . S
C811 C159 1.528 . S
C826 C16 1.455 . S
C838 C171 1.514 . S
