# Generated by pormake.
# Topology wbl, (4,4)-cn, num edge types: 1
# Building blocks:
#     Node 0, Type 0, BuildingBlock: NAWXER_clean_linker_0, # of connection points: 4
#     Node 1, Type 0, BuildingBlock: NAWXER_clean_linker_0, # of connection points: 4
#     Node 2, Type 0, BuildingBlock: NAWXER_clean_linker_0, # of connection points: 4
#     Node 3, Type 0, BuildingBlock: NAWXER_clean_linker_0, # of connection points: 4
#     Node 4, Type 0, BuildingBlock: NAWXER_clean_linker_0, # of connection points: 4
#     Node 5, Type 0, BuildingBlock: NAWXER_clean_linker_0, # of connection points: 4
#     Node 6, Type 0, BuildingBlock: NAWXER_clean_linker_0, # of connection points: 4
#     Node 7, Type 0, BuildingBlock: NAWXER_clean_linker_0, # of connection points: 4
#     Node 8, Type 1, BuildingBlock: KUFVIS_clean_sbu_0, # of connection points: 4
#     Node 9, Type 1, BuildingBlock: KUFVIS_clean_sbu_0, # of connection points: 4
#     Node 10, Type 1, BuildingBlock: KUFVIS_clean_sbu_0, # of connection points: 4
#     Node 11, Type 1, BuildingBlock: KUFVIS_clean_sbu_0, # of connection points: 4
#     Node 12, Type 1, BuildingBlock: KUFVIS_clean_sbu_0, # of connection points: 4
#     Node 13, Type 1, BuildingBlock: KUFVIS_clean_sbu_0, # of connection points: 4
#     Node 14, Type 1, BuildingBlock: KUFVIS_clean_sbu_0, # of connection points: 4
#     Node 15, Type 1, BuildingBlock: KUFVIS_clean_sbu_0, # of connection points: 4
#     Edge 16, Type (0, 1), BuildingBlock: UVAHIK_clean_linker_0, # of connection points: 2
#     Edge 17, Type (0, 1), BuildingBlock: UVAHIK_clean_linker_0, # of connection points: 2
#     Edge 18, Type (0, 1), BuildingBlock: UVAHIK_clean_linker_0, # of connection points: 2
#     Edge 19, Type (0, 1), BuildingBlock: UVAHIK_clean_linker_0, # of connection points: 2
#     Edge 20, Type (0, 1), BuildingBlock: UVAHIK_clean_linker_0, # of connection points: 2
#     Edge 21, Type (0, 1), BuildingBlock: UVAHIK_clean_linker_0, # of connection points: 2
#     Edge 22, Type (0, 1), BuildingBlock: UVAHIK_clean_linker_0, # of connection points: 2
#     Edge 23, Type (0, 1), BuildingBlock: UVAHIK_clean_linker_0, # of connection points: 2
#     Edge 24, Type (0, 1), BuildingBlock: UVAHIK_clean_linker_0, # of connection points: 2
#     Edge 25, Type (0, 1), BuildingBlock: UVAHIK_clean_linker_0, # of connection points: 2
#     Edge 26, Type (0, 1), BuildingBlock: UVAHIK_clean_linker_0, # of connection points: 2
#     Edge 27, Type (0, 1), BuildingBlock: UVAHIK_clean_linker_0, # of connection points: 2
#     Edge 28, Type (0, 1), BuildingBlock: UVAHIK_clean_linker_0, # of connection points: 2
#     Edge 29, Type (0, 1), BuildingBlock: UVAHIK_clean_linker_0, # of connection points: 2
#     Edge 30, Type (0, 1), BuildingBlock: UVAHIK_clean_linker_0, # of connection points: 2
#     Edge 31, Type (0, 1), BuildingBlock: UVAHIK_clean_linker_0, # of connection points: 2
#     Edge 32, Type (0, 1), BuildingBlock: UVAHIK_clean_linker_0, # of connection points: 2
#     Edge 33, Type (0, 1), BuildingBlock: UVAHIK_clean_linker_0, # of connection points: 2
#     Edge 34, Type (0, 1), BuildingBlock: UVAHIK_clean_linker_0, # of connection points: 2
#     Edge 35, Type (0, 1), BuildingBlock: UVAHIK_clean_linker_0, # of connection points: 2
#     Edge 36, Type (0, 1), BuildingBlock: UVAHIK_clean_linker_0, # of connection points: 2
#     Edge 37, Type (0, 1), BuildingBlock: UVAHIK_clean_linker_0, # of connection points: 2
#     Edge 38, Type (0, 1), BuildingBlock: UVAHIK_clean_linker_0, # of connection points: 2
#     Edge 39, Type (0, 1), BuildingBlock: UVAHIK_clean_linker_0, # of connection points: 2
#     Edge 40, Type (0, 1), BuildingBlock: UVAHIK_clean_linker_0, # of connection points: 2
#     Edge 41, Type (0, 1), BuildingBlock: UVAHIK_clean_linker_0, # of connection points: 2
#     Edge 42, Type (0, 1), BuildingBlock: UVAHIK_clean_linker_0, # of connection points: 2
#     Edge 43, Type (0, 1), BuildingBlock: UVAHIK_clean_linker_0, # of connection points: 2
#     Edge 44, Type (0, 1), BuildingBlock: UVAHIK_clean_linker_0, # of connection points: 2
#     Edge 45, Type (0, 1), BuildingBlock: UVAHIK_clean_linker_0, # of connection points: 2
#     Edge 46, Type (0, 1), BuildingBlock: UVAHIK_clean_linker_0, # of connection points: 2
#     Edge 47, Type (0, 1), BuildingBlock: UVAHIK_clean_linker_0, # of connection points: 2
# Relax obj value: 0.160
# Max RMSD: 0.158
# Mean RMSD: 0.139
data_MOF--net-wbl--node1-KUFVIS_clean_sbu_0--node2-NAWXER_clean_linker_0--edge1-UVAHIK_clean_linker_0
_symmetry_space_group_name_H-M    P1
_symmetry_Int_Tables_number       1
_symmetry_cell_setting            triclinic
loop_
_symmetry_equiv_pos_as_xyz
'x, y, z'
_cell_length_a     55.957958
_cell_length_b     55.964962
_cell_length_c     96.479673
_cell_angle_alpha  90.00222
_cell_angle_beta   90.650373
_cell_angle_gamma 90.01958
loop_
_atom_site_label
_atom_site_type_symbol
_atom_site_fract_x
_atom_site_fract_y
_atom_site_fract_z
_atom_type_partial_charge
C0 C 0.0761 0.95238 0.34204 0.0
C1 C 0.08636 0.96132 0.3544 0.0
C2 C 0.06192 0.96696 0.33355 0.0
C3 C 0.05861 0.99124 0.33678 0.0
C4 C 0.083 0.98566 0.35757 0.0
C5 C 0.0695 0.00041 0.34882 0.0
C6 C 0.04151 0.00642 0.32881 0.0
C7 C 0.09416 0.98021 0.29814 0.0
C8 C 0.08464 0.96525 0.28777 0.0
C9 C 0.07909 0.99366 0.30651 0.0
C10 C 0.05417 0.99195 0.3049 0.0
C11 C 0.05979 0.9645 0.28566 0.0
C12 C 0.04467 0.97775 0.29417 0.0
C13 C 0.03797 0.00507 0.31425 0.0
C14 C 0.95842 0.07602 0.30368 0.0
C15 C 0.94125 0.06102 0.29747 0.0
C16 C 0.97923 0.06632 0.30954 0.0
C17 C 0.98319 0.04155 0.30911 0.0
C18 C 0.9456 0.03635 0.29674 0.0
C19 C 0.96653 0.02673 0.30239 0.0
C20 C 0.00409 0.03069 0.31607 0.0
C21 C 0.95523 0.05409 0.35086 0.0
C22 C 0.9655 0.07198 0.35929 0.0
C23 C 0.96901 0.04199 0.34111 0.0
C24 C 0.99329 0.04756 0.3396 0.0
C25 C 0.98971 0.07789 0.35744 0.0
C26 C 0.00351 0.06562 0.34779 0.0
C27 C 0.00861 0.03334 0.33037 0.0
H28 H 0.07847 0.93393 0.33901 0.0
H29 H 0.05295 0.9589 0.32473 0.0
H30 H 0.08994 0.9933 0.3671 0.0
H31 H 0.06694 0.01892 0.35175 0.0
H32 H 0.11331 0.98147 0.29978 0.0
H33 H 0.08692 0.00517 0.31436 0.0
H34 H 0.05202 0.95311 0.27772 0.0
H35 H 0.02551 0.9764 0.2926 0.0
H36 H 0.95539 0.0951 0.30437 0.0
H37 H 0.99205 0.07805 0.31458 0.0
H38 H 0.93269 0.02449 0.29188 0.0
H39 H 0.96934 0.00759 0.30192 0.0
H40 H 0.9368 0.04874 0.35214 0.0
H41 H 0.96091 0.02774 0.33508 0.0
H42 H 0.99813 0.09183 0.36356 0.0
H43 H 0.02225 0.07009 0.3468 0.0
N44 N 0.02696 0.02096 0.3362 0.0
N45 N 0.01903 0.01683 0.30851 0.0
C46 C 0.94353 0.43714 0.59835 0.0
C47 C 0.95586 0.42658 0.60958 0.0
C48 C 0.95558 0.45176 0.58896 0.0
C49 C 0.98027 0.45577 0.59046 0.0
C50 C 0.98061 0.43056 0.61096 0.0
C51 C 0.99263 0.44498 0.60153 0.0
C52 C 0.99306 0.47286 0.58144 0.0
C53 C 0.96824 0.41451 0.55295 0.0
C54 C 0.95207 0.42171 0.5425 0.0
C55 C 0.98045 0.43143 0.56095 0.0
C56 C 0.97649 0.45592 0.5588 0.0
C57 C 0.94827 0.44625 0.54028 0.0
C58 C 0.9605 0.4632 0.54831 0.0
C59 C 0.99004 0.47395 0.56686 0.0
C60 C 0.06511 0.54496 0.55045 0.0
C61 C 0.05197 0.56123 0.54227 0.0
C62 C 0.05345 0.52732 0.55805 0.0
C63 C 0.02844 0.52555 0.55758 0.0
C64 C 0.02692 0.55892 0.54156 0.0
C65 C 0.0153 0.5411 0.54906 0.0
C66 C 0.01598 0.50771 0.56611 0.0
C67 C 0.04025 0.5644 0.5966 0.0
C68 C 0.05968 0.55665 0.60476 0.0
C69 C 0.02748 0.54812 0.5884 0.0
C70 C 0.03374 0.52384 0.58844 0.0
C71 C 0.06625 0.53244 0.60454 0.0
C72 C 0.05317 0.51609 0.59656 0.0
C73 C 0.01931 0.50634 0.58057 0.0
H74 H 0.92451 0.43439 0.59692 0.0
H75 H 0.94542 0.46042 0.58077 0.0
H76 H 0.99064 0.42322 0.61962 0.0
H77 H 0.0116 0.44804 0.60303 0.0
H78 H 0.97141 0.39574 0.55501 0.0
H79 H 0.99319 0.42534 0.56871 0.0
H80 H 0.93616 0.45236 0.5322 0.0
H81 H 0.95744 0.48202 0.54635 0.0
H82 H 0.08443 0.54585 0.55101 0.0
H83 H 0.06395 0.51511 0.56434 0.0
H84 H 0.01617 0.5713 0.53554 0.0
H85 H 0.99598 0.53993 0.54856 0.0
H86 H 0.03486 0.58299 0.59666 0.0
H87 H 0.01235 0.55437 0.5823 0.0
H88 H 0.08101 0.52605 0.61089 0.0
H89 H 0.05814 0.49738 0.59676 0.0
N90 N 0.00776 0.48902 0.58769 0.0
N91 N 0.00145 0.49151 0.55977 0.0
C92 C 0.56842 0.46291 0.84692 0.0
C93 C 0.58351 0.47465 0.8565 0.0
C94 C 0.55556 0.47588 0.83697 0.0
C95 C 0.5575 0.50086 0.8364 0.0
C96 C 0.5861 0.49963 0.8555 0.0
C97 C 0.57298 0.51262 0.84566 0.0
C98 C 0.54142 0.51481 0.82726 0.0
C99 C 0.59397 0.47819 0.80025 0.0
C100 C 0.58413 0.46205 0.7906 0.0
C101 C 0.57933 0.49408 0.80736 0.0
C102 C 0.55446 0.49378 0.80521 0.0
C103 C 0.55938 0.46232 0.78806 0.0
C104 C 0.54467 0.47805 0.79531 0.0
C105 C 0.53865 0.5102 0.81293 0.0
C106 C 0.4602 0.58 0.79675 0.0
C107 C 0.44422 0.5641 0.79023 0.0
C108 C 0.48067 0.57134 0.80351 0.0
C109 C 0.48543 0.54669 0.80376 0.0
C110 C 0.44964 0.53961 0.78996 0.0
C111 C 0.47019 0.53101 0.79657 0.0
C112 C 0.50539 0.53681 0.81207 0.0
C113 C 0.45128 0.56257 0.84305 0.0
C114 C 0.45979 0.58023 0.85223 0.0
C115 C 0.46696 0.55054 0.83432 0.0
C116 C 0.49142 0.55617 0.83443 0.0
C117 C 0.48422 0.58614 0.85214 0.0
C118 C 0.49991 0.57409 0.84339 0.0
C119 C 0.50848 0.54178 0.82633 0.0
H120 H 0.56557 0.4438 0.8475 0.0
H121 H 0.54328 0.46649 0.83013 0.0
H122 H 0.59787 0.50926 0.86251 0.0
H123 H 0.57462 0.53191 0.84541 0.0
H124 H 0.61308 0.47872 0.80217 0.0
H125 H 0.58753 0.50669 0.81447 0.0
H126 H 0.55136 0.45007 0.78066 0.0
H127 H 0.52557 0.47765 0.79335 0.0
H128 H 0.45637 0.59896 0.7971 0.0
H129 H 0.49243 0.58377 0.80883 0.0
H130 H 0.43771 0.52705 0.78486 0.0
H131 H 0.47363 0.51196 0.79657 0.0
H132 H 0.43255 0.55769 0.84283 0.0
H133 H 0.46004 0.53631 0.82782 0.0
H134 H 0.49139 0.59939 0.85923 0.0
H135 H 0.51877 0.57844 0.84379 0.0
N136 N 0.52641 0.5306 0.83336 0.0
N137 N 0.52057 0.52122 0.80591 0.0
C138 C 0.47184 0.91419 0.05182 0.0
C139 C 0.45448 0.92281 0.04244 0.0
C140 C 0.48538 0.92996 0.05987 0.0
C141 C 0.48167 0.95471 0.05886 0.0
C142 C 0.45068 0.94759 0.04145 0.0
C143 C 0.46432 0.96341 0.04952 0.0
C144 C 0.4971 0.97148 0.06673 0.0
C145 C 0.45414 0.93633 0.10057 0.0
C146 C 0.46761 0.92189 0.10971 0.0
C147 C 0.46549 0.95065 0.09076 0.0
C148 C 0.49051 0.95088 0.08991 0.0
C149 C 0.49265 0.9215 0.1084 0.0
C150 C 0.50397 0.93606 0.09872 0.0
C151 C 0.5028 0.96828 0.08092 0.0
C152 C 0.55501 0.05616 0.09734 0.0
C153 C 0.57545 0.04698 0.10414 0.0
C154 C 0.54056 0.04138 0.08914 0.0
C155 C 0.5461 0.01709 0.08766 0.0
C156 C 0.58123 0.0227 0.10225 0.0
C157 C 0.56651 0.00785 0.09425 0.0
C158 C 0.52987 0.00103 0.07992 0.0
C159 C 0.57017 0.04418 0.04918 0.0
C160 C 0.55577 0.06147 0.04259 0.0
C161 C 0.5598 0.02545 0.05656 0.0
C162 C 0.53486 0.02362 0.05747 0.0
C163 C 0.53074 0.05914 0.04322 0.0
C164 C 0.52041 0.04026 0.0505 0.0
C165 C 0.5238 0.00462 0.06586 0.0
H166 H 0.47503 0.89519 0.05292 0.0
H167 H 0.49912 0.92278 0.06668 0.0
H168 H 0.43758 0.95475 0.03423 0.0
H169 H 0.46138 0.98246 0.04844 0.0
H170 H 0.43489 0.93742 0.10139 0.0
H171 H 0.45476 0.96232 0.08425 0.0
H172 H 0.5036 0.91025 0.11503 0.0
H173 H 0.5233 0.93599 0.09824 0.0
H174 H 0.54964 0.07458 0.09872 0.0
H175 H 0.52463 0.04874 0.08429 0.0
H176 H 0.59704 0.01505 0.10706 0.0
H177 H 0.57105 0.98912 0.09319 0.0
H178 H 0.58947 0.0451 0.04867 0.0
H179 H 0.57128 0.01244 0.06161 0.0
H180 H 0.51908 0.07226 0.03844 0.0
H181 H 0.50111 0.0391 0.05106 0.0
N182 N 0.50765 0.98971 0.05975 0.0
N183 N 0.51914 0.98306 0.08694 0.0
C184 C 0.03832 0.56289 0.90377 0.0
C185 C 0.04455 0.55001 0.89184 0.0
C186 C 0.0252 0.5519 0.91427 0.0
C187 C 0.01859 0.5277 0.91316 0.0
C188 C 0.03832 0.52576 0.89087 0.0
C189 C 0.02551 0.51474 0.9014 0.0
C190 C 0.00254 0.5162 0.92333 0.0
C191 C 0.06843 0.53257 0.94792 0.0
C192 C 0.06571 0.55056 0.95793 0.0
C193 C 0.04851 0.52272 0.94128 0.0
C194 C 0.02545 0.53069 0.94449 0.0
C195 C 0.04264 0.55864 0.96112 0.0
C196 C 0.0226 0.54855 0.95455 0.0
C197 C 0.00446 0.51933 0.93783 0.0
C198 C 0.93352 0.44741 0.959 0.0
C199 C 0.92097 0.46101 0.96878 0.0
C200 C 0.94978 0.45832 0.95015 0.0
C201 C 0.95357 0.4831 0.95072 0.0
C202 C 0.92556 0.48569 0.96972 0.0
C203 C 0.9418 0.4966 0.96081 0.0
C204 C 0.96994 0.49492 0.94093 0.0
C205 C 0.90945 0.46821 0.91247 0.0
C206 C 0.91715 0.44953 0.90386 0.0
C207 C 0.92602 0.48121 0.92042 0.0
C208 C 0.95048 0.47588 0.91968 0.0
C209 C 0.94155 0.4437 0.90359 0.0
C210 C 0.95808 0.45693 0.91132 0.0
C211 C 0.96859 0.49115 0.92649 0.0
H212 H 0.0427 0.58168 0.90468 0.0
H213 H 0.01949 0.56259 0.92298 0.0
H214 H 0.04313 0.51536 0.88185 0.0
H215 H 0.02063 0.4961 0.90024 0.0
H216 H 0.08602 0.52614 0.9452 0.0
H217 H 0.05111 0.5086 0.93376 0.0
H218 H 0.0401 0.57238 0.96887 0.0
H219 H 0.00492 0.55473 0.95726 0.0
H220 H 0.93035 0.42842 0.95791 0.0
H221 H 0.95924 0.44736 0.94276 0.0
H222 H 0.9165 0.49661 0.97729 0.0
H223 H 0.94478 0.51569 0.96158 0.0
H224 H 0.89073 0.47307 0.9128 0.0
H225 H 0.91988 0.49597 0.92671 0.0
H226 H 0.94801 0.42965 0.89688 0.0
H227 H 0.97691 0.45268 0.91055 0.0
N228 N 0.98481 0.50201 0.91828 0.0
N229 N 0.98789 0.50885 0.94609 0.0
C230 C 0.45924 0.55951 0.15424 0.0
C231 C 0.47156 0.57464 0.14509 0.0
C232 C 0.47162 0.54663 0.16444 0.0
C233 C 0.49656 0.54841 0.16562 0.0
C234 C 0.49649 0.57713 0.14677 0.0
C235 C 0.50887 0.56387 0.15679 0.0
C236 C 0.50998 0.53244 0.17507 0.0
C237 C 0.4777 0.5879 0.20195 0.0
C238 C 0.46225 0.57992 0.21237 0.0
C239 C 0.49135 0.57173 0.19444 0.0
C240 C 0.48935 0.54706 0.19682 0.0
C241 C 0.46033 0.55521 0.21483 0.0
C242 C 0.47381 0.53895 0.20714 0.0
C243 C 0.50477 0.52999 0.1893 0.0
C244 C 0.57747 0.45887 0.20954 0.0
C245 C 0.56302 0.4406 0.215 0.0
C246 C 0.56738 0.47738 0.20172 0.0
C247 C 0.54263 0.47821 0.1994 0.0
C248 C 0.53812 0.44182 0.21275 0.0
C249 C 0.52803 0.46061 0.20518 0.0
C250 C 0.53186 0.49717 0.19079 0.0
C251 C 0.56251 0.44613 0.15869 0.0
C252 C 0.58014 0.45652 0.15032 0.0
C253 C 0.54972 0.4601 0.16806 0.0
C254 C 0.55438 0.48466 0.16923 0.0
C255 C 0.58578 0.48082 0.15223 0.0
C256 C 0.57284 0.49478 0.16149 0.0
C257 C 0.5379 0.50046 0.17678 0.0
H258 H 0.44017 0.55673 0.15317 0.0
H259 H 0.46181 0.53445 0.17101 0.0
H260 H 0.50657 0.589 0.14018 0.0
H261 H 0.52814 0.56547 0.15755 0.0
H262 H 0.47944 0.60673 0.19961 0.0
H263 H 0.50386 0.57869 0.18699 0.0
H264 H 0.44886 0.54845 0.2229 0.0
H265 H 0.47222 0.52003 0.20933 0.0
H266 H 0.59661 0.45893 0.21128 0.0
H267 H 0.57889 0.49106 0.19747 0.0
H268 H 0.52636 0.42793 0.21648 0.0
H269 H 0.50886 0.46098 0.20345 0.0
H270 H 0.55749 0.42757 0.15737 0.0
H271 H 0.5352 0.45201 0.17372 0.0
H272 H 0.59955 0.48929 0.14616 0.0
H273 H 0.57665 0.51373 0.16223 0.0
N274 N 0.52659 0.51784 0.16943 0.0
N275 N 0.51566 0.51215 0.19659 0.0
C276 C 0.42456 0.95938 0.40293 0.0
C277 C 0.4095 0.97188 0.39369 0.0
C278 C 0.44005 0.97169 0.41186 0.0
C279 C 0.44075 0.99677 0.41177 0.0
C280 C 0.40989 0.99704 0.39386 0.0
C281 C 0.42553 0.00934 0.40273 0.0
C282 C 0.45874 0.00978 0.42022 0.0
C283 C 0.40594 0.98009 0.44911 0.0
C284 C 0.41441 0.96145 0.45759 0.0
C285 C 0.42179 0.99445 0.44185 0.0
C286 C 0.44649 0.9903 0.44273 0.0
C287 C 0.43919 0.95798 0.45902 0.0
C288 C 0.45514 0.97236 0.45165 0.0
C289 C 0.46306 0.00489 0.43439 0.0
C290 C 0.54125 0.07444 0.44963 0.0
C291 C 0.55831 0.05896 0.4556 0.0
C292 C 0.52118 0.06531 0.4427 0.0
C293 C 0.51773 0.04054 0.44168 0.0
C294 C 0.55448 0.03413 0.45471 0.0
C295 C 0.53427 0.02505 0.44794 0.0
C296 C 0.49703 0.03056 0.43405 0.0
C297 C 0.54438 0.05988 0.39986 0.0
C298 C 0.53356 0.07834 0.39211 0.0
C299 C 0.53122 0.04696 0.40956 0.0
C300 C 0.50703 0.05227 0.41168 0.0
C301 C 0.50964 0.08434 0.39483 0.0
C302 C 0.49646 0.07125 0.4044 0.0
C303 C 0.49191 0.03641 0.42011 0.0
H304 H 0.42513 0.94004 0.4029 0.0
H305 H 0.45208 0.96157 0.41848 0.0
H306 H 0.39831 0.00726 0.38703 0.0
H307 H 0.42586 0.02869 0.40245 0.0
H308 H 0.38696 0.98362 0.44811 0.0
H309 H 0.41469 0.00876 0.43547 0.0
H310 H 0.44618 0.94381 0.46555 0.0
H311 H 0.47417 0.96909 0.45263 0.0
H312 H 0.54332 0.09364 0.45034 0.0
H313 H 0.50833 0.07757 0.43815 0.0
H314 H 0.56737 0.02162 0.45895 0.0
H315 H 0.53189 0.00587 0.44725 0.0
H316 H 0.56263 0.05452 0.39792 0.0
H317 H 0.5396 0.03205 0.41487 0.0
H318 H 0.50086 0.09872 0.38926 0.0
H319 H 0.47779 0.07558 0.40588 0.0
N320 N 0.47307 0.02565 0.41369 0.0
N321 N 0.48232 0.01513 0.44074 0.0
C322 C 0.05712 0.93935 0.65801 0.0
C323 C 0.04468 0.92843 0.64694 0.0
C324 C 0.04516 0.95418 0.66732 0.0
C325 C 0.02044 0.9581 0.66588 0.0
C326 C 0.0199 0.93226 0.64564 0.0
C327 C 0.00797 0.94692 0.65498 0.0
C328 C 0.00777 0.97551 0.67475 0.0
C329 C 0.0318 0.91792 0.70379 0.0
C330 C 0.04787 0.9251 0.7143 0.0
C331 C 0.02004 0.93483 0.69559 0.0
C332 C 0.0244 0.95931 0.69754 0.0
C333 C 0.05208 0.94963 0.71633 0.0
C334 C 0.04032 0.96658 0.70807 0.0
C335 C 0.01116 0.97731 0.68927 0.0
C336 C 0.93736 0.04944 0.7057 0.0
C337 C 0.95102 0.06595 0.71344 0.0
C338 C 0.94851 0.03153 0.69806 0.0
C339 C 0.97351 0.02971 0.69803 0.0
C340 C 0.97609 0.06368 0.71359 0.0
C341 C 0.98719 0.04558 0.70606 0.0
C342 C 0.98544 0.01127 0.68966 0.0
C343 C 0.95779 0.06511 0.6582 0.0
C344 C 0.93896 0.05593 0.65005 0.0
C345 C 0.97119 0.04998 0.66681 0.0
C346 C 0.9661 0.02543 0.66724 0.0
C347 C 0.93353 0.03146 0.65078 0.0
C348 C 0.94718 0.01629 0.65919 0.0
C349 C 0.9814 0.00893 0.6753 0.0
H350 H 0.07618 0.93672 0.65936 0.0
H351 H 0.0554 0.96312 0.67538 0.0
H352 H 0.00977 0.92462 0.6371 0.0
H353 H 0.98897 0.94988 0.65353 0.0
H354 H 0.02833 0.89917 0.70185 0.0
H355 H 0.0073 0.92874 0.68783 0.0
H356 H 0.06413 0.95574 0.72444 0.0
H357 H 0.04367 0.9854 0.7099 0.0
H358 H 0.91803 0.05029 0.70557 0.0
H359 H 0.9376 0.01908 0.69216 0.0
H360 H 0.98722 0.07624 0.71925 0.0
H361 H 0.00652 0.04438 0.70619 0.0
H362 H 0.96231 0.08392 0.65778 0.0
H363 H 0.98594 0.0573 0.67281 0.0
H364 H 0.9193 0.02392 0.64446 0.0
H365 H 0.94313 0.99736 0.65933 0.0
N366 N 0.99277 0.99124 0.66838 0.0
N367 N 0.00011 0.99536 0.69615 0.0
Mn368 Mn 0.33476 0.67225 0.00195 0.0
Mn369 Mn 0.34689 0.61329 0.00385 0.0
C370 C 0.34533 0.65512 0.02296 0.0
C371 C 0.34717 0.71138 0.9983 0.0
C372 C 0.29664 0.63316 0.00127 0.0
O373 O 0.34048 0.66332 0.98181 0.0
O374 O 0.35032 0.62446 0.98441 0.0
C375 C 0.39839 0.6146 0.99722 0.0
N376 N 0.38052 0.60844 0.00599 0.0
C377 C 0.40838 0.58995 0.02184 0.0
C378 C 0.42709 0.59598 0.01295 0.0
C379 C 0.42208 0.60844 0.00061 0.0
C380 C 0.38515 0.59661 0.01793 0.0
H381 H 0.39459 0.62412 0.98771 0.0
C382 C 0.34718 0.64321 0.97696 0.0
O383 O 0.32491 0.70529 0.99674 0.0
O384 O 0.36219 0.69466 0.00167 0.0
N385 N 0.34444 0.60022 0.0221 0.0
C386 C 0.32457 0.59708 0.02993 0.0
C387 C 0.32663 0.58565 0.04285 0.0
C388 C 0.34901 0.57734 0.0475 0.0
C389 C 0.36915 0.58059 0.03919 0.0
C390 C 0.36603 0.59215 0.02643 0.0
H391 H 0.30732 0.60334 0.02638 0.0
O392 O 0.33355 0.67508 0.02262 0.0
O393 O 0.35048 0.64582 0.01102 0.0
O394 O 0.30236 0.65522 0.00141 0.0
O395 O 0.31193 0.61627 0.00196 0.0
C396 C 0.39225 0.57305 0.04314 0.0
C397 C 0.41188 0.57785 0.03451 0.0
H398 H 0.44538 0.59128 0.01553 0.0
H399 H 0.43643 0.61324 0.99372 0.0
H400 H 0.311 0.58324 0.0492 0.0
H401 H 0.35054 0.56861 0.05749 0.0
H402 H 0.39519 0.56391 0.05291 0.0
H403 H 0.42962 0.57237 0.03779 0.0
Mn404 Mn 0.32032 0.83175 0.25409 0.0
Mn405 Mn 0.37699 0.83867 0.26575 0.0
C406 C 0.32785 0.84141 0.27703 0.0
C407 C 0.28528 0.8475 0.24463 0.0
C408 C 0.35447 0.79035 0.26022 0.0
O409 O 0.33876 0.83605 0.23622 0.0
O410 O 0.37576 0.84154 0.24517 0.0
C411 C 0.38339 0.88956 0.25826 0.0
N412 N 0.3836 0.87197 0.26801 0.0
C413 C 0.3953 0.89976 0.28588 0.0
C414 C 0.39535 0.91815 0.27601 0.0
C415 C 0.38931 0.91303 0.26215 0.0
C416 C 0.3893 0.87671 0.28139 0.0
H417 H 0.37871 0.88572 0.2476 0.0
C418 C 0.36107 0.84015 0.23488 0.0
O419 O 0.28994 0.8248 0.24386 0.0
O420 O 0.30144 0.86103 0.25034 0.0
N421 N 0.3807 0.83667 0.28548 0.0
C422 C 0.37849 0.81721 0.29385 0.0
C423 C 0.38352 0.81938 0.30809 0.0
C424 C 0.39083 0.84149 0.31356 0.0
C425 C 0.39297 0.86127 0.30475 0.0
C426 C 0.38796 0.85797 0.29062 0.0
H427 H 0.37275 0.80022 0.28972 0.0
O428 O 0.30787 0.83125 0.27348 0.0
O429 O 0.34282 0.84534 0.26711 0.0
O430 O 0.33411 0.79808 0.2562 0.0
O431 O 0.37167 0.80388 0.26409 0.0
C432 C 0.39947 0.88422 0.30946 0.0
C433 C 0.40056 0.90347 0.30004 0.0
H434 H 0.39981 0.93629 0.27898 0.0
H435 H 0.3892 0.92715 0.25449 0.0
H436 H 0.38169 0.80406 0.31484 0.0
H437 H 0.39457 0.84312 0.32456 0.0
H438 H 0.40331 0.88735 0.32034 0.0
H439 H 0.40524 0.92111 0.30382 0.0
Mn440 Mn 0.17237 0.82805 0.49807 0.0
Mn441 Mn 0.11376 0.83445 0.49037 0.0
C442 C 0.16 0.83492 0.47547 0.0
C443 C 0.2089 0.84471 0.50452 0.0
C444 C 0.13693 0.78646 0.49581 0.0
O445 O 0.15803 0.83452 0.51696 0.0
O446 O 0.11937 0.839 0.5106 0.0
C447 C 0.11001 0.8861 0.4966 0.0
N448 N 0.10732 0.86764 0.48753 0.0
C449 C 0.09266 0.89405 0.46968 0.0
C450 C 0.09514 0.91334 0.47887 0.0
C451 C 0.10392 0.90935 0.49237 0.0
C452 C 0.09909 0.87131 0.47447 0.0
H453 H 0.1168 0.88311 0.50698 0.0
C454 C 0.13616 0.83853 0.51975 0.0
O455 O 0.20474 0.82208 0.5063 0.0
O456 O 0.19168 0.85758 0.49942 0.0
N457 N 0.10563 0.83067 0.47118 0.0
C458 C 0.10487 0.81023 0.4635 0.0
C459 C 0.09631 0.81107 0.44978 0.0
C460 C 0.08852 0.83287 0.44411 0.0
C461 C 0.0895 0.85368 0.4522 0.0
C462 C 0.0979 0.85167 0.46587 0.0
H463 H 0.11081 0.79344 0.4678 0.0
O464 O 0.18061 0.82519 0.478 0.0
O465 O 0.14733 0.84035 0.48621 0.0
O466 O 0.15804 0.79431 0.49812 0.0
O467 O 0.11916 0.79988 0.49275 0.0
C468 C 0.08255 0.87633 0.44722 0.0
C469 C 0.08428 0.89653 0.45593 0.0
H470 H 0.09047 0.9313 0.47564 0.0
H471 H 0.10597 0.92415 0.4995 0.0
H472 H 0.09569 0.79495 0.44359 0.0
H473 H 0.08182 0.83338 0.43355 0.0
H474 H 0.07604 0.87846 0.43668 0.0
H475 H 0.07914 0.91389 0.45193 0.0
Mn476 Mn 0.1688 0.67249 0.74669 0.0
Mn477 Mn 0.16105 0.61413 0.73899 0.0
C478 C 0.16374 0.66051 0.72392 0.0
C479 C 0.15345 0.70968 0.75258 0.0
C480 C 0.2092 0.63561 0.74627 0.0
O481 O 0.15986 0.65827 0.76533 0.0
O482 O 0.15437 0.6199 0.75891 0.0
C483 C 0.10868 0.61216 0.74291 0.0
N484 N 0.12805 0.60872 0.73472 0.0
C485 C 0.10329 0.5943 0.71596 0.0
C486 C 0.08308 0.59755 0.72421 0.0
C487 C 0.08579 0.60659 0.73773 0.0
C488 C 0.12563 0.60025 0.72166 0.0
H489 H 0.11069 0.61912 0.75329 0.0
C490 C 0.15454 0.63659 0.76801 0.0
O491 O 0.17559 0.70421 0.75522 0.0
O492 O 0.14016 0.69334 0.74688 0.0
N493 N 0.16672 0.60574 0.72008 0.0
C494 C 0.18795 0.60425 0.71335 0.0
C495 C 0.18842 0.59528 0.69977 0.0
C496 C 0.1671 0.58782 0.69328 0.0
C497 C 0.14546 0.5896 0.70039 0.0
C498 C 0.14615 0.59835 0.71398 0.0
H499 H 0.20439 0.60986 0.71831 0.0
O500 O 0.17396 0.68076 0.72676 0.0
O501 O 0.15675 0.64797 0.73445 0.0
O502 O 0.20183 0.65694 0.74808 0.0
O503 O 0.1955 0.61826 0.74286 0.0
C504 C 0.12323 0.58314 0.6945 0.0
C505 C 0.10214 0.58563 0.70225 0.0
H506 H 0.0654 0.59328 0.72025 0.0
H507 H 0.07027 0.60923 0.74414 0.0
H508 H 0.20518 0.59404 0.69433 0.0
H509 H 0.16758 0.58072 0.68285 0.0
H510 H 0.12211 0.57648 0.68396 0.0
H511 H 0.08511 0.58088 0.69755 0.0
Mn512 Mn 0.82964 0.1694 0.50619 0.0
Mn513 Mn 0.83939 0.11056 0.51136 0.0
C514 C 0.83416 0.15468 0.52843 0.0
C515 C 0.84432 0.20755 0.50201 0.0
C516 C 0.79081 0.13115 0.50393 0.0
O517 O 0.83974 0.15787 0.48718 0.0
O518 O 0.84772 0.11925 0.49198 0.0
C519 C 0.8921 0.11087 0.50905 0.0
N520 N 0.87215 0.10581 0.51645 0.0
C521 C 0.89574 0.0904 0.53545 0.0
C522 C 0.91654 0.0953 0.52799 0.0
C523 C 0.9147 0.10564 0.51475 0.0
C524 C 0.87372 0.09601 0.52923 0.0
H525 H 0.89076 0.11889 0.49888 0.0
C526 C 0.84689 0.13711 0.48366 0.0
O527 O 0.82237 0.20195 0.4989 0.0
O528 O 0.85772 0.1909 0.50729 0.0
N529 N 0.83232 0.09967 0.52966 0.0
C530 C 0.81059 0.09687 0.5357 0.0
C531 C 0.80928 0.08678 0.54899 0.0
C532 C 0.83028 0.07959 0.55592 0.0
C533 C 0.85244 0.08264 0.54951 0.0
C534 C 0.85261 0.09251 0.53617 0.0
H535 H 0.79439 0.10235 0.53043 0.0
O536 O 0.82344 0.17493 0.52633 0.0
O537 O 0.84197 0.14381 0.51748 0.0
O538 O 0.79723 0.15301 0.50364 0.0
O539 O 0.80514 0.11391 0.50655 0.0
C540 C 0.87437 0.07649 0.55587 0.0
C541 C 0.89602 0.08047 0.54888 0.0
H542 H 0.93401 0.09135 0.53236 0.0
H543 H 0.93068 0.10958 0.50895 0.0
H544 H 0.79212 0.08455 0.55389 0.0
H545 H 0.82918 0.07181 0.56616 0.0
H546 H 0.87481 0.06896 0.56622 0.0
H547 H 0.91278 0.07596 0.55395 0.0
Mn548 Mn 0.82478 0.32863 0.75804 0.0
Mn549 Mn 0.88267 0.33793 0.7666 0.0
C550 C 0.83569 0.33705 0.78069 0.0
C551 C 0.78772 0.34299 0.75077 0.0
C552 C 0.86197 0.28878 0.76143 0.0
O553 O 0.83975 0.33513 0.73932 0.0
O554 O 0.87794 0.34123 0.74621 0.0
C555 C 0.88463 0.38935 0.75951 0.0
N556 N 0.88752 0.37149 0.76897 0.0
C557 C 0.90005 0.3994 0.78658 0.0
C558 C 0.89735 0.41809 0.777 0.0
C559 C 0.88953 0.41304 0.76343 0.0
C560 C 0.89481 0.37618 0.78209 0.0
H561 H 0.8786 0.38555 0.74907 0.0
C562 C 0.8616 0.33979 0.73682 0.0
O563 O 0.79331 0.32061 0.74932 0.0
O564 O 0.80391 0.35701 0.756 0.0
N565 N 0.8899 0.33545 0.78599 0.0
C566 C 0.89109 0.31547 0.79404 0.0
C567 C 0.89845 0.31745 0.80796 0.0
C568 C 0.90472 0.3399 0.81341 0.0
C569 C 0.90367 0.36015 0.80487 0.0
C570 C 0.89632 0.35706 0.79107 0.0
H571 H 0.88632 0.29818 0.7899 0.0
O572 O 0.81571 0.32615 0.778 0.0
O573 O 0.84863 0.34258 0.77007 0.0
O574 O 0.84071 0.29569 0.75864 0.0
O575 O 0.87898 0.30302 0.7647 0.0
C576 C 0.90948 0.3833 0.80954 0.0
C577 C 0.90755 0.40294 0.80042 0.0
H578 H 0.90111 0.43638 0.77998 0.0
H579 H 0.88731 0.42737 0.75599 0.0
H580 H 0.89923 0.30173 0.81448 0.0
H581 H 0.91022 0.34139 0.82418 0.0
H582 H 0.91518 0.38626 0.82017 0.0
H583 H 0.91176 0.4207 0.80419 0.0
Mn584 Mn 0.66983 0.33237 0.99923 0.0
Mn585 Mn 0.61043 0.33867 0.99419 0.0
C586 C 0.65466 0.34143 0.97746 0.0
C587 C 0.7069 0.34894 0.0048 0.0
C588 C 0.63469 0.2906 0.99762 0.0
O589 O 0.65768 0.33716 0.01881 0.0
O590 O 0.61845 0.34266 0.01421 0.0
C591 C 0.60574 0.38983 0.00146 0.0
N592 N 0.6027 0.37175 0.99216 0.0
C593 C 0.58437 0.3983 0.97557 0.0
C594 C 0.58717 0.4172 0.98499 0.0
C595 C 0.59798 0.41295 0.99798 0.0
C596 C 0.59244 0.37566 0.97961 0.0
H597 H 0.614 0.38664 0.01146 0.0
C598 C 0.63636 0.34157 0.02262 0.0
O599 O 0.70303 0.32616 0.00611 0.0
O600 O 0.6891 0.36199 0.00062 0.0
N601 N 0.60041 0.33558 0.97524 0.0
C602 C 0.60058 0.31582 0.96699 0.0
C603 C 0.5912 0.31725 0.95345 0.0
C604 C 0.58162 0.33891 0.94858 0.0
C605 C 0.58157 0.35898 0.95728 0.0
C606 C 0.59115 0.35648 0.97067 0.0
H607 H 0.608 0.29916 0.97066 0.0
O608 O 0.67552 0.33151 0.97877 0.0
O609 O 0.64333 0.34545 0.98889 0.0
O610 O 0.656 0.29844 0.99895 0.0
O611 O 0.61653 0.3041 0.99583 0.0
C612 C 0.57272 0.38145 0.95312 0.0
C613 C 0.57418 0.40112 0.96224 0.0
H614 H 0.58126 0.43506 0.98233 0.0
H615 H 0.6003 0.42746 0.00529 0.0
H616 H 0.5914 0.30171 0.94678 0.0
H617 H 0.57452 0.33999 0.9381 0.0
H618 H 0.56513 0.3839 0.94284 0.0
H619 H 0.5677 0.41841 0.95883 0.0
Mn620 Mn 0.67169 0.17567 0.24505 0.0
Mn621 Mn 0.66285 0.11696 0.23874 0.0
C622 C 0.66863 0.16198 0.22249 0.0
C623 C 0.65656 0.21348 0.24955 0.0
C624 C 0.71077 0.13775 0.24742 0.0
O625 O 0.66074 0.16311 0.26372 0.0
O626 O 0.65319 0.12479 0.25798 0.0
C627 C 0.61 0.11658 0.23991 0.0
N628 N 0.63049 0.11193 0.23292 0.0
C629 C 0.60836 0.09594 0.21349 0.0
C630 C 0.58703 0.10044 0.22051 0.0
C631 C 0.58786 0.11087 0.23376 0.0
C632 C 0.62988 0.10208 0.22012 0.0
H633 H 0.61058 0.12459 0.25009 0.0
C634 C 0.65343 0.14213 0.26667 0.0
O635 O 0.6784 0.2079 0.2529 0.0
O636 O 0.64344 0.197 0.24386 0.0
N637 N 0.67121 0.10672 0.2205 0.0
C638 C 0.69334 0.10436 0.21492 0.0
C639 C 0.69568 0.0941 0.20173 0.0
C640 C 0.67527 0.08627 0.19445 0.0
C641 C 0.65267 0.08897 0.20036 0.0
C642 C 0.65148 0.09903 0.21362 0.0
H643 H 0.7091 0.11024 0.22049 0.0
O644 O 0.67892 0.18227 0.22514 0.0
O645 O 0.66026 0.15047 0.23307 0.0
O646 O 0.70417 0.15954 0.24789 0.0
O647 O 0.69673 0.12051 0.24431 0.0
C648 C 0.63126 0.08227 0.19358 0.0
C649 C 0.60912 0.08588 0.20011 0.0
H650 H 0.56991 0.09608 0.2158 0.0
H651 H 0.57146 0.11448 0.23922 0.0
H652 H 0.71318 0.09216 0.1972 0.0
H653 H 0.67717 0.07822 0.18431 0.0
H654 H 0.63161 0.0746 0.18327 0.0
H655 H 0.59276 0.08095 0.19472 0.0
C656 C 0.11832 0.93622 0.28628 0.0
C657 C 0.10069 0.94991 0.27954 0.0
C658 C 0.13396 0.92214 0.27866 0.0
C659 C 0.15717 0.8849 0.26053 0.0
H660 H 0.19296 0.91694 0.23179 0.0
C661 C 0.24168 0.84193 0.23955 0.0
C662 C 0.26144 0.85723 0.24114 0.0
C663 C 0.21846 0.85119 0.23962 0.0
C664 C 0.18292 0.90764 0.23967 0.0
H665 H 0.08534 0.95945 0.25957 0.0
H666 H 0.11316 0.93494 0.24614 0.0
H667 H 0.15816 0.93658 0.24183 0.0
H668 H 0.27255 0.89427 0.2426 0.0
H669 H 0.23224 0.91035 0.24275 0.0
H670 H 0.18261 0.85662 0.25903 0.0
C671 C 0.11469 0.93509 0.25734 0.0
C672 C 0.16292 0.91881 0.24534 0.0
C673 C 0.09877 0.94899 0.26501 0.0
C674 C 0.25766 0.88202 0.24147 0.0
C675 C 0.2345 0.89126 0.24145 0.0
C676 C 0.17703 0.8737 0.25482 0.0
C677 C 0.13247 0.92157 0.26412 0.0
C678 C 0.15046 0.90793 0.25622 0.0
C679 C 0.21464 0.87588 0.24117 0.0
C680 C 0.19069 0.88534 0.24471 0.0
H681 H 0.12003 0.93644 0.29748 0.0
H682 H 0.14769 0.91218 0.28416 0.0
H683 H 0.14768 0.876 0.26878 0.0
H684 H 0.24405 0.82274 0.23921 0.0
H685 H 0.20348 0.83893 0.2392 0.0
C686 C 0.0836 0.59306 0.54127 0.0
C687 C 0.06419 0.58111 0.53497 0.0
C688 C 0.09398 0.61285 0.53489 0.0
C689 C 0.07799 0.6618 0.51222 0.0
H690 H 0.14622 0.67301 0.50986 0.0
C691 C 0.1127 0.75008 0.49047 0.0
C692 C 0.13226 0.76062 0.49736 0.0
C693 C 0.1066 0.72633 0.493 0.0
C694 C 0.12712 0.67026 0.51056 0.0
H695 H 0.04134 0.57997 0.51664 0.0
H696 H 0.05905 0.61501 0.50574 0.0
H697 H 0.13155 0.63456 0.5183 0.0
H698 H 0.16126 0.75435 0.51199 0.0
H699 H 0.15002 0.71317 0.51691 0.0
H700 H 0.07326 0.69762 0.50525 0.0
C701 C 0.06611 0.60899 0.51564 0.0
C702 C 0.11877 0.64821 0.51532 0.0
C703 C 0.0559 0.58903 0.52193 0.0
C704 C 0.14615 0.74666 0.50647 0.0
C705 C 0.13974 0.72298 0.50923 0.0
C706 C 0.08629 0.6839 0.50767 0.0
C707 C 0.08502 0.62127 0.52216 0.0
C708 C 0.09412 0.64386 0.51625 0.0
C709 C 0.11955 0.71268 0.50275 0.0
C710 C 0.11097 0.68852 0.50684 0.0
H711 H 0.09023 0.58773 0.55139 0.0
H712 H 0.10835 0.62219 0.54021 0.0
H713 H 0.0589 0.65905 0.51308 0.0
H714 H 0.10179 0.76028 0.48327 0.0
H715 H 0.09137 0.71885 0.48751 0.0
C716 C 0.39992 0.56126 0.78828 0.0
C717 C 0.42118 0.57268 0.78449 0.0
C718 C 0.378 0.56911 0.78302 0.0
C719 C 0.34824 0.62063 0.76591 0.0
H720 H 0.29937 0.57301 0.75866 0.0
C721 C 0.24894 0.64524 0.75711 0.0
C722 C 0.23484 0.63044 0.74856 0.0
C723 C 0.27269 0.63925 0.76012 0.0
C724 C 0.31285 0.5866 0.76038 0.0
H725 H 0.43636 0.60129 0.77232 0.0
H726 H 0.39798 0.61469 0.7627 0.0
H727 H 0.33884 0.5604 0.76605 0.0
H728 H 0.23494 0.59844 0.73587 0.0
H729 H 0.2765 0.58861 0.74056 0.0
H730 H 0.32236 0.64678 0.75973 0.0
C731 C 0.39817 0.59995 0.76997 0.0
C732 C 0.33546 0.57935 0.76488 0.0
C733 C 0.42015 0.59225 0.7754 0.0
C734 C 0.24524 0.61009 0.74262 0.0
C735 C 0.26907 0.60435 0.74541 0.0
C736 C 0.32565 0.62789 0.76121 0.0
C737 C 0.37683 0.58839 0.77368 0.0
C738 C 0.35333 0.59626 0.76796 0.0
C739 C 0.28297 0.61853 0.75445 0.0
C740 C 0.30755 0.61097 0.75856 0.0
H741 H 0.40022 0.54642 0.79549 0.0
H742 H 0.36194 0.56019 0.78644 0.0
H743 H 0.3615 0.63418 0.76826 0.0
H744 H 0.2414 0.661 0.76189 0.0
H745 H 0.28267 0.65044 0.76727 0.0
C746 C 0.45244 0.88648 0.02738 0.0
C747 C 0.44076 0.90584 0.03362 0.0
C748 C 0.43951 0.86939 0.01992 0.0
C749 C 0.37983 0.8429 0.0181 0.0
H750 H 0.40708 0.80879 0.98705 0.0
C751 C 0.33834 0.75526 0.99774 0.0
C752 C 0.35502 0.73651 0.99735 0.0
C753 C 0.34609 0.77898 0.9988 0.0
C754 C 0.39917 0.81824 0.99566 0.0
H755 H 0.40644 0.92299 0.03647 0.0
H756 H 0.38375 0.89313 0.02327 0.0
H757 H 0.42566 0.8458 0.99515 0.0
H758 H 0.39277 0.72788 0.9969 0.0
H759 H 0.40626 0.76911 0.99866 0.0
H760 H 0.35384 0.8149 0.01891 0.0
C761 C 0.40293 0.89109 0.0243 0.0
C762 C 0.40983 0.83938 0.00032 0.0
C763 C 0.41593 0.90826 0.03176 0.0
C764 C 0.3795 0.74196 0.99724 0.0
C765 C 0.38723 0.76561 0.99814 0.0
C766 C 0.36911 0.82182 0.01339 0.0
C767 C 0.41456 0.87126 0.01848 0.0
C768 C 0.40079 0.85147 0.01192 0.0
C769 C 0.37063 0.78432 0.9993 0.0
C770 C 0.37917 0.80884 0.00244 0.0
H771 H 0.47161 0.88432 0.02844 0.0
H772 H 0.44903 0.85421 0.01575 0.0
H773 H 0.37252 0.85164 0.02713 0.0
H774 H 0.31934 0.75158 0.99783 0.0
H775 H 0.33292 0.79308 -0.00042 0.0
C776 C 0.10471 0.54488 0.97026 0.0
C777 C 0.0871 0.56042 0.96506 0.0
C778 C 0.12597 0.55387 0.97583 0.0
C779 C 0.15617 0.60839 0.98902 0.0
H780 H 0.21291 0.57437 0.97741 0.0
C781 C 0.25374 0.64356 0.99595 0.0
C782 C 0.27113 0.62648 -0.00035 0.0
C783 C 0.23017 0.63655 0.99308 0.0
C784 C 0.19724 0.58391 0.9809 0.0
H785 H 0.0774 0.59755 0.96209 0.0
H786 H 0.11491 0.61339 0.97167 0.0
H787 H 0.17381 0.56029 0.96996 0.0
H788 H 0.27695 0.58886 0.00408 0.0
H789 H 0.23605 0.5768 0.99917 0.0
H790 H 0.17999 0.63227 -0.0002 0.0
C791 C 0.11214 0.59424 0.97157 0.0
C792 C 0.1748 0.57582 0.97664 0.0
C793 C 0.09071 0.5852 0.96607 0.0
C794 C 0.26416 0.60247 0.00105 0.0
C795 C 0.24071 0.59551 0.9982 0.0
C796 C 0.17876 0.61658 0.99326 0.0
C797 C 0.13022 0.57862 0.97622 0.0
C798 C 0.15397 0.58778 0.98075 0.0
C799 C 0.2236 0.61235 0.99385 0.0
C800 C 0.1995 0.60425 0.98934 0.0
H801 H 0.10216 0.5257 0.96985 0.0
H802 H 0.13926 0.54136 0.97965 0.0
H803 H 0.14045 0.61794 0.9924 0.0
H804 H 0.25847 0.66222 0.99481 0.0
H805 H 0.21736 0.64991 0.98971 0.0
C806 C 0.45958 0.61934 0.22454 0.0
C807 C 0.44884 0.59754 0.22081 0.0
C808 C 0.44681 0.63668 0.23168 0.0
C809 C 0.38498 0.65586 0.23909 0.0
H810 H 0.41936 0.7012 0.26218 0.0
C811 C 0.35058 0.75125 0.24804 0.0
C812 C 0.35918 0.76449 0.25938 0.0
C813 C 0.3582 0.72775 0.24598 0.0
C814 C 0.40911 0.68854 0.25607 0.0
H815 H 0.41632 0.57659 0.22217 0.0
H816 H 0.39425 0.60655 0.23522 0.0
H817 H 0.43922 0.6654 0.25456 0.0
H818 H 0.3808 0.76306 0.27811 0.0
H819 H 0.39272 0.72163 0.27516 0.0
H820 H 0.35454 0.67862 0.24105 0.0
C821 C 0.41244 0.61047 0.23225 0.0
C822 C 0.42077 0.6681 0.25143 0.0
C823 C 0.42519 0.59315 0.22491 0.0
C824 C 0.37413 0.75332 0.26918 0.0
C825 C 0.38115 0.72959 0.26738 0.0
C826 C 0.37309 0.67609 0.24401 0.0
C827 C 0.42301 0.63259 0.23558 0.0
C828 C 0.40922 0.65199 0.24241 0.0
C829 C 0.37413 0.71676 0.25545 0.0
C830 C 0.38526 0.69321 0.25214 0.0
H831 H 0.47792 0.62318 0.22185 0.0
H832 H 0.45553 0.65358 0.23378 0.0
H833 H 0.37542 0.64389 0.23218 0.0
H834 H 0.33916 0.75953 0.24027 0.0
H835 H 0.35257 0.71878 0.23656 0.0
C836 C 0.39958 0.94021 0.47883 0.0
C837 C 0.39707 0.94574 0.46467 0.0
C838 C 0.38149 0.92773 0.4857 0.0
C839 C 0.31701 0.91915 0.48292 0.0
H840 H 0.325 0.86614 0.50845 0.0
C841 C 0.25346 0.8413 0.50464 0.0
C842 C 0.23286 0.85521 0.50648 0.0
C843 C 0.27572 0.85233 0.50297 0.0
C844 C 0.32255 0.881 0.50138 0.0
H845 H 0.37478 0.94089 0.44636 0.0
H846 H 0.34339 0.91926 0.45829 0.0
H847 H 0.36025 0.88435 0.49774 0.0
H848 H 0.21959 0.89112 0.50969 0.0
H849 H 0.2584 0.91027 0.5073 0.0
H850 H 0.27958 0.91563 0.48602 0.0
C851 C 0.35896 0.925 0.46418 0.0
C852 C 0.34269 0.89146 0.49533 0.0
C853 C 0.37691 0.93739 0.45735 0.0
C854 C 0.23517 0.88002 0.50806 0.0
C855 C 0.25738 0.89098 0.50661 0.0
C856 C 0.29704 0.90887 0.48897 0.0
C857 C 0.3607 0.92067 0.47849 0.0
C858 C 0.33999 0.91033 0.48582 0.0
C859 C 0.27765 0.8774 0.50328 0.0
C860 C 0.29948 0.8895 0.49815 0.0
H861 H 0.41495 0.94644 0.48471 0.0
H862 H 0.38326 0.92459 0.49675 0.0
H863 H 0.3144 0.93391 0.47579 0.0
H864 H 0.25213 0.82211 0.50336 0.0
H865 H 0.29097 0.84135 0.5004 0.0
C866 C 0.04758 0.88663 0.72758 0.0
C867 C 0.06009 0.9069 0.72306 0.0
C868 C 0.05937 0.86849 0.73482 0.0
C869 C 0.11922 0.84256 0.73888 0.0
H870 H 0.08704 0.80242 0.76562 0.0
C871 C 0.1599 0.75333 0.75691 0.0
C872 C 0.14417 0.73405 0.75479 0.0
C873 C 0.15129 0.77679 0.75682 0.0
C874 C 0.09631 0.81357 0.75823 0.0
H875 H 0.09464 0.92448 0.72312 0.0
H876 H 0.11518 0.89295 0.73606 0.0
H877 H 0.06895 0.84025 0.75851 0.0
H878 H 0.10702 0.72405 0.75186 0.0
H879 H 0.09203 0.76488 0.7518 0.0
H880 H 0.14623 0.81555 0.73832 0.0
C881 C 0.09629 0.89094 0.73379 0.0
C882 C 0.08593 0.83517 0.75411 0.0
C883 C 0.08448 0.90911 0.72649 0.0
C884 C 0.11957 0.73856 0.75346 0.0
C885 C 0.11096 0.76195 0.75352 0.0
C886 C 0.12967 0.82105 0.74308 0.0
C887 C 0.08396 0.8702 0.73781 0.0
C888 C 0.09685 0.84951 0.74402 0.0
C889 C 0.1268 0.78133 0.75479 0.0
C890 C 0.11793 0.80597 0.75244 0.0
H891 H 0.02869 0.88458 0.72533 0.0
H892 H 0.04933 0.85268 0.73759 0.0
H893 H 0.12803 0.85299 0.73099 0.0
H894 H 0.17896 0.75038 0.75798 0.0
H895 H 0.16386 0.79142 0.75792 0.0
C896 C 0.59831 0.44234 0.76882 0.0
C897 C 0.59982 0.44503 0.78328 0.0
C898 C 0.61439 0.42749 0.7619 0.0
C899 C 0.66297 0.41093 0.75099 0.0
H900 H 0.68437 0.35101 0.76705 0.0
C901 C 0.75879 0.37655 0.74822 0.0
C902 C 0.76326 0.35187 0.74812 0.0
C903 C 0.7354 0.38515 0.74838 0.0
C904 C 0.67832 0.36742 0.76221 0.0
H905 H 0.61843 0.43353 0.80193 0.0
H906 H 0.64644 0.40767 0.78991 0.0
H907 H 0.6486 0.37031 0.77589 0.0
H908 H 0.7468 0.31683 0.74711 0.0
H909 H 0.70576 0.33191 0.74752 0.0
H910 H 0.6933 0.40854 0.73771 0.0
C911 C 0.63289 0.41695 0.78389 0.0
C912 C 0.65798 0.3786 0.76738 0.0
C913 C 0.61705 0.43195 0.79076 0.0
C914 C 0.74388 0.33596 0.74722 0.0
C915 C 0.72041 0.34457 0.74752 0.0
C916 C 0.68341 0.39981 0.74586 0.0
C917 C 0.63198 0.41483 0.76937 0.0
C918 C 0.6506 0.40087 0.76216 0.0
C919 C 0.71598 0.36924 0.74857 0.0
C920 C 0.69177 0.37837 0.75176 0.0
H921 H 0.58522 0.45231 0.76282 0.0
H922 H 0.61326 0.42613 0.75071 0.0
H923 H 0.65774 0.42812 0.74678 0.0
H924 H 0.77338 0.38925 0.74884 0.0
H925 H 0.73264 0.40424 0.74932 0.0
C926 C 0.55637 0.09182 0.02335 0.0
C927 C 0.56675 0.08233 0.0355 0.0
C928 C 0.56564 0.11248 0.01731 0.0
C929 C 0.61853 0.15134 0.01553 0.0
H930 H 0.57224 0.20164 0.00881 0.0
C931 C 0.64531 0.25022 0.0071 0.0
C932 C 0.63027 0.26466 0.9989 0.0
C933 C 0.63917 0.22645 0.00981 0.0
C934 C 0.58543 0.1877 0.0103 0.0
H935 H 0.59543 0.08697 0.05062 0.0
H936 H 0.61185 0.1227 0.03987 0.0
H937 H 0.55872 0.16267 0.01649 0.0
H938 H 0.59794 0.26507 0.98629 0.0
H939 H 0.58786 0.2235 0.99043 0.0
H940 H 0.64529 0.17635 0.00927 0.0
C941 C 0.59658 0.11404 0.03503 0.0
C942 C 0.57763 0.16536 0.01477 0.0
C943 C 0.58717 0.09353 0.04116 0.0
C944 C 0.60976 0.25449 0.9928 0.0
C945 C 0.60387 0.23067 0.99529 0.0
C946 C 0.62636 0.17366 0.01086 0.0
C947 C 0.58564 0.12395 0.02319 0.0
C948 C 0.59409 0.14704 0.01756 0.0
C949 C 0.61805 0.21653 0.00419 0.0
C950 C 0.60991 0.19222 0.00831 0.0
H951 H 0.54095 0.08341 0.01854 0.0
H952 H 0.55704 0.11961 0.00809 0.0
H953 H 0.63157 0.13743 0.01752 0.0
H954 H 0.66118 0.25762 0.012 0.0
H955 H 0.65044 0.21623 0.01682 0.0
C956 C 0.91796 0.0898 0.28272 0.0
C957 C 0.91839 0.07079 0.2922 0.0
C958 C 0.89619 0.09815 0.27733 0.0
C959 C 0.8328 0.07943 0.27294 0.0
H960 H 0.82266 0.1464 0.26452 0.0
C961 C 0.74595 0.11029 0.24654 0.0
C962 C 0.73586 0.1319 0.251 0.0
C963 C 0.76914 0.10402 0.25054 0.0
C964 C 0.8251 0.12766 0.26693 0.0
H965 H 0.89668 0.04632 0.30403 0.0
H966 H 0.85872 0.06137 0.29512 0.0
H967 H 0.86084 0.1335 0.27429 0.0
H968 H 0.74233 0.16406 0.263 0.0
H969 H 0.78245 0.15268 0.27049 0.0
H970 H 0.7968 0.07365 0.26633 0.0
C971 C 0.87506 0.06931 0.29136 0.0
C972 C 0.84715 0.1202 0.27236 0.0
C973 C 0.89677 0.06075 0.29654 0.0
C974 C 0.74966 0.14733 0.25933 0.0
C975 C 0.77274 0.14084 0.26356 0.0
C976 C 0.81072 0.08691 0.26771 0.0
C977 C 0.87446 0.08785 0.28151 0.0
C978 C 0.85124 0.09598 0.27549 0.0
C979 C 0.78267 0.11894 0.25936 0.0
C980 C 0.80653 0.11112 0.26463 0.0
H981 H 0.93447 0.09775 0.2792 0.0
H982 H 0.89647 0.11227 0.26967 0.0
H983 H 0.83537 0.06057 0.27495 0.0
H984 H 0.73589 0.09809 0.24 0.0
H985 H 0.77636 0.08731 0.24678 0.0
C986 C 0.95149 0.38313 0.52934 0.0
C987 C 0.93936 0.40356 0.53395 0.0
C988 C 0.93932 0.36521 0.52212 0.0
C989 C 0.87921 0.33995 0.51818 0.0
H990 H 0.91032 0.30078 0.49055 0.0
C991 C 0.83764 0.25153 0.49903 0.0
C992 C 0.85342 0.23216 0.50056 0.0
C993 C 0.84625 0.27499 0.49959 0.0
C994 C 0.90135 0.31165 0.49819 0.0
H995 H 0.90506 0.42158 0.53418 0.0
H996 H 0.88381 0.39036 0.52132 0.0
H997 H 0.92891 0.33814 0.49805 0.0
H998 H 0.89064 0.22203 0.503 0.0
H999 H 0.90563 0.26282 0.50386 0.0
H1000 H 0.85202 0.31307 0.51861 0.0
C1001 C 0.90272 0.38811 0.52346 0.0
C1002 C 0.91201 0.33298 0.50253 0.0
C1003 C 0.91493 0.40608 0.53072 0.0
C1004 C 0.87804 0.23661 0.50186 0.0
C1005 C 0.88665 0.25999 0.50224 0.0
C1006 C 0.86848 0.31868 0.51377 0.0
C1007 C 0.91471 0.3673 0.51927 0.0
C1008 C 0.90149 0.34695 0.51293 0.0
C1009 C 0.87081 0.27943 0.50148 0.0
C1010 C 0.87985 0.30393 0.50409 0.0
H1011 H 0.9704 0.38084 0.53146 0.0
H1012 H 0.94908 0.3493 0.51921 0.0
H1013 H 0.87071 0.35013 0.52629 0.0
H1014 H 0.81857 0.2486 0.49802 0.0
H1015 H 0.83368 0.28966 0.49889 0.0
C1016 C 0.592 0.0887 0.45699 0.0
C1017 C 0.58034 0.06851 0.4624 0.0
C1018 C 0.61345 0.09679 0.46287 0.0
C1019 C 0.66578 0.0749 0.48111 0.0
H1020 H 0.67808 0.14121 0.49041 0.0
C1021 C 0.75583 0.10336 0.50501 0.0
C1022 C 0.76555 0.12529 0.50078 0.0
C1023 C 0.7323 0.09735 0.50155 0.0
C1024 C 0.67507 0.12267 0.4877 0.0
H1025 H 0.5817 0.04173 0.47869 0.0
H1026 H 0.6196 0.0554 0.48858 0.0
H1027 H 0.63852 0.12931 0.48193 0.0
H1028 H 0.75814 0.15819 0.48966 0.0
H1029 H 0.71744 0.14731 0.48312 0.0
H1030 H 0.70234 0.06818 0.48621 0.0
C1031 C 0.61204 0.06486 0.47977 0.0
C1032 C 0.65238 0.11588 0.48292 0.0
C1033 C 0.59042 0.05698 0.47403 0.0
C1034 C 0.75112 0.14121 0.49316 0.0
C1035 C 0.72769 0.13501 0.48948 0.0
C1036 C 0.68854 0.0817 0.48565 0.0
C1037 C 0.62385 0.08468 0.47416 0.0
C1038 C 0.64756 0.09194 0.4796 0.0
C1039 C 0.71803 0.1129 0.49353 0.0
C1040 C 0.69352 0.10568 0.48902 0.0
H1041 H 0.58501 0.09784 0.44792 0.0
H1042 H 0.62237 0.11199 0.45828 0.0
H1043 H 0.66258 0.05636 0.47841 0.0
H1044 H 0.7664 0.09078 0.511 0.0
H1045 H 0.72536 0.08042 0.50516 0.0
C1046 C 0.91922 0.09751 0.71515 0.0
C1047 C 0.93926 0.08589 0.72095 0.0
C1048 C 0.90897 0.11709 0.7218 0.0
C1049 C 0.92503 0.16628 0.74441 0.0
H1050 H 0.85667 0.17499 0.74823 0.0
C1051 C 0.88802 0.25353 0.76666 0.0
C1052 C 0.86776 0.26314 0.75999 0.0
C1053 C 0.89504 0.23001 0.76412 0.0
C1054 C 0.8758 0.17295 0.74713 0.0
H1055 H 0.96355 0.08527 0.73867 0.0
H1056 H 0.94607 0.11999 0.75001 0.0
H1057 H 0.87212 0.1372 0.73936 0.0
H1058 H 0.83851 0.25537 0.74576 0.0
H1059 H 0.85122 0.21471 0.7409 0.0
H1060 H 0.92891 0.2022 0.75143 0.0
C1061 C 0.93839 0.11384 0.74029 0.0
C1062 C 0.88461 0.15126 0.74212 0.0
C1063 C 0.94846 0.09406 0.73374 0.0
C1064 C 0.85414 0.24844 0.75112 0.0
C1065 C 0.8614 0.22504 0.74839 0.0
C1066 C 0.91625 0.18804 0.74923 0.0
C1067 C 0.91871 0.12568 0.73431 0.0
C1068 C 0.9093 0.14783 0.7406 0.0
C1069 C 0.88224 0.21567 0.75464 0.0
C1070 C 0.89149 0.19178 0.75053 0.0
H1071 H 0.91187 0.09201 0.70522 0.0
H1072 H 0.89399 0.1261 0.71687 0.0
H1073 H 0.94413 0.16422 0.74314 0.0
H1074 H 0.89873 0.26431 0.77369 0.0
H1075 H 0.91081 0.22325 0.76941 0.0
C1076 C 0.90557 0.42642 0.98275 0.0
C1077 C 0.90231 0.4496 0.97742 0.0
C1078 C 0.88702 0.41479 0.98962 0.0
C1079 C 0.82815 0.42431 0.00607 0.0
H1080 H 0.81409 0.36074 0.99223 0.0
C1081 C 0.73397 0.38432 0.0055 0.0
C1082 C 0.73089 0.35952 0.00683 0.0
C1083 C 0.75681 0.3943 0.00552 0.0
C1084 C 0.81799 0.37824 0.99649 0.0
H1085 H 0.87718 0.47896 0.9755 0.0
H1086 H 0.84498 0.45878 0.98753 0.0
H1087 H 0.85106 0.38037 0.98566 0.0
H1088 H 0.74926 0.32584 0.01003 0.0
H1089 H 0.78933 0.34334 0.01017 0.0
H1090 H 0.79469 0.42245 0.01655 0.0
C1091 C 0.86195 0.44967 0.98654 0.0
C1092 C 0.83921 0.38952 0.99269 0.0
C1093 C 0.88044 0.46125 0.97964 0.0
C1094 C 0.75109 0.34501 0.00892 0.0
C1095 C 0.77403 0.35502 0.00892 0.0
C1096 C 0.80697 0.413 0.00991 0.0
C1097 C 0.86486 0.42613 0.99136 0.0
C1098 C 0.84419 0.41295 0.99711 0.0
C1099 C 0.77715 0.37972 0.00688 0.0
C1100 C 0.80131 0.39011 0.00482 0.0
H1101 H 0.92235 0.4171 0.98145 0.0
H1102 H 0.8899 0.39677 0.99338 0.0
H1103 H 0.83171 0.44222 0.00984 0.0
H1104 H 0.71876 0.39601 0.00391 0.0
H1105 H 0.75852 0.41333 0.00375 0.0
C1106 C 0.59624 0.41075 0.21854 0.0
C1107 C 0.57383 0.41984 0.22247 0.0
C1108 C 0.60556 0.39022 0.22481 0.0
C1109 C 0.58723 0.33425 0.23748 0.0
H1110 H 0.64902 0.32892 0.25579 0.0
C1111 C 0.62295 0.24201 0.25282 0.0
C1112 C 0.64745 0.23799 0.25106 0.0
C1113 C 0.6138 0.26521 0.25251 0.0
C1114 C 0.63184 0.32997 0.25056 0.0
H1115 H 0.54438 0.41486 0.2367 0.0
H1116 H 0.56017 0.37819 0.24698 0.0
H1117 H 0.63397 0.3682 0.2489 0.0
H1118 H 0.68178 0.25487 0.248 0.0
H1119 H 0.66584 0.2952 0.24658 0.0
H1120 H 0.58551 0.29628 0.23801 0.0
C1121 C 0.57047 0.3873 0.23914 0.0
C1122 C 0.6232 0.35252 0.24675 0.0
C1123 C 0.56136 0.40814 0.23311 0.0
C1124 C 0.66281 0.25756 0.24948 0.0
C1125 C 0.6536 0.28075 0.24876 0.0
C1126 C 0.59607 0.31171 0.24095 0.0
C1127 C 0.5925 0.37809 0.23492 0.0
C1128 C 0.60091 0.35474 0.2401 0.0
C1129 C 0.62886 0.28488 0.24995 0.0
C1130 C 0.61864 0.30916 0.24742 0.0
H1131 H 0.60625 0.41887 0.21024 0.0
H1132 H 0.62249 0.38319 0.22129 0.0
H1133 H 0.5701 0.33561 0.23219 0.0
H1134 H 0.61079 0.22715 0.25422 0.0
H1135 H 0.5948 0.2676 0.25395 0.0
C1136 C 0.11677 0.95392 0.37348 0.0
C1137 C 0.09894 0.94512 0.36442 0.0
C1138 C 0.12636 0.93953 0.38399 0.0
C1139 C 0.11235 0.88355 0.40344 0.0
H1140 H 0.17352 0.89722 0.42097 0.0
C1141 C 0.155 0.83063 0.44983 0.0
C1142 C 0.15499 0.84506 0.46171 0.0
C1143 C 0.15045 0.84072 0.43678 0.0
C1144 C 0.15651 0.89313 0.41605 0.0
H1145 H 0.07843 0.91333 0.35905 0.0
H1146 H 0.09668 0.88791 0.37632 0.0
H1147 H 0.16236 0.91777 0.39955 0.0
H1148 H 0.15229 0.88128 0.46941 0.0
H1149 H 0.14496 0.89905 0.44652 0.0
H1150 H 0.10722 0.85822 0.41976 0.0
C1151 C 0.10237 0.90637 0.37586 0.0
C1152 C 0.1499 0.90508 0.40387 0.0
C1153 C 0.09221 0.92096 0.36564 0.0
C1154 C 0.15176 0.8698 0.46036 0.0
C1155 C 0.14781 0.87995 0.44733 0.0
C1156 C 0.11933 0.87112 0.41535 0.0
C1157 C 0.119 0.91562 0.38551 0.0
C1158 C 0.12741 0.90095 0.39757 0.0
C1159 C 0.14687 0.86545 0.43548 0.0
C1160 C 0.14114 0.87626 0.42192 0.0
H1161 H 0.12306 0.97215 0.37271 0.0
H1162 H 0.13893 0.9476 0.39119 0.0
H1163 H 0.09471 0.88005 0.39922 0.0
H1164 H 0.15792 0.81155 0.45068 0.0
H1165 H 0.14977 0.82929 0.42773 0.0
C1166 C 0.05905 0.58608 0.62413 0.0
C1167 C 0.07209 0.57339 0.61424 0.0
C1168 C 0.0708 0.60018 0.634 0.0
C1169 C 0.13058 0.60749 0.65066 0.0
H1170 H 0.09869 0.6605 0.66853 0.0
C1171 C 0.17106 0.65523 0.69861 0.0
C1172 C 0.15524 0.65559 0.70976 0.0
C1173 C 0.16266 0.64969 0.68526 0.0
C1174 C 0.10787 0.64581 0.66357 0.0
H1175 H 0.10742 0.56622 0.60638 0.0
H1176 H 0.12806 0.59181 0.62317 0.0
H1177 H 0.08106 0.64278 0.64774 0.0
H1178 H 0.11819 0.65302 0.71576 0.0
H1179 H 0.10341 0.64345 0.69252 0.0
H1180 H 0.15764 0.61107 0.66634 0.0
C1181 C 0.10881 0.59027 0.62371 0.0
C1182 C 0.09769 0.63548 0.65172 0.0
C1183 C 0.09704 0.57574 0.61401 0.0
C1184 C 0.13075 0.65217 0.70731 0.0
C1185 C 0.1223 0.64702 0.69399 0.0
C1186 C 0.14102 0.61823 0.6623 0.0
C1187 C 0.0959 0.60229 0.63404 0.0
C1188 C 0.10845 0.6156 0.64538 0.0
C1189 C 0.13821 0.64523 0.68288 0.0
C1190 C 0.12932 0.63687 0.66919 0.0
H1191 H 0.03979 0.5843 0.62458 0.0
H1192 H 0.06017 0.60863 0.64192 0.0
H1193 H 0.1394 0.59212 0.64623 0.0
H1194 H 0.18998 0.65837 0.7003 0.0
H1195 H 0.17527 0.6486 0.67685 0.0
C1196 C 0.42746 0.57667 0.86982 0.0
C1197 C 0.44361 0.59111 0.86257 0.0
C1198 C 0.41337 0.5863 0.88027 0.0
C1199 C 0.4122 0.63617 0.9051 0.0
H1200 H 0.34922 0.61073 0.91272 0.0
C1201 C 0.35979 0.66149 0.95441 0.0
C1202 C 0.35269 0.64134 0.96204 0.0
C1203 C 0.3675 0.65899 0.94072 0.0
C1204 C 0.36674 0.61809 0.91068 0.0
H1205 H 0.45703 0.62721 0.86027 0.0
H1206 H 0.43221 0.64417 0.87851 0.0
H1207 H 0.36907 0.60001 0.89121 0.0
H1208 H 0.34692 0.60304 0.9611 0.0
H1209 H 0.36 0.59878 0.93726 0.0
H1210 H 0.40996 0.65387 0.92473 0.0
C1211 C 0.43073 0.62528 0.87623 0.0
C1212 C 0.37817 0.61188 0.8984 0.0
C1213 C 0.44493 0.61558 0.86579 0.0
C1214 C 0.3524 0.61889 0.95552 0.0
C1215 C 0.35972 0.61647 0.94183 0.0
C1216 C 0.40066 0.64254 0.91734 0.0
C1217 C 0.41498 0.61067 0.88372 0.0
C1218 C 0.40137 0.62021 0.89567 0.0
C1219 C 0.36779 0.63639 0.93437 0.0
C1220 C 0.37814 0.63297 0.92043 0.0
H1221 H 0.42631 0.55767 0.86779 0.0
H1222 H 0.40186 0.57438 0.88599 0.0
H1223 H 0.43013 0.64276 0.90342 0.0
H1224 H 0.36028 0.67902 0.95917 0.0
H1225 H 0.37356 0.67465 0.93517 0.0
C1226 C 0.46697 0.9071 0.13427 0.0
C1227 C 0.45582 0.90862 0.12116 0.0
C1228 C 0.45566 0.89573 0.14527 0.0
C1229 C 0.3968 0.88121 0.15858 0.0
H1230 H 0.43282 0.84051 0.18375 0.0
C1231 C 0.35589 0.84272 0.20893 0.0
C1232 C 0.37069 0.84414 0.22079 0.0
C1233 C 0.36513 0.84725 0.19575 0.0
C1234 C 0.42253 0.85193 0.17687 0.0
H1235 H 0.42403 0.89885 0.10935 0.0
H1236 H 0.40401 0.87946 0.12876 0.0
H1237 H 0.45121 0.85446 0.16245 0.0
H1238 H 0.40692 0.85135 0.22799 0.0
H1239 H 0.42275 0.8595 0.20523 0.0
H1240 H 0.36843 0.87944 0.17326 0.0
C1241 C 0.42159 0.88713 0.13042 0.0
C1242 C 0.43305 0.85985 0.16465 0.0
C1243 C 0.43304 0.8983 0.11934 0.0
C1244 C 0.39495 0.84994 0.21913 0.0
C1245 C 0.40413 0.85446 0.20601 0.0
C1246 C 0.3863 0.8734 0.17088 0.0
C1247 C 0.43279 0.88579 0.14351 0.0
C1248 C 0.42051 0.87502 0.15554 0.0
C1249 C 0.38936 0.85325 0.19416 0.0
C1250 C 0.39927 0.85915 0.18033 0.0
H1251 H 0.4842 0.91532 0.13622 0.0
H1252 H 0.46456 0.89539 0.1553 0.0
H1253 H 0.38677 0.89302 0.15179 0.0
H1254 H 0.33714 0.83825 0.2098 0.0
H1255 H 0.35332 0.84599 0.18681 0.0
C1256 C 0.07696 0.5759 0.882 0.0
C1257 C 0.05636 0.56189 0.88004 0.0
C1258 C 0.08872 0.58573 0.87059 0.0
C1259 C 0.09436 0.57648 0.83277 0.0
H1260 H 0.12472 0.63875 0.83324 0.0
C1261 C 0.13635 0.64681 0.79095 0.0
C1262 C 0.1474 0.63012 0.78223 0.0
C1263 C 0.12717 0.63963 0.80374 0.0
C1264 C 0.1162 0.62138 0.83291 0.0
H1265 H 0.03105 0.54841 0.86479 0.0
H1266 H 0.05104 0.56594 0.845 0.0
H1267 H 0.10354 0.62473 0.85372 0.0
H1268 H 0.15911 0.59333 0.78048 0.0
H1269 H 0.14402 0.58106 0.80287 0.0
H1270 H 0.10599 0.57333 0.8119 0.0
C1271 C 0.05873 0.5687 0.85523 0.0
C1272 C 0.10429 0.61324 0.84471 0.0
C1273 C 0.0472 0.55871 0.86657 0.0
C1274 C 0.15029 0.60651 0.78686 0.0
C1275 C 0.1415 0.59945 0.79969 0.0
C1276 C 0.10604 0.58464 0.82101 0.0
C1277 C 0.07993 0.5819 0.85704 0.0
C1278 C 0.09309 0.59072 0.84473 0.0
C1279 C 0.12915 0.61569 0.80811 0.0
C1280 C 0.11716 0.60717 0.8209 0.0
H1281 H 0.08437 0.5786 0.89231 0.0
H1282 H 0.10507 0.59568 0.87236 0.0
H1283 H 0.08635 0.55886 0.83246 0.0
H1284 H 0.13383 0.66513 0.78762 0.0
H1285 H 0.11766 0.6526 0.80992 0.0
C1286 C 0.43489 0.59388 0.13442 0.0
C1287 C 0.45877 0.58631 0.13325 0.0
C1288 C 0.42238 0.60278 0.12289 0.0
C1289 C 0.42463 0.602 0.08442 0.0
H1290 H 0.37622 0.65127 0.08707 0.0
C1291 C 0.38229 0.64443 0.0359 0.0
C1292 C 0.35746 0.64765 0.03583 0.0
C1293 C 0.3943 0.63794 0.04807 0.0
C1294 C 0.38955 0.63735 0.0862 0.0
H1295 H 0.48826 0.58287 0.11892 0.0
H1296 H 0.46709 0.59965 0.09924 0.0
H1297 H 0.39826 0.6389 0.10786 0.0
H1298 H 0.32577 0.6484 0.04843 0.0
H1299 H 0.34672 0.63657 0.06985 0.0
H1300 H 0.41663 0.60104 0.06278 0.0
C1301 C 0.45768 0.598 0.10893 0.0
C1302 C 0.40217 0.63021 0.09812 0.0
C1303 C 0.47004 0.58876 0.12037 0.0
C1304 C 0.3449 0.64547 0.04825 0.0
C1305 C 0.35691 0.63889 0.06048 0.0
C1306 C 0.41233 0.60939 0.07254 0.0
C1307 C 0.43352 0.6046 0.10993 0.0
C1308 C 0.41993 0.61245 0.09736 0.0
C1309 C 0.38174 0.63483 0.06048 0.0
C1310 C 0.3946 0.62708 0.07326 0.0
H1311 H 0.4257 0.59269 0.14421 0.0
H1312 H 0.40377 0.60757 0.12407 0.0
H1313 H 0.4377 0.58786 0.08343 0.0
H1314 H 0.39245 0.64697 0.02652 0.0
H1315 H 0.41349 0.63549 0.04776 0.0
C1316 C 0.3837 0.93687 0.38669 0.0
C1317 C 0.39466 0.95872 0.38331 0.0
C1318 C 0.37136 0.92369 0.37658 0.0
C1319 C 0.3634 0.8932 0.35055 0.0
H1320 H 0.32354 0.92443 0.32287 0.0
C1321 C 0.33467 0.87848 0.29043 0.0
C1322 C 0.32986 0.85392 0.29036 0.0
C1323 C 0.3375 0.89071 0.30291 0.0
C1324 C 0.33466 0.91544 0.3305 0.0
H1325 H 0.401 0.98383 0.36659 0.0
H1326 H 0.37922 0.96111 0.34911 0.0
H1327 H 0.33834 0.94714 0.34275 0.0
H1328 H 0.32189 0.82314 0.30304 0.0
H1329 H 0.32704 0.84453 0.32513 0.0
H1330 H 0.36045 0.86172 0.33807 0.0
C1331 C 0.37995 0.95429 0.35961 0.0
C1332 C 0.3431 0.92844 0.34189 0.0
C1333 C 0.39241 0.96735 0.36967 0.0
C1334 C 0.32621 0.84201 0.30294 0.0
C1335 C 0.32921 0.85423 0.31551 0.0
C1336 C 0.35501 0.88019 0.33912 0.0
C1337 C 0.36955 0.93219 0.3629 0.0
C1338 C 0.35806 0.91763 0.35185 0.0
C1339 C 0.33532 0.87865 0.31562 0.0
C1340 C 0.3411 0.89134 0.32877 0.0
H1341 H 0.38476 0.92986 0.39714 0.0
H1342 H 0.36333 0.90681 0.37943 0.0
H1343 H 0.37505 0.88442 0.35801 0.0
H1344 H 0.33682 0.88813 0.28079 0.0
H1345 H 0.34243 0.90941 0.30256 0.0
C1346 C 0.07987 0.92189 0.63136 0.0
C1347 C 0.05747 0.91436 0.63624 0.0
C1348 C 0.09047 0.9104 0.62012 0.0
C1349 C 0.07288 0.87952 0.58876 0.0
H1350 H 0.13931 0.86064 0.58593 0.0
C1351 C 0.1067 0.83681 0.53887 0.0
C1352 C 0.1295 0.84325 0.53425 0.0
C1353 C 0.0994 0.84273 0.5522 0.0
C1354 C 0.12078 0.86608 0.58649 0.0
H1355 H 0.0296 0.88767 0.63373 0.0
H1356 H 0.04782 0.86813 0.61388 0.0
H1357 H 0.12426 0.87602 0.60793 0.0
H1358 H 0.16283 0.86043 0.54005 0.0
H1359 H 0.14974 0.87183 0.56321 0.0
H1360 H 0.06933 0.87087 0.56734 0.0
C1361 C 0.05702 0.88304 0.61872 0.0
C1362 C 0.11218 0.87474 0.59911 0.0
C1363 C 0.04655 0.89432 0.63004 0.0
C1364 C 0.14516 0.85518 0.54338 0.0
C1365 C 0.13767 0.86159 0.55668 0.0
C1366 C 0.0815 0.87127 0.57614 0.0
C1367 C 0.07879 0.89132 0.61346 0.0
C1368 C 0.08811 0.88144 0.60035 0.0
C1369 C 0.1145 0.8558 0.56117 0.0
C1370 C 0.10554 0.8643 0.57481 0.0
H1371 H 0.0887 0.93739 0.63576 0.0
H1372 H 0.1072 0.91722 0.61618 0.0
H1373 H 0.05436 0.88503 0.58935 0.0
H1374 H 0.09439 0.82724 0.53212 0.0
H1375 H 0.08174 0.83727 0.5554 0.0
C1376 C 0.60273 0.43752 0.86642 0.0
C1377 C 0.59476 0.46118 0.86818 0.0
C1378 C 0.61087 0.42415 0.87779 0.0
C1379 C 0.60551 0.42253 0.91594 0.0
H1380 H 0.65724 0.3766 0.91418 0.0
C1381 C 0.6433 0.37843 0.96502 0.0
C1382 C 0.6483 0.35392 0.96454 0.0
C1383 C 0.63772 0.39092 0.95292 0.0
C1384 C 0.64259 0.38919 0.91478 0.0
H1385 H 0.58991 0.48945 0.88332 0.0
H1386 H 0.6051 0.46667 0.90285 0.0
H1387 H 0.64659 0.4 0.89362 0.0
H1388 H 0.65311 0.3234 0.95113 0.0
H1389 H 0.64278 0.34516 0.92977 0.0
H1390 H 0.60181 0.41231 0.93708 0.0
C1391 C 0.60446 0.45817 0.89277 0.0
C1392 C 0.63649 0.4026 0.90301 0.0
C1393 C 0.59612 0.47142 0.88147 0.0
C1394 C 0.64879 0.34223 0.9517 0.0
C1395 C 0.64306 0.35473 0.93952 0.0
C1396 C 0.61174 0.40936 0.92768 0.0
C1397 C 0.61137 0.43419 0.89115 0.0
C1398 C 0.61796 0.41957 0.90349 0.0
C1399 C 0.63722 0.37919 0.94003 0.0
C1400 C 0.63039 0.39258 0.92729 0.0
H1401 H 0.60231 0.42916 0.8563 0.0
H1402 H 0.616 0.40572 0.87616 0.0
H1403 H 0.59074 0.43496 0.91663 0.0
H1404 H 0.64374 0.38798 0.97479 0.0
H1405 H 0.63393 0.40985 0.95367 0.0
C1406 C 0.59271 0.0869 0.11122 0.0
C1407 C 0.58981 0.06228 0.11375 0.0
C1408 C 0.60453 0.10148 0.12087 0.0
C1409 C 0.64687 0.10099 0.15012 0.0
H1410 H 0.60989 0.15365 0.16478 0.0
C1411 C 0.63795 0.15218 0.2047 0.0
C1412 C 0.66205 0.15578 0.20818 0.0
C1413 C 0.63137 0.14554 0.19126 0.0
C1414 C 0.62053 0.13914 0.16072 0.0
H1415 H 0.59756 0.03383 0.12848 0.0
H1416 H 0.61887 0.05911 0.14493 0.0
H1417 H 0.59511 0.1318 0.14449 0.0
H1418 H 0.69802 0.15767 0.20031 0.0
H1419 H 0.68663 0.14556 0.17666 0.0
H1420 H 0.67208 0.10798 0.16642 0.0
C1421 C 0.61197 0.06703 0.13546 0.0
C1422 C 0.61216 0.12677 0.14906 0.0
C1423 C 0.59981 0.05254 0.12596 0.0
C1424 C 0.67938 0.15434 0.19784 0.0
C1425 C 0.67285 0.14744 0.18438 0.0
C1426 C 0.65546 0.11362 0.16162 0.0
C1427 C 0.61411 0.09167 0.13311 0.0
C1428 C 0.62488 0.1071 0.14395 0.0
C1429 C 0.6488 0.14252 0.18102 0.0
C1430 C 0.64193 0.13224 0.16737 0.0
H1431 H 0.58569 0.095 0.10183 0.0
H1432 H 0.60609 0.12045 0.11882 0.0
H1433 H 0.65709 0.08599 0.14628 0.0
H1434 H 0.62424 0.15393 0.21248 0.0
H1435 H 0.61273 0.14169 0.18908 0.0
C1436 C 0.9623 0.08844 0.38342 0.0
C1437 C 0.95145 0.08338 0.37052 0.0
C1438 C 0.94897 0.09781 0.39428 0.0
C1439 C 0.8885 0.09869 0.40772 0.0
H1440 H 0.91387 0.14749 0.43237 0.0
C1441 C 0.85845 0.11016 0.46414 0.0
C1442 C 0.85535 0.13343 0.46932 0.0
C1443 C 0.86755 0.10649 0.4509 0.0
C1444 C 0.90639 0.13407 0.42549 0.0
H1445 H 0.91807 0.08503 0.35887 0.0
H1446 H 0.89466 0.1009 0.37802 0.0
H1447 H 0.93516 0.13754 0.41116 0.0
H1448 H 0.85905 0.17113 0.4645 0.0
H1449 H 0.87526 0.16462 0.44137 0.0
H1450 H 0.86007 0.09477 0.42224 0.0
C1451 C 0.91355 0.0975 0.37965 0.0
C1452 C 0.91867 0.12824 0.41342 0.0
C1453 C 0.92695 0.08833 0.36872 0.0
C1454 C 0.86118 0.15297 0.46083 0.0
C1455 C 0.87056 0.14928 0.44762 0.0
C1456 C 0.87634 0.10436 0.41985 0.0
C1457 C 0.9244 0.10216 0.39258 0.0
C1458 C 0.91007 0.1102 0.40454 0.0
C1459 C 0.87398 0.12599 0.44257 0.0
C1460 C 0.88539 0.12181 0.42898 0.0
H1461 H 0.98098 0.08442 0.38532 0.0
H1462 H 0.95775 0.10083 0.40419 0.0
H1463 H 0.88152 0.0846 0.40112 0.0
H1464 H 0.85407 0.09469 0.47036 0.0
H1465 H 0.87024 0.08834 0.44735 0.0
C1466 C 0.92039 0.42017 0.62497 0.0
C1467 C 0.94297 0.41272 0.62034 0.0
C1468 C 0.90962 0.40888 0.63623 0.0
C1469 C 0.92667 0.37934 0.66805 0.0
H1470 H 0.86052 0.35925 0.67039 0.0
C1471 C 0.89191 0.33808 0.71815 0.0
C1472 C 0.86877 0.34413 0.72236 0.0
C1473 C 0.8996 0.34361 0.70484 0.0
C1474 C 0.87896 0.36503 0.66997 0.0
H1475 H 0.97102 0.38637 0.62332 0.0
H1476 H 0.95254 0.36725 0.64322 0.0
H1477 H 0.87599 0.37411 0.64838 0.0
H1478 H 0.83528 0.36023 0.71588 0.0
H1479 H 0.84902 0.37099 0.69276 0.0
H1480 H 0.92967 0.3716 0.68961 0.0
C1481 C 0.94331 0.38192 0.63816 0.0
C1482 C 0.88781 0.3734 0.65734 0.0
C1483 C 0.95393 0.39297 0.62681 0.0
C1484 C 0.8532 0.35529 0.71287 0.0
C1485 C 0.86108 0.36133 0.69959 0.0
C1486 C 0.91778 0.37141 0.68068 0.0
C1487 C 0.92133 0.39012 0.64316 0.0
C1488 C 0.91178 0.38052 0.65628 0.0
C1489 C 0.88455 0.35592 0.69548 0.0
C1490 C 0.89383 0.36403 0.68184 0.0
H1491 H 0.91151 0.43545 0.62035 0.0
H1492 H 0.89273 0.41563 0.63996 0.0
H1493 H 0.9451 0.38519 0.66758 0.0
H1494 H 0.90416 0.3291 0.7252 0.0
H1495 H 0.91751 0.33844 0.70196 0.0
C1496 C 0.57103 0.09427 0.38109 0.0
C1497 C 0.54633 0.08962 0.38034 0.0
C1498 C 0.58325 0.10254 0.36944 0.0
C1499 C 0.60292 0.12923 0.34418 0.0
H1500 H 0.58499 0.09763 0.30983 0.0
C1501 C 0.63911 0.15623 0.28995 0.0
C1502 C 0.64392 0.13744 0.2807 0.0
C1503 C 0.62844 0.1516 0.30274 0.0
C1504 C 0.59037 0.10651 0.31934 0.0
H1505 H 0.51509 0.09069 0.36678 0.0
H1506 H 0.53616 0.10575 0.34678 0.0
H1507 H 0.56393 0.08803 0.33095 0.0
H1508 H 0.64231 0.09893 0.27799 0.0
H1509 H 0.62411 0.09097 0.30021 0.0
H1510 H 0.62983 0.14731 0.33246 0.0
C1511 C 0.54619 0.10264 0.35627 0.0
C1512 C 0.57805 0.10125 0.33143 0.0
C1513 C 0.53403 0.09432 0.36784 0.0
C1514 C 0.6386 0.11391 0.28474 0.0
C1515 C 0.62805 0.10932 0.29748 0.0
C1516 C 0.6153 0.13454 0.33201 0.0
C1517 C 0.57102 0.10631 0.35682 0.0
C1518 C 0.58414 0.11251 0.344 0.0
C1519 C 0.62239 0.12811 0.30651 0.0
C1520 C 0.60923 0.12309 0.31948 0.0
H1521 H 0.58101 0.09113 0.39059 0.0
H1522 H 0.60241 0.10512 0.37019 0.0
H1523 H 0.60794 0.13831 0.35369 0.0
H1524 H 0.64298 0.17457 0.28718 0.0
H1525 H 0.62419 0.16648 0.30945 0.0
C1526 C 0.93887 0.08501 0.63044 0.0
C1527 C 0.92605 0.07137 0.64003 0.0
C1528 C 0.92689 0.09763 0.61999 0.0
C1529 C 0.8688 0.09837 0.60104 0.0
H1530 H 0.896 0.15525 0.58453 0.0
C1531 C 0.82638 0.14586 0.55335 0.0
C1532 C 0.84249 0.14838 0.54243 0.0
C1533 C 0.83472 0.13956 0.56659 0.0
C1534 C 0.88816 0.13942 0.58909 0.0
H1535 H 0.89073 0.06107 0.64671 0.0
H1536 H 0.86961 0.08393 0.62882 0.0
H1537 H 0.91361 0.13905 0.60577 0.0
H1538 H 0.87981 0.14867 0.53679 0.0
H1539 H 0.89448 0.13793 0.55992 0.0
H1540 H 0.84316 0.09913 0.58441 0.0
C1541 C 0.88895 0.0843 0.62903 0.0
C1542 C 0.89833 0.13001 0.6012 0.0
C1543 C 0.90099 0.07133 0.63934 0.0
C1544 C 0.86707 0.14615 0.54505 0.0
C1545 C 0.87544 0.1403 0.55828 0.0
C1546 C 0.85837 0.10809 0.58908 0.0
C1547 C 0.90176 0.09721 0.61902 0.0
C1548 C 0.8892 0.10896 0.60713 0.0
C1549 C 0.85934 0.13656 0.56913 0.0
C1550 C 0.86835 0.1283 0.58279 0.0
H1551 H 0.95823 0.08507 0.63065 0.0
H1552 H 0.93747 0.10691 0.61237 0.0
H1553 H 0.8614 0.08198 0.60512 0.0
H1554 H 0.80737 0.14805 0.55154 0.0
H1555 H 0.82198 0.13693 0.57482 0.0
C1556 C 0.9009 0.41274 0.89233 0.0
C1557 C 0.90051 0.43769 0.89399 0.0
C1558 C 0.8885 0.40199 0.88132 0.0
C1559 C 0.87347 0.41525 0.84593 0.0
H1560 H 0.83438 0.3581 0.84666 0.0
C1561 C 0.84089 0.37339 0.79497 0.0
C1562 C 0.83935 0.34846 0.79423 0.0
C1563 C 0.84424 0.38472 0.80771 0.0
C1564 C 0.84555 0.37386 0.84622 0.0
H1565 H 0.88598 0.47083 0.88592 0.0
H1566 H 0.86455 0.45205 0.86656 0.0
H1567 H 0.84716 0.3767 0.86842 0.0
H1568 H 0.83845 0.31572 0.80606 0.0
H1569 H 0.84619 0.33516 0.82833 0.0
H1570 H 0.87325 0.41214 0.824 0.0
C1571 C 0.87432 0.44085 0.87382 0.0
C1572 C 0.85265 0.3846 0.85871 0.0
C1573 C 0.88642 0.45156 0.88494 0.0
C1574 C 0.84008 0.33499 0.80645 0.0
C1575 C 0.84419 0.34626 0.81921 0.0
C1576 C 0.86678 0.40435 0.8335 0.0
C1577 C 0.87582 0.41607 0.87169 0.0
C1578 C 0.86671 0.40536 0.85865 0.0
C1579 C 0.84667 0.37132 0.82001 0.0
C1580 C 0.85281 0.38339 0.8334 0.0
H1581 H 0.91159 0.40168 0.89921 0.0
H1582 H 0.89003 0.38287 0.87985 0.0
H1583 H 0.8847 0.43101 0.84561 0.0
H1584 H 0.83951 0.38414 0.78565 0.0
H1585 H 0.84508 0.40404 0.80782 0.0
C1586 C 0.59584 0.41848 0.13969 0.0
C1587 C 0.59042 0.44297 0.13854 0.0
C1588 C 0.60281 0.40539 0.12803 0.0
C1589 C 0.5953 0.40675 0.09026 0.0
H1590 H 0.64572 0.35926 0.08962 0.0
C1591 C 0.65112 0.35327 0.04639 0.0
C1592 C 0.63206 0.3474 0.03737 0.0
C1593 C 0.64664 0.36187 0.05973 0.0
C1594 C 0.63162 0.3725 0.08966 0.0
H1595 H 0.58869 0.47292 0.12424 0.0
H1596 H 0.60133 0.45034 0.10417 0.0
H1597 H 0.63797 0.38142 0.11104 0.0
H1598 H 0.59346 0.34428 0.0357 0.0
H1599 H 0.58577 0.35889 0.05894 0.0
H1600 H 0.58914 0.39844 0.06895 0.0
C1601 C 0.59994 0.44117 0.11402 0.0
C1602 C 0.62708 0.38504 0.10193 0.0
C1603 C 0.59301 0.4542 0.1256 0.0
C1604 C 0.60856 0.34897 0.04228 0.0
C1605 C 0.60413 0.35744 0.0556 0.0
C1606 C 0.59974 0.39423 0.07809 0.0
C1607 C 0.60434 0.41653 0.11501 0.0
C1608 C 0.60903 0.40249 0.10228 0.0
C1609 C 0.62305 0.3647 0.06432 0.0
C1610 C 0.61799 0.37703 0.0776 0.0
H1611 H 0.59424 0.40935 0.14953 0.0
H1612 H 0.60607 0.3864 0.1291 0.0
H1613 H 0.58102 0.41982 0.09025 0.0
H1614 H 0.66944 0.35225 0.04295 0.0
H1615 H 0.66161 0.36741 0.06619 0.0
loop_
_geom_bond_atom_site_label_1
_geom_bond_atom_site_label_2
_geom_bond_distance
_geom_bond_site_symmetry_2
_ccdc_geom_bond_type
C0 C1 1.384 . S
C0 C2 1.384 . S
C0 H28 0.931 . S
C1 C0 1.384 . S
C1 C4 1.382 . S
C2 C0 1.384 . S
C2 C3 1.381 . S
C2 H29 0.930 . S
C3 C2 1.381 . S
C3 C5 1.381 . S
C3 C6 1.487 . S
C4 C1 1.382 . S
C4 C5 1.387 . S
C4 H30 0.930 . S
C5 C3 1.381 . S
C5 C4 1.387 . S
C5 H31 0.931 1_565 S
C6 C3 1.487 . S
C6 C13 1.399 . S
C6 N44 1.343 1_565 S
C7 C8 1.384 . S
C7 C9 1.384 . S
C7 H32 0.931 . S
C8 C7 1.384 . S
C8 C11 1.382 . S
C9 C7 1.384 . S
C9 C10 1.381 . S
C9 H33 0.930 . S
C10 C9 1.381 . S
C10 C12 1.381 . S
C10 C13 1.487 . S
C11 C8 1.382 . S
C11 C12 1.387 . S
C11 H34 0.930 . S
C12 C10 1.381 . S
C12 C11 1.387 . S
C12 H35 0.931 . S
C13 C6 1.399 . S
C13 C10 1.487 . S
C13 N45 1.331 1_465 S
C14 C15 1.384 . S
C14 C16 1.384 . S
C14 H36 0.931 . S
C15 C14 1.384 . S
C15 C18 1.382 . S
C16 C14 1.384 . S
C16 C17 1.381 . S
C16 H37 0.930 . S
C17 C16 1.381 . S
C17 C19 1.381 . S
C17 C20 1.487 . S
C18 C15 1.382 . S
C18 C19 1.387 . S
C18 H38 0.930 . S
C19 C17 1.381 . S
C19 C18 1.387 . S
C19 H39 0.907 1_545 S
C20 C17 1.487 . S
C20 C27 1.399 . S
C20 N45 1.355 . S
C21 C22 1.384 . S
C21 C23 1.384 . S
C21 H40 0.931 . S
C22 C21 1.384 . S
C22 C25 1.382 . S
C23 C21 1.384 . S
C23 C24 1.381 . S
C23 H41 0.930 . S
C24 C23 1.381 . S
C24 C26 1.381 . S
C24 C27 1.487 . S
C25 C22 1.382 . S
C25 C26 1.387 . S
C25 H42 0.930 . S
C26 C24 1.381 . S
C26 C25 1.387 . S
C26 H43 0.931 . S
C27 C20 1.399 . S
C27 C24 1.487 . S
C27 N44 1.343 1_655 S
H28 C0 0.931 . S
H29 C2 0.930 . S
H30 C4 0.930 . S
H31 C5 0.931 1_545 S
H32 C7 0.931 . S
H33 C9 0.930 . S
H34 C11 0.930 . S
H35 C12 0.931 . S
H36 C14 0.931 . S
H37 C16 0.930 . S
H38 C18 0.930 . S
H39 C19 0.907 1_565 S
H40 C21 0.931 . S
H41 C23 0.930 . S
H42 C25 0.930 . S
H43 C26 0.931 . S
N44 C6 1.343 1_545 S
N44 C27 1.343 1_455 S
N45 C13 1.331 1_645 S
N45 C20 1.355 . S
C46 C47 1.384 . S
C46 C48 1.384 . S
C46 H74 0.931 . S
C47 C46 1.384 . S
C47 C50 1.382 . S
C48 C46 1.384 . S
C48 C49 1.381 . S
C48 H75 0.930 . S
C49 C48 1.381 . S
C49 C51 1.381 . S
C49 C52 1.487 . S
C50 C47 1.382 . S
C50 C51 1.387 . S
C50 H76 0.930 . S
C51 C49 1.381 . S
C51 C50 1.387 . S
C51 H77 0.931 1_655 S
C52 C49 1.487 . S
C52 C59 1.399 . S
C52 N90 1.343 1_655 S
C53 C54 1.384 . S
C53 C55 1.384 . S
C53 H78 0.931 . S
C54 C53 1.384 . S
C54 C57 1.382 . S
C55 C53 1.384 . S
C55 C56 1.381 . S
C55 H79 0.930 . S
C56 C55 1.381 . S
C56 C58 1.381 . S
C56 C59 1.487 . S
C57 C54 1.382 . S
C57 C58 1.387 . S
C57 H80 0.930 . S
C58 C56 1.381 . S
C58 C57 1.387 . S
C58 H81 0.931 . S
C59 C52 1.399 . S
C59 C56 1.487 . S
C59 N91 1.343 . S
C60 C61 1.384 . S
C60 C62 1.384 . S
C60 H82 0.931 . S
C61 C60 1.384 . S
C61 C64 1.382 . S
C62 C60 1.384 . S
C62 C63 1.381 . S
C62 H83 0.930 . S
C63 C62 1.381 . S
C63 C65 1.381 . S
C63 C66 1.487 . S
C64 C61 1.382 . S
C64 C65 1.387 . S
C64 H84 0.930 . S
C65 C63 1.381 . S
C65 C64 1.387 . S
C65 H85 0.931 1_455 S
C66 C63 1.487 . S
C66 C73 1.399 . S
C66 N91 1.343 1_455 S
C67 C68 1.384 . S
C67 C69 1.384 . S
C67 H86 0.931 . S
C68 C67 1.384 . S
C68 C71 1.382 . S
C69 C67 1.384 . S
C69 C70 1.381 . S
C69 H87 0.930 . S
C70 C69 1.381 . S
C70 C72 1.381 . S
C70 C73 1.487 . S
C71 C68 1.382 . S
C71 C72 1.387 . S
C71 H88 0.930 . S
C72 C70 1.381 . S
C72 C71 1.387 . S
C72 H89 0.931 . S
C73 C66 1.399 . S
C73 C70 1.487 . S
C73 N90 1.343 . S
H74 C46 0.931 . S
H75 C48 0.930 . S
H76 C50 0.930 . S
H77 C51 0.931 1_455 S
H78 C53 0.931 . S
H79 C55 0.930 . S
H80 C57 0.930 . S
H81 C58 0.931 . S
H82 C60 0.931 . S
H83 C62 0.930 . S
H84 C64 0.930 . S
H85 C65 0.931 1_655 S
H86 C67 0.931 . S
H87 C69 0.930 . S
H88 C71 0.930 . S
H89 C72 0.931 . S
N90 C52 1.343 1_455 S
N90 C73 1.343 . S
N91 C59 1.343 . S
N91 C66 1.343 1_655 S
C92 C93 1.384 . S
C92 C94 1.384 . S
C92 H120 0.931 . S
C93 C92 1.384 . S
C93 C96 1.382 . S
C94 C92 1.384 . S
C94 C95 1.381 . S
C94 H121 0.930 . S
C95 C94 1.381 . S
C95 C97 1.381 . S
C95 C98 1.487 . S
C96 C93 1.382 . S
C96 C97 1.387 . S
C96 H122 0.930 . S
C97 C95 1.381 . S
C97 C96 1.387 . S
C97 H123 0.931 . S
C98 C95 1.487 . S
C98 C105 1.399 . S
C98 N136 1.343 . S
C99 C100 1.384 . S
C99 C101 1.384 . S
C99 H124 0.931 . S
C100 C99 1.384 . S
C100 C103 1.382 . S
C101 C99 1.384 . S
C101 C102 1.381 . S
C101 H125 0.930 . S
C102 C101 1.381 . S
C102 C104 1.381 . S
C102 C105 1.487 . S
C103 C100 1.382 . S
C103 C104 1.387 . S
C103 H126 0.930 . S
C104 C102 1.381 . S
C104 C103 1.387 . S
C104 H127 0.931 . S
C105 C98 1.399 . S
C105 C102 1.487 . S
C105 N137 1.343 . S
C106 C107 1.384 . S
C106 C108 1.384 . S
C106 H128 0.931 . S
C107 C106 1.384 . S
C107 C110 1.382 . S
C108 C106 1.384 . S
C108 C109 1.381 . S
C108 H129 0.930 . S
C109 C108 1.381 . S
C109 C111 1.381 . S
C109 C112 1.487 . S
C110 C107 1.382 . S
C110 C111 1.387 . S
C110 H130 0.930 . S
C111 C109 1.381 . S
C111 C110 1.387 . S
C111 H131 0.931 . S
C112 C109 1.487 . S
C112 C119 1.399 . S
C112 N137 1.343 . S
C113 C114 1.384 . S
C113 C115 1.384 . S
C113 H132 0.931 . S
C114 C113 1.384 . S
C114 C117 1.382 . S
C115 C113 1.384 . S
C115 C116 1.381 . S
C115 H133 0.930 . S
C116 C115 1.381 . S
C116 C118 1.381 . S
C116 C119 1.487 . S
C117 C114 1.382 . S
C117 C118 1.387 . S
C117 H134 0.930 . S
C118 C116 1.381 . S
C118 C117 1.387 . S
C118 H135 0.931 . S
C119 C112 1.399 . S
C119 C116 1.487 . S
C119 N136 1.343 . S
H120 C92 0.931 . S
H121 C94 0.930 . S
H122 C96 0.930 . S
H123 C97 0.931 . S
H124 C99 0.931 . S
H125 C101 0.930 . S
H126 C103 0.930 . S
H127 C104 0.931 . S
H128 C106 0.931 . S
H129 C108 0.930 . S
H130 C110 0.930 . S
H131 C111 0.931 . S
H132 C113 0.931 . S
H133 C115 0.930 . S
H134 C117 0.930 . S
H135 C118 0.931 . S
N136 C98 1.343 . S
N136 C119 1.343 . S
N137 C105 1.343 . S
N137 C112 1.343 . S
C138 C139 1.384 . S
C138 C140 1.384 . S
C138 H166 0.931 . S
C139 C138 1.384 . S
C139 C142 1.382 . S
C140 C138 1.384 . S
C140 C141 1.381 . S
C140 H167 0.930 . S
C141 C140 1.381 . S
C141 C143 1.381 . S
C141 C144 1.487 . S
C142 C139 1.382 . S
C142 C143 1.387 . S
C142 H168 0.930 . S
C143 C141 1.381 . S
C143 C142 1.387 . S
C143 H169 0.935 1_565 S
C144 C141 1.487 . S
C144 C151 1.399 . S
C144 N182 1.343 1_565 S
C145 C146 1.384 . S
C145 C147 1.384 . S
C145 H170 0.931 . S
C146 C145 1.384 . S
C146 C149 1.382 . S
C147 C145 1.384 . S
C147 C148 1.381 . S
C147 H171 0.930 . S
C148 C147 1.381 . S
C148 C150 1.381 . S
C148 C151 1.487 . S
C149 C146 1.382 . S
C149 C150 1.387 . S
C149 H172 0.930 . S
C150 C148 1.381 . S
C150 C149 1.387 . S
C150 H173 0.931 . S
C151 C144 1.399 . S
C151 C148 1.487 . S
C151 N183 1.343 1_565 S
C152 C153 1.384 . S
C152 C154 1.384 . S
C152 H174 0.931 . S
C153 C152 1.384 . S
C153 C156 1.382 . S
C154 C152 1.384 . S
C154 C155 1.381 . S
C154 H175 0.930 . S
C155 C154 1.381 . S
C155 C157 1.381 . S
C155 C158 1.487 . S
C156 C153 1.382 . S
C156 C157 1.387 . S
C156 H176 0.930 . S
C157 C155 1.381 . S
C157 C156 1.387 . S
C157 H177 0.931 . S
C158 C155 1.487 . S
C158 C165 1.399 . S
C158 N183 1.343 . S
C159 C160 1.384 . S
C159 C161 1.384 . S
C159 H178 0.931 . S
C160 C159 1.384 . S
C160 C163 1.382 . S
C161 C159 1.384 . S
C161 C162 1.381 . S
C161 H179 0.930 . S
C162 C161 1.381 . S
C162 C164 1.381 . S
C162 C165 1.487 . S
C163 C160 1.382 . S
C163 C164 1.387 . S
C163 H180 0.930 . S
C164 C162 1.381 . S
C164 C163 1.387 . S
C164 H181 0.931 . S
C165 C158 1.399 . S
C165 C162 1.487 . S
C165 N182 1.343 . S
H166 C138 0.931 . S
H167 C140 0.930 . S
H168 C142 0.930 . S
H169 C143 0.935 1_545 S
H170 C145 0.931 . S
H171 C147 0.930 . S
H172 C149 0.930 . S
H173 C150 0.931 . S
H174 C152 0.931 . S
H175 C154 0.930 . S
H176 C156 0.930 . S
H177 C157 0.931 . S
H178 C159 0.931 . S
H179 C161 0.930 . S
H180 C163 0.930 . S
H181 C164 0.931 . S
N182 C144 1.343 1_545 S
N182 C165 1.343 . S
N183 C151 1.343 1_545 S
N183 C158 1.343 . S
C184 C185 1.384 . S
C184 C186 1.384 . S
C184 H212 0.931 . S
C185 C184 1.384 . S
C185 C188 1.382 . S
C186 C184 1.384 . S
C186 C187 1.381 . S
C186 H213 0.930 . S
C187 C186 1.381 . S
C187 C189 1.381 . S
C187 C190 1.487 . S
C188 C185 1.382 . S
C188 C189 1.387 . S
C188 H214 0.930 . S
C189 C187 1.381 . S
C189 C188 1.387 . S
C189 H215 0.931 . S
C190 C187 1.487 . S
C190 C197 1.399 . S
C190 N228 1.343 . S
C191 C192 1.384 . S
C191 C193 1.384 . S
C191 H216 0.931 . S
C192 C191 1.384 . S
C192 C195 1.382 . S
C193 C191 1.384 . S
C193 C194 1.381 . S
C193 H217 0.930 . S
C194 C193 1.381 . S
C194 C196 1.381 . S
C194 C197 1.487 . S
C195 C192 1.382 . S
C195 C196 1.387 . S
C195 H218 0.930 . S
C196 C194 1.381 . S
C196 C195 1.387 . S
C196 H219 0.931 . S
C197 C190 1.399 . S
C197 C194 1.487 . S
C197 N229 1.343 . S
C198 C199 1.384 . S
C198 C200 1.384 . S
C198 H220 0.931 . S
C199 C198 1.384 . S
C199 C202 1.382 . S
C200 C198 1.384 . S
C200 C201 1.381 . S
C200 H221 0.930 . S
C201 C200 1.381 . S
C201 C203 1.381 . S
C201 C204 1.487 . S
C202 C199 1.382 . S
C202 C203 1.387 . S
C202 H222 0.930 . S
C203 C201 1.381 . S
C203 C202 1.387 . S
C203 H223 0.931 . S
C204 C201 1.487 . S
C204 C211 1.399 . S
C204 N229 1.343 1_655 S
C205 C206 1.384 . S
C205 C207 1.384 . S
C205 H224 0.931 . S
C206 C205 1.384 . S
C206 C209 1.382 . S
C207 C205 1.384 . S
C207 C208 1.381 . S
C207 H225 0.930 . S
C208 C207 1.381 . S
C208 C210 1.381 . S
C208 C211 1.487 . S
C209 C206 1.382 . S
C209 C210 1.387 . S
C209 H226 0.930 . S
C210 C208 1.381 . S
C210 C209 1.387 . S
C210 H227 0.931 . S
C211 C204 1.399 . S
C211 C208 1.487 . S
C211 N228 1.343 1_655 S
H212 C184 0.931 . S
H213 C186 0.930 . S
H214 C188 0.930 . S
H215 C189 0.931 . S
H216 C191 0.931 . S
H217 C193 0.930 . S
H218 C195 0.930 . S
H219 C196 0.931 . S
H220 C198 0.931 . S
H221 C200 0.930 . S
H222 C202 0.930 . S
H223 C203 0.931 . S
H224 C205 0.931 . S
H225 C207 0.930 . S
H226 C209 0.930 . S
H227 C210 0.931 . S
N228 C190 1.343 . S
N228 C211 1.343 1_455 S
N229 C197 1.343 . S
N229 C204 1.343 1_455 S
C230 C231 1.384 . S
C230 C232 1.384 . S
C230 H258 0.931 . S
C231 C230 1.384 . S
C231 C234 1.382 . S
C232 C230 1.384 . S
C232 C233 1.381 . S
C232 H259 0.930 . S
C233 C232 1.381 . S
C233 C235 1.381 . S
C233 C236 1.487 . S
C234 C231 1.382 . S
C234 C235 1.387 . S
C234 H260 0.930 . S
C235 C233 1.381 . S
C235 C234 1.387 . S
C235 H261 0.931 . S
C236 C233 1.487 . S
C236 C243 1.399 . S
C236 N274 1.343 . S
C237 C238 1.384 . S
C237 C239 1.384 . S
C237 H262 0.931 . S
C238 C237 1.384 . S
C238 C241 1.382 . S
C239 C237 1.384 . S
C239 C240 1.381 . S
C239 H263 0.930 . S
C240 C239 1.381 . S
C240 C242 1.381 . S
C240 C243 1.487 . S
C241 C238 1.382 . S
C241 C242 1.387 . S
C241 H264 0.930 . S
C242 C240 1.381 . S
C242 C241 1.387 . S
C242 H265 0.931 . S
C243 C236 1.399 . S
C243 C240 1.487 . S
C243 N275 1.343 . S
C244 C245 1.384 . S
C244 C246 1.384 . S
C244 H266 0.931 . S
C245 C244 1.384 . S
C245 C248 1.382 . S
C246 C244 1.384 . S
C246 C247 1.381 . S
C246 H267 0.930 . S
C247 C246 1.381 . S
C247 C249 1.381 . S
C247 C250 1.487 . S
C248 C245 1.382 . S
C248 C249 1.387 . S
C248 H268 0.930 . S
C249 C247 1.381 . S
C249 C248 1.387 . S
C249 H269 0.931 . S
C250 C247 1.487 . S
C250 C257 1.399 . S
C250 N275 1.343 . S
C251 C252 1.384 . S
C251 C253 1.384 . S
C251 H270 0.931 . S
C252 C251 1.384 . S
C252 C255 1.382 . S
C253 C251 1.384 . S
C253 C254 1.381 . S
C253 H271 0.930 . S
C254 C253 1.381 . S
C254 C256 1.381 . S
C254 C257 1.487 . S
C255 C252 1.382 . S
C255 C256 1.387 . S
C255 H272 0.930 . S
C256 C254 1.381 . S
C256 C255 1.387 . S
C256 H273 0.931 . S
C257 C250 1.399 . S
C257 C254 1.487 . S
C257 N274 1.343 . S
H258 C230 0.931 . S
H259 C232 0.930 . S
H260 C234 0.930 . S
H261 C235 0.931 . S
H262 C237 0.931 . S
H263 C239 0.930 . S
H264 C241 0.930 . S
H265 C242 0.931 . S
H266 C244 0.931 . S
H267 C246 0.930 . S
H268 C248 0.930 . S
H269 C249 0.931 . S
H270 C251 0.931 . S
H271 C253 0.930 . S
H272 C255 0.930 . S
H273 C256 0.931 . S
N274 C236 1.343 . S
N274 C257 1.343 . S
N275 C243 1.343 . S
N275 C250 1.343 . S
C276 C277 1.384 . S
C276 C278 1.384 . S
C276 H304 0.931 . S
C277 C276 1.384 . S
C277 C280 1.382 . S
C278 C276 1.384 . S
C278 C279 1.381 . S
C278 H305 0.930 . S
C279 C278 1.381 . S
C279 C281 1.381 . S
C279 C282 1.487 . S
C280 C277 1.382 . S
C280 C281 1.387 . S
C280 H306 0.930 . S
C281 C279 1.381 . S
C281 C280 1.387 . S
C281 H307 0.931 1_565 S
C282 C279 1.487 . S
C282 C289 1.399 . S
C282 N320 1.343 1_565 S
C283 C284 1.384 . S
C283 C285 1.384 . S
C283 H308 0.931 . S
C284 C283 1.384 . S
C284 C287 1.382 . S
C285 C283 1.384 . S
C285 C286 1.381 . S
C285 H309 0.930 . S
C286 C285 1.381 . S
C286 C288 1.381 . S
C286 C289 1.487 . S
C287 C284 1.382 . S
C287 C288 1.387 . S
C287 H310 0.930 . S
C288 C286 1.381 . S
C288 C287 1.387 . S
C288 H311 0.931 . S
C289 C282 1.399 . S
C289 C286 1.487 . S
C289 N321 1.343 1_565 S
C290 C291 1.384 . S
C290 C292 1.384 . S
C290 H312 0.931 . S
C291 C290 1.384 . S
C291 C294 1.382 . S
C292 C290 1.384 . S
C292 C293 1.381 . S
C292 H313 0.930 . S
C293 C292 1.381 . S
C293 C295 1.381 . S
C293 C296 1.487 . S
C294 C291 1.382 . S
C294 C295 1.387 . S
C294 H314 0.930 . S
C295 C293 1.381 . S
C295 C294 1.387 . S
C295 H315 0.978 . S
C296 C293 1.487 . S
C296 C303 1.399 . S
C296 N321 1.343 . S
C297 C298 1.384 . S
C297 C299 1.384 . S
C297 H316 0.931 . S
C298 C297 1.384 . S
C298 C301 1.382 . S
C299 C297 1.384 . S
C299 C300 1.381 . S
C299 H317 0.930 . S
C300 C299 1.381 . S
C300 C302 1.381 . S
C300 C303 1.487 . S
C301 C298 1.382 . S
C301 C302 1.387 . S
C301 H318 0.930 . S
C302 C300 1.381 . S
C302 C301 1.387 . S
C302 H319 0.931 . S
C303 C296 1.399 . S
C303 C300 1.487 . S
C303 N320 1.343 . S
H304 C276 0.931 . S
H305 C278 0.930 . S
H306 C280 0.930 . S
H307 C281 0.931 1_545 S
H308 C283 0.931 . S
H309 C285 0.930 . S
H310 C287 0.930 . S
H311 C288 0.931 . S
H312 C290 0.931 . S
H313 C292 0.930 . S
H314 C294 0.930 . S
H315 C295 0.978 . S
H316 C297 0.931 . S
H317 C299 0.930 . S
H318 C301 0.930 . S
H319 C302 0.931 . S
N320 C282 1.343 1_545 S
N320 C303 1.343 . S
N321 C289 1.343 1_545 S
N321 C296 1.343 . S
C322 C323 1.384 . S
C322 C324 1.384 . S
C322 H350 0.931 . S
C323 C322 1.384 . S
C323 C326 1.382 . S
C324 C322 1.384 . S
C324 C325 1.381 . S
C324 H351 0.930 . S
C325 C324 1.381 . S
C325 C327 1.381 . S
C325 C328 1.487 . S
C326 C323 1.382 . S
C326 C327 1.387 . S
C326 H352 0.930 . S
C327 C325 1.381 . S
C327 C326 1.387 . S
C327 H353 0.943 . S
C328 C325 1.487 . S
C328 C335 1.399 . S
C328 N366 1.343 1_565 S
C329 C330 1.384 . S
C329 C331 1.384 . S
C329 H354 0.931 . S
C330 C329 1.384 . S
C330 C333 1.382 . S
C331 C329 1.384 . S
C331 C332 1.381 . S
C331 H355 0.930 . S
C332 C331 1.381 . S
C332 C334 1.381 . S
C332 C335 1.487 . S
C333 C330 1.382 . S
C333 C334 1.387 . S
C333 H356 0.930 . S
C334 C332 1.381 . S
C334 C333 1.387 . S
C334 H357 0.931 . S
C335 C328 1.399 . S
C335 C332 1.487 . S
C335 N367 1.343 1_565 S
C336 C337 1.384 . S
C336 C338 1.384 . S
C336 H358 0.931 . S
C337 C336 1.384 . S
C337 C340 1.382 . S
C338 C336 1.384 . S
C338 C339 1.381 . S
C338 H359 0.930 . S
C339 C338 1.381 . S
C339 C341 1.381 . S
C339 C342 1.487 . S
C340 C337 1.382 . S
C340 C341 1.387 . S
C340 H360 0.930 . S
C341 C339 1.381 . S
C341 C340 1.387 . S
C341 H361 0.931 1_655 S
C342 C339 1.487 . S
C342 C349 1.399 . S
C342 N367 1.343 1_655 S
C343 C344 1.384 . S
C343 C345 1.384 . S
C343 H362 0.931 . S
C344 C343 1.384 . S
C344 C347 1.382 . S
C345 C343 1.384 . S
C345 C346 1.381 . S
C345 H363 0.930 . S
C346 C345 1.381 . S
C346 C348 1.381 . S
C346 C349 1.487 . S
C347 C344 1.382 . S
C347 C348 1.387 . S
C347 H364 0.930 . S
C348 C346 1.381 . S
C348 C347 1.387 . S
C348 H365 0.931 . S
C349 C342 1.399 . S
C349 C346 1.487 . S
C349 N366 1.343 1_655 S
H350 C322 0.931 . S
H351 C324 0.930 . S
H352 C326 0.930 . S
H353 C327 0.943 . S
H354 C329 0.931 . S
H355 C331 0.930 . S
H356 C333 0.930 . S
H357 C334 0.931 . S
H358 C336 0.931 . S
H359 C338 0.930 . S
H360 C340 0.930 . S
H361 C341 0.931 1_455 S
H362 C343 0.931 . S
H363 C345 0.930 . S
H364 C347 0.930 . S
H365 C348 0.931 . S
N366 C328 1.343 1_545 S
N366 C349 1.343 1_455 S
N367 C335 1.343 1_545 S
N367 C342 1.343 1_455 S
Mn368 O373 2.095 1_554 S
Mn368 O383 2.162 . S
Mn368 O384 2.297 . S
Mn368 O392 2.385 . S
Mn368 O393 2.209 . S
Mn368 O394 2.094 1_554 S
Mn369 O374 2.121 . S
Mn369 N376 2.257 1_556 S
Mn369 N385 2.282 1_556 S
Mn369 O393 2.215 1_556 S
Mn369 O395 2.117 . S
C370 O392 1.234 . S
C370 O393 1.283 . S
C371 O383 1.281 . S
C371 O384 1.236 . S
C372 O394 1.240 . S
C372 O395 1.264 . S
O373 Mn368 2.095 1_556 S
O373 C382 1.250 . S
O374 Mn369 2.121 . S
O374 C382 1.258 . S
C375 N376 1.326 1_556 S
C375 C379 1.460 1_556 S
C375 H381 0.929 . S
N376 Mn369 2.257 1_554 S
N376 C375 1.326 1_554 S
N376 C380 1.362 . S
C377 C378 1.258 . S
C377 C380 1.431 . S
C377 C397 1.449 . S
C378 C377 1.258 . S
C378 C379 1.477 . S
C378 H398 0.931 . S
C379 C375 1.460 1_554 S
C379 C378 1.477 . S
C379 H399 0.930 1_554 S
C380 N376 1.362 . S
C380 C377 1.431 . S
C380 C390 1.476 . S
H381 C375 0.929 . S
C382 O373 1.250 . S
C382 O374 1.258 . S
O383 Mn368 2.162 . S
O383 C371 1.281 . S
O384 Mn368 2.297 . S
O384 C371 1.236 . S
N385 Mn369 2.282 1_554 S
N385 C386 1.328 . S
N385 C390 1.318 . S
C386 N385 1.328 . S
C386 C387 1.457 . S
C386 H391 0.929 . S
C387 C386 1.457 . S
C387 C388 1.291 . S
C387 H400 0.931 . S
C388 C387 1.291 . S
C388 C389 1.373 . S
C388 H401 0.929 . S
C389 C388 1.373 . S
C389 C390 1.396 . S
C389 C396 1.403 . S
C390 C380 1.476 . S
C390 N385 1.318 . S
C390 C389 1.396 . S
H391 C386 0.929 . S
O392 Mn368 2.385 . S
O392 C370 1.234 . S
O393 Mn368 2.209 . S
O393 Mn369 2.215 1_554 S
O393 C370 1.283 . S
O394 Mn368 2.094 1_556 S
O394 C372 1.240 . S
O395 Mn369 2.117 . S
O395 C372 1.264 . S
C396 C389 1.403 . S
C396 C397 1.399 . S
C396 H402 0.929 . S
C397 C377 1.449 . S
C397 C396 1.399 . S
C397 H403 0.930 . S
H398 C378 0.931 . S
H399 C379 0.930 1_556 S
H400 C387 0.931 . S
H401 C388 0.929 . S
H402 C396 0.929 . S
H403 C397 0.930 . S
Mn404 O409 2.095 . S
Mn404 O419 2.162 . S
Mn404 O420 2.297 . S
Mn404 O428 2.385 . S
Mn404 O429 2.209 . S
Mn404 O430 2.094 . S
Mn405 O410 2.121 . S
Mn405 N412 2.257 . S
Mn405 N421 2.282 . S
Mn405 O429 2.215 . S
Mn405 O431 2.117 . S
C406 O428 1.234 . S
C406 O429 1.283 . S
C407 O419 1.281 . S
C407 O420 1.236 . S
C408 O430 1.240 . S
C408 O431 1.264 . S
O409 Mn404 2.095 . S
O409 C418 1.250 . S
O410 Mn405 2.121 . S
O410 C418 1.258 . S
C411 N412 1.326 . S
C411 C415 1.460 . S
C411 H417 0.929 . S
N412 Mn405 2.257 . S
N412 C411 1.326 . S
N412 C416 1.362 . S
C413 C414 1.258 . S
C413 C416 1.431 . S
C413 C433 1.449 . S
C414 C413 1.258 . S
C414 C415 1.477 . S
C414 H434 0.931 . S
C415 C411 1.460 . S
C415 C414 1.477 . S
C415 H435 0.930 . S
C416 N412 1.362 . S
C416 C413 1.431 . S
C416 C426 1.476 . S
H417 C411 0.929 . S
C418 O409 1.250 . S
C418 O410 1.258 . S
O419 Mn404 2.162 . S
O419 C407 1.281 . S
O420 Mn404 2.297 . S
O420 C407 1.236 . S
N421 Mn405 2.282 . S
N421 C422 1.328 . S
N421 C426 1.318 . S
C422 N421 1.328 . S
C422 C423 1.457 . S
C422 H427 0.929 . S
C423 C422 1.457 . S
C423 C424 1.291 . S
C423 H436 0.931 . S
C424 C423 1.291 . S
C424 C425 1.373 . S
C424 H437 0.929 . S
C425 C424 1.373 . S
C425 C426 1.396 . S
C425 C432 1.403 . S
C426 C416 1.476 . S
C426 N421 1.318 . S
C426 C425 1.396 . S
H427 C422 0.929 . S
O428 Mn404 2.385 . S
O428 C406 1.234 . S
O429 Mn404 2.209 . S
O429 Mn405 2.215 . S
O429 C406 1.283 . S
O430 Mn404 2.094 . S
O430 C408 1.240 . S
O431 Mn405 2.117 . S
O431 C408 1.264 . S
C432 C425 1.403 . S
C432 C433 1.399 . S
C432 H438 0.929 . S
C433 C413 1.449 . S
C433 C432 1.399 . S
C433 H439 0.930 . S
H434 C414 0.931 . S
H435 C415 0.930 . S
H436 C423 0.931 . S
H437 C424 0.929 . S
H438 C432 0.929 . S
H439 C433 0.930 . S
Mn440 O445 2.095 . S
Mn440 O455 2.162 . S
Mn440 O456 2.297 . S
Mn440 O464 2.385 . S
Mn440 O465 2.209 . S
Mn440 O466 2.094 . S
Mn441 O446 2.121 . S
Mn441 N448 2.257 . S
Mn441 N457 2.282 . S
Mn441 O465 2.215 . S
Mn441 O467 2.117 . S
C442 O464 1.234 . S
C442 O465 1.283 . S
C443 O455 1.281 . S
C443 O456 1.236 . S
C444 O466 1.240 . S
C444 O467 1.264 . S
O445 Mn440 2.095 . S
O445 C454 1.250 . S
O446 Mn441 2.121 . S
O446 C454 1.258 . S
C447 N448 1.326 . S
C447 C451 1.460 . S
C447 H453 0.929 . S
N448 Mn441 2.257 . S
N448 C447 1.326 . S
N448 C452 1.362 . S
C449 C450 1.258 . S
C449 C452 1.431 . S
C449 C469 1.449 . S
C450 C449 1.258 . S
C450 C451 1.477 . S
C450 H470 0.931 . S
C451 C447 1.460 . S
C451 C450 1.477 . S
C451 H471 0.930 . S
C452 N448 1.362 . S
C452 C449 1.431 . S
C452 C462 1.476 . S
H453 C447 0.929 . S
C454 O445 1.250 . S
C454 O446 1.258 . S
O455 Mn440 2.162 . S
O455 C443 1.281 . S
O456 Mn440 2.297 . S
O456 C443 1.236 . S
N457 Mn441 2.282 . S
N457 C458 1.328 . S
N457 C462 1.318 . S
C458 N457 1.328 . S
C458 C459 1.457 . S
C458 H463 0.929 . S
C459 C458 1.457 . S
C459 C460 1.291 . S
C459 H472 0.931 . S
C460 C459 1.291 . S
C460 C461 1.373 . S
C460 H473 0.929 . S
C461 C460 1.373 . S
C461 C462 1.396 . S
C461 C468 1.403 . S
C462 C452 1.476 . S
C462 N457 1.318 . S
C462 C461 1.396 . S
H463 C458 0.929 . S
O464 Mn440 2.385 . S
O464 C442 1.234 . S
O465 Mn440 2.209 . S
O465 Mn441 2.215 . S
O465 C442 1.283 . S
O466 Mn440 2.094 . S
O466 C444 1.240 . S
O467 Mn441 2.117 . S
O467 C444 1.264 . S
C468 C461 1.403 . S
C468 C469 1.399 . S
C468 H474 0.929 . S
C469 C449 1.449 . S
C469 C468 1.399 . S
C469 H475 0.930 . S
H470 C450 0.931 . S
H471 C451 0.930 . S
H472 C459 0.931 . S
H473 C460 0.929 . S
H474 C468 0.929 . S
H475 C469 0.930 . S
Mn476 O481 2.095 . S
Mn476 O491 2.162 . S
Mn476 O492 2.297 . S
Mn476 O500 2.385 . S
Mn476 O501 2.209 . S
Mn476 O502 2.094 . S
Mn477 O482 2.121 . S
Mn477 N484 2.257 . S
Mn477 N493 2.282 . S
Mn477 O501 2.215 . S
Mn477 O503 2.117 . S
C478 O500 1.234 . S
C478 O501 1.283 . S
C479 O491 1.281 . S
C479 O492 1.236 . S
C480 O502 1.240 . S
C480 O503 1.264 . S
O481 Mn476 2.095 . S
O481 C490 1.250 . S
O482 Mn477 2.121 . S
O482 C490 1.258 . S
C483 N484 1.326 . S
C483 C487 1.460 . S
C483 H489 0.929 . S
N484 Mn477 2.257 . S
N484 C483 1.326 . S
N484 C488 1.362 . S
C485 C486 1.258 . S
C485 C488 1.431 . S
C485 C505 1.449 . S
C486 C485 1.258 . S
C486 C487 1.477 . S
C486 H506 0.931 . S
C487 C483 1.460 . S
C487 C486 1.477 . S
C487 H507 0.930 . S
C488 N484 1.362 . S
C488 C485 1.431 . S
C488 C498 1.476 . S
H489 C483 0.929 . S
C490 O481 1.250 . S
C490 O482 1.258 . S
O491 Mn476 2.162 . S
O491 C479 1.281 . S
O492 Mn476 2.297 . S
O492 C479 1.236 . S
N493 Mn477 2.282 . S
N493 C494 1.328 . S
N493 C498 1.318 . S
C494 N493 1.328 . S
C494 C495 1.457 . S
C494 H499 0.929 . S
C495 C494 1.457 . S
C495 C496 1.291 . S
C495 H508 0.931 . S
C496 C495 1.291 . S
C496 C497 1.373 . S
C496 H509 0.929 . S
C497 C496 1.373 . S
C497 C498 1.396 . S
C497 C504 1.403 . S
C498 C488 1.476 . S
C498 N493 1.318 . S
C498 C497 1.396 . S
H499 C494 0.929 . S
O500 Mn476 2.385 . S
O500 C478 1.234 . S
O501 Mn476 2.209 . S
O501 Mn477 2.215 . S
O501 C478 1.283 . S
O502 Mn476 2.094 . S
O502 C480 1.240 . S
O503 Mn477 2.117 . S
O503 C480 1.264 . S
C504 C497 1.403 . S
C504 C505 1.399 . S
C504 H510 0.929 . S
C505 C485 1.449 . S
C505 C504 1.399 . S
C505 H511 0.930 . S
H506 C486 0.931 . S
H507 C487 0.930 . S
H508 C495 0.931 . S
H509 C496 0.929 . S
H510 C504 0.929 . S
H511 C505 0.930 . S
Mn512 O517 2.095 . S
Mn512 O527 2.162 . S
Mn512 O528 2.297 . S
Mn512 O536 2.385 . S
Mn512 O537 2.209 . S
Mn512 O538 2.094 . S
Mn513 O518 2.121 . S
Mn513 N520 2.257 . S
Mn513 N529 2.282 . S
Mn513 O537 2.215 . S
Mn513 O539 2.117 . S
C514 O536 1.234 . S
C514 O537 1.283 . S
C515 O527 1.281 . S
C515 O528 1.236 . S
C516 O538 1.240 . S
C516 O539 1.264 . S
O517 Mn512 2.095 . S
O517 C526 1.250 . S
O518 Mn513 2.121 . S
O518 C526 1.258 . S
C519 N520 1.326 . S
C519 C523 1.460 . S
C519 H525 0.929 . S
N520 Mn513 2.257 . S
N520 C519 1.326 . S
N520 C524 1.362 . S
C521 C522 1.258 . S
C521 C524 1.431 . S
C521 C541 1.449 . S
C522 C521 1.258 . S
C522 C523 1.477 . S
C522 H542 0.931 . S
C523 C519 1.460 . S
C523 C522 1.477 . S
C523 H543 0.930 . S
C524 N520 1.362 . S
C524 C521 1.431 . S
C524 C534 1.476 . S
H525 C519 0.929 . S
C526 O517 1.250 . S
C526 O518 1.258 . S
O527 Mn512 2.162 . S
O527 C515 1.281 . S
O528 Mn512 2.297 . S
O528 C515 1.236 . S
N529 Mn513 2.282 . S
N529 C530 1.328 . S
N529 C534 1.318 . S
C530 N529 1.328 . S
C530 C531 1.457 . S
C530 H535 0.929 . S
C531 C530 1.457 . S
C531 C532 1.291 . S
C531 H544 0.931 . S
C532 C531 1.291 . S
C532 C533 1.373 . S
C532 H545 0.929 . S
C533 C532 1.373 . S
C533 C534 1.396 . S
C533 C540 1.403 . S
C534 C524 1.476 . S
C534 N529 1.318 . S
C534 C533 1.396 . S
H535 C530 0.929 . S
O536 Mn512 2.385 . S
O536 C514 1.234 . S
O537 Mn512 2.209 . S
O537 Mn513 2.215 . S
O537 C514 1.283 . S
O538 Mn512 2.094 . S
O538 C516 1.240 . S
O539 Mn513 2.117 . S
O539 C516 1.264 . S
C540 C533 1.403 . S
C540 C541 1.399 . S
C540 H546 0.929 . S
C541 C521 1.449 . S
C541 C540 1.399 . S
C541 H547 0.930 . S
H542 C522 0.931 . S
H543 C523 0.930 . S
H544 C531 0.931 . S
H545 C532 0.929 . S
H546 C540 0.929 . S
H547 C541 0.930 . S
Mn548 O553 2.095 . S
Mn548 O563 2.162 . S
Mn548 O564 2.297 . S
Mn548 O572 2.385 . S
Mn548 O573 2.209 . S
Mn548 O574 2.094 . S
Mn549 O554 2.121 . S
Mn549 N556 2.257 . S
Mn549 N565 2.282 . S
Mn549 O573 2.215 . S
Mn549 O575 2.117 . S
C550 O572 1.234 . S
C550 O573 1.283 . S
C551 O563 1.281 . S
C551 O564 1.236 . S
C552 O574 1.240 . S
C552 O575 1.264 . S
O553 Mn548 2.095 . S
O553 C562 1.250 . S
O554 Mn549 2.121 . S
O554 C562 1.258 . S
C555 N556 1.326 . S
C555 C559 1.460 . S
C555 H561 0.929 . S
N556 Mn549 2.257 . S
N556 C555 1.326 . S
N556 C560 1.362 . S
C557 C558 1.258 . S
C557 C560 1.431 . S
C557 C577 1.449 . S
C558 C557 1.258 . S
C558 C559 1.477 . S
C558 H578 0.931 . S
C559 C555 1.460 . S
C559 C558 1.477 . S
C559 H579 0.930 . S
C560 N556 1.362 . S
C560 C557 1.431 . S
C560 C570 1.476 . S
H561 C555 0.929 . S
C562 O553 1.250 . S
C562 O554 1.258 . S
O563 Mn548 2.162 . S
O563 C551 1.281 . S
O564 Mn548 2.297 . S
O564 C551 1.236 . S
N565 Mn549 2.282 . S
N565 C566 1.328 . S
N565 C570 1.318 . S
C566 N565 1.328 . S
C566 C567 1.457 . S
C566 H571 0.929 . S
C567 C566 1.457 . S
C567 C568 1.291 . S
C567 H580 0.931 . S
C568 C567 1.291 . S
C568 C569 1.373 . S
C568 H581 0.929 . S
C569 C568 1.373 . S
C569 C570 1.396 . S
C569 C576 1.403 . S
C570 C560 1.476 . S
C570 N565 1.318 . S
C570 C569 1.396 . S
H571 C566 0.929 . S
O572 Mn548 2.385 . S
O572 C550 1.234 . S
O573 Mn548 2.209 . S
O573 Mn549 2.215 . S
O573 C550 1.283 . S
O574 Mn548 2.094 . S
O574 C552 1.240 . S
O575 Mn549 2.117 . S
O575 C552 1.264 . S
C576 C569 1.403 . S
C576 C577 1.399 . S
C576 H582 0.929 . S
C577 C557 1.449 . S
C577 C576 1.399 . S
C577 H583 0.930 . S
H578 C558 0.931 . S
H579 C559 0.930 . S
H580 C567 0.931 . S
H581 C568 0.929 . S
H582 C576 0.929 . S
H583 C577 0.930 . S
Mn584 O589 2.095 . S
Mn584 O599 2.166 . S
Mn584 O600 2.297 1_554 S
Mn584 O608 2.385 1_554 S
Mn584 O609 2.209 1_554 S
Mn584 O610 2.094 . S
Mn585 O590 2.121 . S
Mn585 N592 2.245 1_554 S
Mn585 N601 2.282 1_554 S
Mn585 O609 2.215 1_554 S
Mn585 O611 2.117 . S
C586 O608 1.234 . S
C586 O609 1.283 . S
C587 O599 1.271 1_556 S
C587 O600 1.236 . S
C588 O610 1.240 . S
C588 O611 1.264 . S
O589 Mn584 2.095 . S
O589 C598 1.250 . S
O590 Mn585 2.121 . S
O590 C598 1.258 . S
C591 N592 1.304 1_554 S
C591 C595 1.460 . S
C591 H597 0.929 . S
N592 Mn585 2.245 1_556 S
N592 C591 1.304 1_556 S
N592 C596 1.399 . S
C593 C594 1.258 . S
C593 C596 1.431 . S
C593 C613 1.449 . S
C594 C593 1.258 . S
C594 C595 1.477 1_556 S
C594 H614 0.931 . S
C595 C591 1.460 . S
C595 C594 1.477 1_554 S
C595 H615 0.930 . S
C596 N592 1.399 . S
C596 C593 1.431 . S
C596 C606 1.476 . S
H597 C591 0.929 . S
C598 O589 1.250 . S
C598 O590 1.258 . S
O599 Mn584 2.166 . S
O599 C587 1.271 1_554 S
O600 Mn584 2.297 1_556 S
O600 C587 1.236 . S
N601 Mn585 2.282 1_556 S
N601 C602 1.328 . S
N601 C606 1.318 . S
C602 N601 1.328 . S
C602 C603 1.457 . S
C602 H607 0.929 . S
C603 C602 1.457 . S
C603 C604 1.291 . S
C603 H616 0.931 . S
C604 C603 1.291 . S
C604 C605 1.373 . S
C604 H617 0.929 . S
C605 C604 1.373 . S
C605 C606 1.396 . S
C605 C612 1.403 . S
C606 C596 1.476 . S
C606 N601 1.318 . S
C606 C605 1.396 . S
H607 C602 0.929 . S
O608 Mn584 2.385 1_556 S
O608 C586 1.234 . S
O609 Mn584 2.209 1_556 S
O609 Mn585 2.215 1_556 S
O609 C586 1.283 . S
O610 Mn584 2.094 . S
O610 C588 1.240 . S
O611 Mn585 2.117 . S
O611 C588 1.264 . S
C612 C605 1.403 . S
C612 C613 1.399 . S
C612 H618 0.929 . S
C613 C593 1.449 . S
C613 C612 1.399 . S
C613 H619 0.930 . S
H614 C594 0.931 . S
H615 C595 0.930 . S
H616 C603 0.931 . S
H617 C604 0.929 . S
H618 C612 0.929 . S
H619 C613 0.930 . S
Mn620 O625 2.095 . S
Mn620 O635 2.162 . S
Mn620 O636 2.297 . S
Mn620 O644 2.385 . S
Mn620 O645 2.209 . S
Mn620 O646 2.094 . S
Mn621 O626 2.121 . S
Mn621 N628 2.257 . S
Mn621 N637 2.282 . S
Mn621 O645 2.215 . S
Mn621 O647 2.117 . S
C622 O644 1.234 . S
C622 O645 1.283 . S
C623 O635 1.281 . S
C623 O636 1.236 . S
C624 O646 1.240 . S
C624 O647 1.264 . S
O625 Mn620 2.095 . S
O625 C634 1.250 . S
O626 Mn621 2.121 . S
O626 C634 1.258 . S
C627 N628 1.326 . S
C627 C631 1.460 . S
C627 H633 0.929 . S
N628 Mn621 2.257 . S
N628 C627 1.326 . S
N628 C632 1.362 . S
C629 C630 1.258 . S
C629 C632 1.431 . S
C629 C649 1.449 . S
C630 C629 1.258 . S
C630 C631 1.477 . S
C630 H650 0.931 . S
C631 C627 1.460 . S
C631 C630 1.477 . S
C631 H651 0.930 . S
C632 N628 1.362 . S
C632 C629 1.431 . S
C632 C642 1.476 . S
H633 C627 0.929 . S
C634 O625 1.250 . S
C634 O626 1.258 . S
O635 Mn620 2.162 . S
O635 C623 1.281 . S
O636 Mn620 2.297 . S
O636 C623 1.236 . S
N637 Mn621 2.282 . S
N637 C638 1.328 . S
N637 C642 1.318 . S
C638 N637 1.328 . S
C638 C639 1.457 . S
C638 H643 0.929 . S
C639 C638 1.457 . S
C639 C640 1.291 . S
C639 H652 0.931 . S
C640 C639 1.291 . S
C640 C641 1.373 . S
C640 H653 0.929 . S
C641 C640 1.373 . S
C641 C642 1.396 . S
C641 C648 1.403 . S
C642 C632 1.476 . S
C642 N637 1.318 . S
C642 C641 1.396 . S
H643 C638 0.929 . S
O644 Mn620 2.385 . S
O644 C622 1.234 . S
O645 Mn620 2.209 . S
O645 Mn621 2.215 . S
O645 C622 1.283 . S
O646 Mn620 2.094 . S
O646 C624 1.240 . S
O647 Mn621 2.117 . S
O647 C624 1.264 . S
C648 C641 1.403 . S
C648 C649 1.399 . S
C648 H654 0.929 . S
C649 C629 1.449 . S
C649 C648 1.399 . S
C649 H655 0.930 . S
H650 C630 0.931 . S
H651 C631 0.930 . S
H652 C639 0.931 . S
H653 C640 0.929 . S
H654 C648 0.929 . S
H655 C649 0.930 . S
C656 C657 1.349 . S
C656 C658 1.327 . S
C656 H681 0.950 . S
C657 C656 1.349 . S
C657 C673 1.349 . S
C658 C656 1.327 . S
C658 C677 1.429 . S
C658 H682 0.950 . S
C659 C676 1.574 . S
C659 C678 1.368 . S
C659 H683 0.949 . S
H660 C664 0.949 . S
C661 C662 1.349 . S
C661 C663 1.327 . S
C661 H684 0.950 . S
C662 C661 1.349 . S
C662 C674 1.349 . S
C663 C661 1.327 . S
C663 C679 1.429 . S
C663 H685 0.950 . S
C664 H660 0.949 . S
C664 C672 1.574 . S
C664 C680 1.368 . S
H665 C673 0.950 . S
H666 C671 0.950 . S
H667 C672 0.949 . S
H668 C674 0.950 . S
H669 C675 0.950 . S
H670 C676 0.949 . S
C671 H666 0.950 . S
C671 C673 1.327 . S
C671 C677 1.429 . S
C672 C664 1.574 . S
C672 H667 0.949 . S
C672 C678 1.368 . S
C673 C657 1.349 . S
C673 H665 0.950 . S
C673 C671 1.327 . S
C674 C662 1.349 . S
C674 H668 0.950 . S
C674 C675 1.327 . S
C675 H669 0.950 . S
C675 C674 1.327 . S
C675 C679 1.429 . S
C676 C659 1.574 . S
C676 H670 0.949 . S
C676 C680 1.368 . S
C677 C658 1.429 . S
C677 C671 1.429 . S
C677 C678 1.523 . S
C678 C659 1.368 . S
C678 C672 1.368 . S
C678 C677 1.523 . S
C679 C663 1.429 . S
C679 C675 1.429 . S
C679 C680 1.523 . S
C680 C664 1.368 . S
C680 C676 1.368 . S
C680 C679 1.523 . S
H681 C656 0.950 . S
H682 C658 0.950 . S
H683 C659 0.949 . S
H684 C661 0.950 . S
H685 C663 0.950 . S
C686 C687 1.349 . S
C686 C688 1.327 . S
C686 H711 0.950 . S
C687 C686 1.349 . S
C687 C703 1.349 . S
C688 C686 1.327 . S
C688 C707 1.429 . S
C688 H712 0.950 . S
C689 C706 1.574 . S
C689 C708 1.368 . S
C689 H713 0.949 . S
H690 C694 0.949 . S
C691 C692 1.349 . S
C691 C693 1.327 . S
C691 H714 0.950 . S
C692 C691 1.349 . S
C692 C704 1.349 . S
C693 C691 1.327 . S
C693 C709 1.429 . S
C693 H715 0.950 . S
C694 H690 0.949 . S
C694 C702 1.574 . S
C694 C710 1.368 . S
H695 C703 0.950 . S
H696 C701 0.950 . S
H697 C702 0.949 . S
H698 C704 0.950 . S
H699 C705 0.950 . S
H700 C706 0.949 . S
C701 H696 0.950 . S
C701 C703 1.327 . S
C701 C707 1.429 . S
C702 C694 1.574 . S
C702 H697 0.949 . S
C702 C708 1.368 . S
C703 C687 1.349 . S
C703 H695 0.950 . S
C703 C701 1.327 . S
C704 C692 1.349 . S
C704 H698 0.950 . S
C704 C705 1.327 . S
C705 H699 0.950 . S
C705 C704 1.327 . S
C705 C709 1.429 . S
C706 C689 1.574 . S
C706 H700 0.949 . S
C706 C710 1.368 . S
C707 C688 1.429 . S
C707 C701 1.429 . S
C707 C708 1.523 . S
C708 C689 1.368 . S
C708 C702 1.368 . S
C708 C707 1.523 . S
C709 C693 1.429 . S
C709 C705 1.429 . S
C709 C710 1.523 . S
C710 C694 1.368 . S
C710 C706 1.368 . S
C710 C709 1.523 . S
H711 C686 0.950 . S
H712 C688 0.950 . S
H713 C689 0.949 . S
H714 C691 0.950 . S
H715 C693 0.950 . S
C716 C717 1.349 . S
C716 C718 1.327 . S
C716 H741 0.950 . S
C717 C716 1.349 . S
C717 C733 1.349 . S
C718 C716 1.327 . S
C718 C737 1.429 . S
C718 H742 0.950 . S
C719 C736 1.574 . S
C719 C738 1.368 . S
C719 H743 0.949 . S
H720 C724 0.949 . S
C721 C722 1.349 . S
C721 C723 1.327 . S
C721 H744 0.950 . S
C722 C721 1.349 . S
C722 C734 1.349 . S
C723 C721 1.327 . S
C723 C739 1.429 . S
C723 H745 0.950 . S
C724 H720 0.949 . S
C724 C732 1.574 . S
C724 C740 1.368 . S
H725 C733 0.950 . S
H726 C731 0.950 . S
H727 C732 0.949 . S
H728 C734 0.950 . S
H729 C735 0.950 . S
H730 C736 0.949 . S
C731 H726 0.950 . S
C731 C733 1.327 . S
C731 C737 1.429 . S
C732 C724 1.574 . S
C732 H727 0.949 . S
C732 C738 1.368 . S
C733 C717 1.349 . S
C733 H725 0.950 . S
C733 C731 1.327 . S
C734 C722 1.349 . S
C734 H728 0.950 . S
C734 C735 1.327 . S
C735 H729 0.950 . S
C735 C734 1.327 . S
C735 C739 1.429 . S
C736 C719 1.574 . S
C736 H730 0.949 . S
C736 C740 1.368 . S
C737 C718 1.429 . S
C737 C731 1.429 . S
C737 C738 1.523 . S
C738 C719 1.368 . S
C738 C732 1.368 . S
C738 C737 1.523 . S
C739 C723 1.429 . S
C739 C735 1.429 . S
C739 C740 1.523 . S
C740 C724 1.368 . S
C740 C736 1.368 . S
C740 C739 1.523 . S
H741 C716 0.950 . S
H742 C718 0.950 . S
H743 C719 0.949 . S
H744 C721 0.950 . S
H745 C723 0.950 . S
C746 C747 1.349 . S
C746 C748 1.327 . S
C746 H771 0.950 . S
C747 C746 1.349 . S
C747 C763 1.349 . S
C748 C746 1.327 . S
C748 C767 1.429 . S
C748 H772 0.950 . S
C749 C766 1.574 . S
C749 C768 1.368 . S
C749 H773 0.949 . S
H750 C754 0.949 . S
C751 C752 1.349 . S
C751 C753 1.327 . S
C751 H774 0.950 . S
C752 C751 1.349 . S
C752 C764 1.349 . S
C753 C751 1.327 . S
C753 C769 1.429 . S
C753 H775 0.950 . S
C754 H750 0.949 . S
C754 C762 1.574 . S
C754 C770 1.368 . S
H755 C763 0.950 . S
H756 C761 0.950 . S
H757 C762 0.949 . S
H758 C764 0.950 1_556 S
H759 C765 0.950 1_556 S
H760 C766 0.949 . S
C761 H756 0.950 . S
C761 C763 1.327 . S
C761 C767 1.429 . S
C762 C754 1.574 . S
C762 H757 0.949 . S
C762 C768 1.368 . S
C763 C747 1.349 . S
C763 H755 0.950 . S
C763 C761 1.327 . S
C764 C752 1.349 . S
C764 H758 0.950 1_554 S
C764 C765 1.327 . S
C765 H759 0.950 1_554 S
C765 C764 1.327 . S
C765 C769 1.429 . S
C766 C749 1.574 . S
C766 H760 0.949 . S
C766 C770 1.368 . S
C767 C748 1.429 . S
C767 C761 1.429 . S
C767 C768 1.523 . S
C768 C749 1.368 . S
C768 C762 1.368 . S
C768 C767 1.523 . S
C769 C753 1.429 . S
C769 C765 1.429 . S
C769 C770 1.523 . S
C770 C754 1.368 . S
C770 C766 1.368 . S
C770 C769 1.523 . S
H771 C746 0.950 . S
H772 C748 0.950 . S
H773 C749 0.949 . S
H774 C751 0.950 . S
H775 C753 0.950 . S
C776 C777 1.349 . S
C776 C778 1.327 . S
C776 H801 0.950 . S
C777 C776 1.349 . S
C777 C793 1.349 . S
C778 C776 1.327 . S
C778 C797 1.429 . S
C778 H802 0.950 . S
C779 C796 1.574 . S
C779 C798 1.368 . S
C779 H803 0.949 . S
H780 C784 0.949 . S
C781 C782 1.349 . S
C781 C783 1.327 . S
C781 H804 0.950 . S
C782 C781 1.349 . S
C782 C794 1.349 . S
C783 C781 1.327 . S
C783 C799 1.429 . S
C783 H805 0.950 . S
C784 H780 0.949 . S
C784 C792 1.574 . S
C784 C800 1.368 . S
H785 C793 0.950 . S
H786 C791 0.950 . S
H787 C792 0.949 . S
H788 C794 0.950 . S
H789 C795 0.950 . S
H790 C796 0.949 . S
C791 H786 0.950 . S
C791 C793 1.327 . S
C791 C797 1.429 . S
C792 C784 1.574 . S
C792 H787 0.949 . S
C792 C798 1.368 . S
C793 C777 1.349 . S
C793 H785 0.950 . S
C793 C791 1.327 . S
C794 C782 1.349 . S
C794 H788 0.950 . S
C794 C795 1.327 . S
C795 H789 0.950 . S
C795 C794 1.327 . S
C795 C799 1.429 . S
C796 C779 1.574 . S
C796 H790 0.949 . S
C796 C800 1.368 . S
C797 C778 1.429 . S
C797 C791 1.429 . S
C797 C798 1.523 . S
C798 C779 1.368 . S
C798 C792 1.368 . S
C798 C797 1.523 . S
C799 C783 1.429 . S
C799 C795 1.429 . S
C799 C800 1.523 . S
C800 C784 1.368 . S
C800 C796 1.368 . S
C800 C799 1.523 . S
H801 C776 0.950 . S
H802 C778 0.950 . S
H803 C779 0.949 . S
H804 C781 0.950 . S
H805 C783 0.950 . S
C806 C807 1.349 . S
C806 C808 1.327 . S
C806 H831 0.950 . S
C807 C806 1.349 . S
C807 C823 1.349 . S
C808 C806 1.327 . S
C808 C827 1.429 . S
C808 H832 0.950 . S
C809 C826 1.574 . S
C809 C828 1.368 . S
C809 H833 0.949 . S
H810 C814 0.949 . S
C811 C812 1.349 . S
C811 C813 1.327 . S
C811 H834 0.950 . S
C812 C811 1.349 . S
C812 C824 1.349 . S
C813 C811 1.327 . S
C813 C829 1.429 . S
C813 H835 0.950 . S
C814 H810 0.949 . S
C814 C822 1.574 . S
C814 C830 1.368 . S
H815 C823 0.950 . S
H816 C821 0.950 . S
H817 C822 0.949 . S
H818 C824 0.950 . S
H819 C825 0.950 . S
H820 C826 0.949 . S
C821 H816 0.950 . S
C821 C823 1.327 . S
C821 C827 1.429 . S
C822 C814 1.574 . S
C822 H817 0.949 . S
C822 C828 1.368 . S
C823 C807 1.349 . S
C823 H815 0.950 . S
C823 C821 1.327 . S
C824 C812 1.349 . S
C824 H818 0.950 . S
C824 C825 1.327 . S
C825 H819 0.950 . S
C825 C824 1.327 . S
C825 C829 1.429 . S
C826 C809 1.574 . S
C826 H820 0.949 . S
C826 C830 1.368 . S
C827 C808 1.429 . S
C827 C821 1.429 . S
C827 C828 1.523 . S
C828 C809 1.368 . S
C828 C822 1.368 . S
C828 C827 1.523 . S
C829 C813 1.429 . S
C829 C825 1.429 . S
C829 C830 1.523 . S
C830 C814 1.368 . S
C830 C826 1.368 . S
C830 C829 1.523 . S
H831 C806 0.950 . S
H832 C808 0.950 . S
H833 C809 0.949 . S
H834 C811 0.950 . S
H835 C813 0.950 . S
C836 C837 1.349 . S
C836 C838 1.327 . S
C836 H861 0.950 . S
C837 C836 1.349 . S
C837 C853 1.349 . S
C838 C836 1.327 . S
C838 C857 1.429 . S
C838 H862 0.950 . S
C839 C856 1.574 . S
C839 C858 1.368 . S
C839 H863 0.949 . S
H840 C844 0.949 . S
C841 C842 1.349 . S
C841 C843 1.327 . S
C841 H864 0.950 . S
C842 C841 1.349 . S
C842 C854 1.349 . S
C843 C841 1.327 . S
C843 C859 1.429 . S
C843 H865 0.950 . S
C844 H840 0.949 . S
C844 C852 1.574 . S
C844 C860 1.368 . S
H845 C853 0.950 . S
H846 C851 0.950 . S
H847 C852 0.949 . S
H848 C854 0.950 . S
H849 C855 0.950 . S
H850 C856 0.949 . S
C851 H846 0.950 . S
C851 C853 1.327 . S
C851 C857 1.429 . S
C852 C844 1.574 . S
C852 H847 0.949 . S
C852 C858 1.368 . S
C853 C837 1.349 . S
C853 H845 0.950 . S
C853 C851 1.327 . S
C854 C842 1.349 . S
C854 H848 0.950 . S
C854 C855 1.327 . S
C855 H849 0.950 . S
C855 C854 1.327 . S
C855 C859 1.429 . S
C856 C839 1.574 . S
C856 H850 0.949 . S
C856 C860 1.368 . S
C857 C838 1.429 . S
C857 C851 1.429 . S
C857 C858 1.523 . S
C858 C839 1.368 . S
C858 C852 1.368 . S
C858 C857 1.523 . S
C859 C843 1.429 . S
C859 C855 1.429 . S
C859 C860 1.523 . S
C860 C844 1.368 . S
C860 C856 1.368 . S
C860 C859 1.523 . S
H861 C836 0.950 . S
H862 C838 0.950 . S
H863 C839 0.949 . S
H864 C841 0.950 . S
H865 C843 0.950 . S
C866 C867 1.349 . S
C866 C868 1.327 . S
C866 H891 0.950 . S
C867 C866 1.349 . S
C867 C883 1.349 . S
C868 C866 1.327 . S
C868 C887 1.429 . S
C868 H892 0.950 . S
C869 C886 1.574 . S
C869 C888 1.368 . S
C869 H893 0.949 . S
H870 C874 0.949 . S
C871 C872 1.349 . S
C871 C873 1.327 . S
C871 H894 0.950 . S
C872 C871 1.349 . S
C872 C884 1.349 . S
C873 C871 1.327 . S
C873 C889 1.429 . S
C873 H895 0.950 . S
C874 H870 0.949 . S
C874 C882 1.574 . S
C874 C890 1.368 . S
H875 C883 0.950 . S
H876 C881 0.950 . S
H877 C882 0.949 . S
H878 C884 0.950 . S
H879 C885 0.950 . S
H880 C886 0.949 . S
C881 H876 0.950 . S
C881 C883 1.327 . S
C881 C887 1.429 . S
C882 C874 1.574 . S
C882 H877 0.949 . S
C882 C888 1.368 . S
C883 C867 1.349 . S
C883 H875 0.950 . S
C883 C881 1.327 . S
C884 C872 1.349 . S
C884 H878 0.950 . S
C884 C885 1.327 . S
C885 H879 0.950 . S
C885 C884 1.327 . S
C885 C889 1.429 . S
C886 C869 1.574 . S
C886 H880 0.949 . S
C886 C890 1.368 . S
C887 C868 1.429 . S
C887 C881 1.429 . S
C887 C888 1.523 . S
C888 C869 1.368 . S
C888 C882 1.368 . S
C888 C887 1.523 . S
C889 C873 1.429 . S
C889 C885 1.429 . S
C889 C890 1.523 . S
C890 C874 1.368 . S
C890 C886 1.368 . S
C890 C889 1.523 . S
H891 C866 0.950 . S
H892 C868 0.950 . S
H893 C869 0.949 . S
H894 C871 0.950 . S
H895 C873 0.950 . S
C896 C897 1.349 . S
C896 C898 1.327 . S
C896 H921 0.950 . S
C897 C896 1.349 . S
C897 C913 1.349 . S
C898 C896 1.327 . S
C898 C917 1.429 . S
C898 H922 0.950 . S
C899 C916 1.574 . S
C899 C918 1.368 . S
C899 H923 0.949 . S
H900 C904 0.949 . S
C901 C902 1.349 . S
C901 C903 1.327 . S
C901 H924 0.950 . S
C902 C901 1.349 . S
C902 C914 1.349 . S
C903 C901 1.327 . S
C903 C919 1.429 . S
C903 H925 0.950 . S
C904 H900 0.949 . S
C904 C912 1.574 . S
C904 C920 1.368 . S
H905 C913 0.950 . S
H906 C911 0.950 . S
H907 C912 0.949 . S
H908 C914 0.950 . S
H909 C915 0.950 . S
H910 C916 0.949 . S
C911 H906 0.950 . S
C911 C913 1.327 . S
C911 C917 1.429 . S
C912 C904 1.574 . S
C912 H907 0.949 . S
C912 C918 1.368 . S
C913 C897 1.349 . S
C913 H905 0.950 . S
C913 C911 1.327 . S
C914 C902 1.349 . S
C914 H908 0.950 . S
C914 C915 1.327 . S
C915 H909 0.950 . S
C915 C914 1.327 . S
C915 C919 1.429 . S
C916 C899 1.574 . S
C916 H910 0.949 . S
C916 C920 1.368 . S
C917 C898 1.429 . S
C917 C911 1.429 . S
C917 C918 1.523 . S
C918 C899 1.368 . S
C918 C912 1.368 . S
C918 C917 1.523 . S
C919 C903 1.429 . S
C919 C915 1.429 . S
C919 C920 1.523 . S
C920 C904 1.368 . S
C920 C916 1.368 . S
C920 C919 1.523 . S
H921 C896 0.950 . S
H922 C898 0.950 . S
H923 C899 0.949 . S
H924 C901 0.950 . S
H925 C903 0.950 . S
C926 C927 1.349 . S
C926 C928 1.327 . S
C926 H951 0.950 . S
C927 C926 1.349 . S
C927 C943 1.349 . S
C928 C926 1.327 . S
C928 C947 1.429 . S
C928 H952 0.950 . S
C929 C946 1.574 . S
C929 C948 1.368 . S
C929 H953 0.949 . S
H930 C934 0.949 . S
C931 C932 1.349 . S
C931 C933 1.327 . S
C931 H954 0.950 . S
C932 C931 1.349 . S
C932 C944 1.349 . S
C933 C931 1.327 . S
C933 C949 1.429 . S
C933 H955 0.950 . S
C934 H930 0.949 . S
C934 C942 1.574 . S
C934 C950 1.368 . S
H935 C943 0.950 . S
H936 C941 0.950 . S
H937 C942 0.949 . S
H938 C944 0.950 1_556 S
H939 C945 0.936 1_556 S
H940 C946 0.949 . S
C941 H936 0.950 . S
C941 C943 1.327 . S
C941 C947 1.429 . S
C942 C934 1.574 . S
C942 H937 0.949 . S
C942 C948 1.368 . S
C943 C927 1.349 . S
C943 H935 0.950 . S
C943 C941 1.327 . S
C944 C932 1.349 . S
C944 H938 0.950 1_554 S
C944 C945 1.327 . S
C945 H939 0.936 1_554 S
C945 C944 1.327 . S
C945 C949 1.429 . S
C946 C929 1.574 . S
C946 H940 0.949 . S
C946 C950 1.368 . S
C947 C928 1.429 . S
C947 C941 1.429 . S
C947 C948 1.523 . S
C948 C929 1.368 . S
C948 C942 1.368 . S
C948 C947 1.523 . S
C949 C933 1.429 . S
C949 C945 1.429 . S
C949 C950 1.523 . S
C950 C934 1.368 . S
C950 C946 1.368 . S
C950 C949 1.523 . S
H951 C926 0.950 . S
H952 C928 0.950 . S
H953 C929 0.949 . S
H954 C931 0.950 . S
H955 C933 0.950 . S
C956 C957 1.349 . S
C956 C958 1.327 . S
C956 H981 0.950 . S
C957 C956 1.349 . S
C957 C973 1.349 . S
C958 C956 1.327 . S
C958 C977 1.429 . S
C958 H982 0.950 . S
C959 C976 1.574 . S
C959 C978 1.368 . S
C959 H983 0.949 . S
H960 C964 0.949 . S
C961 C962 1.349 . S
C961 C963 1.327 . S
C961 H984 0.950 . S
C962 C961 1.349 . S
C962 C974 1.349 . S
C963 C961 1.327 . S
C963 C979 1.429 . S
C963 H985 0.950 . S
C964 H960 0.949 . S
C964 C972 1.574 . S
C964 C980 1.368 . S
H965 C973 0.950 . S
H966 C971 0.950 . S
H967 C972 0.949 . S
H968 C974 0.950 . S
H969 C975 0.950 . S
H970 C976 0.949 . S
C971 H966 0.950 . S
C971 C973 1.327 . S
C971 C977 1.429 . S
C972 C964 1.574 . S
C972 H967 0.949 . S
C972 C978 1.368 . S
C973 C957 1.349 . S
C973 H965 0.950 . S
C973 C971 1.327 . S
C974 C962 1.349 . S
C974 H968 0.950 . S
C974 C975 1.327 . S
C975 H969 0.950 . S
C975 C974 1.327 . S
C975 C979 1.429 . S
C976 C959 1.574 . S
C976 H970 0.949 . S
C976 C980 1.368 . S
C977 C958 1.429 . S
C977 C971 1.429 . S
C977 C978 1.523 . S
C978 C959 1.368 . S
C978 C972 1.368 . S
C978 C977 1.523 . S
C979 C963 1.429 . S
C979 C975 1.429 . S
C979 C980 1.523 . S
C980 C964 1.368 . S
C980 C976 1.368 . S
C980 C979 1.523 . S
H981 C956 0.950 . S
H982 C958 0.950 . S
H983 C959 0.949 . S
H984 C961 0.950 . S
H985 C963 0.950 . S
C986 C987 1.349 . S
C986 C988 1.327 . S
C986 H1011 0.950 . S
C987 C986 1.349 . S
C987 C1003 1.349 . S
C988 C986 1.327 . S
C988 C1007 1.429 . S
C988 H1012 0.950 . S
C989 C1006 1.574 . S
C989 C1008 1.368 . S
C989 H1013 0.949 . S
H990 C994 0.949 . S
C991 C992 1.349 . S
C991 C993 1.327 . S
C991 H1014 0.950 . S
C992 C991 1.349 . S
C992 C1004 1.349 . S
C993 C991 1.327 . S
C993 C1009 1.429 . S
C993 H1015 0.950 . S
C994 H990 0.949 . S
C994 C1002 1.574 . S
C994 C1010 1.368 . S
H995 C1003 0.950 . S
H996 C1001 0.950 . S
H997 C1002 0.949 . S
H998 C1004 0.950 . S
H999 C1005 0.950 . S
H1000 C1006 0.949 . S
C1001 H996 0.950 . S
C1001 C1003 1.327 . S
C1001 C1007 1.429 . S
C1002 C994 1.574 . S
C1002 H997 0.949 . S
C1002 C1008 1.368 . S
C1003 C987 1.349 . S
C1003 H995 0.950 . S
C1003 C1001 1.327 . S
C1004 C992 1.349 . S
C1004 H998 0.950 . S
C1004 C1005 1.327 . S
C1005 H999 0.950 . S
C1005 C1004 1.327 . S
C1005 C1009 1.429 . S
C1006 C989 1.574 . S
C1006 H1000 0.949 . S
C1006 C1010 1.368 . S
C1007 C988 1.429 . S
C1007 C1001 1.429 . S
C1007 C1008 1.523 . S
C1008 C989 1.368 . S
C1008 C1002 1.368 . S
C1008 C1007 1.523 . S
C1009 C993 1.429 . S
C1009 C1005 1.429 . S
C1009 C1010 1.523 . S
C1010 C994 1.368 . S
C1010 C1006 1.368 . S
C1010 C1009 1.523 . S
H1011 C986 0.950 . S
H1012 C988 0.950 . S
H1013 C989 0.949 . S
H1014 C991 0.950 . S
H1015 C993 0.950 . S
C1016 C1017 1.349 . S
C1016 C1018 1.327 . S
C1016 H1041 0.950 . S
C1017 C1016 1.349 . S
C1017 C1033 1.349 . S
C1018 C1016 1.327 . S
C1018 C1037 1.429 . S
C1018 H1042 0.950 . S
C1019 C1036 1.574 . S
C1019 C1038 1.368 . S
C1019 H1043 0.949 . S
H1020 C1024 0.949 . S
C1021 C1022 1.349 . S
C1021 C1023 1.327 . S
C1021 H1044 0.950 . S
C1022 C1021 1.349 . S
C1022 C1034 1.349 . S
C1023 C1021 1.327 . S
C1023 C1039 1.429 . S
C1023 H1045 0.950 . S
C1024 H1020 0.949 . S
C1024 C1032 1.574 . S
C1024 C1040 1.368 . S
H1025 C1033 0.950 . S
H1026 C1031 0.950 . S
H1027 C1032 0.949 . S
H1028 C1034 0.950 . S
H1029 C1035 0.950 . S
H1030 C1036 0.949 . S
C1031 H1026 0.950 . S
C1031 C1033 1.327 . S
C1031 C1037 1.429 . S
C1032 C1024 1.574 . S
C1032 H1027 0.949 . S
C1032 C1038 1.368 . S
C1033 C1017 1.349 . S
C1033 H1025 0.950 . S
C1033 C1031 1.327 . S
C1034 C1022 1.349 . S
C1034 H1028 0.950 . S
C1034 C1035 1.327 . S
C1035 H1029 0.950 . S
C1035 C1034 1.327 . S
C1035 C1039 1.429 . S
C1036 C1019 1.574 . S
C1036 H1030 0.949 . S
C1036 C1040 1.368 . S
C1037 C1018 1.429 . S
C1037 C1031 1.429 . S
C1037 C1038 1.523 . S
C1038 C1019 1.368 . S
C1038 C1032 1.368 . S
C1038 C1037 1.523 . S
C1039 C1023 1.429 . S
C1039 C1035 1.429 . S
C1039 C1040 1.523 . S
C1040 C1024 1.368 . S
C1040 C1036 1.368 . S
C1040 C1039 1.523 . S
H1041 C1016 0.950 . S
H1042 C1018 0.950 . S
H1043 C1019 0.949 . S
H1044 C1021 0.950 . S
H1045 C1023 0.950 . S
C1046 C1047 1.349 . S
C1046 C1048 1.327 . S
C1046 H1071 0.950 . S
C1047 C1046 1.349 . S
C1047 C1063 1.349 . S
C1048 C1046 1.327 . S
C1048 C1067 1.429 . S
C1048 H1072 0.950 . S
C1049 C1066 1.574 . S
C1049 C1068 1.368 . S
C1049 H1073 0.949 . S
H1050 C1054 0.949 . S
C1051 C1052 1.349 . S
C1051 C1053 1.327 . S
C1051 H1074 0.950 . S
C1052 C1051 1.349 . S
C1052 C1064 1.349 . S
C1053 C1051 1.327 . S
C1053 C1069 1.429 . S
C1053 H1075 0.950 . S
C1054 H1050 0.949 . S
C1054 C1062 1.574 . S
C1054 C1070 1.368 . S
H1055 C1063 0.950 . S
H1056 C1061 0.950 . S
H1057 C1062 0.949 . S
H1058 C1064 0.950 . S
H1059 C1065 0.950 . S
H1060 C1066 0.949 . S
C1061 H1056 0.950 . S
C1061 C1063 1.327 . S
C1061 C1067 1.429 . S
C1062 C1054 1.574 . S
C1062 H1057 0.949 . S
C1062 C1068 1.368 . S
C1063 C1047 1.349 . S
C1063 H1055 0.950 . S
C1063 C1061 1.327 . S
C1064 C1052 1.349 . S
C1064 H1058 0.950 . S
C1064 C1065 1.327 . S
C1065 H1059 0.950 . S
C1065 C1064 1.327 . S
C1065 C1069 1.429 . S
C1066 C1049 1.574 . S
C1066 H1060 0.949 . S
C1066 C1070 1.368 . S
C1067 C1048 1.429 . S
C1067 C1061 1.429 . S
C1067 C1068 1.523 . S
C1068 C1049 1.368 . S
C1068 C1062 1.368 . S
C1068 C1067 1.523 . S
C1069 C1053 1.429 . S
C1069 C1065 1.429 . S
C1069 C1070 1.523 . S
C1070 C1054 1.368 . S
C1070 C1066 1.368 . S
C1070 C1069 1.523 . S
H1071 C1046 0.950 . S
H1072 C1048 0.950 . S
H1073 C1049 0.949 . S
H1074 C1051 0.950 . S
H1075 C1053 0.950 . S
C1076 C1077 1.349 . S
C1076 C1078 1.327 . S
C1076 H1101 0.950 . S
C1077 C1076 1.349 . S
C1077 C1093 1.349 . S
C1078 C1076 1.327 . S
C1078 C1097 1.429 . S
C1078 H1102 0.950 . S
C1079 C1096 1.574 . S
C1079 C1098 1.368 . S
C1079 H1103 0.949 . S
H1080 C1084 0.949 . S
C1081 C1082 1.372 . S
C1081 C1083 1.346 . S
C1081 H1104 0.912 1_556 S
C1082 C1081 1.372 . S
C1082 C1094 1.349 . S
C1083 C1081 1.346 . S
C1083 C1099 1.429 . S
C1083 H1105 0.978 . S
C1084 H1080 0.949 . S
C1084 C1092 1.574 . S
C1084 C1100 1.368 . S
H1085 C1093 0.950 . S
H1086 C1091 0.950 . S
H1087 C1092 0.949 . S
H1088 C1094 0.950 . S
H1089 C1095 0.950 . S
H1090 C1096 0.949 . S
C1091 H1086 0.950 . S
C1091 C1093 1.327 . S
C1091 C1097 1.429 . S
C1092 C1084 1.574 . S
C1092 H1087 0.949 . S
C1092 C1098 1.368 . S
C1093 C1077 1.349 . S
C1093 H1085 0.950 . S
C1093 C1091 1.327 . S
C1094 C1082 1.349 . S
C1094 H1088 0.950 . S
C1094 C1095 1.327 . S
C1095 H1089 0.950 . S
C1095 C1094 1.327 . S
C1095 C1099 1.429 . S
C1096 C1079 1.574 . S
C1096 H1090 0.949 . S
C1096 C1100 1.368 . S
C1097 C1078 1.429 . S
C1097 C1091 1.429 . S
C1097 C1098 1.523 . S
C1098 C1079 1.368 . S
C1098 C1092 1.368 . S
C1098 C1097 1.523 . S
C1099 C1083 1.429 . S
C1099 C1095 1.429 . S
C1099 C1100 1.523 . S
C1100 C1084 1.368 . S
C1100 C1096 1.368 . S
C1100 C1099 1.523 . S
H1101 C1076 0.950 . S
H1102 C1078 0.950 . S
H1103 C1079 0.949 . S
H1104 C1081 0.912 1_554 S
H1105 C1083 0.978 . S
C1106 C1107 1.349 . S
C1106 C1108 1.327 . S
C1106 H1131 0.950 . S
C1107 C1106 1.349 . S
C1107 C1123 1.349 . S
C1108 C1106 1.327 . S
C1108 C1127 1.429 . S
C1108 H1132 0.950 . S
C1109 C1126 1.574 . S
C1109 C1128 1.368 . S
C1109 H1133 0.949 . S
H1110 C1114 0.949 . S
C1111 C1112 1.349 . S
C1111 C1113 1.327 . S
C1111 H1134 0.950 . S
C1112 C1111 1.349 . S
C1112 C1124 1.349 . S
C1113 C1111 1.327 . S
C1113 C1129 1.429 . S
C1113 H1135 0.950 . S
C1114 H1110 0.949 . S
C1114 C1122 1.574 . S
C1114 C1130 1.368 . S
H1115 C1123 0.950 . S
H1116 C1121 0.950 . S
H1117 C1122 0.949 . S
H1118 C1124 0.950 . S
H1119 C1125 0.950 . S
H1120 C1126 0.949 . S
C1121 H1116 0.950 . S
C1121 C1123 1.327 . S
C1121 C1127 1.429 . S
C1122 C1114 1.574 . S
C1122 H1117 0.949 . S
C1122 C1128 1.368 . S
C1123 C1107 1.349 . S
C1123 H1115 0.950 . S
C1123 C1121 1.327 . S
C1124 C1112 1.349 . S
C1124 H1118 0.950 . S
C1124 C1125 1.327 . S
C1125 H1119 0.950 . S
C1125 C1124 1.327 . S
C1125 C1129 1.429 . S
C1126 C1109 1.574 . S
C1126 H1120 0.949 . S
C1126 C1130 1.368 . S
C1127 C1108 1.429 . S
C1127 C1121 1.429 . S
C1127 C1128 1.523 . S
C1128 C1109 1.368 . S
C1128 C1122 1.368 . S
C1128 C1127 1.523 . S
C1129 C1113 1.429 . S
C1129 C1125 1.429 . S
C1129 C1130 1.523 . S
C1130 C1114 1.368 . S
C1130 C1126 1.368 . S
C1130 C1129 1.523 . S
H1131 C1106 0.950 . S
H1132 C1108 0.950 . S
H1133 C1109 0.949 . S
H1134 C1111 0.950 . S
H1135 C1113 0.950 . S
C1136 C1137 1.349 . S
C1136 C1138 1.327 . S
C1136 H1161 0.950 . S
C1137 C1136 1.349 . S
C1137 C1153 1.349 . S
C1138 C1136 1.327 . S
C1138 C1157 1.429 . S
C1138 H1162 0.950 . S
C1139 C1156 1.574 . S
C1139 C1158 1.368 . S
C1139 H1163 0.949 . S
H1140 C1144 0.949 . S
C1141 C1142 1.349 . S
C1141 C1143 1.327 . S
C1141 H1164 0.950 . S
C1142 C1141 1.349 . S
C1142 C1154 1.349 . S
C1143 C1141 1.327 . S
C1143 C1159 1.429 . S
C1143 H1165 0.950 . S
C1144 H1140 0.949 . S
C1144 C1152 1.574 . S
C1144 C1160 1.368 . S
H1145 C1153 0.950 . S
H1146 C1151 0.950 . S
H1147 C1152 0.949 . S
H1148 C1154 0.950 . S
H1149 C1155 0.950 . S
H1150 C1156 0.949 . S
C1151 H1146 0.950 . S
C1151 C1153 1.327 . S
C1151 C1157 1.429 . S
C1152 C1144 1.574 . S
C1152 H1147 0.949 . S
C1152 C1158 1.368 . S
C1153 C1137 1.349 . S
C1153 H1145 0.950 . S
C1153 C1151 1.327 . S
C1154 C1142 1.349 . S
C1154 H1148 0.950 . S
C1154 C1155 1.327 . S
C1155 H1149 0.950 . S
C1155 C1154 1.327 . S
C1155 C1159 1.429 . S
C1156 C1139 1.574 . S
C1156 H1150 0.949 . S
C1156 C1160 1.368 . S
C1157 C1138 1.429 . S
C1157 C1151 1.429 . S
C1157 C1158 1.523 . S
C1158 C1139 1.368 . S
C1158 C1152 1.368 . S
C1158 C1157 1.523 . S
C1159 C1143 1.429 . S
C1159 C1155 1.429 . S
C1159 C1160 1.523 . S
C1160 C1144 1.368 . S
C1160 C1156 1.368 . S
C1160 C1159 1.523 . S
H1161 C1136 0.950 . S
H1162 C1138 0.950 . S
H1163 C1139 0.949 . S
H1164 C1141 0.950 . S
H1165 C1143 0.950 . S
C1166 C1167 1.349 . S
C1166 C1168 1.327 . S
C1166 H1191 0.950 . S
C1167 C1166 1.349 . S
C1167 C1183 1.349 . S
C1168 C1166 1.327 . S
C1168 C1187 1.429 . S
C1168 H1192 0.950 . S
C1169 C1186 1.574 . S
C1169 C1188 1.368 . S
C1169 H1193 0.949 . S
H1170 C1174 0.949 . S
C1171 C1172 1.349 . S
C1171 C1173 1.327 . S
C1171 H1194 0.950 . S
C1172 C1171 1.349 . S
C1172 C1184 1.349 . S
C1173 C1171 1.327 . S
C1173 C1189 1.429 . S
C1173 H1195 0.950 . S
C1174 H1170 0.949 . S
C1174 C1182 1.574 . S
C1174 C1190 1.368 . S
H1175 C1183 0.950 . S
H1176 C1181 0.950 . S
H1177 C1182 0.949 . S
H1178 C1184 0.950 . S
H1179 C1185 0.950 . S
H1180 C1186 0.949 . S
C1181 H1176 0.950 . S
C1181 C1183 1.327 . S
C1181 C1187 1.429 . S
C1182 C1174 1.574 . S
C1182 H1177 0.949 . S
C1182 C1188 1.368 . S
C1183 C1167 1.349 . S
C1183 H1175 0.950 . S
C1183 C1181 1.327 . S
C1184 C1172 1.349 . S
C1184 H1178 0.950 . S
C1184 C1185 1.327 . S
C1185 H1179 0.950 . S
C1185 C1184 1.327 . S
C1185 C1189 1.429 . S
C1186 C1169 1.574 . S
C1186 H1180 0.949 . S
C1186 C1190 1.368 . S
C1187 C1168 1.429 . S
C1187 C1181 1.429 . S
C1187 C1188 1.523 . S
C1188 C1169 1.368 . S
C1188 C1182 1.368 . S
C1188 C1187 1.523 . S
C1189 C1173 1.429 . S
C1189 C1185 1.429 . S
C1189 C1190 1.523 . S
C1190 C1174 1.368 . S
C1190 C1186 1.368 . S
C1190 C1189 1.523 . S
H1191 C1166 0.950 . S
H1192 C1168 0.950 . S
H1193 C1169 0.949 . S
H1194 C1171 0.950 . S
H1195 C1173 0.950 . S
C1196 C1197 1.349 . S
C1196 C1198 1.327 . S
C1196 H1221 0.950 . S
C1197 C1196 1.349 . S
C1197 C1213 1.349 . S
C1198 C1196 1.327 . S
C1198 C1217 1.429 . S
C1198 H1222 0.950 . S
C1199 C1216 1.574 . S
C1199 C1218 1.368 . S
C1199 H1223 0.949 . S
H1200 C1204 0.949 . S
C1201 C1202 1.349 . S
C1201 C1203 1.327 . S
C1201 H1224 0.950 . S
C1202 C1201 1.349 . S
C1202 C1214 1.349 . S
C1203 C1201 1.327 . S
C1203 C1219 1.429 . S
C1203 H1225 0.950 . S
C1204 H1200 0.949 . S
C1204 C1212 1.574 . S
C1204 C1220 1.368 . S
H1205 C1213 0.950 . S
H1206 C1211 0.950 . S
H1207 C1212 0.949 . S
H1208 C1214 0.950 . S
H1209 C1215 0.950 . S
H1210 C1216 0.949 . S
C1211 H1206 0.950 . S
C1211 C1213 1.327 . S
C1211 C1217 1.429 . S
C1212 C1204 1.574 . S
C1212 H1207 0.949 . S
C1212 C1218 1.368 . S
C1213 C1197 1.349 . S
C1213 H1205 0.950 . S
C1213 C1211 1.327 . S
C1214 C1202 1.349 . S
C1214 H1208 0.950 . S
C1214 C1215 1.327 . S
C1215 H1209 0.950 . S
C1215 C1214 1.327 . S
C1215 C1219 1.429 . S
C1216 C1199 1.574 . S
C1216 H1210 0.949 . S
C1216 C1220 1.368 . S
C1217 C1198 1.429 . S
C1217 C1211 1.429 . S
C1217 C1218 1.523 . S
C1218 C1199 1.368 . S
C1218 C1212 1.368 . S
C1218 C1217 1.523 . S
C1219 C1203 1.429 . S
C1219 C1215 1.429 . S
C1219 C1220 1.523 . S
C1220 C1204 1.368 . S
C1220 C1216 1.368 . S
C1220 C1219 1.523 . S
H1221 C1196 0.950 . S
H1222 C1198 0.950 . S
H1223 C1199 0.949 . S
H1224 C1201 0.950 . S
H1225 C1203 0.950 . S
C1226 C1227 1.349 . S
C1226 C1228 1.327 . S
C1226 H1251 0.950 . S
C1227 C1226 1.349 . S
C1227 C1243 1.349 . S
C1228 C1226 1.327 . S
C1228 C1247 1.429 . S
C1228 H1252 0.950 . S
C1229 C1246 1.574 . S
C1229 C1248 1.368 . S
C1229 H1253 0.949 . S
H1230 C1234 0.949 . S
C1231 C1232 1.349 . S
C1231 C1233 1.327 . S
C1231 H1254 0.950 . S
C1232 C1231 1.349 . S
C1232 C1244 1.349 . S
C1233 C1231 1.327 . S
C1233 C1249 1.429 . S
C1233 H1255 0.950 . S
C1234 H1230 0.949 . S
C1234 C1242 1.574 . S
C1234 C1250 1.368 . S
H1235 C1243 0.950 . S
H1236 C1241 0.950 . S
H1237 C1242 0.949 . S
H1238 C1244 0.950 . S
H1239 C1245 0.950 . S
H1240 C1246 0.949 . S
C1241 H1236 0.950 . S
C1241 C1243 1.327 . S
C1241 C1247 1.429 . S
C1242 C1234 1.574 . S
C1242 H1237 0.949 . S
C1242 C1248 1.368 . S
C1243 C1227 1.349 . S
C1243 H1235 0.950 . S
C1243 C1241 1.327 . S
C1244 C1232 1.349 . S
C1244 H1238 0.950 . S
C1244 C1245 1.327 . S
C1245 H1239 0.950 . S
C1245 C1244 1.327 . S
C1245 C1249 1.429 . S
C1246 C1229 1.574 . S
C1246 H1240 0.949 . S
C1246 C1250 1.368 . S
C1247 C1228 1.429 . S
C1247 C1241 1.429 . S
C1247 C1248 1.523 . S
C1248 C1229 1.368 . S
C1248 C1242 1.368 . S
C1248 C1247 1.523 . S
C1249 C1233 1.429 . S
C1249 C1245 1.429 . S
C1249 C1250 1.523 . S
C1250 C1234 1.368 . S
C1250 C1246 1.368 . S
C1250 C1249 1.523 . S
H1251 C1226 0.950 . S
H1252 C1228 0.950 . S
H1253 C1229 0.949 . S
H1254 C1231 0.950 . S
H1255 C1233 0.950 . S
C1256 C1257 1.349 . S
C1256 C1258 1.327 . S
C1256 H1281 0.950 . S
C1257 C1256 1.349 . S
C1257 C1273 1.349 . S
C1258 C1256 1.327 . S
C1258 C1277 1.429 . S
C1258 H1282 0.950 . S
C1259 C1276 1.574 . S
C1259 C1278 1.368 . S
C1259 H1283 0.949 . S
H1260 C1264 0.949 . S
C1261 C1262 1.349 . S
C1261 C1263 1.327 . S
C1261 H1284 0.950 . S
C1262 C1261 1.349 . S
C1262 C1274 1.349 . S
C1263 C1261 1.327 . S
C1263 C1279 1.429 . S
C1263 H1285 0.950 . S
C1264 H1260 0.949 . S
C1264 C1272 1.574 . S
C1264 C1280 1.368 . S
H1265 C1273 0.950 . S
H1266 C1271 0.950 . S
H1267 C1272 0.949 . S
H1268 C1274 0.950 . S
H1269 C1275 0.950 . S
H1270 C1276 0.949 . S
C1271 H1266 0.950 . S
C1271 C1273 1.327 . S
C1271 C1277 1.429 . S
C1272 C1264 1.574 . S
C1272 H1267 0.949 . S
C1272 C1278 1.368 . S
C1273 C1257 1.349 . S
C1273 H1265 0.950 . S
C1273 C1271 1.327 . S
C1274 C1262 1.349 . S
C1274 H1268 0.950 . S
C1274 C1275 1.327 . S
C1275 H1269 0.950 . S
C1275 C1274 1.327 . S
C1275 C1279 1.429 . S
C1276 C1259 1.574 . S
C1276 H1270 0.949 . S
C1276 C1280 1.368 . S
C1277 C1258 1.429 . S
C1277 C1271 1.429 . S
C1277 C1278 1.523 . S
C1278 C1259 1.368 . S
C1278 C1272 1.368 . S
C1278 C1277 1.523 . S
C1279 C1263 1.429 . S
C1279 C1275 1.429 . S
C1279 C1280 1.523 . S
C1280 C1264 1.368 . S
C1280 C1276 1.368 . S
C1280 C1279 1.523 . S
H1281 C1256 0.950 . S
H1282 C1258 0.950 . S
H1283 C1259 0.949 . S
H1284 C1261 0.950 . S
H1285 C1263 0.950 . S
C1286 C1287 1.349 . S
C1286 C1288 1.327 . S
C1286 H1311 0.950 . S
C1287 C1286 1.349 . S
C1287 C1303 1.349 . S
C1288 C1286 1.327 . S
C1288 C1307 1.429 . S
C1288 H1312 0.950 . S
C1289 C1306 1.574 . S
C1289 C1308 1.368 . S
C1289 H1313 0.949 . S
H1290 C1294 0.949 . S
C1291 C1292 1.349 . S
C1291 C1293 1.327 . S
C1291 H1314 0.950 . S
C1292 C1291 1.349 . S
C1292 C1304 1.349 . S
C1293 C1291 1.327 . S
C1293 C1309 1.429 . S
C1293 H1315 0.950 . S
C1294 H1290 0.949 . S
C1294 C1302 1.574 . S
C1294 C1310 1.368 . S
H1295 C1303 0.950 . S
H1296 C1301 0.950 . S
H1297 C1302 0.949 . S
H1298 C1304 0.950 . S
H1299 C1305 0.950 . S
H1300 C1306 0.949 . S
C1301 H1296 0.950 . S
C1301 C1303 1.327 . S
C1301 C1307 1.429 . S
C1302 C1294 1.574 . S
C1302 H1297 0.949 . S
C1302 C1308 1.368 . S
C1303 C1287 1.349 . S
C1303 H1295 0.950 . S
C1303 C1301 1.327 . S
C1304 C1292 1.349 . S
C1304 H1298 0.950 . S
C1304 C1305 1.327 . S
C1305 H1299 0.950 . S
C1305 C1304 1.327 . S
C1305 C1309 1.429 . S
C1306 C1289 1.574 . S
C1306 H1300 0.949 . S
C1306 C1310 1.368 . S
C1307 C1288 1.429 . S
C1307 C1301 1.429 . S
C1307 C1308 1.523 . S
C1308 C1289 1.368 . S
C1308 C1302 1.368 . S
C1308 C1307 1.523 . S
C1309 C1293 1.429 . S
C1309 C1305 1.429 . S
C1309 C1310 1.523 . S
C1310 C1294 1.368 . S
C1310 C1306 1.368 . S
C1310 C1309 1.523 . S
H1311 C1286 0.950 . S
H1312 C1288 0.950 . S
H1313 C1289 0.949 . S
H1314 C1291 0.950 . S
H1315 C1293 0.950 . S
C1316 C1317 1.349 . S
C1316 C1318 1.327 . S
C1316 H1341 0.950 . S
C1317 C1316 1.349 . S
C1317 C1333 1.349 . S
C1318 C1316 1.327 . S
C1318 C1337 1.429 . S
C1318 H1342 0.950 . S
C1319 C1336 1.574 . S
C1319 C1338 1.368 . S
C1319 H1343 0.949 . S
H1320 C1324 0.949 . S
C1321 C1322 1.349 . S
C1321 C1323 1.327 . S
C1321 H1344 0.950 . S
C1322 C1321 1.349 . S
C1322 C1334 1.349 . S
C1323 C1321 1.327 . S
C1323 C1339 1.429 . S
C1323 H1345 0.950 . S
C1324 H1320 0.949 . S
C1324 C1332 1.574 . S
C1324 C1340 1.368 . S
H1325 C1333 0.950 . S
H1326 C1331 0.950 . S
H1327 C1332 0.949 . S
H1328 C1334 0.950 . S
H1329 C1335 0.950 . S
H1330 C1336 0.949 . S
C1331 H1326 0.950 . S
C1331 C1333 1.327 . S
C1331 C1337 1.429 . S
C1332 C1324 1.574 . S
C1332 H1327 0.949 . S
C1332 C1338 1.368 . S
C1333 C1317 1.349 . S
C1333 H1325 0.950 . S
C1333 C1331 1.327 . S
C1334 C1322 1.349 . S
C1334 H1328 0.950 . S
C1334 C1335 1.327 . S
C1335 H1329 0.950 . S
C1335 C1334 1.327 . S
C1335 C1339 1.429 . S
C1336 C1319 1.574 . S
C1336 H1330 0.949 . S
C1336 C1340 1.368 . S
C1337 C1318 1.429 . S
C1337 C1331 1.429 . S
C1337 C1338 1.523 . S
C1338 C1319 1.368 . S
C1338 C1332 1.368 . S
C1338 C1337 1.523 . S
C1339 C1323 1.429 . S
C1339 C1335 1.429 . S
C1339 C1340 1.523 . S
C1340 C1324 1.368 . S
C1340 C1336 1.368 . S
C1340 C1339 1.523 . S
H1341 C1316 0.950 . S
H1342 C1318 0.950 . S
H1343 C1319 0.949 . S
H1344 C1321 0.950 . S
H1345 C1323 0.950 . S
C1346 C1347 1.349 . S
C1346 C1348 1.327 . S
C1346 H1371 0.950 . S
C1347 C1346 1.349 . S
C1347 C1363 1.349 . S
C1348 C1346 1.327 . S
C1348 C1367 1.429 . S
C1348 H1372 0.950 . S
C1349 C1366 1.574 . S
C1349 C1368 1.368 . S
C1349 H1373 0.949 . S
H1350 C1354 0.949 . S
C1351 C1352 1.349 . S
C1351 C1353 1.327 . S
C1351 H1374 0.950 . S
C1352 C1351 1.349 . S
C1352 C1364 1.349 . S
C1353 C1351 1.327 . S
C1353 C1369 1.429 . S
C1353 H1375 0.950 . S
C1354 H1350 0.949 . S
C1354 C1362 1.574 . S
C1354 C1370 1.368 . S
H1355 C1363 0.950 . S
H1356 C1361 0.950 . S
H1357 C1362 0.949 . S
H1358 C1364 0.950 . S
H1359 C1365 0.950 . S
H1360 C1366 0.949 . S
C1361 H1356 0.950 . S
C1361 C1363 1.327 . S
C1361 C1367 1.429 . S
C1362 C1354 1.574 . S
C1362 H1357 0.949 . S
C1362 C1368 1.368 . S
C1363 C1347 1.349 . S
C1363 H1355 0.950 . S
C1363 C1361 1.327 . S
C1364 C1352 1.349 . S
C1364 H1358 0.950 . S
C1364 C1365 1.327 . S
C1365 H1359 0.950 . S
C1365 C1364 1.327 . S
C1365 C1369 1.429 . S
C1366 C1349 1.574 . S
C1366 H1360 0.949 . S
C1366 C1370 1.368 . S
C1367 C1348 1.429 . S
C1367 C1361 1.429 . S
C1367 C1368 1.523 . S
C1368 C1349 1.368 . S
C1368 C1362 1.368 . S
C1368 C1367 1.523 . S
C1369 C1353 1.429 . S
C1369 C1365 1.429 . S
C1369 C1370 1.523 . S
C1370 C1354 1.368 . S
C1370 C1366 1.368 . S
C1370 C1369 1.523 . S
H1371 C1346 0.950 . S
H1372 C1348 0.950 . S
H1373 C1349 0.949 . S
H1374 C1351 0.950 . S
H1375 C1353 0.950 . S
C1376 C1377 1.349 . S
C1376 C1378 1.327 . S
C1376 H1401 0.950 . S
C1377 C1376 1.349 . S
C1377 C1393 1.349 . S
C1378 C1376 1.327 . S
C1378 C1397 1.429 . S
C1378 H1402 0.950 . S
C1379 C1396 1.574 . S
C1379 C1398 1.368 . S
C1379 H1403 0.949 . S
H1380 C1384 0.949 . S
C1381 C1382 1.349 . S
C1381 C1383 1.327 . S
C1381 H1404 0.950 . S
C1382 C1381 1.349 . S
C1382 C1394 1.349 . S
C1383 C1381 1.327 . S
C1383 C1399 1.429 . S
C1383 H1405 0.950 . S
C1384 H1380 0.949 . S
C1384 C1392 1.574 . S
C1384 C1400 1.368 . S
H1385 C1393 0.950 . S
H1386 C1391 0.950 . S
H1387 C1392 0.949 . S
H1388 C1394 0.950 . S
H1389 C1395 0.950 . S
H1390 C1396 0.949 . S
C1391 H1386 0.950 . S
C1391 C1393 1.327 . S
C1391 C1397 1.429 . S
C1392 C1384 1.574 . S
C1392 H1387 0.949 . S
C1392 C1398 1.368 . S
C1393 C1377 1.349 . S
C1393 H1385 0.950 . S
C1393 C1391 1.327 . S
C1394 C1382 1.349 . S
C1394 H1388 0.950 . S
C1394 C1395 1.327 . S
C1395 H1389 0.950 . S
C1395 C1394 1.327 . S
C1395 C1399 1.429 . S
C1396 C1379 1.574 . S
C1396 H1390 0.949 . S
C1396 C1400 1.368 . S
C1397 C1378 1.429 . S
C1397 C1391 1.429 . S
C1397 C1398 1.523 . S
C1398 C1379 1.368 . S
C1398 C1392 1.368 . S
C1398 C1397 1.523 . S
C1399 C1383 1.429 . S
C1399 C1395 1.429 . S
C1399 C1400 1.523 . S
C1400 C1384 1.368 . S
C1400 C1396 1.368 . S
C1400 C1399 1.523 . S
H1401 C1376 0.950 . S
H1402 C1378 0.950 . S
H1403 C1379 0.949 . S
H1404 C1381 0.950 . S
H1405 C1383 0.950 . S
C1406 C1407 1.349 . S
C1406 C1408 1.327 . S
C1406 H1431 0.950 . S
C1407 C1406 1.349 . S
C1407 C1423 1.349 . S
C1408 C1406 1.327 . S
C1408 C1427 1.429 . S
C1408 H1432 0.950 . S
C1409 C1426 1.574 . S
C1409 C1428 1.368 . S
C1409 H1433 0.949 . S
H1410 C1414 0.949 . S
C1411 C1412 1.349 . S
C1411 C1413 1.327 . S
C1411 H1434 0.950 . S
C1412 C1411 1.349 . S
C1412 C1424 1.349 . S
C1413 C1411 1.327 . S
C1413 C1429 1.429 . S
C1413 H1435 0.950 . S
C1414 H1410 0.949 . S
C1414 C1422 1.574 . S
C1414 C1430 1.368 . S
H1415 C1423 0.950 . S
H1416 C1421 0.950 . S
H1417 C1422 0.949 . S
H1418 C1424 0.950 . S
H1419 C1425 0.950 . S
H1420 C1426 0.949 . S
C1421 H1416 0.950 . S
C1421 C1423 1.327 . S
C1421 C1427 1.429 . S
C1422 C1414 1.574 . S
C1422 H1417 0.949 . S
C1422 C1428 1.368 . S
C1423 C1407 1.349 . S
C1423 H1415 0.950 . S
C1423 C1421 1.327 . S
C1424 C1412 1.349 . S
C1424 H1418 0.950 . S
C1424 C1425 1.327 . S
C1425 H1419 0.950 . S
C1425 C1424 1.327 . S
C1425 C1429 1.429 . S
C1426 C1409 1.574 . S
C1426 H1420 0.949 . S
C1426 C1430 1.368 . S
C1427 C1408 1.429 . S
C1427 C1421 1.429 . S
C1427 C1428 1.523 . S
C1428 C1409 1.368 . S
C1428 C1422 1.368 . S
C1428 C1427 1.523 . S
C1429 C1413 1.429 . S
C1429 C1425 1.429 . S
C1429 C1430 1.523 . S
C1430 C1414 1.368 . S
C1430 C1426 1.368 . S
C1430 C1429 1.523 . S
H1431 C1406 0.950 . S
H1432 C1408 0.950 . S
H1433 C1409 0.949 . S
H1434 C1411 0.950 . S
H1435 C1413 0.950 . S
C1436 C1437 1.349 . S
C1436 C1438 1.327 . S
C1436 H1461 0.950 . S
C1437 C1436 1.349 . S
C1437 C1453 1.349 . S
C1438 C1436 1.327 . S
C1438 C1457 1.429 . S
C1438 H1462 0.950 . S
C1439 C1456 1.574 . S
C1439 C1458 1.368 . S
C1439 H1463 0.949 . S
H1440 C1444 0.949 . S
C1441 C1442 1.349 . S
C1441 C1443 1.327 . S
C1441 H1464 0.950 . S
C1442 C1441 1.349 . S
C1442 C1454 1.349 . S
C1443 C1441 1.327 . S
C1443 C1459 1.429 . S
C1443 H1465 0.950 . S
C1444 H1440 0.949 . S
C1444 C1452 1.574 . S
C1444 C1460 1.368 . S
H1445 C1453 0.950 . S
H1446 C1451 0.950 . S
H1447 C1452 0.949 . S
H1448 C1454 0.950 . S
H1449 C1455 0.950 . S
H1450 C1456 0.949 . S
C1451 H1446 0.950 . S
C1451 C1453 1.327 . S
C1451 C1457 1.429 . S
C1452 C1444 1.574 . S
C1452 H1447 0.949 . S
C1452 C1458 1.368 . S
C1453 C1437 1.349 . S
C1453 H1445 0.950 . S
C1453 C1451 1.327 . S
C1454 C1442 1.349 . S
C1454 H1448 0.950 . S
C1454 C1455 1.327 . S
C1455 H1449 0.950 . S
C1455 C1454 1.327 . S
C1455 C1459 1.429 . S
C1456 C1439 1.574 . S
C1456 H1450 0.949 . S
C1456 C1460 1.368 . S
C1457 C1438 1.429 . S
C1457 C1451 1.429 . S
C1457 C1458 1.523 . S
C1458 C1439 1.368 . S
C1458 C1452 1.368 . S
C1458 C1457 1.523 . S
C1459 C1443 1.429 . S
C1459 C1455 1.429 . S
C1459 C1460 1.523 . S
C1460 C1444 1.368 . S
C1460 C1456 1.368 . S
C1460 C1459 1.523 . S
H1461 C1436 0.950 . S
H1462 C1438 0.950 . S
H1463 C1439 0.949 . S
H1464 C1441 0.950 . S
H1465 C1443 0.950 . S
C1466 C1467 1.349 . S
C1466 C1468 1.327 . S
C1466 H1491 0.950 . S
C1467 C1466 1.349 . S
C1467 C1483 1.349 . S
C1468 C1466 1.327 . S
C1468 C1487 1.429 . S
C1468 H1492 0.950 . S
C1469 C1486 1.574 . S
C1469 C1488 1.368 . S
C1469 H1493 0.949 . S
H1470 C1474 0.949 . S
C1471 C1472 1.349 . S
C1471 C1473 1.327 . S
C1471 H1494 0.950 . S
C1472 C1471 1.349 . S
C1472 C1484 1.349 . S
C1473 C1471 1.327 . S
C1473 C1489 1.429 . S
C1473 H1495 0.950 . S
C1474 H1470 0.949 . S
C1474 C1482 1.574 . S
C1474 C1490 1.368 . S
H1475 C1483 0.950 . S
H1476 C1481 0.950 . S
H1477 C1482 0.949 . S
H1478 C1484 0.950 . S
H1479 C1485 0.950 . S
H1480 C1486 0.949 . S
C1481 H1476 0.950 . S
C1481 C1483 1.327 . S
C1481 C1487 1.429 . S
C1482 C1474 1.574 . S
C1482 H1477 0.949 . S
C1482 C1488 1.368 . S
C1483 C1467 1.349 . S
C1483 H1475 0.950 . S
C1483 C1481 1.327 . S
C1484 C1472 1.349 . S
C1484 H1478 0.950 . S
C1484 C1485 1.327 . S
C1485 H1479 0.950 . S
C1485 C1484 1.327 . S
C1485 C1489 1.429 . S
C1486 C1469 1.574 . S
C1486 H1480 0.949 . S
C1486 C1490 1.368 . S
C1487 C1468 1.429 . S
C1487 C1481 1.429 . S
C1487 C1488 1.523 . S
C1488 C1469 1.368 . S
C1488 C1482 1.368 . S
C1488 C1487 1.523 . S
C1489 C1473 1.429 . S
C1489 C1485 1.429 . S
C1489 C1490 1.523 . S
C1490 C1474 1.368 . S
C1490 C1486 1.368 . S
C1490 C1489 1.523 . S
H1491 C1466 0.950 . S
H1492 C1468 0.950 . S
H1493 C1469 0.949 . S
H1494 C1471 0.950 . S
H1495 C1473 0.950 . S
C1496 C1497 1.349 . S
C1496 C1498 1.327 . S
C1496 H1521 0.950 . S
C1497 C1496 1.349 . S
C1497 C1513 1.349 . S
C1498 C1496 1.327 . S
C1498 C1517 1.429 . S
C1498 H1522 0.950 . S
C1499 C1516 1.574 . S
C1499 C1518 1.368 . S
C1499 H1523 0.949 . S
H1500 C1504 0.949 . S
C1501 C1502 1.349 . S
C1501 C1503 1.327 . S
C1501 H1524 0.950 . S
C1502 C1501 1.349 . S
C1502 C1514 1.349 . S
C1503 C1501 1.327 . S
C1503 C1519 1.429 . S
C1503 H1525 0.950 . S
C1504 H1500 0.949 . S
C1504 C1512 1.574 . S
C1504 C1520 1.368 . S
H1505 C1513 0.950 . S
H1506 C1511 0.950 . S
H1507 C1512 0.949 . S
H1508 C1514 0.950 . S
H1509 C1515 0.950 . S
H1510 C1516 0.949 . S
C1511 H1506 0.950 . S
C1511 C1513 1.327 . S
C1511 C1517 1.429 . S
C1512 C1504 1.574 . S
C1512 H1507 0.949 . S
C1512 C1518 1.368 . S
C1513 C1497 1.349 . S
C1513 H1505 0.950 . S
C1513 C1511 1.327 . S
C1514 C1502 1.349 . S
C1514 H1508 0.950 . S
C1514 C1515 1.327 . S
C1515 H1509 0.950 . S
C1515 C1514 1.327 . S
C1515 C1519 1.429 . S
C1516 C1499 1.574 . S
C1516 H1510 0.949 . S
C1516 C1520 1.368 . S
C1517 C1498 1.429 . S
C1517 C1511 1.429 . S
C1517 C1518 1.523 . S
C1518 C1499 1.368 . S
C1518 C1512 1.368 . S
C1518 C1517 1.523 . S
C1519 C1503 1.429 . S
C1519 C1515 1.429 . S
C1519 C1520 1.523 . S
C1520 C1504 1.368 . S
C1520 C1516 1.368 . S
C1520 C1519 1.523 . S
H1521 C1496 0.950 . S
H1522 C1498 0.950 . S
H1523 C1499 0.949 . S
H1524 C1501 0.950 . S
H1525 C1503 0.950 . S
C1526 C1527 1.349 . S
C1526 C1528 1.327 . S
C1526 H1551 0.950 . S
C1527 C1526 1.349 . S
C1527 C1543 1.349 . S
C1528 C1526 1.327 . S
C1528 C1547 1.429 . S
C1528 H1552 0.950 . S
C1529 C1546 1.574 . S
C1529 C1548 1.368 . S
C1529 H1553 0.949 . S
H1530 C1534 0.949 . S
C1531 C1532 1.349 . S
C1531 C1533 1.327 . S
C1531 H1554 0.950 . S
C1532 C1531 1.349 . S
C1532 C1544 1.349 . S
C1533 C1531 1.327 . S
C1533 C1549 1.429 . S
C1533 H1555 0.950 . S
C1534 H1530 0.949 . S
C1534 C1542 1.574 . S
C1534 C1550 1.368 . S
H1535 C1543 0.950 . S
H1536 C1541 0.950 . S
H1537 C1542 0.949 . S
H1538 C1544 0.950 . S
H1539 C1545 0.950 . S
H1540 C1546 0.949 . S
C1541 H1536 0.950 . S
C1541 C1543 1.327 . S
C1541 C1547 1.429 . S
C1542 C1534 1.574 . S
C1542 H1537 0.949 . S
C1542 C1548 1.368 . S
C1543 C1527 1.349 . S
C1543 H1535 0.950 . S
C1543 C1541 1.327 . S
C1544 C1532 1.349 . S
C1544 H1538 0.950 . S
C1544 C1545 1.327 . S
C1545 H1539 0.950 . S
C1545 C1544 1.327 . S
C1545 C1549 1.429 . S
C1546 C1529 1.574 . S
C1546 H1540 0.949 . S
C1546 C1550 1.368 . S
C1547 C1528 1.429 . S
C1547 C1541 1.429 . S
C1547 C1548 1.523 . S
C1548 C1529 1.368 . S
C1548 C1542 1.368 . S
C1548 C1547 1.523 . S
C1549 C1533 1.429 . S
C1549 C1545 1.429 . S
C1549 C1550 1.523 . S
C1550 C1534 1.368 . S
C1550 C1546 1.368 . S
C1550 C1549 1.523 . S
H1551 C1526 0.950 . S
H1552 C1528 0.950 . S
H1553 C1529 0.949 . S
H1554 C1531 0.950 . S
H1555 C1533 0.950 . S
C1556 C1557 1.349 . S
C1556 C1558 1.327 . S
C1556 H1581 0.950 . S
C1557 C1556 1.349 . S
C1557 C1573 1.349 . S
C1558 C1556 1.327 . S
C1558 C1577 1.429 . S
C1558 H1582 0.950 . S
C1559 C1576 1.574 . S
C1559 C1578 1.368 . S
C1559 H1583 0.949 . S
H1560 C1564 0.949 . S
C1561 C1562 1.349 . S
C1561 C1563 1.327 . S
C1561 H1584 0.950 . S
C1562 C1561 1.349 . S
C1562 C1574 1.349 . S
C1563 C1561 1.327 . S
C1563 C1579 1.429 . S
C1563 H1585 0.950 . S
C1564 H1560 0.949 . S
C1564 C1572 1.574 . S
C1564 C1580 1.368 . S
H1565 C1573 0.950 . S
H1566 C1571 0.950 . S
H1567 C1572 0.949 . S
H1568 C1574 0.950 . S
H1569 C1575 0.950 . S
H1570 C1576 0.949 . S
C1571 H1566 0.950 . S
C1571 C1573 1.327 . S
C1571 C1577 1.429 . S
C1572 C1564 1.574 . S
C1572 H1567 0.949 . S
C1572 C1578 1.368 . S
C1573 C1557 1.349 . S
C1573 H1565 0.950 . S
C1573 C1571 1.327 . S
C1574 C1562 1.349 . S
C1574 H1568 0.950 . S
C1574 C1575 1.327 . S
C1575 H1569 0.950 . S
C1575 C1574 1.327 . S
C1575 C1579 1.429 . S
C1576 C1559 1.574 . S
C1576 H1570 0.949 . S
C1576 C1580 1.368 . S
C1577 C1558 1.429 . S
C1577 C1571 1.429 . S
C1577 C1578 1.523 . S
C1578 C1559 1.368 . S
C1578 C1572 1.368 . S
C1578 C1577 1.523 . S
C1579 C1563 1.429 . S
C1579 C1575 1.429 . S
C1579 C1580 1.523 . S
C1580 C1564 1.368 . S
C1580 C1576 1.368 . S
C1580 C1579 1.523 . S
H1581 C1556 0.950 . S
H1582 C1558 0.950 . S
H1583 C1559 0.949 . S
H1584 C1561 0.950 . S
H1585 C1563 0.950 . S
C1586 C1587 1.349 . S
C1586 C1588 1.327 . S
C1586 H1611 0.950 . S
C1587 C1586 1.349 . S
C1587 C1603 1.349 . S
C1588 C1586 1.327 . S
C1588 C1607 1.429 . S
C1588 H1612 0.950 . S
C1589 C1606 1.574 . S
C1589 C1608 1.368 . S
C1589 H1613 0.949 . S
H1590 C1594 0.949 . S
C1591 C1592 1.349 . S
C1591 C1593 1.327 . S
C1591 H1614 0.950 . S
C1592 C1591 1.349 . S
C1592 C1604 1.349 . S
C1593 C1591 1.327 . S
C1593 C1609 1.429 . S
C1593 H1615 0.950 . S
C1594 H1590 0.949 . S
C1594 C1602 1.574 . S
C1594 C1610 1.368 . S
H1595 C1603 0.950 . S
H1596 C1601 0.950 . S
H1597 C1602 0.949 . S
H1598 C1604 0.950 . S
H1599 C1605 0.950 . S
H1600 C1606 0.949 . S
C1601 H1596 0.950 . S
C1601 C1603 1.327 . S
C1601 C1607 1.429 . S
C1602 C1594 1.574 . S
C1602 H1597 0.949 . S
C1602 C1608 1.368 . S
C1603 C1587 1.349 . S
C1603 H1595 0.950 . S
C1603 C1601 1.327 . S
C1604 C1592 1.349 . S
C1604 H1598 0.950 . S
C1604 C1605 1.327 . S
C1605 H1599 0.950 . S
C1605 C1604 1.327 . S
C1605 C1609 1.429 . S
C1606 C1589 1.574 . S
C1606 H1600 0.949 . S
C1606 C1610 1.368 . S
C1607 C1588 1.429 . S
C1607 C1601 1.429 . S
C1607 C1608 1.523 . S
C1608 C1589 1.368 . S
C1608 C1602 1.368 . S
C1608 C1607 1.523 . S
C1609 C1593 1.429 . S
C1609 C1605 1.429 . S
C1609 C1610 1.523 . S
C1610 C1594 1.368 . S
C1610 C1606 1.368 . S
C1610 C1609 1.523 . S
H1611 C1586 0.950 . S
H1612 C1588 0.950 . S
H1613 C1589 0.949 . S
H1614 C1591 0.950 . S
H1615 C1593 0.950 . S
C662 C407 1.206 . S
C657 C8 1.187 . S
C692 C444 1.191 . S
C687 C61 1.190 . S
C722 C480 1.207 . S
C717 C107 1.202 . S
C747 C139 1.200 . S
C752 C371 1.222 . S
C777 C192 1.208 . S
C782 C372 1.210 . S
C807 C238 1.196 . S
C812 C408 1.195 . S
C842 C443 1.209 . S
C837 C284 1.190 . S
C872 C479 1.225 . S
C867 C330 1.203 . S
C897 C100 1.190 . S
C902 C551 1.209 . S
C932 C588 1.195 . S
C927 C160 1.194 . S
C957 C15 1.206 . S
C962 C624 1.210 . S
C992 C515 1.225 . S
C987 C54 1.202 . S
C1017 C291 1.202 . S
C1022 C516 1.207 . S
C1047 C337 1.190 . S
C1052 C552 1.191 . S
C1082 C587 1.206 . S
C1077 C199 1.184 . S
C1107 C245 1.197 . S
C1112 C623 1.222 . S
C1142 C442 1.633 . S
C1137 C1 1.632 . S
C1172 C478 1.614 . S
C1167 C68 1.606 . S
C1197 C114 1.559 . S
C1202 C382 1.443 . S
C1227 C146 1.586 . S
C1232 C418 1.462 . S
C1257 C185 1.572 . S
C1262 C490 1.449 . S
C1292 C370 1.620 . S
C1287 C231 1.619 . S
C1322 C406 1.639 . S
C1317 C277 1.638 . S
C1352 C454 1.467 . S
C1347 C323 1.591 . S
C1382 C586 1.639 . S
C1377 C93 1.638 . S
C1412 C622 1.620 . S
C1407 C153 1.612 . S
C1437 C22 1.565 . S
C1442 C526 1.449 . S
C1472 C562 1.467 . S
C1467 C47 1.591 . S
C1502 C634 1.443 . S
C1497 C298 1.560 . S
C1527 C344 1.607 . S
C1532 C514 1.614 . S
C1562 C550 1.633 . S
C1557 C206 1.625 . S
C1592 C598 1.462 . S
C1587 C252 1.580 . S
