# Generated by pormake.
# Topology cml, (3,6)-cn, num edge types: 1
# Building blocks:
#     Node 0, Type 0, BuildingBlock: PAMTOO_clean_linker_0, # of connection points: 3
#     Node 1, Type 0, BuildingBlock: PAMTOO_clean_linker_0, # of connection points: 3
#     Node 2, Type 0, BuildingBlock: PAMTOO_clean_linker_0, # of connection points: 3
#     Node 3, Type 0, BuildingBlock: PAMTOO_clean_linker_0, # of connection points: 3
#     Node 4, Type 0, BuildingBlock: PAMTOO_clean_linker_0, # of connection points: 3
#     Node 5, Type 0, BuildingBlock: PAMTOO_clean_linker_0, # of connection points: 3
#     Node 6, Type 0, BuildingBlock: PAMTOO_clean_linker_0, # of connection points: 3
#     Node 7, Type 0, BuildingBlock: PAMTOO_clean_linker_0, # of connection points: 3
#     Node 8, Type 1, BuildingBlock: IZENUY_clean_sbu_0, # of connection points: 6
#     Node 9, Type 1, BuildingBlock: IZENUY_clean_sbu_0, # of connection points: 6
#     Node 10, Type 1, BuildingBlock: IZENUY_clean_sbu_0, # of connection points: 6
#     Node 11, Type 1, BuildingBlock: IZENUY_clean_sbu_0, # of connection points: 6
#     Edge 12, Type (0, 1), BuildingBlock: UVAHIK_clean_linker_0, # of connection points: 2
#     Edge 13, Type (0, 1), BuildingBlock: UVAHIK_clean_linker_0, # of connection points: 2
#     Edge 14, Type (0, 1), BuildingBlock: UVAHIK_clean_linker_0, # of connection points: 2
#     Edge 15, Type (0, 1), BuildingBlock: UVAHIK_clean_linker_0, # of connection points: 2
#     Edge 16, Type (0, 1), BuildingBlock: UVAHIK_clean_linker_0, # of connection points: 2
#     Edge 17, Type (0, 1), BuildingBlock: UVAHIK_clean_linker_0, # of connection points: 2
#     Edge 18, Type (0, 1), BuildingBlock: UVAHIK_clean_linker_0, # of connection points: 2
#     Edge 19, Type (0, 1), BuildingBlock: UVAHIK_clean_linker_0, # of connection points: 2
#     Edge 20, Type (0, 1), BuildingBlock: UVAHIK_clean_linker_0, # of connection points: 2
#     Edge 21, Type (0, 1), BuildingBlock: UVAHIK_clean_linker_0, # of connection points: 2
#     Edge 22, Type (0, 1), BuildingBlock: UVAHIK_clean_linker_0, # of connection points: 2
#     Edge 23, Type (0, 1), BuildingBlock: UVAHIK_clean_linker_0, # of connection points: 2
#     Edge 24, Type (0, 1), BuildingBlock: UVAHIK_clean_linker_0, # of connection points: 2
#     Edge 25, Type (0, 1), BuildingBlock: UVAHIK_clean_linker_0, # of connection points: 2
#     Edge 26, Type (0, 1), BuildingBlock: UVAHIK_clean_linker_0, # of connection points: 2
#     Edge 27, Type (0, 1), BuildingBlock: UVAHIK_clean_linker_0, # of connection points: 2
#     Edge 28, Type (0, 1), BuildingBlock: UVAHIK_clean_linker_0, # of connection points: 2
#     Edge 29, Type (0, 1), BuildingBlock: UVAHIK_clean_linker_0, # of connection points: 2
#     Edge 30, Type (0, 1), BuildingBlock: UVAHIK_clean_linker_0, # of connection points: 2
#     Edge 31, Type (0, 1), BuildingBlock: UVAHIK_clean_linker_0, # of connection points: 2
#     Edge 32, Type (0, 1), BuildingBlock: UVAHIK_clean_linker_0, # of connection points: 2
#     Edge 33, Type (0, 1), BuildingBlock: UVAHIK_clean_linker_0, # of connection points: 2
#     Edge 34, Type (0, 1), BuildingBlock: UVAHIK_clean_linker_0, # of connection points: 2
#     Edge 35, Type (0, 1), BuildingBlock: UVAHIK_clean_linker_0, # of connection points: 2
# Relax obj value: 0.004
# Max RMSD: 0.072
# Mean RMSD: 0.054
data_MOF--net-cml--node1-IZENUY_clean_sbu_0--node2-PAMTOO_clean_linker_0--edge1-UVAHIK_clean_linker_0
_symmetry_space_group_name_H-M    P1
_symmetry_Int_Tables_number       1
_symmetry_cell_setting            triclinic
loop_
_symmetry_equiv_pos_as_xyz
'x, y, z'
_cell_length_a     47.906848
_cell_length_b     53.906121
_cell_length_c     46.537537
_cell_angle_alpha  89.98015
_cell_angle_beta   88.529735
_cell_angle_gamma 89.972159
loop_
_atom_site_label
_atom_site_type_symbol
_atom_site_fract_x
_atom_site_fract_y
_atom_site_fract_z
_atom_type_partial_charge
H0 H 0.32443 0.41483 0.03077 0.0
H1 H 0.27454 0.39369 0.95908 0.0
H2 H 0.27418 0.34874 0.03521 0.0
H3 H 0.27707 0.32099 0.98162 0.0
C4 C 0.26415 0.33309 0.96785 0.0
O5 O 0.25479 0.35337 0.98342 0.0
H6 H 0.27752 0.33942 0.94935 0.0
C7 C 0.30934 0.40254 0.02125 0.0
C8 C 0.30009 0.38158 0.0367 0.0
C9 C 0.30034 0.40726 0.99326 0.0
C10 C 0.28189 0.39045 0.98059 0.0
C11 C 0.27262 0.36938 0.99572 0.0
C12 C 0.28164 0.36501 0.0237 0.0
H13 H 0.68247 0.58219 0.528 0.0
H14 H 0.73897 0.64391 0.53429 0.0
H15 H 0.73715 0.60159 0.45651 0.0
H16 H 0.79167 0.61763 0.46808 0.0
C17 C 0.78746 0.63424 0.48167 0.0
O18 O 0.75928 0.63955 0.48197 0.0
H19 H 0.7941 0.63031 0.50398 0.0
C20 C 0.69913 0.59348 0.51877 0.0
C21 C 0.70874 0.58897 0.49044 0.0
C22 C 0.70982 0.61322 0.53486 0.0
C23 C 0.73043 0.62857 0.52232 0.0
C24 C 0.74009 0.62427 0.49415 0.0
C25 C 0.72927 0.60464 0.47825 0.0
H26 H 0.68322 0.42145 0.03266 0.0
H27 H 0.73652 0.35701 0.03307 0.0
H28 H 0.73312 0.40232 0.95766 0.0
H29 H 0.73353 0.34977 0.94452 0.0
C30 C 0.74357 0.34253 0.96412 0.0
O31 O 0.7538 0.36203 0.97987 0.0
H32 H 0.7274 0.33223 0.97695 0.0
C33 C 0.69886 0.40978 0.02223 0.0
C34 C 0.70733 0.4149 0.99369 0.0
C35 C 0.70917 0.38896 0.03682 0.0
C36 C 0.72823 0.37319 0.0224 0.0
C37 C 0.73653 0.37797 0.99391 0.0
C38 C 0.72637 0.39886 0.9797 0.0
H39 H 0.32787 0.59503 0.52851 0.0
H40 H 0.27528 0.61679 0.45925 0.0
H41 H 0.27682 0.66057 0.53626 0.0
H42 H 0.22186 0.65285 0.51343 0.0
C43 C 0.22688 0.65314 0.48994 0.0
O44 O 0.25524 0.65632 0.48539 0.0
H45 H 0.22036 0.63498 0.48091 0.0
C46 C 0.31236 0.60741 0.51985 0.0
C47 C 0.30333 0.62802 0.5361 0.0
C48 C 0.30246 0.60304 0.49216 0.0
C49 C 0.28332 0.61983 0.48051 0.0
C50 C 0.27405 0.64047 0.49651 0.0
C51 C 0.28423 0.64463 0.5241 0.0
H52 H 0.82758 0.91133 0.03096 0.0
H53 H 0.78273 0.88792 0.95654 0.0
H54 H 0.77463 0.84701 0.03538 0.0
H55 H 0.77866 0.8171 0.98368 0.0
C56 C 0.7669 0.82896 0.96859 0.0
O57 O 0.75821 0.8504 0.98231 0.0
H58 H 0.7812 0.8337 0.95017 0.0
C59 C 0.81334 0.89871 0.02071 0.0
C60 C 0.80218 0.87876 0.03664 0.0
C61 C 0.80688 0.90225 0.99166 0.0
C62 C 0.78803 0.88581 0.97889 0.0
C63 C 0.7764 0.86603 0.99472 0.0
C64 C 0.78358 0.86246 0.02345 0.0
H65 H 0.18342 0.08511 0.53238 0.0
H66 H 0.24135 0.14594 0.53518 0.0
H67 H 0.23149 0.10599 0.45657 0.0
H68 H 0.28963 0.1185 0.46715 0.0
C69 C 0.28632 0.13508 0.48107 0.0
O70 O 0.25847 0.14149 0.48172 0.0
H71 H 0.29318 0.13026 0.50307 0.0
C72 C 0.19886 0.09682 0.52171 0.0
C73 C 0.2057 0.09297 0.49246 0.0
C74 C 0.21124 0.11604 0.53729 0.0
C75 C 0.23138 0.13111 0.52355 0.0
C76 C 0.23893 0.12703 0.49469 0.0
C77 C 0.22595 0.10827 0.47912 0.0
H78 H 0.18709 0.92492 0.03269 0.0
H79 H 0.23673 0.85829 0.03394 0.0
H80 H 0.23205 0.90092 0.95641 0.0
H81 H 0.22899 0.84561 0.94916 0.0
C82 C 0.24218 0.8401 0.96745 0.0
O83 O 0.25274 0.86117 0.98003 0.0
H84 H 0.22907 0.8296 0.98333 0.0
C85 C 0.20145 0.91212 0.02208 0.0
C86 C 0.20882 0.91586 0.99299 0.0
C87 C 0.21119 0.89137 0.03715 0.0
C88 C 0.2288 0.87436 0.02277 0.0
C89 C 0.23608 0.8778 0.99371 0.0
C90 C 0.22614 0.89846 0.97886 0.0
H91 H 0.82665 0.09362 0.52959 0.0
H92 H 0.77311 0.11545 0.46114 0.0
H93 H 0.7759 0.1593 0.53801 0.0
H94 H 0.72071 0.15285 0.51637 0.0
C95 C 0.72527 0.15197 0.49282 0.0
O96 O 0.75354 0.15503 0.48753 0.0
H97 H 0.71864 0.13336 0.48519 0.0
C98 C 0.81106 0.10605 0.52115 0.0
C99 C 0.80231 0.12669 0.53751 0.0
C100 C 0.80075 0.10167 0.49363 0.0
C101 C 0.78149 0.11851 0.48226 0.0
C102 C 0.77253 0.13919 0.49834 0.0
C103 C 0.78312 0.14335 0.52576 0.0
Fe104 Fe 0.00295 0.83839 0.32166 0.0
Fe105 Fe 0.99888 0.86812 0.37815 0.0
O106 O 1.00108 0.86723 0.34003 0.0
Fe107 Fe 1.00153 0.8953 0.3202 0.0
O108 O 0.96991 0.8869 0.30193 0.0
O109 O 0.98337 0.84908 0.29051 0.0
O110 O 0.96988 0.82836 0.33738 0.0
C111 C 0.96419 0.82746 0.36396 0.0
C112 C 0.04074 0.8655 0.28984 0.0
O113 O 0.97848 0.83946 0.38177 0.0
C114 C 0.03583 0.90757 0.36392 0.0
O115 O 0.02273 0.8225 0.34951 0.0
O116 O 0.03172 0.8515 0.38116 0.0
O117 O 0.0238 0.88347 0.29079 0.0
O118 O 0.03629 0.84622 0.30458 0.0
C119 C 0.96236 0.90538 0.36545 0.0
O120 O 0.01892 0.89696 0.38131 0.0
O121 O 0.03322 0.90545 0.33715 0.0
C122 C 0.03723 0.83074 0.36979 0.0
O123 O 0.96589 0.88491 0.37805 0.0
O124 O 0.97938 0.91253 0.34594 0.0
C125 C 0.96688 0.86727 0.28757 0.0
Fe126 Fe 1.00232 0.14132 0.87958 0.0
Fe127 Fe 1.00246 0.11281 0.82259 0.0
O128 O 0.00256 0.14133 0.84148 0.0
Fe129 Fe 0.00307 0.1698 0.82236 0.0
O130 O 0.03555 0.17905 0.83842 0.0
O131 O 0.02295 0.16991 0.88284 0.0
O132 O 0.035 0.12437 0.8802 0.0
C133 C 0.03906 0.10361 0.86831 0.0
C134 C 0.96561 0.17892 0.86939 0.0
O135 O 0.02285 0.0959 0.84916 0.0
C136 C 0.96651 0.14329 0.79022 0.0
O137 O 0.98172 0.11265 0.88349 0.0
O138 O 0.96954 0.10363 0.83956 0.0
O139 O 0.98199 0.18664 0.84951 0.0
O140 O 0.96965 0.15827 0.88136 0.0
C141 C 0.04006 0.13926 0.78963 0.0
O142 O 0.98216 0.1245 0.79256 0.0
O143 O 0.97068 0.16263 0.80473 0.0
C144 C 0.96569 0.10169 0.86636 0.0
O145 O 0.03532 0.12001 0.80436 0.0
O146 O 0.02423 0.15802 0.79188 0.0
C147 C 0.0394 0.18059 0.86504 0.0
Fe148 Fe 0.50088 0.33697 0.32174 0.0
Fe149 Fe 0.50012 0.36773 0.37742 0.0
O150 O 0.50079 0.36618 0.33932 0.0
Fe151 Fe 0.50141 0.39381 0.31863 0.0
O152 O 0.46893 0.38582 0.30169 0.0
O153 O 0.48102 0.3476 0.29079 0.0
O154 O 0.46781 0.32851 0.3387 0.0
C155 C 0.46304 0.32812 0.36547 0.0
C156 C 0.53877 0.3622 0.28806 0.0
O157 O 0.47859 0.3398 0.38245 0.0
C158 C 0.53788 0.40593 0.36064 0.0
O159 O 0.52069 0.32084 0.34938 0.0
O160 O 0.53237 0.3501 0.37959 0.0
O161 O 0.5225 0.38071 0.28892 0.0
O162 O 0.53404 0.34344 0.30362 0.0
C163 C 0.46435 0.40581 0.36514 0.0
O164 O 0.5216 0.39587 0.37908 0.0
O165 O 0.53385 0.40368 0.3341 0.0
C166 C 0.53643 0.32893 0.36871 0.0
O167 O 0.46785 0.38559 0.37826 0.0
O168 O 0.48063 0.41209 0.34457 0.0
C169 C 0.46503 0.3661 0.28778 0.0
Fe170 Fe 0.50127 0.64136 0.87905 0.0
Fe171 Fe 0.50206 0.61324 0.82172 0.0
O172 O 0.50209 0.6416 0.84093 0.0
Fe173 Fe 0.50305 0.67023 0.82207 0.0
O174 O 0.53548 0.67903 0.83851 0.0
O175 O 0.52237 0.66968 0.88276 0.0
O176 O 0.53366 0.62395 0.88024 0.0
C177 C 0.53778 0.60334 0.868 0.0
C178 C 0.46518 0.67938 0.86861 0.0
O179 O 0.52199 0.59603 0.84831 0.0
C180 C 0.46655 0.64417 0.7894 0.0
O181 O 0.48006 0.61304 0.88242 0.0
O182 O 0.46901 0.60389 0.83814 0.0
O183 O 0.48199 0.68718 0.84919 0.0
O184 O 0.46882 0.6586 0.88036 0.0
C185 C 0.53997 0.63967 0.78923 0.0
O186 O 0.48211 0.6253 0.79164 0.0
O187 O 0.47073 0.66342 0.8041 0.0
C188 C 0.46441 0.60217 0.86486 0.0
O189 O 0.53513 0.62045 0.80396 0.0
O190 O 0.52428 0.65851 0.79158 0.0
C191 C 0.53911 0.68033 0.86521 0.0
C192 C 0.2235 0.30417 0.97696 0.0
C193 C 0.23965 0.31837 0.9575 0.0
C194 C 0.20121 0.28989 0.96737 0.0
C195 C 0.15373 0.28223 0.90607 0.0
H196 H 0.14306 0.21627 0.93774 0.0
C197 C 0.07888 0.21066 0.85659 0.0
C198 C 0.06214 0.19656 0.87575 0.0
C199 C 0.10016 0.22582 0.86678 0.0
C200 C 0.14556 0.23475 0.92889 0.0
H201 H 0.24482 0.32941 0.91295 0.0
H202 H 0.20621 0.3042 0.896 0.0
H203 H 0.18048 0.24241 0.95523 0.0
H204 H 0.05489 0.18729 0.92072 0.0
H205 H 0.09193 0.21376 0.93842 0.0
H206 H 0.11894 0.27441 0.87953 0.0
C207 C 0.21051 0.30418 0.91873 0.0
C208 C 0.167 0.24977 0.93895 0.0
C209 C 0.23275 0.3185 0.92836 0.0
C210 C 0.06734 0.19789 0.90533 0.0
C211 C 0.08869 0.21296 0.91549 0.0
C212 C 0.13235 0.26717 0.89594 0.0
C213 C 0.19456 0.28954 0.93808 0.0
C214 C 0.1714 0.27371 0.92766 0.0
C215 C 0.10533 0.22715 0.89635 0.0
C216 C 0.12802 0.24323 0.9072 0.0
H217 H 0.22831 0.30401 0.99958 0.0
H218 H 0.1891 0.2792 0.98296 0.0
H219 H 0.1562 0.3007 0.89719 0.0
H220 H 0.07556 0.21003 0.83367 0.0
H221 H 0.11282 0.23626 0.85143 0.0
C222 C 0.83239 0.65803 0.47619 0.0
C223 C 0.80412 0.6557 0.46952 0.0
C224 C 0.84852 0.67729 0.46448 0.0
C225 C 0.85034 0.72333 0.40504 0.0
H226 H 0.90633 0.75431 0.45178 0.0
C227 C 0.93351 0.79033 0.35755 0.0
C228 C 0.94281 0.80983 0.37489 0.0
C229 C 0.9151 0.77249 0.36878 0.0
C230 C 0.89054 0.74614 0.43851 0.0
H231 H 0.77088 0.67104 0.44408 0.0
H232 H 0.79861 0.7052 0.42462 0.0
H233 H 0.87706 0.72173 0.47225 0.0
H234 H 0.939 0.82664 0.41715 0.0
H235 H 0.90623 0.79604 0.43644 0.0
H236 H 0.86321 0.74836 0.3716 0.0
C237 C 0.80848 0.69209 0.43876 0.0
C238 C 0.87403 0.72712 0.45013 0.0
C239 C 0.79245 0.67265 0.45023 0.0
C240 C 0.93249 0.81165 0.40334 0.0
C241 C 0.91383 0.79399 0.41446 0.0
C242 C 0.86668 0.74254 0.39349 0.0
C243 C 0.83672 0.69468 0.44576 0.0
C244 C 0.85386 0.71533 0.4335 0.0
C245 C 0.9053 0.77391 0.3975 0.0
C246 C 0.88711 0.7541 0.41002 0.0
H247 H 0.84204 0.64482 0.4904 0.0
H248 H 0.87036 0.67831 0.4698 0.0
H249 H 0.83525 0.71451 0.39146 0.0
H250 H 0.94116 0.78836 0.33556 0.0
H251 H 0.90929 0.75715 0.35517 0.0
C252 C 0.78477 0.33133 0.93207 0.0
C253 C 0.76712 0.32544 0.9556 0.0
C254 C 0.80672 0.31551 0.92405 0.0
C255 C 0.83008 0.25069 0.93002 0.0
H256 H 0.90211 0.27771 0.90648 0.0
C257 C 0.92597 0.18848 0.90404 0.0
C258 C 0.94288 0.19535 0.8802 0.0
C259 C 0.90478 0.20426 0.91431 0.0
C260 C 0.88203 0.26987 0.91271 0.0
H261 H 0.75907 0.29916 0.99001 0.0
H262 H 0.79749 0.27137 0.976 0.0
H263 H 0.86484 0.30561 0.92258 0.0
H264 H 0.95041 0.22405 0.8482 0.0
H265 H 0.91334 0.25129 0.86583 0.0
H266 H 0.84717 0.21497 0.91986 0.0
C267 C 0.79406 0.28793 0.96339 0.0
C268 C 0.8607 0.28587 0.92196 0.0
C269 C 0.77216 0.30382 0.97146 0.0
C270 C 0.93795 0.21823 0.86674 0.0
C271 C 0.91678 0.23395 0.87696 0.0
C272 C 0.85141 0.23468 0.92069 0.0
C273 C 0.8115 0.29355 0.93951 0.0
C274 C 0.83444 0.27648 0.93055 0.0
C275 C 0.90001 0.22722 0.90093 0.0
C276 C 0.87758 0.24411 0.91174 0.0
H277 H 0.7814 0.34808 0.91978 0.0
H278 H 0.81966 0.32026 0.90543 0.0
H279 H 0.80996 0.24292 0.93616 0.0
H280 H 0.9292 0.17099 0.91494 0.0
H281 H 0.89241 0.19862 0.93298 0.0
C282 C 0.19887 0.67068 0.44931 0.0
C283 C 0.211 0.67398 0.47617 0.0
C284 C 0.18275 0.68952 0.43735 0.0
C285 C 0.14152 0.74511 0.458 0.0
H286 H 0.14143 0.75639 0.37572 0.0
C287 C 0.0739 0.82176 0.40633 0.0
C288 C 0.05954 0.8148 0.3816 0.0
C289 C 0.09435 0.80621 0.41766 0.0
C290 C 0.14107 0.75337 0.39874 0.0
H291 H 0.21722 0.69991 0.51089 0.0
H292 H 0.18929 0.73306 0.48991 0.0
H293 H 0.17399 0.72656 0.39559 0.0
H294 H 0.0559 0.78611 0.34918 0.0
H295 H 0.09127 0.75913 0.36895 0.0
H296 H 0.1084 0.77178 0.46107 0.0
C297 C 0.1916 0.71571 0.47836 0.0
C298 C 0.15974 0.73623 0.41014 0.0
C299 C 0.20771 0.69684 0.49032 0.0
C300 C 0.06645 0.79211 0.36827 0.0
C301 C 0.08693 0.77667 0.3795 0.0
C302 C 0.12288 0.7623 0.44659 0.0
C303 C 0.17858 0.71218 0.45189 0.0
C304 C 0.15998 0.73163 0.43989 0.0
C305 C 0.10106 0.78343 0.40442 0.0
C306 C 0.12217 0.76641 0.41677 0.0
H307 H 0.20132 0.65329 0.43787 0.0
H308 H 0.17288 0.686 0.41707 0.0
H309 H 0.14081 0.74183 0.48096 0.0
H310 H 0.0692 0.83913 0.41711 0.0
H311 H 0.10503 0.8121 0.43672 0.0
C312 C 0.72509 0.80139 0.97798 0.0
C313 C 0.74196 0.81476 0.95834 0.0
C314 C 0.70236 0.7876 0.96849 0.0
C315 C 0.65519 0.78024 0.90686 0.0
H316 H 0.64213 0.71499 0.93962 0.0
C317 C 0.57927 0.70975 0.85723 0.0
C318 C 0.56195 0.69603 0.87623 0.0
C319 C 0.60069 0.72463 0.86765 0.0
C320 C 0.64529 0.73328 0.93046 0.0
H321 H 0.74787 0.82497 0.91362 0.0
H322 H 0.70849 0.80062 0.89685 0.0
H323 H 0.68009 0.74049 0.95714 0.0
H324 H 0.55381 0.68717 0.92116 0.0
H325 H 0.59108 0.71318 0.93927 0.0
H326 H 0.62053 0.77289 0.87999 0.0
C327 C 0.7126 0.80084 0.91962 0.0
C328 C 0.66705 0.74795 0.94055 0.0
C329 C 0.73528 0.81465 0.92915 0.0
C330 C 0.56671 0.69747 0.90589 0.0
C331 C 0.58819 0.71229 0.91628 0.0
C332 C 0.63348 0.76555 0.89673 0.0
C333 C 0.69596 0.78697 0.93914 0.0
C334 C 0.67235 0.7716 0.92883 0.0
C335 C 0.60542 0.72609 0.8973 0.0
C336 C 0.62831 0.74186 0.90834 0.0
H337 H 0.72968 0.80148 0.00065 0.0
H338 H 0.68972 0.77753 0.98419 0.0
H339 H 0.65835 0.79851 0.89765 0.0
H340 H 0.57632 0.70902 0.83425 0.0
H341 H 0.6138 0.73475 0.8524 0.0
C342 C 0.31397 0.17424 0.48823 0.0
C343 C 0.30317 0.15649 0.46948 0.0
C344 C 0.32933 0.19435 0.47741 0.0
C345 C 0.3429 0.23117 0.41157 0.0
H346 H 0.41191 0.24818 0.44859 0.0
C347 C 0.42662 0.29523 0.35944 0.0
C348 C 0.44127 0.31129 0.37747 0.0
C349 C 0.40773 0.27797 0.37107 0.0
C350 C 0.39248 0.24395 0.43826 0.0
H351 H 0.29857 0.14627 0.42491 0.0
H352 H 0.32575 0.18131 0.40584 0.0
H353 H 0.38286 0.2149 0.4682 0.0
H354 H 0.44656 0.32256 0.42177 0.0
H355 H 0.41337 0.2927 0.44196 0.0
H356 H 0.35268 0.26014 0.38147 0.0
C357 C 0.32245 0.1797 0.42888 0.0
C358 C 0.37585 0.22484 0.44948 0.0
C359 C 0.30715 0.15956 0.43973 0.0
C360 C 0.43585 0.31031 0.40728 0.0
C361 C 0.41693 0.29309 0.41888 0.0
C362 C 0.35953 0.25035 0.40036 0.0
C363 C 0.33388 0.19722 0.44762 0.0
C364 C 0.35097 0.21813 0.43617 0.0
C365 C 0.40301 0.27644 0.40096 0.0
C366 C 0.38459 0.25686 0.41348 0.0
H367 H 0.31059 0.17248 0.51124 0.0
H368 H 0.33745 0.20776 0.49236 0.0
H369 H 0.32364 0.22665 0.40107 0.0
H370 H 0.43025 0.2955 0.33638 0.0
H371 H 0.39754 0.26527 0.35668 0.0
C372 C 0.26372 0.81052 0.93119 0.0
C373 C 0.26569 0.82353 0.95719 0.0
C374 C 0.2851 0.79451 0.92203 0.0
C375 C 0.35969 0.78228 0.93012 0.0
H376 H 0.34238 0.71713 0.89999 0.0
C377 C 0.4414 0.72075 0.87104 0.0
C378 C 0.44221 0.69564 0.87914 0.0
C379 C 0.4198 0.73615 0.88103 0.0
C380 C 0.3475 0.73523 0.90848 0.0
H381 H 0.29073 0.82902 0.99478 0.0
H382 H 0.32843 0.80137 0.97851 0.0
H383 H 0.30452 0.74436 0.91685 0.0
H384 H 0.42076 0.66692 0.90382 0.0
H385 H 0.38288 0.69385 0.92106 0.0
H386 H 0.40265 0.7732 0.92168 0.0
C387 C 0.31059 0.80392 0.96497 0.0
C388 C 0.32586 0.75087 0.91788 0.0
C389 C 0.28908 0.81972 0.97426 0.0
C390 C 0.4208 0.68621 0.89727 0.0
C391 C 0.39903 0.70157 0.90701 0.0
C392 C 0.3813 0.76676 0.92042 0.0
C393 C 0.30884 0.79118 0.93874 0.0
C394 C 0.33175 0.77453 0.92882 0.0
C395 C 0.39838 0.7267 0.89907 0.0
C396 C 0.37543 0.74307 0.90952 0.0
H397 H 0.24563 0.81277 0.91793 0.0
H398 H 0.28324 0.78497 0.90168 0.0
H399 H 0.36481 0.8005 0.93826 0.0
H400 H 0.45754 0.72861 0.85709 0.0
H401 H 0.41966 0.75539 0.87434 0.0
C402 C 0.70522 0.19533 0.49085 0.0
C403 C 0.70901 0.17198 0.47795 0.0
C404 C 0.68854 0.21334 0.478 0.0
C405 C 0.63065 0.21872 0.4276 0.0
H406 H 0.64887 0.28879 0.42729 0.0
C407 C 0.56388 0.28932 0.36703 0.0
C408 C 0.55822 0.3123 0.38027 0.0
C409 C 0.58357 0.27309 0.37825 0.0
C410 C 0.64332 0.26932 0.42748 0.0
H411 H 0.69992 0.14961 0.44074 0.0
H412 H 0.67087 0.18103 0.41814 0.0
H413 H 0.68134 0.259 0.44774 0.0
H414 H 0.5694 0.33636 0.4155 0.0
H415 H 0.6035 0.3078 0.43539 0.0
H416 H 0.59256 0.22889 0.40776 0.0
C417 C 0.6802 0.18529 0.43851 0.0
C418 C 0.66197 0.25224 0.43916 0.0
C419 C 0.69692 0.16734 0.45133 0.0
C420 C 0.5732 0.31882 0.40476 0.0
C421 C 0.59288 0.30248 0.41608 0.0
C422 C 0.61201 0.23575 0.41604 0.0
C423 C 0.67539 0.20836 0.45192 0.0
C424 C 0.65589 0.2267 0.43927 0.0
C425 C 0.59811 0.27928 0.40312 0.0
C426 C 0.61811 0.26128 0.4157 0.0
H427 H 0.7146 0.19938 0.51125 0.0
H428 H 0.68522 0.23085 0.48897 0.0
H429 H 0.62499 0.19927 0.42787 0.0
H430 H 0.55301 0.28376 0.34795 0.0
H431 H 0.58743 0.25564 0.36731 0.0
C432 C 0.31454 0.45204 0.9919 0.0
C433 C 0.31111 0.4294 0.9774 0.0
C434 C 0.32777 0.47205 0.97828 0.0
C435 C 0.34974 0.49863 0.9084 0.0
H436 H 0.40884 0.52808 0.95241 0.0
C437 C 0.43213 0.56598 0.85842 0.0
C438 C 0.44281 0.58475 0.87601 0.0
C439 C 0.41367 0.54819 0.86983 0.0
C440 C 0.3921 0.52047 0.93994 0.0
H441 H 0.31769 0.41054 0.93662 0.0
H442 H 0.34052 0.44578 0.91263 0.0
H443 H 0.38031 0.49532 0.97364 0.0
H444 H 0.44123 0.6004 0.91892 0.0
H445 H 0.40843 0.57001 0.93856 0.0
H446 H 0.36143 0.52397 0.87473 0.0
C447 C 0.33297 0.4479 0.93464 0.0
C448 C 0.3758 0.50158 0.95212 0.0
C449 C 0.31985 0.42774 0.94836 0.0
C450 C 0.4337 0.58597 0.9049 0.0
C451 C 0.415 0.56841 0.9162 0.0
C452 C 0.36592 0.51778 0.89625 0.0
C453 C 0.3377 0.47003 0.94972 0.0
C454 C 0.35446 0.49043 0.93653 0.0
C455 C 0.40522 0.54893 0.89901 0.0
C456 C 0.38735 0.52895 0.91188 0.0
H457 H 0.30747 0.45415 0.01406 0.0
H458 H 0.33063 0.48905 0.99027 0.0
H459 H 0.33332 0.49045 0.89595 0.0
H460 H 0.43878 0.56449 0.83607 0.0
H461 H 0.40683 0.53338 0.85598 0.0
C462 C 0.68979 0.5457 0.4868 0.0
C463 C 0.69662 0.5684 0.47351 0.0
C464 C 0.67657 0.52698 0.47154 0.0
C465 C 0.63303 0.51803 0.40803 0.0
H466 H 0.64525 0.44841 0.42465 0.0
C467 C 0.57305 0.43969 0.35156 0.0
C468 C 0.56023 0.42257 0.3705 0.0
C469 C 0.59291 0.45641 0.36148 0.0
C470 C 0.64166 0.46779 0.41981 0.0
H471 H 0.69558 0.58887 0.43339 0.0
H472 H 0.67348 0.55586 0.40648 0.0
H473 H 0.67492 0.4797 0.44629 0.0
H474 H 0.559 0.4089 0.41437 0.0
H475 H 0.59382 0.43795 0.43156 0.0
H476 H 0.5997 0.50601 0.38159 0.0
C477 C 0.67778 0.55274 0.42893 0.0
C478 C 0.65855 0.48573 0.43227 0.0
C479 C 0.6908 0.57157 0.44427 0.0
C480 C 0.56836 0.42197 0.39929 0.0
C481 C 0.58844 0.43846 0.40909 0.0
C482 C 0.61635 0.50006 0.39534 0.0
C483 C 0.67009 0.53036 0.4425 0.0
C484 C 0.65407 0.51112 0.42701 0.0
C485 C 0.60062 0.45607 0.39039 0.0
C486 C 0.62016 0.47482 0.40154 0.0
H487 H 0.69438 0.54245 0.50915 0.0
H488 H 0.6707 0.51013 0.48284 0.0
H489 H 0.62865 0.53738 0.40381 0.0
H490 H 0.56728 0.44058 0.32923 0.0
H491 H 0.60213 0.46971 0.34659 0.0
C492 C 0.68567 0.43322 0.94998 0.0
C493 C 0.69489 0.43615 0.9782 0.0
C494 C 0.67171 0.45249 0.9363 0.0
C495 C 0.65698 0.51994 0.9391 0.0
H496 H 0.58958 0.50108 0.90026 0.0
C497 C 0.57286 0.59072 0.90459 0.0
C498 C 0.55931 0.58614 0.87867 0.0
C499 C 0.59169 0.5734 0.91538 0.0
C500 C 0.60856 0.50668 0.91061 0.0
H501 H 0.69784 0.46199 0.01369 0.0
H502 H 0.67311 0.49553 0.98995 0.0
H503 H 0.61875 0.46919 0.921 0.0
H504 H 0.55605 0.56039 0.84306 0.0
H505 H 0.58909 0.53056 0.86159 0.0
H506 H 0.64656 0.55753 0.92883 0.0
C507 C 0.67679 0.47838 0.97835 0.0
C508 C 0.6253 0.48837 0.92251 0.0
C509 C 0.6907 0.45908 0.99206 0.0
C510 C 0.56579 0.56436 0.8633 0.0
C511 C 0.58466 0.54717 0.87399 0.0
C512 C 0.64023 0.53831 0.92709 0.0
C513 C 0.66669 0.47514 0.95051 0.0
C514 C 0.64966 0.49476 0.93696 0.0
C515 C 0.59746 0.55123 0.90041 0.0
C516 C 0.61579 0.53189 0.91274 0.0
H517 H 0.68837 0.41574 0.93878 0.0
H518 H 0.66449 0.44953 0.9147 0.0
H519 H 0.67577 0.52543 0.94989 0.0
H520 H 0.56836 0.60734 0.91694 0.0
H521 H 0.60104 0.57703 0.9359 0.0
C522 C 0.32191 0.58344 0.44679 0.0
C523 C 0.31289 0.58113 0.47563 0.0
C524 C 0.33475 0.56345 0.43246 0.0
C525 C 0.34672 0.49524 0.43625 0.0
H526 H 0.41472 0.51084 0.3931 0.0
C527 C 0.4289 0.4208 0.40223 0.0
C528 C 0.443 0.4239 0.37559 0.0
C529 C 0.41047 0.43908 0.41272 0.0
C530 C 0.39555 0.50611 0.40467 0.0
H531 H 0.30875 0.55558 0.51149 0.0
H532 H 0.33134 0.52091 0.48671 0.0
H533 H 0.38649 0.54424 0.41356 0.0
H534 H 0.44763 0.44813 0.3385 0.0
H535 H 0.41534 0.47958 0.35651 0.0
H536 H 0.35606 0.45702 0.42761 0.0
C537 C 0.32852 0.53808 0.47506 0.0
C538 C 0.37932 0.52532 0.41639 0.0
C539 C 0.3158 0.55805 0.48937 0.0
C540 C 0.43745 0.44524 0.35928 0.0
C541 C 0.419 0.46339 0.36969 0.0
C542 C 0.36296 0.47598 0.42445 0.0
C543 C 0.33869 0.54066 0.44662 0.0
C544 C 0.3548 0.52015 0.43252 0.0
C545 C 0.40564 0.4608 0.39676 0.0
C546 C 0.38769 0.48117 0.40865 0.0
H547 H 0.32005 0.60098 0.43564 0.0
H548 H 0.342 0.56596 0.41042 0.0
H549 H 0.32778 0.4906 0.44829 0.0
H550 H 0.43268 0.40461 0.41535 0.0
H551 H 0.40071 0.43654 0.43376 0.0
C552 C 0.84815 0.92965 0.98031 0.0
C553 C 0.82036 0.92286 0.97498 0.0
C554 C 0.86033 0.95012 0.96665 0.0
C555 C 0.86513 0.98722 0.90434 0.0
H556 H 0.88581 0.04136 0.95437 0.0
C557 C 0.92407 0.07387 0.86044 0.0
C558 C 0.94491 0.08365 0.8779 0.0
C559 C 0.90546 0.05587 0.87118 0.0
C560 C 0.8805 0.02635 0.94006 0.0
H561 H 0.78417 0.9319 0.94982 0.0
H562 H 0.80622 0.96725 0.92493 0.0
H563 H 0.86037 0.00588 0.97422 0.0
H564 H 0.96246 0.0822 0.92038 0.0
H565 H 0.93098 0.05045 0.93867 0.0
H566 H 0.88667 0.00677 0.87045 0.0
C567 C 0.8181 0.95674 0.94026 0.0
C568 C 0.86569 0.00617 0.95145 0.0
C569 C 0.80561 0.93645 0.9544 0.0
C570 C 0.94651 0.07526 0.90639 0.0
C571 C 0.92823 0.05708 0.91697 0.0
C572 C 0.88046 0.00724 0.89297 0.0
C573 C 0.84535 0.96396 0.94677 0.0
C574 C 0.85825 0.98632 0.93379 0.0
C575 C 0.90747 0.04704 0.89954 0.0
C576 C 0.88882 0.02687 0.91082 0.0
H577 H 0.86056 0.91924 0.99524 0.0
H578 H 0.88154 0.9552 0.97165 0.0
H579 H 0.85972 0.97196 0.89041 0.0
H580 H 0.92217 0.08007 0.83843 0.0
H581 H 0.88952 0.04891 0.85722 0.0
C582 C 0.16284 0.06811 0.48194 0.0
C583 C 0.1912 0.07332 0.47601 0.0
C584 C 0.14946 0.04885 0.46786 0.0
C585 C 0.14386 0.0144 0.40395 0.0
H586 H 0.11635 0.96039 0.45191 0.0
C587 C 0.07933 0.93325 0.35784 0.0
C588 C 0.05691 0.92476 0.37526 0.0
C589 C 0.09893 0.94975 0.36881 0.0
C590 C 0.12361 0.97542 0.43821 0.0
H591 H 0.22737 0.06263 0.44972 0.0
H592 H 0.20329 0.0295 0.42415 0.0
H593 H 0.14421 0.99322 0.47294 0.0
H594 H 0.03731 0.92713 0.41773 0.0
H595 H 0.07061 0.95637 0.43642 0.0
H596 H 0.12194 0.99757 0.36954 0.0
C597 C 0.19185 0.0403 0.44017 0.0
C598 C 0.13976 0.99404 0.45025 0.0
C599 C 0.20549 0.05933 0.4547 0.0
C600 C 0.05448 0.9331 0.4038 0.0
C601 C 0.07378 0.94978 0.41461 0.0
C602 C 0.12723 0.99597 0.39194 0.0
C603 C 0.16389 0.03472 0.44705 0.0
C604 C 0.1496 0.01383 0.43333 0.0
C605 C 0.09634 0.95829 0.39734 0.0
C606 C 0.1164 0.97651 0.4091 0.0
H607 H 0.15085 0.07891 0.4975 0.0
H608 H 0.12774 0.04498 0.47318 0.0
H609 H 0.1512 0.02967 0.39063 0.0
H610 H 0.08184 0.92701 0.3358 0.0
H611 H 0.11619 0.95568 0.35499 0.0
C612 C 0.18549 0.9344 0.95033 0.0
C613 C 0.19732 0.93744 0.97741 0.0
C614 C 0.17214 0.95425 0.93705 0.0
C615 C 0.13682 0.01314 0.95541 0.0
H616 H 0.1383 0.023 0.87285 0.0
C617 C 0.07683 0.09335 0.90285 0.0
C618 C 0.06101 0.08683 0.87896 0.0
C619 C 0.09642 0.0768 0.91375 0.0
C620 C 0.1376 0.0204 0.89594 0.0
H621 H 0.20591 0.96396 0.01105 0.0
H622 H 0.18295 0.99868 0.98775 0.0
H623 H 0.16772 0.99104 0.89373 0.0
H624 H 0.05411 0.05811 0.84722 0.0
H625 H 0.08806 0.02931 0.86635 0.0
H626 H 0.10647 0.04223 0.95762 0.0
C627 C 0.18335 0.98084 0.97706 0.0
C628 C 0.15442 0.00208 0.90789 0.0
C629 C 0.19656 0.96098 0.99038 0.0
C630 C 0.06583 0.06371 0.86573 0.0
C631 C 0.08546 0.04724 0.87656 0.0
C632 C 0.12009 0.03148 0.94347 0.0
C633 C 0.17046 0.9776 0.95052 0.0
C634 C 0.15401 0.99806 0.93776 0.0
C635 C 0.10073 0.05346 0.9009 0.0
C636 C 0.12005 0.03514 0.91359 0.0
H637 H 0.18553 0.91642 0.93995 0.0
H638 H 0.16217 0.95102 0.91677 0.0
H639 H 0.13557 0.01028 0.97844 0.0
H640 H 0.07379 0.11106 0.91346 0.0
H641 H 0.10812 0.08225 0.93233 0.0
C642 C 0.8194 0.08198 0.44799 0.0
C643 C 0.81085 0.07972 0.47698 0.0
C644 C 0.83196 0.06195 0.43349 0.0
C645 C 0.844 0.99374 0.43719 0.0
H646 H 0.91143 0.00939 0.39309 0.0
C647 C 0.92636 0.91962 0.40237 0.0
C648 C 0.94036 0.9229 0.37572 0.0
C649 C 0.90769 0.9377 0.41292 0.0
C650 C 0.89241 0.00464 0.40491 0.0
H651 H 0.80721 0.05422 0.51293 0.0
H652 H 0.82934 0.01948 0.48783 0.0
H653 H 0.88343 0.04276 0.41389 0.0
H654 H 0.94443 0.94707 0.33853 0.0
H655 H 0.91169 0.97813 0.35659 0.0
H656 H 0.8533 0.95552 0.42847 0.0
C657 C 0.82636 0.03664 0.47621 0.0
C658 C 0.87631 0.02384 0.41684 0.0
C659 C 0.81392 0.05665 0.4907 0.0
C660 C 0.93434 0.94408 0.35934 0.0
C661 C 0.91564 0.96201 0.36978 0.0
C662 C 0.86012 0.97448 0.42518 0.0
C663 C 0.83609 0.03918 0.44761 0.0
C664 C 0.85201 0.01866 0.43331 0.0
C665 C 0.90253 0.95936 0.39696 0.0
C666 C 0.88464 0.97969 0.40902 0.0
H667 H 0.81741 0.09952 0.43685 0.0
H668 H 0.83887 0.06442 0.41133 0.0
H669 H 0.82524 0.9891 0.44951 0.0
H670 H 0.93052 0.90353 0.41553 0.0
H671 H 0.8981 0.9351 0.43403 0.0
C672 C 0.32046 0.35336 0.07376 0.0
C673 C 0.3107 0.37694 0.06596 0.0
C674 C 0.33341 0.34983 0.10008 0.0
C675 C 0.34457 0.37867 0.1715 0.0
H676 H 0.41446 0.34239 0.16771 0.0
C677 C 0.42823 0.38673 0.25847 0.0
C678 C 0.44365 0.36541 0.26528 0.0
C679 C 0.40932 0.38632 0.23606 0.0
C680 C 0.39477 0.35224 0.16934 0.0
H681 H 0.30535 0.41494 0.08033 0.0
H682 H 0.32818 0.40889 0.12596 0.0
H683 H 0.38553 0.34435 0.12556 0.0
H684 H 0.45037 0.32665 0.25452 0.0
H685 H 0.41723 0.32589 0.21576 0.0
H686 H 0.35412 0.38691 0.21519 0.0
C687 C 0.32582 0.39308 0.11188 0.0
C688 C 0.37815 0.35334 0.14513 0.0
C689 C 0.31298 0.39662 0.08559 0.0
C690 C 0.43908 0.34349 0.2497 0.0
C691 C 0.42015 0.34308 0.22735 0.0
C692 C 0.3612 0.37755 0.19575 0.0
C693 C 0.33672 0.36977 0.1192 0.0
C694 C 0.35302 0.36682 0.14579 0.0
C695 C 0.40532 0.36456 0.21998 0.0
C696 C 0.38668 0.36457 0.19486 0.0
H697 H 0.31911 0.33787 0.05905 0.0
H698 H 0.34128 0.33156 0.10524 0.0
H699 H 0.32515 0.38894 0.17284 0.0
H700 H 0.43119 0.40393 0.27004 0.0
H701 H 0.39846 0.40328 0.23078 0.0
C702 C 0.69329 0.59865 0.58354 0.0
C703 C 0.69841 0.61826 0.56422 0.0
C704 C 0.68022 0.60305 0.61022 0.0
C705 C 0.63163 0.64657 0.6451 0.0
H706 H 0.6515 0.61208 0.71481 0.0
C707 C 0.56888 0.66077 0.75085 0.0
C708 C 0.56228 0.63922 0.76662 0.0
C709 C 0.58862 0.66004 0.72826 0.0
C710 C 0.64559 0.62173 0.69548 0.0
H711 H 0.69459 0.65797 0.55803 0.0
H712 H 0.67194 0.66571 0.6048 0.0
H713 H 0.68087 0.60759 0.67144 0.0
H714 H 0.57197 0.60014 0.77156 0.0
H715 H 0.60596 0.59876 0.73181 0.0
H716 H 0.59597 0.66015 0.66869 0.0
C717 C 0.67786 0.6469 0.59918 0.0
C718 C 0.66244 0.61919 0.67067 0.0
C719 C 0.69106 0.64251 0.57253 0.0
C720 C 0.57651 0.61708 0.75984 0.0
C721 C 0.59617 0.61633 0.73715 0.0
C722 C 0.61474 0.64903 0.66983 0.0
C723 C 0.67189 0.62716 0.61811 0.0
C724 C 0.65545 0.63137 0.64513 0.0
C725 C 0.60216 0.63772 0.72082 0.0
C726 C 0.62133 0.63642 0.69523 0.0
H727 H 0.69899 0.5798 0.57783 0.0
H728 H 0.67572 0.58743 0.62422 0.0
H729 H 0.62542 0.65587 0.62564 0.0
H730 H 0.55854 0.67821 0.75571 0.0
H731 H 0.59312 0.67696 0.71647 0.0
C732 C 0.6935 0.40229 0.08637 0.0
C733 C 0.69876 0.38314 0.06646 0.0
C734 C 0.68123 0.39716 0.11324 0.0
C735 C 0.63669 0.35023 0.14951 0.0
H736 H 0.65096 0.39054 0.21655 0.0
C737 C 0.57384 0.33951 0.25679 0.0
C738 C 0.56201 0.36193 0.26657 0.0
C739 C 0.59455 0.33956 0.23501 0.0
C740 C 0.64686 0.37908 0.19801 0.0
H741 H 0.69615 0.34337 0.05976 0.0
H742 H 0.67574 0.33433 0.10705 0.0
H743 H 0.68087 0.39483 0.17359 0.0
H744 H 0.56346 0.40199 0.26223 0.0
H745 H 0.59973 0.40205 0.22458 0.0
H746 H 0.60249 0.33469 0.17399 0.0
C747 C 0.68051 0.35342 0.10161 0.0
C748 C 0.66387 0.3816 0.17335 0.0
C749 C 0.69258 0.35858 0.0746 0.0
C750 C 0.57201 0.3844 0.25497 0.0
C751 C 0.59294 0.38446 0.23359 0.0
C752 C 0.61989 0.34752 0.17429 0.0
C753 C 0.67415 0.37271 0.12105 0.0
C754 C 0.65852 0.36771 0.14851 0.0
C755 C 0.60412 0.36205 0.22309 0.0
C756 C 0.62436 0.36238 0.1985 0.0
H757 H 0.69841 0.42137 0.081 0.0
H758 H 0.67638 0.41256 0.12745 0.0
H759 H 0.63166 0.33944 0.13072 0.0
H760 H 0.56656 0.32191 0.26537 0.0
H761 H 0.60292 0.32204 0.22733 0.0
C762 C 0.32319 0.65555 0.57436 0.0
C763 C 0.31443 0.63195 0.56533 0.0
C764 C 0.33661 0.65842 0.60058 0.0
C765 C 0.38015 0.62261 0.64869 0.0
H766 H 0.36576 0.67459 0.7047 0.0
C767 C 0.43553 0.62165 0.75599 0.0
C768 C 0.44527 0.64425 0.76687 0.0
C769 C 0.41732 0.62125 0.73309 0.0
C770 C 0.37025 0.66013 0.68911 0.0
H771 H 0.31094 0.59327 0.57779 0.0
H772 H 0.33456 0.59824 0.62312 0.0
H773 H 0.33772 0.67235 0.66145 0.0
H774 H 0.44276 0.68425 0.76289 0.0
H775 H 0.41147 0.68358 0.72218 0.0
H776 H 0.41299 0.61064 0.67548 0.0
C777 C 0.33154 0.61443 0.60975 0.0
C778 C 0.35413 0.65884 0.66441 0.0
C779 C 0.31805 0.61159 0.58375 0.0
C780 C 0.43559 0.66653 0.75496 0.0
C781 C 0.41757 0.66613 0.7317 0.0
C782 C 0.39636 0.62403 0.67309 0.0
C783 C 0.34159 0.63773 0.61813 0.0
C784 C 0.35875 0.63986 0.64414 0.0
C785 C 0.40865 0.64343 0.7201 0.0
C786 C 0.39145 0.6426 0.69385 0.0
H787 H 0.3208 0.67159 0.56061 0.0
H788 H 0.3442 0.67659 0.60648 0.0
H789 H 0.38463 0.60811 0.63313 0.0
H790 H 0.44223 0.60416 0.765 0.0
H791 H 0.41027 0.60343 0.72535 0.0
C792 C 0.8138 0.89457 0.0856 0.0
C793 C 0.81145 0.87454 0.06648 0.0
C794 C 0.82636 0.89142 0.11212 0.0
C795 C 0.87864 0.85215 0.14589 0.0
H796 H 0.8556 0.88702 0.2154 0.0
C797 C 0.9412 0.8442 0.24964 0.0
C798 C 0.94562 0.86627 0.26497 0.0
C799 C 0.92206 0.84342 0.22749 0.0
C800 C 0.86242 0.8773 0.19611 0.0
H801 H 0.81922 0.83523 0.06077 0.0
H802 H 0.84092 0.82962 0.10732 0.0
H803 H 0.82609 0.88835 0.17341 0.0
H804 H 0.93277 0.90472 0.26939 0.0
H805 H 0.89978 0.90347 0.23042 0.0
H806 H 0.91528 0.84162 0.16814 0.0
C807 C 0.83332 0.84785 0.10161 0.0
C808 C 0.84546 0.87801 0.17207 0.0
C809 C 0.82063 0.85099 0.07509 0.0
C810 C 0.92993 0.88741 0.25803 0.0
C811 C 0.91085 0.88664 0.23578 0.0
C812 C 0.89561 0.85149 0.16985 0.0
C813 C 0.83695 0.86817 0.12012 0.0
C814 C 0.85353 0.86566 0.14657 0.0
C815 C 0.90689 0.8647 0.22002 0.0
C816 C 0.88789 0.86428 0.19517 0.0
H817 H 0.80665 0.9129 0.07967 0.0
H818 H 0.82894 0.9075 0.12575 0.0
H819 H 0.88574 0.8428 0.12644 0.0
H820 H 0.95269 0.82749 0.25459 0.0
H821 H 0.9192 0.82609 0.21617 0.0
C822 C 0.19706 0.10133 0.58665 0.0
C823 C 0.20171 0.12102 0.56731 0.0
C824 C 0.18445 0.10561 0.61358 0.0
C825 C 0.13542 0.14877 0.64818 0.0
H826 H 0.15351 0.11311 0.71765 0.0
C827 C 0.06968 0.16094 0.75231 0.0
C828 C 0.06274 0.13912 0.76741 0.0
C829 C 0.09005 0.16064 0.73031 0.0
C830 C 0.14811 0.12309 0.69838 0.0
H831 H 0.19804 0.16078 0.56155 0.0
H832 H 0.17628 0.16832 0.60878 0.0
H833 H 0.18405 0.10943 0.675 0.0
H834 H 0.07242 0.09998 0.77178 0.0
H835 H 0.10751 0.09934 0.73298 0.0
H836 H 0.09909 0.16183 0.67103 0.0
C837 C 0.18212 0.14953 0.60296 0.0
C838 C 0.16564 0.12104 0.674 0.0
C839 C 0.19483 0.14526 0.57604 0.0
C840 C 0.07721 0.11712 0.76055 0.0
C841 C 0.0975 0.1168 0.73842 0.0
C842 C 0.11788 0.15076 0.67247 0.0
C843 C 0.17616 0.12967 0.62172 0.0
C844 C 0.15928 0.13362 0.64852 0.0
C845 C 0.1039 0.13848 0.72278 0.0
C846 C 0.1238 0.1377 0.69775 0.0
H847 H 0.20246 0.08249 0.58062 0.0
H848 H 0.18001 0.08989 0.62746 0.0
H849 H 0.12965 0.15835 0.62874 0.0
H850 H 0.05919 0.17828 0.75729 0.0
H851 H 0.09482 0.17777 0.71906 0.0
C852 C 0.19898 0.90698 0.08662 0.0
C853 C 0.20151 0.88702 0.0673 0.0
C854 C 0.18628 0.90367 0.11366 0.0
C855 C 0.16239 0.8577 0.16771 0.0
H856 H 0.10405 0.90612 0.18308 0.0
C857 C 0.07496 0.84506 0.25556 0.0
C858 C 0.06437 0.86658 0.26892 0.0
C859 C 0.09511 0.84688 0.23331 0.0
C860 C 0.12058 0.89267 0.17955 0.0
H861 H 0.19406 0.84762 0.06187 0.0
H862 H 0.17202 0.84184 0.10933 0.0
H863 H 0.13399 0.91053 0.14063 0.0
H864 H 0.06803 0.90659 0.27125 0.0
H865 H 0.10377 0.90973 0.23344 0.0
H866 H 0.14882 0.83982 0.20679 0.0
C867 C 0.17995 0.86001 0.10349 0.0
C868 C 0.13773 0.8952 0.1551 0.0
C869 C 0.19259 0.86334 0.07632 0.0
C870 C 0.07544 0.88973 0.2609 0.0
C871 C 0.09582 0.89152 0.23911 0.0
C872 C 0.14532 0.85528 0.19245 0.0
C873 C 0.17592 0.88032 0.12205 0.0
C874 C 0.15878 0.87777 0.14886 0.0
C875 C 0.10527 0.87023 0.22436 0.0
C876 C 0.12418 0.87276 0.19864 0.0
H877 H 0.20617 0.92533 0.08053 0.0
H878 H 0.1839 0.91956 0.12776 0.0
H879 H 0.17853 0.84402 0.16341 0.0
H880 H 0.06675 0.82697 0.26138 0.0
H881 H 0.10181 0.83011 0.22235 0.0
C882 C 0.82252 0.15415 0.57564 0.0
C883 C 0.81373 0.13056 0.56662 0.0
C884 C 0.83608 0.15699 0.60179 0.0
C885 C 0.87979 0.12119 0.64979 0.0
H886 H 0.86535 0.17315 0.70581 0.0
C887 C 0.93553 0.12053 0.75695 0.0
C888 C 0.94517 0.1432 0.76776 0.0
C889 C 0.91725 0.12001 0.7341 0.0
C890 C 0.86986 0.1587 0.69022 0.0
H891 H 0.81037 0.09185 0.57901 0.0
H892 H 0.83425 0.09677 0.6242 0.0
H893 H 0.83726 0.17086 0.66262 0.0
H894 H 0.9424 0.18318 0.7637 0.0
H895 H 0.91101 0.1823 0.72311 0.0
H896 H 0.9127 0.10928 0.67653 0.0
C897 C 0.83114 0.11298 0.61088 0.0
C898 C 0.85372 0.15737 0.66555 0.0
C899 C 0.81751 0.11017 0.58496 0.0
C900 C 0.93532 0.16541 0.75584 0.0
C901 C 0.91724 0.16489 0.73263 0.0
C902 C 0.89603 0.12264 0.67417 0.0
C903 C 0.84117 0.13628 0.61927 0.0
C904 C 0.85836 0.13841 0.64526 0.0
C905 C 0.90841 0.14214 0.72111 0.0
C906 C 0.89112 0.14121 0.69493 0.0
H907 H 0.82001 0.17021 0.56196 0.0
H908 H 0.84365 0.17516 0.6077 0.0
H909 H 0.88428 0.1067 0.63422 0.0
H910 H 0.94236 0.10309 0.76598 0.0
H911 H 0.91028 0.10215 0.72642 0.0
loop_
_geom_bond_atom_site_label_1
_geom_bond_atom_site_label_2
_geom_bond_distance
_geom_bond_site_symmetry_2
_ccdc_geom_bond_type
H0 C7 0.929 . S
H1 C10 0.930 . S
H2 C12 0.929 . S
H3 C4 0.969 . S
C4 H3 0.969 . S
C4 O5 1.550 1_556 S
C4 H6 0.973 . S
O5 C4 1.550 1_554 S
O5 C11 1.412 . S
H6 C4 0.973 . S
C7 H0 0.929 . S
C7 C8 1.400 . S
C7 C9 1.364 1_554 S
C8 C7 1.400 . S
C8 C12 1.377 . S
C9 C7 1.364 1_556 S
C9 C10 1.374 . S
C10 H1 0.930 . S
C10 C9 1.374 . S
C10 C11 1.383 1_556 S
C11 O5 1.412 . S
C11 C10 1.383 1_554 S
C11 C12 1.394 . S
C12 H2 0.929 . S
C12 C8 1.377 . S
C12 C11 1.394 . S
H13 C20 0.929 . S
H14 C23 0.930 . S
H15 C25 0.929 . S
H16 C17 0.969 . S
C17 H16 0.969 . S
C17 O18 1.550 . S
C17 H19 0.973 . S
O18 C17 1.550 . S
O18 C24 1.412 . S
H19 C17 0.973 . S
C20 H13 0.929 . S
C20 C21 1.400 . S
C20 C22 1.364 . S
C21 C20 1.400 . S
C21 C25 1.377 . S
C22 C20 1.364 . S
C22 C23 1.374 . S
C23 H14 0.930 . S
C23 C22 1.374 . S
C23 C24 1.383 . S
C24 O18 1.412 . S
C24 C23 1.383 . S
C24 C25 1.394 . S
C25 H15 0.929 . S
C25 C21 1.377 . S
C25 C24 1.394 . S
H26 C33 0.929 . S
H27 C36 0.930 . S
H28 C38 0.929 . S
H29 C30 0.969 . S
C30 H29 0.969 . S
C30 O31 1.550 . S
C30 H32 0.973 1_556 S
O31 C30 1.550 . S
O31 C37 1.412 . S
H32 C30 0.973 1_554 S
C33 H26 0.929 . S
C33 C34 1.400 1_554 S
C33 C35 1.364 . S
C34 C33 1.400 1_556 S
C34 C38 1.377 . S
C35 C33 1.364 . S
C35 C36 1.374 . S
C36 H27 0.930 . S
C36 C35 1.374 . S
C36 C37 1.383 1_554 S
C37 O31 1.412 . S
C37 C36 1.383 1_556 S
C37 C38 1.394 . S
C38 H28 0.929 . S
C38 C34 1.377 . S
C38 C37 1.394 . S
H39 C46 0.929 . S
H40 C49 0.930 . S
H41 C51 0.929 . S
H42 C43 0.969 . S
C43 H42 0.969 . S
C43 O44 1.550 . S
C43 H45 0.973 . S
O44 C43 1.550 . S
O44 C50 1.412 . S
H45 C43 0.973 . S
C46 H39 0.929 . S
C46 C47 1.400 . S
C46 C48 1.364 . S
C47 C46 1.400 . S
C47 C51 1.377 . S
C48 C46 1.364 . S
C48 C49 1.374 . S
C49 H40 0.930 . S
C49 C48 1.374 . S
C49 C50 1.383 . S
C50 O44 1.412 . S
C50 C49 1.383 . S
C50 C51 1.394 . S
C51 H41 0.929 . S
C51 C47 1.377 . S
C51 C50 1.394 . S
H52 C59 0.929 . S
H53 C62 0.930 . S
H54 C64 0.929 . S
H55 C56 0.969 . S
C56 H55 0.969 . S
C56 O57 1.550 1_556 S
C56 H58 0.973 . S
O57 C56 1.550 1_554 S
O57 C63 1.412 . S
H58 C56 0.973 . S
C59 H52 0.929 . S
C59 C60 1.400 . S
C59 C61 1.364 1_554 S
C60 C59 1.400 . S
C60 C64 1.377 . S
C61 C59 1.364 1_556 S
C61 C62 1.374 . S
C62 H53 0.930 . S
C62 C61 1.374 . S
C62 C63 1.383 1_556 S
C63 O57 1.412 . S
C63 C62 1.383 1_554 S
C63 C64 1.394 . S
C64 H54 0.929 . S
C64 C60 1.377 . S
C64 C63 1.394 . S
H65 C72 0.929 . S
H66 C75 0.930 . S
H67 C77 0.929 . S
H68 C69 0.969 . S
C69 H68 0.969 . S
C69 O70 1.550 . S
C69 H71 0.973 . S
O70 C69 1.550 . S
O70 C76 1.412 . S
H71 C69 0.973 . S
C72 H65 0.929 . S
C72 C73 1.400 . S
C72 C74 1.364 . S
C73 C72 1.400 . S
C73 C77 1.377 . S
C74 C72 1.364 . S
C74 C75 1.374 . S
C75 H66 0.930 . S
C75 C74 1.374 . S
C75 C76 1.383 . S
C76 O70 1.412 . S
C76 C75 1.383 . S
C76 C77 1.394 . S
C77 H67 0.929 . S
C77 C73 1.377 . S
C77 C76 1.394 . S
H78 C85 0.929 . S
H79 C88 0.930 . S
H80 C90 0.929 . S
H81 C82 0.969 . S
C82 H81 0.969 . S
C82 O83 1.550 . S
C82 H84 0.973 1_556 S
O83 C82 1.550 . S
O83 C89 1.412 . S
H84 C82 0.973 1_554 S
C85 H78 0.929 . S
C85 C86 1.400 1_554 S
C85 C87 1.364 . S
C86 C85 1.400 1_556 S
C86 C90 1.377 . S
C87 C85 1.364 . S
C87 C88 1.374 . S
C88 H79 0.930 . S
C88 C87 1.374 . S
C88 C89 1.383 1_554 S
C89 O83 1.412 . S
C89 C88 1.383 1_556 S
C89 C90 1.394 . S
C90 H80 0.929 . S
C90 C86 1.377 . S
C90 C89 1.394 . S
H91 C98 0.929 . S
H92 C101 0.930 . S
H93 C103 0.929 . S
H94 C95 0.969 . S
C95 H94 0.969 . S
C95 O96 1.550 . S
C95 H97 0.973 . S
O96 C95 1.550 . S
O96 C102 1.412 . S
H97 C95 0.973 . S
C98 H91 0.929 . S
C98 C99 1.400 . S
C98 C100 1.364 . S
C99 C98 1.400 . S
C99 C103 1.377 . S
C100 C98 1.364 . S
C100 C101 1.374 . S
C101 H92 0.930 . S
C101 C100 1.374 . S
C101 C102 1.383 . S
C102 O96 1.412 . S
C102 C101 1.383 . S
C102 C103 1.394 . S
C103 H93 0.929 . S
C103 C99 1.377 . S
C103 C102 1.394 . S
Fe104 O106 1.918 . S
Fe104 O109 1.997 1_455 S
Fe104 O110 2.002 1_455 S
Fe104 O115 1.976 . S
Fe104 O118 1.996 . S
Fe105 O106 1.918 . S
Fe105 O113 1.997 1_455 S
Fe105 O116 1.996 . S
Fe105 O120 1.976 . S
Fe105 O123 2.002 1_455 S
O106 Fe104 1.918 . S
O106 Fe105 1.918 . S
O106 Fe107 1.918 . S
Fe107 O106 1.918 . S
Fe107 O108 2.002 1_455 S
Fe107 O117 1.976 . S
Fe107 O121 1.996 . S
Fe107 O124 1.997 1_455 S
O108 Fe107 2.002 1_655 S
O108 C125 1.295 . S
O109 Fe104 1.997 1_655 S
O109 C125 1.235 . S
O110 Fe104 2.002 1_655 S
O110 C111 1.295 . S
C111 O110 1.295 . S
C111 O113 1.235 . S
C112 O117 1.287 . S
C112 O118 1.255 . S
O113 Fe105 1.997 1_655 S
O113 C111 1.235 . S
C114 O120 1.287 . S
C114 O121 1.255 . S
O115 Fe104 1.976 . S
O115 C122 1.287 . S
O116 Fe105 1.996 . S
O116 C122 1.255 . S
O117 Fe107 1.976 . S
O117 C112 1.287 . S
O118 Fe104 1.996 . S
O118 C112 1.255 . S
C119 O123 1.295 . S
C119 O124 1.235 . S
O120 Fe105 1.976 . S
O120 C114 1.287 . S
O121 Fe107 1.996 . S
O121 C114 1.255 . S
C122 O115 1.287 . S
C122 O116 1.255 . S
O123 Fe105 2.002 1_655 S
O123 C119 1.295 . S
O124 Fe107 1.997 1_655 S
O124 C119 1.235 . S
C125 O108 1.295 . S
C125 O109 1.235 . S
Fe126 O128 1.918 . S
Fe126 O131 1.997 1_655 S
Fe126 O132 2.002 1_655 S
Fe126 O137 1.976 . S
Fe126 O140 1.996 . S
Fe127 O128 1.919 . S
Fe127 O135 1.971 1_655 S
Fe127 O138 2.021 . S
Fe127 O142 2.002 . S
Fe127 O145 1.977 1_655 S
O128 Fe126 1.918 . S
O128 Fe127 1.919 . S
O128 Fe129 1.919 . S
Fe129 O128 1.919 . S
Fe129 O130 1.979 1_655 S
Fe129 O139 1.998 . S
Fe129 O143 2.018 . S
Fe129 O146 1.974 1_655 S
O130 Fe129 1.979 1_455 S
O130 C147 1.295 . S
O131 Fe126 1.997 1_455 S
O131 C147 1.235 . S
O132 Fe126 2.002 1_455 S
O132 C133 1.295 . S
C133 O132 1.295 . S
C133 O135 1.235 . S
C134 O139 1.287 . S
C134 O140 1.255 . S
O135 Fe127 1.971 1_455 S
O135 C133 1.235 . S
C136 O142 1.287 . S
C136 O143 1.255 . S
O137 Fe126 1.976 . S
O137 C144 1.287 . S
O138 Fe127 2.021 . S
O138 C144 1.255 . S
O139 Fe129 1.998 . S
O139 C134 1.287 . S
O140 Fe126 1.996 . S
O140 C134 1.255 . S
C141 O145 1.295 . S
C141 O146 1.235 . S
O142 Fe127 2.002 . S
O142 C136 1.287 . S
O143 Fe129 2.018 . S
O143 C136 1.255 . S
C144 O137 1.287 . S
C144 O138 1.255 . S
O145 Fe127 1.977 1_455 S
O145 C141 1.295 . S
O146 Fe129 1.974 1_455 S
O146 C141 1.235 . S
C147 O130 1.295 . S
C147 O131 1.235 . S
Fe148 O150 1.918 . S
Fe148 O153 1.997 . S
Fe148 O154 2.002 . S
Fe148 O159 1.976 . S
Fe148 O162 1.996 . S
Fe149 O150 1.918 . S
Fe149 O157 1.997 . S
Fe149 O160 1.996 . S
Fe149 O164 1.976 . S
Fe149 O167 2.002 . S
O150 Fe148 1.918 . S
O150 Fe149 1.918 . S
O150 Fe151 1.918 . S
Fe151 O150 1.918 . S
Fe151 O152 2.002 . S
Fe151 O161 1.976 . S
Fe151 O165 1.996 . S
Fe151 O168 1.997 . S
O152 Fe151 2.002 . S
O152 C169 1.295 . S
O153 Fe148 1.997 . S
O153 C169 1.235 . S
O154 Fe148 2.002 . S
O154 C155 1.295 . S
C155 O154 1.295 . S
C155 O157 1.235 . S
C156 O161 1.287 . S
C156 O162 1.255 . S
O157 Fe149 1.997 . S
O157 C155 1.235 . S
C158 O164 1.287 . S
C158 O165 1.255 . S
O159 Fe148 1.976 . S
O159 C166 1.287 . S
O160 Fe149 1.996 . S
O160 C166 1.255 . S
O161 Fe151 1.976 . S
O161 C156 1.287 . S
O162 Fe148 1.996 . S
O162 C156 1.255 . S
C163 O167 1.295 . S
C163 O168 1.235 . S
O164 Fe149 1.976 . S
O164 C158 1.287 . S
O165 Fe151 1.996 . S
O165 C158 1.255 . S
C166 O159 1.287 . S
C166 O160 1.255 . S
O167 Fe149 2.002 . S
O167 C163 1.295 . S
O168 Fe151 1.997 . S
O168 C163 1.235 . S
C169 O152 1.295 . S
C169 O153 1.235 . S
Fe170 O172 1.918 . S
Fe170 O175 1.997 . S
Fe170 O176 2.002 . S
Fe170 O181 1.976 . S
Fe170 O184 1.996 . S
Fe171 O172 1.918 . S
Fe171 O179 1.997 . S
Fe171 O182 1.996 . S
Fe171 O186 1.976 . S
Fe171 O189 2.002 . S
O172 Fe170 1.918 . S
O172 Fe171 1.918 . S
O172 Fe173 1.918 . S
Fe173 O172 1.918 . S
Fe173 O174 2.002 . S
Fe173 O183 1.976 . S
Fe173 O187 1.996 . S
Fe173 O190 1.997 . S
O174 Fe173 2.002 . S
O174 C191 1.295 . S
O175 Fe170 1.997 . S
O175 C191 1.235 . S
O176 Fe170 2.002 . S
O176 C177 1.295 . S
C177 O176 1.295 . S
C177 O179 1.235 . S
C178 O183 1.287 . S
C178 O184 1.255 . S
O179 Fe171 1.997 . S
O179 C177 1.235 . S
C180 O186 1.287 . S
C180 O187 1.255 . S
O181 Fe170 1.976 . S
O181 C188 1.287 . S
O182 Fe171 1.996 . S
O182 C188 1.255 . S
O183 Fe173 1.976 . S
O183 C178 1.287 . S
O184 Fe170 1.996 . S
O184 C178 1.255 . S
C185 O189 1.295 . S
C185 O190 1.235 . S
O186 Fe171 1.976 . S
O186 C180 1.287 . S
O187 Fe173 1.996 . S
O187 C180 1.255 . S
C188 O181 1.287 . S
C188 O182 1.255 . S
O189 Fe171 2.002 . S
O189 C185 1.295 . S
O190 Fe173 1.997 . S
O190 C185 1.235 . S
C191 O174 1.295 . S
C191 O175 1.235 . S
C192 C193 1.349 . S
C192 C194 1.327 . S
C192 H217 0.950 . S
C193 C192 1.349 . S
C193 C209 1.349 . S
C194 C192 1.327 . S
C194 C213 1.429 . S
C194 H218 0.950 . S
C195 C212 1.574 . S
C195 C214 1.368 . S
C195 H219 0.949 . S
H196 C200 0.949 . S
C197 C198 1.349 . S
C197 C199 1.327 . S
C197 H220 0.950 . S
C198 C197 1.349 . S
C198 C210 1.349 . S
C199 C197 1.327 . S
C199 C215 1.429 . S
C199 H221 0.950 . S
C200 H196 0.949 . S
C200 C208 1.574 . S
C200 C216 1.368 . S
H201 C209 0.950 . S
H202 C207 0.950 . S
H203 C208 0.949 . S
H204 C210 0.950 . S
H205 C211 0.950 . S
H206 C212 0.949 . S
C207 H202 0.950 . S
C207 C209 1.327 . S
C207 C213 1.429 . S
C208 C200 1.574 . S
C208 H203 0.949 . S
C208 C214 1.368 . S
C209 C193 1.349 . S
C209 H201 0.950 . S
C209 C207 1.327 . S
C210 C198 1.349 . S
C210 H204 0.950 . S
C210 C211 1.327 . S
C211 H205 0.950 . S
C211 C210 1.327 . S
C211 C215 1.429 . S
C212 C195 1.574 . S
C212 H206 0.949 . S
C212 C216 1.368 . S
C213 C194 1.429 . S
C213 C207 1.429 . S
C213 C214 1.523 . S
C214 C195 1.368 . S
C214 C208 1.368 . S
C214 C213 1.523 . S
C215 C199 1.429 . S
C215 C211 1.429 . S
C215 C216 1.523 . S
C216 C200 1.368 . S
C216 C212 1.368 . S
C216 C215 1.523 . S
H217 C192 0.950 . S
H218 C194 0.950 . S
H219 C195 0.949 . S
H220 C197 0.950 . S
H221 C199 0.950 . S
C222 C223 1.349 . S
C222 C224 1.327 . S
C222 H247 0.950 . S
C223 C222 1.349 . S
C223 C239 1.349 . S
C224 C222 1.327 . S
C224 C243 1.429 . S
C224 H248 0.950 . S
C225 C242 1.574 . S
C225 C244 1.368 . S
C225 H249 0.949 . S
H226 C230 0.949 . S
C227 C228 1.349 . S
C227 C229 1.327 . S
C227 H250 0.950 . S
C228 C227 1.349 . S
C228 C240 1.349 . S
C229 C227 1.327 . S
C229 C245 1.429 . S
C229 H251 0.950 . S
C230 H226 0.949 . S
C230 C238 1.574 . S
C230 C246 1.368 . S
H231 C239 0.950 . S
H232 C237 0.950 . S
H233 C238 0.949 . S
H234 C240 0.950 . S
H235 C241 0.950 . S
H236 C242 0.949 . S
C237 H232 0.950 . S
C237 C239 1.327 . S
C237 C243 1.429 . S
C238 C230 1.574 . S
C238 H233 0.949 . S
C238 C244 1.368 . S
C239 C223 1.349 . S
C239 H231 0.950 . S
C239 C237 1.327 . S
C240 C228 1.349 . S
C240 H234 0.950 . S
C240 C241 1.327 . S
C241 H235 0.950 . S
C241 C240 1.327 . S
C241 C245 1.429 . S
C242 C225 1.574 . S
C242 H236 0.949 . S
C242 C246 1.368 . S
C243 C224 1.429 . S
C243 C237 1.429 . S
C243 C244 1.523 . S
C244 C225 1.368 . S
C244 C238 1.368 . S
C244 C243 1.523 . S
C245 C229 1.429 . S
C245 C241 1.429 . S
C245 C246 1.523 . S
C246 C230 1.368 . S
C246 C242 1.368 . S
C246 C245 1.523 . S
H247 C222 0.950 . S
H248 C224 0.950 . S
H249 C225 0.949 . S
H250 C227 0.950 . S
H251 C229 0.950 . S
C252 C253 1.349 . S
C252 C254 1.327 . S
C252 H277 0.950 . S
C253 C252 1.349 . S
C253 C269 1.349 . S
C254 C252 1.327 . S
C254 C273 1.429 . S
C254 H278 0.950 . S
C255 C272 1.574 . S
C255 C274 1.368 . S
C255 H279 0.949 . S
H256 C260 0.949 . S
C257 C258 1.349 . S
C257 C259 1.327 . S
C257 H280 0.950 . S
C258 C257 1.349 . S
C258 C270 1.349 . S
C259 C257 1.327 . S
C259 C275 1.429 . S
C259 H281 0.950 . S
C260 H256 0.949 . S
C260 C268 1.574 . S
C260 C276 1.368 . S
H261 C269 0.950 . S
H262 C267 0.950 . S
H263 C268 0.949 . S
H264 C270 0.950 . S
H265 C271 0.950 . S
H266 C272 0.949 . S
C267 H262 0.950 . S
C267 C269 1.327 . S
C267 C273 1.429 . S
C268 C260 1.574 . S
C268 H263 0.949 . S
C268 C274 1.368 . S
C269 C253 1.349 . S
C269 H261 0.950 . S
C269 C267 1.327 . S
C270 C258 1.349 . S
C270 H264 0.950 . S
C270 C271 1.327 . S
C271 H265 0.950 . S
C271 C270 1.327 . S
C271 C275 1.429 . S
C272 C255 1.574 . S
C272 H266 0.949 . S
C272 C276 1.368 . S
C273 C254 1.429 . S
C273 C267 1.429 . S
C273 C274 1.523 . S
C274 C255 1.368 . S
C274 C268 1.368 . S
C274 C273 1.523 . S
C275 C259 1.429 . S
C275 C271 1.429 . S
C275 C276 1.523 . S
C276 C260 1.368 . S
C276 C272 1.368 . S
C276 C275 1.523 . S
H277 C252 0.950 . S
H278 C254 0.950 . S
H279 C255 0.949 . S
H280 C257 0.950 . S
H281 C259 0.950 . S
C282 C283 1.349 . S
C282 C284 1.327 . S
C282 H307 0.950 . S
C283 C282 1.349 . S
C283 C299 1.349 . S
C284 C282 1.327 . S
C284 C303 1.429 . S
C284 H308 0.950 . S
C285 C302 1.574 . S
C285 C304 1.368 . S
C285 H309 0.949 . S
H286 C290 0.949 . S
C287 C288 1.349 . S
C287 C289 1.327 . S
C287 H310 0.950 . S
C288 C287 1.349 . S
C288 C300 1.349 . S
C289 C287 1.327 . S
C289 C305 1.429 . S
C289 H311 0.950 . S
C290 H286 0.949 . S
C290 C298 1.574 . S
C290 C306 1.368 . S
H291 C299 0.950 . S
H292 C297 0.950 . S
H293 C298 0.949 . S
H294 C300 0.950 . S
H295 C301 0.950 . S
H296 C302 0.949 . S
C297 H292 0.950 . S
C297 C299 1.327 . S
C297 C303 1.429 . S
C298 C290 1.574 . S
C298 H293 0.949 . S
C298 C304 1.368 . S
C299 C283 1.349 . S
C299 H291 0.950 . S
C299 C297 1.327 . S
C300 C288 1.349 . S
C300 H294 0.950 . S
C300 C301 1.327 . S
C301 H295 0.950 . S
C301 C300 1.327 . S
C301 C305 1.429 . S
C302 C285 1.574 . S
C302 H296 0.949 . S
C302 C306 1.368 . S
C303 C284 1.429 . S
C303 C297 1.429 . S
C303 C304 1.523 . S
C304 C285 1.368 . S
C304 C298 1.368 . S
C304 C303 1.523 . S
C305 C289 1.429 . S
C305 C301 1.429 . S
C305 C306 1.523 . S
C306 C290 1.368 . S
C306 C302 1.368 . S
C306 C305 1.523 . S
H307 C282 0.950 . S
H308 C284 0.950 . S
H309 C285 0.949 . S
H310 C287 0.950 . S
H311 C289 0.950 . S
C312 C313 1.349 . S
C312 C314 1.327 . S
C312 H337 0.950 . S
C313 C312 1.349 . S
C313 C329 1.349 . S
C314 C312 1.327 . S
C314 C333 1.429 . S
C314 H338 0.950 . S
C315 C332 1.574 . S
C315 C334 1.368 . S
C315 H339 0.949 . S
H316 C320 0.949 . S
C317 C318 1.349 . S
C317 C319 1.327 . S
C317 H340 0.950 . S
C318 C317 1.349 . S
C318 C330 1.349 . S
C319 C317 1.327 . S
C319 C335 1.429 . S
C319 H341 0.950 . S
C320 H316 0.949 . S
C320 C328 1.574 . S
C320 C336 1.368 . S
H321 C329 0.950 . S
H322 C327 0.950 . S
H323 C328 0.949 . S
H324 C330 0.950 . S
H325 C331 0.950 . S
H326 C332 0.949 . S
C327 H322 0.950 . S
C327 C329 1.327 . S
C327 C333 1.429 . S
C328 C320 1.574 . S
C328 H323 0.949 . S
C328 C334 1.368 . S
C329 C313 1.349 . S
C329 H321 0.950 . S
C329 C327 1.327 . S
C330 C318 1.349 . S
C330 H324 0.950 . S
C330 C331 1.327 . S
C331 H325 0.950 . S
C331 C330 1.327 . S
C331 C335 1.429 . S
C332 C315 1.574 . S
C332 H326 0.949 . S
C332 C336 1.368 . S
C333 C314 1.429 . S
C333 C327 1.429 . S
C333 C334 1.523 . S
C334 C315 1.368 . S
C334 C328 1.368 . S
C334 C333 1.523 . S
C335 C319 1.429 . S
C335 C331 1.429 . S
C335 C336 1.523 . S
C336 C320 1.368 . S
C336 C332 1.368 . S
C336 C335 1.523 . S
H337 C312 0.950 . S
H338 C314 0.950 . S
H339 C315 0.949 . S
H340 C317 0.950 . S
H341 C319 0.950 . S
C342 C343 1.349 . S
C342 C344 1.327 . S
C342 H367 0.950 . S
C343 C342 1.349 . S
C343 C359 1.349 . S
C344 C342 1.327 . S
C344 C363 1.429 . S
C344 H368 0.950 . S
C345 C362 1.574 . S
C345 C364 1.368 . S
C345 H369 0.949 . S
H346 C350 0.949 . S
C347 C348 1.349 . S
C347 C349 1.327 . S
C347 H370 0.950 . S
C348 C347 1.349 . S
C348 C360 1.349 . S
C349 C347 1.327 . S
C349 C365 1.429 . S
C349 H371 0.950 . S
C350 H346 0.949 . S
C350 C358 1.574 . S
C350 C366 1.368 . S
H351 C359 0.950 . S
H352 C357 0.950 . S
H353 C358 0.949 . S
H354 C360 0.950 . S
H355 C361 0.950 . S
H356 C362 0.949 . S
C357 H352 0.950 . S
C357 C359 1.327 . S
C357 C363 1.429 . S
C358 C350 1.574 . S
C358 H353 0.949 . S
C358 C364 1.368 . S
C359 C343 1.349 . S
C359 H351 0.950 . S
C359 C357 1.327 . S
C360 C348 1.349 . S
C360 H354 0.950 . S
C360 C361 1.327 . S
C361 H355 0.950 . S
C361 C360 1.327 . S
C361 C365 1.429 . S
C362 C345 1.574 . S
C362 H356 0.949 . S
C362 C366 1.368 . S
C363 C344 1.429 . S
C363 C357 1.429 . S
C363 C364 1.523 . S
C364 C345 1.368 . S
C364 C358 1.368 . S
C364 C363 1.523 . S
C365 C349 1.429 . S
C365 C361 1.429 . S
C365 C366 1.523 . S
C366 C350 1.368 . S
C366 C362 1.368 . S
C366 C365 1.523 . S
H367 C342 0.950 . S
H368 C344 0.950 . S
H369 C345 0.949 . S
H370 C347 0.950 . S
H371 C349 0.950 . S
C372 C373 1.349 . S
C372 C374 1.327 . S
C372 H397 0.950 . S
C373 C372 1.349 . S
C373 C389 1.349 . S
C374 C372 1.327 . S
C374 C393 1.429 . S
C374 H398 0.950 . S
C375 C392 1.574 . S
C375 C394 1.368 . S
C375 H399 0.949 . S
H376 C380 0.949 . S
C377 C378 1.349 . S
C377 C379 1.327 . S
C377 H400 0.950 . S
C378 C377 1.349 . S
C378 C390 1.349 . S
C379 C377 1.327 . S
C379 C395 1.429 . S
C379 H401 0.950 . S
C380 H376 0.949 . S
C380 C388 1.574 . S
C380 C396 1.368 . S
H381 C389 0.950 . S
H382 C387 0.950 . S
H383 C388 0.949 . S
H384 C390 0.950 . S
H385 C391 0.950 . S
H386 C392 0.949 . S
C387 H382 0.950 . S
C387 C389 1.327 . S
C387 C393 1.429 . S
C388 C380 1.574 . S
C388 H383 0.949 . S
C388 C394 1.368 . S
C389 C373 1.349 . S
C389 H381 0.950 . S
C389 C387 1.327 . S
C390 C378 1.349 . S
C390 H384 0.950 . S
C390 C391 1.327 . S
C391 H385 0.950 . S
C391 C390 1.327 . S
C391 C395 1.429 . S
C392 C375 1.574 . S
C392 H386 0.949 . S
C392 C396 1.368 . S
C393 C374 1.429 . S
C393 C387 1.429 . S
C393 C394 1.523 . S
C394 C375 1.368 . S
C394 C388 1.368 . S
C394 C393 1.523 . S
C395 C379 1.429 . S
C395 C391 1.429 . S
C395 C396 1.523 . S
C396 C380 1.368 . S
C396 C392 1.368 . S
C396 C395 1.523 . S
H397 C372 0.950 . S
H398 C374 0.950 . S
H399 C375 0.949 . S
H400 C377 0.950 . S
H401 C379 0.950 . S
C402 C403 1.349 . S
C402 C404 1.327 . S
C402 H427 0.950 . S
C403 C402 1.349 . S
C403 C419 1.349 . S
C404 C402 1.327 . S
C404 C423 1.429 . S
C404 H428 0.950 . S
C405 C422 1.574 . S
C405 C424 1.368 . S
C405 H429 0.949 . S
H406 C410 0.949 . S
C407 C408 1.349 . S
C407 C409 1.327 . S
C407 H430 0.950 . S
C408 C407 1.349 . S
C408 C420 1.349 . S
C409 C407 1.327 . S
C409 C425 1.429 . S
C409 H431 0.950 . S
C410 H406 0.949 . S
C410 C418 1.574 . S
C410 C426 1.368 . S
H411 C419 0.950 . S
H412 C417 0.950 . S
H413 C418 0.949 . S
H414 C420 0.950 . S
H415 C421 0.950 . S
H416 C422 0.949 . S
C417 H412 0.950 . S
C417 C419 1.327 . S
C417 C423 1.429 . S
C418 C410 1.574 . S
C418 H413 0.949 . S
C418 C424 1.368 . S
C419 C403 1.349 . S
C419 H411 0.950 . S
C419 C417 1.327 . S
C420 C408 1.349 . S
C420 H414 0.950 . S
C420 C421 1.327 . S
C421 H415 0.950 . S
C421 C420 1.327 . S
C421 C425 1.429 . S
C422 C405 1.574 . S
C422 H416 0.949 . S
C422 C426 1.368 . S
C423 C404 1.429 . S
C423 C417 1.429 . S
C423 C424 1.523 . S
C424 C405 1.368 . S
C424 C418 1.368 . S
C424 C423 1.523 . S
C425 C409 1.429 . S
C425 C421 1.429 . S
C425 C426 1.523 . S
C426 C410 1.368 . S
C426 C422 1.368 . S
C426 C425 1.523 . S
H427 C402 0.950 . S
H428 C404 0.950 . S
H429 C405 0.949 . S
H430 C407 0.950 . S
H431 C409 0.950 . S
C432 C433 1.349 . S
C432 C434 1.327 . S
C432 H457 0.950 1_556 S
C433 C432 1.349 . S
C433 C449 1.349 . S
C434 C432 1.327 . S
C434 C453 1.429 . S
C434 H458 0.950 . S
C435 C452 1.574 . S
C435 C454 1.368 . S
C435 H459 0.949 . S
H436 C440 0.949 . S
C437 C438 1.349 . S
C437 C439 1.327 . S
C437 H460 0.950 . S
C438 C437 1.349 . S
C438 C450 1.349 . S
C439 C437 1.327 . S
C439 C455 1.429 . S
C439 H461 0.950 . S
C440 H436 0.949 . S
C440 C448 1.574 . S
C440 C456 1.368 . S
H441 C449 0.950 . S
H442 C447 0.950 . S
H443 C448 0.949 . S
H444 C450 0.950 . S
H445 C451 0.950 . S
H446 C452 0.949 . S
C447 H442 0.950 . S
C447 C449 1.327 . S
C447 C453 1.429 . S
C448 C440 1.574 . S
C448 H443 0.949 . S
C448 C454 1.368 . S
C449 C433 1.349 . S
C449 H441 0.950 . S
C449 C447 1.327 . S
C450 C438 1.349 . S
C450 H444 0.950 . S
C450 C451 1.327 . S
C451 H445 0.950 . S
C451 C450 1.327 . S
C451 C455 1.429 . S
C452 C435 1.574 . S
C452 H446 0.949 . S
C452 C456 1.368 . S
C453 C434 1.429 . S
C453 C447 1.429 . S
C453 C454 1.523 . S
C454 C435 1.368 . S
C454 C448 1.368 . S
C454 C453 1.523 . S
C455 C439 1.429 . S
C455 C451 1.429 . S
C455 C456 1.523 . S
C456 C440 1.368 . S
C456 C452 1.368 . S
C456 C455 1.523 . S
H457 C432 0.950 1_554 S
H458 C434 0.950 . S
H459 C435 0.949 . S
H460 C437 0.950 . S
H461 C439 0.950 . S
C462 C463 1.349 . S
C462 C464 1.327 . S
C462 H487 0.950 . S
C463 C462 1.349 . S
C463 C479 1.349 . S
C464 C462 1.327 . S
C464 C483 1.429 . S
C464 H488 0.950 . S
C465 C482 1.574 . S
C465 C484 1.368 . S
C465 H489 0.949 . S
H466 C470 0.949 . S
C467 C468 1.349 . S
C467 C469 1.327 . S
C467 H490 0.950 . S
C468 C467 1.349 . S
C468 C480 1.349 . S
C469 C467 1.327 . S
C469 C485 1.429 . S
C469 H491 0.950 . S
C470 H466 0.949 . S
C470 C478 1.574 . S
C470 C486 1.368 . S
H471 C479 0.950 . S
H472 C477 0.950 . S
H473 C478 0.949 . S
H474 C480 0.950 . S
H475 C481 0.950 . S
H476 C482 0.949 . S
C477 H472 0.950 . S
C477 C479 1.327 . S
C477 C483 1.429 . S
C478 C470 1.574 . S
C478 H473 0.949 . S
C478 C484 1.368 . S
C479 C463 1.349 . S
C479 H471 0.950 . S
C479 C477 1.327 . S
C480 C468 1.349 . S
C480 H474 0.950 . S
C480 C481 1.327 . S
C481 H475 0.950 . S
C481 C480 1.327 . S
C481 C485 1.429 . S
C482 C465 1.574 . S
C482 H476 0.949 . S
C482 C486 1.368 . S
C483 C464 1.429 . S
C483 C477 1.429 . S
C483 C484 1.523 . S
C484 C465 1.368 . S
C484 C478 1.368 . S
C484 C483 1.523 . S
C485 C469 1.429 . S
C485 C481 1.429 . S
C485 C486 1.523 . S
C486 C470 1.368 . S
C486 C482 1.368 . S
C486 C485 1.523 . S
H487 C462 0.950 . S
H488 C464 0.950 . S
H489 C465 0.949 . S
H490 C467 0.950 . S
H491 C469 0.950 . S
C492 C493 1.349 . S
C492 C494 1.327 . S
C492 H517 0.950 . S
C493 C492 1.349 . S
C493 C509 1.349 . S
C494 C492 1.327 . S
C494 C513 1.429 . S
C494 H518 0.950 . S
C495 C512 1.574 . S
C495 C514 1.368 . S
C495 H519 0.949 . S
H496 C500 0.949 . S
C497 C498 1.349 . S
C497 C499 1.327 . S
C497 H520 0.950 . S
C498 C497 1.349 . S
C498 C510 1.349 . S
C499 C497 1.327 . S
C499 C515 1.429 . S
C499 H521 0.950 . S
C500 H496 0.949 . S
C500 C508 1.574 . S
C500 C516 1.368 . S
H501 C509 0.950 . S
H502 C507 0.950 . S
H503 C508 0.949 . S
H504 C510 0.950 . S
H505 C511 0.950 . S
H506 C512 0.949 . S
C507 H502 0.950 . S
C507 C509 1.327 . S
C507 C513 1.429 . S
C508 C500 1.574 . S
C508 H503 0.949 . S
C508 C514 1.368 . S
C509 C493 1.349 . S
C509 H501 0.950 . S
C509 C507 1.327 . S
C510 C498 1.349 . S
C510 H504 0.950 . S
C510 C511 1.327 . S
C511 H505 0.950 . S
C511 C510 1.327 . S
C511 C515 1.429 . S
C512 C495 1.574 . S
C512 H506 0.949 . S
C512 C516 1.368 . S
C513 C494 1.429 . S
C513 C507 1.429 . S
C513 C514 1.523 . S
C514 C495 1.368 . S
C514 C508 1.368 . S
C514 C513 1.523 . S
C515 C499 1.429 . S
C515 C511 1.429 . S
C515 C516 1.523 . S
C516 C500 1.368 . S
C516 C512 1.368 . S
C516 C515 1.523 . S
H517 C492 0.950 . S
H518 C494 0.950 . S
H519 C495 0.949 . S
H520 C497 0.950 . S
H521 C499 0.950 . S
C522 C523 1.349 . S
C522 C524 1.327 . S
C522 H547 0.950 . S
C523 C522 1.349 . S
C523 C539 1.349 . S
C524 C522 1.327 . S
C524 C543 1.429 . S
C524 H548 0.950 . S
C525 C542 1.574 . S
C525 C544 1.368 . S
C525 H549 0.949 . S
H526 C530 0.949 . S
C527 C528 1.349 . S
C527 C529 1.327 . S
C527 H550 0.950 . S
C528 C527 1.349 . S
C528 C540 1.349 . S
C529 C527 1.327 . S
C529 C545 1.429 . S
C529 H551 0.950 . S
C530 H526 0.949 . S
C530 C538 1.574 . S
C530 C546 1.368 . S
H531 C539 0.950 . S
H532 C537 0.950 . S
H533 C538 0.949 . S
H534 C540 0.950 . S
H535 C541 0.950 . S
H536 C542 0.949 . S
C537 H532 0.950 . S
C537 C539 1.327 . S
C537 C543 1.429 . S
C538 C530 1.574 . S
C538 H533 0.949 . S
C538 C544 1.368 . S
C539 C523 1.349 . S
C539 H531 0.950 . S
C539 C537 1.327 . S
C540 C528 1.349 . S
C540 H534 0.950 . S
C540 C541 1.327 . S
C541 H535 0.950 . S
C541 C540 1.327 . S
C541 C545 1.429 . S
C542 C525 1.574 . S
C542 H536 0.949 . S
C542 C546 1.368 . S
C543 C524 1.429 . S
C543 C537 1.429 . S
C543 C544 1.523 . S
C544 C525 1.368 . S
C544 C538 1.368 . S
C544 C543 1.523 . S
C545 C529 1.429 . S
C545 C541 1.429 . S
C545 C546 1.523 . S
C546 C530 1.368 . S
C546 C542 1.368 . S
C546 C545 1.523 . S
H547 C522 0.950 . S
H548 C524 0.950 . S
H549 C525 0.949 . S
H550 C527 0.950 . S
H551 C529 0.950 . S
C552 C553 1.349 . S
C552 C554 1.327 . S
C552 H577 0.950 1_556 S
C553 C552 1.349 . S
C553 C569 1.349 . S
C554 C552 1.327 . S
C554 C573 1.429 . S
C554 H578 0.950 . S
C555 C572 1.574 1_565 S
C555 C574 1.368 . S
C555 H579 0.949 . S
H556 C560 0.949 . S
C557 C558 1.349 . S
C557 C559 1.327 . S
C557 H580 0.950 . S
C558 C557 1.349 . S
C558 C570 1.349 . S
C559 C557 1.327 . S
C559 C575 1.429 . S
C559 H581 0.950 . S
C560 H556 0.949 . S
C560 C568 1.574 1_545 S
C560 C576 1.368 . S
H561 C569 0.950 . S
H562 C567 0.950 . S
H563 C568 0.949 . S
H564 C570 0.950 . S
H565 C571 0.950 . S
H566 C572 0.949 . S
C567 H562 0.950 . S
C567 C569 1.327 . S
C567 C573 1.429 . S
C568 C560 1.574 1_565 S
C568 H563 0.949 . S
C568 C574 1.368 . S
C569 C553 1.349 . S
C569 H561 0.950 . S
C569 C567 1.327 . S
C570 C558 1.349 . S
C570 H564 0.950 . S
C570 C571 1.327 . S
C571 H565 0.950 . S
C571 C570 1.327 . S
C571 C575 1.429 . S
C572 C555 1.574 1_545 S
C572 H566 0.949 . S
C572 C576 1.368 . S
C573 C554 1.429 . S
C573 C567 1.429 . S
C573 C574 1.523 . S
C574 C555 1.368 . S
C574 C568 1.368 . S
C574 C573 1.523 . S
C575 C559 1.429 . S
C575 C571 1.429 . S
C575 C576 1.523 . S
C576 C560 1.368 . S
C576 C572 1.368 . S
C576 C575 1.523 . S
H577 C552 0.950 1_554 S
H578 C554 0.950 . S
H579 C555 0.949 . S
H580 C557 0.950 . S
H581 C559 0.950 . S
C582 C583 1.349 . S
C582 C584 1.327 . S
C582 H607 0.950 . S
C583 C582 1.349 . S
C583 C599 1.349 . S
C584 C582 1.327 . S
C584 C603 1.429 . S
C584 H608 0.950 . S
C585 C602 1.574 1_545 S
C585 C604 1.368 . S
C585 H609 0.949 . S
H586 C590 0.949 . S
C587 C588 1.349 . S
C587 C589 1.327 . S
C587 H610 0.950 . S
C588 C587 1.349 . S
C588 C600 1.349 . S
C589 C587 1.327 . S
C589 C605 1.429 . S
C589 H611 0.950 . S
C590 H586 0.949 . S
C590 C598 1.574 1_565 S
C590 C606 1.368 . S
H591 C599 0.950 . S
H592 C597 0.950 . S
H593 C598 0.949 . S
H594 C600 0.950 . S
H595 C601 0.950 . S
H596 C602 0.949 . S
C597 H592 0.950 . S
C597 C599 1.327 . S
C597 C603 1.429 . S
C598 C590 1.574 1_545 S
C598 H593 0.949 . S
C598 C604 1.368 . S
C599 C583 1.349 . S
C599 H591 0.950 . S
C599 C597 1.327 . S
C600 C588 1.349 . S
C600 H594 0.950 . S
C600 C601 1.327 . S
C601 H595 0.950 . S
C601 C600 1.327 . S
C601 C605 1.429 . S
C602 C585 1.574 1_565 S
C602 H596 0.949 . S
C602 C606 1.368 . S
C603 C584 1.429 . S
C603 C597 1.429 . S
C603 C604 1.523 . S
C604 C585 1.368 . S
C604 C598 1.368 . S
C604 C603 1.523 . S
C605 C589 1.429 . S
C605 C601 1.429 . S
C605 C606 1.523 . S
C606 C590 1.368 . S
C606 C602 1.368 . S
C606 C605 1.523 . S
H607 C582 0.950 . S
H608 C584 0.950 . S
H609 C585 0.949 . S
H610 C587 0.950 . S
H611 C589 0.950 . S
C612 C613 1.349 . S
C612 C614 1.327 . S
C612 H637 0.950 . S
C613 C612 1.349 . S
C613 C629 1.349 . S
C614 C612 1.327 . S
C614 C633 1.429 . S
C614 H638 0.950 . S
C615 C632 1.574 . S
C615 C634 1.368 1_545 S
C615 H639 0.949 . S
H616 C620 0.949 . S
C617 C618 1.349 . S
C617 C619 1.327 . S
C617 H640 0.950 . S
C618 C617 1.349 . S
C618 C630 1.349 . S
C619 C617 1.327 . S
C619 C635 1.429 . S
C619 H641 0.950 . S
C620 H616 0.949 . S
C620 C628 1.574 . S
C620 C636 1.368 1_565 S
H621 C629 0.950 1_554 S
H622 C627 0.950 . S
H623 C628 0.949 . S
H624 C630 0.950 . S
H625 C631 0.950 . S
H626 C632 0.949 . S
C627 H622 0.950 . S
C627 C629 1.327 . S
C627 C633 1.429 . S
C628 C620 1.574 . S
C628 H623 0.949 . S
C628 C634 1.368 . S
C629 C613 1.349 . S
C629 H621 0.950 1_556 S
C629 C627 1.327 . S
C630 C618 1.349 . S
C630 H624 0.950 . S
C630 C631 1.327 . S
C631 H625 0.950 . S
C631 C630 1.327 . S
C631 C635 1.429 . S
C632 C615 1.574 . S
C632 H626 0.949 . S
C632 C636 1.368 . S
C633 C614 1.429 . S
C633 C627 1.429 . S
C633 C634 1.523 . S
C634 C615 1.368 1_565 S
C634 C628 1.368 . S
C634 C633 1.523 . S
C635 C619 1.429 . S
C635 C631 1.429 . S
C635 C636 1.523 . S
C636 C620 1.368 1_545 S
C636 C632 1.368 . S
C636 C635 1.523 . S
H637 C612 0.950 . S
H638 C614 0.950 . S
H639 C615 0.949 . S
H640 C617 0.950 . S
H641 C619 0.950 . S
C642 C643 1.349 . S
C642 C644 1.327 . S
C642 H667 0.950 . S
C643 C642 1.349 . S
C643 C659 1.349 . S
C644 C642 1.327 . S
C644 C663 1.429 . S
C644 H668 0.950 . S
C645 C662 1.574 . S
C645 C664 1.368 1_565 S
C645 H669 0.949 . S
H646 C650 0.949 . S
C647 C648 1.349 . S
C647 C649 1.327 . S
C647 H670 0.950 . S
C648 C647 1.349 . S
C648 C660 1.349 . S
C649 C647 1.327 . S
C649 C665 1.429 . S
C649 H671 0.950 . S
C650 H646 0.949 . S
C650 C658 1.574 . S
C650 C666 1.368 1_545 S
H651 C659 0.950 . S
H652 C657 0.950 . S
H653 C658 0.949 . S
H654 C660 0.950 . S
H655 C661 0.950 . S
H656 C662 0.949 . S
C657 H652 0.950 . S
C657 C659 1.327 . S
C657 C663 1.429 . S
C658 C650 1.574 . S
C658 H653 0.949 . S
C658 C664 1.368 . S
C659 C643 1.349 . S
C659 H651 0.950 . S
C659 C657 1.327 . S
C660 C648 1.349 . S
C660 H654 0.950 . S
C660 C661 1.327 . S
C661 H655 0.950 . S
C661 C660 1.327 . S
C661 C665 1.429 . S
C662 C645 1.574 . S
C662 H656 0.949 . S
C662 C666 1.368 . S
C663 C644 1.429 . S
C663 C657 1.429 . S
C663 C664 1.523 . S
C664 C645 1.368 1_545 S
C664 C658 1.368 . S
C664 C663 1.523 . S
C665 C649 1.429 . S
C665 C661 1.429 . S
C665 C666 1.523 . S
C666 C650 1.368 1_565 S
C666 C662 1.368 . S
C666 C665 1.523 . S
H667 C642 0.950 . S
H668 C644 0.950 . S
H669 C645 0.949 . S
H670 C647 0.950 . S
H671 C649 0.950 . S
C672 C673 1.349 . S
C672 C674 1.327 . S
C672 H697 0.950 . S
C673 C672 1.349 . S
C673 C689 1.349 . S
C674 C672 1.327 . S
C674 C693 1.429 . S
C674 H698 0.950 . S
C675 C692 1.574 . S
C675 C694 1.368 . S
C675 H699 0.949 . S
H676 C680 0.949 . S
C677 C678 1.349 . S
C677 C679 1.327 . S
C677 H700 0.950 . S
C678 C677 1.349 . S
C678 C690 1.349 . S
C679 C677 1.327 . S
C679 C695 1.429 . S
C679 H701 0.950 . S
C680 H676 0.949 . S
C680 C688 1.574 . S
C680 C696 1.368 . S
H681 C689 0.950 . S
H682 C687 0.950 . S
H683 C688 0.949 . S
H684 C690 0.950 . S
H685 C691 0.950 . S
H686 C692 0.949 . S
C687 H682 0.950 . S
C687 C689 1.327 . S
C687 C693 1.429 . S
C688 C680 1.574 . S
C688 H683 0.949 . S
C688 C694 1.368 . S
C689 C673 1.349 . S
C689 H681 0.950 . S
C689 C687 1.327 . S
C690 C678 1.349 . S
C690 H684 0.950 . S
C690 C691 1.327 . S
C691 H685 0.950 . S
C691 C690 1.327 . S
C691 C695 1.429 . S
C692 C675 1.574 . S
C692 H686 0.949 . S
C692 C696 1.368 . S
C693 C674 1.429 . S
C693 C687 1.429 . S
C693 C694 1.523 . S
C694 C675 1.368 . S
C694 C688 1.368 . S
C694 C693 1.523 . S
C695 C679 1.429 . S
C695 C691 1.429 . S
C695 C696 1.523 . S
C696 C680 1.368 . S
C696 C692 1.368 . S
C696 C695 1.523 . S
H697 C672 0.950 . S
H698 C674 0.950 . S
H699 C675 0.949 . S
H700 C677 0.950 . S
H701 C679 0.950 . S
C702 C703 1.349 . S
C702 C704 1.327 . S
C702 H727 0.950 . S
C703 C702 1.349 . S
C703 C719 1.349 . S
C704 C702 1.327 . S
C704 C723 1.429 . S
C704 H728 0.950 . S
C705 C722 1.574 . S
C705 C724 1.368 . S
C705 H729 0.949 . S
H706 C710 0.949 . S
C707 C708 1.349 . S
C707 C709 1.327 . S
C707 H730 0.950 . S
C708 C707 1.349 . S
C708 C720 1.349 . S
C709 C707 1.327 . S
C709 C725 1.429 . S
C709 H731 0.950 . S
C710 H706 0.949 . S
C710 C718 1.574 . S
C710 C726 1.368 . S
H711 C719 0.950 . S
H712 C717 0.950 . S
H713 C718 0.949 . S
H714 C720 0.950 . S
H715 C721 0.950 . S
H716 C722 0.949 . S
C717 H712 0.950 . S
C717 C719 1.327 . S
C717 C723 1.429 . S
C718 C710 1.574 . S
C718 H713 0.949 . S
C718 C724 1.368 . S
C719 C703 1.349 . S
C719 H711 0.950 . S
C719 C717 1.327 . S
C720 C708 1.349 . S
C720 H714 0.950 . S
C720 C721 1.327 . S
C721 H715 0.950 . S
C721 C720 1.327 . S
C721 C725 1.429 . S
C722 C705 1.574 . S
C722 H716 0.949 . S
C722 C726 1.368 . S
C723 C704 1.429 . S
C723 C717 1.429 . S
C723 C724 1.523 . S
C724 C705 1.368 . S
C724 C718 1.368 . S
C724 C723 1.523 . S
C725 C709 1.429 . S
C725 C721 1.429 . S
C725 C726 1.523 . S
C726 C710 1.368 . S
C726 C722 1.368 . S
C726 C725 1.523 . S
H727 C702 0.950 . S
H728 C704 0.950 . S
H729 C705 0.949 . S
H730 C707 0.950 . S
H731 C709 0.950 . S
C732 C733 1.349 . S
C732 C734 1.327 . S
C732 H757 0.950 . S
C733 C732 1.349 . S
C733 C749 1.349 . S
C734 C732 1.327 . S
C734 C753 1.429 . S
C734 H758 0.950 . S
C735 C752 1.574 . S
C735 C754 1.368 . S
C735 H759 0.949 . S
H736 C740 0.949 . S
C737 C738 1.349 . S
C737 C739 1.327 . S
C737 H760 0.950 . S
C738 C737 1.349 . S
C738 C750 1.349 . S
C739 C737 1.327 . S
C739 C755 1.429 . S
C739 H761 0.950 . S
C740 H736 0.949 . S
C740 C748 1.574 . S
C740 C756 1.368 . S
H741 C749 0.950 . S
H742 C747 0.950 . S
H743 C748 0.949 . S
H744 C750 0.950 . S
H745 C751 0.950 . S
H746 C752 0.949 . S
C747 H742 0.950 . S
C747 C749 1.327 . S
C747 C753 1.429 . S
C748 C740 1.574 . S
C748 H743 0.949 . S
C748 C754 1.368 . S
C749 C733 1.349 . S
C749 H741 0.950 . S
C749 C747 1.327 . S
C750 C738 1.349 . S
C750 H744 0.950 . S
C750 C751 1.327 . S
C751 H745 0.950 . S
C751 C750 1.327 . S
C751 C755 1.429 . S
C752 C735 1.574 . S
C752 H746 0.949 . S
C752 C756 1.368 . S
C753 C734 1.429 . S
C753 C747 1.429 . S
C753 C754 1.523 . S
C754 C735 1.368 . S
C754 C748 1.368 . S
C754 C753 1.523 . S
C755 C739 1.429 . S
C755 C751 1.429 . S
C755 C756 1.523 . S
C756 C740 1.368 . S
C756 C752 1.368 . S
C756 C755 1.523 . S
H757 C732 0.950 . S
H758 C734 0.950 . S
H759 C735 0.949 . S
H760 C737 0.950 . S
H761 C739 0.950 . S
C762 C763 1.349 . S
C762 C764 1.327 . S
C762 H787 0.950 . S
C763 C762 1.349 . S
C763 C779 1.349 . S
C764 C762 1.327 . S
C764 C783 1.429 . S
C764 H788 0.950 . S
C765 C782 1.574 . S
C765 C784 1.368 . S
C765 H789 0.949 . S
H766 C770 0.949 . S
C767 C768 1.349 . S
C767 C769 1.327 . S
C767 H790 0.950 . S
C768 C767 1.349 . S
C768 C780 1.349 . S
C769 C767 1.327 . S
C769 C785 1.429 . S
C769 H791 0.950 . S
C770 H766 0.949 . S
C770 C778 1.574 . S
C770 C786 1.368 . S
H771 C779 0.950 . S
H772 C777 0.950 . S
H773 C778 0.949 . S
H774 C780 0.950 . S
H775 C781 0.950 . S
H776 C782 0.949 . S
C777 H772 0.950 . S
C777 C779 1.327 . S
C777 C783 1.429 . S
C778 C770 1.574 . S
C778 H773 0.949 . S
C778 C784 1.368 . S
C779 C763 1.349 . S
C779 H771 0.950 . S
C779 C777 1.327 . S
C780 C768 1.349 . S
C780 H774 0.950 . S
C780 C781 1.327 . S
C781 H775 0.950 . S
C781 C780 1.327 . S
C781 C785 1.429 . S
C782 C765 1.574 . S
C782 H776 0.949 . S
C782 C786 1.368 . S
C783 C764 1.429 . S
C783 C777 1.429 . S
C783 C784 1.523 . S
C784 C765 1.368 . S
C784 C778 1.368 . S
C784 C783 1.523 . S
C785 C769 1.429 . S
C785 C781 1.429 . S
C785 C786 1.523 . S
C786 C770 1.368 . S
C786 C782 1.368 . S
C786 C785 1.523 . S
H787 C762 0.950 . S
H788 C764 0.950 . S
H789 C765 0.949 . S
H790 C767 0.950 . S
H791 C769 0.950 . S
C792 C793 1.349 . S
C792 C794 1.327 . S
C792 H817 0.950 . S
C793 C792 1.349 . S
C793 C809 1.349 . S
C794 C792 1.327 . S
C794 C813 1.429 . S
C794 H818 0.950 . S
C795 C812 1.574 . S
C795 C814 1.368 . S
C795 H819 0.949 . S
H796 C800 0.949 . S
C797 C798 1.349 . S
C797 C799 1.327 . S
C797 H820 0.950 . S
C798 C797 1.349 . S
C798 C810 1.349 . S
C799 C797 1.327 . S
C799 C815 1.429 . S
C799 H821 0.950 . S
C800 H796 0.949 . S
C800 C808 1.574 . S
C800 C816 1.368 . S
H801 C809 0.950 . S
H802 C807 0.950 . S
H803 C808 0.949 . S
H804 C810 0.950 . S
H805 C811 0.950 . S
H806 C812 0.949 . S
C807 H802 0.950 . S
C807 C809 1.327 . S
C807 C813 1.429 . S
C808 C800 1.574 . S
C808 H803 0.949 . S
C808 C814 1.368 . S
C809 C793 1.349 . S
C809 H801 0.950 . S
C809 C807 1.327 . S
C810 C798 1.349 . S
C810 H804 0.950 . S
C810 C811 1.327 . S
C811 H805 0.950 . S
C811 C810 1.327 . S
C811 C815 1.429 . S
C812 C795 1.574 . S
C812 H806 0.949 . S
C812 C816 1.368 . S
C813 C794 1.429 . S
C813 C807 1.429 . S
C813 C814 1.523 . S
C814 C795 1.368 . S
C814 C808 1.368 . S
C814 C813 1.523 . S
C815 C799 1.429 . S
C815 C811 1.429 . S
C815 C816 1.523 . S
C816 C800 1.368 . S
C816 C812 1.368 . S
C816 C815 1.523 . S
H817 C792 0.950 . S
H818 C794 0.950 . S
H819 C795 0.949 . S
H820 C797 0.950 . S
H821 C799 0.950 . S
C822 C823 1.349 . S
C822 C824 1.327 . S
C822 H847 0.950 . S
C823 C822 1.349 . S
C823 C839 1.349 . S
C824 C822 1.327 . S
C824 C843 1.429 . S
C824 H848 0.950 . S
C825 C842 1.574 . S
C825 C844 1.368 . S
C825 H849 0.949 . S
H826 C830 0.949 . S
C827 C828 1.349 . S
C827 C829 1.327 . S
C827 H850 0.950 . S
C828 C827 1.349 . S
C828 C840 1.349 . S
C829 C827 1.327 . S
C829 C845 1.429 . S
C829 H851 0.950 . S
C830 H826 0.949 . S
C830 C838 1.574 . S
C830 C846 1.368 . S
H831 C839 0.950 . S
H832 C837 0.950 . S
H833 C838 0.949 . S
H834 C840 0.950 . S
H835 C841 0.950 . S
H836 C842 0.949 . S
C837 H832 0.950 . S
C837 C839 1.327 . S
C837 C843 1.429 . S
C838 C830 1.574 . S
C838 H833 0.949 . S
C838 C844 1.368 . S
C839 C823 1.349 . S
C839 H831 0.950 . S
C839 C837 1.327 . S
C840 C828 1.349 . S
C840 H834 0.950 . S
C840 C841 1.327 . S
C841 H835 0.950 . S
C841 C840 1.327 . S
C841 C845 1.429 . S
C842 C825 1.574 . S
C842 H836 0.949 . S
C842 C846 1.368 . S
C843 C824 1.429 . S
C843 C837 1.429 . S
C843 C844 1.523 . S
C844 C825 1.368 . S
C844 C838 1.368 . S
C844 C843 1.523 . S
C845 C829 1.429 . S
C845 C841 1.429 . S
C845 C846 1.523 . S
C846 C830 1.368 . S
C846 C842 1.368 . S
C846 C845 1.523 . S
H847 C822 0.950 . S
H848 C824 0.950 . S
H849 C825 0.949 . S
H850 C827 0.950 . S
H851 C829 0.950 . S
C852 C853 1.349 . S
C852 C854 1.327 . S
C852 H877 0.950 . S
C853 C852 1.349 . S
C853 C869 1.349 . S
C854 C852 1.327 . S
C854 C873 1.429 . S
C854 H878 0.950 . S
C855 C872 1.574 . S
C855 C874 1.368 . S
C855 H879 0.949 . S
H856 C860 0.949 . S
C857 C858 1.349 . S
C857 C859 1.327 . S
C857 H880 0.950 . S
C858 C857 1.349 . S
C858 C870 1.349 . S
C859 C857 1.327 . S
C859 C875 1.429 . S
C859 H881 0.950 . S
C860 H856 0.949 . S
C860 C868 1.574 . S
C860 C876 1.368 . S
H861 C869 0.950 . S
H862 C867 0.950 . S
H863 C868 0.949 . S
H864 C870 0.950 . S
H865 C871 0.950 . S
H866 C872 0.949 . S
C867 H862 0.950 . S
C867 C869 1.327 . S
C867 C873 1.429 . S
C868 C860 1.574 . S
C868 H863 0.949 . S
C868 C874 1.368 . S
C869 C853 1.349 . S
C869 H861 0.950 . S
C869 C867 1.327 . S
C870 C858 1.349 . S
C870 H864 0.950 . S
C870 C871 1.327 . S
C871 H865 0.950 . S
C871 C870 1.327 . S
C871 C875 1.429 . S
C872 C855 1.574 . S
C872 H866 0.949 . S
C872 C876 1.368 . S
C873 C854 1.429 . S
C873 C867 1.429 . S
C873 C874 1.523 . S
C874 C855 1.368 . S
C874 C868 1.368 . S
C874 C873 1.523 . S
C875 C859 1.429 . S
C875 C871 1.429 . S
C875 C876 1.523 . S
C876 C860 1.368 . S
C876 C872 1.368 . S
C876 C875 1.523 . S
H877 C852 0.950 . S
H878 C854 0.950 . S
H879 C855 0.949 . S
H880 C857 0.950 . S
H881 C859 0.950 . S
C882 C883 1.349 . S
C882 C884 1.327 . S
C882 H907 0.950 . S
C883 C882 1.349 . S
C883 C899 1.349 . S
C884 C882 1.327 . S
C884 C903 1.429 . S
C884 H908 0.950 . S
C885 C902 1.574 . S
C885 C904 1.368 . S
C885 H909 0.949 . S
H886 C890 0.949 . S
C887 C888 1.349 . S
C887 C889 1.327 . S
C887 H910 0.950 . S
C888 C887 1.349 . S
C888 C900 1.349 . S
C889 C887 1.327 . S
C889 C905 1.429 . S
C889 H911 0.950 . S
C890 H886 0.949 . S
C890 C898 1.574 . S
C890 C906 1.368 . S
H891 C899 0.950 . S
H892 C897 0.950 . S
H893 C898 0.949 . S
H894 C900 0.950 . S
H895 C901 0.950 . S
H896 C902 0.949 . S
C897 H892 0.950 . S
C897 C899 1.327 . S
C897 C903 1.429 . S
C898 C890 1.574 . S
C898 H893 0.949 . S
C898 C904 1.368 . S
C899 C883 1.349 . S
C899 H891 0.950 . S
C899 C897 1.327 . S
C900 C888 1.349 . S
C900 H894 0.950 . S
C900 C901 1.327 . S
C901 H895 0.950 . S
C901 C900 1.327 . S
C901 C905 1.429 . S
C902 C885 1.574 . S
C902 H896 0.949 . S
C902 C906 1.368 . S
C903 C884 1.429 . S
C903 C897 1.429 . S
C903 C904 1.523 . S
C904 C885 1.368 . S
C904 C898 1.368 . S
C904 C903 1.523 . S
C905 C889 1.429 . S
C905 C901 1.429 . S
C905 C906 1.523 . S
C906 C890 1.368 . S
C906 C902 1.368 . S
C906 C905 1.523 . S
H907 C882 0.950 . S
H908 C884 0.950 . S
H909 C885 0.949 . S
H910 C887 0.950 . S
H911 C889 0.950 . S
C193 C4 1.562 . S
C198 C147 1.625 . S
C228 C111 1.474 . S
C223 C17 1.454 . S
C258 C134 1.470 . S
C253 C30 1.399 . S
C288 C122 1.621 . S
C283 C43 1.588 . S
C318 C191 1.625 . S
C313 C56 1.562 . S
C348 C155 1.474 . S
C343 C69 1.454 . S
C373 C82 1.400 . S
C378 C178 1.470 . S
C408 C166 1.621 . S
C403 C95 1.588 . S
C433 C9 1.547 . S
C438 C188 1.576 . S
C468 C158 1.435 . S
C463 C21 1.428 . S
C493 C34 1.456 . S
C498 C177 1.459 . S
C523 C48 1.581 . S
C528 C163 1.600 . S
C558 C144 1.576 . S
C553 C61 1.547 . S
C583 C73 1.428 . S
C588 C114 1.435 . S
C618 C133 1.459 . S
C613 C86 1.456 . S
C648 C119 1.600 . S
C643 C100 1.581 . S
C678 C169 1.530 . S
C673 C8 1.528 . S
C708 C185 1.534 . S
C703 C22 1.519 . S
C733 C35 1.475 . S
C738 C156 1.501 . S
C768 C180 1.497 . S
C763 C47 1.489 . S
C798 C125 1.530 . S
C793 C60 1.528 . S
C823 C74 1.519 . S
C828 C141 1.534 . S
C853 C87 1.475 . S
C858 C112 1.502 . S
C883 C99 1.489 . S
C888 C136 1.497 . S
