# Generated by pormake.
# Topology pyr, (3,6)-cn, num edge types: 1
# Building blocks:
#     Node 0, Type 0, BuildingBlock: VETTIZ_charged_linker_0, # of connection points: 3
#     Node 1, Type 0, BuildingBlock: VETTIZ_charged_linker_0, # of connection points: 3
#     Node 2, Type 0, BuildingBlock: VETTIZ_charged_linker_0, # of connection points: 3
#     Node 3, Type 0, BuildingBlock: VETTIZ_charged_linker_0, # of connection points: 3
#     Node 4, Type 0, BuildingBlock: VETTIZ_charged_linker_0, # of connection points: 3
#     Node 5, Type 0, BuildingBlock: VETTIZ_charged_linker_0, # of connection points: 3
#     Node 6, Type 0, BuildingBlock: VETTIZ_charged_linker_0, # of connection points: 3
#     Node 7, Type 0, BuildingBlock: VETTIZ_charged_linker_0, # of connection points: 3
#     Node 8, Type 1, BuildingBlock: PAMTUU_clean_sbu_0, # of connection points: 6
#     Node 9, Type 1, BuildingBlock: PAMTUU_clean_sbu_0, # of connection points: 6
#     Node 10, Type 1, BuildingBlock: PAMTUU_clean_sbu_0, # of connection points: 6
#     Node 11, Type 1, BuildingBlock: PAMTUU_clean_sbu_0, # of connection points: 6
#     Edge 12, Type (0, 1), BuildingBlock: AJUNOK_clean_linker_0, # of connection points: 2
#     Edge 13, Type (0, 1), BuildingBlock: AJUNOK_clean_linker_0, # of connection points: 2
#     Edge 14, Type (0, 1), BuildingBlock: AJUNOK_clean_linker_0, # of connection points: 2
#     Edge 15, Type (0, 1), BuildingBlock: AJUNOK_clean_linker_0, # of connection points: 2
#     Edge 16, Type (0, 1), BuildingBlock: AJUNOK_clean_linker_0, # of connection points: 2
#     Edge 17, Type (0, 1), BuildingBlock: AJUNOK_clean_linker_0, # of connection points: 2
#     Edge 18, Type (0, 1), BuildingBlock: AJUNOK_clean_linker_0, # of connection points: 2
#     Edge 19, Type (0, 1), BuildingBlock: AJUNOK_clean_linker_0, # of connection points: 2
#     Edge 20, Type (0, 1), BuildingBlock: AJUNOK_clean_linker_0, # of connection points: 2
#     Edge 21, Type (0, 1), BuildingBlock: AJUNOK_clean_linker_0, # of connection points: 2
#     Edge 22, Type (0, 1), BuildingBlock: AJUNOK_clean_linker_0, # of connection points: 2
#     Edge 23, Type (0, 1), BuildingBlock: AJUNOK_clean_linker_0, # of connection points: 2
#     Edge 24, Type (0, 1), BuildingBlock: AJUNOK_clean_linker_0, # of connection points: 2
#     Edge 25, Type (0, 1), BuildingBlock: AJUNOK_clean_linker_0, # of connection points: 2
#     Edge 26, Type (0, 1), BuildingBlock: AJUNOK_clean_linker_0, # of connection points: 2
#     Edge 27, Type (0, 1), BuildingBlock: AJUNOK_clean_linker_0, # of connection points: 2
#     Edge 28, Type (0, 1), BuildingBlock: AJUNOK_clean_linker_0, # of connection points: 2
#     Edge 29, Type (0, 1), BuildingBlock: AJUNOK_clean_linker_0, # of connection points: 2
#     Edge 30, Type (0, 1), BuildingBlock: AJUNOK_clean_linker_0, # of connection points: 2
#     Edge 31, Type (0, 1), BuildingBlock: AJUNOK_clean_linker_0, # of connection points: 2
#     Edge 32, Type (0, 1), BuildingBlock: AJUNOK_clean_linker_0, # of connection points: 2
#     Edge 33, Type (0, 1), BuildingBlock: AJUNOK_clean_linker_0, # of connection points: 2
#     Edge 34, Type (0, 1), BuildingBlock: AJUNOK_clean_linker_0, # of connection points: 2
#     Edge 35, Type (0, 1), BuildingBlock: AJUNOK_clean_linker_0, # of connection points: 2
# Relax obj value: 0.126
# Max RMSD: 0.142
# Mean RMSD: 0.058
data_MOF--net-pyr--node1-PAMTUU_clean_sbu_0--node2-VETTIZ_charged_linker_0--edge1-AJUNOK_clean_linker_0
_symmetry_space_group_name_H-M    P1
_symmetry_Int_Tables_number       1
_symmetry_cell_setting            triclinic
loop_
_symmetry_equiv_pos_as_xyz
'x, y, z'
_cell_length_a     36.322578
_cell_length_b     36.865101
_cell_length_c     35.001022
_cell_angle_alpha  89.989697
_cell_angle_beta   89.616923
_cell_angle_gamma 101.66369
loop_
_atom_site_label
_atom_site_type_symbol
_atom_site_fract_x
_atom_site_fract_y
_atom_site_fract_z
_atom_type_partial_charge
C0 C 0.35113 0.254 0.37893 0.0
C1 C 0.31727 0.25781 0.39666 0.0
C2 C 0.29779 0.28416 0.38226 0.0
C3 C 0.33797 0.29193 0.32633 0.0
C4 C 0.36034 0.27028 0.34303 0.0
C5 C 0.38921 0.26112 0.31548 0.0
H6 H 0.42351 0.21902 0.13642 0.0
C7 C 0.34764 0.29565 0.28536 0.0
C8 C 0.37799 0.27816 0.27873 0.0
H9 H 0.49128 0.20994 0.23595 0.0
H10 H 0.45578 0.24736 0.27209 0.0
H11 H 0.42887 0.30796 0.15048 0.0
H12 H 0.34232 0.21204 0.17517 0.0
H13 H 0.32297 0.24602 0.15124 0.0
H14 H 0.35823 0.22634 0.12772 0.0
H15 H 0.39695 0.28652 0.11436 0.0
H16 H 0.38544 0.32152 0.14589 0.0
C17 C 0.42888 0.28043 0.32906 0.0
C18 C 0.38369 0.21834 0.31282 0.0
C19 C 0.25399 0.33652 0.19704 0.0
C20 C 0.24992 0.33634 0.15734 0.0
C21 C 0.27705 0.32479 0.13398 0.0
C22 C 0.30756 0.31244 0.15044 0.0
C23 C 0.31072 0.31178 0.19053 0.0
C24 C 0.28448 0.32437 0.21295 0.0
C25 C 0.29191 0.32201 0.25486 0.0
C26 C 0.32739 0.30622 0.25413 0.0
C27 C 0.33804 0.29982 0.21646 0.0
C28 C 0.29969 0.3618 0.27134 0.0
C29 C 0.2578 0.2953 0.27362 0.0
C30 C 0.4314 0.22554 0.16575 0.0
C31 C 0.4598 0.21061 0.18352 0.0
C32 C 0.46886 0.22004 0.22186 0.0
C33 C 0.44833 0.24165 0.24281 0.0
C34 C 0.41807 0.25344 0.22549 0.0
C35 C 0.41157 0.24753 0.18702 0.0
C36 C 0.38102 0.26622 0.17276 0.0
C37 C 0.36875 0.2821 0.20972 0.0
C38 C 0.38972 0.27314 0.24067 0.0
C39 C 0.39867 0.29705 0.14416 0.0
C40 C 0.34938 0.23628 0.15561 0.0
H41 H 0.29139 0.31998 0.3367 0.0
H42 H 0.36734 0.23498 0.3905 0.0
H43 H 0.35375 0.20579 0.30699 0.0
H44 H 0.40037 0.2088 0.29004 0.0
H45 H 0.39174 0.20645 0.33991 0.0
H46 H 0.42767 0.30247 0.35048 0.0
H47 H 0.44394 0.26037 0.34251 0.0
H48 H 0.44632 0.29471 0.30525 0.0
H49 H 0.23355 0.34569 0.21543 0.0
H50 H 0.27431 0.32489 0.10318 0.0
H51 H 0.32716 0.30334 0.13146 0.0
H52 H 0.31766 0.38142 0.25142 0.0
H53 H 0.27307 0.37173 0.27579 0.0
H54 H 0.31527 0.36401 0.29854 0.0
H55 H 0.23769 0.28057 0.25219 0.0
H56 H 0.26649 0.27282 0.29011 0.0
H57 H 0.24147 0.31038 0.29265 0.0
H58 H 0.27207 0.28833 0.39582 0.0
C59 C 0.30845 0.30177 0.34737 0.0
C60 C 0.10869 0.85158 0.67176 0.0
C61 C 0.08499 0.87318 0.68837 0.0
C62 C 0.07666 0.86944 0.72768 0.0
C63 C 0.12136 0.82933 0.73447 0.0
C64 C 0.12649 0.82974 0.69535 0.0
C65 C 0.15465 0.80696 0.68322 0.0
H66 H 0.2953 0.7219 0.73454 0.0
C67 C 0.14797 0.8088 0.75163 0.0
C68 C 0.16684 0.79452 0.72175 0.0
H69 H 0.25579 0.7354 0.62026 0.0
H70 H 0.20523 0.76235 0.64607 0.0
H71 H 0.29561 0.79093 0.76343 0.0
H72 H 0.20969 0.69452 0.77385 0.0
H73 H 0.21388 0.71658 0.81878 0.0
H74 H 0.25444 0.7032 0.79728 0.0
H75 H 0.29157 0.76375 0.80601 0.0
H76 H 0.2693 0.8031 0.8017 0.0
C77 C 0.18726 0.83272 0.66182 0.0
C78 C 0.13405 0.77389 0.65917 0.0
C79 C 0.18797 0.83641 0.8883 0.0
C80 C 0.22054 0.83094 0.90708 0.0
C81 C 0.23782 0.80201 0.89481 0.0
C82 C 0.22639 0.78282 0.86108 0.0
C83 C 0.19828 0.79348 0.83893 0.0
C84 C 0.178 0.81826 0.85356 0.0
C85 C 0.15057 0.82779 0.82498 0.0
C86 C 0.15989 0.80664 0.79 0.0
C87 C 0.18818 0.78707 0.79839 0.0
C88 C 0.16001 0.87035 0.81864 0.0
C89 C 0.11008 0.81275 0.83991 0.0
C90 C 0.27539 0.72996 0.71497 0.0
C91 C 0.2798 0.72684 0.67533 0.0
C92 C 0.25349 0.73823 0.65093 0.0
C93 C 0.22407 0.75367 0.66598 0.0
C94 C 0.22114 0.758 0.70579 0.0
C95 C 0.24619 0.74547 0.72944 0.0
C96 C 0.23981 0.7527 0.77085 0.0
C97 C 0.20642 0.7715 0.76842 0.0
C98 C 0.19571 0.7749 0.73028 0.0
C99 C 0.27575 0.77874 0.78655 0.0
C100 C 0.22911 0.71488 0.7916 0.0
H101 H 0.08818 0.84645 0.78074 0.0
H102 H 0.11456 0.85305 0.64135 0.0
H103 H 0.10456 0.76437 0.66927 0.0
H104 H 0.14694 0.74929 0.66167 0.0
H105 H 0.13309 0.78162 0.62857 0.0
H106 H 0.19569 0.85947 0.67724 0.0
H107 H 0.1787 0.83892 0.63252 0.0
H108 H 0.21292 0.82124 0.65965 0.0
H109 H 0.17333 0.85754 0.89812 0.0
H110 H 0.26252 0.79662 0.90912 0.0
H111 H 0.24194 0.76255 0.85203 0.0
H112 H 0.19072 0.88008 0.81375 0.0
H113 H 0.15181 0.88517 0.84394 0.0
H114 H 0.14616 0.87965 0.79373 0.0
H115 H 0.10924 0.79065 0.86175 0.0
H116 H 0.09115 0.79953 0.81693 0.0
H117 H 0.09792 0.83504 0.85329 0.0
H118 H 0.05808 0.88539 0.74096 0.0
C119 C 0.09444 0.84724 0.75075 0.0
C120 C 0.64262 0.25965 0.93939 0.0
C121 C 0.60749 0.23786 0.92982 0.0
C122 C 0.58717 0.25073 0.90005 0.0
C123 C 0.63548 0.30736 0.89321 0.0
C124 C 0.65535 0.29412 0.92181 0.0
C125 C 0.68997 0.32143 0.93297 0.0
H126 H 0.80298 0.49039 0.92315 0.0
C127 C 0.6566 0.34541 0.88246 0.0
C128 C 0.68812 0.35357 0.9065 0.0
H129 H 0.81169 0.39711 0.9951 0.0
H130 H 0.75746 0.36072 0.9659 0.0
H131 H 0.71049 0.47995 0.92513 0.0
H132 H 0.78261 0.43794 0.84494 0.0
H133 H 0.74796 0.45505 0.81975 0.0
H134 H 0.78162 0.48637 0.84797 0.0
H135 H 0.74249 0.50991 0.8939 0.0
H136 H 0.69656 0.4871 0.878 0.0
C137 C 0.68561 0.33159 0.97566 0.0
C138 C 0.7245 0.30396 0.92389 0.0
C139 C 0.61441 0.41872 0.77153 0.0
C140 C 0.62823 0.45444 0.7561 0.0
C141 C 0.65968 0.47676 0.77381 0.0
C142 C 0.67738 0.46387 0.80532 0.0
C143 C 0.66362 0.42811 0.82005 0.0
C144 C 0.63229 0.40626 0.80343 0.0
C145 C 0.62055 0.36964 0.82422 0.0
C146 C 0.65093 0.37229 0.85462 0.0
C147 C 0.67621 0.40693 0.8522 0.0
C148 C 0.58134 0.36826 0.84226 0.0
C149 C 0.62168 0.33791 0.79574 0.0
C150 C 0.79291 0.46215 0.93263 0.0
C151 C 0.81111 0.44727 0.96288 0.0
C152 C 0.79754 0.41005 0.97339 0.0
C153 C 0.76601 0.38863 0.95593 0.0
C154 C 0.74732 0.404 0.92696 0.0
C155 C 0.76104 0.43996 0.91511 0.0
C156 C 0.73789 0.4504 0.88242 0.0
C157 C 0.70751 0.4152 0.87777 0.0
C158 C 0.71343 0.38838 0.90426 0.0
C159 C 0.72102 0.48377 0.89518 0.0
C160 C 0.76369 0.45815 0.84679 0.0
H161 H 0.58409 0.29347 0.85952 0.0
H162 H 0.65994 0.25049 0.96097 0.0
H163 H 0.71939 0.28574 0.89831 0.0
H164 H 0.74997 0.32481 0.91651 0.0
H165 H 0.73087 0.2868 0.94811 0.0
H166 H 0.65554 0.32946 0.98367 0.0
H167 H 0.69725 0.31279 0.99488 0.0
H168 H 0.69881 0.36057 0.98233 0.0
H169 H 0.58982 0.40105 0.75939 0.0
H170 H 0.67101 0.50426 0.76286 0.0
H171 H 0.7012 0.48236 0.81713 0.0
H172 H 0.57918 0.39578 0.85406 0.0
H173 H 0.55882 0.36045 0.8207 0.0
H174 H 0.57556 0.34892 0.86663 0.0
H175 H 0.64859 0.34339 0.77936 0.0
H176 H 0.61998 0.31096 0.81003 0.0
H177 H 0.59827 0.33522 0.77499 0.0
H178 H 0.56012 0.23463 0.89162 0.0
C179 C 0.601 0.28515 0.88165 0.0
C180 C 0.9423 0.82702 0.41472 0.0
C181 C 0.93047 0.84423 0.44752 0.0
C182 C 0.90087 0.82416 0.46984 0.0
C183 C 0.89293 0.77244 0.42582 0.0
C184 C 0.92294 0.79102 0.40434 0.0
C185 C 0.93037 0.768 0.3702 0.0
H186 H 0.88025 0.60743 0.26671 0.0
C187 C 0.87733 0.73666 0.40702 0.0
C188 C 0.89903 0.73345 0.37427 0.0
H189 H 0.97411 0.69783 0.24555 0.0
H190 H 0.95566 0.73122 0.2997 0.0
H191 H 0.886 0.60672 0.36154 0.0
H192 H 0.821 0.66037 0.2847 0.0
H193 H 0.79279 0.64354 0.32437 0.0
H194 H 0.80951 0.61132 0.29312 0.0
H195 H 0.85073 0.58145 0.33043 0.0
H196 H 0.83828 0.5981 0.376 0.0
C197 C 0.96974 0.75879 0.37497 0.0
C198 C 0.92612 0.78988 0.3334 0.0
C199 C 0.75961 0.65728 0.46467 0.0
C200 C 0.7341 0.62545 0.45264 0.0
C201 C 0.74303 0.60742 0.41913 0.0
C202 C 0.77592 0.62149 0.39771 0.0
C203 C 0.80028 0.65425 0.40953 0.0
C204 C 0.79159 0.67146 0.44251 0.0
C205 C 0.81875 0.70708 0.45001 0.0
C206 C 0.84549 0.70868 0.41625 0.0
C207 C 0.83517 0.67745 0.39272 0.0
C208 C 0.83866 0.70294 0.48839 0.0
C209 C 0.79647 0.73893 0.44899 0.0
C210 C 0.89712 0.63421 0.274 0.0
C211 C 0.92913 0.64962 0.25187 0.0
C212 C 0.94944 0.68516 0.26192 0.0
C213 C 0.93881 0.70446 0.29362 0.0
C214 C 0.9072 0.68842 0.31578 0.0
C215 C 0.8867 0.65394 0.30552 0.0
C216 C 0.85311 0.64162 0.33146 0.0
C217 C 0.85762 0.67345 0.35989 0.0
C218 C 0.88942 0.70115 0.35061 0.0
C219 C 0.85689 0.6049 0.35089 0.0
C220 C 0.81705 0.63872 0.30736 0.0
H221 H 0.85976 0.77556 0.47765 0.0
H222 H 0.96534 0.8415 0.39724 0.0
H223 H 0.90096 0.8027 0.33546 0.0
H224 H 0.92184 0.77219 0.30776 0.0
H225 H 0.95109 0.81243 0.32868 0.0
H226 H 0.9743 0.75147 0.40517 0.0
H227 H 0.99216 0.78291 0.36705 0.0
H228 H 0.97354 0.73459 0.35803 0.0
H229 H 0.75478 0.67139 0.49078 0.0
H230 H 0.72415 0.5828 0.40896 0.0
H231 H 0.7809 0.6066 0.37246 0.0
H232 H 0.84271 0.67406 0.49241 0.0
H233 H 0.82187 0.7097 0.51305 0.0
H234 H 0.86732 0.72015 0.48977 0.0
H235 H 0.77151 0.73199 0.43009 0.0
H236 H 0.81293 0.76492 0.43684 0.0
H237 H 0.78616 0.74455 0.4779 0.0
H238 H 0.8919 0.83614 0.4957 0.0
C239 C 0.88221 0.78872 0.45929 0.0
C240 C 0.74515 0.70916 0.942 0.0
C241 C 0.76818 0.68801 0.92347 0.0
C242 C 0.76277 0.68005 0.88428 0.0
C243 C 0.718 0.72023 0.88112 0.0
C244 C 0.71979 0.72459 0.92026 0.0
C245 C 0.694 0.74912 0.93432 0.0
H246 H 0.59172 0.87828 0.89289 0.0
C247 C 0.69463 0.74498 0.86567 0.0
C248 C 0.67909 0.76096 0.89669 0.0
H249 H 0.61149 0.83511 1.00388 0.0
H250 H 0.64326 0.79034 0.97433 0.0
H251 H 0.57414 0.7965 0.84479 0.0
H252 H 0.66523 0.88698 0.86504 0.0
H253 H 0.68069 0.86625 0.82457 0.0
H254 H 0.63856 0.88508 0.82216 0.0
H255 H 0.57876 0.84309 0.82744 0.0
H256 H 0.59789 0.80913 0.80101 0.0
C257 C 0.66246 0.72538 0.95891 0.0
C258 C 0.71793 0.78229 0.95584 0.0
C259 C 0.72154 0.79238 0.73106 0.0
C260 C 0.71614 0.82572 0.71472 0.0
C261 C 0.68658 0.84172 0.72862 0.0
C262 C 0.6666 0.82778 0.76159 0.0
C263 C 0.67734 0.79861 0.7816 0.0
C264 C 0.70319 0.78025 0.76545 0.0
C265 C 0.71409 0.75243 0.79239 0.0
C266 C 0.69189 0.75862 0.82805 0.0
C267 C 0.67059 0.78578 0.82149 0.0
C268 C 0.70074 0.71309 0.77558 0.0
C269 C 0.75723 0.7634 0.79854 0.0
C270 C 0.60193 0.85842 0.91069 0.0
C271 C 0.59879 0.85972 0.95058 0.0
C272 C 0.61356 0.83436 0.973 0.0
C273 C 0.63202 0.80854 0.95583 0.0
C274 C 0.63649 0.80871 0.9159 0.0
C275 C 0.62103 0.83299 0.89403 0.0
C276 C 0.63053 0.83106 0.85236 0.0
C277 C 0.65279 0.80033 0.85253 0.0
C278 C 0.65669 0.78773 0.88989 0.0
C279 C 0.59345 0.81954 0.82994 0.0
C280 C 0.6548 0.86916 0.84015 0.0
H281 H 0.73526 0.68975 0.83319 0.0
H282 H 0.74808 0.71488 0.97229 0.0
H283 H 0.74384 0.79401 0.93925 0.0
H284 H 0.70328 0.80538 0.96024 0.0
H285 H 0.72661 0.77355 0.98421 0.0
H286 H 0.65714 0.69575 0.95024 0.0
H287 H 0.66999 0.72668 0.98966 0.0
H288 H 0.63509 0.73374 0.95536 0.0
H289 H 0.74292 0.77859 0.71982 0.0
H290 H 0.68111 0.86698 0.71616 0.0
H291 H 0.6456 0.84206 0.77183 0.0
H292 H 0.67882 0.7125 0.7534 0.0
H293 H 0.72439 0.70275 0.76207 0.0
H294 H 0.68736 0.69296 0.7976 0.0
H295 H 0.76561 0.79342 0.8053 0.0
H296 H 0.76763 0.74875 0.82214 0.0
H297 H 0.77282 0.75793 0.77248 0.0
H298 H 0.78007 0.66386 0.86931 0.0
C299 C 0.73729 0.69558 0.86318 0.0
C300 C 0.9319 0.2348 0.44521 0.0
C301 C 0.95254 0.21092 0.42741 0.0
C302 C 0.95649 0.21185 0.38733 0.0
C303 C 0.91627 0.25667 0.38331 0.0
C304 C 0.9142 0.25752 0.42266 0.0
C305 C 0.8892 0.28286 0.43658 0.0
H306 H 0.76375 0.38964 0.39357 0.0
C307 C 0.89238 0.28105 0.36799 0.0
C308 C 0.87736 0.29756 0.39898 0.0
H309 H 0.79136 0.35328 0.50502 0.0
H310 H 0.84067 0.32585 0.47703 0.0
H311 H 0.75327 0.33041 0.3553 0.0
H312 H 0.85416 0.40904 0.35714 0.0
H313 H 0.84685 0.39224 0.30993 0.0
H314 H 0.81051 0.41065 0.33396 0.0
H315 H 0.76878 0.35433 0.31232 0.0
H316 H 0.77853 0.30913 0.32215 0.0
C317 C 0.8555 0.25909 0.45854 0.0
C318 C 0.91314 0.31398 0.46068 0.0
C319 C 0.84083 0.26113 0.23485 0.0
C320 C 0.81307 0.27624 0.21641 0.0
C321 C 0.80699 0.31113 0.22811 0.0
C322 C 0.82357 0.32752 0.26154 0.0
C323 C 0.84594 0.30856 0.2833 0.0
C324 C 0.857 0.2778 0.26837 0.0
C325 C 0.8827 0.26272 0.29501 0.0
C326 C 0.88063 0.28651 0.33025 0.0
C327 C 0.85818 0.31262 0.32336 0.0
C328 C 0.86597 0.22122 0.30267 0.0
C329 C 0.92274 0.26992 0.27714 0.0
C330 C 0.78115 0.37661 0.41202 0.0
C331 C 0.77415 0.37388 0.45145 0.0
C332 C 0.79649 0.35575 0.47452 0.0
C333 C 0.82481 0.33967 0.45816 0.0
C334 C 0.82991 0.3407 0.41822 0.0
C335 C 0.80836 0.35923 0.39595 0.0
C336 C 0.815 0.35507 0.35393 0.0
C337 C 0.84374 0.33027 0.3545 0.0
C338 C 0.85275 0.32233 0.39219 0.0
C339 C 0.77721 0.33642 0.33478 0.0
C340 C 0.83238 0.39378 0.33759 0.0
H341 H 0.94208 0.23401 0.33486 0.0
H342 H 0.92861 0.23492 0.47599 0.0
H343 H 0.94074 0.32456 0.44652 0.0
H344 H 0.89992 0.33826 0.46406 0.0
H345 H 0.9187 0.3036 0.48944 0.0
H346 H 0.84886 0.23019 0.44755 0.0
H347 H 0.86162 0.25768 0.48949 0.0
H348 H 0.82913 0.26922 0.45495 0.0
H349 H 0.84683 0.23488 0.22571 0.0
H350 H 0.7871 0.3242 0.21316 0.0
H351 H 0.81675 0.35318 0.2704 0.0
H352 H 0.83576 0.21732 0.3108 0.0
H353 H 0.86819 0.20427 0.27685 0.0
H354 H 0.87997 0.20942 0.32602 0.0
H355 H 0.92577 0.28993 0.25296 0.0
H356 H 0.94449 0.28249 0.298 0.0
H357 H 0.92984 0.24398 0.2659 0.0
H358 H 0.97178 0.19347 0.37286 0.0
C359 C 0.93886 0.23499 0.36526 0.0
C360 C 0.4368 0.66143 0.3515 0.0
C361 C 0.42064 0.62764 0.37001 0.0
C362 C 0.38629 0.60749 0.35547 0.0
C363 C 0.38497 0.65399 0.30604 0.0
C364 C 0.41849 0.67412 0.32005 0.0
C365 C 0.43124 0.70993 0.29805 0.0
H366 H 0.40151 0.82281 0.15068 0.0
C367 C 0.37335 0.67443 0.27275 0.0
C368 C 0.40063 0.70747 0.26792 0.0
H369 H 0.49084 0.84565 0.23337 0.0
H370 H 0.46732 0.78594 0.26365 0.0
H371 H 0.33688 0.79233 0.21075 0.0
H372 H 0.40512 0.74101 0.13612 0.0
H373 H 0.36146 0.71028 0.13742 0.0
H374 H 0.36452 0.75672 0.11931 0.0
H375 H 0.33078 0.78966 0.15994 0.0
H376 H 0.30676 0.75365 0.19132 0.0
C377 C 0.43133 0.74256 0.3258 0.0
C378 C 0.47002 0.70967 0.27982 0.0
C379 C 0.25144 0.62303 0.19878 0.0
C380 C 0.23535 0.63587 0.16583 0.0
C381 C 0.25548 0.66793 0.14747 0.0
C382 C 0.28959 0.68751 0.1618 0.0
C383 C 0.30472 0.67521 0.19507 0.0
C384 C 0.28629 0.64301 0.21265 0.0
C385 C 0.30832 0.63365 0.24672 0.0
C386 C 0.34212 0.66614 0.24713 0.0
C387 C 0.33933 0.69046 0.21687 0.0
C388 C 0.28356 0.63308 0.28289 0.0
C389 C 0.32023 0.59645 0.23836 0.0
C390 C 0.41577 0.81553 0.17576 0.0
C391 C 0.4477 0.83977 0.18994 0.0
C392 C 0.46602 0.82787 0.22179 0.0
C393 C 0.45217 0.79319 0.23952 0.0
C394 C 0.41949 0.76977 0.22542 0.0
C395 C 0.40216 0.78138 0.19388 0.0
C396 C 0.36775 0.75387 0.18235 0.0
C397 C 0.36657 0.72384 0.2123 0.0
C398 C 0.39703 0.73274 0.23762 0.0
C399 C 0.33362 0.77314 0.1859 0.0
C400 C 0.37468 0.73978 0.14163 0.0
H401 H 0.34246 0.60357 0.31478 0.0
H402 H 0.46341 0.67763 0.36092 0.0
H403 H 0.47016 0.68236 0.26637 0.0
H404 H 0.47742 0.73042 0.25688 0.0
H405 H 0.49251 0.71474 0.30168 0.0
H406 H 0.40621 0.73678 0.34489 0.0
H407 H 0.45672 0.74722 0.34412 0.0
H408 H 0.42987 0.76859 0.31093 0.0
H409 H 0.23702 0.59859 0.21387 0.0
H410 H 0.24474 0.67814 0.12166 0.0
H411 H 0.3027 0.71183 0.14635 0.0
H412 H 0.26869 0.65666 0.28252 0.0
H413 H 0.26196 0.60705 0.28457 0.0
H414 H 0.29999 0.63626 0.3095 0.0
H415 H 0.32845 0.59483 0.20783 0.0
H416 H 0.34514 0.59291 0.25468 0.0
H417 H 0.29678 0.57264 0.24434 0.0
H418 H 0.37262 0.58179 0.36893 0.0
C419 C 0.36857 0.62032 0.32391 0.0
C420 C 0.0968 0.26866 0.7078 0.0
C421 C 0.11034 0.24948 0.67734 0.0
C422 C 0.14567 0.26504 0.66118 0.0
C423 C 0.15254 0.31817 0.70329 0.0
C424 C 0.11851 0.30293 0.72036 0.0
C425 C 0.10917 0.3277 0.75213 0.0
H426 H 0.16168 0.48454 0.86041 0.0
C427 C 0.16801 0.35419 0.72176 0.0
C428 C 0.14302 0.36014 0.75079 0.0
H429 H 0.05998 0.40068 0.87007 0.0
H430 H 0.07927 0.36798 0.81631 0.0
H431 H 0.15826 0.48851 0.76548 0.0
H432 H 0.21944 0.42933 0.8409 0.0
H433 H 0.24967 0.45169 0.80464 0.0
H434 H 0.22905 0.47904 0.83805 0.0
H435 H 0.19629 0.51209 0.79446 0.0
H436 H 0.2047 0.49294 0.74859 0.0
C437 C 0.07224 0.34003 0.74177 0.0
C438 C 0.10717 0.30592 0.79009 0.0
C439 C 0.29109 0.4294 0.67056 0.0
C440 C 0.31445 0.46315 0.68085 0.0
C441 C 0.30277 0.4835 0.71125 0.0
C442 C 0.26899 0.46991 0.73149 0.0
C443 C 0.24636 0.43559 0.72121 0.0
C444 C 0.25777 0.41619 0.69105 0.0
C445 C 0.23113 0.38014 0.68389 0.0
C446 C 0.20134 0.38098 0.71431 0.0
C447 C 0.21011 0.41345 0.73634 0.0
C448 C 0.21526 0.3816 0.64299 0.0
C449 C 0.25264 0.34834 0.6908 0.0
C450 C 0.14351 0.4592 0.8509 0.0
C451 C 0.10968 0.4448 0.87071 0.0
C452 C 0.08681 0.41188 0.85665 0.0
C453 C 0.09794 0.39291 0.82509 0.0
C454 C 0.13231 0.4069 0.80653 0.0
C455 C 0.15419 0.43992 0.81908 0.0
C456 C 0.18923 0.45127 0.79487 0.0
C457 C 0.18526 0.41934 0.76652 0.0
C458 C 0.15176 0.39309 0.77354 0.0
C459 C 0.18742 0.48828 0.77485 0.0
C460 C 0.22387 0.45323 0.8208 0.0
H461 H 0.19282 0.30893 0.6595 0.0
H462 H 0.06977 0.25775 0.72093 0.0
H463 H 0.13068 0.29078 0.79178 0.0
H464 H 0.11005 0.32393 0.81548 0.0
H465 H 0.08039 0.28521 0.7924 0.0
H466 H 0.07141 0.34596 0.71066 0.0
H467 H 0.04737 0.31806 0.74885 0.0
H468 H 0.06929 0.36598 0.75607 0.0
H469 H 0.29854 0.41337 0.64685 0.0
H470 H 0.32014 0.50962 0.71984 0.0
H471 H 0.26194 0.48647 0.75459 0.0
H472 H 0.21081 0.40988 0.63619 0.0
H473 H 0.23494 0.37432 0.62122 0.0
H474 H 0.18738 0.36342 0.63929 0.0
H475 H 0.27604 0.35668 0.71138 0.0
H476 H 0.23475 0.32359 0.70401 0.0
H477 H 0.26504 0.34015 0.66384 0.0
H478 H 0.15737 0.25086 0.63842 0.0
C479 C 0.16652 0.29895 0.67372 0.0
Tb480 Tb 0.06047 0.0505 0.54369 0.0
Tb481 Tb 0.97855 1.04038 0.58568 0.0
C482 C 0.99349 0.98687 0.51877 0.0
C483 C 0.15657 0.08827 0.50527 0.0
C484 C 0.21578 0.1453 0.48166 0.0
C485 C 0.22306 0.1112 0.49399 0.0
C486 C 0.19361 0.08285 0.50558 0.0
C487 C 0.14926 0.12284 0.49474 0.0
C488 C 0.17875 0.1512 0.4829 0.0
C489 C 0.12622 0.05776 0.51696 0.0
O490 O 0.02812 0.0802 0.50707 0.0
O491 O 0.98289 0.08915 0.55041 0.0
O492 O 1.0172 0.08222 0.61909 0.0
O493 O 0.06088 0.10297 0.57221 0.0
O494 O 0.92103 1.04046 0.58136 0.0
O495 O 0.94551 1.03013 0.63541 0.0
O496 O 1.00122 0.99248 0.60205 0.0
O497 O 0.06167 1.02333 0.59847 0.0
O498 O 0.02989 0.99638 0.52457 0.0
O499 O 0.9701 1.00567 0.53446 0.0
C500 C 1.00068 0.09655 0.51772 0.0
O501 O 0.11823 0.0565 0.55327 0.0
O502 O 0.09605 0.05154 0.49597 0.0
C503 C 0.04484 0.10774 0.60511 0.0
C504 C 0.88451 0.99732 0.62227 0.0
C505 C 0.82811 0.93467 0.63719 0.0
C506 C 0.82116 0.97037 0.64314 0.0
C507 C 0.84927 1.00153 0.6358 0.0
C508 C 0.89095 0.96178 0.61443 0.0
C509 C 0.86292 0.93059 0.62197 0.0
C510 C 0.91449 1.03002 0.61673 0.0
C511 C 0.03677 0.99446 0.60951 0.0
H512 H 0.25145 0.10622 0.49377 0.0
H513 H 0.19969 0.05649 0.51434 0.0
H514 H 0.1208 0.12763 0.49504 0.0
H515 H 0.17245 0.17723 0.47336 0.0
H516 H 0.79463 0.97409 0.65521 0.0
H517 H 0.84383 1.02884 0.64163 0.0
H518 H 0.91794 0.95816 0.60343 0.0
H519 H 0.86878 0.90329 0.61709 0.0
Tb520 Tb 0.57038 0.04497 0.08254 0.0
Tb521 Tb 0.48955 1.03313 1.03907 0.0
C522 C 0.5483 0.9852 1.01832 0.0
C523 C 0.66015 0.09235 0.12324 0.0
C524 C 0.70982 0.15861 0.14213 0.0
C525 C 0.72063 0.12433 0.14669 0.0
C526 C 0.69592 0.0914 0.13727 0.0
C527 C 0.6495 0.12652 0.1179 0.0
C528 C 0.67422 0.15945 0.12714 0.0
C529 C 0.63449 0.05788 0.11286 0.0
O530 O 0.57219 0.09502 1.04873 0.0
O531 O 0.52879 0.07236 1.00296 0.0
O532 O 0.49612 0.08512 0.06925 0.0
O533 O 0.53466 0.07337 0.11705 0.0
O534 O 0.45591 1.02171 0.99037 0.0
O535 O 0.43247 1.0352 1.04441 0.0
O536 O 0.48052 0.99813 0.09064 0.0
O537 O 0.54062 0.99081 0.10254 0.0
O538 O 0.57444 1.0117 1.0321 0.0
O539 O 0.51252 0.98547 1.02272 0.0
C540 C 0.55656 0.09836 1.01547 0.0
O541 O 0.60312 0.0499 0.13228 0.0
O542 O 0.62887 0.05333 0.07634 0.0
C543 C 0.5111 0.09246 0.10291 0.0
C544 C 0.39242 0.99433 1.00416 0.0
C545 C 0.32836 0.93998 0.98773 0.0
C546 C 0.32474 0.97581 0.99837 0.0
C547 C 0.35657 1.00282 1.00636 0.0
C548 C 0.39602 0.95791 0.99604 0.0
C549 C 0.36414 0.9309 0.98781 0.0
C550 C 0.42542 1.02424 1.00934 0.0
C551 C 0.50406 0.98003 0.1071 0.0
H552 H 0.7478 0.12294 0.15851 0.0
H553 H 0.70461 0.06522 0.14121 0.0
H554 H 0.62201 0.12764 0.10676 0.0
H555 H 0.6654 0.18553 0.12296 0.0
H556 H 0.29739 0.9833 0.999 0.0
H557 H 0.35329 1.03068 1.01314 0.0
H558 H 0.42347 0.95067 0.99479 0.0
H559 H 0.36764 0.90346 0.97956 0.0
Tb560 Tb 0.52161 0.50275 0.54201 0.0
Tb561 Tb 0.52488 0.58052 0.58721 0.0
C562 C 0.48912 0.56789 0.50424 0.0
C563 C 0.5589 0.4277 0.49965 0.0
C564 C 0.63021 0.40978 0.48843 0.0
C565 C 0.61302 0.42597 0.45888 0.0
C566 C 0.57778 0.43488 0.46444 0.0
C567 C 0.57498 0.40914 0.52827 0.0
C568 C 0.61035 0.40039 0.52276 0.0
C569 C 0.52522 0.44347 0.50784 0.0
O570 O 0.57204 0.53942 0.52051 0.0
O571 O 0.58236 0.58556 0.56591 0.0
O572 O 0.54371 0.54367 0.62897 0.0
O573 O 0.56127 0.50122 0.58864 0.0
O574 O 0.53471 0.63873 0.58865 0.0
O575 O 0.5141 0.60634 0.63838 0.0
O576 O 0.46633 0.55123 0.5891 0.0
O577 O 0.47572 0.49221 0.5836 0.0
O578 O 0.48464 0.53171 0.50909 0.0
O579 O 0.50904 0.59088 0.52861 0.0
C580 C 0.59326 0.56877 0.53591 0.0
O581 O 0.51551 0.44482 0.54365 0.0
O582 O 0.52381 0.47433 0.49027 0.0
C583 C 0.56039 0.51557 0.623 0.0
C584 C 0.48705 0.65733 0.62567 0.0
C585 C 0.41946 0.6825 0.63571 0.0
C586 C 0.44455 0.68336 0.66623 0.0
C587 C 0.47821 0.67106 0.66117 0.0
C588 C 0.46222 0.6571 0.59495 0.0
C589 C 0.42885 0.66998 0.59983 0.0
C590 C 0.51926 0.63884 0.62236 0.0
C591 C 0.45516 0.51558 0.59522 0.0
H592 H 0.62708 0.43226 0.43158 0.0
H593 H 0.56593 0.44861 0.44159 0.0
H594 H 0.56088 0.40256 0.55548 0.0
H595 H 0.62269 0.38741 0.54583 0.0
H596 H 0.4377 0.69289 0.69417 0.0
H597 H 0.49666 0.67093 0.68535 0.0
H598 H 0.46788 0.64566 0.56761 0.0
H599 H 0.40966 0.66868 0.57608 0.0
Tb600 Tb 0.02396 0.58206 1.04038 0.0
Tb601 Tb 1.01939 0.50665 0.08897 0.0
C602 C 0.05548 0.51591 1.00576 0.0
C603 C 0.98451 0.65206 0.99221 0.0
C604 C 0.91202 0.66377 0.97513 0.0
C605 C 0.93385 0.65094 0.94688 0.0
C606 C 0.9698 0.6453 0.95527 0.0
C607 C 0.96334 0.66676 1.01993 0.0
C608 C 0.92748 0.67271 1.01138 0.0
C609 C 1.01908 0.63901 1.00277 0.0
O610 O 0.9757 0.54258 1.01869 0.0
O611 O 0.96139 0.50479 0.07078 0.0
O612 O 1.00284 0.54534 0.12979 0.0
O613 O 0.98477 0.58577 0.08762 0.0
O614 O 1.00504 0.44855 0.09221 0.0
O615 O 0.0324 0.48069 0.13912 0.0
O616 O 0.07838 0.53513 0.09028 0.0
O617 O 0.07108 0.59438 0.07987 0.0
O618 O 0.0617 0.55221 1.0096 0.0
O619 O 0.03377 0.49444 1.03032 0.0
C620 C 0.95197 0.51734 1.03775 0.0
O621 O 0.02734 0.63969 1.03898 0.0
O622 O 0.02303 0.60799 0.98704 0.0
C623 C 0.98604 0.57301 0.12265 0.0
C624 C 0.0538 0.42707 0.12303 0.0
C625 C 0.11671 0.39302 0.12405 0.0
C626 C 0.08924 0.38597 0.15325 0.0
C627 C 0.05796 0.40275 0.15264 0.0
C628 C 0.08088 0.43391 0.09372 0.0
C629 C 0.11158 0.41648 0.09375 0.0
C630 C 0.0233 0.44786 0.12404 0.0
C631 C 0.09075 0.57103 0.09339 0.0
H632 H 0.92285 0.64476 0.91839 0.0
H633 H 0.98548 0.63419 0.93327 0.0
H634 H 0.97378 0.67237 1.04869 0.0
H635 H 0.91127 0.68301 1.03348 0.0
H636 H 0.0925 0.36837 0.17725 0.0
H637 H 0.03764 0.3976 0.17581 0.0
H638 H 0.07871 0.45348 0.07123 0.0
H639 H 0.13153 0.42187 0.0703 0.0
C640 C 0.27737 0.23784 0.45478 0.0
C641 C 0.29735 0.22859 0.42285 0.0
C642 C 0.25203 0.21056 0.47488 0.0
C643 C 0.24598 0.17317 0.46375 0.0
H644 H 0.28026 0.26652 0.46332 0.0
H645 H 0.23627 0.21887 0.49857 0.0
S646 S 0.2904 0.13447 0.38176 0.0
N647 N 0.30882 0.17919 0.38096 0.0
N648 N 0.26174 0.12825 0.419 0.0
C649 C 0.26663 0.1634 0.43274 0.0
C650 C 0.29221 0.19102 0.41224 0.0
C651 C 0.26021 0.85031 0.96498 0.0
C652 C 0.24164 0.86003 0.93249 0.0
C653 C 0.28704 0.87669 0.98413 0.0
C654 C 0.29595 0.9137 0.9716 0.0
H655 H 0.25519 0.82179 0.97459 0.0
H656 H 0.30184 0.86786 1.00807 0.0
S657 S 0.25561 0.95353 0.8882 0.0
N658 N 0.23424 0.90959 0.88891 0.0
N659 N 0.28396 0.95892 0.92529 0.0
C660 C 0.27647 0.92413 0.94028 0.0
C661 C 0.24944 0.89737 0.92066 0.0
C662 C 0.60124 0.50448 0.72277 0.0
C663 C 0.61027 0.46898 0.72196 0.0
C664 C 0.5853 0.51913 0.69097 0.0
C665 C 0.57817 0.4994 0.6563 0.0
H666 H 0.60624 0.52106 0.74847 0.0
H667 H 0.57875 0.54641 0.69361 0.0
S668 S 0.59768 0.40553 0.6386 0.0
N669 N 0.61124 0.41468 0.6831 0.0
N670 N 0.58201 0.44205 0.62354 0.0
C671 C 0.58742 0.46394 0.65503 0.0
C672 C 0.60315 0.44882 0.68767 0.0
C673 C 0.95054 0.64628 0.18294 0.0
C674 C 0.94175 0.62887 0.2187 0.0
C675 C 0.96361 0.62776 0.15188 0.0
C676 C 0.96925 0.5911 0.15524 0.0
H677 H 0.94725 0.67458 0.17887 0.0
H678 H 0.97024 0.64272 0.12526 0.0
S679 S 0.95027 0.5328 0.24267 0.0
N680 N 0.93932 0.57247 0.25531 0.0
N681 N 0.96408 0.53795 0.19761 0.0
C682 C 0.96024 0.57328 0.19081 0.0
C683 C 0.94646 0.592 0.22223 0.0
C684 C 0.48268 0.15072 0.18268 0.0
C685 C 0.47765 0.18297 0.16334 0.0
C686 C 0.49524 0.12209 0.16338 0.0
C687 C 0.50233 0.12434 0.12393 0.0
H688 H 0.47543 0.1468 0.21266 0.0
H689 H 0.49765 0.09734 0.17905 0.0
S690 S 0.4989 0.20455 1.06096 0.0
N691 N 0.48584 0.21718 0.10336 0.0
N692 N 0.50672 0.16232 0.06667 0.0
C693 C 0.49892 0.15688 0.10452 0.0
C694 C 0.48723 0.18644 0.12432 0.0
C695 C 0.03467 0.90621 0.66677 0.0
C696 C 0.07252 0.90271 0.66615 0.0
C697 C 0.02321 0.93585 0.64826 0.0
C698 C 0.04934 0.9634 0.62909 0.0
H699 H 1.0138 0.88595 0.68177 0.0
H700 H 0.99375 0.93738 0.64943 0.0
S701 S 0.15203 0.96685 0.61962 0.0
N702 N 0.13612 0.92922 0.64509 0.0
N703 N 0.11491 0.98471 0.61032 0.0
C704 C 0.08731 0.96001 0.62822 0.0
C705 C 0.09881 0.92972 0.64672 0.0
C706 C 0.87558 0.48929 0.96216 0.0
C707 C 0.84499 0.46897 0.98302 0.0
C708 C 0.90955 0.5054 0.98024 0.0
C709 C 0.91463 0.50176 1.01998 0.0
H710 H 0.87383 0.49158 0.93141 0.0
H711 H 0.93245 0.51989 0.96256 0.0
S712 S 0.84131 0.45626 0.0885 0.0
N713 N 0.82063 0.45008 1.04647 0.0
N714 N 0.88448 0.47934 0.07998 0.0
C715 C 0.88368 0.48301 1.04138 0.0
C716 C 0.84896 0.46697 1.02307 0.0
C717 C 0.68485 0.5733 0.48032 0.0
C718 C 0.69829 0.6116 0.47471 0.0
C719 C 0.65133 0.55977 0.50073 0.0
C720 C 0.63011 0.5839 0.51712 0.0
H721 H 0.7004 0.55352 0.46899 0.0
H722 H 0.642 0.53006 0.50377 0.0
S723 S 0.6506 0.68622 0.50841 0.0
N724 N 0.68546 0.67326 0.48516 0.0
N725 N 0.62388 0.64774 0.52494 0.0
C726 C 0.64307 0.62213 0.5119 0.0
C727 C 0.67672 0.63597 0.4904 0.0
C728 C 0.18109 0.32655 0.14668 0.0
C729 C 0.21707 0.34857 0.14131 0.0
C730 C 0.14877 0.34054 0.13913 0.0
C731 C 0.15131 0.37727 0.12652 0.0
H732 H 0.17796 0.29882 0.15824 0.0
H733 H 0.12158 0.32279 0.14435 0.0
S734 S 0.23985 0.44556 0.10736 0.0
N735 N 0.25395 0.40789 0.12145 0.0
N736 N 0.19346 0.43489 0.10799 0.0
C737 C 0.18744 0.39902 0.11965 0.0
C738 C 0.22028 0.38451 0.12698 0.0
C739 C 0.57477 0.16974 0.93348 0.0
C740 C 0.59234 0.20274 0.95193 0.0
C741 C 0.56291 0.1362 0.95395 0.0
C742 C 0.56857 0.13404 0.99369 0.0
H743 H 0.57087 0.16957 0.90283 0.0
H744 H 0.54992 0.11162 0.93835 0.0
S745 S 0.60872 0.21338 1.05653 0.0
N746 N 0.61056 0.23157 1.01333 0.0
N747 N 0.59063 0.16896 1.05094 0.0
C748 C 0.58521 0.16708 1.01252 0.0
C749 C 0.59641 0.2012 0.99196 0.0
C750 C 0.98617 0.89322 0.46813 0.0
C751 C 0.94768 0.88293 0.45954 0.0
C752 C 1.00104 0.92735 0.48603 0.0
C753 C 0.97802 0.95261 0.4961 0.0
H754 H 1.00458 0.87404 0.46266 0.0
H755 H 0.03059 0.9333 0.49325 0.0
S756 S 0.87601 0.94042 0.47527 0.0
N757 N 0.88758 0.90215 0.45912 0.0
N758 N 0.91504 0.96566 0.49263 0.0
C759 C 0.93981 0.94326 0.48574 0.0
C760 C 0.92483 0.90869 0.46752 0.0
C761 C 0.32342 0.68243 0.67803 0.0
C762 C 0.31296 0.7132 0.66049 0.0
C763 C 0.35762 0.67236 0.66926 0.0
C764 C 0.38245 0.69233 0.64224 0.0
H765 H 0.30544 0.66658 0.69955 0.0
H766 H 0.36498 0.64905 0.68411 0.0
S767 S 0.36823 0.77402 0.58702 0.0
N768 N 0.33018 0.76307 0.61412 0.0
N769 N 0.39409 0.74317 0.59683 0.0
C770 C 0.37183 0.72206 0.62319 0.0
C771 C 0.33712 0.73269 0.63245 0.0
C772 C 0.73589 0.86897 0.65936 0.0
C773 C 0.74571 0.84793 0.68985 0.0
C774 C 0.76302 0.89585 0.64082 0.0
C775 C 0.80094 0.9022 0.65181 0.0
H776 H 0.70679 0.86574 0.65086 0.0
H777 H 0.75414 0.91266 0.61867 0.0
S778 S 0.84169 0.85491 0.72951 0.0
N779 N 0.79655 0.83573 0.72997 0.0
N780 N 0.84726 0.8852 0.69419 0.0
C781 C 0.81149 0.8803 0.6809 0.0
C782 C 0.78396 0.85337 0.70012 0.0
C783 C 0.79817 0.22989 0.16347 0.0
C784 C 0.78567 0.25205 0.19148 0.0
C785 C 0.77309 0.20078 0.146 0.0
C786 C 0.7347 0.19292 0.15591 0.0
H787 H 0.82778 0.234 0.15631 0.0
H788 H 0.78404 0.18346 0.12563 0.0
S789 S 0.68761 0.243 0.227 0.0
N790 N 0.73208 0.26453 0.22764 0.0
N791 N 0.68517 0.21012 0.1946 0.0
C792 C 0.72153 0.21596 0.18245 0.0
C793 C 0.74698 0.24549 0.20027 0.0
C794 C 0.43865 0.57493 0.40844 0.0
C795 C 0.43882 0.61317 0.40432 0.0
C796 C 0.45457 0.56058 0.44052 0.0
C797 C 0.47176 0.58366 0.47029 0.0
H798 H 0.42634 0.55572 0.38643 0.0
H799 H 0.45358 0.53105 0.44176 0.0
S800 S 0.47845 0.68576 0.47486 0.0
N801 N 0.45643 0.67354 0.43436 0.0
N802 N 0.48726 0.64723 0.49329 0.0
C803 C 0.47213 0.622 0.46653 0.0
C804 C 0.45559 0.63652 0.43405 0.0
C805 C 0.10023 0.5019 0.90786 0.0
C806 C 0.09812 0.46324 0.90614 0.0
C807 C 0.08728 0.51893 0.94021 0.0
C808 C 0.07152 0.49808 0.97235 0.0
H809 H 0.11111 0.5191 0.88361 0.0
H810 H 0.08888 0.54857 0.93959 0.0
S811 S 0.06354 0.39637 0.98413 0.0
N812 N 0.08235 0.40531 0.94128 0.0
N813 N 0.05697 0.43646 1.0007 0.0
C814 C 0.07035 0.45952 0.97126 0.0
C815 C 0.08386 0.44238 0.93866 0.0
C816 C 0.60719 0.91446 0.99357 0.0
C817 C 0.58407 0.8902 0.96868 0.0
C818 C 0.59549 0.94535 1.00887 0.0
C819 C 0.55997 0.95293 1.00027 0.0
H820 H 0.63493 0.90997 1.00063 0.0
H821 H 0.6144 0.9632 1.02793 0.0
S822 S 0.48848 0.89702 0.93719 0.0
N823 N 0.524 0.87523 0.93628 0.0
N824 N 0.50149 0.93306 0.96559 0.0
C825 C 0.5363 0.9285 0.97579 0.0
C826 C 0.54851 0.89724 0.95979 0.0
C827 C 0.94213 0.16104 0.4767 0.0
C828 C 0.96646 0.18254 0.45021 0.0
C829 C 0.95349 0.13314 0.49786 0.0
C830 C 0.98963 0.12534 0.49332 0.0
H831 H 0.91375 0.16542 0.48077 0.0
H832 H 0.93353 0.11735 0.5178 0.0
S833 S 0.06481 0.17477 0.4289 0.0
N834 N 0.0289 0.19509 0.42143 0.0
N835 N 0.05019 0.14209 0.461 0.0
C836 C 1.01437 0.14657 0.46691 0.0
C837 C 1.00281 0.17528 0.44542 0.0
C838 C 0.17285 0.63973 0.13688 0.0
C839 C 0.19759 0.61755 0.15012 0.0
C840 C 0.1389 0.62444 0.11867 0.0
C841 C 0.12748 0.58599 0.1129 0.0
H842 H 0.17984 0.66951 0.14042 0.0
H843 H 0.12147 0.6432 0.10904 0.0
S844 S 0.18065 0.515 0.1439 0.0
N845 N 0.20749 0.55465 0.15697 0.0
N846 N 0.14331 0.52571 0.12369 0.0
C847 C 0.15133 0.5632 0.12697 0.0
C848 C 0.18626 0.57894 0.1454 0.0
C849 C 0.36102 0.51319 0.64654 0.0
C850 C 0.35092 0.47647 0.66 0.0
C851 C 0.39443 0.52549 0.62541 0.0
C852 C 0.41924 0.50162 0.61678 0.0
H853 H 0.34266 0.53245 0.65183 0.0
H854 H 0.4007 0.55398 0.61566 0.0
S855 S 0.40736 0.40361 0.64846 0.0
N856 N 0.3698 0.4171 0.66534 0.0
N857 N 0.43184 0.43974 0.62548 0.0
C858 C 0.40968 0.46498 0.63073 0.0
C859 C 0.37582 0.45257 0.65232 0.0
C860 C 0.82721 0.70745 0.96068 0.0
C861 C 0.8014 0.67896 0.94282 0.0
C862 C 0.86248 0.70192 0.97245 0.0
C863 C 0.87318 0.66778 0.96658 0.0
H864 H 0.82099 0.73485 0.96366 0.0
H865 H 0.88216 0.72502 0.98456 0.0
S866 S 0.81356 0.58255 0.92715 0.0
N867 N 0.78722 0.61411 0.92421 0.0
N868 N 0.85365 0.60378 0.94619 0.0
C869 C 0.84678 0.6384 0.95102 0.0
C870 C 0.81085 0.64397 0.93918 0.0
C871 C 0.50028 0.88936 0.16282 0.0
C872 C 0.46175 0.87687 0.17105 0.0
C873 C 0.51361 0.92279 0.14287 0.0
C874 C 0.48912 0.94555 0.13016 0.0
H875 H 0.5203 0.87265 0.17094 0.0
H876 H 0.54344 0.93044 0.13677 0.0
S877 S 0.38591 0.92733 0.14751 0.0
N878 N 0.39958 0.89164 0.16727 0.0
N879 N 0.4243 0.95365 0.1295 0.0
C880 C 0.45061 0.93385 0.13915 0.0
C881 C 0.43708 0.89986 0.15956 0.0
C882 C 0.0876 0.2097 0.62057 0.0
C883 C 0.08859 0.21402 0.66062 0.0
C884 C 0.07276 0.17558 0.60334 0.0
C885 C 0.05749 0.14395 0.62514 0.0
H886 H 0.09929 0.23286 0.60216 0.0
H887 H 0.07363 0.17397 0.57244 0.0
S888 S 0.05078 0.14029 0.73099 0.0
N889 N 0.07147 0.1836 0.72167 0.0
N890 N 0.04247 0.11959 0.68914 0.0
C891 C 0.05645 0.14808 0.66516 0.0
C892 C 0.07214 0.183 0.68288 0.0
C893 C 0.71169 0.3594 0.48421 0.0
C894 C 0.74041 0.38569 0.46689 0.0
C895 C 0.67643 0.36774 0.49226 0.0
C896 C 0.66875 0.40267 0.48326 0.0
H897 H 0.71581 0.33157 0.48968 0.0
H898 H 0.65456 0.34618 0.50405 0.0
S899 S 0.73659 0.48282 0.44317 0.0
N900 N 0.76029 0.44904 0.4446 0.0
N901 N 0.69433 0.46509 0.46041 0.0
C902 C 0.69807 0.42988 0.46813 0.0
C903 C 0.73382 0.4213 0.45978 0.0
loop_
_geom_bond_atom_site_label_1
_geom_bond_atom_site_label_2
_geom_bond_distance
_geom_bond_site_symmetry_2
_ccdc_geom_bond_type
C0 C1 1.391 . S
C0 C4 1.391 . S
C0 H42 0.948 . S
C1 C0 1.391 . S
C1 C2 1.391 . S
C2 C1 1.391 . S
C2 H58 0.947 . S
C2 C59 1.392 . S
C3 C4 1.391 . S
C3 C7 1.397 . S
C3 C59 1.419 . S
C4 C0 1.391 . S
C4 C3 1.391 . S
C4 C5 1.399 . S
C5 C4 1.399 . S
C5 C8 1.396 . S
C5 C17 1.453 . S
C5 C18 1.684 . S
H6 C30 0.948 . S
C7 C3 1.397 . S
C7 C8 1.394 . S
C7 C26 1.723 . S
C8 C5 1.396 . S
C8 C7 1.394 . S
C8 C38 1.723 . S
H9 C32 0.947 . S
H10 C33 0.948 . S
H11 C39 0.982 . S
H12 C40 0.979 . S
H13 C40 0.980 . S
H14 C40 0.983 . S
H15 C39 0.979 . S
H16 C39 0.977 . S
C17 C5 1.453 . S
C17 H46 0.982 . S
C17 H47 0.979 . S
C17 H48 0.977 . S
C18 C5 1.684 . S
C18 H43 0.979 . S
C18 H44 0.980 . S
C18 H45 0.983 . S
C19 C20 1.391 . S
C19 C24 1.391 . S
C19 H49 0.948 . S
C20 C19 1.391 . S
C20 C21 1.391 . S
C21 C20 1.391 . S
C21 C22 1.392 . S
C21 H50 0.947 . S
C22 C21 1.392 . S
C22 C23 1.419 . S
C22 H51 0.948 . S
C23 C22 1.419 . S
C23 C24 1.391 . S
C23 C27 1.397 . S
C24 C19 1.391 . S
C24 C23 1.391 . S
C24 C25 1.399 . S
C25 C24 1.399 . S
C25 C26 1.396 . S
C25 C28 1.453 . S
C25 C29 1.684 . S
C26 C7 1.723 . S
C26 C25 1.396 . S
C26 C27 1.394 . S
C27 C23 1.397 . S
C27 C26 1.394 . S
C27 C37 1.723 . S
C28 C25 1.453 . S
C28 H52 0.982 . S
C28 H53 0.979 . S
C28 H54 0.977 . S
C29 C25 1.684 . S
C29 H55 0.979 . S
C29 H56 0.980 . S
C29 H57 0.983 . S
C30 H6 0.948 . S
C30 C31 1.391 . S
C30 C35 1.391 . S
C31 C30 1.391 . S
C31 C32 1.391 . S
C32 H9 0.947 . S
C32 C31 1.391 . S
C32 C33 1.392 . S
C33 H10 0.948 . S
C33 C32 1.392 . S
C33 C34 1.419 . S
C34 C33 1.419 . S
C34 C35 1.391 . S
C34 C38 1.397 . S
C35 C30 1.391 . S
C35 C34 1.391 . S
C35 C36 1.399 . S
C36 C35 1.399 . S
C36 C37 1.396 . S
C36 C39 1.453 . S
C36 C40 1.684 . S
C37 C27 1.723 . S
C37 C36 1.396 . S
C37 C38 1.394 . S
C38 C8 1.723 . S
C38 C34 1.397 . S
C38 C37 1.394 . S
C39 H11 0.982 . S
C39 H15 0.979 . S
C39 H16 0.977 . S
C39 C36 1.453 . S
C40 H12 0.979 . S
C40 H13 0.980 . S
C40 H14 0.983 . S
C40 C36 1.684 . S
H41 C59 0.948 . S
H42 C0 0.948 . S
H43 C18 0.979 . S
H44 C18 0.980 . S
H45 C18 0.983 . S
H46 C17 0.982 . S
H47 C17 0.979 . S
H48 C17 0.977 . S
H49 C19 0.948 . S
H50 C21 0.947 . S
H51 C22 0.948 . S
H52 C28 0.982 . S
H53 C28 0.979 . S
H54 C28 0.977 . S
H55 C29 0.979 . S
H56 C29 0.980 . S
H57 C29 0.983 . S
H58 C2 0.947 . S
C59 C2 1.392 . S
C59 C3 1.419 . S
C59 H41 0.948 . S
C60 C61 1.391 . S
C60 C64 1.391 . S
C60 H102 0.948 . S
C61 C60 1.391 . S
C61 C62 1.391 . S
C62 C61 1.391 . S
C62 H118 0.947 . S
C62 C119 1.392 . S
C63 C64 1.391 . S
C63 C67 1.397 . S
C63 C119 1.419 . S
C64 C60 1.391 . S
C64 C63 1.391 . S
C64 C65 1.399 . S
C65 C64 1.399 . S
C65 C68 1.396 . S
C65 C77 1.453 . S
C65 C78 1.684 . S
H66 C90 0.948 . S
C67 C63 1.397 . S
C67 C68 1.394 . S
C67 C86 1.723 . S
C68 C65 1.396 . S
C68 C67 1.394 . S
C68 C98 1.723 . S
H69 C92 0.947 . S
H70 C93 0.948 . S
H71 C99 0.982 . S
H72 C100 0.979 . S
H73 C100 0.980 . S
H74 C100 0.983 . S
H75 C99 0.979 . S
H76 C99 0.977 . S
C77 C65 1.453 . S
C77 H106 0.982 . S
C77 H107 0.979 . S
C77 H108 0.977 . S
C78 C65 1.684 . S
C78 H103 0.979 . S
C78 H104 0.980 . S
C78 H105 0.983 . S
C79 C80 1.391 . S
C79 C84 1.391 . S
C79 H109 0.948 . S
C80 C79 1.391 . S
C80 C81 1.391 . S
C81 C80 1.391 . S
C81 C82 1.392 . S
C81 H110 0.947 . S
C82 C81 1.392 . S
C82 C83 1.419 . S
C82 H111 0.948 . S
C83 C82 1.419 . S
C83 C84 1.391 . S
C83 C87 1.397 . S
C84 C79 1.391 . S
C84 C83 1.391 . S
C84 C85 1.399 . S
C85 C84 1.399 . S
C85 C86 1.396 . S
C85 C88 1.453 . S
C85 C89 1.684 . S
C86 C67 1.723 . S
C86 C85 1.396 . S
C86 C87 1.394 . S
C87 C83 1.397 . S
C87 C86 1.394 . S
C87 C97 1.723 . S
C88 C85 1.453 . S
C88 H112 0.982 . S
C88 H113 0.979 . S
C88 H114 0.977 . S
C89 C85 1.684 . S
C89 H115 0.979 . S
C89 H116 0.980 . S
C89 H117 0.983 . S
C90 H66 0.948 . S
C90 C91 1.391 . S
C90 C95 1.391 . S
C91 C90 1.391 . S
C91 C92 1.391 . S
C92 H69 0.947 . S
C92 C91 1.391 . S
C92 C93 1.392 . S
C93 H70 0.948 . S
C93 C92 1.392 . S
C93 C94 1.419 . S
C94 C93 1.419 . S
C94 C95 1.391 . S
C94 C98 1.397 . S
C95 C90 1.391 . S
C95 C94 1.391 . S
C95 C96 1.399 . S
C96 C95 1.399 . S
C96 C97 1.396 . S
C96 C99 1.453 . S
C96 C100 1.684 . S
C97 C87 1.723 . S
C97 C96 1.396 . S
C97 C98 1.394 . S
C98 C68 1.723 . S
C98 C94 1.397 . S
C98 C97 1.394 . S
C99 H71 0.982 . S
C99 H75 0.979 . S
C99 H76 0.977 . S
C99 C96 1.453 . S
C100 H72 0.979 . S
C100 H73 0.980 . S
C100 H74 0.983 . S
C100 C96 1.684 . S
H101 C119 0.948 . S
H102 C60 0.948 . S
H103 C78 0.979 . S
H104 C78 0.980 . S
H105 C78 0.983 . S
H106 C77 0.982 . S
H107 C77 0.979 . S
H108 C77 0.977 . S
H109 C79 0.948 . S
H110 C81 0.947 . S
H111 C82 0.948 . S
H112 C88 0.982 . S
H113 C88 0.979 . S
H114 C88 0.977 . S
H115 C89 0.979 . S
H116 C89 0.980 . S
H117 C89 0.983 . S
H118 C62 0.947 . S
C119 C62 1.392 . S
C119 C63 1.419 . S
C119 H101 0.948 . S
C120 C121 1.391 . S
C120 C124 1.391 . S
C120 H162 0.948 . S
C121 C120 1.391 . S
C121 C122 1.391 . S
C122 C121 1.391 . S
C122 H178 0.947 . S
C122 C179 1.392 . S
C123 C124 1.391 . S
C123 C127 1.397 . S
C123 C179 1.419 . S
C124 C120 1.391 . S
C124 C123 1.391 . S
C124 C125 1.399 . S
C125 C124 1.399 . S
C125 C128 1.396 . S
C125 C137 1.453 . S
C125 C138 1.684 . S
H126 C150 0.948 . S
C127 C123 1.397 . S
C127 C128 1.394 . S
C127 C146 1.723 . S
C128 C125 1.396 . S
C128 C127 1.394 . S
C128 C158 1.723 . S
H129 C152 0.947 . S
H130 C153 0.948 . S
H131 C159 0.982 . S
H132 C160 0.979 . S
H133 C160 0.980 . S
H134 C160 0.983 . S
H135 C159 0.979 . S
H136 C159 0.977 . S
C137 C125 1.453 . S
C137 H166 0.982 . S
C137 H167 0.979 . S
C137 H168 0.977 . S
C138 C125 1.684 . S
C138 H163 0.979 . S
C138 H164 0.980 . S
C138 H165 0.983 . S
C139 C140 1.391 . S
C139 C144 1.391 . S
C139 H169 0.948 . S
C140 C139 1.391 . S
C140 C141 1.391 . S
C141 C140 1.391 . S
C141 C142 1.392 . S
C141 H170 0.947 . S
C142 C141 1.392 . S
C142 C143 1.419 . S
C142 H171 0.948 . S
C143 C142 1.419 . S
C143 C144 1.391 . S
C143 C147 1.397 . S
C144 C139 1.391 . S
C144 C143 1.391 . S
C144 C145 1.399 . S
C145 C144 1.399 . S
C145 C146 1.396 . S
C145 C148 1.453 . S
C145 C149 1.684 . S
C146 C127 1.723 . S
C146 C145 1.396 . S
C146 C147 1.394 . S
C147 C143 1.397 . S
C147 C146 1.394 . S
C147 C157 1.723 . S
C148 C145 1.453 . S
C148 H172 0.982 . S
C148 H173 0.979 . S
C148 H174 0.977 . S
C149 C145 1.684 . S
C149 H175 0.979 . S
C149 H176 0.980 . S
C149 H177 0.983 . S
C150 H126 0.948 . S
C150 C151 1.391 . S
C150 C155 1.391 . S
C151 C150 1.391 . S
C151 C152 1.391 . S
C152 H129 0.947 . S
C152 C151 1.391 . S
C152 C153 1.392 . S
C153 H130 0.948 . S
C153 C152 1.392 . S
C153 C154 1.419 . S
C154 C153 1.419 . S
C154 C155 1.391 . S
C154 C158 1.397 . S
C155 C150 1.391 . S
C155 C154 1.391 . S
C155 C156 1.399 . S
C156 C155 1.399 . S
C156 C157 1.396 . S
C156 C159 1.453 . S
C156 C160 1.684 . S
C157 C147 1.723 . S
C157 C156 1.396 . S
C157 C158 1.394 . S
C158 C128 1.723 . S
C158 C154 1.397 . S
C158 C157 1.394 . S
C159 H131 0.982 . S
C159 H135 0.979 . S
C159 H136 0.977 . S
C159 C156 1.453 . S
C160 H132 0.979 . S
C160 H133 0.980 . S
C160 H134 0.983 . S
C160 C156 1.684 . S
H161 C179 0.948 . S
H162 C120 0.948 . S
H163 C138 0.979 . S
H164 C138 0.980 . S
H165 C138 0.983 . S
H166 C137 0.982 . S
H167 C137 0.979 . S
H168 C137 0.977 . S
H169 C139 0.948 . S
H170 C141 0.947 . S
H171 C142 0.948 . S
H172 C148 0.982 . S
H173 C148 0.979 . S
H174 C148 0.977 . S
H175 C149 0.979 . S
H176 C149 0.980 . S
H177 C149 0.983 . S
H178 C122 0.947 . S
C179 C122 1.392 . S
C179 C123 1.419 . S
C179 H161 0.948 . S
C180 C181 1.391 . S
C180 C184 1.391 . S
C180 H222 0.948 . S
C181 C180 1.391 . S
C181 C182 1.391 . S
C182 C181 1.391 . S
C182 H238 0.947 . S
C182 C239 1.392 . S
C183 C184 1.391 . S
C183 C187 1.397 . S
C183 C239 1.419 . S
C184 C180 1.391 . S
C184 C183 1.391 . S
C184 C185 1.399 . S
C185 C184 1.399 . S
C185 C188 1.396 . S
C185 C197 1.453 . S
C185 C198 1.684 . S
H186 C210 0.948 . S
C187 C183 1.397 . S
C187 C188 1.394 . S
C187 C206 1.723 . S
C188 C185 1.396 . S
C188 C187 1.394 . S
C188 C218 1.723 . S
H189 C212 0.947 . S
H190 C213 0.948 . S
H191 C219 0.982 . S
H192 C220 0.979 . S
H193 C220 0.980 . S
H194 C220 0.983 . S
H195 C219 0.979 . S
H196 C219 0.977 . S
C197 C185 1.453 . S
C197 H226 0.982 . S
C197 H227 0.979 . S
C197 H228 0.977 . S
C198 C185 1.684 . S
C198 H223 0.979 . S
C198 H224 0.980 . S
C198 H225 0.983 . S
C199 C200 1.391 . S
C199 C204 1.391 . S
C199 H229 0.948 . S
C200 C199 1.391 . S
C200 C201 1.391 . S
C201 C200 1.391 . S
C201 C202 1.392 . S
C201 H230 0.947 . S
C202 C201 1.392 . S
C202 C203 1.419 . S
C202 H231 0.948 . S
C203 C202 1.419 . S
C203 C204 1.391 . S
C203 C207 1.397 . S
C204 C199 1.391 . S
C204 C203 1.391 . S
C204 C205 1.399 . S
C205 C204 1.399 . S
C205 C206 1.396 . S
C205 C208 1.453 . S
C205 C209 1.684 . S
C206 C187 1.723 . S
C206 C205 1.396 . S
C206 C207 1.394 . S
C207 C203 1.397 . S
C207 C206 1.394 . S
C207 C217 1.723 . S
C208 C205 1.453 . S
C208 H232 0.982 . S
C208 H233 0.979 . S
C208 H234 0.977 . S
C209 C205 1.684 . S
C209 H235 0.979 . S
C209 H236 0.980 . S
C209 H237 0.983 . S
C210 H186 0.948 . S
C210 C211 1.391 . S
C210 C215 1.391 . S
C211 C210 1.391 . S
C211 C212 1.391 . S
C212 H189 0.947 . S
C212 C211 1.391 . S
C212 C213 1.392 . S
C213 H190 0.948 . S
C213 C212 1.392 . S
C213 C214 1.419 . S
C214 C213 1.419 . S
C214 C215 1.391 . S
C214 C218 1.397 . S
C215 C210 1.391 . S
C215 C214 1.391 . S
C215 C216 1.399 . S
C216 C215 1.399 . S
C216 C217 1.396 . S
C216 C219 1.453 . S
C216 C220 1.684 . S
C217 C207 1.723 . S
C217 C216 1.396 . S
C217 C218 1.394 . S
C218 C188 1.723 . S
C218 C214 1.397 . S
C218 C217 1.394 . S
C219 H191 0.982 . S
C219 H195 0.979 . S
C219 H196 0.977 . S
C219 C216 1.453 . S
C220 H192 0.979 . S
C220 H193 0.980 . S
C220 H194 0.983 . S
C220 C216 1.684 . S
H221 C239 0.948 . S
H222 C180 0.948 . S
H223 C198 0.979 . S
H224 C198 0.980 . S
H225 C198 0.983 . S
H226 C197 0.982 . S
H227 C197 0.979 . S
H228 C197 0.977 . S
H229 C199 0.948 . S
H230 C201 0.947 . S
H231 C202 0.948 . S
H232 C208 0.982 . S
H233 C208 0.979 . S
H234 C208 0.977 . S
H235 C209 0.979 . S
H236 C209 0.980 . S
H237 C209 0.983 . S
H238 C182 0.947 . S
C239 C182 1.392 . S
C239 C183 1.419 . S
C239 H221 0.948 . S
C240 C241 1.391 . S
C240 C244 1.391 . S
C240 H282 0.948 . S
C241 C240 1.391 . S
C241 C242 1.391 . S
C242 C241 1.391 . S
C242 H298 0.947 . S
C242 C299 1.392 . S
C243 C244 1.391 . S
C243 C247 1.397 . S
C243 C299 1.419 . S
C244 C240 1.391 . S
C244 C243 1.391 . S
C244 C245 1.399 . S
C245 C244 1.399 . S
C245 C248 1.396 . S
C245 C257 1.453 . S
C245 C258 1.684 . S
H246 C270 0.948 . S
C247 C243 1.397 . S
C247 C248 1.394 . S
C247 C266 1.723 . S
C248 C245 1.396 . S
C248 C247 1.394 . S
C248 C278 1.723 . S
H249 C272 0.947 . S
H250 C273 0.948 . S
H251 C279 0.982 . S
H252 C280 0.979 . S
H253 C280 0.980 . S
H254 C280 0.983 . S
H255 C279 0.979 . S
H256 C279 0.977 . S
C257 C245 1.453 . S
C257 H286 0.982 . S
C257 H287 0.979 . S
C257 H288 0.977 . S
C258 C245 1.684 . S
C258 H283 0.979 . S
C258 H284 0.980 . S
C258 H285 0.983 . S
C259 C260 1.391 . S
C259 C264 1.391 . S
C259 H289 0.948 . S
C260 C259 1.391 . S
C260 C261 1.391 . S
C261 C260 1.391 . S
C261 C262 1.392 . S
C261 H290 0.947 . S
C262 C261 1.392 . S
C262 C263 1.419 . S
C262 H291 0.948 . S
C263 C262 1.419 . S
C263 C264 1.391 . S
C263 C267 1.397 . S
C264 C259 1.391 . S
C264 C263 1.391 . S
C264 C265 1.399 . S
C265 C264 1.399 . S
C265 C266 1.396 . S
C265 C268 1.453 . S
C265 C269 1.684 . S
C266 C247 1.723 . S
C266 C265 1.396 . S
C266 C267 1.394 . S
C267 C263 1.397 . S
C267 C266 1.394 . S
C267 C277 1.723 . S
C268 C265 1.453 . S
C268 H292 0.982 . S
C268 H293 0.979 . S
C268 H294 0.977 . S
C269 C265 1.684 . S
C269 H295 0.979 . S
C269 H296 0.980 . S
C269 H297 0.983 . S
C270 H246 0.948 . S
C270 C271 1.391 . S
C270 C275 1.391 . S
C271 C270 1.391 . S
C271 C272 1.391 . S
C272 H249 0.947 . S
C272 C271 1.391 . S
C272 C273 1.392 . S
C273 H250 0.948 . S
C273 C272 1.392 . S
C273 C274 1.419 . S
C274 C273 1.419 . S
C274 C275 1.391 . S
C274 C278 1.397 . S
C275 C270 1.391 . S
C275 C274 1.391 . S
C275 C276 1.399 . S
C276 C275 1.399 . S
C276 C277 1.396 . S
C276 C279 1.453 . S
C276 C280 1.684 . S
C277 C267 1.723 . S
C277 C276 1.396 . S
C277 C278 1.394 . S
C278 C248 1.723 . S
C278 C274 1.397 . S
C278 C277 1.394 . S
C279 H251 0.982 . S
C279 H255 0.979 . S
C279 H256 0.977 . S
C279 C276 1.453 . S
C280 H252 0.979 . S
C280 H253 0.980 . S
C280 H254 0.983 . S
C280 C276 1.684 . S
H281 C299 0.948 . S
H282 C240 0.948 . S
H283 C258 0.979 . S
H284 C258 0.980 . S
H285 C258 0.983 . S
H286 C257 0.982 . S
H287 C257 0.979 . S
H288 C257 0.977 . S
H289 C259 0.948 . S
H290 C261 0.947 . S
H291 C262 0.948 . S
H292 C268 0.982 . S
H293 C268 0.979 . S
H294 C268 0.977 . S
H295 C269 0.979 . S
H296 C269 0.980 . S
H297 C269 0.983 . S
H298 C242 0.947 . S
C299 C242 1.392 . S
C299 C243 1.419 . S
C299 H281 0.948 . S
C300 C301 1.391 . S
C300 C304 1.391 . S
C300 H342 0.948 . S
C301 C300 1.391 . S
C301 C302 1.391 . S
C302 C301 1.391 . S
C302 H358 0.947 . S
C302 C359 1.392 . S
C303 C304 1.391 . S
C303 C307 1.397 . S
C303 C359 1.419 . S
C304 C300 1.391 . S
C304 C303 1.391 . S
C304 C305 1.399 . S
C305 C304 1.399 . S
C305 C308 1.396 . S
C305 C317 1.453 . S
C305 C318 1.684 . S
H306 C330 0.948 . S
C307 C303 1.397 . S
C307 C308 1.394 . S
C307 C326 1.723 . S
C308 C305 1.396 . S
C308 C307 1.394 . S
C308 C338 1.723 . S
H309 C332 0.947 . S
H310 C333 0.948 . S
H311 C339 0.982 . S
H312 C340 0.979 . S
H313 C340 0.980 . S
H314 C340 0.983 . S
H315 C339 0.979 . S
H316 C339 0.977 . S
C317 C305 1.453 . S
C317 H346 0.982 . S
C317 H347 0.979 . S
C317 H348 0.977 . S
C318 C305 1.684 . S
C318 H343 0.979 . S
C318 H344 0.980 . S
C318 H345 0.983 . S
C319 C320 1.391 . S
C319 C324 1.391 . S
C319 H349 0.948 . S
C320 C319 1.391 . S
C320 C321 1.391 . S
C321 C320 1.391 . S
C321 C322 1.392 . S
C321 H350 0.947 . S
C322 C321 1.392 . S
C322 C323 1.419 . S
C322 H351 0.948 . S
C323 C322 1.419 . S
C323 C324 1.391 . S
C323 C327 1.397 . S
C324 C319 1.391 . S
C324 C323 1.391 . S
C324 C325 1.399 . S
C325 C324 1.399 . S
C325 C326 1.396 . S
C325 C328 1.453 . S
C325 C329 1.684 . S
C326 C307 1.723 . S
C326 C325 1.396 . S
C326 C327 1.394 . S
C327 C323 1.397 . S
C327 C326 1.394 . S
C327 C337 1.723 . S
C328 C325 1.453 . S
C328 H352 0.982 . S
C328 H353 0.979 . S
C328 H354 0.977 . S
C329 C325 1.684 . S
C329 H355 0.979 . S
C329 H356 0.980 . S
C329 H357 0.983 . S
C330 H306 0.948 . S
C330 C331 1.391 . S
C330 C335 1.391 . S
C331 C330 1.391 . S
C331 C332 1.391 . S
C332 H309 0.947 . S
C332 C331 1.391 . S
C332 C333 1.392 . S
C333 H310 0.948 . S
C333 C332 1.392 . S
C333 C334 1.419 . S
C334 C333 1.419 . S
C334 C335 1.391 . S
C334 C338 1.397 . S
C335 C330 1.391 . S
C335 C334 1.391 . S
C335 C336 1.399 . S
C336 C335 1.399 . S
C336 C337 1.396 . S
C336 C339 1.453 . S
C336 C340 1.684 . S
C337 C327 1.723 . S
C337 C336 1.396 . S
C337 C338 1.394 . S
C338 C308 1.723 . S
C338 C334 1.397 . S
C338 C337 1.394 . S
C339 H311 0.982 . S
C339 H315 0.979 . S
C339 H316 0.977 . S
C339 C336 1.453 . S
C340 H312 0.979 . S
C340 H313 0.980 . S
C340 H314 0.983 . S
C340 C336 1.684 . S
H341 C359 0.948 . S
H342 C300 0.948 . S
H343 C318 0.979 . S
H344 C318 0.980 . S
H345 C318 0.983 . S
H346 C317 0.982 . S
H347 C317 0.979 . S
H348 C317 0.977 . S
H349 C319 0.948 . S
H350 C321 0.947 . S
H351 C322 0.948 . S
H352 C328 0.982 . S
H353 C328 0.979 . S
H354 C328 0.977 . S
H355 C329 0.979 . S
H356 C329 0.980 . S
H357 C329 0.983 . S
H358 C302 0.947 . S
C359 C302 1.392 . S
C359 C303 1.419 . S
C359 H341 0.948 . S
C360 C361 1.391 . S
C360 C364 1.391 . S
C360 H402 0.948 . S
C361 C360 1.391 . S
C361 C362 1.391 . S
C362 C361 1.391 . S
C362 H418 0.947 . S
C362 C419 1.392 . S
C363 C364 1.391 . S
C363 C367 1.397 . S
C363 C419 1.419 . S
C364 C360 1.391 . S
C364 C363 1.391 . S
C364 C365 1.399 . S
C365 C364 1.399 . S
C365 C368 1.396 . S
C365 C377 1.453 . S
C365 C378 1.684 . S
H366 C390 0.948 . S
C367 C363 1.397 . S
C367 C368 1.394 . S
C367 C386 1.723 . S
C368 C365 1.396 . S
C368 C367 1.394 . S
C368 C398 1.723 . S
H369 C392 0.947 . S
H370 C393 0.948 . S
H371 C399 0.982 . S
H372 C400 0.979 . S
H373 C400 0.980 . S
H374 C400 0.983 . S
H375 C399 0.979 . S
H376 C399 0.977 . S
C377 C365 1.453 . S
C377 H406 0.982 . S
C377 H407 0.979 . S
C377 H408 0.977 . S
C378 C365 1.684 . S
C378 H403 0.979 . S
C378 H404 0.980 . S
C378 H405 0.983 . S
C379 C380 1.391 . S
C379 C384 1.391 . S
C379 H409 0.948 . S
C380 C379 1.391 . S
C380 C381 1.391 . S
C381 C380 1.391 . S
C381 C382 1.392 . S
C381 H410 0.947 . S
C382 C381 1.392 . S
C382 C383 1.419 . S
C382 H411 0.948 . S
C383 C382 1.419 . S
C383 C384 1.391 . S
C383 C387 1.397 . S
C384 C379 1.391 . S
C384 C383 1.391 . S
C384 C385 1.399 . S
C385 C384 1.399 . S
C385 C386 1.396 . S
C385 C388 1.453 . S
C385 C389 1.684 . S
C386 C367 1.723 . S
C386 C385 1.396 . S
C386 C387 1.394 . S
C387 C383 1.397 . S
C387 C386 1.394 . S
C387 C397 1.723 . S
C388 C385 1.453 . S
C388 H412 0.982 . S
C388 H413 0.979 . S
C388 H414 0.977 . S
C389 C385 1.684 . S
C389 H415 0.979 . S
C389 H416 0.980 . S
C389 H417 0.983 . S
C390 H366 0.948 . S
C390 C391 1.391 . S
C390 C395 1.391 . S
C391 C390 1.391 . S
C391 C392 1.391 . S
C392 H369 0.947 . S
C392 C391 1.391 . S
C392 C393 1.392 . S
C393 H370 0.948 . S
C393 C392 1.392 . S
C393 C394 1.419 . S
C394 C393 1.419 . S
C394 C395 1.391 . S
C394 C398 1.397 . S
C395 C390 1.391 . S
C395 C394 1.391 . S
C395 C396 1.399 . S
C396 C395 1.399 . S
C396 C397 1.396 . S
C396 C399 1.453 . S
C396 C400 1.684 . S
C397 C387 1.723 . S
C397 C396 1.396 . S
C397 C398 1.394 . S
C398 C368 1.723 . S
C398 C394 1.397 . S
C398 C397 1.394 . S
C399 H371 0.982 . S
C399 H375 0.979 . S
C399 H376 0.977 . S
C399 C396 1.453 . S
C400 H372 0.979 . S
C400 H373 0.980 . S
C400 H374 0.983 . S
C400 C396 1.684 . S
H401 C419 0.948 . S
H402 C360 0.948 . S
H403 C378 0.979 . S
H404 C378 0.980 . S
H405 C378 0.983 . S
H406 C377 0.982 . S
H407 C377 0.979 . S
H408 C377 0.977 . S
H409 C379 0.948 . S
H410 C381 0.947 . S
H411 C382 0.948 . S
H412 C388 0.982 . S
H413 C388 0.979 . S
H414 C388 0.977 . S
H415 C389 0.979 . S
H416 C389 0.980 . S
H417 C389 0.983 . S
H418 C362 0.947 . S
C419 C362 1.392 . S
C419 C363 1.419 . S
C419 H401 0.948 . S
C420 C421 1.391 . S
C420 C424 1.391 . S
C420 H462 0.948 . S
C421 C420 1.391 . S
C421 C422 1.391 . S
C422 C421 1.391 . S
C422 H478 0.947 . S
C422 C479 1.392 . S
C423 C424 1.391 . S
C423 C427 1.397 . S
C423 C479 1.419 . S
C424 C420 1.391 . S
C424 C423 1.391 . S
C424 C425 1.399 . S
C425 C424 1.399 . S
C425 C428 1.396 . S
C425 C437 1.453 . S
C425 C438 1.684 . S
H426 C450 0.948 . S
C427 C423 1.397 . S
C427 C428 1.394 . S
C427 C446 1.723 . S
C428 C425 1.396 . S
C428 C427 1.394 . S
C428 C458 1.723 . S
H429 C452 0.947 . S
H430 C453 0.948 . S
H431 C459 0.982 . S
H432 C460 0.979 . S
H433 C460 0.980 . S
H434 C460 0.983 . S
H435 C459 0.979 . S
H436 C459 0.977 . S
C437 C425 1.453 . S
C437 H466 0.982 . S
C437 H467 0.979 . S
C437 H468 0.977 . S
C438 C425 1.684 . S
C438 H463 0.979 . S
C438 H464 0.980 . S
C438 H465 0.983 . S
C439 C440 1.391 . S
C439 C444 1.391 . S
C439 H469 0.948 . S
C440 C439 1.391 . S
C440 C441 1.391 . S
C441 C440 1.391 . S
C441 C442 1.392 . S
C441 H470 0.947 . S
C442 C441 1.392 . S
C442 C443 1.419 . S
C442 H471 0.948 . S
C443 C442 1.419 . S
C443 C444 1.391 . S
C443 C447 1.397 . S
C444 C439 1.391 . S
C444 C443 1.391 . S
C444 C445 1.399 . S
C445 C444 1.399 . S
C445 C446 1.396 . S
C445 C448 1.453 . S
C445 C449 1.684 . S
C446 C427 1.723 . S
C446 C445 1.396 . S
C446 C447 1.394 . S
C447 C443 1.397 . S
C447 C446 1.394 . S
C447 C457 1.723 . S
C448 C445 1.453 . S
C448 H472 0.982 . S
C448 H473 0.979 . S
C448 H474 0.977 . S
C449 C445 1.684 . S
C449 H475 0.979 . S
C449 H476 0.980 . S
C449 H477 0.983 . S
C450 H426 0.948 . S
C450 C451 1.391 . S
C450 C455 1.391 . S
C451 C450 1.391 . S
C451 C452 1.391 . S
C452 H429 0.947 . S
C452 C451 1.391 . S
C452 C453 1.392 . S
C453 H430 0.948 . S
C453 C452 1.392 . S
C453 C454 1.419 . S
C454 C453 1.419 . S
C454 C455 1.391 . S
C454 C458 1.397 . S
C455 C450 1.391 . S
C455 C454 1.391 . S
C455 C456 1.399 . S
C456 C455 1.399 . S
C456 C457 1.396 . S
C456 C459 1.453 . S
C456 C460 1.684 . S
C457 C447 1.723 . S
C457 C456 1.396 . S
C457 C458 1.394 . S
C458 C428 1.723 . S
C458 C454 1.397 . S
C458 C457 1.394 . S
C459 H431 0.982 . S
C459 H435 0.979 . S
C459 H436 0.977 . S
C459 C456 1.453 . S
C460 H432 0.979 . S
C460 H433 0.980 . S
C460 H434 0.983 . S
C460 C456 1.684 . S
H461 C479 0.948 . S
H462 C420 0.948 . S
H463 C438 0.979 . S
H464 C438 0.980 . S
H465 C438 0.983 . S
H466 C437 0.982 . S
H467 C437 0.979 . S
H468 C437 0.977 . S
H469 C439 0.948 . S
H470 C441 0.947 . S
H471 C442 0.948 . S
H472 C448 0.982 . S
H473 C448 0.979 . S
H474 C448 0.977 . S
H475 C449 0.979 . S
H476 C449 0.980 . S
H477 C449 0.983 . S
H478 C422 0.947 . S
C479 C422 1.392 . S
C479 C423 1.419 . S
C479 H461 0.948 . S
Tb480 C489 2.764 . S
Tb480 O490 2.325 1_455 S
Tb480 O493 2.303 . S
Tb480 O497 2.322 1_545 S
Tb480 O498 2.349 1_545 S
Tb480 O501 2.415 . S
Tb480 O502 2.399 . S
Tb481 O491 2.301 1_565 S
Tb481 O492 2.324 1_565 S
Tb481 O494 2.443 . S
Tb481 O495 2.402 . S
Tb481 O496 2.344 1_655 S
Tb481 O499 2.324 . S
Tb481 C510 2.781 . S
C482 O498 1.261 1_655 S
C482 O499 1.257 . S
C483 C486 1.358 . S
C483 C487 1.332 . S
C483 C489 1.504 . S
C484 C485 1.373 . S
C484 C488 1.308 . S
C485 C484 1.373 . S
C485 C486 1.429 . S
C485 H512 0.932 . S
C486 C483 1.358 . S
C486 C485 1.429 . S
C486 H513 0.930 . S
C487 C483 1.332 . S
C487 C488 1.394 . S
C487 H514 0.932 . S
C488 C484 1.308 . S
C488 C487 1.394 . S
C488 H515 0.929 . S
C489 Tb480 2.764 . S
C489 C483 1.504 . S
C489 O501 1.239 . S
C489 O502 1.263 . S
O490 Tb480 2.325 1_655 S
O490 C500 1.236 . S
O491 Tb481 2.301 1_545 S
O491 C500 1.257 . S
O492 Tb481 2.324 1_545 S
O492 C503 1.261 1_655 S
O493 Tb480 2.303 . S
O493 C503 1.257 . S
O494 Tb481 2.443 . S
O494 C510 1.239 . S
O495 Tb481 2.402 . S
O495 C510 1.263 . S
O496 Tb481 2.344 1_455 S
O496 C511 1.236 . S
O497 Tb480 2.322 1_565 S
O497 C511 1.257 . S
O498 Tb480 2.349 1_565 S
O498 C482 1.261 1_455 S
O499 Tb481 2.324 . S
O499 C482 1.257 . S
C500 O490 1.236 . S
C500 O491 1.257 . S
O501 Tb480 2.415 . S
O501 C489 1.239 . S
O502 Tb480 2.399 . S
O502 C489 1.263 . S
C503 O492 1.261 1_455 S
C503 O493 1.257 . S
C504 C507 1.358 . S
C504 C508 1.332 . S
C504 C510 1.504 . S
C505 C506 1.373 . S
C505 C509 1.308 . S
C506 C505 1.373 . S
C506 C507 1.429 . S
C506 H516 0.932 . S
C507 C504 1.358 . S
C507 C506 1.429 . S
C507 H517 0.930 . S
C508 C504 1.332 . S
C508 C509 1.394 . S
C508 H518 0.932 . S
C509 C505 1.308 . S
C509 C508 1.394 . S
C509 H519 0.929 . S
C510 Tb481 2.781 . S
C510 O494 1.239 . S
C510 O495 1.263 . S
C510 C504 1.504 . S
C511 O496 1.236 . S
C511 O497 1.257 . S
H512 C485 0.932 . S
H513 C486 0.930 . S
H514 C487 0.932 . S
H515 C488 0.929 . S
H516 C506 0.932 . S
H517 C507 0.930 . S
H518 C508 0.932 . S
H519 C509 0.929 . S
Tb520 C529 2.764 . S
Tb520 O530 2.325 1_554 S
Tb520 O533 2.303 . S
Tb520 O537 2.322 1_545 S
Tb520 O538 2.349 1_544 S
Tb520 O541 2.415 . S
Tb520 O542 2.399 . S
Tb521 O531 2.322 1_565 S
Tb521 O532 2.349 1_566 S
Tb521 O534 2.415 . S
Tb521 O535 2.399 . S
Tb521 O536 2.325 1_556 S
Tb521 O539 2.303 . S
Tb521 C550 2.764 . S
C522 O538 1.261 . S
C522 O539 1.257 . S
C523 C526 1.358 . S
C523 C527 1.332 . S
C523 C529 1.504 . S
C524 C525 1.373 . S
C524 C528 1.308 . S
C525 C524 1.373 . S
C525 C526 1.429 . S
C525 H552 0.932 . S
C526 C523 1.358 . S
C526 C525 1.429 . S
C526 H553 0.930 . S
C527 C523 1.332 . S
C527 C528 1.394 . S
C527 H554 0.932 . S
C528 C524 1.308 . S
C528 C527 1.394 . S
C528 H555 0.929 . S
C529 Tb520 2.764 . S
C529 C523 1.504 . S
C529 O541 1.239 . S
C529 O542 1.263 . S
O530 Tb520 2.325 1_556 S
O530 C540 1.236 . S
O531 Tb521 2.322 1_545 S
O531 C540 1.257 . S
O532 Tb521 2.349 1_544 S
O532 C543 1.261 . S
O533 Tb520 2.303 . S
O533 C543 1.257 . S
O534 Tb521 2.415 . S
O534 C550 1.239 . S
O535 Tb521 2.399 . S
O535 C550 1.263 . S
O536 Tb521 2.325 1_554 S
O536 C551 1.236 . S
O537 Tb520 2.322 1_565 S
O537 C551 1.257 . S
O538 Tb520 2.349 1_566 S
O538 C522 1.261 . S
O539 Tb521 2.303 . S
O539 C522 1.257 . S
C540 O530 1.236 . S
C540 O531 1.257 . S
O541 Tb520 2.415 . S
O541 C529 1.239 . S
O542 Tb520 2.399 . S
O542 C529 1.263 . S
C543 O532 1.261 . S
C543 O533 1.257 . S
C544 C547 1.358 . S
C544 C548 1.332 . S
C544 C550 1.504 . S
C545 C546 1.373 . S
C545 C549 1.308 . S
C546 C545 1.373 . S
C546 C547 1.429 . S
C546 H556 0.932 . S
C547 C544 1.358 . S
C547 C546 1.429 . S
C547 H557 0.930 . S
C548 C544 1.332 . S
C548 C549 1.394 . S
C548 H558 0.932 . S
C549 C545 1.308 . S
C549 C548 1.394 . S
C549 H559 0.929 . S
C550 Tb521 2.764 . S
C550 O534 1.239 . S
C550 O535 1.263 . S
C550 C544 1.504 . S
C551 O536 1.236 . S
C551 O537 1.257 . S
H552 C525 0.932 . S
H553 C526 0.930 . S
H554 C527 0.932 . S
H555 C528 0.929 . S
H556 C546 0.932 . S
H557 C547 0.930 . S
H558 C548 0.932 . S
H559 C549 0.929 . S
Tb560 C569 2.764 . S
Tb560 O570 2.325 . S
Tb560 O573 2.303 . S
Tb560 O577 2.322 . S
Tb560 O578 2.349 . S
Tb560 O581 2.415 . S
Tb560 O582 2.399 . S
Tb561 O571 2.322 . S
Tb561 O572 2.349 . S
Tb561 O574 2.415 . S
Tb561 O575 2.399 . S
Tb561 O576 2.325 . S
Tb561 O579 2.303 . S
Tb561 C590 2.764 . S
C562 O578 1.261 . S
C562 O579 1.257 . S
C563 C566 1.358 . S
C563 C567 1.332 . S
C563 C569 1.504 . S
C564 C565 1.373 . S
C564 C568 1.308 . S
C565 C564 1.373 . S
C565 C566 1.429 . S
C565 H592 0.932 . S
C566 C563 1.358 . S
C566 C565 1.429 . S
C566 H593 0.930 . S
C567 C563 1.332 . S
C567 C568 1.394 . S
C567 H594 0.932 . S
C568 C564 1.308 . S
C568 C567 1.394 . S
C568 H595 0.929 . S
C569 Tb560 2.764 . S
C569 C563 1.504 . S
C569 O581 1.239 . S
C569 O582 1.263 . S
O570 Tb560 2.325 . S
O570 C580 1.236 . S
O571 Tb561 2.322 . S
O571 C580 1.257 . S
O572 Tb561 2.349 . S
O572 C583 1.261 . S
O573 Tb560 2.303 . S
O573 C583 1.257 . S
O574 Tb561 2.415 . S
O574 C590 1.239 . S
O575 Tb561 2.399 . S
O575 C590 1.263 . S
O576 Tb561 2.325 . S
O576 C591 1.236 . S
O577 Tb560 2.322 . S
O577 C591 1.257 . S
O578 Tb560 2.349 . S
O578 C562 1.261 . S
O579 Tb561 2.303 . S
O579 C562 1.257 . S
C580 O570 1.236 . S
C580 O571 1.257 . S
O581 Tb560 2.415 . S
O581 C569 1.239 . S
O582 Tb560 2.399 . S
O582 C569 1.263 . S
C583 O572 1.261 . S
C583 O573 1.257 . S
C584 C587 1.358 . S
C584 C588 1.332 . S
C584 C590 1.504 . S
C585 C586 1.373 . S
C585 C589 1.308 . S
C586 C585 1.373 . S
C586 C587 1.429 . S
C586 H596 0.932 . S
C587 C584 1.358 . S
C587 C586 1.429 . S
C587 H597 0.930 . S
C588 C584 1.332 . S
C588 C589 1.394 . S
C588 H598 0.932 . S
C589 C585 1.308 . S
C589 C588 1.394 . S
C589 H599 0.929 . S
C590 Tb561 2.764 . S
C590 O574 1.239 . S
C590 O575 1.263 . S
C590 C584 1.504 . S
C591 O576 1.236 . S
C591 O577 1.257 . S
H592 C565 0.932 . S
H593 C566 0.930 . S
H594 C567 0.932 . S
H595 C568 0.929 . S
H596 C586 0.932 . S
H597 C587 0.930 . S
H598 C588 0.932 . S
H599 C589 0.929 . S
Tb600 C609 2.764 . S
Tb600 O610 2.325 . S
Tb600 O613 2.303 1_556 S
Tb600 O617 2.337 1_655 S
Tb600 O618 2.349 1_655 S
Tb600 O621 2.415 . S
Tb600 O622 2.399 . S
Tb601 O611 2.322 1_455 S
Tb601 O612 2.349 1_455 S
Tb601 O614 2.415 . S
Tb601 O615 2.399 . S
Tb601 O616 2.325 . S
Tb601 O619 2.303 1_554 S
Tb601 C630 2.764 . S
C602 O618 1.261 . S
C602 O619 1.257 . S
C603 C606 1.358 . S
C603 C607 1.332 . S
C603 C609 1.504 . S
C604 C605 1.373 . S
C604 C608 1.308 . S
C605 C604 1.373 . S
C605 C606 1.429 . S
C605 H632 0.932 . S
C606 C603 1.358 . S
C606 C605 1.429 . S
C606 H633 0.930 . S
C607 C603 1.332 . S
C607 C608 1.394 . S
C607 H634 0.932 . S
C608 C604 1.308 . S
C608 C607 1.394 . S
C608 H635 0.929 . S
C609 Tb600 2.764 . S
C609 C603 1.504 . S
C609 O621 1.239 . S
C609 O622 1.263 . S
O610 Tb600 2.325 . S
O610 C620 1.236 . S
O611 Tb601 2.322 1_655 S
O611 C620 1.257 1_554 S
O612 Tb601 2.349 1_655 S
O612 C623 1.261 . S
O613 Tb600 2.303 1_554 S
O613 C623 1.257 . S
O614 Tb601 2.415 . S
O614 C630 1.239 . S
O615 Tb601 2.399 . S
O615 C630 1.263 . S
O616 Tb601 2.325 . S
O616 C631 1.236 . S
O617 Tb600 2.337 1_455 S
O617 C631 1.235 1_556 S
O618 Tb600 2.349 1_455 S
O618 C602 1.261 . S
O619 Tb601 2.303 1_556 S
O619 C602 1.257 . S
C620 O610 1.236 . S
C620 O611 1.257 1_556 S
O621 Tb600 2.415 . S
O621 C609 1.239 . S
O622 Tb600 2.399 . S
O622 C609 1.263 . S
C623 O612 1.261 . S
C623 O613 1.257 . S
C624 C627 1.358 . S
C624 C628 1.332 . S
C624 C630 1.504 . S
C625 C626 1.373 . S
C625 C629 1.308 . S
C626 C625 1.373 . S
C626 C627 1.429 . S
C626 H636 0.932 . S
C627 C624 1.358 . S
C627 C626 1.429 . S
C627 H637 0.930 . S
C628 C624 1.332 . S
C628 C629 1.394 . S
C628 H638 0.932 . S
C629 C625 1.308 . S
C629 C628 1.394 . S
C629 H639 0.929 . S
C630 Tb601 2.764 . S
C630 O614 1.239 . S
C630 O615 1.263 . S
C630 C624 1.504 . S
C631 O616 1.236 . S
C631 O617 1.235 1_554 S
H632 C605 0.932 . S
H633 C606 0.930 . S
H634 C607 0.932 . S
H635 C608 0.929 . S
H636 C626 0.932 . S
H637 C627 0.930 . S
H638 C628 0.932 . S
H639 C629 0.929 . S
C640 C641 1.369 . S
C640 C642 1.419 . S
C640 H644 0.930 . S
C641 C640 1.369 . S
C641 C650 1.429 . S
C642 C640 1.419 . S
C642 C643 1.363 . S
C642 H645 0.929 . S
C643 C642 1.363 . S
C643 C649 1.428 . S
H644 C640 0.930 . S
H645 C642 0.929 . S
S646 N647 1.613 . S
S646 N648 1.610 . S
N647 S646 1.613 . S
N647 C650 1.350 . S
N648 S646 1.610 . S
N648 C649 1.351 . S
C649 C643 1.428 . S
C649 N648 1.351 . S
C649 C650 1.434 . S
C650 C641 1.429 . S
C650 N647 1.350 . S
C650 C649 1.434 . S
C651 C652 1.369 . S
C651 C653 1.419 . S
C651 H655 0.930 . S
C652 C651 1.369 . S
C652 C661 1.429 . S
C653 C651 1.419 . S
C653 C654 1.363 . S
C653 H656 0.929 . S
C654 C653 1.363 . S
C654 C660 1.428 . S
H655 C651 0.930 . S
H656 C653 0.929 . S
S657 N658 1.613 . S
S657 N659 1.610 . S
N658 S657 1.613 . S
N658 C661 1.350 . S
N659 S657 1.610 . S
N659 C660 1.351 . S
C660 C654 1.428 . S
C660 N659 1.351 . S
C660 C661 1.434 . S
C661 C652 1.429 . S
C661 N658 1.350 . S
C661 C660 1.434 . S
C662 C663 1.369 . S
C662 C664 1.419 . S
C662 H666 0.930 . S
C663 C662 1.369 . S
C663 C672 1.429 . S
C664 C662 1.419 . S
C664 C665 1.363 . S
C664 H667 0.929 . S
C665 C664 1.363 . S
C665 C671 1.428 . S
H666 C662 0.930 . S
H667 C664 0.929 . S
S668 N669 1.613 . S
S668 N670 1.610 . S
N669 S668 1.613 . S
N669 C672 1.350 . S
N670 S668 1.610 . S
N670 C671 1.351 . S
C671 C665 1.428 . S
C671 N670 1.351 . S
C671 C672 1.434 . S
C672 C663 1.429 . S
C672 N669 1.350 . S
C672 C671 1.434 . S
C673 C674 1.369 . S
C673 C675 1.419 . S
C673 H677 0.930 . S
C674 C673 1.369 . S
C674 C683 1.429 . S
C675 C673 1.419 . S
C675 C676 1.363 . S
C675 H678 0.929 . S
C676 C675 1.363 . S
C676 C682 1.428 . S
H677 C673 0.930 . S
H678 C675 0.929 . S
S679 N680 1.613 . S
S679 N681 1.610 . S
N680 S679 1.613 . S
N680 C683 1.350 . S
N681 S679 1.610 . S
N681 C682 1.351 . S
C682 C676 1.428 . S
C682 N681 1.351 . S
C682 C683 1.434 . S
C683 C674 1.429 . S
C683 N680 1.350 . S
C683 C682 1.434 . S
C684 C685 1.369 . S
C684 C686 1.419 . S
C684 H688 0.930 . S
C685 C684 1.369 . S
C685 C694 1.429 . S
C686 C684 1.419 . S
C686 C687 1.363 . S
C686 H689 0.929 . S
C687 C686 1.363 . S
C687 C693 1.428 . S
H688 C684 0.930 . S
H689 C686 0.929 . S
S690 N691 1.612 . S
S690 N692 1.610 . S
N691 S690 1.612 . S
N691 C694 1.350 . S
N692 S690 1.610 . S
N692 C693 1.351 . S
C693 C687 1.428 . S
C693 N692 1.351 . S
C693 C694 1.434 . S
C694 C685 1.429 . S
C694 N691 1.350 . S
C694 C693 1.434 . S
C695 C696 1.369 1_655 S
C695 C697 1.419 . S
C695 H699 0.930 . S
C696 C695 1.369 1_455 S
C696 C705 1.429 . S
C697 C695 1.419 . S
C697 C698 1.363 1_655 S
C697 H700 0.929 . S
C698 C697 1.363 1_455 S
C698 C704 1.428 . S
H699 C695 0.930 . S
H700 C697 0.929 . S
S701 N702 1.613 . S
S701 N703 1.610 . S
N702 S701 1.613 . S
N702 C705 1.350 . S
N703 S701 1.610 . S
N703 C704 1.351 . S
C704 C698 1.428 . S
C704 N703 1.351 . S
C704 C705 1.434 . S
C705 C696 1.429 . S
C705 N702 1.350 . S
C705 C704 1.434 . S
C706 C707 1.369 . S
C706 C708 1.419 . S
C706 H710 0.930 . S
C707 C706 1.369 . S
C707 C716 1.429 . S
C708 C706 1.419 . S
C708 C709 1.363 . S
C708 H711 0.929 . S
C709 C708 1.363 . S
C709 C715 1.428 . S
H710 C706 0.930 . S
H711 C708 0.929 . S
S712 N713 1.613 1_554 S
S712 N714 1.610 . S
N713 S712 1.613 1_556 S
N713 C716 1.350 . S
N714 S712 1.610 . S
N714 C715 1.351 1_554 S
C715 C709 1.428 . S
C715 N714 1.351 1_556 S
C715 C716 1.434 . S
C716 C707 1.429 . S
C716 N713 1.350 . S
C716 C715 1.434 . S
C717 C718 1.369 . S
C717 C719 1.419 . S
C717 H721 0.930 . S
C718 C717 1.369 . S
C718 C727 1.429 . S
C719 C717 1.419 . S
C719 C720 1.363 . S
C719 H722 0.929 . S
C720 C719 1.363 . S
C720 C726 1.428 . S
H721 C717 0.930 . S
H722 C719 0.929 . S
S723 N724 1.613 . S
S723 N725 1.610 . S
N724 S723 1.613 . S
N724 C727 1.350 . S
N725 S723 1.610 . S
N725 C726 1.351 . S
C726 C720 1.428 . S
C726 N725 1.351 . S
C726 C727 1.434 . S
C727 C718 1.429 . S
C727 N724 1.350 . S
C727 C726 1.434 . S
C728 C729 1.369 . S
C728 C730 1.419 . S
C728 H732 0.930 . S
C729 C728 1.369 . S
C729 C738 1.429 . S
C730 C728 1.419 . S
C730 C731 1.363 . S
C730 H733 0.929 . S
C731 C730 1.363 . S
C731 C737 1.428 . S
H732 C728 0.930 . S
H733 C730 0.929 . S
S734 N735 1.613 . S
S734 N736 1.610 . S
N735 S734 1.613 . S
N735 C738 1.350 . S
N736 S734 1.610 . S
N736 C737 1.351 . S
C737 C731 1.428 . S
C737 N736 1.351 . S
C737 C738 1.434 . S
C738 C729 1.429 . S
C738 N735 1.350 . S
C738 C737 1.434 . S
C739 C740 1.369 . S
C739 C741 1.419 . S
C739 H743 0.930 . S
C740 C739 1.369 . S
C740 C749 1.429 . S
C741 C739 1.419 . S
C741 C742 1.363 . S
C741 H744 0.929 . S
C742 C741 1.363 . S
C742 C748 1.428 . S
H743 C739 0.930 . S
H744 C741 0.929 . S
S745 N746 1.613 . S
S745 N747 1.610 . S
N746 S745 1.613 . S
N746 C749 1.350 . S
N747 S745 1.610 . S
N747 C748 1.351 . S
C748 C742 1.428 . S
C748 N747 1.351 . S
C748 C749 1.434 . S
C749 C740 1.429 . S
C749 N746 1.350 . S
C749 C748 1.434 . S
C750 C751 1.369 . S
C750 C752 1.419 . S
C750 H754 0.930 . S
C751 C750 1.369 . S
C751 C760 1.429 . S
C752 C750 1.419 . S
C752 C753 1.363 . S
C752 H755 0.954 . S
C753 C752 1.363 . S
C753 C759 1.428 . S
H754 C750 0.930 . S
H755 C752 0.954 . S
S756 N757 1.613 . S
S756 N758 1.610 . S
N757 S756 1.613 . S
N757 C760 1.350 . S
N758 S756 1.610 . S
N758 C759 1.351 . S
C759 C753 1.428 . S
C759 N758 1.351 . S
C759 C760 1.434 . S
C760 C751 1.429 . S
C760 N757 1.350 . S
C760 C759 1.434 . S
C761 C762 1.369 . S
C761 C763 1.419 . S
C761 H765 0.930 . S
C762 C761 1.369 . S
C762 C771 1.429 . S
C763 C761 1.419 . S
C763 C764 1.363 . S
C763 H766 0.929 . S
C764 C763 1.363 . S
C764 C770 1.428 . S
H765 C761 0.930 . S
H766 C763 0.929 . S
S767 N768 1.613 . S
S767 N769 1.610 . S
N768 S767 1.613 . S
N768 C771 1.350 . S
N769 S767 1.610 . S
N769 C770 1.351 . S
C770 C764 1.428 . S
C770 N769 1.351 . S
C770 C771 1.434 . S
C771 C762 1.429 . S
C771 N768 1.350 . S
C771 C770 1.434 . S
C772 C773 1.369 . S
C772 C774 1.419 . S
C772 H776 0.930 . S
C773 C772 1.369 . S
C773 C782 1.429 . S
C774 C772 1.419 . S
C774 C775 1.363 . S
C774 H777 0.929 . S
C775 C774 1.363 . S
C775 C781 1.428 . S
H776 C772 0.930 . S
H777 C774 0.929 . S
S778 N779 1.613 . S
S778 N780 1.610 . S
N779 S778 1.613 . S
N779 C782 1.350 . S
N780 S778 1.610 . S
N780 C781 1.351 . S
C781 C775 1.428 . S
C781 N780 1.351 . S
C781 C782 1.434 . S
C782 C773 1.429 . S
C782 N779 1.350 . S
C782 C781 1.434 . S
C783 C784 1.369 . S
C783 C785 1.419 . S
C783 H787 0.930 . S
C784 C783 1.369 . S
C784 C793 1.429 . S
C785 C783 1.419 . S
C785 C786 1.363 . S
C785 H788 0.929 . S
C786 C785 1.363 . S
C786 C792 1.428 . S
H787 C783 0.930 . S
H788 C785 0.929 . S
S789 N790 1.613 . S
S789 N791 1.610 . S
N790 S789 1.613 . S
N790 C793 1.350 . S
N791 S789 1.610 . S
N791 C792 1.351 . S
C792 C786 1.428 . S
C792 N791 1.351 . S
C792 C793 1.434 . S
C793 C784 1.429 . S
C793 N790 1.350 . S
C793 C792 1.434 . S
C794 C795 1.369 . S
C794 C796 1.419 . S
C794 H798 0.930 . S
C795 C794 1.369 . S
C795 C804 1.429 . S
C796 C794 1.419 . S
C796 C797 1.363 . S
C796 H799 0.929 . S
C797 C796 1.363 . S
C797 C803 1.428 . S
H798 C794 0.930 . S
H799 C796 0.929 . S
S800 N801 1.613 . S
S800 N802 1.610 . S
N801 S800 1.613 . S
N801 C804 1.350 . S
N802 S800 1.610 . S
N802 C803 1.351 . S
C803 C797 1.428 . S
C803 N802 1.351 . S
C803 C804 1.434 . S
C804 C795 1.429 . S
C804 N801 1.350 . S
C804 C803 1.434 . S
C805 C806 1.369 . S
C805 C807 1.419 . S
C805 H809 0.930 . S
C806 C805 1.369 . S
C806 C815 1.429 . S
C807 C805 1.419 . S
C807 C808 1.363 . S
C807 H810 0.929 . S
C808 C807 1.363 . S
C808 C814 1.428 . S
H809 C805 0.930 . S
H810 C807 0.929 . S
S811 N812 1.613 . S
S811 N813 1.610 . S
N812 S811 1.613 . S
N812 C815 1.350 . S
N813 S811 1.610 . S
N813 C814 1.351 . S
C814 C808 1.428 . S
C814 N813 1.351 . S
C814 C815 1.434 . S
C815 C806 1.429 . S
C815 N812 1.350 . S
C815 C814 1.434 . S
C816 C817 1.369 . S
C816 C818 1.419 . S
C816 H820 0.930 . S
C817 C816 1.369 . S
C817 C826 1.429 . S
C818 C816 1.419 . S
C818 C819 1.363 . S
C818 H821 0.929 . S
C819 C818 1.363 . S
C819 C825 1.428 . S
H820 C816 0.930 . S
H821 C818 0.929 . S
S822 N823 1.613 . S
S822 N824 1.610 . S
N823 S822 1.613 . S
N823 C826 1.350 . S
N824 S822 1.610 . S
N824 C825 1.351 . S
C825 C819 1.428 . S
C825 N824 1.351 . S
C825 C826 1.434 . S
C826 C817 1.429 . S
C826 N823 1.350 . S
C826 C825 1.434 . S
C827 C828 1.369 . S
C827 C829 1.419 . S
C827 H831 0.930 . S
C828 C827 1.369 . S
C828 C837 1.429 . S
C829 C827 1.419 . S
C829 C830 1.363 . S
C829 H832 0.929 . S
C830 C829 1.363 . S
C830 C836 1.428 . S
H831 C827 0.930 . S
H832 C829 0.929 . S
S833 N834 1.613 . S
S833 N835 1.610 1_455 S
N834 S833 1.613 . S
N834 C837 1.350 1_455 S
N835 S833 1.610 1_655 S
N835 C836 1.351 . S
C836 C830 1.428 . S
C836 N835 1.351 . S
C836 C837 1.434 . S
C837 C828 1.429 . S
C837 N834 1.350 1_655 S
C837 C836 1.434 . S
C838 C839 1.369 . S
C838 C840 1.419 . S
C838 H842 0.930 . S
C839 C838 1.369 . S
C839 C848 1.429 . S
C840 C838 1.419 . S
C840 C841 1.363 . S
C840 H843 0.929 . S
C841 C840 1.363 . S
C841 C847 1.428 . S
H842 C838 0.930 . S
H843 C840 0.929 . S
S844 N845 1.613 . S
S844 N846 1.610 . S
N845 S844 1.613 . S
N845 C848 1.350 . S
N846 S844 1.610 . S
N846 C847 1.351 . S
C847 C841 1.428 . S
C847 N846 1.351 . S
C847 C848 1.434 . S
C848 C839 1.429 . S
C848 N845 1.350 . S
C848 C847 1.434 . S
C849 C850 1.369 . S
C849 C851 1.419 . S
C849 H853 0.930 . S
C850 C849 1.369 . S
C850 C859 1.429 . S
C851 C849 1.419 . S
C851 C852 1.363 . S
C851 H854 0.929 . S
C852 C851 1.363 . S
C852 C858 1.428 . S
H853 C849 0.930 . S
H854 C851 0.929 . S
S855 N856 1.613 . S
S855 N857 1.610 . S
N856 S855 1.613 . S
N856 C859 1.350 . S
N857 S855 1.610 . S
N857 C858 1.351 . S
C858 C852 1.428 . S
C858 N857 1.351 . S
C858 C859 1.434 . S
C859 C850 1.429 . S
C859 N856 1.350 . S
C859 C858 1.434 . S
C860 C861 1.369 . S
C860 C862 1.419 . S
C860 H864 0.930 . S
C861 C860 1.369 . S
C861 C870 1.429 . S
C862 C860 1.419 . S
C862 C863 1.363 . S
C862 H865 0.929 . S
C863 C862 1.363 . S
C863 C869 1.428 . S
H864 C860 0.930 . S
H865 C862 0.929 . S
S866 N867 1.613 . S
S866 N868 1.610 . S
N867 S866 1.613 . S
N867 C870 1.350 . S
N868 S866 1.610 . S
N868 C869 1.351 . S
C869 C863 1.428 . S
C869 N868 1.351 . S
C869 C870 1.434 . S
C870 C861 1.429 . S
C870 N867 1.350 . S
C870 C869 1.434 . S
C871 C872 1.369 . S
C871 C873 1.419 . S
C871 H875 0.930 . S
C872 C871 1.369 . S
C872 C881 1.429 . S
C873 C871 1.419 . S
C873 C874 1.363 . S
C873 H876 0.929 . S
C874 C873 1.363 . S
C874 C880 1.428 . S
H875 C871 0.930 . S
H876 C873 0.929 . S
S877 N878 1.613 . S
S877 N879 1.610 . S
N878 S877 1.613 . S
N878 C881 1.350 . S
N879 S877 1.610 . S
N879 C880 1.351 . S
C880 C874 1.428 . S
C880 N879 1.351 . S
C880 C881 1.434 . S
C881 C872 1.429 . S
C881 N878 1.350 . S
C881 C880 1.434 . S
C882 C883 1.369 . S
C882 C884 1.419 . S
C882 H886 0.930 . S
C883 C882 1.369 . S
C883 C892 1.429 . S
C884 C882 1.419 . S
C884 C885 1.363 . S
C884 H887 0.929 . S
C885 C884 1.363 . S
C885 C891 1.428 . S
H886 C882 0.930 . S
H887 C884 0.929 . S
S888 N889 1.613 . S
S888 N890 1.610 . S
N889 S888 1.613 . S
N889 C892 1.350 . S
N890 S888 1.610 . S
N890 C891 1.351 . S
C891 C885 1.428 . S
C891 N890 1.351 . S
C891 C892 1.434 . S
C892 C883 1.429 . S
C892 N889 1.350 . S
C892 C891 1.434 . S
C893 C894 1.369 . S
C893 C895 1.419 . S
C893 H897 0.930 . S
C894 C893 1.369 . S
C894 C903 1.429 . S
C895 C893 1.419 . S
C895 C896 1.363 . S
C895 H898 0.929 . S
C896 C895 1.363 . S
C896 C902 1.428 . S
H897 C893 0.930 . S
H898 C895 0.929 . S
S899 N900 1.613 . S
S899 N901 1.610 . S
N900 S899 1.613 . S
N900 C903 1.350 . S
N901 S899 1.610 . S
N901 C902 1.351 . S
C902 C896 1.428 . S
C902 N901 1.351 . S
C902 C903 1.434 . S
C903 C894 1.429 . S
C903 N900 1.350 . S
C903 C902 1.434 . S
C641 C1 0.976 . S
C643 C484 1.119 . S
C652 C80 1.206 . S
C654 C545 1.303 . S
C665 C583 2.530 . S
C663 C140 2.544 . S
C674 C211 2.400 . S
C676 C623 2.365 . S
C687 C543 1.494 . S
C685 C31 1.273 . S
C698 C511 2.266 . S
C696 C61 2.115 . S
C709 C620 1.809 . S
C707 C151 1.758 . S
C720 C580 1.911 . S
C718 C200 1.928 . S
C729 C20 1.365 . S
C731 C625 1.375 . S
C742 C540 2.403 . S
C740 C121 2.380 . S
C751 C181 2.181 . S
C753 C482 2.207 . S
C762 C91 1.767 . S
C764 C585 1.748 . S
C775 C505 1.117 . S
C773 C260 1.055 . S
C784 C320 1.201 . S
C786 C524 1.303 . S
C795 C361 2.578 . S
C797 C562 2.530 . S
C806 C451 2.397 . S
C808 C602 2.371 . S
C817 C271 1.350 . S
C819 C522 1.499 . S
C830 C500 2.263 . S
C828 C301 2.123 . S
C841 C631 1.809 . S
C839 C380 1.766 . S
C852 C591 1.912 . S
C850 C440 1.929 . S
C861 C241 1.195 . S
C863 C604 1.376 . S
C874 C551 2.404 . S
C872 C391 2.409 . S
C885 C503 2.205 . S
C883 C421 2.181 . S
C894 C331 1.768 . S
C896 C564 1.750 . S
