# Generated by pormake.
# Topology hwx, (6,3)-cn, num edge types: 1
# Building blocks:
#     Node 0, Type 0, BuildingBlock: OJICUG_clean_sbu_0, # of connection points: 6
#     Node 1, Type 0, BuildingBlock: OJICUG_clean_sbu_0, # of connection points: 6
#     Node 2, Type 0, BuildingBlock: OJICUG_clean_sbu_0, # of connection points: 6
#     Node 3, Type 0, BuildingBlock: OJICUG_clean_sbu_0, # of connection points: 6
#     Node 4, Type 1, BuildingBlock: BELTOD_clean_linker_0, # of connection points: 3
#     Node 5, Type 1, BuildingBlock: BELTOD_clean_linker_0, # of connection points: 3
#     Node 6, Type 1, BuildingBlock: BELTOD_clean_linker_0, # of connection points: 3
#     Node 7, Type 1, BuildingBlock: BELTOD_clean_linker_0, # of connection points: 3
#     Node 8, Type 1, BuildingBlock: BELTOD_clean_linker_0, # of connection points: 3
#     Node 9, Type 1, BuildingBlock: BELTOD_clean_linker_0, # of connection points: 3
#     Node 10, Type 1, BuildingBlock: BELTOD_clean_linker_0, # of connection points: 3
#     Node 11, Type 1, BuildingBlock: BELTOD_clean_linker_0, # of connection points: 3
#     Edge 12, Type (0, 1), BuildingBlock: UVAHIK_clean_linker_0, # of connection points: 2
#     Edge 13, Type (0, 1), BuildingBlock: UVAHIK_clean_linker_0, # of connection points: 2
#     Edge 14, Type (0, 1), BuildingBlock: UVAHIK_clean_linker_0, # of connection points: 2
#     Edge 15, Type (0, 1), BuildingBlock: UVAHIK_clean_linker_0, # of connection points: 2
#     Edge 16, Type (0, 1), BuildingBlock: UVAHIK_clean_linker_0, # of connection points: 2
#     Edge 17, Type (0, 1), BuildingBlock: UVAHIK_clean_linker_0, # of connection points: 2
#     Edge 18, Type (0, 1), BuildingBlock: UVAHIK_clean_linker_0, # of connection points: 2
#     Edge 19, Type (0, 1), BuildingBlock: UVAHIK_clean_linker_0, # of connection points: 2
#     Edge 20, Type (0, 1), BuildingBlock: UVAHIK_clean_linker_0, # of connection points: 2
#     Edge 21, Type (0, 1), BuildingBlock: UVAHIK_clean_linker_0, # of connection points: 2
#     Edge 22, Type (0, 1), BuildingBlock: UVAHIK_clean_linker_0, # of connection points: 2
#     Edge 23, Type (0, 1), BuildingBlock: UVAHIK_clean_linker_0, # of connection points: 2
#     Edge 24, Type (0, 1), BuildingBlock: UVAHIK_clean_linker_0, # of connection points: 2
#     Edge 25, Type (0, 1), BuildingBlock: UVAHIK_clean_linker_0, # of connection points: 2
#     Edge 26, Type (0, 1), BuildingBlock: UVAHIK_clean_linker_0, # of connection points: 2
#     Edge 27, Type (0, 1), BuildingBlock: UVAHIK_clean_linker_0, # of connection points: 2
#     Edge 28, Type (0, 1), BuildingBlock: UVAHIK_clean_linker_0, # of connection points: 2
#     Edge 29, Type (0, 1), BuildingBlock: UVAHIK_clean_linker_0, # of connection points: 2
#     Edge 30, Type (0, 1), BuildingBlock: UVAHIK_clean_linker_0, # of connection points: 2
#     Edge 31, Type (0, 1), BuildingBlock: UVAHIK_clean_linker_0, # of connection points: 2
#     Edge 32, Type (0, 1), BuildingBlock: UVAHIK_clean_linker_0, # of connection points: 2
#     Edge 33, Type (0, 1), BuildingBlock: UVAHIK_clean_linker_0, # of connection points: 2
#     Edge 34, Type (0, 1), BuildingBlock: UVAHIK_clean_linker_0, # of connection points: 2
#     Edge 35, Type (0, 1), BuildingBlock: UVAHIK_clean_linker_0, # of connection points: 2
# Relax obj value: 0.069
# Max RMSD: 0.096
# Mean RMSD: 0.086
data_MOF--net-hwx--node1-OJICUG_clean_sbu_0--node2-BELTOD_clean_linker_0--edge1-UVAHIK_clean_linker_0
_symmetry_space_group_name_H-M    P1
_symmetry_Int_Tables_number       1
_symmetry_cell_setting            triclinic
loop_
_symmetry_equiv_pos_as_xyz
'x, y, z'
_cell_length_a     71.067685
_cell_length_b     71.086878
_cell_length_c     31.679866
_cell_angle_alpha  89.437224
_cell_angle_beta   90.580543
_cell_angle_gamma 90.022189
loop_
_atom_site_label
_atom_site_type_symbol
_atom_site_fract_x
_atom_site_fract_y
_atom_site_fract_z
_atom_type_partial_charge
Sc0 Sc 0.20604 0.20001 0.04826 0.0
Sc1 Sc 0.17502 0.17232 0.98686 0.0
Sc2 Sc 0.20311 0.20739 0.9391 0.0
O3 O 0.19468 0.1932 0.99141 0.0
C4 C 0.20085 0.24044 0.00682 0.0
C5 C 0.16292 0.19246 0.07155 0.0
C6 C 0.15908 0.20378 0.92293 0.0
C7 C 0.2047 0.15539 0.05403 0.0
C8 C 0.24192 0.20276 0.98819 0.0
C9 C 0.19953 0.16521 0.90508 0.0
O10 O 0.20121 0.22964 0.03903 0.0
O11 O 0.15878 0.18339 0.03831 0.0
O12 O 0.17467 0.21236 0.91959 0.0
O13 O 0.21199 0.17121 0.06268 0.0
O14 O 0.2325 0.20387 0.95396 0.0
O15 O 0.18919 0.15917 0.93485 0.0
O16 O 0.23422 0.20218 0.02422 0.0
O17 O 0.19067 0.15356 0.02901 0.0
O18 O 0.20486 0.18224 0.90225 0.0
O19 O 0.17939 0.1985 0.07955 0.0
O20 O 0.20227 0.23436 0.96939 0.0
O21 O 0.15712 0.18859 0.94409 0.0
Sc22 Sc 0.27557 0.71185 0.46314 0.0
Sc23 Sc 0.31128 0.68825 0.52138 0.0
Sc24 Sc 0.27612 0.71377 0.5739 0.0
O25 O 0.28767 0.70457 0.51945 0.0
C26 C 0.2731 0.75013 0.51407 0.0
C27 C 0.31934 0.7144 0.44123 0.0
C28 C 0.32009 0.71826 0.59315 0.0
C29 C 0.28646 0.66896 0.44864 0.0
C30 C 0.2393 0.70464 0.51993 0.0
C31 C 0.28783 0.67175 0.59903 0.0
O32 O 0.2739 0.74114 0.47962 0.0
O33 O 0.32501 0.7043 0.47218 0.0
O34 O 0.30291 0.7223 0.59883 0.0
O35 O 0.27637 0.6834 0.44109 0.0
O36 O 0.24792 0.70647 0.55496 0.0
O37 O 0.30034 0.67031 0.57078 0.0
O38 O 0.24741 0.70657 0.48461 0.0
O39 O 0.29967 0.66871 0.47611 0.0
O40 O 0.27808 0.68655 0.60378 0.0
O41 O 0.30207 0.71791 0.43418 0.0
O42 O 0.27325 0.74205 0.55005 0.0
O43 O 0.32545 0.70601 0.56684 0.0
Sc44 Sc 0.76228 0.76331 0.9431 0.0
Sc45 Sc 0.79222 0.79483 0.99636 0.0
Sc46 Sc 0.7649 0.76249 0.05449 0.0
O47 O 0.77313 0.77355 0.99799 0.0
C48 C 0.72621 0.76411 0.00234 0.0
C49 C 0.76388 0.80733 0.92246 0.0
C50 C 0.76699 0.80644 0.07465 0.0
C51 C 0.80548 0.76933 0.91978 0.0
C52 C 0.76801 0.72574 0.99793 0.0
C53 C 0.80882 0.76876 0.07062 0.0
O54 O 0.73393 0.76409 0.96631 0.0
O55 O 0.77646 0.81078 0.95011 0.0
O56 O 0.76126 0.7898 0.08222 0.0
O57 O 0.78952 0.76161 0.91408 0.0
O58 O 0.76772 0.73395 0.03338 0.0
O59 O 0.81034 0.7814 0.04223 0.0
O60 O 0.76611 0.73451 0.96299 0.0
O61 O 0.80849 0.78153 0.94814 0.0
O62 O 0.79334 0.76053 0.07861 0.0
O63 O 0.75734 0.79092 0.91643 0.0
O64 O 0.73557 0.76339 0.03675 0.0
O65 O 0.77802 0.81041 0.0445 0.0
Sc66 Sc 0.71346 0.27624 0.55373 0.0
Sc67 Sc 0.69059 0.31455 0.50316 0.0
Sc68 Sc 0.71133 0.27867 0.44298 0.0
O69 O 0.70508 0.28983 0.49998 0.0
C70 C 0.74946 0.27214 0.49523 0.0
C71 C 0.72028 0.31922 0.57856 0.0
C72 C 0.71812 0.32263 0.4262 0.0
C73 C 0.67207 0.28983 0.57691 0.0
C74 C 0.70183 0.24154 0.49576 0.0
C75 C 0.66955 0.29355 0.42709 0.0
O76 O 0.74171 0.27264 0.53122 0.0
O77 O 0.70899 0.32608 0.55109 0.0
O78 O 0.72015 0.30532 0.41775 0.0
O79 O 0.68607 0.27881 0.58138 0.0
O80 O 0.7034 0.2506 0.46124 0.0
O81 O 0.67035 0.30598 0.45571 0.0
O82 O 0.70506 0.24893 0.53144 0.0
O83 O 0.67177 0.30341 0.55038 0.0
O84 O 0.68314 0.28254 0.41937 0.0
O85 O 0.72306 0.30167 0.58294 0.0
O86 O 0.74026 0.27382 0.46077 0.0
O87 O 0.70798 0.32831 0.4564 0.0
P88 P 0.28218 0.48449 0.0281 0.0
H89 H 0.30591 0.49095 0.10263 0.0
H90 H 0.30267 0.51152 0.16315 0.0
H91 H 0.24853 0.53012 0.11513 0.0
H92 H 0.25233 0.51002 0.05364 0.0
H93 H 0.27527 0.4552 0.96691 0.0
H94 H 0.25481 0.42764 0.96691 0.0
H95 H 0.23027 0.44592 0.08397 0.0
H96 H 0.25138 0.47283 0.08472 0.0
H97 H 0.31056 0.50699 0.98608 0.0
H98 H 0.25121 0.49595 0.97129 0.0
O99 O 0.30331 0.47427 0.02996 0.0
H100 H 0.30916 0.52951 0.92747 0.0
H101 H 0.2496 0.51874 0.91279 0.0
C102 C 0.27937 0.49902 0.07369 0.0
C103 C 0.29334 0.49944 0.10513 0.0
C104 C 0.29138 0.51112 0.13999 0.0
C105 C 0.2753 0.52248 0.14419 0.0
C106 C 0.26121 0.52179 0.11268 0.0
C107 C 0.2633 0.51025 0.07761 0.0
C108 C 0.26487 0.46607 0.02567 0.0
C109 C 0.26529 0.45336 0.99225 0.0
C110 C 0.25345 0.43768 0.99217 0.0
C111 C 0.24088 0.43448 0.02556 0.0
C112 C 0.23996 0.44777 0.0581 0.0
C113 C 0.25196 0.46333 0.05834 0.0
C114 C 0.28109 0.49956 0.98235 0.0
C115 C 0.29726 0.50926 0.96981 0.0
C116 C 0.2964 0.52226 0.93658 0.0
C117 C 0.27925 0.52593 0.91554 0.0
C118 C 0.26305 0.51603 0.92801 0.0
C119 C 0.26395 0.50303 0.96141 0.0
P120 P 0.98902 0.76656 0.50105 0.0
H121 H 0.996 0.76079 0.59123 0.0
H122 H 0.97512 0.7542 0.65065 0.0
H123 H 0.92743 0.75395 0.56491 0.0
H124 H 0.94824 0.76031 0.50605 0.0
H125 H 0.02615 0.77414 0.46792 0.0
H126 H 0.05556 0.75638 0.46939 0.0
H127 H 0.02803 0.71111 0.53668 0.0
H128 H -0.00148 0.72898 0.53484 0.0
H129 H 0.97701 0.79186 0.43251 0.0
H130 H 0.97523 0.73243 0.46088 0.0
O131 O 0.9945 0.7893 0.50524 0.0
H132 H 0.95879 0.78668 0.36797 0.0
H133 H 0.957 0.72708 0.39594 0.0
C134 C 0.97377 0.76055 0.5441 0.0
C135 C 0.98108 0.75903 0.58525 0.0
C136 C 0.96913 0.75538 0.61916 0.0
C137 C 0.94964 0.75337 0.6124 0.0
C138 C 0.94241 0.75497 0.57106 0.0
C139 C 0.95435 0.75866 0.53729 0.0
C140 C 0.01037 0.7531 0.50236 0.0
C141 C 0.02646 0.76041 0.48307 0.0
C142 C 0.04319 0.75017 0.48358 0.0
C143 C 0.04408 0.73239 0.50329 0.0
C144 C 0.02778 0.72488 0.52174 0.0
C145 C 0.01096 0.7351 0.52083 0.0
C146 C 0.97744 0.76251 0.45134 0.0
C147 C 0.97293 0.77765 0.42451 0.0
C148 C 0.96259 0.77465 0.3875 0.0
C149 C 0.95648 0.75647 0.37689 0.0
C150 C 0.96141 0.74126 0.40347 0.0
C151 C 0.97189 0.74427 0.44037 0.0
P152 P 0.83657 0.46714 0.00379 0.0
H153 H 0.85342 0.44659 0.93371 0.0
H154 H 0.8397 0.42914 0.87474 0.0
H155 H 0.78397 0.44204 0.91941 0.0
H156 H 0.79778 0.4596 0.978 0.0
H157 H 0.8421 0.49762 0.06298 0.0
H158 H 0.8335 0.53091 0.06129 0.0
H159 H 0.80862 0.52371 0.93735 0.0
H160 H 0.81797 0.49079 0.93857 0.0
H161 H 0.85125 0.43793 0.06058 0.0
H162 H 0.80212 0.47335 0.0515 0.0
O163 O 0.85998 0.46541 0.00351 0.0
H164 H 0.83851 0.4227 0.12361 0.0
H165 H 0.78897 0.45783 0.11364 0.0
C166 C 0.8266 0.45432 0.96028 0.0
C167 C 0.83826 0.44566 0.93083 0.0
C168 C 0.83041 0.43564 0.89721 0.0
C169 C 0.81076 0.43423 0.89243 0.0
C170 C 0.79915 0.44305 0.92196 0.0
C171 C 0.80702 0.45295 0.95566 0.0
C172 C 0.83043 0.49167 0.00126 0.0
C173 C 0.83484 0.50328 0.03542 0.0
C174 C 0.82979 0.52226 0.03451 0.0
C175 C 0.82022 0.52998 -0.00068 0.0
C176 C 0.81612 0.51831 0.96481 0.0
C177 C 0.8213 0.49936 0.96566 0.0
C178 C 0.82776 0.45694 0.05182 0.0
C179 C 0.83778 0.44252 0.07237 0.0
C180 C 0.83039 0.43372 0.10819 0.0
C181 C 0.81269 0.43903 0.12373 0.0
C182 C 0.80276 0.4536 0.10303 0.0
C183 C 0.81022 0.46243 0.06733 0.0
P184 P 0.01371 0.30659 0.48344 0.0
H185 H 0.01868 0.31354 0.39337 0.0
H186 H 0.03438 0.29575 0.3379 0.0
H187 H 0.04957 0.25282 0.42951 0.0
H188 H 0.03401 0.27058 0.48451 0.0
H189 H 0.98217 0.32652 0.51974 0.0
H190 H 0.9482 0.32068 0.51924 0.0
H191 H 0.95664 0.27197 0.44111 0.0
H192 H 0.99045 0.27792 0.44158 0.0
H193 H 0.04719 0.31665 0.53174 0.0
H194 H -0.00041 0.2796 0.54645 0.0
O195 O 0.01813 0.32947 0.47669 0.0
H196 H 0.06066 0.30469 0.59798 0.0
H197 H 0.01268 0.26793 0.61325 0.0
C198 C 0.0256 0.29363 0.44317 0.0
C199 C 0.02552 0.30035 0.40145 0.0
C200 C 0.03433 0.29011 0.36978 0.0
C201 C 0.04332 0.27297 0.37947 0.0
C202 C 0.04305 0.26614 0.42125 0.0
C203 C 0.03415 0.27632 0.45276 0.0
C204 C 0.98874 0.30289 0.48006 0.0
C205 C 0.97664 0.31472 0.50212 0.0
C206 C 0.95729 0.31128 0.50209 0.0
C207 C 0.94978 0.2959 0.48002 0.0
C208 C 0.96199 0.2841 0.45784 0.0
C209 C 0.98134 0.28749 0.4581 0.0
C210 C 0.02225 0.29931 0.53466 0.0
C211 C 0.03945 0.30624 0.54974 0.0
C212 C 0.04709 0.29942 0.58769 0.0
C213 C 0.03768 0.28541 0.61108 0.0
C214 C 0.02033 0.27862 0.59591 0.0
C215 C 0.01273 0.28544 0.55789 0.0
P216 P 0.7586 0.99041 0.49356 0.0
H217 H 0.78006 0.98291 0.41716 0.0
H218 H 0.77497 0.96142 0.35867 0.0
H219 H 0.72117 0.9455 0.41069 0.0
H220 H 0.72671 0.96662 0.46994 0.0
H221 H 0.75934 0.02259 0.54865 0.0
H222 H 0.74177 0.05203 0.54919 0.0
H223 H 0.70752 0.03257 0.44476 0.0
H224 H 0.72567 0.0035 0.44343 0.0
H225 H 0.78411 0.96539 0.53905 0.0
H226 H 0.72606 0.98245 0.54721 0.0
O227 O 0.78094 0.99764 0.49244 0.0
H228 H 0.77966 0.9432 0.59731 0.0
H229 H 0.7213 0.95986 0.605 0.0
C230 C 0.75384 0.97621 0.44805 0.0
C231 C 0.76712 0.97489 0.41586 0.0
C232 C 0.76411 0.96268 0.38219 0.0
C233 C 0.74768 0.95165 0.38001 0.0
C234 C 0.73411 0.95354 0.41174 0.0
C235 C 0.73721 0.96567 0.44553 0.0
C236 C 0.74396 0.01097 0.49581 0.0
C237 C 0.74795 0.02463 0.52609 0.0
C238 C 0.73775 0.0414 0.52659 0.0
C239 C 0.72322 0.04472 0.49692 0.0
C240 C 0.71879 0.03059 0.46763 0.0
C241 C 0.72912 0.01387 0.46701 0.0
C242 C 0.75552 0.97577 0.53945 0.0
C243 C 0.77045 0.9645 0.55377 0.0
C244 C 0.76781 0.95167 0.58677 0.0
C245 C 0.75008 0.94968 0.60565 0.0
C246 C 0.73518 0.96121 0.59148 0.0
C247 C 0.73787 0.97411 0.55846 0.0
P248 P 0.48585 0.29037 0.99617 0.0
H249 H 0.48101 0.29637 0.90586 0.0
H250 H 0.50176 0.29171 0.84569 0.0
H251 H 0.545 0.27038 0.93035 0.0
H252 H 0.52407 0.27458 0.98987 0.0
H253 H 0.45136 0.28984 0.04392 0.0
H254 H 0.42384 0.26927 0.0431 0.0
H255 H 0.45071 0.23401 0.95109 0.0
H256 H 0.47816 0.25479 0.95185 0.0
H257 H 0.50535 0.31906 0.04492 0.0
H258 H 0.49547 0.25931 0.05392 0.0
O259 O 0.47686 0.31193 0.99023 0.0
H260 H 0.52463 0.31765 0.10911 0.0
H261 H 0.51466 0.25779 0.11857 0.0
C262 C 0.5011 0.28612 0.95232 0.0
C263 C 0.49495 0.29064 0.91133 0.0
C264 C 0.50684 0.28802 0.87703 0.0
C265 C 0.5251 0.2808 0.88322 0.0
C266 C 0.53098 0.2758 0.92437 0.0
C267 C 0.51905 0.27837 0.95859 0.0
C268 C 0.46658 0.27404 0.99741 0.0
C269 C 0.45136 0.27761 0.02379 0.0
C270 C 0.43572 0.26574 0.02354 0.0
C271 C 0.43508 0.25004 0.99689 0.0
C272 C 0.4507 0.24614 0.97153 0.0
C273 C 0.4664 0.25801 0.97195 0.0
C274 C 0.49872 0.28936 0.04523 0.0
C275 C 0.50708 0.30568 0.06116 0.0
C276 C 0.51806 0.30486 0.09792 0.0
C277 C 0.52105 0.28763 0.11908 0.0
C278 C 0.51265 0.27126 0.1029 0.0
C279 C 0.50158 0.27212 0.06619 0.0
P280 P 0.31237 0.01439 0.48653 0.0
H281 H 0.32359 0.04711 0.53576 0.0
H282 H 0.30806 0.06476 0.59131 0.0
H283 H 0.26044 0.02704 0.58413 0.0
H284 H 0.27623 0.00927 0.52925 0.0
H285 H 0.31132 0.98518 0.42248 0.0
H286 H 0.30614 0.95133 0.42602 0.0
H287 H 0.29978 0.95479 0.56141 0.0
H288 H 0.30608 0.98846 0.55772 0.0
H289 H 0.32994 0.02864 0.40917 0.0
H290 H 0.27385 0.01871 0.45497 0.0
O291 O 0.33553 0.01819 0.48866 0.0
H292 H 0.31691 0.03991 0.34192 0.0
H293 H 0.26067 0.03062 0.38868 0.0
C294 C 0.30123 0.02668 0.52896 0.0
C295 C 0.30991 0.04252 0.5465 0.0
C296 C 0.30094 0.05268 0.57801 0.0
C297 C 0.28303 0.04727 0.59224 0.0
C298 C 0.27436 0.03139 0.57441 0.0
C299 C 0.28335 0.02127 0.54288 0.0
C300 C 0.30841 0.98944 0.48966 0.0
C301 C 0.30872 0.97866 0.4529 0.0
C302 C 0.30565 0.95928 0.45497 0.0
C303 C 0.30222 0.95029 0.49392 0.0
C304 C 0.30245 0.96115 0.53086 0.0
C305 C 0.30579 0.9805 0.52877 0.0
C306 C 0.30285 0.02321 0.43738 0.0
C307 C 0.31482 0.02909 0.40496 0.0
C308 C 0.30732 0.03557 0.36652 0.0
C309 C 0.28772 0.03628 0.3599 0.0
C310 C 0.27582 0.03009 0.39243 0.0
C311 C 0.28334 0.02351 0.43067 0.0
P312 P 0.46775 0.82997 0.01841 0.0
H313 H 0.46367 0.83879 0.10774 0.0
H314 H 0.44706 0.823 0.16568 0.0
H315 H 0.42873 0.77968 0.07984 0.0
H316 H 0.44533 0.79538 0.02246 0.0
H317 H 0.50151 0.848 0.98587 0.0
H318 H 0.53466 0.83855 0.98555 0.0
H319 H 0.52055 0.78776 0.05425 0.0
H320 H 0.48757 0.79725 0.0545 0.0
H321 H 0.43047 0.83575 0.98254 0.0
H322 H 0.48212 0.80904 0.9453 0.0
O323 O 0.46581 0.85322 0.02355 0.0
H324 H 0.41489 0.82413 0.91896 0.0
H325 H 0.46692 0.79804 0.88087 0.0
C326 C 0.45525 0.81857 0.06062 0.0
C327 C 0.45595 0.82596 0.10144 0.0
C328 C 0.4466 0.81687 0.13452 0.0
C329 C 0.43644 0.80023 0.12712 0.0
C330 C 0.43613 0.79268 0.08628 0.0
C331 C 0.44559 0.80169 0.05342 0.0
C332 C 0.49219 0.82355 0.02102 0.0
C333 C 0.50563 0.83495 0.00129 0.0
C334 C 0.5245 0.82947 0.00082 0.0
C335 C 0.53019 0.81246 0.02008 0.0
C336 C 0.51663 0.80108 0.03979 0.0
C337 C 0.49776 0.80651 0.03994 0.0
C338 C 0.45743 0.82334 0.96862 0.0
C339 C 0.43855 0.82771 0.96019 0.0
C340 C 0.4297 0.82112 0.92366 0.0
C341 C 0.43964 0.81011 0.89466 0.0
C342 C 0.45876 0.80623 0.90276 0.0
C343 C 0.46754 0.81269 0.93953 0.0
C344 C 0.129 0.19783 0.08961 0.0
C345 C 0.148 0.1967 0.10222 0.0
C346 C 0.11527 0.20345 0.11828 0.0
C347 C 0.10576 0.20787 0.23175 0.0
H348 H 0.07468 0.25054 0.19926 0.0
C349 C 0.07114 0.25468 0.35492 0.0
C350 C 0.05328 0.26234 0.34641 0.0
C351 C 0.08068 0.24475 0.32399 0.0
C352 C 0.08296 0.23839 0.20866 0.0
H353 H 0.16738 0.19979 0.15509 0.0
H354 H 0.14346 0.20928 0.20497 0.0
H355 H 0.0946 0.23568 0.14686 0.0
H356 H 0.03127 0.2654 0.29897 0.0
H357 H 0.04789 0.24784 0.24485 0.0
H358 H 0.09436 0.2106 0.29355 0.0
C359 C 0.13917 0.20592 0.17301 0.0
C360 C 0.09437 0.2299 0.17862 0.0
C361 C 0.15288 0.20062 0.14433 0.0
C362 C 0.04512 0.25981 0.30626 0.0
C363 C 0.05464 0.24976 0.2753 0.0
C364 C 0.09425 0.21624 0.26166 0.0
C365 C 0.12028 0.20766 0.16016 0.0
C366 C 0.10623 0.21487 0.19018 0.0
C367 C 0.07255 0.24212 0.28381 0.0
C368 C 0.0831 0.23193 0.25079 0.0
H369 H 0.12484 0.19495 0.05732 0.0
H370 H 0.10078 0.20463 0.10767 0.0
H371 H 0.11459 0.19613 0.24133 0.0
H372 H 0.07792 0.25666 0.38533 0.0
H373 H 0.09463 0.23947 0.33138 0.0
C374 C 0.29613 0.63955 0.62697 0.0
C375 C 0.28472 0.65569 0.62839 0.0
C376 C 0.29372 0.62487 0.65612 0.0
C377 C 0.27539 0.61588 0.76254 0.0
H378 H 0.28069 0.56343 0.73225 0.0
C379 C 0.28772 0.55771 0.88679 0.0
C380 C 0.27826 0.54051 0.88173 0.0
C381 C 0.28708 0.57143 0.85504 0.0
C382 C 0.27898 0.57801 0.74112 0.0
H383 H 0.26134 0.66867 0.66081 0.0
H384 H 0.2571 0.64304 0.71121 0.0
H385 H 0.28171 0.58775 0.67725 0.0
H386 H 0.26067 0.52422 0.83938 0.0
H387 H 0.25939 0.54837 0.78384 0.0
H388 H 0.27259 0.6062 0.82628 0.0
C389 C 0.26812 0.64189 0.68802 0.0
C390 C 0.27977 0.59194 0.7097 0.0
C391 C 0.27052 0.65656 0.65896 0.0
C392 C 0.26801 0.53738 0.84427 0.0
C393 C 0.26743 0.55112 0.81235 0.0
C394 C 0.27464 0.60198 0.79389 0.0
C395 C 0.27984 0.62599 0.68731 0.0
C396 C 0.27813 0.61104 0.72013 0.0
C397 C 0.27697 0.5683 0.81743 0.0
C398 C 0.27664 0.58291 0.78362 0.0
H399 H 0.30719 0.63838 0.60387 0.0
H400 H 0.30311 0.61289 0.65498 0.0
H401 H 0.27427 0.63047 0.77173 0.0
H402 H 0.29555 0.56064 0.9155 0.0
H403 H 0.29476 0.58442 0.85975 0.0
C404 C 0.84326 0.77201 0.08654 0.0
C405 C 0.82572 0.76399 0.09636 0.0
C406 C 0.85893 0.76873 0.11242 0.0
C407 C 0.87797 0.73818 0.19801 0.0
H408 H 0.90682 0.7827 0.22633 0.0
C409 C 0.92773 0.74263 0.34297 0.0
C410 C 0.94404 0.7537 0.33964 0.0
C411 C 0.91484 0.74175 0.30946 0.0
C412 C 0.89917 0.77004 0.21821 0.0
H413 H 0.81115 0.74561 0.14037 0.0
H414 H 0.83852 0.74012 0.18585 0.0
H415 H 0.88138 0.78502 0.17482 0.0
H416 H 0.96025 0.77156 0.29777 0.0
H417 H 0.93785 0.7699 0.23904 0.0
H418 H 0.89565 0.7233 0.24218 0.0
C419 C 0.84014 0.7488 0.15785 0.0
C420 C 0.88455 0.77138 0.18868 0.0
C421 C 0.82442 0.75206 0.13189 0.0
C422 C 0.94764 0.76317 0.30145 0.0
C423 C 0.9348 0.76223 0.26788 0.0
C424 C 0.89267 0.73683 0.2276 0.0
C425 C 0.85747 0.7574 0.1488 0.0
C426 C 0.87367 0.75551 0.17848 0.0
C427 C 0.91803 0.75189 0.27187 0.0
C428 C 0.90332 0.7528 0.23829 0.0
H429 H 0.84486 0.7811 0.05918 0.0
H430 H 0.87218 0.77529 0.10419 0.0
H431 H 0.86997 0.72567 0.19043 0.0
H432 H 0.92448 0.73534 0.37219 0.0
H433 H 0.90197 0.73383 0.31377 0.0
C434 C 0.72485 0.35087 0.612 0.0
C435 C 0.73052 0.33206 0.60736 0.0
C436 C 0.73401 0.36255 0.64101 0.0
C437 C 0.76398 0.35991 0.73726 0.0
H438 H 0.77303 0.41278 0.71394 0.0
C439 C 0.80963 0.40559 0.84692 0.0
C440 C 0.80236 0.42332 0.85726 0.0
C441 C 0.80127 0.39495 0.81499 0.0
C442 C 0.77046 0.39806 0.72097 0.0
H443 H 0.7508 0.31104 0.62831 0.0
H444 H 0.76695 0.33142 0.6779 0.0
H445 H 0.75777 0.39333 0.66039 0.0
H446 H 0.78098 0.44403 0.84143 0.0
H447 H 0.7663 0.42537 0.78569 0.0
H448 H 0.77678 0.36459 0.79765 0.0
C449 C 0.7551 0.33705 0.66012 0.0
C450 C 0.76169 0.38693 0.69036 0.0
C451 C 0.74587 0.32537 0.63146 0.0
C452 C 0.78677 0.43033 0.83443 0.0
C453 C 0.77848 0.41974 0.80227 0.0
C454 C 0.77284 0.37099 0.76767 0.0
C455 C 0.74912 0.35569 0.66577 0.0
C456 C 0.75838 0.36769 0.69812 0.0
C457 C 0.78553 0.40185 0.79252 0.0
C458 C 0.7762 0.39017 0.75987 0.0
H459 H 0.71305 0.35646 0.59399 0.0
H460 H 0.72893 0.37678 0.6448 0.0
H461 H 0.76129 0.34526 0.74474 0.0
H462 H 0.82154 0.39975 0.86415 0.0
H463 H 0.80713 0.38129 0.80789 0.0
C464 C 0.63741 0.30499 0.4051 0.0
C465 C 0.65217 0.29196 0.40106 0.0
C466 C 0.6214 0.30383 0.37925 0.0
C467 C 0.59487 0.27167 0.30932 0.0
H468 H 0.5775 0.31775 0.25533 0.0
C469 C 0.54709 0.27243 0.16108 0.0
C470 C 0.53354 0.28673 0.15685 0.0
C471 C 0.55984 0.27242 0.19493 0.0
C472 C 0.58193 0.30479 0.27067 0.0
H473 H 0.66137 0.26721 0.36726 0.0
H474 H 0.63356 0.26534 0.32219 0.0
H475 H 0.60286 0.31898 0.30748 0.0
H476 H 0.52214 0.31171 0.18582 0.0
H477 H 0.54432 0.31161 0.24513 0.0
H478 H 0.57411 0.25744 0.27203 0.0
C479 C 0.6343 0.27635 0.34555 0.0
C480 C 0.59649 0.3055 0.30055 0.0
C481 C 0.65033 0.27753 0.37122 0.0
C482 C 0.53263 0.30067 0.1879 0.0
C483 C 0.54534 0.30063 0.22182 0.0
C484 C 0.58028 0.27096 0.27949 0.0
C485 C 0.61974 0.28958 0.34898 0.0
C486 C 0.6033 0.28893 0.31977 0.0
C487 C 0.55929 0.28667 0.22538 0.0
C488 C 0.57381 0.28748 0.2594 0.0
H489 H 0.63831 0.31623 0.42782 0.0
H490 H 0.61031 0.31412 0.38291 0.0
H491 H 0.59964 0.25869 0.32408 0.0
H492 H 0.5483 0.26163 0.13739 0.0
H493 H 0.57057 0.2616 0.19637 0.0
C494 C 0.21578 0.15875 0.83705 0.0
C495 C 0.20598 0.15195 0.8724 0.0
C496 C 0.22239 0.14643 0.80661 0.0
C497 C 0.23639 0.0974 0.79089 0.0
H498 H 0.2331 0.11142 0.67241 0.0
C499 C 0.26316 0.04942 0.65723 0.0
C500 C 0.27322 0.0584 0.62477 0.0
C501 C 0.25375 0.05997 0.68747 0.0
C502 C 0.23426 0.10737 0.70538 0.0
H503 H 0.19536 0.12675 0.9032 0.0
H504 H 0.20694 0.10517 0.84972 0.0
H505 H 0.21839 0.13125 0.72499 0.0
H506 H 0.28112 0.08552 0.59842 0.0
H507 H 0.26505 0.10389 0.65153 0.0
H508 H 0.25253 0.07366 0.77125 0.0
C509 C 0.20955 0.1201 0.84588 0.0
C510 C 0.22581 0.11871 0.73549 0.0
C511 C 0.20283 0.13247 0.87637 0.0
C512 C 0.27368 0.07816 0.62326 0.0
C513 C 0.26425 0.08869 0.6534 0.0
C514 C 0.24488 0.08604 0.76072 0.0
C515 C 0.21941 0.12697 0.8107 0.0
C516 C 0.22703 0.11402 0.77862 0.0
C517 C 0.25414 0.07974 0.68578 0.0
C518 C 0.24415 0.09107 0.71769 0.0
H519 H 0.2185 0.17365 0.83286 0.0
H520 H 0.23018 0.15215 0.78022 0.0
H521 H 0.23773 0.09352 0.82393 0.0
H522 H 0.26269 0.03421 0.65947 0.0
H523 H 0.24598 0.05266 0.71187 0.0
C524 C 0.32725 0.72828 0.37092 0.0
C525 C 0.33325 0.72214 0.41118 0.0
C526 C 0.34012 0.73545 0.34202 0.0
C527 C 0.3851 0.75919 0.33269 0.0
H528 H 0.38263 0.74168 0.2172 0.0
C529 C 0.43423 0.78795 0.20159 0.0
C530 C 0.42595 0.7908 0.16157 0.0
C531 C 0.42435 0.7786 0.23352 0.0
C532 C 0.38339 0.74688 0.24919 0.0
H533 H 0.35749 0.71893 0.45279 0.0
H534 H 0.38005 0.73188 0.40207 0.0
H535 H 0.36285 0.72703 0.27056 0.0
H536 H 0.40066 0.78669 0.12399 0.0
H537 H 0.38331 0.77078 0.17964 0.0
H538 H 0.40515 0.77951 0.31107 0.0
C539 C 0.36533 0.73095 0.3931 0.0
C540 C 0.37214 0.7384 0.27976 0.0
C541 C 0.35245 0.72348 0.42197 0.0
C542 C 0.40752 0.7844 0.1543 0.0
C543 C 0.39762 0.77521 0.18619 0.0
C544 C 0.39627 0.76783 0.30195 0.0
C545 C 0.35926 0.73687 0.35276 0.0
C546 C 0.37263 0.74468 0.32162 0.0
C547 C 0.40594 0.77203 0.2261 0.0
C548 C 0.39528 0.762 0.25965 0.0
H549 H 0.31259 0.72741 0.36146 0.0
H550 H 0.33503 0.74012 0.3113 0.0
H551 H 0.38565 0.76436 0.36474 0.0
H552 H 0.44848 0.79262 0.20793 0.0
H553 H 0.43125 0.77624 0.26374 0.0
C554 C 0.74276 0.82021 0.86502 0.0
C555 C 0.75734 0.82296 0.89466 0.0
C556 C 0.73778 0.8345 0.83642 0.0
C557 C 0.74437 0.88557 0.81269 0.0
H558 H 0.73803 0.86969 0.6967 0.0
C559 C 0.73633 0.9391 0.67485 0.0
C560 C 0.74714 0.9352 0.63904 0.0
C561 C 0.73416 0.92553 0.70672 0.0
C562 C 0.73979 0.87437 0.72893 0.0
H563 H 0.77762 0.84323 0.91842 0.0
H564 H 0.76926 0.86786 0.86815 0.0
H565 H 0.74048 0.84615 0.75265 0.0
H566 H 0.76352 0.91375 0.60791 0.0
H567 H 0.76022 0.89039 0.66376 0.0
H568 H 0.74476 0.91378 0.78856 0.0
C569 C 0.76142 0.8548 0.86734 0.0
C570 C 0.74094 0.86087 0.76114 0.0
C571 C 0.76633 0.84058 0.89605 0.0
C572 C 0.75536 0.91733 0.6354 0.0
C573 C 0.75322 0.90382 0.66717 0.0
C574 C 0.74333 0.89909 0.78041 0.0
C575 C 0.74732 0.85184 0.83668 0.0
C576 C 0.74368 0.86628 0.80332 0.0
C577 C 0.7427 0.90777 0.70336 0.0
C578 C 0.74148 0.89361 0.73805 0.0
H579 H 0.7354 0.80689 0.86333 0.0
H580 H 0.72664 0.83186 0.81366 0.0
H581 H 0.74618 0.89024 0.84492 0.0
H582 H 0.72988 0.95277 0.67867 0.0
H583 H 0.72584 0.92896 0.73403 0.0
C584 C 0.81867 0.7506 0.86013 0.0
C585 C 0.82119 0.76416 0.89174 0.0
C586 C 0.83329 0.74633 0.83266 0.0
C587 C 0.88481 0.75102 0.81817 0.0
H588 H 0.8719 0.74843 0.69917 0.0
C589 C 0.93885 0.76116 0.68528 0.0
C590 C 0.93667 0.75057 0.64832 0.0
C591 C 0.92557 0.75993 0.71738 0.0
C592 C 0.87573 0.74877 0.73233 0.0
H593 H 0.8413 0.78351 0.91976 0.0
H594 H 0.8666 0.77624 0.87152 0.0
H595 H 0.84704 0.75159 0.75084 0.0
H596 H 0.91946 0.72959 0.6171 0.0
H597 H 0.89626 0.72743 0.67321 0.0
H598 H 0.91358 0.74866 0.7994 0.0
C599 C 0.85341 0.76874 0.86831 0.0
C600 C 0.86147 0.75059 0.76197 0.0
C601 C 0.83882 0.77301 0.89579 0.0
C602 C 0.92134 0.73817 0.6449 0.0
C603 C 0.90806 0.73693 0.677 0.0
C604 C 0.89909 0.74922 0.78849 0.0
C605 C 0.85075 0.7555 0.83616 0.0
C606 C 0.86586 0.75201 0.80517 0.0
C607 C 0.90983 0.74808 0.71322 0.0
C608 C 0.89472 0.74833 0.74519 0.0
H609 H 0.80535 0.74339 0.85627 0.0
H610 H 0.83088 0.73587 0.80855 0.0
H611 H 0.88862 0.75178 0.8513 0.0
H612 H 0.95039 0.771 0.68865 0.0
H613 H 0.92722 0.76888 0.74465 0.0
C614 C 0.74101 0.33026 0.36909 0.0
C615 C 0.72838 0.33654 0.39982 0.0
C616 C 0.7509 0.34306 0.3442 0.0
C617 C 0.74979 0.3913 0.30267 0.0
H618 H 0.80182 0.38054 0.27595 0.0
C619 C 0.79397 0.4386 0.19084 0.0
C620 C 0.8043 0.4289 0.16027 0.0
C621 C 0.78552 0.42886 0.22424 0.0
C622 C 0.78728 0.3837 0.28298 0.0
H623 H 0.7163 0.36135 0.42832 0.0
H624 H 0.73368 0.3838 0.38444 0.0
H625 H 0.78546 0.3609 0.32728 0.0
H626 H 0.81364 0.40129 0.14075 0.0
H627 H 0.79912 0.3844 0.19902 0.0
H628 H 0.75156 0.41391 0.25762 0.0
C629 C 0.73579 0.36888 0.37975 0.0
C630 C 0.77791 0.37247 0.31238 0.0
C631 C 0.72589 0.35602 0.40494 0.0
C632 C 0.80613 0.40927 0.16415 0.0
C633 C 0.79778 0.39957 0.19756 0.0
C634 C 0.7592 0.40258 0.2732 0.0
C635 C 0.74847 0.3625 0.34923 0.0
C636 C 0.75893 0.37585 0.3218 0.0
C637 C 0.78731 0.40922 0.22789 0.0
C638 C 0.77791 0.39862 0.26234 0.0
H639 H 0.74333 0.31539 0.36412 0.0
H640 H 0.76029 0.33767 0.32046 0.0
H641 H 0.73513 0.39418 0.30906 0.0
H642 H 0.79248 0.45375 0.18909 0.0
H643 H 0.77769 0.4367 0.24735 0.0
C644 C 0.14184 0.23168 0.89493 0.0
C645 C 0.14276 0.21208 0.90042 0.0
C646 C 0.12792 0.23978 0.86941 0.0
C647 C 0.08323 0.2307 0.8109 0.0
H648 H 0.10217 0.27074 0.7389 0.0
C649 C 0.04596 0.25787 0.65801 0.0
C650 C 0.04644 0.27737 0.65003 0.0
C651 C 0.0556 0.25013 0.69273 0.0
C652 C 0.09656 0.25977 0.75916 0.0
H653 H 0.12934 0.18561 0.88529 0.0
H654 H 0.10522 0.19975 0.83919 0.0
H655 H 0.12272 0.25663 0.79189 0.0
H656 H 0.05649 0.30412 0.67371 0.0
H657 H 0.07348 0.29058 0.73398 0.0
H658 H 0.05715 0.23362 0.77665 0.0
C659 C 0.11508 0.20889 0.85528 0.0
C660 C 0.10834 0.25168 0.78969 0.0
C661 C 0.12891 0.20076 0.88155 0.0
C662 C 0.05617 0.28901 0.67846 0.0
C663 C 0.06585 0.28127 0.71302 0.0
C664 C 0.07144 0.23875 0.77996 0.0
C665 C 0.11479 0.22847 0.848 0.0
C666 C 0.10184 0.23709 0.8161 0.0
C667 C 0.06597 0.26172 0.72005 0.0
C668 C 0.07801 0.25341 0.75388 0.0
H669 H 0.15215 0.24077 0.90978 0.0
H670 H 0.12777 0.25494 0.86563 0.0
H671 H 0.07773 0.21959 0.83089 0.0
H672 H 0.03878 0.24847 0.63649 0.0
H673 H 0.0556 0.235 0.69712 0.0
C674 C 0.27151 0.65293 0.38682 0.0
C675 C 0.28298 0.65191 0.4232 0.0
C676 C 0.26891 0.63721 0.36143 0.0
C677 C 0.29118 0.59193 0.33551 0.0
H678 H 0.2443 0.58403 0.27441 0.0
C679 C 0.28031 0.53009 0.2209 0.0
C680 C 0.27359 0.53541 0.18057 0.0
C681 C 0.27984 0.54274 0.25435 0.0
C682 C 0.25746 0.58608 0.29131 0.0
H683 H 0.30018 0.6333 0.46217 0.0
H684 H 0.29529 0.6057 0.41829 0.0
H685 H 0.24631 0.60875 0.32716 0.0
H686 H 0.26083 0.5582 0.14421 0.0
H687 H 0.25965 0.58004 0.20285 0.0
H688 H 0.30227 0.56923 0.29946 0.0
C689 C 0.28866 0.61882 0.4089 0.0
C690 C 0.25866 0.60027 0.32139 0.0
C691 C 0.2914 0.63462 0.43416 0.0
C692 C 0.26585 0.55349 0.17492 0.0
C693 C 0.26521 0.56604 0.20848 0.0
C694 C 0.2899 0.57761 0.30575 0.0
C695 C 0.27755 0.61998 0.37194 0.0
C696 C 0.27566 0.60364 0.34322 0.0
C697 C 0.27244 0.56088 0.24834 0.0
C698 C 0.27315 0.5748 0.28279 0.0
H699 H 0.26487 0.66603 0.37725 0.0
H700 H 0.26056 0.63876 0.33284 0.0
H701 H 0.30457 0.59426 0.35122 0.0
H702 H 0.28601 0.51617 0.22663 0.0
H703 H 0.28533 0.53835 0.28493 0.0
C704 C 0.35177 0.7205 0.6287 0.0
C705 C 0.33428 0.72857 0.6183 0.0
C706 C 0.36447 0.73 0.65506 0.0
C707 C 0.36521 0.76806 0.73458 0.0
H708 H 0.41936 0.76432 0.72344 0.0
C709 C 0.41568 0.81221 0.83583 0.0
C710 C 0.4298 0.80198 0.85736 0.0
C711 C 0.40525 0.80394 0.80335 0.0
C712 C 0.40425 0.76543 0.72688 0.0
H713 H 0.31683 0.75336 0.62506 0.0
H714 H 0.3391 0.77014 0.66938 0.0
H715 H 0.39879 0.74864 0.67232 0.0
H716 H 0.44434 0.77512 0.86052 0.0
H717 H 0.42638 0.7609 0.80311 0.0
H718 H 0.37068 0.78501 0.78874 0.0
C719 C 0.34281 0.7562 0.65885 0.0
C720 C 0.39246 0.75639 0.69778 0.0
C721 C 0.33006 0.74661 0.63321 0.0
C722 C 0.43376 0.78353 0.84433 0.0
C723 C 0.42345 0.77534 0.81151 0.0
C724 C 0.37696 0.77726 0.76321 0.0
C725 C 0.36001 0.74787 0.67097 0.0
C726 C 0.37277 0.75758 0.70131 0.0
C727 C 0.40884 0.78533 0.79132 0.0
C728 C 0.39659 0.77601 0.75974 0.0
H729 H 0.35538 0.7066 0.61766 0.0
H730 H 0.3775 0.72306 0.66397 0.0
H731 H 0.35016 0.76892 0.7391 0.0
H732 H 0.41251 0.82657 0.84437 0.0
H733 H 0.39422 0.81204 0.78786 0.0
C734 C 0.76637 0.84049 0.09481 0.0
C735 C 0.76109 0.82174 0.10309 0.0
C736 C 0.76183 0.85474 0.12301 0.0
C737 C 0.75208 0.86167 0.23486 0.0
H738 H 0.73628 0.91152 0.19853 0.0
C739 C 0.73785 0.91963 0.35542 0.0
C740 C 0.74527 0.93752 0.34611 0.0
C741 C 0.73705 0.90576 0.32455 0.0
C742 C 0.74081 0.89771 0.20915 0.0
H743 H 0.74632 0.80344 0.14696 0.0
H744 H 0.73845 0.82834 0.19605 0.0
H745 H 0.73989 0.88671 0.14641 0.0
H746 H 0.75685 0.95509 0.29637 0.0
H747 H 0.75602 0.93072 0.24291 0.0
H748 H 0.75356 0.87266 0.2973 0.0
C749 C 0.74626 0.83193 0.16791 0.0
C750 C 0.74284 0.88351 0.17931 0.0
C751 C 0.75071 0.81769 0.13964 0.0
C752 C 0.75131 0.94138 0.30479 0.0
C753 C 0.7506 0.92747 0.27396 0.0
C754 C 0.75014 0.87586 0.26462 0.0
C755 C 0.75199 0.85056 0.16018 0.0
C756 C 0.74865 0.86538 0.19185 0.0
C757 C 0.74376 0.90939 0.28369 0.0
C758 C 0.74464 0.8941 0.25212 0.0
H759 H 0.7743 0.84416 0.06692 0.0
H760 H 0.76659 0.86893 0.11638 0.0
H761 H 0.75687 0.84793 0.24542 0.0
H762 H 0.73323 0.91609 0.38698 0.0
H763 H 0.73142 0.89208 0.33294 0.0
C764 C 0.65467 0.2711 0.63152 0.0
C765 C 0.65555 0.28686 0.60442 0.0
C766 C 0.6395 0.26864 0.65868 0.0
C767 C 0.59069 0.28444 0.6786 0.0
H768 H 0.60213 0.26864 0.79354 0.0
C769 C 0.53921 0.29361 0.81659 0.0
C770 C 0.53828 0.27924 0.84731 0.0
C771 C 0.55245 0.29285 0.78439 0.0
C772 C 0.59864 0.27278 0.7614 0.0
H773 H 0.6409 0.31224 0.58422 0.0
H774 H 0.61461 0.30809 0.63211 0.0
H775 H 0.62727 0.27055 0.7421 0.0
H776 H 0.55003 0.25238 0.86717 0.0
H777 H 0.57328 0.25113 0.81107 0.0
H778 H 0.56208 0.28704 0.69835 0.0
C779 C 0.62554 0.29748 0.63189 0.0
C780 C 0.61306 0.27388 0.73188 0.0
C781 C 0.64069 0.29992 0.6046 0.0
C782 C 0.5506 0.26384 0.84444 0.0
C783 C 0.56389 0.2631 0.81229 0.0
C784 C 0.57626 0.28339 0.7082 0.0
C785 C 0.62486 0.28191 0.65954 0.0
C786 C 0.60929 0.27987 0.69022 0.0
C787 C 0.56511 0.27772 0.78224 0.0
C788 C 0.58012 0.2777 0.75001 0.0
H789 H 0.66576 0.26065 0.632 0.0
H790 H 0.63925 0.25632 0.67906 0.0
H791 H 0.58726 0.28882 0.6466 0.0
H792 H 0.53013 0.30581 0.81821 0.0
H793 H 0.55321 0.30445 0.76207 0.0
C794 C 0.20303 0.1217 0.07937 0.0
C795 C 0.21315 0.13857 0.07459 0.0
C796 C 0.21086 0.10656 0.10217 0.0
C797 C 0.25616 0.08833 0.14567 0.0
H798 H 0.22571 0.06801 0.23616 0.0
C799 C 0.28781 0.05979 0.3003 0.0
C800 C 0.27965 0.04397 0.31982 0.0
C801 C 0.27968 0.06774 0.26404 0.0
C802 C 0.23431 0.07324 0.21057 0.0
H803 H 0.23976 0.15242 0.08808 0.0
H804 H 0.25322 0.1263 0.12752 0.0
H805 H 0.21118 0.08817 0.18222 0.0
H806 H 0.25688 0.0237 0.3154 0.0
H807 H 0.24248 0.03787 0.25237 0.0
H808 H 0.27944 0.07409 0.17504 0.0
C809 C 0.23931 0.12462 0.11374 0.0
C810 C 0.22597 0.08476 0.17961 0.0
C811 C 0.23148 0.1397 0.09146 0.0
C812 C 0.26335 0.03608 0.30161 0.0
C813 C 0.25513 0.04413 0.26544 0.0
C814 C 0.26448 0.07688 0.17662 0.0
C815 C 0.22903 0.10797 0.11994 0.0
C816 C 0.23695 0.09294 0.14768 0.0
C817 C 0.26313 0.06014 0.2465 0.0
C818 C 0.25377 0.06972 0.21016 0.0
H819 H 0.18888 0.12041 0.06669 0.0
H820 H 0.20264 0.09385 0.10633 0.0
H821 H 0.26491 0.09415 0.12097 0.0
H822 H 0.30016 0.06644 0.3138 0.0
H823 H 0.28599 0.08029 0.25062 0.0
C824 C 0.19788 0.27329 0.97804 0.0
C825 C 0.19931 0.26101 0.01303 0.0
C826 C 0.19779 0.29274 0.98359 0.0
C827 C 0.21527 0.32792 0.05715 0.0
H828 H 0.18612 0.36256 0.98739 0.0
C829 C 0.22822 0.40715 0.06717 0.0
C830 C 0.23011 0.41658 0.0282 0.0
C831 C 0.22034 0.38919 0.06916 0.0
C832 C 0.19439 0.35306 0.00702 0.0
H833 H 0.20089 0.25964 0.08149 0.0
H834 H 0.20075 0.29364 0.09104 0.0
H835 H 0.17979 0.32881 0.98389 0.0
H836 H 0.22393 0.41496 0.96112 0.0
H837 H 0.21085 0.38334 0.96436 0.0
H838 H 0.2304 0.35189 0.07908 0.0
C839 C 0.19989 0.28814 0.05931 0.0
C840 C 0.19075 0.33376 0.00506 0.0
C841 C 0.19992 0.26867 0.0538 0.0
C842 C 0.22301 0.40797 0.99156 0.0
C843 C 0.21526 0.38992 0.99351 0.0
C844 C 0.21896 0.34716 0.05898 0.0
C845 C 0.19916 0.30038 0.02422 0.0
C846 C 0.20139 0.32097 0.02958 0.0
C847 C 0.21432 0.38011 0.0322 0.0
C848 C 0.2088 0.35995 0.03342 0.0
H849 H 0.19725 0.26791 0.94619 0.0
H850 H 0.19741 0.3018 0.95589 0.0
H851 H 0.22392 0.31842 0.07593 0.0
H852 H 0.23364 0.41323 0.09605 0.0
H853 H 0.21951 0.38216 0.09958 0.0
C854 C 0.20822 0.70184 0.48248 0.0
C855 C 0.21879 0.70091 0.5202 0.0
C856 C 0.18868 0.69991 0.48305 0.0
C857 C 0.14894 0.70675 0.55433 0.0
H858 H 0.12035 0.68571 0.46114 0.0
C859 C 0.06859 0.71453 0.5445 0.0
C860 C 0.06224 0.7222 0.50588 0.0
C861 C 0.08676 0.70714 0.54825 0.0
C862 C 0.12816 0.69157 0.48745 0.0
H863 H 0.21714 0.69616 0.58787 0.0
H864 H 0.18305 0.69253 0.5887 0.0
H865 H 0.15442 0.68126 0.46461 0.0
H866 H 0.06934 0.72701 0.44029 0.0
H867 H 0.10108 0.71425 0.44685 0.0
H868 H 0.1228 0.71748 0.57657 0.0
C869 C 0.18987 0.69516 0.55879 0.0
C870 C 0.14766 0.68908 0.48939 0.0
C871 C 0.20942 0.69719 0.55828 0.0
C872 C 0.07397 0.72138 0.47055 0.0
C873 C 0.09207 0.71389 0.47422 0.0
C874 C 0.12947 0.70914 0.5525 0.0
C875 C 0.17923 0.69689 0.52129 0.0
C876 C 0.15834 0.6971 0.52225 0.0
C877 C 0.09883 0.70716 0.51337 0.0
C878 C 0.11894 0.70202 0.51846 0.0
H879 H 0.21494 0.70467 0.45256 0.0
H880 H 0.18094 0.70159 0.45363 0.0
H881 H 0.15672 0.71334 0.57977 0.0
H882 H 0.05986 0.71505 0.57229 0.0
H883 H 0.09156 0.7019 0.57872 0.0
C884 C 0.77161 0.69453 0.03484 0.0
C885 C 0.77151 0.7052 0.9972 0.0
C886 C 0.77593 0.67536 0.03437 0.0
C887 C 0.80162 0.64055 0.97309 0.0
H888 H 0.77286 0.60403 0.03731 0.0
C889 C 0.81545 0.56087 0.9614 0.0
C890 C 0.81439 0.55007 0.99872 0.0
C891 C 0.80975 0.57967 0.96074 0.0
C892 C 0.78118 0.61407 0.01962 0.0
H893 H 0.7756 0.70393 0.92943 0.0
H894 H 0.78317 0.67051 0.92879 0.0
H895 H 0.76346 0.63704 0.03707 0.0
H896 H 0.80631 0.55061 0.06458 0.0
H897 H 0.79701 0.58355 0.0638 0.0
H898 H 0.81957 0.61777 0.95622 0.0
C899 C 0.78 0.67704 0.95863 0.0
C900 C 0.77575 0.63296 0.01941 0.0
C901 C 0.77554 0.69617 0.95902 0.0
C902 C 0.80755 0.55856 0.03541 0.0
C903 C 0.80195 0.5774 0.03481 0.0
C904 C 0.80714 0.6217 0.97354 0.0
C905 C 0.78038 0.66648 0.99633 0.0
C906 C 0.78591 0.64638 0.99612 0.0
C907 C 0.80294 0.58817 0.99745 0.0
C908 C 0.79699 0.60822 0.99681 0.0
H909 H 0.76856 0.701 0.0648 0.0
H910 H 0.77626 0.66759 0.06395 0.0
H911 H 0.80989 0.65064 0.95537 0.0
H912 H 0.82085 0.55486 0.93267 0.0
H913 H 0.8105 0.58747 0.93128 0.0
C914 C 0.77933 0.26907 0.45438 0.0
C915 C 0.77025 0.27084 0.49337 0.0
C916 C 0.79894 0.26967 0.45218 0.0
C917 C 0.84263 0.26641 0.51706 0.0
H918 H 0.86359 0.29688 0.4268 0.0
C919 C 0.91934 0.29293 0.51874 0.0
C920 C 0.92931 0.29195 0.48075 0.0
C921 C 0.90009 0.28904 0.51956 0.0
C922 C 0.85797 0.28814 0.45188 0.0
H923 H 0.77476 0.27406 0.56081 0.0
H924 H 0.80887 0.27539 0.55684 0.0
H925 H 0.82973 0.29184 0.42956 0.0
H926 H 0.92694 0.28626 0.4138 0.0
H927 H 0.89327 0.27938 0.41525 0.0
H928 H 0.87093 0.26309 0.53981 0.0
C929 C 0.80086 0.27327 0.52801 0.0
C930 C 0.83857 0.2852 0.45343 0.0
C931 C 0.78126 0.27259 0.53025 0.0
C932 C 0.91964 0.287 0.44358 0.0
C933 C 0.90036 0.28322 0.44435 0.0
C934 C 0.86204 0.26943 0.51561 0.0
C935 C 0.80992 0.27213 0.48887 0.0
C936 C 0.83065 0.27439 0.48617 0.0
C937 C 0.89039 0.28418 0.48236 0.0
C938 C 0.86989 0.28042 0.48316 0.0
H939 H 0.77131 0.26756 0.42535 0.0
H940 H 0.80549 0.2684 0.42163 0.0
H941 H 0.83702 0.25779 0.54234 0.0
H942 H 0.92647 0.29652 0.54796 0.0
H943 H 0.89274 0.29008 0.54923 0.0
C944 C 0.69417 0.21238 0.45508 0.0
C945 C 0.69718 0.22122 0.4941 0.0
C946 C 0.69189 0.1929 0.45308 0.0
C947 C 0.68313 0.14977 0.51683 0.0
H948 H 0.7156 0.12651 0.43474 0.0
C949 C 0.71007 0.07347 0.53166 0.0
C950 C 0.71382 0.0634 0.4947 0.0
C951 C 0.70371 0.09204 0.52932 0.0
C952 C 0.70611 0.13269 0.45726 0.0
H953 H 0.69905 0.21654 0.56186 0.0
H954 H 0.6953 0.18255 0.55823 0.0
H955 H 0.71204 0.16044 0.43471 0.0
H956 H 0.71276 0.0647 0.42621 0.0
H957 H 0.70105 0.09679 0.4222 0.0
H958 H 0.67758 0.12192 0.54 0.0
C959 C 0.69458 0.19072 0.52921 0.0
C960 C 0.70409 0.15219 0.45726 0.0
C961 C 0.69687 0.21022 0.53124 0.0
C962 C 0.70994 0.07196 0.45536 0.0
C963 C 0.70345 0.09048 0.45303 0.0
C964 C 0.68509 0.13019 0.51673 0.0
C965 C 0.69255 0.18181 0.49003 0.0
C966 C 0.69286 0.16098 0.48749 0.0
C967 C 0.70083 0.10094 0.48994 0.0
C968 C 0.69688 0.12145 0.48739 0.0
H969 H 0.69411 0.22041 0.42584 0.0
H970 H 0.69006 0.18645 0.42248 0.0
H971 H 0.6742 0.15615 0.54021 0.0
H972 H 0.71257 0.06718 0.56248 0.0
H973 H 0.70194 0.09969 0.55841 0.0
C974 C 0.27195 0.20249 0.94708 0.0
C975 C 0.26275 0.20259 0.98618 0.0
C976 C 0.29157 0.20331 0.94528 0.0
C977 C 0.33518 0.19811 0.01027 0.0
H978 H 0.35544 0.23405 0.92989 0.0
C979 C 0.40724 0.2342 0.02996 0.0
C980 C 0.41762 0.23866 0.99369 0.0
C981 C 0.38955 0.22577 0.02644 0.0
C982 C 0.3501 0.22367 0.95197 0.0
H983 H 0.2671 0.20305 0.05413 0.0
H984 H 0.30119 0.20485 0.0509 0.0
H985 H 0.32202 0.22686 0.92832 0.0
H986 H 0.41799 0.2369 0.92538 0.0
H987 H 0.38721 0.22192 0.91929 0.0
H988 H 0.36327 0.19547 0.03481 0.0
C989 C 0.29328 0.20386 0.02161 0.0
C990 C 0.33091 0.21954 0.95108 0.0
C991 C 0.27368 0.20298 0.02343 0.0
C992 C 0.41039 0.23357 0.95395 0.0
C993 C 0.39268 0.22516 0.95042 0.0
C994 C 0.3544 0.20227 0.01122 0.0
C995 C 0.30245 0.20429 0.98252 0.0
C996 C 0.32315 0.207 0.98073 0.0
C997 C 0.38186 0.22164 0.98654 0.0
C998 C 0.362 0.21537 0.98257 0.0
H999 H 0.26401 0.20201 0.91774 0.0
H1000 H 0.29823 0.20335 0.91468 0.0
H1001 H 0.32968 0.18814 0.03309 0.0
H1002 H 0.41257 0.23773 0.06105 0.0
H1003 H 0.38154 0.22335 0.05487 0.0
C1004 C 0.2695 0.78079 0.47479 0.0
C1005 C 0.27346 0.77093 0.51255 0.0
C1006 C 0.27138 0.80037 0.47286 0.0
C1007 C 0.29807 0.83832 0.52045 0.0
H1008 H 0.25952 0.87146 0.47457 0.0
C1009 C 0.30521 0.91876 0.53004 0.0
C1010 C 0.29845 0.92972 0.49597 0.0
C1011 C 0.30157 0.89947 0.53204 0.0
C1012 C 0.27056 0.8624 0.48688 0.0
H1013 H 0.2822 0.77395 0.57805 0.0
H1014 H 0.28569 0.80802 0.57433 0.0
H1015 H 0.25392 0.83757 0.47746 0.0
H1016 H 0.28232 0.92886 0.43743 0.0
H1017 H 0.27682 0.89515 0.43983 0.0
H1018 H 0.315 0.86283 0.52881 0.0
C1019 C 0.28109 0.80058 0.54637 0.0
C1020 C 0.26728 0.84302 0.48869 0.0
C1021 C 0.27896 0.78109 0.5485 0.0
C1022 C 0.28801 0.92085 0.46385 0.0
C1023 C 0.28458 0.90152 0.46558 0.0
C1024 C 0.30147 0.85763 0.5181 0.0
C1025 C 0.27753 0.81036 0.50845 0.0
C1026 C 0.28096 0.83085 0.50579 0.0
C1027 C 0.29129 0.89057 0.49973 0.0
C1028 C 0.28771 0.86995 0.50157 0.0
H1029 H 0.26521 0.77337 0.44658 0.0
H1030 H 0.26862 0.80762 0.44321 0.0
H1031 H 0.30896 0.82916 0.5332 0.0
H1032 H 0.31351 0.925 0.5551 0.0
H1033 H 0.30672 0.89158 0.55918 0.0
C1034 C 0.69496 0.77054 0.96775 0.0
C1035 C 0.70549 0.76612 0.00434 0.0
C1036 C 0.67565 0.77394 0.9701 0.0
C1037 C 0.63939 0.78825 0.04586 0.0
H1038 H 0.60497 0.77325 0.95656 0.0
C1039 C 0.55896 0.799 0.05537 0.0
C1040 C 0.55012 0.80642 0.01898 0.0
C1041 C 0.57771 0.79315 0.05423 0.0
C1042 C 0.61446 0.77763 0.98159 0.0
H1043 H 0.70376 0.76111 0.07191 0.0
H1044 H 0.67002 0.76666 0.07579 0.0
H1045 H 0.63796 0.7639 0.95361 0.0
H1046 H 0.55387 0.81331 0.95279 0.0
H1047 H 0.58669 0.80318 0.95085 0.0
H1048 H 0.61583 0.80195 0.07382 0.0
C1049 C 0.67679 0.76791 0.04542 0.0
C1050 C 0.63334 0.7723 0.9799 0.0
C1051 C 0.69613 0.76462 0.04313 0.0
C1052 C 0.56038 0.80781 0.98141 0.0
C1053 C 0.57908 0.80184 0.98018 0.0
C1054 C 0.62048 0.79348 0.04766 0.0
C1055 C 0.66637 0.77289 0.00904 0.0
C1056 C 0.64608 0.77768 0.01184 0.0
C1057 C 0.58794 0.79447 0.01659 0.0
C1058 C 0.60786 0.78836 0.01537 0.0
H1059 H 0.70169 0.77192 0.93737 0.0
H1060 H 0.66812 0.77797 0.94153 0.0
H1061 H 0.64886 0.79293 0.07062 0.0
H1062 H 0.55142 0.79788 0.08483 0.0
H1063 H 0.58415 0.78742 0.08269 0.0
loop_
_geom_bond_atom_site_label_1
_geom_bond_atom_site_label_2
_geom_bond_distance
_geom_bond_site_symmetry_2
_ccdc_geom_bond_type
Sc0 O3 2.025 . S
Sc0 O10 2.105 . S
Sc0 O13 2.105 . S
Sc0 O16 2.105 . S
Sc0 O19 2.105 . S
Sc1 O3 2.025 . S
Sc1 O11 2.105 . S
Sc1 O15 2.105 1_554 S
Sc1 O17 2.105 . S
Sc1 O21 2.105 1_554 S
Sc2 O3 2.025 1_556 S
Sc2 O12 2.105 . S
Sc2 O14 2.105 . S
Sc2 O18 2.105 . S
Sc2 O20 2.105 . S
O3 Sc0 2.025 . S
O3 Sc1 2.025 . S
O3 Sc2 2.025 1_554 S
C4 O10 1.268 . S
C4 O20 1.268 1_554 S
C5 O11 1.268 . S
C5 O19 1.268 . S
C6 O12 1.268 . S
C6 O21 1.268 . S
C7 O13 1.268 . S
C7 O17 1.268 . S
C8 O14 1.268 1_554 S
C8 O16 1.268 . S
C9 O15 1.268 . S
C9 O18 1.268 . S
O10 Sc0 2.105 . S
O10 C4 1.268 . S
O11 Sc1 2.105 . S
O11 C5 1.268 . S
O12 Sc2 2.105 . S
O12 C6 1.268 . S
O13 Sc0 2.105 . S
O13 C7 1.268 . S
O14 Sc2 2.105 . S
O14 C8 1.268 1_556 S
O15 Sc1 2.105 1_556 S
O15 C9 1.268 . S
O16 Sc0 2.105 . S
O16 C8 1.268 . S
O17 Sc1 2.105 . S
O17 C7 1.268 . S
O18 Sc2 2.105 . S
O18 C9 1.268 . S
O19 Sc0 2.105 . S
O19 C5 1.268 . S
O20 Sc2 2.105 . S
O20 C4 1.268 1_556 S
O21 Sc1 2.105 1_556 S
O21 C6 1.268 . S
Sc22 O25 2.025 . S
Sc22 O32 2.105 . S
Sc22 O35 2.105 . S
Sc22 O38 2.105 . S
Sc22 O41 2.105 . S
Sc23 O25 2.025 . S
Sc23 O33 2.105 . S
Sc23 O37 2.105 . S
Sc23 O39 2.105 . S
Sc23 O43 2.105 . S
Sc24 O25 2.025 . S
Sc24 O34 2.105 . S
Sc24 O36 2.105 . S
Sc24 O40 2.105 . S
Sc24 O42 2.105 . S
O25 Sc22 2.025 . S
O25 Sc23 2.025 . S
O25 Sc24 2.025 . S
C26 O32 1.268 . S
C26 O42 1.268 . S
C27 O33 1.268 . S
C27 O41 1.268 . S
C28 O34 1.268 . S
C28 O43 1.268 . S
C29 O35 1.268 . S
C29 O39 1.268 . S
C30 O36 1.268 . S
C30 O38 1.268 . S
C31 O37 1.268 . S
C31 O40 1.268 . S
O32 Sc22 2.105 . S
O32 C26 1.268 . S
O33 Sc23 2.105 . S
O33 C27 1.268 . S
O34 Sc24 2.105 . S
O34 C28 1.268 . S
O35 Sc22 2.105 . S
O35 C29 1.268 . S
O36 Sc24 2.105 . S
O36 C30 1.268 . S
O37 Sc23 2.105 . S
O37 C31 1.268 . S
O38 Sc22 2.105 . S
O38 C30 1.268 . S
O39 Sc23 2.105 . S
O39 C29 1.268 . S
O40 Sc24 2.105 . S
O40 C31 1.268 . S
O41 Sc22 2.105 . S
O41 C27 1.268 . S
O42 Sc24 2.105 . S
O42 C26 1.268 . S
O43 Sc23 2.105 . S
O43 C28 1.268 . S
Sc44 O47 2.025 1_556 S
Sc44 O54 2.105 . S
Sc44 O57 2.105 . S
Sc44 O60 2.105 . S
Sc44 O63 2.105 . S
Sc45 O47 2.025 . S
Sc45 O55 2.105 1_554 S
Sc45 O59 2.105 . S
Sc45 O61 2.105 1_554 S
Sc45 O65 2.105 . S
Sc46 O47 2.025 . S
Sc46 O56 2.105 . S
Sc46 O58 2.105 . S
Sc46 O62 2.105 . S
Sc46 O64 2.105 . S
O47 Sc44 2.025 1_554 S
O47 Sc45 2.025 . S
O47 Sc46 2.025 . S
C48 O54 1.268 1_554 S
C48 O64 1.268 . S
C49 O55 1.268 . S
C49 O63 1.268 . S
C50 O56 1.268 . S
C50 O65 1.268 . S
C51 O57 1.268 . S
C51 O61 1.268 . S
C52 O58 1.268 . S
C52 O60 1.268 1_554 S
C53 O59 1.268 . S
C53 O62 1.268 . S
O54 Sc44 2.105 . S
O54 C48 1.268 1_556 S
O55 Sc45 2.105 1_556 S
O55 C49 1.268 . S
O56 Sc46 2.105 . S
O56 C50 1.268 . S
O57 Sc44 2.105 . S
O57 C51 1.268 . S
O58 Sc46 2.105 . S
O58 C52 1.268 . S
O59 Sc45 2.105 . S
O59 C53 1.268 . S
O60 Sc44 2.105 . S
O60 C52 1.268 1_556 S
O61 Sc45 2.105 1_556 S
O61 C51 1.268 . S
O62 Sc46 2.105 . S
O62 C53 1.268 . S
O63 Sc44 2.105 . S
O63 C49 1.268 . S
O64 Sc46 2.105 . S
O64 C48 1.268 . S
O65 Sc45 2.105 . S
O65 C50 1.268 . S
Sc66 O69 2.025 . S
Sc66 O76 2.105 . S
Sc66 O79 2.105 . S
Sc66 O82 2.105 . S
Sc66 O85 2.105 . S
Sc67 O69 2.025 . S
Sc67 O77 2.105 . S
Sc67 O81 2.105 . S
Sc67 O83 2.105 . S
Sc67 O87 2.105 . S
Sc68 O69 2.025 . S
Sc68 O78 2.105 . S
Sc68 O80 2.105 . S
Sc68 O84 2.105 . S
Sc68 O86 2.105 . S
O69 Sc66 2.025 . S
O69 Sc67 2.025 . S
O69 Sc68 2.025 . S
C70 O76 1.268 . S
C70 O86 1.268 . S
C71 O77 1.268 . S
C71 O85 1.268 . S
C72 O78 1.268 . S
C72 O87 1.268 . S
C73 O79 1.268 . S
C73 O83 1.268 . S
C74 O80 1.268 . S
C74 O82 1.268 . S
C75 O81 1.268 . S
C75 O84 1.268 . S
O76 Sc66 2.105 . S
O76 C70 1.268 . S
O77 Sc67 2.105 . S
O77 C71 1.268 . S
O78 Sc68 2.105 . S
O78 C72 1.268 . S
O79 Sc66 2.105 . S
O79 C73 1.268 . S
O80 Sc68 2.105 . S
O80 C74 1.268 . S
O81 Sc67 2.105 . S
O81 C75 1.268 . S
O82 Sc66 2.105 . S
O82 C74 1.268 . S
O83 Sc67 2.105 . S
O83 C73 1.268 . S
O84 Sc68 2.105 . S
O84 C75 1.268 . S
O85 Sc66 2.105 . S
O85 C71 1.268 . S
O86 Sc68 2.105 . S
O86 C70 1.268 . S
O87 Sc67 2.105 . S
O87 C72 1.268 . S
P88 O99 1.490 . S
P88 C102 1.812 . S
P88 C108 1.803 . S
P88 C114 1.819 1_554 S
H89 C103 0.941 . S
H90 C104 0.939 . S
H91 C106 0.940 . S
H92 C107 0.940 . S
H93 C109 0.939 . S
H94 C110 0.942 . S
H95 C112 0.940 . S
H96 C113 0.939 . S
H97 C115 0.941 . S
H98 C119 0.939 . S
O99 P88 1.490 . S
H100 C116 0.939 . S
H101 C118 0.940 . S
C102 P88 1.812 . S
C102 C103 1.389 . S
C102 C107 1.391 . S
C103 H89 0.941 . S
C103 C102 1.389 . S
C103 C104 1.397 . S
C104 H90 0.939 . S
C104 C103 1.397 . S
C104 C105 1.378 . S
C105 C104 1.378 . S
C105 C106 1.378 . S
C106 H91 0.940 . S
C106 C105 1.378 . S
C106 C107 1.396 . S
C107 H92 0.940 . S
C107 C102 1.391 . S
C107 C106 1.396 . S
C108 P88 1.803 . S
C108 C109 1.378 1_554 S
C108 C113 1.400 . S
C109 H93 0.939 . S
C109 C108 1.378 1_556 S
C109 C110 1.361 . S
C110 H94 0.942 . S
C110 C109 1.361 . S
C110 C111 1.369 1_556 S
C111 C110 1.369 1_554 S
C111 C112 1.404 . S
C112 H95 0.940 . S
C112 C111 1.404 . S
C112 C113 1.389 . S
C113 H96 0.939 . S
C113 C108 1.400 . S
C113 C112 1.389 . S
C114 P88 1.819 1_556 S
C114 C115 1.391 . S
C114 C119 1.391 . S
C115 H97 0.941 . S
C115 C114 1.391 . S
C115 C116 1.396 . S
C116 H100 0.939 . S
C116 C115 1.396 . S
C116 C117 1.397 . S
C117 C116 1.397 . S
C117 C118 1.385 . S
C118 H101 0.940 . S
C118 C117 1.385 . S
C118 C119 1.388 . S
C119 H98 0.939 . S
C119 C114 1.391 . S
C119 C118 1.388 . S
P120 O131 1.490 . S
P120 C134 1.812 . S
P120 C140 1.803 1_655 S
P120 C146 1.819 . S
H121 C135 0.941 . S
H122 C136 0.939 . S
H123 C138 0.940 . S
H124 C139 0.940 . S
H125 C141 0.939 . S
H126 C142 0.942 . S
H127 C144 0.940 . S
H128 C145 0.906 1_655 S
H129 C147 0.941 . S
H130 C151 0.939 . S
O131 P120 1.490 . S
H132 C148 0.939 . S
H133 C150 0.940 . S
C134 P120 1.812 . S
C134 C135 1.389 . S
C134 C139 1.391 . S
C135 H121 0.941 . S
C135 C134 1.389 . S
C135 C136 1.397 . S
C136 H122 0.939 . S
C136 C135 1.397 . S
C136 C137 1.378 . S
C137 C136 1.378 . S
C137 C138 1.378 . S
C138 H123 0.940 . S
C138 C137 1.378 . S
C138 C139 1.396 . S
C139 H124 0.940 . S
C139 C134 1.391 . S
C139 C138 1.396 . S
C140 P120 1.803 1_455 S
C140 C141 1.378 . S
C140 C145 1.400 . S
C141 H125 0.939 . S
C141 C140 1.378 . S
C141 C142 1.361 . S
C142 H126 0.942 . S
C142 C141 1.361 . S
C142 C143 1.369 . S
C143 C142 1.369 . S
C143 C144 1.404 . S
C144 H127 0.940 . S
C144 C143 1.404 . S
C144 C145 1.389 . S
C145 H128 0.906 1_455 S
C145 C140 1.400 . S
C145 C144 1.389 . S
C146 P120 1.819 . S
C146 C147 1.391 . S
C146 C151 1.391 . S
C147 H129 0.941 . S
C147 C146 1.391 . S
C147 C148 1.396 . S
C148 H132 0.939 . S
C148 C147 1.396 . S
C148 C149 1.397 . S
C149 C148 1.397 . S
C149 C150 1.385 . S
C150 H133 0.940 . S
C150 C149 1.385 . S
C150 C151 1.388 . S
C151 H130 0.939 . S
C151 C146 1.391 . S
C151 C150 1.388 . S
P152 O163 1.490 . S
P152 C166 1.812 . S
P152 C172 1.803 . S
P152 C178 1.819 1_556 S
H153 C167 0.941 . S
H154 C168 0.939 . S
H155 C170 0.940 . S
H156 C171 0.940 . S
H157 C173 0.939 . S
H158 C174 0.942 . S
H159 C176 0.940 . S
H160 C177 0.939 . S
H161 C179 0.941 . S
H162 C183 0.939 . S
O163 P152 1.490 . S
H164 C180 0.939 . S
H165 C182 0.940 . S
C166 P152 1.812 . S
C166 C167 1.389 . S
C166 C171 1.391 . S
C167 H153 0.941 . S
C167 C166 1.389 . S
C167 C168 1.397 . S
C168 H154 0.939 . S
C168 C167 1.397 . S
C168 C169 1.378 . S
C169 C168 1.378 . S
C169 C170 1.378 . S
C170 H155 0.940 . S
C170 C169 1.378 . S
C170 C171 1.396 . S
C171 H156 0.940 . S
C171 C166 1.391 . S
C171 C170 1.396 . S
C172 P152 1.803 . S
C172 C173 1.378 1_556 S
C172 C177 1.400 . S
C173 H157 0.939 . S
C173 C172 1.378 1_554 S
C173 C174 1.361 . S
C174 H158 0.942 . S
C174 C173 1.361 . S
C174 C175 1.369 . S
C175 C174 1.369 . S
C175 C176 1.404 1_554 S
C176 H159 0.940 . S
C176 C175 1.404 1_556 S
C176 C177 1.389 . S
C177 H160 0.939 . S
C177 C172 1.400 . S
C177 C176 1.389 . S
C178 P152 1.819 1_554 S
C178 C179 1.391 . S
C178 C183 1.391 . S
C179 H161 0.941 . S
C179 C178 1.391 . S
C179 C180 1.396 . S
C180 H164 0.939 . S
C180 C179 1.396 . S
C180 C181 1.397 . S
C181 C180 1.397 . S
C181 C182 1.385 . S
C182 H165 0.940 . S
C182 C181 1.385 . S
C182 C183 1.388 . S
C183 H162 0.939 . S
C183 C178 1.391 . S
C183 C182 1.388 . S
P184 O195 1.490 . S
P184 C198 1.812 . S
P184 C204 1.803 1_455 S
P184 C210 1.819 . S
H185 C199 0.941 . S
H186 C200 0.939 . S
H187 C202 0.940 . S
H188 C203 0.940 . S
H189 C205 0.939 . S
H190 C206 0.942 . S
H191 C208 0.940 . S
H192 C209 0.939 . S
H193 C211 0.941 . S
H194 C215 0.939 . S
O195 P184 1.490 . S
H196 C212 0.939 . S
H197 C214 0.940 . S
C198 P184 1.812 . S
C198 C199 1.389 . S
C198 C203 1.391 . S
C199 H185 0.941 . S
C199 C198 1.389 . S
C199 C200 1.397 . S
C200 H186 0.939 . S
C200 C199 1.397 . S
C200 C201 1.378 . S
C201 C200 1.378 . S
C201 C202 1.378 . S
C202 H187 0.940 . S
C202 C201 1.378 . S
C202 C203 1.396 . S
C203 H188 0.940 . S
C203 C198 1.391 . S
C203 C202 1.396 . S
C204 P184 1.803 1_655 S
C204 C205 1.378 . S
C204 C209 1.400 . S
C205 H189 0.939 . S
C205 C204 1.378 . S
C205 C206 1.361 . S
C206 H190 0.942 . S
C206 C205 1.361 . S
C206 C207 1.369 . S
C207 C206 1.369 . S
C207 C208 1.404 . S
C208 H191 0.940 . S
C208 C207 1.404 . S
C208 C209 1.389 . S
C209 H192 0.939 . S
C209 C204 1.400 . S
C209 C208 1.389 . S
C210 P184 1.819 . S
C210 C211 1.391 . S
C210 C215 1.391 . S
C211 H193 0.941 . S
C211 C210 1.391 . S
C211 C212 1.396 . S
C212 H196 0.939 . S
C212 C211 1.396 . S
C212 C213 1.397 . S
C213 C212 1.397 . S
C213 C214 1.385 . S
C214 H197 0.940 . S
C214 C213 1.385 . S
C214 C215 1.388 . S
C215 H194 0.939 . S
C215 C210 1.391 . S
C215 C214 1.388 . S
P216 O227 1.490 . S
P216 C230 1.812 . S
P216 C236 1.803 1_565 S
P216 C242 1.819 . S
H217 C231 0.941 . S
H218 C232 0.939 . S
H219 C234 0.940 . S
H220 C235 0.940 . S
H221 C237 0.939 . S
H222 C238 0.942 . S
H223 C240 0.940 . S
H224 C241 0.907 1_565 S
H225 C243 0.941 . S
H226 C247 0.939 . S
O227 P216 1.490 . S
H228 C244 0.939 . S
H229 C246 0.940 . S
C230 P216 1.812 . S
C230 C231 1.389 . S
C230 C235 1.391 . S
C231 H217 0.941 . S
C231 C230 1.389 . S
C231 C232 1.397 . S
C232 H218 0.939 . S
C232 C231 1.397 . S
C232 C233 1.378 . S
C233 C232 1.378 . S
C233 C234 1.378 . S
C234 H219 0.940 . S
C234 C233 1.378 . S
C234 C235 1.396 . S
C235 H220 0.940 . S
C235 C230 1.391 . S
C235 C234 1.396 . S
C236 P216 1.803 1_545 S
C236 C237 1.378 . S
C236 C241 1.400 . S
C237 H221 0.939 . S
C237 C236 1.378 . S
C237 C238 1.361 . S
C238 H222 0.942 . S
C238 C237 1.361 . S
C238 C239 1.369 . S
C239 C238 1.369 . S
C239 C240 1.404 . S
C240 H223 0.940 . S
C240 C239 1.404 . S
C240 C241 1.389 . S
C241 H224 0.907 1_545 S
C241 C236 1.400 . S
C241 C240 1.389 . S
C242 P216 1.819 . S
C242 C243 1.391 . S
C242 C247 1.391 . S
C243 H225 0.941 . S
C243 C242 1.391 . S
C243 C244 1.396 . S
C244 H228 0.939 . S
C244 C243 1.396 . S
C244 C245 1.397 . S
C245 C244 1.397 . S
C245 C246 1.385 . S
C246 H229 0.940 . S
C246 C245 1.385 . S
C246 C247 1.388 . S
C247 H226 0.939 . S
C247 C242 1.391 . S
C247 C246 1.388 . S
P248 O259 1.490 . S
P248 C262 1.812 . S
P248 C268 1.803 . S
P248 C274 1.819 1_556 S
H249 C263 0.941 . S
H250 C264 0.939 . S
H251 C266 0.940 . S
H252 C267 0.940 . S
H253 C269 0.939 . S
H254 C270 0.942 . S
H255 C272 0.940 . S
H256 C273 0.939 . S
H257 C275 0.941 . S
H258 C279 0.939 . S
O259 P248 1.490 . S
H260 C276 0.939 . S
H261 C278 0.940 . S
C262 P248 1.812 . S
C262 C263 1.389 . S
C262 C267 1.391 . S
C263 H249 0.941 . S
C263 C262 1.389 . S
C263 C264 1.397 . S
C264 H250 0.939 . S
C264 C263 1.397 . S
C264 C265 1.378 . S
C265 C264 1.378 . S
C265 C266 1.378 . S
C266 H251 0.940 . S
C266 C265 1.378 . S
C266 C267 1.396 . S
C267 H252 0.940 . S
C267 C262 1.391 . S
C267 C266 1.396 . S
C268 P248 1.803 . S
C268 C269 1.378 1_556 S
C268 C273 1.400 . S
C269 H253 0.939 . S
C269 C268 1.378 1_554 S
C269 C270 1.361 . S
C270 H254 0.942 . S
C270 C269 1.361 . S
C270 C271 1.369 . S
C271 C270 1.369 . S
C271 C272 1.404 1_554 S
C272 H255 0.940 . S
C272 C271 1.404 1_556 S
C272 C273 1.389 . S
C273 H256 0.939 . S
C273 C268 1.400 . S
C273 C272 1.389 . S
C274 P248 1.819 1_554 S
C274 C275 1.391 . S
C274 C279 1.391 . S
C275 H257 0.941 . S
C275 C274 1.391 . S
C275 C276 1.396 . S
C276 H260 0.939 . S
C276 C275 1.396 . S
C276 C277 1.397 . S
C277 C276 1.397 . S
C277 C278 1.385 . S
C278 H261 0.940 . S
C278 C277 1.385 . S
C278 C279 1.388 . S
C279 H258 0.939 . S
C279 C274 1.391 . S
C279 C278 1.388 . S
P280 O291 1.490 . S
P280 C294 1.812 . S
P280 C300 1.803 1_545 S
P280 C306 1.819 . S
H281 C295 0.941 . S
H282 C296 0.939 . S
H283 C298 0.940 . S
H284 C299 0.940 . S
H285 C301 0.939 . S
H286 C302 0.942 . S
H287 C304 0.940 . S
H288 C305 0.939 . S
H289 C307 0.941 . S
H290 C311 0.939 . S
O291 P280 1.490 . S
H292 C308 0.939 . S
H293 C310 0.940 . S
C294 P280 1.812 . S
C294 C295 1.389 . S
C294 C299 1.391 . S
C295 H281 0.941 . S
C295 C294 1.389 . S
C295 C296 1.397 . S
C296 H282 0.939 . S
C296 C295 1.397 . S
C296 C297 1.378 . S
C297 C296 1.378 . S
C297 C298 1.378 . S
C298 H283 0.940 . S
C298 C297 1.378 . S
C298 C299 1.396 . S
C299 H284 0.940 . S
C299 C294 1.391 . S
C299 C298 1.396 . S
C300 P280 1.803 1_565 S
C300 C301 1.378 . S
C300 C305 1.400 . S
C301 H285 0.939 . S
C301 C300 1.378 . S
C301 C302 1.361 . S
C302 H286 0.942 . S
C302 C301 1.361 . S
C302 C303 1.369 . S
C303 C302 1.369 . S
C303 C304 1.404 . S
C304 H287 0.940 . S
C304 C303 1.404 . S
C304 C305 1.389 . S
C305 H288 0.939 . S
C305 C300 1.400 . S
C305 C304 1.389 . S
C306 P280 1.819 . S
C306 C307 1.391 . S
C306 C311 1.391 . S
C307 H289 0.941 . S
C307 C306 1.391 . S
C307 C308 1.396 . S
C308 H292 0.939 . S
C308 C307 1.396 . S
C308 C309 1.397 . S
C309 C308 1.397 . S
C309 C310 1.385 . S
C310 H293 0.940 . S
C310 C309 1.385 . S
C310 C311 1.388 . S
C311 H290 0.939 . S
C311 C306 1.391 . S
C311 C310 1.388 . S
P312 O323 1.490 . S
P312 C326 1.812 . S
P312 C332 1.803 . S
P312 C338 1.819 1_554 S
H313 C327 0.941 . S
H314 C328 0.939 . S
H315 C330 0.940 . S
H316 C331 0.940 . S
H317 C333 0.939 . S
H318 C334 0.942 . S
H319 C336 0.940 . S
H320 C337 0.939 . S
H321 C339 0.941 . S
H322 C343 0.939 . S
O323 P312 1.490 . S
H324 C340 0.939 . S
H325 C342 0.940 . S
C326 P312 1.812 . S
C326 C327 1.389 . S
C326 C331 1.391 . S
C327 H313 0.941 . S
C327 C326 1.389 . S
C327 C328 1.397 . S
C328 H314 0.939 . S
C328 C327 1.397 . S
C328 C329 1.378 . S
C329 C328 1.378 . S
C329 C330 1.378 . S
C330 H315 0.940 . S
C330 C329 1.378 . S
C330 C331 1.396 . S
C331 H316 0.940 . S
C331 C326 1.391 . S
C331 C330 1.396 . S
C332 P312 1.803 . S
C332 C333 1.378 1_554 S
C332 C337 1.400 . S
C333 H317 0.939 . S
C333 C332 1.378 1_556 S
C333 C334 1.361 . S
C334 H318 0.942 . S
C334 C333 1.361 . S
C334 C335 1.369 1_556 S
C335 C334 1.369 1_554 S
C335 C336 1.404 . S
C336 H319 0.940 . S
C336 C335 1.404 . S
C336 C337 1.389 . S
C337 H320 0.939 . S
C337 C332 1.400 . S
C337 C336 1.389 . S
C338 P312 1.819 1_556 S
C338 C339 1.391 . S
C338 C343 1.391 . S
C339 H321 0.941 . S
C339 C338 1.391 . S
C339 C340 1.396 . S
C340 H324 0.939 . S
C340 C339 1.396 . S
C340 C341 1.397 . S
C341 C340 1.397 . S
C341 C342 1.385 . S
C342 H325 0.940 . S
C342 C341 1.385 . S
C342 C343 1.388 . S
C343 H322 0.939 . S
C343 C338 1.391 . S
C343 C342 1.388 . S
C344 C345 1.349 . S
C344 C346 1.327 . S
C344 H369 0.950 . S
C345 C344 1.349 . S
C345 C361 1.349 . S
C346 C344 1.327 . S
C346 C365 1.429 . S
C346 H370 0.950 . S
C347 C364 1.574 . S
C347 C366 1.368 . S
C347 H371 0.949 . S
H348 C352 0.949 . S
C349 C350 1.349 . S
C349 C351 1.327 . S
C349 H372 0.950 . S
C350 C349 1.349 . S
C350 C362 1.349 . S
C351 C349 1.327 . S
C351 C367 1.429 . S
C351 H373 0.950 . S
C352 H348 0.949 . S
C352 C360 1.574 . S
C352 C368 1.368 . S
H353 C361 0.950 . S
H354 C359 0.950 . S
H355 C360 0.949 . S
H356 C362 0.950 . S
H357 C363 0.950 . S
H358 C364 0.949 . S
C359 H354 0.950 . S
C359 C361 1.327 . S
C359 C365 1.429 . S
C360 C352 1.574 . S
C360 H355 0.949 . S
C360 C366 1.368 . S
C361 C345 1.349 . S
C361 H353 0.950 . S
C361 C359 1.327 . S
C362 C350 1.349 . S
C362 H356 0.950 . S
C362 C363 1.327 . S
C363 H357 0.950 . S
C363 C362 1.327 . S
C363 C367 1.429 . S
C364 C347 1.574 . S
C364 H358 0.949 . S
C364 C368 1.368 . S
C365 C346 1.429 . S
C365 C359 1.429 . S
C365 C366 1.523 . S
C366 C347 1.368 . S
C366 C360 1.368 . S
C366 C365 1.523 . S
C367 C351 1.429 . S
C367 C363 1.429 . S
C367 C368 1.523 . S
C368 C352 1.368 . S
C368 C364 1.368 . S
C368 C367 1.523 . S
H369 C344 0.950 . S
H370 C346 0.950 . S
H371 C347 0.949 . S
H372 C349 0.950 . S
H373 C351 0.950 . S
C374 C375 1.349 . S
C374 C376 1.327 . S
C374 H399 0.950 . S
C375 C374 1.349 . S
C375 C391 1.349 . S
C376 C374 1.327 . S
C376 C395 1.429 . S
C376 H400 0.950 . S
C377 C394 1.574 . S
C377 C396 1.368 . S
C377 H401 0.949 . S
H378 C382 0.949 . S
C379 C380 1.349 . S
C379 C381 1.327 . S
C379 H402 0.950 . S
C380 C379 1.349 . S
C380 C392 1.349 . S
C381 C379 1.327 . S
C381 C397 1.429 . S
C381 H403 0.950 . S
C382 H378 0.949 . S
C382 C390 1.574 . S
C382 C398 1.368 . S
H383 C391 0.950 . S
H384 C389 0.950 . S
H385 C390 0.949 . S
H386 C392 0.950 . S
H387 C393 0.950 . S
H388 C394 0.949 . S
C389 H384 0.950 . S
C389 C391 1.327 . S
C389 C395 1.429 . S
C390 C382 1.574 . S
C390 H385 0.949 . S
C390 C396 1.368 . S
C391 C375 1.349 . S
C391 H383 0.950 . S
C391 C389 1.327 . S
C392 C380 1.349 . S
C392 H386 0.950 . S
C392 C393 1.327 . S
C393 H387 0.950 . S
C393 C392 1.327 . S
C393 C397 1.429 . S
C394 C377 1.574 . S
C394 H388 0.949 . S
C394 C398 1.368 . S
C395 C376 1.429 . S
C395 C389 1.429 . S
C395 C396 1.523 . S
C396 C377 1.368 . S
C396 C390 1.368 . S
C396 C395 1.523 . S
C397 C381 1.429 . S
C397 C393 1.429 . S
C397 C398 1.523 . S
C398 C382 1.368 . S
C398 C394 1.368 . S
C398 C397 1.523 . S
H399 C374 0.950 . S
H400 C376 0.950 . S
H401 C377 0.949 . S
H402 C379 0.950 . S
H403 C381 0.950 . S
C404 C405 1.349 . S
C404 C406 1.327 . S
C404 H429 0.950 . S
C405 C404 1.349 . S
C405 C421 1.349 . S
C406 C404 1.327 . S
C406 C425 1.429 . S
C406 H430 0.950 . S
C407 C424 1.574 . S
C407 C426 1.368 . S
C407 H431 0.949 . S
H408 C412 0.949 . S
C409 C410 1.349 . S
C409 C411 1.327 . S
C409 H432 0.950 . S
C410 C409 1.349 . S
C410 C422 1.349 . S
C411 C409 1.327 . S
C411 C427 1.429 . S
C411 H433 0.950 . S
C412 H408 0.949 . S
C412 C420 1.574 . S
C412 C428 1.368 . S
H413 C421 0.950 . S
H414 C419 0.950 . S
H415 C420 0.949 . S
H416 C422 0.950 . S
H417 C423 0.950 . S
H418 C424 0.949 . S
C419 H414 0.950 . S
C419 C421 1.327 . S
C419 C425 1.429 . S
C420 C412 1.574 . S
C420 H415 0.949 . S
C420 C426 1.368 . S
C421 C405 1.349 . S
C421 H413 0.950 . S
C421 C419 1.327 . S
C422 C410 1.349 . S
C422 H416 0.950 . S
C422 C423 1.327 . S
C423 H417 0.950 . S
C423 C422 1.327 . S
C423 C427 1.429 . S
C424 C407 1.574 . S
C424 H418 0.949 . S
C424 C428 1.368 . S
C425 C406 1.429 . S
C425 C419 1.429 . S
C425 C426 1.523 . S
C426 C407 1.368 . S
C426 C420 1.368 . S
C426 C425 1.523 . S
C427 C411 1.429 . S
C427 C423 1.429 . S
C427 C428 1.523 . S
C428 C412 1.368 . S
C428 C424 1.368 . S
C428 C427 1.523 . S
H429 C404 0.950 . S
H430 C406 0.950 . S
H431 C407 0.949 . S
H432 C409 0.950 . S
H433 C411 0.950 . S
C434 C435 1.349 . S
C434 C436 1.327 . S
C434 H459 0.950 . S
C435 C434 1.349 . S
C435 C451 1.349 . S
C436 C434 1.327 . S
C436 C455 1.429 . S
C436 H460 0.950 . S
C437 C454 1.574 . S
C437 C456 1.368 . S
C437 H461 0.949 . S
H438 C442 0.949 . S
C439 C440 1.349 . S
C439 C441 1.327 . S
C439 H462 0.950 . S
C440 C439 1.349 . S
C440 C452 1.349 . S
C441 C439 1.327 . S
C441 C457 1.429 . S
C441 H463 0.950 . S
C442 H438 0.949 . S
C442 C450 1.574 . S
C442 C458 1.368 . S
H443 C451 0.950 . S
H444 C449 0.950 . S
H445 C450 0.949 . S
H446 C452 0.950 . S
H447 C453 0.950 . S
H448 C454 0.949 . S
C449 H444 0.950 . S
C449 C451 1.327 . S
C449 C455 1.429 . S
C450 C442 1.574 . S
C450 H445 0.949 . S
C450 C456 1.368 . S
C451 C435 1.349 . S
C451 H443 0.950 . S
C451 C449 1.327 . S
C452 C440 1.349 . S
C452 H446 0.950 . S
C452 C453 1.327 . S
C453 H447 0.950 . S
C453 C452 1.327 . S
C453 C457 1.429 . S
C454 C437 1.574 . S
C454 H448 0.949 . S
C454 C458 1.368 . S
C455 C436 1.429 . S
C455 C449 1.429 . S
C455 C456 1.523 . S
C456 C437 1.368 . S
C456 C450 1.368 . S
C456 C455 1.523 . S
C457 C441 1.429 . S
C457 C453 1.429 . S
C457 C458 1.523 . S
C458 C442 1.368 . S
C458 C454 1.368 . S
C458 C457 1.523 . S
H459 C434 0.950 . S
H460 C436 0.950 . S
H461 C437 0.949 . S
H462 C439 0.950 . S
H463 C441 0.950 . S
C464 C465 1.349 . S
C464 C466 1.327 . S
C464 H489 0.950 . S
C465 C464 1.349 . S
C465 C481 1.349 . S
C466 C464 1.327 . S
C466 C485 1.429 . S
C466 H490 0.950 . S
C467 C484 1.574 . S
C467 C486 1.368 . S
C467 H491 0.949 . S
H468 C472 0.949 . S
C469 C470 1.349 . S
C469 C471 1.327 . S
C469 H492 0.950 . S
C470 C469 1.349 . S
C470 C482 1.349 . S
C471 C469 1.327 . S
C471 C487 1.429 . S
C471 H493 0.950 . S
C472 H468 0.949 . S
C472 C480 1.574 . S
C472 C488 1.368 . S
H473 C481 0.950 . S
H474 C479 0.950 . S
H475 C480 0.949 . S
H476 C482 0.950 . S
H477 C483 0.950 . S
H478 C484 0.949 . S
C479 H474 0.950 . S
C479 C481 1.327 . S
C479 C485 1.429 . S
C480 C472 1.574 . S
C480 H475 0.949 . S
C480 C486 1.368 . S
C481 C465 1.349 . S
C481 H473 0.950 . S
C481 C479 1.327 . S
C482 C470 1.349 . S
C482 H476 0.950 . S
C482 C483 1.327 . S
C483 H477 0.950 . S
C483 C482 1.327 . S
C483 C487 1.429 . S
C484 C467 1.574 . S
C484 H478 0.949 . S
C484 C488 1.368 . S
C485 C466 1.429 . S
C485 C479 1.429 . S
C485 C486 1.523 . S
C486 C467 1.368 . S
C486 C480 1.368 . S
C486 C485 1.523 . S
C487 C471 1.429 . S
C487 C483 1.429 . S
C487 C488 1.523 . S
C488 C472 1.368 . S
C488 C484 1.368 . S
C488 C487 1.523 . S
H489 C464 0.950 . S
H490 C466 0.950 . S
H491 C467 0.949 . S
H492 C469 0.950 . S
H493 C471 0.950 . S
C494 C495 1.349 . S
C494 C496 1.327 . S
C494 H519 0.950 . S
C495 C494 1.349 . S
C495 C511 1.349 . S
C496 C494 1.327 . S
C496 C515 1.429 . S
C496 H520 0.950 . S
C497 C514 1.574 . S
C497 C516 1.368 . S
C497 H521 0.949 . S
H498 C502 0.949 . S
C499 C500 1.349 . S
C499 C501 1.327 . S
C499 H522 0.950 . S
C500 C499 1.349 . S
C500 C512 1.349 . S
C501 C499 1.327 . S
C501 C517 1.429 . S
C501 H523 0.950 . S
C502 H498 0.949 . S
C502 C510 1.574 . S
C502 C518 1.368 . S
H503 C511 0.950 . S
H504 C509 0.950 . S
H505 C510 0.949 . S
H506 C512 0.950 . S
H507 C513 0.950 . S
H508 C514 0.949 . S
C509 H504 0.950 . S
C509 C511 1.327 . S
C509 C515 1.429 . S
C510 C502 1.574 . S
C510 H505 0.949 . S
C510 C516 1.368 . S
C511 C495 1.349 . S
C511 H503 0.950 . S
C511 C509 1.327 . S
C512 C500 1.349 . S
C512 H506 0.950 . S
C512 C513 1.327 . S
C513 H507 0.950 . S
C513 C512 1.327 . S
C513 C517 1.429 . S
C514 C497 1.574 . S
C514 H508 0.949 . S
C514 C518 1.368 . S
C515 C496 1.429 . S
C515 C509 1.429 . S
C515 C516 1.523 . S
C516 C497 1.368 . S
C516 C510 1.368 . S
C516 C515 1.523 . S
C517 C501 1.429 . S
C517 C513 1.429 . S
C517 C518 1.523 . S
C518 C502 1.368 . S
C518 C514 1.368 . S
C518 C517 1.523 . S
H519 C494 0.950 . S
H520 C496 0.950 . S
H521 C497 0.949 . S
H522 C499 0.950 . S
H523 C501 0.950 . S
C524 C525 1.349 . S
C524 C526 1.327 . S
C524 H549 0.950 . S
C525 C524 1.349 . S
C525 C541 1.349 . S
C526 C524 1.327 . S
C526 C545 1.429 . S
C526 H550 0.950 . S
C527 C544 1.574 . S
C527 C546 1.368 . S
C527 H551 0.949 . S
H528 C532 0.949 . S
C529 C530 1.349 . S
C529 C531 1.327 . S
C529 H552 0.950 . S
C530 C529 1.349 . S
C530 C542 1.349 . S
C531 C529 1.327 . S
C531 C547 1.429 . S
C531 H553 0.950 . S
C532 H528 0.949 . S
C532 C540 1.574 . S
C532 C548 1.368 . S
H533 C541 0.950 . S
H534 C539 0.950 . S
H535 C540 0.949 . S
H536 C542 0.950 . S
H537 C543 0.950 . S
H538 C544 0.949 . S
C539 H534 0.950 . S
C539 C541 1.327 . S
C539 C545 1.429 . S
C540 C532 1.574 . S
C540 H535 0.949 . S
C540 C546 1.368 . S
C541 C525 1.349 . S
C541 H533 0.950 . S
C541 C539 1.327 . S
C542 C530 1.349 . S
C542 H536 0.950 . S
C542 C543 1.327 . S
C543 H537 0.950 . S
C543 C542 1.327 . S
C543 C547 1.429 . S
C544 C527 1.574 . S
C544 H538 0.949 . S
C544 C548 1.368 . S
C545 C526 1.429 . S
C545 C539 1.429 . S
C545 C546 1.523 . S
C546 C527 1.368 . S
C546 C540 1.368 . S
C546 C545 1.523 . S
C547 C531 1.429 . S
C547 C543 1.429 . S
C547 C548 1.523 . S
C548 C532 1.368 . S
C548 C544 1.368 . S
C548 C547 1.523 . S
H549 C524 0.950 . S
H550 C526 0.950 . S
H551 C527 0.949 . S
H552 C529 0.950 . S
H553 C531 0.950 . S
C554 C555 1.349 . S
C554 C556 1.327 . S
C554 H579 0.950 . S
C555 C554 1.349 . S
C555 C571 1.349 . S
C556 C554 1.327 . S
C556 C575 1.429 . S
C556 H580 0.950 . S
C557 C574 1.574 . S
C557 C576 1.368 . S
C557 H581 0.949 . S
H558 C562 0.949 . S
C559 C560 1.349 . S
C559 C561 1.327 . S
C559 H582 0.950 . S
C560 C559 1.349 . S
C560 C572 1.349 . S
C561 C559 1.327 . S
C561 C577 1.429 . S
C561 H583 0.950 . S
C562 H558 0.949 . S
C562 C570 1.574 . S
C562 C578 1.368 . S
H563 C571 0.950 . S
H564 C569 0.950 . S
H565 C570 0.949 . S
H566 C572 0.950 . S
H567 C573 0.950 . S
H568 C574 0.949 . S
C569 H564 0.950 . S
C569 C571 1.327 . S
C569 C575 1.429 . S
C570 C562 1.574 . S
C570 H565 0.949 . S
C570 C576 1.368 . S
C571 C555 1.349 . S
C571 H563 0.950 . S
C571 C569 1.327 . S
C572 C560 1.349 . S
C572 H566 0.950 . S
C572 C573 1.327 . S
C573 H567 0.950 . S
C573 C572 1.327 . S
C573 C577 1.429 . S
C574 C557 1.574 . S
C574 H568 0.949 . S
C574 C578 1.368 . S
C575 C556 1.429 . S
C575 C569 1.429 . S
C575 C576 1.523 . S
C576 C557 1.368 . S
C576 C570 1.368 . S
C576 C575 1.523 . S
C577 C561 1.429 . S
C577 C573 1.429 . S
C577 C578 1.523 . S
C578 C562 1.368 . S
C578 C574 1.368 . S
C578 C577 1.523 . S
H579 C554 0.950 . S
H580 C556 0.950 . S
H581 C557 0.949 . S
H582 C559 0.950 . S
H583 C561 0.950 . S
C584 C585 1.349 . S
C584 C586 1.327 . S
C584 H609 0.950 . S
C585 C584 1.349 . S
C585 C601 1.349 . S
C586 C584 1.327 . S
C586 C605 1.429 . S
C586 H610 0.950 . S
C587 C604 1.574 . S
C587 C606 1.368 . S
C587 H611 0.949 . S
H588 C592 0.949 . S
C589 C590 1.349 . S
C589 C591 1.327 . S
C589 H612 0.950 . S
C590 C589 1.349 . S
C590 C602 1.349 . S
C591 C589 1.327 . S
C591 C607 1.429 . S
C591 H613 0.950 . S
C592 H588 0.949 . S
C592 C600 1.574 . S
C592 C608 1.368 . S
H593 C601 0.950 . S
H594 C599 0.950 . S
H595 C600 0.949 . S
H596 C602 0.950 . S
H597 C603 0.950 . S
H598 C604 0.949 . S
C599 H594 0.950 . S
C599 C601 1.327 . S
C599 C605 1.429 . S
C600 C592 1.574 . S
C600 H595 0.949 . S
C600 C606 1.368 . S
C601 C585 1.349 . S
C601 H593 0.950 . S
C601 C599 1.327 . S
C602 C590 1.349 . S
C602 H596 0.950 . S
C602 C603 1.327 . S
C603 H597 0.950 . S
C603 C602 1.327 . S
C603 C607 1.429 . S
C604 C587 1.574 . S
C604 H598 0.949 . S
C604 C608 1.368 . S
C605 C586 1.429 . S
C605 C599 1.429 . S
C605 C606 1.523 . S
C606 C587 1.368 . S
C606 C600 1.368 . S
C606 C605 1.523 . S
C607 C591 1.429 . S
C607 C603 1.429 . S
C607 C608 1.523 . S
C608 C592 1.368 . S
C608 C604 1.368 . S
C608 C607 1.523 . S
H609 C584 0.950 . S
H610 C586 0.950 . S
H611 C587 0.949 . S
H612 C589 0.950 . S
H613 C591 0.950 . S
C614 C615 1.349 . S
C614 C616 1.327 . S
C614 H639 0.950 . S
C615 C614 1.349 . S
C615 C631 1.349 . S
C616 C614 1.327 . S
C616 C635 1.429 . S
C616 H640 0.950 . S
C617 C634 1.574 . S
C617 C636 1.368 . S
C617 H641 0.949 . S
H618 C622 0.949 . S
C619 C620 1.349 . S
C619 C621 1.327 . S
C619 H642 0.950 . S
C620 C619 1.349 . S
C620 C632 1.349 . S
C621 C619 1.327 . S
C621 C637 1.429 . S
C621 H643 0.950 . S
C622 H618 0.949 . S
C622 C630 1.574 . S
C622 C638 1.368 . S
H623 C631 0.950 . S
H624 C629 0.950 . S
H625 C630 0.949 . S
H626 C632 0.950 . S
H627 C633 0.950 . S
H628 C634 0.949 . S
C629 H624 0.950 . S
C629 C631 1.327 . S
C629 C635 1.429 . S
C630 C622 1.574 . S
C630 H625 0.949 . S
C630 C636 1.368 . S
C631 C615 1.349 . S
C631 H623 0.950 . S
C631 C629 1.327 . S
C632 C620 1.349 . S
C632 H626 0.950 . S
C632 C633 1.327 . S
C633 H627 0.950 . S
C633 C632 1.327 . S
C633 C637 1.429 . S
C634 C617 1.574 . S
C634 H628 0.949 . S
C634 C638 1.368 . S
C635 C616 1.429 . S
C635 C629 1.429 . S
C635 C636 1.523 . S
C636 C617 1.368 . S
C636 C630 1.368 . S
C636 C635 1.523 . S
C637 C621 1.429 . S
C637 C633 1.429 . S
C637 C638 1.523 . S
C638 C622 1.368 . S
C638 C634 1.368 . S
C638 C637 1.523 . S
H639 C614 0.950 . S
H640 C616 0.950 . S
H641 C617 0.949 . S
H642 C619 0.950 . S
H643 C621 0.950 . S
C644 C645 1.349 . S
C644 C646 1.327 . S
C644 H669 0.950 . S
C645 C644 1.349 . S
C645 C661 1.349 . S
C646 C644 1.327 . S
C646 C665 1.429 . S
C646 H670 0.950 . S
C647 C664 1.574 . S
C647 C666 1.368 . S
C647 H671 0.949 . S
H648 C652 0.949 . S
C649 C650 1.349 . S
C649 C651 1.327 . S
C649 H672 0.950 . S
C650 C649 1.349 . S
C650 C662 1.349 . S
C651 C649 1.327 . S
C651 C667 1.429 . S
C651 H673 0.950 . S
C652 H648 0.949 . S
C652 C660 1.574 . S
C652 C668 1.368 . S
H653 C661 0.950 . S
H654 C659 0.950 . S
H655 C660 0.949 . S
H656 C662 0.950 . S
H657 C663 0.950 . S
H658 C664 0.949 . S
C659 H654 0.950 . S
C659 C661 1.327 . S
C659 C665 1.429 . S
C660 C652 1.574 . S
C660 H655 0.949 . S
C660 C666 1.368 . S
C661 C645 1.349 . S
C661 H653 0.950 . S
C661 C659 1.327 . S
C662 C650 1.349 . S
C662 H656 0.950 . S
C662 C663 1.327 . S
C663 H657 0.950 . S
C663 C662 1.327 . S
C663 C667 1.429 . S
C664 C647 1.574 . S
C664 H658 0.949 . S
C664 C668 1.368 . S
C665 C646 1.429 . S
C665 C659 1.429 . S
C665 C666 1.523 . S
C666 C647 1.368 . S
C666 C660 1.368 . S
C666 C665 1.523 . S
C667 C651 1.429 . S
C667 C663 1.429 . S
C667 C668 1.523 . S
C668 C652 1.368 . S
C668 C664 1.368 . S
C668 C667 1.523 . S
H669 C644 0.950 . S
H670 C646 0.950 . S
H671 C647 0.949 . S
H672 C649 0.950 . S
H673 C651 0.950 . S
C674 C675 1.349 . S
C674 C676 1.327 . S
C674 H699 0.950 . S
C675 C674 1.349 . S
C675 C691 1.349 . S
C676 C674 1.327 . S
C676 C695 1.429 . S
C676 H700 0.950 . S
C677 C694 1.574 . S
C677 C696 1.368 . S
C677 H701 0.949 . S
H678 C682 0.949 . S
C679 C680 1.349 . S
C679 C681 1.327 . S
C679 H702 0.950 . S
C680 C679 1.349 . S
C680 C692 1.349 . S
C681 C679 1.327 . S
C681 C697 1.429 . S
C681 H703 0.950 . S
C682 H678 0.949 . S
C682 C690 1.574 . S
C682 C698 1.368 . S
H683 C691 0.950 . S
H684 C689 0.950 . S
H685 C690 0.949 . S
H686 C692 0.950 . S
H687 C693 0.950 . S
H688 C694 0.949 . S
C689 H684 0.950 . S
C689 C691 1.327 . S
C689 C695 1.429 . S
C690 C682 1.574 . S
C690 H685 0.949 . S
C690 C696 1.368 . S
C691 C675 1.349 . S
C691 H683 0.950 . S
C691 C689 1.327 . S
C692 C680 1.349 . S
C692 H686 0.950 . S
C692 C693 1.327 . S
C693 H687 0.950 . S
C693 C692 1.327 . S
C693 C697 1.429 . S
C694 C677 1.574 . S
C694 H688 0.949 . S
C694 C698 1.368 . S
C695 C676 1.429 . S
C695 C689 1.429 . S
C695 C696 1.523 . S
C696 C677 1.368 . S
C696 C690 1.368 . S
C696 C695 1.523 . S
C697 C681 1.429 . S
C697 C693 1.429 . S
C697 C698 1.523 . S
C698 C682 1.368 . S
C698 C694 1.368 . S
C698 C697 1.523 . S
H699 C674 0.950 . S
H700 C676 0.950 . S
H701 C677 0.949 . S
H702 C679 0.950 . S
H703 C681 0.950 . S
C704 C705 1.349 . S
C704 C706 1.327 . S
C704 H729 0.950 . S
C705 C704 1.349 . S
C705 C721 1.349 . S
C706 C704 1.327 . S
C706 C725 1.429 . S
C706 H730 0.950 . S
C707 C724 1.574 . S
C707 C726 1.368 . S
C707 H731 0.949 . S
H708 C712 0.949 . S
C709 C710 1.349 . S
C709 C711 1.327 . S
C709 H732 0.950 . S
C710 C709 1.349 . S
C710 C722 1.349 . S
C711 C709 1.327 . S
C711 C727 1.429 . S
C711 H733 0.950 . S
C712 H708 0.949 . S
C712 C720 1.574 . S
C712 C728 1.368 . S
H713 C721 0.950 . S
H714 C719 0.950 . S
H715 C720 0.949 . S
H716 C722 0.950 . S
H717 C723 0.950 . S
H718 C724 0.949 . S
C719 H714 0.950 . S
C719 C721 1.327 . S
C719 C725 1.429 . S
C720 C712 1.574 . S
C720 H715 0.949 . S
C720 C726 1.368 . S
C721 C705 1.349 . S
C721 H713 0.950 . S
C721 C719 1.327 . S
C722 C710 1.349 . S
C722 H716 0.950 . S
C722 C723 1.327 . S
C723 H717 0.950 . S
C723 C722 1.327 . S
C723 C727 1.429 . S
C724 C707 1.574 . S
C724 H718 0.949 . S
C724 C728 1.368 . S
C725 C706 1.429 . S
C725 C719 1.429 . S
C725 C726 1.523 . S
C726 C707 1.368 . S
C726 C720 1.368 . S
C726 C725 1.523 . S
C727 C711 1.429 . S
C727 C723 1.429 . S
C727 C728 1.523 . S
C728 C712 1.368 . S
C728 C724 1.368 . S
C728 C727 1.523 . S
H729 C704 0.950 . S
H730 C706 0.950 . S
H731 C707 0.949 . S
H732 C709 0.950 . S
H733 C711 0.950 . S
C734 C735 1.349 . S
C734 C736 1.327 . S
C734 H759 0.950 . S
C735 C734 1.349 . S
C735 C751 1.349 . S
C736 C734 1.327 . S
C736 C755 1.429 . S
C736 H760 0.950 . S
C737 C754 1.574 . S
C737 C756 1.368 . S
C737 H761 0.949 . S
H738 C742 0.949 . S
C739 C740 1.349 . S
C739 C741 1.327 . S
C739 H762 0.950 . S
C740 C739 1.349 . S
C740 C752 1.349 . S
C741 C739 1.327 . S
C741 C757 1.429 . S
C741 H763 0.950 . S
C742 H738 0.949 . S
C742 C750 1.574 . S
C742 C758 1.368 . S
H743 C751 0.950 . S
H744 C749 0.950 . S
H745 C750 0.949 . S
H746 C752 0.950 . S
H747 C753 0.950 . S
H748 C754 0.949 . S
C749 H744 0.950 . S
C749 C751 1.327 . S
C749 C755 1.429 . S
C750 C742 1.574 . S
C750 H745 0.949 . S
C750 C756 1.368 . S
C751 C735 1.349 . S
C751 H743 0.950 . S
C751 C749 1.327 . S
C752 C740 1.349 . S
C752 H746 0.950 . S
C752 C753 1.327 . S
C753 H747 0.950 . S
C753 C752 1.327 . S
C753 C757 1.429 . S
C754 C737 1.574 . S
C754 H748 0.949 . S
C754 C758 1.368 . S
C755 C736 1.429 . S
C755 C749 1.429 . S
C755 C756 1.523 . S
C756 C737 1.368 . S
C756 C750 1.368 . S
C756 C755 1.523 . S
C757 C741 1.429 . S
C757 C753 1.429 . S
C757 C758 1.523 . S
C758 C742 1.368 . S
C758 C754 1.368 . S
C758 C757 1.523 . S
H759 C734 0.950 . S
H760 C736 0.950 . S
H761 C737 0.949 . S
H762 C739 0.950 . S
H763 C741 0.950 . S
C764 C765 1.349 . S
C764 C766 1.327 . S
C764 H789 0.950 . S
C765 C764 1.349 . S
C765 C781 1.349 . S
C766 C764 1.327 . S
C766 C785 1.429 . S
C766 H790 0.950 . S
C767 C784 1.574 . S
C767 C786 1.368 . S
C767 H791 0.949 . S
H768 C772 0.949 . S
C769 C770 1.349 . S
C769 C771 1.327 . S
C769 H792 0.950 . S
C770 C769 1.349 . S
C770 C782 1.349 . S
C771 C769 1.327 . S
C771 C787 1.429 . S
C771 H793 0.950 . S
C772 H768 0.949 . S
C772 C780 1.574 . S
C772 C788 1.368 . S
H773 C781 0.950 . S
H774 C779 0.950 . S
H775 C780 0.949 . S
H776 C782 0.950 . S
H777 C783 0.950 . S
H778 C784 0.949 . S
C779 H774 0.950 . S
C779 C781 1.327 . S
C779 C785 1.429 . S
C780 C772 1.574 . S
C780 H775 0.949 . S
C780 C786 1.368 . S
C781 C765 1.349 . S
C781 H773 0.950 . S
C781 C779 1.327 . S
C782 C770 1.349 . S
C782 H776 0.950 . S
C782 C783 1.327 . S
C783 H777 0.950 . S
C783 C782 1.327 . S
C783 C787 1.429 . S
C784 C767 1.574 . S
C784 H778 0.949 . S
C784 C788 1.368 . S
C785 C766 1.429 . S
C785 C779 1.429 . S
C785 C786 1.523 . S
C786 C767 1.368 . S
C786 C780 1.368 . S
C786 C785 1.523 . S
C787 C771 1.429 . S
C787 C783 1.429 . S
C787 C788 1.523 . S
C788 C772 1.368 . S
C788 C784 1.368 . S
C788 C787 1.523 . S
H789 C764 0.950 . S
H790 C766 0.950 . S
H791 C767 0.949 . S
H792 C769 0.950 . S
H793 C771 0.950 . S
C794 C795 1.349 . S
C794 C796 1.327 . S
C794 H819 0.950 . S
C795 C794 1.349 . S
C795 C811 1.349 . S
C796 C794 1.327 . S
C796 C815 1.429 . S
C796 H820 0.950 . S
C797 C814 1.574 . S
C797 C816 1.368 . S
C797 H821 0.949 . S
H798 C802 0.949 . S
C799 C800 1.349 . S
C799 C801 1.327 . S
C799 H822 0.950 . S
C800 C799 1.349 . S
C800 C812 1.349 . S
C801 C799 1.327 . S
C801 C817 1.429 . S
C801 H823 0.950 . S
C802 H798 0.949 . S
C802 C810 1.574 . S
C802 C818 1.368 . S
H803 C811 0.950 . S
H804 C809 0.950 . S
H805 C810 0.949 . S
H806 C812 0.950 . S
H807 C813 0.950 . S
H808 C814 0.949 . S
C809 H804 0.950 . S
C809 C811 1.327 . S
C809 C815 1.429 . S
C810 C802 1.574 . S
C810 H805 0.949 . S
C810 C816 1.368 . S
C811 C795 1.349 . S
C811 H803 0.950 . S
C811 C809 1.327 . S
C812 C800 1.349 . S
C812 H806 0.950 . S
C812 C813 1.327 . S
C813 H807 0.950 . S
C813 C812 1.327 . S
C813 C817 1.429 . S
C814 C797 1.574 . S
C814 H808 0.949 . S
C814 C818 1.368 . S
C815 C796 1.429 . S
C815 C809 1.429 . S
C815 C816 1.523 . S
C816 C797 1.368 . S
C816 C810 1.368 . S
C816 C815 1.523 . S
C817 C801 1.429 . S
C817 C813 1.429 . S
C817 C818 1.523 . S
C818 C802 1.368 . S
C818 C814 1.368 . S
C818 C817 1.523 . S
H819 C794 0.950 . S
H820 C796 0.950 . S
H821 C797 0.949 . S
H822 C799 0.950 . S
H823 C801 0.950 . S
C824 C825 1.349 1_556 S
C824 C826 1.327 . S
C824 H849 0.950 . S
C825 C824 1.349 1_554 S
C825 C841 1.349 . S
C826 C824 1.327 . S
C826 C845 1.429 1_556 S
C826 H850 0.950 . S
C827 C844 1.574 . S
C827 C846 1.368 . S
C827 H851 0.949 . S
H828 C832 0.949 . S
C829 C830 1.349 . S
C829 C831 1.327 . S
C829 H852 0.950 . S
C830 C829 1.349 . S
C830 C842 1.349 1_554 S
C831 C829 1.327 . S
C831 C847 1.429 . S
C831 H853 0.950 . S
C832 H828 0.949 . S
C832 C840 1.574 . S
C832 C848 1.368 1_556 S
H833 C841 0.950 . S
H834 C839 0.950 . S
H835 C840 0.949 . S
H836 C842 0.950 . S
H837 C843 0.950 . S
H838 C844 0.949 . S
C839 H834 0.950 . S
C839 C841 1.327 . S
C839 C845 1.429 . S
C840 C832 1.574 . S
C840 H835 0.949 . S
C840 C846 1.368 1_556 S
C841 C825 1.349 . S
C841 H833 0.950 . S
C841 C839 1.327 . S
C842 C830 1.349 1_556 S
C842 H836 0.950 . S
C842 C843 1.327 . S
C843 H837 0.950 . S
C843 C842 1.327 . S
C843 C847 1.429 1_556 S
C844 C827 1.574 . S
C844 H838 0.949 . S
C844 C848 1.368 . S
C845 C826 1.429 1_554 S
C845 C839 1.429 . S
C845 C846 1.523 . S
C846 C827 1.368 . S
C846 C840 1.368 1_554 S
C846 C845 1.523 . S
C847 C831 1.429 . S
C847 C843 1.429 1_554 S
C847 C848 1.523 . S
C848 C832 1.368 1_554 S
C848 C844 1.368 . S
C848 C847 1.523 . S
H849 C824 0.950 . S
H850 C826 0.950 . S
H851 C827 0.949 . S
H852 C829 0.950 . S
H853 C831 0.950 . S
C854 C855 1.349 . S
C854 C856 1.327 . S
C854 H879 0.950 . S
C855 C854 1.349 . S
C855 C871 1.349 . S
C856 C854 1.327 . S
C856 C875 1.429 . S
C856 H880 0.950 . S
C857 C874 1.574 . S
C857 C876 1.368 . S
C857 H881 0.949 . S
H858 C862 0.949 . S
C859 C860 1.349 . S
C859 C861 1.327 . S
C859 H882 0.950 . S
C860 C859 1.349 . S
C860 C872 1.349 . S
C861 C859 1.327 . S
C861 C877 1.429 . S
C861 H883 0.950 . S
C862 H858 0.949 . S
C862 C870 1.574 . S
C862 C878 1.368 . S
H863 C871 0.950 . S
H864 C869 0.950 . S
H865 C870 0.949 . S
H866 C872 0.950 . S
H867 C873 0.950 . S
H868 C874 0.949 . S
C869 H864 0.950 . S
C869 C871 1.327 . S
C869 C875 1.429 . S
C870 C862 1.574 . S
C870 H865 0.949 . S
C870 C876 1.368 . S
C871 C855 1.349 . S
C871 H863 0.950 . S
C871 C869 1.327 . S
C872 C860 1.349 . S
C872 H866 0.950 . S
C872 C873 1.327 . S
C873 H867 0.950 . S
C873 C872 1.327 . S
C873 C877 1.429 . S
C874 C857 1.574 . S
C874 H868 0.949 . S
C874 C878 1.368 . S
C875 C856 1.429 . S
C875 C869 1.429 . S
C875 C876 1.523 . S
C876 C857 1.368 . S
C876 C870 1.368 . S
C876 C875 1.523 . S
C877 C861 1.429 . S
C877 C873 1.429 . S
C877 C878 1.523 . S
C878 C862 1.368 . S
C878 C874 1.368 . S
C878 C877 1.523 . S
H879 C854 0.950 . S
H880 C856 0.950 . S
H881 C857 0.949 . S
H882 C859 0.950 . S
H883 C861 0.950 . S
C884 C885 1.349 . S
C884 C886 1.327 . S
C884 H909 0.950 . S
C885 C884 1.349 . S
C885 C901 1.349 1_554 S
C886 C884 1.327 . S
C886 C905 1.429 . S
C886 H910 0.950 . S
C887 C904 1.574 . S
C887 C906 1.368 1_556 S
C887 H911 0.949 . S
H888 C892 0.949 . S
C889 C890 1.349 1_556 S
C889 C891 1.327 . S
C889 H912 0.950 . S
C890 C889 1.349 1_554 S
C890 C902 1.349 . S
C891 C889 1.327 . S
C891 C907 1.429 1_556 S
C891 H913 0.950 . S
C892 H888 0.949 . S
C892 C900 1.574 . S
C892 C908 1.368 . S
H893 C901 0.950 . S
H894 C899 0.950 . S
H895 C900 0.949 . S
H896 C902 0.950 . S
H897 C903 0.950 . S
H898 C904 0.949 . S
C899 H894 0.950 . S
C899 C901 1.327 . S
C899 C905 1.429 1_556 S
C900 C892 1.574 . S
C900 H895 0.949 . S
C900 C906 1.368 . S
C901 C885 1.349 1_556 S
C901 H893 0.950 . S
C901 C899 1.327 . S
C902 C890 1.349 . S
C902 H896 0.950 . S
C902 C903 1.327 . S
C903 H897 0.950 . S
C903 C902 1.327 . S
C903 C907 1.429 . S
C904 C887 1.574 . S
C904 H898 0.949 . S
C904 C908 1.368 1_556 S
C905 C886 1.429 . S
C905 C899 1.429 1_554 S
C905 C906 1.523 . S
C906 C887 1.368 1_554 S
C906 C900 1.368 . S
C906 C905 1.523 . S
C907 C891 1.429 1_554 S
C907 C903 1.429 . S
C907 C908 1.523 . S
C908 C892 1.368 . S
C908 C904 1.368 1_554 S
C908 C907 1.523 . S
H909 C884 0.950 . S
H910 C886 0.950 . S
H911 C887 0.949 . S
H912 C889 0.950 . S
H913 C891 0.950 . S
C914 C915 1.349 . S
C914 C916 1.327 . S
C914 H939 0.950 . S
C915 C914 1.349 . S
C915 C931 1.349 . S
C916 C914 1.327 . S
C916 C935 1.429 . S
C916 H940 0.950 . S
C917 C934 1.574 . S
C917 C936 1.368 . S
C917 H941 0.949 . S
H918 C922 0.949 . S
C919 C920 1.349 . S
C919 C921 1.327 . S
C919 H942 0.950 . S
C920 C919 1.349 . S
C920 C932 1.349 . S
C921 C919 1.327 . S
C921 C937 1.429 . S
C921 H943 0.950 . S
C922 H918 0.949 . S
C922 C930 1.574 . S
C922 C938 1.368 . S
H923 C931 0.950 . S
H924 C929 0.950 . S
H925 C930 0.949 . S
H926 C932 0.950 . S
H927 C933 0.950 . S
H928 C934 0.949 . S
C929 H924 0.950 . S
C929 C931 1.327 . S
C929 C935 1.429 . S
C930 C922 1.574 . S
C930 H925 0.949 . S
C930 C936 1.368 . S
C931 C915 1.349 . S
C931 H923 0.950 . S
C931 C929 1.327 . S
C932 C920 1.349 . S
C932 H926 0.950 . S
C932 C933 1.327 . S
C933 H927 0.950 . S
C933 C932 1.327 . S
C933 C937 1.429 . S
C934 C917 1.574 . S
C934 H928 0.949 . S
C934 C938 1.368 . S
C935 C916 1.429 . S
C935 C929 1.429 . S
C935 C936 1.523 . S
C936 C917 1.368 . S
C936 C930 1.368 . S
C936 C935 1.523 . S
C937 C921 1.429 . S
C937 C933 1.429 . S
C937 C938 1.523 . S
C938 C922 1.368 . S
C938 C934 1.368 . S
C938 C937 1.523 . S
H939 C914 0.950 . S
H940 C916 0.950 . S
H941 C917 0.949 . S
H942 C919 0.950 . S
H943 C921 0.950 . S
C944 C945 1.349 . S
C944 C946 1.327 . S
C944 H969 0.950 . S
C945 C944 1.349 . S
C945 C961 1.349 . S
C946 C944 1.327 . S
C946 C965 1.429 . S
C946 H970 0.950 . S
C947 C964 1.574 . S
C947 C966 1.368 . S
C947 H971 0.949 . S
H948 C952 0.949 . S
C949 C950 1.349 . S
C949 C951 1.327 . S
C949 H972 0.950 . S
C950 C949 1.349 . S
C950 C962 1.349 . S
C951 C949 1.327 . S
C951 C967 1.429 . S
C951 H973 0.950 . S
C952 H948 0.949 . S
C952 C960 1.574 . S
C952 C968 1.368 . S
H953 C961 0.950 . S
H954 C959 0.950 . S
H955 C960 0.949 . S
H956 C962 0.950 . S
H957 C963 0.950 . S
H958 C964 0.949 . S
C959 H954 0.950 . S
C959 C961 1.327 . S
C959 C965 1.429 . S
C960 C952 1.574 . S
C960 H955 0.949 . S
C960 C966 1.368 . S
C961 C945 1.349 . S
C961 H953 0.950 . S
C961 C959 1.327 . S
C962 C950 1.349 . S
C962 H956 0.950 . S
C962 C963 1.327 . S
C963 H957 0.950 . S
C963 C962 1.327 . S
C963 C967 1.429 . S
C964 C947 1.574 . S
C964 H958 0.949 . S
C964 C968 1.368 . S
C965 C946 1.429 . S
C965 C959 1.429 . S
C965 C966 1.523 . S
C966 C947 1.368 . S
C966 C960 1.368 . S
C966 C965 1.523 . S
C967 C951 1.429 . S
C967 C963 1.429 . S
C967 C968 1.523 . S
C968 C952 1.368 . S
C968 C964 1.368 . S
C968 C967 1.523 . S
H969 C944 0.950 . S
H970 C946 0.950 . S
H971 C947 0.949 . S
H972 C949 0.950 . S
H973 C951 0.950 . S
C974 C975 1.349 1_556 S
C974 C976 1.327 . S
C974 H999 0.950 . S
C975 C974 1.349 1_554 S
C975 C991 1.349 . S
C976 C974 1.327 . S
C976 C995 1.429 1_556 S
C976 H1000 0.950 . S
C977 C994 1.574 . S
C977 C996 1.368 . S
C977 H1001 0.949 . S
H978 C982 0.949 . S
C979 C980 1.349 . S
C979 C981 1.327 . S
C979 H1002 0.950 . S
C980 C979 1.349 . S
C980 C992 1.349 1_554 S
C981 C979 1.327 . S
C981 C997 1.429 . S
C981 H1003 0.950 . S
C982 H978 0.949 . S
C982 C990 1.574 . S
C982 C998 1.368 1_556 S
H983 C991 0.950 . S
H984 C989 0.950 . S
H985 C990 0.949 . S
H986 C992 0.950 . S
H987 C993 0.950 . S
H988 C994 0.949 . S
C989 H984 0.950 . S
C989 C991 1.327 . S
C989 C995 1.429 . S
C990 C982 1.574 . S
C990 H985 0.949 . S
C990 C996 1.368 1_556 S
C991 C975 1.349 . S
C991 H983 0.950 . S
C991 C989 1.327 . S
C992 C980 1.349 1_556 S
C992 H986 0.950 . S
C992 C993 1.327 . S
C993 H987 0.950 . S
C993 C992 1.327 . S
C993 C997 1.429 1_556 S
C994 C977 1.574 . S
C994 H988 0.949 . S
C994 C998 1.368 . S
C995 C976 1.429 1_554 S
C995 C989 1.429 . S
C995 C996 1.523 . S
C996 C977 1.368 . S
C996 C990 1.368 1_554 S
C996 C995 1.523 . S
C997 C981 1.429 . S
C997 C993 1.429 1_554 S
C997 C998 1.523 . S
C998 C982 1.368 1_554 S
C998 C994 1.368 . S
C998 C997 1.523 . S
H999 C974 0.950 . S
H1000 C976 0.950 . S
H1001 C977 0.949 . S
H1002 C979 0.950 . S
H1003 C981 0.950 . S
C1004 C1005 1.349 . S
C1004 C1006 1.327 . S
C1004 H1029 0.950 . S
C1005 C1004 1.349 . S
C1005 C1021 1.349 . S
C1006 C1004 1.327 . S
C1006 C1025 1.429 . S
C1006 H1030 0.950 . S
C1007 C1024 1.574 . S
C1007 C1026 1.368 . S
C1007 H1031 0.949 . S
H1008 C1012 0.949 . S
C1009 C1010 1.349 . S
C1009 C1011 1.327 . S
C1009 H1032 0.950 . S
C1010 C1009 1.349 . S
C1010 C1022 1.349 . S
C1011 C1009 1.327 . S
C1011 C1027 1.429 . S
C1011 H1033 0.950 . S
C1012 H1008 0.949 . S
C1012 C1020 1.574 . S
C1012 C1028 1.368 . S
H1013 C1021 0.950 . S
H1014 C1019 0.950 . S
H1015 C1020 0.949 . S
H1016 C1022 0.950 . S
H1017 C1023 0.950 . S
H1018 C1024 0.949 . S
C1019 H1014 0.950 . S
C1019 C1021 1.327 . S
C1019 C1025 1.429 . S
C1020 C1012 1.574 . S
C1020 H1015 0.949 . S
C1020 C1026 1.368 . S
C1021 C1005 1.349 . S
C1021 H1013 0.950 . S
C1021 C1019 1.327 . S
C1022 C1010 1.349 . S
C1022 H1016 0.950 . S
C1022 C1023 1.327 . S
C1023 H1017 0.950 . S
C1023 C1022 1.327 . S
C1023 C1027 1.429 . S
C1024 C1007 1.574 . S
C1024 H1018 0.949 . S
C1024 C1028 1.368 . S
C1025 C1006 1.429 . S
C1025 C1019 1.429 . S
C1025 C1026 1.523 . S
C1026 C1007 1.368 . S
C1026 C1020 1.368 . S
C1026 C1025 1.523 . S
C1027 C1011 1.429 . S
C1027 C1023 1.429 . S
C1027 C1028 1.523 . S
C1028 C1012 1.368 . S
C1028 C1024 1.368 . S
C1028 C1027 1.523 . S
H1029 C1004 0.950 . S
H1030 C1006 0.950 . S
H1031 C1007 0.949 . S
H1032 C1009 0.950 . S
H1033 C1011 0.950 . S
C1034 C1035 1.349 1_556 S
C1034 C1036 1.327 . S
C1034 H1059 0.950 . S
C1035 C1034 1.349 1_554 S
C1035 C1051 1.349 . S
C1036 C1034 1.327 . S
C1036 C1055 1.429 1_556 S
C1036 H1060 0.950 . S
C1037 C1054 1.574 . S
C1037 C1056 1.368 . S
C1037 H1061 0.949 . S
H1038 C1042 0.949 . S
C1039 C1040 1.349 . S
C1039 C1041 1.327 . S
C1039 H1062 0.950 . S
C1040 C1039 1.349 . S
C1040 C1052 1.349 1_554 S
C1041 C1039 1.327 . S
C1041 C1057 1.429 . S
C1041 H1063 0.950 . S
C1042 H1038 0.949 . S
C1042 C1050 1.574 . S
C1042 C1058 1.368 1_556 S
H1043 C1051 0.950 . S
H1044 C1049 0.950 . S
H1045 C1050 0.949 . S
H1046 C1052 0.950 . S
H1047 C1053 0.950 . S
H1048 C1054 0.949 . S
C1049 H1044 0.950 . S
C1049 C1051 1.327 . S
C1049 C1055 1.429 . S
C1050 C1042 1.574 . S
C1050 H1045 0.949 . S
C1050 C1056 1.368 1_556 S
C1051 C1035 1.349 . S
C1051 H1043 0.950 . S
C1051 C1049 1.327 . S
C1052 C1040 1.349 1_556 S
C1052 H1046 0.950 . S
C1052 C1053 1.327 . S
C1053 H1047 0.950 . S
C1053 C1052 1.327 . S
C1053 C1057 1.429 1_556 S
C1054 C1037 1.574 . S
C1054 H1048 0.949 . S
C1054 C1058 1.368 . S
C1055 C1036 1.429 1_554 S
C1055 C1049 1.429 . S
C1055 C1056 1.523 . S
C1056 C1037 1.368 . S
C1056 C1050 1.368 1_554 S
C1056 C1055 1.523 . S
C1057 C1041 1.429 . S
C1057 C1053 1.429 1_554 S
C1057 C1058 1.523 . S
C1058 C1042 1.368 1_554 S
C1058 C1054 1.368 . S
C1058 C1057 1.523 . S
H1059 C1034 0.950 . S
H1060 C1036 0.950 . S
H1061 C1037 0.949 . S
H1062 C1039 0.950 . S
H1063 C1041 0.950 . S
C345 C5 1.410 . S
C350 C201 1.425 . S
C375 C31 1.422 . S
C380 C117 1.382 . S
C410 C149 1.378 . S
C405 C53 1.417 . S
C435 C71 1.405 . S
C440 C169 1.420 . S
C470 C277 1.382 . S
C465 C75 1.422 . S
C500 C297 1.425 . S
C495 C9 1.410 . S
C530 C329 1.420 . S
C525 C27 1.405 . S
C560 C245 1.378 . S
C555 C49 1.417 . S
C585 C51 1.410 . S
C590 C137 1.383 . S
C615 C72 1.422 . S
C620 C181 1.432 . S
C645 C6 1.417 . S
C650 C213 1.428 . S
C680 C105 1.379 . S
C675 C29 1.405 . S
C705 C28 1.422 . S
C710 C341 1.432 . S
C740 C233 1.383 . S
C735 C50 1.410 . S
C770 C265 1.379 . S
C765 C73 1.405 . S
C795 C7 1.417 . S
C800 C309 1.428 . S
C830 C111 1.437 . S
C825 C4 1.480 . S
C860 C143 1.437 . S
C855 C30 1.480 . S
C885 C52 1.480 . S
C890 C175 1.483 . S
C915 C70 1.480 . S
C920 C207 1.483 . S
C950 C239 1.437 . S
C945 C74 1.481 . S
C975 C8 1.480 . S
C980 C271 1.437 . S
C1005 C26 1.481 . S
C1010 C303 1.483 . S
C1035 C48 1.480 . S
C1040 C335 1.483 . S
