# Generated by pormake.
# Topology ctn, (3,4)-cn, num edge types: 1
# Building blocks:
#     Node 0, Type 0, BuildingBlock: BETDAH_clean_linker_0, # of connection points: 3
#     Node 1, Type 0, BuildingBlock: BETDAH_clean_linker_0, # of connection points: 3
#     Node 2, Type 0, BuildingBlock: BETDAH_clean_linker_0, # of connection points: 3
#     Node 3, Type 0, BuildingBlock: BETDAH_clean_linker_0, # of connection points: 3
#     Node 4, Type 0, BuildingBlock: BETDAH_clean_linker_0, # of connection points: 3
#     Node 5, Type 0, BuildingBlock: BETDAH_clean_linker_0, # of connection points: 3
#     Node 6, Type 0, BuildingBlock: BETDAH_clean_linker_0, # of connection points: 3
#     Node 7, Type 0, BuildingBlock: BETDAH_clean_linker_0, # of connection points: 3
#     Node 8, Type 0, BuildingBlock: BETDAH_clean_linker_0, # of connection points: 3
#     Node 9, Type 0, BuildingBlock: BETDAH_clean_linker_0, # of connection points: 3
#     Node 10, Type 0, BuildingBlock: BETDAH_clean_linker_0, # of connection points: 3
#     Node 11, Type 0, BuildingBlock: BETDAH_clean_linker_0, # of connection points: 3
#     Node 12, Type 0, BuildingBlock: BETDAH_clean_linker_0, # of connection points: 3
#     Node 13, Type 0, BuildingBlock: BETDAH_clean_linker_0, # of connection points: 3
#     Node 14, Type 0, BuildingBlock: BETDAH_clean_linker_0, # of connection points: 3
#     Node 15, Type 0, BuildingBlock: BETDAH_clean_linker_0, # of connection points: 3
#     Node 16, Type 1, BuildingBlock: QUQFOY_clean_sbu_1, # of connection points: 4
#     Node 17, Type 1, BuildingBlock: QUQFOY_clean_sbu_1, # of connection points: 4
#     Node 18, Type 1, BuildingBlock: QUQFOY_clean_sbu_1, # of connection points: 4
#     Node 19, Type 1, BuildingBlock: QUQFOY_clean_sbu_1, # of connection points: 4
#     Node 20, Type 1, BuildingBlock: QUQFOY_clean_sbu_1, # of connection points: 4
#     Node 21, Type 1, BuildingBlock: QUQFOY_clean_sbu_1, # of connection points: 4
#     Node 22, Type 1, BuildingBlock: QUQFOY_clean_sbu_1, # of connection points: 4
#     Node 23, Type 1, BuildingBlock: QUQFOY_clean_sbu_1, # of connection points: 4
#     Node 24, Type 1, BuildingBlock: QUQFOY_clean_sbu_1, # of connection points: 4
#     Node 25, Type 1, BuildingBlock: QUQFOY_clean_sbu_1, # of connection points: 4
#     Node 26, Type 1, BuildingBlock: QUQFOY_clean_sbu_1, # of connection points: 4
#     Node 27, Type 1, BuildingBlock: QUQFOY_clean_sbu_1, # of connection points: 4
#     Edge 28, Type (0, 1), BuildingBlock: OJICUG_clean_linker_0, # of connection points: 2
#     Edge 29, Type (0, 1), BuildingBlock: OJICUG_clean_linker_0, # of connection points: 2
#     Edge 30, Type (0, 1), BuildingBlock: OJICUG_clean_linker_0, # of connection points: 2
#     Edge 31, Type (0, 1), BuildingBlock: OJICUG_clean_linker_0, # of connection points: 2
#     Edge 32, Type (0, 1), BuildingBlock: OJICUG_clean_linker_0, # of connection points: 2
#     Edge 33, Type (0, 1), BuildingBlock: OJICUG_clean_linker_0, # of connection points: 2
#     Edge 34, Type (0, 1), BuildingBlock: OJICUG_clean_linker_0, # of connection points: 2
#     Edge 35, Type (0, 1), BuildingBlock: OJICUG_clean_linker_0, # of connection points: 2
#     Edge 36, Type (0, 1), BuildingBlock: OJICUG_clean_linker_0, # of connection points: 2
#     Edge 37, Type (0, 1), BuildingBlock: OJICUG_clean_linker_0, # of connection points: 2
#     Edge 38, Type (0, 1), BuildingBlock: OJICUG_clean_linker_0, # of connection points: 2
#     Edge 39, Type (0, 1), BuildingBlock: OJICUG_clean_linker_0, # of connection points: 2
#     Edge 40, Type (0, 1), BuildingBlock: OJICUG_clean_linker_0, # of connection points: 2
#     Edge 41, Type (0, 1), BuildingBlock: OJICUG_clean_linker_0, # of connection points: 2
#     Edge 42, Type (0, 1), BuildingBlock: OJICUG_clean_linker_0, # of connection points: 2
#     Edge 43, Type (0, 1), BuildingBlock: OJICUG_clean_linker_0, # of connection points: 2
#     Edge 44, Type (0, 1), BuildingBlock: OJICUG_clean_linker_0, # of connection points: 2
#     Edge 45, Type (0, 1), BuildingBlock: OJICUG_clean_linker_0, # of connection points: 2
#     Edge 46, Type (0, 1), BuildingBlock: OJICUG_clean_linker_0, # of connection points: 2
#     Edge 47, Type (0, 1), BuildingBlock: OJICUG_clean_linker_0, # of connection points: 2
#     Edge 48, Type (0, 1), BuildingBlock: OJICUG_clean_linker_0, # of connection points: 2
#     Edge 49, Type (0, 1), BuildingBlock: OJICUG_clean_linker_0, # of connection points: 2
#     Edge 50, Type (0, 1), BuildingBlock: OJICUG_clean_linker_0, # of connection points: 2
#     Edge 51, Type (0, 1), BuildingBlock: OJICUG_clean_linker_0, # of connection points: 2
#     Edge 52, Type (0, 1), BuildingBlock: OJICUG_clean_linker_0, # of connection points: 2
#     Edge 53, Type (0, 1), BuildingBlock: OJICUG_clean_linker_0, # of connection points: 2
#     Edge 54, Type (0, 1), BuildingBlock: OJICUG_clean_linker_0, # of connection points: 2
#     Edge 55, Type (0, 1), BuildingBlock: OJICUG_clean_linker_0, # of connection points: 2
#     Edge 56, Type (0, 1), BuildingBlock: OJICUG_clean_linker_0, # of connection points: 2
#     Edge 57, Type (0, 1), BuildingBlock: OJICUG_clean_linker_0, # of connection points: 2
#     Edge 58, Type (0, 1), BuildingBlock: OJICUG_clean_linker_0, # of connection points: 2
#     Edge 59, Type (0, 1), BuildingBlock: OJICUG_clean_linker_0, # of connection points: 2
#     Edge 60, Type (0, 1), BuildingBlock: OJICUG_clean_linker_0, # of connection points: 2
#     Edge 61, Type (0, 1), BuildingBlock: OJICUG_clean_linker_0, # of connection points: 2
#     Edge 62, Type (0, 1), BuildingBlock: OJICUG_clean_linker_0, # of connection points: 2
#     Edge 63, Type (0, 1), BuildingBlock: OJICUG_clean_linker_0, # of connection points: 2
#     Edge 64, Type (0, 1), BuildingBlock: OJICUG_clean_linker_0, # of connection points: 2
#     Edge 65, Type (0, 1), BuildingBlock: OJICUG_clean_linker_0, # of connection points: 2
#     Edge 66, Type (0, 1), BuildingBlock: OJICUG_clean_linker_0, # of connection points: 2
#     Edge 67, Type (0, 1), BuildingBlock: OJICUG_clean_linker_0, # of connection points: 2
#     Edge 68, Type (0, 1), BuildingBlock: OJICUG_clean_linker_0, # of connection points: 2
#     Edge 69, Type (0, 1), BuildingBlock: OJICUG_clean_linker_0, # of connection points: 2
#     Edge 70, Type (0, 1), BuildingBlock: OJICUG_clean_linker_0, # of connection points: 2
#     Edge 71, Type (0, 1), BuildingBlock: OJICUG_clean_linker_0, # of connection points: 2
#     Edge 72, Type (0, 1), BuildingBlock: OJICUG_clean_linker_0, # of connection points: 2
#     Edge 73, Type (0, 1), BuildingBlock: OJICUG_clean_linker_0, # of connection points: 2
#     Edge 74, Type (0, 1), BuildingBlock: OJICUG_clean_linker_0, # of connection points: 2
#     Edge 75, Type (0, 1), BuildingBlock: OJICUG_clean_linker_0, # of connection points: 2
# Relax obj value: 0.076
# Max RMSD: 0.182
# Mean RMSD: 0.116
data_MOF--net-ctn--node1-QUQFOY_clean_sbu_1--node2-BETDAH_clean_linker_0--edge1-OJICUG_clean_linker_0
_symmetry_space_group_name_H-M    P1
_symmetry_Int_Tables_number       1
_symmetry_cell_setting            triclinic
loop_
_symmetry_equiv_pos_as_xyz
'x, y, z'
_cell_length_a     39.357943
_cell_length_b     39.053731
_cell_length_c     40.078648
_cell_angle_alpha  102.69566
_cell_angle_beta   89.934917
_cell_angle_gamma 100.52461
loop_
_atom_site_label
_atom_site_type_symbol
_atom_site_fract_x
_atom_site_fract_y
_atom_site_fract_z
_atom_type_partial_charge
H0 H 0.05251 0.02487 0.08617 0.0
H1 H 0.11838 0.09368 0.03304 0.0
H2 H 0.02598 0.12477 0.07627 0.0
C3 C 0.05773 0.04897 0.07641 0.0
C4 C 0.03528 0.07376 0.08358 0.0
C5 C 0.08749 0.05542 0.05771 0.0
C6 C 0.0948 0.08734 0.04622 0.0
C7 C 0.07245 0.11189 0.05216 0.0
C8 C 0.04259 0.10512 0.07078 0.0
N9 N 0.08299 0.14501 0.04272 0.0
C10 C 0.0628 0.15948 0.02308 0.0
H11 H 0.34378 0.69908 0.28018 0.0
H12 H 0.3493 0.81129 0.28668 0.0
H13 H 0.25418 0.73845 0.2543 0.0
C14 C 0.33152 0.72096 0.27718 0.0
C15 C 0.29615 0.71425 0.26786 0.0
C16 C 0.35067 0.75589 0.28563 0.0
C17 C 0.33533 0.78395 0.27984 0.0
C18 C 0.30121 0.77716 0.2666 0.0
C19 C 0.28141 0.74251 0.26129 0.0
N20 N 0.28576 0.80614 0.26279 0.0
C21 C 0.27526 0.80974 0.23088 0.0
H22 H 0.0158 0.45919 0.10495 0.0
H23 H 0.9587 0.53586 0.16112 0.0
H24 H 0.93312 0.48919 0.05476 0.0
C25 C 0.99515 0.47434 0.1063 0.0
C26 C 0.97441 0.4707 0.07682 0.0
C27 C 0.99034 0.49832 0.13682 0.0
C28 C 0.96363 0.51791 0.13764 0.0
C29 C 0.94347 0.51543 0.10821 0.0
C30 C 0.94902 0.49187 0.07757 0.0
N31 N 0.91783 0.53698 0.11068 0.0
C32 C 0.90209 0.54462 0.08292 0.0
H33 H 0.7892 0.83118 0.17139 0.0
H34 H 0.73752 0.73771 0.20271 0.0
H35 H 0.74474 0.84063 0.27079 0.0
C36 C 0.77471 0.81951 0.19043 0.0
C37 C 0.76865 0.84111 0.22211 0.0
C38 C 0.76306 0.78248 0.18301 0.0
C39 C 0.7465 0.76639 0.20814 0.0
C40 C 0.73963 0.78722 0.23965 0.0
C41 C 0.75031 0.82463 0.24646 0.0
N42 N 0.72208 0.7696 0.26391 0.0
C43 C 0.70241 0.78557 0.28945 0.0
H44 H 0.07697 0.02727 0.39793 0.0
H45 H 0.07052 0.98325 0.48804 0.0
H46 H 0.97792 0.9901 0.4355 0.0
C47 C 0.06173 0.01424 0.41575 0.0
C48 C 0.02555 0.00912 0.41304 0.0
C49 C 0.07826 0.00548 0.44305 0.0
C50 C 0.05805 0.98978 0.46678 0.0
C51 C 0.02178 0.98414 0.46385 0.0
C52 C 0.00592 0.99411 0.43725 0.0
N53 N 0.00014 0.97054 0.4881 0.0
C54 C 0.00969 0.95191 0.51127 0.0
H55 H 0.28223 0.73322 0.86485 0.0
H56 H 0.2538 0.8189 0.8259 0.0
H57 H 0.29763 0.73808 0.75947 0.0
C58 C 0.28025 0.74634 0.84398 0.0
C59 C 0.29182 0.73166 0.81162 0.0
C60 C 0.26655 0.77794 0.84976 0.0
C61 C 0.26367 0.79426 0.82215 0.0
C62 C 0.27491 0.77985 0.78973 0.0
C63 C 0.28949 0.74911 0.78477 0.0
N64 N 0.27127 0.79571 0.76166 0.0
C65 C 0.24116 0.80773 0.75598 0.0
H66 H 0.95124 0.59529 0.56424 0.0
H67 H 0.05526 0.59177 0.532 0.0
H68 H 0.9826 0.49428 0.52702 0.0
C69 C 0.97067 0.58017 0.55332 0.0
C70 C 0.96263 0.54275 0.54559 0.0
C71 C 0.00417 0.59813 0.54904 0.0
C72 C 0.02936 0.57821 0.53552 0.0
C73 C 0.02143 0.54073 0.52762 0.0
C74 C 0.98842 0.52322 0.5333 0.0
N75 N 0.04641 0.52 0.51443 0.0
C76 C 0.06795 0.5283 0.4888 0.0
H77 H 0.87415 0.76335 0.82135 0.0
H78 H 0.8244 0.80544 0.74711 0.0
H79 H 0.76378 0.75552 0.81778 0.0
C80 C 0.85123 0.76835 0.80976 0.0
C81 C 0.81882 0.75715 0.82264 0.0
C82 C 0.85405 0.78617 0.78248 0.0
C83 C 0.8236 0.79298 0.76877 0.0
C84 C 0.79138 0.78239 0.78188 0.0
C85 C 0.78902 0.76439 0.8085 0.0
N86 N 0.76094 0.78825 0.76715 0.0
C87 C 0.75115 0.82134 0.77591 0.0
H88 H 0.36658 0.26483 0.32789 0.0
H89 H 0.31416 0.31084 0.25874 0.0
H90 H 0.25613 0.25501 0.32702 0.0
C91 C 0.34324 0.27002 0.31731 0.0
C92 C 0.31137 0.2575 0.33039 0.0
C93 C 0.34502 0.28906 0.29098 0.0
C94 C 0.31412 0.29704 0.27939 0.0
C95 C 0.28231 0.2852 0.29284 0.0
C96 C 0.28101 0.26495 0.31765 0.0
N97 N 0.251 0.29188 0.28052 0.0
C98 C 0.24695 0.32587 0.27821 0.0
H99 H 0.53272 0.96703 0.60942 0.0
H100 H 0.47133 0.03924 0.66592 0.0
H101 H 0.45179 0.9982 0.55782 0.0
C102 C 0.51223 0.98234 0.61043 0.0
C103 C 0.49301 0.98011 0.58035 0.0
C104 C 0.50467 0.00343 0.64169 0.0
C105 C 0.47804 0.02312 0.64209 0.0
C106 C 0.45949 0.0222 0.61203 0.0
C107 C 0.46669 0.00016 0.58109 0.0
N108 N 0.43348 0.04335 0.61428 0.0
C109 C 0.41646 0.04962 0.58648 0.0
H110 H 0.28763 0.31925 0.67145 0.0
H111 H 0.21832 0.23381 0.70062 0.0
H112 H 0.23262 0.33901 0.76522 0.0
C113 C 0.2696 0.31028 0.68954 0.0
C114 C 0.26246 0.33435 0.71935 0.0
C115 C 0.25305 0.27441 0.6823 0.0
C116 C 0.23082 0.2617 0.70591 0.0
C117 C 0.2238 0.2847 0.73595 0.0
C118 C 0.23898 0.32119 0.74235 0.0
N119 N 0.20163 0.26988 0.75915 0.0
C120 C 0.183 0.28907 0.78345 0.0
H121 H 0.82433 0.19693 0.79667 0.0
H122 H 0.82136 0.2902 0.75639 0.0
H123 H 0.72813 0.2152 0.76062 0.0
C124 C 0.81026 0.21284 0.78491 0.0
C125 C 0.77457 0.20135 0.77836 0.0
C126 C 0.82762 0.24511 0.77772 0.0
C127 C 0.80863 0.26534 0.76229 0.0
C128 C 0.77268 0.25422 0.75605 0.0
C129 C 0.75596 0.22276 0.76461 0.0
N130 N 0.75197 0.27507 0.74339 0.0
C131 C 0.7624 0.29538 0.71953 0.0
H132 H 0.56953 0.52611 0.60232 0.0
H133 H 0.63513 0.60155 0.55584 0.0
H134 H 0.54086 0.62703 0.59893 0.0
C135 C 0.57434 0.55136 0.59456 0.0
C136 C 0.55106 0.57525 0.60303 0.0
C137 C 0.60431 0.56007 0.57675 0.0
C138 C 0.61137 0.59353 0.56812 0.0
C139 C 0.58843 0.6173 0.57564 0.0
C140 C 0.55813 0.60809 0.59275 0.0
N141 N 0.59845 0.65192 0.56931 0.0
C142 C 0.57956 0.66593 0.54811 0.0
H143 H 0.56632 0.53181 0.91047 0.0
H144 H 0.56731 0.50315 0.0083 0.0
H145 H 0.47075 0.50004 0.95712 0.0
C146 C 0.55259 0.52165 0.93079 0.0
C147 C 0.51633 0.51549 0.9298 0.0
C148 C 0.57125 0.51774 0.95916 0.0
C149 C 0.5532 0.50577 0.98607 0.0
C150 C 0.51689 0.49927 0.98513 0.0
C151 C 0.49876 0.50467 0.95732 0.0
N152 N 0.49784 0.49012 0.01293 0.0
C153 C 0.50574 0.46619 0.0314 0.0
H154 H 0.78773 0.23942 0.36396 0.0
H155 H 0.75052 0.32034 0.32431 0.0
H156 H 0.79005 0.23728 0.25621 0.0
C157 C 0.78255 0.25086 0.34266 0.0
C158 C 0.79082 0.23446 0.30954 0.0
C159 C 0.7683 0.28212 0.34868 0.0
C160 C 0.761 0.29606 0.32051 0.0
C161 C 0.76886 0.27981 0.28727 0.0
C162 C 0.78433 0.24962 0.28203 0.0
N163 N 0.7616 0.29362 0.25873 0.0
C164 C 0.7306 0.30484 0.25493 0.0
H165 H 0.43179 0.09108 0.07206 0.0
H166 H 0.537 0.08461 0.04533 0.0
H167 H 0.4625 0.98885 0.04173 0.0
C168 C 0.45137 0.07539 0.06298 0.0
C169 C 0.44283 0.03799 0.0567 0.0
C170 C 0.48547 0.09259 0.05961 0.0
C171 C 0.51067 0.07179 0.04829 0.0
C172 C 0.50224 0.03439 0.04203 0.0
C173 C 0.46867 0.01777 0.04685 0.0
N174 N 0.52731 0.01287 0.03159 0.0
C175 C 0.54938 0.01841 0.00554 0.0
O176 O 0.25457 0.85131 0.01099 0.0
Cd177 Cd 0.26288 0.88285 0.05988 0.0
Cd178 Cd 0.23284 0.92941 0.02586 0.0
O179 O 0.22947 0.88553 0.98546 0.0
O180 O 0.28307 0.85139 0.08432 0.0
O181 O 0.2362 0.87261 0.10107 0.0
C182 C 0.25912 0.85426 0.10604 0.0
C183 C 0.18696 0.96076 0.03375 0.0
C184 C 0.24107 0.85698 0.98437 0.0
C185 C 0.30598 0.95446 0.05528 0.0
O186 O 0.28132 0.96058 0.0384 0.0
O187 O 0.30279 0.926 0.06633 0.0
O188 O 0.20683 0.96157 0.00829 0.0
O189 O 0.19256 0.94127 0.05463 0.0
O190 O 0.21947 0.56298 0.3005 0.0
Cd191 Cd 0.19224 0.5185 0.31478 0.0
Cd192 Cd 0.13563 0.54334 0.29082 0.0
O193 O 0.17537 0.58116 0.28036 0.0
O194 O 0.22735 0.48977 0.32208 0.0
O195 O 0.18462 0.4699 0.28288 0.0
C196 C 0.21137 0.46432 0.29808 0.0
C197 C 0.09071 0.5267 0.24937 0.0
C198 C 0.20759 0.58479 0.2865 0.0
C199 C 0.13732 0.53605 0.36456 0.0
O200 O 0.12172 0.5444 0.34063 0.0
O201 O 0.16583 0.52524 0.35947 0.0
O202 O 0.09566 0.55718 0.27071 0.0
O203 O 0.11098 0.5048 0.252 0.0
O204 O 0.78009 0.68348 0.95166 0.0
Cd205 Cd 0.76276 0.66007 0.99174 0.0
Cd206 Cd 0.78672 0.60461 0.94905 0.0
O207 O 0.80159 0.64034 0.91824 0.0
O208 O 0.74647 0.70004 0.02357 0.0
O209 O 0.78766 0.67401 0.03824 0.0
C210 C 0.76815 0.69748 0.04649 0.0
C211 C 0.8251 0.59015 0.9851 0.0
C212 C 0.79522 0.67187 0.92458 0.0
C213 C 0.71311 0.58925 0.96507 0.0
O214 O 0.73613 0.57771 0.94579 0.0
O215 O 0.71957 0.62008 0.98491 0.0
O216 O 0.82018 0.57282 0.95352 0.0
O217 O 0.80899 0.61631 0.99548 0.0
O218 O 0.94657 0.0274 0.27748 0.0
Cd219 Cd 0.91437 0.02764 0.23634 0.0
Cd220 Cd 0.87722 0.05748 0.28809 0.0
O221 O 0.91967 0.05871 0.31815 0.0
O222 O 0.94099 0.0125 0.19507 0.0
O223 O 0.92685 0.06585 0.20896 0.0
C224 C 0.94183 0.0434 0.18837 0.0
C225 C 0.85328 0.10859 0.29267 0.0
C226 C 0.94448 0.04252 0.30879 0.0
C227 C 0.8452 0.98536 0.24799 0.0
O228 O 0.84437 0.00883 0.27528 0.0
O229 O 0.86934 0.9894 0.22731 0.0
O230 O 0.84904 0.08988 0.31567 0.0
O231 O 0.87178 0.09853 0.26696 0.0
O232 O 0.27744 0.17573 0.45473 0.0
Cd233 Cd 0.26345 0.1497 0.49376 0.0
Cd234 Cd 0.29366 0.09975 0.45117 0.0
O235 O 0.30612 0.13804 0.42254 0.0
O236 O 0.24008 0.18406 0.52537 0.0
O237 O 0.28786 0.16825 0.54046 0.0
C238 C 0.26353 0.1863 0.54847 0.0
C239 C 0.33294 0.08789 0.48837 0.0
C240 C 0.29517 0.16743 0.42862 0.0
C241 C 0.22029 0.07606 0.46303 0.0
O242 O 0.24475 0.06836 0.44377 0.0
O243 O 0.22419 0.10552 0.485 0.0
O244 O 0.33059 0.07188 0.45634 0.0
O245 O 0.31355 0.11118 0.49873 0.0
O246 O 0.44173 0.52131 0.78653 0.0
Cd247 Cd 0.41417 0.52052 0.74211 0.0
Cd248 Cd 0.37138 0.55027 0.78953 0.0
O249 O 0.41022 0.55098 0.82378 0.0
O250 O 0.44561 0.50663 0.70443 0.0
O251 O 0.42969 0.55923 0.716 0.0
C252 C 0.4473 0.53765 0.69772 0.0
C253 C 0.34835 0.60195 0.79356 0.0
C254 C 0.43614 0.5358 0.81722 0.0
C255 C 0.3434 0.47753 0.74681 0.0
O256 O 0.33943 0.50146 0.77284 0.0
O257 O 0.37014 0.48138 0.72919 0.0
O258 O 0.34086 0.58158 0.81486 0.0
O259 O 0.36919 0.59296 0.76963 0.0
O260 O 0.77198 0.35926 0.51087 0.0
Cd261 Cd 0.78279 0.39093 0.5594 0.0
Cd262 Cd 0.75121 0.43716 0.52937 0.0
O263 O 0.74456 0.39378 0.48812 0.0
O264 O 0.80059 0.35919 0.58525 0.0
O265 O 0.75483 0.38342 0.60029 0.0
C266 C 0.77623 0.36381 0.60625 0.0
C267 C 0.70557 0.46834 0.54247 0.0
C268 C 0.75637 0.36513 0.48553 0.0
C269 C 0.82634 0.46088 0.55306 0.0
O270 O 0.80051 0.46763 0.53838 0.0
O271 O 0.82383 0.43247 0.56405 0.0
O272 O 0.72334 0.47003 0.51569 0.0
O273 O 0.71332 0.44829 0.5619 0.0
O274 O 0.7134 0.05436 0.82921 0.0
Cd275 Cd 0.68689 0.0084 0.84117 0.0
Cd276 Cd 0.62843 0.02432 0.80896 0.0
O277 O 0.66836 0.06364 0.80207 0.0
O278 O 0.72075 0.97795 0.84723 0.0
O279 O 0.67989 0.96237 0.80582 0.0
C280 C 0.70579 0.95487 0.82082 0.0
C281 C 0.58708 0.01295 0.76411 0.0
C282 C 0.70001 0.07235 0.81179 0.0
C283 C 0.62543 0.01876 0.88376 0.0
O284 O 0.61053 0.02314 0.85727 0.0
O285 O 0.65614 0.01283 0.88285 0.0
O286 O 0.59073 0.04133 0.78815 0.0
O287 O 0.60574 0.98952 0.76636 0.0
O288 O 0.98731 0.33429 0.95522 0.0
Cd289 Cd 0.99263 0.28894 0.9189 0.0
Cd290 Cd 0.02031 0.3424 0.8869 0.0
O291 O 0.01496 0.37726 0.93205 0.0
O292 O 0.97944 0.24981 0.94433 0.0
O293 O 0.03189 0.26419 0.92603 0.0
C294 C 0.01099 0.24505 0.9426 0.0
C295 C 0.07313 0.33333 0.86473 0.0
C296 C 0.99862 0.36727 0.95663 0.0
C297 C 0.95727 0.29369 0.85336 0.0
O298 O 0.97687 0.32378 0.85532 0.0
O299 O 0.96119 0.27443 0.87442 0.0
O300 O 0.0601 0.36028 0.86061 0.0
O301 O 0.0565 0.31233 0.88258 0.0
O302 O 0.50354 0.83775 0.4689 0.0
Cd303 Cd 0.50963 0.79005 0.43761 0.0
Cd304 Cd 0.54284 0.83572 0.4014 0.0
O305 O 0.53976 0.8746 0.44498 0.0
O306 O 0.49694 0.75408 0.46644 0.0
O307 O 0.54909 0.76654 0.44664 0.0
C308 C 0.52839 0.74897 0.46468 0.0
C309 C 0.59488 0.82675 0.37658 0.0
C310 C 0.51917 0.86914 0.46853 0.0
C311 C 0.47611 0.78972 0.37078 0.0
O312 O 0.49881 0.81717 0.36987 0.0
O313 O 0.47768 0.77287 0.39435 0.0
O314 O 0.5808 0.85312 0.37282 0.0
O315 O 0.57994 0.80625 0.39573 0.0
O316 O 0.00638 0.80196 0.71538 0.0
Cd317 Cd 0.04955 0.79736 0.68665 0.0
Cd318 Cd 0.00711 0.81829 0.63952 0.0
O319 O 0.97543 0.82259 0.68096 0.0
O320 O 0.08094 0.78516 0.71926 0.0
O321 O 0.0957 0.83141 0.69561 0.0
C322 C 0.10394 0.81167 0.7151 0.0
C323 C 0.00952 0.86038 0.60541 0.0
C324 C 0.97918 0.81289 0.7088 0.0
C325 C 0.02704 0.7456 0.61934 0.0
O326 O 0.00925 0.7673 0.61223 0.0
O327 O 0.04534 0.75341 0.64695 0.0
O328 O 0.98228 0.83667 0.60603 0.0
O329 O 0.03572 0.86101 0.62505 0.0
O330 O 0.49515 0.30294 0.21965 0.0
Cd331 Cd 0.53724 0.29594 0.1899 0.0
Cd332 Cd 0.49441 0.31573 0.1429 0.0
O333 O 0.46282 0.32099 0.18433 0.0
O334 O 0.56897 0.28376 0.22232 0.0
O335 O 0.58421 0.32868 0.19702 0.0
C336 C 0.5924 0.30933 0.21694 0.0
C337 C 0.50042 0.35978 0.11078 0.0
C338 C 0.46755 0.31311 0.2129 0.0
C339 C 0.51236 0.24228 0.12391 0.0
O340 O 0.49535 0.26421 0.11591 0.0
O341 O 0.53083 0.25064 0.15145 0.0
O342 O 0.4724 0.33648 0.1093 0.0
O343 O 0.52544 0.35846 0.13102 0.0
C344 C 0.22985 0.81438 0.88955 0.0
C345 C 0.25692 0.79482 0.88481 0.0
H346 H 0.20348 0.84938 0.92474 0.0
C347 C 0.27605 0.79314 0.91388 0.0
H348 H 0.2139 0.81562 0.86802 0.0
C349 C 0.26921 0.81146 0.94645 0.0
C350 C 0.24359 0.83266 0.95084 0.0
H351 H 0.29749 0.77903 0.91151 0.0
H352 H 0.28542 0.81059 0.96797 0.0
C353 C 0.22354 0.83342 0.92214 0.0
C354 C 0.07297 0.54779 0.43462 0.0
C355 C 0.08738 0.53396 0.45949 0.0
H356 H 0.07762 0.55955 0.38499 0.0
C357 C 0.11917 0.5228 0.45425 0.0
H358 H 0.04827 0.55634 0.43834 0.0
C359 C 0.13606 0.52453 0.42379 0.0
C360 C 0.12118 0.53726 0.39809 0.0
H361 H 0.13046 0.51183 0.47325 0.0
H362 H 0.16023 0.51495 0.42001 0.0
C363 C 0.08975 0.54948 0.40413 0.0
C364 C 0.79547 0.7468 0.8784 0.0
C365 C 0.81556 0.73696 0.85018 0.0
H366 H 0.77371 0.73432 0.92409 0.0
C367 C 0.83059 0.70651 0.84743 0.0
H368 H 0.78378 0.77028 0.88125 0.0
C369 C 0.82454 0.68553 0.87183 0.0
C370 C 0.80372 0.69493 0.89968 0.0
H371 H 0.84603 0.69823 0.82578 0.0
H372 H 0.83575 0.66172 0.86862 0.0
C373 C 0.78981 0.72619 0.90297 0.0
C374 C 0.98219 0.04166 0.39523 0.0
C375 C 0.00788 0.02105 0.3862 0.0
H376 H 0.94262 0.06521 0.37804 0.0
C377 C 0.01512 0.01055 0.35151 0.0
H378 H 0.97651 0.05061 0.42185 0.0
C379 C 0.99553 0.0188 0.32618 0.0
C380 C 0.96866 0.03802 0.33519 0.0
H381 H 0.03487 0.99469 0.34393 0.0
H382 H 0.0007 0.0091 0.29956 0.0
C383 C 0.96292 0.05019 0.37007 0.0
C384 C 0.28871 0.24399 0.63721 0.0
C385 C 0.25638 0.25093 0.64867 0.0
H386 H 0.31633 0.21716 0.59635 0.0
C387 C 0.22675 0.23622 0.62732 0.0
H388 H 0.31187 0.25521 0.65338 0.0
C389 C 0.22933 0.21535 0.59477 0.0
C390 C 0.26153 0.20817 0.58317 0.0
H391 H 0.20162 0.24149 0.6356 0.0
H392 H 0.20601 0.20464 0.57873 0.0
C393 C 0.29121 0.22229 0.60478 0.0
C394 C 0.51068 0.59314 0.65018 0.0
C395 C 0.52092 0.56651 0.62444 0.0
H396 H 0.47896 0.60496 0.69331 0.0
C397 C 0.50385 0.53089 0.62115 0.0
H398 H 0.52334 0.62081 0.65384 0.0
C399 C 0.47914 0.52182 0.64434 0.0
C400 C 0.47015 0.54819 0.67091 0.0
H401 H 0.51012 0.50972 0.6011 0.0
H402 H 0.46748 0.49396 0.6418 0.0
C403 C 0.48533 0.58408 0.67299 0.0
C404 C 0.79422 0.30973 0.6699 0.0
C405 C 0.76762 0.31464 0.69261 0.0
H406 H 0.8178 0.32151 0.62459 0.0
C407 C 0.74416 0.33618 0.68744 0.0
H408 H 0.81234 0.29286 0.67342 0.0
C409 C 0.747 0.35243 0.6595 0.0
C410 C 0.77335 0.34725 0.63626 0.0
H411 H 0.72323 0.33992 0.70467 0.0
H412 H 0.72837 0.36871 0.65591 0.0
C413 C 0.79713 0.32597 0.64195 0.0
C414 C 0.53277 0.0373 0.69847 0.0
C415 C 0.52459 0.00506 0.67376 0.0
H416 H 0.55832 0.06479 0.74635 0.0
C417 C 0.53606 0.97472 0.6798 0.0
H418 H 0.52504 0.06139 0.69454 0.0
C419 C 0.55591 0.97688 0.70942 0.0
C420 C 0.56419 0.00926 0.73383 0.0
H421 H 0.52971 0.94924 0.66168 0.0
H422 H 0.56485 0.95329 0.71311 0.0
C423 C 0.55206 0.03929 0.72821 0.0
C424 C 0.87568 0.29537 0.80514 0.0
C425 C 0.86434 0.25888 0.79023 0.0
H426 H 0.91453 0.33501 0.83648 0.0
C427 C 0.88677 0.23496 0.79215 0.0
H428 H 0.85924 0.31464 0.80452 0.0
C429 C 0.9177 0.24647 0.81177 0.0
C430 C 0.92765 0.28241 0.82853 0.0
H431 H 0.87966 0.2069 0.77992 0.0
H432 H 0.9334 0.22712 0.81458 0.0
C433 C 0.90727 0.30706 0.82377 0.0
C434 C 0.47274 0.92462 0.53614 0.0
C435 C 0.49878 0.95425 0.54905 0.0
H436 H 0.45915 0.87413 0.50077 0.0
C437 C 0.53126 0.95682 0.53426 0.0
H438 H 0.44766 0.92201 0.54748 0.0
C439 C 0.53773 0.92972 0.50712 0.0
C440 C 0.51211 0.89927 0.49524 0.0
H441 H 0.55174 0.97944 0.54414 0.0
H442 H 0.56309 0.93192 0.49636 0.0
C443 C 0.47946 0.89718 0.50971 0.0
C444 C 0.14709 0.33431 0.80412 0.0
C445 C 0.15931 0.30369 0.80742 0.0
H446 H 0.11025 0.36815 0.8202 0.0
C447 C 0.14539 0.28472 0.83167 0.0
H448 H 0.15749 0.34906 0.78527 0.0
C449 C 0.11836 0.29537 0.85152 0.0
C450 C 0.10482 0.32514 0.84731 0.0
H451 H 0.15446 0.26082 0.83431 0.0
H452 H 0.10727 0.27948 0.86924 0.0
C453 C 0.12008 0.34509 0.82405 0.0
C454 C 0.53095 0.68844 0.52667 0.0
C455 C 0.56549 0.68414 0.52526 0.0
H456 H 0.49192 0.7122 0.50823 0.0
C457 C 0.58735 0.69954 0.50275 0.0
H458 H 0.51377 0.67679 0.54403 0.0
C459 C 0.57508 0.71985 0.48236 0.0
C460 C 0.54066 0.72507 0.48417 0.0
H461 H 0.61419 0.69653 0.50147 0.0
H462 H 0.59275 0.73202 0.4657 0.0
C463 C 0.51857 0.70869 0.50619 0.0
C464 C 0.89482 0.82517 0.75113 0.0
C465 C 0.88815 0.79591 0.76703 0.0
H466 H 0.92865 0.85336 0.71997 0.0
C467 C 0.91368 0.77474 0.76622 0.0
H468 H 0.87652 0.8429 0.75197 0.0
C469 C 0.94421 0.78182 0.74909 0.0
C470 C 0.94969 0.80962 0.73151 0.0
H471 H 0.90962 0.7516 0.77744 0.0
H472 H 0.96266 0.76417 0.74797 0.0
C473 C 0.92495 0.83156 0.7331 0.0
C474 C 0.04107 0.93097 0.55449 0.0
C475 C 0.01092 0.92946 0.53519 0.0
H476 H 0.06438 0.91014 0.59236 0.0
C477 C 0.98065 0.90607 0.53948 0.0
H478 H 0.06466 0.94908 0.5515 0.0
C479 C 0.98034 0.8841 0.5626 0.0
C480 C 0.01038 0.88509 0.58202 0.0
H481 H 0.95709 0.90474 0.52487 0.0
H482 H 0.95645 0.86621 0.56512 0.0
C483 C 0.04081 0.90885 0.57785 0.0
C484 C 0.20157 0.83401 0.72554 0.0
C485 C 0.20725 0.81438 0.7497 0.0
H486 H 0.16382 0.84924 0.69592 0.0
C487 C 0.17915 0.79761 0.76527 0.0
H488 H 0.22314 0.84697 0.71319 0.0
C489 C 0.14546 0.79865 0.75539 0.0
C490 C 0.13937 0.81661 0.72981 0.0
H491 H 0.1832 0.7823 0.78397 0.0
H492 H 0.12415 0.78411 0.76679 0.0
C493 C 0.16774 0.83534 0.71578 0.0
C494 C 0.04239 0.65196 0.58429 0.0
C495 C 0.01332 0.63729 0.56205 0.0
H496 H 0.06958 0.69785 0.61983 0.0
C497 C 0.99101 0.65965 0.55573 0.0
H498 H 0.05986 0.63528 0.58982 0.0
C499 C 0.99659 0.69558 0.57286 0.0
C500 C 0.02434 0.70962 0.59693 0.0
H501 H 0.96855 0.649 0.53846 0.0
H502 H 0.97816 0.71179 0.56855 0.0
C503 C 0.04777 0.68773 0.60167 0.0
C504 C 0.79539 0.89857 0.26321 0.0
C505 C 0.78324 0.88027 0.22985 0.0
H506 H 0.82387 0.94665 0.29507 0.0
C507 C 0.78808 0.89904 0.20335 0.0
H508 H 0.79265 0.88526 0.28432 0.0
C509 C 0.8073 0.93376 0.20938 0.0
C510 C 0.82071 0.95112 0.24233 0.0
H511 H 0.778 0.88661 0.17756 0.0
H512 H 0.81221 0.94683 0.18818 0.0
C513 C 0.81352 0.9338 0.26942 0.0
C514 C 0.83232 0.19623 0.28039 0.0
C515 C 0.8062 0.20157 0.30399 0.0
H516 H 0.86768 0.16259 0.25816 0.0
C517 C 0.79526 0.17548 0.32292 0.0
H518 H 0.84167 0.21591 0.26562 0.0
C519 C 0.81062 0.14544 0.31912 0.0
C520 C 0.83695 0.14033 0.29589 0.0
H521 H 0.77465 0.17813 0.34068 0.0
H522 H 0.80165 0.12605 0.33432 0.0
C523 C 0.8474 0.1658 0.27624 0.0
C524 C 0.401 0.99099 0.07653 0.0
C525 C 0.40701 0.01967 0.06012 0.0
H526 H 0.36436 0.94829 0.08836 0.0
C527 C 0.37887 0.0291 0.04507 0.0
H528 H 0.42214 0.98356 0.08888 0.0
C529 C 0.3456 0.00887 0.04474 0.0
C530 C 0.33991 0.97897 0.05961 0.0
H531 H 0.38283 0.05108 0.03219 0.0
H532 H 0.32465 0.01589 0.03175 0.0
C533 C 0.36783 0.9709 0.07635 0.0
C534 C 0.21147 0.36601 0.26208 0.0
C535 C 0.2404 0.36124 0.27964 0.0
H536 H 0.1796 0.4027 0.25389 0.0
C537 C 0.26106 0.39064 0.30131 0.0
H538 H 0.19511 0.3434 0.24542 0.0
C539 C 0.25224 0.42443 0.30634 0.0
C540 C 0.22253 0.42929 0.28977 0.0
H541 H 0.28339 0.38729 0.31521 0.0
H542 H 0.2682 0.44653 0.32395 0.0
C543 C 0.20262 0.39986 0.26701 0.0
C544 C 0.12923 0.03736 0.48168 0.0
C545 C 0.11617 0.01753 0.44922 0.0
H546 H 0.17253 0.0713 0.51141 0.0
C547 C 0.13894 0.01338 0.42213 0.0
H548 H 0.11231 0.04135 0.50297 0.0
C549 C 0.17369 0.03043 0.42704 0.0
C550 C 0.18599 0.05238 0.45896 0.0
H551 H 0.12953 0.99807 0.39687 0.0
H552 H 0.19031 0.02816 0.40542 0.0
C553 C 0.16369 0.05475 0.48644 0.0
C554 C 0.76627 0.15662 0.81588 0.0
C555 C 0.75657 0.16743 0.78651 0.0
H556 H 0.7563 0.1176 0.84666 0.0
C557 C 0.72923 0.14563 0.76495 0.0
H558 H 0.78683 0.17298 0.83341 0.0
C559 C 0.71133 0.11451 0.77305 0.0
C560 C 0.72076 0.10403 0.80255 0.0
H561 H 0.72157 0.15258 0.74172 0.0
H562 H 0.69003 0.09858 0.75614 0.0
C563 C 0.74875 0.12498 0.82361 0.0
C564 C 0.39529 0.04179 0.52663 0.0
C565 C 0.39685 0.05973 0.56109 0.0
H566 H 0.37384 0.03682 0.47622 0.0
C567 C 0.37856 0.08757 0.57137 0.0
H568 H 0.40935 0.02021 0.51832 0.0
C569 C 0.35835 0.09712 0.54755 0.0
C570 C 0.35612 0.07895 0.51296 0.0
H571 H 0.37956 0.10171 0.59795 0.0
H572 H 0.34415 0.11848 0.55638 0.0
C573 C 0.37506 0.05137 0.50265 0.0
C574 C 0.64416 0.53087 0.53566 0.0
C575 C 0.62877 0.53481 0.56761 0.0
H576 H 0.6801 0.50683 0.50271 0.0
C577 C 0.63766 0.51518 0.59077 0.0
H578 H 0.63744 0.54501 0.51694 0.0
C579 C 0.66201 0.49286 0.58243 0.0
C580 C 0.67803 0.48982 0.55082 0.0
H581 H 0.62655 0.51781 0.61573 0.0
H582 H 0.66885 0.47868 0.60105 0.0
C583 C 0.6685 0.50877 0.52742 0.0
C584 C 0.78569 0.30089 0.41143 0.0
C585 C 0.76286 0.30102 0.38444 0.0
H586 H 0.80088 0.32007 0.46434 0.0
C587 C 0.73594 0.32055 0.39186 0.0
H588 H 0.80732 0.28711 0.40693 0.0
C589 C 0.73294 0.34054 0.42498 0.0
C590 C 0.75625 0.34075 0.45157 0.0
H591 H 0.71736 0.3208 0.37206 0.0
H592 H 0.71267 0.35621 0.42967 0.0
C593 C 0.78213 0.32005 0.44455 0.0
C594 C 0.60316 0.01383 0.97492 0.0
C595 C 0.56962 0.02113 0.97607 0.0
H596 H 0.64736 0.0074 0.94465 0.0
C597 C 0.55473 0.02865 0.94747 0.0
H598 H 0.61485 0.00773 0.99686 0.0
C599 C 0.57305 0.0283 0.91758 0.0
C600 C 0.60657 0.02036 0.91589 0.0
H601 H 0.52869 0.03414 0.94801 0.0
H602 H 0.56073 0.03383 0.89569 0.0
C603 C 0.6216 0.01353 0.94505 0.0
C604 C 0.32684 0.20689 0.35299 0.0
C605 C 0.30943 0.23584 0.35674 0.0
H606 H 0.3359 0.16235 0.3726 0.0
C607 C 0.28881 0.24304 0.38509 0.0
H608 H 0.34275 0.20059 0.33124 0.0
C609 C 0.28499 0.22135 0.40878 0.0
C610 C 0.30147 0.19167 0.40456 0.0
H611 H 0.27539 0.2654 0.38884 0.0
H612 H 0.26847 0.22749 0.43006 0.0
C613 C 0.32277 0.18491 0.37658 0.0
C614 C 0.5057 0.50985 0.86686 0.0
C615 C 0.49688 0.52202 0.90084 0.0
H616 H 0.49354 0.50469 0.81371 0.0
C617 C 0.4692 0.54043 0.90706 0.0
H618 H 0.52687 0.49549 0.86131 0.0
C619 C 0.45021 0.54582 0.87991 0.0
C620 C 0.45836 0.5328 0.84585 0.0
H621 H 0.46221 0.55072 0.93299 0.0
H622 H 0.42873 0.55967 0.88569 0.0
C623 C 0.48658 0.51509 0.83962 0.0
C624 C 0.7802 0.72984 0.1428 0.0
C625 C 0.76629 0.76119 0.14814 0.0
H626 H 0.7925 0.6853 0.10603 0.0
C627 C 0.75449 0.77207 0.11981 0.0
H628 H 0.78957 0.72104 0.16429 0.0
C629 C 0.75576 0.75161 0.0868 0.0
C630 C 0.76936 0.7201 0.08134 0.0
H631 H 0.74344 0.79601 0.12329 0.0
H632 H 0.74581 0.76036 0.06554 0.0
C633 C 0.78207 0.70961 0.10955 0.0
C634 C -0.0006 0.09539 0.1334 0.0
C635 C 0.00623 0.06757 0.10682 0.0
H636 H 0.97323 0.10963 0.18011 0.0
C637 C 0.98793 0.03271 0.10519 0.0
H638 H 0.01312 0.12253 0.1356 0.0
C639 C 0.96587 0.02529 0.13102 0.0
C640 C 0.96084 0.05265 0.15874 0.0
H641 H 0.99176 0.01076 0.08462 0.0
H642 H 0.95349 0.99786 0.12979 0.0
C643 C 0.9767 0.08801 0.15903 0.0
C644 C 0.24219 0.83672 0.1946 0.0
C645 C 0.26776 0.8169 0.19815 0.0
H646 H 0.21897 0.8639 0.16223 0.0
C647 C 0.28841 0.80696 0.1706 0.0
H648 H 0.22616 0.84479 0.21582 0.0
C649 C 0.28447 0.81787 0.14011 0.0
C650 C 0.25982 0.839 0.13672 0.0
H651 H 0.30839 0.79179 0.17303 0.0
H652 H 0.30154 0.81066 0.11959 0.0
C653 C 0.23813 0.84761 0.164 0.0
C654 C 0.02465 0.53929 0.18731 0.0
C655 C 0.01444 0.50459 0.16704 0.0
H656 H 0.05629 0.57321 0.22917 0.0
C657 C 0.02876 0.47666 0.17497 0.0
H658 H 0.01491 0.56166 0.18162 0.0
C659 C 0.05335 0.48355 0.20198 0.0
C660 C 0.06364 0.51836 0.22184 0.0
H661 H 0.02112 0.4495 0.16026 0.0
H662 H 0.06433 0.46169 0.20722 0.0
C663 C 0.04868 0.54601 0.21451 0.0
C664 C 0.41185 0.78989 0.30016 0.0
C665 C 0.38444 0.76301 0.30493 0.0
H666 H 0.4627 0.81926 0.31697 0.0
C667 C 0.38856 0.74382 0.33009 0.0
H668 H 0.40961 0.805 0.28088 0.0
C669 C 0.4189 0.75154 0.35027 0.0
C670 C 0.44591 0.77907 0.34631 0.0
H671 H 0.36778 0.72354 0.33523 0.0
H672 H 0.42059 0.73665 0.36985 0.0
C673 C 0.44232 0.79786 0.32068 0.0
C674 C 0.98634 0.45465 0.01445 0.0
C675 C 0.97944 0.44431 0.04554 0.0
H676 H 0.99856 0.43837 0.96186 0.0
C677 C 0.97866 0.40865 0.04714 0.0
H678 H 0.98725 0.48211 0.01277 0.0
C679 C 0.98469 0.38365 0.01817 0.0
C680 C 0.99224 0.39398 0.98714 0.0
H681 H 0.97329 0.40011 0.07089 0.0
H682 H 0.98388 0.35631 0.02021 0.0
C683 C 0.99305 0.42974 0.98552 0.0
C684 C 0.66638 0.82972 0.31327 0.0
C685 C 0.67872 0.79857 0.3144 0.0
H686 H 0.63027 0.86342 0.33252 0.0
C687 C 0.66552 0.77822 0.33785 0.0
H688 H 0.67625 0.84561 0.29512 0.0
C689 C 0.63923 0.78823 0.35924 0.0
C690 C 0.62568 0.8187 0.35732 0.0
H691 H 0.67472 0.75394 0.33886 0.0
H692 H 0.62873 0.77141 0.37638 0.0
C693 C 0.64009 0.8398 0.33464 0.0
C694 C 0.07029 0.19478 0.97907 0.0
C695 C 0.04845 0.17832 0.00094 0.0
H696 H 0.07557 0.22859 0.9432 0.0
C697 C 0.01372 0.182 0.00221 0.0
H698 H 0.09726 0.19223 0.97784 0.0
C699 C 0.00117 0.20273 0.9823 0.0
C700 C 0.02327 0.22021 0.96099 0.0
H701 H 0.99653 0.16951 0.01905 0.0
H702 H 0.9744 0.20582 0.9843 0.0
C703 C 0.05786 0.21555 0.95926 0.0
C704 C 0.3848 0.32729 0.25786 0.0
C705 C 0.37844 0.29824 0.27409 0.0
H706 H 0.41777 0.35462 0.22538 0.0
C707 C 0.4036 0.27646 0.27216 0.0
H708 H 0.36681 0.34542 0.25936 0.0
C709 C 0.43351 0.28293 0.25405 0.0
C710 C 0.4387 0.31059 0.23637 0.0
H711 H 0.39976 0.25325 0.28327 0.0
H712 H 0.45166 0.26487 0.25228 0.0
C713 C 0.41427 0.33298 0.23869 0.0
C714 C 0.47766 0.41106 0.04681 0.0
C715 C 0.50631 0.43884 0.05028 0.0
H716 H 0.45336 0.3644 0.06317 0.0
C717 C 0.53378 0.44054 0.0732 0.0
H718 H 0.45615 0.4095 0.02932 0.0
C719 C 0.5323 0.41461 0.09278 0.0
C720 C 0.50322 0.38692 0.08972 0.0
H721 H 0.55604 0.46204 0.07627 0.0
H722 H 0.55362 0.41651 0.11057 0.0
C723 C 0.47608 0.38537 0.06631 0.0
C724 C 0.69021 0.33154 0.22601 0.0
C725 C 0.69641 0.31127 0.24942 0.0
H726 H 0.65193 0.34746 0.19763 0.0
C727 C 0.66862 0.29378 0.26483 0.0
H728 H 0.71152 0.34505 0.21376 0.0
C729 C 0.63473 0.29492 0.25561 0.0
C730 C 0.62813 0.31366 0.23081 0.0
H731 H 0.67306 0.27793 0.28291 0.0
H732 H 0.61369 0.27994 0.26693 0.0
C733 C 0.6562 0.33293 0.21688 0.0
C734 C 0.52462 0.14694 0.09311 0.0
C735 C 0.49523 0.13197 0.07134 0.0
H736 H 0.55319 0.19358 0.12658 0.0
C737 C 0.47362 0.15453 0.0639 0.0
H738 H 0.54162 0.13025 0.09958 0.0
C739 C 0.48027 0.19099 0.07941 0.0
C740 C 0.50845 0.20545 0.10291 0.0
H741 H 0.45096 0.14375 0.04692 0.0
H742 H 0.46239 0.20743 0.07428 0.0
C743 C 0.5311 0.18323 0.10879 0.0
C744 C 0.29055 0.3896 0.69937 0.0
C745 C 0.28008 0.37272 0.72643 0.0
H746 H 0.31933 0.43577 0.68458 0.0
C747 C 0.28818 0.39241 0.76025 0.0
H748 H 0.28388 0.37614 0.67297 0.0
C749 C 0.30704 0.42733 0.76673 0.0
C750 C 0.31915 0.44303 0.73961 0.0
H751 H 0.28128 0.38056 0.78189 0.0
H752 H 0.31379 0.44134 0.79302 0.0
C753 C 0.31048 0.42405 0.7059 0.0
C754 C 0.29149 0.67043 0.82207 0.0
C755 C 0.30593 0.69799 0.80598 0.0
H756 H 0.29358 0.61881 0.83084 0.0
C757 C 0.33403 0.69313 0.78477 0.0
H758 H 0.26933 0.67273 0.83788 0.0
C759 C 0.34753 0.66169 0.78015 0.0
C760 C 0.33348 0.63465 0.79695 0.0
H761 H 0.34609 0.71389 0.77225 0.0
H762 H 0.36939 0.65889 0.76401 0.0
C763 C 0.30524 0.63932 0.81783 0.0
C764 C 0.92278 0.49447 0.56571 0.0
C765 C 0.92737 0.52393 0.55037 0.0
H766 H 0.88728 0.45189 0.57917 0.0
C767 C 0.89816 0.53443 0.5385 0.0
H768 H 0.9448 0.48619 0.57563 0.0
C769 C 0.86506 0.51481 0.54055 0.0
C770 C 0.86059 0.48443 0.55466 0.0
H771 H 0.90101 0.55702 0.52649 0.0
H772 H 0.84314 0.52282 0.53013 0.0
C773 C 0.88976 0.475 0.56793 0.0
C774 C 0.71246 0.86258 0.76921 0.0
C775 C 0.7404 0.85529 0.78631 0.0
H776 H 0.67949 0.90006 0.76669 0.0
C777 C 0.75728 0.88074 0.81428 0.0
H778 H 0.69912 0.84304 0.74756 0.0
C779 C 0.74616 0.91323 0.82531 0.0
C780 C 0.71792 0.92073 0.80849 0.0
H781 H 0.77887 0.87538 0.82779 0.0
H782 H 0.75957 0.93236 0.84716 0.0
C783 C 0.70129 0.89512 0.78019 0.0
C784 C 0.63031 0.52282 0.93474 0.0
C785 C 0.60906 0.53122 0.96245 0.0
H786 H 0.68031 0.53432 0.91393 0.0
C787 C 0.62323 0.55648 0.99192 0.0
H788 H 0.61993 0.5034 0.91171 0.0
C789 C 0.65737 0.57449 0.99297 0.0
C790 C 0.67824 0.5673 0.96473 0.0
H791 H 0.60736 0.5638 0.01348 0.0
H792 H 0.66716 0.59474 0.01565 0.0
C793 C 0.66477 0.54049 0.93599 0.0
C794 C 0.28293 0.66131 0.29486 0.0
C795 C 0.27432 0.67933 0.27008 0.0
H796 H 0.26916 0.61724 0.31879 0.0
C797 C 0.24387 0.66482 0.24961 0.0
H798 H 0.3053 0.67201 0.31217 0.0
C799 C 0.22231 0.63367 0.25446 0.0
C800 C 0.23116 0.61608 0.27936 0.0
H801 H 0.23646 0.6776 0.2301 0.0
H802 H 0.19867 0.62344 0.23884 0.0
C803 C 0.26195 0.62988 0.29904 0.0
C804 C 0.87074 0.5877 0.06723 0.0
C805 C 0.88445 0.55653 0.05745 0.0
H806 H 0.84142 0.62299 0.05189 0.0
C807 C 0.88016 0.53706 0.02346 0.0
H808 H 0.87394 0.60304 0.09345 0.0
C809 C 0.8616 0.54845 -0.00051 0.0
C810 C 0.8471 0.57938 0.00937 0.0
H811 H 0.8907 0.51289 0.01558 0.0
H812 H 0.85804 0.53267 0.97347 0.0
C813 C 0.85221 0.59907 0.04342 0.0
C814 C 0.11937 0.01182 0.07642 0.0
C815 C 0.1116 0.02953 0.05113 0.0
H816 H 0.14903 0.97599 0.09072 0.0
C817 C 0.12763 0.02288 0.0196 0.0
H818 H 0.1079 0.01661 0.10118 0.0
C819 C 0.15149 -3e-05 0.01382 0.0
C820 C 0.15974 0.98285 0.0393 0.0
H821 H 0.12182 0.03548 -0.00069 0.0
H822 H 0.16369 0.99593 0.98939 0.0
C823 C 0.14308 0.98862 0.0705 0.0
loop_
_geom_bond_atom_site_label_1
_geom_bond_atom_site_label_2
_geom_bond_distance
_geom_bond_site_symmetry_2
_ccdc_geom_bond_type
H0 C3 0.929 . S
H1 C6 0.929 . S
H2 C8 0.930 . S
C3 H0 0.929 . S
C3 C4 1.398 . S
C3 C5 1.396 . S
C4 C3 1.398 . S
C4 C8 1.407 . S
C5 C3 1.396 . S
C5 C6 1.394 . S
C6 H1 0.929 . S
C6 C5 1.394 . S
C6 C7 1.382 . S
C7 C6 1.382 . S
C7 C8 1.392 . S
C7 N9 1.420 . S
C8 H2 0.930 . S
C8 C4 1.407 . S
C8 C7 1.392 . S
N9 C7 1.420 . S
N9 C10 1.244 . S
C10 N9 1.244 . S
H11 C14 0.929 . S
H12 C17 0.929 . S
H13 C19 0.930 . S
C14 H11 0.929 . S
C14 C15 1.398 . S
C14 C16 1.396 . S
C15 C14 1.398 . S
C15 C19 1.407 . S
C16 C14 1.396 . S
C16 C17 1.394 . S
C17 H12 0.929 . S
C17 C16 1.394 . S
C17 C18 1.382 . S
C18 C17 1.382 . S
C18 C19 1.392 . S
C18 N20 1.420 . S
C19 H13 0.930 . S
C19 C15 1.407 . S
C19 C18 1.392 . S
N20 C18 1.420 . S
N20 C21 1.244 . S
C21 N20 1.244 . S
H22 C25 0.929 . S
H23 C28 0.929 . S
H24 C30 0.930 . S
C25 H22 0.929 . S
C25 C26 1.398 . S
C25 C27 1.396 . S
C26 C25 1.398 . S
C26 C30 1.407 . S
C27 C25 1.396 . S
C27 C28 1.394 . S
C28 H23 0.929 . S
C28 C27 1.394 . S
C28 C29 1.382 . S
C29 C28 1.382 . S
C29 C30 1.392 . S
C29 N31 1.420 . S
C30 H24 0.930 . S
C30 C26 1.407 . S
C30 C29 1.392 . S
N31 C29 1.420 . S
N31 C32 1.244 . S
C32 N31 1.244 . S
H33 C36 0.929 . S
H34 C39 0.929 . S
H35 C41 0.930 . S
C36 H33 0.929 . S
C36 C37 1.398 . S
C36 C38 1.396 . S
C37 C36 1.398 . S
C37 C41 1.407 . S
C38 C36 1.396 . S
C38 C39 1.394 . S
C39 H34 0.929 . S
C39 C38 1.394 . S
C39 C40 1.382 . S
C40 C39 1.382 . S
C40 C41 1.392 . S
C40 N42 1.420 . S
C41 H35 0.930 . S
C41 C37 1.407 . S
C41 C40 1.392 . S
N42 C40 1.420 . S
N42 C43 1.244 . S
C43 N42 1.244 . S
H44 C47 0.929 1_545 S
H45 C50 0.929 . S
H46 C52 0.930 . S
C47 H44 0.929 1_565 S
C47 C48 1.398 . S
C47 C49 1.396 . S
C48 C47 1.398 . S
C48 C52 1.407 . S
C49 C47 1.396 . S
C49 C50 1.394 . S
C50 H45 0.929 . S
C50 C49 1.394 . S
C50 C51 1.382 . S
C51 C50 1.382 . S
C51 C52 1.392 . S
C51 N53 1.420 . S
C52 H46 0.930 . S
C52 C48 1.407 . S
C52 C51 1.392 . S
N53 C51 1.420 . S
N53 C54 1.244 . S
C54 N53 1.244 . S
H55 C58 0.929 . S
H56 C61 0.929 . S
H57 C63 0.930 . S
C58 H55 0.929 . S
C58 C59 1.398 . S
C58 C60 1.396 . S
C59 C58 1.398 . S
C59 C63 1.407 . S
C60 C58 1.396 . S
C60 C61 1.394 . S
C61 H56 0.929 . S
C61 C60 1.394 . S
C61 C62 1.382 . S
C62 C61 1.382 . S
C62 C63 1.392 . S
C62 N64 1.420 . S
C63 H57 0.930 . S
C63 C59 1.407 . S
C63 C62 1.392 . S
N64 C62 1.420 . S
N64 C65 1.244 . S
C65 N64 1.244 . S
H66 C69 0.929 . S
H67 C72 0.929 . S
H68 C74 0.930 . S
C69 H66 0.929 . S
C69 C70 1.398 . S
C69 C71 1.396 . S
C70 C69 1.398 . S
C70 C74 1.407 . S
C71 C69 1.396 . S
C71 C72 1.394 . S
C72 H67 0.929 . S
C72 C71 1.394 . S
C72 C73 1.382 . S
C73 C72 1.382 . S
C73 C74 1.392 . S
C73 N75 1.420 . S
C74 H68 0.930 . S
C74 C70 1.407 . S
C74 C73 1.392 . S
N75 C73 1.420 . S
N75 C76 1.244 . S
C76 N75 1.244 . S
H77 C80 0.929 . S
H78 C83 0.929 . S
H79 C85 0.930 . S
C80 H77 0.929 . S
C80 C81 1.398 . S
C80 C82 1.396 . S
C81 C80 1.398 . S
C81 C85 1.407 . S
C82 C80 1.396 . S
C82 C83 1.394 . S
C83 H78 0.929 . S
C83 C82 1.394 . S
C83 C84 1.382 . S
C84 C83 1.382 . S
C84 C85 1.392 . S
C84 N86 1.420 . S
C85 H79 0.930 . S
C85 C81 1.407 . S
C85 C84 1.392 . S
N86 C84 1.420 . S
N86 C87 1.244 . S
C87 N86 1.244 . S
H88 C91 0.929 . S
H89 C94 0.929 . S
H90 C96 0.930 . S
C91 H88 0.929 . S
C91 C92 1.398 . S
C91 C93 1.396 . S
C92 C91 1.398 . S
C92 C96 1.407 . S
C93 C91 1.396 . S
C93 C94 1.394 . S
C94 H89 0.929 . S
C94 C93 1.394 . S
C94 C95 1.382 . S
C95 C94 1.382 . S
C95 C96 1.392 . S
C95 N97 1.420 . S
C96 H90 0.930 . S
C96 C92 1.407 . S
C96 C95 1.392 . S
N97 C95 1.420 . S
N97 C98 1.244 . S
C98 N97 1.244 . S
H99 C102 0.929 . S
H100 C105 0.929 . S
H101 C107 0.930 . S
C102 H99 0.929 . S
C102 C103 1.398 . S
C102 C104 1.396 . S
C103 C102 1.398 . S
C103 C107 1.407 . S
C104 C102 1.396 . S
C104 C105 1.394 . S
C105 H100 0.929 . S
C105 C104 1.394 . S
C105 C106 1.382 . S
C106 C105 1.382 . S
C106 C107 1.392 . S
C106 N108 1.420 . S
C107 H101 0.930 . S
C107 C103 1.407 . S
C107 C106 1.392 . S
N108 C106 1.420 . S
N108 C109 1.244 . S
C109 N108 1.244 . S
H110 C113 0.929 . S
H111 C116 0.929 . S
H112 C118 0.930 . S
C113 H110 0.929 . S
C113 C114 1.398 . S
C113 C115 1.396 . S
C114 C113 1.398 . S
C114 C118 1.407 . S
C115 C113 1.396 . S
C115 C116 1.394 . S
C116 H111 0.929 . S
C116 C115 1.394 . S
C116 C117 1.382 . S
C117 C116 1.382 . S
C117 C118 1.392 . S
C117 N119 1.420 . S
C118 H112 0.930 . S
C118 C114 1.407 . S
C118 C117 1.392 . S
N119 C117 1.420 . S
N119 C120 1.244 . S
C120 N119 1.244 . S
H121 C124 0.929 . S
H122 C127 0.929 . S
H123 C129 0.930 . S
C124 H121 0.929 . S
C124 C125 1.398 . S
C124 C126 1.396 . S
C125 C124 1.398 . S
C125 C129 1.407 . S
C126 C124 1.396 . S
C126 C127 1.394 . S
C127 H122 0.929 . S
C127 C126 1.394 . S
C127 C128 1.382 . S
C128 C127 1.382 . S
C128 C129 1.392 . S
C128 N130 1.420 . S
C129 H123 0.930 . S
C129 C125 1.407 . S
C129 C128 1.392 . S
N130 C128 1.420 . S
N130 C131 1.244 . S
C131 N130 1.244 . S
H132 C135 0.929 . S
H133 C138 0.929 . S
H134 C140 0.930 . S
C135 H132 0.929 . S
C135 C136 1.398 . S
C135 C137 1.396 . S
C136 C135 1.398 . S
C136 C140 1.407 . S
C137 C135 1.396 . S
C137 C138 1.394 . S
C138 H133 0.929 . S
C138 C137 1.394 . S
C138 C139 1.382 . S
C139 C138 1.382 . S
C139 C140 1.392 . S
C139 N141 1.420 . S
C140 H134 0.930 . S
C140 C136 1.407 . S
C140 C139 1.392 . S
N141 C139 1.420 . S
N141 C142 1.244 . S
C142 N141 1.244 . S
H143 C146 0.929 . S
H144 C149 0.929 . S
H145 C151 0.930 . S
C146 H143 0.929 . S
C146 C147 1.398 . S
C146 C148 1.396 . S
C147 C146 1.398 . S
C147 C151 1.407 . S
C148 C146 1.396 . S
C148 C149 1.394 . S
C149 H144 0.929 . S
C149 C148 1.394 . S
C149 C150 1.382 . S
C150 C149 1.382 . S
C150 C151 1.392 . S
C150 N152 1.420 . S
C151 H145 0.930 . S
C151 C147 1.407 . S
C151 C150 1.392 . S
N152 C150 1.420 . S
N152 C153 1.244 . S
C153 N152 1.244 . S
H154 C157 0.929 . S
H155 C160 0.929 . S
H156 C162 0.930 . S
C157 H154 0.929 . S
C157 C158 1.398 . S
C157 C159 1.396 . S
C158 C157 1.398 . S
C158 C162 1.407 . S
C159 C157 1.396 . S
C159 C160 1.394 . S
C160 H155 0.929 . S
C160 C159 1.394 . S
C160 C161 1.382 . S
C161 C160 1.382 . S
C161 C162 1.392 . S
C161 N163 1.420 . S
C162 H156 0.930 . S
C162 C158 1.407 . S
C162 C161 1.392 . S
N163 C161 1.420 . S
N163 C164 1.244 . S
C164 N163 1.244 . S
H165 C168 0.929 1_554 S
H166 C171 0.929 . S
H167 C173 0.930 . S
C168 H165 0.929 1_556 S
C168 C169 1.398 . S
C168 C170 1.396 . S
C169 C168 1.398 . S
C169 C173 1.407 . S
C170 C168 1.396 . S
C170 C171 1.394 . S
C171 H166 0.929 . S
C171 C170 1.394 . S
C171 C172 1.382 . S
C172 C171 1.382 . S
C172 C173 1.392 . S
C172 N174 1.420 . S
C173 H167 0.930 . S
C173 C169 1.407 . S
C173 C172 1.392 . S
N174 C172 1.420 . S
N174 C175 1.244 . S
C175 N174 1.244 . S
O176 Cd177 2.223 . S
O176 C184 1.315 . S
Cd177 O176 2.223 . S
Cd177 O180 2.297 . S
Cd177 O181 2.439 . S
Cd177 O187 2.240 . S
Cd178 O179 2.240 . S
Cd178 O186 2.223 . S
Cd178 O188 2.297 1_565 S
Cd178 O189 2.439 . S
O179 Cd178 2.240 . S
O179 C184 1.279 . S
O180 Cd177 2.297 . S
O180 C182 1.247 . S
O181 Cd177 2.439 . S
O181 C182 1.208 . S
C182 O180 1.247 . S
C182 O181 1.208 . S
C183 O188 1.247 . S
C183 O189 1.208 1_545 S
C184 O176 1.315 . S
C184 O179 1.279 . S
C185 O186 1.315 . S
C185 O187 1.279 . S
O186 Cd178 2.223 . S
O186 C185 1.315 . S
O187 Cd177 2.240 . S
O187 C185 1.279 . S
O188 Cd178 2.297 1_545 S
O188 C183 1.247 . S
O189 Cd178 2.439 . S
O189 C183 1.208 1_565 S
O190 Cd191 2.223 . S
O190 C198 1.315 . S
Cd191 O190 2.223 . S
Cd191 O194 2.297 . S
Cd191 O195 2.439 . S
Cd191 O201 2.240 . S
Cd192 O193 2.240 . S
Cd192 O200 2.223 . S
Cd192 O202 2.297 . S
Cd192 O203 2.439 . S
O193 Cd192 2.240 . S
O193 C198 1.279 . S
O194 Cd191 2.297 . S
O194 C196 1.247 . S
O195 Cd191 2.439 . S
O195 C196 1.208 . S
C196 O194 1.247 . S
C196 O195 1.208 . S
C197 O202 1.247 . S
C197 O203 1.208 . S
C198 O190 1.315 . S
C198 O193 1.279 . S
C199 O200 1.315 . S
C199 O201 1.279 . S
O200 Cd192 2.223 . S
O200 C199 1.315 . S
O201 Cd191 2.240 . S
O201 C199 1.279 . S
O202 Cd192 2.297 . S
O202 C197 1.247 . S
O203 Cd192 2.439 . S
O203 C197 1.208 . S
O204 Cd205 2.223 1_556 S
O204 C212 1.315 . S
Cd205 O204 2.223 1_554 S
Cd205 O208 2.297 . S
Cd205 O209 2.439 . S
Cd205 O215 2.240 1_554 S
Cd206 O207 2.240 . S
Cd206 O214 2.223 . S
Cd206 O216 2.297 . S
Cd206 O217 2.439 1_556 S
O207 Cd206 2.240 . S
O207 C212 1.279 . S
O208 Cd205 2.297 . S
O208 C210 1.247 . S
O209 Cd205 2.439 . S
O209 C210 1.208 . S
C210 O208 1.247 . S
C210 O209 1.208 . S
C211 O216 1.247 1_554 S
C211 O217 1.208 . S
C212 O204 1.315 . S
C212 O207 1.279 . S
C213 O214 1.315 . S
C213 O215 1.279 . S
O214 Cd206 2.223 . S
O214 C213 1.315 . S
O215 Cd205 2.240 1_556 S
O215 C213 1.279 . S
O216 Cd206 2.297 . S
O216 C211 1.247 1_556 S
O217 Cd206 2.439 1_554 S
O217 C211 1.208 . S
O218 Cd219 2.223 . S
O218 C226 1.315 . S
Cd219 O218 2.223 . S
Cd219 O222 2.297 1_655 S
Cd219 O223 2.439 . S
Cd219 O229 2.240 . S
Cd220 O221 2.240 . S
Cd220 O228 2.223 . S
Cd220 O230 2.297 . S
Cd220 O231 2.439 . S
O221 Cd220 2.240 . S
O221 C226 1.279 . S
O222 Cd219 2.297 1_455 S
O222 C224 1.247 . S
O223 Cd219 2.439 . S
O223 C224 1.208 1_655 S
C224 O222 1.247 . S
C224 O223 1.208 1_455 S
C225 O230 1.247 . S
C225 O231 1.208 . S
C226 O218 1.315 . S
C226 O221 1.279 . S
C227 O228 1.315 . S
C227 O229 1.279 . S
O228 Cd220 2.223 . S
O228 C227 1.315 . S
O229 Cd219 2.240 . S
O229 C227 1.279 . S
O230 Cd220 2.297 . S
O230 C225 1.247 . S
O231 Cd220 2.439 . S
O231 C225 1.208 . S
O232 Cd233 2.223 . S
O232 C240 1.315 . S
Cd233 O232 2.223 . S
Cd233 O236 2.297 . S
Cd233 O237 2.439 . S
Cd233 O243 2.240 . S
Cd234 O235 2.240 . S
Cd234 O242 2.223 . S
Cd234 O244 2.297 . S
Cd234 O245 2.439 . S
O235 Cd234 2.240 . S
O235 C240 1.279 . S
O236 Cd233 2.297 . S
O236 C238 1.247 . S
O237 Cd233 2.439 . S
O237 C238 1.208 . S
C238 O236 1.247 . S
C238 O237 1.208 . S
C239 O244 1.247 . S
C239 O245 1.208 . S
C240 O232 1.315 . S
C240 O235 1.279 . S
C241 O242 1.315 . S
C241 O243 1.279 . S
O242 Cd234 2.223 . S
O242 C241 1.315 . S
O243 Cd233 2.240 . S
O243 C241 1.279 . S
O244 Cd234 2.297 . S
O244 C239 1.247 . S
O245 Cd234 2.439 . S
O245 C239 1.208 . S
O246 Cd247 2.223 . S
O246 C254 1.315 . S
Cd247 O246 2.223 . S
Cd247 O250 2.297 . S
Cd247 O251 2.439 . S
Cd247 O257 2.240 . S
Cd248 O249 2.240 . S
Cd248 O256 2.223 . S
Cd248 O258 2.297 . S
Cd248 O259 2.439 . S
O249 Cd248 2.240 . S
O249 C254 1.279 . S
O250 Cd247 2.297 . S
O250 C252 1.247 . S
O251 Cd247 2.439 . S
O251 C252 1.208 . S
C252 O250 1.247 . S
C252 O251 1.208 . S
C253 O258 1.247 . S
C253 O259 1.208 . S
C254 O246 1.315 . S
C254 O249 1.279 . S
C255 O256 1.315 . S
C255 O257 1.279 . S
O256 Cd248 2.223 . S
O256 C255 1.315 . S
O257 Cd247 2.240 . S
O257 C255 1.279 . S
O258 Cd248 2.297 . S
O258 C253 1.247 . S
O259 Cd248 2.439 . S
O259 C253 1.208 . S
O260 Cd261 2.223 . S
O260 C268 1.315 . S
Cd261 O260 2.223 . S
Cd261 O264 2.297 . S
Cd261 O265 2.439 . S
Cd261 O271 2.240 . S
Cd262 O263 2.240 . S
Cd262 O270 2.223 . S
Cd262 O272 2.297 . S
Cd262 O273 2.439 . S
O263 Cd262 2.240 . S
O263 C268 1.279 . S
O264 Cd261 2.297 . S
O264 C266 1.247 . S
O265 Cd261 2.439 . S
O265 C266 1.208 . S
C266 O264 1.247 . S
C266 O265 1.208 . S
C267 O272 1.247 . S
C267 O273 1.208 . S
C268 O260 1.315 . S
C268 O263 1.279 . S
C269 O270 1.315 . S
C269 O271 1.279 . S
O270 Cd262 2.223 . S
O270 C269 1.315 . S
O271 Cd261 2.240 . S
O271 C269 1.279 . S
O272 Cd262 2.297 . S
O272 C267 1.247 . S
O273 Cd262 2.439 . S
O273 C267 1.208 . S
O274 Cd275 2.223 1_545 S
O274 C282 1.315 . S
Cd275 O274 2.223 1_565 S
Cd275 O278 2.297 . S
Cd275 O279 2.439 . S
Cd275 O285 2.240 1_565 S
Cd276 O277 2.240 . S
Cd276 O284 2.223 . S
Cd276 O286 2.297 . S
Cd276 O287 2.439 1_545 S
O277 Cd276 2.240 . S
O277 C282 1.279 . S
O278 Cd275 2.297 . S
O278 C280 1.247 . S
O279 Cd275 2.439 . S
O279 C280 1.208 . S
C280 O278 1.247 . S
C280 O279 1.208 . S
C281 O286 1.247 1_565 S
C281 O287 1.208 . S
C282 O274 1.315 . S
C282 O277 1.279 . S
C283 O284 1.315 . S
C283 O285 1.279 . S
O284 Cd276 2.223 . S
O284 C283 1.315 . S
O285 Cd275 2.240 1_545 S
O285 C283 1.279 . S
O286 Cd276 2.297 . S
O286 C281 1.247 1_545 S
O287 Cd276 2.439 1_565 S
O287 C281 1.208 . S
O288 Cd289 2.223 . S
O288 C296 1.315 . S
Cd289 O288 2.223 . S
Cd289 O292 2.297 1_655 S
Cd289 O293 2.439 1_655 S
Cd289 O299 2.240 . S
Cd290 O291 2.240 . S
Cd290 O298 2.223 1_455 S
Cd290 O300 2.297 . S
Cd290 O301 2.439 . S
O291 Cd290 2.240 . S
O291 C296 1.279 1_455 S
O292 Cd289 2.297 1_455 S
O292 C294 1.247 . S
O293 Cd289 2.439 1_455 S
O293 C294 1.208 . S
C294 O292 1.247 . S
C294 O293 1.208 . S
C295 O300 1.247 . S
C295 O301 1.208 . S
C296 O288 1.315 . S
C296 O291 1.279 1_655 S
C297 O298 1.315 . S
C297 O299 1.279 . S
O298 Cd290 2.223 1_655 S
O298 C297 1.315 . S
O299 Cd289 2.240 . S
O299 C297 1.279 . S
O300 Cd290 2.297 . S
O300 C295 1.247 . S
O301 Cd290 2.439 . S
O301 C295 1.208 . S
O302 Cd303 2.223 . S
O302 C310 1.315 . S
Cd303 O302 2.223 . S
Cd303 O306 2.297 . S
Cd303 O307 2.439 . S
Cd303 O313 2.240 . S
Cd304 O305 2.240 . S
Cd304 O312 2.223 . S
Cd304 O314 2.297 . S
Cd304 O315 2.439 . S
O305 Cd304 2.240 . S
O305 C310 1.279 . S
O306 Cd303 2.297 . S
O306 C308 1.247 . S
O307 Cd303 2.439 . S
O307 C308 1.208 . S
C308 O306 1.247 . S
C308 O307 1.208 . S
C309 O314 1.247 . S
C309 O315 1.208 . S
C310 O302 1.315 . S
C310 O305 1.279 . S
C311 O312 1.315 . S
C311 O313 1.279 . S
O312 Cd304 2.223 . S
O312 C311 1.315 . S
O313 Cd303 2.240 . S
O313 C311 1.279 . S
O314 Cd304 2.297 . S
O314 C309 1.247 . S
O315 Cd304 2.439 . S
O315 C309 1.208 . S
O316 Cd317 2.223 1_655 S
O316 C324 1.315 . S
Cd317 O316 2.223 1_455 S
Cd317 O320 2.297 . S
Cd317 O321 2.439 . S
Cd317 O327 2.240 . S
Cd318 O319 2.240 . S
Cd318 O326 2.223 . S
Cd318 O328 2.297 1_655 S
Cd318 O329 2.439 1_655 S
O319 Cd318 2.240 . S
O319 C324 1.279 . S
O320 Cd317 2.297 . S
O320 C322 1.247 . S
O321 Cd317 2.439 . S
O321 C322 1.208 . S
C322 O320 1.247 . S
C322 O321 1.208 . S
C323 O328 1.247 . S
C323 O329 1.208 . S
C324 O316 1.315 . S
C324 O319 1.279 . S
C325 O326 1.315 . S
C325 O327 1.279 1_655 S
O326 Cd318 2.223 . S
O326 C325 1.315 . S
O327 Cd317 2.240 . S
O327 C325 1.279 1_455 S
O328 Cd318 2.297 1_455 S
O328 C323 1.247 . S
O329 Cd318 2.439 1_455 S
O329 C323 1.208 . S
O330 Cd331 2.223 . S
O330 C338 1.315 . S
Cd331 O330 2.223 . S
Cd331 O334 2.297 . S
Cd331 O335 2.439 . S
Cd331 O341 2.240 . S
Cd332 O333 2.240 . S
Cd332 O340 2.223 . S
Cd332 O342 2.297 . S
Cd332 O343 2.439 . S
O333 Cd332 2.240 . S
O333 C338 1.279 . S
O334 Cd331 2.297 . S
O334 C336 1.247 . S
O335 Cd331 2.439 . S
O335 C336 1.208 . S
C336 O334 1.247 . S
C336 O335 1.208 . S
C337 O342 1.247 . S
C337 O343 1.208 . S
C338 O330 1.315 . S
C338 O333 1.279 . S
C339 O340 1.315 . S
C339 O341 1.279 . S
O340 Cd332 2.223 . S
O340 C339 1.315 . S
O341 Cd331 2.240 . S
O341 C339 1.279 . S
O342 Cd332 2.297 . S
O342 C337 1.247 . S
O343 Cd332 2.439 . S
O343 C337 1.208 . S
C344 C345 1.387 . S
C344 H348 0.950 . S
C344 C353 1.390 . S
C345 C344 1.387 . S
C345 C347 1.387 . S
H346 C353 0.950 . S
C347 C345 1.387 . S
C347 C349 1.390 . S
C347 H351 0.950 . S
H348 C344 0.950 . S
C349 C347 1.390 . S
C349 C350 1.387 . S
C349 H352 0.950 . S
C350 C349 1.387 . S
C350 C353 1.387 . S
H351 C347 0.950 . S
H352 C349 0.950 . S
C353 C344 1.390 . S
C353 H346 0.950 . S
C353 C350 1.387 . S
C354 C355 1.401 . S
C354 H358 0.950 . S
C354 C363 1.390 . S
C355 C354 1.401 . S
C355 C357 1.393 . S
H356 C363 0.950 . S
C357 C355 1.393 . S
C357 C359 1.390 . S
C357 H361 0.950 1_455 S
H358 C354 0.950 . S
C359 C357 1.390 . S
C359 C360 1.387 . S
C359 H362 0.950 . S
C360 C359 1.387 . S
C360 C363 1.387 . S
H361 C357 0.950 1_655 S
H362 C359 0.950 . S
C363 C354 1.390 . S
C363 H356 0.950 . S
C363 C360 1.387 . S
C364 C365 1.387 . S
C364 H368 0.950 . S
C364 C373 1.390 . S
C365 C364 1.387 . S
C365 C367 1.387 . S
H366 C373 0.950 . S
C367 C365 1.387 . S
C367 C369 1.390 . S
C367 H371 0.950 . S
H368 C364 0.950 . S
C369 C367 1.390 . S
C369 C370 1.387 . S
C369 H372 0.950 . S
C370 C369 1.387 . S
C370 C373 1.387 . S
H371 C367 0.950 . S
H372 C369 0.950 . S
C373 C364 1.390 . S
C373 H366 0.950 . S
C373 C370 1.387 . S
C374 C375 1.387 1_545 S
C374 H378 0.950 . S
C374 C383 1.390 . S
C375 C374 1.387 1_565 S
C375 C377 1.387 . S
H376 C383 0.950 . S
C377 C375 1.387 . S
C377 C379 1.390 . S
C377 H381 0.950 . S
H378 C374 0.950 . S
C379 C377 1.390 . S
C379 C380 1.387 1_565 S
C379 H382 0.950 1_455 S
C380 C379 1.387 1_545 S
C380 C383 1.387 . S
H381 C377 0.950 . S
H382 C379 0.950 1_655 S
C383 C374 1.390 . S
C383 H376 0.950 . S
C383 C380 1.387 . S
C384 C385 1.387 . S
C384 H388 0.950 . S
C384 C393 1.390 . S
C385 C384 1.387 . S
C385 C387 1.387 . S
H386 C393 0.950 . S
C387 C385 1.387 . S
C387 C389 1.390 . S
C387 H391 0.950 . S
H388 C384 0.950 . S
C389 C387 1.390 . S
C389 C390 1.387 . S
C389 H392 0.950 . S
C390 C389 1.387 . S
C390 C393 1.387 . S
H391 C387 0.950 . S
H392 C389 0.950 . S
C393 C384 1.390 . S
C393 H386 0.950 . S
C393 C390 1.387 . S
C394 C395 1.387 . S
C394 H398 0.950 . S
C394 C403 1.390 . S
C395 C394 1.387 . S
C395 C397 1.387 . S
H396 C403 0.950 . S
C397 C395 1.387 . S
C397 C399 1.390 . S
C397 H401 0.950 . S
H398 C394 0.950 . S
C399 C397 1.390 . S
C399 C400 1.387 . S
C399 H402 0.950 . S
C400 C399 1.387 . S
C400 C403 1.387 . S
H401 C397 0.950 . S
H402 C399 0.950 . S
C403 C394 1.390 . S
C403 H396 0.950 . S
C403 C400 1.387 . S
C404 C405 1.387 . S
C404 H408 0.950 . S
C404 C413 1.390 . S
C405 C404 1.387 . S
C405 C407 1.387 . S
H406 C413 0.950 . S
C407 C405 1.387 . S
C407 C409 1.390 . S
C407 H411 0.950 . S
H408 C404 0.950 . S
C409 C407 1.390 . S
C409 C410 1.387 . S
C409 H412 0.950 . S
C410 C409 1.387 . S
C410 C413 1.387 . S
H411 C407 0.950 . S
H412 C409 0.950 . S
C413 C404 1.390 . S
C413 H406 0.950 . S
C413 C410 1.387 . S
C414 C415 1.387 . S
C414 H418 0.950 . S
C414 C423 1.390 . S
C415 C414 1.387 . S
C415 C417 1.387 . S
H416 C423 0.950 1_545 S
C417 C415 1.387 . S
C417 C419 1.390 . S
C417 H421 0.950 . S
H418 C414 0.950 . S
C419 C417 1.390 . S
C419 C420 1.387 . S
C419 H422 0.950 . S
C420 C419 1.387 . S
C420 C423 1.387 . S
H421 C417 0.950 . S
H422 C419 0.950 . S
C423 C414 1.390 . S
C423 H416 0.950 1_565 S
C423 C420 1.387 . S
C424 C425 1.387 . S
C424 H428 0.950 . S
C424 C433 1.390 . S
C425 C424 1.387 . S
C425 C427 1.387 . S
H426 C433 0.950 . S
C427 C425 1.387 . S
C427 C429 1.390 . S
C427 H431 0.950 . S
H428 C424 0.950 . S
C429 C427 1.390 . S
C429 C430 1.387 . S
C429 H432 0.950 . S
C430 C429 1.387 . S
C430 C433 1.387 . S
H431 C427 0.950 . S
H432 C429 0.950 . S
C433 C424 1.390 . S
C433 H426 0.950 . S
C433 C430 1.387 . S
C434 C435 1.387 . S
C434 H438 0.950 . S
C434 C443 1.390 . S
C435 C434 1.387 . S
C435 C437 1.387 . S
H436 C443 0.950 . S
C437 C435 1.387 . S
C437 C439 1.390 . S
C437 H441 0.950 . S
H438 C434 0.950 . S
C439 C437 1.390 . S
C439 C440 1.387 . S
C439 H442 0.950 . S
C440 C439 1.387 . S
C440 C443 1.387 . S
H441 C437 0.950 . S
H442 C439 0.950 . S
C443 C434 1.390 . S
C443 H436 0.950 . S
C443 C440 1.387 . S
C444 C445 1.387 . S
C444 H448 0.950 . S
C444 C453 1.390 . S
C445 C444 1.387 . S
C445 C447 1.387 . S
H446 C453 0.950 . S
C447 C445 1.387 . S
C447 C449 1.390 . S
C447 H451 0.950 . S
H448 C444 0.950 . S
C449 C447 1.390 . S
C449 C450 1.387 . S
C449 H452 0.950 . S
C450 C449 1.387 . S
C450 C453 1.387 . S
H451 C447 0.950 . S
H452 C449 0.950 . S
C453 C444 1.390 . S
C453 H446 0.950 . S
C453 C450 1.387 . S
C454 C455 1.387 . S
C454 H458 0.950 . S
C454 C463 1.390 . S
C455 C454 1.387 . S
C455 C457 1.387 . S
H456 C463 0.950 . S
C457 C455 1.387 . S
C457 C459 1.390 . S
C457 H461 0.950 . S
H458 C454 0.950 . S
C459 C457 1.390 . S
C459 C460 1.387 . S
C459 H462 0.950 . S
C460 C459 1.387 . S
C460 C463 1.387 . S
H461 C457 0.950 . S
H462 C459 0.950 . S
C463 C454 1.390 . S
C463 H456 0.950 . S
C463 C460 1.387 . S
C464 C465 1.387 . S
C464 H468 0.950 . S
C464 C473 1.390 . S
C465 C464 1.387 . S
C465 C467 1.387 . S
H466 C473 0.950 . S
C467 C465 1.387 . S
C467 C469 1.390 . S
C467 H471 0.950 . S
H468 C464 0.950 . S
C469 C467 1.390 . S
C469 C470 1.387 . S
C469 H472 0.950 . S
C470 C469 1.387 . S
C470 C473 1.387 . S
H471 C467 0.950 . S
H472 C469 0.950 . S
C473 C464 1.390 . S
C473 H466 0.950 . S
C473 C470 1.387 . S
C474 C475 1.387 . S
C474 H478 0.950 . S
C474 C483 1.390 . S
C475 C474 1.387 . S
C475 C477 1.387 . S
H476 C483 0.950 . S
C477 C475 1.387 . S
C477 C479 1.390 . S
C477 H481 0.950 . S
H478 C474 0.950 . S
C479 C477 1.390 . S
C479 C480 1.387 . S
C479 H482 0.950 . S
C480 C479 1.387 . S
C480 C483 1.387 . S
H481 C477 0.950 . S
H482 C479 0.950 . S
C483 C474 1.390 . S
C483 H476 0.950 . S
C483 C480 1.387 . S
C484 C485 1.387 . S
C484 H488 0.950 . S
C484 C493 1.390 . S
C485 C484 1.387 . S
C485 C487 1.387 . S
H486 C493 0.950 . S
C487 C485 1.387 . S
C487 C489 1.390 . S
C487 H491 0.950 . S
H488 C484 0.950 . S
C489 C487 1.390 . S
C489 C490 1.387 . S
C489 H492 0.950 . S
C490 C489 1.387 . S
C490 C493 1.387 . S
H491 C487 0.950 . S
H492 C489 0.950 . S
C493 C484 1.390 . S
C493 H486 0.950 . S
C493 C490 1.387 . S
C494 C495 1.387 . S
C494 H498 0.950 . S
C494 C503 1.390 . S
C495 C494 1.387 . S
C495 C497 1.387 . S
H496 C503 0.950 . S
C497 C495 1.387 . S
C497 C499 1.390 . S
C497 H501 0.950 . S
H498 C494 0.950 . S
C499 C497 1.390 . S
C499 C500 1.387 . S
C499 H502 0.950 . S
C500 C499 1.387 . S
C500 C503 1.387 . S
H501 C497 0.950 . S
H502 C499 0.950 . S
C503 C494 1.390 . S
C503 H496 0.950 . S
C503 C500 1.387 . S
C504 C505 1.387 . S
C504 H508 0.950 . S
C504 C513 1.390 . S
C505 C504 1.387 . S
C505 C507 1.387 . S
H506 C513 0.950 . S
C507 C505 1.387 . S
C507 C509 1.390 . S
C507 H511 0.950 . S
H508 C504 0.950 . S
C509 C507 1.390 . S
C509 C510 1.387 . S
C509 H512 0.950 1_565 S
C510 C509 1.387 . S
C510 C513 1.387 . S
H511 C507 0.950 . S
H512 C509 0.950 1_545 S
C513 C504 1.390 . S
C513 H506 0.950 . S
C513 C510 1.387 . S
C514 C515 1.387 . S
C514 H518 0.950 . S
C514 C523 1.390 . S
C515 C514 1.387 . S
C515 C517 1.387 . S
H516 C523 0.950 . S
C517 C515 1.387 . S
C517 C519 1.390 . S
C517 H521 0.950 . S
H518 C514 0.950 . S
C519 C517 1.390 . S
C519 C520 1.387 . S
C519 H522 0.950 . S
C520 C519 1.387 . S
C520 C523 1.387 . S
H521 C517 0.950 . S
H522 C519 0.950 . S
C523 C514 1.390 . S
C523 H516 0.950 . S
C523 C520 1.387 . S
C524 C525 1.387 1_554 S
C524 H528 0.950 . S
C524 C533 1.390 . S
C525 C524 1.387 1_556 S
C525 C527 1.387 . S
H526 C533 0.950 . S
C527 C525 1.387 . S
C527 C529 1.386 1_556 S
C527 H531 0.950 . S
H528 C524 0.950 . S
C529 C527 1.386 1_554 S
C529 C530 1.392 . S
C529 H532 0.949 1_544 S
C530 C529 1.392 . S
C530 C533 1.387 . S
H531 C527 0.950 . S
H532 C529 0.949 1_566 S
C533 C524 1.390 . S
C533 H526 0.950 . S
C533 C530 1.387 . S
C534 C535 1.387 . S
C534 H538 0.950 . S
C534 C543 1.390 . S
C535 C534 1.387 . S
C535 C537 1.387 . S
H536 C543 0.950 . S
C537 C535 1.387 . S
C537 C539 1.390 . S
C537 H541 0.950 . S
H538 C534 0.950 . S
C539 C537 1.390 . S
C539 C540 1.387 . S
C539 H542 0.950 . S
C540 C539 1.387 . S
C540 C543 1.387 . S
H541 C537 0.950 . S
H542 C539 0.950 . S
C543 C534 1.390 . S
C543 H536 0.950 . S
C543 C540 1.387 . S
C544 C545 1.387 . S
C544 H548 0.950 . S
C544 C553 1.390 . S
C545 C544 1.387 . S
C545 C547 1.387 . S
H546 C553 0.950 . S
C547 C545 1.387 . S
C547 C549 1.390 . S
C547 H551 0.950 . S
H548 C544 0.950 . S
C549 C547 1.390 . S
C549 C550 1.387 . S
C549 H552 0.950 . S
C550 C549 1.387 . S
C550 C553 1.387 . S
H551 C547 0.950 . S
H552 C549 0.950 . S
C553 C544 1.390 . S
C553 H546 0.950 . S
C553 C550 1.387 . S
C554 C555 1.387 . S
C554 H558 0.950 . S
C554 C563 1.390 . S
C555 C554 1.387 . S
C555 C557 1.387 . S
H556 C563 0.950 . S
C557 C555 1.387 . S
C557 C559 1.390 . S
C557 H561 0.950 . S
H558 C554 0.950 . S
C559 C557 1.390 . S
C559 C560 1.387 . S
C559 H562 0.950 . S
C560 C559 1.387 . S
C560 C563 1.387 . S
H561 C557 0.950 . S
H562 C559 0.950 . S
C563 C554 1.390 . S
C563 H556 0.950 . S
C563 C560 1.387 . S
C564 C565 1.387 . S
C564 H568 0.950 . S
C564 C573 1.390 . S
C565 C564 1.387 . S
C565 C567 1.387 . S
H566 C573 0.950 . S
C567 C565 1.387 . S
C567 C569 1.390 . S
C567 H571 0.950 . S
H568 C564 0.950 . S
C569 C567 1.390 . S
C569 C570 1.387 . S
C569 H572 0.950 . S
C570 C569 1.387 . S
C570 C573 1.387 . S
H571 C567 0.950 . S
H572 C569 0.950 . S
C573 C564 1.390 . S
C573 H566 0.950 . S
C573 C570 1.387 . S
C574 C575 1.387 . S
C574 H578 0.950 . S
C574 C583 1.390 . S
C575 C574 1.387 . S
C575 C577 1.387 . S
H576 C583 0.950 . S
C577 C575 1.387 . S
C577 C579 1.390 . S
C577 H581 0.950 . S
H578 C574 0.950 . S
C579 C577 1.390 . S
C579 C580 1.387 . S
C579 H582 0.950 . S
C580 C579 1.387 . S
C580 C583 1.387 . S
H581 C577 0.950 . S
H582 C579 0.950 . S
C583 C574 1.390 . S
C583 H576 0.950 . S
C583 C580 1.387 . S
C584 C585 1.387 . S
C584 H588 0.950 . S
C584 C593 1.390 . S
C585 C584 1.387 . S
C585 C587 1.387 . S
H586 C593 0.950 . S
C587 C585 1.387 . S
C587 C589 1.390 . S
C587 H591 0.950 . S
H588 C584 0.950 . S
C589 C587 1.390 . S
C589 C590 1.387 . S
C589 H592 0.950 . S
C590 C589 1.387 . S
C590 C593 1.387 . S
H591 C587 0.950 . S
H592 C589 0.950 . S
C593 C584 1.390 . S
C593 H586 0.950 . S
C593 C590 1.387 . S
C594 C595 1.387 . S
C594 H598 0.950 . S
C594 C603 1.390 . S
C595 C594 1.387 . S
C595 C597 1.387 . S
H596 C603 0.950 . S
C597 C595 1.387 . S
C597 C599 1.390 . S
C597 H601 0.950 . S
H598 C594 0.950 . S
C599 C597 1.390 . S
C599 C600 1.387 . S
C599 H602 0.950 . S
C600 C599 1.387 . S
C600 C603 1.387 . S
H601 C597 0.950 . S
H602 C599 0.950 . S
C603 C594 1.390 . S
C603 H596 0.950 . S
C603 C600 1.387 . S
C604 C605 1.387 . S
C604 H608 0.950 . S
C604 C613 1.390 . S
C605 C604 1.387 . S
C605 C607 1.387 . S
H606 C613 0.950 . S
C607 C605 1.387 . S
C607 C609 1.390 . S
C607 H611 0.950 . S
H608 C604 0.950 . S
C609 C607 1.390 . S
C609 C610 1.387 . S
C609 H612 0.950 . S
C610 C609 1.387 . S
C610 C613 1.387 . S
H611 C607 0.950 . S
H612 C609 0.950 . S
C613 C604 1.390 . S
C613 H606 0.950 . S
C613 C610 1.387 . S
C614 C615 1.387 . S
C614 H618 0.950 . S
C614 C623 1.390 . S
C615 C614 1.387 . S
C615 C617 1.387 . S
H616 C623 0.950 . S
C617 C615 1.387 . S
C617 C619 1.390 . S
C617 H621 0.950 . S
H618 C614 0.950 . S
C619 C617 1.390 . S
C619 C620 1.387 . S
C619 H622 0.950 . S
C620 C619 1.387 . S
C620 C623 1.387 . S
H621 C617 0.950 . S
H622 C619 0.950 . S
C623 C614 1.390 . S
C623 H616 0.950 . S
C623 C620 1.387 . S
C624 C625 1.387 . S
C624 H628 0.950 . S
C624 C633 1.390 . S
C625 C624 1.387 . S
C625 C627 1.387 . S
H626 C633 0.950 . S
C627 C625 1.387 . S
C627 C629 1.390 . S
C627 H631 0.950 . S
H628 C624 0.950 . S
C629 C627 1.390 . S
C629 C630 1.387 . S
C629 H632 0.950 . S
C630 C629 1.387 . S
C630 C633 1.387 . S
H631 C627 0.950 . S
H632 C629 0.950 . S
C633 C624 1.390 . S
C633 H626 0.950 . S
C633 C630 1.387 . S
C634 C635 1.387 . S
C634 H638 0.950 . S
C634 C643 1.390 . S
C635 C634 1.387 . S
C635 C637 1.387 . S
H636 C643 0.950 . S
C637 C635 1.387 . S
C637 C639 1.390 . S
C637 H641 0.950 . S
H638 C634 0.950 . S
C639 C637 1.390 . S
C639 C640 1.387 . S
C639 H642 0.950 . S
C640 C639 1.387 . S
C640 C643 1.387 . S
H641 C637 0.950 . S
H642 C639 0.950 . S
C643 C634 1.390 . S
C643 H636 0.950 . S
C643 C640 1.387 . S
C644 C645 1.387 . S
C644 H648 0.950 . S
C644 C653 1.390 . S
C645 C644 1.387 . S
C645 C647 1.387 . S
H646 C653 0.950 . S
C647 C645 1.387 . S
C647 C649 1.390 . S
C647 H651 0.950 . S
H648 C644 0.950 . S
C649 C647 1.390 . S
C649 C650 1.387 . S
C649 H652 0.950 . S
C650 C649 1.387 . S
C650 C653 1.387 . S
H651 C647 0.950 . S
H652 C649 0.950 . S
C653 C644 1.390 . S
C653 H646 0.950 . S
C653 C650 1.387 . S
C654 C655 1.387 . S
C654 H658 0.950 . S
C654 C663 1.390 1_655 S
C655 C654 1.387 . S
C655 C657 1.387 . S
H656 C663 0.950 . S
C657 C655 1.387 . S
C657 C659 1.390 1_655 S
C657 H661 0.950 . S
H658 C654 0.950 . S
C659 C657 1.390 1_455 S
C659 C660 1.387 . S
C659 H662 0.950 . S
C660 C659 1.387 . S
C660 C663 1.387 . S
H661 C657 0.950 . S
H662 C659 0.950 . S
C663 C654 1.390 1_455 S
C663 H656 0.950 . S
C663 C660 1.387 . S
C664 C665 1.387 . S
C664 H668 0.950 . S
C664 C673 1.390 . S
C665 C664 1.387 . S
C665 C667 1.387 . S
H666 C673 0.950 . S
C667 C665 1.387 . S
C667 C669 1.390 . S
C667 H671 0.950 . S
H668 C664 0.950 . S
C669 C667 1.390 . S
C669 C670 1.387 . S
C669 H672 0.950 . S
C670 C669 1.387 . S
C670 C673 1.387 . S
H671 C667 0.950 . S
H672 C669 0.950 . S
C673 C664 1.390 . S
C673 H666 0.950 . S
C673 C670 1.387 . S
C674 C675 1.387 1_556 S
C674 H678 0.950 . S
C674 C683 1.390 . S
C675 C674 1.387 1_554 S
C675 C677 1.387 . S
H676 C683 0.950 . S
C677 C675 1.387 . S
C677 C679 1.390 . S
C677 H681 0.950 . S
H678 C674 0.950 . S
C679 C677 1.390 . S
C679 C680 1.387 1_554 S
C679 H682 0.950 . S
C680 C679 1.387 1_556 S
C680 C683 1.387 . S
H681 C677 0.950 . S
H682 C679 0.950 . S
C683 C674 1.390 . S
C683 H676 0.950 . S
C683 C680 1.387 . S
C684 C685 1.387 . S
C684 H688 0.950 . S
C684 C693 1.390 . S
C685 C684 1.387 . S
C685 C687 1.387 . S
H686 C693 0.950 . S
C687 C685 1.387 . S
C687 C689 1.390 . S
C687 H691 0.950 . S
H688 C684 0.950 . S
C689 C687 1.390 . S
C689 C690 1.387 . S
C689 H692 0.950 . S
C690 C689 1.387 . S
C690 C693 1.387 . S
H691 C687 0.950 . S
H692 C689 0.950 . S
C693 C684 1.390 . S
C693 H686 0.950 . S
C693 C690 1.387 . S
C694 C695 1.387 . S
C694 H698 0.950 . S
C694 C703 1.390 . S
C695 C694 1.387 . S
C695 C697 1.387 . S
H696 C703 0.950 . S
C697 C695 1.387 . S
C697 C699 1.390 . S
C697 H701 0.950 . S
H698 C694 0.950 . S
C699 C697 1.390 . S
C699 C700 1.387 1_554 S
C699 H702 0.950 1_554 S
C700 C699 1.387 1_556 S
C700 C703 1.387 1_556 S
H701 C697 0.950 . S
H702 C699 0.950 1_556 S
C703 C694 1.390 . S
C703 H696 0.950 . S
C703 C700 1.387 1_554 S
C704 C705 1.387 . S
C704 H708 0.950 . S
C704 C713 1.390 . S
C705 C704 1.387 . S
C705 C707 1.387 . S
H706 C713 0.950 . S
C707 C705 1.387 . S
C707 C709 1.390 . S
C707 H711 0.950 . S
H708 C704 0.950 . S
C709 C707 1.390 . S
C709 C710 1.387 . S
C709 H712 0.950 . S
C710 C709 1.387 . S
C710 C713 1.387 . S
H711 C707 0.950 . S
H712 C709 0.950 . S
C713 C704 1.390 . S
C713 H706 0.950 . S
C713 C710 1.387 . S
C714 C715 1.387 . S
C714 H718 0.950 . S
C714 C723 1.390 . S
C715 C714 1.387 . S
C715 C717 1.387 . S
H716 C723 0.950 . S
C717 C715 1.387 . S
C717 C719 1.390 . S
C717 H721 0.950 1_554 S
H718 C714 0.950 . S
C719 C717 1.390 . S
C719 C720 1.387 . S
C719 H722 0.950 . S
C720 C719 1.387 . S
C720 C723 1.387 . S
H721 C717 0.950 1_556 S
H722 C719 0.950 . S
C723 C714 1.390 . S
C723 H716 0.950 . S
C723 C720 1.387 . S
C724 C725 1.387 . S
C724 H728 0.950 . S
C724 C733 1.390 . S
C725 C724 1.387 . S
C725 C727 1.387 . S
H726 C733 0.950 . S
C727 C725 1.387 . S
C727 C729 1.390 . S
C727 H731 0.950 . S
H728 C724 0.950 . S
C729 C727 1.390 . S
C729 C730 1.387 . S
C729 H732 0.950 . S
C730 C729 1.387 . S
C730 C733 1.387 . S
H731 C727 0.950 . S
H732 C729 0.950 . S
C733 C724 1.390 . S
C733 H726 0.950 . S
C733 C730 1.387 . S
C734 C735 1.387 . S
C734 H738 0.950 . S
C734 C743 1.390 . S
C735 C734 1.387 . S
C735 C737 1.387 . S
H736 C743 0.950 . S
C737 C735 1.387 . S
C737 C739 1.390 . S
C737 H741 0.950 1_554 S
H738 C734 0.950 . S
C739 C737 1.390 . S
C739 C740 1.387 . S
C739 H742 0.950 . S
C740 C739 1.387 . S
C740 C743 1.387 . S
H741 C737 0.950 1_556 S
H742 C739 0.950 . S
C743 C734 1.390 . S
C743 H736 0.950 . S
C743 C740 1.387 . S
C744 C745 1.387 . S
C744 H748 0.950 . S
C744 C753 1.390 . S
C745 C744 1.387 . S
C745 C747 1.387 . S
H746 C753 0.950 . S
C747 C745 1.387 . S
C747 C749 1.390 . S
C747 H751 0.950 . S
H748 C744 0.950 . S
C749 C747 1.390 . S
C749 C750 1.387 . S
C749 H752 0.950 . S
C750 C749 1.387 . S
C750 C753 1.387 . S
H751 C747 0.950 . S
H752 C749 0.950 . S
C753 C744 1.390 . S
C753 H746 0.950 . S
C753 C750 1.387 . S
C754 C755 1.387 . S
C754 H758 0.950 . S
C754 C763 1.390 . S
C755 C754 1.387 . S
C755 C757 1.387 . S
H756 C763 0.950 . S
C757 C755 1.387 . S
C757 C759 1.390 . S
C757 H761 0.950 . S
H758 C754 0.950 . S
C759 C757 1.390 . S
C759 C760 1.387 . S
C759 H762 0.950 . S
C760 C759 1.387 . S
C760 C763 1.387 . S
H761 C757 0.950 . S
H762 C759 0.950 . S
C763 C754 1.390 . S
C763 H756 0.950 . S
C763 C760 1.387 . S
C764 C765 1.387 . S
C764 H768 0.950 . S
C764 C773 1.390 . S
C765 C764 1.387 . S
C765 C767 1.387 . S
H766 C773 0.950 . S
C767 C765 1.387 . S
C767 C769 1.390 . S
C767 H771 0.950 . S
H768 C764 0.950 . S
C769 C767 1.390 . S
C769 C770 1.387 . S
C769 H772 0.950 . S
C770 C769 1.387 . S
C770 C773 1.387 . S
H771 C767 0.950 . S
H772 C769 0.950 . S
C773 C764 1.390 . S
C773 H766 0.950 . S
C773 C770 1.387 . S
C774 C775 1.387 . S
C774 H778 0.950 . S
C774 C783 1.390 . S
C775 C774 1.387 . S
C775 C777 1.387 . S
H776 C783 0.950 . S
C777 C775 1.387 . S
C777 C779 1.390 . S
C777 H781 0.950 . S
H778 C774 0.950 . S
C779 C777 1.390 . S
C779 C780 1.387 . S
C779 H782 0.950 . S
C780 C779 1.387 . S
C780 C783 1.387 . S
H781 C777 0.950 . S
H782 C779 0.950 . S
C783 C774 1.390 . S
C783 H776 0.950 . S
C783 C780 1.387 . S
C784 C785 1.387 . S
C784 H788 0.950 . S
C784 C793 1.390 . S
C785 C784 1.387 . S
C785 C787 1.387 . S
H786 C793 0.950 . S
C787 C785 1.387 . S
C787 C789 1.390 . S
C787 H791 0.950 . S
H788 C784 0.950 . S
C789 C787 1.390 . S
C789 C790 1.387 . S
C789 H792 0.950 1_556 S
C790 C789 1.387 . S
C790 C793 1.387 . S
H791 C787 0.950 . S
H792 C789 0.950 1_554 S
C793 C784 1.390 . S
C793 H786 0.950 . S
C793 C790 1.387 . S
C794 C795 1.387 . S
C794 H798 0.950 . S
C794 C803 1.390 . S
C795 C794 1.387 . S
C795 C797 1.387 . S
H796 C803 0.950 . S
C797 C795 1.387 . S
C797 C799 1.390 . S
C797 H801 0.950 . S
H798 C794 0.950 . S
C799 C797 1.390 . S
C799 C800 1.387 . S
C799 H802 0.950 . S
C800 C799 1.387 . S
C800 C803 1.387 . S
H801 C797 0.950 . S
H802 C799 0.950 . S
C803 C794 1.390 . S
C803 H796 0.950 . S
C803 C800 1.387 . S
C804 C805 1.387 . S
C804 H808 0.950 . S
C804 C813 1.390 . S
C805 C804 1.387 . S
C805 C807 1.387 . S
H806 C813 0.950 . S
C807 C805 1.387 . S
C807 C809 1.390 . S
C807 H811 0.950 . S
H808 C804 0.950 . S
C809 C807 1.390 . S
C809 C810 1.387 . S
C809 H812 0.950 1_554 S
C810 C809 1.387 . S
C810 C813 1.387 . S
H811 C807 0.950 . S
H812 C809 0.950 1_556 S
C813 C804 1.390 . S
C813 H806 0.950 . S
C813 C810 1.387 . S
C814 C815 1.387 . S
C814 H818 0.950 . S
C814 C823 1.390 . S
C815 C814 1.387 . S
C815 C817 1.387 . S
H816 C823 0.950 . S
C817 C815 1.387 . S
C817 C819 1.390 . S
C817 H821 0.950 . S
H818 C814 0.950 . S
C819 C817 1.390 . S
C819 C820 1.387 . S
C819 H822 0.950 . S
C820 C819 1.387 . S
C820 C823 1.387 . S
H821 C817 0.950 . S
H822 C819 0.950 . S
C823 C814 1.390 . S
C823 H816 0.950 . S
C823 C820 1.387 . S
C350 C184 1.682 1_556 S
C345 C60 1.684 . S
C360 C199 1.580 . S
C355 C76 1.586 1_455 S
C365 C81 1.773 . S
C370 C212 1.770 . S
C380 C226 1.533 1_455 S
C375 C48 1.559 . S
C390 C238 1.633 . S
C385 C115 1.743 . S
C400 C252 1.423 . S
C395 C136 1.441 . S
C405 C131 1.556 . S
C410 C266 1.525 . S
C420 C281 1.441 . S
C415 C104 1.452 . S
C425 C126 1.611 . S
C430 C297 1.578 . S
C440 C310 1.438 . S
C435 C103 1.424 . S
C445 C120 1.521 . S
C450 C295 1.451 . S
C460 C308 1.622 . S
C455 C142 1.574 . S
C465 C82 1.801 . S
C470 C324 1.796 . S
C475 C54 1.725 . S
C480 C323 1.698 . S
C485 C65 1.604 . S
C490 C322 1.543 . S
C495 C71 1.379 . S
C500 C325 1.388 . S
C505 C37 1.720 . S
C510 C227 1.724 1_565 S
C515 C158 1.748 . S
C520 C225 1.726 . S
C530 C185 1.430 1_545 S
C525 C169 1.450 . S
C540 C196 1.507 . S
C535 C98 1.539 . S
C545 C49 1.696 1_545 S
C550 C241 1.691 . S
C560 C282 1.811 . S
C555 C125 1.809 . S
C570 C239 1.581 . S
C565 C109 1.562 1_545 S
C580 C267 1.634 . S
C575 C137 1.657 . S
C590 C268 1.682 . S
C585 C159 1.684 . S
C595 C175 1.599 . S
C600 C283 1.576 . S
C605 C92 1.773 . S
C610 C240 1.771 . S
C620 C254 1.535 . S
C615 C147 1.559 . S
C625 C38 1.744 . S
C630 C210 1.633 . S
C640 C224 1.423 . S
C635 C4 1.441 . S
C650 C182 1.527 . S
C645 C21 1.556 . S
C660 C197 1.441 . S
C655 C27 1.453 . S
C665 C16 1.611 . S
C670 C311 1.576 . S
C675 C26 1.425 . S
C680 C296 1.437 . S
C685 C43 1.521 . S
C690 C309 1.452 . S
C695 C10 1.574 . S
C700 C294 1.623 . S
C710 C338 1.796 . S
C705 C93 1.801 . S
C720 C337 1.695 . S
C715 C153 1.723 1_554 S
C730 C336 1.546 . S
C725 C164 1.605 . S
C735 C170 1.380 1_554 S
C740 C339 1.389 . S
C745 C114 1.720 . S
C750 C255 1.723 . S
C760 C253 1.725 . S
C755 C59 1.748 . S
C770 C269 1.433 . S
C765 C70 1.452 . S
C780 C280 1.509 . S
C775 C87 1.540 . S
C785 C148 1.699 . S
C790 C213 1.693 . S
C800 C198 1.811 . S
C795 C15 1.809 . S
C805 C32 1.563 . S
C810 C211 1.582 . S
C820 C183 1.634 . S
C815 C5 1.659 . S
