# Generated by pormake.
# Topology pyr, (3,6)-cn, num edge types: 1
# Building blocks:
#     Node 0, Type 0, BuildingBlock: INOVEN_clean_linker_0, # of connection points: 3
#     Node 1, Type 0, BuildingBlock: INOVEN_clean_linker_0, # of connection points: 3
#     Node 2, Type 0, BuildingBlock: INOVEN_clean_linker_0, # of connection points: 3
#     Node 3, Type 0, BuildingBlock: INOVEN_clean_linker_0, # of connection points: 3
#     Node 4, Type 0, BuildingBlock: INOVEN_clean_linker_0, # of connection points: 3
#     Node 5, Type 0, BuildingBlock: INOVEN_clean_linker_0, # of connection points: 3
#     Node 6, Type 0, BuildingBlock: INOVEN_clean_linker_0, # of connection points: 3
#     Node 7, Type 0, BuildingBlock: INOVEN_clean_linker_0, # of connection points: 3
#     Node 8, Type 1, BuildingBlock: JUFBIX_clean_sbu_0, # of connection points: 6
#     Node 9, Type 1, BuildingBlock: JUFBIX_clean_sbu_0, # of connection points: 6
#     Node 10, Type 1, BuildingBlock: JUFBIX_clean_sbu_0, # of connection points: 6
#     Node 11, Type 1, BuildingBlock: JUFBIX_clean_sbu_0, # of connection points: 6
#     Edge 12, Type (0, 1), BuildingBlock: EZIPEK_clean_linker_0, # of connection points: 2
#     Edge 13, Type (0, 1), BuildingBlock: EZIPEK_clean_linker_0, # of connection points: 2
#     Edge 14, Type (0, 1), BuildingBlock: EZIPEK_clean_linker_0, # of connection points: 2
#     Edge 15, Type (0, 1), BuildingBlock: EZIPEK_clean_linker_0, # of connection points: 2
#     Edge 16, Type (0, 1), BuildingBlock: EZIPEK_clean_linker_0, # of connection points: 2
#     Edge 17, Type (0, 1), BuildingBlock: EZIPEK_clean_linker_0, # of connection points: 2
#     Edge 18, Type (0, 1), BuildingBlock: EZIPEK_clean_linker_0, # of connection points: 2
#     Edge 19, Type (0, 1), BuildingBlock: EZIPEK_clean_linker_0, # of connection points: 2
#     Edge 20, Type (0, 1), BuildingBlock: EZIPEK_clean_linker_0, # of connection points: 2
#     Edge 21, Type (0, 1), BuildingBlock: EZIPEK_clean_linker_0, # of connection points: 2
#     Edge 22, Type (0, 1), BuildingBlock: EZIPEK_clean_linker_0, # of connection points: 2
#     Edge 23, Type (0, 1), BuildingBlock: EZIPEK_clean_linker_0, # of connection points: 2
#     Edge 24, Type (0, 1), BuildingBlock: EZIPEK_clean_linker_0, # of connection points: 2
#     Edge 25, Type (0, 1), BuildingBlock: EZIPEK_clean_linker_0, # of connection points: 2
#     Edge 26, Type (0, 1), BuildingBlock: EZIPEK_clean_linker_0, # of connection points: 2
#     Edge 27, Type (0, 1), BuildingBlock: EZIPEK_clean_linker_0, # of connection points: 2
#     Edge 28, Type (0, 1), BuildingBlock: EZIPEK_clean_linker_0, # of connection points: 2
#     Edge 29, Type (0, 1), BuildingBlock: EZIPEK_clean_linker_0, # of connection points: 2
#     Edge 30, Type (0, 1), BuildingBlock: EZIPEK_clean_linker_0, # of connection points: 2
#     Edge 31, Type (0, 1), BuildingBlock: EZIPEK_clean_linker_0, # of connection points: 2
#     Edge 32, Type (0, 1), BuildingBlock: EZIPEK_clean_linker_0, # of connection points: 2
#     Edge 33, Type (0, 1), BuildingBlock: EZIPEK_clean_linker_0, # of connection points: 2
#     Edge 34, Type (0, 1), BuildingBlock: EZIPEK_clean_linker_0, # of connection points: 2
#     Edge 35, Type (0, 1), BuildingBlock: EZIPEK_clean_linker_0, # of connection points: 2
# Relax obj value: 0.165
# Max RMSD: 0.209
# Mean RMSD: 0.125
data_MOF--net-pyr--node1-JUFBIX_clean_sbu_0--node2-INOVEN_clean_linker_0--edge1-EZIPEK_clean_linker_0
_symmetry_space_group_name_H-M    P1
_symmetry_Int_Tables_number       1
_symmetry_cell_setting            triclinic
loop_
_symmetry_equiv_pos_as_xyz
'x, y, z'
_cell_length_a     25.978653
_cell_length_b     25.07254
_cell_length_c     27.839612
_cell_angle_alpha  81.462462
_cell_angle_beta   87.873649
_cell_angle_gamma 96.015696
loop_
_atom_site_label
_atom_site_type_symbol
_atom_site_fract_x
_atom_site_fract_y
_atom_site_fract_z
_atom_type_partial_charge
H0 H 0.16798 0.22001 0.28129 0.0
H1 H 0.27513 0.10087 0.27804 0.0
H2 H 0.27937 0.23585 0.16072 0.0
N3 N 0.19608 0.27861 0.19787 0.0
N4 N 0.20213 0.29984 0.15424 0.0
C5 C 0.1999 0.20478 0.26328 0.0
C6 C 0.21916 0.1576 0.28529 0.0
C7 C 0.22008 0.23232 0.21812 0.0
C8 C 0.26251 0.21348 0.19495 0.0
C9 C 0.28343 0.16584 0.21611 0.0
C10 C 0.26035 0.13758 0.26122 0.0
H11 H 0.50569 0.90124 0.61785 0.0
H12 H 0.53998 0.84088 0.76459 0.0
H13 H 0.51719 0.00825 0.72401 0.0
N14 N 0.47429 0.98995 0.64128 0.0
N15 N 0.45767 0.02853 0.65809 0.0
C16 C 0.51646 0.90911 0.65364 0.0
C17 C 0.52997 0.86671 0.68799 0.0
C18 C 0.51016 0.95943 0.66676 0.0
C19 C 0.52306 0.96939 0.71324 0.0
C20 C 0.52932 0.92605 0.74964 0.0
C21 C 0.53535 0.87484 0.73671 0.0
H22 H 0.64773 0.35902 0.91127 0.0
H23 H 0.76306 0.35307 1.01847 0.0
H24 H 0.77461 0.48568 0.8995 0.0
N25 N 0.68699 0.44907 0.85773 0.0
N26 N 0.70844 0.49052 0.83136 0.0
C27 C 0.68272 0.37678 0.92554 0.0
C28 C 0.70194 0.35044 0.96788 0.0
C29 C 0.70829 0.42532 0.90084 0.0
C30 C 0.75416 0.44822 0.91866 0.0
C31 C 0.77412 0.42229 0.96112 0.0
C32 C 0.7477 0.37345 0.98589 0.0
H33 H 0.96295 0.60889 0.47975 0.0
H34 H 0.97511 0.75193 0.54707 0.0
H35 H 0.10789 0.71127 0.46909 0.0
N36 N 0.05529 0.63136 0.43175 0.0
N37 N 1.03154 0.58863 0.4222 0.0
C38 C 0.98733 0.64212 0.49102 0.0
C39 C 0.96387 0.67803 0.51637 0.0
C40 C 0.0389 0.65467 0.47235 0.0
C41 C 0.06877 0.70006 0.48484 0.0
C42 C 0.04619 0.73435 0.51327 0.0
C43 C 0.9937 0.72316 0.52877 0.0
H44 H 0.86872 0.96394 0.83539 0.0
H45 H 0.98761 0.85668 0.85986 0.0
H46 H 0.86375 0.85074 0.96838 0.0
N47 N 0.81636 0.93356 0.92026 0.0
N48 N 0.79815 0.92361 0.96334 0.0
C49 C 0.88562 0.93224 0.85829 0.0
C50 C 0.9316 0.91352 0.84171 0.0
C51 C 0.8616 0.91129 0.90445 0.0
C52 C 0.88273 0.86871 0.93357 0.0
C53 C 0.92795 0.84838 0.91756 0.0
C54 C 0.95275 0.87201 0.8722 0.0
H55 H 0.60592 0.23038 0.40985 0.0
H56 H 0.70683 0.10477 0.42049 0.0
H57 H 0.70964 0.21227 0.52715 0.0
N58 N 0.63862 0.27417 0.48423 0.0
N59 N 0.65737 0.29517 0.5184 0.0
C60 C 0.63414 0.20818 0.42966 0.0
C61 C 0.65288 0.16439 0.41177 0.0
C62 C 0.65407 0.22559 0.47132 0.0
C63 C 0.69251 0.19814 0.49579 0.0
C64 C 0.71168 0.15466 0.47708 0.0
C65 C 0.69103 0.13741 0.43573 0.0
H66 H 0.43558 0.73822 0.24704 0.0
H67 H 0.33253 0.74734 0.13069 0.0
H68 H 0.30714 0.61361 0.24899 0.0
N69 N 0.38771 0.64696 0.30014 0.0
N70 N 0.42586 0.66787 0.31956 0.0
C71 C 0.40234 0.72015 0.23043 0.0
C72 C 0.38748 0.74705 0.18656 0.0
C73 C 0.37382 0.67181 0.2536 0.0
C74 C 0.33004 0.65033 0.23129 0.0
C75 C 0.31522 0.67748 0.18653 0.0
C76 C 0.34432 0.72566 0.16445 0.0
H77 H 1.03282 0.37822 0.64373 0.0
H78 H 0.16086 0.34701 0.55304 0.0
H79 H 0.17821 0.47751 0.63641 0.0
N80 N 0.08915 0.45157 0.68577 0.0
N81 N 0.12124 0.4484 0.71802 0.0
C82 C 0.07073 0.39145 0.62578 0.0
C83 C 0.09195 0.35983 0.59392 0.0
C84 C 0.10236 0.43332 0.64172 0.0
C85 C 0.15329 0.44664 0.62224 0.0
C86 C 0.17484 0.41536 0.59099 0.0
C87 C 0.14343 0.3734 0.57492 0.0
Co88 Co 1.03138 0.03813 0.54628 0.0
C89 C 0.08978 0.9476 0.5519 0.0
Co90 Co 0.10792 0.04714 0.57715 0.0
C91 C 0.92445 0.04433 0.53726 0.0
C92 C 0.95378 1.00205 0.48256 0.0
N93 N 0.96726 0.0242 0.5222 0.0
N94 N 0.88551 0.03778 0.50765 0.0
C95 C 0.90331 0.01087 0.4732 0.0
H96 H 0.92319 0.06804 0.56668 0.0
H97 H 0.98001 0.98457 0.45987 0.0
C98 C 0.05082 0.13782 0.57142 0.0
N99 N 0.17303 0.06779 0.59913 0.0
C100 C 0.21201 0.03904 0.61472 0.0
C101 C 0.19455 0.12032 0.59296 0.0
N102 N 0.25584 0.07208 0.61814 0.0
C103 C 0.24489 0.12289 0.60492 0.0
C104 C 0.11001 0.0776 0.47476 0.0
O105 O 1.01502 0.10937 0.55437 0.0
O106 O 0.09158 0.11702 0.58235 0.0
O107 O 0.13705 0.07151 0.51193 0.0
O108 O 0.06097 0.06688 0.48121 0.0
O109 O 0.12386 0.97625 0.57153 0.0
H110 H 0.17665 0.1554 0.5774 0.0
H111 H 0.20944 0.99517 0.62053 0.0
O112 O 0.0484 0.96727 0.53819 0.0
O113 O 1.00203 0.00952 0.61085 0.0
O114 O 0.07748 0.02128 0.64317 0.0
C115 C 1.02867 0.00605 0.6484 0.0
H116 H 0.88296 1.00262 0.44141 0.0
H117 H 0.27237 0.15901 0.60172 0.0
Co118 Co 0.52092 0.04857 0.0467 0.0
C119 C 0.50031 0.95513 0.11381 0.0
Co120 Co 0.56327 0.05048 0.11306 0.0
C121 C 0.50576 0.03553 0.94768 0.0
C122 C 0.43582 0.01782 0.99292 0.0
N123 N 0.4848 0.04239 0.99117 0.0
N124 N 0.4733 1.00387 0.92425 0.0
C125 C 0.4291 0.99312 0.95244 0.0
H126 H 0.54616 0.0472 0.93628 0.0
H127 H 0.4094 0.01114 1.02473 0.0
C128 C 0.58558 0.14379 0.04582 0.0
N129 N 0.5978 0.05248 0.16873 0.0
C130 C 0.59633 0.08964 0.1988 0.0
C131 C 0.62703 0.01527 0.19034 0.0
N132 N 0.62321 0.07686 0.23826 0.0
C133 C 0.64282 0.03032 0.23346 0.0
C134 C 0.61869 0.00879 0.04181 0.0
O135 O 0.55212 0.12067 1.02093 0.0
O136 O 0.59561 0.12012 0.08737 0.0
O137 O 0.61996 0.01915 0.0851 0.0
O138 O 0.57887 0.01856 1.01831 0.0
O139 O 0.53099 0.97996 0.1395 0.0
H140 H 0.63495 0.97877 0.17638 0.0
H141 H 0.57491 0.12461 0.19271 0.0
O142 O 0.49123 0.97786 0.07195 0.0
O143 O 0.46253 0.07735 0.0766 0.0
O144 O 0.50652 0.08284 0.14074 0.0
C145 C 0.46476 0.08977 0.11937 0.0
H146 H 0.39592 0.96558 0.94615 0.0
H147 H 0.66538 0.00823 0.25992 0.0
Co148 Co 0.59701 0.60185 0.56292 0.0
C149 C 0.51627 0.60406 0.50022 0.0
Co150 Co 0.52358 0.55855 0.59664 0.0
C151 C 0.70642 0.62681 0.54207 0.0
C152 C 0.66413 0.69119 0.51093 0.0
N153 N 0.65797 0.64044 0.53614 0.0
N154 N 0.74238 0.66755 0.5225 0.0
C155 C 0.71616 0.70813 0.5027 0.0
H156 H 0.71527 0.58845 0.56154 0.0
H157 H 0.63285 0.71475 0.5001 0.0
C158 C 0.6047 0.55563 0.65857 0.0
N159 N 0.46192 0.52048 0.62277 0.0
C160 C 0.42682 0.49418 0.5975 0.0
C161 C 0.43852 0.51885 0.66712 0.0
N162 N 0.38189 0.47831 0.62355 0.0
C163 C 0.38891 0.49301 0.6676 0.0
C164 C 0.58681 0.49448 0.55334 0.0
O165 O 0.62954 0.58326 0.62153 0.0
O166 O 0.55656 0.54059 0.6565 0.0
O167 O 0.54356 0.49451 0.57615 0.0
O168 O 0.61627 0.53858 0.54166 0.0
O169 O 0.49139 0.57652 0.53715 0.0
H170 H 0.45544 0.53742 0.69633 0.0
H171 H 0.43271 0.4897 0.55967 0.0
O172 O 0.56378 0.62085 0.50311 0.0
O173 O 0.57856 0.6641 0.58608 0.0
O174 O 0.50399 0.62329 0.61742 0.0
C175 C 0.5364 0.66564 0.61003 0.0
H176 H 0.73357 0.74711 0.48387 0.0
H177 H 0.3595 0.48772 0.69702 0.0
Co178 Co 0.07107 0.57161 1.01829 0.0
C179 C 0.96816 0.51891 1.02686 0.0
Co180 Co 1.03031 0.56749 0.08924 0.0
C181 C 0.09593 0.53508 0.92904 0.0
C182 C 0.129 0.61695 0.92961 0.0
N183 N 0.1017 0.57392 0.9576 0.0
N184 N 0.11765 0.55258 0.88418 0.0
C185 C 0.1389 0.60384 0.88413 0.0
H186 H 0.07471 0.49541 0.94024 0.0
H187 H 0.13928 0.65592 0.94101 0.0
C188 C 0.13303 0.61727 0.08289 0.0
N189 N 1.00034 0.56633 0.15038 0.0
C190 C 1.0244 0.55528 0.1922 0.0
C191 C 0.95489 0.58304 0.1635 0.0
N192 N 0.99658 0.56577 0.23062 0.0
C193 C 0.95252 0.58282 0.21313 0.0
C194 C 0.0889 0.48019 0.08365 0.0
O195 O 0.13307 0.60882 0.03895 0.0
O196 O 0.09125 0.6055 0.10908 0.0
O197 O 0.0582 0.49976 0.11144 0.0
O198 O 0.0982 0.50422 0.04016 0.0
O199 O 0.96963 0.52853 0.07034 0.0
H200 H 0.92656 0.5969 0.1384 0.0
H201 H 0.06303 0.54299 0.19424 0.0
O202 O 1.00827 0.53384 0.99832 0.0
O203 O 0.04486 0.63882 0.99591 0.0
O204 O 1.00237 0.63606 0.06566 0.0
C205 C 1.01391 0.65964 1.02211 0.0
H206 H 0.15902 0.62998 0.85319 0.0
H207 H 0.92197 0.5961 0.23444 0.0
C208 C 0.21113 0.15159 0.37652 0.0
C209 C 0.19493 0.131 0.33412 0.0
C210 C 0.12303 0.07327 0.38328 0.0
C211 C 0.13654 0.09774 0.42502 0.0
N212 N 0.18556 0.17149 0.45588 0.0
N213 N 0.13123 0.07772 0.29537 0.0
C214 C 0.17869 0.1398 0.42016 0.0
C215 C 0.14966 0.09335 0.33709 0.0
N216 N 0.25767 0.18286 0.37505 0.0
N217 N 0.08617 0.02954 0.38765 0.0
H218 H 0.15102 0.08916 0.2615 0.0
H219 H 0.09488 0.05638 0.29376 0.0
H220 H 0.06521 0.01329 0.41992 0.0
H221 H 0.07929 0.00613 0.36015 0.0
H222 H 0.27424 0.19444 0.40596 0.0
H223 H 0.28201 0.19281 0.34362 0.0
H224 H 0.2126 0.20574 0.45255 0.0
H225 H 0.15997 0.16788 0.48622 0.0
C226 C 0.46183 0.94629 0.8076 0.0
C227 C 0.51287 0.93267 0.79993 0.0
C228 C 0.53217 0.95172 0.88123 0.0
C229 C 0.48608 0.97778 0.88317 0.0
N230 N 0.41076 0.00679 0.84311 0.0
N231 N 0.59831 0.92463 0.82894 0.0
C232 C 0.45154 0.97648 0.84515 0.0
C233 C 0.54864 0.93567 0.83673 0.0
N234 N 0.42366 0.9314 0.77818 0.0
N235 N 0.55851 0.93968 0.92225 0.0
H236 H 0.61095 0.91148 0.79712 0.0
H237 H 0.62737 0.93181 0.85277 0.0
H238 H 0.54447 0.94551 0.95643 0.0
H239 H 0.5904 0.91764 0.92333 0.0
H240 H 0.38495 0.93703 0.78446 0.0
H241 H 0.42995 0.90817 0.75079 0.0
H242 H 0.38651 0.00998 0.81409 0.0
H243 H 0.40462 0.03351 0.86754 0.0
C244 C 0.63858 0.5359 0.79157 0.0
C245 C 0.68491 0.51133 0.78842 0.0
C246 C 0.67805 0.51402 0.70083 0.0
C247 C 0.63243 0.54066 0.70336 0.0
N248 N 0.57645 0.5883 0.74886 0.0
N249 N 0.75465 0.48641 0.7409 0.0
C250 C 0.61445 0.55459 0.7482 0.0
C251 C 0.70664 0.50379 0.7431 0.0
N252 N 0.61797 0.54141 0.83617 0.0
N253 N 0.69256 0.49589 0.65892 0.0
H254 H 0.77556 0.47759 0.77186 0.0
H255 H 0.77538 0.48508 0.70844 0.0
H256 H 0.67224 0.50115 0.62733 0.0
H257 H 0.72217 0.47131 0.65652 0.0
H258 H 0.58113 0.55298 0.84174 0.0
H259 H 0.63701 0.53172 0.86812 0.0
H260 H 0.56486 0.60401 0.7796 0.0
H261 H 0.55993 0.60501 0.7174 0.0
C262 C 0.99655 0.5311 0.36621 0.0
C263 C 1.0362 0.57033 0.37635 0.0
C264 C 0.0549 0.60133 0.28963 0.0
C265 C 1.01302 0.56435 0.27944 0.0
N266 N 0.95367 0.48445 0.30562 0.0
N267 N 0.11735 0.62316 0.34828 0.0
C268 C 0.9871 0.52583 0.31713 0.0
C269 C 0.07017 0.59933 0.33818 0.0
N270 N 0.96595 0.50151 0.40385 0.0
N271 N 0.07809 0.64026 0.25357 0.0
H272 H 0.13106 0.61745 0.38319 0.0
H273 H 0.14517 0.64185 0.32138 0.0
H274 H 0.06667 0.64431 0.21786 0.0
H275 H 0.10539 0.67148 0.26014 0.0
H276 H 0.93233 0.47668 0.3993 0.0
H277 H 0.97372 0.50355 0.4401 0.0
H278 H 0.93637 0.45236 0.33113 0.0
H279 H 0.94656 0.48005 0.2697 0.0
C280 C 0.37463 0.13496 0.21755 0.0
C281 C 0.33001 0.14643 0.19151 0.0
C282 C 0.37847 0.13259 0.11713 0.0
C283 C 0.41893 0.11057 0.14459 0.0
N284 N 0.44403 0.07845 0.22687 0.0
N285 N 0.2865 0.14094 0.11689 0.0
C286 C 0.41388 0.10817 0.1965 0.0
C287 C 0.33098 0.14052 0.14144 0.0
N288 N 0.38102 0.1512 0.26185 0.0
N289 N 0.38575 0.14955 0.0682 0.0
H290 H 0.25047 0.1434 0.13373 0.0
H291 H 0.28478 0.1324 0.0814 0.0
H292 H 0.42155 0.15233 0.04941 0.0
H293 H 0.35821 0.16886 0.04787 0.0
H294 H 0.41517 0.14803 0.2801 0.0
H295 H 0.35517 0.17372 0.27738 0.0
H296 H 0.43801 0.07287 0.26461 0.0
H297 H 0.46987 0.0533 0.21573 0.0
C298 C 0.38017 0.06542 0.67966 0.0
C299 C 0.41152 0.04964 0.64299 0.0
C300 C 0.33927 0.04742 0.58945 0.0
C301 C 0.30685 0.05872 0.62789 0.0
N302 N 0.29348 0.07675 0.70933 0.0
N303 N 0.42727 0.04229 0.55887 0.0
C304 C 0.3267 0.06775 0.67289 0.0
C305 C 0.39287 0.04502 0.5965 0.0
N306 N 0.40223 0.07746 0.72113 0.0
N307 N 0.3184 0.03921 0.54645 0.0
H308 H 0.46724 0.04667 0.56268 0.0
H309 H 0.41727 0.04138 0.52316 0.0
H310 H 0.27955 0.04274 0.53994 0.0
H311 H 0.33849 0.02631 0.51809 0.0
H312 H 0.38299 0.09267 0.74866 0.0
H313 H 0.44165 0.0757 0.72639 0.0
H314 H 0.30405 0.08025 0.74448 0.0
H315 H 0.25381 0.07752 0.70502 0.0
C316 C 0.8233 0.48667 1.00881 0.0
C317 C 0.82375 0.44596 0.97861 0.0
C318 C 0.91854 0.45064 0.98138 0.0
C319 C 0.91869 0.49435 1.00884 0.0
N320 N 0.87121 0.56261 0.03757 0.0
N321 N 0.87177 0.39489 0.92943 0.0
C322 C 0.87101 0.51464 1.01969 0.0
C323 C 0.87141 0.42968 0.96289 0.0
N324 N 0.77715 0.49834 1.02759 0.0
N325 N 0.96288 0.4273 0.97466 0.0
H326 H 0.83802 0.37716 0.91638 0.0
H327 H 0.90549 0.38676 0.91182 0.0
H328 H 0.99817 0.44142 0.98693 0.0
H329 H 0.96397 0.3913 0.96039 0.0
H330 H 0.77448 0.52305 0.05433 0.0
H331 H 0.74138 0.47968 1.01948 0.0
H332 H 0.83817 0.5822 0.04113 0.0
H333 H 0.90498 0.58629 0.04376 0.0
C334 C 0.8782 0.66266 0.56465 0.0
C335 C 0.90657 0.67524 0.51918 0.0
C336 C 0.82587 0.67429 0.4768 0.0
C337 C 0.79766 0.66786 0.52196 0.0
N338 N 0.7964 0.66478 0.60886 0.0
N339 N 0.90744 0.70616 0.43245 0.0
C340 C 0.82361 0.66426 0.56606 0.0
C341 C 0.88043 0.68484 0.47529 0.0
N342 N 0.90317 0.64821 0.60612 0.0
N343 N 0.80044 0.66861 0.43549 0.0
H344 H 0.94745 0.71691 0.42983 0.0
H345 H 0.8895 0.71858 0.40048 0.0
H346 H 0.76035 0.65898 0.4358 0.0
H347 H 0.81952 0.66771 0.40208 0.0
H348 H 0.88384 0.63332 0.63964 0.0
H349 H 0.94321 0.64707 0.60623 0.0
H350 H 0.81384 0.66739 0.64163 0.0
H351 H 0.75661 0.66754 0.6108 0.0
C352 C 0.14121 0.34059 0.09844 0.0
C353 C 0.17538 0.34526 0.1363 0.0
C354 C 0.15089 0.43646 0.14208 0.0
C355 C 0.11759 0.43285 0.10269 0.0
N356 N 0.08596 0.38347 0.03964 0.0
N357 N 0.22152 0.40077 0.18721 0.0
C358 C 0.11444 0.38551 0.07967 0.0
C359 C 0.18232 0.39394 0.15652 0.0
N360 N 0.13294 0.29193 0.08183 0.0
N361 N 0.15336 0.48091 0.16532 0.0
H362 H 0.24633 0.37122 0.19664 0.0
H363 H 0.23282 0.43717 0.1996 0.0
H364 H 0.13617 0.51566 0.15299 0.0
H365 H 0.17096 0.48277 0.1981 0.0
H366 H 0.10425 0.28276 0.0583 0.0
H367 H 0.15299 0.25904 0.09429 0.0
H368 H 0.08687 0.35356 1.0175 0.0
H369 H 0.06318 0.41358 1.02692 0.0
C370 C 0.62275 0.29619 1.01209 0.0
C371 C 0.67395 0.29768 0.99166 0.0
C372 C 0.66864 0.19867 1.01149 0.0
C373 C 0.61539 0.19673 1.0262 0.0
N374 N 0.53999 0.24294 0.03704 0.0
N375 N 0.7424 0.24964 0.96394 0.0
C376 C 0.59184 0.24535 1.02529 0.0
C377 C 0.69617 0.24875 0.98938 0.0
N378 N 0.60442 0.34338 1.02031 0.0
N379 N 0.69332 0.15286 1.0192 0.0
H380 H 0.7638 0.2853 0.94672 0.0
H381 H 0.75733 0.21471 0.9562 0.0
H382 H 0.67462 0.115 0.03428 0.0
H383 H 0.73331 0.15319 1.01428 0.0
H384 H 0.56942 0.34478 0.03929 0.0
H385 H 0.6265 0.38111 1.01207 0.0
H386 H 0.51933 0.27657 0.03196 0.0
H387 H 0.51667 0.20655 0.04887 0.0
C388 C 0.0883 0.79446 0.56828 0.0
C389 C 0.07392 0.78702 0.52081 0.0
C390 C 0.09653 0.88387 0.49272 0.0
C391 C 0.09827 0.89276 0.54151 0.0
N392 N 0.10533 0.85748 0.62595 0.0
N393 N 0.06276 0.82527 0.43726 0.0
C394 C 0.09806 0.84824 0.57944 0.0
C395 C 0.07868 0.8317 0.4825 0.0
N396 N 0.09191 0.74999 0.60238 0.0
N397 N 0.11296 0.92549 0.45632 0.0
H398 H 0.04903 0.78783 0.4279 0.0
H399 H 0.0597 0.85783 0.40992 0.0
H400 H 0.12858 0.96329 0.46377 0.0
H401 H 0.1169 0.92058 0.41989 0.0
H402 H 0.10531 0.75184 0.63691 0.0
H403 H 0.08507 0.71048 0.59458 0.0
H404 H 0.10032 0.82737 0.65628 0.0
H405 H 0.11521 0.89622 0.63446 0.0
C406 C 0.49625 0.76757 0.69155 0.0
C407 C 0.53216 0.81297 0.67213 0.0
C408 C 0.55509 0.766 0.60542 0.0
C409 C 0.52795 0.7166 0.62972 0.0
N410 N 0.47832 0.67035 0.70316 0.0
N411 N 0.60495 0.84946 0.61627 0.0
C412 C 0.49993 0.71707 0.67486 0.0
C413 C 0.5648 0.81004 0.63109 0.0
N414 N 0.45706 0.77279 0.72404 0.0
N415 N 0.56913 0.77226 0.55699 0.0
H416 H 0.61428 0.88182 0.6352 0.0
H417 H 0.63196 0.8465 0.58837 0.0
H418 H 0.55736 0.74331 0.53524 0.0
H419 H 0.58596 0.80907 0.53744 0.0
H420 H 0.42697 0.74202 0.73519 0.0
H421 H 0.45134 0.80939 0.73579 0.0
H422 H 0.46316 0.66963 0.73849 0.0
H423 H 0.47929 0.63185 0.69416 0.0
C424 C 0.96382 0.90272 0.7559 0.0
C425 C 0.95679 0.93675 0.79188 0.0
C426 C 0.98616 0.01589 0.72987 0.0
C427 C 1.00256 0.98191 0.69729 0.0
N428 N 1.00579 0.89143 0.67907 0.0
N429 N 0.9716 0.0266 0.81398 0.0
C430 C 0.99128 0.92476 0.71046 0.0
C431 C 0.97114 0.99361 0.77912 0.0
N432 N 0.94129 0.85021 0.76365 0.0
N433 N 0.98039 0.06863 0.71289 0.0
H434 H 0.96307 0.01189 0.85076 0.0
H435 H 0.98584 0.0676 0.80681 0.0
H436 H 0.9833 0.08349 0.67575 0.0
H437 H 0.96509 0.09444 0.73441 0.0
H438 H 0.94063 0.82488 0.73719 0.0
H439 H 0.91834 0.83357 0.79482 0.0
H440 H 1.00456 0.84952 0.68859 0.0
H441 H 1.02153 0.90622 0.64407 0.0
C442 C 0.67176 0.17078 0.32284 0.0
C443 C 0.63817 0.1503 0.36436 0.0
C444 C 0.59034 0.08605 0.31994 0.0
C445 C 0.62576 0.10436 0.27958 0.0
N446 N 0.69332 0.16865 0.23749 0.0
N447 N 0.56119 0.09608 0.40185 0.0
C448 C 0.66422 0.14853 0.27941 0.0
C449 C 0.59569 0.11048 0.36257 0.0
N450 N 0.71201 0.20977 0.32594 0.0
N451 N 0.5526 0.04443 0.31728 0.0
H452 H 0.56462 0.11347 0.43355 0.0
H453 H 0.5277 0.06929 0.40266 0.0
H454 H 0.54711 0.02737 0.28563 0.0
H455 H 0.52736 0.02573 0.34614 0.0
H456 H 0.74139 0.22248 0.29903 0.0
H457 H 0.71708 0.22877 0.35659 0.0
H458 H 0.71928 0.20375 0.23299 0.0
H459 H 0.68934 0.15154 0.2057 0.0
C460 C 0.44776 0.68491 0.40028 0.0
C461 C 0.44188 0.64789 0.36655 0.0
C462 C 0.48085 0.57997 0.42236 0.0
C463 C 0.48905 0.61821 0.45496 0.0
N464 N 0.46963 0.70143 0.48125 0.0
N465 N 0.46013 0.564 0.34093 0.0
C466 C 0.46957 0.66925 0.44564 0.0
C467 C 0.45965 0.59599 0.37658 0.0
N468 N 0.43388 0.73606 0.38769 0.0
N469 N 0.49218 0.52797 0.43577 0.0
H470 H 0.44643 0.57525 0.30663 0.0
H471 H 0.47782 0.52836 0.34372 0.0
H472 H 0.50776 0.51501 0.46891 0.0
H473 H 0.48232 0.49653 0.41611 0.0
H474 H 0.44241 0.76767 0.40746 0.0
H475 H 0.41585 0.74783 0.35554 0.0
H476 H 0.45198 0.73704 0.47886 0.0
H477 H 0.48368 0.69013 0.51541 0.0
C478 C 0.1642 0.48111 0.78503 0.0
C479 C 0.11718 0.46873 0.76279 0.0
C480 C 0.07002 0.51128 0.82148 0.0
C481 C 0.117 0.52288 0.84405 0.0
N482 N 0.20598 0.50877 0.85524 0.0
N483 N 1.02366 0.4539 0.77104 0.0
C484 C 0.16335 0.50465 0.82818 0.0
C485 C 0.06928 0.47862 0.78397 0.0
N486 N 0.20999 0.47182 0.76363 0.0
N487 N 1.02654 0.53269 0.83512 0.0
H488 H 1.02211 0.42456 0.74814 0.0
H489 H 0.9879 0.45676 0.78818 0.0
H490 H 1.02612 0.55722 0.86225 0.0
H491 H 0.9924 0.52998 0.81671 0.0
H492 H 0.24621 0.48559 0.77466 0.0
H493 H 0.2118 0.45284 0.73278 0.0
H494 H 0.23976 0.49156 0.84827 0.0
H495 H 0.20597 0.52556 0.88734 0.0
C496 C 0.72182 0.91392 1.01975 0.0
C497 C 0.75311 0.9456 0.98078 0.0
C498 C 0.69206 0.01502 0.97711 0.0
C499 C 0.66339 0.9857 1.01923 0.0
N500 N 0.65426 0.90862 0.08348 0.0
N501 N 0.77583 0.03439 0.93334 0.0
C502 C 0.67942 0.93563 0.04146 0.0
C503 C 0.74025 0.99821 0.96194 0.0
N504 N 0.73209 0.86197 0.03519 0.0
N505 N 0.67411 0.05963 0.95175 0.0
H506 H 0.81369 0.02654 0.92613 0.0
H507 H 0.77029 0.07485 0.92243 0.0
H508 H 0.64095 0.07571 0.96255 0.0
H509 H 0.69022 0.07838 0.91783 0.0
H510 H 0.70776 0.834 0.05948 0.0
H511 H 0.76339 0.84541 1.02075 0.0
H512 H 0.66794 0.87592 0.10479 0.0
H513 H 0.6209 0.92052 0.09879 0.0
C514 C 0.75105 0.07704 0.52281 0.0
C515 C 0.75769 0.13015 0.49579 0.0
C516 C 0.84962 0.12308 0.47907 0.0
C517 C 0.8425 0.06932 0.50456 0.0
N518 N 0.7914 0.99793 0.55789 0.0
N519 N 0.81386 0.20831 0.45635 0.0
C520 C 0.79461 0.04726 0.5289 0.0
C521 C 0.8074 0.1548 0.47686 0.0
N522 N 0.70266 0.05481 0.54097 0.0
N523 N 0.89643 0.14278 0.45554 0.0
H524 H 0.78346 0.23237 0.45283 0.0
H525 H 0.84971 0.23037 0.44598 0.0
H526 H 0.92853 0.12099 0.45734 0.0
H527 H 0.90322 0.17934 0.43197 0.0
H528 H 0.69357 0.0144 0.55653 0.0
H529 H 0.67075 0.077 0.53921 0.0
H530 H 0.75904 0.98082 0.58015 0.0
H531 H 0.82286 0.97517 0.56169 0.0
C532 C 0.27057 0.62088 0.12947 0.0
C533 C 0.26779 0.65828 0.16272 0.0
C534 C 0.1812 0.67579 0.13637 0.0
C535 C 0.18168 0.63465 0.10631 0.0
N536 N 0.22398 0.56029 0.08212 0.0
N537 N 0.21783 0.71522 0.20379 0.0
C538 C 0.2257 0.60522 0.10471 0.0
C539 C 0.22215 0.68373 0.16805 0.0
N540 N 0.3165 0.60108 0.12068 0.0
N541 N 0.14262 0.709 0.13302 0.0
H542 H 0.24723 0.72214 0.2274 0.0
H543 H 0.18365 0.73055 0.21287 0.0
H544 H 0.11343 0.70583 0.10867 0.0
H545 H 0.14243 0.74301 0.15039 0.0
H546 H 0.32282 0.57919 0.09241 0.0
H547 H 0.34958 0.6098 0.1395 0.0
H548 H 0.25227 0.53363 0.08526 0.0
H549 H 0.19225 0.54624 0.06402 0.0
C550 C 0.25676 0.47148 0.55977 0.0
C551 C 0.23228 0.42147 0.58468 0.0
C552 C 0.31362 0.40322 0.62258 0.0
C553 C 0.33386 0.45745 0.60581 0.0
N554 N 0.3251 0.54504 0.55985 0.0
N555 N 0.23728 0.33841 0.64028 0.0
C556 C 0.30605 0.4919 0.57387 0.0
C557 C 0.26102 0.38622 0.61534 0.0
N558 N 0.23178 0.49984 0.52378 0.0
N559 N 0.345 0.36831 0.64562 0.0
H560 H 0.19966 0.32298 0.63468 0.0
H561 H 0.2542 0.31495 0.66813 0.0
H562 H 0.38363 0.3805 0.6515 0.0
H563 H 0.33436 0.32671 0.65486 0.0
H564 H 0.24886 0.53474 0.50149 0.0
H565 H 0.19545 0.48508 0.51336 0.0
H566 H 0.30423 0.57362 0.5406 0.0
H567 H 0.36041 0.56175 0.57068 0.0
C568 C 0.93891 0.74816 0.93098 0.0
C569 C 0.94742 0.79959 0.94679 0.0
C570 C 0.99605 0.75873 1.0151 0.0
C571 C 0.98767 0.70731 0.99914 0.0
N572 N 0.94326 0.65096 0.9471 0.0
N573 N 0.97864 0.85327 1.00676 0.0
C574 C 0.95706 0.70161 0.95837 0.0
C575 C 0.97422 0.80457 0.98988 0.0
N576 N 0.91354 0.74384 0.8893 0.0
N577 N 1.02681 0.76421 0.05319 0.0
H578 H 0.96603 0.88822 0.9879 0.0
H579 H 0.99229 0.85885 0.04051 0.0
H580 H 0.04101 0.73127 0.07364 0.0
H581 H 0.04021 0.80119 0.06348 0.0
H582 H 0.91266 0.71025 0.87132 0.0
H583 H 0.89482 0.77507 0.87113 0.0
H584 H 0.91623 0.64249 0.92185 0.0
H585 H 0.95558 0.61599 0.96591 0.0
C586 C 0.45753 0.80369 0.1318 0.0
C587 C 0.41529 0.80045 0.16619 0.0
C588 C 0.43158 0.89781 0.16907 0.0
C589 C 0.47239 0.90158 0.13297 0.0
N590 N 0.51959 0.86097 0.07413 0.0
N591 N 0.35688 0.84375 0.21317 0.0
C592 C 0.484 0.85533 0.11253 0.0
C593 C 0.40088 0.84736 0.1837 0.0
N594 N 0.47312 0.75719 0.11868 0.0
N595 N 0.42203 0.94262 0.18913 0.0
H596 H 0.33377 0.80727 0.22521 0.0
H597 H 0.34087 0.87711 0.22308 0.0
H598 H 0.4407 0.98118 0.17648 0.0
H599 H 0.3975 0.94152 0.21975 0.0
H600 H 0.50726 0.75605 0.09827 0.0
H601 H 0.45353 0.7188 0.13091 0.0
H602 H 0.52556 0.83008 0.05407 0.0
H603 H 0.54104 0.8978 0.05993 0.0
C604 C 0.0439 0.29086 0.55048 0.0
C605 C 0.06779 0.30388 0.59273 0.0
C606 C 0.06301 0.20756 0.62617 0.0
C607 C 0.04711 0.19411 0.58065 0.0
N608 N 1.02513 0.22323 0.49786 0.0
N609 N 0.10246 0.27523 0.67066 0.0
C610 C 1.03705 0.23571 0.5426 0.0
C611 C 0.07687 0.26246 0.63102 0.0
N612 N 1.02837 0.3315 0.51781 0.0
N613 N 0.06582 0.16763 0.66488 0.0
H614 H 0.11223 0.31475 0.6772 0.0
H615 H 0.1176 0.24676 0.69576 0.0
H616 H 0.06125 0.12653 0.66234 0.0
H617 H 0.06924 0.17505 0.70052 0.0
H618 H 1.00638 0.32469 0.48835 0.0
H619 H 1.03359 0.37211 0.52288 0.0
H620 H 1.02356 0.25227 0.46724 0.0
H621 H 1.02012 0.18373 0.49009 0.0
C622 C 0.64798 0.39082 0.49018 0.0
C623 C 0.64272 0.34562 0.52774 0.0
C624 C 0.60633 0.39966 0.58376 0.0
C625 C 0.60504 0.4428 0.54431 0.0
N626 N 0.61825 0.47658 0.45825 0.0
N627 N 0.61434 0.30403 0.6087 0.0
C628 C 0.62426 0.4377 0.49699 0.0
C629 C 0.62139 0.34934 0.57418 0.0
N630 N 0.67769 0.38958 0.44893 0.0
N631 N 0.59585 0.40743 0.63056 0.0
H632 H 0.62663 0.26713 0.60276 0.0
H633 H 0.59331 0.302 0.64164 0.0
H634 H 0.58589 0.44379 0.63985 0.0
H635 H 0.60184 0.37941 0.66084 0.0
H636 H 0.68715 0.42323 0.42209 0.0
H637 H 0.69753 0.35655 0.44407 0.0
H638 H 0.62657 0.47193 0.42231 0.0
H639 H 0.60059 0.5114 0.46141 0.0
loop_
_geom_bond_atom_site_label_1
_geom_bond_atom_site_label_2
_geom_bond_distance
_geom_bond_site_symmetry_2
_ccdc_geom_bond_type
H0 C5 0.929 . S
H1 C10 0.931 . S
H2 C8 0.930 . S
N3 N4 1.234 . S
N3 C7 1.453 . S
N4 N3 1.234 . S
C5 H0 0.929 . S
C5 C6 1.373 . S
C5 C7 1.368 . S
C6 C5 1.373 . S
C6 C10 1.397 . S
C7 N3 1.453 . S
C7 C5 1.368 . S
C7 C8 1.373 . S
C8 H2 0.930 . S
C8 C7 1.373 . S
C8 C9 1.371 . S
C9 C8 1.371 . S
C9 C10 1.383 . S
C10 H1 0.931 . S
C10 C6 1.397 . S
C10 C9 1.383 . S
H11 C16 0.929 . S
H12 C21 0.931 . S
H13 C19 0.930 . S
N14 N15 1.234 . S
N14 C18 1.453 . S
N15 N14 1.234 . S
C16 H11 0.929 . S
C16 C17 1.373 . S
C16 C18 1.368 . S
C17 C16 1.373 . S
C17 C21 1.397 . S
C18 N14 1.453 . S
C18 C16 1.368 . S
C18 C19 1.373 . S
C19 H13 0.930 . S
C19 C18 1.373 . S
C19 C20 1.371 . S
C20 C19 1.371 . S
C20 C21 1.383 . S
C21 H12 0.931 . S
C21 C17 1.397 . S
C21 C20 1.383 . S
H22 C27 0.929 . S
H23 C32 0.931 1_554 S
H24 C30 0.930 . S
N25 N26 1.234 . S
N25 C29 1.453 . S
N26 N25 1.234 . S
C27 H22 0.929 . S
C27 C28 1.373 . S
C27 C29 1.368 . S
C28 C27 1.373 . S
C28 C32 1.397 . S
C29 N25 1.453 . S
C29 C27 1.368 . S
C29 C30 1.373 . S
C30 H24 0.930 . S
C30 C29 1.373 . S
C30 C31 1.371 . S
C31 C30 1.371 . S
C31 C32 1.383 . S
C32 H23 0.931 1_556 S
C32 C28 1.397 . S
C32 C31 1.383 . S
H33 C38 0.929 . S
H34 C43 0.931 . S
H35 C41 0.930 . S
N36 N37 1.234 . S
N36 C40 1.453 . S
N37 N36 1.234 . S
C38 H33 0.929 . S
C38 C39 1.373 . S
C38 C40 1.368 . S
C39 C38 1.373 . S
C39 C43 1.397 . S
C40 N36 1.453 . S
C40 C38 1.368 . S
C40 C41 1.373 . S
C41 H35 0.930 . S
C41 C40 1.373 . S
C41 C42 1.371 . S
C42 C41 1.371 . S
C42 C43 1.383 . S
C43 H34 0.931 . S
C43 C39 1.397 . S
C43 C42 1.383 . S
H44 C49 0.929 1_545 S
H45 C54 0.931 . S
H46 C52 0.930 . S
N47 N48 1.234 . S
N47 C51 1.453 . S
N48 N47 1.234 . S
C49 H44 0.929 1_565 S
C49 C50 1.373 . S
C49 C51 1.368 . S
C50 C49 1.373 . S
C50 C54 1.397 . S
C51 N47 1.453 . S
C51 C49 1.368 . S
C51 C52 1.373 . S
C52 H46 0.930 . S
C52 C51 1.373 . S
C52 C53 1.371 . S
C53 C52 1.371 . S
C53 C54 1.383 . S
C54 H45 0.931 . S
C54 C50 1.397 . S
C54 C53 1.383 . S
H55 C60 0.929 . S
H56 C65 0.931 . S
H57 C63 0.930 . S
N58 N59 1.234 . S
N58 C62 1.453 . S
N59 N58 1.234 . S
C60 H55 0.929 . S
C60 C61 1.373 . S
C60 C62 1.368 . S
C61 C60 1.373 . S
C61 C65 1.397 . S
C62 N58 1.453 . S
C62 C60 1.368 . S
C62 C63 1.373 . S
C63 H57 0.930 . S
C63 C62 1.373 . S
C63 C64 1.371 . S
C64 C63 1.371 . S
C64 C65 1.383 . S
C65 H56 0.931 . S
C65 C61 1.397 . S
C65 C64 1.383 . S
H66 C71 0.929 . S
H67 C76 0.931 . S
H68 C74 0.930 . S
N69 N70 1.234 . S
N69 C73 1.453 . S
N70 N69 1.234 . S
C71 H66 0.929 . S
C71 C72 1.373 . S
C71 C73 1.368 . S
C72 C71 1.373 . S
C72 C76 1.397 . S
C73 N69 1.453 . S
C73 C71 1.368 . S
C73 C74 1.373 . S
C74 H68 0.930 . S
C74 C73 1.373 . S
C74 C75 1.371 . S
C75 C74 1.371 . S
C75 C76 1.383 . S
C76 H67 0.931 . S
C76 C72 1.397 . S
C76 C75 1.383 . S
H77 C82 0.929 . S
H78 C87 0.931 . S
H79 C85 0.930 . S
N80 N81 1.234 . S
N80 C84 1.453 . S
N81 N80 1.234 . S
C82 H77 0.929 . S
C82 C83 1.373 . S
C82 C84 1.368 . S
C83 C82 1.373 . S
C83 C87 1.397 . S
C84 N80 1.453 . S
C84 C82 1.368 . S
C84 C85 1.373 . S
C85 H79 0.930 . S
C85 C84 1.373 . S
C85 C86 1.371 . S
C86 C85 1.371 . S
C86 C87 1.383 . S
C87 H78 0.931 . S
C87 C83 1.397 . S
C87 C86 1.383 . S
Co88 N93 2.057 . S
Co88 O105 2.021 . S
Co88 O108 2.062 . S
Co88 O112 2.117 1_545 S
Co88 O113 2.020 . S
C89 O109 1.259 1_655 S
C89 O112 1.258 . S
Co90 N99 2.057 . S
Co90 O106 2.117 . S
Co90 O107 2.020 . S
Co90 O109 2.021 1_545 S
Co90 O114 2.061 1_545 S
C91 N93 1.316 . S
C91 N94 1.347 . S
C91 H96 0.931 . S
C92 N93 1.375 . S
C92 C95 1.350 . S
C92 H97 0.930 1_545 S
N93 Co88 2.057 . S
N93 C91 1.316 . S
N93 C92 1.375 . S
N94 C91 1.347 . S
N94 C95 1.373 . S
C95 C92 1.350 . S
C95 N94 1.373 . S
C95 H116 0.931 . S
H96 C91 0.931 . S
H97 C92 0.930 1_565 S
C98 O105 1.259 1_455 S
C98 O106 1.258 . S
N99 Co90 2.057 . S
N99 C100 1.316 1_545 S
N99 C101 1.375 . S
C100 N99 1.316 1_565 S
C100 N102 1.347 . S
C100 H111 0.931 . S
C101 N99 1.375 . S
C101 C103 1.350 . S
C101 H110 0.930 . S
N102 C100 1.347 . S
N102 C103 1.373 1_565 S
C103 C101 1.350 . S
C103 N102 1.373 1_545 S
C103 H117 0.931 . S
C104 O107 1.256 . S
C104 O108 1.255 1_455 S
O105 Co88 2.021 . S
O105 C98 1.259 1_655 S
O106 Co90 2.117 . S
O106 C98 1.258 . S
O107 Co90 2.020 . S
O107 C104 1.256 . S
O108 Co88 2.062 . S
O108 C104 1.255 1_655 S
O109 C89 1.259 1_455 S
O109 Co90 2.021 1_565 S
H110 C101 0.930 . S
H111 C100 0.931 . S
O112 Co88 2.117 1_565 S
O112 C89 1.258 . S
O113 Co88 2.020 . S
O113 C115 1.256 . S
O114 Co90 2.061 1_565 S
O114 C115 1.254 1_465 S
C115 O113 1.256 . S
C115 O114 1.254 1_645 S
H116 C95 0.931 . S
H117 C103 0.931 . S
Co118 N123 2.057 1_544 S
Co118 O135 2.021 1_554 S
Co118 O138 2.062 1_554 S
Co118 O142 2.117 1_545 S
Co118 O143 2.020 . S
C119 O139 1.259 . S
C119 O142 1.258 . S
Co120 N129 2.057 . S
Co120 O136 2.117 . S
Co120 O137 2.020 . S
Co120 O139 2.021 1_545 S
Co120 O144 2.062 . S
C121 N123 1.316 1_545 S
C121 N124 1.347 1_545 S
C121 H126 0.931 . S
C122 N123 1.375 . S
C122 C125 1.350 . S
C122 H127 0.930 . S
N123 Co118 2.057 1_566 S
N123 C121 1.316 1_565 S
N123 C122 1.375 . S
N124 C121 1.347 1_565 S
N124 C125 1.373 . S
C125 C122 1.350 . S
C125 N124 1.373 . S
C125 H146 0.931 . S
H126 C121 0.931 . S
H127 C122 0.930 . S
C128 O135 1.259 1_554 S
C128 O136 1.258 . S
N129 Co120 2.057 . S
N129 C130 1.316 . S
N129 C131 1.375 . S
C130 N129 1.316 . S
C130 N132 1.347 . S
C130 H141 0.931 . S
C131 N129 1.375 . S
C131 C133 1.350 . S
C131 H140 0.930 . S
N132 C130 1.347 . S
N132 C133 1.373 . S
C133 C131 1.350 . S
C133 N132 1.373 . S
C133 H147 0.931 . S
C134 O137 1.256 . S
C134 O138 1.255 1_554 S
O135 Co118 2.021 1_556 S
O135 C128 1.259 1_556 S
O136 Co120 2.117 . S
O136 C128 1.258 . S
O137 Co120 2.020 . S
O137 C134 1.256 . S
O138 Co118 2.062 1_556 S
O138 C134 1.255 1_556 S
O139 C119 1.259 . S
O139 Co120 2.021 1_565 S
H140 C131 0.930 . S
H141 C130 0.931 . S
O142 Co118 2.117 1_565 S
O142 C119 1.258 . S
O143 Co118 2.020 . S
O143 C145 1.256 . S
O144 Co120 2.062 . S
O144 C145 1.255 . S
C145 O143 1.256 . S
C145 O144 1.255 . S
H146 C125 0.931 . S
H147 C133 0.931 . S
Co148 N153 2.057 . S
Co148 O165 2.021 . S
Co148 O168 2.062 . S
Co148 O172 2.117 . S
Co148 O173 2.020 . S
C149 O169 1.259 . S
C149 O172 1.258 . S
Co150 N159 2.057 . S
Co150 O166 2.117 . S
Co150 O167 2.020 . S
Co150 O169 2.021 . S
Co150 O174 2.062 . S
C151 N153 1.316 . S
C151 N154 1.347 . S
C151 H156 0.931 . S
C152 N153 1.375 . S
C152 C155 1.350 . S
C152 H157 0.930 . S
N153 Co148 2.057 . S
N153 C151 1.316 . S
N153 C152 1.375 . S
N154 C151 1.347 . S
N154 C155 1.373 . S
C155 C152 1.350 . S
C155 N154 1.373 . S
C155 H176 0.931 . S
H156 C151 0.931 . S
H157 C152 0.930 . S
C158 O165 1.259 . S
C158 O166 1.258 . S
N159 Co150 2.057 . S
N159 C160 1.316 . S
N159 C161 1.375 . S
C160 N159 1.316 . S
C160 N162 1.347 . S
C160 H171 0.931 . S
C161 N159 1.375 . S
C161 C163 1.350 . S
C161 H170 0.930 . S
N162 C160 1.347 . S
N162 C163 1.373 . S
C163 C161 1.350 . S
C163 N162 1.373 . S
C163 H177 0.931 . S
C164 O167 1.256 . S
C164 O168 1.255 . S
O165 Co148 2.021 . S
O165 C158 1.259 . S
O166 Co150 2.117 . S
O166 C158 1.258 . S
O167 Co150 2.020 . S
O167 C164 1.256 . S
O168 Co148 2.062 . S
O168 C164 1.255 . S
O169 C149 1.259 . S
O169 Co150 2.021 . S
H170 C161 0.930 . S
H171 C160 0.931 . S
O172 Co148 2.117 . S
O172 C149 1.258 . S
O173 Co148 2.020 . S
O173 C175 1.256 . S
O174 Co150 2.062 . S
O174 C175 1.255 . S
C175 O173 1.256 . S
C175 O174 1.255 . S
H176 C155 0.931 . S
H177 C163 0.931 . S
Co178 N183 2.057 . S
Co178 O195 2.021 . S
Co178 O198 2.062 1_556 S
Co178 O202 2.117 1_455 S
Co178 O203 2.020 . S
C179 O199 1.259 . S
C179 O202 1.258 1_554 S
Co180 N189 2.057 . S
Co180 O196 2.117 . S
Co180 O197 2.020 . S
Co180 O199 2.021 1_455 S
Co180 O204 2.062 . S
C181 N183 1.316 . S
C181 N184 1.347 . S
C181 H186 0.931 . S
C182 N183 1.375 . S
C182 C185 1.350 . S
C182 H187 0.930 1_455 S
N183 Co178 2.057 . S
N183 C181 1.316 . S
N183 C182 1.375 . S
N184 C181 1.347 . S
N184 C185 1.373 . S
C185 C182 1.350 . S
C185 N184 1.373 . S
C185 H206 0.931 . S
H186 C181 0.931 . S
H187 C182 0.930 1_655 S
C188 O195 1.259 1_554 S
C188 O196 1.258 . S
N189 Co180 2.057 . S
N189 C190 1.316 1_455 S
N189 C191 1.375 . S
C190 N189 1.316 1_655 S
C190 N192 1.347 . S
C190 H201 0.931 . S
C191 N189 1.375 . S
C191 C193 1.350 . S
C191 H200 0.930 . S
N192 C190 1.347 . S
N192 C193 1.373 1_655 S
C193 C191 1.350 . S
C193 N192 1.373 1_455 S
C193 H207 0.931 . S
C194 O197 1.256 . S
C194 O198 1.255 . S
O195 Co178 2.021 . S
O195 C188 1.259 1_556 S
O196 Co180 2.117 . S
O196 C188 1.258 . S
O197 Co180 2.020 . S
O197 C194 1.256 . S
O198 Co178 2.062 1_554 S
O198 C194 1.255 . S
O199 C179 1.259 . S
O199 Co180 2.021 1_655 S
H200 C191 0.930 . S
H201 C190 0.931 . S
O202 Co178 2.117 1_655 S
O202 C179 1.258 1_556 S
O203 Co178 2.020 . S
O203 C205 1.256 . S
O204 Co180 2.062 . S
O204 C205 1.255 1_554 S
C205 O203 1.256 . S
C205 O204 1.255 1_556 S
H206 C185 0.931 . S
H207 C193 0.931 . S
C208 C209 1.363 . S
C208 C214 1.379 . S
C208 N216 1.356 . S
C209 C208 1.363 . S
C209 C215 1.363 . S
C210 C211 1.363 . S
C210 C215 1.379 . S
C210 N217 1.356 . S
C211 C210 1.363 . S
C211 C214 1.363 . S
N212 C214 1.356 . S
N212 H224 0.984 . S
N212 H225 0.985 . S
N213 C215 1.356 . S
N213 H218 0.984 . S
N213 H219 0.985 . S
C214 C208 1.379 . S
C214 C211 1.363 . S
C214 N212 1.356 . S
C215 C209 1.363 . S
C215 C210 1.379 . S
C215 N213 1.356 . S
N216 C208 1.356 . S
N216 H222 0.984 . S
N216 H223 0.984 . S
N217 C210 1.356 . S
N217 H220 0.984 . S
N217 H221 0.985 1_445 S
H218 N213 0.984 . S
H219 N213 0.985 . S
H220 N217 0.984 . S
H221 N217 0.985 1_665 S
H222 N216 0.984 . S
H223 N216 0.984 . S
H224 N212 0.984 . S
H225 N212 0.985 . S
C226 C227 1.363 . S
C226 C232 1.379 . S
C226 N234 1.356 . S
C227 C226 1.363 . S
C227 C233 1.363 . S
C228 C229 1.363 . S
C228 C233 1.379 . S
C228 N235 1.356 . S
C229 C228 1.363 . S
C229 C232 1.363 . S
N230 C232 1.356 . S
N230 H242 0.984 . S
N230 H243 0.985 . S
N231 C233 1.356 . S
N231 H236 0.984 . S
N231 H237 0.985 . S
C232 C226 1.379 . S
C232 C229 1.363 . S
C232 N230 1.356 . S
C233 C227 1.363 . S
C233 C228 1.379 . S
C233 N231 1.356 . S
N234 C226 1.356 . S
N234 H240 0.984 . S
N234 H241 0.984 . S
N235 C228 1.356 . S
N235 H238 0.984 . S
N235 H239 0.985 . S
H236 N231 0.984 . S
H237 N231 0.985 . S
H238 N235 0.984 . S
H239 N235 0.985 . S
H240 N234 0.984 . S
H241 N234 0.984 . S
H242 N230 0.984 . S
H243 N230 0.985 . S
C244 C245 1.363 . S
C244 C250 1.379 . S
C244 N252 1.356 . S
C245 C244 1.363 . S
C245 C251 1.363 . S
C246 C247 1.363 . S
C246 C251 1.379 . S
C246 N253 1.356 . S
C247 C246 1.363 . S
C247 C250 1.363 . S
N248 C250 1.356 . S
N248 H260 0.984 . S
N248 H261 0.985 . S
N249 C251 1.356 . S
N249 H254 0.984 . S
N249 H255 0.985 . S
C250 C244 1.379 . S
C250 C247 1.363 . S
C250 N248 1.356 . S
C251 C245 1.363 . S
C251 C246 1.379 . S
C251 N249 1.356 . S
N252 C244 1.356 . S
N252 H258 0.984 . S
N252 H259 0.984 . S
N253 C246 1.356 . S
N253 H256 0.984 . S
N253 H257 0.985 . S
H254 N249 0.984 . S
H255 N249 0.985 . S
H256 N253 0.984 . S
H257 N253 0.985 . S
H258 N252 0.984 . S
H259 N252 0.984 . S
H260 N248 0.984 . S
H261 N248 0.985 . S
C262 C263 1.363 . S
C262 C268 1.379 . S
C262 N270 1.356 . S
C263 C262 1.363 . S
C263 C269 1.363 1_655 S
C264 C265 1.363 . S
C264 C269 1.379 1_655 S
C264 N271 1.356 1_655 S
C265 C264 1.363 . S
C265 C268 1.363 . S
N266 C268 1.356 . S
N266 H278 0.984 . S
N266 H279 0.985 . S
N267 C269 1.356 . S
N267 H272 0.984 . S
N267 H273 0.985 . S
C268 C262 1.379 . S
C268 C265 1.363 . S
C268 N266 1.356 . S
C269 C263 1.363 1_455 S
C269 C264 1.379 1_455 S
C269 N267 1.356 . S
N270 C262 1.356 . S
N270 H276 0.984 . S
N270 H277 0.984 . S
N271 C264 1.356 1_455 S
N271 H274 0.984 1_455 S
N271 H275 0.985 . S
H272 N267 0.984 . S
H273 N267 0.985 . S
H274 N271 0.984 1_655 S
H275 N271 0.985 . S
H276 N270 0.984 . S
H277 N270 0.984 . S
H278 N266 0.984 . S
H279 N266 0.985 . S
C280 C281 1.363 . S
C280 C286 1.379 . S
C280 N288 1.356 . S
C281 C280 1.363 . S
C281 C287 1.363 . S
C282 C283 1.363 . S
C282 C287 1.379 . S
C282 N289 1.356 . S
C283 C282 1.363 . S
C283 C286 1.363 . S
N284 C286 1.356 . S
N284 H296 0.984 . S
N284 H297 0.985 . S
N285 C287 1.356 . S
N285 H290 0.984 . S
N285 H291 0.985 . S
C286 C280 1.379 . S
C286 C283 1.363 . S
C286 N284 1.356 . S
C287 C281 1.363 . S
C287 C282 1.379 . S
C287 N285 1.356 . S
N288 C280 1.356 . S
N288 H294 0.984 . S
N288 H295 0.984 . S
N289 C282 1.356 . S
N289 H292 0.984 . S
N289 H293 0.985 1_554 S
H290 N285 0.984 . S
H291 N285 0.985 . S
H292 N289 0.984 . S
H293 N289 0.985 1_556 S
H294 N288 0.984 . S
H295 N288 0.984 . S
H296 N284 0.984 . S
H297 N284 0.985 . S
C298 C299 1.363 . S
C298 C304 1.379 . S
C298 N306 1.356 . S
C299 C298 1.363 . S
C299 C305 1.363 . S
C300 C301 1.363 . S
C300 C305 1.379 . S
C300 N307 1.356 . S
C301 C300 1.363 . S
C301 C304 1.363 . S
N302 C304 1.356 . S
N302 H314 0.984 . S
N302 H315 0.985 . S
N303 C305 1.356 . S
N303 H308 0.984 . S
N303 H309 0.985 . S
C304 C298 1.379 . S
C304 C301 1.363 . S
C304 N302 1.356 . S
C305 C299 1.363 . S
C305 C300 1.379 . S
C305 N303 1.356 . S
N306 C298 1.356 . S
N306 H312 0.984 . S
N306 H313 0.984 . S
N307 C300 1.356 . S
N307 H310 0.984 . S
N307 H311 0.985 . S
H308 N303 0.984 . S
H309 N303 0.985 . S
H310 N307 0.984 . S
H311 N307 0.985 . S
H312 N306 0.984 . S
H313 N306 0.984 . S
H314 N302 0.984 . S
H315 N302 0.985 . S
C316 C317 1.363 . S
C316 C322 1.379 . S
C316 N324 1.356 . S
C317 C316 1.363 . S
C317 C323 1.363 . S
C318 C319 1.363 . S
C318 C323 1.379 . S
C318 N325 1.356 . S
C319 C318 1.363 . S
C319 C322 1.363 . S
N320 C322 1.356 . S
N320 H332 0.984 . S
N320 H333 0.985 . S
N321 C323 1.356 . S
N321 H326 0.984 . S
N321 H327 0.985 . S
C322 C316 1.379 . S
C322 C319 1.363 . S
C322 N320 1.356 . S
C323 C317 1.363 . S
C323 C318 1.379 . S
C323 N321 1.356 . S
N324 C316 1.356 . S
N324 H330 0.984 . S
N324 H331 0.984 . S
N325 C318 1.356 . S
N325 H328 0.984 1_556 S
N325 H329 0.984 . S
H326 N321 0.984 . S
H327 N321 0.985 . S
H328 N325 0.984 1_554 S
H329 N325 0.984 . S
H330 N324 0.984 . S
H331 N324 0.984 . S
H332 N320 0.984 . S
H333 N320 0.985 . S
C334 C335 1.363 . S
C334 C340 1.379 . S
C334 N342 1.356 . S
C335 C334 1.363 . S
C335 C341 1.363 . S
C336 C337 1.363 . S
C336 C341 1.379 . S
C336 N343 1.356 . S
C337 C336 1.363 . S
C337 C340 1.363 . S
N338 C340 1.356 . S
N338 H350 0.984 . S
N338 H351 0.985 . S
N339 C341 1.356 . S
N339 H344 0.984 . S
N339 H345 0.985 . S
C340 C334 1.379 . S
C340 C337 1.363 . S
C340 N338 1.356 . S
C341 C335 1.363 . S
C341 C336 1.379 . S
C341 N339 1.356 . S
N342 C334 1.356 . S
N342 H348 0.984 . S
N342 H349 0.984 . S
N343 C336 1.356 . S
N343 H346 0.984 . S
N343 H347 0.985 . S
H344 N339 0.984 . S
H345 N339 0.985 . S
H346 N343 0.984 . S
H347 N343 0.985 . S
H348 N342 0.984 . S
H349 N342 0.984 . S
H350 N338 0.984 . S
H351 N338 0.985 . S
C352 C353 1.363 . S
C352 C358 1.379 . S
C352 N360 1.356 . S
C353 C352 1.363 . S
C353 C359 1.363 . S
C354 C355 1.363 . S
C354 C359 1.379 . S
C354 N361 1.356 . S
C355 C354 1.363 . S
C355 C358 1.363 . S
N356 C358 1.356 . S
N356 H368 0.984 . S
N356 H369 0.985 . S
N357 C359 1.356 . S
N357 H362 0.984 . S
N357 H363 0.985 1_554 S
C358 C352 1.379 . S
C358 C355 1.363 . S
C358 N356 1.356 . S
C359 C353 1.363 . S
C359 C354 1.379 . S
C359 N357 1.356 . S
N360 C352 1.356 . S
N360 H366 0.984 . S
N360 H367 0.984 . S
N361 C354 1.356 . S
N361 H364 0.984 . S
N361 H365 0.985 1_554 S
H362 N357 0.984 . S
H363 N357 0.985 1_556 S
H364 N361 0.984 . S
H365 N361 0.985 1_556 S
H366 N360 0.984 . S
H367 N360 0.984 . S
H368 N356 0.984 . S
H369 N356 0.985 . S
C370 C371 1.363 . S
C370 C376 1.379 . S
C370 N378 1.356 . S
C371 C370 1.363 . S
C371 C377 1.363 1_556 S
C372 C373 1.363 1_554 S
C372 C377 1.379 . S
C372 N379 1.356 . S
C373 C372 1.363 1_556 S
C373 C376 1.363 . S
N374 C376 1.356 . S
N374 H386 0.984 . S
N374 H387 0.985 . S
N375 C377 1.356 . S
N375 H380 0.984 . S
N375 H381 0.985 . S
C376 C370 1.379 . S
C376 C373 1.363 . S
C376 N374 1.356 . S
C377 C371 1.363 1_554 S
C377 C372 1.379 . S
C377 N375 1.356 . S
N378 C370 1.356 . S
N378 H384 0.984 . S
N378 H385 0.984 . S
N379 C372 1.356 . S
N379 H382 0.984 . S
N379 H383 0.985 . S
H380 N375 0.984 . S
H381 N375 0.985 . S
H382 N379 0.984 . S
H383 N379 0.985 . S
H384 N378 0.984 . S
H385 N378 0.984 . S
H386 N374 0.984 . S
H387 N374 0.985 . S
C388 C389 1.363 . S
C388 C394 1.379 . S
C388 N396 1.356 . S
C389 C388 1.363 . S
C389 C395 1.363 . S
C390 C391 1.363 . S
C390 C395 1.379 . S
C390 N397 1.356 1_655 S
C391 C390 1.363 . S
C391 C394 1.363 . S
N392 C394 1.356 . S
N392 H404 0.984 . S
N392 H405 0.985 . S
N393 C395 1.356 1_455 S
N393 H398 0.984 1_455 S
N393 H399 0.985 . S
C394 C388 1.379 . S
C394 C391 1.363 . S
C394 N392 1.356 . S
C395 C389 1.363 . S
C395 C390 1.379 . S
C395 N393 1.356 1_655 S
N396 C388 1.356 . S
N396 H402 0.984 . S
N396 H403 0.984 . S
N397 C390 1.356 1_455 S
N397 H400 0.984 . S
N397 H401 0.985 . S
H398 N393 0.984 1_655 S
H399 N393 0.985 . S
H400 N397 0.984 . S
H401 N397 0.985 . S
H402 N396 0.984 . S
H403 N396 0.984 . S
H404 N392 0.984 . S
H405 N392 0.985 . S
C406 C407 1.363 . S
C406 C412 1.379 . S
C406 N414 1.356 . S
C407 C406 1.363 . S
C407 C413 1.363 . S
C408 C409 1.363 . S
C408 C413 1.379 . S
C408 N415 1.356 . S
C409 C408 1.363 . S
C409 C412 1.363 . S
N410 C412 1.356 . S
N410 H422 0.984 . S
N410 H423 0.985 . S
N411 C413 1.356 . S
N411 H416 0.984 . S
N411 H417 0.985 . S
C412 C406 1.379 . S
C412 C409 1.363 . S
C412 N410 1.356 . S
C413 C407 1.363 . S
C413 C408 1.379 . S
C413 N411 1.356 . S
N414 C406 1.356 . S
N414 H420 0.984 . S
N414 H421 0.984 . S
N415 C408 1.356 . S
N415 H418 0.984 . S
N415 H419 0.985 . S
H416 N411 0.984 . S
H417 N411 0.985 . S
H418 N415 0.984 . S
H419 N415 0.985 . S
H420 N414 0.984 . S
H421 N414 0.984 . S
H422 N410 0.984 . S
H423 N410 0.985 . S
C424 C425 1.363 . S
C424 C430 1.379 . S
C424 N432 1.356 . S
C425 C424 1.363 . S
C425 C431 1.363 1_565 S
C426 C427 1.363 1_545 S
C426 C431 1.379 . S
C426 N433 1.356 . S
C427 C426 1.363 1_565 S
C427 C430 1.363 . S
N428 C430 1.356 1_455 S
N428 H440 0.984 . S
N428 H441 0.985 . S
N429 C431 1.356 . S
N429 H434 0.984 . S
N429 H435 0.985 . S
C430 C424 1.379 . S
C430 C427 1.363 . S
C430 N428 1.356 1_655 S
C431 C425 1.363 1_545 S
C431 C426 1.379 . S
C431 N429 1.356 . S
N432 C424 1.356 . S
N432 H438 0.984 . S
N432 H439 0.984 . S
N433 C426 1.356 . S
N433 H436 0.984 . S
N433 H437 0.985 . S
H434 N429 0.984 . S
H435 N429 0.985 . S
H436 N433 0.984 . S
H437 N433 0.985 . S
H438 N432 0.984 . S
H439 N432 0.984 . S
H440 N428 0.984 . S
H441 N428 0.985 . S
C442 C443 1.363 . S
C442 C448 1.379 . S
C442 N450 1.356 . S
C443 C442 1.363 . S
C443 C449 1.363 . S
C444 C445 1.363 . S
C444 C449 1.379 . S
C444 N451 1.356 . S
C445 C444 1.363 . S
C445 C448 1.363 . S
N446 C448 1.356 . S
N446 H458 0.984 . S
N446 H459 0.985 . S
N447 C449 1.356 . S
N447 H452 0.984 . S
N447 H453 0.985 . S
C448 C442 1.379 . S
C448 C445 1.363 . S
C448 N446 1.356 . S
C449 C443 1.363 . S
C449 C444 1.379 . S
C449 N447 1.356 . S
N450 C442 1.356 . S
N450 H456 0.984 . S
N450 H457 0.984 . S
N451 C444 1.356 . S
N451 H454 0.984 . S
N451 H455 0.985 . S
H452 N447 0.984 . S
H453 N447 0.985 . S
H454 N451 0.984 . S
H455 N451 0.985 . S
H456 N450 0.984 . S
H457 N450 0.984 . S
H458 N446 0.984 . S
H459 N446 0.985 . S
C460 C461 1.363 . S
C460 C466 1.379 . S
C460 N468 1.356 . S
C461 C460 1.363 . S
C461 C467 1.363 . S
C462 C463 1.363 . S
C462 C467 1.379 . S
C462 N469 1.356 . S
C463 C462 1.363 . S
C463 C466 1.363 . S
N464 C466 1.356 . S
N464 H476 0.984 . S
N464 H477 0.985 . S
N465 C467 1.356 . S
N465 H470 0.984 . S
N465 H471 0.985 . S
C466 C460 1.379 . S
C466 C463 1.363 . S
C466 N464 1.356 . S
C467 C461 1.363 . S
C467 C462 1.379 . S
C467 N465 1.356 . S
N468 C460 1.356 . S
N468 H474 0.984 . S
N468 H475 0.984 . S
N469 C462 1.356 . S
N469 H472 0.984 . S
N469 H473 0.985 . S
H470 N465 0.984 . S
H471 N465 0.985 . S
H472 N469 0.984 . S
H473 N469 0.985 . S
H474 N468 0.984 . S
H475 N468 0.984 . S
H476 N464 0.984 . S
H477 N464 0.985 . S
C478 C479 1.363 . S
C478 C484 1.379 . S
C478 N486 1.356 . S
C479 C478 1.363 . S
C479 C485 1.363 . S
C480 C481 1.363 . S
C480 C485 1.379 . S
C480 N487 1.356 . S
C481 C480 1.363 . S
C481 C484 1.363 . S
N482 C484 1.356 . S
N482 H494 0.984 . S
N482 H495 0.985 . S
N483 C485 1.356 . S
N483 H488 0.984 . S
N483 H489 0.985 1_455 S
C484 C478 1.379 . S
C484 C481 1.363 . S
C484 N482 1.356 . S
C485 C479 1.363 . S
C485 C480 1.379 . S
C485 N483 1.356 . S
N486 C478 1.356 . S
N486 H492 0.984 . S
N486 H493 0.984 . S
N487 C480 1.356 . S
N487 H490 0.984 . S
N487 H491 0.985 . S
H488 N483 0.984 . S
H489 N483 0.985 1_655 S
H490 N487 0.984 . S
H491 N487 0.985 . S
H492 N486 0.984 . S
H493 N486 0.984 . S
H494 N482 0.984 . S
H495 N482 0.985 . S
C496 C497 1.363 . S
C496 C502 1.379 . S
C496 N504 1.356 . S
C497 C496 1.363 . S
C497 C503 1.363 1_565 S
C498 C499 1.363 1_545 S
C498 C503 1.379 1_554 S
C498 N505 1.356 . S
C499 C498 1.363 1_565 S
C499 C502 1.363 1_554 S
N500 C502 1.356 . S
N500 H512 0.984 . S
N500 H513 0.985 1_556 S
N501 C503 1.356 . S
N501 H506 0.984 . S
N501 H507 0.985 1_556 S
C502 C496 1.379 . S
C502 C499 1.363 1_556 S
C502 N500 1.356 . S
C503 C497 1.363 1_545 S
C503 C498 1.379 1_556 S
C503 N501 1.356 . S
N504 C496 1.356 . S
N504 H510 0.984 . S
N504 H511 0.984 . S
N505 C498 1.356 . S
N505 H508 0.984 . S
N505 H509 0.985 . S
H506 N501 0.984 . S
H507 N501 0.985 1_554 S
H508 N505 0.984 . S
H509 N505 0.985 . S
H510 N504 0.984 . S
H511 N504 0.984 . S
H512 N500 0.984 . S
H513 N500 0.985 1_554 S
C514 C515 1.363 . S
C514 C520 1.379 . S
C514 N522 1.356 . S
C515 C514 1.363 . S
C515 C521 1.363 . S
C516 C517 1.363 . S
C516 C521 1.379 . S
C516 N523 1.356 . S
C517 C516 1.363 . S
C517 C520 1.363 . S
N518 C520 1.356 . S
N518 H530 0.984 . S
N518 H531 0.985 . S
N519 C521 1.356 . S
N519 H524 0.984 . S
N519 H525 0.985 . S
C520 C514 1.379 . S
C520 C517 1.363 . S
C520 N518 1.356 . S
C521 C515 1.363 . S
C521 C516 1.379 . S
C521 N519 1.356 . S
N522 C514 1.356 . S
N522 H528 0.984 . S
N522 H529 0.984 . S
N523 C516 1.356 . S
N523 H526 0.984 . S
N523 H527 0.985 . S
H524 N519 0.984 . S
H525 N519 0.985 . S
H526 N523 0.984 . S
H527 N523 0.985 . S
H528 N522 0.984 . S
H529 N522 0.984 . S
H530 N518 0.984 . S
H531 N518 0.985 . S
C532 C533 1.363 . S
C532 C538 1.379 . S
C532 N540 1.356 . S
C533 C532 1.363 . S
C533 C539 1.363 . S
C534 C535 1.363 . S
C534 C539 1.379 . S
C534 N541 1.356 . S
C535 C534 1.363 . S
C535 C538 1.363 . S
N536 C538 1.356 . S
N536 H548 0.984 . S
N536 H549 0.985 . S
N537 C539 1.356 . S
N537 H542 0.984 . S
N537 H543 0.985 . S
C538 C532 1.379 . S
C538 C535 1.363 . S
C538 N536 1.356 . S
C539 C533 1.363 . S
C539 C534 1.379 . S
C539 N537 1.356 . S
N540 C532 1.356 . S
N540 H546 0.984 . S
N540 H547 0.984 . S
N541 C534 1.356 . S
N541 H544 0.984 . S
N541 H545 0.985 . S
H542 N537 0.984 . S
H543 N537 0.985 . S
H544 N541 0.984 . S
H545 N541 0.985 . S
H546 N540 0.984 . S
H547 N540 0.984 . S
H548 N536 0.984 . S
H549 N536 0.985 . S
C550 C551 1.363 . S
C550 C556 1.379 . S
C550 N558 1.356 . S
C551 C550 1.363 . S
C551 C557 1.363 . S
C552 C553 1.363 . S
C552 C557 1.379 . S
C552 N559 1.356 . S
C553 C552 1.363 . S
C553 C556 1.363 . S
N554 C556 1.356 . S
N554 H566 0.984 . S
N554 H567 0.985 . S
N555 C557 1.356 . S
N555 H560 0.984 . S
N555 H561 0.985 . S
C556 C550 1.379 . S
C556 C553 1.363 . S
C556 N554 1.356 . S
C557 C551 1.363 . S
C557 C552 1.379 . S
C557 N555 1.356 . S
N558 C550 1.356 . S
N558 H564 0.984 . S
N558 H565 0.984 . S
N559 C552 1.356 . S
N559 H562 0.984 . S
N559 H563 0.985 . S
H560 N555 0.984 . S
H561 N555 0.985 . S
H562 N559 0.984 . S
H563 N559 0.985 . S
H564 N558 0.984 . S
H565 N558 0.984 . S
H566 N554 0.984 . S
H567 N554 0.985 . S
C568 C569 1.363 . S
C568 C574 1.379 . S
C568 N576 1.356 . S
C569 C568 1.363 . S
C569 C575 1.363 . S
C570 C571 1.363 1_455 S
C570 C575 1.379 1_455 S
C570 N577 1.356 1_556 S
C571 C570 1.363 1_655 S
C571 C574 1.363 . S
N572 C574 1.356 . S
N572 H584 0.984 . S
N572 H585 0.985 . S
N573 C575 1.356 1_455 S
N573 H578 0.984 1_455 S
N573 H579 0.985 1_556 S
C574 C568 1.379 . S
C574 C571 1.363 . S
C574 N572 1.356 . S
C575 C569 1.363 . S
C575 C570 1.379 1_655 S
C575 N573 1.356 1_655 S
N576 C568 1.356 . S
N576 H582 0.984 . S
N576 H583 0.984 . S
N577 C570 1.356 1_554 S
N577 H580 0.984 . S
N577 H581 0.985 . S
H578 N573 0.984 1_655 S
H579 N573 0.985 1_554 S
H580 N577 0.984 . S
H581 N577 0.985 . S
H582 N576 0.984 . S
H583 N576 0.984 . S
H584 N572 0.984 . S
H585 N572 0.985 . S
C586 C587 1.363 . S
C586 C592 1.379 . S
C586 N594 1.356 . S
C587 C586 1.363 . S
C587 C593 1.363 . S
C588 C589 1.363 . S
C588 C593 1.379 . S
C588 N595 1.356 . S
C589 C588 1.363 . S
C589 C592 1.363 . S
N590 C592 1.356 . S
N590 H602 0.984 . S
N590 H603 0.985 . S
N591 C593 1.356 . S
N591 H596 0.984 . S
N591 H597 0.985 . S
C592 C586 1.379 . S
C592 C589 1.363 . S
C592 N590 1.356 . S
C593 C587 1.363 . S
C593 C588 1.379 . S
C593 N591 1.356 . S
N594 C586 1.356 . S
N594 H600 0.984 . S
N594 H601 0.984 . S
N595 C588 1.356 . S
N595 H598 0.984 . S
N595 H599 0.985 . S
H596 N591 0.984 . S
H597 N591 0.985 . S
H598 N595 0.984 . S
H599 N595 0.985 . S
H600 N594 0.984 . S
H601 N594 0.984 . S
H602 N590 0.984 . S
H603 N590 0.985 . S
C604 C605 1.363 . S
C604 C610 1.379 . S
C604 N612 1.356 . S
C605 C604 1.363 . S
C605 C611 1.363 . S
C606 C607 1.363 . S
C606 C611 1.379 . S
C606 N613 1.356 . S
C607 C606 1.363 . S
C607 C610 1.363 . S
N608 C610 1.356 . S
N608 H620 0.984 1_455 S
N608 H621 0.985 . S
N609 C611 1.356 . S
N609 H614 0.984 . S
N609 H615 0.985 . S
C610 C604 1.379 . S
C610 C607 1.363 . S
C610 N608 1.356 . S
C611 C605 1.363 . S
C611 C606 1.379 . S
C611 N609 1.356 . S
N612 C604 1.356 . S
N612 H618 0.984 . S
N612 H619 0.984 . S
N613 C606 1.356 . S
N613 H616 0.984 . S
N613 H617 0.985 . S
H614 N609 0.984 . S
H615 N609 0.985 . S
H616 N613 0.984 . S
H617 N613 0.985 . S
H618 N612 0.984 . S
H619 N612 0.984 . S
H620 N608 0.984 1_655 S
H621 N608 0.985 . S
C622 C623 1.363 . S
C622 C628 1.379 . S
C622 N630 1.356 . S
C623 C622 1.363 . S
C623 C629 1.363 . S
C624 C625 1.363 . S
C624 C629 1.379 . S
C624 N631 1.356 . S
C625 C624 1.363 . S
C625 C628 1.363 . S
N626 C628 1.356 . S
N626 H638 0.984 . S
N626 H639 0.985 . S
N627 C629 1.356 . S
N627 H632 0.984 . S
N627 H633 0.985 . S
C628 C622 1.379 . S
C628 C625 1.363 . S
C628 N626 1.356 . S
C629 C623 1.363 . S
C629 C624 1.379 . S
C629 N627 1.356 . S
N630 C622 1.356 . S
N630 H636 0.984 . S
N630 H637 0.984 . S
N631 C624 1.356 . S
N631 H634 0.984 . S
N631 H635 0.985 . S
H632 N627 0.984 . S
H633 N627 0.985 . S
H634 N631 0.984 . S
H635 N631 0.985 . S
H636 N630 0.984 . S
H637 N630 0.984 . S
H638 N626 0.984 . S
H639 N626 0.985 . S
C209 C6 2.283 . S
C211 C104 2.299 . S
C227 C20 1.377 . S
C229 N124 1.374 . S
C247 C158 1.679 . S
C245 N26 1.673 . S
C263 N37 1.235 . S
C265 N192 1.157 . S
C283 C145 2.636 . S
C281 C9 2.623 . S
C301 N102 0.973 . S
C299 N15 0.990 . S
C319 C179 1.921 1_556 S
C317 C31 1.904 . S
C337 N154 1.001 . S
C335 C39 1.004 . S
C353 N4 1.803 . S
C355 C194 1.819 . S
C373 C128 1.786 1_556 S
C371 C28 1.746 . S
C389 C42 1.176 . S
C391 C89 1.198 . S
C407 C17 1.541 . S
C409 C175 1.560 . S
C427 C115 2.363 1_565 S
C425 C50 2.357 . S
C443 C61 1.185 . S
C445 N132 1.183 . S
C461 N70 1.925 . S
C463 C149 1.931 . S
C479 N81 1.131 . S
C481 N184 1.089 . S
C497 N48 2.094 . S
C499 C134 2.117 1_565 S
C517 N94 1.419 . S
C515 C64 1.414 . S
C535 C188 1.950 . S
C533 C75 1.920 . S
C553 N162 1.085 . S
C551 C86 1.074 . S
C569 C53 2.006 . S
C571 C205 2.014 1_655 S
C589 C119 1.506 . S
C587 C72 1.489 . S
C607 C98 1.465 . S
C605 C83 1.454 . S
C623 N59 1.399 . S
C625 C164 1.415 . S
