# Generated by pormake.
# Topology pyr, (3,6)-cn, num edge types: 1
# Building blocks:
#     Node 0, Type 0, BuildingBlock: BETDAH_clean_linker_0, # of connection points: 3
#     Node 1, Type 0, BuildingBlock: BETDAH_clean_linker_0, # of connection points: 3
#     Node 2, Type 0, BuildingBlock: BETDAH_clean_linker_0, # of connection points: 3
#     Node 3, Type 0, BuildingBlock: BETDAH_clean_linker_0, # of connection points: 3
#     Node 4, Type 0, BuildingBlock: BETDAH_clean_linker_0, # of connection points: 3
#     Node 5, Type 0, BuildingBlock: BETDAH_clean_linker_0, # of connection points: 3
#     Node 6, Type 0, BuildingBlock: BETDAH_clean_linker_0, # of connection points: 3
#     Node 7, Type 0, BuildingBlock: BETDAH_clean_linker_0, # of connection points: 3
#     Node 8, Type 1, BuildingBlock: LEVNOQ01_clean_sbu_1, # of connection points: 6
#     Node 9, Type 1, BuildingBlock: LEVNOQ01_clean_sbu_1, # of connection points: 6
#     Node 10, Type 1, BuildingBlock: LEVNOQ01_clean_sbu_1, # of connection points: 6
#     Node 11, Type 1, BuildingBlock: LEVNOQ01_clean_sbu_1, # of connection points: 6
#     Edge 12, Type (0, 1), BuildingBlock: EZIPEK_clean_linker_0, # of connection points: 2
#     Edge 13, Type (0, 1), BuildingBlock: EZIPEK_clean_linker_0, # of connection points: 2
#     Edge 14, Type (0, 1), BuildingBlock: EZIPEK_clean_linker_0, # of connection points: 2
#     Edge 15, Type (0, 1), BuildingBlock: EZIPEK_clean_linker_0, # of connection points: 2
#     Edge 16, Type (0, 1), BuildingBlock: EZIPEK_clean_linker_0, # of connection points: 2
#     Edge 17, Type (0, 1), BuildingBlock: EZIPEK_clean_linker_0, # of connection points: 2
#     Edge 18, Type (0, 1), BuildingBlock: EZIPEK_clean_linker_0, # of connection points: 2
#     Edge 19, Type (0, 1), BuildingBlock: EZIPEK_clean_linker_0, # of connection points: 2
#     Edge 20, Type (0, 1), BuildingBlock: EZIPEK_clean_linker_0, # of connection points: 2
#     Edge 21, Type (0, 1), BuildingBlock: EZIPEK_clean_linker_0, # of connection points: 2
#     Edge 22, Type (0, 1), BuildingBlock: EZIPEK_clean_linker_0, # of connection points: 2
#     Edge 23, Type (0, 1), BuildingBlock: EZIPEK_clean_linker_0, # of connection points: 2
#     Edge 24, Type (0, 1), BuildingBlock: EZIPEK_clean_linker_0, # of connection points: 2
#     Edge 25, Type (0, 1), BuildingBlock: EZIPEK_clean_linker_0, # of connection points: 2
#     Edge 26, Type (0, 1), BuildingBlock: EZIPEK_clean_linker_0, # of connection points: 2
#     Edge 27, Type (0, 1), BuildingBlock: EZIPEK_clean_linker_0, # of connection points: 2
#     Edge 28, Type (0, 1), BuildingBlock: EZIPEK_clean_linker_0, # of connection points: 2
#     Edge 29, Type (0, 1), BuildingBlock: EZIPEK_clean_linker_0, # of connection points: 2
#     Edge 30, Type (0, 1), BuildingBlock: EZIPEK_clean_linker_0, # of connection points: 2
#     Edge 31, Type (0, 1), BuildingBlock: EZIPEK_clean_linker_0, # of connection points: 2
#     Edge 32, Type (0, 1), BuildingBlock: EZIPEK_clean_linker_0, # of connection points: 2
#     Edge 33, Type (0, 1), BuildingBlock: EZIPEK_clean_linker_0, # of connection points: 2
#     Edge 34, Type (0, 1), BuildingBlock: EZIPEK_clean_linker_0, # of connection points: 2
#     Edge 35, Type (0, 1), BuildingBlock: EZIPEK_clean_linker_0, # of connection points: 2
# Relax obj value: 0.083
# Max RMSD: 0.171
# Mean RMSD: 0.132
data_MOF--net-pry--node1-LEVNOQ01_clean_sbu_1--node2-BETDAH_clean_linker_0--edge1-EZIPEK_clean_linker_0
_symmetry_space_group_name_H-M    P1
_symmetry_Int_Tables_number       1
_symmetry_cell_setting            triclinic
loop_
_symmetry_equiv_pos_as_xyz
'x, y, z'
_cell_length_a     26.617319
_cell_length_b     26.029354
_cell_length_c     26.451313
_cell_angle_alpha  93.176398
_cell_angle_beta   91.8939
_cell_angle_gamma 101.13096
loop_
_atom_site_label
_atom_site_type_symbol
_atom_site_fract_x
_atom_site_fract_y
_atom_site_fract_z
_atom_type_partial_charge
H0 H 0.18013 0.08234 0.21762 0.0
H1 H 0.17911 0.17099 0.08478 0.0
H2 H 0.06199 0.17115 0.19264 0.0
C3 C 0.1639 0.10935 0.19532 0.0
C4 C 0.12047 0.12754 0.21231 0.0
C5 C 0.18666 0.12594 0.14999 0.0
C6 C 0.16349 0.15944 0.12068 0.0
C7 C 0.11837 0.17549 0.13542 0.0
C8 C 0.09758 0.16021 0.18179 0.0
N9 N 0.08827 0.19539 0.09853 0.0
C10 C 0.08508 0.24802 0.0951 0.0
H11 H 0.48731 0.90261 0.72887 0.0
H12 H 0.35861 0.9755 0.69551 0.0
H13 H 0.39029 0.8541 0.59408 0.0
C14 C 0.45498 0.90573 0.70408 0.0
C15 C 0.44328 0.87248 0.6594 0.0
C16 C 0.42177 0.93961 0.71966 0.0
C17 C 0.38279 0.94785 0.68535 0.0
C18 C 0.37492 0.919 0.63828 0.0
C19 C 0.40182 0.8793 0.62813 0.0
N20 N 0.34228 0.92908 0.59835 0.0
C21 C 0.29859 0.94983 0.60294 0.0
H22 H 0.69871 0.33093 0.95649 0.0
H23 H 0.65482 0.46491 0.8949 0.0
H24 H 0.54561 0.32405 0.89375 0.0
C25 C 0.6684 0.34887 0.94152 0.0
C26 C 0.6173 0.32032 0.93522 0.0
C27 C 0.68128 0.40141 0.92929 0.0
C28 C 0.64471 0.42461 0.90522 0.0
C29 C 0.59582 0.3948 0.89287 0.0
C30 C 0.5827 0.34387 0.90754 0.0
N31 N 0.55885 0.41404 0.86405 0.0
C32 C 0.57279 0.45071 0.82905 0.0
H33 H 0.84093 0.69518 0.47665 0.0
H34 H 0.96307 0.64158 0.39987 0.0
H35 H 0.83793 0.52994 0.45063 0.0
C36 C 0.8587 0.66331 0.46278 0.0
C37 C 0.83401 0.61121 0.46795 0.0
C38 C 0.90687 0.67491 0.4412 0.0
C39 C 0.92726 0.63362 0.41897 0.0
C40 C 0.90006 0.58184 0.41949 0.0
C41 C 0.85685 0.57049 0.44837 0.0
N42 N 0.91113 0.54224 0.38548 0.0
C43 C 0.90372 0.54588 0.3336 0.0
H44 H 0.93691 0.84943 0.82492 0.0
H45 H 0.87286 0.87661 0.96859 0.0
H46 H 0.83183 0.95667 0.84112 0.0
C47 C 0.91123 0.86797 0.84729 0.0
C48 C 0.88575 0.90545 0.82571 0.0
C49 C 0.90412 0.85493 0.89824 0.0
C50 C 0.87524 0.88307 0.92852 0.0
C51 C 0.84922 0.91937 0.90811 0.0
C52 C 0.85195 0.92807 0.85627 0.0
N53 N 0.82935 0.9536 0.94218 0.0
C54 C 0.77847 0.95926 0.9428 0.0
H55 H 0.67283 0.07177 0.36913 0.0
H56 H 0.70606 0.18563 0.49557 0.0
H57 H 0.584 0.19338 0.38794 0.0
C58 C 0.66412 0.10558 0.39033 0.0
C59 C 0.6252 0.13054 0.37179 0.0
C60 C 0.69458 0.12643 0.43402 0.0
C61 C 0.68286 0.16941 0.46185 0.0
C62 C 0.64186 0.19213 0.44696 0.0
C63 C 0.61411 0.17402 0.40096 0.0
N64 N 0.63088 0.23333 0.47964 0.0
C65 C 0.59265 0.262 0.47213 0.0
H66 H 0.35359 0.74051 0.09995 0.0
H67 H 0.29475 0.59431 0.16406 0.0
H68 H 0.43862 0.68791 0.22143 0.0
C69 C 0.35824 0.71086 0.12606 0.0
C70 C 0.40069 0.71917 0.16021 0.0
C71 C 0.31984 0.6664 0.12784 0.0
C72 C 0.3251 0.62842 0.16179 0.0
C73 C 0.36731 0.6363 0.19583 0.0
C74 C 0.40579 0.68158 0.19493 0.0
N75 N 0.36762 0.60065 0.23377 0.0
C76 C 0.36926 0.61775 0.28429 0.0
H77 H 0.16562 0.36832 0.55055 0.0
H78 H 0.15356 0.51545 0.62633 0.0
H79 H 0.02201 0.3904 0.60922 0.0
C80 C 0.14215 0.39408 0.56697 0.0
C81 C 0.09031 0.37396 0.57554 0.0
C82 C 0.16531 0.44526 0.58502 0.0
C83 C 0.13566 0.47689 0.60997 0.0
C84 C 0.08379 0.45744 0.61741 0.0
C85 C 0.06099 0.40641 0.59964 0.0
N86 N 0.05705 0.48555 0.65045 0.0
C87 C 0.0648 0.48301 0.70222 0.0
O88 O -0.00624 0.0268 0.65412 0.0
Mg89 Mg 0.03387 0.06503 0.5984 0.0
O90 O 0.94811 0.98498 0.58906 0.0
Mg91 Mg 0.99233 0.02222 0.51403 0.0
O92 O 0.01755 0.1129 0.54334 0.0
O93 O 0.03601 0.13836 0.62525 0.0
O94 O 0.0342 0.05213 0.43858 0.0
O95 O 0.91509 0.05388 0.49402 0.0
Mg96 Mg 0.93344 0.97929 0.43719 0.0
O97 O 0.97096 0.93337 0.48001 0.0
O98 O 0.97055 0.02786 0.3826 0.0
O99 O 0.86081 0.98759 0.45722 0.0
O100 O 0.92472 0.90609 0.40727 0.0
C101 C 0.1098 0.01579 0.5659 0.0
C102 C 0.95683 0.99208 0.63735 0.0
C103 C 0.02949 0.14997 0.57925 0.0
C104 C 0.01623 0.05101 0.39292 0.0
C105 C 0.86952 0.03324 0.4777 0.0
C106 C 0.95111 0.8962 0.44591 0.0
O107 O 0.1073 0.05284 0.59766 0.0
O108 O 0.07172 -0.00293 0.53509 0.0
O109 O 0.40463 0.13691 0.08341 0.0
Mg110 Mg 0.48509 0.16093 0.09248 0.0
O111 O 0.4034 0.05104 0.07165 0.0
Mg112 Mg 0.48812 0.0373 0.05245 0.0
O113 O 0.51553 0.11996 0.03854 0.0
O114 O 0.53237 0.20578 0.04256 0.0
O115 O 0.56932 0.02425 0.03215 0.0
O116 O 0.46755 0.02785 0.96023 0.0
Mg117 Mg 0.46414 0.95539 1.00798 0.0
O118 O 0.46641 0.951 0.08308 0.0
O119 O 0.53847 0.95787 0.9782 0.0
O120 O 0.40014 0.96714 0.96282 0.0
O121 O 0.44352 0.88165 0.02697 0.0
C122 C 0.52435 0.09527 0.17208 0.0
C123 C 0.38029 0.08972 0.07968 0.0
C124 C 0.54094 0.16218 0.02236 0.0
C125 C 0.57688 0.98981 0.99846 0.0
C126 C 0.42881 -0.00145 0.9368 0.0
C127 C 0.45394 0.90068 0.07287 0.0
O128 O 0.51718 0.14043 0.16141 0.0
O129 O 0.51494 0.05594 0.13926 0.0
O130 O 0.44888 0.64616 0.62069 0.0
Mg131 Mg 0.4688 0.57378 0.63289 0.0
O132 O 0.51732 0.6507 0.57772 0.0
Mg133 Mg 0.50703 0.55886 0.55599 0.0
O134 O 0.53389 0.54024 0.63541 0.0
O135 O 0.51706 0.59828 0.6934 0.0
O136 O 0.50305 0.46952 0.52817 0.0
O137 O 0.59579 0.57449 0.54806 0.0
Mg138 Mg 0.5447 0.55656 0.44688 0.0
O139 O 0.48496 0.58045 0.47848 0.0
O140 O 0.5346 0.47481 0.45196 0.0
O141 O 0.61309 0.60547 0.47374 0.0
O142 O 0.49956 0.58468 0.39613 0.0
C143 C 0.38522 0.51737 0.59869 0.0
C144 C 0.48517 0.67359 0.59967 0.0
C145 C 0.54668 0.56797 0.67751 0.0
C146 C 0.51532 0.44712 0.48715 0.0
C147 C 0.62806 0.59578 0.51734 0.0
C148 C 0.47222 0.59286 0.43406 0.0
O149 O 0.40331 0.52005 0.64376 0.0
O150 O 0.41475 0.53398 0.56322 0.0
O151 O 0.02694 0.47048 0.1159 0.0
Mg152 Mg 0.03444 0.5503 0.10972 0.0
O153 O 0.0284 0.47799 0.0338 0.0
Mg154 Mg 0.00036 0.56067 0.01781 0.0
O155 O 0.96629 0.57379 0.0996 0.0
O156 O 0.01312 0.58276 0.1732 0.0
O157 O 0.97381 0.64628 1.00358 0.0
O158 O 0.91889 0.51109 1.00045 0.0
Mg159 Mg 0.97852 0.58488 0.93268 0.0
O160 O 0.03122 0.53773 0.93794 0.0
O161 O 0.0047 0.66485 0.93006 0.0
O162 O 0.89906 0.557 0.93839 0.0
O163 O 0.99289 0.55483 0.86525 0.0
C164 C 0.11789 0.6129 0.06343 0.0
C165 C 0.03262 0.45083 0.07241 0.0
C166 C 0.97034 0.58211 0.14884 0.0
C167 C 0.98463 0.67952 0.96922 0.0
C168 C 0.88597 0.5216 0.96875 0.0
C169 C 0.02551 0.53322 0.88885 0.0
O170 O 0.1086 0.58912 0.10302 0.0
O171 O 0.08309 0.61078 0.02906 0.0
C172 C 0.11003 0.13612 0.30749 0.0
C173 C 0.09618 0.10797 0.25985 0.0
C174 C 0.04218 0.03806 0.30309 0.0
C175 C 0.04871 0.0699 0.34939 0.0
N176 N 0.08626 0.15276 0.39389 0.0
N177 N 0.04309 0.03504 0.21154 0.0
C178 C 0.08242 0.11976 0.35136 0.0
C179 C 0.06038 0.05989 0.25748 0.0
N180 N 0.14988 0.17818 0.31093 0.0
N181 N 0.0211 0.9858 0.30305 0.0
H182 H 0.05636 0.04885 0.17719 0.0
H183 H 0.01243 0.00324 0.20748 0.0
H184 H 0.01154 0.96689 0.33614 0.0
H185 H 0.0193 0.9599 0.27126 0.0
H186 H 0.16567 0.19672 0.34533 0.0
H187 H 0.16992 0.1918 0.27953 0.0
H188 H 0.10616 0.19146 0.39564 0.0
H189 H 0.06608 0.14311 0.4262 0.0
C190 C 0.43318 0.01146 0.79196 0.0
C191 C 0.42207 0.95756 0.77459 0.0
C192 C 0.42414 0.93306 0.86219 0.0
C193 C 0.4283 0.98624 0.88055 0.0
N194 N 0.42829 0.07563 0.86127 0.0
N195 N 0.38873 0.86858 0.79539 0.0
C196 C 0.43056 0.02554 0.84493 0.0
C197 C 0.41187 0.91889 0.81038 0.0
N198 N 0.44737 0.04896 0.75837 0.0
N199 N 0.43475 0.89598 0.89325 0.0
H200 H 0.37601 0.85696 0.75802 0.0
H201 H 0.37695 0.8402 0.82114 0.0
H202 H 0.44902 0.90481 0.93036 0.0
H203 H 0.43618 0.85785 0.87985 0.0
H204 H 0.46061 0.08842 0.76949 0.0
H205 H 0.44973 0.0398 0.71973 0.0
H206 H 0.4247 0.10476 0.83668 0.0
H207 H 0.42608 0.08685 0.89949 0.0
C208 C 0.57254 0.53885 0.80208 0.0
C209 C 0.58554 0.4893 0.7929 0.0
C210 C 0.6046 0.50846 0.70578 0.0
C211 C 0.58441 0.55452 0.71431 0.0
N212 N 0.58432 0.62702 0.77449 0.0
N213 N 0.6318 0.43456 0.74371 0.0
C214 C 0.58184 0.57472 0.76434 0.0
C215 C 0.60812 0.47663 0.74723 0.0
N216 N 0.54792 0.55034 0.84448 0.0
N217 N 0.61806 0.49469 0.65837 0.0
H218 H 0.63455 0.41123 0.77417 0.0
H219 H 0.65204 0.42555 0.7125 0.0
H220 H 0.61994 0.5205 0.62935 0.0
H221 H 0.6273 0.45854 0.64817 0.0
H222 H 0.53247 0.58415 0.84885 0.0
H223 H 0.53963 0.52438 0.87311 0.0
H224 H 0.5838 0.64362 0.81123 0.0
H225 H 0.59224 0.65346 0.74614 0.0
C226 C 0.90722 0.50765 0.24623 0.0
C227 C 0.89891 0.54952 0.27914 0.0
C228 C 0.91055 0.6091 0.21059 0.0
C229 C 0.92515 0.5691 0.17968 0.0
N230 N 0.91596 0.47665 0.15925 0.0
N231 N 0.86796 0.6303 0.28654 0.0
C232 C 0.91494 0.51675 0.19441 0.0
C233 C 0.89216 0.5972 0.25926 0.0
N234 N 0.91049 0.46047 0.26492 0.0
N235 N 0.91748 0.65876 0.19461 0.0
H236 H 0.85336 0.62109 0.32181 0.0
H237 H 0.85866 0.66396 0.27224 0.0
H238 H 0.92971 0.66707 0.15829 0.0
H239 H 0.91276 0.69107 0.21773 0.0
H240 H 0.92249 0.43039 0.24388 0.0
H241 H 0.90314 0.45237 0.30248 0.0
H242 H 0.90635 0.4372 0.16681 0.0
H243 H 0.92165 0.4834 0.12113 0.0
C244 C 0.23595 0.08543 0.08199 0.0
C245 C 0.23403 0.10739 0.13246 0.0
C246 C 0.32069 0.09126 0.14944 0.0
C247 C 0.32668 0.08165 0.09711 0.0
N248 N 0.29001 0.07145 0.01213 0.0
N249 N 0.2813 0.14013 0.21139 0.0
C250 C 0.28415 0.07894 0.06286 0.0
C251 C 0.27804 0.11215 0.16577 0.0
N252 N 0.19176 0.06903 0.053 0.0
N253 N 0.3564 0.08102 0.18356 0.0
H254 H 0.25337 0.16061 0.22326 0.0
H255 H 0.3146 0.14816 0.23468 0.0
H256 H 0.38686 0.06383 0.1721 0.0
H257 H 0.35209 0.08358 0.22261 0.0
H258 H 0.19065 0.04926 0.01752 0.0
H259 H 0.15566 0.06991 0.06682 0.0
H260 H 0.26192 0.07494 0.98484 0.0
H261 H 0.32426 0.06443 0.99765 0.0
C262 C 0.25049 0.01789 0.58131 0.0
C263 C 0.25033 0.96591 0.59426 0.0
C264 C 0.15692 0.94337 0.58198 0.0
C265 C 0.15735 -0.00515 0.56672 0.0
N266 N 0.20434 0.07688 0.54024 0.0
N267 N 0.20601 0.87624 0.59833 0.0
C268 C 0.20423 0.03083 0.56279 0.0
C269 C 0.20432 0.92767 0.59187 0.0
N270 N 0.29459 0.05503 0.58762 0.0
N271 N 0.11151 0.91055 0.58979 0.0
H272 H 0.23978 0.86357 0.60786 0.0
H273 H 0.17461 0.84569 0.59097 0.0
H274 H 0.07584 0.9201 0.58234 0.0
H275 H 0.10906 0.87508 0.60679 0.0
H276 H 0.29595 0.09485 0.58369 0.0
H277 H 0.32926 0.04662 0.60101 0.0
H278 H 0.23764 0.10275 0.53207 0.0
H279 H 0.17098 0.0867 0.52507 0.0
C280 C 0.77056 0.43318 0.9027 0.0
C281 C 0.73394 0.43174 0.94048 0.0
C282 C 0.79737 0.48934 0.99833 0.0
C283 C 0.83459 0.48804 0.96142 0.0
N284 N 0.86025 0.45053 0.88327 0.0
N285 N 0.71214 0.45352 0.02575 0.0
C286 C 0.82218 0.45767 0.91491 0.0
C287 C 0.7473 0.45831 0.98889 0.0
N288 N 0.75575 0.4121 0.85476 0.0
N289 N 0.80941 0.52173 0.04131 0.0
H290 H 0.67454 0.43297 0.01941 0.0
H291 H 0.72078 0.46719 0.06334 0.0
H292 H 0.84597 0.54415 0.04965 0.0
H293 H 0.78275 0.52895 0.06735 0.0
H294 H 0.77924 0.41771 0.82404 0.0
H295 H 0.71858 0.39223 0.84461 0.0
H296 H 0.85446 0.42441 0.85141 0.0
H297 H 0.89883 0.4669 0.89138 0.0
C298 C 0.74183 0.5624 0.46485 0.0
C299 C 0.78233 0.59982 0.48996 0.0
C300 C 0.72022 0.62759 0.54691 0.0
C301 C 0.6815 0.589 0.52207 0.0
N302 N 0.66072 0.50507 0.47584 0.0
N303 N 0.81138 0.65413 0.56676 0.0
C304 C 0.69471 0.5507 0.48821 0.0
C305 C 0.77208 0.62805 0.53509 0.0
N306 N 0.74554 0.54253 0.41653 0.0
N307 N 0.70745 0.66429 0.58025 0.0
H308 H 0.84951 0.65206 0.56089 0.0
H309 H 0.80559 0.67267 0.60142 0.0
H310 H 0.66969 0.66292 0.59056 0.0
H311 H 0.73388 0.69678 0.5955 0.0
H312 H 0.71485 0.51788 0.39661 0.0
H313 H 0.77594 0.55617 0.39389 0.0
H314 H 0.66985 0.47479 0.4526 0.0
H315 H 0.62624 0.49578 0.49403 0.0
C316 C 0.10054 0.34465 0.11616 0.0
C317 C 0.07652 0.3005 0.08466 0.0
C318 C 0.02802 0.35612 0.03801 0.0
C319 C 0.05223 0.40043 0.06967 0.0
N320 N 0.12424 0.43939 0.1262 0.0
N321 N 0.02797 0.26619 1.00751 0.0
C322 C 0.09243 0.39536 0.10491 0.0
C323 C 0.04372 0.30695 0.04286 0.0
N324 N 0.13033 0.33816 0.1575 0.0
N325 N 0.98842 0.36009 1.00521 0.0
H326 H 0.03822 0.22968 0.01021 0.0
H327 H 0.00861 0.26988 0.97345 0.0
H328 H 0.97612 0.39521 1.00032 0.0
H329 H 0.96555 0.32795 0.98518 0.0
H330 H 0.14393 0.36804 0.18526 0.0
H331 H 0.13842 0.30183 0.16597 0.0
H332 H 0.15678 0.4384 0.14882 0.0
H333 H 0.12156 0.4771 0.11642 0.0
C334 C 0.56286 0.22618 0.92985 0.0
C335 C 0.60262 0.26579 0.95466 0.0
C336 C 0.62653 0.19596 1.00389 0.0
C337 C 0.5812 0.16293 0.98527 0.0
N338 N 0.53783 0.1336 0.90591 0.0
N339 N 0.65945 0.28634 0.03033 0.0
C340 C 0.56346 0.17335 0.93776 0.0
C341 C 0.6328 0.25013 0.99505 0.0
N342 N 0.51711 0.23703 0.91414 0.0
N343 N 0.65875 0.17679 0.03548 0.0
H344 H 0.65559 0.32552 0.03209 0.0
H345 H 0.67904 0.27617 0.06185 0.0
H346 H 0.65086 0.13736 0.04398 0.0
H347 H 0.69409 0.19874 0.04907 0.0
H348 H 0.48821 0.20857 0.89583 0.0
H349 H 0.50322 0.26749 0.93274 0.0
H350 H 0.5236 0.14053 0.87019 0.0
H351 H 0.53557 0.09454 0.91447 0.0
C352 C 0.93964 0.75896 0.49184 0.0
C353 C 0.93479 0.73064 0.44402 0.0
C354 C 0.96701 0.8131 0.4054 0.0
C355 C 0.95691 0.84122 0.45007 0.0
N356 N 0.92562 0.83832 0.53494 0.0
N357 N 0.94171 0.73321 0.35292 0.0
C358 C 0.94225 0.8138 0.49368 0.0
C359 C 0.94894 0.7581 0.40004 0.0
N360 N 0.94022 0.73322 0.53534 0.0
N361 N 0.99282 0.83924 0.36778 0.0
H362 H 0.92803 0.69327 0.34679 0.0
H363 H 0.94565 0.75314 0.31972 0.0
H364 H 0.00752 0.87952 0.37164 0.0
H365 H 0.00439 0.82014 0.33581 0.0
H366 H 0.94687 0.75284 0.57111 0.0
H367 H 0.93973 0.69298 0.53486 0.0
H368 H 0.90858 0.81765 0.56462 0.0
H369 H 0.9239 0.87797 0.53734 0.0
C370 C 0.48691 0.79448 0.67898 0.0
C371 C 0.4711 0.82889 0.64402 0.0
C372 C 0.47491 0.76307 0.57523 0.0
C373 C 0.49355 0.73109 0.60964 0.0
N374 N 0.53834 0.72819 0.68943 0.0
N375 N 0.47677 0.8529 0.5566 0.0
C376 C 0.50771 0.75154 0.65969 0.0
C377 C 0.47464 0.81576 0.59125 0.0
N378 N 0.47682 0.79758 0.72913 0.0
N379 N 0.45388 0.74274 0.52906 0.0
H380 H 0.47987 0.89259 0.56754 0.0
H381 H 0.48083 0.84444 0.51809 0.0
H382 H 0.45048 0.70313 0.51783 0.0
H383 H 0.43578 0.76439 0.5047 0.0
H384 H 0.48557 0.77056 0.75405 0.0
H385 H 0.45328 0.82124 0.74438 0.0
H386 H 0.552 0.74381 0.72558 0.0
H387 H 0.55458 0.6973 0.675 0.0
C388 C 0.90555 0.97968 0.76549 0.0
C389 C 0.89739 0.92491 0.77329 0.0
C390 C 0.92262 0.91072 0.68529 0.0
C391 C 0.9242 0.96437 0.67657 0.0
N392 N 0.9002 0.04519 0.70519 0.0
N393 N 0.88376 0.83731 0.73264 0.0
C394 C 0.9088 -0.00327 0.71545 0.0
C395 C 0.90124 0.88994 0.73065 0.0
N396 N 0.91569 0.01616 0.80549 0.0
N397 N 0.94466 0.88041 0.65254 0.0
H398 H 0.86469 0.82106 0.76353 0.0
H399 H 0.88299 0.81101 0.70128 0.0
H400 H 0.96283 0.8952 0.62063 0.0
H401 H 0.9488 0.84244 0.65986 0.0
H402 H 0.92551 0.05632 0.80075 0.0
H403 H 0.92158 0.00639 0.8426 0.0
H404 H 0.88589 0.06909 0.7318 0.0
H405 H 0.90228 0.05853 0.66863 0.0
C406 C 0.54302 0.10656 0.31638 0.0
C407 C 0.59722 0.11245 0.32128 0.0
C408 C 0.59657 0.08319 0.23095 0.0
C409 C 0.54547 0.09026 0.22415 0.0
N410 N 0.47078 0.11388 0.26143 0.0
N411 N 0.67638 0.11685 0.27721 0.0
C412 C 0.51881 0.10333 0.26724 0.0
C413 C 0.6243 0.10265 0.27713 0.0
N414 N 0.51433 0.10229 0.35834 0.0
N415 N 0.61964 0.06025 0.19291 0.0
H416 H 0.69791 0.13865 0.30724 0.0
H417 H 0.69724 0.11382 0.24489 0.0
H418 H 0.60106 0.04657 0.15813 0.0
H419 H 0.65533 0.04993 0.19816 0.0
H420 H 0.47437 0.09397 0.35628 0.0
H421 H 0.53033 0.1008 0.39464 0.0
H422 H 0.45218 0.12944 0.29096 0.0
H423 H 0.45122 0.11054 0.22635 0.0
C424 C 0.35239 0.59057 0.36946 0.0
C425 C 0.37425 0.63007 0.33807 0.0
C426 C 0.44046 0.66595 0.40238 0.0
C427 C 0.42839 0.61757 0.42497 0.0
N428 N 0.36623 0.54182 0.4427 0.0
N429 N 0.42633 0.7147 0.32933 0.0
C430 C 0.38064 0.5836 0.414 0.0
C431 C 0.41323 0.67199 0.35705 0.0
N432 N 0.3072 0.55805 0.35418 0.0
N433 N 0.48207 0.70214 0.42091 0.0
H434 H 0.40447 0.71891 0.29707 0.0
H435 H 0.45663 0.74586 0.33868 0.0
H436 H 0.50421 0.69508 0.45219 0.0
H437 H 0.49371 0.73889 0.4069 0.0
H438 H 0.28838 0.52807 0.37511 0.0
H439 H 0.28719 0.56362 0.32091 0.0
H440 H 0.33305 0.51344 0.43589 0.0
H441 H 0.38851 0.53627 0.47423 0.0
C442 C 0.03493 0.44481 0.78176 0.0
C443 C 0.07063 0.48106 0.75653 0.0
C444 C 0.09897 0.53169 0.83605 0.0
C445 C 0.05545 0.50307 0.85782 0.0
N446 N -0.0067 0.42395 0.86101 0.0
N447 N 0.14725 0.54766 0.75991 0.0
C448 C 0.02806 0.45571 0.83397 0.0
C449 C 0.10696 0.52038 0.78412 0.0
N450 N 0.00642 0.40201 0.75505 0.0
N451 N 0.1297 0.5717 0.86451 0.0
H452 H 0.15358 0.53869 0.72198 0.0
H453 H 0.17544 0.57716 0.77733 0.0
H454 H 0.1235 0.57899 0.90281 0.0
H455 H 0.16126 0.59649 0.85124 0.0
H456 H 0.97798 0.37482 0.77026 0.0
H457 H 0.01235 0.39319 0.71699 0.0
H458 H 0.97066 0.3887 0.84672 0.0
H459 H 0.98905 0.43274 0.89949 0.0
C460 C 0.72247 -0.00422 1.00226 0.0
C461 C 0.72818 0.9694 0.95514 0.0
C462 C 0.63785 0.96693 0.93278 0.0
C463 C 0.62988 0.98537 0.98322 0.0
N464 N 0.66521 0.00365 0.06967 0.0
N465 N 0.68914 0.92092 0.87912 0.0
C466 C 0.6724 -0.00344 0.01904 0.0
C467 C 0.68516 0.95197 0.92155 0.0
N468 N 0.76472 0.01978 0.03142 0.0
N469 N 0.60177 0.96656 0.89471 0.0
H470 H 0.72355 0.91019 0.86934 0.0
H471 H 0.65739 0.90239 0.85633 0.0
H472 H 0.56928 0.98287 0.89941 0.0
H473 H 0.6075 0.95663 0.85692 0.0
H474 H 0.76252 0.0442 0.06354 0.0
H475 H 0.80209 0.01939 0.0209 0.0
H476 H 0.69492 0.00787 0.09717 0.0
H477 H 0.62926 -0.00196 0.08506 0.0
C478 C 0.7497 0.08808 0.49657 0.0
C479 C 0.74216 0.10703 0.44796 0.0
C480 C 0.82156 0.08228 0.42101 0.0
C481 C 0.83022 0.06539 0.47004 0.0
N482 N 0.8106 0.06557 0.55805 0.0
N483 N 0.78212 0.14111 0.37301 0.0
C484 C 0.79701 0.07296 0.50916 0.0
C485 C 0.78135 0.10964 0.41269 0.0
N486 N 0.71098 0.08192 0.52965 0.0
N487 N 0.8513 0.07189 0.38208 0.0
H488 H 0.75686 0.16686 0.3696 0.0
H489 H 0.81187 0.14709 0.34802 0.0
H490 H 0.88303 0.05444 0.38696 0.0
H491 H 0.84223 0.07763 0.34443 0.0
H492 H 0.71302 0.06412 0.56377 0.0
H493 H 0.67498 0.09016 0.52097 0.0
H494 H 0.79032 0.07555 0.58891 0.0
H495 H 0.84503 0.05429 0.56791 0.0
C496 C 0.25769 0.62187 0.05914 0.0
C497 C 0.27122 0.66208 0.0983 0.0
C498 C 0.18758 0.68619 0.08751 0.0
C499 C 0.17081 0.63935 0.05753 0.0
N500 N 0.18838 0.56368 0.01055 0.0
N501 N 0.24805 0.73076 0.15313 0.0
C502 C 0.20586 0.60823 0.04082 0.0
C503 C 0.23642 0.69483 0.11267 0.0
N504 N 0.29418 0.59641 0.04053 0.0
N505 N 0.15534 0.72072 0.0937 0.0
H506 H 0.28265 0.73717 0.1743 0.0
H507 H 0.22166 0.75132 0.16848 0.0
H508 H 0.11901 0.71379 0.07548 0.0
H509 H 0.1664 0.75775 0.11227 0.0
H510 H 0.28758 0.56911 0.00961 0.0
H511 H 0.33246 0.60578 0.05368 0.0
H512 H 0.21015 0.53541 1.00201 0.0
H513 H 0.15082 0.55443 0.99526 0.0
C514 C 0.25406 0.43667 0.61408 0.0
C515 C 0.22206 0.46282 0.58511 0.0
C516 C 0.29785 0.52668 0.56419 0.0
C517 C 0.32976 0.49654 0.58844 0.0
N518 N 0.3378 0.41497 0.62406 0.0
N519 N 0.21433 0.52756 0.52504 0.0
C520 C 0.30767 0.44889 0.60924 0.0
C521 C 0.24425 0.50622 0.55765 0.0
N522 N 0.23377 0.40295 0.64909 0.0
N523 N 0.31784 0.57597 0.55019 0.0
H524 H 0.17498 0.51355 0.51942 0.0
H525 H 0.2293 0.55588 0.50034 0.0
H526 H 0.35646 0.59334 0.5555 0.0
H527 H 0.29528 0.60153 0.5373 0.0
H528 H 0.25608 0.3861 0.67403 0.0
H529 H 0.19546 0.39775 0.65786 0.0
H530 H 0.32272 0.37758 0.63537 0.0
H531 H 0.3773 0.42188 0.6196 0.0
C532 C 0.98012 0.81767 0.93078 0.0
C533 C 0.92639 0.81214 0.92147 0.0
C534 C 0.91302 0.73063 0.96716 0.0
C535 C 0.96635 0.73072 0.96753 0.0
N536 N 0.05171 0.77618 0.95244 0.0
N537 N 0.84153 0.75958 0.92621 0.0
C538 C 0.00017 0.77519 0.95048 0.0
C539 C 0.89281 0.7678 0.93889 0.0
N540 N 0.01184 0.86403 0.92226 0.0
N541 N 0.88143 0.69534 0.99391 0.0
H542 H 0.82517 0.78457 0.90416 0.0
H543 H 0.81597 0.72529 0.93313 0.0
H544 H 0.89478 0.66907 0.01667 0.0
H545 H 0.843 0.6966 0.99876 0.0
H546 H 0.05072 0.87265 0.93279 0.0
H547 H -0.00152 0.89582 0.90824 0.0
H548 H 0.07822 0.80338 0.93473 0.0
H549 H 0.06772 0.74825 0.97079 0.0
C550 C 0.47272 0.77433 0.12092 0.0
C551 C 0.43697 0.76954 0.1594 0.0
C552 C 0.43015 0.86163 0.15613 0.0
C553 C 0.45842 0.86324 0.11172 0.0
N554 N 0.52137 0.83274 0.06293 0.0
N555 N 0.39584 0.8102 0.22552 0.0
C556 C 0.48539 0.82306 0.0985 0.0
C557 C 0.42159 0.81442 0.18177 0.0
N558 N 0.48988 0.7309 0.103 0.0
N559 N 0.40811 0.90292 0.17106 0.0
H560 H 0.38671 0.77467 0.24247 0.0
H561 H 0.38667 0.84182 0.24654 0.0
H562 H 0.41414 0.93819 0.15338 0.0
H563 H 0.38281 0.90219 0.20026 0.0
H564 H 0.51043 0.72907 0.0704 0.0
H565 H 0.48179 0.69556 0.12074 0.0
H566 H 0.54475 0.80695 0.05118 0.0
H567 H 0.54475 0.80695 0.05118 0.0
C568 C 0.0959 0.28745 0.60678 0.0
C569 C 0.07199 0.31627 0.57306 0.0
C570 C 0.0167 0.234 0.53901 0.0
C571 C 0.04639 0.20585 0.56869 0.0
N572 N 0.12736 0.20791 0.61416 0.0
N573 N 0.01268 0.31711 0.50241 0.0
C574 C 0.0905 0.23334 0.59683 0.0
C575 C 0.03327 0.28961 0.53739 0.0
N576 N 0.12083 0.31098 0.65038 0.0
N577 N 0.97219 0.20856 0.51448 0.0
H578 H 0.02362 0.35775 0.50134 0.0
H579 H 0.98763 0.29926 0.47266 0.0
H580 H 0.95913 0.16821 0.5151 0.0
H581 H 0.94666 0.22798 0.49637 0.0
H582 H 0.13638 0.29007 0.6774 0.0
H583 H 0.11877 0.34925 0.66264 0.0
H584 H 0.16137 0.22789 0.63263 0.0
H585 H 0.12658 0.1683 0.60455 0.0
C586 C 0.53214 0.30888 0.51624 0.0
C587 C 0.55831 0.29907 0.47188 0.0
C588 C 0.52594 0.36882 0.432 0.0
C589 C 0.51389 0.38883 0.48026 0.0
N590 N 0.48803 0.3678 0.56445 0.0
N591 N 0.57999 0.31934 0.38653 0.0
C592 C 0.51111 0.35549 0.52137 0.0
C593 C 0.55457 0.32839 0.42915 0.0
N594 N 0.52725 0.27337 0.55284 0.0
N595 N 0.50847 0.38746 0.38893 0.0
H596 H 0.60066 0.28924 0.38265 0.0
H597 H 0.58324 0.34405 0.35662 0.0
H598 H 0.48325 0.41363 0.3901 0.0
H599 H 0.51343 0.3719 0.35269 0.0
H600 H 0.50602 0.27574 0.58489 0.0
H601 H 0.54186 0.23896 0.54921 0.0
H602 H 0.4906 0.34965 0.59823 0.0
H603 H 0.46395 0.39494 0.56556 0.0
loop_
_geom_bond_atom_site_label_1
_geom_bond_atom_site_label_2
_geom_bond_distance
_geom_bond_site_symmetry_2
_ccdc_geom_bond_type
H0 C3 0.929 . S
H1 C6 0.929 . S
H2 C8 0.930 . S
C3 H0 0.929 . S
C3 C4 1.398 . S
C3 C5 1.396 . S
C4 C3 1.398 . S
C4 C8 1.407 . S
C5 C3 1.396 . S
C5 C6 1.394 . S
C6 H1 0.929 . S
C6 C5 1.394 . S
C6 C7 1.382 . S
C7 C6 1.382 . S
C7 C8 1.392 . S
C7 N9 1.420 . S
C8 H2 0.930 . S
C8 C4 1.407 . S
C8 C7 1.392 . S
N9 C7 1.420 . S
N9 C10 1.244 . S
C10 N9 1.244 . S
H11 C14 0.929 . S
H12 C17 0.929 . S
H13 C19 0.930 . S
C14 H11 0.929 . S
C14 C15 1.398 . S
C14 C16 1.396 . S
C15 C14 1.398 . S
C15 C19 1.407 . S
C16 C14 1.396 . S
C16 C17 1.394 . S
C17 H12 0.929 . S
C17 C16 1.394 . S
C17 C18 1.382 . S
C18 C17 1.382 . S
C18 C19 1.392 . S
C18 N20 1.420 . S
C19 H13 0.930 . S
C19 C15 1.407 . S
C19 C18 1.392 . S
N20 C18 1.420 . S
N20 C21 1.244 . S
C21 N20 1.244 . S
H22 C25 0.929 . S
H23 C28 0.929 . S
H24 C30 0.930 . S
C25 H22 0.929 . S
C25 C26 1.398 . S
C25 C27 1.396 . S
C26 C25 1.398 . S
C26 C30 1.407 . S
C27 C25 1.396 . S
C27 C28 1.394 . S
C28 H23 0.929 . S
C28 C27 1.394 . S
C28 C29 1.382 . S
C29 C28 1.382 . S
C29 C30 1.392 . S
C29 N31 1.420 . S
C30 H24 0.930 . S
C30 C26 1.407 . S
C30 C29 1.392 . S
N31 C29 1.420 . S
N31 C32 1.244 . S
C32 N31 1.244 . S
H33 C36 0.929 . S
H34 C39 0.929 . S
H35 C41 0.930 . S
C36 H33 0.929 . S
C36 C37 1.398 . S
C36 C38 1.396 . S
C37 C36 1.398 . S
C37 C41 1.407 . S
C38 C36 1.396 . S
C38 C39 1.394 . S
C39 H34 0.929 . S
C39 C38 1.394 . S
C39 C40 1.382 . S
C40 C39 1.382 . S
C40 C41 1.392 . S
C40 N42 1.420 . S
C41 H35 0.930 . S
C41 C37 1.407 . S
C41 C40 1.392 . S
N42 C40 1.420 . S
N42 C43 1.244 . S
C43 N42 1.244 . S
H44 C47 0.929 . S
H45 C50 0.929 . S
H46 C52 0.930 . S
C47 H44 0.929 . S
C47 C48 1.398 . S
C47 C49 1.396 . S
C48 C47 1.398 . S
C48 C52 1.407 . S
C49 C47 1.396 . S
C49 C50 1.394 . S
C50 H45 0.929 . S
C50 C49 1.394 . S
C50 C51 1.382 . S
C51 C50 1.382 . S
C51 C52 1.392 . S
C51 N53 1.420 . S
C52 H46 0.930 . S
C52 C48 1.407 . S
C52 C51 1.392 . S
N53 C51 1.420 . S
N53 C54 1.244 . S
C54 N53 1.244 . S
H55 C58 0.929 . S
H56 C61 0.929 . S
H57 C63 0.930 . S
C58 H55 0.929 . S
C58 C59 1.398 . S
C58 C60 1.396 . S
C59 C58 1.398 . S
C59 C63 1.407 . S
C60 C58 1.396 . S
C60 C61 1.394 . S
C61 H56 0.929 . S
C61 C60 1.394 . S
C61 C62 1.382 . S
C62 C61 1.382 . S
C62 C63 1.392 . S
C62 N64 1.420 . S
C63 H57 0.930 . S
C63 C59 1.407 . S
C63 C62 1.392 . S
N64 C62 1.420 . S
N64 C65 1.244 . S
C65 N64 1.244 . S
H66 C69 0.929 . S
H67 C72 0.929 . S
H68 C74 0.930 . S
C69 H66 0.929 . S
C69 C70 1.398 . S
C69 C71 1.396 . S
C70 C69 1.398 . S
C70 C74 1.407 . S
C71 C69 1.396 . S
C71 C72 1.394 . S
C72 H67 0.929 . S
C72 C71 1.394 . S
C72 C73 1.382 . S
C73 C72 1.382 . S
C73 C74 1.392 . S
C73 N75 1.420 . S
C74 H68 0.930 . S
C74 C70 1.407 . S
C74 C73 1.392 . S
N75 C73 1.420 . S
N75 C76 1.244 . S
C76 N75 1.244 . S
H77 C80 0.929 . S
H78 C83 0.929 . S
H79 C85 0.930 . S
C80 H77 0.929 . S
C80 C81 1.398 . S
C80 C82 1.396 . S
C81 C80 1.398 . S
C81 C85 1.407 . S
C82 C80 1.396 . S
C82 C83 1.394 . S
C83 H78 0.929 . S
C83 C82 1.394 . S
C83 C84 1.382 . S
C84 C83 1.382 . S
C84 C85 1.392 . S
C84 N86 1.420 . S
C85 H79 0.930 . S
C85 C81 1.407 . S
C85 C84 1.392 . S
N86 C84 1.420 . S
N86 C87 1.244 . S
C87 N86 1.244 . S
O88 Mg89 1.990 . S
O88 C102 1.253 1_445 S
Mg89 O88 1.990 . S
Mg89 O92 2.180 . S
Mg89 O93 2.117 . S
Mg89 O107 2.030 . S
O90 Mg91 2.072 1_665 S
O90 C102 1.260 . S
Mg91 O90 2.072 1_445 S
Mg91 O92 2.099 . S
Mg91 O94 2.079 . S
Mg91 O95 2.072 1_455 S
Mg91 O97 2.099 1_445 S
Mg91 O108 2.079 . S
O92 Mg89 2.180 . S
O92 Mg91 2.099 . S
O92 C103 1.279 . S
O93 Mg89 2.117 . S
O93 C103 1.250 . S
O94 Mg91 2.079 . S
O94 C104 1.264 . S
O95 Mg91 2.072 1_655 S
O95 C105 1.260 . S
Mg96 O97 2.180 . S
Mg96 O98 2.030 1_565 S
Mg96 O99 1.990 1_565 S
Mg96 O100 2.117 . S
O97 Mg91 2.099 1_665 S
O97 Mg96 2.180 . S
O97 C106 1.279 . S
O98 Mg96 2.030 1_545 S
O98 C104 1.248 1_655 S
O99 Mg96 1.990 1_545 S
O99 C105 1.253 . S
O100 Mg96 2.117 . S
O100 C106 1.250 . S
C101 O107 1.248 1_565 S
C101 O108 1.264 1_565 S
C102 O88 1.253 1_665 S
C102 O90 1.260 . S
C103 O92 1.279 . S
C103 O93 1.250 . S
C104 O94 1.264 . S
C104 O98 1.248 1_455 S
C105 O95 1.260 . S
C105 O99 1.253 . S
C106 O97 1.279 . S
C106 O100 1.250 . S
O107 Mg89 2.030 . S
O107 C101 1.248 1_545 S
O108 Mg91 2.079 . S
O108 C101 1.264 1_545 S
O109 Mg110 1.990 . S
O109 C123 1.253 . S
Mg110 O109 1.990 . S
Mg110 O113 2.180 . S
Mg110 O114 2.117 . S
Mg110 O128 2.030 . S
O111 Mg112 2.072 . S
O111 C123 1.260 . S
Mg112 O111 2.072 . S
Mg112 O113 2.099 . S
Mg112 O115 2.079 . S
Mg112 O116 2.072 1_554 S
Mg112 O118 2.099 1_545 S
Mg112 O129 2.079 . S
O113 Mg110 2.180 . S
O113 Mg112 2.099 . S
O113 C124 1.279 1_554 S
O114 Mg110 2.117 . S
O114 C124 1.250 1_554 S
O115 Mg112 2.079 . S
O115 C125 1.264 1_544 S
O116 Mg112 2.072 1_556 S
O116 C126 1.260 1_545 S
Mg117 O118 2.180 1_556 S
Mg117 O119 2.030 . S
Mg117 O120 1.990 . S
Mg117 O121 2.117 1_556 S
O118 Mg112 2.099 1_565 S
O118 Mg117 2.180 1_554 S
O118 C127 1.279 . S
O119 Mg117 2.030 . S
O119 C125 1.248 . S
O120 Mg117 1.990 . S
O120 C126 1.253 . S
O121 Mg117 2.117 1_554 S
O121 C127 1.250 . S
C122 O128 1.248 . S
C122 O129 1.264 . S
C123 O109 1.253 . S
C123 O111 1.260 . S
C124 O113 1.279 1_556 S
C124 O114 1.250 1_556 S
C125 O115 1.264 1_566 S
C125 O119 1.248 . S
C126 O116 1.260 1_565 S
C126 O120 1.253 . S
C127 O118 1.279 . S
C127 O121 1.250 . S
O128 Mg110 2.030 . S
O128 C122 1.248 . S
O129 Mg112 2.079 . S
O129 C122 1.264 . S
O130 Mg131 1.990 . S
O130 C144 1.253 . S
Mg131 O130 1.990 . S
Mg131 O134 2.180 . S
Mg131 O135 2.117 . S
Mg131 O149 2.030 . S
O132 Mg133 2.072 . S
O132 C144 1.260 . S
Mg133 O132 2.072 . S
Mg133 O134 2.099 . S
Mg133 O136 2.079 . S
Mg133 O137 2.072 . S
Mg133 O139 2.099 . S
Mg133 O150 2.079 . S
O134 Mg131 2.180 . S
O134 Mg133 2.099 . S
O134 C145 1.279 . S
O135 Mg131 2.117 . S
O135 C145 1.250 . S
O136 Mg133 2.079 . S
O136 C146 1.264 . S
O137 Mg133 2.072 . S
O137 C147 1.260 . S
Mg138 O139 2.180 . S
Mg138 O140 2.030 . S
Mg138 O141 1.990 . S
Mg138 O142 2.117 . S
O139 Mg133 2.099 . S
O139 Mg138 2.180 . S
O139 C148 1.279 . S
O140 Mg138 2.030 . S
O140 C146 1.248 . S
O141 Mg138 1.990 . S
O141 C147 1.253 . S
O142 Mg138 2.117 . S
O142 C148 1.250 . S
C143 O149 1.248 . S
C143 O150 1.264 . S
C144 O130 1.253 . S
C144 O132 1.260 . S
C145 O134 1.279 . S
C145 O135 1.250 . S
C146 O136 1.264 . S
C146 O140 1.248 . S
C147 O137 1.260 . S
C147 O141 1.253 . S
C148 O139 1.279 . S
C148 O142 1.250 . S
O149 Mg131 2.030 . S
O149 C143 1.248 . S
O150 Mg133 2.079 . S
O150 C143 1.264 . S
O151 Mg152 1.990 . S
O151 C165 1.253 . S
Mg152 O151 1.990 . S
Mg152 O155 2.180 . S
Mg152 O156 2.117 1_455 S
Mg152 O170 2.030 . S
O153 Mg154 2.072 . S
O153 C165 1.260 . S
Mg154 O153 2.072 . S
Mg154 O155 2.099 . S
Mg154 O157 2.079 1_554 S
Mg154 O158 2.072 1_455 S
Mg154 O160 2.099 1_554 S
Mg154 O171 2.079 . S
O155 Mg152 2.180 . S
O155 Mg154 2.099 . S
O155 C166 1.279 1_455 S
O156 Mg152 2.117 1_655 S
O156 C166 1.250 . S
O157 Mg154 2.079 1_556 S
O157 C167 1.264 1_455 S
O158 Mg154 2.072 1_655 S
O158 C168 1.260 1_554 S
Mg159 O160 2.180 1_655 S
Mg159 O161 2.030 . S
Mg159 O162 1.990 . S
Mg159 O163 2.117 1_655 S
O160 Mg154 2.099 1_556 S
O160 Mg159 2.180 1_455 S
O160 C169 1.279 . S
O161 Mg159 2.030 . S
O161 C167 1.248 . S
O162 Mg159 1.990 . S
O162 C168 1.253 . S
O163 Mg159 2.117 1_455 S
O163 C169 1.250 . S
C164 O170 1.248 . S
C164 O171 1.264 . S
C165 O151 1.253 . S
C165 O153 1.260 . S
C166 O155 1.279 1_655 S
C166 O156 1.250 . S
C167 O157 1.264 1_655 S
C167 O161 1.248 . S
C168 O158 1.260 1_556 S
C168 O162 1.253 . S
C169 O160 1.279 . S
C169 O163 1.250 . S
O170 Mg152 2.030 . S
O170 C164 1.248 . S
O171 Mg154 2.079 . S
O171 C164 1.264 . S
C172 C173 1.363 . S
C172 C178 1.379 . S
C172 N180 1.356 . S
C173 C172 1.363 . S
C173 C179 1.363 . S
C174 C175 1.363 . S
C174 C179 1.379 . S
C174 N181 1.356 1_455 S
C175 C174 1.363 . S
C175 C178 1.363 . S
N176 C178 1.356 . S
N176 H188 0.984 . S
N176 H189 0.985 . S
N177 C179 1.356 . S
N177 H182 0.984 . S
N177 H183 0.985 . S
C178 C172 1.379 . S
C178 C175 1.363 . S
C178 N176 1.356 . S
C179 C173 1.363 . S
C179 C174 1.379 . S
C179 N177 1.356 . S
N180 C172 1.356 . S
N180 H186 0.984 . S
N180 H187 0.984 . S
N181 C174 1.356 1_655 S
N181 H184 0.984 . S
N181 H185 0.985 . S
H182 N177 0.984 . S
H183 N177 0.985 . S
H184 N181 0.984 . S
H185 N181 0.985 . S
H186 N180 0.984 . S
H187 N180 0.984 . S
H188 N176 0.984 . S
H189 N176 0.985 . S
C190 C191 1.363 1_545 S
C190 C196 1.379 . S
C190 N198 1.356 . S
C191 C190 1.363 1_565 S
C191 C197 1.363 . S
C192 C193 1.363 . S
C192 C197 1.379 . S
C192 N199 1.356 . S
C193 C192 1.363 . S
C193 C196 1.363 1_565 S
N194 C196 1.356 . S
N194 H206 0.984 . S
N194 H207 0.985 . S
N195 C197 1.356 . S
N195 H200 0.984 . S
N195 H201 0.985 . S
C196 C190 1.379 . S
C196 C193 1.363 1_545 S
C196 N194 1.356 . S
C197 C191 1.363 . S
C197 C192 1.379 . S
C197 N195 1.356 . S
N198 C190 1.356 . S
N198 H204 0.984 . S
N198 H205 0.984 . S
N199 C192 1.356 . S
N199 H202 0.984 . S
N199 H203 0.985 . S
H200 N195 0.984 . S
H201 N195 0.985 . S
H202 N199 0.984 . S
H203 N199 0.985 . S
H204 N198 0.984 . S
H205 N198 0.984 . S
H206 N194 0.984 . S
H207 N194 0.985 . S
C208 C209 1.363 . S
C208 C214 1.379 . S
C208 N216 1.356 . S
C209 C208 1.363 . S
C209 C215 1.363 . S
C210 C211 1.363 . S
C210 C215 1.379 . S
C210 N217 1.356 . S
C211 C210 1.363 . S
C211 C214 1.363 . S
N212 C214 1.356 . S
N212 H224 0.984 . S
N212 H225 0.985 . S
N213 C215 1.356 . S
N213 H218 0.984 . S
N213 H219 0.985 . S
C214 C208 1.379 . S
C214 C211 1.363 . S
C214 N212 1.356 . S
C215 C209 1.363 . S
C215 C210 1.379 . S
C215 N213 1.356 . S
N216 C208 1.356 . S
N216 H222 0.984 . S
N216 H223 0.984 . S
N217 C210 1.356 . S
N217 H220 0.984 . S
N217 H221 0.985 . S
H218 N213 0.984 . S
H219 N213 0.985 . S
H220 N217 0.984 . S
H221 N217 0.985 . S
H222 N216 0.984 . S
H223 N216 0.984 . S
H224 N212 0.984 . S
H225 N212 0.985 . S
C226 C227 1.363 . S
C226 C232 1.379 . S
C226 N234 1.356 . S
C227 C226 1.363 . S
C227 C233 1.363 . S
C228 C229 1.363 . S
C228 C233 1.379 . S
C228 N235 1.356 . S
C229 C228 1.363 . S
C229 C232 1.363 . S
N230 C232 1.356 . S
N230 H242 0.984 . S
N230 H243 0.985 . S
N231 C233 1.356 . S
N231 H236 0.984 . S
N231 H237 0.985 . S
C232 C226 1.379 . S
C232 C229 1.363 . S
C232 N230 1.356 . S
C233 C227 1.363 . S
C233 C228 1.379 . S
C233 N231 1.356 . S
N234 C226 1.356 . S
N234 H240 0.984 . S
N234 H241 0.984 . S
N235 C228 1.356 . S
N235 H238 0.984 . S
N235 H239 0.985 . S
H236 N231 0.984 . S
H237 N231 0.985 . S
H238 N235 0.984 . S
H239 N235 0.985 . S
H240 N234 0.984 . S
H241 N234 0.984 . S
H242 N230 0.984 . S
H243 N230 0.985 . S
C244 C245 1.363 . S
C244 C250 1.379 . S
C244 N252 1.356 . S
C245 C244 1.363 . S
C245 C251 1.363 . S
C246 C247 1.363 . S
C246 C251 1.379 . S
C246 N253 1.356 . S
C247 C246 1.363 . S
C247 C250 1.363 . S
N248 C250 1.356 . S
N248 H260 0.984 1_554 S
N248 H261 0.985 . S
N249 C251 1.356 . S
N249 H254 0.984 . S
N249 H255 0.985 . S
C250 C244 1.379 . S
C250 C247 1.363 . S
C250 N248 1.356 . S
C251 C245 1.363 . S
C251 C246 1.379 . S
C251 N249 1.356 . S
N252 C244 1.356 . S
N252 H258 0.984 1_554 S
N252 H259 0.984 . S
N253 C246 1.356 . S
N253 H256 0.984 . S
N253 H257 0.985 . S
H254 N249 0.984 . S
H255 N249 0.985 . S
H256 N253 0.984 . S
H257 N253 0.985 . S
H258 N252 0.984 1_556 S
H259 N252 0.984 . S
H260 N248 0.984 1_556 S
H261 N248 0.985 . S
C262 C263 1.363 1_545 S
C262 C268 1.379 . S
C262 N270 1.356 . S
C263 C262 1.363 1_565 S
C263 C269 1.363 . S
C264 C265 1.363 . S
C264 C269 1.379 . S
C264 N271 1.356 . S
C265 C264 1.363 . S
C265 C268 1.363 1_565 S
N266 C268 1.356 . S
N266 H278 0.984 . S
N266 H279 0.985 . S
N267 C269 1.356 . S
N267 H272 0.984 . S
N267 H273 0.985 . S
C268 C262 1.379 . S
C268 C265 1.363 1_545 S
C268 N266 1.356 . S
C269 C263 1.363 . S
C269 C264 1.379 . S
C269 N267 1.356 . S
N270 C262 1.356 . S
N270 H276 0.984 . S
N270 H277 0.984 . S
N271 C264 1.356 . S
N271 H274 0.984 . S
N271 H275 0.985 . S
H272 N267 0.984 . S
H273 N267 0.985 . S
H274 N271 0.984 . S
H275 N271 0.985 . S
H276 N270 0.984 . S
H277 N270 0.984 . S
H278 N266 0.984 . S
H279 N266 0.985 . S
C280 C281 1.363 . S
C280 C286 1.379 . S
C280 N288 1.356 . S
C281 C280 1.363 . S
C281 C287 1.363 . S
C282 C283 1.353 1_554 S
C282 C287 1.376 1_554 S
C282 N289 1.367 . S
C283 C282 1.353 1_556 S
C283 C286 1.363 . S
N284 C286 1.356 . S
N284 H296 0.984 . S
N284 H297 0.985 . S
N285 C287 1.356 1_554 S
N285 H290 0.984 1_554 S
N285 H291 0.985 . S
C286 C280 1.379 . S
C286 C283 1.363 . S
C286 N284 1.356 . S
C287 C281 1.363 . S
C287 C282 1.376 1_556 S
C287 N285 1.356 1_556 S
N288 C280 1.356 . S
N288 H294 0.984 . S
N288 H295 0.984 . S
N289 C282 1.367 . S
N289 H292 0.984 . S
N289 H293 0.985 . S
H290 N285 0.984 1_556 S
H291 N285 0.985 . S
H292 N289 0.984 . S
H293 N289 0.985 . S
H294 N288 0.984 . S
H295 N288 0.984 . S
H296 N284 0.984 . S
H297 N284 0.985 . S
C298 C299 1.363 . S
C298 C304 1.379 . S
C298 N306 1.356 . S
C299 C298 1.363 . S
C299 C305 1.363 . S
C300 C301 1.363 . S
C300 C305 1.379 . S
C300 N307 1.356 . S
C301 C300 1.363 . S
C301 C304 1.363 . S
N302 C304 1.356 . S
N302 H314 0.984 . S
N302 H315 0.985 . S
N303 C305 1.356 . S
N303 H308 0.984 . S
N303 H309 0.985 . S
C304 C298 1.379 . S
C304 C301 1.363 . S
C304 N302 1.356 . S
C305 C299 1.363 . S
C305 C300 1.379 . S
C305 N303 1.356 . S
N306 C298 1.356 . S
N306 H312 0.984 . S
N306 H313 0.984 . S
N307 C300 1.356 . S
N307 H310 0.984 . S
N307 H311 0.985 . S
H308 N303 0.984 . S
H309 N303 0.985 . S
H310 N307 0.984 . S
H311 N307 0.985 . S
H312 N306 0.984 . S
H313 N306 0.984 . S
H314 N302 0.984 . S
H315 N302 0.985 . S
C316 C317 1.363 . S
C316 C322 1.379 . S
C316 N324 1.356 . S
C317 C316 1.363 . S
C317 C323 1.363 . S
C318 C319 1.363 . S
C318 C323 1.379 . S
C318 N325 1.356 1_554 S
C319 C318 1.363 . S
C319 C322 1.363 . S
N320 C322 1.356 . S
N320 H332 0.984 . S
N320 H333 0.985 . S
N321 C323 1.356 . S
N321 H326 0.984 . S
N321 H327 0.985 1_554 S
C322 C316 1.379 . S
C322 C319 1.363 . S
C322 N320 1.356 . S
C323 C317 1.363 . S
C323 C318 1.379 . S
C323 N321 1.356 . S
N324 C316 1.356 . S
N324 H330 0.984 . S
N324 H331 0.984 . S
N325 C318 1.356 1_556 S
N325 H328 0.984 . S
N325 H329 0.987 . S
H326 N321 0.984 . S
H327 N321 0.985 1_556 S
H328 N325 0.984 . S
H329 N325 0.987 . S
H330 N324 0.984 . S
H331 N324 0.984 . S
H332 N320 0.984 . S
H333 N320 0.985 . S
C334 C335 1.363 . S
C334 C340 1.379 . S
C334 N342 1.356 . S
C335 C334 1.363 . S
C335 C341 1.363 . S
C336 C337 1.363 1_554 S
C336 C341 1.379 1_554 S
C336 N343 1.356 . S
C337 C336 1.363 1_556 S
C337 C340 1.363 . S
N338 C340 1.356 . S
N338 H350 0.984 . S
N338 H351 0.985 . S
N339 C341 1.356 1_554 S
N339 H344 0.984 . S
N339 H345 0.985 . S
C340 C334 1.379 . S
C340 C337 1.363 . S
C340 N338 1.356 . S
C341 C335 1.363 . S
C341 C336 1.379 1_556 S
C341 N339 1.356 1_556 S
N342 C334 1.356 . S
N342 H348 0.984 . S
N342 H349 0.984 . S
N343 C336 1.356 . S
N343 H346 0.984 . S
N343 H347 0.985 . S
H344 N339 0.984 . S
H345 N339 0.985 . S
H346 N343 0.984 . S
H347 N343 0.985 . S
H348 N342 0.984 . S
H349 N342 0.984 . S
H350 N338 0.984 . S
H351 N338 0.985 . S
C352 C353 1.363 . S
C352 C358 1.379 . S
C352 N360 1.356 . S
C353 C352 1.363 . S
C353 C359 1.363 . S
C354 C355 1.363 . S
C354 C359 1.379 . S
C354 N361 1.356 . S
C355 C354 1.363 . S
C355 C358 1.363 . S
N356 C358 1.356 . S
N356 H368 0.984 . S
N356 H369 0.985 . S
N357 C359 1.356 . S
N357 H362 0.984 . S
N357 H363 0.985 . S
C358 C352 1.379 . S
C358 C355 1.363 . S
C358 N356 1.356 . S
C359 C353 1.363 . S
C359 C354 1.379 . S
C359 N357 1.356 . S
N360 C352 1.356 . S
N360 H366 0.984 . S
N360 H367 0.984 . S
N361 C354 1.356 . S
N361 H364 0.984 . S
N361 H365 0.985 . S
H362 N357 0.984 . S
H363 N357 0.985 . S
H364 N361 0.984 . S
H365 N361 0.985 . S
H366 N360 0.984 . S
H367 N360 0.984 . S
H368 N356 0.984 . S
H369 N356 0.985 . S
C370 C371 1.363 . S
C370 C376 1.379 . S
C370 N378 1.356 . S
C371 C370 1.363 . S
C371 C377 1.363 . S
C372 C373 1.363 . S
C372 C377 1.379 . S
C372 N379 1.356 . S
C373 C372 1.363 . S
C373 C376 1.363 . S
N374 C376 1.356 . S
N374 H386 0.984 . S
N374 H387 0.985 . S
N375 C377 1.356 . S
N375 H380 0.984 . S
N375 H381 0.985 . S
C376 C370 1.379 . S
C376 C373 1.363 . S
C376 N374 1.356 . S
C377 C371 1.363 . S
C377 C372 1.379 . S
C377 N375 1.356 . S
N378 C370 1.356 . S
N378 H384 0.984 . S
N378 H385 0.984 . S
N379 C372 1.356 . S
N379 H382 0.984 . S
N379 H383 0.985 . S
H380 N375 0.984 . S
H381 N375 0.985 . S
H382 N379 0.984 . S
H383 N379 0.985 . S
H384 N378 0.984 . S
H385 N378 0.984 . S
H386 N374 0.984 . S
H387 N374 0.985 . S
C388 C389 1.363 . S
C388 C394 1.379 1_565 S
C388 N396 1.356 1_565 S
C389 C388 1.363 . S
C389 C395 1.363 . S
C390 C391 1.363 . S
C390 C395 1.379 . S
C390 N397 1.356 . S
C391 C390 1.363 . S
C391 C394 1.363 1_565 S
N392 C394 1.356 . S
N392 H404 0.984 . S
N392 H405 0.985 . S
N393 C395 1.356 . S
N393 H398 0.984 . S
N393 H399 0.985 . S
C394 C388 1.379 1_545 S
C394 C391 1.363 1_545 S
C394 N392 1.356 . S
C395 C389 1.363 . S
C395 C390 1.379 . S
C395 N393 1.356 . S
N396 C388 1.356 1_545 S
N396 H402 0.984 . S
N396 H403 0.994 . S
N397 C390 1.356 . S
N397 H400 0.984 . S
N397 H401 0.985 . S
H398 N393 0.984 . S
H399 N393 0.985 . S
H400 N397 0.984 . S
H401 N397 0.985 . S
H402 N396 0.984 . S
H403 N396 0.994 . S
H404 N392 0.984 . S
H405 N392 0.985 . S
C406 C407 1.363 . S
C406 C412 1.379 . S
C406 N414 1.356 . S
C407 C406 1.363 . S
C407 C413 1.363 . S
C408 C409 1.363 . S
C408 C413 1.379 . S
C408 N415 1.356 . S
C409 C408 1.363 . S
C409 C412 1.363 . S
N410 C412 1.356 . S
N410 H422 0.984 . S
N410 H423 0.985 . S
N411 C413 1.356 . S
N411 H416 0.984 . S
N411 H417 0.985 . S
C412 C406 1.379 . S
C412 C409 1.363 . S
C412 N410 1.356 . S
C413 C407 1.363 . S
C413 C408 1.379 . S
C413 N411 1.356 . S
N414 C406 1.356 . S
N414 H420 0.984 . S
N414 H421 0.984 . S
N415 C408 1.356 . S
N415 H418 0.984 . S
N415 H419 0.985 . S
H416 N411 0.984 . S
H417 N411 0.985 . S
H418 N415 0.984 . S
H419 N415 0.985 . S
H420 N414 0.984 . S
H421 N414 0.984 . S
H422 N410 0.984 . S
H423 N410 0.985 . S
C424 C425 1.363 . S
C424 C430 1.379 . S
C424 N432 1.356 . S
C425 C424 1.363 . S
C425 C431 1.363 . S
C426 C427 1.363 . S
C426 C431 1.379 . S
C426 N433 1.356 . S
C427 C426 1.363 . S
C427 C430 1.363 . S
N428 C430 1.356 . S
N428 H440 0.984 . S
N428 H441 0.985 . S
N429 C431 1.356 . S
N429 H434 0.984 . S
N429 H435 0.985 . S
C430 C424 1.379 . S
C430 C427 1.363 . S
C430 N428 1.356 . S
C431 C425 1.363 . S
C431 C426 1.379 . S
C431 N429 1.356 . S
N432 C424 1.356 . S
N432 H438 0.984 . S
N432 H439 0.984 . S
N433 C426 1.356 . S
N433 H436 0.984 . S
N433 H437 0.985 . S
H434 N429 0.984 . S
H435 N429 0.985 . S
H436 N433 0.984 . S
H437 N433 0.985 . S
H438 N432 0.984 . S
H439 N432 0.984 . S
H440 N428 0.984 . S
H441 N428 0.985 . S
C442 C443 1.363 . S
C442 C448 1.379 . S
C442 N450 1.356 . S
C443 C442 1.363 . S
C443 C449 1.363 . S
C444 C445 1.363 . S
C444 C449 1.379 . S
C444 N451 1.356 . S
C445 C444 1.363 . S
C445 C448 1.363 . S
N446 C448 1.356 1_655 S
N446 H458 0.984 . S
N446 H459 0.985 1_655 S
N447 C449 1.356 . S
N447 H452 0.984 . S
N447 H453 0.985 . S
C448 C442 1.379 . S
C448 C445 1.363 . S
C448 N446 1.356 1_455 S
C449 C443 1.363 . S
C449 C444 1.379 . S
C449 N447 1.356 . S
N450 C442 1.356 . S
N450 H456 0.984 1_455 S
N450 H457 0.984 . S
N451 C444 1.356 . S
N451 H454 0.984 . S
N451 H455 0.985 . S
H452 N447 0.984 . S
H453 N447 0.985 . S
H454 N451 0.984 . S
H455 N451 0.985 . S
H456 N450 0.984 1_655 S
H457 N450 0.984 . S
H458 N446 0.984 . S
H459 N446 0.985 1_455 S
C460 C461 1.363 1_545 S
C460 C466 1.379 1_556 S
C460 N468 1.356 1_556 S
C461 C460 1.363 1_565 S
C461 C467 1.363 . S
C462 C463 1.363 . S
C462 C467 1.379 . S
C462 N469 1.356 . S
C463 C462 1.363 . S
C463 C466 1.363 1_566 S
N464 C466 1.356 . S
N464 H476 0.984 . S
N464 H477 0.985 . S
N465 C467 1.356 . S
N465 H470 0.984 . S
N465 H471 0.985 . S
C466 C460 1.379 1_554 S
C466 C463 1.363 1_544 S
C466 N464 1.356 . S
C467 C461 1.363 . S
C467 C462 1.379 . S
C467 N465 1.356 . S
N468 C460 1.356 1_554 S
N468 H474 0.984 . S
N468 H475 0.984 1_554 S
N469 C462 1.356 . S
N469 H472 0.984 . S
N469 H473 0.985 . S
H470 N465 0.984 . S
H471 N465 0.985 . S
H472 N469 0.984 . S
H473 N469 0.985 . S
H474 N468 0.984 . S
H475 N468 0.984 1_556 S
H476 N464 0.984 . S
H477 N464 0.985 . S
C478 C479 1.363 . S
C478 C484 1.379 . S
C478 N486 1.356 . S
C479 C478 1.363 . S
C479 C485 1.363 . S
C480 C481 1.363 . S
C480 C485 1.379 . S
C480 N487 1.356 . S
C481 C480 1.363 . S
C481 C484 1.363 . S
N482 C484 1.356 . S
N482 H494 0.984 . S
N482 H495 0.985 . S
N483 C485 1.356 . S
N483 H488 0.984 . S
N483 H489 0.985 . S
C484 C478 1.379 . S
C484 C481 1.363 . S
C484 N482 1.356 . S
C485 C479 1.363 . S
C485 C480 1.379 . S
C485 N483 1.356 . S
N486 C478 1.356 . S
N486 H492 0.984 . S
N486 H493 0.984 . S
N487 C480 1.356 . S
N487 H490 0.984 . S
N487 H491 0.985 . S
H488 N483 0.984 . S
H489 N483 0.985 . S
H490 N487 0.984 . S
H491 N487 0.985 . S
H492 N486 0.984 . S
H493 N486 0.984 . S
H494 N482 0.984 . S
H495 N482 0.985 . S
C496 C497 1.363 . S
C496 C502 1.379 . S
C496 N504 1.356 . S
C497 C496 1.363 . S
C497 C503 1.363 . S
C498 C499 1.363 . S
C498 C503 1.379 . S
C498 N505 1.356 . S
C499 C498 1.363 . S
C499 C502 1.363 . S
N500 C502 1.356 . S
N500 H512 0.984 . S
N500 H513 0.985 . S
N501 C503 1.356 . S
N501 H506 0.984 . S
N501 H507 0.985 . S
C502 C496 1.379 . S
C502 C499 1.363 . S
C502 N500 1.356 . S
C503 C497 1.363 . S
C503 C498 1.379 . S
C503 N501 1.356 . S
N504 C496 1.356 . S
N504 H510 0.984 . S
N504 H511 0.984 . S
N505 C498 1.356 . S
N505 H508 0.984 . S
N505 H509 0.985 . S
H506 N501 0.984 . S
H507 N501 0.985 . S
H508 N505 0.984 . S
H509 N505 0.985 . S
H510 N504 0.984 . S
H511 N504 0.984 . S
H512 N500 0.984 . S
H513 N500 0.985 . S
C514 C515 1.363 . S
C514 C520 1.379 . S
C514 N522 1.356 . S
C515 C514 1.363 . S
C515 C521 1.363 . S
C516 C517 1.363 . S
C516 C521 1.379 . S
C516 N523 1.356 . S
C517 C516 1.363 . S
C517 C520 1.363 . S
N518 C520 1.356 . S
N518 H530 0.984 . S
N518 H531 0.985 . S
N519 C521 1.356 . S
N519 H524 0.984 . S
N519 H525 0.985 . S
C520 C514 1.379 . S
C520 C517 1.363 . S
C520 N518 1.356 . S
C521 C515 1.363 . S
C521 C516 1.379 . S
C521 N519 1.356 . S
N522 C514 1.356 . S
N522 H528 0.984 . S
N522 H529 0.984 . S
N523 C516 1.356 . S
N523 H526 0.984 . S
N523 H527 0.985 . S
H524 N519 0.984 . S
H525 N519 0.985 . S
H526 N523 0.984 . S
H527 N523 0.985 . S
H528 N522 0.984 . S
H529 N522 0.984 . S
H530 N518 0.984 . S
H531 N518 0.985 . S
C532 C533 1.363 . S
C532 C538 1.379 . S
C532 N540 1.356 1_655 S
C533 C532 1.363 . S
C533 C539 1.363 . S
C534 C535 1.363 . S
C534 C539 1.379 . S
C534 N541 1.356 . S
C535 C534 1.363 . S
C535 C538 1.363 . S
N536 C538 1.356 1_455 S
N536 H548 0.984 . S
N536 H549 0.985 . S
N537 C539 1.356 . S
N537 H542 0.984 . S
N537 H543 0.985 . S
C538 C532 1.379 . S
C538 C535 1.363 . S
C538 N536 1.356 1_655 S
C539 C533 1.363 . S
C539 C534 1.379 . S
C539 N537 1.356 . S
N540 C532 1.356 1_455 S
N540 H546 0.984 . S
N540 H547 0.984 1_455 S
N541 C534 1.356 . S
N541 H544 0.981 1_556 S
N541 H545 0.985 1_556 S
H542 N537 0.984 . S
H543 N537 0.985 . S
H544 N541 0.981 1_554 S
H545 N541 0.985 1_554 S
H546 N540 0.984 . S
H547 N540 0.984 1_655 S
H548 N536 0.984 . S
H549 N536 0.985 . S
C550 C551 1.363 . S
C550 C556 1.379 . S
C550 N558 1.356 . S
C551 C550 1.363 . S
C551 C557 1.363 . S
C552 C553 1.363 . S
C552 C557 1.379 . S
C552 N559 1.356 . S
C553 C552 1.363 . S
C553 C556 1.363 . S
N554 C556 1.356 . S
N554 H566 0.984 1_554 S
N554 H567 0.985 . S
N555 C557 1.356 . S
N555 H560 0.984 . S
N555 H561 0.985 . S
C556 C550 1.379 . S
C556 C553 1.363 . S
C556 N554 1.356 . S
C557 C551 1.363 . S
C557 C552 1.379 . S
C557 N555 1.356 . S
N558 C550 1.356 . S
N558 H564 0.984 . S
N558 H565 0.984 . S
N559 C552 1.356 . S
N559 H562 0.984 . S
N559 H563 0.985 . S
H560 N555 0.984 . S
H561 N555 0.985 . S
H562 N559 0.984 . S
H563 N559 0.985 . S
H564 N558 0.984 . S
H565 N558 0.984 . S
H566 N554 0.984 1_556 S
H567 N554 0.985 . S
C568 C569 1.363 . S
C568 C574 1.379 . S
C568 N576 1.356 . S
C569 C568 1.363 . S
C569 C575 1.363 . S
C570 C571 1.363 . S
C570 C575 1.379 . S
C570 N577 1.356 1_455 S
C571 C570 1.363 . S
C571 C574 1.363 . S
N572 C574 1.356 . S
N572 H584 0.984 . S
N572 H585 0.985 . S
N573 C575 1.356 . S
N573 H578 0.984 . S
N573 H579 0.985 . S
C574 C568 1.379 . S
C574 C571 1.363 . S
C574 N572 1.356 . S
C575 C569 1.363 . S
C575 C570 1.379 . S
C575 N573 1.356 . S
N576 C568 1.356 . S
N576 H582 0.984 . S
N576 H583 0.984 . S
N577 C570 1.356 1_655 S
N577 H580 0.984 . S
N577 H581 0.985 . S
H578 N573 0.984 . S
H579 N573 0.985 . S
H580 N577 0.984 . S
H581 N577 0.985 . S
H582 N576 0.984 . S
H583 N576 0.984 . S
H584 N572 0.984 . S
H585 N572 0.985 . S
C586 C587 1.363 . S
C586 C592 1.379 . S
C586 N594 1.356 . S
C587 C586 1.363 . S
C587 C593 1.363 . S
C588 C589 1.363 . S
C588 C593 1.379 . S
C588 N595 1.356 . S
C589 C588 1.363 . S
C589 C592 1.363 . S
N590 C592 1.356 . S
N590 H602 0.984 . S
N590 H603 0.985 . S
N591 C593 1.356 . S
N591 H596 0.984 . S
N591 H597 0.985 . S
C592 C586 1.379 . S
C592 C589 1.363 . S
C592 N590 1.356 . S
C593 C587 1.363 . S
C593 C588 1.379 . S
C593 N591 1.356 . S
N594 C586 1.356 . S
N594 H600 0.984 . S
N594 H601 0.984 . S
N595 C588 1.356 . S
N595 H598 0.984 . S
N595 H599 0.985 . S
H596 N591 0.984 . S
H597 N591 0.985 . S
H598 N595 0.984 . S
H599 N595 0.985 . S
H600 N594 0.984 . S
H601 N594 0.984 . S
H602 N590 0.984 . S
H603 N590 0.985 . S
C173 C4 1.720 . S
C175 C104 1.671 . S
C191 C16 1.717 . S
C193 C126 1.660 . S
C211 C145 1.018 . S
C209 C32 1.220 . S
C227 C43 1.605 . S
C229 C166 1.280 . S
C247 C123 1.970 . S
C245 C5 2.046 . S
C265 C101 1.389 . S
C263 C21 1.447 . S
C283 C168 1.275 . S
C281 C27 1.309 . S
C301 C147 1.328 . S
C299 C37 1.419 . S
C317 C10 1.654 . S
C319 C165 1.619 . S
C337 C124 1.350 . S
C335 C26 1.663 . S
C353 C38 1.461 . S
C355 C106 1.316 . S
C371 C15 1.617 . S
C373 C144 1.574 . S
C391 C102 1.716 . S
C389 C48 1.820 . S
C407 C59 1.467 . S
C409 C122 1.459 . S
C425 C76 1.431 . S
C427 C148 1.189 . S
C443 C87 1.419 . S
C445 C169 1.128 . S
C461 C54 1.509 . S
C463 C125 1.480 . S
C481 C105 1.941 . S
C479 C60 1.972 . S
C499 C164 1.175 . S
C497 C71 1.261 . S
C517 C143 1.416 . S
C515 C82 1.431 . S
C533 C49 1.745 . S
C535 C167 1.676 . S
C553 C127 1.079 . S
C551 C70 1.299 . S
C571 C103 1.385 . S
C569 C81 1.559 . S
C587 C65 1.504 . S
C589 C146 1.477 . S
