# Generated by pormake.
# Topology wbl, (4,4)-cn, num edge types: 1
# Building blocks:
#     Node 0, Type 0, BuildingBlock: MUDLON_clean_linker_0, # of connection points: 4
#     Node 1, Type 0, BuildingBlock: MUDLON_clean_linker_0, # of connection points: 4
#     Node 2, Type 0, BuildingBlock: MUDLON_clean_linker_0, # of connection points: 4
#     Node 3, Type 0, BuildingBlock: MUDLON_clean_linker_0, # of connection points: 4
#     Node 4, Type 0, BuildingBlock: MUDLON_clean_linker_0, # of connection points: 4
#     Node 5, Type 0, BuildingBlock: MUDLON_clean_linker_0, # of connection points: 4
#     Node 6, Type 0, BuildingBlock: MUDLON_clean_linker_0, # of connection points: 4
#     Node 7, Type 0, BuildingBlock: MUDLON_clean_linker_0, # of connection points: 4
#     Node 8, Type 1, BuildingBlock: TATPOV_clean_sbu_0, # of connection points: 4
#     Node 9, Type 1, BuildingBlock: TATPOV_clean_sbu_0, # of connection points: 4
#     Node 10, Type 1, BuildingBlock: TATPOV_clean_sbu_0, # of connection points: 4
#     Node 11, Type 1, BuildingBlock: TATPOV_clean_sbu_0, # of connection points: 4
#     Node 12, Type 1, BuildingBlock: TATPOV_clean_sbu_0, # of connection points: 4
#     Node 13, Type 1, BuildingBlock: TATPOV_clean_sbu_0, # of connection points: 4
#     Node 14, Type 1, BuildingBlock: TATPOV_clean_sbu_0, # of connection points: 4
#     Node 15, Type 1, BuildingBlock: TATPOV_clean_sbu_0, # of connection points: 4
#     Edge 16, Type (0, 1), BuildingBlock: OJICUG_clean_linker_0, # of connection points: 2
#     Edge 17, Type (0, 1), BuildingBlock: OJICUG_clean_linker_0, # of connection points: 2
#     Edge 18, Type (0, 1), BuildingBlock: OJICUG_clean_linker_0, # of connection points: 2
#     Edge 19, Type (0, 1), BuildingBlock: OJICUG_clean_linker_0, # of connection points: 2
#     Edge 20, Type (0, 1), BuildingBlock: OJICUG_clean_linker_0, # of connection points: 2
#     Edge 21, Type (0, 1), BuildingBlock: OJICUG_clean_linker_0, # of connection points: 2
#     Edge 22, Type (0, 1), BuildingBlock: OJICUG_clean_linker_0, # of connection points: 2
#     Edge 23, Type (0, 1), BuildingBlock: OJICUG_clean_linker_0, # of connection points: 2
#     Edge 24, Type (0, 1), BuildingBlock: OJICUG_clean_linker_0, # of connection points: 2
#     Edge 25, Type (0, 1), BuildingBlock: OJICUG_clean_linker_0, # of connection points: 2
#     Edge 26, Type (0, 1), BuildingBlock: OJICUG_clean_linker_0, # of connection points: 2
#     Edge 27, Type (0, 1), BuildingBlock: OJICUG_clean_linker_0, # of connection points: 2
#     Edge 28, Type (0, 1), BuildingBlock: OJICUG_clean_linker_0, # of connection points: 2
#     Edge 29, Type (0, 1), BuildingBlock: OJICUG_clean_linker_0, # of connection points: 2
#     Edge 30, Type (0, 1), BuildingBlock: OJICUG_clean_linker_0, # of connection points: 2
#     Edge 31, Type (0, 1), BuildingBlock: OJICUG_clean_linker_0, # of connection points: 2
#     Edge 32, Type (0, 1), BuildingBlock: OJICUG_clean_linker_0, # of connection points: 2
#     Edge 33, Type (0, 1), BuildingBlock: OJICUG_clean_linker_0, # of connection points: 2
#     Edge 34, Type (0, 1), BuildingBlock: OJICUG_clean_linker_0, # of connection points: 2
#     Edge 35, Type (0, 1), BuildingBlock: OJICUG_clean_linker_0, # of connection points: 2
#     Edge 36, Type (0, 1), BuildingBlock: OJICUG_clean_linker_0, # of connection points: 2
#     Edge 37, Type (0, 1), BuildingBlock: OJICUG_clean_linker_0, # of connection points: 2
#     Edge 38, Type (0, 1), BuildingBlock: OJICUG_clean_linker_0, # of connection points: 2
#     Edge 39, Type (0, 1), BuildingBlock: OJICUG_clean_linker_0, # of connection points: 2
#     Edge 40, Type (0, 1), BuildingBlock: OJICUG_clean_linker_0, # of connection points: 2
#     Edge 41, Type (0, 1), BuildingBlock: OJICUG_clean_linker_0, # of connection points: 2
#     Edge 42, Type (0, 1), BuildingBlock: OJICUG_clean_linker_0, # of connection points: 2
#     Edge 43, Type (0, 1), BuildingBlock: OJICUG_clean_linker_0, # of connection points: 2
#     Edge 44, Type (0, 1), BuildingBlock: OJICUG_clean_linker_0, # of connection points: 2
#     Edge 45, Type (0, 1), BuildingBlock: OJICUG_clean_linker_0, # of connection points: 2
#     Edge 46, Type (0, 1), BuildingBlock: OJICUG_clean_linker_0, # of connection points: 2
#     Edge 47, Type (0, 1), BuildingBlock: OJICUG_clean_linker_0, # of connection points: 2
# Relax obj value: 0.124
# Max RMSD: 0.129
# Mean RMSD: 0.121
data_MOF--net-wbl--node1-TATPOV_clean_sbu_0--node2-MUDLON_clean_linker_0--edge1-OJICUG_clean_linker_0
_symmetry_space_group_name_H-M    P1
_symmetry_Int_Tables_number       1
_symmetry_cell_setting            triclinic
loop_
_symmetry_equiv_pos_as_xyz
'x, y, z'
_cell_length_a     43.134504
_cell_length_b     43.100588
_cell_length_c     59.916097
_cell_angle_alpha  91.413698
_cell_angle_beta   91.324572
_cell_angle_gamma 89.975473
loop_
_atom_site_label
_atom_site_type_symbol
_atom_site_fract_x
_atom_site_fract_y
_atom_site_fract_z
_atom_type_partial_charge
H0 H 0.19322 0.97596 0.34947 0.0
N1 N 0.13673 0.98678 0.33308 0.0
H2 H 0.2078 0.94113 0.37964 0.0
H3 H 0.09659 0.9598 0.36207 0.0
H4 H 0.11099 0.92521 0.39215 0.0
H5 H 0.11374 0.92816 0.32499 0.0
H6 H 0.13251 0.89219 0.29707 0.0
H7 H 0.1638 0.00259 0.29547 0.0
H8 H 0.17991 0.96745 0.26541 0.0
H9 H 0.14265 0.04698 0.34165 0.0
H10 H 0.07471 0.97614 0.32585 0.0
H11 H 0.10166 0.08598 0.34377 0.0
H12 H 0.03321 0.0146 0.32898 0.0
H13 H 0.95674 0.19571 0.37191 0.0
H14 H 0.92449 0.19869 0.40484 0.0
H15 H 0.91371 0.09892 0.4019 0.0
H16 H 0.94532 0.09637 0.36855 0.0
H17 H 0.91964 0.10889 0.33273 0.0
H18 H 0.87738 0.1232 0.30742 0.0
H19 H 0.92282 0.21053 0.29587 0.0
H20 H 0.96569 0.19544 0.32083 0.0
H21 H 0.02072 0.14141 0.37012 0.0
H22 H 0.06106 0.10208 0.36697 0.0
H23 H 0.01025 0.05839 0.31169 0.0
N24 N 0.96828 0.14602 0.34647 0.0
H25 H 0.96966 0.09666 0.31539 0.0
C26 C 0.14395 0.97076 0.35347 0.0
C27 C 0.1752 0.96553 0.35909 0.0
C28 C 0.18344 0.94542 0.37614 0.0
C29 C 0.16049 0.93022 0.38807 0.0
C30 C 0.12915 0.93674 0.38332 0.0
C31 C 0.12091 0.95668 0.36609 0.0
C32 C 0.13883 0.96778 0.313 0.0
C33 C 0.12799 0.93703 0.31197 0.0
C34 C 0.13855 0.91636 0.29553 0.0
C35 C 0.15923 0.92626 0.27923 0.0
C36 C 0.16562 0.9583 0.27831 0.0
C37 C 0.15602 0.97869 0.2953 0.0
C38 C 0.11171 0.00883 0.33376 0.0
C39 C 0.11877 0.03992 0.33878 0.0
C40 C 0.09526 0.06206 0.34016 0.0
C41 C 0.06401 0.05344 0.33678 0.0
C42 C 0.057 0.02216 0.33147 0.0
C43 C 0.08066 6e-05 0.32984 0.0
C44 C 0.95347 0.14598 0.36783 0.0
C45 C 0.94789 0.17449 0.37869 0.0
C46 C 0.92951 0.17607 0.39753 0.0
C47 C 0.91637 0.14903 0.40598 0.0
C48 C 0.92307 0.12022 0.39562 0.0
C49 C 0.94138 0.11869 0.37667 0.0
C50 C 0.94603 0.15111 0.32856 0.0
C51 C 0.92091 0.1308 0.32437 0.0
C52 C 0.89656 0.13917 0.31005 0.0
C53 C 0.89646 0.16823 0.29989 0.0
C54 C 0.92226 0.18788 0.30328 0.0
C55 C 0.9468 0.17933 0.31749 0.0
C56 C 0.99169 0.12224 0.34337 0.0
C57 C 0.01819 0.12324 0.35739 0.0
C58 C 0.04138 0.10084 0.35543 0.0
C59 C 0.03898 0.077 0.33903 0.0
C60 C 0.01262 0.07606 0.32478 0.0
C61 C 0.98921 0.09831 0.32691 0.0
H62 H 0.969 0.35349 0.61949 0.0
N63 N 0.95972 0.4026 0.59463 0.0
H64 H 0.94988 0.34495 0.65681 0.0
H65 H 0.93336 0.4468 0.62165 0.0
H66 H 0.91483 0.439 0.65945 0.0
H67 H 0.9007 0.42492 0.58952 0.0
H68 H 0.85802 0.39827 0.5694 0.0
H69 H 0.96457 0.35532 0.56594 0.0
H70 H 0.92225 0.3284 0.5459 0.0
H71 H 0.02077 0.40027 0.59378 0.0
H72 H 0.94312 0.46047 0.58065 0.0
H73 H 0.05643 0.44078 0.58291 0.0
H74 H 0.97856 0.50109 0.56887 0.0
H75 H 0.15583 0.53923 0.59524 0.0
H76 H 0.17457 0.56388 0.63049 0.0
H77 H 0.11296 0.64117 0.61937 0.0
H78 H 0.09404 0.61653 0.58472 0.0
H79 H 0.07678 0.60521 0.54637 0.0
H80 H 0.09256 0.64867 0.5236 0.0
H81 H 0.18548 0.61139 0.52158 0.0
H82 H 0.16954 0.56836 0.54443 0.0
H83 H 0.11518 0.506 0.54809 0.0
H84 H 0.0741 0.4675 0.55151 0.0
H85 H 0.01694 0.53679 0.5839 0.0
N86 N 0.11658 0.56308 0.56529 0.0
H87 H 0.0574 0.57536 0.57927 0.0
C88 C 0.95266 0.40065 0.61789 0.0
C89 C 0.95777 0.37241 0.62837 0.0
C90 C 0.94689 0.36768 0.64975 0.0
C91 C 0.9307 0.39128 0.6612 0.0
C92 C 0.92683 0.42018 0.65101 0.0
C93 C 0.93764 0.42481 0.62949 0.0
C94 C 0.93576 0.39181 0.57929 0.0
C95 C 0.90568 0.40438 0.57951 0.0
C96 C 0.88128 0.38903 0.56811 0.0
C97 C 0.88667 0.36107 0.55622 0.0
C98 C 0.91727 0.35004 0.55467 0.0
C99 C 0.94153 0.36529 0.56613 0.0
C100 C 0.9795 0.42732 0.58794 0.0
C101 C 0.0115 0.42225 0.58832 0.0
C102 C 0.03176 0.44535 0.58185 0.0
C103 C 0.02038 0.47412 0.57466 0.0
C104 C 0.98812 0.47925 0.57436 0.0
C105 C 0.9678 0.45604 0.58102 0.0
C106 C 0.12398 0.57612 0.58716 0.0
C107 C 0.14598 0.56117 0.6007 0.0
C108 C 0.15652 0.57515 0.62078 0.0
C109 C 0.14531 0.60445 0.6274 0.0
C110 C 0.12208 0.61865 0.61445 0.0
C111 C 0.11133 0.60455 0.59459 0.0
C112 C 0.12219 0.58369 0.54726 0.0
C113 C 0.10028 0.60593 0.54049 0.0
C114 C 0.10939 0.63088 0.52761 0.0
C115 C 0.14038 0.63368 0.52106 0.0
C116 C 0.16141 0.60987 0.52621 0.0
C117 C 0.15237 0.5852 0.53923 0.0
C118 C 0.0897 0.54329 0.56375 0.0
C119 C 0.09342 0.51299 0.55536 0.0
C120 C 0.07006 0.49099 0.55759 0.0
C121 C 0.04253 0.49882 0.56857 0.0
C122 C 0.03783 0.5299 0.57541 0.0
C123 C 0.06114 0.55202 0.57289 0.0
H124 H 0.68753 0.46485 0.86958 0.0
N125 N 0.64057 0.46535 0.84018 0.0
H126 H 0.68944 0.43992 0.90584 0.0
H127 H 0.59217 0.43675 0.86011 0.0
H128 H 0.59361 0.41229 0.89648 0.0
H129 H 0.62791 0.40315 0.83404 0.0
H130 H 0.65802 0.36757 0.8119 0.0
H131 H 0.67467 0.48062 0.8056 0.0
H132 H 0.70247 0.44515 0.7809 0.0
H133 H 0.64768 0.52566 0.84696 0.0
H134 H 0.58207 0.45681 0.82268 0.0
H135 H 0.60817 0.56599 0.84361 0.0
H136 H 0.54172 0.49697 0.81991 0.0
H137 H 0.48058 0.69048 0.85038 0.0
H138 H 0.45155 0.70894 0.88273 0.0
H139 H 0.42319 0.61481 0.8949 0.0
H140 H 0.45292 0.59653 0.86292 0.0
H141 H 0.43384 0.59183 0.82544 0.0
H142 H 0.3872 0.6008 0.80251 0.0
H143 H 0.42681 0.6864 0.78014 0.0
H144 H 0.47331 0.67712 0.80305 0.0
H145 H 0.52473 0.62048 0.86434 0.0
H146 H 0.56231 0.57875 0.86429 0.0
H147 H 0.52593 0.54521 0.80047 0.0
N148 N 0.48143 0.63329 0.83284 0.0
H149 H 0.48773 0.58654 0.80054 0.0
C150 C 0.63983 0.45279 0.86223 0.0
C151 C 0.66689 0.45375 0.87555 0.0
C152 C 0.66783 0.43963 0.89626 0.0
C153 C 0.64163 0.42417 0.90403 0.0
C154 C 0.61423 0.42382 0.89086 0.0
C155 C 0.61329 0.43806 0.87016 0.0
C156 C 0.65016 0.44468 0.82232 0.0
C157 C 0.64398 0.41267 0.82245 0.0
C158 C 0.66119 0.39209 0.80931 0.0
C159 C 0.68408 0.40309 0.79503 0.0
C160 C 0.68652 0.43545 0.79252 0.0
C161 C 0.67018 0.45595 0.80635 0.0
C162 C 0.61765 0.48848 0.83525 0.0
C163 C 0.6247 0.51942 0.8407 0.0
C164 C 0.60203 0.54229 0.839 0.0
C165 C 0.57165 0.53455 0.83194 0.0
C166 C 0.56491 0.50362 0.82543 0.0
C167 C 0.58782 0.48068 0.82706 0.0
C168 C 0.46876 0.64232 0.85416 0.0
C169 C 0.46868 0.67383 0.86039 0.0
C170 C 0.45186 0.68431 0.87869 0.0
C171 C 0.4347 0.66336 0.89112 0.0
C172 C 0.43625 0.63149 0.88568 0.0
C173 C 0.4531 0.62103 0.86734 0.0
C174 C 0.45706 0.63398 0.81595 0.0
C175 C 0.4327 0.61219 0.81526 0.0
C176 C 0.40599 0.61744 0.80226 0.0
C177 C 0.40319 0.64447 0.78972 0.0
C178 C 0.42834 0.6652 0.78944 0.0
C179 C 0.45496 0.65995 0.80245 0.0
C180 C 0.50174 0.60631 0.83313 0.0
C181 C 0.52399 0.60376 0.85056 0.0
C182 C 0.54595 0.58007 0.85036 0.0
C183 C 0.54706 0.55863 0.83238 0.0
C184 C 0.52525 0.56105 0.81476 0.0
C185 C 0.50313 0.58483 0.81495 0.0
H186 H 0.49517 0.87615 0.13995 0.0
N187 N 0.47798 0.91496 0.1085 0.0
H188 H 0.46825 0.86689 0.1746 0.0
H189 H 0.43643 0.95487 0.1274 0.0
H190 H 0.40821 0.94502 0.1616 0.0
H191 H 0.42043 0.93139 0.09286 0.0
H192 H 0.38514 0.89877 0.07022 0.0
H193 H 0.49076 0.86051 0.08926 0.0
H194 H 0.45558 0.82765 0.06631 0.0
H195 H 0.53866 0.91949 0.11459 0.0
H196 H 0.46002 0.96636 0.08538 0.0
H197 H 0.57329 0.95826 0.09987 0.0
H198 H 0.49451 0.00422 0.06923 0.0
H199 H 0.68819 0.07106 0.07106 0.0
H200 H 0.71299 0.09386 0.10494 0.0
H201 H 0.623 0.12072 0.12895 0.0
H202 H 0.59864 0.09843 0.09542 0.0
H203 H 0.59541 0.12694 0.06017 0.0
H204 H 0.60997 0.17307 0.04061 0.0
H205 H 0.67645 0.11958 0.00305 0.0
H206 H 0.66152 0.07305 0.02282 0.0
H207 H 0.63354 0.01146 0.05684 0.0
H208 H 0.5949 0.9731 0.06655 0.0
H209 H 0.52785 0.04659 0.07615 0.0
N210 N 0.62832 0.07241 0.05942 0.0
H211 H 0.56589 0.08423 0.06472 0.0
C212 C 0.46743 0.91576 0.13105 0.0
C213 C 0.47695 0.89192 0.14506 0.0
C214 C 0.46129 0.88647 0.16466 0.0
C215 C 0.43552 0.90467 0.1705 0.0
C216 C 0.42787 0.93049 0.15752 0.0
C217 C 0.44385 0.93608 0.13792 0.0
C218 C 0.45837 0.89836 0.09259 0.0
C219 C 0.42856 0.9091 0.08678 0.0
C220 C 0.40834 0.89038 0.07386 0.0
C221 C 0.4175 0.86056 0.06669 0.0
C222 C 0.44771 0.85035 0.07191 0.0
C223 C 0.46793 0.86914 0.08475 0.0
C224 C 0.49695 0.93979 0.10093 0.0
C225 C 0.52895 0.93819 0.10491 0.0
C226 C 0.54869 0.96014 0.09614 0.0
C227 C 0.53688 0.98408 0.0828 0.0
C228 C 0.50452 0.98619 0.07938 0.0
C229 C 0.48469 0.96438 0.08853 0.0
C230 C 0.64161 0.0826 0.08068 0.0
C231 C 0.67388 0.08138 0.08387 0.0
C232 C 0.68796 0.09454 0.1031 0.0
C233 C 0.66988 0.10896 0.11957 0.0
C234 C 0.63748 0.10932 0.1167 0.0
C235 C 0.62348 0.09649 0.09741 0.0
C236 C 0.62746 0.09629 0.04301 0.0
C237 C 0.61177 0.12449 0.04687 0.0
C238 C 0.62029 0.15111 0.03565 0.0
C239 C 0.64477 0.15008 0.02055 0.0
C240 C 0.65775 0.12114 0.01478 0.0
C241 C 0.64906 0.09449 0.02591 0.0
C242 C 0.60299 0.05073 0.06042 0.0
C243 C 0.6102 0.01909 0.0604 0.0
C244 C 0.58818 -0.0027 0.06636 0.0
C245 C 0.55846 0.00677 0.07296 0.0
C246 C 0.55048 0.03833 0.07131 0.0
C247 C 0.57244 0.06008 0.06486 0.0
H248 H 0.12419 0.60795 0.90559 0.0
N249 N 0.06642 0.62464 0.91977 0.0
H250 H 0.14605 0.61904 0.86965 0.0
H251 H 0.03595 0.64451 0.88363 0.0
H252 H 0.05706 0.65401 0.84687 0.0
H253 H 0.08048 0.68418 0.92592 0.0
H254 H 0.12325 0.70622 0.94795 0.0
H255 H 0.10147 0.59368 0.95153 0.0
H256 H 0.14219 0.6159 0.9753 0.0
H257 H 0.08467 0.56478 0.90992 0.0
H258 H 0.01439 0.61968 0.94227 0.0
H259 H 0.058 0.51752 0.91962 0.0
H260 H 0.98815 0.5722 0.95312 0.0
H261 H 0.96799 0.36439 0.94689 0.0
H262 H 0.95352 0.33239 0.91385 0.0
H263 H 0.92773 0.41518 0.87875 0.0
H264 H 0.94197 0.44668 0.91136 0.0
H265 H 0.89887 0.43564 0.94089 0.0
H266 H 0.85418 0.42143 0.96206 0.0
H267 H 0.91458 0.39763 0.01772 0.0
H268 H 0.95962 0.4101 0.99553 0.0
H269 H 0.02007 0.43673 0.95617 0.0
H270 H 0.04673 0.48568 0.94991 0.0
H271 H 0.95816 0.53016 0.93816 0.0
N272 N 0.9598 0.4252 0.95272 0.0
H273 H 0.93188 0.48165 0.94539 0.0
C274 C 0.07843 0.62594 0.89745 0.0
C275 C 0.10928 0.61776 0.89281 0.0
C276 C 0.12172 0.62392 0.87206 0.0
C277 C 0.10352 0.63788 0.85528 0.0
C278 C 0.07208 0.64405 0.85952 0.0
C279 C 0.0598 0.63831 0.88043 0.0
C280 C 0.08765 0.63732 0.93672 0.0
C281 C 0.09362 0.66928 0.93695 0.0
C282 C 0.1181 0.68188 0.94981 0.0
C283 C 0.13684 0.6629 0.96339 0.0
C284 C 0.12913 0.63122 0.96457 0.0
C285 C 0.10528 0.61844 0.9511 0.0
C286 C 0.05116 0.59598 0.92503 0.0
C287 C 0.06342 0.56675 0.91906 0.0
C288 C 0.04831 0.53958 0.92495 0.0
C289 C 0.02088 0.54093 0.93723 0.0
C290 C 0.00891 0.57021 0.94337 0.0
C291 C 0.0239 0.59738 0.93728 0.0
C292 C 0.95631 0.40793 0.9318 0.0
C293 C 0.95996 0.3756 0.93185 0.0
C294 C 0.9515 0.35739 0.91306 0.0
C295 C 0.93941 0.3713 0.89376 0.0
C296 C 0.93737 0.4038 0.89326 0.0
C297 C 0.94556 0.42193 0.91207 0.0
C298 C 0.93283 0.42343 0.96651 0.0
C299 C 0.90262 0.42778 0.95773 0.0
C300 C 0.87686 0.41979 0.97004 0.0
C301 C 0.88056 0.40785 0.99161 0.0
C302 C 0.91075 0.40589 0.00096 0.0
C303 C 0.93656 0.41341 0.98845 0.0
C304 C 0.9741 0.45535 0.95126 0.0
C305 C 0.00649 0.45724 0.95263 0.0
C306 C 0.02164 0.48517 0.94878 0.0
C307 C 0.00465 0.51188 0.94321 0.0
C308 C 0.97205 0.51022 0.94261 0.0
C309 C 0.9569 0.48232 0.94671 0.0
H310 H 0.53823 0.33801 0.16528 0.0
N311 N 0.53116 0.3898 0.1893 0.0
H312 H 0.5745 0.32926 0.1349 0.0
H313 H 0.56102 0.43545 0.16689 0.0
H314 H 0.59683 0.42689 0.13632 0.0
H315 H 0.58071 0.4234 0.20603 0.0
H316 H 0.6239 0.40098 0.22699 0.0
H317 H 0.52743 0.34014 0.21408 0.0
H318 H 0.57067 0.31704 0.23441 0.0
H319 H 0.47146 0.3783 0.18329 0.0
H320 H 0.5359 0.45213 0.19976 0.0
H321 H 0.42887 0.41563 0.18227 0.0
H322 H 0.49384 0.48992 0.19767 0.0
H323 H 0.30838 0.5476 0.14938 0.0
H324 H 0.30167 0.56948 0.11227 0.0
H325 H 0.40026 0.58682 0.11053 0.0
H326 H 0.40661 0.56533 0.14774 0.0
H327 H 0.39913 0.59473 0.18188 0.0
H328 H 0.38781 0.64166 0.20372 0.0
H329 H 0.2997 0.60259 0.22152 0.0
H330 H 0.31182 0.55525 0.2001 0.0
H331 H 0.36991 0.49178 0.15213 0.0
H332 H 0.41125 0.45432 0.1578 0.0
H333 H 0.44697 0.50957 0.21378 0.0
N334 N 0.36016 0.5452 0.17424 0.0
H335 H 0.40639 0.54741 0.2078 0.0
C336 C 0.54673 0.38726 0.16833 0.0
C337 C 0.55027 0.35764 0.15858 0.0
C338 C 0.57114 0.35265 0.14144 0.0
C339 C 0.58859 0.37739 0.13353 0.0
C340 C 0.58352 0.4075 0.14214 0.0
C341 C 0.56292 0.4124 0.15957 0.0
C342 C 0.55082 0.38324 0.20833 0.0
C343 C 0.57764 0.4009 0.21324 0.0
C344 C 0.60261 0.38779 0.22496 0.0
C345 C 0.6012 0.35683 0.23183 0.0
C346 C 0.57277 0.34092 0.22946 0.0
C347 C 0.54783 0.35412 0.21786 0.0
C348 C 0.50679 0.41237 0.19133 0.0
C349 C 0.47632 0.40261 0.18679 0.0
C350 C 0.45211 0.42404 0.18598 0.0
C351 C 0.45796 0.45592 0.18946 0.0
C352 C 0.48844 0.46557 0.19498 0.0
C353 C 0.51265 0.44395 0.19601 0.0
C354 C 0.35782 0.55493 0.15135 0.0
C355 C 0.32853 0.55572 0.14079 0.0
C356 C 0.32481 0.56809 0.11957 0.0
C357 C 0.35043 0.58002 0.10848 0.0
C358 C 0.38001 0.57822 0.11877 0.0
C359 C 0.3837 0.56585 0.14 0.0
C360 C 0.35629 0.57132 0.18949 0.0
C361 C 0.3776 0.59607 0.19075 0.0
C362 C 0.37096 0.62303 0.20313 0.0
C363 C 0.34268 0.6261 0.21422 0.0
C364 C 0.32187 0.60094 0.21345 0.0
C365 C 0.32868 0.57386 0.20122 0.0
C366 C 0.38518 0.52341 0.17874 0.0
C367 C 0.38681 0.49612 0.1655 0.0
C368 C 0.41033 0.47444 0.16896 0.0
C369 C 0.43261 0.47896 0.18621 0.0
C370 C 0.43061 0.5057 0.20001 0.0
C371 C 0.40714 0.52759 0.19645 0.0
H372 H 0.35112 0.94575 0.42265 0.0
N373 N 0.40972 0.95098 0.43687 0.0
H374 H 0.33097 0.91413 0.39098 0.0
H375 H 0.44438 0.9198 0.40582 0.0
H376 H 0.42458 0.88837 0.3743 0.0
H377 H 0.42823 0.89093 0.44264 0.0
H378 H 0.40493 0.85708 0.4687 0.0
H379 H 0.38935 0.97048 0.47656 0.0
H380 H 0.36938 0.93719 0.50508 0.0
H381 H 0.39836 0.01106 0.43473 0.0
H382 H 0.47257 0.94433 0.43518 0.0
H383 H 0.43494 0.0523 0.42698 0.0
H384 H 0.50933 0.98486 0.42549 0.0
H385 H 0.5466 0.17061 0.37425 0.0
H386 H 0.56892 0.17924 0.33778 0.0
H387 H 0.60651 0.08631 0.33743 0.0
H388 H 0.58355 0.07774 0.37388 0.0
H389 H 0.61311 0.09756 0.40537 0.0
H390 H 0.65396 0.1173 0.43042 0.0
H391 H 0.59236 0.18931 0.4543 0.0
H392 H 0.55106 0.16874 0.42929 0.0
H393 H 0.49617 0.11264 0.38739 0.0
H394 H 0.46216 0.07026 0.39719 0.0
H395 H 0.53719 0.0295 0.43562 0.0
N396 N 0.55482 0.12186 0.39976 0.0
H397 H 0.57144 0.07046 0.42443 0.0
C398 C 0.39915 0.93553 0.41647 0.0
C399 C 0.36722 0.9337 0.41187 0.0
C400 C 0.35581 0.9154 0.39397 0.0
C401 C 0.37623 0.89862 0.38027 0.0
C402 C 0.40832 0.90126 0.38445 0.0
C403 C 0.41969 0.91941 0.40245 0.0
C404 C 0.40881 0.93311 0.45685 0.0
C405 C 0.41573 0.90127 0.45638 0.0
C406 C 0.40234 0.88173 0.47172 0.0
C407 C 0.38286 0.89385 0.48846 0.0
C408 C 0.3819 0.92643 0.49152 0.0
C409 C 0.39403 0.9458 0.4755 0.0
C410 C 0.43272 0.97479 0.4351 0.0
C411 C 0.4227 0.00545 0.43313 0.0
C412 C 0.44363 0.02884 0.42833 0.0
C413 C 0.47509 0.02193 0.42491 0.0
C414 C 0.48535 0.9912 0.42797 0.0
C415 C 0.46436 0.96787 0.43329 0.0
C416 C 0.56366 0.12379 0.3768 0.0
C417 C 0.55896 0.15188 0.366 0.0
C418 C 0.57167 0.1567 0.34518 0.0
C419 C 0.58964 0.1335 0.33484 0.0
C420 C 0.59302 0.10468 0.34515 0.0
C421 C 0.5799 0.09975 0.36591 0.0
C422 C 0.57887 0.13171 0.4155 0.0
C423 C 0.60824 0.11751 0.41599 0.0
C424 C 0.63173 0.12898 0.43026 0.0
C425 C 0.62653 0.15508 0.44421 0.0
C426 C 0.59703 0.169 0.44391 0.0
C427 C 0.57345 0.15737 0.42965 0.0
C428 C 0.53629 0.09529 0.40523 0.0
C429 C 0.50532 0.09435 0.39774 0.0
C430 C 0.48581 0.07024 0.40364 0.0
C431 C 0.49663 0.04662 0.41766 0.0
C432 C 0.52796 0.0471 0.42473 0.0
C433 C 0.54768 0.07094 0.41841 0.0
H434 H 0.07524 0.90755 0.64633 0.0
N435 N 0.10863 0.93945 0.67911 0.0
H436 H 0.09319 0.89228 0.60947 0.0
H437 H 0.16239 0.95341 0.6611 0.0
H438 H 0.18098 0.93745 0.62425 0.0
H439 H 0.146 0.94833 0.71454 0.0
H440 H 0.16904 0.90837 0.73827 0.0
H441 H 0.09179 0.87806 0.67917 0.0
H442 H 0.11414 0.83852 0.70277 0.0
H443 H 0.05126 0.91209 0.68325 0.0
H444 H 0.09838 -3e-05 0.67962 0.0
H445 H 0.00149 0.93848 0.68278 0.0
H446 H 0.04842 0.02682 0.67988 0.0
H447 H 0.85703 0.02204 0.65073 0.0
H448 H 0.83007 0.04412 0.61811 0.0
H449 H 0.89581 0.11956 0.61908 0.0
H450 H 0.92144 0.09866 0.65188 0.0
H451 H 0.94439 0.09259 0.68983 0.0
H452 H 0.9326 0.13638 0.71474 0.0
H453 H 0.84054 0.09973 0.72342 0.0
H454 H 0.85276 0.05559 0.69873 0.0
H455 H 0.91754 -0.00047 0.69988 0.0
H456 H 0.96748 0.97279 0.70345 0.0
H457 H 0.0054 0.03285 0.65425 0.0
N458 N 0.90332 0.04763 0.67487 0.0
H459 H 0.95654 0.05968 0.65125 0.0
C460 C 0.11752 0.93186 0.65655 0.0
C461 C 0.09818 0.91459 0.64164 0.0
C462 C 0.10859 0.90562 0.62054 0.0
C463 C 0.13859 0.9135 0.61391 0.0
C464 C 0.15761 0.93132 0.62868 0.0
C465 C 0.14713 0.94035 0.64976 0.0
C466 C 0.11713 0.91638 0.69515 0.0
C467 C 0.13837 0.92449 0.71236 0.0
C468 C 0.15151 0.90169 0.72583 0.0
C469 C 0.14335 0.87034 0.7224 0.0
C470 C 0.1205 0.86253 0.70611 0.0
C471 C 0.10768 0.88525 0.69251 0.0
C472 C 0.07878 0.95412 0.68137 0.0
C473 C 0.05108 0.93709 0.68272 0.0
C474 C 0.02245 0.95228 0.68255 0.0
C475 C 0.02091 0.98476 0.6811 0.0
C476 C 0.04871 0.00174 0.68057 0.0
C477 C 0.07728 0.98652 0.68063 0.0
C478 C 0.89172 0.05806 0.65352 0.0
C479 C 0.86603 0.04288 0.64351 0.0
C480 C 0.85062 0.05553 0.62503 0.0
C481 C 0.86118 0.08329 0.61606 0.0
C482 C 0.88764 0.0978 0.62545 0.0
C483 C 0.90246 0.08565 0.64419 0.0
C484 C 0.89934 0.07068 0.69243 0.0
C485 C 0.92192 0.09352 0.69747 0.0
C486 C 0.91505 0.11876 0.71155 0.0
C487 C 0.88552 0.1217 0.72083 0.0
C488 C 0.86358 0.09803 0.71669 0.0
C489 C 0.87049 0.0728 0.70262 0.0
C490 C 0.93277 0.03156 0.67529 0.0
C491 C 0.93665 0.00677 0.68982 0.0
C492 C 0.96516 0.99151 0.69179 0.0
C493 C 0.9905 0.0008 0.67921 0.0
C494 C 0.98655 0.02546 0.66451 0.0
C495 C 0.95815 0.04076 0.66262 0.0
Zn496 Zn 0.30563 0.75368 0.97674 0.0
Zn497 Zn 0.32389 0.70741 0.00417 0.0
O498 O 0.2773 0.69995 -0.0011 0.0
O499 O 0.26101 0.73976 0.97944 0.0
O500 O 0.33634 0.67652 0.02737 0.0
O501 O 0.32404 0.78639 0.99776 0.0
O502 O 0.3384 0.74813 0.01931 0.0
C503 C 0.25542 0.71481 0.98933 0.0
C504 C 0.35046 0.70904 0.9581 0.0
O505 O 0.34926 0.69628 0.97699 0.0
O506 O 0.33397 0.73274 0.95403 0.0
C507 C 0.3252 0.64934 0.02863 0.0
O508 O 0.3047 0.63952 0.01351 0.0
C509 C 0.33763 0.777 0.01528 0.0
Zn510 Zn 0.2759 0.78483 0.28568 0.0
Zn511 Zn 0.31403 0.81446 0.25794 0.0
O512 O 0.27248 0.83615 0.25277 0.0
O513 O 0.23979 0.80898 0.27214 0.0
O514 O 0.34271 0.83386 0.23632 0.0
O515 O 0.28874 0.74295 0.27285 0.0
O516 O 0.31722 0.76819 0.24932 0.0
C517 C 0.24505 0.83118 0.25926 0.0
C518 C 0.32382 0.82266 0.30812 0.0
O519 O 0.33244 0.82722 0.2883 0.0
O520 O 0.30052 0.80559 0.31149 0.0
C521 C 0.35062 0.86229 0.23677 0.0
O522 O 0.33922 0.88121 0.25203 0.0
C523 C 0.30693 0.74272 0.25656 0.0
Zn524 Zn 0.23658 0.78567 0.46725 0.0
Zn525 Zn 0.20599 0.81732 0.49922 0.0
O526 O 0.25189 0.82741 0.50548 0.0
O527 O 0.27784 0.79744 0.48226 0.0
O528 O 0.18471 0.83778 0.52524 0.0
O529 O 0.21471 0.74567 0.47445 0.0
O530 O 0.19127 0.77203 0.50104 0.0
C531 C 0.2776 0.81773 0.49792 0.0
C532 C 0.19803 0.83747 0.4515 0.0
O533 O 0.19026 0.84025 0.47183 0.0
O534 O 0.21701 0.81646 0.4456 0.0
C535 C 0.18961 0.86585 0.53129 0.0
O536 O 0.20862 0.88273 0.5198 0.0
C537 C 0.19594 0.74655 0.49039 0.0
Zn538 Zn 0.25114 0.71804 0.71722 0.0
Zn539 Zn 0.21703 0.69147 0.74804 0.0
O540 O 0.2039 0.73774 0.74858 0.0
O541 O 0.23668 0.76051 0.72664 0.0
O542 O 0.19215 0.67266 0.77262 0.0
O543 O 0.29018 0.70021 0.73013 0.0
O544 O 0.2625 0.68119 0.757 0.0
C545 C 0.21421 0.76223 0.73981 0.0
C546 C 0.20699 0.67316 0.69915 0.0
O547 O 0.2016 0.6684 0.71959 0.0
O548 O 0.22627 0.69374 0.69388 0.0
C549 C 0.16514 0.68245 0.77718 0.0
O550 O 0.15293 0.70493 0.76546 0.0
C551 C 0.28866 0.68535 0.74801 0.0
Zn552 Zn 0.75702 0.21513 0.54497 0.0
Zn553 Zn 0.79734 0.19919 0.51179 0.0
O554 O 0.80892 0.24363 0.52014 0.0
O555 O 0.77811 0.25769 0.54733 0.0
O556 O 0.82802 0.18883 0.48811 0.0
O557 O 0.72169 0.20653 0.5226 0.0
O558 O 0.7549 0.19291 0.49674 0.0
C559 C 0.80003 0.26387 0.5344 0.0
C560 C 0.79724 0.16295 0.55501 0.0
O561 O 0.80809 0.16849 0.53595 0.0
O562 O 0.77508 0.1791 0.5626 0.0
C563 C 0.8259 0.16522 0.47507 0.0
O564 O 0.80213 0.14639 0.47653 0.0
C565 C 0.7271 0.19674 0.50295 0.0
Zn566 Zn 0.82129 0.2712 0.80258 0.0
Zn567 Zn 0.8531 0.30539 0.77265 0.0
O568 O 0.80952 0.32429 0.77235 0.0
O569 O 0.78205 0.29473 0.79395 0.0
O570 O 0.87647 0.32836 0.74925 0.0
O571 O 0.8328 0.23165 0.78605 0.0
O572 O 0.85728 0.25998 0.76197 0.0
C573 C 0.78383 0.31752 0.78108 0.0
C574 C 0.87298 0.30775 0.8217 0.0
O575 O 0.87672 0.3157 0.80162 0.0
O576 O 0.85116 0.28945 0.82639 0.0
C577 C 0.86672 0.35246 0.73945 0.0
O578 O 0.83981 0.36443 0.74477 0.0
C579 C 0.84879 0.23354 0.76869 0.0
Zn580 Zn 0.73602 0.31015 0.05394 0.0
Zn581 Zn 0.70191 0.33928 0.02245 0.0
O582 O 0.69275 0.29318 0.01512 0.0
O583 O 0.72396 0.26927 0.03872 0.0
O584 O 0.68148 0.36318 0.9978 0.0
O585 O 0.77549 0.33197 0.04551 0.0
O586 O 0.74679 0.35464 0.01986 0.0
C587 C 0.70384 0.26819 0.02296 0.0
C588 C 0.68397 0.3468 0.0708 0.0
O589 O 0.67975 0.35367 0.05043 0.0
O590 O 0.70618 0.32912 0.07648 0.0
C591 C 0.66195 0.35288 0.98326 0.0
O592 O 0.65219 0.32409 0.9842 0.0
C593 C 0.77303 0.35054 0.02953 0.0
Zn594 Zn 0.75144 0.23548 0.21482 0.0
Zn595 Zn 0.7167 0.20158 0.24319 0.0
O596 O 0.69691 0.24456 0.24483 0.0
O597 O 0.72415 0.2729 0.22237 0.0
O598 O 0.69135 0.17747 0.26453 0.0
O599 O 0.78984 0.22522 0.23356 0.0
O600 O 0.76091 0.19799 0.25571 0.0
C601 C 0.70196 0.27038 0.23573 0.0
C602 C 0.71921 0.18284 0.19375 0.0
O603 O 0.70937 0.17894 0.21335 0.0
O604 O 0.73747 0.20507 0.18998 0.0
C605 C 0.66198 0.177 0.26225 0.0
O606 O 0.64886 0.19173 0.24557 0.0
C607 C 0.78737 0.20814 0.25034 0.0
C608 C 0.20915 0.91003 0.26125 0.0
C609 C 0.17828 0.90295 0.26656 0.0
H610 H 0.25424 0.8927 0.25392 0.0
C611 C 0.16827 0.87194 0.2635 0.0
H612 H 0.21832 0.93329 0.26324 0.0
C613 C 0.1896 0.84827 0.25896 0.0
C614 C 0.22106 0.85529 0.25639 0.0
H615 H 0.14446 0.86547 0.26622 0.0
H616 H 0.18186 0.82436 0.25895 0.0
C617 C 0.23013 0.8865 0.25593 0.0
C618 C 0.17345 0.66175 0.49406 0.0
C619 C 0.15182 0.66274 0.51125 0.0
H620 H 0.20422 0.68736 0.47391 0.0
C621 C 0.14355 0.6917 0.52065 0.0
H622 H 0.18014 0.63979 0.48641 0.0
C623 C 0.15745 0.71895 0.5136 0.0
C624 C 0.17984 0.71788 0.49691 0.0
H625 H 0.1273 0.69322 0.53415 0.0
H626 H 0.15108 0.74078 0.52158 0.0
C627 C 0.18723 0.68902 0.48691 0.0
C628 C 0.34511 0.64852 0.78898 0.0
C629 C 0.37349 0.65237 0.77825 0.0
H630 H 0.29599 0.65602 0.78793 0.0
C631 C 0.37346 0.66584 0.75717 0.0
H632 H 0.34443 0.63856 0.80538 0.0
C633 C 0.34584 0.6761 0.7473 0.0
C634 C 0.31755 0.67309 0.75827 0.0
H635 H 0.39487 0.66876 0.74836 0.0
H636 H 0.34679 0.68673 0.73114 0.0
C637 C 0.3174 0.65875 0.77907 0.0
C638 C 0.39332 0.80832 0.05994 0.0
C639 C 0.39539 0.83972 0.0544 0.0
H640 H 0.37307 0.76402 0.05223 0.0
C641 C 0.37645 0.85089 0.03699 0.0
H642 H 0.40717 0.79921 0.0736 0.0
C643 C 0.35671 0.83076 0.02479 0.0
C644 C 0.35545 0.7991 0.02984 0.0
H645 H 0.3776 0.87498 0.03234 0.0
H646 H 0.3431 0.83987 0.01102 0.0
C647 C 0.37354 0.78824 0.04783 0.0
C648 C 0.16893 0.70724 0.97998 0.0
C649 C 0.16601 0.67545 0.97419 0.0
H650 H 0.19974 0.74478 0.98903 0.0
C651 C 0.19237 0.65635 0.97661 0.0
H652 H 0.14915 0.72265 0.97917 0.0
C653 C 0.22103 0.66895 0.9833 0.0
C654 C 0.22424 0.70102 0.98708 0.0
H655 H 0.1916 0.63191 0.97208 0.0
H656 H 0.24112 0.65386 0.98392 0.0
C657 C 0.19785 0.71997 0.98592 0.0
C658 C 0.31777 0.65636 0.24553 0.0
C659 C 0.33425 0.65596 0.22554 0.0
H660 H 0.29618 0.68397 0.27097 0.0
C661 C 0.34184 0.68439 0.216 0.0
H662 H 0.31188 0.63494 0.2535 0.0
C663 C 0.33313 0.71249 0.22614 0.0
C664 C 0.3164 0.71287 0.24598 0.0
H665 H 0.35397 0.68501 0.20039 0.0
H666 H 0.33921 0.73391 0.21823 0.0
C667 C 0.30886 0.68449 0.2556 0.0
C668 C 0.33036 0.88611 0.50544 0.0
C669 C 0.35904 0.87346 0.4988 0.0
H670 H 0.28239 0.87812 0.51114 0.0
C671 C 0.36177 0.84078 0.49794 0.0
H672 H 0.32648 0.91084 0.50662 0.0
C673 C 0.33555 0.82191 0.49965 0.0
C674 C 0.30638 0.83518 0.50342 0.0
H675 H 0.38357 0.8296 0.4943 0.0
H676 H 0.33776 0.79713 0.49658 0.0
C677 C 0.30454 0.86716 0.508 0.0
C678 C 0.14739 0.81839 0.74037 0.0
C679 C 0.16181 0.84535 0.73288 0.0
H680 H 0.15301 0.77079 0.74913 0.0
C681 C 0.19431 0.8462 0.73199 0.0
H682 H 0.12238 0.81723 0.74139 0.0
C683 C 0.21178 0.81965 0.73625 0.0
C684 C 0.19712 0.79184 0.74171 0.0
H685 H 0.2061 0.86655 0.72616 0.0
H686 H 0.23658 0.82034 0.73379 0.0
C687 C 0.16495 0.79189 0.74493 0.0
C688 C 0.73873 0.39202 0.78294 0.0
C689 C 0.70817 0.38144 0.78589 0.0
H690 H 0.78633 0.38002 0.77848 0.0
C691 C 0.70236 0.34931 0.78322 0.0
H692 H 0.7448 0.41626 0.78506 0.0
C693 C 0.72682 0.32833 0.78042 0.0
C694 C 0.7574 0.33907 0.7792 0.0
H695 H 0.67918 0.34005 0.78437 0.0
H696 H 0.72195 0.30366 0.78002 0.0
C697 C 0.76291 0.37111 0.77931 0.0
C698 C 0.64399 0.20623 0.00978 0.0
C699 C 0.66081 0.1793 0.015 0.0
H700 H 0.64481 0.25582 0.00756 0.0
C701 C 0.69301 0.18167 0.01889 0.0
H702 H 0.61918 0.20507 0.00665 0.0
C703 C 0.70754 0.21059 0.01968 0.0
C704 C 0.6903 0.23776 0.01629 0.0
H705 H 0.70663 0.16147 0.02321 0.0
H706 H 0.73195 0.21185 0.02431 0.0
C707 C 0.6587 0.23523 0.0102 0.0
C708 C 0.83882 0.17223 0.29468 0.0
C709 C 0.86867 0.1787 0.28706 0.0
H710 H 0.78992 0.17653 0.28922 0.0
C711 C 0.87158 0.19571 0.2675 0.0
H712 H 0.83572 0.15981 0.30997 0.0
C713 C 0.84521 0.20573 0.25572 0.0
C714 C 0.81539 0.19885 0.26324 0.0
H715 H 0.89423 0.20092 0.26111 0.0
H716 H 0.84822 0.21848 0.24057 0.0
C717 C 0.81252 0.18208 0.28288 0.0
C718 C 0.83518 0.33593 0.56181 0.0
C719 C 0.86054 0.34113 0.54804 0.0
H720 H 0.79586 0.3075 0.56822 0.0
C721 C 0.86282 0.32377 0.528 0.0
H722 H 0.83284 0.34875 0.57746 0.0
C723 C 0.84178 0.29993 0.5228 0.0
C724 C 0.81796 0.29299 0.53752 0.0
H725 H 0.88179 0.32761 0.51685 0.0
H726 H 0.84517 0.28594 0.50779 0.0
C727 C 0.81404 0.31212 0.55658 0.0
C728 C 0.64613 0.17771 0.4809 0.0
C729 C 0.65195 0.16758 0.45892 0.0
H730 H 0.66524 0.19497 0.51204 0.0
C731 C 0.68247 0.16873 0.45122 0.0
H732 H 0.62293 0.17688 0.4874 0.0
C733 C 0.70675 0.17883 0.46537 0.0
C734 C 0.70106 0.18819 0.48753 0.0
H735 H 0.68764 0.1617 0.43423 0.0
H736 H 0.73004 0.17894 0.45899 0.0
C737 C 0.67042 0.18796 0.49505 0.0
C738 C 0.85894 0.14855 0.75277 0.0
C739 C 0.87691 0.15025 0.73358 0.0
H740 H 0.83595 0.17343 0.77889 0.0
C741 C 0.88557 0.17957 0.72604 0.0
H742 H 0.85211 0.12629 0.75908 0.0
C743 C 0.87637 0.2066 0.73738 0.0
C744 C 0.85828 0.20491 0.75652 0.0
H745 H 0.89895 0.18169 0.71108 0.0
H746 H 0.88334 0.2288 0.73106 0.0
C747 C 0.84974 0.17558 0.76413 0.0
C748 C 0.85646 0.36848 0.01635 0.0
C749 C 0.85333 0.39515 0.00334 0.0
H750 H 0.83368 0.33372 0.03495 0.0
C751 C 0.82356 0.40802 0.0003 0.0
H752 H 0.87878 0.35744 0.01879 0.0
C753 C 0.79755 0.39379 0.00908 0.0
C754 C 0.80072 0.36673 0.02152 0.0
H755 H 0.82018 0.4289 0.99087 0.0
H756 H 0.7749 0.4039 0.00599 0.0
C757 C 0.83051 0.35464 0.0255 0.0
C758 C 0.62979 0.31458 0.25212 0.0
C759 C 0.63005 0.33921 0.23715 0.0
H760 H 0.65245 0.27354 0.26356 0.0
C761 C 0.65664 0.34356 0.22439 0.0
H762 H 0.60996 0.31084 0.26248 0.0
C763 C 0.68112 0.32237 0.22516 0.0
C764 C 0.67953 0.29618 0.23858 0.0
H765 H 0.65766 0.36199 0.21247 0.0
H766 H 0.70033 0.32548 0.2141 0.0
C767 C 0.65422 0.29323 0.25277 0.0
C768 C 0.19143 0.88356 0.39864 0.0
C769 C 0.16929 0.90614 0.40431 0.0
H770 H 0.21744 0.84399 0.40886 0.0
C771 C 0.15553 0.9052 0.42531 0.0
H772 H 0.20203 0.88338 0.38242 0.0
C773 C 0.16438 0.88255 0.44057 0.0
C774 C 0.18687 0.86019 0.43498 0.0
H775 H 0.1384 0.92234 0.43011 0.0
H776 H 0.15383 0.88277 0.4568 0.0
C777 C 0.20003 0.86079 0.41374 0.0
C778 C 0.17213 0.6515 0.64268 0.0
C779 C 0.16011 0.62186 0.64627 0.0
H780 H 0.19655 0.69073 0.65655 0.0
C781 C 0.16319 0.60904 0.66752 0.0
H782 H 0.17029 0.6617 0.62634 0.0
C783 C 0.17793 0.62589 0.68501 0.0
C784 C 0.1904 0.65539 0.68125 0.0
H785 H 0.15408 0.58616 0.67059 0.0
H786 H 0.18009 0.61564 0.7013 0.0
C787 C 0.18732 0.66799 0.65993 0.0
C788 C 0.39483 0.70109 0.90455 0.0
C789 C 0.41351 0.67502 0.90857 0.0
H790 H 0.36022 0.73208 0.91686 0.0
C791 C 0.41101 0.65984 0.92893 0.0
H792 H 0.39576 0.71293 0.88884 0.0
C793 C 0.39041 0.67072 0.94502 0.0
C794 C 0.3718 0.6969 0.94099 0.0
H795 H 0.42521 0.63975 0.93252 0.0
H796 H 0.38916 0.65867 0.96063 0.0
C797 C 0.37423 0.7119 0.92055 0.0
C798 C 0.40697 0.86271 0.18939 0.0
C799 C 0.41468 0.89431 0.18826 0.0
H800 H 0.38087 0.82797 0.20538 0.0
C801 C 0.4012 0.91553 0.20337 0.0
H802 H 0.41636 0.84581 0.17769 0.0
C803 C 0.38052 0.90523 0.21931 0.0
C804 C 0.37276 0.87359 0.22028 0.0
H805 H 0.40671 0.94001 0.20291 0.0
H806 H 0.37047 0.92207 0.23075 0.0
C807 C 0.38632 0.85249 0.20517 0.0
C808 C 0.10841 0.67564 0.82412 0.0
C809 C 0.11785 0.64788 0.83416 0.0
H810 H 0.11569 0.70811 0.79832 0.0
C811 C 0.14228 0.63088 0.82454 0.0
H812 H 0.09017 0.68979 0.83119 0.0
C813 C 0.15746 0.64189 0.80591 0.0
C814 C 0.14827 0.66989 0.79623 0.0
H815 H 0.14987 0.60912 0.83146 0.0
H816 H 0.17646 0.62849 0.79914 0.0
C817 C 0.12325 0.68636 0.80531 0.0
C818 C 0.36136 0.62427 0.08347 0.0
C819 C 0.3459 0.59618 0.08702 0.0
H820 H 0.36706 0.66294 0.06231 0.0
C821 C 0.32485 0.58477 0.07052 0.0
H822 H 0.37741 0.63393 0.09595 0.0
C823 C 0.31875 0.60154 0.0512 0.0
C824 C 0.3335 0.63013 0.04803 0.0
H825 H 0.31284 0.56302 0.07264 0.0
H826 H 0.30197 0.59242 0.03902 0.0
C827 C 0.35524 0.64103 0.06422 0.0
C828 C 0.33877 0.85816 0.36576 0.0
C829 C 0.36402 0.87782 0.36207 0.0
H830 H 0.30663 0.8249 0.35177 0.0
C831 C 0.37731 0.87759 0.34088 0.0
H832 H 0.3284 0.85745 0.38203 0.0
C833 C 0.36493 0.85885 0.32352 0.0
C834 C 0.33911 0.8398 0.32705 0.0
H835 H 0.39674 0.89257 0.33755 0.0
H836 H 0.37517 0.85985 0.30722 0.0
C837 C 0.3265 0.83928 0.34846 0.0
C838 C 0.16909 0.92089 0.5791 0.0
C839 C 0.1505 0.90197 0.59214 0.0
H840 H 0.19585 0.92446 0.54961 0.0
C841 C 0.14411 0.87146 0.58456 0.0
H842 H 0.17414 0.94462 0.58433 0.0
C843 C 0.15636 0.85998 0.56463 0.0
C844 C 0.17537 0.8787 0.55179 0.0
H845 H 0.13028 0.85609 0.59433 0.0
H846 H 0.15131 0.83621 0.5595 0.0
C847 C 0.18138 0.90938 0.55914 0.0
C848 C 0.63124 0.3771 0.92657 0.0
C849 C 0.6436 0.40718 0.92525 0.0
H850 H 0.62722 0.33631 0.94599 0.0
C851 C 0.65961 0.42012 0.94391 0.0
H852 H 0.61898 0.3664 0.9124 0.0
C853 C 0.66444 0.40288 0.96308 0.0
C854 C 0.65338 0.37226 0.96403 0.0
H855 H 0.66893 0.44344 0.94354 0.0
H856 H 0.67762 0.41331 0.97693 0.0
C857 C 0.63608 0.35981 0.94578 0.0
C858 C 0.70927 0.1461 0.13595 0.0
C859 C 0.68457 0.12552 0.13901 0.0
H860 H 0.73952 0.18048 0.15082 0.0
C861 C 0.67257 0.12262 0.16044 0.0
H862 H 0.71875 0.14903 0.11955 0.0
C863 C 0.68442 0.14061 0.17836 0.0
C864 C 0.70836 0.16207 0.17516 0.0
H865 H 0.65369 0.10672 0.16328 0.0
H866 H 0.67426 0.13823 0.1946 0.0
C867 C 0.72098 0.16428 0.15383 0.0
C868 C 0.86719 0.1332 0.42433 0.0
C869 C 0.89435 0.1513 0.42467 0.0
H870 H 0.82425 0.12336 0.43996 0.0
C871 C 0.89936 0.17292 0.44233 0.0
H872 H 0.86236 0.11663 0.41081 0.0
C873 C 0.87731 0.1771 0.45881 0.0
C874 C 0.84981 0.15957 0.45815 0.0
H875 H 0.92026 0.18685 0.44333 0.0
H876 H 0.88175 0.19427 0.472 0.0
C877 C 0.8452 0.13722 0.44094 0.0
C878 C 0.93048 0.36498 0.69823 0.0
C879 C 0.91591 0.38461 0.68278 0.0
H880 H 0.92644 0.33942 0.72819 0.0
C881 C 0.88591 0.39564 0.68723 0.0
H882 H 0.9538 0.35655 0.69559 0.0
C883 C 0.87039 0.38616 0.70613 0.0
C884 C 0.88439 0.36521 0.72088 0.0
H885 H 0.87378 0.41047 0.67561 0.0
H886 H 0.84694 0.39428 0.70866 0.0
C887 C 0.91484 0.35525 0.71698 0.0
C888 C 0.63896 0.13404 0.31369 0.0
C889 C 0.60712 0.14075 0.3146 0.0
H890 H 0.68132 0.14032 0.29645 0.0
C891 C 0.59301 0.15721 0.29715 0.0
H892 H 0.65053 0.12168 0.32702 0.0
C893 C 0.61062 0.16788 0.27962 0.0
C894 C 0.64278 0.16259 0.27932 0.0
H895 H 0.56846 0.1625 0.29736 0.0
H896 H 0.5992 0.18125 0.26675 0.0
C897 C 0.65663 0.14495 0.29627 0.0
C898 C 0.85789 0.10949 0.5794 0.0
C899 C 0.84318 0.0992 0.5985 0.0
H900 H 0.85462 0.13733 0.55039 0.0
C901 C 0.81226 0.1077 0.60216 0.0
H902 H 0.88177 0.10324 0.57631 0.0
C903 C 0.79687 0.12769 0.58761 0.0
C904 C 0.81201 0.13907 0.56898 0.0
H905 H 0.80059 0.10027 0.61694 0.0
H906 H 0.77344 0.13489 0.5913 0.0
C907 C 0.84234 0.12899 0.56463 0.0
C908 C 0.90593 0.32747 0.87941 0.0
C909 C 0.92593 0.35221 0.87504 0.0
H910 H 0.87352 0.29401 0.86602 0.0
C911 C 0.93039 0.36041 0.85279 0.0
H912 H 0.90175 0.32084 0.8964 0.0
C913 C 0.91413 0.34511 0.83535 0.0
C914 C 0.8929 0.32142 0.83983 0.0
H915 H 0.9459 0.3792 0.84893 0.0
H916 H 0.91742 0.3526 0.81845 0.0
C917 C 0.88955 0.31227 0.862 0.0
C918 C 0.61585 0.38732 0.09786 0.0
C919 C 0.61386 0.37114 0.11781 0.0
H920 H 0.63968 0.3922 0.06713 0.0
C921 C 0.63622 0.34855 0.12285 0.0
H922 H 0.59888 0.40493 0.09371 0.0
C923 C 0.65976 0.34165 0.10797 0.0
C924 C 0.66117 0.35689 0.08755 0.0
H925 H 0.6354 0.3361 0.13832 0.0
H926 H 0.67627 0.32365 0.11219 0.0
C927 C 0.63916 0.38003 0.08272 0.0
loop_
_geom_bond_atom_site_label_1
_geom_bond_atom_site_label_2
_geom_bond_distance
_geom_bond_site_symmetry_2
_ccdc_geom_bond_type
H0 C27 0.929 . S
N1 C26 1.433 . S
N1 C32 1.435 . S
N1 C38 1.423 . S
H2 C28 0.930 . S
H3 C31 0.931 . S
H4 C30 0.929 . S
H5 C33 0.930 . S
H6 C34 0.932 . S
H7 C37 0.929 . S
H8 C36 0.931 . S
H9 C39 0.926 1_545 S
H10 C43 0.932 . S
H11 C40 0.931 . S
H12 C42 0.929 . S
H13 C45 0.929 . S
H14 C46 0.930 . S
H15 C48 0.929 . S
H16 C49 0.931 . S
H17 C51 0.930 . S
H18 C52 0.932 . S
H19 C54 0.931 . S
H20 C55 0.929 . S
H21 C57 0.929 . S
H22 C58 0.931 . S
H23 C60 0.929 . S
N24 C44 1.433 . S
N24 C50 1.435 . S
N24 C56 1.423 . S
H25 C61 0.932 . S
C26 N1 1.433 . S
C26 C27 1.363 . S
C26 C31 1.370 . S
C27 H0 0.929 . S
C27 C26 1.363 . S
C27 C28 1.385 . S
C28 H2 0.930 . S
C28 C27 1.385 . S
C28 C29 1.357 . S
C29 C28 1.357 . S
C29 C30 1.406 . S
C30 H4 0.929 . S
C30 C29 1.406 . S
C30 C31 1.391 . S
C31 H3 0.931 . S
C31 C26 1.370 . S
C31 C30 1.391 . S
C32 N1 1.435 . S
C32 C33 1.358 . S
C32 C37 1.371 . S
C33 H5 0.930 . S
C33 C32 1.358 . S
C33 C34 1.405 . S
C34 H6 0.932 . S
C34 C33 1.405 . S
C34 C35 1.383 . S
C35 C34 1.383 . S
C35 C36 1.393 . S
C36 H8 0.931 . S
C36 C35 1.393 . S
C36 C37 1.382 . S
C37 H7 0.929 . S
C37 C32 1.371 . S
C37 C36 1.382 . S
C38 N1 1.423 . S
C38 C39 1.385 . S
C38 C43 1.388 . S
C39 H9 0.926 1_565 S
C39 C38 1.385 . S
C39 C40 1.357 1_565 S
C40 H11 0.931 . S
C40 C39 1.357 1_545 S
C40 C41 1.396 . S
C41 C40 1.396 . S
C41 C42 1.348 1_545 S
C41 C59 1.472 . S
C42 H12 0.929 . S
C42 C41 1.348 1_565 S
C42 C43 1.443 . S
C43 H10 0.932 . S
C43 C38 1.388 . S
C43 C42 1.443 . S
C44 N24 1.433 . S
C44 C45 1.363 . S
C44 C49 1.370 . S
C45 H13 0.929 . S
C45 C44 1.363 . S
C45 C46 1.385 . S
C46 H14 0.930 . S
C46 C45 1.385 . S
C46 C47 1.357 . S
C47 C46 1.357 . S
C47 C48 1.406 . S
C48 H15 0.929 . S
C48 C47 1.406 . S
C48 C49 1.391 . S
C49 H16 0.931 . S
C49 C44 1.370 . S
C49 C48 1.391 . S
C50 N24 1.435 . S
C50 C51 1.358 . S
C50 C55 1.371 . S
C51 H17 0.930 . S
C51 C50 1.358 . S
C51 C52 1.405 . S
C52 H18 0.932 . S
C52 C51 1.405 . S
C52 C53 1.383 . S
C53 C52 1.383 . S
C53 C54 1.393 . S
C54 H19 0.931 . S
C54 C53 1.393 . S
C54 C55 1.382 . S
C55 H20 0.929 . S
C55 C50 1.371 . S
C55 C54 1.382 . S
C56 N24 1.423 . S
C56 C57 1.362 1_655 S
C56 C61 1.388 . S
C57 H21 0.929 . S
C57 C56 1.362 1_455 S
C57 C58 1.376 . S
C58 H22 0.931 . S
C58 C57 1.376 . S
C58 C59 1.396 . S
C59 C41 1.472 . S
C59 C58 1.396 . S
C59 C60 1.348 . S
C60 H23 0.929 . S
C60 C59 1.348 . S
C60 C61 1.443 1_455 S
C61 H25 0.932 . S
C61 C56 1.388 . S
C61 C60 1.443 1_655 S
H62 C89 0.929 . S
N63 C88 1.433 . S
N63 C94 1.435 . S
N63 C100 1.423 . S
H64 C90 0.930 . S
H65 C93 0.931 . S
H66 C92 0.929 . S
H67 C95 0.930 . S
H68 C96 0.932 . S
H69 C99 0.929 . S
H70 C98 0.931 . S
H71 C101 0.929 . S
H72 C105 0.932 . S
H73 C102 0.931 . S
H74 C104 0.929 . S
H75 C107 0.929 . S
H76 C108 0.930 . S
H77 C110 0.929 . S
H78 C111 0.931 . S
H79 C113 0.930 . S
H80 C114 0.932 . S
H81 C116 0.931 . S
H82 C117 0.929 . S
H83 C119 0.929 . S
H84 C120 0.931 . S
H85 C122 0.929 . S
N86 C106 1.433 . S
N86 C112 1.435 . S
N86 C118 1.423 . S
H87 C123 0.932 . S
C88 N63 1.433 . S
C88 C89 1.363 . S
C88 C93 1.370 . S
C89 H62 0.929 . S
C89 C88 1.363 . S
C89 C90 1.385 . S
C90 H64 0.930 . S
C90 C89 1.385 . S
C90 C91 1.357 . S
C91 C90 1.357 . S
C91 C92 1.406 . S
C92 H66 0.929 . S
C92 C91 1.406 . S
C92 C93 1.391 . S
C93 H65 0.931 . S
C93 C88 1.370 . S
C93 C92 1.391 . S
C94 N63 1.435 . S
C94 C95 1.358 . S
C94 C99 1.371 . S
C95 H67 0.930 . S
C95 C94 1.358 . S
C95 C96 1.405 . S
C96 H68 0.932 . S
C96 C95 1.405 . S
C96 C97 1.383 . S
C97 C96 1.383 . S
C97 C98 1.393 . S
C98 H70 0.931 . S
C98 C97 1.393 . S
C98 C99 1.382 . S
C99 H69 0.929 . S
C99 C94 1.371 . S
C99 C98 1.382 . S
C100 N63 1.423 . S
C100 C101 1.362 . S
C100 C105 1.388 . S
C101 H71 0.929 . S
C101 C100 1.362 . S
C101 C102 1.376 1_655 S
C102 H73 0.931 . S
C102 C101 1.376 1_455 S
C102 C103 1.396 . S
C103 C102 1.396 . S
C103 C104 1.348 1_455 S
C103 C121 1.472 . S
C104 H74 0.929 . S
C104 C103 1.348 1_655 S
C104 C105 1.443 . S
C105 H72 0.932 . S
C105 C100 1.388 . S
C105 C104 1.443 . S
C106 N86 1.433 . S
C106 C107 1.363 . S
C106 C111 1.370 . S
C107 H75 0.929 . S
C107 C106 1.363 . S
C107 C108 1.385 . S
C108 H76 0.930 . S
C108 C107 1.385 . S
C108 C109 1.357 . S
C109 C108 1.357 . S
C109 C110 1.406 . S
C110 H77 0.929 . S
C110 C109 1.406 . S
C110 C111 1.391 . S
C111 H78 0.931 . S
C111 C106 1.370 . S
C111 C110 1.391 . S
C112 N86 1.435 . S
C112 C113 1.358 . S
C112 C117 1.371 . S
C113 H79 0.930 . S
C113 C112 1.358 . S
C113 C114 1.405 . S
C114 H80 0.932 . S
C114 C113 1.405 . S
C114 C115 1.383 . S
C115 C114 1.383 . S
C115 C116 1.393 . S
C116 H81 0.931 . S
C116 C115 1.393 . S
C116 C117 1.382 . S
C117 H82 0.929 . S
C117 C112 1.371 . S
C117 C116 1.382 . S
C118 N86 1.423 . S
C118 C119 1.362 . S
C118 C123 1.388 . S
C119 H83 0.929 . S
C119 C118 1.362 . S
C119 C120 1.376 . S
C120 H84 0.931 . S
C120 C119 1.376 . S
C120 C121 1.396 . S
C121 C103 1.472 . S
C121 C120 1.396 . S
C121 C122 1.348 . S
C122 H85 0.929 . S
C122 C121 1.348 . S
C122 C123 1.443 . S
C123 H87 0.932 . S
C123 C118 1.388 . S
C123 C122 1.443 . S
H124 C151 0.929 . S
N125 C150 1.433 . S
N125 C156 1.435 . S
N125 C162 1.423 . S
H126 C152 0.930 . S
H127 C155 0.931 . S
H128 C154 0.929 . S
H129 C157 0.930 . S
H130 C158 0.932 . S
H131 C161 0.929 . S
H132 C160 0.931 . S
H133 C163 0.929 . S
H134 C167 0.932 . S
H135 C164 0.931 . S
H136 C166 0.929 . S
H137 C169 0.929 . S
H138 C170 0.930 . S
H139 C172 0.929 . S
H140 C173 0.931 . S
H141 C175 0.930 . S
H142 C176 0.932 . S
H143 C178 0.931 . S
H144 C179 0.929 . S
H145 C181 0.929 . S
H146 C182 0.931 . S
H147 C184 0.929 . S
N148 C168 1.433 . S
N148 C174 1.435 . S
N148 C180 1.423 . S
H149 C185 0.932 . S
C150 N125 1.433 . S
C150 C151 1.363 . S
C150 C155 1.370 . S
C151 H124 0.929 . S
C151 C150 1.363 . S
C151 C152 1.385 . S
C152 H126 0.930 . S
C152 C151 1.385 . S
C152 C153 1.357 . S
C153 C152 1.357 . S
C153 C154 1.406 . S
C154 H128 0.929 . S
C154 C153 1.406 . S
C154 C155 1.391 . S
C155 H127 0.931 . S
C155 C150 1.370 . S
C155 C154 1.391 . S
C156 N125 1.435 . S
C156 C157 1.358 . S
C156 C161 1.371 . S
C157 H129 0.930 . S
C157 C156 1.358 . S
C157 C158 1.405 . S
C158 H130 0.932 . S
C158 C157 1.405 . S
C158 C159 1.383 . S
C159 C158 1.383 . S
C159 C160 1.393 . S
C160 H132 0.931 . S
C160 C159 1.393 . S
C160 C161 1.382 . S
C161 H131 0.929 . S
C161 C156 1.371 . S
C161 C160 1.382 . S
C162 N125 1.423 . S
C162 C163 1.362 . S
C162 C167 1.388 . S
C163 H133 0.929 . S
C163 C162 1.362 . S
C163 C164 1.376 . S
C164 H135 0.931 . S
C164 C163 1.376 . S
C164 C165 1.396 . S
C165 C164 1.396 . S
C165 C166 1.348 . S
C165 C183 1.472 . S
C166 H136 0.929 . S
C166 C165 1.348 . S
C166 C167 1.443 . S
C167 H134 0.932 . S
C167 C162 1.388 . S
C167 C166 1.443 . S
C168 N148 1.433 . S
C168 C169 1.363 . S
C168 C173 1.370 . S
C169 H137 0.929 . S
C169 C168 1.363 . S
C169 C170 1.385 . S
C170 H138 0.930 . S
C170 C169 1.385 . S
C170 C171 1.357 . S
C171 C170 1.357 . S
C171 C172 1.406 . S
C172 H139 0.929 . S
C172 C171 1.406 . S
C172 C173 1.391 . S
C173 H140 0.931 . S
C173 C168 1.370 . S
C173 C172 1.391 . S
C174 N148 1.435 . S
C174 C175 1.358 . S
C174 C179 1.371 . S
C175 H141 0.930 . S
C175 C174 1.358 . S
C175 C176 1.405 . S
C176 H142 0.932 . S
C176 C175 1.405 . S
C176 C177 1.383 . S
C177 C176 1.383 . S
C177 C178 1.393 . S
C178 H143 0.931 . S
C178 C177 1.393 . S
C178 C179 1.382 . S
C179 H144 0.929 . S
C179 C174 1.371 . S
C179 C178 1.382 . S
C180 N148 1.423 . S
C180 C181 1.362 . S
C180 C185 1.388 . S
C181 H145 0.929 . S
C181 C180 1.362 . S
C181 C182 1.376 . S
C182 H146 0.931 . S
C182 C181 1.376 . S
C182 C183 1.396 . S
C183 C165 1.472 . S
C183 C182 1.396 . S
C183 C184 1.348 . S
C184 H147 0.929 . S
C184 C183 1.348 . S
C184 C185 1.443 . S
C185 H149 0.932 . S
C185 C180 1.388 . S
C185 C184 1.443 . S
H186 C213 0.929 . S
N187 C212 1.433 . S
N187 C218 1.435 . S
N187 C224 1.423 . S
H188 C214 0.930 . S
H189 C217 0.931 . S
H190 C216 0.929 . S
H191 C219 0.930 . S
H192 C220 0.932 . S
H193 C223 0.929 . S
H194 C222 0.931 1_556 S
H195 C225 0.929 . S
H196 C229 0.932 . S
H197 C226 0.931 . S
H198 C228 0.929 . S
H199 C231 0.929 . S
H200 C232 0.930 . S
H201 C234 0.929 . S
H202 C235 0.931 . S
H203 C237 0.930 . S
H204 C238 0.932 . S
H205 C240 0.931 1_556 S
H206 C241 0.929 . S
H207 C243 0.929 . S
H208 C244 0.931 1_565 S
H209 C246 0.929 . S
N210 C230 1.433 . S
N210 C236 1.435 . S
N210 C242 1.423 . S
H211 C247 0.932 . S
C212 N187 1.433 . S
C212 C213 1.363 . S
C212 C217 1.370 . S
C213 H186 0.929 . S
C213 C212 1.363 . S
C213 C214 1.385 . S
C214 H188 0.930 . S
C214 C213 1.385 . S
C214 C215 1.357 . S
C215 C214 1.357 . S
C215 C216 1.406 . S
C216 H190 0.929 . S
C216 C215 1.406 . S
C216 C217 1.391 . S
C217 H189 0.931 . S
C217 C212 1.370 . S
C217 C216 1.391 . S
C218 N187 1.435 . S
C218 C219 1.358 . S
C218 C223 1.371 . S
C219 H191 0.930 . S
C219 C218 1.358 . S
C219 C220 1.405 . S
C220 H192 0.932 . S
C220 C219 1.405 . S
C220 C221 1.383 . S
C221 C220 1.383 . S
C221 C222 1.393 . S
C222 H194 0.931 1_554 S
C222 C221 1.393 . S
C222 C223 1.382 . S
C223 H193 0.929 . S
C223 C218 1.371 . S
C223 C222 1.382 . S
C224 N187 1.423 . S
C224 C225 1.362 . S
C224 C229 1.388 . S
C225 H195 0.929 . S
C225 C224 1.362 . S
C225 C226 1.376 . S
C226 H197 0.931 . S
C226 C225 1.376 . S
C226 C227 1.396 . S
C227 C226 1.396 . S
C227 C228 1.348 . S
C227 C245 1.472 1_565 S
C228 H198 0.929 . S
C228 C227 1.348 . S
C228 C229 1.443 . S
C229 H196 0.932 . S
C229 C224 1.388 . S
C229 C228 1.443 . S
C230 N210 1.433 . S
C230 C231 1.363 . S
C230 C235 1.370 . S
C231 H199 0.929 . S
C231 C230 1.363 . S
C231 C232 1.385 . S
C232 H200 0.930 . S
C232 C231 1.385 . S
C232 C233 1.357 . S
C233 C232 1.357 . S
C233 C234 1.406 . S
C234 H201 0.929 . S
C234 C233 1.406 . S
C234 C235 1.391 . S
C235 H202 0.931 . S
C235 C230 1.370 . S
C235 C234 1.391 . S
C236 N210 1.435 . S
C236 C237 1.358 . S
C236 C241 1.371 . S
C237 H203 0.930 . S
C237 C236 1.358 . S
C237 C238 1.405 . S
C238 H204 0.932 . S
C238 C237 1.405 . S
C238 C239 1.383 . S
C239 C238 1.383 . S
C239 C240 1.393 . S
C240 H205 0.931 1_554 S
C240 C239 1.393 . S
C240 C241 1.382 . S
C241 H206 0.929 . S
C241 C236 1.371 . S
C241 C240 1.382 . S
C242 N210 1.423 . S
C242 C243 1.362 . S
C242 C247 1.388 . S
C243 H207 0.929 . S
C243 C242 1.362 . S
C243 C244 1.376 . S
C244 H208 0.931 1_545 S
C244 C243 1.376 . S
C244 C245 1.396 . S
C245 C227 1.472 1_545 S
C245 C244 1.396 . S
C245 C246 1.348 . S
C246 H209 0.929 . S
C246 C245 1.348 . S
C246 C247 1.443 . S
C247 H211 0.932 . S
C247 C242 1.388 . S
C247 C246 1.443 . S
H248 C275 0.929 . S
N249 C274 1.433 . S
N249 C280 1.435 . S
N249 C286 1.423 . S
H250 C276 0.930 . S
H251 C279 0.931 . S
H252 C278 0.929 . S
H253 C281 0.930 . S
H254 C282 0.932 . S
H255 C285 0.929 . S
H256 C284 0.931 . S
H257 C287 0.929 . S
H258 C291 0.932 . S
H259 C288 0.931 . S
H260 C290 0.929 . S
H261 C293 0.929 . S
H262 C294 0.930 . S
H263 C296 0.929 . S
H264 C297 0.931 . S
H265 C299 0.930 . S
H266 C300 0.932 . S
H267 C302 0.931 1_554 S
H268 C303 0.929 . S
H269 C305 0.929 . S
H270 C306 0.931 1_455 S
H271 C308 0.929 . S
N272 C292 1.433 . S
N272 C298 1.435 . S
N272 C304 1.423 . S
H273 C309 0.932 . S
C274 N249 1.433 . S
C274 C275 1.363 . S
C274 C279 1.370 . S
C275 H248 0.929 . S
C275 C274 1.363 . S
C275 C276 1.385 . S
C276 H250 0.930 . S
C276 C275 1.385 . S
C276 C277 1.357 . S
C277 C276 1.357 . S
C277 C278 1.406 . S
C278 H252 0.929 . S
C278 C277 1.406 . S
C278 C279 1.391 . S
C279 H251 0.931 . S
C279 C274 1.370 . S
C279 C278 1.391 . S
C280 N249 1.435 . S
C280 C281 1.358 . S
C280 C285 1.371 . S
C281 H253 0.930 . S
C281 C280 1.358 . S
C281 C282 1.405 . S
C282 H254 0.932 . S
C282 C281 1.405 . S
C282 C283 1.383 1_556 S
C283 C282 1.383 1_554 S
C283 C284 1.393 . S
C284 H256 0.931 . S
C284 C283 1.393 . S
C284 C285 1.382 1_554 S
C285 H255 0.929 . S
C285 C280 1.371 . S
C285 C284 1.382 1_556 S
C286 N249 1.423 . S
C286 C287 1.362 . S
C286 C291 1.388 . S
C287 H257 0.929 . S
C287 C286 1.362 . S
C287 C288 1.376 . S
C288 H259 0.931 . S
C288 C287 1.376 . S
C288 C289 1.396 . S
C289 C288 1.396 . S
C289 C290 1.348 . S
C289 C307 1.500 . S
C290 H260 0.929 . S
C290 C289 1.348 . S
C290 C291 1.443 . S
C291 H258 0.932 . S
C291 C286 1.388 . S
C291 C290 1.443 . S
C292 N272 1.433 . S
C292 C293 1.363 . S
C292 C297 1.370 . S
C293 H261 0.929 . S
C293 C292 1.363 . S
C293 C294 1.385 . S
C294 H262 0.930 . S
C294 C293 1.385 . S
C294 C295 1.357 . S
C295 C294 1.357 . S
C295 C296 1.406 . S
C296 H263 0.929 . S
C296 C295 1.406 . S
C296 C297 1.391 . S
C297 H264 0.931 . S
C297 C292 1.370 . S
C297 C296 1.391 . S
C298 N272 1.435 . S
C298 C299 1.358 . S
C298 C303 1.371 . S
C299 H265 0.930 . S
C299 C298 1.358 . S
C299 C300 1.405 . S
C300 H266 0.932 . S
C300 C299 1.405 . S
C300 C301 1.383 . S
C301 C300 1.383 . S
C301 C302 1.393 . S
C302 H267 0.931 1_556 S
C302 C301 1.393 . S
C302 C303 1.382 . S
C303 H268 0.929 . S
C303 C298 1.371 . S
C303 C302 1.382 . S
C304 N272 1.423 . S
C304 C305 1.362 . S
C304 C309 1.388 . S
C305 H269 0.929 . S
C305 C304 1.362 . S
C305 C306 1.376 . S
C306 H270 0.931 1_655 S
C306 C305 1.376 . S
C306 C307 1.392 1_655 S
C307 C289 1.500 . S
C307 C306 1.392 1_455 S
C307 C308 1.322 1_455 S
C308 H271 0.929 . S
C308 C307 1.322 1_655 S
C308 C309 1.443 . S
C309 H273 0.932 . S
C309 C304 1.388 . S
C309 C308 1.443 . S
H310 C337 0.929 . S
N311 C336 1.433 . S
N311 C342 1.435 . S
N311 C348 1.423 . S
H312 C338 0.930 . S
H313 C341 0.931 . S
H314 C340 0.929 . S
H315 C343 0.930 . S
H316 C344 0.932 . S
H317 C347 0.929 . S
H318 C346 0.931 . S
H319 C349 0.929 . S
H320 C353 0.932 . S
H321 C350 0.931 . S
H322 C352 0.929 . S
H323 C355 0.929 . S
H324 C356 0.930 . S
H325 C358 0.929 . S
H326 C359 0.931 . S
H327 C361 0.930 . S
H328 C362 0.932 . S
H329 C364 0.931 . S
H330 C365 0.929 . S
H331 C367 0.929 . S
H332 C368 0.931 . S
H333 C370 0.929 . S
N334 C354 1.433 . S
N334 C360 1.435 . S
N334 C366 1.423 . S
H335 C371 0.932 . S
C336 N311 1.433 . S
C336 C337 1.363 . S
C336 C341 1.370 . S
C337 H310 0.929 . S
C337 C336 1.363 . S
C337 C338 1.385 . S
C338 H312 0.930 . S
C338 C337 1.385 . S
C338 C339 1.357 . S
C339 C338 1.357 . S
C339 C340 1.406 . S
C340 H314 0.929 . S
C340 C339 1.406 . S
C340 C341 1.391 . S
C341 H313 0.931 . S
C341 C336 1.370 . S
C341 C340 1.391 . S
C342 N311 1.435 . S
C342 C343 1.358 . S
C342 C347 1.371 . S
C343 H315 0.930 . S
C343 C342 1.358 . S
C343 C344 1.405 . S
C344 H316 0.932 . S
C344 C343 1.405 . S
C344 C345 1.383 . S
C345 C344 1.383 . S
C345 C346 1.393 . S
C346 H318 0.931 . S
C346 C345 1.393 . S
C346 C347 1.382 . S
C347 H317 0.929 . S
C347 C342 1.371 . S
C347 C346 1.382 . S
C348 N311 1.423 . S
C348 C349 1.362 . S
C348 C353 1.388 . S
C349 H319 0.929 . S
C349 C348 1.362 . S
C349 C350 1.376 . S
C350 H321 0.931 . S
C350 C349 1.376 . S
C350 C351 1.396 . S
C351 C350 1.396 . S
C351 C352 1.348 . S
C351 C369 1.472 . S
C352 H322 0.929 . S
C352 C351 1.348 . S
C352 C353 1.443 . S
C353 H320 0.932 . S
C353 C348 1.388 . S
C353 C352 1.443 . S
C354 N334 1.433 . S
C354 C355 1.363 . S
C354 C359 1.370 . S
C355 H323 0.929 . S
C355 C354 1.363 . S
C355 C356 1.385 . S
C356 H324 0.930 . S
C356 C355 1.385 . S
C356 C357 1.357 . S
C357 C356 1.357 . S
C357 C358 1.406 . S
C358 H325 0.929 . S
C358 C357 1.406 . S
C358 C359 1.391 . S
C359 H326 0.931 . S
C359 C354 1.370 . S
C359 C358 1.391 . S
C360 N334 1.435 . S
C360 C361 1.358 . S
C360 C365 1.371 . S
C361 H327 0.930 . S
C361 C360 1.358 . S
C361 C362 1.405 . S
C362 H328 0.932 . S
C362 C361 1.405 . S
C362 C363 1.383 . S
C363 C362 1.383 . S
C363 C364 1.393 . S
C364 H329 0.931 . S
C364 C363 1.393 . S
C364 C365 1.382 . S
C365 H330 0.929 . S
C365 C360 1.371 . S
C365 C364 1.382 . S
C366 N334 1.423 . S
C366 C367 1.362 . S
C366 C371 1.388 . S
C367 H331 0.929 . S
C367 C366 1.362 . S
C367 C368 1.376 . S
C368 H332 0.931 . S
C368 C367 1.376 . S
C368 C369 1.396 . S
C369 C351 1.472 . S
C369 C368 1.396 . S
C369 C370 1.348 . S
C370 H333 0.929 . S
C370 C369 1.348 . S
C370 C371 1.443 . S
C371 H335 0.932 . S
C371 C366 1.388 . S
C371 C370 1.443 . S
H372 C399 0.929 . S
N373 C398 1.433 . S
N373 C404 1.435 . S
N373 C410 1.423 . S
H374 C400 0.930 . S
H375 C403 0.931 . S
H376 C402 0.929 . S
H377 C405 0.930 . S
H378 C406 0.932 . S
H379 C409 0.929 . S
H380 C408 0.931 . S
H381 C411 0.927 1_545 S
H382 C415 0.932 . S
H383 C412 0.931 . S
H384 C414 0.929 . S
H385 C417 0.929 . S
H386 C418 0.930 . S
H387 C420 0.929 . S
H388 C421 0.931 . S
H389 C423 0.930 . S
H390 C424 0.932 . S
H391 C426 0.931 . S
H392 C427 0.929 . S
H393 C429 0.929 . S
H394 C430 0.931 . S
H395 C432 0.929 . S
N396 C416 1.433 . S
N396 C422 1.435 . S
N396 C428 1.423 . S
H397 C433 0.932 . S
C398 N373 1.433 . S
C398 C399 1.363 . S
C398 C403 1.370 . S
C399 H372 0.929 . S
C399 C398 1.363 . S
C399 C400 1.385 . S
C400 H374 0.930 . S
C400 C399 1.385 . S
C400 C401 1.357 . S
C401 C400 1.357 . S
C401 C402 1.406 . S
C402 H376 0.929 . S
C402 C401 1.406 . S
C402 C403 1.391 . S
C403 H375 0.931 . S
C403 C398 1.370 . S
C403 C402 1.391 . S
C404 N373 1.435 . S
C404 C405 1.358 . S
C404 C409 1.371 . S
C405 H377 0.930 . S
C405 C404 1.358 . S
C405 C406 1.405 . S
C406 H378 0.932 . S
C406 C405 1.405 . S
C406 C407 1.383 . S
C407 C406 1.383 . S
C407 C408 1.393 . S
C408 H380 0.931 . S
C408 C407 1.393 . S
C408 C409 1.382 . S
C409 H379 0.929 . S
C409 C404 1.371 . S
C409 C408 1.382 . S
C410 N373 1.423 . S
C410 C411 1.362 . S
C410 C415 1.388 . S
C411 H381 0.927 1_565 S
C411 C410 1.362 . S
C411 C412 1.376 1_565 S
C412 H383 0.931 . S
C412 C411 1.376 1_545 S
C412 C413 1.396 . S
C413 C412 1.396 . S
C413 C414 1.348 1_545 S
C413 C431 1.472 . S
C414 H384 0.929 . S
C414 C413 1.348 1_565 S
C414 C415 1.443 . S
C415 H382 0.932 . S
C415 C410 1.388 . S
C415 C414 1.443 . S
C416 N396 1.433 . S
C416 C417 1.363 . S
C416 C421 1.370 . S
C417 H385 0.929 . S
C417 C416 1.363 . S
C417 C418 1.385 . S
C418 H386 0.930 . S
C418 C417 1.385 . S
C418 C419 1.357 . S
C419 C418 1.357 . S
C419 C420 1.406 . S
C420 H387 0.929 . S
C420 C419 1.406 . S
C420 C421 1.391 . S
C421 H388 0.931 . S
C421 C416 1.370 . S
C421 C420 1.391 . S
C422 N396 1.435 . S
C422 C423 1.358 . S
C422 C427 1.371 . S
C423 H389 0.930 . S
C423 C422 1.358 . S
C423 C424 1.405 . S
C424 H390 0.932 . S
C424 C423 1.405 . S
C424 C425 1.383 . S
C425 C424 1.383 . S
C425 C426 1.393 . S
C426 H391 0.931 . S
C426 C425 1.393 . S
C426 C427 1.382 . S
C427 H392 0.929 . S
C427 C422 1.371 . S
C427 C426 1.382 . S
C428 N396 1.423 . S
C428 C429 1.362 . S
C428 C433 1.388 . S
C429 H393 0.929 . S
C429 C428 1.362 . S
C429 C430 1.376 . S
C430 H394 0.931 . S
C430 C429 1.376 . S
C430 C431 1.396 . S
C431 C413 1.472 . S
C431 C430 1.396 . S
C431 C432 1.348 . S
C432 H395 0.929 . S
C432 C431 1.348 . S
C432 C433 1.443 . S
C433 H397 0.932 . S
C433 C428 1.388 . S
C433 C432 1.443 . S
H434 C461 0.929 . S
N435 C460 1.433 . S
N435 C466 1.435 . S
N435 C472 1.423 . S
H436 C462 0.930 . S
H437 C465 0.931 . S
H438 C464 0.929 . S
H439 C467 0.930 . S
H440 C468 0.932 . S
H441 C471 0.929 . S
H442 C470 0.931 . S
H443 C473 0.929 . S
H444 C477 0.932 . S
H445 C474 0.931 1_655 S
H446 C476 0.929 . S
H447 C479 0.929 . S
H448 C480 0.930 . S
H449 C482 0.929 . S
H450 C483 0.931 . S
H451 C485 0.930 . S
H452 C486 0.932 . S
H453 C488 0.931 . S
H454 C489 0.929 . S
H455 C491 0.929 . S
H456 C492 0.931 . S
H457 C494 0.929 1_455 S
N458 C478 1.433 . S
N458 C484 1.435 . S
N458 C490 1.423 . S
H459 C495 0.932 . S
C460 N435 1.433 . S
C460 C461 1.363 . S
C460 C465 1.370 . S
C461 H434 0.929 . S
C461 C460 1.363 . S
C461 C462 1.385 . S
C462 H436 0.930 . S
C462 C461 1.385 . S
C462 C463 1.357 . S
C463 C462 1.357 . S
C463 C464 1.406 . S
C464 H438 0.929 . S
C464 C463 1.406 . S
C464 C465 1.391 . S
C465 H437 0.931 . S
C465 C460 1.370 . S
C465 C464 1.391 . S
C466 N435 1.435 . S
C466 C467 1.358 . S
C466 C471 1.371 . S
C467 H439 0.930 . S
C467 C466 1.358 . S
C467 C468 1.405 . S
C468 H440 0.932 . S
C468 C467 1.405 . S
C468 C469 1.383 . S
C469 C468 1.383 . S
C469 C470 1.393 . S
C470 H442 0.931 . S
C470 C469 1.393 . S
C470 C471 1.382 . S
C471 H441 0.929 . S
C471 C466 1.371 . S
C471 C470 1.382 . S
C472 N435 1.423 . S
C472 C473 1.362 . S
C472 C477 1.388 . S
C473 H443 0.929 . S
C473 C472 1.362 . S
C473 C474 1.376 . S
C474 H445 0.931 1_455 S
C474 C473 1.376 . S
C474 C475 1.396 1_565 S
C475 C474 1.396 1_545 S
C475 C476 1.348 . S
C475 C493 1.472 1_455 S
C476 H446 0.929 . S
C476 C475 1.348 . S
C476 C477 1.443 1_545 S
C477 H444 0.932 . S
C477 C472 1.388 . S
C477 C476 1.443 1_565 S
C478 N458 1.433 . S
C478 C479 1.363 . S
C478 C483 1.370 . S
C479 H447 0.929 . S
C479 C478 1.363 . S
C479 C480 1.385 . S
C480 H448 0.930 . S
C480 C479 1.385 . S
C480 C481 1.357 . S
C481 C480 1.357 . S
C481 C482 1.406 . S
C482 H449 0.929 . S
C482 C481 1.406 . S
C482 C483 1.391 . S
C483 H450 0.931 . S
C483 C478 1.370 . S
C483 C482 1.391 . S
C484 N458 1.435 . S
C484 C485 1.358 . S
C484 C489 1.371 . S
C485 H451 0.930 . S
C485 C484 1.358 . S
C485 C486 1.405 . S
C486 H452 0.932 . S
C486 C485 1.405 . S
C486 C487 1.383 . S
C487 C486 1.383 . S
C487 C488 1.393 . S
C488 H453 0.931 . S
C488 C487 1.393 . S
C488 C489 1.382 . S
C489 H454 0.929 . S
C489 C484 1.371 . S
C489 C488 1.382 . S
C490 N458 1.423 . S
C490 C491 1.362 . S
C490 C495 1.388 . S
C491 H455 0.929 . S
C491 C490 1.362 . S
C491 C492 1.376 . S
C492 H456 0.931 . S
C492 C491 1.376 . S
C492 C493 1.396 . S
C493 C475 1.472 1_655 S
C493 C492 1.396 . S
C493 C494 1.348 . S
C494 H457 0.929 1_655 S
C494 C493 1.348 . S
C494 C495 1.443 . S
C495 H459 0.932 . S
C495 C490 1.388 . S
C495 C494 1.443 . S
Zn496 O499 2.031 . S
Zn496 O501 2.049 . S
Zn496 O506 2.067 . S
Zn497 O498 1.962 . S
Zn497 O500 1.986 . S
Zn497 O502 1.996 . S
Zn497 O505 1.943 1_554 S
O498 Zn497 1.962 . S
O498 C503 1.254 . S
O499 Zn496 2.031 . S
O499 C503 1.269 1_556 S
O500 Zn497 1.986 . S
O500 C507 1.262 . S
O501 Zn496 2.049 . S
O501 C509 1.260 1_556 S
O502 Zn497 1.996 . S
O502 C509 1.257 . S
C503 O498 1.254 . S
C503 O499 1.269 1_554 S
C504 O505 1.249 . S
C504 O506 1.270 . S
O505 Zn497 1.943 1_556 S
O505 C504 1.249 . S
O506 Zn496 2.067 . S
O506 C504 1.270 . S
C507 O500 1.262 . S
C507 O508 1.232 . S
O508 C507 1.232 . S
C509 O501 1.260 1_554 S
C509 O502 1.257 . S
Zn510 O513 2.031 . S
Zn510 O515 2.049 . S
Zn510 O520 2.067 . S
Zn511 O512 1.962 . S
Zn511 O514 1.986 . S
Zn511 O516 1.996 . S
Zn511 O519 1.943 . S
O512 Zn511 1.962 . S
O512 C517 1.254 . S
O513 Zn510 2.031 . S
O513 C517 1.269 . S
O514 Zn511 1.986 . S
O514 C521 1.262 . S
O515 Zn510 2.049 . S
O515 C523 1.260 . S
O516 Zn511 1.996 . S
O516 C523 1.257 . S
C517 O512 1.254 . S
C517 O513 1.269 . S
C518 O519 1.249 . S
C518 O520 1.270 . S
O519 Zn511 1.943 . S
O519 C518 1.249 . S
O520 Zn510 2.067 . S
O520 C518 1.270 . S
C521 O514 1.262 . S
C521 O522 1.232 . S
O522 C521 1.232 . S
C523 O515 1.260 . S
C523 O516 1.257 . S
Zn524 O527 2.031 . S
Zn524 O529 2.049 . S
Zn524 O534 2.067 . S
Zn525 O526 1.962 . S
Zn525 O528 1.986 . S
Zn525 O530 1.996 . S
Zn525 O533 1.943 . S
O526 Zn525 1.962 . S
O526 C531 1.254 . S
O527 Zn524 2.031 . S
O527 C531 1.269 . S
O528 Zn525 1.986 . S
O528 C535 1.262 . S
O529 Zn524 2.049 . S
O529 C537 1.260 . S
O530 Zn525 1.996 . S
O530 C537 1.257 . S
C531 O526 1.254 . S
C531 O527 1.269 . S
C532 O533 1.249 . S
C532 O534 1.270 . S
O533 Zn525 1.943 . S
O533 C532 1.249 . S
O534 Zn524 2.067 . S
O534 C532 1.270 . S
C535 O528 1.262 . S
C535 O536 1.232 . S
O536 C535 1.232 . S
C537 O529 1.260 . S
C537 O530 1.257 . S
Zn538 O541 2.031 . S
Zn538 O543 2.049 . S
Zn538 O548 2.067 . S
Zn539 O540 1.962 . S
Zn539 O542 1.986 . S
Zn539 O544 1.996 . S
Zn539 O547 1.943 . S
O540 Zn539 1.962 . S
O540 C545 1.254 . S
O541 Zn538 2.031 . S
O541 C545 1.269 . S
O542 Zn539 1.986 . S
O542 C549 1.262 . S
O543 Zn538 2.049 . S
O543 C551 1.260 . S
O544 Zn539 1.996 . S
O544 C551 1.257 . S
C545 O540 1.254 . S
C545 O541 1.269 . S
C546 O547 1.249 . S
C546 O548 1.270 . S
O547 Zn539 1.943 . S
O547 C546 1.249 . S
O548 Zn538 2.067 . S
O548 C546 1.270 . S
C549 O542 1.262 . S
C549 O550 1.232 . S
O550 C549 1.232 . S
C551 O543 1.260 . S
C551 O544 1.257 . S
Zn552 O555 2.031 . S
Zn552 O557 2.049 . S
Zn552 O562 2.067 . S
Zn553 O554 1.962 . S
Zn553 O556 1.986 . S
Zn553 O558 1.996 . S
Zn553 O561 1.943 . S
O554 Zn553 1.962 . S
O554 C559 1.254 . S
O555 Zn552 2.031 . S
O555 C559 1.269 . S
O556 Zn553 1.986 . S
O556 C563 1.262 . S
O557 Zn552 2.049 . S
O557 C565 1.260 . S
O558 Zn553 1.996 . S
O558 C565 1.257 . S
C559 O554 1.254 . S
C559 O555 1.269 . S
C560 O561 1.249 . S
C560 O562 1.270 . S
O561 Zn553 1.943 . S
O561 C560 1.249 . S
O562 Zn552 2.067 . S
O562 C560 1.270 . S
C563 O556 1.262 . S
C563 O564 1.232 . S
O564 C563 1.232 . S
C565 O557 1.260 . S
C565 O558 1.257 . S
Zn566 O569 2.031 . S
Zn566 O571 2.049 . S
Zn566 O576 2.067 . S
Zn567 O568 1.962 . S
Zn567 O570 1.986 . S
Zn567 O572 1.996 . S
Zn567 O575 1.943 . S
O568 Zn567 1.962 . S
O568 C573 1.254 . S
O569 Zn566 2.031 . S
O569 C573 1.269 . S
O570 Zn567 1.986 . S
O570 C577 1.262 . S
O571 Zn566 2.049 . S
O571 C579 1.260 . S
O572 Zn567 1.996 . S
O572 C579 1.257 . S
C573 O568 1.254 . S
C573 O569 1.269 . S
C574 O575 1.249 . S
C574 O576 1.270 . S
O575 Zn567 1.943 . S
O575 C574 1.249 . S
O576 Zn566 2.067 . S
O576 C574 1.270 . S
C577 O570 1.262 . S
C577 O578 1.232 . S
O578 C577 1.232 . S
C579 O571 1.260 . S
C579 O572 1.257 . S
Zn580 O583 2.031 . S
Zn580 O585 2.049 . S
Zn580 O590 2.067 . S
Zn581 O582 1.962 . S
Zn581 O584 1.986 . S
Zn581 O586 1.996 . S
Zn581 O589 1.943 1_556 S
O582 Zn581 1.962 . S
O582 C587 1.254 1_556 S
O583 Zn580 2.031 . S
O583 C587 1.269 . S
O584 Zn581 1.986 . S
O584 C591 1.262 . S
O585 Zn580 2.049 . S
O585 C593 1.260 . S
O586 Zn581 1.996 . S
O586 C593 1.257 1_556 S
C587 O582 1.254 1_554 S
C587 O583 1.269 . S
C588 O589 1.249 . S
C588 O590 1.270 . S
O589 Zn581 1.943 1_554 S
O589 C588 1.249 . S
O590 Zn580 2.067 . S
O590 C588 1.270 . S
C591 O584 1.262 . S
C591 O592 1.232 . S
O592 C591 1.232 . S
C593 O585 1.260 . S
C593 O586 1.257 1_554 S
Zn594 O597 2.031 . S
Zn594 O599 2.049 . S
Zn594 O604 2.067 . S
Zn595 O596 1.962 . S
Zn595 O598 1.986 . S
Zn595 O600 1.996 . S
Zn595 O603 1.943 . S
O596 Zn595 1.962 . S
O596 C601 1.254 . S
O597 Zn594 2.031 . S
O597 C601 1.269 . S
O598 Zn595 1.986 . S
O598 C605 1.262 . S
O599 Zn594 2.049 . S
O599 C607 1.260 . S
O600 Zn595 1.996 . S
O600 C607 1.257 . S
C601 O596 1.254 . S
C601 O597 1.269 . S
C602 O603 1.249 . S
C602 O604 1.270 . S
O603 Zn595 1.943 . S
O603 C602 1.249 . S
O604 Zn594 2.067 . S
O604 C602 1.270 . S
C605 O598 1.262 . S
C605 O606 1.232 . S
O606 C605 1.232 . S
C607 O599 1.260 . S
C607 O600 1.257 . S
C608 C609 1.387 . S
C608 H612 0.950 . S
C608 C617 1.390 . S
C609 C608 1.387 . S
C609 C611 1.387 . S
H610 C617 0.950 . S
C611 C609 1.387 . S
C611 C613 1.390 . S
C611 H615 0.950 . S
H612 C608 0.950 . S
C613 C611 1.390 . S
C613 C614 1.387 . S
C613 H616 0.950 . S
C614 C613 1.387 . S
C614 C617 1.387 . S
H615 C611 0.950 . S
H616 C613 0.950 . S
C617 C608 1.390 . S
C617 H610 0.950 . S
C617 C614 1.387 . S
C618 C619 1.387 . S
C618 H622 0.950 . S
C618 C627 1.390 . S
C619 C618 1.387 . S
C619 C621 1.387 . S
H620 C627 0.950 . S
C621 C619 1.387 . S
C621 C623 1.390 . S
C621 H625 0.950 . S
H622 C618 0.950 . S
C623 C621 1.390 . S
C623 C624 1.387 . S
C623 H626 0.950 . S
C624 C623 1.387 . S
C624 C627 1.387 . S
H625 C621 0.950 . S
H626 C623 0.950 . S
C627 C618 1.390 . S
C627 H620 0.950 . S
C627 C624 1.387 . S
C628 C629 1.387 . S
C628 H632 0.950 . S
C628 C637 1.390 . S
C629 C628 1.387 . S
C629 C631 1.387 . S
H630 C637 0.950 . S
C631 C629 1.387 . S
C631 C633 1.390 . S
C631 H635 0.950 . S
H632 C628 0.950 . S
C633 C631 1.390 . S
C633 C634 1.387 . S
C633 H636 0.950 . S
C634 C633 1.387 . S
C634 C637 1.387 . S
H635 C631 0.950 . S
H636 C633 0.950 . S
C637 C628 1.390 . S
C637 H630 0.950 . S
C637 C634 1.387 . S
C638 C639 1.387 . S
C638 H642 0.950 . S
C638 C647 1.390 . S
C639 C638 1.387 . S
C639 C641 1.387 1_554 S
H640 C647 0.950 . S
C641 C639 1.387 1_556 S
C641 C643 1.390 . S
C641 H645 0.950 . S
H642 C638 0.950 . S
C643 C641 1.390 . S
C643 C644 1.387 1_556 S
C643 H646 0.950 . S
C644 C643 1.387 1_554 S
C644 C647 1.387 . S
H645 C641 0.950 . S
H646 C643 0.950 . S
C647 C638 1.390 . S
C647 H640 0.950 . S
C647 C644 1.387 . S
C648 C649 1.387 . S
C648 H652 0.950 . S
C648 C657 1.390 . S
C649 C648 1.387 . S
C649 C651 1.387 1_554 S
H650 C657 0.950 . S
C651 C649 1.387 1_556 S
C651 C653 1.390 . S
C651 H655 0.950 . S
H652 C648 0.950 . S
C653 C651 1.390 . S
C653 C654 1.387 1_556 S
C653 H656 0.950 . S
C654 C653 1.387 1_554 S
C654 C657 1.387 . S
H655 C651 0.950 . S
H656 C653 0.950 . S
C657 C648 1.390 . S
C657 H650 0.950 . S
C657 C654 1.387 . S
C658 C659 1.387 . S
C658 H662 0.950 . S
C658 C667 1.390 . S
C659 C658 1.387 . S
C659 C661 1.387 . S
H660 C667 0.950 . S
C661 C659 1.387 . S
C661 C663 1.390 . S
C661 H665 0.950 . S
H662 C658 0.950 . S
C663 C661 1.390 . S
C663 C664 1.387 . S
C663 H666 0.950 . S
C664 C663 1.387 . S
C664 C667 1.387 . S
H665 C661 0.950 . S
H666 C663 0.950 . S
C667 C658 1.390 . S
C667 H660 0.950 . S
C667 C664 1.387 . S
C668 C669 1.387 . S
C668 H672 0.950 . S
C668 C677 1.390 . S
C669 C668 1.387 . S
C669 C671 1.387 . S
H670 C677 0.950 . S
C671 C669 1.387 . S
C671 C673 1.390 . S
C671 H675 0.950 . S
H672 C668 0.950 . S
C673 C671 1.390 . S
C673 C674 1.387 . S
C673 H676 0.950 . S
C674 C673 1.387 . S
C674 C677 1.387 . S
H675 C671 0.950 . S
H676 C673 0.950 . S
C677 C668 1.390 . S
C677 H670 0.950 . S
C677 C674 1.387 . S
C678 C679 1.387 . S
C678 H682 0.950 . S
C678 C687 1.390 . S
C679 C678 1.387 . S
C679 C681 1.387 . S
H680 C687 0.950 . S
C681 C679 1.387 . S
C681 C683 1.390 . S
C681 H685 0.950 . S
H682 C678 0.950 . S
C683 C681 1.390 . S
C683 C684 1.387 . S
C683 H686 0.950 . S
C684 C683 1.387 . S
C684 C687 1.387 . S
H685 C681 0.950 . S
H686 C683 0.950 . S
C687 C678 1.390 . S
C687 H680 0.950 . S
C687 C684 1.387 . S
C688 C689 1.387 . S
C688 H692 0.950 . S
C688 C697 1.390 . S
C689 C688 1.387 . S
C689 C691 1.387 . S
H690 C697 0.950 . S
C691 C689 1.387 . S
C691 C693 1.390 . S
C691 H695 0.950 . S
H692 C688 0.950 . S
C693 C691 1.390 . S
C693 C694 1.387 . S
C693 H696 0.950 . S
C694 C693 1.387 . S
C694 C697 1.387 . S
H695 C691 0.950 . S
H696 C693 0.950 . S
C697 C688 1.390 . S
C697 H690 0.950 . S
C697 C694 1.387 . S
C698 C699 1.387 1_556 S
C698 H702 0.950 . S
C698 C707 1.390 . S
C699 C698 1.387 1_554 S
C699 C701 1.387 . S
H700 C707 0.950 . S
C701 C699 1.387 . S
C701 C703 1.390 . S
C701 H705 0.950 . S
H702 C698 0.950 . S
C703 C701 1.390 . S
C703 C704 1.387 . S
C703 H706 0.950 . S
C704 C703 1.387 . S
C704 C707 1.387 1_554 S
H705 C701 0.950 . S
H706 C703 0.950 . S
C707 C698 1.390 . S
C707 H700 0.950 . S
C707 C704 1.387 1_556 S
C708 C709 1.387 . S
C708 H712 0.950 . S
C708 C717 1.390 . S
C709 C708 1.387 . S
C709 C711 1.387 . S
H710 C717 0.950 . S
C711 C709 1.387 . S
C711 C713 1.390 . S
C711 H715 0.950 . S
H712 C708 0.950 . S
C713 C711 1.390 . S
C713 C714 1.387 . S
C713 H716 0.950 . S
C714 C713 1.387 . S
C714 C717 1.387 . S
H715 C711 0.950 . S
H716 C713 0.950 . S
C717 C708 1.390 . S
C717 H710 0.950 . S
C717 C714 1.387 . S
C718 C719 1.387 . S
C718 H722 0.950 . S
C718 C727 1.390 . S
C719 C718 1.387 . S
C719 C721 1.387 . S
H720 C727 0.950 . S
C721 C719 1.387 . S
C721 C723 1.390 . S
C721 H725 0.950 . S
H722 C718 0.950 . S
C723 C721 1.390 . S
C723 C724 1.387 . S
C723 H726 0.950 . S
C724 C723 1.387 . S
C724 C727 1.387 . S
H725 C721 0.950 . S
H726 C723 0.950 . S
C727 C718 1.390 . S
C727 H720 0.950 . S
C727 C724 1.387 . S
C728 C729 1.387 . S
C728 H732 0.950 . S
C728 C737 1.390 . S
C729 C728 1.387 . S
C729 C731 1.387 . S
H730 C737 0.950 . S
C731 C729 1.387 . S
C731 C733 1.390 . S
C731 H735 0.950 . S
H732 C728 0.950 . S
C733 C731 1.390 . S
C733 C734 1.387 . S
C733 H736 0.950 . S
C734 C733 1.387 . S
C734 C737 1.387 . S
H735 C731 0.950 . S
H736 C733 0.950 . S
C737 C728 1.390 . S
C737 H730 0.950 . S
C737 C734 1.387 . S
C738 C739 1.387 . S
C738 H742 0.950 . S
C738 C747 1.390 . S
C739 C738 1.387 . S
C739 C741 1.387 . S
H740 C747 0.950 . S
C741 C739 1.387 . S
C741 C743 1.390 . S
C741 H745 0.950 . S
H742 C738 0.950 . S
C743 C741 1.390 . S
C743 C744 1.387 . S
C743 H746 0.950 . S
C744 C743 1.387 . S
C744 C747 1.387 . S
H745 C741 0.950 . S
H746 C743 0.950 . S
C747 C738 1.390 . S
C747 H740 0.950 . S
C747 C744 1.387 . S
C748 C749 1.387 . S
C748 H752 0.950 . S
C748 C757 1.390 . S
C749 C748 1.387 . S
C749 C751 1.387 1_554 S
H750 C757 0.950 . S
C751 C749 1.387 1_556 S
C751 C753 1.390 . S
C751 H755 0.950 . S
H752 C748 0.950 . S
C753 C751 1.390 . S
C753 C754 1.387 . S
C753 H756 0.950 . S
C754 C753 1.387 . S
C754 C757 1.387 1_556 S
H755 C751 0.950 . S
H756 C753 0.950 . S
C757 C748 1.390 . S
C757 H750 0.950 . S
C757 C754 1.387 1_554 S
C758 C759 1.387 . S
C758 H762 0.950 . S
C758 C767 1.390 . S
C759 C758 1.387 . S
C759 C761 1.387 . S
H760 C767 0.950 . S
C761 C759 1.387 . S
C761 C763 1.390 . S
C761 H765 0.950 . S
H762 C758 0.950 . S
C763 C761 1.390 . S
C763 C764 1.387 . S
C763 H766 0.950 . S
C764 C763 1.387 . S
C764 C767 1.387 . S
H765 C761 0.950 . S
H766 C763 0.950 . S
C767 C758 1.390 . S
C767 H760 0.950 . S
C767 C764 1.387 . S
C768 C769 1.387 . S
C768 H772 0.950 . S
C768 C777 1.390 . S
C769 C768 1.387 . S
C769 C771 1.387 . S
H770 C777 0.950 . S
C771 C769 1.387 . S
C771 C773 1.390 . S
C771 H775 0.950 . S
H772 C768 0.950 . S
C773 C771 1.390 . S
C773 C774 1.387 . S
C773 H776 0.950 . S
C774 C773 1.387 . S
C774 C777 1.387 . S
H775 C771 0.950 . S
H776 C773 0.950 . S
C777 C768 1.390 . S
C777 H770 0.950 . S
C777 C774 1.387 . S
C778 C779 1.387 . S
C778 H782 0.950 . S
C778 C787 1.390 . S
C779 C778 1.387 . S
C779 C781 1.387 . S
H780 C787 0.950 . S
C781 C779 1.387 . S
C781 C783 1.390 . S
C781 H785 0.950 . S
H782 C778 0.950 . S
C783 C781 1.390 . S
C783 C784 1.387 . S
C783 H786 0.950 . S
C784 C783 1.387 . S
C784 C787 1.387 . S
H785 C781 0.950 . S
H786 C783 0.950 . S
C787 C778 1.390 . S
C787 H780 0.950 . S
C787 C784 1.387 . S
C788 C789 1.387 . S
C788 H792 0.950 . S
C788 C797 1.390 . S
C789 C788 1.387 . S
C789 C791 1.387 . S
H790 C797 0.950 . S
C791 C789 1.387 . S
C791 C793 1.390 . S
C791 H795 0.950 . S
H792 C788 0.950 . S
C793 C791 1.390 . S
C793 C794 1.387 . S
C793 H796 0.950 . S
C794 C793 1.387 . S
C794 C797 1.387 . S
H795 C791 0.950 . S
H796 C793 0.950 . S
C797 C788 1.390 . S
C797 H790 0.950 . S
C797 C794 1.387 . S
C798 C799 1.387 . S
C798 H802 0.950 . S
C798 C807 1.390 . S
C799 C798 1.387 . S
C799 C801 1.387 . S
H800 C807 0.950 . S
C801 C799 1.387 . S
C801 C803 1.390 . S
C801 H805 0.950 . S
H802 C798 0.950 . S
C803 C801 1.390 . S
C803 C804 1.387 . S
C803 H806 0.950 . S
C804 C803 1.387 . S
C804 C807 1.387 . S
H805 C801 0.950 . S
H806 C803 0.950 . S
C807 C798 1.390 . S
C807 H800 0.950 . S
C807 C804 1.387 . S
C808 C809 1.387 . S
C808 H812 0.950 . S
C808 C817 1.390 . S
C809 C808 1.387 . S
C809 C811 1.387 . S
H810 C817 0.950 . S
C811 C809 1.387 . S
C811 C813 1.390 . S
C811 H815 0.950 . S
H812 C808 0.950 . S
C813 C811 1.390 . S
C813 C814 1.387 . S
C813 H816 0.950 . S
C814 C813 1.387 . S
C814 C817 1.387 . S
H815 C811 0.950 . S
H816 C813 0.950 . S
C817 C808 1.390 . S
C817 H810 0.950 . S
C817 C814 1.387 . S
C818 C819 1.387 . S
C818 H822 0.950 . S
C818 C827 1.390 . S
C819 C818 1.387 . S
C819 C821 1.387 . S
H820 C827 0.950 . S
C821 C819 1.387 . S
C821 C823 1.390 . S
C821 H825 0.950 . S
H822 C818 0.950 . S
C823 C821 1.390 . S
C823 C824 1.387 . S
C823 H826 0.950 . S
C824 C823 1.387 . S
C824 C827 1.387 . S
H825 C821 0.950 . S
H826 C823 0.950 . S
C827 C818 1.390 . S
C827 H820 0.950 . S
C827 C824 1.387 . S
C828 C829 1.387 . S
C828 H832 0.950 . S
C828 C837 1.390 . S
C829 C828 1.387 . S
C829 C831 1.387 . S
H830 C837 0.950 . S
C831 C829 1.387 . S
C831 C833 1.390 . S
C831 H835 0.950 . S
H832 C828 0.950 . S
C833 C831 1.390 . S
C833 C834 1.387 . S
C833 H836 0.950 . S
C834 C833 1.387 . S
C834 C837 1.387 . S
H835 C831 0.950 . S
H836 C833 0.950 . S
C837 C828 1.390 . S
C837 H830 0.950 . S
C837 C834 1.387 . S
C838 C839 1.387 . S
C838 H842 0.950 . S
C838 C847 1.390 . S
C839 C838 1.387 . S
C839 C841 1.387 . S
H840 C847 0.950 . S
C841 C839 1.387 . S
C841 C843 1.390 . S
C841 H845 0.950 . S
H842 C838 0.950 . S
C843 C841 1.390 . S
C843 C844 1.387 . S
C843 H846 0.950 . S
C844 C843 1.387 . S
C844 C847 1.387 . S
H845 C841 0.950 . S
H846 C843 0.950 . S
C847 C838 1.390 . S
C847 H840 0.950 . S
C847 C844 1.387 . S
C848 C849 1.387 . S
C848 H852 0.950 . S
C848 C857 1.390 . S
C849 C848 1.387 . S
C849 C851 1.387 . S
H850 C857 0.950 . S
C851 C849 1.387 . S
C851 C853 1.390 . S
C851 H855 0.950 . S
H852 C848 0.950 . S
C853 C851 1.390 . S
C853 C854 1.387 . S
C853 H856 0.950 . S
C854 C853 1.387 . S
C854 C857 1.387 . S
H855 C851 0.950 . S
H856 C853 0.950 . S
C857 C848 1.390 . S
C857 H850 0.950 . S
C857 C854 1.387 . S
C858 C859 1.387 . S
C858 H862 0.950 . S
C858 C867 1.390 . S
C859 C858 1.387 . S
C859 C861 1.387 . S
H860 C867 0.950 . S
C861 C859 1.387 . S
C861 C863 1.390 . S
C861 H865 0.950 . S
H862 C858 0.950 . S
C863 C861 1.390 . S
C863 C864 1.387 . S
C863 H866 0.950 . S
C864 C863 1.387 . S
C864 C867 1.387 . S
H865 C861 0.950 . S
H866 C863 0.950 . S
C867 C858 1.390 . S
C867 H860 0.950 . S
C867 C864 1.387 . S
C868 C869 1.387 . S
C868 H872 0.950 . S
C868 C877 1.390 . S
C869 C868 1.387 . S
C869 C871 1.387 . S
H870 C877 0.950 . S
C871 C869 1.387 . S
C871 C873 1.390 . S
C871 H875 0.950 . S
H872 C868 0.950 . S
C873 C871 1.390 . S
C873 C874 1.387 . S
C873 H876 0.950 . S
C874 C873 1.387 . S
C874 C877 1.387 . S
H875 C871 0.950 . S
H876 C873 0.950 . S
C877 C868 1.390 . S
C877 H870 0.950 . S
C877 C874 1.387 . S
C878 C879 1.387 . S
C878 H882 0.950 . S
C878 C887 1.390 . S
C879 C878 1.387 . S
C879 C881 1.387 . S
H880 C887 0.950 . S
C881 C879 1.387 . S
C881 C883 1.390 . S
C881 H885 0.950 . S
H882 C878 0.950 . S
C883 C881 1.390 . S
C883 C884 1.387 . S
C883 H886 0.950 . S
C884 C883 1.387 . S
C884 C887 1.387 . S
H885 C881 0.950 . S
H886 C883 0.950 . S
C887 C878 1.390 . S
C887 H880 0.950 . S
C887 C884 1.387 . S
C888 C889 1.387 . S
C888 H892 0.950 . S
C888 C897 1.390 . S
C889 C888 1.387 . S
C889 C891 1.387 . S
H890 C897 0.950 . S
C891 C889 1.387 . S
C891 C893 1.390 . S
C891 H895 0.950 . S
H892 C888 0.950 . S
C893 C891 1.390 . S
C893 C894 1.387 . S
C893 H896 0.950 . S
C894 C893 1.387 . S
C894 C897 1.387 . S
H895 C891 0.950 . S
H896 C893 0.950 . S
C897 C888 1.390 . S
C897 H890 0.950 . S
C897 C894 1.387 . S
C898 C899 1.387 . S
C898 H902 0.950 . S
C898 C907 1.390 . S
C899 C898 1.387 . S
C899 C901 1.387 . S
H900 C907 0.950 . S
C901 C899 1.387 . S
C901 C903 1.390 . S
C901 H905 0.950 . S
H902 C898 0.950 . S
C903 C901 1.390 . S
C903 C904 1.387 . S
C903 H906 0.950 . S
C904 C903 1.387 . S
C904 C907 1.387 . S
H905 C901 0.950 . S
H906 C903 0.950 . S
C907 C898 1.390 . S
C907 H900 0.950 . S
C907 C904 1.387 . S
C908 C909 1.387 . S
C908 H912 0.950 . S
C908 C917 1.390 . S
C909 C908 1.387 . S
C909 C911 1.387 . S
H910 C917 0.950 . S
C911 C909 1.387 . S
C911 C913 1.390 . S
C911 H915 0.950 . S
H912 C908 0.950 . S
C913 C911 1.390 . S
C913 C914 1.387 . S
C913 H916 0.950 . S
C914 C913 1.387 . S
C914 C917 1.387 . S
H915 C911 0.950 . S
H916 C913 0.950 . S
C917 C908 1.390 . S
C917 H910 0.950 . S
C917 C914 1.387 . S
C918 C919 1.387 . S
C918 H922 0.950 . S
C918 C927 1.390 . S
C919 C918 1.387 . S
C919 C921 1.387 . S
H920 C927 0.950 . S
C921 C919 1.387 . S
C921 C923 1.390 . S
C921 H925 0.950 . S
H922 C918 0.950 . S
C923 C921 1.390 . S
C923 C924 1.387 . S
C923 H926 0.950 . S
C924 C923 1.387 . S
C924 C927 1.387 . S
H925 C921 0.950 . S
H926 C923 0.950 . S
C927 C918 1.390 . S
C927 H920 0.950 . S
C927 C924 1.387 . S
C614 C517 1.572 . S
C609 C35 1.356 . S
C624 C537 1.463 . S
C619 C115 1.360 . S
C634 C551 1.489 . S
C629 C177 1.387 . S
C639 C221 1.443 . S
C644 C509 1.567 . S
C649 C283 1.506 . S
C654 C503 1.799 . S
C659 C363 1.471 . S
C664 C523 1.593 . S
C674 C531 1.595 . S
C669 C407 1.378 . S
C684 C545 1.738 . S
C679 C469 1.465 . S
C689 C159 1.465 . S
C694 C573 1.738 . S
C704 C587 1.594 . S
C699 C239 1.390 . S
C709 C53 1.473 . S
C714 C607 1.593 . S
C724 C559 1.804 . S
C719 C97 1.505 . S
C729 C425 1.452 . S
C734 C565 1.568 . S
C739 C487 1.387 . S
C744 C579 1.489 . S
C754 C593 1.462 1_556 S
C749 C301 1.362 1_554 S
C759 C345 1.357 . S
C764 C601 1.571 . S
C774 C532 1.928 . S
C769 C29 1.935 . S
C784 C546 1.944 . S
C779 C109 1.867 . S
C789 C171 1.799 . S
C794 C504 1.873 . S
C799 C215 1.665 . S
C804 C521 1.687 . S
C809 C277 1.613 . S
C814 C549 1.620 . S
C824 C507 1.616 . S
C819 C357 1.550 . S
C834 C518 1.851 . S
C829 C401 1.862 . S
C844 C535 1.685 . S
C839 C463 1.677 . S
C854 C591 1.685 . S
C849 C153 1.678 . S
C864 C602 1.851 . S
C859 C233 1.813 . S
C869 C47 1.553 . S
C874 C563 1.616 . S
C884 C577 1.622 . S
C879 C91 1.612 . S
C894 C605 1.688 . S
C889 C419 1.614 . S
C899 C481 1.800 . S
C904 C560 1.872 . S
C914 C574 1.944 . S
C909 C295 1.868 . S
C924 C588 1.928 . S
C919 C339 1.936 . S
