# Generated by pormake.
# Topology pyr, (3,6)-cn, num edge types: 1
# Building blocks:
#     Node 0, Type 0, BuildingBlock: BELTOD_clean_linker_0, # of connection points: 3
#     Node 1, Type 0, BuildingBlock: BELTOD_clean_linker_0, # of connection points: 3
#     Node 2, Type 0, BuildingBlock: BELTOD_clean_linker_0, # of connection points: 3
#     Node 3, Type 0, BuildingBlock: BELTOD_clean_linker_0, # of connection points: 3
#     Node 4, Type 0, BuildingBlock: BELTOD_clean_linker_0, # of connection points: 3
#     Node 5, Type 0, BuildingBlock: BELTOD_clean_linker_0, # of connection points: 3
#     Node 6, Type 0, BuildingBlock: BELTOD_clean_linker_0, # of connection points: 3
#     Node 7, Type 0, BuildingBlock: BELTOD_clean_linker_0, # of connection points: 3
#     Node 8, Type 1, BuildingBlock: MIDCAF_clean_sbu_0, # of connection points: 6
#     Node 9, Type 1, BuildingBlock: MIDCAF_clean_sbu_0, # of connection points: 6
#     Node 10, Type 1, BuildingBlock: MIDCAF_clean_sbu_0, # of connection points: 6
#     Node 11, Type 1, BuildingBlock: MIDCAF_clean_sbu_0, # of connection points: 6
#     Edge 12, Type (0, 1), BuildingBlock: XUDNAN_clean_linker_2, # of connection points: 2
#     Edge 13, Type (0, 1), BuildingBlock: XUDNAN_clean_linker_2, # of connection points: 2
#     Edge 14, Type (0, 1), BuildingBlock: XUDNAN_clean_linker_2, # of connection points: 2
#     Edge 15, Type (0, 1), BuildingBlock: XUDNAN_clean_linker_2, # of connection points: 2
#     Edge 16, Type (0, 1), BuildingBlock: XUDNAN_clean_linker_2, # of connection points: 2
#     Edge 17, Type (0, 1), BuildingBlock: XUDNAN_clean_linker_2, # of connection points: 2
#     Edge 18, Type (0, 1), BuildingBlock: XUDNAN_clean_linker_2, # of connection points: 2
#     Edge 19, Type (0, 1), BuildingBlock: XUDNAN_clean_linker_2, # of connection points: 2
#     Edge 20, Type (0, 1), BuildingBlock: XUDNAN_clean_linker_2, # of connection points: 2
#     Edge 21, Type (0, 1), BuildingBlock: XUDNAN_clean_linker_2, # of connection points: 2
#     Edge 22, Type (0, 1), BuildingBlock: XUDNAN_clean_linker_2, # of connection points: 2
#     Edge 23, Type (0, 1), BuildingBlock: XUDNAN_clean_linker_2, # of connection points: 2
#     Edge 24, Type (0, 1), BuildingBlock: XUDNAN_clean_linker_2, # of connection points: 2
#     Edge 25, Type (0, 1), BuildingBlock: XUDNAN_clean_linker_2, # of connection points: 2
#     Edge 26, Type (0, 1), BuildingBlock: XUDNAN_clean_linker_2, # of connection points: 2
#     Edge 27, Type (0, 1), BuildingBlock: XUDNAN_clean_linker_2, # of connection points: 2
#     Edge 28, Type (0, 1), BuildingBlock: XUDNAN_clean_linker_2, # of connection points: 2
#     Edge 29, Type (0, 1), BuildingBlock: XUDNAN_clean_linker_2, # of connection points: 2
#     Edge 30, Type (0, 1), BuildingBlock: XUDNAN_clean_linker_2, # of connection points: 2
#     Edge 31, Type (0, 1), BuildingBlock: XUDNAN_clean_linker_2, # of connection points: 2
#     Edge 32, Type (0, 1), BuildingBlock: XUDNAN_clean_linker_2, # of connection points: 2
#     Edge 33, Type (0, 1), BuildingBlock: XUDNAN_clean_linker_2, # of connection points: 2
#     Edge 34, Type (0, 1), BuildingBlock: XUDNAN_clean_linker_2, # of connection points: 2
#     Edge 35, Type (0, 1), BuildingBlock: XUDNAN_clean_linker_2, # of connection points: 2
# Relax obj value: 0.020
# Max RMSD: 0.062
# Mean RMSD: 0.033
data_MOF--net-pry--node1-MIDCAF_clean_sbu_0--node2-BELTOD_clean_linker_0--edge1-XUDNAN_clean_linker_2
_symmetry_space_group_name_H-M    P1
_symmetry_Int_Tables_number       1
_symmetry_cell_setting            triclinic
loop_
_symmetry_equiv_pos_as_xyz
'x, y, z'
_cell_length_a     40.493827
_cell_length_b     40.837498
_cell_length_c     40.170609
_cell_angle_alpha  89.757182
_cell_angle_beta   90.132488
_cell_angle_gamma 90.3701
loop_
_atom_site_label
_atom_site_type_symbol
_atom_site_fract_x
_atom_site_fract_y
_atom_site_fract_z
_atom_type_partial_charge
P0 P 0.25572 0.25659 0.26211 0.0
H1 H 0.32514 0.25997 0.24282 0.0
H2 H 0.36072 0.22336 0.21087 0.0
H3 H 0.2783 0.15761 0.1956 0.0
H4 H 0.24242 0.19492 0.22641 0.0
H5 H 0.23528 0.32448 0.2711 0.0
H6 H 0.20972 0.36465 0.23383 0.0
H7 H 0.20746 0.29285 0.15524 0.0
H8 H 0.23265 0.25275 0.19262 0.0
H9 H 0.25138 0.18897 0.28814 0.0
H10 H 0.19497 0.27783 0.29452 0.0
O11 O 0.28006 0.27718 0.28838 0.0
H12 H 0.21101 0.16066 0.32219 0.0
H13 H 0.15627 0.25088 0.33188 0.0
C14 C 0.28144 0.22952 0.23813 0.0
C15 C 0.31471 0.23765 0.23269 0.0
C16 C 0.33497 0.21686 0.21433 0.0
C17 C 0.32229 0.1875 0.20132 0.0
C18 C 0.28874 0.17984 0.20596 0.0
C19 C 0.26833 0.20103 0.22368 0.0
C20 C 0.23634 0.28575 0.23455 0.0
C21 C 0.22931 0.31739 0.24584 0.0
C22 C 0.21461 0.34029 0.22457 0.0
C23 C 0.20688 0.33199 0.19152 0.0
C24 C 0.21366 0.30013 0.1804 0.0
C25 C 0.22798 0.27713 0.20182 0.0
C26 C 0.22539 0.23515 0.28713 0.0
C27 C 0.23003 0.20239 0.29647 0.0
C28 C 0.20713 0.18634 0.31691 0.0
C29 C 0.17981 0.20315 0.33005 0.0
C30 C 0.1761 0.2365 0.3216 0.0
C31 C 0.19848 0.25217 0.30024 0.0
P32 P 0.32903 0.84313 0.69839 0.0
H33 H 0.39565 0.85846 0.71953 0.0
H34 H 0.42164 0.8644 0.77411 0.0
H35 H 0.32996 0.83697 0.82151 0.0
H36 H 0.3043 0.82934 0.76645 0.0
H37 H 0.38347 0.81748 0.65991 0.0
H38 H 0.39581 0.7634 0.63823 0.0
H39 H 0.30463 0.72598 0.67981 0.0
H40 H 0.2928 0.78054 0.70224 0.0
H41 H 0.28454 0.88048 0.7424 0.0
H42 H 0.27967 0.83171 0.64758 0.0
O43 O 0.34832 0.87054 0.67426 0.0
H44 H 0.22821 0.89937 0.73524 0.0
H45 H 0.2249 0.85327 0.63836 0.0
C46 C 0.34763 0.84504 0.73904 0.0
C47 C 0.38112 0.8535 0.7416 0.0
C48 C 0.39606 0.85656 0.77274 0.0
C49 C 0.37765 0.85136 0.80184 0.0
C50 C 0.34449 0.84134 0.79931 0.0
C51 C 0.32978 0.83739 0.76797 0.0
C52 C 0.33683 0.80314 0.68187 0.0
C53 C 0.36593 0.79777 0.66406 0.0
C54 C 0.37286 0.76681 0.65153 0.0
C55 C 0.35087 0.74047 0.65671 0.0
C56 C 0.32198 0.74578 0.67529 0.0
C57 C 0.3151 0.77692 0.68792 0.0
C58 C 0.28586 0.85331 0.69623 0.0
C59 C 0.27108 0.87303 0.7204 0.0
C60 C 0.23891 0.88456 0.71583 0.0
C61 C 0.22146 0.87801 0.68616 0.0
C62 C 0.23663 0.85815 0.66205 0.0
C63 C 0.2683 0.84585 0.66717 0.0
P64 P 0.76133 0.28948 0.77943 0.0
H65 H 0.82504 0.28029 0.81168 0.0
H66 H 0.8634 0.31771 0.83951 0.0
H67 H 0.79516 0.39725 0.82372 0.0
H68 H 0.75714 0.35969 0.79547 0.0
H69 H 0.71876 0.2331 0.76851 0.0
H70 H 0.68875 0.19633 0.80605 0.0
H71 H 0.7195 0.25536 0.8898 0.0
H72 H 0.74997 0.29162 0.85207 0.0
H73 H 0.77436 0.31344 0.7126 0.0
H74 H 0.69329 0.31483 0.78192 0.0
O75 O 0.78487 0.26372 0.75793 0.0
H76 H 0.74107 0.3429 0.67173 0.0
H77 H 0.65942 0.34403 0.7408 0.0
C78 C 0.78854 0.31731 0.80103 0.0
C79 C 0.8184 0.30581 0.81415 0.0
C80 C 0.84022 0.32721 0.83022 0.0
C81 C 0.83249 0.36057 0.83363 0.0
C82 C 0.80217 0.37186 0.82094 0.0
C83 C 0.78031 0.35037 0.80493 0.0
C84 C 0.73677 0.2649 0.80749 0.0
C85 C 0.71884 0.23821 0.79495 0.0
C86 C 0.70156 0.21729 0.81647 0.0
C87 C 0.70183 0.22273 0.85104 0.0
C88 C 0.71922 0.25009 0.8634 0.0
C89 C 0.73651 0.27102 0.8418 0.0
C90 C 0.73603 0.31129 0.74992 0.0
C91 C 0.74923 0.31985 0.71888 0.0
C92 C 0.73011 0.33661 0.6955 0.0
C93 C 0.69739 0.34542 0.7028 0.0
C94 C 0.68452 0.33762 0.7344 0.0
C95 C 0.70374 0.32071 0.75782 0.0
P96 P 0.76762 0.7651 0.2697 0.0
H97 H 0.78916 0.83219 0.25749 0.0
H98 H 0.81595 0.87337 0.29243 0.0
H99 H 0.81358 0.80608 0.37571 0.0
H100 H 0.78692 0.7648 0.34035 0.0
H101 H 0.77264 0.73624 0.20347 0.0
H102 H 0.81383 0.70099 0.17765 0.0
H103 H 0.87428 0.70799 0.26616 0.0
H104 H 0.83278 0.74281 0.29193 0.0
H105 H 0.70569 0.77582 0.30466 0.0
H106 H 0.76965 0.69424 0.28449 0.0
O107 O 0.74512 0.78405 0.24066 0.0
H108 H 0.66668 0.73881 0.33261 0.0
H109 H 0.7313 0.65742 0.31272 0.0
C110 C 0.78548 0.79572 0.29652 0.0
C111 C 0.79402 0.82644 0.28338 0.0
C112 C 0.80926 0.85 0.30343 0.0
C113 C 0.81665 0.84313 0.33696 0.0
C114 C 0.80829 0.81211 0.34997 0.0
C115 C 0.79284 0.78859 0.32988 0.0
C116 C 0.7999 0.74258 0.24939 0.0
C117 C 0.79504 0.73067 0.21707 0.0
C118 C 0.81866 0.71059 0.20229 0.0
C119 C 0.84737 0.70173 0.21983 0.0
C120 C 0.85233 0.71418 0.25208 0.0
C121 C 0.82874 0.73432 0.26676 0.0
C122 C 0.74046 0.73785 0.2923 0.0
C123 C 0.71144 0.75 0.30645 0.0
C124 C 0.68923 0.72883 0.32251 0.0
C125 C 0.6957 0.69507 0.32465 0.0
C126 C 0.7252 0.68315 0.31095 0.0
C127 C 0.74736 0.70433 0.29496 0.0
P128 P 0.9344 0.93736 0.9444 0.0
H129 H 0.90603 0.9892 0.98537 0.0
H130 H 0.85092 0.01287 0.98818 0.0
H131 H 0.81827 0.94833 0.90953 0.0
H132 H 0.87373 0.92517 0.90649 0.0
H133 H 0.98464 0.88713 0.94403 0.0
H134 H 0.98617 0.83086 0.96482 0.0
H135 H 0.88528 0.83948 0.99828 0.0
H136 H 0.88388 0.8958 0.97727 0.0
H137 H 0.97601 0.98548 0.91041 0.0
H138 H 0.9257 0.89536 0.88595 0.0
O139 O 0.95989 0.95829 0.96928 0.0
H140 H 0.99469 0.99085 0.85292 0.0
H141 H 0.94331 0.90107 0.828 0.0
C142 C 0.894 0.95551 0.94562 0.0
C143 C 0.88712 0.9803 0.96853 0.0
C144 C 0.85553 0.99375 0.9702 0.0
C145 C 0.83016 0.98252 0.94906 0.0
C146 C 0.83734 0.95792 0.92579 0.0
C147 C 0.869 0.94451 0.92415 0.0
C148 C 0.93407 0.89549 0.95865 0.0
C149 C 0.9628 0.87685 0.95569 0.0
C150 C 0.96371 0.8448 0.96786 0.0
C151 C 0.93587 0.83077 0.98337 0.0
C152 C 0.90701 0.84952 0.98622 0.0
C153 C 0.9062 0.88174 0.97417 0.0
C154 C 0.94981 0.93985 0.90248 0.0
C155 C 0.96917 0.96671 0.89267 0.0
C156 C 0.97963 0.96987 0.8597 0.0
C157 C 0.97048 0.94642 0.83574 0.0
C158 C 0.95129 0.9193 0.84585 0.0
C159 C 0.94099 0.9161 0.87893 0.0
P160 P 0.64319 0.16262 0.38435 0.0
H161 H 0.67938 0.20458 0.42973 0.0
H162 H 0.66144 0.24276 0.47272 0.0
H163 H 0.5611 0.20802 0.46136 0.0
H164 H 0.57916 0.16984 0.41845 0.0
H165 H 0.68411 0.11973 0.3452 0.0
H166 H 0.72291 0.0766 0.36086 0.0
H167 H 0.68919 0.08184 0.46259 0.0
H168 H 0.65039 0.12499 0.4468 0.0
H169 H 0.6189 0.19511 0.32467 0.0
H170 H 0.59221 0.11126 0.38456 0.0
O171 O 0.66977 0.18649 0.36359 0.0
H172 H 0.57724 0.18033 0.28388 0.0
H173 H 0.54877 0.097 0.34453 0.0
C174 C 0.63044 0.18515 0.42032 0.0
C175 C 0.65362 0.20478 0.43693 0.0
C176 C 0.6434 0.22646 0.46151 0.0
C177 C 0.60986 0.22853 0.47004 0.0
C178 C 0.58713 0.20679 0.45535 0.0
C179 C 0.59738 0.18519 0.43058 0.0
C180 C 0.66504 0.12596 0.395 0.0
C181 C 0.68452 0.11102 0.37071 0.0
C182 C 0.70657 0.08639 0.37963 0.0
C183 C 0.70918 0.07616 0.41295 0.0
C184 C 0.6875 0.08915 0.43669 0.0
C185 C 0.66555 0.11402 0.42775 0.0
C186 C 0.60918 0.15372 0.35705 0.0
C187 C 0.60361 0.17373 0.32929 0.0
C188 C 0.57927 0.16548 0.30616 0.0
C189 C 0.55959 0.13727 0.31067 0.0
C190 C 0.56386 0.11851 0.33988 0.0
C191 C 0.58861 0.12661 0.36282 0.0
P192 P 0.43842 0.60733 0.10143 0.0
H193 H 0.41385 0.54038 0.10028 0.0
H194 H 0.35848 0.51664 0.09576 0.0
H195 H 0.31692 0.61392 0.09708 0.0
H196 H 0.37219 0.63719 0.10321 0.0
H197 H 0.46898 0.66565 0.13183 0.0
H198 H 0.4742 0.7223 0.11307 0.0
H199 H 0.41652 0.69961 0.02548 0.0
H200 H 0.4114 0.64262 0.04442 0.0
H201 H 0.50579 0.59117 0.12105 0.0
H202 H 0.41312 0.6098 0.16983 0.0
O203 O 0.46005 0.5871 0.07291 0.0
H204 H 0.53138 0.57898 0.17481 0.0
H205 H 0.43845 0.5972 0.22383 0.0
C206 C 0.39717 0.59053 0.10115 0.0
C207 C 0.39273 0.55652 0.09988 0.0
C208 C 0.36105 0.54301 0.09713 0.0
C209 C 0.33314 0.56332 0.09553 0.0
C210 C 0.33771 0.59743 0.09843 0.0
C211 C 0.36944 0.61088 0.1015 0.0
C212 C 0.43946 0.64995 0.0897 0.0
C213 C 0.45712 0.67278 0.10879 0.0
C214 C 0.46029 0.70518 0.09791 0.0
C215 C 0.44588 0.71534 0.06772 0.0
C216 C 0.42764 0.69255 0.04896 0.0
C217 C 0.42473 0.66003 0.05975 0.0
C218 C 0.45736 0.60046 0.14144 0.0
C219 C 0.49094 0.59261 0.14337 0.0
C220 C 0.50555 0.5857 0.17412 0.0
C221 C 0.48688 0.58681 0.20356 0.0
C222 C 0.45357 0.59632 0.20165 0.0
C223 C 0.43896 0.60317 0.17079 0.0
P224 P 0.16549 0.37636 0.68013 0.0
H225 H 0.18903 0.31134 0.66276 0.0
H226 H 0.16907 0.26947 0.62476 0.0
H227 H 0.08957 0.33311 0.59413 0.0
H228 H 0.10918 0.37457 0.63322 0.0
H229 H 0.20673 0.4292 0.70522 0.0
H230 H 0.24259 0.46962 0.67786 0.0
H231 H 0.21025 0.43412 0.58191 0.0
H232 H 0.17444 0.39417 0.60929 0.0
H233 H 0.1476 0.36879 0.75015 0.0
H234 H 0.1124 0.42287 0.66494 0.0
O235 O 0.1921 0.3581 0.70591 0.0
H236 H 0.10851 0.39673 0.78547 0.0
H237 H 0.07079 0.44892 0.69953 0.0
C238 C 0.1502 0.34587 0.65149 0.0
C239 C 0.16718 0.3163 0.64806 0.0
C240 C 0.15595 0.29245 0.62588 0.0
C241 C 0.12769 0.29784 0.60622 0.0
C242 C 0.11112 0.3279 0.6092 0.0
C243 C 0.12231 0.35169 0.63163 0.0
C244 C 0.18817 0.40849 0.65934 0.0
C245 C 0.20709 0.43046 0.67828 0.0
C246 C 0.22762 0.45345 0.66264 0.0
C247 C 0.22938 0.45501 0.62772 0.0
C248 C 0.20921 0.43385 0.60885 0.0
C249 C 0.18881 0.41077 0.62453 0.0
C250 C 0.13304 0.39379 0.70489 0.0
C251 C 0.13083 0.38613 0.73883 0.0
C252 C 0.10795 0.40193 0.75904 0.0
C253 C 0.08619 0.42535 0.74562 0.0
C254 C 0.08744 0.43161 0.71108 0.0
C255 C 0.11096 0.41634 0.69104 0.0
Zn256 Zn 0.95749 0.06753 0.56119 0.0
Zn257 Zn 0.03703 0.98649 0.48866 0.0
Zn258 Zn 0.99656 0.02796 0.52535 0.0
C259 C 0.05107 0.05378 0.473 0.0
C260 C 0.97046 0.97568 0.47001 0.0
O261 O 0.99978 0.01209 0.57806 0.0
O262 O 0.96547 0.04502 0.60438 0.0
C263 C 0.0074 0.10674 0.53367 0.0
O264 O 0.02927 0.05908 0.49562 0.0
O265 O 0.05913 0.02485 0.46547 0.0
O266 O 0.9989 0.96355 0.46663 0.0
O267 O 0.9658 1.00011 0.48967 0.0
O268 O 0.98226 0.10864 0.55211 0.0
O269 O 0.01533 0.07906 0.52067 0.0
O270 O 0.94523 0.0212 0.50821 0.0
O271 O 0.91618 0.05742 0.53665 0.0
C272 C 0.91763 0.03502 0.51518 0.0
O273 O 0.02489 0.99672 0.55972 0.0
O274 O 0.05792 0.96631 0.52877 0.0
C275 C 0.98532 0.02128 0.60498 0.0
C276 C 0.04789 0.97523 0.55706 0.0
Zn277 Zn 0.48508 0.05587 0.98211 0.0
Zn278 Zn 0.56184 0.98571 0.06753 0.0
Zn279 Zn 0.52472 0.01906 0.02473 0.0
C280 C 0.60459 0.01508 0.02158 0.0
C281 C 0.52007 0.94047 0.03633 0.0
O282 O 0.4905 0.04928 0.05393 0.0
O283 O 0.45892 0.0768 0.01848 0.0
C284 C 0.55272 0.07279 0.9717 0.0
O285 O 0.57714 0.02676 0.0105 0.0
O286 O 0.60477 0.9965 0.04678 0.0
O287 O 0.54203 0.94223 0.05862 0.0
O288 O 0.51123 0.96641 0.0203 0.0
O289 O 0.52376 0.07988 0.96237 0.0
O290 O 0.55745 0.0501 0.99362 0.0
O291 O 0.49641 0.98448 0.99431 0.0
O292 O 0.46707 0.01554 0.95994 0.0
C293 C 0.47588 0.98751 0.96997 0.0
O294 O 0.51482 0.0369 0.07569 0.0
O295 O 0.54859 0.00899 0.10836 0.0
C296 C 0.46648 0.06907 0.04801 0.0
C297 C 0.52688 0.03076 0.10476 0.0
Zn298 Zn 0.5446 0.55719 0.54761 0.0
Zn299 Zn 0.46858 0.47274 0.47561 0.0
Zn300 Zn 0.50753 0.51362 0.50963 0.0
C301 C 0.5109 0.43493 0.51484 0.0
C302 C 0.50465 0.50952 0.42936 0.0
O303 O 0.47445 0.54291 0.54116 0.0
O304 O 0.50581 0.5792 0.56766 0.0
C305 C 0.5635 0.49234 0.56358 0.0
O306 O 0.52352 0.46333 0.52082 0.0
O307 O 0.48509 0.4321 0.49738 0.0
O308 O 0.48602 0.48468 0.43105 0.0
O309 O 0.51435 0.52425 0.45599 0.0
O310 O 0.56766 0.52153 0.57316 0.0
O311 O 0.54308 0.48558 0.53986 0.0
O312 O 0.53559 0.54483 0.47476 0.0
O313 O 0.56561 0.57744 0.50706 0.0
C314 C 0.55729 0.5678 0.47832 0.0
O315 O 0.45491 0.51999 0.52431 0.0
O316 O 0.42518 0.4903 0.48913 0.0
C317 C 0.47771 0.56723 0.56123 0.0
C318 C 0.4267 0.51009 0.51311 0.0
Zn319 Zn 0.06083 0.57867 0.99281 0.0
Zn320 Zn 0.99197 0.48707 0.05658 0.0
Zn321 Zn 0.02458 0.53377 0.02326 0.0
C322 C 0.05791 0.47642 0.06962 0.0
C323 C 0.97474 0.4808 0.98924 0.0
O324 O 0.00374 0.5831 0.03477 0.0
O325 O 0.03685 0.6174 0.00769 0.0
C326 C 0.1048 0.54434 0.03064 0.0
O327 O 0.06009 0.50257 0.05154 0.0
O328 O 0.03019 0.46333 0.07534 0.0
O329 O 0.96791 0.46868 0.01742 0.0
O330 O 0.9959 0.50443 0.98678 0.0
O331 O 0.10441 0.56964 0.0126 0.0
O332 O 0.07801 0.52793 0.03623 0.0
O333 O 0.01813 0.52492 0.96955 0.0
O334 O 0.05085 0.56261 0.94716 0.0
C335 C 0.03113 0.53875 0.94381 0.0
O336 O 0.99185 0.55986 0.05882 0.0
O337 O 0.97058 0.51826 0.08729 0.0
C338 C 0.01168 0.61243 0.02544 0.0
C339 C 0.97419 0.54874 0.08312 0.0
H340 H 0.19055 0.15073 0.37299 0.0
H341 H 0.11323 0.21596 0.33796 0.0
H342 H 0.07357 0.18804 0.3747 0.0
H343 H 0.14012 0.07933 0.37084 0.0
H344 H 0.15908 0.0608 0.40686 0.0
H345 H 0.18252 0.08858 0.3811 0.0
H346 H 0.19553 0.12444 0.43271 0.0
H347 H 0.172 0.09676 0.45858 0.0
H348 H 0.16202 0.1397 0.4576 0.0
H349 H 0.04172 0.15247 0.41512 0.0
H350 H 0.01905 0.10791 0.45044 0.0
H351 H 0.11518 0.06187 0.45304 0.0
C352 C 0.16532 0.15922 0.37257 0.0
C353 C 0.15554 0.18614 0.35248 0.0
C354 C 0.12204 0.19625 0.35361 0.0
C355 C 0.09908 0.18034 0.37433 0.0
C356 C 0.10966 0.15391 0.39348 0.0
C357 C 0.14187 0.14311 0.39239 0.0
C358 C 0.14633 0.11246 0.41328 0.0
C359 C 0.15767 0.08359 0.39173 0.0
C360 C 0.1704 0.11873 0.44226 0.0
C361 C 0.11143 0.10735 0.42579 0.0
C362 C 0.09083 0.13203 0.41482 0.0
C363 C 0.05758 0.13294 0.42369 0.0
C364 C 0.04495 0.10762 0.44377 0.0
C365 C 0.06537 0.08148 0.45414 0.0
C366 C 0.09904 0.08149 0.44516 0.0
H367 H 0.35585 0.89683 0.84526 0.0
H368 H 0.43418 0.82702 0.82942 0.0
H369 H 0.46446 0.84936 0.878 0.0
H370 H 0.40603 0.96147 0.8591 0.0
H371 H 0.38127 0.98124 0.89027 0.0
H372 H 0.36197 0.95487 0.86021 0.0
H373 H 0.33669 0.91949 0.90755 0.0
H374 H 0.35561 0.9461 0.93792 0.0
H375 H 0.36325 0.90268 0.9393 0.0
H376 H 0.48984 0.88463 0.92225 0.0
H377 H 0.509 0.9309 0.95702 0.0
H378 H 0.41514 0.97925 0.94205 0.0
C379 C 0.37865 0.88535 0.85307 0.0
C380 C 0.39247 0.85981 0.83431 0.0
C381 C 0.42308 0.84626 0.84403 0.0
C382 C 0.44034 0.85875 0.87156 0.0
C383 C 0.42665 0.88487 0.8889 0.0
C384 C 0.39639 0.89794 0.88009 0.0
C385 C 0.38934 0.92887 0.89937 0.0
C386 C 0.38438 0.95833 0.87583 0.0
C387 C 0.35945 0.92398 0.92241 0.0
C388 C 0.42099 0.93207 0.91918 0.0
C389 C 0.44184 0.90601 0.91354 0.0
C390 C 0.47345 0.90482 0.92736 0.0
C391 C 0.48413 0.93115 0.94704 0.0
C392 C 0.46335 0.95834 0.95242 0.0
C393 C 0.43133 0.95854 0.93858 0.0
H394 H 0.65511 0.39742 0.71142 0.0
H395 H 0.69355 0.33184 0.63628 0.0
H396 H 0.66222 0.36145 0.59302 0.0
H397 H 0.5725 0.40551 0.67492 0.0
H398 H 0.56916 0.44812 0.68585 0.0
H399 H 0.59357 0.42096 0.71125 0.0
H400 H 0.64428 0.45932 0.70394 0.0
H401 H 0.62009 0.4865 0.67843 0.0
H402 H 0.65805 0.46987 0.66259 0.0
H403 H 0.63007 0.40019 0.55762 0.0
H404 H 0.59651 0.44413 0.53217 0.0
H405 H 0.57684 0.48346 0.62995 0.0
C406 C 0.65655 0.38899 0.68595 0.0
C407 C 0.67697 0.36239 0.67724 0.0
C408 C 0.6785 0.35245 0.64351 0.0
C409 C 0.66064 0.36898 0.61877 0.0
C410 C 0.64119 0.39536 0.62812 0.0
C411 C 0.63884 0.40525 0.66087 0.0
C412 C 0.61671 0.43492 0.664 0.0
C413 C 0.58617 0.42688 0.68527 0.0
C414 C 0.63594 0.46439 0.67806 0.0
C415 C 0.60737 0.44036 0.62783 0.0
C416 C 0.62169 0.41716 0.60761 0.0
C417 C 0.61787 0.41784 0.57317 0.0
C418 C 0.59853 0.44258 0.55897 0.0
C419 C 0.5831 0.46613 0.57918 0.0
C420 C 0.58792 0.46526 0.61402 0.0
H421 H 0.87087 0.69888 0.15546 0.0
H422 H 0.87636 0.65006 0.25153 0.0
H423 H 0.9128 0.60828 0.22753 0.0
H424 H 0.86667 0.62815 0.10581 0.0
H425 H 0.89248 0.64394 0.07285 0.0
H426 H 0.86898 0.67163 0.09805 0.0
H427 H 0.92244 0.70318 0.11204 0.0
H428 H 0.94704 0.6749 0.08858 0.0
H429 H 0.95639 0.68214 0.13165 0.0
H430 H 0.94438 0.56944 0.19267 0.0
H431 H 0.97059 0.5363 0.14911 0.0
H432 H 0.94474 0.60917 0.07522 0.0
C433 C 0.8799 0.67949 0.17146 0.0
C434 C 0.8709 0.67787 0.20546 0.0
C435 C 0.88337 0.65218 0.2256 0.0
C436 C 0.90396 0.62823 0.21216 0.0
C437 C 0.91211 0.63037 0.17856 0.0
C438 C 0.90067 0.65539 0.15847 0.0
C439 C 0.9126 0.6514 0.12294 0.0
C440 C 0.88344 0.6486 0.09848 0.0
C441 C 0.93598 0.67962 0.11326 0.0
C442 C 0.93117 0.61938 0.12592 0.0
C443 C 0.93091 0.60801 0.15837 0.0
C444 C 0.9451 0.57829 0.16725 0.0
C445 C 0.95976 0.55958 0.14228 0.0
C446 C 0.96018 0.57053 0.10875 0.0
C447 C 0.94587 0.60092 0.10062 0.0
H448 H 0.36086 0.20094 0.14708 0.0
H449 H 0.33232 0.12285 0.21473 0.0
H450 H 0.36868 0.0845 0.1846 0.0
H451 H 0.36065 0.15219 0.07405 0.0
H452 H 0.39553 0.17267 0.05523 0.0
H453 H 0.36947 0.19443 0.08373 0.0
H454 H 0.42049 0.20866 0.12021 0.0
H455 H 0.44669 0.18694 0.09174 0.0
H456 H 0.44655 0.17615 0.13529 0.0
H457 H 0.40825 0.05488 0.14705 0.0
H458 H 0.44402 0.03479 0.10167 0.0
H459 H 0.44365 0.1313 0.05635 0.0
C460 C 0.36259 0.17582 0.15565 0.0
C461 C 0.34408 0.16474 0.18326 0.0
C462 C 0.34637 0.13165 0.19355 0.0
C463 C 0.36705 0.10982 0.17673 0.0
C464 C 0.38494 0.12146 0.14949 0.0
C465 C 0.38266 0.1536 0.1388 0.0
C466 C 0.40287 0.15939 0.10762 0.0
C467 C 0.3808 0.17031 0.07844 0.0
C468 C 0.43081 0.18426 0.11412 0.0
C469 C 0.41645 0.1254 0.10212 0.0
C470 C 0.40639 0.10403 0.12694 0.0
C471 C 0.41617 0.07136 0.12743 0.0
C472 C 0.43647 0.06019 0.10166 0.0
C473 C 0.44639 0.08154 0.07567 0.0
C474 C 0.43621 0.11451 0.07593 0.0
H475 H 0.17016 0.85502 0.64696 0.0
H476 H 0.19958 0.93844 0.7073 0.0
H477 H 0.15025 0.96791 0.68879 0.0
H478 H 0.15247 0.90094 0.57876 0.0
H479 H 0.11831 0.87631 0.5642 0.0
H480 H 0.15013 0.85799 0.58913 0.0
H481 H 0.1062 0.83789 0.63157 0.0
H482 H 0.07413 0.85621 0.60661 0.0
H483 H 0.07834 0.86695 0.64989 0.0
H484 H 0.1029 0.99204 0.65731 0.0
H485 H 0.06533 0.00989 0.61224 0.0
H486 H 0.07075 0.91357 0.56788 0.0
C487 C 0.16621 0.8793 0.65677 0.0
C488 C 0.1891 0.89404 0.67889 0.0
C489 C 0.18232 0.92587 0.69113 0.0
C490 C 0.15426 0.94304 0.68061 0.0
C491 C 0.13315 0.92829 0.65764 0.0
C492 C 0.13889 0.89713 0.64578 0.0
C493 C 0.11588 0.88882 0.61723 0.0
C494 C 0.13537 0.88056 0.58547 0.0
C495 C 0.09223 0.86081 0.62692 0.0
C496 C 0.09759 0.92083 0.61367 0.0
C497 C 0.10697 0.94287 0.63801 0.0
C498 C 0.09498 0.97481 0.63847 0.0
C499 C 0.07366 0.98474 0.61284 0.0
C500 C 0.0651 0.96296 0.58688 0.0
C501 C 0.0767 0.93049 0.58773 0.0
H502 H 0.8683 0.34913 0.8905 0.0
H503 H 0.84919 0.42359 0.81566 0.0
H504 H 0.88681 0.46169 0.84512 0.0
H505 H 0.86961 0.40113 0.95945 0.0
H506 H 0.90237 0.37998 0.98085 0.0
H507 H 0.87597 0.35805 0.95247 0.0
H508 H 0.9272 0.33934 0.91916 0.0
H509 H 0.95386 0.36133 0.94738 0.0
H510 H 0.9558 0.36957 0.90332 0.0
H511 H 0.92464 0.49262 0.88481 0.0
H512 H 0.95728 0.51396 0.93231 0.0
H513 H 0.952 0.41865 0.97999 0.0
C514 C 0.87245 0.37323 0.87992 0.0
C515 C 0.85581 0.38332 0.8507 0.0
C516 C 0.8614 0.41539 0.83818 0.0
C517 C 0.88295 0.43711 0.85458 0.0
C518 C 0.89881 0.42638 0.88342 0.0
C519 C 0.89381 0.39516 0.89593 0.0
C520 C 0.91245 0.39004 0.92819 0.0
C521 C 0.88868 0.38183 0.95693 0.0
C522 C 0.9389 0.3635 0.92426 0.0
C523 C 0.92801 0.42353 0.93242 0.0
C524 C 0.9203 0.44408 0.90616 0.0
C525 C 0.9311 0.4766 0.90531 0.0
C526 C 0.94981 0.48847 0.93226 0.0
C527 C 0.95756 0.46783 0.95953 0.0
C528 C 0.94664 0.43493 0.95934 0.0
H529 H 0.66078 0.70473 0.3824 0.0
H530 H 0.67694 0.63365 0.30418 0.0
H531 H 0.63986 0.59458 0.33295 0.0
H532 H 0.66098 0.64973 0.44908 0.0
H533 H 0.62889 0.66974 0.47225 0.0
H534 H 0.65437 0.6931 0.44411 0.0
H535 H 0.60216 0.71328 0.41286 0.0
H536 H 0.57648 0.69005 0.44107 0.0
H537 H 0.57297 0.68375 0.39681 0.0
H538 H 0.60507 0.56149 0.37284 0.0
H539 H 0.57531 0.5374 0.42078 0.0
H540 H 0.57914 0.63084 0.47126 0.0
C541 C 0.65602 0.68121 0.37094 0.0
C542 C 0.67188 0.67226 0.34105 0.0
C543 C 0.66545 0.64093 0.32729 0.0
C544 C 0.64419 0.61866 0.34329 0.0
C545 C 0.62933 0.62812 0.37294 0.0
C546 C 0.63482 0.65872 0.38655 0.0
C547 C 0.61717 0.66224 0.41952 0.0
C548 C 0.64183 0.66909 0.4479 0.0
C549 C 0.59062 0.68891 0.41742 0.0
C550 C 0.60171 0.62853 0.42283 0.0
C551 C 0.60868 0.60931 0.39553 0.0
C552 C 0.59874 0.57659 0.39393 0.0
C553 C 0.58139 0.56321 0.42101 0.0
C554 C 0.5737 0.58257 0.44901 0.0
C555 C 0.5841 0.61563 0.44983 0.0
H556 H 0.15482 0.37237 0.20473 0.0
H557 H 0.22358 0.34594 0.12689 0.0
H558 H 0.19623 0.38475 0.08838 0.0
H559 H 0.08486 0.37644 0.1538 0.0
H560 H 0.06652 0.41059 0.175 0.0
H561 H 0.09373 0.38352 0.1972 0.0
H562 H 0.13065 0.43294 0.21388 0.0
H563 H 0.10349 0.46019 0.19163 0.0
H564 H 0.14693 0.45963 0.18194 0.0
H565 H 0.15868 0.42356 0.05722 0.0
H566 H 0.1121 0.4566 0.03554 0.0
H567 H 0.06836 0.45766 0.13365 0.0
C568 C 0.16453 0.37526 0.17978 0.0
C569 C 0.19143 0.35631 0.16882 0.0
C570 C 0.2029 0.36015 0.13573 0.0
C571 C 0.1877 0.3823 0.11379 0.0
C572 C 0.16103 0.40042 0.12531 0.0
C573 C 0.1495 0.39705 0.15753 0.0
C574 C 0.11892 0.41743 0.16306 0.0
C575 C 0.08926 0.39569 0.17282 0.0
C576 C 0.1254 0.44414 0.18918 0.0
C577 C 0.11452 0.43216 0.12871 0.0
C578 C 0.13937 0.42255 0.10739 0.0
C579 C 0.13951 0.43177 0.07389 0.0
C580 C 0.11329 0.45085 0.06183 0.0
C581 C 0.08755 0.46053 0.08322 0.0
C582 C 0.08828 0.45115 0.11704 0.0
H583 H 0.64149 0.19253 0.84225 0.0
H584 H 0.72329 0.20017 0.91187 0.0
H585 H 0.69506 0.16126 0.94968 0.0
H586 H 0.57727 0.1879 0.90247 0.0
H587 H 0.55285 0.15876 0.87932 0.0
H588 H 0.57981 0.18682 0.85769 0.0
H589 H 0.60881 0.13802 0.82915 0.0
H590 H 0.58196 0.10979 0.85077 0.0
H591 H 0.62612 0.1058 0.85442 0.0
H592 H 0.657 0.12211 0.98057 0.0
H593 H 0.61168 0.08725 0.00225 0.0
H594 H 0.55616 0.10368 0.91133 0.0
C595 C 0.65368 0.18582 0.86528 0.0
C596 C 0.68465 0.19953 0.87404 0.0
C597 C 0.69938 0.19042 0.90476 0.0
C598 C 0.68366 0.1681 0.9263 0.0
C599 C 0.65322 0.155 0.91679 0.0
C600 C 0.63839 0.16357 0.88701 0.0
C601 C 0.60534 0.14649 0.88285 0.0
C602 C 0.57716 0.17149 0.88046 0.0
C603 C 0.60559 0.12367 0.85249 0.0
C604 C 0.60374 0.12718 0.91506 0.0
C605 C 0.63164 0.13225 0.93427 0.0
C606 C 0.63524 0.11767 0.96553 0.0
C607 C 0.60952 0.09764 0.97752 0.0
C608 C 0.58078 0.09206 0.95815 0.0
C609 C 0.57801 0.10713 0.92655 0.0
H610 H 0.86802 0.83362 0.38068 0.0
H611 H 0.80443 0.90903 0.33994 0.0
H612 H 0.83531 0.95099 0.37165 0.0
H613 H 0.87751 0.86991 0.46379 0.0
H614 H 0.92008 0.85768 0.4673 0.0
H615 H 0.89152 0.83345 0.44314 0.0
H616 H 0.93 0.83879 0.39191 0.0
H617 H 0.95854 0.86317 0.41582 0.0
H618 H 0.94199 0.87894 0.37731 0.0
H619 H 0.87573 0.9851 0.4045 0.0
H620 H 0.92228 0.00855 0.43688 0.0
H621 H 0.95793 0.91099 0.45802 0.0
C622 C 0.86016 0.85887 0.37893 0.0
C623 C 0.83378 0.86803 0.35782 0.0
C624 C 0.82475 0.90147 0.3557 0.0
C625 C 0.84202 0.92545 0.37375 0.0
C626 C 0.86821 0.91562 0.39392 0.0
C627 C 0.87715 0.88312 0.39674 0.0
C628 C 0.90711 0.87919 0.41903 0.0
C629 C 0.89853 0.85886 0.45017 0.0
C630 C 0.93612 0.86414 0.39986 0.0
C631 C 0.91398 0.91461 0.42783 0.0
C632 C 0.89112 0.93524 0.4133 0.0
C633 C 0.89329 0.96915 0.41663 0.0
C634 C 0.91942 0.98227 0.43543 0.0
C635 C 0.94267 0.96156 0.45098 0.0
C636 C 0.94005 0.92733 0.44684 0.0
H637 H 0.37715 0.7263 0.59593 0.0
H638 H 0.34393 0.68061 0.68769 0.0
H639 H 0.36485 0.62732 0.6681 0.0
H640 H 0.36415 0.65404 0.53995 0.0
H641 H 0.40126 0.66346 0.51704 0.0
H642 H 0.37746 0.696 0.53513 0.0
H643 H 0.42952 0.71653 0.56671 0.0
H644 H 0.45334 0.68416 0.5488 0.0
H645 H 0.45158 0.68855 0.5934 0.0
H646 H 0.39791 0.58157 0.64278 0.0
H647 H 0.43993 0.54796 0.61402 0.0
H648 H 0.45246 0.62432 0.54009 0.0
C649 C 0.37369 0.70496 0.61167 0.0
C650 C 0.35893 0.70762 0.64334 0.0
C651 C 0.35476 0.67909 0.66312 0.0
C652 C 0.36661 0.64872 0.6522 0.0
C653 C 0.38222 0.64726 0.62132 0.0
C654 C 0.3855 0.67467 0.60124 0.0
C655 C 0.40656 0.66782 0.57107 0.0
C656 C 0.38613 0.67048 0.53889 0.0
C657 C 0.43704 0.6906 0.56997 0.0
C658 C 0.41608 0.63276 0.57809 0.0
C659 C 0.40124 0.62096 0.60677 0.0
C660 C 0.40887 0.59016 0.6198 0.0
C661 C 0.43269 0.57128 0.60342 0.0
C662 C 0.4486 0.58356 0.57468 0.0
C663 C 0.4398 0.61427 0.5616 0.0
H664 H 0.97023 0.00382 0.80039 0.0
H665 H 0.98975 0.9 0.79014 0.0
H666 H 1.00048 0.90825 0.73006 0.0
H667 H 0.92757 0.01401 0.72633 0.0
H668 H 0.94412 0.05413 0.71722 0.0
H669 H 0.9411 0.04035 0.75967 0.0
H670 H 0.00375 0.0511 0.76808 0.0
H671 H 0.00694 0.06506 0.72559 0.0
H672 H 0.03298 0.03242 0.74034 0.0
H673 H 0.00451 0.9277 0.66977 0.0
H674 H 1.00046 0.95643 0.61548 0.0
H675 H 0.98063 0.04736 0.66677 0.0
C676 C 0.97761 0.98289 0.78581 0.0
C677 C 0.9793 0.95128 0.80011 0.0
C678 C 0.98805 0.92443 0.77973 0.0
C679 C 0.99446 0.92892 0.74563 0.0
C680 C 0.99223 0.96043 0.73233 0.0
C681 C 0.98417 0.98694 0.75193 0.0
C682 C 0.98142 0.01798 0.73152 0.0
C683 C 0.94648 0.03244 0.73382 0.0
C684 C 0.00785 0.04312 0.74201 0.0
C685 C 0.98827 0.00471 0.69719 0.0
C686 C 0.99484 0.97155 0.69805 0.0
C687 C 0.99999 0.95378 0.66892 0.0
C688 C 0.9979 0.97031 0.63821 0.0
C689 C 0.99092 0.00421 0.63698 0.0
C690 C 0.98639 0.02149 0.66695 0.0
H691 H 0.54958 0.07395 0.2912 0.0
H692 H 0.52266 0.17378 0.26627 0.0
H693 H 0.50069 0.15486 0.21237 0.0
H694 H 0.58019 0.05291 0.22002 0.0
H695 H 0.56485 0.01143 0.21796 0.0
H696 H 0.57016 0.0307 0.25761 0.0
H697 H 0.50879 0.01981 0.27219 0.0
H698 H 0.5033 0.99971 0.23265 0.0
H699 H 0.47684 0.03316 0.24401 0.0
H700 H 0.49685 0.12809 0.15676 0.0
H701 H 0.50612 0.09456 0.10673 0.0
H702 H 0.52924 0.0111 0.16921 0.0
C703 C 0.53745 0.09168 0.27534 0.0
C704 C 0.53823 0.12541 0.28296 0.0
C705 C 0.52296 0.14785 0.2608 0.0
C706 C 0.51007 0.13729 0.23022 0.0
C707 C 0.5117 0.10409 0.22258 0.0
C708 C 0.52411 0.08145 0.24499 0.0
C709 C 0.52696 0.04793 0.22943 0.0
C710 C 0.56265 0.03505 0.23136 0.0
C711 C 0.5025 0.02373 0.24553 0.0
C712 C 0.51698 0.05585 0.19405 0.0
C713 C 0.50762 0.0882 0.19061 0.0
C714 C 0.50256 0.10235 0.15934 0.0
C715 C 0.50763 0.08307 0.13099 0.0
C716 C 0.51702 0.04989 0.13414 0.0
C717 C 0.52107 0.03613 0.16612 0.0
H718 H 0.48032 0.61394 0.26604 0.0
H719 H 0.52468 0.53271 0.21356 0.0
H720 H 0.54298 0.50913 0.26688 0.0
H721 H 0.54432 0.61634 0.33636 0.0
H722 H 0.51321 0.62644 0.36653 0.0
H723 H 0.50929 0.64067 0.32414 0.0
H724 H 0.4513 0.61347 0.32026 0.0
H725 H 0.45512 0.59921 0.36245 0.0
H726 H 0.44691 0.57041 0.32952 0.0
H727 H 0.54664 0.48882 0.32452 0.0
H728 H 0.53715 0.47422 0.38347 0.0
H729 H 0.49309 0.56901 0.40039 0.0
C730 C 0.4946 0.59162 0.26581 0.0
C731 C 0.50127 0.57529 0.23558 0.0
C732 C 0.5198 0.546 0.23628 0.0
C733 C 0.53032 0.53238 0.26649 0.0
C734 C 0.52266 0.5486 0.29587 0.0
C735 C 0.50569 0.57787 0.29586 0.0
C736 C 0.49801 0.58859 0.33114 0.0
C737 C 0.51736 0.61987 0.34005 0.0
C738 C 0.46062 0.59316 0.33612 0.0
C739 C 0.51087 0.55948 0.35068 0.0
C740 C 0.5257 0.53708 0.32983 0.0
C741 C 0.53605 0.50656 0.34126 0.0
C742 C 0.53047 0.49841 0.37466 0.0
C743 C 0.51504 0.5208 0.39625 0.0
C744 C 0.50585 0.55199 0.3844 0.0
H745 H 0.05689 0.40702 0.80529 0.0
H746 H 0.0688 0.48992 0.73806 0.0
H747 H 0.04243 0.52541 0.77886 0.0
H748 H 0.97884 0.43741 0.8497 0.0
H749 H 0.99404 0.42253 0.8891 0.0
H750 H 0.00387 0.40108 0.85128 0.0
H751 H 0.06627 0.40612 0.86538 0.0
H752 H 0.05645 0.42752 0.90297 0.0
H753 H 0.08389 0.44608 0.87295 0.0
H754 H 0.02712 0.55437 0.82962 0.0
H755 H 0.02533 0.57458 0.88728 0.0
H756 H 0.02617 0.47475 0.92417 0.0
C757 C 0.05331 0.43247 0.79874 0.0
C758 C 0.06494 0.44534 0.76805 0.0
C759 C 0.05951 0.47889 0.76074 0.0
C760 C 0.04453 0.49947 0.78395 0.0
C761 C 0.03493 0.48633 0.81449 0.0
C762 C 0.03884 0.45351 0.82194 0.0
C763 C 0.0316 0.44673 0.85843 0.0
C764 C 1.00022 0.42569 0.86233 0.0
C765 C 0.06133 0.4307 0.87594 0.0
C766 C 0.02585 0.48124 0.87079 0.0
C767 C 0.02661 0.50351 0.84474 0.0
C768 C 0.02557 0.53715 0.85012 0.0
C769 C 0.02473 0.54842 0.88293 0.0
C770 C 0.02514 0.52616 0.90999 0.0
C771 C 0.02479 0.49216 0.90382 0.0
H772 H 0.79696 0.99443 0.00683 0.0
H773 H 0.78562 0.99778 0.89948 0.0
H774 H 0.72727 0.01411 0.90624 0.0
H775 H 0.72199 0.95867 0.024 0.0
H776 H 0.7145 0.98106 0.06178 0.0
H777 H 0.75613 0.97422 0.04824 0.0
H778 H 0.76759 0.03677 0.04926 0.0
H779 H 0.72584 0.04381 0.06284 0.0
H780 H 0.74122 0.06394 0.02593 0.0
H781 H 0.66839 0.02437 0.92521 0.0
H782 H 0.61465 0.0248 0.95459 0.0
H783 H 0.66579 0.01586 0.04907 0.0
C784 C 0.78256 0.99956 0.98469 0.0
C785 C 0.79595 0.99506 0.95263 0.0
C786 C 0.77585 0.00095 0.92432 0.0
C787 C 0.74277 0.01052 0.92791 0.0
C788 C 0.73024 0.0143 0.95997 0.0
C789 C 0.74965 0.00908 0.98784 0.0
C790 C 0.72979 0.01176 0.01951 0.0
C791 C 0.73065 0.97951 0.03953 0.0
C792 C 0.74183 0.0408 0.04062 0.0
C793 C 0.69588 0.0181 0.00516 0.0
C794 C 0.69659 0.02011 0.97081 0.0
C795 C 0.66767 0.02345 0.95213 0.0
C796 C 0.63727 0.02384 0.96899 0.0
C797 C 0.63616 0.02083 0.00409 0.0
C798 C 0.66594 0.01866 0.02224 0.0
H799 H 0.77303 0.08924 0.3991 0.0
H800 H 0.71026 0.02163 0.45355 0.0
H801 H 0.7599 0.99592 0.47848 0.0
H802 H 0.84553 0.03417 0.38703 0.0
H803 H 0.87466 0.06687 0.39469 0.0
H804 H 0.83548 0.07549 0.37518 0.0
H805 H 0.82157 0.11803 0.42017 0.0
H806 H 0.86078 0.11084 0.43966 0.0
H807 H 0.82332 0.10637 0.46348 0.0
H808 H 0.81575 0.98339 0.50346 0.0
H809 H 0.87139 0.98824 0.52919 0.0
H810 H 0.89592 0.06669 0.46077 0.0
C811 C 0.76982 0.06805 0.41511 0.0
C812 C 0.73801 0.05681 0.42385 0.0
C813 C 0.73457 0.03016 0.44621 0.0
C814 C 0.7626 0.01537 0.4603 0.0
C815 C 0.79372 0.02772 0.45185 0.0
C816 C 0.79737 0.05358 0.42976 0.0
C817 C 0.83257 0.06605 0.42878 0.0
C818 C 0.84798 0.06028 0.39439 0.0
C819 C 0.83465 0.10245 0.43863 0.0
C820 C 0.84797 0.04425 0.45489 0.0
C821 C 0.82555 0.02156 0.46722 0.0
C822 C 0.83366 1.00056 0.49349 0.0
C823 C 0.86517 0.00344 0.50795 0.0
C824 C 0.8877 0.02736 0.49628 0.0
C825 C 0.87915 0.04768 0.46934 0.0
H826 H 0.273 0.58295 0.1205 0.0
H827 H 0.31748 0.51273 0.05355 0.0
H828 H 0.2622 0.49326 0.03716 0.0
H829 H 0.19866 0.53217 0.14335 0.0
H830 H 0.17229 0.56755 0.14332 0.0
H831 H 0.21519 0.57166 0.15479 0.0
H832 H 0.22299 0.61644 0.10946 0.0
H833 H 0.18025 0.61249 0.09799 0.0
H834 H 0.21188 0.60741 0.06697 0.0
H835 H 0.20311 0.4879 0.02072 0.0
H836 H 0.14471 0.49767 0.00562 0.0
H837 H 0.13782 0.57075 0.08286 0.0
C838 C 0.27117 0.5631 0.10281 0.0
C839 C 0.29977 0.54925 0.08859 0.0
C840 C 0.29612 0.52331 0.06546 0.0
C841 C 0.26474 0.51209 0.05588 0.0
C842 C 0.23711 0.52683 0.06977 0.0
C843 C 0.23999 0.55165 0.0929 0.0
C844 C 0.20654 0.56578 0.10133 0.0
C845 C 0.19765 0.55887 0.13788 0.0
C846 C 0.20536 0.6027 0.09344 0.0
C847 C 0.18463 0.54625 0.07801 0.0
C848 C 0.20265 0.52339 0.06052 0.0
C849 C 0.18852 0.5049 0.03501 0.0
C850 C 0.15535 0.51039 0.02673 0.0
C851 C 0.13668 0.53378 0.04418 0.0
C852 C 0.15137 0.55166 0.07029 0.0
H853 H 0.29404 0.46464 0.64507 0.0
H854 H 0.22077 0.49257 0.57156 0.0
H855 H 0.26402 0.52093 0.53897 0.0
H856 H 0.34849 0.54077 0.63601 0.0
H857 H 0.38529 0.51666 0.64139 0.0
H858 H 0.34772 0.50501 0.66246 0.0
H859 H 0.35085 0.4473 0.63612 0.0
H860 H 0.38823 0.45877 0.61508 0.0
H861 H 0.35345 0.44365 0.59148 0.0
H862 H 0.31561 0.53557 0.50918 0.0
H863 H 0.37152 0.53515 0.48466 0.0
H864 H 0.41178 0.50044 0.57809 0.0
C865 C 0.28686 0.47793 0.62285 0.0
C866 C 0.254 0.47657 0.61095 0.0
C867 C 0.2458 0.49322 0.5811 0.0
C868 C 0.27016 0.50966 0.56259 0.0
C869 C 0.30256 0.5096 0.57445 0.0
C870 C 0.3109 0.49444 0.60411 0.0
C871 C 0.34801 0.49413 0.60917 0.0
C872 C 0.35796 0.51543 0.63903 0.0
C873 C 0.36086 0.45888 0.61316 0.0
C874 C 0.35935 0.50952 0.57674 0.0
C875 C 0.33271 0.51895 0.55737 0.0
C876 C 0.33669 0.52939 0.52451 0.0
C877 C 0.36847 0.52909 0.51076 0.0
C878 C 0.3958 0.51872 0.52993 0.0
C879 C 0.39135 0.50988 0.56356 0.0
H880 H 0.9859 0.8018 0.01839 0.0
H881 H 0.88909 0.78233 0.97628 0.0
H882 H 0.89411 0.72398 0.99213 0.0
H883 H 0.02373 0.7335 0.98854 0.0
H884 H 0.04944 0.72621 0.02448 0.0
H885 H 0.03558 0.76694 0.01529 0.0
H886 H 0.00993 0.77084 0.07423 0.0
H887 H 0.02357 0.72986 0.08357 0.0
H888 H 0.98058 0.74019 0.08774 0.0
H889 H 0.91358 0.66662 0.00438 0.0
H890 H 0.94603 0.61584 0.01135 0.0
H891 H 0.02949 0.67295 0.04617 0.0
C892 C 0.96551 0.78536 0.013 0.0
C893 C 0.93712 0.79658 0.99609 0.0
C894 C 0.91092 0.77434 0.98957 0.0
C895 C 0.91356 0.74116 0.99849 0.0
C896 C 0.94234 0.73072 0.01435 0.0
C897 C 0.96771 0.7523 0.02185 0.0
C898 C 0.99727 0.73463 0.03616 0.0
C899 C 0.02831 0.74067 0.01483 0.0
C900 C 0.00317 0.74447 0.07259 0.0
C901 C 0.98537 0.69954 0.03379 0.0
C902 C 0.95336 0.69774 0.02179 0.0
C903 C 0.93829 0.66775 0.01464 0.0
C904 C 0.95674 0.63902 0.01894 0.0
C905 C 0.98972 0.64053 0.03055 0.0
C906 C 0.00385 0.67113 0.03861 0.0
H907 H 0.50363 0.75002 0.06633 0.0
H908 H 0.39963 0.75738 0.04172 0.0
H909 H 0.4082 0.81517 0.02446 0.0
H910 H 0.51221 0.8269 0.10228 0.0
H911 H 0.55322 0.83446 0.08653 0.0
H912 H 0.53918 0.79313 0.09329 0.0
H913 H 0.55234 0.77917 0.03181 0.0
H914 H 0.56633 0.82062 0.02484 0.0
H915 H 0.53438 0.80335 0.99885 0.0
H916 H 0.42757 0.87421 0.01602 0.0
H917 H 0.45583 0.92818 0.01738 0.0
H918 H 0.54714 0.88059 0.04553 0.0
C919 C 0.48268 0.76372 0.0571 0.0
C920 C 0.45095 0.74934 0.05549 0.0
C921 C 0.42421 0.76793 0.04294 0.0
C922 C 0.42885 0.80072 0.0331 0.0
C923 C 0.46047 0.81432 0.03551 0.0
C924 C 0.48694 0.79622 0.04698 0.0
C925 C 0.51805 0.81673 0.049 0.0
C926 C 0.53143 0.81787 0.0849 0.0
C927 C 0.54432 0.80422 0.02467 0.0
C928 C 0.5048 0.84956 0.03804 0.0
C929 C 0.47164 0.84777 0.02995 0.0
C930 C 0.4537 0.87572 0.02157 0.0
C931 C 0.46998 0.90625 0.02212 0.0
C932 C 0.50383 0.90845 0.03073 0.0
C933 C 0.52137 0.8796 0.03826 0.0
H934 H 0.06301 0.28061 0.5949 0.0
H935 H 0.16323 0.2547 0.56811 0.0
H936 H 0.14209 0.20623 0.53824 0.0
H937 H 0.03532 0.20439 0.61266 0.0
H938 H 0.99439 0.20897 0.5956 0.0
H939 H 0.01676 0.24434 0.60988 0.0
H940 H 0.0099 0.27183 0.55202 0.0
H941 H 0.98729 0.23645 0.53753 0.0
H942 H 0.02327 0.25058 0.51524 0.0
H943 H 0.11117 0.1557 0.52077 0.0
H944 H 0.07299 0.1088 0.51604 0.0
H945 H 0.99228 0.16987 0.54885 0.0
C946 C 0.08048 0.26551 0.58172 0.0
C947 C 0.11482 0.27149 0.58405 0.0
C948 C 0.13683 0.25043 0.56717 0.0
C949 C 0.12504 0.22299 0.54979 0.0
C950 C 0.09109 0.21725 0.54891 0.0
C951 C 0.06909 0.23823 0.564 0.0
C952 C 0.03412 0.22504 0.56211 0.0
C953 C 0.01932 0.2204 0.59713 0.0
C954 C 0.01236 0.2473 0.54043 0.0
C955 C 0.04013 0.19253 0.54528 0.0
C956 C 0.07306 0.18863 0.5374 0.0
C957 C 0.08512 0.15894 0.52562 0.0
C958 C 0.0631 0.13241 0.52257 0.0
C959 C 0.02931 0.13584 0.53077 0.0
C960 C 0.01775 0.16663 0.54148 0.0
H961 H 0.62506 0.29231 0.46016 0.0
H962 H 0.56607 0.22791 0.52241 0.0
H963 H 0.54073 0.27627 0.54909 0.0
H964 H 0.63751 0.35831 0.51946 0.0
H965 H 0.63156 0.3911 0.48974 0.0
H966 H 0.64941 0.35287 0.47681 0.0
H967 H 0.60583 0.34231 0.4321 0.0
H968 H 0.58853 0.38165 0.44099 0.0
H969 H 0.56266 0.34557 0.44228 0.0
H970 H 0.51559 0.33104 0.56177 0.0
H971 H 0.49192 0.38681 0.55806 0.0
H972 H 0.56728 0.41454 0.48711 0.0
C973 C 0.60779 0.28839 0.48036 0.0
C974 C 0.59799 0.25652 0.48982 0.0
C975 C 0.57415 0.25225 0.5152 0.0
C976 C 0.5598 0.27954 0.53053 0.0
C977 C 0.56953 0.31077 0.52003 0.0
C978 C 0.59297 0.31521 0.49542 0.0
C979 C 0.59604 0.35072 0.48516 0.0
C980 C 0.63066 0.3641 0.49331 0.0
C981 C 0.58775 0.3553 0.44796 0.0
C982 C 0.56995 0.36565 0.50713 0.0
C983 C 0.5552 0.34236 0.52747 0.0
C984 C 0.52761 0.34967 0.54679 0.0
C985 C 0.51433 0.3813 0.54459 0.0
C986 C 0.5288 0.40501 0.5234 0.0
C987 C 0.55704 0.39718 0.50482 0.0
loop_
_geom_bond_atom_site_label_1
_geom_bond_atom_site_label_2
_geom_bond_distance
_geom_bond_site_symmetry_2
_ccdc_geom_bond_type
P0 O11 1.490 . S
P0 C14 1.812 . S
P0 C20 1.803 . S
P0 C26 1.819 . S
H1 C15 0.941 . S
H2 C16 0.939 . S
H3 C18 0.940 . S
H4 C19 0.940 . S
H5 C21 0.939 . S
H6 C22 0.942 . S
H7 C24 0.940 . S
H8 C25 0.939 . S
H9 C27 0.941 . S
H10 C31 0.939 . S
O11 P0 1.490 . S
H12 C28 0.939 . S
H13 C30 0.940 . S
C14 P0 1.812 . S
C14 C15 1.389 . S
C14 C19 1.391 . S
C15 H1 0.941 . S
C15 C14 1.389 . S
C15 C16 1.397 . S
C16 H2 0.939 . S
C16 C15 1.397 . S
C16 C17 1.378 . S
C17 C16 1.378 . S
C17 C18 1.378 . S
C18 H3 0.940 . S
C18 C17 1.378 . S
C18 C19 1.396 . S
C19 H4 0.940 . S
C19 C14 1.391 . S
C19 C18 1.396 . S
C20 P0 1.803 . S
C20 C21 1.378 . S
C20 C25 1.400 . S
C21 H5 0.939 . S
C21 C20 1.378 . S
C21 C22 1.361 . S
C22 H6 0.942 . S
C22 C21 1.361 . S
C22 C23 1.369 . S
C23 C22 1.369 . S
C23 C24 1.404 . S
C24 H7 0.940 . S
C24 C23 1.404 . S
C24 C25 1.389 . S
C25 H8 0.939 . S
C25 C20 1.400 . S
C25 C24 1.389 . S
C26 P0 1.819 . S
C26 C27 1.391 . S
C26 C31 1.391 . S
C27 H9 0.941 . S
C27 C26 1.391 . S
C27 C28 1.396 . S
C28 H12 0.939 . S
C28 C27 1.396 . S
C28 C29 1.397 . S
C29 C28 1.397 . S
C29 C30 1.385 . S
C30 H13 0.940 . S
C30 C29 1.385 . S
C30 C31 1.388 . S
C31 H10 0.939 . S
C31 C26 1.391 . S
C31 C30 1.388 . S
P32 O43 1.490 . S
P32 C46 1.812 . S
P32 C52 1.803 . S
P32 C58 1.819 . S
H33 C47 0.941 . S
H34 C48 0.939 . S
H35 C50 0.940 . S
H36 C51 0.940 . S
H37 C53 0.939 . S
H38 C54 0.942 . S
H39 C56 0.940 . S
H40 C57 0.939 . S
H41 C59 0.941 . S
H42 C63 0.939 . S
O43 P32 1.490 . S
H44 C60 0.939 . S
H45 C62 0.940 . S
C46 P32 1.812 . S
C46 C47 1.389 . S
C46 C51 1.391 . S
C47 H33 0.941 . S
C47 C46 1.389 . S
C47 C48 1.397 . S
C48 H34 0.939 . S
C48 C47 1.397 . S
C48 C49 1.378 . S
C49 C48 1.378 . S
C49 C50 1.378 . S
C50 H35 0.940 . S
C50 C49 1.378 . S
C50 C51 1.396 . S
C51 H36 0.940 . S
C51 C46 1.391 . S
C51 C50 1.396 . S
C52 P32 1.803 . S
C52 C53 1.378 . S
C52 C57 1.400 . S
C53 H37 0.939 . S
C53 C52 1.378 . S
C53 C54 1.361 . S
C54 H38 0.942 . S
C54 C53 1.361 . S
C54 C55 1.369 . S
C55 C54 1.369 . S
C55 C56 1.404 . S
C56 H39 0.940 . S
C56 C55 1.404 . S
C56 C57 1.389 . S
C57 H40 0.939 . S
C57 C52 1.400 . S
C57 C56 1.389 . S
C58 P32 1.819 . S
C58 C59 1.391 . S
C58 C63 1.391 . S
C59 H41 0.941 . S
C59 C58 1.391 . S
C59 C60 1.396 . S
C60 H44 0.939 . S
C60 C59 1.396 . S
C60 C61 1.397 . S
C61 C60 1.397 . S
C61 C62 1.385 . S
C62 H45 0.940 . S
C62 C61 1.385 . S
C62 C63 1.388 . S
C63 H42 0.939 . S
C63 C58 1.391 . S
C63 C62 1.388 . S
P64 O75 1.490 . S
P64 C78 1.812 . S
P64 C84 1.803 . S
P64 C90 1.819 . S
H65 C79 0.941 . S
H66 C80 0.939 . S
H67 C82 0.940 . S
H68 C83 0.940 . S
H69 C85 0.939 . S
H70 C86 0.942 . S
H71 C88 0.940 . S
H72 C89 0.939 . S
H73 C91 0.941 . S
H74 C95 0.939 . S
O75 P64 1.490 . S
H76 C92 0.939 . S
H77 C94 0.940 . S
C78 P64 1.812 . S
C78 C79 1.389 . S
C78 C83 1.391 . S
C79 H65 0.941 . S
C79 C78 1.389 . S
C79 C80 1.397 . S
C80 H66 0.939 . S
C80 C79 1.397 . S
C80 C81 1.378 . S
C81 C80 1.378 . S
C81 C82 1.378 . S
C82 H67 0.940 . S
C82 C81 1.378 . S
C82 C83 1.396 . S
C83 H68 0.940 . S
C83 C78 1.391 . S
C83 C82 1.396 . S
C84 P64 1.803 . S
C84 C85 1.378 . S
C84 C89 1.400 . S
C85 H69 0.939 . S
C85 C84 1.378 . S
C85 C86 1.361 . S
C86 H70 0.942 . S
C86 C85 1.361 . S
C86 C87 1.369 . S
C87 C86 1.369 . S
C87 C88 1.404 . S
C88 H71 0.940 . S
C88 C87 1.404 . S
C88 C89 1.389 . S
C89 H72 0.939 . S
C89 C84 1.400 . S
C89 C88 1.389 . S
C90 P64 1.819 . S
C90 C91 1.391 . S
C90 C95 1.391 . S
C91 H73 0.941 . S
C91 C90 1.391 . S
C91 C92 1.396 . S
C92 H76 0.939 . S
C92 C91 1.396 . S
C92 C93 1.397 . S
C93 C92 1.397 . S
C93 C94 1.385 . S
C94 H77 0.940 . S
C94 C93 1.385 . S
C94 C95 1.388 . S
C95 H74 0.939 . S
C95 C90 1.391 . S
C95 C94 1.388 . S
P96 O107 1.490 . S
P96 C110 1.812 . S
P96 C116 1.803 . S
P96 C122 1.819 . S
H97 C111 0.941 . S
H98 C112 0.939 . S
H99 C114 0.940 . S
H100 C115 0.940 . S
H101 C117 0.939 . S
H102 C118 0.942 . S
H103 C120 0.940 . S
H104 C121 0.939 . S
H105 C123 0.941 . S
H106 C127 0.939 . S
O107 P96 1.490 . S
H108 C124 0.939 . S
H109 C126 0.940 . S
C110 P96 1.812 . S
C110 C111 1.389 . S
C110 C115 1.391 . S
C111 H97 0.941 . S
C111 C110 1.389 . S
C111 C112 1.397 . S
C112 H98 0.939 . S
C112 C111 1.397 . S
C112 C113 1.378 . S
C113 C112 1.378 . S
C113 C114 1.378 . S
C114 H99 0.940 . S
C114 C113 1.378 . S
C114 C115 1.396 . S
C115 H100 0.940 . S
C115 C110 1.391 . S
C115 C114 1.396 . S
C116 P96 1.803 . S
C116 C117 1.378 . S
C116 C121 1.400 . S
C117 H101 0.939 . S
C117 C116 1.378 . S
C117 C118 1.361 . S
C118 H102 0.942 . S
C118 C117 1.361 . S
C118 C119 1.369 . S
C119 C118 1.369 . S
C119 C120 1.404 . S
C120 H103 0.940 . S
C120 C119 1.404 . S
C120 C121 1.389 . S
C121 H104 0.939 . S
C121 C116 1.400 . S
C121 C120 1.389 . S
C122 P96 1.819 . S
C122 C123 1.391 . S
C122 C127 1.391 . S
C123 H105 0.941 . S
C123 C122 1.391 . S
C123 C124 1.396 . S
C124 H108 0.939 . S
C124 C123 1.396 . S
C124 C125 1.397 . S
C125 C124 1.397 . S
C125 C126 1.385 . S
C126 H109 0.940 . S
C126 C125 1.385 . S
C126 C127 1.388 . S
C127 H106 0.939 . S
C127 C122 1.391 . S
C127 C126 1.388 . S
P128 O139 1.490 . S
P128 C142 1.812 . S
P128 C148 1.803 . S
P128 C154 1.819 . S
H129 C143 0.941 . S
H130 C144 0.939 . S
H131 C146 0.940 . S
H132 C147 0.940 . S
H133 C149 0.939 1_455 S
H134 C150 0.942 . S
H135 C152 0.940 . S
H136 C153 0.939 . S
H137 C155 0.939 . S
H138 C159 0.939 . S
O139 P128 1.490 . S
H140 C156 0.939 . S
H141 C158 0.940 . S
C142 P128 1.812 . S
C142 C143 1.389 1_556 S
C142 C147 1.391 . S
C143 H129 0.941 . S
C143 C142 1.389 1_554 S
C143 C144 1.397 . S
C144 H130 0.939 . S
C144 C143 1.397 . S
C144 C145 1.378 1_554 S
C145 C144 1.378 1_556 S
C145 C146 1.378 . S
C146 H131 0.940 . S
C146 C145 1.378 . S
C146 C147 1.396 . S
C147 H132 0.940 . S
C147 C142 1.391 . S
C147 C146 1.396 . S
C148 P128 1.803 . S
C148 C149 1.378 . S
C148 C153 1.400 . S
C149 H133 0.939 1_655 S
C149 C148 1.378 . S
C149 C150 1.361 1_655 S
C150 H134 0.942 . S
C150 C149 1.361 1_455 S
C150 C151 1.369 1_455 S
C151 C150 1.369 1_655 S
C151 C152 1.404 . S
C152 H135 0.940 . S
C152 C151 1.404 . S
C152 C153 1.389 . S
C153 H136 0.939 . S
C153 C148 1.400 . S
C153 C152 1.389 . S
C154 P128 1.819 . S
C154 C155 1.395 1_565 S
C154 C159 1.391 . S
C155 H137 0.939 . S
C155 C154 1.395 1_545 S
C155 C156 1.396 . S
C156 H140 0.939 . S
C156 C155 1.396 . S
C156 C157 1.397 1_545 S
C157 C156 1.397 1_565 S
C157 C158 1.385 . S
C158 H141 0.940 . S
C158 C157 1.385 . S
C158 C159 1.388 . S
C159 H138 0.939 . S
C159 C154 1.391 . S
C159 C158 1.388 . S
P160 O171 1.490 . S
P160 C174 1.812 . S
P160 C180 1.803 . S
P160 C186 1.819 . S
H161 C175 0.941 . S
H162 C176 0.939 . S
H163 C178 0.940 . S
H164 C179 0.940 . S
H165 C181 0.939 . S
H166 C182 0.942 . S
H167 C184 0.940 . S
H168 C185 0.939 . S
H169 C187 0.941 . S
H170 C191 0.939 . S
O171 P160 1.490 . S
H172 C188 0.939 . S
H173 C190 0.940 . S
C174 P160 1.812 . S
C174 C175 1.389 . S
C174 C179 1.391 . S
C175 H161 0.941 . S
C175 C174 1.389 . S
C175 C176 1.397 . S
C176 H162 0.939 . S
C176 C175 1.397 . S
C176 C177 1.378 . S
C177 C176 1.378 . S
C177 C178 1.378 . S
C178 H163 0.940 . S
C178 C177 1.378 . S
C178 C179 1.396 . S
C179 H164 0.940 . S
C179 C174 1.391 . S
C179 C178 1.396 . S
C180 P160 1.803 . S
C180 C181 1.378 . S
C180 C185 1.400 . S
C181 H165 0.939 . S
C181 C180 1.378 . S
C181 C182 1.361 . S
C182 H166 0.942 . S
C182 C181 1.361 . S
C182 C183 1.369 . S
C183 C182 1.369 . S
C183 C184 1.404 . S
C184 H167 0.940 . S
C184 C183 1.404 . S
C184 C185 1.389 . S
C185 H168 0.939 . S
C185 C180 1.400 . S
C185 C184 1.389 . S
C186 P160 1.819 . S
C186 C187 1.391 . S
C186 C191 1.391 . S
C187 H169 0.941 . S
C187 C186 1.391 . S
C187 C188 1.396 . S
C188 H172 0.939 . S
C188 C187 1.396 . S
C188 C189 1.397 . S
C189 C188 1.397 . S
C189 C190 1.385 . S
C190 H173 0.940 . S
C190 C189 1.385 . S
C190 C191 1.388 . S
C191 H170 0.939 . S
C191 C186 1.391 . S
C191 C190 1.388 . S
P192 O203 1.490 . S
P192 C206 1.812 . S
P192 C212 1.803 . S
P192 C218 1.819 . S
H193 C207 0.941 . S
H194 C208 0.939 . S
H195 C210 0.940 . S
H196 C211 0.940 . S
H197 C213 0.939 . S
H198 C214 0.942 . S
H199 C216 0.940 . S
H200 C217 0.939 . S
H201 C219 0.941 . S
H202 C223 0.939 . S
O203 P192 1.490 . S
H204 C220 0.939 . S
H205 C222 0.940 . S
C206 P192 1.812 . S
C206 C207 1.389 . S
C206 C211 1.391 . S
C207 H193 0.941 . S
C207 C206 1.389 . S
C207 C208 1.397 . S
C208 H194 0.939 . S
C208 C207 1.397 . S
C208 C209 1.378 . S
C209 C208 1.378 . S
C209 C210 1.378 . S
C210 H195 0.940 . S
C210 C209 1.378 . S
C210 C211 1.396 . S
C211 H196 0.940 . S
C211 C206 1.391 . S
C211 C210 1.396 . S
C212 P192 1.803 . S
C212 C213 1.378 . S
C212 C217 1.400 . S
C213 H197 0.939 . S
C213 C212 1.378 . S
C213 C214 1.361 . S
C214 H198 0.942 . S
C214 C213 1.361 . S
C214 C215 1.369 . S
C215 C214 1.369 . S
C215 C216 1.404 . S
C216 H199 0.940 . S
C216 C215 1.404 . S
C216 C217 1.389 . S
C217 H200 0.939 . S
C217 C212 1.400 . S
C217 C216 1.389 . S
C218 P192 1.819 . S
C218 C219 1.391 . S
C218 C223 1.391 . S
C219 H201 0.941 . S
C219 C218 1.391 . S
C219 C220 1.396 . S
C220 H204 0.939 . S
C220 C219 1.396 . S
C220 C221 1.397 . S
C221 C220 1.397 . S
C221 C222 1.385 . S
C222 H205 0.940 . S
C222 C221 1.385 . S
C222 C223 1.388 . S
C223 H202 0.939 . S
C223 C218 1.391 . S
C223 C222 1.388 . S
P224 O235 1.490 . S
P224 C238 1.812 . S
P224 C244 1.803 . S
P224 C250 1.819 . S
H225 C239 0.941 . S
H226 C240 0.939 . S
H227 C242 0.940 . S
H228 C243 0.940 . S
H229 C245 0.939 . S
H230 C246 0.942 . S
H231 C248 0.940 . S
H232 C249 0.939 . S
H233 C251 0.941 . S
H234 C255 0.939 . S
O235 P224 1.490 . S
H236 C252 0.939 . S
H237 C254 0.940 . S
C238 P224 1.812 . S
C238 C239 1.389 . S
C238 C243 1.391 . S
C239 H225 0.941 . S
C239 C238 1.389 . S
C239 C240 1.397 . S
C240 H226 0.939 . S
C240 C239 1.397 . S
C240 C241 1.378 . S
C241 C240 1.378 . S
C241 C242 1.378 . S
C242 H227 0.940 . S
C242 C241 1.378 . S
C242 C243 1.396 . S
C243 H228 0.940 . S
C243 C238 1.391 . S
C243 C242 1.396 . S
C244 P224 1.803 . S
C244 C245 1.378 . S
C244 C249 1.400 . S
C245 H229 0.939 . S
C245 C244 1.378 . S
C245 C246 1.361 . S
C246 H230 0.942 . S
C246 C245 1.361 . S
C246 C247 1.369 . S
C247 C246 1.369 . S
C247 C248 1.404 . S
C248 H231 0.940 . S
C248 C247 1.404 . S
C248 C249 1.389 . S
C249 H232 0.939 . S
C249 C244 1.400 . S
C249 C248 1.389 . S
C250 P224 1.819 . S
C250 C251 1.391 . S
C250 C255 1.391 . S
C251 H233 0.941 . S
C251 C250 1.391 . S
C251 C252 1.396 . S
C252 H236 0.939 . S
C252 C251 1.396 . S
C252 C253 1.397 . S
C253 C252 1.397 . S
C253 C254 1.385 . S
C254 H237 0.940 . S
C254 C253 1.385 . S
C254 C255 1.388 . S
C255 H234 0.939 . S
C255 C250 1.391 . S
C255 C254 1.388 . S
Zn256 O262 1.920 . S
Zn256 O268 1.898 . S
Zn256 O271 1.905 . S
Zn257 O265 1.905 1_565 S
Zn257 O266 1.898 . S
Zn257 O274 1.920 . S
Zn258 O261 2.080 1_455 S
Zn258 O264 2.114 . S
Zn258 O267 2.120 1_445 S
Zn258 O269 2.120 . S
Zn258 O270 2.114 1_455 S
Zn258 O273 2.080 . S
C259 O264 1.166 . S
C259 O265 1.182 . S
C260 O266 1.167 1_655 S
C260 O267 1.299 . S
O261 Zn258 2.080 1_655 S
O261 C275 1.305 . S
O262 Zn256 1.920 . S
O262 C275 1.234 . S
C263 O268 1.167 1_455 S
C263 O269 1.299 . S
O264 Zn258 2.114 . S
O264 C259 1.166 . S
O265 Zn257 1.905 1_545 S
O265 C259 1.182 . S
O266 Zn257 1.898 . S
O266 C260 1.167 1_455 S
O267 Zn258 2.120 1_665 S
O267 C260 1.299 . S
O268 Zn256 1.898 . S
O268 C263 1.167 1_655 S
O269 Zn258 2.120 . S
O269 C263 1.299 . S
O270 Zn258 2.114 1_655 S
O270 C272 1.166 . S
O271 Zn256 1.905 . S
O271 C272 1.182 . S
C272 O270 1.166 . S
C272 O271 1.182 . S
O273 Zn258 2.080 . S
O273 C276 1.305 1_545 S
O274 Zn257 1.920 . S
O274 C276 1.234 . S
C275 O261 1.305 . S
C275 O262 1.234 . S
C276 O273 1.305 1_565 S
C276 O274 1.234 . S
Zn277 O283 1.920 1_556 S
Zn277 O289 1.898 . S
Zn277 O292 1.905 . S
Zn278 O286 1.905 . S
Zn278 O287 1.898 . S
Zn278 O295 1.920 . S
Zn279 O282 2.080 . S
Zn279 O285 2.114 1_545 S
Zn279 O288 2.120 1_545 S
Zn279 O290 2.120 . S
Zn279 O291 2.115 1_554 S
Zn279 O294 2.080 . S
C280 O285 1.166 . S
C280 O286 1.182 . S
C281 O287 1.167 . S
C281 O288 1.299 . S
O282 Zn279 2.080 . S
O282 C296 1.305 . S
O283 Zn277 1.920 1_554 S
O283 C296 1.234 . S
C284 O289 1.167 . S
C284 O290 1.299 1_556 S
O285 Zn279 2.114 1_565 S
O285 C280 1.166 . S
O286 Zn278 1.905 . S
O286 C280 1.182 . S
O287 Zn278 1.898 . S
O287 C281 1.167 . S
O288 Zn279 2.120 1_565 S
O288 C281 1.299 . S
O289 Zn277 1.898 . S
O289 C284 1.167 . S
O290 Zn279 2.120 . S
O290 C284 1.299 1_554 S
O291 Zn279 2.115 1_556 S
O291 C293 1.166 . S
O292 Zn277 1.905 . S
O292 C293 1.199 . S
C293 O291 1.166 . S
C293 O292 1.199 . S
O294 Zn279 2.080 . S
O294 C297 1.305 . S
O295 Zn278 1.920 . S
O295 C297 1.234 1_565 S
C296 O282 1.305 . S
C296 O283 1.234 . S
C297 O294 1.305 . S
C297 O295 1.234 1_545 S
Zn298 O304 1.920 . S
Zn298 O310 1.898 . S
Zn298 O313 1.905 . S
Zn299 O307 1.905 . S
Zn299 O308 1.898 . S
Zn299 O316 1.920 . S
Zn300 O303 2.080 . S
Zn300 O306 2.114 . S
Zn300 O309 2.120 . S
Zn300 O311 2.120 . S
Zn300 O312 2.114 . S
Zn300 O315 2.080 . S
C301 O306 1.166 . S
C301 O307 1.182 . S
C302 O308 1.167 . S
C302 O309 1.299 . S
O303 Zn300 2.080 . S
O303 C317 1.305 . S
O304 Zn298 1.920 . S
O304 C317 1.234 . S
C305 O310 1.167 . S
C305 O311 1.299 . S
O306 Zn300 2.114 . S
O306 C301 1.166 . S
O307 Zn299 1.905 . S
O307 C301 1.182 . S
O308 Zn299 1.898 . S
O308 C302 1.167 . S
O309 Zn300 2.120 . S
O309 C302 1.299 . S
O310 Zn298 1.898 . S
O310 C305 1.167 . S
O311 Zn300 2.120 . S
O311 C305 1.299 . S
O312 Zn300 2.114 . S
O312 C314 1.166 . S
O313 Zn298 1.905 . S
O313 C314 1.182 . S
C314 O312 1.166 . S
C314 O313 1.182 . S
O315 Zn300 2.080 . S
O315 C318 1.305 . S
O316 Zn299 1.920 . S
O316 C318 1.234 . S
C317 O303 1.305 . S
C317 O304 1.234 . S
C318 O315 1.305 . S
C318 O316 1.234 . S
Zn319 O325 1.920 . S
Zn319 O331 1.898 . S
Zn319 O334 1.905 . S
Zn320 O328 1.905 1_655 S
Zn320 O329 1.898 . S
Zn320 O337 1.920 . S
Zn321 O324 2.080 1_554 S
Zn321 O327 2.114 . S
Zn321 O330 2.120 1_454 S
Zn321 O332 2.120 . S
Zn321 O333 2.114 1_554 S
Zn321 O336 2.080 . S
C322 O327 1.166 . S
C322 O328 1.182 . S
C323 O329 1.167 1_556 S
C323 O330 1.299 . S
O324 Zn321 2.080 1_556 S
O324 C338 1.305 . S
O325 Zn319 1.920 . S
O325 C338 1.234 . S
C326 O331 1.167 1_554 S
C326 O332 1.299 . S
O327 Zn321 2.114 . S
O327 C322 1.166 . S
O328 Zn320 1.905 1_455 S
O328 C322 1.182 . S
O329 Zn320 1.898 . S
O329 C323 1.167 1_554 S
O330 Zn321 2.120 1_656 S
O330 C323 1.299 . S
O331 Zn319 1.898 . S
O331 C326 1.167 1_556 S
O332 Zn321 2.120 . S
O332 C326 1.299 . S
O333 Zn321 2.114 1_556 S
O333 C335 1.166 . S
O334 Zn319 1.905 . S
O334 C335 1.182 . S
C335 O333 1.166 . S
C335 O334 1.182 . S
O336 Zn321 2.080 . S
O336 C339 1.305 1_455 S
O337 Zn320 1.920 . S
O337 C339 1.234 . S
C338 O324 1.305 . S
C338 O325 1.234 . S
C339 O336 1.305 1_655 S
C339 O337 1.234 . S
H340 C352 0.930 . S
H341 C354 0.930 . S
H342 C355 0.930 . S
H343 C359 0.959 . S
H344 C359 0.959 . S
H345 C359 0.961 . S
H346 C360 0.960 . S
H347 C360 0.961 . S
H348 C360 0.959 . S
H349 C363 0.929 . S
H350 C364 0.931 . S
H351 C366 0.930 . S
C352 H340 0.930 . S
C352 C353 1.399 . S
C352 C357 1.399 . S
C353 C352 1.399 . S
C353 C354 1.376 . S
C354 H341 0.930 . S
C354 C353 1.376 . S
C354 C355 1.388 . S
C355 H342 0.930 . S
C355 C354 1.388 . S
C355 C356 1.390 . S
C356 C355 1.390 . S
C356 C357 1.394 . S
C356 C362 1.465 . S
C357 C352 1.399 . S
C357 C356 1.394 . S
C357 C358 1.516 . S
C358 C357 1.516 . S
C358 C359 1.502 . S
C358 C360 1.561 . S
C358 C361 1.526 . S
C359 H343 0.959 . S
C359 H344 0.959 . S
C359 H345 0.961 . S
C359 C358 1.502 . S
C360 H346 0.960 . S
C360 H347 0.961 . S
C360 H348 0.959 . S
C360 C358 1.561 . S
C361 C358 1.526 . S
C361 C362 1.396 . S
C361 C366 1.390 . S
C362 C356 1.465 . S
C362 C361 1.396 . S
C362 C363 1.399 . S
C363 H349 0.929 . S
C363 C362 1.399 . S
C363 C364 1.385 . S
C364 H350 0.931 . S
C364 C363 1.385 . S
C364 C365 1.389 . S
C365 C364 1.389 . S
C365 C366 1.387 . S
C366 H351 0.930 . S
C366 C361 1.390 . S
C366 C365 1.387 . S
H367 C379 0.930 . S
H368 C381 0.930 . S
H369 C382 0.930 . S
H370 C386 0.959 . S
H371 C386 0.959 . S
H372 C386 0.961 . S
H373 C387 0.960 . S
H374 C387 0.961 . S
H375 C387 0.959 . S
H376 C390 0.929 1_545 S
H377 C391 0.931 . S
H378 C393 0.930 . S
C379 H367 0.930 . S
C379 C380 1.399 . S
C379 C384 1.399 . S
C380 C379 1.399 . S
C380 C381 1.376 . S
C381 H368 0.930 . S
C381 C380 1.376 . S
C381 C382 1.388 . S
C382 H369 0.930 . S
C382 C381 1.388 . S
C382 C383 1.390 . S
C383 C382 1.390 . S
C383 C384 1.394 . S
C383 C389 1.465 . S
C384 C379 1.399 . S
C384 C383 1.394 . S
C384 C385 1.516 . S
C385 C384 1.516 . S
C385 C386 1.502 . S
C385 C387 1.561 . S
C385 C388 1.526 . S
C386 H370 0.959 . S
C386 H371 0.959 . S
C386 H372 0.961 . S
C386 C385 1.502 . S
C387 H373 0.960 . S
C387 H374 0.961 . S
C387 H375 0.959 . S
C387 C385 1.561 . S
C388 C385 1.526 . S
C388 C389 1.396 . S
C388 C393 1.390 . S
C389 C383 1.465 . S
C389 C388 1.396 . S
C389 C390 1.399 . S
C390 H376 0.929 1_565 S
C390 C389 1.399 . S
C390 C391 1.385 1_565 S
C391 H377 0.931 . S
C391 C390 1.385 1_545 S
C391 C392 1.389 1_545 S
C392 C391 1.389 1_565 S
C392 C393 1.387 . S
C393 H378 0.930 . S
C393 C388 1.390 . S
C393 C392 1.387 . S
H394 C406 0.930 . S
H395 C408 0.930 . S
H396 C409 0.930 . S
H397 C413 0.959 . S
H398 C413 0.959 . S
H399 C413 0.961 . S
H400 C414 0.960 . S
H401 C414 0.961 . S
H402 C414 0.959 . S
H403 C417 0.929 . S
H404 C418 0.931 . S
H405 C420 0.930 . S
C406 H394 0.930 . S
C406 C407 1.399 . S
C406 C411 1.399 . S
C407 C406 1.399 . S
C407 C408 1.376 . S
C408 H395 0.930 . S
C408 C407 1.376 . S
C408 C409 1.388 . S
C409 H396 0.930 . S
C409 C408 1.388 . S
C409 C410 1.390 . S
C410 C409 1.390 . S
C410 C411 1.394 . S
C410 C416 1.465 . S
C411 C406 1.399 . S
C411 C410 1.394 . S
C411 C412 1.516 . S
C412 C411 1.516 . S
C412 C413 1.502 . S
C412 C414 1.561 . S
C412 C415 1.526 . S
C413 H397 0.959 . S
C413 H398 0.959 . S
C413 H399 0.961 . S
C413 C412 1.502 . S
C414 H400 0.960 . S
C414 H401 0.961 . S
C414 H402 0.959 . S
C414 C412 1.561 . S
C415 C412 1.526 . S
C415 C416 1.396 . S
C415 C420 1.390 . S
C416 C410 1.465 . S
C416 C415 1.396 . S
C416 C417 1.399 . S
C417 H403 0.929 . S
C417 C416 1.399 . S
C417 C418 1.385 . S
C418 H404 0.931 . S
C418 C417 1.385 . S
C418 C419 1.389 . S
C419 C418 1.389 . S
C419 C420 1.387 . S
C420 H405 0.930 . S
C420 C415 1.390 . S
C420 C419 1.387 . S
H421 C433 0.930 . S
H422 C435 0.930 . S
H423 C436 0.930 . S
H424 C440 0.959 . S
H425 C440 0.959 . S
H426 C440 0.961 . S
H427 C441 0.960 . S
H428 C441 0.961 . S
H429 C441 0.959 . S
H430 C444 0.929 . S
H431 C445 0.931 . S
H432 C447 0.930 . S
C433 H421 0.930 . S
C433 C434 1.399 . S
C433 C438 1.399 . S
C434 C433 1.399 . S
C434 C435 1.376 . S
C435 H422 0.930 . S
C435 C434 1.376 . S
C435 C436 1.388 . S
C436 H423 0.930 . S
C436 C435 1.388 . S
C436 C437 1.390 . S
C437 C436 1.390 . S
C437 C438 1.394 . S
C437 C443 1.465 . S
C438 C433 1.399 . S
C438 C437 1.394 . S
C438 C439 1.516 . S
C439 C438 1.516 . S
C439 C440 1.502 . S
C439 C441 1.561 . S
C439 C442 1.526 . S
C440 H424 0.959 . S
C440 H425 0.959 . S
C440 H426 0.961 . S
C440 C439 1.502 . S
C441 H427 0.960 . S
C441 H428 0.961 . S
C441 H429 0.959 . S
C441 C439 1.561 . S
C442 C439 1.526 . S
C442 C443 1.396 . S
C442 C447 1.390 . S
C443 C437 1.465 . S
C443 C442 1.396 . S
C443 C444 1.399 . S
C444 H430 0.929 . S
C444 C443 1.399 . S
C444 C445 1.385 . S
C445 H431 0.931 . S
C445 C444 1.385 . S
C445 C446 1.389 . S
C446 C445 1.389 . S
C446 C447 1.387 . S
C447 H432 0.930 . S
C447 C442 1.390 . S
C447 C446 1.387 . S
H448 C460 0.930 . S
H449 C462 0.930 . S
H450 C463 0.930 . S
H451 C467 0.959 . S
H452 C467 0.959 . S
H453 C467 0.961 . S
H454 C468 0.960 . S
H455 C468 0.961 . S
H456 C468 0.959 . S
H457 C471 0.929 . S
H458 C472 0.931 . S
H459 C474 0.930 . S
C460 H448 0.930 . S
C460 C461 1.399 . S
C460 C465 1.399 . S
C461 C460 1.399 . S
C461 C462 1.376 . S
C462 H449 0.930 . S
C462 C461 1.376 . S
C462 C463 1.388 . S
C463 H450 0.930 . S
C463 C462 1.388 . S
C463 C464 1.390 . S
C464 C463 1.390 . S
C464 C465 1.394 . S
C464 C470 1.465 . S
C465 C460 1.399 . S
C465 C464 1.394 . S
C465 C466 1.516 . S
C466 C465 1.516 . S
C466 C467 1.502 . S
C466 C468 1.561 . S
C466 C469 1.526 . S
C467 H451 0.959 . S
C467 H452 0.959 . S
C467 H453 0.961 . S
C467 C466 1.502 . S
C468 H454 0.960 . S
C468 H455 0.961 . S
C468 H456 0.959 . S
C468 C466 1.561 . S
C469 C466 1.526 . S
C469 C470 1.396 . S
C469 C474 1.390 . S
C470 C464 1.465 . S
C470 C469 1.396 . S
C470 C471 1.399 . S
C471 H457 0.929 . S
C471 C470 1.399 . S
C471 C472 1.385 . S
C472 H458 0.931 . S
C472 C471 1.385 . S
C472 C473 1.389 . S
C473 C472 1.389 . S
C473 C474 1.387 . S
C474 H459 0.930 . S
C474 C469 1.390 . S
C474 C473 1.387 . S
H475 C487 0.930 . S
H476 C489 0.930 . S
H477 C490 0.930 . S
H478 C494 0.959 . S
H479 C494 0.959 . S
H480 C494 0.961 . S
H481 C495 0.960 . S
H482 C495 0.961 . S
H483 C495 0.959 . S
H484 C498 0.929 . S
H485 C499 0.931 . S
H486 C501 0.930 . S
C487 H475 0.930 . S
C487 C488 1.399 . S
C487 C492 1.399 . S
C488 C487 1.399 . S
C488 C489 1.376 . S
C489 H476 0.930 . S
C489 C488 1.376 . S
C489 C490 1.388 . S
C490 H477 0.930 . S
C490 C489 1.388 . S
C490 C491 1.390 . S
C491 C490 1.390 . S
C491 C492 1.394 . S
C491 C497 1.465 . S
C492 C487 1.399 . S
C492 C491 1.394 . S
C492 C493 1.516 . S
C493 C492 1.516 . S
C493 C494 1.502 . S
C493 C495 1.561 . S
C493 C496 1.526 . S
C494 H478 0.959 . S
C494 H479 0.959 . S
C494 H480 0.961 . S
C494 C493 1.502 . S
C495 H481 0.960 . S
C495 H482 0.961 . S
C495 H483 0.959 . S
C495 C493 1.561 . S
C496 C493 1.526 . S
C496 C497 1.396 . S
C496 C501 1.390 . S
C497 C491 1.465 . S
C497 C496 1.396 . S
C497 C498 1.399 . S
C498 H484 0.929 . S
C498 C497 1.399 . S
C498 C499 1.385 . S
C499 H485 0.931 . S
C499 C498 1.385 . S
C499 C500 1.389 . S
C500 C499 1.389 . S
C500 C501 1.387 . S
C501 H486 0.930 . S
C501 C496 1.390 . S
C501 C500 1.387 . S
H502 C514 0.930 . S
H503 C516 0.930 . S
H504 C517 0.930 . S
H505 C521 0.959 . S
H506 C521 0.959 1_554 S
H507 C521 0.961 . S
H508 C522 0.960 . S
H509 C522 0.961 . S
H510 C522 0.959 . S
H511 C525 0.929 . S
H512 C526 0.931 . S
H513 C528 0.930 . S
C514 H502 0.930 . S
C514 C515 1.399 . S
C514 C519 1.399 . S
C515 C514 1.399 . S
C515 C516 1.376 . S
C516 H503 0.930 . S
C516 C515 1.376 . S
C516 C517 1.388 . S
C517 H504 0.930 . S
C517 C516 1.388 . S
C517 C518 1.390 . S
C518 C517 1.390 . S
C518 C519 1.394 . S
C518 C524 1.465 . S
C519 C514 1.399 . S
C519 C518 1.394 . S
C519 C520 1.516 . S
C520 C519 1.516 . S
C520 C521 1.502 . S
C520 C522 1.561 . S
C520 C523 1.526 . S
C521 H505 0.959 . S
C521 H506 0.959 1_556 S
C521 H507 0.961 . S
C521 C520 1.502 . S
C522 H508 0.960 . S
C522 H509 0.961 . S
C522 H510 0.959 . S
C522 C520 1.561 . S
C523 C520 1.526 . S
C523 C524 1.396 . S
C523 C528 1.390 . S
C524 C518 1.465 . S
C524 C523 1.396 . S
C524 C525 1.399 . S
C525 H511 0.929 . S
C525 C524 1.399 . S
C525 C526 1.385 . S
C526 H512 0.931 . S
C526 C525 1.385 . S
C526 C527 1.389 . S
C527 C526 1.389 . S
C527 C528 1.387 . S
C528 H513 0.930 . S
C528 C523 1.390 . S
C528 C527 1.387 . S
H529 C541 0.930 . S
H530 C543 0.930 . S
H531 C544 0.930 . S
H532 C548 0.959 . S
H533 C548 0.959 . S
H534 C548 0.961 . S
H535 C549 0.960 . S
H536 C549 0.961 . S
H537 C549 0.959 . S
H538 C552 0.929 . S
H539 C553 0.931 . S
H540 C555 0.930 . S
C541 H529 0.930 . S
C541 C542 1.399 . S
C541 C546 1.399 . S
C542 C541 1.399 . S
C542 C543 1.376 . S
C543 H530 0.930 . S
C543 C542 1.376 . S
C543 C544 1.388 . S
C544 H531 0.930 . S
C544 C543 1.388 . S
C544 C545 1.390 . S
C545 C544 1.390 . S
C545 C546 1.394 . S
C545 C551 1.465 . S
C546 C541 1.399 . S
C546 C545 1.394 . S
C546 C547 1.516 . S
C547 C546 1.516 . S
C547 C548 1.502 . S
C547 C549 1.561 . S
C547 C550 1.526 . S
C548 H532 0.959 . S
C548 H533 0.959 . S
C548 H534 0.961 . S
C548 C547 1.502 . S
C549 H535 0.960 . S
C549 H536 0.961 . S
C549 H537 0.959 . S
C549 C547 1.561 . S
C550 C547 1.526 . S
C550 C551 1.396 . S
C550 C555 1.390 . S
C551 C545 1.465 . S
C551 C550 1.396 . S
C551 C552 1.399 . S
C552 H538 0.929 . S
C552 C551 1.399 . S
C552 C553 1.385 . S
C553 H539 0.931 . S
C553 C552 1.385 . S
C553 C554 1.389 . S
C554 C553 1.389 . S
C554 C555 1.387 . S
C555 H540 0.930 . S
C555 C550 1.390 . S
C555 C554 1.387 . S
H556 C568 0.930 . S
H557 C570 0.930 . S
H558 C571 0.930 . S
H559 C575 0.959 . S
H560 C575 0.959 . S
H561 C575 0.961 . S
H562 C576 0.960 . S
H563 C576 0.961 . S
H564 C576 0.959 . S
H565 C579 0.929 . S
H566 C580 0.931 . S
H567 C582 0.930 . S
C568 H556 0.930 . S
C568 C569 1.399 . S
C568 C573 1.399 . S
C569 C568 1.399 . S
C569 C570 1.376 . S
C570 H557 0.930 . S
C570 C569 1.376 . S
C570 C571 1.388 . S
C571 H558 0.930 . S
C571 C570 1.388 . S
C571 C572 1.390 . S
C572 C571 1.390 . S
C572 C573 1.394 . S
C572 C578 1.465 . S
C573 C568 1.399 . S
C573 C572 1.394 . S
C573 C574 1.516 . S
C574 C573 1.516 . S
C574 C575 1.502 . S
C574 C576 1.561 . S
C574 C577 1.526 . S
C575 H559 0.959 . S
C575 H560 0.959 . S
C575 H561 0.961 . S
C575 C574 1.502 . S
C576 H562 0.960 . S
C576 H563 0.961 . S
C576 H564 0.959 . S
C576 C574 1.561 . S
C577 C574 1.526 . S
C577 C578 1.396 . S
C577 C582 1.390 . S
C578 C572 1.465 . S
C578 C577 1.396 . S
C578 C579 1.399 . S
C579 H565 0.929 . S
C579 C578 1.399 . S
C579 C580 1.385 . S
C580 H566 0.931 . S
C580 C579 1.385 . S
C580 C581 1.389 . S
C581 C580 1.389 . S
C581 C582 1.387 . S
C582 H567 0.930 . S
C582 C577 1.390 . S
C582 C581 1.387 . S
H583 C595 0.930 . S
H584 C597 0.930 . S
H585 C598 0.930 . S
H586 C602 0.959 . S
H587 C602 0.959 . S
H588 C602 0.961 . S
H589 C603 0.960 . S
H590 C603 0.961 . S
H591 C603 0.959 . S
H592 C606 0.929 1_554 S
H593 C607 0.931 . S
H594 C609 0.930 . S
C595 H583 0.930 . S
C595 C596 1.399 . S
C595 C600 1.399 . S
C596 C595 1.399 . S
C596 C597 1.376 . S
C597 H584 0.930 . S
C597 C596 1.376 . S
C597 C598 1.388 . S
C598 H585 0.930 . S
C598 C597 1.388 . S
C598 C599 1.390 . S
C599 C598 1.390 . S
C599 C600 1.394 . S
C599 C605 1.465 . S
C600 C595 1.399 . S
C600 C599 1.394 . S
C600 C601 1.516 . S
C601 C600 1.516 . S
C601 C602 1.502 . S
C601 C603 1.561 . S
C601 C604 1.526 . S
C602 H586 0.959 . S
C602 H587 0.959 . S
C602 H588 0.961 . S
C602 C601 1.502 . S
C603 H589 0.960 . S
C603 H590 0.961 . S
C603 H591 0.959 . S
C603 C601 1.561 . S
C604 C601 1.526 . S
C604 C605 1.396 . S
C604 C609 1.390 . S
C605 C599 1.465 . S
C605 C604 1.396 . S
C605 C606 1.399 . S
C606 H592 0.929 1_556 S
C606 C605 1.399 . S
C606 C607 1.385 1_556 S
C607 H593 0.931 . S
C607 C606 1.385 1_554 S
C607 C608 1.389 1_554 S
C608 C607 1.389 1_556 S
C608 C609 1.387 . S
C609 H594 0.930 . S
C609 C604 1.390 . S
C609 C608 1.387 . S
H610 C622 0.930 . S
H611 C624 0.930 . S
H612 C625 0.930 . S
H613 C629 0.959 . S
H614 C629 0.959 1_455 S
H615 C629 0.961 . S
H616 C630 0.960 . S
H617 C630 0.961 1_455 S
H618 C630 0.959 . S
H619 C633 0.929 . S
H620 C634 0.931 . S
H621 C636 0.930 . S
C622 H610 0.930 . S
C622 C623 1.399 . S
C622 C627 1.399 . S
C623 C622 1.399 . S
C623 C624 1.376 . S
C624 H611 0.930 . S
C624 C623 1.376 . S
C624 C625 1.388 . S
C625 H612 0.930 . S
C625 C624 1.388 . S
C625 C626 1.390 . S
C626 C625 1.390 . S
C626 C627 1.394 . S
C626 C632 1.465 . S
C627 C622 1.399 . S
C627 C626 1.394 . S
C627 C628 1.516 . S
C628 C627 1.516 . S
C628 C629 1.502 . S
C628 C630 1.561 . S
C628 C631 1.526 . S
C629 H613 0.959 . S
C629 H614 0.959 1_655 S
C629 H615 0.961 . S
C629 C628 1.502 . S
C630 H616 0.960 . S
C630 H617 0.961 1_655 S
C630 H618 0.959 . S
C630 C628 1.561 . S
C631 C628 1.526 . S
C631 C632 1.396 . S
C631 C636 1.390 . S
C632 C626 1.465 . S
C632 C631 1.396 . S
C632 C633 1.399 . S
C633 H619 0.929 . S
C633 C632 1.399 . S
C633 C634 1.385 . S
C634 H620 0.931 . S
C634 C633 1.385 . S
C634 C635 1.389 . S
C635 C634 1.389 . S
C635 C636 1.387 . S
C636 H621 0.930 . S
C636 C631 1.390 . S
C636 C635 1.387 . S
H637 C649 0.930 . S
H638 C651 0.930 . S
H639 C652 0.930 . S
H640 C656 0.959 . S
H641 C656 0.959 . S
H642 C656 0.961 . S
H643 C657 0.960 . S
H644 C657 0.961 . S
H645 C657 0.959 . S
H646 C660 0.929 . S
H647 C661 0.931 . S
H648 C663 0.930 . S
C649 H637 0.930 . S
C649 C650 1.399 . S
C649 C654 1.399 . S
C650 C649 1.399 . S
C650 C651 1.376 . S
C651 H638 0.930 . S
C651 C650 1.376 . S
C651 C652 1.388 . S
C652 H639 0.930 . S
C652 C651 1.388 . S
C652 C653 1.390 . S
C653 C652 1.390 . S
C653 C654 1.394 . S
C653 C659 1.465 . S
C654 C649 1.399 . S
C654 C653 1.394 . S
C654 C655 1.516 . S
C655 C654 1.516 . S
C655 C656 1.502 . S
C655 C657 1.561 . S
C655 C658 1.526 . S
C656 H640 0.959 . S
C656 H641 0.959 . S
C656 H642 0.961 . S
C656 C655 1.502 . S
C657 H643 0.960 . S
C657 H644 0.961 . S
C657 H645 0.959 . S
C657 C655 1.561 . S
C658 C655 1.526 . S
C658 C659 1.396 . S
C658 C663 1.390 . S
C659 C653 1.465 . S
C659 C658 1.396 . S
C659 C660 1.399 . S
C660 H646 0.929 . S
C660 C659 1.399 . S
C660 C661 1.385 . S
C661 H647 0.931 . S
C661 C660 1.385 . S
C661 C662 1.389 . S
C662 C661 1.389 . S
C662 C663 1.387 . S
C663 H648 0.930 . S
C663 C658 1.390 . S
C663 C662 1.387 . S
H664 C676 0.930 . S
H665 C678 0.930 . S
H666 C679 0.930 1_455 S
H667 C683 0.959 . S
H668 C683 0.959 . S
H669 C683 0.961 . S
H670 C684 0.960 . S
H671 C684 0.961 . S
H672 C684 0.959 1_455 S
H673 C687 0.929 . S
H674 C688 0.935 . S
H675 C690 0.930 . S
C676 H664 0.930 . S
C676 C677 1.399 1_545 S
C676 C681 1.399 . S
C677 C676 1.399 1_565 S
C677 C678 1.376 . S
C678 H665 0.930 . S
C678 C677 1.376 . S
C678 C679 1.388 . S
C679 H666 0.930 1_655 S
C679 C678 1.388 . S
C679 C680 1.390 . S
C680 C679 1.390 . S
C680 C681 1.394 1_565 S
C680 C686 1.465 . S
C681 C676 1.399 . S
C681 C680 1.394 1_545 S
C681 C682 1.516 . S
C682 C681 1.516 . S
C682 C683 1.502 . S
C682 C684 1.561 . S
C682 C685 1.526 . S
C683 H667 0.959 . S
C683 H668 0.959 . S
C683 H669 0.961 . S
C683 C682 1.502 . S
C684 H670 0.960 . S
C684 H671 0.961 . S
C684 H672 0.959 1_655 S
C684 C682 1.561 . S
C685 C682 1.526 . S
C685 C686 1.396 1_545 S
C685 C690 1.390 . S
C686 C680 1.465 . S
C686 C685 1.396 1_565 S
C686 C687 1.399 1_655 S
C687 H673 0.929 . S
C687 C686 1.399 1_455 S
C687 C688 1.386 . S
C688 H674 0.935 . S
C688 C687 1.386 . S
C688 C689 1.385 1_465 S
C689 C688 1.385 1_645 S
C689 C690 1.387 . S
C690 H675 0.930 . S
C690 C685 1.390 . S
C690 C689 1.387 . S
H691 C703 0.930 . S
H692 C705 0.930 . S
H693 C706 0.930 . S
H694 C710 0.959 . S
H695 C710 0.959 1_565 S
H696 C710 0.961 . S
H697 C711 0.960 . S
H698 C711 0.961 . S
H699 C711 0.959 . S
H700 C714 0.929 . S
H701 C715 0.931 . S
H702 C717 0.930 . S
C703 H691 0.930 . S
C703 C704 1.399 . S
C703 C708 1.399 . S
C704 C703 1.399 . S
C704 C705 1.376 . S
C705 H692 0.930 . S
C705 C704 1.376 . S
C705 C706 1.388 . S
C706 H693 0.930 . S
C706 C705 1.388 . S
C706 C707 1.390 . S
C707 C706 1.390 . S
C707 C708 1.394 . S
C707 C713 1.465 . S
C708 C703 1.399 . S
C708 C707 1.394 . S
C708 C709 1.516 . S
C709 C708 1.516 . S
C709 C710 1.502 . S
C709 C711 1.561 1_545 S
C709 C712 1.526 . S
C710 H694 0.959 . S
C710 H695 0.959 1_545 S
C710 H696 0.961 . S
C710 C709 1.502 . S
C711 H697 0.960 . S
C711 H698 0.961 . S
C711 H699 0.959 . S
C711 C709 1.561 1_565 S
C712 C709 1.526 . S
C712 C713 1.396 . S
C712 C717 1.390 . S
C713 C707 1.465 . S
C713 C712 1.396 . S
C713 C714 1.399 . S
C714 H700 0.929 . S
C714 C713 1.399 . S
C714 C715 1.385 . S
C715 H701 0.931 . S
C715 C714 1.385 . S
C715 C716 1.389 . S
C716 C715 1.389 . S
C716 C717 1.387 . S
C717 H702 0.930 . S
C717 C712 1.390 . S
C717 C716 1.387 . S
H718 C730 0.930 . S
H719 C732 0.930 . S
H720 C733 0.930 . S
H721 C737 0.959 . S
H722 C737 0.959 . S
H723 C737 0.961 . S
H724 C738 0.960 . S
H725 C738 0.961 . S
H726 C738 0.959 . S
H727 C741 0.929 . S
H728 C742 0.931 . S
H729 C744 0.930 . S
C730 H718 0.930 . S
C730 C731 1.399 . S
C730 C735 1.399 . S
C731 C730 1.399 . S
C731 C732 1.376 . S
C732 H719 0.930 . S
C732 C731 1.376 . S
C732 C733 1.388 . S
C733 H720 0.930 . S
C733 C732 1.388 . S
C733 C734 1.390 . S
C734 C733 1.390 . S
C734 C735 1.394 . S
C734 C740 1.465 . S
C735 C730 1.399 . S
C735 C734 1.394 . S
C735 C736 1.516 . S
C736 C735 1.516 . S
C736 C737 1.502 . S
C736 C738 1.561 . S
C736 C739 1.526 . S
C737 H721 0.959 . S
C737 H722 0.959 . S
C737 H723 0.961 . S
C737 C736 1.502 . S
C738 H724 0.960 . S
C738 H725 0.961 . S
C738 H726 0.959 . S
C738 C736 1.561 . S
C739 C736 1.526 . S
C739 C740 1.396 . S
C739 C744 1.390 . S
C740 C734 1.465 . S
C740 C739 1.396 . S
C740 C741 1.399 . S
C741 H727 0.929 . S
C741 C740 1.399 . S
C741 C742 1.385 . S
C742 H728 0.931 . S
C742 C741 1.385 . S
C742 C743 1.389 . S
C743 C742 1.389 . S
C743 C744 1.387 . S
C744 H729 0.930 . S
C744 C739 1.390 . S
C744 C743 1.387 . S
H745 C757 0.930 . S
H746 C759 0.930 . S
H747 C760 0.930 . S
H748 C764 0.959 . S
H749 C764 0.959 . S
H750 C764 0.961 . S
H751 C765 0.960 . S
H752 C765 0.961 . S
H753 C765 0.959 . S
H754 C768 0.929 . S
H755 C769 0.931 . S
H756 C771 0.930 . S
C757 H745 0.930 . S
C757 C758 1.399 . S
C757 C762 1.399 . S
C758 C757 1.399 . S
C758 C759 1.376 . S
C759 H746 0.930 . S
C759 C758 1.376 . S
C759 C760 1.388 . S
C760 H747 0.930 . S
C760 C759 1.388 . S
C760 C761 1.390 . S
C761 C760 1.390 . S
C761 C762 1.394 . S
C761 C767 1.465 . S
C762 C757 1.399 . S
C762 C761 1.394 . S
C762 C763 1.516 . S
C763 C762 1.516 . S
C763 C764 1.502 1_455 S
C763 C765 1.561 . S
C763 C766 1.526 . S
C764 H748 0.959 . S
C764 H749 0.959 . S
C764 H750 0.961 . S
C764 C763 1.502 1_655 S
C765 H751 0.960 . S
C765 H752 0.961 . S
C765 H753 0.959 . S
C765 C763 1.561 . S
C766 C763 1.526 . S
C766 C767 1.396 . S
C766 C771 1.390 . S
C767 C761 1.465 . S
C767 C766 1.396 . S
C767 C768 1.399 . S
C768 H754 0.929 . S
C768 C767 1.399 . S
C768 C769 1.385 . S
C769 H755 0.931 . S
C769 C768 1.385 . S
C769 C770 1.389 . S
C770 C769 1.389 . S
C770 C771 1.387 . S
C771 H756 0.930 . S
C771 C766 1.390 . S
C771 C770 1.387 . S
H772 C784 0.930 . S
H773 C786 0.926 1_545 S
H774 C787 0.930 . S
H775 C791 0.959 . S
H776 C791 0.959 . S
H777 C791 0.961 . S
H778 C792 0.960 . S
H779 C792 0.961 . S
H780 C792 0.959 . S
H781 C795 0.929 . S
H782 C796 0.931 . S
H783 C798 0.930 . S
C784 H772 0.930 . S
C784 C785 1.399 1_554 S
C784 C789 1.399 . S
C785 C784 1.399 1_556 S
C785 C786 1.376 . S
C786 H773 0.926 1_565 S
C786 C785 1.376 . S
C786 C787 1.388 1_565 S
C787 H774 0.930 . S
C787 C786 1.388 1_545 S
C787 C788 1.390 1_545 S
C788 C787 1.390 1_565 S
C788 C789 1.394 1_556 S
C788 C794 1.465 . S
C789 C784 1.399 . S
C789 C788 1.394 1_554 S
C789 C790 1.516 . S
C790 C789 1.516 . S
C790 C791 1.502 . S
C790 C792 1.561 1_565 S
C790 C793 1.526 . S
C791 H775 0.959 . S
C791 H776 0.959 . S
C791 H777 0.961 . S
C791 C790 1.502 . S
C792 H778 0.960 . S
C792 H779 0.961 . S
C792 H780 0.959 . S
C792 C790 1.561 1_545 S
C793 C790 1.526 . S
C793 C794 1.396 1_554 S
C793 C798 1.390 . S
C794 C788 1.465 . S
C794 C793 1.396 1_556 S
C794 C795 1.399 1_565 S
C795 H781 0.929 . S
C795 C794 1.399 1_545 S
C795 C796 1.385 . S
C796 H782 0.931 . S
C796 C795 1.385 . S
C796 C797 1.389 1_546 S
C797 C796 1.389 1_564 S
C797 C798 1.387 . S
C798 H783 0.930 . S
C798 C793 1.390 . S
C798 C797 1.387 . S
H799 C811 0.930 . S
H800 C813 0.930 . S
H801 C814 0.930 . S
H802 C818 0.959 . S
H803 C818 0.959 . S
H804 C818 0.961 . S
H805 C819 0.960 . S
H806 C819 0.961 . S
H807 C819 0.959 . S
H808 C822 0.929 . S
H809 C823 0.931 . S
H810 C825 0.930 . S
C811 H799 0.930 . S
C811 C812 1.399 . S
C811 C816 1.399 . S
C812 C811 1.399 . S
C812 C813 1.376 . S
C813 H800 0.930 . S
C813 C812 1.376 . S
C813 C814 1.388 . S
C814 H801 0.930 . S
C814 C813 1.388 . S
C814 C815 1.390 . S
C815 C814 1.390 . S
C815 C816 1.394 . S
C815 C821 1.465 . S
C816 C811 1.399 . S
C816 C815 1.394 . S
C816 C817 1.516 . S
C817 C816 1.516 . S
C817 C818 1.502 . S
C817 C819 1.561 . S
C817 C820 1.526 . S
C818 H802 0.959 . S
C818 H803 0.959 . S
C818 H804 0.961 . S
C818 C817 1.502 . S
C819 H805 0.960 . S
C819 H806 0.961 . S
C819 H807 0.959 . S
C819 C817 1.561 . S
C820 C817 1.526 . S
C820 C821 1.396 . S
C820 C825 1.390 . S
C821 C815 1.465 . S
C821 C820 1.396 . S
C821 C822 1.399 . S
C822 H808 0.929 . S
C822 C821 1.399 . S
C822 C823 1.385 . S
C823 H809 0.931 . S
C823 C822 1.385 . S
C823 C824 1.389 . S
C824 C823 1.389 . S
C824 C825 1.387 . S
C825 H810 0.930 . S
C825 C820 1.390 . S
C825 C824 1.387 . S
H826 C838 0.930 . S
H827 C840 0.930 . S
H828 C841 0.930 1_556 S
H829 C845 0.959 . S
H830 C845 0.959 . S
H831 C845 0.961 . S
H832 C846 0.960 . S
H833 C846 0.961 . S
H834 C846 0.959 . S
H835 C849 0.929 1_556 S
H836 C850 0.931 1_556 S
H837 C852 0.930 . S
C838 H826 0.930 . S
C838 C839 1.399 . S
C838 C843 1.399 . S
C839 C838 1.399 . S
C839 C840 1.376 . S
C840 H827 0.930 . S
C840 C839 1.376 . S
C840 C841 1.388 . S
C841 H828 0.930 1_554 S
C841 C840 1.388 . S
C841 C842 1.390 . S
C842 C841 1.390 . S
C842 C843 1.394 . S
C842 C848 1.465 . S
C843 C838 1.399 . S
C843 C842 1.394 . S
C843 C844 1.516 . S
C844 C843 1.516 . S
C844 C845 1.502 . S
C844 C846 1.561 . S
C844 C847 1.526 . S
C845 H829 0.959 . S
C845 H830 0.959 . S
C845 H831 0.961 . S
C845 C844 1.502 . S
C846 H832 0.960 . S
C846 H833 0.961 . S
C846 H834 0.959 . S
C846 C844 1.561 . S
C847 C844 1.526 . S
C847 C848 1.396 . S
C847 C852 1.390 . S
C848 C842 1.465 . S
C848 C847 1.396 . S
C848 C849 1.399 . S
C849 H835 0.929 1_554 S
C849 C848 1.399 . S
C849 C850 1.385 . S
C850 H836 0.931 1_554 S
C850 C849 1.385 . S
C850 C851 1.389 . S
C851 C850 1.389 . S
C851 C852 1.387 . S
C852 H837 0.930 . S
C852 C847 1.390 . S
C852 C851 1.387 . S
H853 C865 0.930 . S
H854 C867 0.930 . S
H855 C868 0.930 . S
H856 C872 0.959 . S
H857 C872 0.959 . S
H858 C872 0.961 . S
H859 C873 0.960 . S
H860 C873 0.961 . S
H861 C873 0.959 . S
H862 C876 0.929 . S
H863 C877 0.931 . S
H864 C879 0.930 . S
C865 H853 0.930 . S
C865 C866 1.399 . S
C865 C870 1.399 . S
C866 C865 1.399 . S
C866 C867 1.376 . S
C867 H854 0.930 . S
C867 C866 1.376 . S
C867 C868 1.388 . S
C868 H855 0.930 . S
C868 C867 1.388 . S
C868 C869 1.390 . S
C869 C868 1.390 . S
C869 C870 1.394 . S
C869 C875 1.465 . S
C870 C865 1.399 . S
C870 C869 1.394 . S
C870 C871 1.516 . S
C871 C870 1.516 . S
C871 C872 1.502 . S
C871 C873 1.561 . S
C871 C874 1.526 . S
C872 H856 0.959 . S
C872 H857 0.959 . S
C872 H858 0.961 . S
C872 C871 1.502 . S
C873 H859 0.960 . S
C873 H860 0.961 . S
C873 H861 0.959 . S
C873 C871 1.561 . S
C874 C871 1.526 . S
C874 C875 1.396 . S
C874 C879 1.390 . S
C875 C869 1.465 . S
C875 C874 1.396 . S
C875 C876 1.399 . S
C876 H862 0.929 . S
C876 C875 1.399 . S
C876 C877 1.385 . S
C877 H863 0.931 . S
C877 C876 1.385 . S
C877 C878 1.389 . S
C878 C877 1.389 . S
C878 C879 1.387 . S
C879 H864 0.930 . S
C879 C874 1.390 . S
C879 C878 1.387 . S
H880 C892 0.930 . S
H881 C894 0.930 . S
H882 C895 0.930 . S
H883 C899 0.959 . S
H884 C899 0.959 . S
H885 C899 0.961 . S
H886 C900 0.960 . S
H887 C900 0.961 . S
H888 C900 0.959 1_655 S
H889 C903 0.929 . S
H890 C904 0.931 . S
H891 C906 0.930 . S
C892 H880 0.930 . S
C892 C893 1.399 1_454 S
C892 C897 1.400 1_554 S
C893 C892 1.399 1_656 S
C893 C894 1.376 . S
C894 H881 0.930 . S
C894 C893 1.376 . S
C894 C895 1.388 . S
C895 H882 0.930 . S
C895 C894 1.388 . S
C895 C896 1.390 . S
C896 C895 1.390 . S
C896 C897 1.379 1_655 S
C896 C902 1.465 . S
C897 C892 1.400 1_556 S
C897 C896 1.379 1_455 S
C897 C898 1.529 1_556 S
C898 C897 1.529 1_554 S
C898 C899 1.502 . S
C898 C900 1.561 . S
C898 C901 1.526 . S
C899 H883 0.959 . S
C899 H884 0.959 . S
C899 H885 0.961 . S
C899 C898 1.502 . S
C900 H886 0.960 . S
C900 H887 0.961 . S
C900 H888 0.959 1_455 S
C900 C898 1.561 . S
C901 C898 1.526 . S
C901 C902 1.396 1_454 S
C901 C906 1.390 . S
C902 C896 1.465 . S
C902 C901 1.396 1_656 S
C902 C903 1.399 . S
C903 H889 0.929 . S
C903 C902 1.399 . S
C903 C904 1.385 . S
C904 H890 0.931 . S
C904 C903 1.385 . S
C904 C905 1.389 1_655 S
C905 C904 1.389 1_455 S
C905 C906 1.387 1_556 S
C906 H891 0.930 . S
C906 C901 1.390 . S
C906 C905 1.387 1_554 S
H907 C919 0.930 . S
H908 C921 0.930 . S
H909 C922 0.930 . S
H910 C926 0.959 . S
H911 C926 0.959 1_556 S
H912 C926 0.961 1_556 S
H913 C927 0.960 . S
H914 C927 0.961 . S
H915 C927 0.959 . S
H916 C930 0.929 . S
H917 C931 0.931 . S
H918 C933 0.930 . S
C919 H907 0.930 . S
C919 C920 1.399 . S
C919 C924 1.399 . S
C920 C919 1.399 . S
C920 C921 1.376 . S
C921 H908 0.930 . S
C921 C920 1.376 . S
C921 C922 1.388 . S
C922 H909 0.930 . S
C922 C921 1.388 . S
C922 C923 1.390 . S
C923 C922 1.390 . S
C923 C924 1.394 . S
C923 C929 1.465 . S
C924 C919 1.399 . S
C924 C923 1.394 . S
C924 C925 1.516 . S
C925 C924 1.516 . S
C925 C926 1.502 . S
C925 C927 1.561 1_554 S
C925 C928 1.526 . S
C926 H910 0.959 . S
C926 H911 0.959 1_554 S
C926 H912 0.961 1_554 S
C926 C925 1.502 . S
C927 H913 0.960 . S
C927 H914 0.961 . S
C927 H915 0.959 . S
C927 C925 1.561 1_556 S
C928 C925 1.526 . S
C928 C929 1.396 . S
C928 C933 1.390 . S
C929 C923 1.465 . S
C929 C928 1.396 . S
C929 C930 1.399 . S
C930 H916 0.929 . S
C930 C929 1.399 . S
C930 C931 1.385 . S
C931 H917 0.931 . S
C931 C930 1.385 . S
C931 C932 1.389 . S
C932 C931 1.389 . S
C932 C933 1.387 . S
C933 H918 0.930 . S
C933 C928 1.390 . S
C933 C932 1.387 . S
H934 C946 0.930 . S
H935 C948 0.930 . S
H936 C949 0.930 . S
H937 C953 0.959 . S
H938 C953 0.959 . S
H939 C953 0.961 . S
H940 C954 0.960 . S
H941 C954 0.961 . S
H942 C954 0.959 1_655 S
H943 C957 0.929 . S
H944 C958 0.931 . S
H945 C960 0.930 . S
C946 H934 0.930 . S
C946 C947 1.399 . S
C946 C951 1.399 . S
C947 C946 1.399 . S
C947 C948 1.376 . S
C948 H935 0.930 . S
C948 C947 1.376 . S
C948 C949 1.388 . S
C949 H936 0.930 . S
C949 C948 1.388 . S
C949 C950 1.390 . S
C950 C949 1.390 . S
C950 C951 1.394 . S
C950 C956 1.465 . S
C951 C946 1.399 . S
C951 C950 1.394 . S
C951 C952 1.516 . S
C952 C951 1.516 . S
C952 C953 1.502 . S
C952 C954 1.561 . S
C952 C955 1.526 . S
C953 H937 0.959 . S
C953 H938 0.959 . S
C953 H939 0.961 . S
C953 C952 1.502 . S
C954 H940 0.960 . S
C954 H941 0.961 . S
C954 H942 0.959 1_455 S
C954 C952 1.561 . S
C955 C952 1.526 . S
C955 C956 1.396 . S
C955 C960 1.390 . S
C956 C950 1.465 . S
C956 C955 1.396 . S
C956 C957 1.399 . S
C957 H943 0.929 . S
C957 C956 1.399 . S
C957 C958 1.385 . S
C958 H944 0.931 . S
C958 C957 1.385 . S
C958 C959 1.389 . S
C959 C958 1.389 . S
C959 C960 1.387 . S
C960 H945 0.930 . S
C960 C955 1.390 . S
C960 C959 1.387 . S
H961 C973 0.930 . S
H962 C975 0.930 . S
H963 C976 0.930 . S
H964 C980 0.959 . S
H965 C980 0.959 . S
H966 C980 0.961 . S
H967 C981 0.960 . S
H968 C981 0.961 . S
H969 C981 0.959 . S
H970 C984 0.929 . S
H971 C985 0.931 . S
H972 C987 0.930 . S
C973 H961 0.930 . S
C973 C974 1.399 . S
C973 C978 1.399 . S
C974 C973 1.399 . S
C974 C975 1.376 . S
C975 H962 0.930 . S
C975 C974 1.376 . S
C975 C976 1.388 . S
C976 H963 0.930 . S
C976 C975 1.388 . S
C976 C977 1.390 . S
C977 C976 1.390 . S
C977 C978 1.394 . S
C977 C983 1.465 . S
C978 C973 1.399 . S
C978 C977 1.394 . S
C978 C979 1.516 . S
C979 C978 1.516 . S
C979 C980 1.502 . S
C979 C981 1.561 . S
C979 C982 1.526 . S
C980 H964 0.959 . S
C980 H965 0.959 . S
C980 H966 0.961 . S
C980 C979 1.502 . S
C981 H967 0.960 . S
C981 H968 0.961 . S
C981 H969 0.959 . S
C981 C979 1.561 . S
C982 C979 1.526 . S
C982 C983 1.396 . S
C982 C987 1.390 . S
C983 C977 1.465 . S
C983 C982 1.396 . S
C983 C984 1.399 . S
C984 H970 0.929 . S
C984 C983 1.399 . S
C984 C985 1.385 . S
C985 H971 0.931 . S
C985 C984 1.385 . S
C985 C986 1.389 . S
C986 C985 1.389 . S
C986 C987 1.387 . S
C987 H972 0.930 . S
C987 C982 1.390 . S
C987 C986 1.387 . S
C353 C29 1.570 . S
C365 C259 1.442 . S
C380 C49 1.428 . S
C392 C293 1.313 1_565 S
C419 C305 1.412 . S
C407 C93 1.483 . S
C434 C119 1.462 . S
C446 C339 1.313 . S
C473 C296 1.457 . S
C461 C17 1.462 . S
C500 C276 1.383 . S
C488 C61 1.475 . S
C527 C323 1.414 . S
C515 C81 1.439 . S
C554 C314 1.481 . S
C542 C125 1.484 . S
C569 C23 1.477 . S
C581 C322 1.418 . S
C608 C284 1.409 . S
C596 C87 1.440 . S
C623 C113 1.492 . S
C635 C260 1.475 . S
C650 C55 1.480 . S
C662 C317 1.383 . S
C689 C275 1.590 . S
C677 C157 1.668 . S
C704 C189 1.550 . S
C716 C297 1.602 . S
C731 C221 1.704 . S
C743 C302 1.506 . S
C758 C253 1.537 . S
C770 C335 1.541 . S
C785 C145 1.734 . S
C797 C280 1.648 . S
C824 C272 1.547 . S
C812 C183 1.583 . S
C851 C326 1.532 . S
C839 C209 1.702 . S
C878 C318 1.535 . S
C866 C247 1.571 . S
C893 C151 1.669 . S
C905 C338 1.561 . S
C932 C281 1.561 . S
C920 C215 1.690 . S
C959 C263 1.571 . S
C947 C241 1.618 . S
C974 C177 1.631 . S
C986 C301 1.598 . S
