# Generated by pormake.
# Topology eea, (3,6)-cn, num edge types: 1
# Building blocks:
#     Node 0, Type 0, BuildingBlock: KAKCAD_clean_linker_0, # of connection points: 3
#     Node 1, Type 0, BuildingBlock: KAKCAD_clean_linker_0, # of connection points: 3
#     Node 2, Type 0, BuildingBlock: KAKCAD_clean_linker_0, # of connection points: 3
#     Node 3, Type 0, BuildingBlock: KAKCAD_clean_linker_0, # of connection points: 3
#     Node 4, Type 0, BuildingBlock: KAKCAD_clean_linker_0, # of connection points: 3
#     Node 5, Type 0, BuildingBlock: KAKCAD_clean_linker_0, # of connection points: 3
#     Node 6, Type 0, BuildingBlock: KAKCAD_clean_linker_0, # of connection points: 3
#     Node 7, Type 0, BuildingBlock: KAKCAD_clean_linker_0, # of connection points: 3
#     Node 8, Type 0, BuildingBlock: KAKCAD_clean_linker_0, # of connection points: 3
#     Node 9, Type 0, BuildingBlock: KAKCAD_clean_linker_0, # of connection points: 3
#     Node 10, Type 0, BuildingBlock: KAKCAD_clean_linker_0, # of connection points: 3
#     Node 11, Type 0, BuildingBlock: KAKCAD_clean_linker_0, # of connection points: 3
#     Node 12, Type 0, BuildingBlock: KAKCAD_clean_linker_0, # of connection points: 3
#     Node 13, Type 0, BuildingBlock: KAKCAD_clean_linker_0, # of connection points: 3
#     Node 14, Type 0, BuildingBlock: KAKCAD_clean_linker_0, # of connection points: 3
#     Node 15, Type 0, BuildingBlock: KAKCAD_clean_linker_0, # of connection points: 3
#     Node 16, Type 0, BuildingBlock: KAKCAD_clean_linker_0, # of connection points: 3
#     Node 17, Type 0, BuildingBlock: KAKCAD_clean_linker_0, # of connection points: 3
#     Node 18, Type 1, BuildingBlock: CUKXOW_clean_sbu_0, # of connection points: 6
#     Node 19, Type 1, BuildingBlock: CUKXOW_clean_sbu_0, # of connection points: 6
#     Node 20, Type 1, BuildingBlock: CUKXOW_clean_sbu_0, # of connection points: 6
#     Node 21, Type 1, BuildingBlock: CUKXOW_clean_sbu_0, # of connection points: 6
#     Node 22, Type 1, BuildingBlock: CUKXOW_clean_sbu_0, # of connection points: 6
#     Node 23, Type 1, BuildingBlock: CUKXOW_clean_sbu_0, # of connection points: 6
#     Node 24, Type 1, BuildingBlock: CUKXOW_clean_sbu_0, # of connection points: 6
#     Node 25, Type 1, BuildingBlock: CUKXOW_clean_sbu_0, # of connection points: 6
#     Node 26, Type 1, BuildingBlock: CUKXOW_clean_sbu_0, # of connection points: 6
#     Edge 27, Type (0, 1), BuildingBlock: TEMPAE_clean_linker_10, # of connection points: 2
#     Edge 28, Type (0, 1), BuildingBlock: TEMPAE_clean_linker_10, # of connection points: 2
#     Edge 29, Type (0, 1), BuildingBlock: TEMPAE_clean_linker_10, # of connection points: 2
#     Edge 30, Type (0, 1), BuildingBlock: TEMPAE_clean_linker_10, # of connection points: 2
#     Edge 31, Type (0, 1), BuildingBlock: TEMPAE_clean_linker_10, # of connection points: 2
#     Edge 32, Type (0, 1), BuildingBlock: TEMPAE_clean_linker_10, # of connection points: 2
#     Edge 33, Type (0, 1), BuildingBlock: TEMPAE_clean_linker_10, # of connection points: 2
#     Edge 34, Type (0, 1), BuildingBlock: TEMPAE_clean_linker_10, # of connection points: 2
#     Edge 35, Type (0, 1), BuildingBlock: TEMPAE_clean_linker_10, # of connection points: 2
#     Edge 36, Type (0, 1), BuildingBlock: TEMPAE_clean_linker_10, # of connection points: 2
#     Edge 37, Type (0, 1), BuildingBlock: TEMPAE_clean_linker_10, # of connection points: 2
#     Edge 38, Type (0, 1), BuildingBlock: TEMPAE_clean_linker_10, # of connection points: 2
#     Edge 39, Type (0, 1), BuildingBlock: TEMPAE_clean_linker_10, # of connection points: 2
#     Edge 40, Type (0, 1), BuildingBlock: TEMPAE_clean_linker_10, # of connection points: 2
#     Edge 41, Type (0, 1), BuildingBlock: TEMPAE_clean_linker_10, # of connection points: 2
#     Edge 42, Type (0, 1), BuildingBlock: TEMPAE_clean_linker_10, # of connection points: 2
#     Edge 43, Type (0, 1), BuildingBlock: TEMPAE_clean_linker_10, # of connection points: 2
#     Edge 44, Type (0, 1), BuildingBlock: TEMPAE_clean_linker_10, # of connection points: 2
#     Edge 45, Type (0, 1), BuildingBlock: TEMPAE_clean_linker_10, # of connection points: 2
#     Edge 46, Type (0, 1), BuildingBlock: TEMPAE_clean_linker_10, # of connection points: 2
#     Edge 47, Type (0, 1), BuildingBlock: TEMPAE_clean_linker_10, # of connection points: 2
#     Edge 48, Type (0, 1), BuildingBlock: TEMPAE_clean_linker_10, # of connection points: 2
#     Edge 49, Type (0, 1), BuildingBlock: TEMPAE_clean_linker_10, # of connection points: 2
#     Edge 50, Type (0, 1), BuildingBlock: TEMPAE_clean_linker_10, # of connection points: 2
#     Edge 51, Type (0, 1), BuildingBlock: TEMPAE_clean_linker_10, # of connection points: 2
#     Edge 52, Type (0, 1), BuildingBlock: TEMPAE_clean_linker_10, # of connection points: 2
#     Edge 53, Type (0, 1), BuildingBlock: TEMPAE_clean_linker_10, # of connection points: 2
#     Edge 54, Type (0, 1), BuildingBlock: TEMPAE_clean_linker_10, # of connection points: 2
#     Edge 55, Type (0, 1), BuildingBlock: TEMPAE_clean_linker_10, # of connection points: 2
#     Edge 56, Type (0, 1), BuildingBlock: TEMPAE_clean_linker_10, # of connection points: 2
#     Edge 57, Type (0, 1), BuildingBlock: TEMPAE_clean_linker_10, # of connection points: 2
#     Edge 58, Type (0, 1), BuildingBlock: TEMPAE_clean_linker_10, # of connection points: 2
#     Edge 59, Type (0, 1), BuildingBlock: TEMPAE_clean_linker_10, # of connection points: 2
#     Edge 60, Type (0, 1), BuildingBlock: TEMPAE_clean_linker_10, # of connection points: 2
#     Edge 61, Type (0, 1), BuildingBlock: TEMPAE_clean_linker_10, # of connection points: 2
#     Edge 62, Type (0, 1), BuildingBlock: TEMPAE_clean_linker_10, # of connection points: 2
#     Edge 63, Type (0, 1), BuildingBlock: TEMPAE_clean_linker_10, # of connection points: 2
#     Edge 64, Type (0, 1), BuildingBlock: TEMPAE_clean_linker_10, # of connection points: 2
#     Edge 65, Type (0, 1), BuildingBlock: TEMPAE_clean_linker_10, # of connection points: 2
#     Edge 66, Type (0, 1), BuildingBlock: TEMPAE_clean_linker_10, # of connection points: 2
#     Edge 67, Type (0, 1), BuildingBlock: TEMPAE_clean_linker_10, # of connection points: 2
#     Edge 68, Type (0, 1), BuildingBlock: TEMPAE_clean_linker_10, # of connection points: 2
#     Edge 69, Type (0, 1), BuildingBlock: TEMPAE_clean_linker_10, # of connection points: 2
#     Edge 70, Type (0, 1), BuildingBlock: TEMPAE_clean_linker_10, # of connection points: 2
#     Edge 71, Type (0, 1), BuildingBlock: TEMPAE_clean_linker_10, # of connection points: 2
#     Edge 72, Type (0, 1), BuildingBlock: TEMPAE_clean_linker_10, # of connection points: 2
#     Edge 73, Type (0, 1), BuildingBlock: TEMPAE_clean_linker_10, # of connection points: 2
#     Edge 74, Type (0, 1), BuildingBlock: TEMPAE_clean_linker_10, # of connection points: 2
#     Edge 75, Type (0, 1), BuildingBlock: TEMPAE_clean_linker_10, # of connection points: 2
#     Edge 76, Type (0, 1), BuildingBlock: TEMPAE_clean_linker_10, # of connection points: 2
#     Edge 77, Type (0, 1), BuildingBlock: TEMPAE_clean_linker_10, # of connection points: 2
#     Edge 78, Type (0, 1), BuildingBlock: TEMPAE_clean_linker_10, # of connection points: 2
#     Edge 79, Type (0, 1), BuildingBlock: TEMPAE_clean_linker_10, # of connection points: 2
#     Edge 80, Type (0, 1), BuildingBlock: TEMPAE_clean_linker_10, # of connection points: 2
# Relax obj value: 0.017
# Max RMSD: 0.127
# Mean RMSD: 0.054
data_MOF--net-eea--node1-CUKXOW_clean_sbu_0--node2-KAKCAD_clean_linker_0--edge1-TEMPAE_clean_linker_10
_symmetry_space_group_name_H-M    P1
_symmetry_Int_Tables_number       1
_symmetry_cell_setting            triclinic
loop_
_symmetry_equiv_pos_as_xyz
'x, y, z'
_cell_length_a     68.118385
_cell_length_b     65.017636
_cell_length_c     74.413634
_cell_angle_alpha  93.314478
_cell_angle_beta   93.087954
_cell_angle_gamma 119.91903
loop_
_atom_site_label
_atom_site_type_symbol
_atom_site_fract_x
_atom_site_fract_y
_atom_site_fract_z
_atom_type_partial_charge
C0 C 0.27174 0.16584 0.50963 0.0
C1 C 0.2908 0.16378 0.51475 0.0
C2 C 0.2632 0.16161 0.49147 0.0
C3 C 0.27338 0.15496 0.47815 0.0
C4 C 0.29269 0.15335 0.48324 0.0
C5 C 0.30139 0.15784 0.50136 0.0
C6 C 0.26329 0.14871 0.45911 0.0
C7 C 0.25682 0.1634 0.4506 0.0
C8 C 0.24648 0.1571 0.43276 0.0
C9 C 0.24254 0.1357 0.4235 0.0
C10 C 0.24896 0.12082 0.43184 0.0
C11 C 0.25945 0.12756 0.44961 0.0
C12 C 0.24403 0.0978 0.42231 0.0
C13 C 0.2227 0.08253 0.41272 0.0
C14 C 0.26034 0.09058 0.4233 0.0
C15 C 0.25531 0.0684 0.41508 0.0
C16 C 0.23383 0.05292 0.40575 0.0
C17 C 0.23971 0.17282 0.42387 0.0
C18 C 0.22996 0.18408 0.43361 0.0
C19 C 0.24305 0.17681 0.40562 0.0
C20 C 0.23683 0.19174 0.39733 0.0
C21 C 0.22724 0.20309 0.40713 0.0
C22 C 0.22386 0.1991 0.42535 0.0
C23 C 0.21764 0.06032 0.40455 0.0
H24 H 0.26334 0.1705 0.51969 0.0
H25 H 0.2482 0.16283 0.48791 0.0
H26 H 0.30094 0.14841 0.47321 0.0
H27 H 0.31598 0.15593 0.50496 0.0
H28 H 0.26025 0.17999 0.45783 0.0
H29 H 0.26386 0.11586 0.45634 0.0
H30 H 0.23432 0.13051 0.40982 0.0
H31 H 0.20968 0.08745 0.41194 0.0
H32 H 0.27703 0.10211 0.4304 0.0
H33 H 0.26828 0.06341 0.416 0.0
H34 H 0.22678 0.18108 0.44759 0.0
H35 H 0.25083 0.16871 0.3978 0.0
H36 H 0.20083 0.04869 0.39769 0.0
H37 H 0.21618 0.20733 0.43316 0.0
H38 H 0.23988 0.19471 0.38333 0.0
C39 C 0.86734 0.18995 0.4997 0.0
C40 C 0.85558 0.17296 0.51175 0.0
C41 C 0.87268 0.18312 0.48331 0.0
C42 C 0.86648 0.1592 0.47872 0.0
C43 C 0.85463 0.14228 0.49079 0.0
C44 C 0.84922 0.14906 0.50705 0.0
C45 C 0.87301 0.15178 0.46183 0.0
C46 C 0.89463 0.16609 0.45598 0.0
C47 C 0.90154 0.15811 0.44099 0.0
C48 C 0.88675 0.13545 0.43192 0.0
C49 C 0.86479 0.12103 0.43723 0.0
C50 C 0.85803 0.12964 0.45204 0.0
C51 C 0.84904 0.09693 0.42753 0.0
C52 C 0.84938 0.09235 0.40886 0.0
C53 C 0.83351 0.07819 0.4369 0.0
C54 C 0.81857 0.05574 0.42786 0.0
C55 C 0.8191 0.05105 0.40925 0.0
C56 C 0.92417 0.17356 0.43463 0.0
C57 C 0.9313 0.19742 0.43203 0.0
C58 C 0.93839 0.16439 0.43052 0.0
C59 C 0.95919 0.17871 0.42363 0.0
C60 C 0.96599 0.20235 0.42052 0.0
C61 C 0.95195 0.21163 0.42494 0.0
C62 C 0.83485 0.06968 0.39991 0.0
H63 H 0.87237 0.20848 0.50294 0.0
H64 H 0.88163 0.19657 0.47423 0.0
H65 H 0.85005 0.12382 0.48794 0.0
H66 H 0.84061 0.13562 0.51622 0.0
H67 H 0.90644 0.18313 0.46344 0.0
H68 H 0.84097 0.11916 0.456 0.0
H69 H 0.89245 0.12917 0.42066 0.0
H70 H 0.86075 0.10628 0.40102 0.0
H71 H 0.83292 0.0807 0.45133 0.0
H72 H 0.80647 0.04214 0.43556 0.0
H73 H 0.9206 0.20489 0.43501 0.0
H74 H 0.93336 0.1461 0.43255 0.0
H75 H 0.83615 0.06683 0.38566 0.0
H76 H 0.95689 0.22986 0.42279 0.0
H77 H 0.96965 0.17109 0.42024 0.0
C78 C 0.88985 0.71543 0.5137 0.0
C79 C 0.86719 0.69819 0.51568 0.0
C80 C 0.89528 0.72819 0.4985 0.0
C81 C 0.87822 0.72387 0.48483 0.0
C82 C 0.85571 0.70599 0.48649 0.0
C83 C 0.85025 0.69339 0.50175 0.0
C84 C 0.88372 0.73855 0.46925 0.0
C85 C 0.90408 0.74561 0.46122 0.0
C86 C 0.90964 0.76003 0.44683 0.0
C87 C 0.89455 0.76738 0.44046 0.0
C88 C 0.87401 0.76022 0.44814 0.0
C89 C 0.86875 0.7459 0.46253 0.0
C90 C 0.85787 0.76743 0.44095 0.0
C91 C 0.86548 0.79129 0.43805 0.0
C92 C 0.8348 0.75035 0.43663 0.0
C93 C 0.81968 0.75691 0.42922 0.0
C94 C 0.82725 0.78078 0.42616 0.0
C95 C 0.931 0.76704 0.43823 0.0
C96 C 0.95147 0.77407 0.44881 0.0
C97 C 0.93101 0.76657 0.41932 0.0
C98 C 0.951 0.77288 0.41118 0.0
C99 C 0.97144 0.77978 0.42174 0.0
C100 C 0.97147 0.78038 0.44066 0.0
C101 C 0.85031 0.79793 0.43085 0.0
H102 H 0.90337 0.71936 0.52404 0.0
H103 H 0.91278 0.74194 0.49774 0.0
H104 H 0.8422 0.70188 0.47607 0.0
H105 H 0.83258 0.68044 0.50288 0.0
H106 H 0.91537 0.73938 0.46589 0.0
H107 H 0.85319 0.741 0.46878 0.0
H108 H 0.89867 0.77856 0.4294 0.0
H109 H 0.88316 0.80485 0.44148 0.0
H110 H 0.82856 0.73178 0.43857 0.0
H111 H 0.80216 0.74313 0.42548 0.0
H112 H 0.95206 0.77484 0.46342 0.0
H113 H 0.91549 0.76099 0.41077 0.0
H114 H 0.85668 0.81653 0.42902 0.0
H115 H 0.9869 0.78542 0.44916 0.0
H116 H 0.95046 0.7725 0.39659 0.0
C117 C 0.1285 0.25325 0.47771 0.0
C118 C 0.12724 0.27408 0.47672 0.0
C119 C 0.12357 0.24146 0.4934 0.0
C120 C 0.11694 0.25007 0.50824 0.0
C121 C 0.11512 0.27056 0.50707 0.0
C122 C 0.1204 0.28256 0.4915 0.0
C123 C 0.11243 0.23806 0.52509 0.0
C124 C 0.12835 0.23286 0.5332 0.0
C125 C 0.12463 0.22227 0.54956 0.0
C126 C 0.10441 0.21635 0.55747 0.0
C127 C 0.08839 0.22153 0.54956 0.0
C128 C 0.09258 0.23249 0.53339 0.0
C129 C 0.06765 0.21615 0.55855 0.0
C130 C 0.05501 0.19426 0.56581 0.0
C131 C 0.06077 0.23319 0.56042 0.0
C132 C 0.04189 0.22862 0.56964 0.0
C133 C 0.02943 0.20686 0.57711 0.0
C134 C 0.14217 0.2182 0.55877 0.0
C135 C 0.1545 0.21021 0.54883 0.0
C136 C 0.14679 0.22245 0.5777 0.0
C137 C 0.16301 0.21843 0.58648 0.0
C138 C 0.17517 0.21027 0.57657 0.0
C139 C 0.1709 0.20638 0.55764 0.0
C140 C 0.03605 0.18963 0.57495 0.0
H141 H 0.13391 0.24649 0.46653 0.0
H142 H 0.12497 0.22561 0.49395 0.0
H143 H 0.11017 0.27762 0.51838 0.0
H144 H 0.11926 0.29856 0.49102 0.0
H145 H 0.14405 0.23798 0.52711 0.0
H146 H 0.08022 0.23638 0.5271 0.0
H147 H 0.10127 0.20803 0.57001 0.0
H148 H 0.0598 0.18071 0.56443 0.0
H149 H 0.07029 0.2503 0.55509 0.0
H150 H 0.03704 0.24213 0.57094 0.0
H151 H 0.15122 0.20654 0.53426 0.0
H152 H 0.13805 0.22917 0.58577 0.0
H153 H 0.02686 0.17276 0.58066 0.0
H154 H 0.17992 0.1999 0.54968 0.0
H155 H 0.16623 0.22195 0.60107 0.0
C156 C 0.6997 0.82225 0.50502 0.0
C157 C 0.70937 0.84118 0.49406 0.0
C158 C 0.70589 0.8262 0.52368 0.0
C159 C 0.72179 0.84917 0.53174 0.0
C160 C 0.73168 0.86797 0.52072 0.0
C161 C 0.72552 0.86404 0.50214 0.0
C162 C 0.72809 0.85379 0.55159 0.0
C163 C 0.73259 0.83828 0.56102 0.0
C164 C 0.7397 0.84328 0.57966 0.0
C165 C 0.74282 0.86453 0.58863 0.0
C166 C 0.73886 0.88057 0.57935 0.0
C167 C 0.73069 0.87447 0.56096 0.0
C168 C 0.74478 0.90434 0.58842 0.0
C169 C 0.74367 0.90768 0.60713 0.0
C170 C 0.75281 0.92435 0.57849 0.0
C171 C 0.75969 0.9469 0.58696 0.0
C172 C 0.75965 0.95045 0.60578 0.0
C173 C 0.74468 0.82681 0.58957 0.0
C174 C 0.73239 0.80206 0.5846 0.0
C175 C 0.76193 0.83567 0.604 0.0
C176 C 0.76663 0.82029 0.61321 0.0
C177 C 0.75481 0.79562 0.6079 0.0
C178 C 0.73758 0.78675 0.59345 0.0
C179 C 0.75132 0.93044 0.61573 0.0
H180 H 0.68734 0.8044 0.49918 0.0
H181 H 0.69793 0.81137 0.53184 0.0
H182 H 0.74426 0.8858 0.52646 0.0
H183 H 0.73308 0.87908 0.49414 0.0
H184 H 0.73136 0.82278 0.55361 0.0
H185 H 0.72645 0.88596 0.55376 0.0
H186 H 0.74878 0.86883 0.60284 0.0
H187 H 0.73714 0.89279 0.61529 0.0
H188 H 0.75441 0.9229 0.56415 0.0
H189 H 0.76526 0.96158 0.57864 0.0
H190 H 0.71869 0.79438 0.57382 0.0
H191 H 0.7722 0.85458 0.60811 0.0
H192 H 0.75112 0.9323 0.63025 0.0
H193 H 0.72829 0.76799 0.58867 0.0
H194 H 0.77969 0.8279 0.62447 0.0
C195 C 0.11309 0.83431 0.49055 0.0
C196 C 0.13534 0.83998 0.48739 0.0
C197 C 0.10809 0.83865 0.50787 0.0
C198 C 0.12523 0.84871 0.52238 0.0
C199 C 0.1473 0.85378 0.51928 0.0
C200 C 0.15232 0.84957 0.50201 0.0
C201 C 0.12042 0.85475 0.54057 0.0
C202 C 0.10011 0.83929 0.54783 0.0
C203 C 0.09558 0.84516 0.56501 0.0
C204 C 0.11176 0.8667 0.57497 0.0
C205 C 0.13218 0.88233 0.56794 0.0
C206 C 0.13624 0.87627 0.55068 0.0
C207 C 0.14927 0.90509 0.57848 0.0
C208 C 0.14242 0.91919 0.5883 0.0
C209 C 0.17263 0.91307 0.57853 0.0
C210 C 0.18878 0.93482 0.5879 0.0
C211 C 0.18194 0.94902 0.59753 0.0
C212 C 0.07393 0.82891 0.57255 0.0
C213 C 0.05323 0.81745 0.56148 0.0
C214 C 0.07374 0.82514 0.59097 0.0
C215 C 0.05331 0.81059 0.59822 0.0
C216 C 0.03257 0.79933 0.5872 0.0
C217 C 0.03279 0.8028 0.56872 0.0
C218 C 0.1586 0.9409 0.59777 0.0
H219 H 0.09956 0.82665 0.47963 0.0
H220 H 0.09094 0.83468 0.50978 0.0
H221 H 0.16082 0.86121 0.53022 0.0
H222 H 0.16969 0.85443 0.50004 0.0
H223 H 0.08803 0.82243 0.54027 0.0
H224 H 0.15158 0.88867 0.54491 0.0
H225 H 0.10843 0.87137 0.58821 0.0
H226 H 0.12458 0.91373 0.58834 0.0
H227 H 0.17847 0.90243 0.57138 0.0
H228 H 0.20666 0.94048 0.58771 0.0
H229 H 0.05275 0.82014 0.54728 0.0
H230 H 0.0894 0.83342 0.59982 0.0
H231 H 0.15285 0.95162 0.60491 0.0
H232 H 0.01716 0.79417 0.55982 0.0
H233 H 0.05374 0.80853 0.61254 0.0
C234 C 0.94418 0.49808 0.8323 0.0
C235 C 0.96229 0.49518 0.83885 0.0
C236 C 0.93709 0.49383 0.81382 0.0
C237 C 0.9478 0.48635 0.80156 0.0
C238 C 0.9661 0.48375 0.80808 0.0
C239 C 0.97335 0.48824 0.82654 0.0
C240 C 0.93916 0.48025 0.78215 0.0
C241 C 0.9338 0.49529 0.77291 0.0
C242 C 0.92362 0.48869 0.75497 0.0
C243 C 0.9193 0.4668 0.74631 0.0
C244 C 0.92523 0.4519 0.75519 0.0
C245 C 0.93516 0.45878 0.77312 0.0
C246 C 0.92033 0.42875 0.74594 0.0
C247 C 0.89938 0.41382 0.7357 0.0
C248 C 0.93646 0.42131 0.74741 0.0
C249 C 0.93169 0.39936 0.73889 0.0
C250 C 0.91067 0.38437 0.72874 0.0
C251 C 0.91688 0.50421 0.74551 0.0
C252 C 0.90999 0.51835 0.75525 0.0
C253 C 0.91681 0.50471 0.72661 0.0
C254 C 0.90938 0.51829 0.7177 0.0
C255 C 0.90249 0.53242 0.72746 0.0
C256 C 0.9033 0.53253 0.74641 0.0
C257 C 0.89461 0.39189 0.72721 0.0
H258 H 0.93545 0.50353 0.84149 0.0
H259 H 0.92279 0.49576 0.80918 0.0
H260 H 0.97472 0.47812 0.79891 0.0
H261 H 0.98723 0.48567 0.83124 0.0
H262 H 0.93776 0.51224 0.77979 0.0
H263 H 0.9389 0.44691 0.7803 0.0
H264 H 0.91109 0.4611 0.73266 0.0
H265 H 0.88645 0.41885 0.73457 0.0
H266 H 0.95286 0.43256 0.75503 0.0
H267 H 0.94452 0.39419 0.74015 0.0
H268 H 0.90936 0.51829 0.76974 0.0
H269 H 0.92245 0.49458 0.71857 0.0
H270 H 0.87809 0.38057 0.71978 0.0
H271 H 0.89873 0.54355 0.75456 0.0
H272 H 0.90876 0.51734 0.7031 0.0
C273 C 0.54008 0.50174 0.83868 0.0
C274 C 0.53468 0.48639 0.85245 0.0
C275 C 0.54314 0.49463 0.82146 0.0
C276 C 0.54049 0.47192 0.81768 0.0
C277 C 0.53538 0.45671 0.83152 0.0
C278 C 0.53264 0.46394 0.84878 0.0
C279 C 0.54252 0.46379 0.79925 0.0
C280 C 0.56134 0.4782 0.78998 0.0
C281 C 0.56357 0.47028 0.77266 0.0
C282 C 0.54653 0.44781 0.76455 0.0
C283 C 0.52742 0.43327 0.77356 0.0
C284 C 0.52564 0.44143 0.79095 0.0
C285 C 0.50939 0.40957 0.76484 0.0
C286 C 0.50248 0.40641 0.74624 0.0
C287 C 0.49894 0.38991 0.77504 0.0
C288 C 0.48203 0.36765 0.76685 0.0
C289 C 0.47535 0.36451 0.74825 0.0
C290 C 0.5839 0.48525 0.76316 0.0
C291 C 0.59265 0.50995 0.76338 0.0
C292 C 0.5948 0.47493 0.75388 0.0
C293 C 0.61401 0.48898 0.74505 0.0
C294 C 0.62279 0.51369 0.74529 0.0
C295 C 0.61187 0.52402 0.75453 0.0
C296 C 0.48572 0.3841 0.73803 0.0
H297 H 0.5418 0.51917 0.84122 0.0
H298 H 0.54701 0.50663 0.81099 0.0
H299 H 0.53343 0.43918 0.82897 0.0
H300 H 0.52828 0.4517 0.85912 0.0
H301 H 0.57459 0.49527 0.79654 0.0
H302 H 0.51082 0.43062 0.79794 0.0
H303 H 0.5482 0.44161 0.7512 0.0
H304 H 0.50984 0.42124 0.73804 0.0
H305 H 0.50408 0.39159 0.78933 0.0
H306 H 0.4745 0.35277 0.775 0.0
H307 H 0.58452 0.5184 0.77028 0.0
H308 H 0.58864 0.45599 0.75363 0.0
H309 H 0.48068 0.38222 0.7237 0.0
H310 H 0.61835 0.54304 0.7551 0.0
H311 H 0.62189 0.48045 0.73789 0.0
C312 C 0.54776 0.03947 0.83935 0.0
C313 C 0.52586 0.02095 0.84191 0.0
C314 C 0.55248 0.04868 0.8226 0.0
C315 C 0.53538 0.03961 0.8081 0.0
C316 C 0.51367 0.02068 0.81053 0.0
C317 C 0.50897 0.01141 0.82723 0.0
C318 C 0.5399 0.05026 0.79064 0.0
C319 C 0.56012 0.056 0.78286 0.0
C320 C 0.56427 0.06593 0.76629 0.0
C321 C 0.54812 0.07019 0.75746 0.0
C322 C 0.52815 0.06542 0.76536 0.0
C323 C 0.52416 0.05527 0.78192 0.0
C324 C 0.51206 0.07208 0.75683 0.0
C325 C 0.52025 0.09297 0.74792 0.0
C326 C 0.48848 0.05809 0.75802 0.0
C327 C 0.47358 0.06509 0.75086 0.0
C328 C 0.48188 0.08596 0.74205 0.0
C329 C 0.586 0.07297 0.75857 0.0
C330 C 0.60666 0.08906 0.76871 0.0
C331 C 0.58619 0.06449 0.74084 0.0
C332 C 0.60681 0.07205 0.73333 0.0
C333 C 0.62742 0.08859 0.74333 0.0
C334 C 0.62722 0.097 0.76107 0.0
C335 C 0.50529 0.09971 0.74047 0.0
H336 H 0.56105 0.04742 0.85045 0.0
H337 H 0.56931 0.06343 0.82117 0.0
H338 H 0.50027 0.01306 0.7995 0.0
H339 H 0.49205 0.99687 0.8287 0.0
H340 H 0.57252 0.05246 0.78954 0.0
H341 H 0.50919 0.05206 0.78846 0.0
H342 H 0.55145 0.07776 0.74461 0.0
H343 H 0.53829 0.10452 0.74705 0.0
H344 H 0.48146 0.04167 0.76445 0.0
H345 H 0.45552 0.0541 0.75205 0.0
H346 H 0.60685 0.09593 0.78237 0.0
H347 H 0.57041 0.05206 0.73281 0.0
H348 H 0.51207 0.116 0.73387 0.0
H349 H 0.64298 0.10972 0.769 0.0
H350 H 0.60664 0.06544 0.71959 0.0
C351 C 0.81471 0.62377 0.82391 0.0
C352 C 0.81003 0.64219 0.82137 0.0
C353 C 0.80945 0.61208 0.83958 0.0
C354 C 0.7995 0.6186 0.85319 0.0
C355 C 0.79485 0.6371 0.85068 0.0
C356 C 0.79998 0.64872 0.83487 0.0
C357 C 0.79372 0.60571 0.86972 0.0
C358 C 0.80833 0.59862 0.87762 0.0
C359 C 0.80243 0.58494 0.89244 0.0
C360 C 0.7818 0.5789 0.89969 0.0
C361 C 0.76722 0.58635 0.89229 0.0
C362 C 0.77327 0.59966 0.87726 0.0
C363 C 0.74561 0.58016 0.90018 0.0
C364 C 0.73142 0.55706 0.90509 0.0
C365 C 0.73913 0.59742 0.90302 0.0
C366 C 0.71905 0.5918 0.91081 0.0
C367 C 0.70495 0.56876 0.91585 0.0
C368 C 0.81781 0.57689 0.90016 0.0
C369 C 0.8296 0.56972 0.88876 0.0
C370 C 0.821 0.57647 0.91895 0.0
C371 C 0.83568 0.56918 0.92613 0.0
C372 C 0.84765 0.56238 0.91472 0.0
C373 C 0.84446 0.56269 0.89597 0.0
C374 C 0.71127 0.5514 0.91279 0.0
H375 H 0.82199 0.61799 0.81356 0.0
H376 H 0.81277 0.59755 0.84083 0.0
H377 H 0.78741 0.64273 0.86098 0.0
H378 H 0.79627 0.66292 0.83326 0.0
H379 H 0.82453 0.60402 0.8723 0.0
H380 H 0.76165 0.60461 0.87108 0.0
H381 H 0.77702 0.56835 0.91112 0.0
H382 H 0.73584 0.54332 0.90289 0.0
H383 H 0.74979 0.61541 0.89949 0.0
H384 H 0.71452 0.60548 0.91286 0.0
H385 H 0.82722 0.56932 0.87422 0.0
H386 H 0.81251 0.58221 0.92816 0.0
H387 H 0.70084 0.53355 0.91667 0.0
H388 H 0.85327 0.55725 0.88686 0.0
H389 H 0.83804 0.56934 0.94067 0.0
C390 C 0.36422 0.16703 0.84229 0.0
C391 C 0.37827 0.17819 0.82854 0.0
C392 C 0.37316 0.17214 0.8604 0.0
C393 C 0.39618 0.18885 0.86515 0.0
C394 C 0.41032 0.19995 0.85159 0.0
C395 C 0.40154 0.19448 0.83345 0.0
C396 C 0.40533 0.19541 0.88431 0.0
C397 C 0.40696 0.17883 0.89459 0.0
C398 C 0.41627 0.18528 0.91274 0.0
C399 C 0.42343 0.20847 0.92054 0.0
C400 C 0.42172 0.22521 0.9104 0.0
C401 C 0.41273 0.21847 0.89221 0.0
C402 C 0.42945 0.24971 0.91875 0.0
C403 C 0.42557 0.25349 0.9367 0.0
C404 C 0.44073 0.26953 0.90882 0.0
C405 C 0.44782 0.29251 0.91661 0.0
C406 C 0.44401 0.29622 0.93455 0.0
C407 C 0.41937 0.16821 0.92334 0.0
C408 C 0.40288 0.14378 0.92151 0.0
C409 C 0.4392 0.17618 0.93507 0.0
C410 C 0.44258 0.16015 0.9446 0.0
C411 C 0.42631 0.13572 0.94251 0.0
C412 C 0.40637 0.1277 0.93094 0.0
C413 C 0.43288 0.27651 0.94454 0.0
H414 H 0.34617 0.15475 0.83917 0.0
H415 H 0.36197 0.16355 0.87075 0.0
H416 H 0.4282 0.21282 0.85505 0.0
H417 H 0.41305 0.20304 0.82331 0.0
H418 H 0.40169 0.16122 0.88821 0.0
H419 H 0.411 0.23099 0.8842 0.0
H420 H 0.43055 0.21357 0.93452 0.0
H421 H 0.41658 0.23864 0.94465 0.0
H422 H 0.44438 0.26735 0.89508 0.0
H423 H 0.4566 0.30745 0.90868 0.0
H424 H 0.38726 0.13708 0.9128 0.0
H425 H 0.45248 0.19475 0.93655 0.0
H426 H 0.42949 0.27887 0.95834 0.0
H427 H 0.39346 0.10898 0.92919 0.0
H428 H 0.45831 0.16679 0.95317 0.0
C429 C 0.7883 0.17276 0.82934 0.0
C430 C 0.80994 0.17701 0.82553 0.0
C431 C 0.78406 0.17652 0.84705 0.0
C432 C 0.80138 0.18465 0.86131 0.0
C433 C 0.82285 0.18835 0.85755 0.0
C434 C 0.82708 0.18459 0.83986 0.0
C435 C 0.79743 0.19031 0.87992 0.0
C436 C 0.77696 0.17529 0.88719 0.0
C437 C 0.77295 0.18111 0.90458 0.0
C438 C 0.78972 0.20217 0.9147 0.0
C439 C 0.81023 0.2174 0.90762 0.0
C440 C 0.81395 0.21129 0.89025 0.0
C441 C 0.82741 0.24019 0.91801 0.0
C442 C 0.82064 0.2548 0.92717 0.0
C443 C 0.85073 0.24788 0.91835 0.0
C444 C 0.86694 0.26991 0.92737 0.0
C445 C 0.86017 0.2847 0.93624 0.0
C446 C 0.75106 0.16561 0.91206 0.0
C447 C 0.73034 0.15603 0.90118 0.0
C448 C 0.75066 0.16096 0.93029 0.0
C449 C 0.73001 0.14738 0.93756 0.0
C450 C 0.70928 0.13813 0.92677 0.0
C451 C 0.70968 0.14244 0.90846 0.0
C452 C 0.83684 0.2768 0.93619 0.0
H453 H 0.77468 0.16666 0.8186 0.0
H454 H 0.76739 0.17368 0.84948 0.0
H455 H 0.83647 0.19437 0.86828 0.0
H456 H 0.84399 0.18823 0.83737 0.0
H457 H 0.76427 0.1589 0.87941 0.0
H458 H 0.82942 0.22339 0.88447 0.0
H459 H 0.78667 0.20691 0.92804 0.0
H460 H 0.80282 0.24955 0.92692 0.0
H461 H 0.85646 0.23686 0.91164 0.0
H462 H 0.88479 0.27537 0.9274 0.0
H463 H 0.73006 0.15947 0.88713 0.0
H464 H 0.76634 0.16787 0.93896 0.0
H465 H 0.8311 0.28795 0.94267 0.0
H466 H 0.694 0.13532 0.89975 0.0
H467 H 0.73029 0.14455 0.95176 0.0
C468 C 0.61665 0.84213 0.17344 0.0
C469 C 0.63289 0.83582 0.17879 0.0
C470 C 0.60698 0.83691 0.15552 0.0
C471 C 0.61328 0.82514 0.14262 0.0
C472 C 0.62997 0.81942 0.14788 0.0
C473 C 0.63967 0.82471 0.16575 0.0
C474 C 0.60155 0.81761 0.12402 0.0
C475 C 0.5971 0.83307 0.11443 0.0
C476 C 0.58489 0.82549 0.09717 0.0
C477 C 0.57731 0.80208 0.08963 0.0
C478 C 0.58219 0.78667 0.09882 0.0
C479 C 0.5942 0.79454 0.11603 0.0
C480 C 0.57482 0.76234 0.09044 0.0
C481 C 0.55287 0.74796 0.08155 0.0
C482 C 0.58984 0.75343 0.09114 0.0
C483 C 0.58311 0.73068 0.08306 0.0
C484 C 0.56117 0.71629 0.07413 0.0
C485 C 0.57985 0.8418 0.08706 0.0
C486 C 0.5761 0.85886 0.09628 0.0
C487 C 0.5783 0.84016 0.06803 0.0
C488 C 0.5724 0.85449 0.05852 0.0
C489 C 0.56854 0.87147 0.06774 0.0
C490 C 0.57086 0.87369 0.08678 0.0
C491 C 0.54611 0.72517 0.07351 0.0
H492 H 0.61124 0.85091 0.18314 0.0
H493 H 0.59405 0.8414 0.1519 0.0
H494 H 0.63533 0.81056 0.13821 0.0
H495 H 0.65199 0.81941 0.16947 0.0
H496 H 0.60355 0.85113 0.12037 0.0
H497 H 0.59725 0.78238 0.12345 0.0
H498 H 0.56759 0.79571 0.07652 0.0
H499 H 0.54081 0.75421 0.08101 0.0
H500 H 0.60698 0.76423 0.09767 0.0
H501 H 0.59525 0.72453 0.08354 0.0
H502 H 0.57682 0.8606 0.11089 0.0
H503 H 0.5816 0.82774 0.06034 0.0
H504 H 0.52898 0.71439 0.06697 0.0
H505 H 0.56858 0.88687 0.09447 0.0
H506 H 0.57052 0.85187 0.0439 0.0
C507 C 0.18412 0.81778 0.16858 0.0
C508 C 0.20162 0.82619 0.18274 0.0
C509 C 0.18737 0.81137 0.15124 0.0
C510 C 0.20818 0.81317 0.14765 0.0
C511 C 0.22583 0.82196 0.16172 0.0
C512 C 0.22258 0.82839 0.17908 0.0
C513 C 0.21128 0.80524 0.12943 0.0
C514 C 0.23166 0.81873 0.1216 0.0
C515 C 0.23502 0.8109 0.10468 0.0
C516 C 0.21786 0.78914 0.0957 0.0
C517 C 0.19708 0.77551 0.1031 0.0
C518 C 0.19397 0.7839 0.11997 0.0
C519 C 0.17876 0.75257 0.09328 0.0
C520 C 0.17595 0.74937 0.07425 0.0
C521 C 0.16402 0.73353 0.1028 0.0
C522 C 0.14698 0.71207 0.09361 0.0
C523 C 0.14458 0.70864 0.07459 0.0
C524 C 0.25626 0.82571 0.09616 0.0
C525 C 0.26507 0.85039 0.09608 0.0
C526 C 0.26751 0.81525 0.08764 0.0
C527 C 0.28703 0.82913 0.07905 0.0
C528 C 0.29564 0.85375 0.07875 0.0
C529 C 0.28453 0.86425 0.08745 0.0
C530 C 0.15938 0.72765 0.06506 0.0
H531 H 0.16768 0.81561 0.17099 0.0
H532 H 0.17354 0.80493 0.14064 0.0
H533 H 0.242 0.82336 0.15942 0.0
H534 H 0.23646 0.83502 0.18965 0.0
H535 H 0.24496 0.83538 0.12868 0.0
H536 H 0.17809 0.77379 0.12589 0.0
H537 H 0.22075 0.78297 0.08283 0.0
H538 H 0.1865 0.76365 0.06631 0.0
H539 H 0.16573 0.73495 0.11743 0.0
H540 H 0.1357 0.69818 0.10153 0.0
H541 H 0.25665 0.85892 0.10239 0.0
H542 H 0.26124 0.79631 0.08763 0.0
H543 H 0.15848 0.72579 0.05045 0.0
H544 H 0.29092 0.88322 0.08761 0.0
H545 H 0.29514 0.82052 0.07235 0.0
C546 C 0.21222 0.37749 0.17716 0.0
C547 C 0.18921 0.36283 0.1798 0.0
C548 C 0.2184 0.38763 0.16086 0.0
C549 C 0.20167 0.38306 0.14679 0.0
C550 C 0.17868 0.36745 0.14922 0.0
C551 C 0.17251 0.35762 0.16561 0.0
C552 C 0.20804 0.3955 0.13006 0.0
C553 C 0.22817 0.40017 0.12247 0.0
C554 C 0.23473 0.41298 0.1072 0.0
C555 C 0.2207 0.42084 0.09936 0.0
C556 C 0.20037 0.416 0.10655 0.0
C557 C 0.19428 0.40351 0.12195 0.0
C558 C 0.18545 0.42397 0.09799 0.0
C559 C 0.19469 0.44707 0.09249 0.0
C560 C 0.16182 0.40839 0.09517 0.0
C561 C 0.14773 0.41568 0.08688 0.0
C562 C 0.15696 0.43875 0.08133 0.0
C563 C 0.25638 0.41854 0.09953 0.0
C564 C 0.27623 0.42538 0.11094 0.0
C565 C 0.25752 0.41779 0.0807 0.0
C566 C 0.27812 0.42441 0.07349 0.0
C567 C 0.298 0.43168 0.08491 0.0
C568 C 0.29682 0.43179 0.1037 0.0
C569 C 0.18057 0.45441 0.08429 0.0
H570 H 0.22539 0.38193 0.18799 0.0
H571 H 0.23624 0.39978 0.1596 0.0
H572 H 0.16536 0.36305 0.13855 0.0
H573 H 0.15465 0.34614 0.16729 0.0
H574 H 0.2386 0.39353 0.1283 0.0
H575 H 0.17907 0.40069 0.12792 0.0
H576 H 0.2256 0.43081 0.08764 0.0
H577 H 0.21282 0.45954 0.09465 0.0
H578 H 0.15424 0.39042 0.09914 0.0
H579 H 0.12957 0.4033 0.08493 0.0
H580 H 0.27603 0.42643 0.1255 0.0
H581 H 0.24248 0.41211 0.0715 0.0
H582 H 0.18817 0.47224 0.08003 0.0
H583 H 0.31195 0.43749 0.1128 0.0
H584 H 0.2785 0.42379 0.05894 0.0
C585 C 0.48113 0.95313 0.15777 0.0
C586 C 0.47663 0.97166 0.15506 0.0
C587 C 0.4763 0.94201 0.17371 0.0
C588 C 0.46686 0.94915 0.18736 0.0
C589 C 0.46208 0.96749 0.18459 0.0
C590 C 0.4669 0.97862 0.16857 0.0
C591 C 0.46228 0.93757 0.20447 0.0
C592 C 0.47808 0.93239 0.21278 0.0
C593 C 0.47386 0.92105 0.22876 0.0
C594 C 0.45372 0.91535 0.2367 0.0
C595 C 0.43755 0.92027 0.22855 0.0
C596 C 0.44202 0.93133 0.21237 0.0
C597 C 0.41588 0.91353 0.23673 0.0
C598 C 0.40488 0.89253 0.24549 0.0
C599 C 0.40594 0.928 0.2358 0.0
C600 C 0.38553 0.92157 0.24332 0.0
C601 C 0.3749 0.90082 0.25219 0.0
C602 C 0.49036 0.91479 0.2369 0.0
C603 C 0.50032 0.90495 0.22586 0.0
C604 C 0.49625 0.91853 0.25568 0.0
C605 C 0.51181 0.91262 0.26322 0.0
C606 C 0.52177 0.90278 0.25217 0.0
C607 C 0.51583 0.899 0.2334 0.0
C608 C 0.3847 0.88638 0.25331 0.0
H609 H 0.48815 0.947 0.14743 0.0
H610 H 0.47974 0.92761 0.17527 0.0
H611 H 0.455 0.97352 0.19493 0.0
H612 H 0.46336 0.99293 0.16688 0.0
H613 H 0.49393 0.93752 0.20693 0.0
H614 H 0.42944 0.93448 0.20556 0.0
H615 H 0.45059 0.90688 0.24916 0.0
H616 H 0.41167 0.88066 0.24618 0.0
H617 H 0.41406 0.9445 0.22948 0.0
H618 H 0.37823 0.93301 0.24249 0.0
H619 H 0.49594 0.9016 0.21137 0.0
H620 H 0.48901 0.92626 0.26452 0.0
H621 H 0.37661 0.87024 0.26008 0.0
H622 H 0.52335 0.89165 0.22451 0.0
H623 H 0.51587 0.91552 0.27775 0.0
C624 C 0.0272 0.49425 0.17074 0.0
C625 C 0.03564 0.51086 0.15783 0.0
C626 C 0.03768 0.5002 0.18847 0.0
C627 C 0.05664 0.52292 0.19359 0.0
C628 C 0.06526 0.53932 0.18061 0.0
C629 C 0.05497 0.53334 0.16295 0.0
C630 C 0.06769 0.5299 0.21236 0.0
C631 C 0.07367 0.5151 0.22125 0.0
C632 C 0.08615 0.52287 0.23834 0.0
C633 C 0.0926 0.54571 0.24646 0.0
C634 C 0.08633 0.56062 0.2379 0.0
C635 C 0.07351 0.55224 0.22096 0.0
C636 C 0.09354 0.58508 0.24631 0.0
C637 C 0.09601 0.59016 0.26521 0.0
C638 C 0.09806 0.60369 0.23542 0.0
C639 C 0.10432 0.62644 0.24314 0.0
C640 C 0.10705 0.63162 0.26203 0.0
C641 C 0.09302 0.50739 0.24746 0.0
C642 C 0.07755 0.4829 0.24763 0.0
C643 C 0.11512 0.51699 0.25603 0.0
C644 C 0.12159 0.50244 0.26462 0.0
C645 C 0.10611 0.47796 0.26483 0.0
C646 C 0.08402 0.46835 0.25623 0.0
C647 C 0.10296 0.61315 0.27295 0.0
H648 H 0.01228 0.47683 0.16725 0.0
H649 H 0.0307 0.48726 0.19826 0.0
H650 H 0.08016 0.55678 0.18408 0.0
H651 H 0.06231 0.54634 0.15325 0.0
H652 H 0.06947 0.49797 0.21452 0.0
H653 H 0.06793 0.56306 0.21429 0.0
H654 H 0.10268 0.55188 0.25942 0.0
H655 H 0.09242 0.57637 0.27413 0.0
H656 H 0.09695 0.60086 0.22084 0.0
H657 H 0.10683 0.63989 0.23416 0.0
H658 H 0.06032 0.47504 0.24133 0.0
H659 H 0.12757 0.5357 0.25587 0.0
H660 H 0.10526 0.61636 0.28755 0.0
H661 H 0.0716 0.44962 0.25635 0.0
H662 H 0.13885 0.51031 0.27085 0.0
C663 C 0.45403 0.51718 0.15957 0.0
C664 C 0.47528 0.51984 0.15633 0.0
C665 C 0.44971 0.52184 0.17705 0.0
C666 C 0.46666 0.52955 0.19155 0.0
C667 C 0.48782 0.53199 0.18831 0.0
C668 C 0.49205 0.5271 0.1709 0.0
C669 C 0.4626 0.53555 0.20998 0.0
C670 C 0.44257 0.52015 0.21753 0.0
C671 C 0.43891 0.52564 0.23514 0.0
C672 C 0.45579 0.54674 0.24523 0.0
C673 C 0.47588 0.56263 0.23779 0.0
C674 C 0.47894 0.55682 0.22005 0.0
C675 C 0.49348 0.58542 0.24828 0.0
C676 C 0.48731 0.59781 0.26076 0.0
C677 C 0.51665 0.59535 0.24558 0.0
C678 C 0.53299 0.61734 0.25452 0.0
C679 C 0.52683 0.62981 0.26693 0.0
C680 C 0.41733 0.50954 0.24287 0.0
C681 C 0.39643 0.49886 0.2321 0.0
C682 C 0.41737 0.50507 0.26113 0.0
C683 C 0.39699 0.49057 0.2685 0.0
C684 C 0.37607 0.48006 0.25776 0.0
C685 C 0.37607 0.48425 0.23944 0.0
C686 C 0.50376 0.61948 0.27014 0.0
H687 H 0.44077 0.51148 0.14858 0.0
H688 H 0.43329 0.51993 0.17918 0.0
H689 H 0.50112 0.53771 0.19927 0.0
H690 H 0.50865 0.52951 0.16877 0.0
H691 H 0.43006 0.5036 0.20982 0.0
H692 H 0.49382 0.56912 0.21375 0.0
H693 H 0.45311 0.55084 0.25886 0.0
H694 H 0.46969 0.5911 0.26313 0.0
H695 H 0.52233 0.58622 0.23647 0.0
H696 H 0.55042 0.62468 0.25136 0.0
H697 H 0.39573 0.50211 0.21803 0.0
H698 H 0.43317 0.51273 0.26977 0.0
H699 H 0.49825 0.6281 0.27986 0.0
H700 H 0.36031 0.4762 0.23072 0.0
H701 H 0.39762 0.48794 0.28271 0.0
Tb702 Tb 0.52268 0.02193 0.99747 0.0
C703 C 0.51481 0.9707 0.00606 0.0
Tb704 Tb 0.47399 0.98059 0.00117 0.0
O705 O 0.52483 0.03851 0.02471 0.0
O706 O 0.50432 0.00196 0.01795 0.0
O707 O 0.52885 0.99221 0.00103 0.0
C708 C 0.43497 0.95473 0.01555 0.0
O709 O 0.49318 0.96324 0.00862 0.0
C710 C 0.48764 0.98388 0.96876 0.0
C711 C 0.48198 0.03195 0.99279 0.0
O712 O 0.4402 0.94871 0.00035 0.0
O713 O 0.45152 0.97534 0.02241 0.0
O714 O 0.47193 0.96396 0.974 0.0
O715 O 0.49237 0.00052 0.98068 0.0
O716 O 0.46815 0.01075 0.99846 0.0
O717 O 0.50329 0.03882 0.98952 0.0
C718 C 0.56185 0.04687 0.98309 0.0
O719 O 0.55629 0.05391 0.99768 0.0
O720 O 0.54549 0.02585 0.97679 0.0
C721 C 0.50915 0.01856 0.02994 0.0
Tb722 Tb 0.9831 0.50754 0.9937 0.0
C723 C 0.03234 0.54715 0.0106 0.0
Tb724 Tb 0.02139 0.49362 0.00239 0.0
O725 O 0.96938 0.50083 0.02065 0.0
O726 O 0.9952 0.49543 0.01391 0.0
O727 O 0.01306 0.54251 0.00133 0.0
C728 C 0.05101 0.48418 0.0192 0.0
O729 O 0.03814 0.53082 0.01364 0.0
C730 C 0.01343 0.49915 0.96876 0.0
C731 C 0.97156 0.45351 0.98771 0.0
O732 O 0.05515 0.49731 0.00579 0.0
O733 O 0.03019 0.47625 0.02298 0.0
O734 O 0.0216 0.4857 0.97344 0.0
O735 O 0.01234 0.51038 0.98266 0.0
O736 O 0.99101 0.45862 0.99693 0.0
O737 O 0.96622 0.46989 0.98358 0.0
C738 C 0.95637 0.5196 0.97533 0.0
O739 O 0.96072 0.50311 0.96978 0.0
O740 O 0.96697 0.52919 0.99126 0.0
C741 C 0.98391 0.49478 0.02671 0.0
Tb742 Tb 0.47956 0.49703 0.00769 0.0
C743 C 0.49289 0.46157 0.99072 0.0
Tb744 Tb 0.52896 0.51665 0.99809 0.0
O745 O 0.46676 0.49118 0.97907 0.0
O746 O 0.49981 0.51732 0.98789 0.0
O747 O 0.48069 0.46434 0.00295 0.0
C748 C 0.56611 0.5287 0.98104 0.0
O749 O 0.51088 0.48006 0.98513 0.0
C750 C 0.52197 0.50845 0.03186 0.0
C751 C 0.51604 0.55286 0.01558 0.0
O752 O 0.56063 0.51643 0.99494 0.0
O753 O 0.55082 0.5344 0.97689 0.0
O754 O 0.54128 0.52455 0.02683 0.0
O755 O 0.50869 0.49651 0.01806 0.0
O756 O 0.53102 0.55035 0.00632 0.0
O757 O 0.49578 0.53461 0.01823 0.0
C758 C 0.44231 0.48343 0.02502 0.0
O759 O 0.46273 0.49984 0.03122 0.0
O760 O 0.44283 0.47484 0.009 0.0
C761 C 0.48632 0.50649 0.97403 0.0
Tb762 Tb 0.19336 0.3586 0.33236 0.0
C763 C 0.18087 0.31064 0.34864 0.0
Tb764 Tb 0.14308 0.325 0.34024 0.0
O765 O 0.20486 0.36504 0.36122 0.0
O766 O 0.17196 0.35649 0.35247 0.0
O767 O 0.19527 0.32747 0.33902 0.0
C768 C 0.10579 0.29934 0.35676 0.0
O769 O 0.1609 0.30817 0.35206 0.0
C770 C 0.15108 0.32324 0.30637 0.0
C771 C 0.15518 0.37291 0.32422 0.0
O772 O 0.11975 0.32207 0.36028 0.0
O773 O 0.11264 0.29107 0.34372 0.0
O774 O 0.13093 0.31661 0.31135 0.0
O775 O 0.16452 0.32728 0.32014 0.0
O776 O 0.14055 0.35564 0.3334 0.0
O777 O 0.1755 0.37594 0.3212 0.0
C778 C 0.23167 0.38367 0.31683 0.0
O779 O 0.22458 0.39215 0.32956 0.0
O780 O 0.21731 0.36109 0.31297 0.0
C781 C 0.18501 0.35962 0.36629 0.0
Tb782 Tb 0.65878 0.84889 0.33018 0.0
C783 C 0.70722 0.88703 0.3483 0.0
Tb784 Tb 0.69222 0.83173 0.34081 0.0
O785 O 0.65563 0.85573 0.35874 0.0
O786 O 0.66251 0.829 0.35027 0.0
O787 O 0.68815 0.88344 0.33943 0.0
C788 C 0.71956 0.82082 0.3598 0.0
O789 O 0.71198 0.86976 0.3506 0.0
C790 C 0.69088 0.84106 0.30714 0.0
C791 C 0.64437 0.79465 0.32271 0.0
O792 O 0.71244 0.83484 0.36577 0.0
O793 O 0.71141 0.81304 0.34308 0.0
O794 O 0.69682 0.82605 0.31233 0.0
O795 O 0.68859 0.85157 0.32084 0.0
O796 O 0.66028 0.79803 0.33555 0.0
O797 O 0.64275 0.81261 0.31668 0.0
C798 C 0.63018 0.85923 0.31256 0.0
O799 O 0.62579 0.84689 0.32641 0.0
O800 O 0.65074 0.86589 0.30871 0.0
C801 C 0.66092 0.84021 0.36391 0.0
Tb802 Tb 0.14788 0.83396 0.33979 0.0
C803 C 0.15683 0.79679 0.31918 0.0
Tb804 Tb 0.19724 0.85011 0.33085 0.0
O805 O 0.13615 0.82893 0.31105 0.0
O806 O 0.16973 0.85366 0.32057 0.0
O807 O 0.14289 0.79964 0.32948 0.0
C808 C 0.23422 0.8607 0.31401 0.0
O809 O 0.17739 0.81434 0.31645 0.0
C810 C 0.18844 0.83981 0.36398 0.0
C811 C 0.18804 0.88765 0.3508 0.0
O812 O 0.22466 0.84346 0.32425 0.0
O813 O 0.22322 0.87218 0.31351 0.0
O814 O 0.20864 0.8549 0.35974 0.0
O815 O 0.17529 0.83005 0.34977 0.0
O816 O 0.20174 0.8845 0.34038 0.0
O817 O 0.16762 0.86999 0.35376 0.0
C818 C 0.11114 0.82271 0.35709 0.0
O819 O 0.11766 0.83661 0.34415 0.0
O820 O 0.12516 0.815 0.36011 0.0
C821 C 0.15632 0.84361 0.30649 0.0
Tb822 Tb 0.84911 0.6801 0.66119 0.0
C823 C 0.84272 0.63002 0.67148 0.0
Tb824 Tb 0.80132 0.63879 0.66711 0.0
O825 O 0.8517 0.69881 0.68756 0.0
O826 O 0.8322 0.66182 0.68289 0.0
O827 O 0.85614 0.65118 0.66566 0.0
C828 C 0.76286 0.61329 0.68235 0.0
O829 O 0.82126 0.62237 0.6747 0.0
C830 C 0.81403 0.63963 0.63455 0.0
C831 C 0.80769 0.68848 0.65623 0.0
O832 O 0.76708 0.60766 0.66656 0.0
O833 O 0.78017 0.63326 0.6894 0.0
O834 O 0.79885 0.62013 0.64065 0.0
O835 O 0.81838 0.657 0.64552 0.0
O836 O 0.79485 0.66845 0.66374 0.0
O837 O 0.82841 0.69483 0.65167 0.0
C838 C 0.88761 0.70472 0.64588 0.0
O839 O 0.88229 0.71225 0.66037 0.0
O840 O 0.87129 0.68342 0.6401 0.0
C841 C 0.83702 0.67931 0.69401 0.0
Tb842 Tb 0.31267 0.16692 0.66626 0.0
C843 C 0.35957 0.20232 0.68707 0.0
Tb844 Tb 0.34645 0.14939 0.67546 0.0
O845 O 0.30442 0.16847 0.69425 0.0
O846 O 0.31692 0.14667 0.68559 0.0
O847 O 0.3443 0.20025 0.67411 0.0
C848 C 0.37501 0.1369 0.69038 0.0
O849 O 0.36088 0.18361 0.69177 0.0
C850 C 0.34494 0.16096 0.64236 0.0
C851 C 0.29748 0.11203 0.65749 0.0
O852 O 0.3808 0.15779 0.68535 0.0
O853 O 0.35321 0.12309 0.68705 0.0
O854 O 0.3511 0.14583 0.64667 0.0
O855 O 0.34262 0.17051 0.65657 0.0
O856 O 0.31592 0.11524 0.66716 0.0
O857 O 0.29361 0.12975 0.6547 0.0
C858 C 0.28619 0.17825 0.64653 0.0
O859 O 0.29128 0.16217 0.64166 0.0
O860 O 0.29596 0.18803 0.66263 0.0
C861 C 0.31275 0.15537 0.69942 0.0
Tb862 Tb 0.81376 0.16273 0.67211 0.0
C863 C 0.82065 0.11956 0.65899 0.0
Tb864 Tb 0.86227 0.17288 0.66513 0.0
O865 O 0.81337 0.18228 0.64895 0.0
O866 O 0.83212 0.16506 0.64981 0.0
O867 O 0.80636 0.12654 0.66431 0.0
C868 C 0.89791 0.17987 0.64785 0.0
O869 O 0.8428 0.1343 0.6581 0.0
C870 C 0.85346 0.17129 0.6989 0.0
C871 C 0.85489 0.21505 0.6788 0.0
O872 O 0.89153 0.16798 0.66196 0.0
O873 O 0.88446 0.18799 0.64375 0.0
O874 O 0.87391 0.18383 0.694 0.0
O875 O 0.83995 0.15914 0.6853 0.0
O876 O 0.86698 0.20872 0.66883 0.0
O877 O 0.83483 0.19934 0.68383 0.0
C878 C 0.77476 0.14885 0.6866 0.0
O879 O 0.7767 0.1466 0.66941 0.0
O880 O 0.79472 0.15898 0.69552 0.0
C881 C 0.82806 0.1786 0.64101 0.0
C882 C 0.33506 0.86555 0.07113 0.0
C883 C 0.31599 0.86841 0.0692 0.0
C884 C 0.35442 0.8794 0.06222 0.0
C885 C 0.35467 0.89645 0.05109 0.0
C886 C 0.33544 0.89934 0.04902 0.0
C887 C 0.31633 0.88529 0.05811 0.0
C888 C 0.37467 0.87591 0.06481 0.0
C889 C 0.33509 0.91734 0.03726 0.0
C890 C 0.41187 0.94766 0.04166 0.0
C891 C 0.4142 0.94001 0.02433 0.0
C892 C 0.39252 0.93368 0.05051 0.0
C893 C 0.37518 0.91151 0.0418 0.0
C894 C 0.37744 0.90375 0.02426 0.0
C895 C 0.397 0.91813 0.01572 0.0
C896 C 0.39078 0.94251 0.06925 0.0
C897 C 0.35926 0.88024 0.01456 0.0
H898 H 0.33496 0.85271 0.07984 0.0
H899 H 0.30151 0.88734 0.05638 0.0
H900 H 0.37886 0.87124 0.05154 0.0
H901 H 0.38978 0.89277 0.07085 0.0
H902 H 0.37162 0.86165 0.07371 0.0
H903 H 0.31871 0.91722 0.03694 0.0
H904 H 0.34906 0.93552 0.04231 0.0
H905 H 0.33803 0.91362 0.02323 0.0
H906 H 0.42529 0.96453 0.0484 0.0
H907 H 0.39886 0.91221 0.00233 0.0
H908 H 0.39104 0.93047 0.07912 0.0
H909 H 0.37443 0.94229 0.0698 0.0
H910 H 0.40493 0.96089 0.07356 0.0
H911 H 0.35681 0.86544 0.02262 0.0
H912 H 0.36355 0.87689 0.00091 0.0
H913 H 0.34279 0.87988 0.01311 0.0
C914 C 0.12497 0.43106 0.05869 0.0
C915 C 0.14196 0.44632 0.07233 0.0
C916 C 0.11053 0.43783 0.05012 0.0
C917 C 0.1131 0.46038 0.05536 0.0
C918 C 0.13025 0.47591 0.0691 0.0
C919 C 0.14454 0.46871 0.07739 0.0
C920 C 0.09253 0.42086 0.03544 0.0
C921 C 0.13336 0.50001 0.07513 0.0
C922 C 0.08821 0.48541 0.02208 0.0
C923 C 0.06727 0.47895 0.02874 0.0
C924 C 0.10347 0.47975 0.03076 0.0
C925 C 0.09765 0.46756 0.04653 0.0
C926 C 0.07671 0.46153 0.05353 0.0
C927 C 0.06171 0.46721 0.04448 0.0
C928 C 0.12562 0.48641 0.02289 0.0
C929 C 0.07 0.44875 0.07041 0.0
H930 H 0.12313 0.41386 0.05458 0.0
H931 H 0.1575 0.48045 0.08806 0.0
H932 H 0.07541 0.41628 0.03929 0.0
H933 H 0.09492 0.42952 0.02268 0.0
H934 H 0.09295 0.40409 0.03281 0.0
H935 H 0.1476 0.51004 0.08591 0.0
H936 H 0.13672 0.51083 0.06348 0.0
H937 H 0.11751 0.49781 0.0803 0.0
H938 H 0.09251 0.49454 0.00991 0.0
H939 H 0.04557 0.46241 0.04972 0.0
H940 H 0.12626 0.47006 0.01889 0.0
H941 H 0.14017 0.49745 0.0332 0.0
H942 H 0.12788 0.49645 0.01085 0.0
H943 H 0.06822 0.43087 0.06805 0.0
H944 H 0.05369 0.44652 0.07462 0.0
H945 H 0.08347 0.45875 0.08171 0.0
C946 C 0.54166 0.68424 0.04836 0.0
C947 C 0.55411 0.69217 0.06542 0.0
C948 C 0.53509 0.6616 0.0399 0.0
C949 C 0.54117 0.64657 0.04868 0.0
C950 C 0.55368 0.65442 0.06591 0.0
C951 C 0.55997 0.67711 0.07408 0.0
C952 C 0.52173 0.65381 0.02152 0.0
C953 C 0.56044 0.63884 0.0757 0.0
C954 C 0.50769 0.57996 0.03475 0.0
C955 C 0.52218 0.57697 0.02352 0.0
C956 C 0.5136 0.60253 0.04294 0.0
C957 C 0.5345 0.62261 0.03983 0.0
C958 C 0.54914 0.61979 0.02843 0.0
C959 C 0.54281 0.597 0.02042 0.0
C960 C 0.49755 0.60483 0.05504 0.0
C961 C 0.57161 0.64081 0.02486 0.0
H962 H 0.53735 0.6959 0.04148 0.0
H963 H 0.5693 0.68298 0.08738 0.0
H964 H 0.53132 0.65001 0.01154 0.0
H965 H 0.50534 0.63705 0.02205 0.0
H966 H 0.51811 0.66751 0.01661 0.0
H967 H 0.57021 0.64763 0.08901 0.0
H968 H 0.54504 0.62185 0.07791 0.0
H969 H 0.57097 0.63427 0.06733 0.0
H970 H 0.49176 0.56462 0.03735 0.0
H971 H 0.55415 0.59491 0.0118 0.0
H972 H 0.4927 0.61754 0.04994 0.0
H973 H 0.50617 0.61213 0.06888 0.0
H974 H 0.48182 0.58749 0.0559 0.0
H975 H 0.56879 0.65453 0.01897 0.0
H976 H 0.58092 0.63566 0.01547 0.0
H977 H 0.58254 0.64919 0.03776 0.0
C978 C 0.87438 0.31708 0.96177 0.0
C979 C 0.87736 0.30869 0.94493 0.0
C980 C 0.88987 0.34022 0.96963 0.0
C981 C 0.90875 0.35533 0.9604 0.0
C982 C 0.91211 0.34681 0.94358 0.0
C983 C 0.89637 0.32359 0.93604 0.0
C984 C 0.88582 0.34867 0.98764 0.0
C985 C 0.93202 0.36243 0.93331 0.0
C986 C 0.93544 0.42228 0.97006 0.0
C987 C 0.95512 0.42825 0.9813 0.0
C988 C 0.92011 0.39859 0.96333 0.0
C989 C 0.92452 0.38037 0.96796 0.0
C990 C 0.94417 0.38617 0.97946 0.0
C991 C 0.95926 0.41005 0.98598 0.0
C992 C 0.89934 0.39308 0.95106 0.0
C993 C 0.94938 0.36718 0.98469 0.0
H994 H 0.85987 0.30552 0.96879 0.0
H995 H 0.8986 0.31732 0.92292 0.0
H996 H 0.90102 0.35513 0.99744 0.0
H997 H 0.88301 0.36391 0.98604 0.0
H998 H 0.87085 0.3344 0.99341 0.0
H999 H 0.93274 0.35277 0.92078 0.0
H1000 H 0.93082 0.37807 0.92957 0.0
H1001 H 0.94822 0.36934 0.94199 0.0
H1002 H 0.93207 0.43616 0.9663 0.0
H1003 H 0.97437 0.41442 0.99467 0.0
H1004 H 0.8837 0.37992 0.95679 0.0
H1005 H 0.89975 0.38495 0.93766 0.0
H1006 H 0.89816 0.40925 0.94904 0.0
H1007 H 0.93493 0.35327 0.99115 0.0
H1008 H 0.96504 0.37454 0.99417 0.0
H1009 H 0.95159 0.35829 0.97242 0.0
C1010 C 0.68451 0.57881 0.93858 0.0
C1011 C 0.684 0.56301 0.92467 0.0
C1012 C 0.66507 0.5734 0.94743 0.0
C1013 C 0.6446 0.55168 0.9422 0.0
C1014 C 0.64386 0.53578 0.92799 0.0
C1015 C 0.66361 0.54161 0.91943 0.0
C1016 C 0.66653 0.59076 0.96256 0.0
C1017 C 0.62226 0.51256 0.92194 0.0
C1018 C 0.60148 0.52731 0.9768 0.0
C1019 C 0.58612 0.53454 0.97114 0.0
C1020 C 0.62052 0.53263 0.96741 0.0
C1021 C 0.62414 0.54536 0.95195 0.0
C1022 C 0.60852 0.55251 0.9461 0.0
C1023 C 0.58973 0.5471 0.95585 0.0
C1024 C 0.63684 0.52477 0.97409 0.0
C1025 C 0.61167 0.56589 0.92958 0.0
H1026 H 0.70029 0.59524 0.94282 0.0
H1027 H 0.66308 0.52948 0.90854 0.0
H1028 H 0.65359 0.59602 0.95958 0.0
H1029 H 0.66276 0.5821 0.97534 0.0
H1030 H 0.68358 0.60712 0.96471 0.0
H1031 H 0.62434 0.5025 0.91034 0.0
H1032 H 0.61691 0.50119 0.9333 0.0
H1033 H 0.60829 0.51599 0.91798 0.0
H1034 H 0.59865 0.51754 0.98863 0.0
H1035 H 0.57785 0.55271 0.9515 0.0
H1036 H 0.65406 0.54055 0.97754 0.0
H1037 H 0.63824 0.51324 0.96327 0.0
H1038 H 0.63144 0.5148 0.98621 0.0
H1039 H 0.62832 0.58273 0.93132 0.0
H1040 H 0.59801 0.57024 0.92689 0.0
H1041 H 0.6118 0.55509 0.91754 0.0
C1042 C 0.42778 0.09802 0.94188 0.0
C1043 C 0.43087 0.11866 0.95168 0.0
C1044 C 0.43439 0.08306 0.94976 0.0
C1045 C 0.44417 0.0888 0.96792 0.0
C1046 C 0.4463 0.10897 0.97815 0.0
C1047 C 0.43972 0.12374 0.96987 0.0
C1048 C 0.43198 0.06179 0.93836 0.0
C1049 C 0.45639 0.11551 0.99761 0.0
C1050 C 0.45004 0.0408 0.99041 0.0
C1051 C 0.47262 0.04735 0.98784 0.0
C1052 C 0.44064 0.05444 0.98442 0.0
C1053 C 0.45411 0.075 0.97558 0.0
C1054 C 0.47705 0.08202 0.97338 0.0
C1055 C 0.48603 0.06819 0.97958 0.0
C1056 C 0.41617 0.04655 0.98716 0.0
C1057 C 0.49198 0.10382 0.96399 0.0
H1058 H 0.42113 0.09414 0.92777 0.0
H1059 H 0.44186 0.13953 0.97755 0.0
H1060 H 0.44911 0.06462 0.93616 0.0
H1061 H 0.42313 0.04547 0.94546 0.0
H1062 H 0.42242 0.05871 0.92497 0.0
H1063 H 0.45465 0.13021 0.00421 0.0
H1064 H 0.44805 0.0998 0.00544 0.0
H1065 H 0.47473 0.12121 0.99824 0.0
H1066 H 0.43955 0.0248 0.99684 0.0
H1067 H 0.5035 0.07349 0.97753 0.0
H1068 H 0.40599 0.04145 0.97384 0.0
H1069 H 0.41496 0.06147 0.99396 0.0
H1070 H 0.40847 0.03112 0.99535 0.0
H1071 H 0.4847 0.10153 0.94982 0.0
H1072 H 0.50965 0.10723 0.96382 0.0
H1073 H 0.49259 0.11978 0.97081 0.0
C1074 C 0.68446 0.10752 0.94674 0.0
C1075 C 0.68733 0.12443 0.93471 0.0
C1076 C 0.66399 0.09485 0.95464 0.0
C1077 C 0.64595 0.09917 0.95039 0.0
C1078 C 0.64865 0.11609 0.93817 0.0
C1079 C 0.66933 0.12855 0.93049 0.0
C1080 C 0.66165 0.07679 0.96751 0.0
C1081 C 0.62977 0.12117 0.93332 0.0
C1082 C 0.58622 0.05143 0.9582 0.0
C1083 C 0.58324 0.06046 0.97474 0.0
C1084 C 0.60654 0.06389 0.95008 0.0
C1085 C 0.62421 0.08592 0.95871 0.0
C1086 C 0.62119 0.09519 0.97537 0.0
C1087 C 0.60067 0.08232 0.98319 0.0
C1088 C 0.60905 0.05351 0.93225 0.0
C1089 C 0.63967 0.11862 0.98497 0.0
H1090 H 0.69819 0.10403 0.94986 0.0
H1091 H 0.67155 0.14184 0.92141 0.0
H1092 H 0.65773 0.08156 0.98087 0.0
H1093 H 0.64727 0.05892 0.96232 0.0
H1094 H 0.67733 0.07561 0.96947 0.0
H1095 H 0.63453 0.13471 0.92346 0.0
H1096 H 0.61428 0.10454 0.92746 0.0
H1097 H 0.6253 0.12766 0.94568 0.0
H1098 H 0.57263 0.03458 0.95157 0.0
H1099 H 0.59831 0.08929 0.99598 0.0
H1100 H 0.62486 0.05251 0.93314 0.0
H1101 H 0.61047 0.06528 0.92158 0.0
H1102 H 0.59442 0.03539 0.92802 0.0
H1103 H 0.65527 0.11764 0.98817 0.0
H1104 H 0.63454 0.12346 0.99772 0.0
H1105 H 0.64415 0.13309 0.97601 0.0
C1106 C 0.85703 0.53887 0.93541 0.0
C1107 C 0.86366 0.55524 0.92239 0.0
C1108 C 0.87219 0.53242 0.94312 0.0
C1109 C 0.8946 0.54287 0.93786 0.0
C1110 C 0.9013 0.55921 0.92456 0.0
C1111 C 0.88568 0.5651 0.9169 0.0
C1112 C 0.86432 0.51465 0.95707 0.0
C1113 C 0.92514 0.57096 0.9188 0.0
C1114 C 0.93903 0.54518 0.97222 0.0
C1115 C 0.94134 0.52609 0.9653 0.0
C1116 C 0.92423 0.55114 0.96319 0.0
C1117 C 0.91129 0.53751 0.94694 0.0
C1118 C 0.91385 0.51841 0.93975 0.0
C1119 C 0.92898 0.51301 0.94899 0.0
C1120 C 0.92222 0.57184 0.97115 0.0
C1121 C 0.9003 0.50343 0.9225 0.0
H1122 H 0.83991 0.53102 0.9395 0.0
H1123 H 0.89089 0.57792 0.90693 0.0
H1124 H 0.86715 0.49971 0.95301 0.0
H1125 H 0.87442 0.52332 0.97026 0.0
H1126 H 0.84601 0.50724 0.95897 0.0
H1127 H 0.92735 0.58248 0.90773 0.0
H1128 H 0.93752 0.58205 0.9305 0.0
H1129 H 0.92943 0.55727 0.91419 0.0
H1130 H 0.94872 0.55539 0.98479 0.0
H1131 H 0.93083 0.49828 0.94362 0.0
H1132 H 0.90465 0.56536 0.97483 0.0
H1133 H 0.92555 0.58477 0.961 0.0
H1134 H 0.93425 0.5813 0.98341 0.0
H1135 H 0.88183 0.49501 0.92403 0.0
H1136 H 0.90425 0.48919 0.91874 0.0
H1137 H 0.90386 0.51486 0.91122 0.0
C1138 C 0.44663 0.33589 0.93357 0.0
C1139 C 0.45157 0.32059 0.94282 0.0
C1140 C 0.45342 0.35891 0.94134 0.0
C1141 C 0.46567 0.36685 0.95868 0.0
C1142 C 0.47092 0.35156 0.96799 0.0
C1143 C 0.46366 0.32853 0.95999 0.0
C1144 C 0.44727 0.37462 0.9311 0.0
C1145 C 0.48424 0.35956 0.98638 0.0
C1146 C 0.50032 0.43364 0.9717 0.0
C1147 C 0.48622 0.43726 0.98295 0.0
C1148 C 0.49394 0.41078 0.96383 0.0
C1149 C 0.47284 0.39112 0.96714 0.0
C1150 C 0.4585 0.39464 0.97845 0.0
C1151 C 0.46541 0.41766 0.98629 0.0
C1152 C 0.50977 0.40769 0.95196 0.0
C1153 C 0.43573 0.37413 0.98209 0.0
H1154 H 0.43709 0.32968 0.92035 0.0
H1155 H 0.4677 0.31679 0.96707 0.0
H1156 H 0.43675 0.37958 0.93915 0.0
H1157 H 0.4629 0.39141 0.92893 0.0
H1158 H 0.4377 0.36575 0.91775 0.0
H1159 H 0.48728 0.34565 0.99167 0.0
H1160 H 0.50092 0.3759 0.98566 0.0
H1161 H 0.47496 0.36414 0.99616 0.0
H1162 H 0.51642 0.44868 0.96901 0.0
H1163 H 0.45432 0.4203 0.99485 0.0
H1164 H 0.50119 0.40033 0.93812 0.0
H1165 H 0.51411 0.39474 0.95732 0.0
H1166 H 0.52578 0.42475 0.95104 0.0
H1167 H 0.42491 0.36556 0.96916 0.0
H1168 H 0.42654 0.37989 0.99112 0.0
H1169 H 0.43809 0.36038 0.98842 0.0
C1170 C 0.11686 0.68423 0.04753 0.0
C1171 C 0.12706 0.68528 0.06476 0.0
C1172 C 0.10123 0.66232 0.03783 0.0
C1173 C 0.09489 0.6409 0.04579 0.0
C1174 C 0.10447 0.64176 0.06336 0.0
C1175 C 0.12075 0.66383 0.07245 0.0
C1176 C 0.09179 0.66206 0.01893 0.0
C1177 C 0.09769 0.61931 0.07251 0.0
C1178 C 0.03987 0.58485 0.02752 0.0
C1179 C 0.04812 0.57177 0.01833 0.0
C1180 C 0.05491 0.60749 0.0365 0.0
C1181 C 0.07863 0.61749 0.03564 0.0
C1182 C 0.08693 0.60467 0.0257 0.0
C1183 C 0.07156 0.58171 0.01745 0.0
C1184 C 0.04547 0.62023 0.0475 0.0
C1185 C 0.11204 0.61505 0.02396 0.0
H1186 H 0.12105 0.70054 0.04153 0.0
H1187 H 0.12874 0.66413 0.08551 0.0
H1188 H 0.0957 0.65126 0.00925 0.0
H1189 H 0.073 0.65358 0.0182 0.0
H1190 H 0.09887 0.68026 0.0145 0.0
H1191 H 0.10529 0.62318 0.08675 0.0
H1192 H 0.07889 0.60864 0.07236 0.0
H1193 H 0.10322 0.60812 0.06503 0.0
H1194 H 0.02171 0.57693 0.02835 0.0
H1195 H 0.07785 0.57152 0.01024 0.0
H1196 H 0.05131 0.63821 0.04304 0.0
H1197 H 0.05193 0.62275 0.06194 0.0
H1198 H 0.02657 0.61025 0.04643 0.0
H1199 H 0.1193 0.63305 0.01916 0.0
H1200 H 0.11549 0.60367 0.01446 0.0
H1201 H 0.12109 0.61713 0.03738 0.0
C1202 C 0.32659 0.45591 0.06406 0.0
C1203 C 0.31999 0.43967 0.07718 0.0
C1204 C 0.34711 0.4634 0.0563 0.0
C1205 C 0.36125 0.45422 0.06168 0.0
C1206 C 0.3548 0.438 0.07507 0.0
C1207 C 0.33426 0.43101 0.08276 0.0
C1208 C 0.35356 0.48098 0.04224 0.0
C1209 C 0.36935 0.42767 0.081 0.0
C1210 C 0.40126 0.45551 0.02765 0.0
C1211 C 0.42182 0.47562 0.03467 0.0
C1212 C 0.38152 0.448 0.03658 0.0
C1213 C 0.3824 0.46108 0.0528 0.0
C1214 C 0.40324 0.48125 0.06004 0.0
C1215 C 0.42275 0.48826 0.05087 0.0
C1216 C 0.35965 0.42627 0.02853 0.0
C1217 C 0.40484 0.4957 0.07726 0.0
H1218 H 0.31571 0.46289 0.05993 0.0
H1219 H 0.3291 0.41834 0.09284 0.0
H1220 H 0.37058 0.49678 0.0464 0.0
H1221 H 0.35468 0.47269 0.02917 0.0
H1222 H 0.34109 0.4871 0.04008 0.0
H1223 H 0.36231 0.41589 0.09199 0.0
H1224 H 0.37074 0.41719 0.06933 0.0
H1225 H 0.38684 0.44219 0.08578 0.0
H1226 H 0.40059 0.44566 0.01515 0.0
H1227 H 0.43865 0.50387 0.05621 0.0
H1228 H 0.34684 0.43142 0.02473 0.0
H1229 H 0.35254 0.41318 0.03867 0.0
H1230 H 0.3621 0.41742 0.01633 0.0
H1231 H 0.3936 0.50337 0.07543 0.0
H1232 H 0.42247 0.51047 0.08136 0.0
H1233 H 0.39887 0.48407 0.08843 0.0
C1234 C 0.56949 0.89344 0.04061 0.0
C1235 C 0.56168 0.88641 0.05755 0.0
C1236 C 0.56246 0.90672 0.03066 0.0
C1237 C 0.54794 0.91397 0.03809 0.0
C1238 C 0.54037 0.90746 0.0553 0.0
C1239 C 0.54696 0.89341 0.06464 0.0
C1240 C 0.57044 0.91286 0.01214 0.0
C1241 C 0.52529 0.91533 0.06389 0.0
C1242 C 0.54601 0.9672 0.02175 0.0
C1243 C 0.52448 0.95614 0.01205 0.0
C1244 C 0.55411 0.95366 0.03 0.0
C1245 C 0.54064 0.92846 0.02798 0.0
C1246 C 0.51944 0.91721 0.0173 0.0
C1247 C 0.5114 0.93122 0.00974 0.0
C1248 C 0.57646 0.96635 0.04174 0.0
C1249 C 0.50494 0.89039 0.01433 0.0
H1250 H 0.58122 0.88867 0.03506 0.0
H1251 H 0.54028 0.88773 0.07745 0.0
H1252 H 0.55556 0.90638 0.00197 0.0
H1253 H 0.58073 0.93248 0.012 0.0
H1254 H 0.58084 0.90494 0.00794 0.0
H1255 H 0.52197 0.90993 0.0778 0.0
H1256 H 0.53329 0.93502 0.06448 0.0
H1257 H 0.50874 0.90752 0.05555 0.0
H1258 H 0.55597 0.9865 0.02376 0.0
H1259 H 0.49477 0.92271 0.00219 0.0
H1260 H 0.58781 0.95966 0.0376 0.0
H1261 H 0.57333 0.96264 0.05599 0.0
H1262 H 0.58543 0.98597 0.04112 0.0
H1263 H 0.51529 0.88251 0.00994 0.0
H1264 H 0.49027 0.88449 0.00402 0.0
H1265 H 0.49829 0.88317 0.0272 0.0
C1266 C 0.00767 0.21856 0.41826 0.0
C1267 C 0.98715 0.21697 0.41191 0.0
C1268 C 0.02768 0.23214 0.40995 0.0
C1269 C 0.02697 0.24402 0.39478 0.0
C1270 C 0.00627 0.2424 0.38832 0.0
C1271 C 0.98664 0.22901 0.39704 0.0
C1272 C 0.04956 0.2338 0.41738 0.0
C1273 C 0.00479 0.25461 0.37206 0.0
C1274 C 0.08068 0.29606 0.3808 0.0
C1275 C 0.08581 0.2851 0.36654 0.0
C1276 C 0.06197 0.28277 0.39051 0.0
C1277 C 0.04778 0.25802 0.38549 0.0
C1278 C 0.05292 0.24685 0.37106 0.0
C1279 C 0.072 0.26054 0.36181 0.0
C1280 C 0.05726 0.29526 0.40598 0.0
C1281 C 0.03805 0.22054 0.36522 0.0
H1282 H 0.00809 0.20937 0.42985 0.0
H1283 H 0.97072 0.22754 0.39198 0.0
H1284 H 0.05592 0.22634 0.40692 0.0
H1285 H 0.06287 0.25276 0.42091 0.0
H1286 H 0.04739 0.22408 0.42958 0.0
H1287 H 0.98737 0.2515 0.36872 0.0
H1288 H 0.01673 0.2741 0.37457 0.0
H1289 H 0.00991 0.24804 0.36012 0.0
H1290 H 0.09128 0.31509 0.38436 0.0
H1291 H 0.07601 0.25205 0.35077 0.0
H1292 H 0.05611 0.28629 0.41845 0.0
H1293 H 0.04063 0.29417 0.40287 0.0
H1294 H 0.07064 0.31434 0.40875 0.0
H1295 H 0.03679 0.21005 0.37678 0.0
H1296 H 0.04465 0.21451 0.35397 0.0
H1297 H 0.02057 0.21648 0.36077 0.0
C1298 C 0.78858 0.7768 0.42175 0.0
C1299 C 0.81129 0.78758 0.41762 0.0
C1300 C 0.77311 0.78218 0.41307 0.0
C1301 C 0.78059 0.79901 0.40014 0.0
C1302 C 0.80359 0.81044 0.39625 0.0
C1303 C 0.81859 0.80445 0.40491 0.0
C1304 C 0.74866 0.76949 0.41746 0.0
C1305 C 0.81226 0.82871 0.38268 0.0
C1306 C 0.73828 0.79662 0.36355 0.0
C1307 C 0.73464 0.81485 0.37033 0.0
C1308 C 0.75283 0.79094 0.37333 0.0
C1309 C 0.76423 0.80408 0.39014 0.0
C1310 C 0.76047 0.82244 0.39707 0.0
C1311 C 0.74555 0.82749 0.38711 0.0
C1312 C 0.75615 0.771 0.36562 0.0
C1313 C 0.77245 0.83698 0.41486 0.0
H1314 H 0.78284 0.76407 0.43177 0.0
H1315 H 0.83596 0.81263 0.40138 0.0
H1316 H 0.74369 0.78265 0.42205 0.0
H1317 H 0.73731 0.75901 0.40511 0.0
H1318 H 0.74567 0.75724 0.42812 0.0
H1319 H 0.8309 0.83698 0.38197 0.0
H1320 H 0.80353 0.82019 0.36905 0.0
H1321 H 0.80835 0.843 0.38625 0.0
H1322 H 0.72971 0.78675 0.3506 0.0
H1323 H 0.74276 0.84165 0.39229 0.0
H1324 H 0.75213 0.75762 0.37551 0.0
H1325 H 0.7742 0.77815 0.36305 0.0
H1326 H 0.74529 0.76187 0.35277 0.0
H1327 H 0.76752 0.82522 0.42598 0.0
H1328 H 0.76834 0.85125 0.41798 0.0
H1329 H 0.79114 0.84531 0.41459 0.0
C1330 C 0.23473 0.01492 0.40702 0.0
C1331 C 0.22813 0.02893 0.39761 0.0
C1332 C 0.22897 0.992 0.39971 0.0
C1333 C 0.21622 0.98283 0.38263 0.0
C1334 C 0.20964 0.99692 0.37301 0.0
C1335 C 0.21571 0.01981 0.38059 0.0
C1336 C 0.23629 0.97749 0.41037 0.0
C1337 C 0.19603 0.98773 0.35475 0.0
C1338 C 0.21648 0.9314 0.35591 0.0
C1339 C 0.19563 0.91192 0.35936 0.0
C1340 C 0.22353 0.95455 0.36356 0.0
C1341 C 0.20939 0.95832 0.37493 0.0
C1342 C 0.1885 0.93872 0.37869 0.0
C1343 C 0.18188 0.91577 0.37089 0.0
C1344 C 0.246 0.97501 0.35934 0.0
C1345 C 0.17297 0.94202 0.39079 0.0
H1346 H 0.24405 0.02169 0.42028 0.0
H1347 H 0.21083 0.03065 0.37314 0.0
H1348 H 0.2211 0.96093 0.41357 0.0
H1349 H 0.24637 0.97204 0.40218 0.0
H1350 H 0.24668 0.98747 0.42323 0.0
H1351 H 0.19244 0.00101 0.34894 0.0
H1352 H 0.20537 0.98296 0.34516 0.0
H1353 H 0.17961 0.97128 0.35594 0.0
H1354 H 0.22728 0.92864 0.34708 0.0
H1355 H 0.16581 0.90086 0.37376 0.0
H1356 H 0.25696 0.98453 0.37205 0.0
H1357 H 0.24313 0.98804 0.35236 0.0
H1358 H 0.25529 0.969 0.35063 0.0
H1359 H 0.1822 0.95076 0.40424 0.0
H1360 H 0.15754 0.92486 0.3927 0.0
H1361 H 0.16755 0.9539 0.3849 0.0
C1362 C 0.53848 0.67121 0.28046 0.0
C1363 C 0.54428 0.6537 0.27609 0.0
C1364 C 0.55475 0.69384 0.28877 0.0
C1365 C 0.57763 0.69954 0.29217 0.0
C1366 C 0.58372 0.68214 0.28773 0.0
C1367 C 0.56693 0.65933 0.28011 0.0
C1368 C 0.54746 0.71172 0.29377 0.0
C1369 C 0.60808 0.68776 0.29071 0.0
C1370 C 0.62178 0.76548 0.29631 0.0
C1371 C 0.62776 0.77027 0.315 0.0
C1372 C 0.60597 0.74235 0.28864 0.0
C1373 C 0.59525 0.72387 0.30005 0.0
C1374 C 0.6011 0.72877 0.319 0.0
C1375 C 0.61769 0.75188 0.32622 0.0
C1376 C 0.60084 0.7377 0.26834 0.0
C1377 C 0.58946 0.70976 0.33165 0.0
H1378 H 0.52128 0.66749 0.27715 0.0
H1379 H 0.57167 0.64595 0.27729 0.0
H1380 H 0.55309 0.71882 0.30818 0.0
H1381 H 0.55563 0.72703 0.28554 0.0
H1382 H 0.52872 0.70386 0.29159 0.0
H1383 H 0.61014 0.67248 0.28598 0.0
H1384 H 0.6192 0.70329 0.28343 0.0
H1385 H 0.61417 0.69271 0.30529 0.0
H1386 H 0.6298 0.77977 0.28767 0.0
H1387 H 0.62228 0.75576 0.3407 0.0
H1388 H 0.58276 0.73205 0.26459 0.0
H1389 H 0.60347 0.72293 0.26329 0.0
H1390 H 0.6117 0.75369 0.26136 0.0
H1391 H 0.57083 0.70268 0.32993 0.0
H1392 H 0.59571 0.7166 0.34605 0.0
H1393 H 0.59223 0.69461 0.32833 0.0
C1394 C 0.33331 0.88623 0.24999 0.0
C1395 C 0.35383 0.89451 0.26068 0.0
C1396 C 0.31312 0.88002 0.25799 0.0
C1397 C 0.31376 0.88277 0.27708 0.0
C1398 C 0.33461 0.89139 0.28788 0.0
C1399 C 0.35439 0.8969 0.27952 0.0
C1400 C 0.29111 0.87038 0.24608 0.0
C1401 C 0.33605 0.89499 0.30824 0.0
C1402 C 0.26678 0.88848 0.2978 0.0
C1403 C 0.25413 0.8661 0.30417 0.0
C1404 C 0.28623 0.89415 0.28888 0.0
C1405 C 0.29269 0.87673 0.28583 0.0
C1406 C 0.27945 0.8538 0.29172 0.0
C1407 C 0.26047 0.84886 0.30107 0.0
C1408 C 0.30017 0.91894 0.28311 0.0
C1409 C 0.28541 0.83454 0.28824 0.0
H1410 H 0.33306 0.88436 0.23539 0.0
H1411 H 0.37041 0.90343 0.28767 0.0
H1412 H 0.27839 0.8526 0.24986 0.0
H1413 H 0.28394 0.88226 0.2481 0.0
H1414 H 0.29343 0.86869 0.23151 0.0
H1415 H 0.35368 0.90243 0.31462 0.0
H1416 H 0.32984 0.90729 0.31228 0.0
H1417 H 0.32494 0.87778 0.31368 0.0
H1418 H 0.26178 0.90177 0.30018 0.0
H1419 H 0.25044 0.83143 0.30581 0.0
H1420 H 0.30156 0.91803 0.26835 0.0
H1421 H 0.31769 0.92761 0.28995 0.0
H1422 H 0.29273 0.93035 0.28639 0.0
H1423 H 0.28684 0.83192 0.27361 0.0
H1424 H 0.27255 0.81724 0.29269 0.0
H1425 H 0.30219 0.84002 0.2955 0.0
C1426 C 0.12602 0.4705 0.29078 0.0
C1427 C 0.11305 0.46252 0.27394 0.0
C1428 C 0.13296 0.45626 0.29944 0.0
C1429 C 0.12675 0.43346 0.29106 0.0
C1430 C 0.11355 0.42523 0.27412 0.0
C1431 C 0.10687 0.43986 0.26576 0.0
C1432 C 0.147 0.46563 0.31751 0.0
C1433 C 0.10666 0.40104 0.26475 0.0
C1434 C 0.16192 0.40534 0.30454 0.0
C1435 C 0.14825 0.38901 0.31632 0.0
C1436 C 0.15517 0.41999 0.29631 0.0
C1437 C 0.13427 0.41831 0.29994 0.0
C1438 C 0.12048 0.40204 0.31191 0.0
C1439 C 0.12762 0.38757 0.31995 0.0
C1440 C 0.17032 0.43709 0.28358 0.0
C1441 C 0.09806 0.39975 0.31609 0.0
H1442 H 0.13059 0.48785 0.29729 0.0
H1443 H 0.09709 0.43371 0.25264 0.0
H1444 H 0.13814 0.45334 0.32782 0.0
H1445 H 0.16356 0.46643 0.31658 0.0
H1446 H 0.1503 0.48369 0.32225 0.0
H1447 H 0.09606 0.39712 0.25176 0.0
H1448 H 0.12204 0.40006 0.262 0.0
H1449 H 0.09695 0.38692 0.27365 0.0
H1450 H 0.17781 0.40651 0.30152 0.0
H1451 H 0.11692 0.37501 0.32901 0.0
H1452 H 0.17495 0.45558 0.28833 0.0
H1453 H 0.16105 0.43281 0.26992 0.0
H1454 H 0.1862 0.43645 0.28239 0.0
H1455 H 0.10077 0.41725 0.32172 0.0
H1456 H 0.08949 0.38648 0.3259 0.0
H1457 H 0.08651 0.39431 0.30347 0.0
C1458 C 0.35289 0.44923 0.2783 0.0
C1459 C 0.35434 0.4651 0.26573 0.0
C1460 C 0.33272 0.43559 0.28636 0.0
C1461 C 0.31344 0.4377 0.28161 0.0
C1462 C 0.31462 0.45334 0.26871 0.0
C1463 C 0.33508 0.46694 0.261 0.0
C1464 C 0.3321 0.4191 0.30008 0.0
C1465 C 0.29435 0.45595 0.26323 0.0
C1466 C 0.25582 0.38771 0.29183 0.0
C1467 C 0.25242 0.39755 0.30778 0.0
C1468 C 0.27547 0.40072 0.28299 0.0
C1469 C 0.29219 0.42392 0.29048 0.0
C1470 C 0.28876 0.43392 0.30659 0.0
C1471 C 0.26878 0.42065 0.31499 0.0
C1472 C 0.27832 0.38961 0.26567 0.0
C1473 C 0.30628 0.45855 0.31505 0.0
H1474 H 0.36755 0.44739 0.28182 0.0
H1475 H 0.33611 0.47938 0.2515 0.0
H1476 H 0.32805 0.42428 0.31324 0.0
H1477 H 0.31847 0.40055 0.29563 0.0
H1478 H 0.34852 0.41942 0.30221 0.0
H1479 H 0.29775 0.46806 0.25241 0.0
H1480 H 0.27944 0.43827 0.25838 0.0
H1481 H 0.28965 0.46308 0.27512 0.0
H1482 H 0.24302 0.3699 0.28616 0.0
H1483 H 0.2661 0.42823 0.32733 0.0
H1484 H 0.29358 0.38769 0.26753 0.0
H1485 H 0.28109 0.40137 0.2547 0.0
H1486 H 0.2633 0.37179 0.26125 0.0
H1487 H 0.32271 0.4593 0.31839 0.0
H1488 H 0.30099 0.46374 0.32758 0.0
H1489 H 0.30931 0.47189 0.30532 0.0
C1490 C 0.55519 0.91183 0.27379 0.0
C1491 C 0.53824 0.8964 0.26018 0.0
C1492 C 0.57061 0.90585 0.2817 0.0
C1493 C 0.56902 0.88391 0.27588 0.0
C1494 C 0.55216 0.8684 0.26197 0.0
C1495 C 0.53695 0.87483 0.25429 0.0
C1496 C 0.58845 0.92291 0.29644 0.0
C1497 C 0.54991 0.84483 0.25545 0.0
C1498 C 0.62045 0.87721 0.28738 0.0
C1499 C 0.61437 0.86496 0.30286 0.0
C1500 C 0.60569 0.88318 0.27824 0.0
C1501 C 0.58447 0.87683 0.28485 0.0
C1502 C 0.57818 0.86416 0.30036 0.0
C1503 C 0.59322 0.85833 0.30916 0.0
C1504 C 0.61291 0.8965 0.26165 0.0
C1505 C 0.55568 0.85703 0.30779 0.0
H1506 H 0.55649 0.92868 0.27819 0.0
H1507 H 0.52374 0.86272 0.24391 0.0
H1508 H 0.58604 0.9142 0.30917 0.0
H1509 H 0.60566 0.92769 0.29268 0.0
H1510 H 0.58781 0.93955 0.29907 0.0
H1511 H 0.53658 0.83531 0.24395 0.0
H1512 H 0.56635 0.84763 0.25115 0.0
H1513 H 0.54559 0.83322 0.26666 0.0
H1514 H 0.63678 0.88222 0.28246 0.0
H1515 H 0.5885 0.84878 0.32112 0.0
H1516 H 0.61407 0.91409 0.26406 0.0
H1517 H 0.59998 0.88649 0.25 0.0
H1518 H 0.62962 0.89939 0.25793 0.0
H1519 H 0.55474 0.87318 0.31185 0.0
H1520 H 0.55313 0.84671 0.3197 0.0
H1521 H 0.54147 0.84608 0.29719 0.0
C1522 C 0.12856 0.67631 0.26162 0.0
C1523 C 0.11411 0.65613 0.27024 0.0
C1524 C 0.13496 0.69939 0.26898 0.0
C1525 C 0.12753 0.70254 0.28576 0.0
C1526 C 0.11327 0.68242 0.29471 0.0
C1527 C 0.10639 0.65949 0.28669 0.0
C1528 C 0.14972 0.72041 0.2588 0.0
C1529 C 0.10546 0.68513 0.31286 0.0
C1530 C 0.16321 0.76286 0.31283 0.0
C1531 C 0.14937 0.7729 0.31051 0.0
C1532 C 0.15612 0.73978 0.30508 0.0
C1533 C 0.13512 0.72695 0.29417 0.0
C1534 C 0.12139 0.7374 0.2914 0.0
C1535 C 0.1285 0.76015 0.29994 0.0
C1536 C 0.1709 0.72898 0.30881 0.0
C1537 C 0.09936 0.72467 0.27928 0.0
H1538 H 0.13515 0.67421 0.24916 0.0
H1539 H 0.09483 0.6442 0.29335 0.0
H1540 H 0.14176 0.73155 0.25705 0.0
H1541 H 0.1665 0.73181 0.26665 0.0
H1542 H 0.15255 0.7148 0.24526 0.0
H1543 H 0.09509 0.66772 0.31836 0.0
H1544 H 0.12042 0.69666 0.32271 0.0
H1545 H 0.09518 0.69398 0.31168 0.0
H1546 H 0.17932 0.77286 0.32112 0.0
H1547 H 0.11801 0.76821 0.29805 0.0
H1548 H 0.17631 0.72479 0.29598 0.0
H1549 H 0.16104 0.71196 0.31491 0.0
H1550 H 0.18635 0.74104 0.31808 0.0
H1551 H 0.10251 0.71978 0.26564 0.0
H1552 H 0.09125 0.73575 0.27788 0.0
H1553 H 0.08724 0.70787 0.28477 0.0
C1554 C 0.79473 0.02437 0.38154 0.0
C1555 C 0.80323 0.02692 0.39966 0.0
C1556 C 0.77974 0.0018 0.37243 0.0
C1557 C 0.7724 0.98125 0.38181 0.0
C1558 C 0.78071 0.98359 0.40009 0.0
C1559 C 0.7963 0.00629 0.40867 0.0
C1560 C 0.77167 -4e-05 0.35279 0.0
C1561 C 0.77289 0.96213 0.41068 0.0
C1562 C 0.71645 0.92605 0.36403 0.0
C1563 C 0.72393 0.91139 0.35617 0.0
C1564 C 0.73206 0.94879 0.37253 0.0
C1565 C 0.75569 0.95731 0.37263 0.0
C1566 C 0.7633 0.94276 0.36427 0.0
C1567 C 0.74729 0.91976 0.35642 0.0
C1568 C 0.72326 0.96344 0.3818 0.0
C1569 C 0.78834 0.95149 0.36361 0.0
H1570 H 0.79949 0.04004 0.37444 0.0
H1571 H 0.80308 0.00779 0.42249 0.0
H1572 H 0.77494 0.98731 0.34465 0.0
H1573 H 0.75304 0.99283 0.3513 0.0
H1574 H 0.78018 0.01746 0.3471 0.0
H1575 H 0.78038 0.96707 0.42498 0.0
H1576 H 0.75407 0.95246 0.41049 0.0
H1577 H 0.77763 0.94957 0.40432 0.0
H1578 H 0.69835 0.9194 0.36403 0.0
H1579 H 0.75303 0.90841 0.35025 0.0
H1580 H 0.72966 0.98065 0.37585 0.0
H1581 H 0.72967 0.96763 0.39634 0.0
H1582 H 0.70438 0.95408 0.38068 0.0
H1583 H 0.79664 0.96866 0.35747 0.0
H1584 H 0.79141 0.9385 0.3557 0.0
H1585 H 0.7967 0.95484 0.37752 0.0
C1586 C 0.9918 0.77251 0.39736 0.0
C1587 C 0.99256 0.78613 0.41298 0.0
C1588 C 0.01144 0.77853 0.38864 0.0
C1589 C 0.03239 0.79865 0.39574 0.0
C1590 C 0.03339 0.8123 0.41165 0.0
C1591 C 0.01344 0.80589 0.42008 0.0
C1592 C 0.00975 0.76344 0.37177 0.0
C1593 C 0.05547 0.83383 0.41962 0.0
C1594 C 0.08611 0.8017 0.38086 0.0
C1595 C 0.09125 0.81692 0.36711 0.0
C1596 C 0.06724 0.79595 0.39057 0.0
C1597 C 0.05313 0.80555 0.38627 0.0
C1598 C 0.05839 0.82111 0.37246 0.0
C1599 C 0.07746 0.82664 0.36304 0.0
C1600 C 0.06231 0.77947 0.40531 0.0
C1601 C 0.04373 0.83169 0.36751 0.0
H1602 H 0.97581 0.75697 0.392 0.0
H1603 H 0.0141 0.81663 0.43205 0.0
H1604 H 0.01508 0.77452 0.36024 0.0
H1605 H 0.02145 0.75634 0.37372 0.0
H1606 H 0.99222 0.74821 0.36813 0.0
H1607 H 0.05346 0.84226 0.43226 0.0
H1608 H 0.06848 0.82867 0.4226 0.0
H1609 H 0.0621 0.84728 0.40969 0.0
H1610 H 0.0968 0.79419 0.38399 0.0
H1611 H 0.08149 0.83849 0.35242 0.0
H1612 H 0.04509 0.76356 0.40229 0.0
H1613 H 0.06244 0.78865 0.41839 0.0
H1614 H 0.0749 0.77343 0.40689 0.0
H1615 H 0.02624 0.81722 0.36266 0.0
H1616 H 0.05053 0.844 0.3568 0.0
H1617 H 0.04244 0.84159 0.3796 0.0
C1618 C 0.22636 0.24115 0.40732 0.0
C1619 C 0.22075 0.21905 0.39838 0.0
C1620 C 0.22026 0.25639 0.39923 0.0
C1621 C 0.20804 0.24921 0.38189 0.0
C1622 C 0.2023 0.22691 0.37281 0.0
C1623 C 0.20881 0.21213 0.38114 0.0
C1624 C 0.2267 0.28003 0.40935 0.0
C1625 C 0.18906 0.21855 0.35439 0.0
C1626 C 0.17357 0.27797 0.36818 0.0
C1627 C 0.18769 0.2946 0.35676 0.0
C1628 C 0.17998 0.26309 0.37643 0.0
C1629 C 0.20107 0.26493 0.37327 0.0
C1630 C 0.21546 0.28172 0.36186 0.0
C1631 C 0.20858 0.29634 0.35371 0.0
C1632 C 0.1642 0.24546 0.38858 0.0
C1633 C 0.23821 0.28437 0.35838 0.0
H1634 H 0.23578 0.24665 0.42058 0.0
H1635 H 0.20419 0.19493 0.3743 0.0
H1636 H 0.23501 0.2947 0.40056 0.0
H1637 H 0.21112 0.27973 0.41336 0.0
H1638 H 0.23835 0.2841 0.42174 0.0
H1639 H 0.18604 0.20077 0.34911 0.0
H1640 H 0.17237 0.21753 0.35508 0.0
H1641 H 0.19836 0.23154 0.34462 0.0
H1642 H 0.1575 0.27662 0.37082 0.0
H1643 H 0.21968 0.30922 0.34502 0.0
H1644 H 0.17255 0.24991 0.40258 0.0
H1645 H 0.16046 0.22721 0.38402 0.0
H1646 H 0.14786 0.24536 0.38884 0.0
H1647 H 0.24898 0.28898 0.37135 0.0
H1648 H 0.24746 0.29837 0.34923 0.0
H1649 H 0.2358 0.26721 0.35224 0.0
C1650 C 0.6443 0.54643 0.72568 0.0
C1651 C 0.64333 0.52861 0.736 0.0
C1652 C 0.66357 0.56055 0.71676 0.0
C1653 C 0.68229 0.55673 0.71818 0.0
C1654 C 0.68144 0.53881 0.7286 0.0
C1655 C 0.66198 0.52498 0.73739 0.0
C1656 C 0.66388 0.57951 0.70578 0.0
C1657 C 0.70112 0.53428 0.73048 0.0
C1658 C 0.72407 0.57787 0.68239 0.0
C1659 C 0.74208 0.59904 0.69127 0.0
C1660 C 0.70439 0.56397 0.69096 0.0
C1661 C 0.70281 0.57149 0.7088 0.0
C1662 C 0.72096 0.59296 0.71777 0.0
C1663 C 0.74042 0.60648 0.70889 0.0
C1664 C 0.68538 0.54117 0.68098 0.0
C1665 C 0.71992 0.60152 0.73681 0.0
H1666 H 0.62983 0.54913 0.72438 0.0
H1667 H 0.66146 0.51147 0.74555 0.0
H1668 H 0.67851 0.59723 0.71097 0.0
H1669 H 0.66617 0.576 0.6915 0.0
H1670 H 0.64799 0.58031 0.70612 0.0
H1671 H 0.6977 0.51958 0.739 0.0
H1672 H 0.70476 0.5297 0.71694 0.0
H1673 H 0.71667 0.55068 0.73657 0.0
H1674 H 0.7254 0.57212 0.66877 0.0
H1675 H 0.75442 0.62283 0.7158 0.0
H1676 H 0.66935 0.54175 0.68009 0.0
H1677 H 0.68238 0.5258 0.68854 0.0
H1678 H 0.68915 0.53801 0.66708 0.0
H1679 H 0.7045 0.60311 0.73756 0.0
H1680 H 0.73511 0.61906 0.7416 0.0
H1681 H 0.71866 0.58834 0.74618 0.0
C1682 C 0.45164 0.09642 0.74587 0.0
C1683 C 0.46621 0.09359 0.73471 0.0
C1684 C 0.43697 0.10409 0.73917 0.0
C1685 C 0.43657 0.10849 0.72078 0.0
C1686 C 0.45114 0.10545 0.70942 0.0
C1687 C 0.46599 0.09828 0.71659 0.0
C1688 C 0.42201 0.1076 0.75177 0.0
C1689 C 0.45086 0.10952 0.68965 0.0
C1690 C 0.38342 0.1056 0.69916 0.0
C1691 C 0.39065 0.12979 0.69843 0.0
C1692 C 0.39825 0.09841 0.70634 0.0
C1693 C 0.42063 0.1159 0.71332 0.0
C1694 C 0.42784 0.1404 0.71296 0.0
C1695 C 0.41279 0.14706 0.70532 0.0
C1696 C 0.39007 0.07211 0.70622 0.0
C1697 C 0.45142 0.15955 0.72062 0.0
H1698 H 0.45203 0.093 0.75994 0.0
H1699 H 0.47721 0.09594 0.70797 0.0
H1700 H 0.42522 0.12611 0.7519 0.0
H1701 H 0.40384 0.09547 0.7469 0.0
H1702 H 0.42494 0.10417 0.76584 0.0
H1703 H 0.46308 0.1061 0.68262 0.0
H1704 H 0.43353 0.09765 0.68277 0.0
H1705 H 0.45513 0.12814 0.68821 0.0
H1706 H 0.36628 0.09225 0.69379 0.0
H1707 H 0.41827 0.16579 0.70487 0.0
H1708 H 0.3912 0.06753 0.72022 0.0
H1709 H 0.40116 0.06766 0.69848 0.0
H1710 H 0.37223 0.0608 0.70013 0.0
H1711 H 0.45443 0.15716 0.73496 0.0
H1712 H 0.45407 0.17777 0.7199 0.0
H1713 H 0.46435 0.15804 0.71312 0.0
C1714 C 0.89363 0.35238 0.7028 0.0
C1715 C 0.90514 0.36064 0.72019 0.0
C1716 C 0.88677 0.32931 0.69511 0.0
C1717 C 0.89158 0.31416 0.70505 0.0
C1718 C 0.90389 0.32268 0.72234 0.0
C1719 C 0.91051 0.34581 0.72971 0.0
C1720 C 0.8737 0.32087 0.67662 0.0
C1721 C 0.90933 0.30704 0.73334 0.0
C1722 C 0.85175 0.24747 0.69569 0.0
C1723 C 0.86427 0.24056 0.68505 0.0
C1724 C 0.86044 0.27136 0.70218 0.0
C1725 C 0.88222 0.28885 0.69796 0.0
C1726 C 0.89494 0.2821 0.68716 0.0
C1727 C 0.88581 0.25801 0.68081 0.0
C1728 C 0.84632 0.27786 0.71365 0.0
C1729 C 0.91826 0.3003 0.68244 0.0
H1730 H 0.88977 0.3639 0.69525 0.0
H1731 H 0.9192 0.35199 0.74323 0.0
H1732 H 0.88179 0.31368 0.66763 0.0
H1733 H 0.85614 0.30617 0.67776 0.0
H1734 H 0.87271 0.33535 0.67016 0.0
H1735 H 0.92056 0.31693 0.7459 0.0
H1736 H 0.89333 0.29191 0.73714 0.0
H1737 H 0.91775 0.29938 0.72521 0.0
H1738 H 0.83511 0.23418 0.69908 0.0
H1739 H 0.89564 0.25286 0.67263 0.0
H1740 H 0.84328 0.29116 0.70728 0.0
H1741 H 0.85565 0.28617 0.72714 0.0
H1742 H 0.8296 0.26214 0.71555 0.0
H1743 H 0.91726 0.31433 0.67534 0.0
H1744 H 0.92585 0.2922 0.67372 0.0
H1745 H 0.92983 0.3092 0.69499 0.0
C1746 C 0.19671 0.97922 0.62458 0.0
C1747 C 0.19914 0.97248 0.60697 0.0
C1748 C 0.21271 0.00156 0.6335 0.0
C1749 C 0.23144 0.01755 0.62452 0.0
C1750 C 0.23403 0.01078 0.60677 0.0
C1751 C 0.21786 0.9883 0.59823 0.0
C1752 C 0.20949 0.00812 0.65247 0.0
C1753 C 0.25369 0.02744 0.59672 0.0
C1754 C 0.26059 0.08375 0.63934 0.0
C1755 C 0.28028 0.08767 0.64958 0.0
C1756 C 0.24445 0.06097 0.63128 0.0
C1757 C 0.24807 0.0416 0.63349 0.0
C1758 C 0.26777 0.04534 0.64393 0.0
C1759 C 0.28365 0.06834 0.65186 0.0
C1760 C 0.22365 0.05767 0.62023 0.0
C1761 C 0.27219 0.02509 0.64654 0.0
H1762 H 0.18237 0.96692 0.63143 0.0
H1763 H 0.21963 0.98325 0.58453 0.0
H1764 H 0.22472 0.01273 0.66173 0.0
H1765 H 0.20759 0.02412 0.65276 0.0
H1766 H 0.1943 0.99345 0.6577 0.0
H1767 H 0.25349 0.01926 0.58313 0.0
H1768 H 0.25311 0.04399 0.59506 0.0
H1769 H 0.27006 0.03271 0.6046 0.0
H1770 H 0.2578 0.09853 0.63746 0.0
H1771 H 0.29881 0.07116 0.65971 0.0
H1772 H 0.208 0.0441 0.6257 0.0
H1773 H 0.2233 0.05101 0.60608 0.0
H1774 H 0.22317 0.0745 0.6201 0.0
H1775 H 0.2577 0.01057 0.65253 0.0
H1776 H 0.28803 0.03084 0.65543 0.0
H1777 H 0.2736 0.01752 0.63325 0.0
C1778 C 0.98949 0.18038 0.58463 0.0
C1779 C 0.00986 0.20235 0.58744 0.0
C1780 C 0.9709 0.17596 0.59436 0.0
C1781 C 0.97282 0.19389 0.60727 0.0
C1782 C 0.99338 0.21605 0.61023 0.0
C1783 C 0.01164 0.22003 0.60025 0.0
C1784 C 0.94916 0.15218 0.59073 0.0
C1785 C 0.9961 0.23555 0.62396 0.0
C1786 C 0.91947 0.19278 0.62089 0.0
C1787 C 0.91691 0.18308 0.63752 0.0
C1788 C 0.9374 0.19604 0.61076 0.0
C1789 C 0.95323 0.18965 0.61754 0.0
C1790 C 0.95062 0.17969 0.6343 0.0
C1791 C 0.93236 0.1764 0.64407 0.0
C1792 C 0.93946 0.20646 0.59287 0.0
C1793 C 0.96723 0.17275 0.64197 0.0
H1794 H 0.98798 0.16676 0.57461 0.0
H1795 H 0.02747 0.23691 0.60265 0.0
H1796 H 0.94472 0.1433 0.60338 0.0
H1797 H 0.93494 0.15489 0.58608 0.0
H1798 H 0.9505 0.14008 0.58034 0.0
H1799 H 0.01331 0.25165 0.62479 0.0
H1800 H 0.98328 0.24079 0.6204 0.0
H1801 H 0.99304 0.22894 0.63752 0.0
H1802 H 0.90737 0.19775 0.61574 0.0
H1803 H 0.93031 0.16884 0.65692 0.0
H1804 H 0.93985 0.19433 0.58196 0.0
H1805 H 0.95568 0.22367 0.59345 0.0
H1806 H 0.92519 0.20957 0.58919 0.0
H1807 H 0.96794 0.15959 0.63225 0.0
H1808 H 0.96261 0.16494 0.65505 0.0
H1809 H 0.98457 0.18864 0.64409 0.0
C1810 C 0.78361 0.78756 0.62357 0.0
C1811 C 0.76097 0.77941 0.61694 0.0
C1812 C 0.78989 0.77237 0.63146 0.0
C1813 C 0.77335 0.74812 0.63213 0.0
C1814 C 0.75045 0.73973 0.62568 0.0
C1815 C 0.74446 0.75556 0.61848 0.0
C1816 C 0.81442 0.78214 0.63858 0.0
C1817 C 0.73244 0.71384 0.62576 0.0
C1818 C 0.79794 0.70724 0.63207 0.0
C1819 C 0.79747 0.7024 0.65016 0.0
C1820 C 0.78913 0.72119 0.62587 0.0
C1821 C 0.78048 0.7313 0.63828 0.0
C1822 C 0.77985 0.72629 0.6566 0.0
C1823 C 0.78802 0.71145 0.66227 0.0
C1824 C 0.78945 0.72544 0.60611 0.0
C1825 C 0.77146 0.73739 0.67032 0.0
H1826 H 0.79672 0.8057 0.6222 0.0
H1827 H 0.72683 0.74907 0.61387 0.0
H1828 H 0.81543 0.7769 0.65238 0.0
H1829 H 0.82234 0.77454 0.62979 0.0
H1830 H 0.82453 0.80189 0.63906 0.0
H1831 H 0.71524 0.71032 0.62089 0.0
H1832 H 0.73675 0.70257 0.61694 0.0
H1833 H 0.7319 0.70817 0.63958 0.0
H1834 H 0.80514 0.69997 0.62272 0.0
H1835 H 0.78785 0.7077 0.67629 0.0
H1836 H 0.80136 0.74451 0.60464 0.0
H1837 H 0.77231 0.7212 0.60041 0.0
H1838 H 0.79481 0.71452 0.598 0.0
H1839 H 0.78272 0.75706 0.67169 0.0
H1840 H 0.77114 0.73086 0.68383 0.0
H1841 H 0.75411 0.73355 0.66572 0.0
C1842 C 0.00949 0.76915 0.60814 0.0
C1843 C 0.0108 0.78442 0.59509 0.0
C1844 C 0.98933 0.75573 0.61625 0.0
C1845 C 0.96994 0.75746 0.61109 0.0
C1846 C 0.97098 0.77245 0.59768 0.0
C1847 C 0.99142 0.78583 0.58989 0.0
C1848 C 0.98884 0.73987 0.63049 0.0
C1849 C 0.95058 0.77462 0.59175 0.0
C1850 C 0.91241 0.70782 0.62163 0.0
C1851 C 0.90871 0.71818 0.63715 0.0
C1852 C 0.93215 0.72051 0.61284 0.0
C1853 C 0.94872 0.74393 0.62 0.0
C1854 C 0.94514 0.75437 0.63581 0.0
C1855 C 0.92508 0.74136 0.64417 0.0
C1856 C 0.93521 0.7089 0.59589 0.0
C1857 C 0.96252 0.77924 0.6439 0.0
H1858 H 0.02426 0.76765 0.61201 0.0
H1859 H 0.99235 0.7978 0.57999 0.0
H1860 H 0.98475 0.7455 0.64344 0.0
H1861 H 0.97528 0.72118 0.62637 0.0
H1862 H 0.00532 0.74036 0.63285 0.0
H1863 H 0.95397 0.78648 0.58075 0.0
H1864 H 0.93587 0.75677 0.58696 0.0
H1865 H 0.94555 0.78179 0.6034 0.0
H1866 H 0.89982 0.68978 0.61629 0.0
H1867 H 0.92223 0.74934 0.65621 0.0
H1868 H 0.95103 0.70803 0.59781 0.0
H1869 H 0.937 0.71976 0.58447 0.0
H1870 H 0.92067 0.69057 0.59209 0.0
H1871 H 0.97904 0.78026 0.64741 0.0
H1872 H 0.95717 0.78474 0.65625 0.0
H1873 H 0.96541 0.7922 0.63385 0.0
C1874 C 0.18642 0.1927 0.60127 0.0
C1875 C 0.19203 0.2056 0.58608 0.0
C1876 C 0.20221 0.18843 0.61069 0.0
C1877 C 0.22424 0.19749 0.60487 0.0
C1878 C 0.23 0.21043 0.58947 0.0
C1879 C 0.21375 0.21423 0.58018 0.0
C1880 C 0.19529 0.17415 0.62683 0.0
C1881 C 0.25339 0.22052 0.58298 0.0
C1882 C 0.26988 0.20425 0.64028 0.0
C1883 C 0.27111 0.1838 0.63559 0.0
C1884 C 0.25514 0.20932 0.63005 0.0
C1885 C 0.24116 0.19333 0.61498 0.0
C1886 C 0.24255 0.17275 0.61013 0.0
C1887 C 0.25762 0.16832 0.62046 0.0
C1888 C 0.25428 0.23156 0.63552 0.0
C1889 C 0.22786 0.15521 0.59422 0.0
H1890 H 0.16952 0.18572 0.60569 0.0
H1891 H 0.21818 0.22438 0.56852 0.0
H1892 H 0.19728 0.15828 0.62466 0.0
H1893 H 0.20655 0.18504 0.63909 0.0
H1894 H 0.17738 0.16806 0.62943 0.0
H1895 H 0.25515 0.23014 0.57077 0.0
H1896 H 0.26644 0.23302 0.59386 0.0
H1897 H 0.25709 0.20599 0.57979 0.0
H1898 H 0.28042 0.21628 0.65195 0.0
H1899 H 0.25847 0.15238 0.61696 0.0
H1900 H 0.23716 0.2266 0.6396 0.0
H1901 H 0.25718 0.24233 0.62387 0.0
H1902 H 0.26716 0.24281 0.64694 0.0
H1903 H 0.20967 0.14925 0.59545 0.0
H1904 H 0.22985 0.13925 0.59307 0.0
H1905 H 0.2324 0.16396 0.58153 0.0
C1906 C 0.78653 0.99474 0.60798 0.0
C1907 C 0.76871 0.97498 0.6149 0.0
C1908 C 0.79466 0.01801 0.61582 0.0
C1909 C 0.78553 0.02167 0.6315 0.0
C1910 C 0.76821 0.00189 0.63903 0.0
C1911 C 0.75969 0.97884 0.63045 0.0
C1912 C 0.81277 0.0387 0.6071 0.0
C1913 C 0.75856 0.00509 0.65608 0.0
C1914 C 0.82241 0.08217 0.65809 0.0
C1915 C 0.81114 0.09422 0.65289 0.0
C1916 C 0.81366 0.05812 0.6519 0.0
C1917 C 0.79376 0.04633 0.63963 0.0
C1918 C 0.78237 0.05854 0.63436 0.0
C1919 C 0.79098 0.08226 0.64135 0.0
C1920 C 0.82578 0.0454 0.65834 0.0
C1921 C 0.7616 0.04689 0.6208 0.0
H1922 H 0.79426 0.99215 0.59638 0.0
H1923 H 0.74575 0.96392 0.63586 0.0
H1924 H 0.80673 0.05117 0.60379 0.0
H1925 H 0.82833 0.04881 0.61664 0.0
H1926 H 0.81741 0.03284 0.59451 0.0
H1927 H 0.74661 0.98778 0.66108 0.0
H1928 H 0.77253 0.01593 0.66689 0.0
H1929 H 0.74937 0.01486 0.65355 0.0
H1930 H 0.83793 0.0915 0.66715 0.0
H1931 H 0.78245 0.09177 0.63724 0.0
H1932 H 0.83315 0.04089 0.64688 0.0
H1933 H 0.81354 0.0284 0.66354 0.0
H1934 H 0.8397 0.05639 0.66917 0.0
H1935 H 0.766 0.04173 0.6078 0.0
H1936 H 0.75469 0.05884 0.61822 0.0
H1937 H 0.74805 0.03035 0.62564 0.0
C1938 C 0.43742 0.32721 0.74727 0.0
C1939 C 0.4578 0.34077 0.73948 0.0
C1940 C 0.42074 0.30466 0.7391 0.0
C1941 C 0.42469 0.29542 0.72288 0.0
C1942 C 0.44528 0.30901 0.71499 0.0
C1943 C 0.46154 0.33159 0.72334 0.0
C1944 C 0.39887 0.29078 0.74779 0.0
C1945 C 0.45023 0.2996 0.69783 0.0
C1946 C 0.39216 0.22857 0.71011 0.0
C1947 C 0.37584 0.2261 0.69649 0.0
C1948 C 0.40798 0.25099 0.71897 0.0
C1949 C 0.4074 0.27143 0.71417 0.0
C1950 C 0.39071 0.26904 0.7007 0.0
C1951 C 0.37516 0.2464 0.69198 0.0
C1952 C 0.42551 0.25281 0.73328 0.0
C1953 C 0.38941 0.29043 0.69539 0.0
H1954 H 0.43442 0.33439 0.75966 0.0
H1955 H 0.4774 0.34194 0.71742 0.0
H1956 H 0.38413 0.28671 0.73811 0.0
H1957 H 0.39682 0.27349 0.75126 0.0
H1958 H 0.39832 0.30064 0.76027 0.0
H1959 H 0.46709 0.3124 0.69347 0.0
H1960 H 0.44982 0.28262 0.69987 0.0
H1961 H 0.43693 0.29569 0.68676 0.0
H1962 H 0.39275 0.21299 0.71381 0.0
H1963 H 0.36252 0.24466 0.68157 0.0
H1964 H 0.42431 0.26124 0.74625 0.0
H1965 H 0.44286 0.26436 0.7292 0.0
H1966 H 0.42343 0.23514 0.73562 0.0
H1967 H 0.38773 0.30004 0.70748 0.0
H1968 H 0.37484 0.28542 0.68519 0.0
H1969 H 0.40535 0.30305 0.68972 0.0
C1970 C 0.65581 0.08167 0.72841 0.0
C1971 C 0.6491 0.09754 0.7351 0.0
C1972 C 0.67648 0.09004 0.72069 0.0
C1973 C 0.69037 0.11478 0.71926 0.0
C1974 C 0.68347 0.13083 0.72583 0.0
C1975 C 0.66299 0.12202 0.73388 0.0
C1976 C 0.68354 0.07246 0.7142 0.0
C1977 C 0.69761 0.15726 0.72421 0.0
C1978 C 0.75305 0.13992 0.71364 0.0
C1979 C 0.75326 0.14055 0.69487 0.0
C1980 C 0.73267 0.13148 0.72178 0.0
C1981 C 0.71212 0.12387 0.71086 0.0
C1982 C 0.71234 0.12487 0.6919 0.0
C1983 C 0.73293 0.13301 0.6841 0.0
C1984 C 0.73308 0.13032 0.742 0.0
C1985 C 0.69083 0.11742 0.67989 0.0
H1986 H 0.64502 0.06275 0.72949 0.0
H1987 H 0.6576 0.1342 0.73897 0.0
H1988 H 0.68539 0.07301 0.69949 0.0
H1989 H 0.70037 0.07741 0.72112 0.0
H1990 H 0.67107 0.0539 0.71672 0.0
H1991 H 0.68958 0.16726 0.72965 0.0
H1992 H 0.71468 0.16457 0.7316 0.0
H1993 H 0.70018 0.16046 0.70981 0.0
H1994 H 0.76881 0.14574 0.72196 0.0
H1995 H 0.73316 0.13362 0.66958 0.0
H1996 H 0.72295 0.11148 0.74498 0.0
H1997 H 0.72514 0.14002 0.74811 0.0
H1998 H 0.75062 0.13804 0.74865 0.0
H1999 H 0.67838 0.09835 0.68085 0.0
H2000 H 0.69404 0.12001 0.66548 0.0
H2001 H 0.68286 0.12785 0.68447 0.0
C2002 C 0.90282 0.55636 0.70183 0.0
C2003 C 0.8942 0.54669 0.71797 0.0
C2004 C 0.89482 0.56945 0.6927 0.0
C2005 C 0.87849 0.57384 0.70024 0.0
C2006 C 0.86994 0.5645 0.71661 0.0
C2007 C 0.87749 0.55063 0.72503 0.0
C2008 C 0.90383 0.57856 0.67498 0.0
C2009 C 0.85291 0.56931 0.72534 0.0
C2010 C 0.87382 0.62706 0.68774 0.0
C2011 C 0.85295 0.61589 0.67709 0.0
C2012 C 0.88255 0.61359 0.69517 0.0
C2013 C 0.87048 0.58849 0.69124 0.0
C2014 C 0.84996 0.57729 0.67968 0.0
C2015 C 0.84116 0.59113 0.67305 0.0
C2016 C 0.90403 0.62611 0.70796 0.0
C2017 C 0.83705 0.55068 0.67465 0.0
H2018 H 0.91599 0.55394 0.69631 0.0
H2019 H 0.87012 0.5428 0.73715 0.0
H2020 H 0.88948 0.57268 0.66439 0.0
H2021 H 0.91336 0.59833 0.6764 0.0
H2022 H 0.91529 0.57221 0.67031 0.0
H2023 H 0.8489 0.56184 0.73858 0.0
H2024 H 0.85962 0.58881 0.72744 0.0
H2025 H 0.83688 0.56144 0.71632 0.0
H2026 H 0.88272 0.64623 0.69103 0.0
H2027 H 0.82503 0.5826 0.66473 0.0
H2028 H 0.91676 0.62157 0.70341 0.0
H2029 H 0.90013 0.61995 0.72161 0.0
H2030 H 0.91176 0.64581 0.70909 0.0
H2031 H 0.8487 0.54467 0.66989 0.0
H2032 H 0.82291 0.54517 0.66392 0.0
H2033 H 0.82983 0.54134 0.68672 0.0
C2034 C 0.4661 0.98744 0.12848 0.0
C2035 C 0.48194 0.98331 0.13801 0.0
C2036 C 0.47001 0.99603 0.11137 0.0
C2037 C 0.49023 0.0006 0.10373 0.0
C2038 C 0.50677 0.99763 0.11372 0.0
C2039 C 0.50244 0.98907 0.13075 0.0
C2040 C 0.45207 0.99912 0.10111 0.0
C2041 C 0.52852 0.00222 0.10602 0.0
C2042 C 0.49031 0.99108 0.0532 0.0
C2043 C 0.50276 0.01451 0.04856 0.0
C2044 C 0.4852 0.9864 0.07098 0.0
C2045 C 0.49302 0.00566 0.08454 0.0
C2046 C 0.50502 0.02942 0.07987 0.0
C2047 C 0.50979 0.03358 0.06185 0.0
C2048 C 0.47223 0.96078 0.07533 0.0
C2049 C 0.51347 0.05037 0.09398 0.0
H2050 H 0.4502 0.98296 0.13402 0.0
H2051 H 0.51492 0.98636 0.13825 0.0
H2052 H 0.45973 0.0174 0.09682 0.0
H2053 H 0.44512 0.98654 0.08866 0.0
H2054 H 0.4378 0.99591 0.10927 0.0
H2055 H 0.54046 0.00107 0.11612 0.0
H2056 H 0.52447 0.9889 0.09432 0.0
H2057 H 0.53722 0.02011 0.10101 0.0
H2058 H 0.48505 0.97626 0.04301 0.0
H2059 H 0.5194 0.05171 0.05825 0.0
H2060 H 0.45736 0.95762 0.08266 0.0
H2061 H 0.48336 0.95701 0.08431 0.0
H2062 H 0.46605 0.94795 0.063 0.0
H2063 H 0.49954 0.04821 0.10217 0.0
H2064 H 0.52035 0.06756 0.08788 0.0
H2065 H 0.52712 0.05117 0.10336 0.0
C2066 C 0.02262 0.5226 0.1302 0.0
C2067 C 0.02456 0.50511 0.13903 0.0
C2068 C 0.01423 0.51846 0.11198 0.0
C2069 C 0.00715 0.49609 0.10237 0.0
C2070 C 0.00802 0.47793 0.11137 0.0
C2071 C 0.01685 0.48269 0.1296 0.0
C2072 C 0.01372 0.53838 0.10284 0.0
C2073 C 0.00038 0.45378 0.10158 0.0
C2074 C 0.97225 0.48546 0.05774 0.0
C2075 C 0.98901 0.49241 0.04567 0.0
C2076 C 0.97759 0.4852 0.0762 0.0
C2077 C 0.0003 0.49253 0.08264 0.0
C2078 C 0.0171 0.49891 0.07032 0.0
C2079 C 0.01122 0.49884 0.05199 0.0
C2080 C 0.95917 0.47795 0.08889 0.0
C2081 C 0.04157 0.50708 0.07661 0.0
H2082 H 0.02802 0.53976 0.13751 0.0
H2083 H 0.01839 0.46912 0.13628 0.0
H2084 H 0.02516 0.5435 0.09183 0.0
H2085 H 0.99632 0.53231 0.0966 0.0
H2086 H 0.01916 0.55446 0.11239 0.0
H2087 H -0.00024 0.44081 0.11095 0.0
H2088 H 0.98328 0.44649 0.09424 0.0
H2089 H 0.01228 0.45554 0.09138 0.0
H2090 H 0.95507 0.48057 0.0528 0.0
H2091 H 0.02433 0.50507 0.04277 0.0
H2092 H 0.96238 0.49377 0.09785 0.0
H2093 H 0.95934 0.46481 0.09768 0.0
H2094 H 0.94199 0.47009 0.08151 0.0
H2095 H 0.04909 0.52432 0.08514 0.0
H2096 H 0.05206 0.50948 0.06513 0.0
H2097 H 0.04253 0.49402 0.08502 0.0
C2098 C 0.4753 0.52614 0.12349 0.0
C2099 C 0.48034 0.51584 0.13775 0.0
C2100 C 0.48144 0.52391 0.1061 0.0
C2101 C 0.49276 0.51095 0.10291 0.0
C2102 C 0.49737 0.50001 0.11716 0.0
C2103 C 0.49116 0.50265 0.13444 0.0
C2104 C 0.47663 0.53627 0.09137 0.0
C2105 C 0.50936 0.48601 0.11426 0.0
C2106 C 0.49385 0.49006 0.05444 0.0
C2107 C 0.51511 0.50809 0.05032 0.0
C2108 C 0.48626 0.49079 0.0715 0.0
C2109 C 0.50061 0.50964 0.08486 0.0
C2110 C 0.5224 0.52749 0.08091 0.0
C2111 C 0.52936 0.52653 0.06364 0.0
C2112 C 0.46273 0.47173 0.0751 0.0
C2113 C 0.53819 0.54786 0.0948 0.0
H2114 H 0.46722 0.53662 0.12607 0.0
H2115 H 0.49488 0.49449 0.14542 0.0
H2116 H 0.49265 0.55257 0.08907 0.0
H2117 H 0.47019 0.52467 0.07845 0.0
H2118 H 0.46407 0.54161 0.09498 0.0
H2119 H 0.51097 0.47791 0.12659 0.0
H2120 H 0.49998 0.4716 0.1031 0.0
H2121 H 0.52664 0.49787 0.11021 0.0
H2122 H 0.48292 0.47566 0.04417 0.0
H2123 H 0.54582 0.54049 0.06046 0.0
H2124 H 0.4527 0.48003 0.0794 0.0
H2125 H 0.46394 0.46178 0.08632 0.0
H2126 H 0.45333 0.45887 0.06301 0.0
H2127 H 0.53028 0.55866 0.09852 0.0
H2128 H 0.55492 0.55974 0.08981 0.0
H2129 H 0.54109 0.54085 0.1073 0.0
C2130 C 0.95261 0.48758 0.87066 0.0
C2131 C 0.9691 0.49843 0.85853 0.0
C2132 C 0.95893 0.48881 0.88913 0.0
C2133 C 0.98228 0.50133 0.89558 0.0
C2134 C 0.99893 0.51317 0.88351 0.0
C2135 C 0.99214 0.51145 0.86509 0.0
C2136 C 0.94069 0.47581 0.90156 0.0
C2137 C 0.02398 0.52703 0.88994 0.0
C2138 C 0.00022 0.51745 0.94601 0.0
C2139 C 0.00512 0.49967 0.95021 0.0
C2140 C 0.99232 0.51802 0.92832 0.0
C2141 C 0.98947 0.50047 0.9146 0.0
C2142 C 0.99418 0.48233 0.91889 0.0
C2143 C 0.00205 0.48222 0.93665 0.0
C2144 C 0.98729 0.53751 0.9243 0.0
C2145 C 0.99106 0.46311 0.90468 0.0
H2146 H 0.93478 0.47734 0.86559 0.0
H2147 H 0.00489 0.52013 0.85576 0.0
H2148 H 0.94182 0.46041 0.90603 0.0
H2149 H 0.94321 0.48764 0.91386 0.0
H2150 H 0.92332 0.4691 0.89487 0.0
H2151 H 0.0346 0.53676 0.87915 0.0
H2152 H 0.02718 0.54007 0.90162 0.0
H2153 H 0.02952 0.51466 0.89462 0.0
H2154 H 0.00274 0.53103 0.95652 0.0
H2155 H 0.00572 0.46838 0.93995 0.0
H2156 H 0.96952 0.52965 0.91817 0.0
H2157 H 0.99863 0.54853 0.91433 0.0
H2158 H 0.98967 0.54931 0.93663 0.0
H2159 H 0.97336 0.45369 0.89814 0.0
H2160 H 0.99467 0.44979 0.91039 0.0
H2161 H 0.00255 0.47126 0.89397 0.0
C2162 C 0.51444 0.50123 0.87153 0.0
C2163 C 0.52995 0.49311 0.87037 0.0
C2164 C 0.50793 0.50532 0.88832 0.0
C2165 C 0.51735 0.50139 0.90428 0.0
C2166 C 0.53386 0.49429 0.90324 0.0
C2167 C 0.53982 0.49003 0.88625 0.0
C2168 C 0.49027 0.51285 0.88891 0.0
C2169 C 0.54468 0.4905 0.92002 0.0
C2170 C 0.51161 0.52602 0.94998 0.0
C2171 C 0.49332 0.50578 0.95578 0.0
C2172 C 0.51952 0.52499 0.93311 0.0
C2173 C 0.50886 0.50316 0.92193 0.0
C2174 C 0.49014 0.48276 0.92769 0.0
C2175 C 0.48247 0.48438 0.94452 0.0
C2176 C 0.53922 0.54721 0.92726 0.0
C2177 C 0.4785 0.45908 0.91625 0.0
H2178 H 0.50669 0.50345 0.85924 0.0
H2179 H 0.55203 0.48402 0.88534 0.0
H2180 H 0.47454 0.49841 0.89367 0.0
H2181 H 0.49644 0.52887 0.89864 0.0
H2182 H 0.48589 0.51685 0.87545 0.0
H2183 H 0.55864 0.48703 0.91703 0.0
H2184 H 0.55164 0.50636 0.93006 0.0
H2185 H 0.53162 0.4751 0.92641 0.0
H2186 H 0.51976 0.54262 0.9587 0.0
H2187 H 0.46843 0.46869 0.94913 0.0
H2188 H 0.53319 0.55322 0.91564 0.0
H2189 H 0.55241 0.54342 0.92263 0.0
H2190 H 0.54715 0.56201 0.93829 0.0
H2191 H 0.47227 0.46106 0.90273 0.0
H2192 H 0.4639 0.44507 0.92255 0.0
H2193 H 0.49085 0.45296 0.91412 0.0
C2194 C 0.4999 0.00875 0.86658 0.0
C2195 C 0.5203 0.01258 0.8601 0.0
C2196 C 0.4949 0.00235 0.88412 0.0
C2197 C 0.51072 -0.0002 0.8955 0.0
C2198 C 0.53112 0.0031 0.88894 0.0
C2199 C 0.53566 0.00942 0.87128 0.0
C2200 C 0.47306 0.99922 0.8907 0.0
C2201 C 0.54832 0.00044 0.90071 0.0
C2202 C 0.50771 0.01083 0.94546 0.0
C2203 C 0.49478 0.98757 0.95033 0.0
C2204 C 0.51384 0.015 0.92782 0.0
C2205 C 0.50652 0.9954 0.91465 0.0
C2206 C 0.49389 0.97183 0.91958 0.0
C2207 C 0.48815 0.96818 0.93744 0.0
C2208 C 0.52753 0.04041 0.92318 0.0
C2209 C 0.48588 0.95053 0.90588 0.0
H2210 H 0.48811 0.01152 0.85814 0.0
H2211 H 0.55131 0.01206 0.86625 0.0
H2212 H 0.46344 0.98169 0.89616 0.0
H2213 H 0.47703 0.01319 0.90187 0.0
H2214 H 0.46195 0.00041 0.87982 0.0
H2215 H 0.5636 0.00415 0.89373 0.0
H2216 H 0.55382 0.01277 0.91326 0.0
H2217 H 0.54042 0.98207 0.90484 0.0
H2218 H 0.51268 0.02588 0.95536 0.0
H2219 H 0.47817 0.95019 0.94123 0.0
H2220 H 0.51722 0.04413 0.91326 0.0
H2221 H 0.54289 0.04312 0.91678 0.0
H2222 H 0.53303 0.05356 0.93526 0.0
H2223 H 0.47341 0.95016 0.89545 0.0
H2224 H 0.47772 0.93344 0.91217 0.0
H2225 H 0.50038 0.9519 0.89886 0.0
C2226 C 0.12532 0.27603 0.44323 0.0
C2227 C 0.13419 0.28758 0.46067 0.0
C2228 C 0.13278 0.28851 0.42793 0.0
C2229 C 0.14978 0.31295 0.4302 0.0
C2230 C 0.15845 0.32476 0.44781 0.0
C2231 C 0.15043 0.31194 0.46285 0.0
C2232 C 0.12276 0.27549 0.40934 0.0
C2233 C 0.17671 0.35074 0.45077 0.0
C2234 C 0.18719 0.33811 0.39211 0.0
C2235 C 0.17706 0.3495 0.3834 0.0
C2236 C 0.17833 0.32597 0.40727 0.0
C2237 C 0.15932 0.32587 0.41418 0.0
C2238 C 0.14954 0.3381 0.4058 0.0
C2239 C 0.15847 0.34966 0.39037 0.0
C2240 C 0.189 0.31279 0.41562 0.0
C2241 C 0.12965 0.33888 0.4131 0.0
H2242 H 0.11256 0.25723 0.44158 0.0
H2243 H 0.15741 0.3208 0.47635 0.0
H2244 H 0.11528 0.28457 0.40179 0.0
H2245 H 0.13635 0.27589 0.40154 0.0
H2246 H 0.10934 0.25662 0.4099 0.0
H2247 H 0.18064 0.35762 0.4653 0.0
H2248 H 0.19252 0.35314 0.44539 0.0
H2249 H 0.17139 0.36171 0.4433 0.0
H2250 H 0.20152 0.33789 0.38664 0.0
H2251 H 0.1509 0.35878 0.3837 0.0
H2252 H 0.17626 0.29349 0.41486 0.0
H2253 H 0.19454 0.31928 0.43013 0.0
H2254 H 0.2039 0.31496 0.40873 0.0
H2255 H 0.11541 0.32052 0.41396 0.0
H2256 H 0.1235 0.34842 0.40464 0.0
H2257 H 0.13467 0.34799 0.42703 0.0
C2258 C 0.7182 0.84901 0.46206 0.0
C2259 C 0.70213 0.83755 0.47439 0.0
C2260 C 0.71141 0.84783 0.44372 0.0
C2261 C 0.68798 0.83475 0.43755 0.0
C2262 C 0.67175 0.82225 0.44974 0.0
C2263 C 0.67902 0.82383 0.46804 0.0
C2264 C 0.72924 0.86134 0.43112 0.0
C2265 C 0.64664 0.80799 0.44361 0.0
C2266 C 0.66901 0.85484 0.39659 0.0
C2267 C 0.66686 0.8381 0.38278 0.0
C2268 C 0.6757 0.8538 0.4145 0.0
C2269 C 0.68037 0.83558 0.41864 0.0
C2270 C 0.67801 0.81847 0.40473 0.0
C2271 C 0.67108 0.81984 0.38695 0.0
C2272 C 0.67809 0.87241 0.42896 0.0
C2273 C 0.68314 0.799 0.40858 0.0
H2274 H 0.73612 0.85928 0.46682 0.0
H2275 H 0.66649 0.81509 0.47751 0.0
H2276 H 0.72694 0.84954 0.41887 0.0
H2277 H 0.72729 0.87625 0.42661 0.0
H2278 H 0.7468 0.86878 0.43764 0.0
H2279 H 0.6364 0.79781 0.45443 0.0
H2280 H 0.64062 0.82017 0.43941 0.0
H2281 H 0.64345 0.79532 0.43168 0.0
H2282 H 0.66576 0.86899 0.39335 0.0
H2283 H 0.66924 0.80677 0.37626 0.0
H2284 H 0.6959 0.8826 0.43525 0.0
H2285 H 0.66707 0.86367 0.43981 0.0
H2286 H 0.67347 0.88515 0.42353 0.0
H2287 H 0.70124 0.80699 0.41387 0.0
H2288 H 0.67985 0.78672 0.39632 0.0
H2289 H 0.67266 0.78848 0.41914 0.0
C2290 C 0.13233 0.84312 0.45402 0.0
C2291 C 0.1412 0.8369 0.46885 0.0
C2292 C 0.13921 0.84217 0.4367 0.0
C2293 C 0.15552 0.83507 0.43422 0.0
C2294 C 0.16396 0.82802 0.44898 0.0
C2295 C 0.15662 0.82891 0.4661 0.0
C2296 C 0.12954 0.84943 0.42117 0.0
C2297 C 0.1812 0.82013 0.4468 0.0
C2298 C 0.16195 0.81718 0.38642 0.0
C2299 C 0.18092 0.83813 0.38223 0.0
C2300 C 0.15354 0.81582 0.40336 0.0
C2301 C 0.16443 0.83595 0.41634 0.0
C2302 C 0.18384 0.85706 0.41221 0.0
C2303 C 0.19197 0.85783 0.3952 0.0
C2304 C 0.13307 0.79288 0.40739 0.0
C2305 C 0.19577 0.87895 0.42564 0.0
H2306 H 0.12057 0.8495 0.45603 0.0
H2307 H 0.16317 0.82359 0.47741 0.0
H2308 H 0.14324 0.86598 0.41642 0.0
H2309 H 0.12277 0.83542 0.40961 0.0
H2310 H 0.1157 0.85265 0.42503 0.0
H2311 H 0.18526 0.81415 0.45944 0.0
H2312 H 0.17476 0.80531 0.43588 0.0
H2313 H 0.19716 0.83508 0.44277 0.0
H2314 H 0.15365 0.80186 0.37638 0.0
H2315 H 0.20656 0.87407 0.39185 0.0
H2316 H 0.12008 0.79644 0.41279 0.0
H2317 H 0.13825 0.7847 0.41794 0.0
H2318 H 0.12516 0.7798 0.39523 0.0
H2319 H 0.18376 0.88512 0.42905 0.0
H2320 H 0.21077 0.89384 0.42039 0.0
H2321 H 0.20147 0.87458 0.43837 0.0
C2322 C 0.6274 0.83395 0.21183 0.0
C2323 C 0.64204 0.83972 0.19804 0.0
C2324 C 0.63547 0.83556 0.22992 0.0
C2325 C 0.65871 0.8431 0.23428 0.0
C2326 C 0.67372 0.84979 0.22053 0.0
C2327 C 0.6652 0.84798 0.20257 0.0
C2328 C 0.61897 0.82841 0.24426 0.0
C2329 C 0.69868 0.85824 0.22471 0.0
C2330 C 0.68348 0.86237 0.28333 0.0
C2331 C 0.68341 0.84195 0.28844 0.0
C2332 C 0.67545 0.86305 0.26573 0.0
C2333 C 0.6671 0.84275 0.25305 0.0
C2334 C 0.66698 0.82205 0.25823 0.0
C2335 C 0.67537 0.82201 0.27584 0.0
C2336 C 0.67608 0.88552 0.26067 0.0
C2337 C 0.65777 0.79987 0.24522 0.0
H2338 H 0.60945 0.82736 0.20841 0.0
H2339 H 0.67665 0.85283 0.192 0.0
H2340 H 0.61755 0.81249 0.25016 0.0
H2341 H 0.62531 0.84292 0.25543 0.0
H2342 H 0.60174 0.82422 0.23881 0.0
H2343 H 0.70834 0.86422 0.21268 0.0
H2344 H 0.70632 0.8732 0.23559 0.0
H2345 H 0.70068 0.84358 0.22971 0.0
H2346 H 0.68996 0.87787 0.2931 0.0
H2347 H 0.67513 0.80614 0.27989 0.0
H2348 H 0.6591 0.88139 0.25467 0.0
H2349 H 0.68814 0.89339 0.25027 0.0
H2350 H 0.68144 0.89904 0.27247 0.0
H2351 H 0.63984 0.79365 0.24029 0.0
H2352 H 0.65843 0.78512 0.25151 0.0
H2353 H 0.66767 0.80394 0.23326 0.0
C2354 C 0.20508 0.82436 0.21626 0.0
C2355 C 0.19764 0.83182 0.20135 0.0
C2356 C 0.19986 0.8279 0.23375 0.0
C2357 C 0.18679 0.83907 0.23633 0.0
C2358 C 0.17996 0.84743 0.22147 0.0
C2359 C 0.1855 0.84373 0.20416 0.0
C2360 C 0.20757 0.81888 0.24932 0.0
C2361 C 0.16621 0.85965 0.22375 0.0
C2362 C 0.15038 0.82337 0.27568 0.0
C2363 C 0.16355 0.84317 0.28828 0.0
C2364 C 0.15786 0.82179 0.25875 0.0
C2365 C 0.17892 0.84057 0.25433 0.0
C2366 C 0.19216 0.86074 0.26697 0.0
C2367 C 0.1842 0.86185 0.28379 0.0
C2368 C 0.14334 0.79988 0.2457 0.0
C2369 C 0.21479 0.881 0.2628 0.0
H2370 H 0.21432 0.81497 0.21419 0.0
H2371 H 0.18009 0.84996 0.19275 0.0
H2372 H 0.21648 0.83319 0.26061 0.0
H2373 H 0.19253 0.80404 0.25454 0.0
H2374 H 0.21914 0.81236 0.2453 0.0
H2375 H 0.16347 0.86642 0.21105 0.0
H2376 H 0.14937 0.84695 0.22815 0.0
H2377 H 0.1749 0.87481 0.23444 0.0
H2378 H 0.13446 0.80884 0.27923 0.0
H2379 H 0.1941 0.87734 0.29347 0.0
H2380 H 0.15313 0.79098 0.24225 0.0
H2381 H 0.13864 0.80507 0.23294 0.0
H2382 H 0.12751 0.78681 0.25131 0.0
H2383 H 0.22661 0.87432 0.26021 0.0
H2384 H 0.22283 0.89553 0.27404 0.0
H2385 H 0.21254 0.88851 0.25036 0.0
C2386 C 0.16706 0.35883 0.20623 0.0
C2387 C 0.18257 0.35434 0.19771 0.0
C2388 C 0.16168 0.35247 0.22373 0.0
C2389 C 0.17173 0.34092 0.23275 0.0
C2390 C 0.18692 0.33573 0.22399 0.0
C2391 C 0.19238 0.34277 0.2066 0.0
C2392 C 0.14587 0.35889 0.2328 0.0
C2393 C 0.19769 0.32313 0.2331 0.0
C2394 C 0.17635 0.34795 0.28392 0.0
C2395 C 0.15716 0.32697 0.28767 0.0
C2396 C 0.18155 0.35253 0.26612 0.0
C2397 C 0.16721 0.33549 0.2517 0.0
C2398 C 0.14796 0.31399 0.25543 0.0
C2399 C 0.14295 0.31015 0.27342 0.0
C2400 C 0.20196 0.37595 0.26275 0.0
C2401 C 0.1325 0.29524 0.24041 0.0
H2402 H 0.15972 0.36807 0.19941 0.0
H2403 H 0.20431 0.33923 0.19994 0.0
H2404 H 0.13132 0.34272 0.23719 0.0
H2405 H 0.15503 0.37135 0.24511 0.0
H2406 H 0.13913 0.36742 0.22378 0.0
H2407 H 0.20758 0.31861 0.22388 0.0
H2408 H 0.20928 0.33463 0.24503 0.0
H2409 H 0.1844 0.30647 0.23804 0.0
H2410 H 0.18676 0.36137 0.29478 0.0
H2411 H 0.12798 0.29396 0.27636 0.0
H2412 H 0.19649 0.38589 0.25411 0.0
H2413 H 0.21402 0.37266 0.2554 0.0
H2414 H 0.21115 0.3874 0.27549 0.0
H2415 H 0.12397 0.30238 0.23178 0.0
H2416 H 0.11924 0.27879 0.24565 0.0
H2417 H 0.14261 0.29048 0.23166 0.0
C2418 C 0.79842 0.65639 0.79439 0.0
C2419 C 0.815 0.65374 0.80428 0.0
C2420 C 0.80169 0.66387 0.77691 0.0
C2421 C 0.82202 0.66884 0.76927 0.0
C2422 C 0.83941 0.66773 0.77971 0.0
C2423 C 0.83568 0.66019 0.79709 0.0
C2424 C 0.78284 0.66498 0.76619 0.0
C2425 C 0.86136 0.67291 0.77208 0.0
C2426 C 0.82073 0.65435 0.71917 0.0
C2427 C 0.83172 0.67703 0.71299 0.0
C2428 C 0.8166 0.65147 0.73731 0.0
C2429 C 0.82395 0.67186 0.74969 0.0
C2430 C 0.83456 0.69484 0.74348 0.0
C2431 C 0.83836 0.69717 0.72512 0.0
C2432 C 0.80508 0.62661 0.74332 0.0
C2433 C 0.84253 0.71694 0.75629 0.0
H2434 H 0.7824 0.65138 0.7999 0.0
H2435 H 0.84868 0.65855 0.80485 0.0
H2436 H 0.78966 0.68231 0.76036 0.0
H2437 H 0.77553 0.6508 0.75473 0.0
H2438 H 0.76897 0.6626 0.77456 0.0
H2439 H 0.87408 0.67381 0.78257 0.0
H2440 H 0.85783 0.65867 0.76129 0.0
H2441 H 0.8689 0.69002 0.76587 0.0
H2442 H 0.81583 0.63874 0.70989 0.0
H2443 H 0.84687 0.71473 0.72033 0.0
H2444 H 0.79018 0.62339 0.75062 0.0
H2445 H 0.81707 0.62471 0.75282 0.0
H2446 H 0.79922 0.61262 0.73178 0.0
H2447 H 0.8287 0.71492 0.76455 0.0
H2448 H 0.84827 0.73318 0.74906 0.0
H2449 H 0.85691 0.71953 0.76577 0.0
C2450 C 0.37697 0.19153 0.79763 0.0
C2451 C 0.36862 0.17331 0.80926 0.0
C2452 C 0.36781 0.18734 0.77956 0.0
C2453 C 0.34936 0.16455 0.77306 0.0
C2454 C 0.34083 0.14606 0.78463 0.0
C2455 C 0.35074 0.15057 0.8025 0.0
C2456 C 0.37769 0.20739 0.76749 0.0
C2457 C 0.32104 0.12159 0.7782 0.0
C2458 C 0.31264 0.16361 0.73247 0.0
C2459 C 0.32049 0.15541 0.71832 0.0
C2460 C 0.32132 0.16584 0.75046 0.0
C2461 C 0.33867 0.16031 0.75427 0.0
C2462 C 0.34634 0.1516 0.74002 0.0
C2463 C 0.3369 0.14898 0.72224 0.0
C2464 C 0.31228 0.17461 0.76534 0.0
C2465 C 0.36524 0.1461 0.7434 0.0
H2466 H 0.39046 0.20929 0.80268 0.0
H2467 H 0.34443 0.13618 0.81116 0.0
H2468 H 0.38244 0.20157 0.75495 0.0
H2469 H 0.36476 0.21226 0.76337 0.0
H2470 H 0.39298 0.22357 0.77425 0.0
H2471 H 0.31629 0.10919 0.78893 0.0
H2472 H 0.30601 0.12299 0.7736 0.0
H2473 H 0.3253 0.11378 0.76644 0.0
H2474 H 0.29985 0.16852 0.72946 0.0
H2475 H 0.34304 0.14284 0.71132 0.0
H2476 H 0.32593 0.19223 0.77173 0.0
H2477 H 0.30686 0.16215 0.77602 0.0
H2478 H 0.29762 0.17641 0.76027 0.0
H2479 H 0.38147 0.16297 0.74744 0.0
H2480 H 0.36746 0.13703 0.73123 0.0
H2481 H 0.3619 0.13467 0.75466 0.0
C2482 C 0.80726 0.18317 0.79275 0.0
C2483 C 0.81495 0.17442 0.80662 0.0
C2484 C 0.81292 0.18205 0.77501 0.0
C2485 C 0.82664 0.17199 0.77107 0.0
C2486 C 0.83403 0.16265 0.7849 0.0
C2487 C 0.8281 0.16399 0.80251 0.0
C2488 C 0.80455 0.19198 0.76055 0.0
C2489 C 0.84844 0.15153 0.78114 0.0
C2490 C 0.82665 0.15221 0.72209 0.0
C2491 C 0.84689 0.17132 0.7174 0.0
C2492 C 0.81982 0.15214 0.73954 0.0
C2493 C 0.83364 0.17169 0.75254 0.0
C2494 C 0.85417 0.19102 0.74784 0.0
C2495 C 0.86064 0.19052 0.7303 0.0
C2496 C 0.79801 0.13102 0.74409 0.0
C2497 C 0.8692 0.21229 0.76129 0.0
H2498 H 0.7973 0.19149 0.79586 0.0
H2499 H 0.83378 0.15686 0.81311 0.0
H2500 H 0.81926 0.20685 0.75503 0.0
H2501 H 0.79476 0.17804 0.74917 0.0
H2502 H 0.79354 0.19864 0.76573 0.0
H2503 H 0.85228 0.14452 0.79328 0.0
H2504 H 0.83961 0.13671 0.7702 0.0
H2505 H 0.86474 0.16493 0.77636 0.0
H2506 H 0.81619 0.1372 0.71212 0.0
H2507 H 0.87626 0.20533 0.72659 0.0
H2508 H 0.78735 0.13702 0.75082 0.0
H2509 H 0.80207 0.12095 0.75371 0.0
H2510 H 0.7879 0.11872 0.73191 0.0
H2511 H 0.85948 0.22075 0.76604 0.0
H2512 H 0.88455 0.2259 0.75546 0.0
H2513 H 0.87474 0.20647 0.77331 0.0
C2514 C 0.28344 0.15424 0.54658 0.0
C2515 C 0.29891 0.16649 0.53408 0.0
C2516 C 0.29102 0.15478 0.5646 0.0
C2517 C 0.31459 0.1681 0.57026 0.0
C2518 C 0.3302 0.18128 0.55786 0.0
C2519 C 0.32218 0.18018 0.53986 0.0
C2520 C 0.27387 0.1403 0.57736 0.0
C2521 C 0.35543 0.19596 0.56347 0.0
C2522 C 0.33309 0.18151 0.62068 0.0
C2523 C 0.33825 0.16362 0.62387 0.0
C2524 C 0.32535 0.18325 0.60328 0.0
C2525 C 0.32305 0.16688 0.58877 0.0
C2526 C 0.32863 0.14904 0.59192 0.0
C2527 C 0.3362 0.14766 0.60946 0.0
C2528 C 0.31934 0.20234 0.60047 0.0
C2529 C 0.32623 0.13115 0.57682 0.0
H2530 H 0.26546 0.14345 0.5421 0.0
H2531 H 0.33412 0.18986 0.53023 0.0
H2532 H 0.27643 0.12545 0.58104 0.0
H2533 H 0.27638 0.15148 0.59003 0.0
H2534 H 0.25607 0.13269 0.57134 0.0
H2535 H 0.36511 0.20653 0.55257 0.0
H2536 H 0.35873 0.20833 0.57564 0.0
H2537 H 0.36202 0.18406 0.56711 0.0
H2538 H 0.33483 0.19395 0.63184 0.0
H2539 H 0.34016 0.13379 0.61195 0.0
H2540 H 0.3011 0.19401 0.59547 0.0
H2541 H 0.32938 0.2136 0.59003 0.0
H2542 H 0.32254 0.21396 0.61312 0.0
H2543 H 0.3083 0.12079 0.57082 0.0
H2544 H 0.33142 0.1185 0.58153 0.0
H2545 H 0.3368 0.14054 0.56592 0.0
C2546 C 0.86791 0.19953 0.54082 0.0
C2547 C 0.8508 0.17991 0.52963 0.0
C2548 C 0.86479 0.20372 0.5589 0.0
C2549 C 0.84413 0.18786 0.56587 0.0
C2550 C 0.82622 0.16914 0.55422 0.0
C2551 C 0.82976 0.16545 0.53623 0.0
C2552 C 0.88415 0.22406 0.57086 0.0
C2553 C 0.80392 0.15181 0.56108 0.0
C2554 C 0.84451 0.17205 0.61386 0.0
C2555 C 0.834 0.18331 0.62233 0.0
C2556 C 0.84896 0.1745 0.59576 0.0
C2557 C 0.84239 0.18827 0.5857 0.0
C2558 C 0.83244 0.20038 0.5943 0.0
C2559 C 0.82829 0.1977 0.61259 0.0
C2560 C 0.85978 0.16141 0.58721 0.0
C2561 C 0.82545 0.21541 0.58405 0.0
H2562 H 0.88422 0.21077 0.5358 0.0
H2563 H 0.81633 0.15057 0.5275 0.0
H2564 H 0.87788 0.23413 0.57891 0.0
H2565 H 0.89161 0.21689 0.58055 0.0
H2566 H 0.89781 0.23656 0.56294 0.0
H2567 H 0.79089 0.14001 0.54992 0.0
H2568 H 0.80671 0.14048 0.57028 0.0
H2569 H 0.79714 0.1615 0.56895 0.0
H2570 H 0.84861 0.16058 0.62123 0.0
H2571 H 0.82017 0.20642 0.61914 0.0
H2572 H 0.87492 0.17389 0.5806 0.0
H2573 H 0.84752 0.14751 0.57659 0.0
H2574 H 0.86515 0.15271 0.59723 0.0
H2575 H 0.83934 0.22755 0.57616 0.0
H2576 H 0.82091 0.2262 0.59318 0.0
H2577 H 0.81048 0.20368 0.57427 0.0
C2578 C 0.84374 0.6624 0.53223 0.0
C2579 C 0.86094 0.68637 0.53266 0.0
C2580 C 0.83586 0.65195 0.54825 0.0
C2581 C 0.84559 0.66571 0.5651 0.0
C2582 C 0.8638 0.6895 0.56567 0.0
C2583 C 0.87111 0.69958 0.54946 0.0
C2584 C 0.81638 0.62656 0.54711 0.0
C2585 C 0.87473 0.70502 0.58327 0.0
C2586 C 0.81088 0.65392 0.60522 0.0
C2587 C 0.81925 0.64235 0.61575 0.0
C2588 C 0.81859 0.66064 0.5883 0.0
C2589 C 0.83543 0.65607 0.582 0.0
C2590 C 0.84358 0.64388 0.5925 0.0
C2591 C 0.83521 0.63697 0.60929 0.0
C2592 C 0.80951 0.67366 0.57759 0.0
C2593 C 0.86215 0.63957 0.58653 0.0
H2594 H 0.83608 0.65192 0.51932 0.0
H2595 H 0.88417 0.7182 0.55001 0.0
H2596 H 0.82071 0.61599 0.55599 0.0
H2597 H 0.80118 0.62638 0.55197 0.0
H2598 H 0.81186 0.61769 0.53309 0.0
H2599 H 0.89261 0.71901 0.58205 0.0
H2600 H 0.86514 0.71408 0.58691 0.0
H2601 H 0.87455 0.69448 0.59449 0.0
H2602 H 0.79877 0.65834 0.61052 0.0
H2603 H 0.84202 0.62855 0.61778 0.0
H2604 H 0.80398 0.66535 0.56344 0.0
H2605 H 0.8232 0.69241 0.57716 0.0
H2606 H 0.79494 0.67372 0.58357 0.0
H2607 H 0.85745 0.63044 0.57262 0.0
H2608 H 0.86569 0.62867 0.5957 0.0
H2609 H 0.87802 0.65694 0.58623 0.0
loop_
_geom_bond_atom_site_label_1
_geom_bond_atom_site_label_2
_geom_bond_distance
_geom_bond_site_symmetry_2
_ccdc_geom_bond_type
C0 C1 1.386 . S
C0 C2 1.397 . S
C0 H24 0.931 . S
C1 C0 1.386 . S
C1 C5 1.397 . S
C2 C0 1.397 . S
C2 C3 1.384 . S
C2 H25 0.930 . S
C3 C2 1.384 . S
C3 C4 1.377 . S
C3 C6 1.481 . S
C4 C3 1.377 . S
C4 C5 1.389 . S
C4 H26 0.929 . S
C5 C1 1.397 . S
C5 C4 1.389 . S
C5 H27 0.931 . S
C6 C3 1.481 . S
C6 C7 1.387 . S
C6 C11 1.390 . S
C7 C6 1.387 . S
C7 C8 1.401 . S
C7 H28 0.930 . S
C8 C7 1.401 . S
C8 C9 1.376 . S
C8 C17 1.511 . S
C9 C8 1.376 . S
C9 C10 1.392 . S
C9 H30 0.931 . S
C10 C9 1.392 . S
C10 C11 1.361 . S
C10 C12 1.500 . S
C11 C6 1.390 . S
C11 C10 1.361 . S
C11 H29 0.931 . S
C12 C10 1.500 . S
C12 C13 1.371 . S
C12 C14 1.365 . S
C13 C12 1.371 . S
C13 C23 1.386 . S
C13 H31 0.931 . S
C14 C12 1.365 . S
C14 C15 1.409 . S
C14 H32 0.929 . S
C15 C14 1.409 . S
C15 C16 1.380 . S
C15 H33 0.930 . S
C16 C15 1.380 . S
C16 C23 1.357 . S
C17 C8 1.511 . S
C17 C18 1.341 . S
C17 C19 1.371 . S
C18 C17 1.341 . S
C18 C22 1.394 . S
C18 H34 0.930 . S
C19 C17 1.371 . S
C19 C20 1.392 . S
C19 H35 0.931 . S
C20 C19 1.392 . S
C20 C21 1.331 . S
C20 H38 0.932 . S
C21 C20 1.331 . S
C21 C22 1.336 . S
C22 C18 1.394 . S
C22 C21 1.336 . S
C22 H37 0.929 . S
C23 C13 1.386 . S
C23 C16 1.357 . S
C23 H36 0.928 . S
H24 C0 0.931 . S
H25 C2 0.930 . S
H26 C4 0.929 . S
H27 C5 0.931 . S
H28 C7 0.930 . S
H29 C11 0.931 . S
H30 C9 0.931 . S
H31 C13 0.931 . S
H32 C14 0.929 . S
H33 C15 0.930 . S
H34 C18 0.930 . S
H35 C19 0.931 . S
H36 C23 0.928 . S
H37 C22 0.929 . S
H38 C20 0.932 . S
C39 C40 1.386 . S
C39 C41 1.397 . S
C39 H63 0.931 . S
C40 C39 1.386 . S
C40 C44 1.397 . S
C41 C39 1.397 . S
C41 C42 1.384 . S
C41 H64 0.930 . S
C42 C41 1.384 . S
C42 C43 1.377 . S
C42 C45 1.481 . S
C43 C42 1.377 . S
C43 C44 1.389 . S
C43 H65 0.929 . S
C44 C40 1.397 . S
C44 C43 1.389 . S
C44 H66 0.931 . S
C45 C42 1.481 . S
C45 C46 1.387 . S
C45 C50 1.390 . S
C46 C45 1.387 . S
C46 C47 1.401 . S
C46 H67 0.930 . S
C47 C46 1.401 . S
C47 C48 1.376 . S
C47 C56 1.511 . S
C48 C47 1.376 . S
C48 C49 1.392 . S
C48 H69 0.931 . S
C49 C48 1.392 . S
C49 C50 1.361 . S
C49 C51 1.500 . S
C50 C45 1.390 . S
C50 C49 1.361 . S
C50 H68 0.931 . S
C51 C49 1.500 . S
C51 C52 1.371 . S
C51 C53 1.365 . S
C52 C51 1.371 . S
C52 C62 1.386 . S
C52 H70 0.931 . S
C53 C51 1.365 . S
C53 C54 1.409 . S
C53 H71 0.929 . S
C54 C53 1.409 . S
C54 C55 1.380 . S
C54 H72 0.930 . S
C55 C54 1.380 . S
C55 C62 1.357 . S
C56 C47 1.511 . S
C56 C57 1.341 . S
C56 C58 1.371 . S
C57 C56 1.341 . S
C57 C61 1.394 . S
C57 H73 0.930 . S
C58 C56 1.371 . S
C58 C59 1.392 . S
C58 H74 0.931 . S
C59 C58 1.392 . S
C59 C60 1.331 . S
C59 H77 0.932 . S
C60 C59 1.331 . S
C60 C61 1.336 . S
C61 C57 1.394 . S
C61 C60 1.336 . S
C61 H76 0.929 . S
C62 C52 1.386 . S
C62 C55 1.357 . S
C62 H75 0.928 . S
H63 C39 0.931 . S
H64 C41 0.930 . S
H65 C43 0.929 . S
H66 C44 0.931 . S
H67 C46 0.930 . S
H68 C50 0.931 . S
H69 C48 0.931 . S
H70 C52 0.931 . S
H71 C53 0.929 . S
H72 C54 0.930 . S
H73 C57 0.930 . S
H74 C58 0.931 . S
H75 C62 0.928 . S
H76 C61 0.929 . S
H77 C59 0.932 . S
C78 C79 1.386 . S
C78 C80 1.397 . S
C78 H102 0.931 . S
C79 C78 1.386 . S
C79 C83 1.397 . S
C80 C78 1.397 . S
C80 C81 1.384 . S
C80 H103 0.930 . S
C81 C80 1.384 . S
C81 C82 1.377 . S
C81 C84 1.481 . S
C82 C81 1.377 . S
C82 C83 1.389 . S
C82 H104 0.929 . S
C83 C79 1.397 . S
C83 C82 1.389 . S
C83 H105 0.931 . S
C84 C81 1.481 . S
C84 C85 1.387 . S
C84 C89 1.390 . S
C85 C84 1.387 . S
C85 C86 1.401 . S
C85 H106 0.930 . S
C86 C85 1.401 . S
C86 C87 1.376 . S
C86 C95 1.511 . S
C87 C86 1.376 . S
C87 C88 1.392 . S
C87 H108 0.931 . S
C88 C87 1.392 . S
C88 C89 1.361 . S
C88 C90 1.500 . S
C89 C84 1.390 . S
C89 C88 1.361 . S
C89 H107 0.931 . S
C90 C88 1.500 . S
C90 C91 1.371 . S
C90 C92 1.365 . S
C91 C90 1.371 . S
C91 C101 1.386 . S
C91 H109 0.931 . S
C92 C90 1.365 . S
C92 C93 1.409 . S
C92 H110 0.929 . S
C93 C92 1.409 . S
C93 C94 1.380 . S
C93 H111 0.930 . S
C94 C93 1.380 . S
C94 C101 1.357 . S
C95 C86 1.511 . S
C95 C96 1.341 . S
C95 C97 1.371 . S
C96 C95 1.341 . S
C96 C100 1.394 . S
C96 H112 0.930 . S
C97 C95 1.371 . S
C97 C98 1.392 . S
C97 H113 0.931 . S
C98 C97 1.392 . S
C98 C99 1.331 . S
C98 H116 0.932 . S
C99 C98 1.331 . S
C99 C100 1.336 . S
C100 C96 1.394 . S
C100 C99 1.336 . S
C100 H115 0.929 . S
C101 C91 1.386 . S
C101 C94 1.357 . S
C101 H114 0.928 . S
H102 C78 0.931 . S
H103 C80 0.930 . S
H104 C82 0.929 . S
H105 C83 0.931 . S
H106 C85 0.930 . S
H107 C89 0.931 . S
H108 C87 0.931 . S
H109 C91 0.931 . S
H110 C92 0.929 . S
H111 C93 0.930 . S
H112 C96 0.930 . S
H113 C97 0.931 . S
H114 C101 0.928 . S
H115 C100 0.929 . S
H116 C98 0.932 . S
C117 C118 1.386 . S
C117 C119 1.397 . S
C117 H141 0.931 . S
C118 C117 1.386 . S
C118 C122 1.397 . S
C119 C117 1.397 . S
C119 C120 1.384 . S
C119 H142 0.930 . S
C120 C119 1.384 . S
C120 C121 1.377 . S
C120 C123 1.481 . S
C121 C120 1.377 . S
C121 C122 1.389 . S
C121 H143 0.929 . S
C122 C118 1.397 . S
C122 C121 1.389 . S
C122 H144 0.931 . S
C123 C120 1.481 . S
C123 C124 1.387 . S
C123 C128 1.390 . S
C124 C123 1.387 . S
C124 C125 1.401 . S
C124 H145 0.930 . S
C125 C124 1.401 . S
C125 C126 1.376 . S
C125 C134 1.511 . S
C126 C125 1.376 . S
C126 C127 1.392 . S
C126 H147 0.931 . S
C127 C126 1.392 . S
C127 C128 1.361 . S
C127 C129 1.500 . S
C128 C123 1.390 . S
C128 C127 1.361 . S
C128 H146 0.931 . S
C129 C127 1.500 . S
C129 C130 1.371 . S
C129 C131 1.365 . S
C130 C129 1.371 . S
C130 C140 1.386 . S
C130 H148 0.931 . S
C131 C129 1.365 . S
C131 C132 1.409 . S
C131 H149 0.929 . S
C132 C131 1.409 . S
C132 C133 1.380 . S
C132 H150 0.930 . S
C133 C132 1.380 . S
C133 C140 1.357 . S
C134 C125 1.511 . S
C134 C135 1.341 . S
C134 C136 1.371 . S
C135 C134 1.341 . S
C135 C139 1.394 . S
C135 H151 0.930 . S
C136 C134 1.371 . S
C136 C137 1.392 . S
C136 H152 0.931 . S
C137 C136 1.392 . S
C137 C138 1.331 . S
C137 H155 0.932 . S
C138 C137 1.331 . S
C138 C139 1.336 . S
C139 C135 1.394 . S
C139 C138 1.336 . S
C139 H154 0.929 . S
C140 C130 1.386 . S
C140 C133 1.357 . S
C140 H153 0.928 . S
H141 C117 0.931 . S
H142 C119 0.930 . S
H143 C121 0.929 . S
H144 C122 0.931 . S
H145 C124 0.930 . S
H146 C128 0.931 . S
H147 C126 0.931 . S
H148 C130 0.931 . S
H149 C131 0.929 . S
H150 C132 0.930 . S
H151 C135 0.930 . S
H152 C136 0.931 . S
H153 C140 0.928 . S
H154 C139 0.929 . S
H155 C137 0.932 . S
C156 C157 1.386 . S
C156 C158 1.397 . S
C156 H180 0.931 . S
C157 C156 1.386 . S
C157 C161 1.397 . S
C158 C156 1.397 . S
C158 C159 1.384 . S
C158 H181 0.930 . S
C159 C158 1.384 . S
C159 C160 1.377 . S
C159 C162 1.481 . S
C160 C159 1.377 . S
C160 C161 1.389 . S
C160 H182 0.929 . S
C161 C157 1.397 . S
C161 C160 1.389 . S
C161 H183 0.931 . S
C162 C159 1.481 . S
C162 C163 1.387 . S
C162 C167 1.390 . S
C163 C162 1.387 . S
C163 C164 1.401 . S
C163 H184 0.930 . S
C164 C163 1.401 . S
C164 C165 1.376 . S
C164 C173 1.511 . S
C165 C164 1.376 . S
C165 C166 1.392 . S
C165 H186 0.931 . S
C166 C165 1.392 . S
C166 C167 1.361 . S
C166 C168 1.500 . S
C167 C162 1.390 . S
C167 C166 1.361 . S
C167 H185 0.931 . S
C168 C166 1.500 . S
C168 C169 1.371 . S
C168 C170 1.365 . S
C169 C168 1.371 . S
C169 C179 1.386 . S
C169 H187 0.931 . S
C170 C168 1.365 . S
C170 C171 1.409 . S
C170 H188 0.929 . S
C171 C170 1.409 . S
C171 C172 1.380 . S
C171 H189 0.930 . S
C172 C171 1.380 . S
C172 C179 1.357 . S
C173 C164 1.511 . S
C173 C174 1.341 . S
C173 C175 1.371 . S
C174 C173 1.341 . S
C174 C178 1.394 . S
C174 H190 0.930 . S
C175 C173 1.371 . S
C175 C176 1.392 . S
C175 H191 0.931 . S
C176 C175 1.392 . S
C176 C177 1.331 . S
C176 H194 0.932 . S
C177 C176 1.331 . S
C177 C178 1.336 . S
C178 C174 1.394 . S
C178 C177 1.336 . S
C178 H193 0.929 . S
C179 C169 1.386 . S
C179 C172 1.357 . S
C179 H192 0.928 . S
H180 C156 0.931 . S
H181 C158 0.930 . S
H182 C160 0.929 . S
H183 C161 0.931 . S
H184 C163 0.930 . S
H185 C167 0.931 . S
H186 C165 0.931 . S
H187 C169 0.931 . S
H188 C170 0.929 . S
H189 C171 0.930 . S
H190 C174 0.930 . S
H191 C175 0.931 . S
H192 C179 0.928 . S
H193 C178 0.929 . S
H194 C176 0.932 . S
C195 C196 1.386 . S
C195 C197 1.397 . S
C195 H219 0.931 . S
C196 C195 1.386 . S
C196 C200 1.397 . S
C197 C195 1.397 . S
C197 C198 1.384 . S
C197 H220 0.930 . S
C198 C197 1.384 . S
C198 C199 1.377 . S
C198 C201 1.481 . S
C199 C198 1.377 . S
C199 C200 1.389 . S
C199 H221 0.929 . S
C200 C196 1.397 . S
C200 C199 1.389 . S
C200 H222 0.931 . S
C201 C198 1.481 . S
C201 C202 1.387 . S
C201 C206 1.390 . S
C202 C201 1.387 . S
C202 C203 1.401 . S
C202 H223 0.930 . S
C203 C202 1.401 . S
C203 C204 1.376 . S
C203 C212 1.511 . S
C204 C203 1.376 . S
C204 C205 1.392 . S
C204 H225 0.931 . S
C205 C204 1.392 . S
C205 C206 1.361 . S
C205 C207 1.500 . S
C206 C201 1.390 . S
C206 C205 1.361 . S
C206 H224 0.931 . S
C207 C205 1.500 . S
C207 C208 1.371 . S
C207 C209 1.365 . S
C208 C207 1.371 . S
C208 C218 1.386 . S
C208 H226 0.931 . S
C209 C207 1.365 . S
C209 C210 1.409 . S
C209 H227 0.929 . S
C210 C209 1.409 . S
C210 C211 1.380 . S
C210 H228 0.930 . S
C211 C210 1.380 . S
C211 C218 1.357 . S
C212 C203 1.511 . S
C212 C213 1.341 . S
C212 C214 1.371 . S
C213 C212 1.341 . S
C213 C217 1.394 . S
C213 H229 0.930 . S
C214 C212 1.371 . S
C214 C215 1.392 . S
C214 H230 0.931 . S
C215 C214 1.392 . S
C215 C216 1.331 . S
C215 H233 0.932 . S
C216 C215 1.331 . S
C216 C217 1.336 . S
C217 C213 1.394 . S
C217 C216 1.336 . S
C217 H232 0.929 . S
C218 C208 1.386 . S
C218 C211 1.357 . S
C218 H231 0.928 . S
H219 C195 0.931 . S
H220 C197 0.930 . S
H221 C199 0.929 . S
H222 C200 0.931 . S
H223 C202 0.930 . S
H224 C206 0.931 . S
H225 C204 0.931 . S
H226 C208 0.931 . S
H227 C209 0.929 . S
H228 C210 0.930 . S
H229 C213 0.930 . S
H230 C214 0.931 . S
H231 C218 0.928 . S
H232 C217 0.929 . S
H233 C215 0.932 . S
C234 C235 1.386 . S
C234 C236 1.397 . S
C234 H258 0.931 . S
C235 C234 1.386 . S
C235 C239 1.397 . S
C236 C234 1.397 . S
C236 C237 1.384 . S
C236 H259 0.930 . S
C237 C236 1.384 . S
C237 C238 1.377 . S
C237 C240 1.481 . S
C238 C237 1.377 . S
C238 C239 1.389 . S
C238 H260 0.929 . S
C239 C235 1.397 . S
C239 C238 1.389 . S
C239 H261 0.931 . S
C240 C237 1.481 . S
C240 C241 1.387 . S
C240 C245 1.390 . S
C241 C240 1.387 . S
C241 C242 1.401 . S
C241 H262 0.930 . S
C242 C241 1.401 . S
C242 C243 1.376 . S
C242 C251 1.511 . S
C243 C242 1.376 . S
C243 C244 1.392 . S
C243 H264 0.931 . S
C244 C243 1.392 . S
C244 C245 1.361 . S
C244 C246 1.500 . S
C245 C240 1.390 . S
C245 C244 1.361 . S
C245 H263 0.931 . S
C246 C244 1.500 . S
C246 C247 1.371 . S
C246 C248 1.365 . S
C247 C246 1.371 . S
C247 C257 1.386 . S
C247 H265 0.931 . S
C248 C246 1.365 . S
C248 C249 1.409 . S
C248 H266 0.929 . S
C249 C248 1.409 . S
C249 C250 1.380 . S
C249 H267 0.930 . S
C250 C249 1.380 . S
C250 C257 1.357 . S
C251 C242 1.511 . S
C251 C252 1.341 . S
C251 C253 1.371 . S
C252 C251 1.341 . S
C252 C256 1.394 . S
C252 H268 0.930 . S
C253 C251 1.371 . S
C253 C254 1.392 . S
C253 H269 0.931 . S
C254 C253 1.392 . S
C254 C255 1.331 . S
C254 H272 0.932 . S
C255 C254 1.331 . S
C255 C256 1.336 . S
C256 C252 1.394 . S
C256 C255 1.336 . S
C256 H271 0.929 . S
C257 C247 1.386 . S
C257 C250 1.357 . S
C257 H270 0.928 . S
H258 C234 0.931 . S
H259 C236 0.930 . S
H260 C238 0.929 . S
H261 C239 0.931 . S
H262 C241 0.930 . S
H263 C245 0.931 . S
H264 C243 0.931 . S
H265 C247 0.931 . S
H266 C248 0.929 . S
H267 C249 0.930 . S
H268 C252 0.930 . S
H269 C253 0.931 . S
H270 C257 0.928 . S
H271 C256 0.929 . S
H272 C254 0.932 . S
C273 C274 1.386 . S
C273 C275 1.397 . S
C273 H297 0.931 . S
C274 C273 1.386 . S
C274 C278 1.397 . S
C275 C273 1.397 . S
C275 C276 1.384 . S
C275 H298 0.930 . S
C276 C275 1.384 . S
C276 C277 1.377 . S
C276 C279 1.481 . S
C277 C276 1.377 . S
C277 C278 1.389 . S
C277 H299 0.929 . S
C278 C274 1.397 . S
C278 C277 1.389 . S
C278 H300 0.931 . S
C279 C276 1.481 . S
C279 C280 1.387 . S
C279 C284 1.390 . S
C280 C279 1.387 . S
C280 C281 1.401 . S
C280 H301 0.930 . S
C281 C280 1.401 . S
C281 C282 1.376 . S
C281 C290 1.511 . S
C282 C281 1.376 . S
C282 C283 1.392 . S
C282 H303 0.931 . S
C283 C282 1.392 . S
C283 C284 1.361 . S
C283 C285 1.500 . S
C284 C279 1.390 . S
C284 C283 1.361 . S
C284 H302 0.931 . S
C285 C283 1.500 . S
C285 C286 1.371 . S
C285 C287 1.365 . S
C286 C285 1.371 . S
C286 C296 1.386 . S
C286 H304 0.931 . S
C287 C285 1.365 . S
C287 C288 1.409 . S
C287 H305 0.929 . S
C288 C287 1.409 . S
C288 C289 1.380 . S
C288 H306 0.930 . S
C289 C288 1.380 . S
C289 C296 1.357 . S
C290 C281 1.511 . S
C290 C291 1.341 . S
C290 C292 1.371 . S
C291 C290 1.341 . S
C291 C295 1.394 . S
C291 H307 0.930 . S
C292 C290 1.371 . S
C292 C293 1.392 . S
C292 H308 0.931 . S
C293 C292 1.392 . S
C293 C294 1.331 . S
C293 H311 0.932 . S
C294 C293 1.331 . S
C294 C295 1.336 . S
C295 C291 1.394 . S
C295 C294 1.336 . S
C295 H310 0.929 . S
C296 C286 1.386 . S
C296 C289 1.357 . S
C296 H309 0.928 . S
H297 C273 0.931 . S
H298 C275 0.930 . S
H299 C277 0.929 . S
H300 C278 0.931 . S
H301 C280 0.930 . S
H302 C284 0.931 . S
H303 C282 0.931 . S
H304 C286 0.931 . S
H305 C287 0.929 . S
H306 C288 0.930 . S
H307 C291 0.930 . S
H308 C292 0.931 . S
H309 C296 0.928 . S
H310 C295 0.929 . S
H311 C293 0.932 . S
C312 C313 1.386 . S
C312 C314 1.397 . S
C312 H336 0.931 . S
C313 C312 1.386 . S
C313 C317 1.397 . S
C314 C312 1.397 . S
C314 C315 1.384 . S
C314 H337 0.930 . S
C315 C314 1.384 . S
C315 C316 1.377 . S
C315 C318 1.481 . S
C316 C315 1.377 . S
C316 C317 1.389 . S
C316 H338 0.929 . S
C317 C313 1.397 . S
C317 C316 1.389 . S
C317 H339 0.931 . S
C318 C315 1.481 . S
C318 C319 1.387 . S
C318 C323 1.390 . S
C319 C318 1.387 . S
C319 C320 1.401 . S
C319 H340 0.930 . S
C320 C319 1.401 . S
C320 C321 1.376 . S
C320 C329 1.511 . S
C321 C320 1.376 . S
C321 C322 1.392 . S
C321 H342 0.931 . S
C322 C321 1.392 . S
C322 C323 1.361 . S
C322 C324 1.500 . S
C323 C318 1.390 . S
C323 C322 1.361 . S
C323 H341 0.931 . S
C324 C322 1.500 . S
C324 C325 1.371 . S
C324 C326 1.365 . S
C325 C324 1.371 . S
C325 C335 1.386 . S
C325 H343 0.931 . S
C326 C324 1.365 . S
C326 C327 1.409 . S
C326 H344 0.929 . S
C327 C326 1.409 . S
C327 C328 1.380 . S
C327 H345 0.930 . S
C328 C327 1.380 . S
C328 C335 1.357 . S
C329 C320 1.511 . S
C329 C330 1.341 . S
C329 C331 1.371 . S
C330 C329 1.341 . S
C330 C334 1.394 . S
C330 H346 0.930 . S
C331 C329 1.371 . S
C331 C332 1.392 . S
C331 H347 0.931 . S
C332 C331 1.392 . S
C332 C333 1.331 . S
C332 H350 0.932 . S
C333 C332 1.331 . S
C333 C334 1.336 . S
C334 C330 1.394 . S
C334 C333 1.336 . S
C334 H349 0.929 . S
C335 C325 1.386 . S
C335 C328 1.357 . S
C335 H348 0.928 . S
H336 C312 0.931 . S
H337 C314 0.930 . S
H338 C316 0.929 . S
H339 C317 0.931 . S
H340 C319 0.930 . S
H341 C323 0.931 . S
H342 C321 0.931 . S
H343 C325 0.931 . S
H344 C326 0.929 . S
H345 C327 0.930 . S
H346 C330 0.930 . S
H347 C331 0.931 . S
H348 C335 0.928 . S
H349 C334 0.929 . S
H350 C332 0.932 . S
C351 C352 1.386 . S
C351 C353 1.397 . S
C351 H375 0.931 . S
C352 C351 1.386 . S
C352 C356 1.397 . S
C353 C351 1.397 . S
C353 C354 1.384 . S
C353 H376 0.930 . S
C354 C353 1.384 . S
C354 C355 1.377 . S
C354 C357 1.481 . S
C355 C354 1.377 . S
C355 C356 1.389 . S
C355 H377 0.929 . S
C356 C352 1.397 . S
C356 C355 1.389 . S
C356 H378 0.931 . S
C357 C354 1.481 . S
C357 C358 1.387 . S
C357 C362 1.390 . S
C358 C357 1.387 . S
C358 C359 1.401 . S
C358 H379 0.930 . S
C359 C358 1.401 . S
C359 C360 1.376 . S
C359 C368 1.511 . S
C360 C359 1.376 . S
C360 C361 1.392 . S
C360 H381 0.931 . S
C361 C360 1.392 . S
C361 C362 1.361 . S
C361 C363 1.500 . S
C362 C357 1.390 . S
C362 C361 1.361 . S
C362 H380 0.931 . S
C363 C361 1.500 . S
C363 C364 1.371 . S
C363 C365 1.365 . S
C364 C363 1.371 . S
C364 C374 1.386 . S
C364 H382 0.931 . S
C365 C363 1.365 . S
C365 C366 1.409 . S
C365 H383 0.929 . S
C366 C365 1.409 . S
C366 C367 1.380 . S
C366 H384 0.930 . S
C367 C366 1.380 . S
C367 C374 1.357 . S
C368 C359 1.511 . S
C368 C369 1.341 . S
C368 C370 1.371 . S
C369 C368 1.341 . S
C369 C373 1.394 . S
C369 H385 0.930 . S
C370 C368 1.371 . S
C370 C371 1.392 . S
C370 H386 0.931 . S
C371 C370 1.392 . S
C371 C372 1.331 . S
C371 H389 0.932 . S
C372 C371 1.331 . S
C372 C373 1.336 . S
C373 C369 1.394 . S
C373 C372 1.336 . S
C373 H388 0.929 . S
C374 C364 1.386 . S
C374 C367 1.357 . S
C374 H387 0.928 . S
H375 C351 0.931 . S
H376 C353 0.930 . S
H377 C355 0.929 . S
H378 C356 0.931 . S
H379 C358 0.930 . S
H380 C362 0.931 . S
H381 C360 0.931 . S
H382 C364 0.931 . S
H383 C365 0.929 . S
H384 C366 0.930 . S
H385 C369 0.930 . S
H386 C370 0.931 . S
H387 C374 0.928 . S
H388 C373 0.929 . S
H389 C371 0.932 . S
C390 C391 1.386 . S
C390 C392 1.397 . S
C390 H414 0.931 . S
C391 C390 1.386 . S
C391 C395 1.397 . S
C392 C390 1.397 . S
C392 C393 1.384 . S
C392 H415 0.930 . S
C393 C392 1.384 . S
C393 C394 1.377 . S
C393 C396 1.481 . S
C394 C393 1.377 . S
C394 C395 1.389 . S
C394 H416 0.929 . S
C395 C391 1.397 . S
C395 C394 1.389 . S
C395 H417 0.931 . S
C396 C393 1.481 . S
C396 C397 1.387 . S
C396 C401 1.390 . S
C397 C396 1.387 . S
C397 C398 1.401 . S
C397 H418 0.930 . S
C398 C397 1.401 . S
C398 C399 1.376 . S
C398 C407 1.511 . S
C399 C398 1.376 . S
C399 C400 1.392 . S
C399 H420 0.931 . S
C400 C399 1.392 . S
C400 C401 1.361 . S
C400 C402 1.500 . S
C401 C396 1.390 . S
C401 C400 1.361 . S
C401 H419 0.931 . S
C402 C400 1.500 . S
C402 C403 1.371 . S
C402 C404 1.365 . S
C403 C402 1.371 . S
C403 C413 1.386 . S
C403 H421 0.931 . S
C404 C402 1.365 . S
C404 C405 1.409 . S
C404 H422 0.929 . S
C405 C404 1.409 . S
C405 C406 1.380 . S
C405 H423 0.930 . S
C406 C405 1.380 . S
C406 C413 1.357 . S
C407 C398 1.511 . S
C407 C408 1.341 . S
C407 C409 1.371 . S
C408 C407 1.341 . S
C408 C412 1.394 . S
C408 H424 0.930 . S
C409 C407 1.371 . S
C409 C410 1.392 . S
C409 H425 0.931 . S
C410 C409 1.392 . S
C410 C411 1.331 . S
C410 H428 0.932 . S
C411 C410 1.331 . S
C411 C412 1.336 . S
C412 C408 1.394 . S
C412 C411 1.336 . S
C412 H427 0.929 . S
C413 C403 1.386 . S
C413 C406 1.357 . S
C413 H426 0.928 . S
H414 C390 0.931 . S
H415 C392 0.930 . S
H416 C394 0.929 . S
H417 C395 0.931 . S
H418 C397 0.930 . S
H419 C401 0.931 . S
H420 C399 0.931 . S
H421 C403 0.931 . S
H422 C404 0.929 . S
H423 C405 0.930 . S
H424 C408 0.930 . S
H425 C409 0.931 . S
H426 C413 0.928 . S
H427 C412 0.929 . S
H428 C410 0.932 . S
C429 C430 1.386 . S
C429 C431 1.397 . S
C429 H453 0.931 . S
C430 C429 1.386 . S
C430 C434 1.397 . S
C431 C429 1.397 . S
C431 C432 1.384 . S
C431 H454 0.930 . S
C432 C431 1.384 . S
C432 C433 1.377 . S
C432 C435 1.481 . S
C433 C432 1.377 . S
C433 C434 1.389 . S
C433 H455 0.929 . S
C434 C430 1.397 . S
C434 C433 1.389 . S
C434 H456 0.931 . S
C435 C432 1.481 . S
C435 C436 1.387 . S
C435 C440 1.390 . S
C436 C435 1.387 . S
C436 C437 1.401 . S
C436 H457 0.930 . S
C437 C436 1.401 . S
C437 C438 1.376 . S
C437 C446 1.511 . S
C438 C437 1.376 . S
C438 C439 1.392 . S
C438 H459 0.931 . S
C439 C438 1.392 . S
C439 C440 1.361 . S
C439 C441 1.500 . S
C440 C435 1.390 . S
C440 C439 1.361 . S
C440 H458 0.931 . S
C441 C439 1.500 . S
C441 C442 1.371 . S
C441 C443 1.365 . S
C442 C441 1.371 . S
C442 C452 1.386 . S
C442 H460 0.931 . S
C443 C441 1.365 . S
C443 C444 1.409 . S
C443 H461 0.929 . S
C444 C443 1.409 . S
C444 C445 1.380 . S
C444 H462 0.930 . S
C445 C444 1.380 . S
C445 C452 1.357 . S
C446 C437 1.511 . S
C446 C447 1.341 . S
C446 C448 1.371 . S
C447 C446 1.341 . S
C447 C451 1.394 . S
C447 H463 0.930 . S
C448 C446 1.371 . S
C448 C449 1.392 . S
C448 H464 0.931 . S
C449 C448 1.392 . S
C449 C450 1.331 . S
C449 H467 0.932 . S
C450 C449 1.331 . S
C450 C451 1.336 . S
C451 C447 1.394 . S
C451 C450 1.336 . S
C451 H466 0.929 . S
C452 C442 1.386 . S
C452 C445 1.357 . S
C452 H465 0.928 . S
H453 C429 0.931 . S
H454 C431 0.930 . S
H455 C433 0.929 . S
H456 C434 0.931 . S
H457 C436 0.930 . S
H458 C440 0.931 . S
H459 C438 0.931 . S
H460 C442 0.931 . S
H461 C443 0.929 . S
H462 C444 0.930 . S
H463 C447 0.930 . S
H464 C448 0.931 . S
H465 C452 0.928 . S
H466 C451 0.929 . S
H467 C449 0.932 . S
C468 C469 1.386 . S
C468 C470 1.397 . S
C468 H492 0.931 . S
C469 C468 1.386 . S
C469 C473 1.397 . S
C470 C468 1.397 . S
C470 C471 1.384 . S
C470 H493 0.930 . S
C471 C470 1.384 . S
C471 C472 1.377 . S
C471 C474 1.481 . S
C472 C471 1.377 . S
C472 C473 1.389 . S
C472 H494 0.929 . S
C473 C469 1.397 . S
C473 C472 1.389 . S
C473 H495 0.931 . S
C474 C471 1.481 . S
C474 C475 1.387 . S
C474 C479 1.390 . S
C475 C474 1.387 . S
C475 C476 1.401 . S
C475 H496 0.930 . S
C476 C475 1.401 . S
C476 C477 1.376 . S
C476 C485 1.511 . S
C477 C476 1.376 . S
C477 C478 1.392 . S
C477 H498 0.931 . S
C478 C477 1.392 . S
C478 C479 1.361 . S
C478 C480 1.500 . S
C479 C474 1.390 . S
C479 C478 1.361 . S
C479 H497 0.931 . S
C480 C478 1.500 . S
C480 C481 1.371 . S
C480 C482 1.365 . S
C481 C480 1.371 . S
C481 C491 1.386 . S
C481 H499 0.931 . S
C482 C480 1.365 . S
C482 C483 1.409 . S
C482 H500 0.929 . S
C483 C482 1.409 . S
C483 C484 1.380 . S
C483 H501 0.930 . S
C484 C483 1.380 . S
C484 C491 1.357 . S
C485 C476 1.511 . S
C485 C486 1.341 . S
C485 C487 1.371 . S
C486 C485 1.341 . S
C486 C490 1.394 . S
C486 H502 0.930 . S
C487 C485 1.371 . S
C487 C488 1.392 . S
C487 H503 0.931 . S
C488 C487 1.392 . S
C488 C489 1.331 . S
C488 H506 0.932 . S
C489 C488 1.331 . S
C489 C490 1.336 . S
C490 C486 1.394 . S
C490 C489 1.336 . S
C490 H505 0.929 . S
C491 C481 1.386 . S
C491 C484 1.357 . S
C491 H504 0.928 . S
H492 C468 0.931 . S
H493 C470 0.930 . S
H494 C472 0.929 . S
H495 C473 0.931 . S
H496 C475 0.930 . S
H497 C479 0.931 . S
H498 C477 0.931 . S
H499 C481 0.931 . S
H500 C482 0.929 . S
H501 C483 0.930 . S
H502 C486 0.930 . S
H503 C487 0.931 . S
H504 C491 0.928 . S
H505 C490 0.929 . S
H506 C488 0.932 . S
C507 C508 1.386 . S
C507 C509 1.397 . S
C507 H531 0.931 . S
C508 C507 1.386 . S
C508 C512 1.397 . S
C509 C507 1.397 . S
C509 C510 1.384 . S
C509 H532 0.930 . S
C510 C509 1.384 . S
C510 C511 1.377 . S
C510 C513 1.481 . S
C511 C510 1.377 . S
C511 C512 1.389 . S
C511 H533 0.929 . S
C512 C508 1.397 . S
C512 C511 1.389 . S
C512 H534 0.931 . S
C513 C510 1.481 . S
C513 C514 1.387 . S
C513 C518 1.390 . S
C514 C513 1.387 . S
C514 C515 1.401 . S
C514 H535 0.930 . S
C515 C514 1.401 . S
C515 C516 1.376 . S
C515 C524 1.511 . S
C516 C515 1.376 . S
C516 C517 1.392 . S
C516 H537 0.931 . S
C517 C516 1.392 . S
C517 C518 1.361 . S
C517 C519 1.500 . S
C518 C513 1.390 . S
C518 C517 1.361 . S
C518 H536 0.931 . S
C519 C517 1.500 . S
C519 C520 1.371 . S
C519 C521 1.365 . S
C520 C519 1.371 . S
C520 C530 1.386 . S
C520 H538 0.931 . S
C521 C519 1.365 . S
C521 C522 1.409 . S
C521 H539 0.929 . S
C522 C521 1.409 . S
C522 C523 1.380 . S
C522 H540 0.930 . S
C523 C522 1.380 . S
C523 C530 1.357 . S
C524 C515 1.511 . S
C524 C525 1.341 . S
C524 C526 1.371 . S
C525 C524 1.341 . S
C525 C529 1.394 . S
C525 H541 0.930 . S
C526 C524 1.371 . S
C526 C527 1.392 . S
C526 H542 0.931 . S
C527 C526 1.392 . S
C527 C528 1.331 . S
C527 H545 0.932 . S
C528 C527 1.331 . S
C528 C529 1.336 . S
C529 C525 1.394 . S
C529 C528 1.336 . S
C529 H544 0.929 . S
C530 C520 1.386 . S
C530 C523 1.357 . S
C530 H543 0.928 . S
H531 C507 0.931 . S
H532 C509 0.930 . S
H533 C511 0.929 . S
H534 C512 0.931 . S
H535 C514 0.930 . S
H536 C518 0.931 . S
H537 C516 0.931 . S
H538 C520 0.931 . S
H539 C521 0.929 . S
H540 C522 0.930 . S
H541 C525 0.930 . S
H542 C526 0.931 . S
H543 C530 0.928 . S
H544 C529 0.929 . S
H545 C527 0.932 . S
C546 C547 1.386 . S
C546 C548 1.397 . S
C546 H570 0.931 . S
C547 C546 1.386 . S
C547 C551 1.397 . S
C548 C546 1.397 . S
C548 C549 1.384 . S
C548 H571 0.930 . S
C549 C548 1.384 . S
C549 C550 1.377 . S
C549 C552 1.481 . S
C550 C549 1.377 . S
C550 C551 1.389 . S
C550 H572 0.929 . S
C551 C547 1.397 . S
C551 C550 1.389 . S
C551 H573 0.931 . S
C552 C549 1.481 . S
C552 C553 1.387 . S
C552 C557 1.390 . S
C553 C552 1.387 . S
C553 C554 1.401 . S
C553 H574 0.930 . S
C554 C553 1.401 . S
C554 C555 1.376 . S
C554 C563 1.511 . S
C555 C554 1.376 . S
C555 C556 1.392 . S
C555 H576 0.931 . S
C556 C555 1.392 . S
C556 C557 1.361 . S
C556 C558 1.500 . S
C557 C552 1.390 . S
C557 C556 1.361 . S
C557 H575 0.931 . S
C558 C556 1.500 . S
C558 C559 1.371 . S
C558 C560 1.365 . S
C559 C558 1.371 . S
C559 C569 1.386 . S
C559 H577 0.931 . S
C560 C558 1.365 . S
C560 C561 1.409 . S
C560 H578 0.929 . S
C561 C560 1.409 . S
C561 C562 1.380 . S
C561 H579 0.930 . S
C562 C561 1.380 . S
C562 C569 1.357 . S
C563 C554 1.511 . S
C563 C564 1.341 . S
C563 C565 1.371 . S
C564 C563 1.341 . S
C564 C568 1.394 . S
C564 H580 0.930 . S
C565 C563 1.371 . S
C565 C566 1.392 . S
C565 H581 0.931 . S
C566 C565 1.392 . S
C566 C567 1.331 . S
C566 H584 0.932 . S
C567 C566 1.331 . S
C567 C568 1.336 . S
C568 C564 1.394 . S
C568 C567 1.336 . S
C568 H583 0.929 . S
C569 C559 1.386 . S
C569 C562 1.357 . S
C569 H582 0.928 . S
H570 C546 0.931 . S
H571 C548 0.930 . S
H572 C550 0.929 . S
H573 C551 0.931 . S
H574 C553 0.930 . S
H575 C557 0.931 . S
H576 C555 0.931 . S
H577 C559 0.931 . S
H578 C560 0.929 . S
H579 C561 0.930 . S
H580 C564 0.930 . S
H581 C565 0.931 . S
H582 C569 0.928 . S
H583 C568 0.929 . S
H584 C566 0.932 . S
C585 C586 1.386 . S
C585 C587 1.397 . S
C585 H609 0.931 . S
C586 C585 1.386 . S
C586 C590 1.397 . S
C587 C585 1.397 . S
C587 C588 1.384 . S
C587 H610 0.930 . S
C588 C587 1.384 . S
C588 C589 1.377 . S
C588 C591 1.481 . S
C589 C588 1.377 . S
C589 C590 1.389 . S
C589 H611 0.929 . S
C590 C586 1.397 . S
C590 C589 1.389 . S
C590 H612 0.931 . S
C591 C588 1.481 . S
C591 C592 1.387 . S
C591 C596 1.390 . S
C592 C591 1.387 . S
C592 C593 1.401 . S
C592 H613 0.930 . S
C593 C592 1.401 . S
C593 C594 1.376 . S
C593 C602 1.511 . S
C594 C593 1.376 . S
C594 C595 1.392 . S
C594 H615 0.931 . S
C595 C594 1.392 . S
C595 C596 1.361 . S
C595 C597 1.500 . S
C596 C591 1.390 . S
C596 C595 1.361 . S
C596 H614 0.931 . S
C597 C595 1.500 . S
C597 C598 1.371 . S
C597 C599 1.365 . S
C598 C597 1.371 . S
C598 C608 1.386 . S
C598 H616 0.931 . S
C599 C597 1.365 . S
C599 C600 1.409 . S
C599 H617 0.929 . S
C600 C599 1.409 . S
C600 C601 1.380 . S
C600 H618 0.930 . S
C601 C600 1.380 . S
C601 C608 1.357 . S
C602 C593 1.511 . S
C602 C603 1.341 . S
C602 C604 1.371 . S
C603 C602 1.341 . S
C603 C607 1.394 . S
C603 H619 0.930 . S
C604 C602 1.371 . S
C604 C605 1.392 . S
C604 H620 0.931 . S
C605 C604 1.392 . S
C605 C606 1.331 . S
C605 H623 0.932 . S
C606 C605 1.331 . S
C606 C607 1.336 . S
C607 C603 1.394 . S
C607 C606 1.336 . S
C607 H622 0.929 . S
C608 C598 1.386 . S
C608 C601 1.357 . S
C608 H621 0.928 . S
H609 C585 0.931 . S
H610 C587 0.930 . S
H611 C589 0.929 . S
H612 C590 0.931 . S
H613 C592 0.930 . S
H614 C596 0.931 . S
H615 C594 0.931 . S
H616 C598 0.931 . S
H617 C599 0.929 . S
H618 C600 0.930 . S
H619 C603 0.930 . S
H620 C604 0.931 . S
H621 C608 0.928 . S
H622 C607 0.929 . S
H623 C605 0.932 . S
C624 C625 1.386 . S
C624 C626 1.397 . S
C624 H648 0.931 . S
C625 C624 1.386 . S
C625 C629 1.397 . S
C626 C624 1.397 . S
C626 C627 1.384 . S
C626 H649 0.930 . S
C627 C626 1.384 . S
C627 C628 1.377 . S
C627 C630 1.481 . S
C628 C627 1.377 . S
C628 C629 1.389 . S
C628 H650 0.929 . S
C629 C625 1.397 . S
C629 C628 1.389 . S
C629 H651 0.931 . S
C630 C627 1.481 . S
C630 C631 1.387 . S
C630 C635 1.390 . S
C631 C630 1.387 . S
C631 C632 1.401 . S
C631 H652 0.930 . S
C632 C631 1.401 . S
C632 C633 1.376 . S
C632 C641 1.511 . S
C633 C632 1.376 . S
C633 C634 1.392 . S
C633 H654 0.931 . S
C634 C633 1.392 . S
C634 C635 1.361 . S
C634 C636 1.500 . S
C635 C630 1.390 . S
C635 C634 1.361 . S
C635 H653 0.931 . S
C636 C634 1.500 . S
C636 C637 1.371 . S
C636 C638 1.365 . S
C637 C636 1.371 . S
C637 C647 1.386 . S
C637 H655 0.931 . S
C638 C636 1.365 . S
C638 C639 1.409 . S
C638 H656 0.929 . S
C639 C638 1.409 . S
C639 C640 1.380 . S
C639 H657 0.930 . S
C640 C639 1.380 . S
C640 C647 1.357 . S
C641 C632 1.511 . S
C641 C642 1.341 . S
C641 C643 1.371 . S
C642 C641 1.341 . S
C642 C646 1.394 . S
C642 H658 0.930 . S
C643 C641 1.371 . S
C643 C644 1.392 . S
C643 H659 0.931 . S
C644 C643 1.392 . S
C644 C645 1.331 . S
C644 H662 0.932 . S
C645 C644 1.331 . S
C645 C646 1.336 . S
C646 C642 1.394 . S
C646 C645 1.336 . S
C646 H661 0.929 . S
C647 C637 1.386 . S
C647 C640 1.357 . S
C647 H660 0.928 . S
H648 C624 0.931 . S
H649 C626 0.930 . S
H650 C628 0.929 . S
H651 C629 0.931 . S
H652 C631 0.930 . S
H653 C635 0.931 . S
H654 C633 0.931 . S
H655 C637 0.931 . S
H656 C638 0.929 . S
H657 C639 0.930 . S
H658 C642 0.930 . S
H659 C643 0.931 . S
H660 C647 0.928 . S
H661 C646 0.929 . S
H662 C644 0.932 . S
C663 C664 1.386 . S
C663 C665 1.397 . S
C663 H687 0.931 . S
C664 C663 1.386 . S
C664 C668 1.397 . S
C665 C663 1.397 . S
C665 C666 1.384 . S
C665 H688 0.930 . S
C666 C665 1.384 . S
C666 C667 1.377 . S
C666 C669 1.481 . S
C667 C666 1.377 . S
C667 C668 1.389 . S
C667 H689 0.929 . S
C668 C664 1.397 . S
C668 C667 1.389 . S
C668 H690 0.931 . S
C669 C666 1.481 . S
C669 C670 1.387 . S
C669 C674 1.390 . S
C670 C669 1.387 . S
C670 C671 1.401 . S
C670 H691 0.930 . S
C671 C670 1.401 . S
C671 C672 1.376 . S
C671 C680 1.511 . S
C672 C671 1.376 . S
C672 C673 1.392 . S
C672 H693 0.931 . S
C673 C672 1.392 . S
C673 C674 1.361 . S
C673 C675 1.500 . S
C674 C669 1.390 . S
C674 C673 1.361 . S
C674 H692 0.931 . S
C675 C673 1.500 . S
C675 C676 1.371 . S
C675 C677 1.365 . S
C676 C675 1.371 . S
C676 C686 1.386 . S
C676 H694 0.931 . S
C677 C675 1.365 . S
C677 C678 1.409 . S
C677 H695 0.929 . S
C678 C677 1.409 . S
C678 C679 1.380 . S
C678 H696 0.930 . S
C679 C678 1.380 . S
C679 C686 1.357 . S
C680 C671 1.511 . S
C680 C681 1.341 . S
C680 C682 1.371 . S
C681 C680 1.341 . S
C681 C685 1.394 . S
C681 H697 0.930 . S
C682 C680 1.371 . S
C682 C683 1.392 . S
C682 H698 0.931 . S
C683 C682 1.392 . S
C683 C684 1.331 . S
C683 H701 0.932 . S
C684 C683 1.331 . S
C684 C685 1.336 . S
C685 C681 1.394 . S
C685 C684 1.336 . S
C685 H700 0.929 . S
C686 C676 1.386 . S
C686 C679 1.357 . S
C686 H699 0.928 . S
H687 C663 0.931 . S
H688 C665 0.930 . S
H689 C667 0.929 . S
H690 C668 0.931 . S
H691 C670 0.930 . S
H692 C674 0.931 . S
H693 C672 0.931 . S
H694 C676 0.931 . S
H695 C677 0.929 . S
H696 C678 0.930 . S
H697 C681 0.930 . S
H698 C682 0.931 . S
H699 C686 0.928 . S
H700 C685 0.929 . S
H701 C683 0.932 . S
Tb702 O705 2.453 . S
Tb702 O706 2.596 1_545 S
Tb702 O707 2.374 1_545 S
Tb702 O715 2.343 1_554 S
Tb702 O717 2.353 . S
Tb702 O719 2.427 1_554 S
Tb702 O720 2.513 1_554 S
C703 O707 1.251 . S
C703 O709 1.258 1_554 S
Tb704 O706 2.343 1_556 S
Tb704 O709 2.355 . S
Tb704 O712 2.427 1_556 S
Tb704 O713 2.513 1_556 S
Tb704 O714 2.453 . S
Tb704 O715 2.596 1_565 S
Tb704 O716 2.374 1_565 S
O705 Tb702 2.453 . S
O705 C721 1.245 . S
O706 Tb702 2.596 1_565 S
O706 Tb704 2.343 1_554 S
O706 C721 1.259 1_565 S
O707 Tb702 2.374 1_565 S
O707 C703 1.251 . S
C708 O712 1.275 . S
C708 O713 1.246 . S
O709 C703 1.258 1_556 S
O709 Tb704 2.355 . S
C710 O714 1.247 . S
C710 O715 1.259 1_565 S
C711 O716 1.250 . S
C711 O717 1.263 1_556 S
O712 Tb704 2.427 1_554 S
O712 C708 1.275 . S
O713 Tb704 2.513 1_554 S
O713 C708 1.246 . S
O714 Tb704 2.453 . S
O714 C710 1.247 . S
O715 Tb702 2.343 1_556 S
O715 Tb704 2.596 1_545 S
O715 C710 1.259 1_545 S
O716 Tb704 2.374 1_545 S
O716 C711 1.250 . S
O717 Tb702 2.353 . S
O717 C711 1.263 1_554 S
C718 O719 1.275 . S
C718 O720 1.246 . S
O719 Tb702 2.427 1_556 S
O719 C718 1.275 . S
O720 Tb702 2.513 1_556 S
O720 C718 1.246 . S
C721 O705 1.245 . S
C721 O706 1.259 1_545 S
Tb722 O725 2.453 . S
Tb722 O726 2.596 1_655 S
Tb722 O727 2.374 1_655 S
Tb722 O735 2.343 1_554 S
Tb722 O737 2.365 . S
Tb722 O739 2.427 1_554 S
Tb722 O740 2.513 1_554 S
C723 O727 1.251 . S
C723 O729 1.263 . S
Tb724 O726 2.343 1_556 S
Tb724 O729 2.353 1_556 S
Tb724 O732 2.427 1_556 S
Tb724 O733 2.513 1_556 S
Tb724 O734 2.453 . S
Tb724 O735 2.596 1_455 S
Tb724 O736 2.374 1_455 S
O725 Tb722 2.453 . S
O725 C741 1.245 1_655 S
O726 Tb722 2.596 1_455 S
O726 Tb724 2.343 1_554 S
O726 C741 1.259 . S
O727 Tb722 2.374 1_455 S
O727 C723 1.251 . S
C728 O732 1.275 . S
C728 O733 1.246 . S
O729 C723 1.263 . S
O729 Tb724 2.353 1_554 S
C730 O734 1.279 . S
C730 O735 1.247 1_455 S
C731 O736 1.250 . S
C731 O737 1.232 1_556 S
O732 Tb724 2.427 1_554 S
O732 C728 1.275 . S
O733 Tb724 2.513 1_554 S
O733 C728 1.246 . S
O734 Tb724 2.453 . S
O734 C730 1.279 . S
O735 Tb722 2.343 1_556 S
O735 Tb724 2.596 1_655 S
O735 C730 1.247 1_655 S
O736 Tb724 2.374 1_655 S
O736 C731 1.250 . S
O737 Tb722 2.365 . S
O737 C731 1.232 1_554 S
C738 O739 1.275 . S
C738 O740 1.246 . S
O739 Tb722 2.427 1_556 S
O739 C738 1.275 . S
O740 Tb722 2.513 1_556 S
O740 C738 1.246 . S
C741 O725 1.245 1_455 S
C741 O726 1.259 . S
Tb742 O745 2.453 . S
Tb742 O746 2.596 . S
Tb742 O747 2.374 . S
Tb742 O755 2.343 1_556 S
Tb742 O757 2.353 1_556 S
Tb742 O759 2.427 1_556 S
Tb742 O760 2.513 1_556 S
C743 O747 1.251 . S
C743 O749 1.263 1_556 S
Tb744 O746 2.343 1_554 S
Tb744 O749 2.353 . S
Tb744 O752 2.427 1_554 S
Tb744 O753 2.513 1_554 S
Tb744 O754 2.453 . S
Tb744 O755 2.596 . S
Tb744 O756 2.374 . S
O745 Tb742 2.453 . S
O745 C761 1.245 . S
O746 Tb742 2.596 . S
O746 Tb744 2.343 1_556 S
O746 C761 1.259 . S
O747 Tb742 2.374 . S
O747 C743 1.251 . S
C748 O752 1.275 . S
C748 O753 1.246 . S
O749 C743 1.263 1_554 S
O749 Tb744 2.353 . S
C750 O754 1.245 . S
C750 O755 1.259 . S
C751 O756 1.250 . S
C751 O757 1.263 . S
O752 Tb744 2.427 1_556 S
O752 C748 1.275 . S
O753 Tb744 2.513 1_556 S
O753 C748 1.246 . S
O754 Tb744 2.453 . S
O754 C750 1.245 . S
O755 Tb742 2.343 1_554 S
O755 Tb744 2.596 . S
O755 C750 1.259 . S
O756 Tb744 2.374 . S
O756 C751 1.250 . S
O757 Tb742 2.353 1_554 S
O757 C751 1.263 . S
C758 O759 1.275 . S
C758 O760 1.246 . S
O759 Tb742 2.427 1_554 S
O759 C758 1.275 . S
O760 Tb742 2.513 1_554 S
O760 C758 1.246 . S
C761 O745 1.245 . S
C761 O746 1.259 . S
Tb762 O765 2.453 . S
Tb762 O766 2.596 . S
Tb762 O767 2.374 . S
Tb762 O775 2.343 . S
Tb762 O777 2.353 . S
Tb762 O779 2.427 . S
Tb762 O780 2.513 . S
C763 O767 1.251 . S
C763 O769 1.263 . S
Tb764 O766 2.343 . S
Tb764 O769 2.353 . S
Tb764 O772 2.427 . S
Tb764 O773 2.513 . S
Tb764 O774 2.453 . S
Tb764 O775 2.596 . S
Tb764 O776 2.374 . S
O765 Tb762 2.453 . S
O765 C781 1.245 . S
O766 Tb762 2.596 . S
O766 Tb764 2.343 . S
O766 C781 1.259 . S
O767 Tb762 2.374 . S
O767 C763 1.251 . S
C768 O772 1.275 . S
C768 O773 1.246 . S
O769 C763 1.263 . S
O769 Tb764 2.353 . S
C770 O774 1.245 . S
C770 O775 1.259 . S
C771 O776 1.250 . S
C771 O777 1.263 . S
O772 Tb764 2.427 . S
O772 C768 1.275 . S
O773 Tb764 2.513 . S
O773 C768 1.246 . S
O774 Tb764 2.453 . S
O774 C770 1.245 . S
O775 Tb762 2.343 . S
O775 Tb764 2.596 . S
O775 C770 1.259 . S
O776 Tb764 2.374 . S
O776 C771 1.250 . S
O777 Tb762 2.353 . S
O777 C771 1.263 . S
C778 O779 1.275 . S
C778 O780 1.246 . S
O779 Tb762 2.427 . S
O779 C778 1.275 . S
O780 Tb762 2.513 . S
O780 C778 1.246 . S
C781 O765 1.245 . S
C781 O766 1.259 . S
Tb782 O785 2.453 . S
Tb782 O786 2.596 . S
Tb782 O787 2.374 . S
Tb782 O795 2.343 . S
Tb782 O797 2.353 . S
Tb782 O799 2.427 . S
Tb782 O800 2.513 . S
C783 O787 1.251 . S
C783 O789 1.263 . S
Tb784 O786 2.343 . S
Tb784 O789 2.353 . S
Tb784 O792 2.427 . S
Tb784 O793 2.513 . S
Tb784 O794 2.453 . S
Tb784 O795 2.596 . S
Tb784 O796 2.374 . S
O785 Tb782 2.453 . S
O785 C801 1.245 . S
O786 Tb782 2.596 . S
O786 Tb784 2.343 . S
O786 C801 1.259 . S
O787 Tb782 2.374 . S
O787 C783 1.251 . S
C788 O792 1.275 . S
C788 O793 1.246 . S
O789 C783 1.263 . S
O789 Tb784 2.353 . S
C790 O794 1.245 . S
C790 O795 1.259 . S
C791 O796 1.250 . S
C791 O797 1.263 . S
O792 Tb784 2.427 . S
O792 C788 1.275 . S
O793 Tb784 2.513 . S
O793 C788 1.246 . S
O794 Tb784 2.453 . S
O794 C790 1.245 . S
O795 Tb782 2.343 . S
O795 Tb784 2.596 . S
O795 C790 1.259 . S
O796 Tb784 2.374 . S
O796 C791 1.250 . S
O797 Tb782 2.353 . S
O797 C791 1.263 . S
C798 O799 1.275 . S
C798 O800 1.246 . S
O799 Tb782 2.427 . S
O799 C798 1.275 . S
O800 Tb782 2.513 . S
O800 C798 1.246 . S
C801 O785 1.245 . S
C801 O786 1.259 . S
Tb802 O805 2.453 . S
Tb802 O806 2.596 . S
Tb802 O807 2.374 . S
Tb802 O815 2.343 . S
Tb802 O817 2.353 . S
Tb802 O819 2.427 . S
Tb802 O820 2.513 . S
C803 O807 1.251 . S
C803 O809 1.263 . S
Tb804 O806 2.343 . S
Tb804 O809 2.353 . S
Tb804 O812 2.427 . S
Tb804 O813 2.513 . S
Tb804 O814 2.453 . S
Tb804 O815 2.596 . S
Tb804 O816 2.374 . S
O805 Tb802 2.453 . S
O805 C821 1.245 . S
O806 Tb802 2.596 . S
O806 Tb804 2.343 . S
O806 C821 1.259 . S
O807 Tb802 2.374 . S
O807 C803 1.251 . S
C808 O812 1.275 . S
C808 O813 1.246 . S
O809 C803 1.263 . S
O809 Tb804 2.353 . S
C810 O814 1.245 . S
C810 O815 1.259 . S
C811 O816 1.250 . S
C811 O817 1.263 . S
O812 Tb804 2.427 . S
O812 C808 1.275 . S
O813 Tb804 2.513 . S
O813 C808 1.246 . S
O814 Tb804 2.453 . S
O814 C810 1.245 . S
O815 Tb802 2.343 . S
O815 Tb804 2.596 . S
O815 C810 1.259 . S
O816 Tb804 2.374 . S
O816 C811 1.250 . S
O817 Tb802 2.353 . S
O817 C811 1.263 . S
C818 O819 1.275 . S
C818 O820 1.246 . S
O819 Tb802 2.427 . S
O819 C818 1.275 . S
O820 Tb802 2.513 . S
O820 C818 1.246 . S
C821 O805 1.245 . S
C821 O806 1.259 . S
Tb822 O825 2.453 . S
Tb822 O826 2.596 . S
Tb822 O827 2.374 . S
Tb822 O835 2.343 . S
Tb822 O837 2.353 . S
Tb822 O839 2.427 . S
Tb822 O840 2.513 . S
C823 O827 1.251 . S
C823 O829 1.263 . S
Tb824 O826 2.343 . S
Tb824 O829 2.353 . S
Tb824 O832 2.427 . S
Tb824 O833 2.513 . S
Tb824 O834 2.453 . S
Tb824 O835 2.596 . S
Tb824 O836 2.374 . S
O825 Tb822 2.453 . S
O825 C841 1.245 . S
O826 Tb822 2.596 . S
O826 Tb824 2.343 . S
O826 C841 1.259 . S
O827 Tb822 2.374 . S
O827 C823 1.251 . S
C828 O832 1.275 . S
C828 O833 1.246 . S
O829 C823 1.263 . S
O829 Tb824 2.353 . S
C830 O834 1.245 . S
C830 O835 1.259 . S
C831 O836 1.250 . S
C831 O837 1.263 . S
O832 Tb824 2.427 . S
O832 C828 1.275 . S
O833 Tb824 2.513 . S
O833 C828 1.246 . S
O834 Tb824 2.453 . S
O834 C830 1.245 . S
O835 Tb822 2.343 . S
O835 Tb824 2.596 . S
O835 C830 1.259 . S
O836 Tb824 2.374 . S
O836 C831 1.250 . S
O837 Tb822 2.353 . S
O837 C831 1.263 . S
C838 O839 1.275 . S
C838 O840 1.246 . S
O839 Tb822 2.427 . S
O839 C838 1.275 . S
O840 Tb822 2.513 . S
O840 C838 1.246 . S
C841 O825 1.245 . S
C841 O826 1.259 . S
Tb842 O845 2.453 . S
Tb842 O846 2.596 . S
Tb842 O847 2.374 . S
Tb842 O855 2.343 . S
Tb842 O857 2.353 . S
Tb842 O859 2.427 . S
Tb842 O860 2.513 . S
C843 O847 1.251 . S
C843 O849 1.263 . S
Tb844 O846 2.343 . S
Tb844 O849 2.353 . S
Tb844 O852 2.427 . S
Tb844 O853 2.513 . S
Tb844 O854 2.453 . S
Tb844 O855 2.596 . S
Tb844 O856 2.374 . S
O845 Tb842 2.453 . S
O845 C861 1.245 . S
O846 Tb842 2.596 . S
O846 Tb844 2.343 . S
O846 C861 1.259 . S
O847 Tb842 2.374 . S
O847 C843 1.251 . S
C848 O852 1.275 . S
C848 O853 1.246 . S
O849 C843 1.263 . S
O849 Tb844 2.353 . S
C850 O854 1.245 . S
C850 O855 1.259 . S
C851 O856 1.250 . S
C851 O857 1.263 . S
O852 Tb844 2.427 . S
O852 C848 1.275 . S
O853 Tb844 2.513 . S
O853 C848 1.246 . S
O854 Tb844 2.453 . S
O854 C850 1.245 . S
O855 Tb842 2.343 . S
O855 Tb844 2.596 . S
O855 C850 1.259 . S
O856 Tb844 2.374 . S
O856 C851 1.250 . S
O857 Tb842 2.353 . S
O857 C851 1.263 . S
C858 O859 1.275 . S
C858 O860 1.246 . S
O859 Tb842 2.427 . S
O859 C858 1.275 . S
O860 Tb842 2.513 . S
O860 C858 1.246 . S
C861 O845 1.245 . S
C861 O846 1.259 . S
Tb862 O865 2.453 . S
Tb862 O866 2.596 . S
Tb862 O867 2.374 . S
Tb862 O875 2.343 . S
Tb862 O877 2.353 . S
Tb862 O879 2.427 . S
Tb862 O880 2.513 . S
C863 O867 1.251 . S
C863 O869 1.263 . S
Tb864 O866 2.343 . S
Tb864 O869 2.353 . S
Tb864 O872 2.427 . S
Tb864 O873 2.513 . S
Tb864 O874 2.453 . S
Tb864 O875 2.596 . S
Tb864 O876 2.374 . S
O865 Tb862 2.453 . S
O865 C881 1.245 . S
O866 Tb862 2.596 . S
O866 Tb864 2.343 . S
O866 C881 1.259 . S
O867 Tb862 2.374 . S
O867 C863 1.251 . S
C868 O872 1.275 . S
C868 O873 1.246 . S
O869 C863 1.263 . S
O869 Tb864 2.353 . S
C870 O874 1.245 . S
C870 O875 1.259 . S
C871 O876 1.250 . S
C871 O877 1.263 . S
O872 Tb864 2.427 . S
O872 C868 1.275 . S
O873 Tb864 2.513 . S
O873 C868 1.246 . S
O874 Tb864 2.453 . S
O874 C870 1.245 . S
O875 Tb862 2.343 . S
O875 Tb864 2.596 . S
O875 C870 1.259 . S
O876 Tb864 2.374 . S
O876 C871 1.250 . S
O877 Tb862 2.353 . S
O877 C871 1.263 . S
C878 O879 1.275 . S
C878 O880 1.246 . S
O879 Tb862 2.427 . S
O879 C878 1.275 . S
O880 Tb862 2.513 . S
O880 C878 1.246 . S
C881 O865 1.245 . S
C881 O866 1.259 . S
C882 C883 1.391 . S
C882 C884 1.394 . S
C882 H898 0.931 . S
C883 C882 1.391 . S
C883 C887 1.376 . S
C884 C882 1.394 . S
C884 C885 1.369 . S
C884 C888 1.531 . S
C885 C884 1.369 . S
C885 C886 1.410 . S
C885 C893 1.503 . S
C886 C885 1.410 . S
C886 C887 1.392 . S
C886 C889 1.511 . S
C887 C883 1.376 . S
C887 C886 1.392 . S
C887 H899 0.929 . S
C888 C884 1.531 . S
C888 H900 0.960 . S
C888 H901 0.962 . S
C888 H902 0.960 . S
C889 C886 1.511 . S
C889 H903 0.961 . S
C889 H904 0.961 . S
C889 H905 0.961 . S
C890 C891 1.370 . S
C890 C892 1.363 . S
C890 H906 0.931 . S
C891 C890 1.370 . S
C891 C895 1.408 . S
C892 C890 1.363 . S
C892 C893 1.370 . S
C892 C896 1.524 . S
C893 C885 1.503 . S
C893 C892 1.370 . S
C893 C894 1.403 . S
C894 C893 1.403 . S
C894 C895 1.404 . S
C894 C897 1.539 . S
C895 C891 1.408 . S
C895 C894 1.404 . S
C895 H907 0.930 . S
C896 C892 1.524 . S
C896 H908 0.956 . S
C896 H909 0.961 . S
C896 H910 0.961 . S
C897 C894 1.539 . S
C897 H911 0.958 1_554 S
C897 H912 0.961 1_554 S
C897 H913 0.960 . S
H898 C882 0.931 . S
H899 C887 0.929 . S
H900 C888 0.960 . S
H901 C888 0.962 . S
H902 C888 0.960 . S
H903 C889 0.961 . S
H904 C889 0.961 . S
H905 C889 0.961 . S
H906 C890 0.931 . S
H907 C895 0.930 . S
H908 C896 0.956 . S
H909 C896 0.961 . S
H910 C896 0.961 . S
H911 C897 0.958 1_556 S
H912 C897 0.961 1_556 S
H913 C897 0.960 . S
C914 C915 1.391 . S
C914 C916 1.394 . S
C914 H930 0.931 . S
C915 C914 1.391 . S
C915 C919 1.376 . S
C916 C914 1.394 . S
C916 C917 1.369 . S
C916 C920 1.531 . S
C917 C916 1.369 . S
C917 C918 1.410 . S
C917 C925 1.503 . S
C918 C917 1.410 . S
C918 C919 1.392 . S
C918 C921 1.511 . S
C919 C915 1.376 . S
C919 C918 1.392 . S
C919 H931 0.929 . S
C920 C916 1.531 . S
C920 H932 0.960 . S
C920 H933 0.962 . S
C920 H934 0.960 . S
C921 C918 1.511 . S
C921 H935 0.961 . S
C921 H936 0.961 . S
C921 H937 0.961 . S
C922 C923 1.370 . S
C922 C924 1.363 . S
C922 H938 0.931 . S
C923 C922 1.370 . S
C923 C927 1.408 . S
C924 C922 1.363 . S
C924 C925 1.370 . S
C924 C928 1.524 . S
C925 C917 1.503 . S
C925 C924 1.370 . S
C925 C926 1.403 . S
C926 C925 1.403 . S
C926 C927 1.404 . S
C926 C929 1.539 . S
C927 C923 1.408 . S
C927 C926 1.404 . S
C927 H939 0.930 . S
C928 C924 1.524 . S
C928 H940 0.956 . S
C928 H941 0.961 . S
C928 H942 0.961 . S
C929 C926 1.539 . S
C929 H943 0.958 . S
C929 H944 0.961 . S
C929 H945 0.960 . S
H930 C914 0.931 . S
H931 C919 0.929 . S
H932 C920 0.960 . S
H933 C920 0.962 . S
H934 C920 0.960 . S
H935 C921 0.961 . S
H936 C921 0.961 . S
H937 C921 0.961 . S
H938 C922 0.931 . S
H939 C927 0.930 . S
H940 C928 0.956 . S
H941 C928 0.961 . S
H942 C928 0.961 . S
H943 C929 0.958 . S
H944 C929 0.961 . S
H945 C929 0.960 . S
C946 C947 1.391 . S
C946 C948 1.394 . S
C946 H962 0.931 . S
C947 C946 1.391 . S
C947 C951 1.376 . S
C948 C946 1.394 . S
C948 C949 1.369 . S
C948 C952 1.531 . S
C949 C948 1.369 . S
C949 C950 1.410 . S
C949 C957 1.503 . S
C950 C949 1.410 . S
C950 C951 1.392 . S
C950 C953 1.511 . S
C951 C947 1.376 . S
C951 C950 1.392 . S
C951 H963 0.929 . S
C952 C948 1.531 . S
C952 H964 0.960 1_554 S
C952 H965 0.962 . S
C952 H966 0.960 1_554 S
C953 C950 1.511 . S
C953 H967 0.961 . S
C953 H968 0.961 . S
C953 H969 0.961 . S
C954 C955 1.370 . S
C954 C956 1.363 . S
C954 H970 0.931 . S
C955 C954 1.370 . S
C955 C959 1.408 . S
C956 C954 1.363 . S
C956 C957 1.370 . S
C956 C960 1.524 . S
C957 C949 1.503 . S
C957 C956 1.370 . S
C957 C958 1.403 . S
C958 C957 1.403 . S
C958 C959 1.404 . S
C958 C961 1.539 . S
C959 C955 1.408 . S
C959 C958 1.404 . S
C959 H971 0.930 . S
C960 C956 1.524 . S
C960 H972 0.956 . S
C960 H973 0.961 . S
C960 H974 0.961 . S
C961 C958 1.539 . S
C961 H975 0.958 1_554 S
C961 H976 0.961 . S
C961 H977 0.960 . S
H962 C946 0.931 . S
H963 C951 0.929 . S
H964 C952 0.960 1_556 S
H965 C952 0.962 . S
H966 C952 0.960 1_556 S
H967 C953 0.961 . S
H968 C953 0.961 . S
H969 C953 0.961 . S
H970 C954 0.931 . S
H971 C959 0.930 . S
H972 C960 0.956 . S
H973 C960 0.961 . S
H974 C960 0.961 . S
H975 C961 0.958 1_556 S
H976 C961 0.961 . S
H977 C961 0.960 . S
C978 C979 1.391 . S
C978 C980 1.394 . S
C978 H994 0.931 . S
C979 C978 1.391 . S
C979 C983 1.376 . S
C980 C978 1.394 . S
C980 C981 1.369 . S
C980 C984 1.531 . S
C981 C980 1.369 . S
C981 C982 1.410 . S
C981 C989 1.503 . S
C982 C981 1.410 . S
C982 C983 1.392 . S
C982 C985 1.511 . S
C983 C979 1.376 . S
C983 C982 1.392 . S
C983 H995 0.929 . S
C984 C980 1.531 . S
C984 H996 0.960 . S
C984 H997 0.962 . S
C984 H998 0.960 . S
C985 C982 1.511 . S
C985 H999 0.961 . S
C985 H1000 0.961 . S
C985 H1001 0.961 . S
C986 C987 1.370 . S
C986 C988 1.363 . S
C986 H1002 0.931 . S
C987 C986 1.370 . S
C987 C991 1.408 . S
C988 C986 1.363 . S
C988 C989 1.370 . S
C988 C992 1.524 . S
C989 C981 1.503 . S
C989 C988 1.370 . S
C989 C990 1.403 . S
C990 C989 1.403 . S
C990 C991 1.404 . S
C990 C993 1.539 1_556 S
C991 C987 1.408 . S
C991 C990 1.404 . S
C991 H1003 0.930 1_556 S
C992 C988 1.524 . S
C992 H1004 0.956 . S
C992 H1005 0.961 . S
C992 H1006 0.961 . S
C993 C990 1.539 1_554 S
C993 H1007 0.958 . S
C993 H1008 0.961 . S
C993 H1009 0.960 1_554 S
H994 C978 0.931 . S
H995 C983 0.929 . S
H996 C984 0.960 . S
H997 C984 0.962 . S
H998 C984 0.960 . S
H999 C985 0.961 . S
H1000 C985 0.961 . S
H1001 C985 0.961 . S
H1002 C986 0.931 . S
H1003 C991 0.930 1_554 S
H1004 C992 0.956 . S
H1005 C992 0.961 . S
H1006 C992 0.961 . S
H1007 C993 0.958 . S
H1008 C993 0.961 . S
H1009 C993 0.960 1_556 S
C1010 C1011 1.391 . S
C1010 C1012 1.394 . S
C1010 H1026 0.931 . S
C1011 C1010 1.391 . S
C1011 C1015 1.376 . S
C1012 C1010 1.394 . S
C1012 C1013 1.369 . S
C1012 C1016 1.531 . S
C1013 C1012 1.369 . S
C1013 C1014 1.410 . S
C1013 C1021 1.503 . S
C1014 C1013 1.410 . S
C1014 C1015 1.392 . S
C1014 C1017 1.511 . S
C1015 C1011 1.376 . S
C1015 C1014 1.392 . S
C1015 H1027 0.929 . S
C1016 C1012 1.531 . S
C1016 H1028 0.960 . S
C1016 H1029 0.962 . S
C1016 H1030 0.960 . S
C1017 C1014 1.511 . S
C1017 H1031 0.961 . S
C1017 H1032 0.961 . S
C1017 H1033 0.961 . S
C1018 C1019 1.370 . S
C1018 C1020 1.363 . S
C1018 H1034 0.931 . S
C1019 C1018 1.370 . S
C1019 C1023 1.408 . S
C1020 C1018 1.363 . S
C1020 C1021 1.370 . S
C1020 C1024 1.524 . S
C1021 C1013 1.503 . S
C1021 C1020 1.370 . S
C1021 C1022 1.403 . S
C1022 C1021 1.403 . S
C1022 C1023 1.404 . S
C1022 C1025 1.539 . S
C1023 C1019 1.408 . S
C1023 C1022 1.404 . S
C1023 H1035 0.930 . S
C1024 C1020 1.524 . S
C1024 H1036 0.956 . S
C1024 H1037 0.961 . S
C1024 H1038 0.961 . S
C1025 C1022 1.539 . S
C1025 H1039 0.958 . S
C1025 H1040 0.961 . S
C1025 H1041 0.960 . S
H1026 C1010 0.931 . S
H1027 C1015 0.929 . S
H1028 C1016 0.960 . S
H1029 C1016 0.962 . S
H1030 C1016 0.960 . S
H1031 C1017 0.961 . S
H1032 C1017 0.961 . S
H1033 C1017 0.961 . S
H1034 C1018 0.931 . S
H1035 C1023 0.930 . S
H1036 C1024 0.956 . S
H1037 C1024 0.961 . S
H1038 C1024 0.961 . S
H1039 C1025 0.958 . S
H1040 C1025 0.961 . S
H1041 C1025 0.960 . S
C1042 C1043 1.391 . S
C1042 C1044 1.394 . S
C1042 H1058 0.931 . S
C1043 C1042 1.391 . S
C1043 C1047 1.376 . S
C1044 C1042 1.394 . S
C1044 C1045 1.369 . S
C1044 C1048 1.531 . S
C1045 C1044 1.369 . S
C1045 C1046 1.410 . S
C1045 C1053 1.503 . S
C1046 C1045 1.410 . S
C1046 C1047 1.392 . S
C1046 C1049 1.511 . S
C1047 C1043 1.376 . S
C1047 C1046 1.392 . S
C1047 H1059 0.929 . S
C1048 C1044 1.531 . S
C1048 H1060 0.960 . S
C1048 H1061 0.962 . S
C1048 H1062 0.960 . S
C1049 C1046 1.511 . S
C1049 H1063 0.961 . S
C1049 H1064 0.961 . S
C1049 H1065 0.961 . S
C1050 C1051 1.370 . S
C1050 C1052 1.363 . S
C1050 H1066 0.931 . S
C1051 C1050 1.370 . S
C1051 C1055 1.373 1_556 S
C1052 C1050 1.363 . S
C1052 C1053 1.370 . S
C1052 C1056 1.524 . S
C1053 C1045 1.503 . S
C1053 C1052 1.370 . S
C1053 C1054 1.403 . S
C1054 C1053 1.403 . S
C1054 C1055 1.389 1_556 S
C1054 C1057 1.539 1_556 S
C1055 C1051 1.373 1_554 S
C1055 C1054 1.389 1_554 S
C1055 H1067 0.981 . S
C1056 C1052 1.524 . S
C1056 H1068 0.956 . S
C1056 H1069 0.961 . S
C1056 H1070 0.961 . S
C1057 C1054 1.539 1_554 S
C1057 H1071 0.958 . S
C1057 H1072 0.961 . S
C1057 H1073 0.960 . S
H1058 C1042 0.931 . S
H1059 C1047 0.929 . S
H1060 C1048 0.960 . S
H1061 C1048 0.962 . S
H1062 C1048 0.960 . S
H1063 C1049 0.961 . S
H1064 C1049 0.961 . S
H1065 C1049 0.961 . S
H1066 C1050 0.931 . S
H1067 C1055 0.981 . S
H1068 C1056 0.956 . S
H1069 C1056 0.961 . S
H1070 C1056 0.961 . S
H1071 C1057 0.958 . S
H1072 C1057 0.961 . S
H1073 C1057 0.960 . S
C1074 C1075 1.391 . S
C1074 C1076 1.394 . S
C1074 H1090 0.931 . S
C1075 C1074 1.391 . S
C1075 C1079 1.376 . S
C1076 C1074 1.394 . S
C1076 C1077 1.369 . S
C1076 C1080 1.531 . S
C1077 C1076 1.369 . S
C1077 C1078 1.410 . S
C1077 C1085 1.503 . S
C1078 C1077 1.410 . S
C1078 C1079 1.392 . S
C1078 C1081 1.511 . S
C1079 C1075 1.376 . S
C1079 C1078 1.392 . S
C1079 H1091 0.929 . S
C1080 C1076 1.531 . S
C1080 H1092 0.960 . S
C1080 H1093 0.962 . S
C1080 H1094 0.960 . S
C1081 C1078 1.511 . S
C1081 H1095 0.961 . S
C1081 H1096 0.961 . S
C1081 H1097 0.961 . S
C1082 C1083 1.370 . S
C1082 C1084 1.363 . S
C1082 H1098 0.931 . S
C1083 C1082 1.370 . S
C1083 C1087 1.408 . S
C1084 C1082 1.363 . S
C1084 C1085 1.370 . S
C1084 C1088 1.524 . S
C1085 C1077 1.503 . S
C1085 C1084 1.370 . S
C1085 C1086 1.403 . S
C1086 C1085 1.403 . S
C1086 C1087 1.404 . S
C1086 C1089 1.539 1_556 S
C1087 C1083 1.408 . S
C1087 C1086 1.404 . S
C1087 H1099 0.930 1_556 S
C1088 C1084 1.524 . S
C1088 H1100 0.956 . S
C1088 H1101 0.961 . S
C1088 H1102 0.961 . S
C1089 C1086 1.539 1_554 S
C1089 H1103 0.959 . S
C1089 H1104 0.962 . S
C1089 H1105 0.959 1_554 S
H1090 C1074 0.931 . S
H1091 C1079 0.929 . S
H1092 C1080 0.960 . S
H1093 C1080 0.962 . S
H1094 C1080 0.960 . S
H1095 C1081 0.961 . S
H1096 C1081 0.961 . S
H1097 C1081 0.961 . S
H1098 C1082 0.931 . S
H1099 C1087 0.930 1_554 S
H1100 C1088 0.956 . S
H1101 C1088 0.961 . S
H1102 C1088 0.961 . S
H1103 C1089 0.959 . S
H1104 C1089 0.962 . S
H1105 C1089 0.959 1_556 S
C1106 C1107 1.391 . S
C1106 C1108 1.394 . S
C1106 H1122 0.931 . S
C1107 C1106 1.391 . S
C1107 C1111 1.376 . S
C1108 C1106 1.394 . S
C1108 C1109 1.369 . S
C1108 C1112 1.531 . S
C1109 C1108 1.369 . S
C1109 C1110 1.410 . S
C1109 C1117 1.503 . S
C1110 C1109 1.410 . S
C1110 C1111 1.392 . S
C1110 C1113 1.511 . S
C1111 C1107 1.376 . S
C1111 C1110 1.392 . S
C1111 H1123 0.929 . S
C1112 C1108 1.531 . S
C1112 H1124 0.960 . S
C1112 H1125 0.962 . S
C1112 H1126 0.960 . S
C1113 C1110 1.511 . S
C1113 H1127 0.961 . S
C1113 H1128 0.961 . S
C1113 H1129 0.961 . S
C1114 C1115 1.370 . S
C1114 C1116 1.363 . S
C1114 H1130 0.931 . S
C1115 C1114 1.370 . S
C1115 C1119 1.408 . S
C1116 C1114 1.363 . S
C1116 C1117 1.370 . S
C1116 C1120 1.524 . S
C1117 C1109 1.503 . S
C1117 C1116 1.370 . S
C1117 C1118 1.403 . S
C1118 C1117 1.403 . S
C1118 C1119 1.404 . S
C1118 C1121 1.539 . S
C1119 C1115 1.408 . S
C1119 C1118 1.404 . S
C1119 H1131 0.930 . S
C1120 C1116 1.524 . S
C1120 H1132 0.956 . S
C1120 H1133 0.961 . S
C1120 H1134 0.961 . S
C1121 C1118 1.539 . S
C1121 H1135 0.958 . S
C1121 H1136 0.961 . S
C1121 H1137 0.960 . S
H1122 C1106 0.931 . S
H1123 C1111 0.929 . S
H1124 C1112 0.960 . S
H1125 C1112 0.962 . S
H1126 C1112 0.960 . S
H1127 C1113 0.961 . S
H1128 C1113 0.961 . S
H1129 C1113 0.961 . S
H1130 C1114 0.931 . S
H1131 C1119 0.930 . S
H1132 C1120 0.956 . S
H1133 C1120 0.961 . S
H1134 C1120 0.961 . S
H1135 C1121 0.958 . S
H1136 C1121 0.961 . S
H1137 C1121 0.960 . S
C1138 C1139 1.391 . S
C1138 C1140 1.394 . S
C1138 H1154 0.931 . S
C1139 C1138 1.391 . S
C1139 C1143 1.376 . S
C1140 C1138 1.394 . S
C1140 C1141 1.369 . S
C1140 C1144 1.531 . S
C1141 C1140 1.369 . S
C1141 C1142 1.410 . S
C1141 C1149 1.503 . S
C1142 C1141 1.410 . S
C1142 C1143 1.392 . S
C1142 C1145 1.511 1_556 S
C1143 C1139 1.376 . S
C1143 C1142 1.392 . S
C1143 H1155 0.929 . S
C1144 C1140 1.531 . S
C1144 H1156 0.960 . S
C1144 H1157 0.962 . S
C1144 H1158 0.960 . S
C1145 C1142 1.511 1_554 S
C1145 H1159 0.961 . S
C1145 H1160 0.961 . S
C1145 H1161 0.961 . S
C1146 C1147 1.370 . S
C1146 C1148 1.363 . S
C1146 H1162 0.931 . S
C1147 C1146 1.370 . S
C1147 C1151 1.408 . S
C1148 C1146 1.363 . S
C1148 C1149 1.370 . S
C1148 C1152 1.524 . S
C1149 C1141 1.503 . S
C1149 C1148 1.370 . S
C1149 C1150 1.403 . S
C1150 C1149 1.403 . S
C1150 C1151 1.404 . S
C1150 C1153 1.539 . S
C1151 C1147 1.408 . S
C1151 C1150 1.404 . S
C1151 H1163 0.930 . S
C1152 C1148 1.524 . S
C1152 H1164 0.956 . S
C1152 H1165 0.961 . S
C1152 H1166 0.961 . S
C1153 C1150 1.539 . S
C1153 H1167 0.958 . S
C1153 H1168 0.961 . S
C1153 H1169 0.960 . S
H1154 C1138 0.931 . S
H1155 C1143 0.929 . S
H1156 C1144 0.960 . S
H1157 C1144 0.962 . S
H1158 C1144 0.960 . S
H1159 C1145 0.961 . S
H1160 C1145 0.961 . S
H1161 C1145 0.961 . S
H1162 C1146 0.931 . S
H1163 C1151 0.930 . S
H1164 C1152 0.956 . S
H1165 C1152 0.961 . S
H1166 C1152 0.961 . S
H1167 C1153 0.958 . S
H1168 C1153 0.961 . S
H1169 C1153 0.960 . S
C1170 C1171 1.391 . S
C1170 C1172 1.394 . S
C1170 H1186 0.931 . S
C1171 C1170 1.391 . S
C1171 C1175 1.376 . S
C1172 C1170 1.394 . S
C1172 C1173 1.369 . S
C1172 C1176 1.531 . S
C1173 C1172 1.369 . S
C1173 C1174 1.410 . S
C1173 C1181 1.503 . S
C1174 C1173 1.410 . S
C1174 C1175 1.392 . S
C1174 C1177 1.511 . S
C1175 C1171 1.376 . S
C1175 C1174 1.392 . S
C1175 H1187 0.929 . S
C1176 C1172 1.531 . S
C1176 H1188 0.960 . S
C1176 H1189 0.962 . S
C1176 H1190 0.960 . S
C1177 C1174 1.511 . S
C1177 H1191 0.961 . S
C1177 H1192 0.961 . S
C1177 H1193 0.961 . S
C1178 C1179 1.370 . S
C1178 C1180 1.363 . S
C1178 H1194 0.931 . S
C1179 C1178 1.370 . S
C1179 C1183 1.408 . S
C1180 C1178 1.363 . S
C1180 C1181 1.370 . S
C1180 C1184 1.524 . S
C1181 C1173 1.503 . S
C1181 C1180 1.370 . S
C1181 C1182 1.403 . S
C1182 C1181 1.403 . S
C1182 C1183 1.404 . S
C1182 C1185 1.539 . S
C1183 C1179 1.408 . S
C1183 C1182 1.404 . S
C1183 H1195 0.930 . S
C1184 C1180 1.524 . S
C1184 H1196 0.956 . S
C1184 H1197 0.961 . S
C1184 H1198 0.961 . S
C1185 C1182 1.539 . S
C1185 H1199 0.958 1_554 S
C1185 H1200 0.961 . S
C1185 H1201 0.960 . S
H1186 C1170 0.931 . S
H1187 C1175 0.929 . S
H1188 C1176 0.960 . S
H1189 C1176 0.962 . S
H1190 C1176 0.960 . S
H1191 C1177 0.961 . S
H1192 C1177 0.961 . S
H1193 C1177 0.961 . S
H1194 C1178 0.931 . S
H1195 C1183 0.930 . S
H1196 C1184 0.956 . S
H1197 C1184 0.961 . S
H1198 C1184 0.961 . S
H1199 C1185 0.958 1_556 S
H1200 C1185 0.961 . S
H1201 C1185 0.960 . S
C1202 C1203 1.391 . S
C1202 C1204 1.394 . S
C1202 H1218 0.931 . S
C1203 C1202 1.391 . S
C1203 C1207 1.376 . S
C1204 C1202 1.394 . S
C1204 C1205 1.369 . S
C1204 C1208 1.531 . S
C1205 C1204 1.369 . S
C1205 C1206 1.410 . S
C1205 C1213 1.503 . S
C1206 C1205 1.410 . S
C1206 C1207 1.392 . S
C1206 C1209 1.511 . S
C1207 C1203 1.376 . S
C1207 C1206 1.392 . S
C1207 H1219 0.929 . S
C1208 C1204 1.531 . S
C1208 H1220 0.960 . S
C1208 H1221 0.962 . S
C1208 H1222 0.960 . S
C1209 C1206 1.511 . S
C1209 H1223 0.961 . S
C1209 H1224 0.961 . S
C1209 H1225 0.961 . S
C1210 C1211 1.370 . S
C1210 C1212 1.363 . S
C1210 H1226 0.931 . S
C1211 C1210 1.370 . S
C1211 C1215 1.408 . S
C1212 C1210 1.363 . S
C1212 C1213 1.370 . S
C1212 C1216 1.524 . S
C1213 C1205 1.503 . S
C1213 C1212 1.370 . S
C1213 C1214 1.403 . S
C1214 C1213 1.403 . S
C1214 C1215 1.404 . S
C1214 C1217 1.539 . S
C1215 C1211 1.408 . S
C1215 C1214 1.404 . S
C1215 H1227 0.930 . S
C1216 C1212 1.524 . S
C1216 H1228 0.956 . S
C1216 H1229 0.961 . S
C1216 H1230 0.961 . S
C1217 C1214 1.539 . S
C1217 H1231 0.958 . S
C1217 H1232 0.961 . S
C1217 H1233 0.960 . S
H1218 C1202 0.931 . S
H1219 C1207 0.929 . S
H1220 C1208 0.960 . S
H1221 C1208 0.962 . S
H1222 C1208 0.960 . S
H1223 C1209 0.961 . S
H1224 C1209 0.961 . S
H1225 C1209 0.961 . S
H1226 C1210 0.931 . S
H1227 C1215 0.930 . S
H1228 C1216 0.956 . S
H1229 C1216 0.961 . S
H1230 C1216 0.961 . S
H1231 C1217 0.958 . S
H1232 C1217 0.961 . S
H1233 C1217 0.960 . S
C1234 C1235 1.391 . S
C1234 C1236 1.394 . S
C1234 H1250 0.931 . S
C1235 C1234 1.391 . S
C1235 C1239 1.376 . S
C1236 C1234 1.394 . S
C1236 C1237 1.369 . S
C1236 C1240 1.531 . S
C1237 C1236 1.369 . S
C1237 C1238 1.410 . S
C1237 C1245 1.503 . S
C1238 C1237 1.410 . S
C1238 C1239 1.392 . S
C1238 C1241 1.511 . S
C1239 C1235 1.376 . S
C1239 C1238 1.392 . S
C1239 H1251 0.929 . S
C1240 C1236 1.531 . S
C1240 H1252 0.960 . S
C1240 H1253 0.962 . S
C1240 H1254 0.960 . S
C1241 C1238 1.511 . S
C1241 H1255 0.961 . S
C1241 H1256 0.961 . S
C1241 H1257 0.961 . S
C1242 C1243 1.370 . S
C1242 C1244 1.363 . S
C1242 H1258 0.931 . S
C1243 C1242 1.370 . S
C1243 C1247 1.408 . S
C1244 C1242 1.363 . S
C1244 C1245 1.370 . S
C1244 C1248 1.524 . S
C1245 C1237 1.503 . S
C1245 C1244 1.370 . S
C1245 C1246 1.403 . S
C1246 C1245 1.403 . S
C1246 C1247 1.404 . S
C1246 C1249 1.539 . S
C1247 C1243 1.408 . S
C1247 C1246 1.404 . S
C1247 H1259 0.930 1_554 S
C1248 C1244 1.524 . S
C1248 H1260 0.956 . S
C1248 H1261 0.961 . S
C1248 H1262 0.961 . S
C1249 C1246 1.539 . S
C1249 H1263 0.958 1_554 S
C1249 H1264 0.961 1_554 S
C1249 H1265 0.960 . S
H1250 C1234 0.931 . S
H1251 C1239 0.929 . S
H1252 C1240 0.960 . S
H1253 C1240 0.962 . S
H1254 C1240 0.960 . S
H1255 C1241 0.961 . S
H1256 C1241 0.961 . S
H1257 C1241 0.961 . S
H1258 C1242 0.931 . S
H1259 C1247 0.930 1_556 S
H1260 C1248 0.956 . S
H1261 C1248 0.961 . S
H1262 C1248 0.961 . S
H1263 C1249 0.958 1_556 S
H1264 C1249 0.961 1_556 S
H1265 C1249 0.960 . S
C1266 C1267 1.391 . S
C1266 C1268 1.394 1_655 S
C1266 H1282 0.931 . S
C1267 C1266 1.391 . S
C1267 C1271 1.376 . S
C1268 C1266 1.394 1_455 S
C1268 C1269 1.369 . S
C1268 C1272 1.531 . S
C1269 C1268 1.369 . S
C1269 C1270 1.410 . S
C1269 C1277 1.503 . S
C1270 C1269 1.410 . S
C1270 C1271 1.392 1_455 S
C1270 C1273 1.511 . S
C1271 C1267 1.376 . S
C1271 C1270 1.392 1_655 S
C1271 H1283 0.929 . S
C1272 C1268 1.531 . S
C1272 H1284 0.960 . S
C1272 H1285 0.962 . S
C1272 H1286 0.960 1_455 S
C1273 C1270 1.511 . S
C1273 H1287 0.961 . S
C1273 H1288 0.961 . S
C1273 H1289 0.961 . S
C1274 C1275 1.370 . S
C1274 C1276 1.363 . S
C1274 H1290 0.931 . S
C1275 C1274 1.370 . S
C1275 C1279 1.408 . S
C1276 C1274 1.363 . S
C1276 C1277 1.370 . S
C1276 C1280 1.524 . S
C1277 C1269 1.503 . S
C1277 C1276 1.370 . S
C1277 C1278 1.403 . S
C1278 C1277 1.403 . S
C1278 C1279 1.404 . S
C1278 C1281 1.539 . S
C1279 C1275 1.408 . S
C1279 C1278 1.404 . S
C1279 H1291 0.930 . S
C1280 C1276 1.524 . S
C1280 H1292 0.956 . S
C1280 H1293 0.961 . S
C1280 H1294 0.961 . S
C1281 C1278 1.539 . S
C1281 H1295 0.958 . S
C1281 H1296 0.961 . S
C1281 H1297 0.960 . S
H1282 C1266 0.931 . S
H1283 C1271 0.929 . S
H1284 C1272 0.960 . S
H1285 C1272 0.962 . S
H1286 C1272 0.960 1_655 S
H1287 C1273 0.961 . S
H1288 C1273 0.961 . S
H1289 C1273 0.961 . S
H1290 C1274 0.931 . S
H1291 C1279 0.930 . S
H1292 C1280 0.956 . S
H1293 C1280 0.961 . S
H1294 C1280 0.961 . S
H1295 C1281 0.958 . S
H1296 C1281 0.961 . S
H1297 C1281 0.960 . S
C1298 C1299 1.391 . S
C1298 C1300 1.394 . S
C1298 H1314 0.931 . S
C1299 C1298 1.391 . S
C1299 C1303 1.376 . S
C1300 C1298 1.394 . S
C1300 C1301 1.369 . S
C1300 C1304 1.531 . S
C1301 C1300 1.369 . S
C1301 C1302 1.410 . S
C1301 C1309 1.503 . S
C1302 C1301 1.410 . S
C1302 C1303 1.392 . S
C1302 C1305 1.511 . S
C1303 C1299 1.376 . S
C1303 C1302 1.392 . S
C1303 H1315 0.929 . S
C1304 C1300 1.531 . S
C1304 H1316 0.960 . S
C1304 H1317 0.962 . S
C1304 H1318 0.960 . S
C1305 C1302 1.511 . S
C1305 H1319 0.961 . S
C1305 H1320 0.961 . S
C1305 H1321 0.961 . S
C1306 C1307 1.370 . S
C1306 C1308 1.363 . S
C1306 H1322 0.931 . S
C1307 C1306 1.370 . S
C1307 C1311 1.408 . S
C1308 C1306 1.363 . S
C1308 C1309 1.370 . S
C1308 C1312 1.524 . S
C1309 C1301 1.503 . S
C1309 C1308 1.370 . S
C1309 C1310 1.403 . S
C1310 C1309 1.403 . S
C1310 C1311 1.404 . S
C1310 C1313 1.539 . S
C1311 C1307 1.408 . S
C1311 C1310 1.404 . S
C1311 H1323 0.930 . S
C1312 C1308 1.524 . S
C1312 H1324 0.956 . S
C1312 H1325 0.961 . S
C1312 H1326 0.961 . S
C1313 C1310 1.539 . S
C1313 H1327 0.958 . S
C1313 H1328 0.961 . S
C1313 H1329 0.960 . S
H1314 C1298 0.931 . S
H1315 C1303 0.929 . S
H1316 C1304 0.960 . S
H1317 C1304 0.962 . S
H1318 C1304 0.960 . S
H1319 C1305 0.961 . S
H1320 C1305 0.961 . S
H1321 C1305 0.961 . S
H1322 C1306 0.931 . S
H1323 C1311 0.930 . S
H1324 C1312 0.956 . S
H1325 C1312 0.961 . S
H1326 C1312 0.961 . S
H1327 C1313 0.958 . S
H1328 C1313 0.961 . S
H1329 C1313 0.960 . S
C1330 C1331 1.391 . S
C1330 C1332 1.394 1_545 S
C1330 H1346 0.931 . S
C1331 C1330 1.391 . S
C1331 C1335 1.376 . S
C1332 C1330 1.394 1_565 S
C1332 C1333 1.369 . S
C1332 C1336 1.531 . S
C1333 C1332 1.369 . S
C1333 C1334 1.410 . S
C1333 C1341 1.503 . S
C1334 C1333 1.410 . S
C1334 C1335 1.392 1_565 S
C1334 C1337 1.511 . S
C1335 C1331 1.376 . S
C1335 C1334 1.392 1_545 S
C1335 H1347 0.929 . S
C1336 C1332 1.531 . S
C1336 H1348 0.960 . S
C1336 H1349 0.962 . S
C1336 H1350 0.960 . S
C1337 C1334 1.511 . S
C1337 H1351 0.961 . S
C1337 H1352 0.961 . S
C1337 H1353 0.961 . S
C1338 C1339 1.370 . S
C1338 C1340 1.363 . S
C1338 H1354 0.931 . S
C1339 C1338 1.370 . S
C1339 C1343 1.408 . S
C1340 C1338 1.363 . S
C1340 C1341 1.370 . S
C1340 C1344 1.524 . S
C1341 C1333 1.503 . S
C1341 C1340 1.370 . S
C1341 C1342 1.403 . S
C1342 C1341 1.403 . S
C1342 C1343 1.404 . S
C1342 C1345 1.539 . S
C1343 C1339 1.408 . S
C1343 C1342 1.404 . S
C1343 H1355 0.930 . S
C1344 C1340 1.524 . S
C1344 H1356 0.956 . S
C1344 H1357 0.961 . S
C1344 H1358 0.961 . S
C1345 C1342 1.539 . S
C1345 H1359 0.958 . S
C1345 H1360 0.961 . S
C1345 H1361 0.960 . S
H1346 C1330 0.931 . S
H1347 C1335 0.929 . S
H1348 C1336 0.960 . S
H1349 C1336 0.962 . S
H1350 C1336 0.960 . S
H1351 C1337 0.961 . S
H1352 C1337 0.961 . S
H1353 C1337 0.961 . S
H1354 C1338 0.931 . S
H1355 C1343 0.930 . S
H1356 C1344 0.956 . S
H1357 C1344 0.961 . S
H1358 C1344 0.961 . S
H1359 C1345 0.958 . S
H1360 C1345 0.961 . S
H1361 C1345 0.960 . S
C1362 C1363 1.391 . S
C1362 C1364 1.394 . S
C1362 H1378 0.931 . S
C1363 C1362 1.391 . S
C1363 C1367 1.376 . S
C1364 C1362 1.394 . S
C1364 C1365 1.369 . S
C1364 C1368 1.531 . S
C1365 C1364 1.369 . S
C1365 C1366 1.410 . S
C1365 C1373 1.503 . S
C1366 C1365 1.410 . S
C1366 C1367 1.392 . S
C1366 C1369 1.511 . S
C1367 C1363 1.376 . S
C1367 C1366 1.392 . S
C1367 H1379 0.929 . S
C1368 C1364 1.531 . S
C1368 H1380 0.960 . S
C1368 H1381 0.962 . S
C1368 H1382 0.960 . S
C1369 C1366 1.511 . S
C1369 H1383 0.961 . S
C1369 H1384 0.961 . S
C1369 H1385 0.961 . S
C1370 C1371 1.370 . S
C1370 C1372 1.363 . S
C1370 H1386 0.931 . S
C1371 C1370 1.370 . S
C1371 C1375 1.408 . S
C1372 C1370 1.363 . S
C1372 C1373 1.370 . S
C1372 C1376 1.524 . S
C1373 C1365 1.503 . S
C1373 C1372 1.370 . S
C1373 C1374 1.403 . S
C1374 C1373 1.403 . S
C1374 C1375 1.404 . S
C1374 C1377 1.539 . S
C1375 C1371 1.408 . S
C1375 C1374 1.404 . S
C1375 H1387 0.930 . S
C1376 C1372 1.524 . S
C1376 H1388 0.956 . S
C1376 H1389 0.961 . S
C1376 H1390 0.961 . S
C1377 C1374 1.539 . S
C1377 H1391 0.958 . S
C1377 H1392 0.961 . S
C1377 H1393 0.960 . S
H1378 C1362 0.931 . S
H1379 C1367 0.929 . S
H1380 C1368 0.960 . S
H1381 C1368 0.962 . S
H1382 C1368 0.960 . S
H1383 C1369 0.961 . S
H1384 C1369 0.961 . S
H1385 C1369 0.961 . S
H1386 C1370 0.931 . S
H1387 C1375 0.930 . S
H1388 C1376 0.956 . S
H1389 C1376 0.961 . S
H1390 C1376 0.961 . S
H1391 C1377 0.958 . S
H1392 C1377 0.961 . S
H1393 C1377 0.960 . S
C1394 C1395 1.391 . S
C1394 C1396 1.394 . S
C1394 H1410 0.931 . S
C1395 C1394 1.391 . S
C1395 C1399 1.376 . S
C1396 C1394 1.394 . S
C1396 C1397 1.369 . S
C1396 C1400 1.531 . S
C1397 C1396 1.369 . S
C1397 C1398 1.410 . S
C1397 C1405 1.503 . S
C1398 C1397 1.410 . S
C1398 C1399 1.392 . S
C1398 C1401 1.511 . S
C1399 C1395 1.376 . S
C1399 C1398 1.392 . S
C1399 H1411 0.929 . S
C1400 C1396 1.531 . S
C1400 H1412 0.960 . S
C1400 H1413 0.962 . S
C1400 H1414 0.960 . S
C1401 C1398 1.511 . S
C1401 H1415 0.961 . S
C1401 H1416 0.961 . S
C1401 H1417 0.961 . S
C1402 C1403 1.370 . S
C1402 C1404 1.363 . S
C1402 H1418 0.931 . S
C1403 C1402 1.370 . S
C1403 C1407 1.408 . S
C1404 C1402 1.363 . S
C1404 C1405 1.370 . S
C1404 C1408 1.524 . S
C1405 C1397 1.503 . S
C1405 C1404 1.370 . S
C1405 C1406 1.403 . S
C1406 C1405 1.403 . S
C1406 C1407 1.404 . S
C1406 C1409 1.539 . S
C1407 C1403 1.408 . S
C1407 C1406 1.404 . S
C1407 H1419 0.930 . S
C1408 C1404 1.524 . S
C1408 H1420 0.956 . S
C1408 H1421 0.961 . S
C1408 H1422 0.961 . S
C1409 C1406 1.539 . S
C1409 H1423 0.958 . S
C1409 H1424 0.961 . S
C1409 H1425 0.960 . S
H1410 C1394 0.931 . S
H1411 C1399 0.929 . S
H1412 C1400 0.960 . S
H1413 C1400 0.962 . S
H1414 C1400 0.960 . S
H1415 C1401 0.961 . S
H1416 C1401 0.961 . S
H1417 C1401 0.961 . S
H1418 C1402 0.931 . S
H1419 C1407 0.930 . S
H1420 C1408 0.956 . S
H1421 C1408 0.961 . S
H1422 C1408 0.961 . S
H1423 C1409 0.958 . S
H1424 C1409 0.961 . S
H1425 C1409 0.960 . S
C1426 C1427 1.391 . S
C1426 C1428 1.394 . S
C1426 H1442 0.931 . S
C1427 C1426 1.391 . S
C1427 C1431 1.376 . S
C1428 C1426 1.394 . S
C1428 C1429 1.369 . S
C1428 C1432 1.531 . S
C1429 C1428 1.369 . S
C1429 C1430 1.410 . S
C1429 C1437 1.503 . S
C1430 C1429 1.410 . S
C1430 C1431 1.392 . S
C1430 C1433 1.511 . S
C1431 C1427 1.376 . S
C1431 C1430 1.392 . S
C1431 H1443 0.929 . S
C1432 C1428 1.531 . S
C1432 H1444 0.960 . S
C1432 H1445 0.962 . S
C1432 H1446 0.960 . S
C1433 C1430 1.511 . S
C1433 H1447 0.961 . S
C1433 H1448 0.961 . S
C1433 H1449 0.961 . S
C1434 C1435 1.370 . S
C1434 C1436 1.363 . S
C1434 H1450 0.931 . S
C1435 C1434 1.370 . S
C1435 C1439 1.408 . S
C1436 C1434 1.363 . S
C1436 C1437 1.370 . S
C1436 C1440 1.524 . S
C1437 C1429 1.503 . S
C1437 C1436 1.370 . S
C1437 C1438 1.403 . S
C1438 C1437 1.403 . S
C1438 C1439 1.404 . S
C1438 C1441 1.539 . S
C1439 C1435 1.408 . S
C1439 C1438 1.404 . S
C1439 H1451 0.930 . S
C1440 C1436 1.524 . S
C1440 H1452 0.956 . S
C1440 H1453 0.961 . S
C1440 H1454 0.961 . S
C1441 C1438 1.539 . S
C1441 H1455 0.958 . S
C1441 H1456 0.961 . S
C1441 H1457 0.960 . S
H1442 C1426 0.931 . S
H1443 C1431 0.929 . S
H1444 C1432 0.960 . S
H1445 C1432 0.962 . S
H1446 C1432 0.960 . S
H1447 C1433 0.961 . S
H1448 C1433 0.961 . S
H1449 C1433 0.961 . S
H1450 C1434 0.931 . S
H1451 C1439 0.930 . S
H1452 C1440 0.956 . S
H1453 C1440 0.961 . S
H1454 C1440 0.961 . S
H1455 C1441 0.958 . S
H1456 C1441 0.961 . S
H1457 C1441 0.960 . S
C1458 C1459 1.391 . S
C1458 C1460 1.394 . S
C1458 H1474 0.931 . S
C1459 C1458 1.391 . S
C1459 C1463 1.376 . S
C1460 C1458 1.394 . S
C1460 C1461 1.369 . S
C1460 C1464 1.531 . S
C1461 C1460 1.369 . S
C1461 C1462 1.410 . S
C1461 C1469 1.503 . S
C1462 C1461 1.410 . S
C1462 C1463 1.392 . S
C1462 C1465 1.511 . S
C1463 C1459 1.376 . S
C1463 C1462 1.392 . S
C1463 H1475 0.929 . S
C1464 C1460 1.531 . S
C1464 H1476 0.960 . S
C1464 H1477 0.962 . S
C1464 H1478 0.960 . S
C1465 C1462 1.511 . S
C1465 H1479 0.961 . S
C1465 H1480 0.961 . S
C1465 H1481 0.961 . S
C1466 C1467 1.370 . S
C1466 C1468 1.363 . S
C1466 H1482 0.931 . S
C1467 C1466 1.370 . S
C1467 C1471 1.408 . S
C1468 C1466 1.363 . S
C1468 C1469 1.370 . S
C1468 C1472 1.524 . S
C1469 C1461 1.503 . S
C1469 C1468 1.370 . S
C1469 C1470 1.403 . S
C1470 C1469 1.403 . S
C1470 C1471 1.404 . S
C1470 C1473 1.539 . S
C1471 C1467 1.408 . S
C1471 C1470 1.404 . S
C1471 H1483 0.930 . S
C1472 C1468 1.524 . S
C1472 H1484 0.956 . S
C1472 H1485 0.961 . S
C1472 H1486 0.961 . S
C1473 C1470 1.539 . S
C1473 H1487 0.958 . S
C1473 H1488 0.961 . S
C1473 H1489 0.960 . S
H1474 C1458 0.931 . S
H1475 C1463 0.929 . S
H1476 C1464 0.960 . S
H1477 C1464 0.962 . S
H1478 C1464 0.960 . S
H1479 C1465 0.961 . S
H1480 C1465 0.961 . S
H1481 C1465 0.961 . S
H1482 C1466 0.931 . S
H1483 C1471 0.930 . S
H1484 C1472 0.956 . S
H1485 C1472 0.961 . S
H1486 C1472 0.961 . S
H1487 C1473 0.958 . S
H1488 C1473 0.961 . S
H1489 C1473 0.960 . S
C1490 C1491 1.391 . S
C1490 C1492 1.394 . S
C1490 H1506 0.931 . S
C1491 C1490 1.391 . S
C1491 C1495 1.376 . S
C1492 C1490 1.394 . S
C1492 C1493 1.369 . S
C1492 C1496 1.531 . S
C1493 C1492 1.369 . S
C1493 C1494 1.410 . S
C1493 C1501 1.503 . S
C1494 C1493 1.410 . S
C1494 C1495 1.392 . S
C1494 C1497 1.511 . S
C1495 C1491 1.376 . S
C1495 C1494 1.392 . S
C1495 H1507 0.929 . S
C1496 C1492 1.531 . S
C1496 H1508 0.960 . S
C1496 H1509 0.962 . S
C1496 H1510 0.960 . S
C1497 C1494 1.511 . S
C1497 H1511 0.961 . S
C1497 H1512 0.961 . S
C1497 H1513 0.961 . S
C1498 C1499 1.370 . S
C1498 C1500 1.363 . S
C1498 H1514 0.931 . S
C1499 C1498 1.370 . S
C1499 C1503 1.408 . S
C1500 C1498 1.363 . S
C1500 C1501 1.370 . S
C1500 C1504 1.524 . S
C1501 C1493 1.503 . S
C1501 C1500 1.370 . S
C1501 C1502 1.403 . S
C1502 C1501 1.403 . S
C1502 C1503 1.404 . S
C1502 C1505 1.539 . S
C1503 C1499 1.408 . S
C1503 C1502 1.404 . S
C1503 H1515 0.930 . S
C1504 C1500 1.524 . S
C1504 H1516 0.956 . S
C1504 H1517 0.961 . S
C1504 H1518 0.961 . S
C1505 C1502 1.539 . S
C1505 H1519 0.958 . S
C1505 H1520 0.961 . S
C1505 H1521 0.960 . S
H1506 C1490 0.931 . S
H1507 C1495 0.929 . S
H1508 C1496 0.960 . S
H1509 C1496 0.962 . S
H1510 C1496 0.960 . S
H1511 C1497 0.961 . S
H1512 C1497 0.961 . S
H1513 C1497 0.961 . S
H1514 C1498 0.931 . S
H1515 C1503 0.930 . S
H1516 C1504 0.956 . S
H1517 C1504 0.961 . S
H1518 C1504 0.961 . S
H1519 C1505 0.958 . S
H1520 C1505 0.961 . S
H1521 C1505 0.960 . S
C1522 C1523 1.391 . S
C1522 C1524 1.394 . S
C1522 H1538 0.931 . S
C1523 C1522 1.391 . S
C1523 C1527 1.376 . S
C1524 C1522 1.394 . S
C1524 C1525 1.369 . S
C1524 C1528 1.531 . S
C1525 C1524 1.369 . S
C1525 C1526 1.410 . S
C1525 C1533 1.503 . S
C1526 C1525 1.410 . S
C1526 C1527 1.392 . S
C1526 C1529 1.511 . S
C1527 C1523 1.376 . S
C1527 C1526 1.392 . S
C1527 H1539 0.929 . S
C1528 C1524 1.531 . S
C1528 H1540 0.960 . S
C1528 H1541 0.962 . S
C1528 H1542 0.960 . S
C1529 C1526 1.511 . S
C1529 H1543 0.961 . S
C1529 H1544 0.961 . S
C1529 H1545 0.961 . S
C1530 C1531 1.370 . S
C1530 C1532 1.363 . S
C1530 H1546 0.931 . S
C1531 C1530 1.370 . S
C1531 C1535 1.408 . S
C1532 C1530 1.363 . S
C1532 C1533 1.370 . S
C1532 C1536 1.524 . S
C1533 C1525 1.503 . S
C1533 C1532 1.370 . S
C1533 C1534 1.403 . S
C1534 C1533 1.403 . S
C1534 C1535 1.404 . S
C1534 C1537 1.539 . S
C1535 C1531 1.408 . S
C1535 C1534 1.404 . S
C1535 H1547 0.930 . S
C1536 C1532 1.524 . S
C1536 H1548 0.956 . S
C1536 H1549 0.961 . S
C1536 H1550 0.961 . S
C1537 C1534 1.539 . S
C1537 H1551 0.958 . S
C1537 H1552 0.961 . S
C1537 H1553 0.960 . S
H1538 C1522 0.931 . S
H1539 C1527 0.929 . S
H1540 C1528 0.960 . S
H1541 C1528 0.962 . S
H1542 C1528 0.960 . S
H1543 C1529 0.961 . S
H1544 C1529 0.961 . S
H1545 C1529 0.961 . S
H1546 C1530 0.931 . S
H1547 C1535 0.930 . S
H1548 C1536 0.956 . S
H1549 C1536 0.961 . S
H1550 C1536 0.961 . S
H1551 C1537 0.958 . S
H1552 C1537 0.961 . S
H1553 C1537 0.960 . S
C1554 C1555 1.391 . S
C1554 C1556 1.394 1_545 S
C1554 H1570 0.931 . S
C1555 C1554 1.391 . S
C1555 C1559 1.376 . S
C1556 C1554 1.394 1_565 S
C1556 C1557 1.369 . S
C1556 C1560 1.531 . S
C1557 C1556 1.369 . S
C1557 C1558 1.410 . S
C1557 C1565 1.503 . S
C1558 C1557 1.410 . S
C1558 C1559 1.392 1_565 S
C1558 C1561 1.511 . S
C1559 C1555 1.376 . S
C1559 C1558 1.392 1_545 S
C1559 H1571 0.929 . S
C1560 C1556 1.531 . S
C1560 H1572 0.960 . S
C1560 H1573 0.962 . S
C1560 H1574 0.960 1_565 S
C1561 C1558 1.511 . S
C1561 H1575 0.961 . S
C1561 H1576 0.961 . S
C1561 H1577 0.961 . S
C1562 C1563 1.370 . S
C1562 C1564 1.363 . S
C1562 H1578 0.931 . S
C1563 C1562 1.370 . S
C1563 C1567 1.408 . S
C1564 C1562 1.363 . S
C1564 C1565 1.370 . S
C1564 C1568 1.524 . S
C1565 C1557 1.503 . S
C1565 C1564 1.370 . S
C1565 C1566 1.403 . S
C1566 C1565 1.403 . S
C1566 C1567 1.404 . S
C1566 C1569 1.539 . S
C1567 C1563 1.408 . S
C1567 C1566 1.404 . S
C1567 H1579 0.930 . S
C1568 C1564 1.524 . S
C1568 H1580 0.956 . S
C1568 H1581 0.961 . S
C1568 H1582 0.961 . S
C1569 C1566 1.539 . S
C1569 H1583 0.958 . S
C1569 H1584 0.961 . S
C1569 H1585 0.960 . S
H1570 C1554 0.931 . S
H1571 C1559 0.929 . S
H1572 C1560 0.960 . S
H1573 C1560 0.962 . S
H1574 C1560 0.960 1_545 S
H1575 C1561 0.961 . S
H1576 C1561 0.961 . S
H1577 C1561 0.961 . S
H1578 C1562 0.931 . S
H1579 C1567 0.930 . S
H1580 C1568 0.956 . S
H1581 C1568 0.961 . S
H1582 C1568 0.961 . S
H1583 C1569 0.958 . S
H1584 C1569 0.961 . S
H1585 C1569 0.960 . S
C1586 C1587 1.391 . S
C1586 C1588 1.394 1_655 S
C1586 H1602 0.931 . S
C1587 C1586 1.391 . S
C1587 C1591 1.376 1_655 S
C1588 C1586 1.394 1_455 S
C1588 C1589 1.369 . S
C1588 C1592 1.531 . S
C1589 C1588 1.369 . S
C1589 C1590 1.410 . S
C1589 C1597 1.503 . S
C1590 C1589 1.410 . S
C1590 C1591 1.392 . S
C1590 C1593 1.511 . S
C1591 C1587 1.376 1_455 S
C1591 C1590 1.392 . S
C1591 H1603 0.929 . S
C1592 C1588 1.531 . S
C1592 H1604 0.960 . S
C1592 H1605 0.962 . S
C1592 H1606 0.960 1_455 S
C1593 C1590 1.511 . S
C1593 H1607 0.961 . S
C1593 H1608 0.961 . S
C1593 H1609 0.961 . S
C1594 C1595 1.370 . S
C1594 C1596 1.363 . S
C1594 H1610 0.931 . S
C1595 C1594 1.370 . S
C1595 C1599 1.408 . S
C1596 C1594 1.363 . S
C1596 C1597 1.370 . S
C1596 C1600 1.524 . S
C1597 C1589 1.503 . S
C1597 C1596 1.370 . S
C1597 C1598 1.403 . S
C1598 C1597 1.403 . S
C1598 C1599 1.404 . S
C1598 C1601 1.539 . S
C1599 C1595 1.408 . S
C1599 C1598 1.404 . S
C1599 H1611 0.930 . S
C1600 C1596 1.524 . S
C1600 H1612 0.956 . S
C1600 H1613 0.961 . S
C1600 H1614 0.961 . S
C1601 C1598 1.539 . S
C1601 H1615 0.958 . S
C1601 H1616 0.961 . S
C1601 H1617 0.960 . S
H1602 C1586 0.931 . S
H1603 C1591 0.929 . S
H1604 C1592 0.960 . S
H1605 C1592 0.962 . S
H1606 C1592 0.960 1_655 S
H1607 C1593 0.961 . S
H1608 C1593 0.961 . S
H1609 C1593 0.961 . S
H1610 C1594 0.931 . S
H1611 C1599 0.930 . S
H1612 C1600 0.956 . S
H1613 C1600 0.961 . S
H1614 C1600 0.961 . S
H1615 C1601 0.958 . S
H1616 C1601 0.961 . S
H1617 C1601 0.960 . S
C1618 C1619 1.391 . S
C1618 C1620 1.394 . S
C1618 H1634 0.931 . S
C1619 C1618 1.391 . S
C1619 C1623 1.376 . S
C1620 C1618 1.394 . S
C1620 C1621 1.369 . S
C1620 C1624 1.531 . S
C1621 C1620 1.369 . S
C1621 C1622 1.410 . S
C1621 C1629 1.503 . S
C1622 C1621 1.410 . S
C1622 C1623 1.392 . S
C1622 C1625 1.511 . S
C1623 C1619 1.376 . S
C1623 C1622 1.392 . S
C1623 H1635 0.929 . S
C1624 C1620 1.531 . S
C1624 H1636 0.960 . S
C1624 H1637 0.962 . S
C1624 H1638 0.960 . S
C1625 C1622 1.511 . S
C1625 H1639 0.961 . S
C1625 H1640 0.961 . S
C1625 H1641 0.961 . S
C1626 C1627 1.370 . S
C1626 C1628 1.363 . S
C1626 H1642 0.931 . S
C1627 C1626 1.370 . S
C1627 C1631 1.408 . S
C1628 C1626 1.363 . S
C1628 C1629 1.370 . S
C1628 C1632 1.524 . S
C1629 C1621 1.503 . S
C1629 C1628 1.370 . S
C1629 C1630 1.403 . S
C1630 C1629 1.403 . S
C1630 C1631 1.404 . S
C1630 C1633 1.539 . S
C1631 C1627 1.408 . S
C1631 C1630 1.404 . S
C1631 H1643 0.930 . S
C1632 C1628 1.524 . S
C1632 H1644 0.956 . S
C1632 H1645 0.961 . S
C1632 H1646 0.961 . S
C1633 C1630 1.539 . S
C1633 H1647 0.958 . S
C1633 H1648 0.961 . S
C1633 H1649 0.960 . S
H1634 C1618 0.931 . S
H1635 C1623 0.929 . S
H1636 C1624 0.960 . S
H1637 C1624 0.962 . S
H1638 C1624 0.960 . S
H1639 C1625 0.961 . S
H1640 C1625 0.961 . S
H1641 C1625 0.961 . S
H1642 C1626 0.931 . S
H1643 C1631 0.930 . S
H1644 C1632 0.956 . S
H1645 C1632 0.961 . S
H1646 C1632 0.961 . S
H1647 C1633 0.958 . S
H1648 C1633 0.961 . S
H1649 C1633 0.960 . S
C1650 C1651 1.391 . S
C1650 C1652 1.394 . S
C1650 H1666 0.931 . S
C1651 C1650 1.391 . S
C1651 C1655 1.376 . S
C1652 C1650 1.394 . S
C1652 C1653 1.369 . S
C1652 C1656 1.531 . S
C1653 C1652 1.369 . S
C1653 C1654 1.410 . S
C1653 C1661 1.503 . S
C1654 C1653 1.410 . S
C1654 C1655 1.392 . S
C1654 C1657 1.511 . S
C1655 C1651 1.376 . S
C1655 C1654 1.392 . S
C1655 H1667 0.929 . S
C1656 C1652 1.531 . S
C1656 H1668 0.960 . S
C1656 H1669 0.962 . S
C1656 H1670 0.960 . S
C1657 C1654 1.511 . S
C1657 H1671 0.961 . S
C1657 H1672 0.961 . S
C1657 H1673 0.961 . S
C1658 C1659 1.370 . S
C1658 C1660 1.363 . S
C1658 H1674 0.931 . S
C1659 C1658 1.370 . S
C1659 C1663 1.408 . S
C1660 C1658 1.363 . S
C1660 C1661 1.370 . S
C1660 C1664 1.524 . S
C1661 C1653 1.503 . S
C1661 C1660 1.370 . S
C1661 C1662 1.403 . S
C1662 C1661 1.403 . S
C1662 C1663 1.404 . S
C1662 C1665 1.539 . S
C1663 C1659 1.408 . S
C1663 C1662 1.404 . S
C1663 H1675 0.930 . S
C1664 C1660 1.524 . S
C1664 H1676 0.956 . S
C1664 H1677 0.961 . S
C1664 H1678 0.961 . S
C1665 C1662 1.539 . S
C1665 H1679 0.958 . S
C1665 H1680 0.961 . S
C1665 H1681 0.960 . S
H1666 C1650 0.931 . S
H1667 C1655 0.929 . S
H1668 C1656 0.960 . S
H1669 C1656 0.962 . S
H1670 C1656 0.960 . S
H1671 C1657 0.961 . S
H1672 C1657 0.961 . S
H1673 C1657 0.961 . S
H1674 C1658 0.931 . S
H1675 C1663 0.930 . S
H1676 C1664 0.956 . S
H1677 C1664 0.961 . S
H1678 C1664 0.961 . S
H1679 C1665 0.958 . S
H1680 C1665 0.961 . S
H1681 C1665 0.960 . S
C1682 C1683 1.391 . S
C1682 C1684 1.394 . S
C1682 H1698 0.931 . S
C1683 C1682 1.391 . S
C1683 C1687 1.376 . S
C1684 C1682 1.394 . S
C1684 C1685 1.369 . S
C1684 C1688 1.531 . S
C1685 C1684 1.369 . S
C1685 C1686 1.410 . S
C1685 C1693 1.503 . S
C1686 C1685 1.410 . S
C1686 C1687 1.392 . S
C1686 C1689 1.511 . S
C1687 C1683 1.376 . S
C1687 C1686 1.392 . S
C1687 H1699 0.929 . S
C1688 C1684 1.531 . S
C1688 H1700 0.960 . S
C1688 H1701 0.962 . S
C1688 H1702 0.960 . S
C1689 C1686 1.511 . S
C1689 H1703 0.961 . S
C1689 H1704 0.961 . S
C1689 H1705 0.961 . S
C1690 C1691 1.370 . S
C1690 C1692 1.363 . S
C1690 H1706 0.931 . S
C1691 C1690 1.370 . S
C1691 C1695 1.408 . S
C1692 C1690 1.363 . S
C1692 C1693 1.370 . S
C1692 C1696 1.524 . S
C1693 C1685 1.503 . S
C1693 C1692 1.370 . S
C1693 C1694 1.403 . S
C1694 C1693 1.403 . S
C1694 C1695 1.404 . S
C1694 C1697 1.539 . S
C1695 C1691 1.408 . S
C1695 C1694 1.404 . S
C1695 H1707 0.930 . S
C1696 C1692 1.524 . S
C1696 H1708 0.956 . S
C1696 H1709 0.961 . S
C1696 H1710 0.961 . S
C1697 C1694 1.539 . S
C1697 H1711 0.958 . S
C1697 H1712 0.961 . S
C1697 H1713 0.960 . S
H1698 C1682 0.931 . S
H1699 C1687 0.929 . S
H1700 C1688 0.960 . S
H1701 C1688 0.962 . S
H1702 C1688 0.960 . S
H1703 C1689 0.961 . S
H1704 C1689 0.961 . S
H1705 C1689 0.961 . S
H1706 C1690 0.931 . S
H1707 C1695 0.930 . S
H1708 C1696 0.956 . S
H1709 C1696 0.961 . S
H1710 C1696 0.961 . S
H1711 C1697 0.958 . S
H1712 C1697 0.961 . S
H1713 C1697 0.960 . S
C1714 C1715 1.391 . S
C1714 C1716 1.394 . S
C1714 H1730 0.931 . S
C1715 C1714 1.391 . S
C1715 C1719 1.376 . S
C1716 C1714 1.394 . S
C1716 C1717 1.369 . S
C1716 C1720 1.531 . S
C1717 C1716 1.369 . S
C1717 C1718 1.410 . S
C1717 C1725 1.503 . S
C1718 C1717 1.410 . S
C1718 C1719 1.392 . S
C1718 C1721 1.511 . S
C1719 C1715 1.376 . S
C1719 C1718 1.392 . S
C1719 H1731 0.929 . S
C1720 C1716 1.531 . S
C1720 H1732 0.960 . S
C1720 H1733 0.962 . S
C1720 H1734 0.960 . S
C1721 C1718 1.511 . S
C1721 H1735 0.961 . S
C1721 H1736 0.961 . S
C1721 H1737 0.961 . S
C1722 C1723 1.370 . S
C1722 C1724 1.363 . S
C1722 H1738 0.931 . S
C1723 C1722 1.370 . S
C1723 C1727 1.408 . S
C1724 C1722 1.363 . S
C1724 C1725 1.370 . S
C1724 C1728 1.524 . S
C1725 C1717 1.503 . S
C1725 C1724 1.370 . S
C1725 C1726 1.403 . S
C1726 C1725 1.403 . S
C1726 C1727 1.404 . S
C1726 C1729 1.539 . S
C1727 C1723 1.408 . S
C1727 C1726 1.404 . S
C1727 H1739 0.930 . S
C1728 C1724 1.524 . S
C1728 H1740 0.956 . S
C1728 H1741 0.961 . S
C1728 H1742 0.961 . S
C1729 C1726 1.539 . S
C1729 H1743 0.958 . S
C1729 H1744 0.961 . S
C1729 H1745 0.960 . S
H1730 C1714 0.931 . S
H1731 C1719 0.929 . S
H1732 C1720 0.960 . S
H1733 C1720 0.962 . S
H1734 C1720 0.960 . S
H1735 C1721 0.961 . S
H1736 C1721 0.961 . S
H1737 C1721 0.961 . S
H1738 C1722 0.931 . S
H1739 C1727 0.930 . S
H1740 C1728 0.956 . S
H1741 C1728 0.961 . S
H1742 C1728 0.961 . S
H1743 C1729 0.958 . S
H1744 C1729 0.961 . S
H1745 C1729 0.960 . S
C1746 C1747 1.391 . S
C1746 C1748 1.394 1_565 S
C1746 H1762 0.931 . S
C1747 C1746 1.391 . S
C1747 C1751 1.376 . S
C1748 C1746 1.394 1_545 S
C1748 C1749 1.369 . S
C1748 C1752 1.531 . S
C1749 C1748 1.369 . S
C1749 C1750 1.410 . S
C1749 C1757 1.503 . S
C1750 C1749 1.410 . S
C1750 C1751 1.392 1_545 S
C1750 C1753 1.511 . S
C1751 C1747 1.376 . S
C1751 C1750 1.392 1_565 S
C1751 H1763 0.929 . S
C1752 C1748 1.531 . S
C1752 H1764 0.960 . S
C1752 H1765 0.962 . S
C1752 H1766 0.960 . S
C1753 C1750 1.511 . S
C1753 H1767 0.961 . S
C1753 H1768 0.961 . S
C1753 H1769 0.961 . S
C1754 C1755 1.370 . S
C1754 C1756 1.363 . S
C1754 H1770 0.931 . S
C1755 C1754 1.370 . S
C1755 C1759 1.408 . S
C1756 C1754 1.363 . S
C1756 C1757 1.370 . S
C1756 C1760 1.524 . S
C1757 C1749 1.503 . S
C1757 C1756 1.370 . S
C1757 C1758 1.403 . S
C1758 C1757 1.403 . S
C1758 C1759 1.404 . S
C1758 C1761 1.539 . S
C1759 C1755 1.408 . S
C1759 C1758 1.404 . S
C1759 H1771 0.930 . S
C1760 C1756 1.524 . S
C1760 H1772 0.956 . S
C1760 H1773 0.961 . S
C1760 H1774 0.961 . S
C1761 C1758 1.539 . S
C1761 H1775 0.958 . S
C1761 H1776 0.961 . S
C1761 H1777 0.960 . S
H1762 C1746 0.931 . S
H1763 C1751 0.929 . S
H1764 C1752 0.960 . S
H1765 C1752 0.962 . S
H1766 C1752 0.960 . S
H1767 C1753 0.961 . S
H1768 C1753 0.961 . S
H1769 C1753 0.961 . S
H1770 C1754 0.931 . S
H1771 C1759 0.930 . S
H1772 C1760 0.956 . S
H1773 C1760 0.961 . S
H1774 C1760 0.961 . S
H1775 C1761 0.958 . S
H1776 C1761 0.961 . S
H1777 C1761 0.960 . S
C1778 C1779 1.398 . S
C1778 C1780 1.387 1_455 S
C1778 H1794 0.930 . S
C1779 C1778 1.398 . S
C1779 C1783 1.376 . S
C1780 C1778 1.387 1_655 S
C1780 C1781 1.369 . S
C1780 C1784 1.531 . S
C1781 C1780 1.369 . S
C1781 C1782 1.410 . S
C1781 C1789 1.503 . S
C1782 C1781 1.410 . S
C1782 C1783 1.392 1_655 S
C1782 C1785 1.511 . S
C1783 C1779 1.376 . S
C1783 C1782 1.392 1_455 S
C1783 H1795 0.929 . S
C1784 C1780 1.531 . S
C1784 H1796 0.960 . S
C1784 H1797 0.962 . S
C1784 H1798 0.960 . S
C1785 C1782 1.511 . S
C1785 H1799 0.961 1_655 S
C1785 H1800 0.961 . S
C1785 H1801 0.961 . S
C1786 C1787 1.370 . S
C1786 C1788 1.363 . S
C1786 H1802 0.931 . S
C1787 C1786 1.370 . S
C1787 C1791 1.408 . S
C1788 C1786 1.363 . S
C1788 C1789 1.370 . S
C1788 C1792 1.524 . S
C1789 C1781 1.503 . S
C1789 C1788 1.370 . S
C1789 C1790 1.403 . S
C1790 C1789 1.403 . S
C1790 C1791 1.404 . S
C1790 C1793 1.539 . S
C1791 C1787 1.408 . S
C1791 C1790 1.404 . S
C1791 H1803 0.930 . S
C1792 C1788 1.524 . S
C1792 H1804 0.956 . S
C1792 H1805 0.961 . S
C1792 H1806 0.961 . S
C1793 C1790 1.539 . S
C1793 H1807 0.958 . S
C1793 H1808 0.961 . S
C1793 H1809 0.960 . S
H1794 C1778 0.930 . S
H1795 C1783 0.929 . S
H1796 C1784 0.960 . S
H1797 C1784 0.962 . S
H1798 C1784 0.960 . S
H1799 C1785 0.961 1_455 S
H1800 C1785 0.961 . S
H1801 C1785 0.961 . S
H1802 C1786 0.931 . S
H1803 C1791 0.930 . S
H1804 C1792 0.956 . S
H1805 C1792 0.961 . S
H1806 C1792 0.961 . S
H1807 C1793 0.958 . S
H1808 C1793 0.961 . S
H1809 C1793 0.960 . S
C1810 C1811 1.391 . S
C1810 C1812 1.394 . S
C1810 H1826 0.931 . S
C1811 C1810 1.391 . S
C1811 C1815 1.376 . S
C1812 C1810 1.394 . S
C1812 C1813 1.369 . S
C1812 C1816 1.531 . S
C1813 C1812 1.369 . S
C1813 C1814 1.410 . S
C1813 C1821 1.503 . S
C1814 C1813 1.410 . S
C1814 C1815 1.392 . S
C1814 C1817 1.511 . S
C1815 C1811 1.376 . S
C1815 C1814 1.392 . S
C1815 H1827 0.929 . S
C1816 C1812 1.531 . S
C1816 H1828 0.960 . S
C1816 H1829 0.962 . S
C1816 H1830 0.960 . S
C1817 C1814 1.511 . S
C1817 H1831 0.961 . S
C1817 H1832 0.961 . S
C1817 H1833 0.961 . S
C1818 C1819 1.370 . S
C1818 C1820 1.363 . S
C1818 H1834 0.931 . S
C1819 C1818 1.370 . S
C1819 C1823 1.408 . S
C1820 C1818 1.363 . S
C1820 C1821 1.370 . S
C1820 C1824 1.524 . S
C1821 C1813 1.503 . S
C1821 C1820 1.370 . S
C1821 C1822 1.403 . S
C1822 C1821 1.403 . S
C1822 C1823 1.404 . S
C1822 C1825 1.539 . S
C1823 C1819 1.408 . S
C1823 C1822 1.404 . S
C1823 H1835 0.930 . S
C1824 C1820 1.524 . S
C1824 H1836 0.956 . S
C1824 H1837 0.961 . S
C1824 H1838 0.961 . S
C1825 C1822 1.539 . S
C1825 H1839 0.958 . S
C1825 H1840 0.961 . S
C1825 H1841 0.960 . S
H1826 C1810 0.931 . S
H1827 C1815 0.929 . S
H1828 C1816 0.960 . S
H1829 C1816 0.962 . S
H1830 C1816 0.960 . S
H1831 C1817 0.961 . S
H1832 C1817 0.961 . S
H1833 C1817 0.961 . S
H1834 C1818 0.931 . S
H1835 C1823 0.930 . S
H1836 C1824 0.956 . S
H1837 C1824 0.961 . S
H1838 C1824 0.961 . S
H1839 C1825 0.958 . S
H1840 C1825 0.961 . S
H1841 C1825 0.960 . S
C1842 C1843 1.391 . S
C1842 C1844 1.394 . S
C1842 H1858 0.931 . S
C1843 C1842 1.391 . S
C1843 C1847 1.376 . S
C1844 C1842 1.394 . S
C1844 C1845 1.369 1_455 S
C1844 C1848 1.531 1_455 S
C1845 C1844 1.369 1_655 S
C1845 C1846 1.410 . S
C1845 C1853 1.503 . S
C1846 C1845 1.410 . S
C1846 C1847 1.392 1_655 S
C1846 C1849 1.511 . S
C1847 C1843 1.376 . S
C1847 C1846 1.392 1_455 S
C1847 H1859 0.929 . S
C1848 C1844 1.531 1_655 S
C1848 H1860 0.960 . S
C1848 H1861 0.962 . S
C1848 H1862 0.960 1_655 S
C1849 C1846 1.511 . S
C1849 H1863 0.961 . S
C1849 H1864 0.961 . S
C1849 H1865 0.961 . S
C1850 C1851 1.370 . S
C1850 C1852 1.363 . S
C1850 H1866 0.931 . S
C1851 C1850 1.370 . S
C1851 C1855 1.408 . S
C1852 C1850 1.363 . S
C1852 C1853 1.370 . S
C1852 C1856 1.524 . S
C1853 C1845 1.503 . S
C1853 C1852 1.370 . S
C1853 C1854 1.403 . S
C1854 C1853 1.403 . S
C1854 C1855 1.404 . S
C1854 C1857 1.539 . S
C1855 C1851 1.408 . S
C1855 C1854 1.404 . S
C1855 H1867 0.930 . S
C1856 C1852 1.524 . S
C1856 H1868 0.956 . S
C1856 H1869 0.961 . S
C1856 H1870 0.961 . S
C1857 C1854 1.539 . S
C1857 H1871 0.958 . S
C1857 H1872 0.961 . S
C1857 H1873 0.960 . S
H1858 C1842 0.931 . S
H1859 C1847 0.929 . S
H1860 C1848 0.960 . S
H1861 C1848 0.962 . S
H1862 C1848 0.960 1_455 S
H1863 C1849 0.961 . S
H1864 C1849 0.961 . S
H1865 C1849 0.961 . S
H1866 C1850 0.931 . S
H1867 C1855 0.930 . S
H1868 C1856 0.956 . S
H1869 C1856 0.961 . S
H1870 C1856 0.961 . S
H1871 C1857 0.958 . S
H1872 C1857 0.961 . S
H1873 C1857 0.960 . S
C1874 C1875 1.391 . S
C1874 C1876 1.394 . S
C1874 H1890 0.931 . S
C1875 C1874 1.391 . S
C1875 C1879 1.376 . S
C1876 C1874 1.394 . S
C1876 C1877 1.369 . S
C1876 C1880 1.531 . S
C1877 C1876 1.369 . S
C1877 C1878 1.410 . S
C1877 C1885 1.503 . S
C1878 C1877 1.410 . S
C1878 C1879 1.392 . S
C1878 C1881 1.511 . S
C1879 C1875 1.376 . S
C1879 C1878 1.392 . S
C1879 H1891 0.929 . S
C1880 C1876 1.531 . S
C1880 H1892 0.960 . S
C1880 H1893 0.962 . S
C1880 H1894 0.960 . S
C1881 C1878 1.511 . S
C1881 H1895 0.961 . S
C1881 H1896 0.961 . S
C1881 H1897 0.961 . S
C1882 C1883 1.370 . S
C1882 C1884 1.363 . S
C1882 H1898 0.931 . S
C1883 C1882 1.370 . S
C1883 C1887 1.408 . S
C1884 C1882 1.363 . S
C1884 C1885 1.370 . S
C1884 C1888 1.524 . S
C1885 C1877 1.503 . S
C1885 C1884 1.370 . S
C1885 C1886 1.403 . S
C1886 C1885 1.403 . S
C1886 C1887 1.404 . S
C1886 C1889 1.539 . S
C1887 C1883 1.408 . S
C1887 C1886 1.404 . S
C1887 H1899 0.930 . S
C1888 C1884 1.524 . S
C1888 H1900 0.956 . S
C1888 H1901 0.961 . S
C1888 H1902 0.961 . S
C1889 C1886 1.539 . S
C1889 H1903 0.958 . S
C1889 H1904 0.961 . S
C1889 H1905 0.960 . S
H1890 C1874 0.931 . S
H1891 C1879 0.929 . S
H1892 C1880 0.960 . S
H1893 C1880 0.962 . S
H1894 C1880 0.960 . S
H1895 C1881 0.961 . S
H1896 C1881 0.961 . S
H1897 C1881 0.961 . S
H1898 C1882 0.931 . S
H1899 C1887 0.930 . S
H1900 C1888 0.956 . S
H1901 C1888 0.961 . S
H1902 C1888 0.961 . S
H1903 C1889 0.958 . S
H1904 C1889 0.961 . S
H1905 C1889 0.960 . S
C1906 C1907 1.391 . S
C1906 C1908 1.394 1_565 S
C1906 H1922 0.931 . S
C1907 C1906 1.391 . S
C1907 C1911 1.376 . S
C1908 C1906 1.394 1_545 S
C1908 C1909 1.369 . S
C1908 C1912 1.531 . S
C1909 C1908 1.369 . S
C1909 C1910 1.410 . S
C1909 C1917 1.503 . S
C1910 C1909 1.410 . S
C1910 C1911 1.392 1_545 S
C1910 C1913 1.511 . S
C1911 C1907 1.376 . S
C1911 C1910 1.392 1_565 S
C1911 H1923 0.929 . S
C1912 C1908 1.531 . S
C1912 H1924 0.960 . S
C1912 H1925 0.962 . S
C1912 H1926 0.960 . S
C1913 C1910 1.511 . S
C1913 H1927 0.961 . S
C1913 H1928 0.961 . S
C1913 H1929 0.961 . S
C1914 C1915 1.370 . S
C1914 C1916 1.363 . S
C1914 H1930 0.931 . S
C1915 C1914 1.370 . S
C1915 C1919 1.408 . S
C1916 C1914 1.363 . S
C1916 C1917 1.370 . S
C1916 C1920 1.524 . S
C1917 C1909 1.503 . S
C1917 C1916 1.370 . S
C1917 C1918 1.403 . S
C1918 C1917 1.403 . S
C1918 C1919 1.404 . S
C1918 C1921 1.539 . S
C1919 C1915 1.408 . S
C1919 C1918 1.404 . S
C1919 H1931 0.930 . S
C1920 C1916 1.524 . S
C1920 H1932 0.956 . S
C1920 H1933 0.961 . S
C1920 H1934 0.961 . S
C1921 C1918 1.539 . S
C1921 H1935 0.958 . S
C1921 H1936 0.961 . S
C1921 H1937 0.960 . S
H1922 C1906 0.931 . S
H1923 C1911 0.929 . S
H1924 C1912 0.960 . S
H1925 C1912 0.962 . S
H1926 C1912 0.960 . S
H1927 C1913 0.961 . S
H1928 C1913 0.961 . S
H1929 C1913 0.961 . S
H1930 C1914 0.931 . S
H1931 C1919 0.930 . S
H1932 C1920 0.956 . S
H1933 C1920 0.961 . S
H1934 C1920 0.961 . S
H1935 C1921 0.958 . S
H1936 C1921 0.961 . S
H1937 C1921 0.960 . S
C1938 C1939 1.391 . S
C1938 C1940 1.394 . S
C1938 H1954 0.931 . S
C1939 C1938 1.391 . S
C1939 C1943 1.376 . S
C1940 C1938 1.394 . S
C1940 C1941 1.369 . S
C1940 C1944 1.531 . S
C1941 C1940 1.369 . S
C1941 C1942 1.410 . S
C1941 C1949 1.503 . S
C1942 C1941 1.410 . S
C1942 C1943 1.392 . S
C1942 C1945 1.511 . S
C1943 C1939 1.376 . S
C1943 C1942 1.392 . S
C1943 H1955 0.929 . S
C1944 C1940 1.531 . S
C1944 H1956 0.960 . S
C1944 H1957 0.962 . S
C1944 H1958 0.960 . S
C1945 C1942 1.511 . S
C1945 H1959 0.961 . S
C1945 H1960 0.961 . S
C1945 H1961 0.961 . S
C1946 C1947 1.370 . S
C1946 C1948 1.363 . S
C1946 H1962 0.931 . S
C1947 C1946 1.370 . S
C1947 C1951 1.408 . S
C1948 C1946 1.363 . S
C1948 C1949 1.370 . S
C1948 C1952 1.524 . S
C1949 C1941 1.503 . S
C1949 C1948 1.370 . S
C1949 C1950 1.403 . S
C1950 C1949 1.403 . S
C1950 C1951 1.404 . S
C1950 C1953 1.539 . S
C1951 C1947 1.408 . S
C1951 C1950 1.404 . S
C1951 H1963 0.930 . S
C1952 C1948 1.524 . S
C1952 H1964 0.956 . S
C1952 H1965 0.961 . S
C1952 H1966 0.961 . S
C1953 C1950 1.539 . S
C1953 H1967 0.958 . S
C1953 H1968 0.961 . S
C1953 H1969 0.960 . S
H1954 C1938 0.931 . S
H1955 C1943 0.929 . S
H1956 C1944 0.960 . S
H1957 C1944 0.962 . S
H1958 C1944 0.960 . S
H1959 C1945 0.961 . S
H1960 C1945 0.961 . S
H1961 C1945 0.961 . S
H1962 C1946 0.931 . S
H1963 C1951 0.930 . S
H1964 C1952 0.956 . S
H1965 C1952 0.961 . S
H1966 C1952 0.961 . S
H1967 C1953 0.958 . S
H1968 C1953 0.961 . S
H1969 C1953 0.960 . S
C1970 C1971 1.391 . S
C1970 C1972 1.394 . S
C1970 H1986 0.931 . S
C1971 C1970 1.391 . S
C1971 C1975 1.376 . S
C1972 C1970 1.394 . S
C1972 C1973 1.369 . S
C1972 C1976 1.531 . S
C1973 C1972 1.369 . S
C1973 C1974 1.410 . S
C1973 C1981 1.503 . S
C1974 C1973 1.410 . S
C1974 C1975 1.392 . S
C1974 C1977 1.511 . S
C1975 C1971 1.376 . S
C1975 C1974 1.392 . S
C1975 H1987 0.929 . S
C1976 C1972 1.531 . S
C1976 H1988 0.960 . S
C1976 H1989 0.962 . S
C1976 H1990 0.960 . S
C1977 C1974 1.511 . S
C1977 H1991 0.961 . S
C1977 H1992 0.961 . S
C1977 H1993 0.961 . S
C1978 C1979 1.370 . S
C1978 C1980 1.363 . S
C1978 H1994 0.931 . S
C1979 C1978 1.370 . S
C1979 C1983 1.408 . S
C1980 C1978 1.363 . S
C1980 C1981 1.370 . S
C1980 C1984 1.524 . S
C1981 C1973 1.503 . S
C1981 C1980 1.370 . S
C1981 C1982 1.403 . S
C1982 C1981 1.403 . S
C1982 C1983 1.404 . S
C1982 C1985 1.539 . S
C1983 C1979 1.408 . S
C1983 C1982 1.404 . S
C1983 H1995 0.930 . S
C1984 C1980 1.524 . S
C1984 H1996 0.956 . S
C1984 H1997 0.961 . S
C1984 H1998 0.961 . S
C1985 C1982 1.539 . S
C1985 H1999 0.958 . S
C1985 H2000 0.961 . S
C1985 H2001 0.960 . S
H1986 C1970 0.931 . S
H1987 C1975 0.929 . S
H1988 C1976 0.960 . S
H1989 C1976 0.962 . S
H1990 C1976 0.960 . S
H1991 C1977 0.961 . S
H1992 C1977 0.961 . S
H1993 C1977 0.961 . S
H1994 C1978 0.931 . S
H1995 C1983 0.930 . S
H1996 C1984 0.956 . S
H1997 C1984 0.961 . S
H1998 C1984 0.961 . S
H1999 C1985 0.958 . S
H2000 C1985 0.961 . S
H2001 C1985 0.960 . S
C2002 C2003 1.391 . S
C2002 C2004 1.394 . S
C2002 H2018 0.931 . S
C2003 C2002 1.391 . S
C2003 C2007 1.376 . S
C2004 C2002 1.394 . S
C2004 C2005 1.369 . S
C2004 C2008 1.531 . S
C2005 C2004 1.369 . S
C2005 C2006 1.410 . S
C2005 C2013 1.503 . S
C2006 C2005 1.410 . S
C2006 C2007 1.392 . S
C2006 C2009 1.511 . S
C2007 C2003 1.376 . S
C2007 C2006 1.392 . S
C2007 H2019 0.929 . S
C2008 C2004 1.531 . S
C2008 H2020 0.960 . S
C2008 H2021 0.962 . S
C2008 H2022 0.960 . S
C2009 C2006 1.511 . S
C2009 H2023 0.961 . S
C2009 H2024 0.961 . S
C2009 H2025 0.961 . S
C2010 C2011 1.370 . S
C2010 C2012 1.363 . S
C2010 H2026 0.931 . S
C2011 C2010 1.370 . S
C2011 C2015 1.408 . S
C2012 C2010 1.363 . S
C2012 C2013 1.370 . S
C2012 C2016 1.524 . S
C2013 C2005 1.503 . S
C2013 C2012 1.370 . S
C2013 C2014 1.403 . S
C2014 C2013 1.403 . S
C2014 C2015 1.404 . S
C2014 C2017 1.539 . S
C2015 C2011 1.408 . S
C2015 C2014 1.404 . S
C2015 H2027 0.930 . S
C2016 C2012 1.524 . S
C2016 H2028 0.956 . S
C2016 H2029 0.961 . S
C2016 H2030 0.961 . S
C2017 C2014 1.539 . S
C2017 H2031 0.958 . S
C2017 H2032 0.961 . S
C2017 H2033 0.960 . S
H2018 C2002 0.931 . S
H2019 C2007 0.929 . S
H2020 C2008 0.960 . S
H2021 C2008 0.962 . S
H2022 C2008 0.960 . S
H2023 C2009 0.961 . S
H2024 C2009 0.961 . S
H2025 C2009 0.961 . S
H2026 C2010 0.931 . S
H2027 C2015 0.930 . S
H2028 C2016 0.956 . S
H2029 C2016 0.961 . S
H2030 C2016 0.961 . S
H2031 C2017 0.958 . S
H2032 C2017 0.961 . S
H2033 C2017 0.960 . S
C2034 C2035 1.391 . S
C2034 C2036 1.394 . S
C2034 H2050 0.931 . S
C2035 C2034 1.391 . S
C2035 C2039 1.376 . S
C2036 C2034 1.394 . S
C2036 C2037 1.369 . S
C2036 C2040 1.531 1_565 S
C2037 C2036 1.369 . S
C2037 C2038 1.410 . S
C2037 C2045 1.503 . S
C2038 C2037 1.410 . S
C2038 C2039 1.392 . S
C2038 C2041 1.511 . S
C2039 C2035 1.376 . S
C2039 C2038 1.392 . S
C2039 H2051 0.929 . S
C2040 C2036 1.531 1_545 S
C2040 H2052 0.960 . S
C2040 H2053 0.962 1_545 S
C2040 H2054 0.960 . S
C2041 C2038 1.511 . S
C2041 H2055 0.961 . S
C2041 H2056 0.961 . S
C2041 H2057 0.961 . S
C2042 C2043 1.370 . S
C2042 C2044 1.363 . S
C2042 H2058 0.931 . S
C2043 C2042 1.370 . S
C2043 C2047 1.408 1_565 S
C2044 C2042 1.363 . S
C2044 C2045 1.370 . S
C2044 C2048 1.524 . S
C2045 C2037 1.503 . S
C2045 C2044 1.370 . S
C2045 C2046 1.403 1_565 S
C2046 C2045 1.403 1_545 S
C2046 C2047 1.404 . S
C2046 C2049 1.539 . S
C2047 C2043 1.408 1_545 S
C2047 C2046 1.404 . S
C2047 H2059 0.930 . S
C2048 C2044 1.524 . S
C2048 H2060 0.956 . S
C2048 H2061 0.961 . S
C2048 H2062 0.961 . S
C2049 C2046 1.539 . S
C2049 H2063 0.958 . S
C2049 H2064 0.961 . S
C2049 H2065 0.960 . S
H2050 C2034 0.931 . S
H2051 C2039 0.929 . S
H2052 C2040 0.960 . S
H2053 C2040 0.962 1_565 S
H2054 C2040 0.960 . S
H2055 C2041 0.961 . S
H2056 C2041 0.961 . S
H2057 C2041 0.961 . S
H2058 C2042 0.931 . S
H2059 C2047 0.930 . S
H2060 C2048 0.956 . S
H2061 C2048 0.961 . S
H2062 C2048 0.961 . S
H2063 C2049 0.958 . S
H2064 C2049 0.961 . S
H2065 C2049 0.960 . S
C2066 C2067 1.391 . S
C2066 C2068 1.394 . S
C2066 H2082 0.931 . S
C2067 C2066 1.391 . S
C2067 C2071 1.376 . S
C2068 C2066 1.394 . S
C2068 C2069 1.369 . S
C2068 C2072 1.531 . S
C2069 C2068 1.369 . S
C2069 C2070 1.410 . S
C2069 C2077 1.503 . S
C2070 C2069 1.410 . S
C2070 C2071 1.392 . S
C2070 C2073 1.511 . S
C2071 C2067 1.376 . S
C2071 C2070 1.392 . S
C2071 H2083 0.929 . S
C2072 C2068 1.531 . S
C2072 H2084 0.960 . S
C2072 H2085 0.962 . S
C2072 H2086 0.960 . S
C2073 C2070 1.511 . S
C2073 H2087 0.961 . S
C2073 H2088 0.961 . S
C2073 H2089 0.961 . S
C2074 C2075 1.370 1_655 S
C2074 C2076 1.366 . S
C2074 H2090 0.931 . S
C2075 C2074 1.370 1_455 S
C2075 C2079 1.408 . S
C2076 C2074 1.366 . S
C2076 C2077 1.352 1_655 S
C2076 C2080 1.541 . S
C2077 C2069 1.503 . S
C2077 C2076 1.352 1_455 S
C2077 C2078 1.403 . S
C2078 C2077 1.403 . S
C2078 C2079 1.404 . S
C2078 C2081 1.539 . S
C2079 C2075 1.408 . S
C2079 C2078 1.404 . S
C2079 H2091 0.930 . S
C2080 C2076 1.541 . S
C2080 H2092 0.956 . S
C2080 H2093 0.961 . S
C2080 H2094 0.961 . S
C2081 C2078 1.539 . S
C2081 H2095 0.958 . S
C2081 H2096 0.961 . S
C2081 H2097 0.960 . S
H2082 C2066 0.931 . S
H2083 C2071 0.929 . S
H2084 C2072 0.960 . S
H2085 C2072 0.962 . S
H2086 C2072 0.960 . S
H2087 C2073 0.961 . S
H2088 C2073 0.961 . S
H2089 C2073 0.961 . S
H2090 C2074 0.931 . S
H2091 C2079 0.930 . S
H2092 C2080 0.956 . S
H2093 C2080 0.961 . S
H2094 C2080 0.961 . S
H2095 C2081 0.958 . S
H2096 C2081 0.961 . S
H2097 C2081 0.960 . S
C2098 C2099 1.391 . S
C2098 C2100 1.394 . S
C2098 H2114 0.931 . S
C2099 C2098 1.391 . S
C2099 C2103 1.376 . S
C2100 C2098 1.394 . S
C2100 C2101 1.369 . S
C2100 C2104 1.531 . S
C2101 C2100 1.369 . S
C2101 C2102 1.410 . S
C2101 C2109 1.503 . S
C2102 C2101 1.410 . S
C2102 C2103 1.392 . S
C2102 C2105 1.511 . S
C2103 C2099 1.376 . S
C2103 C2102 1.392 . S
C2103 H2115 0.929 . S
C2104 C2100 1.531 . S
C2104 H2116 0.960 . S
C2104 H2117 0.962 . S
C2104 H2118 0.960 . S
C2105 C2102 1.511 . S
C2105 H2119 0.961 . S
C2105 H2120 0.961 . S
C2105 H2121 0.961 . S
C2106 C2107 1.370 . S
C2106 C2108 1.363 . S
C2106 H2122 0.931 . S
C2107 C2106 1.370 . S
C2107 C2111 1.408 . S
C2108 C2106 1.363 . S
C2108 C2109 1.370 . S
C2108 C2112 1.524 . S
C2109 C2101 1.503 . S
C2109 C2108 1.370 . S
C2109 C2110 1.403 . S
C2110 C2109 1.403 . S
C2110 C2111 1.404 . S
C2110 C2113 1.539 . S
C2111 C2107 1.408 . S
C2111 C2110 1.404 . S
C2111 H2123 0.930 . S
C2112 C2108 1.524 . S
C2112 H2124 0.956 . S
C2112 H2125 0.961 . S
C2112 H2126 0.961 . S
C2113 C2110 1.539 . S
C2113 H2127 0.958 . S
C2113 H2128 0.961 . S
C2113 H2129 0.960 . S
H2114 C2098 0.931 . S
H2115 C2103 0.929 . S
H2116 C2104 0.960 . S
H2117 C2104 0.962 . S
H2118 C2104 0.960 . S
H2119 C2105 0.961 . S
H2120 C2105 0.961 . S
H2121 C2105 0.961 . S
H2122 C2106 0.931 . S
H2123 C2111 0.930 . S
H2124 C2112 0.956 . S
H2125 C2112 0.961 . S
H2126 C2112 0.961 . S
H2127 C2113 0.958 . S
H2128 C2113 0.961 . S
H2129 C2113 0.960 . S
C2130 C2131 1.391 . S
C2130 C2132 1.394 . S
C2130 H2146 0.931 . S
C2131 C2130 1.391 . S
C2131 C2135 1.375 . S
C2132 C2130 1.394 . S
C2132 C2133 1.369 . S
C2132 C2136 1.531 . S
C2133 C2132 1.369 . S
C2133 C2134 1.410 1_655 S
C2133 C2141 1.503 . S
C2134 C2133 1.410 1_455 S
C2134 C2135 1.392 1_455 S
C2134 C2137 1.511 . S
C2135 C2131 1.375 . S
C2135 C2134 1.392 1_655 S
C2135 H2147 0.930 1_655 S
C2136 C2132 1.531 . S
C2136 H2148 0.960 . S
C2136 H2149 0.962 . S
C2136 H2150 0.960 . S
C2137 C2134 1.511 . S
C2137 H2151 0.961 . S
C2137 H2152 0.961 . S
C2137 H2153 0.961 . S
C2138 C2139 1.370 . S
C2138 C2140 1.363 . S
C2138 H2154 0.931 . S
C2139 C2138 1.370 . S
C2139 C2143 1.408 . S
C2140 C2138 1.363 . S
C2140 C2141 1.370 . S
C2140 C2144 1.524 . S
C2141 C2133 1.503 . S
C2141 C2140 1.370 . S
C2141 C2142 1.403 . S
C2142 C2141 1.403 . S
C2142 C2143 1.404 . S
C2142 C2145 1.539 . S
C2143 C2139 1.408 . S
C2143 C2142 1.404 . S
C2143 H2155 0.930 . S
C2144 C2140 1.524 . S
C2144 H2156 0.956 . S
C2144 H2157 0.961 . S
C2144 H2158 0.961 . S
C2145 C2142 1.539 . S
C2145 H2159 0.958 . S
C2145 H2160 0.961 1_655 S
C2145 H2161 0.960 . S
H2146 C2130 0.931 . S
H2147 C2135 0.930 1_455 S
H2148 C2136 0.960 . S
H2149 C2136 0.962 . S
H2150 C2136 0.960 . S
H2151 C2137 0.961 . S
H2152 C2137 0.961 . S
H2153 C2137 0.961 . S
H2154 C2138 0.931 . S
H2155 C2143 0.930 . S
H2156 C2144 0.956 . S
H2157 C2144 0.961 . S
H2158 C2144 0.961 . S
H2159 C2145 0.958 . S
H2160 C2145 0.961 1_455 S
H2161 C2145 0.960 . S
C2162 C2163 1.391 . S
C2162 C2164 1.394 . S
C2162 H2178 0.931 . S
C2163 C2162 1.391 . S
C2163 C2167 1.376 . S
C2164 C2162 1.394 . S
C2164 C2165 1.369 . S
C2164 C2168 1.531 . S
C2165 C2164 1.369 . S
C2165 C2166 1.410 . S
C2165 C2173 1.503 . S
C2166 C2165 1.410 . S
C2166 C2167 1.392 . S
C2166 C2169 1.511 . S
C2167 C2163 1.376 . S
C2167 C2166 1.392 . S
C2167 H2179 0.929 . S
C2168 C2164 1.531 . S
C2168 H2180 0.960 . S
C2168 H2181 0.962 . S
C2168 H2182 0.960 . S
C2169 C2166 1.511 . S
C2169 H2183 0.961 . S
C2169 H2184 0.961 . S
C2169 H2185 0.961 . S
C2170 C2171 1.370 . S
C2170 C2172 1.363 . S
C2170 H2186 0.931 . S
C2171 C2170 1.370 . S
C2171 C2175 1.408 . S
C2172 C2170 1.363 . S
C2172 C2173 1.370 . S
C2172 C2176 1.524 . S
C2173 C2165 1.503 . S
C2173 C2172 1.370 . S
C2173 C2174 1.403 . S
C2174 C2173 1.403 . S
C2174 C2175 1.404 . S
C2174 C2177 1.539 . S
C2175 C2171 1.408 . S
C2175 C2174 1.404 . S
C2175 H2187 0.930 . S
C2176 C2172 1.524 . S
C2176 H2188 0.956 . S
C2176 H2189 0.961 . S
C2176 H2190 0.961 . S
C2177 C2174 1.539 . S
C2177 H2191 0.958 . S
C2177 H2192 0.961 . S
C2177 H2193 0.960 . S
H2178 C2162 0.931 . S
H2179 C2167 0.929 . S
H2180 C2168 0.960 . S
H2181 C2168 0.962 . S
H2182 C2168 0.960 . S
H2183 C2169 0.961 . S
H2184 C2169 0.961 . S
H2185 C2169 0.961 . S
H2186 C2170 0.931 . S
H2187 C2175 0.930 . S
H2188 C2176 0.956 . S
H2189 C2176 0.961 . S
H2190 C2176 0.961 . S
H2191 C2177 0.958 . S
H2192 C2177 0.961 . S
H2193 C2177 0.960 . S
C2194 C2195 1.391 . S
C2194 C2196 1.394 . S
C2194 H2210 0.931 . S
C2195 C2194 1.391 . S
C2195 C2199 1.376 . S
C2196 C2194 1.394 . S
C2196 C2197 1.369 . S
C2196 C2200 1.531 1_545 S
C2197 C2196 1.369 . S
C2197 C2198 1.410 . S
C2197 C2205 1.503 . S
C2198 C2197 1.410 . S
C2198 C2199 1.392 . S
C2198 C2201 1.511 . S
C2199 C2195 1.376 . S
C2199 C2198 1.392 . S
C2199 H2211 0.929 . S
C2200 C2196 1.531 1_565 S
C2200 H2212 0.960 . S
C2200 H2213 0.962 1_565 S
C2200 H2214 0.960 . S
C2201 C2198 1.511 . S
C2201 H2215 0.961 . S
C2201 H2216 0.961 . S
C2201 H2217 0.961 . S
C2202 C2203 1.370 . S
C2202 C2204 1.363 . S
C2202 H2218 0.931 . S
C2203 C2202 1.370 . S
C2203 C2207 1.408 1_545 S
C2204 C2202 1.363 . S
C2204 C2205 1.370 . S
C2204 C2208 1.524 . S
C2205 C2197 1.503 . S
C2205 C2204 1.370 . S
C2205 C2206 1.403 1_545 S
C2206 C2205 1.403 1_565 S
C2206 C2207 1.404 . S
C2206 C2209 1.539 . S
C2207 C2203 1.408 1_565 S
C2207 C2206 1.404 . S
C2207 H2219 0.930 . S
C2208 C2204 1.524 . S
C2208 H2220 0.956 . S
C2208 H2221 0.961 . S
C2208 H2222 0.961 . S
C2209 C2206 1.539 . S
C2209 H2223 0.958 . S
C2209 H2224 0.961 . S
C2209 H2225 0.960 . S
H2210 C2194 0.931 . S
H2211 C2199 0.929 . S
H2212 C2200 0.960 . S
H2213 C2200 0.962 1_545 S
H2214 C2200 0.960 . S
H2215 C2201 0.961 . S
H2216 C2201 0.961 . S
H2217 C2201 0.961 . S
H2218 C2202 0.931 . S
H2219 C2207 0.930 . S
H2220 C2208 0.956 . S
H2221 C2208 0.961 . S
H2222 C2208 0.961 . S
H2223 C2209 0.958 . S
H2224 C2209 0.961 . S
H2225 C2209 0.960 . S
C2226 C2227 1.391 . S
C2226 C2228 1.394 . S
C2226 H2242 0.931 . S
C2227 C2226 1.391 . S
C2227 C2231 1.376 . S
C2228 C2226 1.394 . S
C2228 C2229 1.369 . S
C2228 C2232 1.531 . S
C2229 C2228 1.369 . S
C2229 C2230 1.410 . S
C2229 C2237 1.503 . S
C2230 C2229 1.410 . S
C2230 C2231 1.392 . S
C2230 C2233 1.511 . S
C2231 C2227 1.376 . S
C2231 C2230 1.392 . S
C2231 H2243 0.929 . S
C2232 C2228 1.531 . S
C2232 H2244 0.960 . S
C2232 H2245 0.962 . S
C2232 H2246 0.960 . S
C2233 C2230 1.511 . S
C2233 H2247 0.961 . S
C2233 H2248 0.961 . S
C2233 H2249 0.961 . S
C2234 C2235 1.370 . S
C2234 C2236 1.363 . S
C2234 H2250 0.931 . S
C2235 C2234 1.370 . S
C2235 C2239 1.408 . S
C2236 C2234 1.363 . S
C2236 C2237 1.370 . S
C2236 C2240 1.524 . S
C2237 C2229 1.503 . S
C2237 C2236 1.370 . S
C2237 C2238 1.403 . S
C2238 C2237 1.403 . S
C2238 C2239 1.404 . S
C2238 C2241 1.539 . S
C2239 C2235 1.408 . S
C2239 C2238 1.404 . S
C2239 H2251 0.930 . S
C2240 C2236 1.524 . S
C2240 H2252 0.956 . S
C2240 H2253 0.961 . S
C2240 H2254 0.961 . S
C2241 C2238 1.539 . S
C2241 H2255 0.958 . S
C2241 H2256 0.961 . S
C2241 H2257 0.960 . S
H2242 C2226 0.931 . S
H2243 C2231 0.929 . S
H2244 C2232 0.960 . S
H2245 C2232 0.962 . S
H2246 C2232 0.960 . S
H2247 C2233 0.961 . S
H2248 C2233 0.961 . S
H2249 C2233 0.961 . S
H2250 C2234 0.931 . S
H2251 C2239 0.930 . S
H2252 C2240 0.956 . S
H2253 C2240 0.961 . S
H2254 C2240 0.961 . S
H2255 C2241 0.958 . S
H2256 C2241 0.961 . S
H2257 C2241 0.960 . S
C2258 C2259 1.391 . S
C2258 C2260 1.394 . S
C2258 H2274 0.931 . S
C2259 C2258 1.391 . S
C2259 C2263 1.376 . S
C2260 C2258 1.394 . S
C2260 C2261 1.369 . S
C2260 C2264 1.531 . S
C2261 C2260 1.369 . S
C2261 C2262 1.410 . S
C2261 C2269 1.503 . S
C2262 C2261 1.410 . S
C2262 C2263 1.392 . S
C2262 C2265 1.511 . S
C2263 C2259 1.376 . S
C2263 C2262 1.392 . S
C2263 H2275 0.929 . S
C2264 C2260 1.531 . S
C2264 H2276 0.960 . S
C2264 H2277 0.962 . S
C2264 H2278 0.960 . S
C2265 C2262 1.511 . S
C2265 H2279 0.961 . S
C2265 H2280 0.961 . S
C2265 H2281 0.961 . S
C2266 C2267 1.370 . S
C2266 C2268 1.363 . S
C2266 H2282 0.931 . S
C2267 C2266 1.370 . S
C2267 C2271 1.408 . S
C2268 C2266 1.363 . S
C2268 C2269 1.370 . S
C2268 C2272 1.524 . S
C2269 C2261 1.503 . S
C2269 C2268 1.370 . S
C2269 C2270 1.403 . S
C2270 C2269 1.403 . S
C2270 C2271 1.404 . S
C2270 C2273 1.539 . S
C2271 C2267 1.408 . S
C2271 C2270 1.404 . S
C2271 H2283 0.930 . S
C2272 C2268 1.524 . S
C2272 H2284 0.956 . S
C2272 H2285 0.961 . S
C2272 H2286 0.961 . S
C2273 C2270 1.539 . S
C2273 H2287 0.958 . S
C2273 H2288 0.961 . S
C2273 H2289 0.960 . S
H2274 C2258 0.931 . S
H2275 C2263 0.929 . S
H2276 C2264 0.960 . S
H2277 C2264 0.962 . S
H2278 C2264 0.960 . S
H2279 C2265 0.961 . S
H2280 C2265 0.961 . S
H2281 C2265 0.961 . S
H2282 C2266 0.931 . S
H2283 C2271 0.930 . S
H2284 C2272 0.956 . S
H2285 C2272 0.961 . S
H2286 C2272 0.961 . S
H2287 C2273 0.958 . S
H2288 C2273 0.961 . S
H2289 C2273 0.960 . S
C2290 C2291 1.391 . S
C2290 C2292 1.394 . S
C2290 H2306 0.931 . S
C2291 C2290 1.391 . S
C2291 C2295 1.376 . S
C2292 C2290 1.394 . S
C2292 C2293 1.369 . S
C2292 C2296 1.531 . S
C2293 C2292 1.369 . S
C2293 C2294 1.410 . S
C2293 C2301 1.503 . S
C2294 C2293 1.410 . S
C2294 C2295 1.392 . S
C2294 C2297 1.511 . S
C2295 C2291 1.376 . S
C2295 C2294 1.392 . S
C2295 H2307 0.929 . S
C2296 C2292 1.531 . S
C2296 H2308 0.960 . S
C2296 H2309 0.962 . S
C2296 H2310 0.960 . S
C2297 C2294 1.511 . S
C2297 H2311 0.961 . S
C2297 H2312 0.961 . S
C2297 H2313 0.961 . S
C2298 C2299 1.370 . S
C2298 C2300 1.363 . S
C2298 H2314 0.931 . S
C2299 C2298 1.370 . S
C2299 C2303 1.408 . S
C2300 C2298 1.363 . S
C2300 C2301 1.370 . S
C2300 C2304 1.524 . S
C2301 C2293 1.503 . S
C2301 C2300 1.370 . S
C2301 C2302 1.403 . S
C2302 C2301 1.403 . S
C2302 C2303 1.404 . S
C2302 C2305 1.539 . S
C2303 C2299 1.408 . S
C2303 C2302 1.404 . S
C2303 H2315 0.930 . S
C2304 C2300 1.524 . S
C2304 H2316 0.956 . S
C2304 H2317 0.961 . S
C2304 H2318 0.961 . S
C2305 C2302 1.539 . S
C2305 H2319 0.958 . S
C2305 H2320 0.961 . S
C2305 H2321 0.960 . S
H2306 C2290 0.931 . S
H2307 C2295 0.929 . S
H2308 C2296 0.960 . S
H2309 C2296 0.962 . S
H2310 C2296 0.960 . S
H2311 C2297 0.961 . S
H2312 C2297 0.961 . S
H2313 C2297 0.961 . S
H2314 C2298 0.931 . S
H2315 C2303 0.930 . S
H2316 C2304 0.956 . S
H2317 C2304 0.961 . S
H2318 C2304 0.961 . S
H2319 C2305 0.958 . S
H2320 C2305 0.961 . S
H2321 C2305 0.960 . S
C2322 C2323 1.391 . S
C2322 C2324 1.394 . S
C2322 H2338 0.931 . S
C2323 C2322 1.391 . S
C2323 C2327 1.376 . S
C2324 C2322 1.394 . S
C2324 C2325 1.369 . S
C2324 C2328 1.531 . S
C2325 C2324 1.369 . S
C2325 C2326 1.410 . S
C2325 C2333 1.503 . S
C2326 C2325 1.410 . S
C2326 C2327 1.392 . S
C2326 C2329 1.511 . S
C2327 C2323 1.376 . S
C2327 C2326 1.392 . S
C2327 H2339 0.929 . S
C2328 C2324 1.531 . S
C2328 H2340 0.960 . S
C2328 H2341 0.962 . S
C2328 H2342 0.960 . S
C2329 C2326 1.511 . S
C2329 H2343 0.961 . S
C2329 H2344 0.961 . S
C2329 H2345 0.961 . S
C2330 C2331 1.370 . S
C2330 C2332 1.363 . S
C2330 H2346 0.931 . S
C2331 C2330 1.370 . S
C2331 C2335 1.408 . S
C2332 C2330 1.363 . S
C2332 C2333 1.370 . S
C2332 C2336 1.524 . S
C2333 C2325 1.503 . S
C2333 C2332 1.370 . S
C2333 C2334 1.403 . S
C2334 C2333 1.403 . S
C2334 C2335 1.404 . S
C2334 C2337 1.539 . S
C2335 C2331 1.408 . S
C2335 C2334 1.404 . S
C2335 H2347 0.930 . S
C2336 C2332 1.524 . S
C2336 H2348 0.956 . S
C2336 H2349 0.961 . S
C2336 H2350 0.961 . S
C2337 C2334 1.539 . S
C2337 H2351 0.958 . S
C2337 H2352 0.961 . S
C2337 H2353 0.960 . S
H2338 C2322 0.931 . S
H2339 C2327 0.929 . S
H2340 C2328 0.960 . S
H2341 C2328 0.962 . S
H2342 C2328 0.960 . S
H2343 C2329 0.961 . S
H2344 C2329 0.961 . S
H2345 C2329 0.961 . S
H2346 C2330 0.931 . S
H2347 C2335 0.930 . S
H2348 C2336 0.956 . S
H2349 C2336 0.961 . S
H2350 C2336 0.961 . S
H2351 C2337 0.958 . S
H2352 C2337 0.961 . S
H2353 C2337 0.960 . S
C2354 C2355 1.391 . S
C2354 C2356 1.394 . S
C2354 H2370 0.931 . S
C2355 C2354 1.391 . S
C2355 C2359 1.376 . S
C2356 C2354 1.394 . S
C2356 C2357 1.369 . S
C2356 C2360 1.531 . S
C2357 C2356 1.369 . S
C2357 C2358 1.410 . S
C2357 C2365 1.503 . S
C2358 C2357 1.410 . S
C2358 C2359 1.392 . S
C2358 C2361 1.511 . S
C2359 C2355 1.376 . S
C2359 C2358 1.392 . S
C2359 H2371 0.929 . S
C2360 C2356 1.531 . S
C2360 H2372 0.960 . S
C2360 H2373 0.962 . S
C2360 H2374 0.960 . S
C2361 C2358 1.511 . S
C2361 H2375 0.961 . S
C2361 H2376 0.961 . S
C2361 H2377 0.961 . S
C2362 C2363 1.370 . S
C2362 C2364 1.363 . S
C2362 H2378 0.931 . S
C2363 C2362 1.370 . S
C2363 C2367 1.408 . S
C2364 C2362 1.363 . S
C2364 C2365 1.370 . S
C2364 C2368 1.524 . S
C2365 C2357 1.503 . S
C2365 C2364 1.370 . S
C2365 C2366 1.403 . S
C2366 C2365 1.403 . S
C2366 C2367 1.404 . S
C2366 C2369 1.539 . S
C2367 C2363 1.408 . S
C2367 C2366 1.404 . S
C2367 H2379 0.930 . S
C2368 C2364 1.524 . S
C2368 H2380 0.956 . S
C2368 H2381 0.961 . S
C2368 H2382 0.961 . S
C2369 C2366 1.539 . S
C2369 H2383 0.958 . S
C2369 H2384 0.961 . S
C2369 H2385 0.960 . S
H2370 C2354 0.931 . S
H2371 C2359 0.929 . S
H2372 C2360 0.960 . S
H2373 C2360 0.962 . S
H2374 C2360 0.960 . S
H2375 C2361 0.961 . S
H2376 C2361 0.961 . S
H2377 C2361 0.961 . S
H2378 C2362 0.931 . S
H2379 C2367 0.930 . S
H2380 C2368 0.956 . S
H2381 C2368 0.961 . S
H2382 C2368 0.961 . S
H2383 C2369 0.958 . S
H2384 C2369 0.961 . S
H2385 C2369 0.960 . S
C2386 C2387 1.391 . S
C2386 C2388 1.394 . S
C2386 H2402 0.931 . S
C2387 C2386 1.391 . S
C2387 C2391 1.376 . S
C2388 C2386 1.394 . S
C2388 C2389 1.369 . S
C2388 C2392 1.531 . S
C2389 C2388 1.369 . S
C2389 C2390 1.410 . S
C2389 C2397 1.503 . S
C2390 C2389 1.410 . S
C2390 C2391 1.392 . S
C2390 C2393 1.511 . S
C2391 C2387 1.376 . S
C2391 C2390 1.392 . S
C2391 H2403 0.929 . S
C2392 C2388 1.531 . S
C2392 H2404 0.960 . S
C2392 H2405 0.962 . S
C2392 H2406 0.960 . S
C2393 C2390 1.511 . S
C2393 H2407 0.961 . S
C2393 H2408 0.961 . S
C2393 H2409 0.961 . S
C2394 C2395 1.370 . S
C2394 C2396 1.363 . S
C2394 H2410 0.931 . S
C2395 C2394 1.370 . S
C2395 C2399 1.408 . S
C2396 C2394 1.363 . S
C2396 C2397 1.370 . S
C2396 C2400 1.524 . S
C2397 C2389 1.503 . S
C2397 C2396 1.370 . S
C2397 C2398 1.403 . S
C2398 C2397 1.403 . S
C2398 C2399 1.404 . S
C2398 C2401 1.539 . S
C2399 C2395 1.408 . S
C2399 C2398 1.404 . S
C2399 H2411 0.930 . S
C2400 C2396 1.524 . S
C2400 H2412 0.956 . S
C2400 H2413 0.961 . S
C2400 H2414 0.961 . S
C2401 C2398 1.539 . S
C2401 H2415 0.958 . S
C2401 H2416 0.961 . S
C2401 H2417 0.960 . S
H2402 C2386 0.931 . S
H2403 C2391 0.929 . S
H2404 C2392 0.960 . S
H2405 C2392 0.962 . S
H2406 C2392 0.960 . S
H2407 C2393 0.961 . S
H2408 C2393 0.961 . S
H2409 C2393 0.961 . S
H2410 C2394 0.931 . S
H2411 C2399 0.930 . S
H2412 C2400 0.956 . S
H2413 C2400 0.961 . S
H2414 C2400 0.961 . S
H2415 C2401 0.958 . S
H2416 C2401 0.961 . S
H2417 C2401 0.960 . S
C2418 C2419 1.391 . S
C2418 C2420 1.394 . S
C2418 H2434 0.931 . S
C2419 C2418 1.391 . S
C2419 C2423 1.376 . S
C2420 C2418 1.394 . S
C2420 C2421 1.369 . S
C2420 C2424 1.531 . S
C2421 C2420 1.369 . S
C2421 C2422 1.410 . S
C2421 C2429 1.503 . S
C2422 C2421 1.410 . S
C2422 C2423 1.392 . S
C2422 C2425 1.511 . S
C2423 C2419 1.376 . S
C2423 C2422 1.392 . S
C2423 H2435 0.929 . S
C2424 C2420 1.531 . S
C2424 H2436 0.960 . S
C2424 H2437 0.962 . S
C2424 H2438 0.960 . S
C2425 C2422 1.511 . S
C2425 H2439 0.961 . S
C2425 H2440 0.961 . S
C2425 H2441 0.961 . S
C2426 C2427 1.370 . S
C2426 C2428 1.363 . S
C2426 H2442 0.931 . S
C2427 C2426 1.370 . S
C2427 C2431 1.408 . S
C2428 C2426 1.363 . S
C2428 C2429 1.370 . S
C2428 C2432 1.524 . S
C2429 C2421 1.503 . S
C2429 C2428 1.370 . S
C2429 C2430 1.403 . S
C2430 C2429 1.403 . S
C2430 C2431 1.404 . S
C2430 C2433 1.539 . S
C2431 C2427 1.408 . S
C2431 C2430 1.404 . S
C2431 H2443 0.930 . S
C2432 C2428 1.524 . S
C2432 H2444 0.956 . S
C2432 H2445 0.961 . S
C2432 H2446 0.961 . S
C2433 C2430 1.539 . S
C2433 H2447 0.958 . S
C2433 H2448 0.961 . S
C2433 H2449 0.960 . S
H2434 C2418 0.931 . S
H2435 C2423 0.929 . S
H2436 C2424 0.960 . S
H2437 C2424 0.962 . S
H2438 C2424 0.960 . S
H2439 C2425 0.961 . S
H2440 C2425 0.961 . S
H2441 C2425 0.961 . S
H2442 C2426 0.931 . S
H2443 C2431 0.930 . S
H2444 C2432 0.956 . S
H2445 C2432 0.961 . S
H2446 C2432 0.961 . S
H2447 C2433 0.958 . S
H2448 C2433 0.961 . S
H2449 C2433 0.960 . S
C2450 C2451 1.391 . S
C2450 C2452 1.394 . S
C2450 H2466 0.931 . S
C2451 C2450 1.391 . S
C2451 C2455 1.376 . S
C2452 C2450 1.394 . S
C2452 C2453 1.369 . S
C2452 C2456 1.531 . S
C2453 C2452 1.369 . S
C2453 C2454 1.410 . S
C2453 C2461 1.503 . S
C2454 C2453 1.410 . S
C2454 C2455 1.392 . S
C2454 C2457 1.511 . S
C2455 C2451 1.376 . S
C2455 C2454 1.392 . S
C2455 H2467 0.929 . S
C2456 C2452 1.531 . S
C2456 H2468 0.960 . S
C2456 H2469 0.962 . S
C2456 H2470 0.960 . S
C2457 C2454 1.511 . S
C2457 H2471 0.961 . S
C2457 H2472 0.961 . S
C2457 H2473 0.961 . S
C2458 C2459 1.370 . S
C2458 C2460 1.363 . S
C2458 H2474 0.931 . S
C2459 C2458 1.370 . S
C2459 C2463 1.408 . S
C2460 C2458 1.363 . S
C2460 C2461 1.370 . S
C2460 C2464 1.524 . S
C2461 C2453 1.503 . S
C2461 C2460 1.370 . S
C2461 C2462 1.403 . S
C2462 C2461 1.403 . S
C2462 C2463 1.404 . S
C2462 C2465 1.539 . S
C2463 C2459 1.408 . S
C2463 C2462 1.404 . S
C2463 H2475 0.930 . S
C2464 C2460 1.524 . S
C2464 H2476 0.956 . S
C2464 H2477 0.961 . S
C2464 H2478 0.961 . S
C2465 C2462 1.539 . S
C2465 H2479 0.958 . S
C2465 H2480 0.961 . S
C2465 H2481 0.960 . S
H2466 C2450 0.931 . S
H2467 C2455 0.929 . S
H2468 C2456 0.960 . S
H2469 C2456 0.962 . S
H2470 C2456 0.960 . S
H2471 C2457 0.961 . S
H2472 C2457 0.961 . S
H2473 C2457 0.961 . S
H2474 C2458 0.931 . S
H2475 C2463 0.930 . S
H2476 C2464 0.956 . S
H2477 C2464 0.961 . S
H2478 C2464 0.961 . S
H2479 C2465 0.958 . S
H2480 C2465 0.961 . S
H2481 C2465 0.960 . S
C2482 C2483 1.391 . S
C2482 C2484 1.394 . S
C2482 H2498 0.931 . S
C2483 C2482 1.391 . S
C2483 C2487 1.376 . S
C2484 C2482 1.394 . S
C2484 C2485 1.369 . S
C2484 C2488 1.531 . S
C2485 C2484 1.369 . S
C2485 C2486 1.410 . S
C2485 C2493 1.503 . S
C2486 C2485 1.410 . S
C2486 C2487 1.392 . S
C2486 C2489 1.511 . S
C2487 C2483 1.376 . S
C2487 C2486 1.392 . S
C2487 H2499 0.929 . S
C2488 C2484 1.531 . S
C2488 H2500 0.960 . S
C2488 H2501 0.962 . S
C2488 H2502 0.960 . S
C2489 C2486 1.511 . S
C2489 H2503 0.961 . S
C2489 H2504 0.961 . S
C2489 H2505 0.961 . S
C2490 C2491 1.370 . S
C2490 C2492 1.363 . S
C2490 H2506 0.931 . S
C2491 C2490 1.370 . S
C2491 C2495 1.408 . S
C2492 C2490 1.363 . S
C2492 C2493 1.370 . S
C2492 C2496 1.524 . S
C2493 C2485 1.503 . S
C2493 C2492 1.370 . S
C2493 C2494 1.403 . S
C2494 C2493 1.403 . S
C2494 C2495 1.404 . S
C2494 C2497 1.539 . S
C2495 C2491 1.408 . S
C2495 C2494 1.404 . S
C2495 H2507 0.930 . S
C2496 C2492 1.524 . S
C2496 H2508 0.956 . S
C2496 H2509 0.961 . S
C2496 H2510 0.961 . S
C2497 C2494 1.539 . S
C2497 H2511 0.958 . S
C2497 H2512 0.961 . S
C2497 H2513 0.960 . S
H2498 C2482 0.931 . S
H2499 C2487 0.929 . S
H2500 C2488 0.960 . S
H2501 C2488 0.962 . S
H2502 C2488 0.960 . S
H2503 C2489 0.961 . S
H2504 C2489 0.961 . S
H2505 C2489 0.961 . S
H2506 C2490 0.931 . S
H2507 C2495 0.930 . S
H2508 C2496 0.956 . S
H2509 C2496 0.961 . S
H2510 C2496 0.961 . S
H2511 C2497 0.958 . S
H2512 C2497 0.961 . S
H2513 C2497 0.960 . S
C2514 C2515 1.391 . S
C2514 C2516 1.394 . S
C2514 H2530 0.931 . S
C2515 C2514 1.391 . S
C2515 C2519 1.376 . S
C2516 C2514 1.394 . S
C2516 C2517 1.369 . S
C2516 C2520 1.531 . S
C2517 C2516 1.369 . S
C2517 C2518 1.410 . S
C2517 C2525 1.503 . S
C2518 C2517 1.410 . S
C2518 C2519 1.392 . S
C2518 C2521 1.511 . S
C2519 C2515 1.376 . S
C2519 C2518 1.392 . S
C2519 H2531 0.929 . S
C2520 C2516 1.531 . S
C2520 H2532 0.960 . S
C2520 H2533 0.962 . S
C2520 H2534 0.960 . S
C2521 C2518 1.511 . S
C2521 H2535 0.961 . S
C2521 H2536 0.961 . S
C2521 H2537 0.961 . S
C2522 C2523 1.370 . S
C2522 C2524 1.363 . S
C2522 H2538 0.931 . S
C2523 C2522 1.370 . S
C2523 C2527 1.408 . S
C2524 C2522 1.363 . S
C2524 C2525 1.370 . S
C2524 C2528 1.524 . S
C2525 C2517 1.503 . S
C2525 C2524 1.370 . S
C2525 C2526 1.403 . S
C2526 C2525 1.403 . S
C2526 C2527 1.404 . S
C2526 C2529 1.539 . S
C2527 C2523 1.408 . S
C2527 C2526 1.404 . S
C2527 H2539 0.930 . S
C2528 C2524 1.524 . S
C2528 H2540 0.956 . S
C2528 H2541 0.961 . S
C2528 H2542 0.961 . S
C2529 C2526 1.539 . S
C2529 H2543 0.958 . S
C2529 H2544 0.961 . S
C2529 H2545 0.960 . S
H2530 C2514 0.931 . S
H2531 C2519 0.929 . S
H2532 C2520 0.960 . S
H2533 C2520 0.962 . S
H2534 C2520 0.960 . S
H2535 C2521 0.961 . S
H2536 C2521 0.961 . S
H2537 C2521 0.961 . S
H2538 C2522 0.931 . S
H2539 C2527 0.930 . S
H2540 C2528 0.956 . S
H2541 C2528 0.961 . S
H2542 C2528 0.961 . S
H2543 C2529 0.958 . S
H2544 C2529 0.961 . S
H2545 C2529 0.960 . S
C2546 C2547 1.391 . S
C2546 C2548 1.394 . S
C2546 H2562 0.931 . S
C2547 C2546 1.391 . S
C2547 C2551 1.376 . S
C2548 C2546 1.394 . S
C2548 C2549 1.369 . S
C2548 C2552 1.531 . S
C2549 C2548 1.369 . S
C2549 C2550 1.410 . S
C2549 C2557 1.503 . S
C2550 C2549 1.410 . S
C2550 C2551 1.392 . S
C2550 C2553 1.511 . S
C2551 C2547 1.376 . S
C2551 C2550 1.392 . S
C2551 H2563 0.929 . S
C2552 C2548 1.531 . S
C2552 H2564 0.960 . S
C2552 H2565 0.962 . S
C2552 H2566 0.960 . S
C2553 C2550 1.511 . S
C2553 H2567 0.961 . S
C2553 H2568 0.961 . S
C2553 H2569 0.961 . S
C2554 C2555 1.370 . S
C2554 C2556 1.363 . S
C2554 H2570 0.931 . S
C2555 C2554 1.370 . S
C2555 C2559 1.408 . S
C2556 C2554 1.363 . S
C2556 C2557 1.370 . S
C2556 C2560 1.524 . S
C2557 C2549 1.503 . S
C2557 C2556 1.370 . S
C2557 C2558 1.403 . S
C2558 C2557 1.403 . S
C2558 C2559 1.404 . S
C2558 C2561 1.539 . S
C2559 C2555 1.408 . S
C2559 C2558 1.404 . S
C2559 H2571 0.930 . S
C2560 C2556 1.524 . S
C2560 H2572 0.956 . S
C2560 H2573 0.961 . S
C2560 H2574 0.961 . S
C2561 C2558 1.539 . S
C2561 H2575 0.958 . S
C2561 H2576 0.961 . S
C2561 H2577 0.960 . S
H2562 C2546 0.931 . S
H2563 C2551 0.929 . S
H2564 C2552 0.960 . S
H2565 C2552 0.962 . S
H2566 C2552 0.960 . S
H2567 C2553 0.961 . S
H2568 C2553 0.961 . S
H2569 C2553 0.961 . S
H2570 C2554 0.931 . S
H2571 C2559 0.930 . S
H2572 C2560 0.956 . S
H2573 C2560 0.961 . S
H2574 C2560 0.961 . S
H2575 C2561 0.958 . S
H2576 C2561 0.961 . S
H2577 C2561 0.960 . S
C2578 C2579 1.391 . S
C2578 C2580 1.394 . S
C2578 H2594 0.931 . S
C2579 C2578 1.391 . S
C2579 C2583 1.376 . S
C2580 C2578 1.394 . S
C2580 C2581 1.369 . S
C2580 C2584 1.531 . S
C2581 C2580 1.369 . S
C2581 C2582 1.410 . S
C2581 C2589 1.503 . S
C2582 C2581 1.410 . S
C2582 C2583 1.392 . S
C2582 C2585 1.511 . S
C2583 C2579 1.376 . S
C2583 C2582 1.392 . S
C2583 H2595 0.929 . S
C2584 C2580 1.531 . S
C2584 H2596 0.960 . S
C2584 H2597 0.962 . S
C2584 H2598 0.960 . S
C2585 C2582 1.511 . S
C2585 H2599 0.961 . S
C2585 H2600 0.961 . S
C2585 H2601 0.961 . S
C2586 C2587 1.370 . S
C2586 C2588 1.363 . S
C2586 H2602 0.931 . S
C2587 C2586 1.370 . S
C2587 C2591 1.408 . S
C2588 C2586 1.363 . S
C2588 C2589 1.370 . S
C2588 C2592 1.524 . S
C2589 C2581 1.503 . S
C2589 C2588 1.370 . S
C2589 C2590 1.403 . S
C2590 C2589 1.403 . S
C2590 C2591 1.404 . S
C2590 C2593 1.539 . S
C2591 C2587 1.408 . S
C2591 C2590 1.404 . S
C2591 H2603 0.930 . S
C2592 C2588 1.524 . S
C2592 H2604 0.956 . S
C2592 H2605 0.961 . S
C2592 H2606 0.961 . S
C2593 C2590 1.539 . S
C2593 H2607 0.958 . S
C2593 H2608 0.961 . S
C2593 H2609 0.960 . S
H2594 C2578 0.931 . S
H2595 C2583 0.929 . S
H2596 C2584 0.960 . S
H2597 C2584 0.962 . S
H2598 C2584 0.960 . S
H2599 C2585 0.961 . S
H2600 C2585 0.961 . S
H2601 C2585 0.961 . S
H2602 C2586 0.931 . S
H2603 C2591 0.930 . S
H2604 C2592 0.956 . S
H2605 C2592 0.961 . S
H2606 C2592 0.961 . S
H2607 C2593 0.958 . S
H2608 C2593 0.961 . S
H2609 C2593 0.960 . S
C883 C528 1.555 . S
C891 C708 1.519 . S
C915 C562 1.540 . S
C923 C728 1.513 . S
C947 C484 1.582 . S
C955 C751 1.557 . S
C979 C445 1.479 . S
C987 C731 1.454 . S
C1019 C748 1.445 . S
C1011 C367 1.465 . S
C1043 C411 1.459 . S
C1051 C711 1.450 . S
C1083 C718 1.538 . S
C1075 C450 1.559 . S
C1115 C738 1.501 . S
C1107 C372 1.505 . S
C1139 C406 1.578 . S
C1147 C743 1.556 . S
C1171 C523 1.462 . S
C1179 C723 1.461 . S
C1203 C567 1.421 . S
C1211 C758 1.434 . S
C1243 C703 1.474 . S
C1235 C489 1.460 . S
C1275 C768 1.519 . S
C1267 C60 1.557 . S
C1299 C94 1.526 . S
C1307 C788 1.517 . S
C1331 C16 1.549 . S
C1339 C811 1.570 . S
C1363 C679 1.478 . S
C1371 C791 1.454 . S
C1395 C601 1.443 . S
C1403 C808 1.447 . S
C1427 C645 1.473 . S
C1435 C771 1.445 . S
C1459 C684 1.537 . S
C1467 C778 1.552 . S
C1491 C606 1.516 . S
C1499 C798 1.489 . S
C1531 C803 1.565 . S
C1523 C640 1.558 . S
C1555 C55 1.467 . S
C1563 C783 1.459 . S
C1595 C818 1.428 . S
C1587 C99 1.419 . S
C1619 C21 1.475 . S
C1627 C763 1.468 . S
C1659 C828 1.529 . S
C1651 C294 1.560 . S
C1683 C328 1.527 . S
C1691 C848 1.513 . S
C1723 C871 1.556 . S
C1715 C250 1.583 . S
C1755 C851 1.468 . S
C1747 C211 1.456 . S
C1787 C868 1.448 . S
C1779 C133 1.443 . S
C1811 C177 1.472 . S
C1819 C831 1.446 . S
C1843 C216 1.552 . S
C1851 C838 1.541 . S
C1875 C138 1.505 . S
C1883 C858 1.504 . S
C1915 C863 1.563 . S
C1907 C172 1.562 . S
C1939 C289 1.473 . S
C1947 C843 1.456 . S
C1971 C333 1.430 . S
C1979 C878 1.420 . S
C2003 C255 1.448 . S
C2011 C823 1.478 . S
C2035 C586 1.286 . S
C2043 C721 1.243 1_565 S
C2075 C741 1.620 . S
C2067 C625 1.653 . S
C2099 C664 1.493 . S
C2107 C750 1.453 . S
C2131 C235 1.679 . S
C2139 C730 1.605 1_655 S
C2163 C274 1.470 . S
C2171 C761 1.450 . S
C2203 C710 1.247 1_545 S
C2195 C313 1.288 . S
C2227 C118 1.282 . S
C2235 C781 1.267 . S
C2259 C157 1.681 . S
C2267 C801 1.595 . S
C2291 C196 1.493 . S
C2299 C810 1.453 . S
C2323 C469 1.680 . S
C2331 C790 1.614 . S
C2363 C821 1.455 . S
C2355 C508 1.471 . S
C2387 C547 1.289 . S
C2395 C770 1.243 . S
C2419 C352 1.283 . S
C2427 C841 1.244 . S
C2451 C391 1.653 . S
C2459 C861 1.618 . S
C2491 C870 1.451 . S
C2483 C430 1.496 . S
C2515 C1 1.668 . S
C2523 C850 1.625 . S
C2547 C40 1.496 . S
C2555 C881 1.431 . S
C2579 C79 1.288 . S
C2587 C830 1.250 . S
