# Generated by pormake.
# Topology dag, (6,3)-cn, num edge types: 1
# Building blocks:
#     Node 0, Type 0, BuildingBlock: IZENUY_clean_sbu_0, # of connection points: 6
#     Node 1, Type 0, BuildingBlock: IZENUY_clean_sbu_0, # of connection points: 6
#     Node 2, Type 0, BuildingBlock: IZENUY_clean_sbu_0, # of connection points: 6
#     Node 3, Type 0, BuildingBlock: IZENUY_clean_sbu_0, # of connection points: 6
#     Node 4, Type 1, BuildingBlock: BELTOD_clean_linker_0, # of connection points: 3
#     Node 5, Type 1, BuildingBlock: BELTOD_clean_linker_0, # of connection points: 3
#     Node 6, Type 1, BuildingBlock: BELTOD_clean_linker_0, # of connection points: 3
#     Node 7, Type 1, BuildingBlock: BELTOD_clean_linker_0, # of connection points: 3
#     Node 8, Type 1, BuildingBlock: BELTOD_clean_linker_0, # of connection points: 3
#     Node 9, Type 1, BuildingBlock: BELTOD_clean_linker_0, # of connection points: 3
#     Node 10, Type 1, BuildingBlock: BELTOD_clean_linker_0, # of connection points: 3
#     Node 11, Type 1, BuildingBlock: BELTOD_clean_linker_0, # of connection points: 3
#     Edge 12, Type (0, 1), BuildingBlock: CIFDUS_clean_linker_0, # of connection points: 2
#     Edge 13, Type (0, 1), BuildingBlock: CIFDUS_clean_linker_0, # of connection points: 2
#     Edge 14, Type (0, 1), BuildingBlock: CIFDUS_clean_linker_0, # of connection points: 2
#     Edge 15, Type (0, 1), BuildingBlock: CIFDUS_clean_linker_0, # of connection points: 2
#     Edge 16, Type (0, 1), BuildingBlock: CIFDUS_clean_linker_0, # of connection points: 2
#     Edge 17, Type (0, 1), BuildingBlock: CIFDUS_clean_linker_0, # of connection points: 2
#     Edge 18, Type (0, 1), BuildingBlock: CIFDUS_clean_linker_0, # of connection points: 2
#     Edge 19, Type (0, 1), BuildingBlock: CIFDUS_clean_linker_0, # of connection points: 2
#     Edge 20, Type (0, 1), BuildingBlock: CIFDUS_clean_linker_0, # of connection points: 2
#     Edge 21, Type (0, 1), BuildingBlock: CIFDUS_clean_linker_0, # of connection points: 2
#     Edge 22, Type (0, 1), BuildingBlock: CIFDUS_clean_linker_0, # of connection points: 2
#     Edge 23, Type (0, 1), BuildingBlock: CIFDUS_clean_linker_0, # of connection points: 2
#     Edge 24, Type (0, 1), BuildingBlock: CIFDUS_clean_linker_0, # of connection points: 2
#     Edge 25, Type (0, 1), BuildingBlock: CIFDUS_clean_linker_0, # of connection points: 2
#     Edge 26, Type (0, 1), BuildingBlock: CIFDUS_clean_linker_0, # of connection points: 2
#     Edge 27, Type (0, 1), BuildingBlock: CIFDUS_clean_linker_0, # of connection points: 2
#     Edge 28, Type (0, 1), BuildingBlock: CIFDUS_clean_linker_0, # of connection points: 2
#     Edge 29, Type (0, 1), BuildingBlock: CIFDUS_clean_linker_0, # of connection points: 2
#     Edge 30, Type (0, 1), BuildingBlock: CIFDUS_clean_linker_0, # of connection points: 2
#     Edge 31, Type (0, 1), BuildingBlock: CIFDUS_clean_linker_0, # of connection points: 2
#     Edge 32, Type (0, 1), BuildingBlock: CIFDUS_clean_linker_0, # of connection points: 2
#     Edge 33, Type (0, 1), BuildingBlock: CIFDUS_clean_linker_0, # of connection points: 2
#     Edge 34, Type (0, 1), BuildingBlock: CIFDUS_clean_linker_0, # of connection points: 2
#     Edge 35, Type (0, 1), BuildingBlock: CIFDUS_clean_linker_0, # of connection points: 2
# Relax obj value: 0.239
# Max RMSD: 0.187
# Mean RMSD: 0.155
data_MOF--net-dag--node1-IZENUY_clean_sbu_0--node2-BELTOD_clean_linker_0--edge1-CIFDUS_clean_linker_0
_symmetry_space_group_name_H-M    P1
_symmetry_Int_Tables_number       1
_symmetry_cell_setting            triclinic
loop_
_symmetry_equiv_pos_as_xyz
'x, y, z'
_cell_length_a     38.154337
_cell_length_b     40.689645
_cell_length_c     34.074082
_cell_angle_alpha  94.993693
_cell_angle_beta   90.147062
_cell_angle_gamma 90.197853
loop_
_atom_site_label
_atom_site_type_symbol
_atom_site_fract_x
_atom_site_fract_y
_atom_site_fract_z
_atom_type_partial_charge
Fe0 Fe 0.18004 0.86668 0.08477 0.0
Fe1 Fe 0.11064 0.88203 0.0438 0.0
O2 O 0.1417 0.85331 0.05831 0.0
Fe3 Fe 0.13403 0.81064 0.0464 0.0
O4 O 0.15751 0.79715 0.08894 0.0
O5 O 0.16902 0.84274 0.12564 0.0
O6 O 0.15895 0.90218 0.11264 0.0
C7 C 0.12693 0.90961 0.11801 0.0
C8 C 0.20345 0.8152 0.02901 0.0
O9 O 0.1037 0.89856 0.09401 0.0
C10 C 0.10818 0.83862 0.97876 0.0
O11 O 0.1942 0.89182 0.04641 0.0
O12 O 0.14296 0.91398 0.0353 0.0
O13 O 0.1731 0.80734 0.01636 0.0
O14 O 0.20763 0.83351 0.06093 0.0
C15 C 0.06951 0.83133 0.07184 0.0
O16 O 0.11538 0.86763 0.99227 0.0
O17 O 0.10868 0.81551 0.0013 0.0
C18 C 0.17594 0.91328 0.03148 0.0
O19 O 0.07257 0.85507 0.05028 0.0
O20 O 0.09485 0.8122 0.07642 0.0
C21 C 0.16378 0.81206 0.1223 0.0
Fe22 Fe 0.68045 0.62241 0.47188 0.0
Fe23 Fe 0.62699 0.67541 0.50274 0.0
O24 O 0.64127 0.63375 0.49747 0.0
Fe25 Fe 0.61633 0.60253 0.51743 0.0
O26 O 0.65214 0.59305 0.54957 0.0
O27 O 0.69058 0.588 0.50168 0.0
O28 O 0.70621 0.64846 0.50667 0.0
C29 C 0.70072 0.67864 0.51665 0.0
C30 C 0.63676 0.57257 0.44419 0.0
O31 O 0.67172 0.69222 0.50933 0.0
C32 C 0.56578 0.63795 0.48247 0.0
O33 O 0.6782 0.65466 0.43784 0.0
O34 O 0.62767 0.67888 0.45007 0.0
O35 O 0.62893 0.56998 0.47979 0.0
O36 O 0.65633 0.59583 0.43525 0.0
C37 C 0.60846 0.656 0.57507 0.0
O38 O 0.58009 0.66472 0.49652 0.0
O39 O 0.5798 0.61041 0.48632 0.0
C40 C 0.65332 0.67244 0.42763 0.0
O41 O 0.62481 0.67641 0.55621 0.0
O42 O 0.59838 0.62876 0.55841 0.0
C43 C 0.68149 0.5831 0.53649 0.0
Fe44 Fe 0.87385 0.21262 0.02693 0.0
Fe45 Fe 0.90031 0.14184 0.01407 0.0
O46 O 0.86539 0.17007 0.01421 0.0
Fe47 Fe 0.82237 0.1562 0.00221 0.0
O48 O 0.81145 0.19323 0.97732 0.0
O49 O 0.86053 0.22232 0.97815 0.0
O50 O 0.91955 0.21161 0.00916 0.0
C51 C 0.9341 0.19214 0.9831 0.0
C52 C 0.80695 0.20385 0.06037 0.0
O53 O 0.92351 0.16277 0.97716 0.0
C54 C 0.8487 0.10772 0.04946 0.0
O55 O 0.88727 0.20413 0.07652 0.0
O56 O 0.92354 0.16495 0.05466 0.0
O57 O 0.80567 0.17359 0.04921 0.0
O58 O 0.82989 0.22215 0.04661 0.0
C59 C 0.86015 0.11741 0.94792 0.0
O60 O 0.87939 0.11928 0.05087 0.0
O61 O 0.82646 0.11691 0.02496 0.0
C62 C 0.91078 0.18338 0.08287 0.0
O63 O 0.8831 0.11369 0.97394 0.0
O64 O 0.83543 0.13756 0.95424 0.0
C65 C 0.83122 0.21418 0.96264 0.0
Fe66 Fe 0.4008 0.36593 0.54673 0.0
Fe67 Fe 0.32833 0.35284 0.58047 0.0
O68 O 0.36968 0.33811 0.5635 0.0
Fe69 Fe 0.38003 0.29564 0.56299 0.0
O70 O 0.4271 0.3026 0.57261 0.0
O71 O 0.43192 0.35643 0.58438 0.0
O72 O 0.3868 0.40133 0.57988 0.0
C73 C 0.37067 0.40247 0.61234 0.0
C74 C 0.40807 0.30978 0.49292 0.0
O75 O 0.34842 0.38064 0.61879 0.0
C76 C 0.30912 0.29507 0.53862 0.0
O77 O 0.37148 0.37684 0.50805 0.0
O78 O 0.32543 0.38525 0.54618 0.0
O79 O 0.38646 0.29228 0.50983 0.0
O80 O 0.42068 0.33585 0.51036 0.0
C81 C 0.34667 0.30628 0.63397 0.0
O82 O 0.30544 0.32596 0.54349 0.0
O83 O 0.33507 0.28117 0.55331 0.0
C84 C 0.34094 0.38803 0.51377 0.0
O85 O 0.32398 0.32316 0.61753 0.0
O86 O 0.37401 0.29618 0.61595 0.0
C87 C 0.44365 0.32779 0.58744 0.0
P88 P 0.05749 0.13224 0.38374 0.0
H89 H 0.09609 0.07143 0.39413 0.0
H90 H 0.11762 0.02672 0.34721 0.0
H91 H 0.07958 0.07887 0.25069 0.0
H92 H 0.0588 0.12332 0.29709 0.0
H93 H 0.05648 0.1854 0.44633 0.0
H94 H 0.10161 0.22354 0.4744 0.0
H95 H 0.17698 0.17883 0.3919 0.0
H96 H 0.13192 0.14082 0.36414 0.0
H97 H 0.98542 0.11637 0.36219 0.0
H98 H 0.05861 0.19542 0.34775 0.0
O99 O 0.0386 0.11461 0.42076 0.0
H100 H 0.94644 0.13798 0.31353 0.0
H101 H 0.0195 0.21721 0.29935 0.0
C102 C 0.07503 0.10032 0.34926 0.0
C103 C 0.09252 0.07321 0.36285 0.0
C104 C 0.10494 0.04782 0.33608 0.0
C105 C 0.09979 0.04917 0.29538 0.0
C106 C 0.08332 0.07692 0.28194 0.0
C107 C 0.07136 0.10237 0.30858 0.0
C108 C 0.09102 0.16 0.40369 0.0
C109 C 0.08277 0.18383 0.4344 0.0
C110 C 0.10846 0.20575 0.45016 0.0
C111 C 0.14284 0.20404 0.43544 0.0
C112 C 0.15082 0.1804 0.40418 0.0
C113 C 0.12506 0.15865 0.38829 0.0
C114 C 0.02471 0.15441 0.35883 0.0
C115 C 0.99239 0.13915 0.34986 0.0
C116 C 0.97018 0.15147 0.32208 0.0
C117 C 0.98005 0.17924 0.30287 0.0
C118 C 0.0111 0.19609 0.31425 0.0
C119 C 0.03349 0.18356 0.34185 0.0
P120 P 0.43416 0.63095 0.87197 0.0
H121 H 0.50968 0.62125 0.8715 0.0
H122 H 0.55393 0.62993 0.82185 0.0
H123 H 0.47784 0.68153 0.75625 0.0
H124 H 0.43388 0.67348 0.80672 0.0
H125 H 0.35898 0.6218 0.88153 0.0
H126 H 0.31177 0.65928 0.90249 0.0
H127 H 0.38513 0.74072 0.91258 0.0
H128 H 0.43267 0.70272 0.89135 0.0
H129 H 0.43998 0.55954 0.87869 0.0
H130 H 0.39292 0.62414 0.7998 0.0
O131 O 0.45071 0.6197 0.91414 0.0
H132 H 0.42179 0.51151 0.83481 0.0
H133 H 0.37481 0.57639 0.75589 0.0
C134 C 0.46858 0.64696 0.84298 0.0
C135 C 0.50286 0.63559 0.84728 0.0
C136 C 0.52808 0.64032 0.81867 0.0
C137 C 0.51928 0.65607 0.78486 0.0
C138 C 0.48557 0.66959 0.7821 0.0
C139 C 0.46036 0.66492 0.81091 0.0
C140 C 0.39917 0.65964 0.88374 0.0
C141 C 0.36491 0.6478 0.88735 0.0
C142 C 0.33786 0.6693 0.89938 0.0
C143 C 0.34463 0.70304 0.90878 0.0
C144 C 0.37912 0.71485 0.90549 0.0
C145 C 0.40622 0.69325 0.89311 0.0
C146 C 0.41763 0.59536 0.84253 0.0
C147 C 0.42531 0.56338 0.85225 0.0
C148 C 0.41484 0.53597 0.82723 0.0
C149 C 0.397 0.54025 0.79188 0.0
C150 C 0.38882 0.57236 0.78274 0.0
C151 C 0.39906 0.59964 0.80784 0.0
P152 P 0.79036 0.88275 0.25439 0.0
H153 H 0.79952 0.95319 0.27432 0.0
H154 H 0.79679 -0.00049 0.23387 0.0
H155 H 0.75062 0.93625 0.13907 0.0
H156 H 0.75219 0.88997 0.18054 0.0
H157 H 0.79664 0.81326 0.26398 0.0
H158 H 0.75616 0.77362 0.28745 0.0
H159 H 0.67157 0.84363 0.28145 0.0
H160 H 0.71331 0.88404 0.25941 0.0
H161 H 0.86608 0.88425 0.26877 0.0
H162 H 0.79513 0.84596 0.17702 0.0
O163 O 0.804 0.89518 0.29988 0.0
H164 H 0.91599 0.86851 0.22645 0.0
H165 H 0.84509 0.83104 0.1341 0.0
C166 C 0.77619 0.91807 0.2304 0.0
C167 C 0.78752 0.94944 0.24545 0.0
C168 C 0.78628 0.9759 0.22211 0.0
C169 C 0.77426 0.97132 0.18298 0.0
C170 C 0.76003 0.94053 0.1691 0.0
C171 C 0.76101 0.91404 0.19274 0.0
C172 C 0.75789 0.85138 0.25935 0.0
C173 C 0.76917 0.81976 0.26639 0.0
C174 C 0.74574 0.79693 0.27976 0.0
C175 C 0.71033 0.80523 0.28648 0.0
C176 C 0.69867 0.83645 0.27709 0.0
C177 C 0.7224 0.85949 0.26403 0.0
C178 C 0.82692 0.86624 0.22601 0.0
C179 C 0.86122 0.87194 0.23981 0.0
C180 C 0.88973 0.8629 0.21564 0.0
C181 C 0.8843 0.84863 0.17705 0.0
C182 C 0.84991 0.84213 0.16369 0.0
C183 C 0.82143 0.85065 0.18815 0.0
P184 P 0.76448 0.31191 0.63344 0.0
H185 H 0.81514 0.3519 0.59337 0.0
H186 H 0.81407 0.40935 0.5774 0.0
H187 H 0.71688 0.42367 0.64183 0.0
H188 H 0.71966 0.36756 0.65965 0.0
H189 H 0.7639 0.25175 0.67268 0.0
H190 H 0.78275 0.23853 0.73802 0.0
H191 H 0.81947 0.33868 0.76374 0.0
H192 H 0.8007 0.35174 0.69805 0.0
H193 H 0.72131 0.28927 0.56542 0.0
H194 H 0.70739 0.3107 0.6906 0.0
O195 O 0.78776 0.29051 0.59864 0.0
H196 H 0.65789 0.28175 0.55728 0.0
H197 H 0.64404 0.30354 0.68255 0.0
C198 C 0.76687 0.35519 0.62659 0.0
C199 C 0.79399 0.36771 0.60454 0.0
C200 C 0.7932 0.40054 0.59527 0.0
C201 C 0.76505 0.42123 0.60765 0.0
C202 C 0.73922 0.4089 0.63195 0.0
C203 C 0.74042 0.37638 0.64171 0.0
C204 C 0.78056 0.30273 0.68079 0.0
C205 C 0.77611 0.27082 0.69235 0.0
C206 C 0.7867 0.26338 0.72972 0.0
C207 C 0.8022 0.28771 0.75608 0.0
C208 C 0.80764 0.31948 0.74396 0.0
C209 C 0.79679 0.32697 0.70652 0.0
C210 C 0.71909 0.29999 0.62864 0.0
C211 C 0.70472 0.29151 0.59124 0.0
C212 C 0.66852 0.28725 0.58663 0.0
C213 C 0.64614 0.29211 0.61932 0.0
C214 C 0.66073 0.29975 0.6569 0.0
C215 C 0.69693 0.30355 0.66152 0.0
P216 P 0.53738 0.35556 0.18396 0.0
H217 H 0.556 0.42383 0.17033 0.0
H218 H 0.57973 0.4698 0.21397 0.0
H219 H 0.58342 0.40646 0.30937 0.0
H220 H 0.55884 0.36141 0.26629 0.0
H221 H 0.56373 0.33918 0.10413 0.0
H222 H 0.61805 0.31347 0.07924 0.0
H223 H 0.64765 0.29492 0.19762 0.0
H224 H 0.59367 0.32134 0.2226 0.0
H225 H 0.46932 0.37391 0.21527 0.0
H226 H 0.53867 0.29066 0.21809 0.0
O227 O 0.51538 0.37012 0.14682 0.0
H228 H 0.43324 0.35246 0.26627 0.0
H229 H 0.50293 0.26932 0.26964 0.0
C230 C 0.55486 0.38951 0.21538 0.0
C231 C 0.56168 0.42005 0.20075 0.0
C232 C 0.57555 0.44617 0.22559 0.0
C233 C 0.58302 0.44192 0.26528 0.0
C234 C 0.57715 0.41085 0.27925 0.0
C235 C 0.56319 0.38497 0.25457 0.0
C236 C 0.57431 0.33172 0.16518 0.0
C237 C 0.58156 0.32916 0.12473 0.0
C238 C 0.6127 0.31466 0.11054 0.0
C239 C 0.63695 0.30229 0.13658 0.0
C240 C 0.62919 0.304 0.17694 0.0
C241 C 0.5983 0.31899 0.19117 0.0
C242 C 0.50687 0.33413 0.21305 0.0
C243 C 0.47623 0.3505 0.22604 0.0
C244 C 0.45555 0.33815 0.25517 0.0
C245 C 0.46538 0.30929 0.27217 0.0
C246 C 0.49492 0.29179 0.25733 0.0
C247 C 0.51545 0.30406 0.22786 0.0
P248 P 0.24628 0.19401 0.94305 0.0
H249 H 0.29154 0.13594 0.9426 0.0
H250 H 0.27898 0.07693 0.94528 0.0
H251 H 0.16799 0.09809 0.94608 0.0
H252 H 0.18044 0.15572 0.94219 0.0
H253 H 0.28554 0.25228 0.92645 0.0
H254 H 0.31394 0.26897 0.86699 0.0
H255 H 0.28548 0.17549 0.80506 0.0
H256 H 0.25712 0.15894 0.86467 0.0
H257 H 0.20536 0.22158 0.01007 0.0
H258 H 0.1961 0.21199 0.88346 0.0
O259 O 0.27062 0.20521 0.98276 0.0
H260 H 0.14383 0.23729 0.01566 0.0
H261 H 0.13444 0.22798 0.8888 0.0
C262 C 0.23709 0.15041 0.94226 0.0
C263 C 0.26455 0.12765 0.94289 0.0
C264 C 0.25732 0.09399 0.94458 0.0
C265 C 0.22244 0.08267 0.94571 0.0
C266 C 0.19515 0.10565 0.94436 0.0
C267 C 0.20237 0.13903 0.94251 0.0
C268 C 0.26972 0.20426 0.90008 0.0
C269 C 0.28586 0.23521 0.90022 0.0
C270 C 0.30192 0.24476 0.86622 0.0
C271 C 0.30198 0.22348 0.83143 0.0
C272 C 0.28629 0.19217 0.83161 0.0
C273 C 0.27001 0.18274 0.86563 0.0
C274 C 0.20543 0.21605 0.94638 0.0
C275 C 0.19047 0.22421 0.98343 0.0
C276 C 0.15521 0.23318 0.98657 0.0
C277 C 0.1342 0.2337 0.95265 0.0
C278 C 0.14992 0.22758 0.91545 0.0
C279 C 0.18526 0.21878 0.91235 0.0
P280 P 0.30176 0.58562 0.26601 0.0
H281 H 0.29792 0.51465 0.24436 0.0
H282 H 0.29854 0.46856 0.28541 0.0
H283 H 0.27936 0.53604 0.38819 0.0
H284 H 0.27707 0.58175 0.3465 0.0
H285 H 0.31264 0.65491 0.25688 0.0
H286 H 0.273 0.69844 0.2415 0.0
H287 H 0.18455 0.634 0.2564 0.0
H288 H 0.22498 0.58995 0.27114 0.0
H289 H 0.37426 0.56656 0.25093 0.0
H290 H 0.3174 0.63085 0.33539 0.0
O291 O 0.30983 0.57242 0.21916 0.0
H292 H 0.42747 0.57533 0.29045 0.0
H293 H 0.37036 0.63917 0.37561 0.0
C294 C 0.28755 0.55165 0.29242 0.0
C295 C 0.2923 0.51937 0.27546 0.0
C296 C 0.29313 0.49303 0.29911 0.0
C297 C 0.28995 0.49866 0.34026 0.0
C298 C 0.28183 0.53069 0.35663 0.0
C299 C 0.28053 0.55696 0.3328 0.0
C300 C 0.27171 0.61941 0.26577 0.0
C301 C 0.28468 0.65046 0.25826 0.0
C302 C 0.26185 0.67548 0.24959 0.0
C303 C 0.22548 0.66982 0.24773 0.0
C304 C 0.21242 0.63911 0.25737 0.0
C305 C 0.23545 0.61399 0.26606 0.0
C306 C 0.34212 0.59853 0.28988 0.0
C307 C 0.37346 0.58326 0.27745 0.0
C308 C 0.40374 0.588 0.3003 0.0
C309 C 0.40299 0.60772 0.33631 0.0
C310 C 0.37186 0.62415 0.34783 0.0
C311 C 0.34158 0.61941 0.32485 0.0
P312 P 0.85937 0.85911 0.76761 0.0
H313 H 0.79968 0.89203 0.80784 0.0
H314 H 0.78785 0.95026 0.8253 0.0
H315 H 0.87236 0.97664 0.74978 0.0
H316 H 0.88444 0.9181 0.73287 0.0
H317 H 0.84852 0.78937 0.74552 0.0
H318 H 0.82223 0.75967 0.68758 0.0
H319 H 0.81979 0.84995 0.62948 0.0
H320 H 0.84548 0.87964 0.68797 0.0
H321 H 0.90219 0.90597 0.81612 0.0
H322 H 0.91734 0.81259 0.74815 0.0
O323 O 0.83968 0.8401 0.80307 0.0
H324 H 0.96186 0.90471 0.83991 0.0
H325 H 0.97777 0.8108 0.77317 0.0
C326 C 0.84349 0.90085 0.76986 0.0
C327 C 0.81502 0.91028 0.7941 0.0
C328 C 0.80806 0.94366 0.8038 0.0
C329 C 0.82957 0.968 0.78938 0.0
C330 C 0.85567 0.95837 0.76171 0.0
C331 C 0.86252 0.92498 0.75195 0.0
C332 C 0.84826 0.83679 0.7214 0.0
C333 C 0.84296 0.80265 0.72003 0.0
C334 C 0.82811 0.78565 0.68671 0.0
C335 C 0.81847 0.80255 0.65405 0.0
C336 C 0.82631 0.83638 0.65446 0.0
C337 C 0.84117 0.85337 0.68789 0.0
C338 C 0.9055 0.85994 0.77912 0.0
C339 C 0.9187 0.88568 0.80507 0.0
C340 C 0.95302 0.88493 0.81883 0.0
C341 C 0.97475 0.85791 0.80794 0.0
C342 C 0.96168 0.8321 0.78171 0.0
C343 C 0.92724 0.83315 0.76733 0.0
H344 H 0.16706 0.93657 0.17972 0.0
H345 H 0.06293 0.93815 0.12968 0.0
H346 H 0.04561 0.98066 0.18029 0.0
H347 H 0.06001 0.01875 0.23749 0.0
H348 H 0.16298 0.01727 0.2895 0.0
H349 H 0.18064 0.97324 0.23973 0.0
C350 C 0.14056 0.94614 0.17998 0.0
C351 C 0.11652 0.93424 0.15059 0.0
C352 C 0.13051 0.97066 0.20952 0.0
C353 C 0.08215 0.94678 0.1517 0.0
C354 C 0.07213 0.97121 0.18066 0.0
C355 C 0.08635 0.00881 0.23784 0.0
C356 C 0.11029 0.02141 0.26676 0.0
C357 C 0.09614 0.98354 0.20942 0.0
C358 C 0.14411 0.00789 0.26747 0.0
C359 C 0.15421 0.98284 0.23895 0.0
H360 H 0.60512 0.61446 0.63167 0.0
H361 H 0.58732 0.7159 0.61042 0.0
H362 H 0.56007 0.72603 0.67561 0.0
H363 H 0.53605 0.70395 0.73584 0.0
H364 H 0.55488 0.60202 0.75524 0.0
H365 H 0.58739 0.59432 0.69394 0.0
C366 C 0.59568 0.63892 0.64158 0.0
C367 C 0.59774 0.6643 0.6163 0.0
C368 C 0.58011 0.6444 0.67872 0.0
C369 C 0.58598 0.69601 0.62952 0.0
C370 C 0.5702 0.70169 0.66662 0.0
C371 C 0.54765 0.68021 0.72678 0.0
C372 C 0.54297 0.65362 0.75017 0.0
C373 C 0.56627 0.67579 0.69105 0.0
C374 C 0.55842 0.62305 0.73821 0.0
C375 C 0.5768 0.61849 0.70292 0.0
H376 H 0.78624 0.07465 0.05473 0.0
H377 H 0.89021 0.0838 0.1053 0.0
H378 H 0.87572 0.04339 0.15102 0.0
H379 H 0.83441 0.00506 0.17647 0.0
H380 H 0.73044 0.99421 0.12708 0.0
H381 H 0.74418 0.03544 0.08082 0.0
C382 C 0.80572 0.06775 0.0757 0.0
C383 C 0.83931 0.08236 0.0764 0.0
C384 C 0.79726 0.04421 0.10216 0.0
C385 C 0.86419 0.07307 0.10387 0.0
C386 C 0.85595 0.04992 0.13018 0.0
C387 C 0.81449 0.01208 0.15604 0.0
C388 C 0.78127 0.99702 0.15562 0.0
C389 C 0.82263 0.03542 0.12963 0.0
C390 C 0.75617 0.00559 0.12806 0.0
C391 C 0.76402 0.02914 0.10168 0.0
H392 H 0.48736 0.27624 0.56965 0.0
H393 H 0.4817 0.37136 0.63605 0.0
H394 H 0.5435 0.3674 0.65424 0.0
H395 H 0.59999 0.33863 0.64748 0.0
H396 H 0.60638 0.24519 0.5778 0.0
H397 H 0.54332 0.24673 0.56458 0.0
C398 C 0.49949 0.2959 0.58859 0.0
C399 C 0.47997 0.32404 0.60156 0.0
C400 C 0.53519 0.29385 0.59802 0.0
C401 C 0.49622 0.34949 0.62562 0.0
C402 C 0.53153 0.34726 0.63598 0.0
C403 C 0.5874 0.31838 0.62993 0.0
C404 C 0.60764 0.29176 0.61373 0.0
C405 C 0.55139 0.31981 0.62182 0.0
C406 C 0.59126 0.26596 0.59042 0.0
C407 C 0.55527 0.26683 0.58292 0.0
H408 H 0.65616 0.56133 0.36646 0.0
H409 H 0.5862 0.52729 0.45403 0.0
H410 H 0.56271 0.48537 0.40611 0.0
H411 H 0.56214 0.45762 0.34017 0.0
H412 H 0.63261 0.48893 0.25184 0.0
H413 H 0.65516 0.53302 0.2989 0.0
C414 C 0.63584 0.54467 0.37498 0.0
C415 C 0.62336 0.54726 0.41398 0.0
C416 C 0.62235 0.52022 0.34714 0.0
C417 C 0.59678 0.52563 0.42446 0.0
C418 C 0.58312 0.50167 0.39702 0.0
C419 C 0.58271 0.47385 0.33123 0.0
C420 C 0.59595 0.46973 0.29272 0.0
C421 C 0.59586 0.49857 0.35845 0.0
C422 C 0.62186 0.49164 0.28132 0.0
C423 C 0.63492 0.51671 0.30829 0.0
H424 H 0.97726 0.2432 0.00841 0.0
H425 H 0.96815 0.16046 0.92059 0.0
H426 H 0.02846 0.16899 0.90001 0.0
H427 H 0.08566 0.19521 0.91268 0.0
H428 H 0.09598 0.27631 0.00233 0.0
H429 H 0.03325 0.2732 0.01642 0.0
C430 C 0.98822 0.22743 0.98425 0.0
C431 C 0.96832 0.20099 0.96638 0.0
C432 C 0.02327 0.23193 0.97321 0.0
C433 C 0.983 0.18078 0.93514 0.0
C434 C 0.01752 0.18559 0.92338 0.0
C435 C 0.07404 0.21283 0.93454 0.0
C436 C 0.09548 0.2359 0.95651 0.0
C437 C 0.03821 0.21042 0.94303 0.0
C438 C 0.08007 0.25813 0.98527 0.0
C439 C 0.04423 0.25635 0.99333 0.0
H440 H 0.36355 0.39465 0.4393 0.0
H441 H 0.28133 0.4253 0.52117 0.0
H442 H 0.25646 0.46019 0.47348 0.0
H443 H 0.26001 0.48447 0.40988 0.0
H444 H 0.34371 0.45482 0.32948 0.0
H445 H 0.36532 0.41659 0.3748 0.0
C446 C 0.34013 0.40889 0.44674 0.0
C447 C 0.32465 0.40766 0.48399 0.0
C448 C 0.326 0.42899 0.41928 0.0
C449 C 0.29399 0.42591 0.49282 0.0
C450 C 0.27971 0.44592 0.46556 0.0
C451 C 0.28288 0.46956 0.40222 0.0
C452 C 0.30005 0.4726 0.36618 0.0
C453 C 0.29581 0.44804 0.42891 0.0
C454 C 0.32945 0.45269 0.35658 0.0
C455 C 0.34217 0.43102 0.38273 0.0
H456 H 0.1011 0.88252 0.9233 0.0
H457 H 0.07543 0.78265 0.94669 0.0
H458 H 0.03564 0.77785 0.89038 0.0
H459 H 0.00066 0.80531 0.84223 0.0
H460 H 0.02505 0.9056 0.82016 0.0
H461 H 0.07304 0.90678 0.86785 0.0
C462 C 0.08734 0.85946 0.91566 0.0
C463 C 0.09063 0.8333 0.93983 0.0
C464 C 0.06392 0.85705 0.88368 0.0
C465 C 0.07307 0.8034 0.92899 0.0
C466 C 0.05015 0.80064 0.89683 0.0
C467 C 0.01723 0.82702 0.84688 0.0
C468 C 0.009 0.8555 0.82819 0.0
C469 C 0.04425 0.82778 0.87504 0.0
C470 C 0.03058 0.88354 0.8347 0.0
C471 C 0.05794 0.88426 0.86204 0.0
H472 H 0.80436 0.09572 0.90256 0.0
H473 H 0.91677 0.08813 0.91252 0.0
H474 H 0.91743 0.04443 0.85884 0.0
H475 H 0.8856 0.00352 0.81619 0.0
H476 H 0.77288 0.00761 0.80872 0.0
H477 H 0.77273 0.0578 0.85405 0.0
C478 C 0.82901 0.08491 0.89238 0.0
C479 C 0.86043 0.09478 0.91171 0.0
C480 C 0.82909 0.05903 0.86223 0.0
C481 C 0.89221 0.08056 0.89841 0.0
C482 C 0.89262 0.05561 0.86772 0.0
C483 C 0.86105 0.01597 0.82339 0.0
C484 C 0.8293 0.00192 0.80912 0.0
C485 C 0.86113 0.04394 0.85037 0.0
C486 C 0.79765 0.01795 0.8195 0.0
C487 C 0.79757 0.04652 0.8455 0.0
H488 H 0.3727 0.3031 0.42385 0.0
H489 H 0.47506 0.29423 0.47537 0.0
H490 H 0.50152 0.28793 0.40984 0.0
H491 H 0.49646 0.29336 0.33923 0.0
H492 H 0.3949 0.30691 0.28739 0.0
H493 H 0.36704 0.30288 0.35146 0.0
C494 C 0.40061 0.29874 0.42041 0.0
C495 C 0.42202 0.29872 0.45395 0.0
C496 C 0.41576 0.29659 0.38268 0.0
C497 C 0.45824 0.29398 0.44965 0.0
C498 C 0.47333 0.29061 0.41229 0.0
C499 C 0.46814 0.29441 0.34167 0.0
C500 C 0.44778 0.30047 0.30865 0.0
C501 C 0.45251 0.29305 0.37871 0.0
C502 C 0.41114 0.30248 0.31249 0.0
C503 C 0.39522 0.30021 0.34911 0.0
H504 H 0.15128 0.94697 0.97249 0.0
H505 H 0.2395 0.94117 0.05088 0.0
H506 H 0.26392 0.99189 0.02822 0.0
H507 H 0.25627 0.0411 0.99189 0.0
H508 H 0.16925 0.04519 0.91117 0.0
H509 H 0.14834 0.99185 0.92897 0.0
C510 C 0.17608 0.95664 0.9842 0.0
C511 C 0.19334 0.94076 0.01366 0.0
C512 C 0.18998 0.98563 0.97094 0.0
C513 C 0.22573 0.95308 0.02819 0.0
C514 C 0.23959 0.98215 0.01539 0.0
C515 C 0.23327 0.02999 0.97738 0.0
C516 C 0.21392 0.0476 0.95092 0.0
C517 C 0.22145 -0.0009 0.98753 0.0
C518 C 0.1841 0.03268 0.93251 0.0
C519 C 0.17216 0.0021 0.94254 0.0
H520 H 0.53368 0.58574 0.44327 0.0
H521 H 0.52414 0.69112 0.4693 0.0
H522 H 0.4724 0.69115 0.42652 0.0
H523 H 0.4313 0.66115 0.37963 0.0
H524 H 0.4428 0.55592 0.35415 0.0
H525 H 0.49288 0.55612 0.39851 0.0
C526 C 0.5202 0.6088 0.44006 0.0
C527 C 0.53274 0.63839 0.45966 0.0
C528 C 0.49111 0.60871 0.41506 0.0
C529 C 0.51498 0.66796 0.4547 0.0
C530 C 0.48549 0.66801 0.43012 0.0
C531 C 0.44471 0.6383 0.38401 0.0
C532 C 0.43361 0.60863 0.36324 0.0
C533 C 0.47355 0.63854 0.40981 0.0
C534 C 0.45129 0.57919 0.36906 0.0
C535 C 0.47973 0.57922 0.3947 0.0
H536 H 0.35526 0.4078 0.69091 0.0
H537 H 0.39913 0.46174 0.59888 0.0
H538 H 0.41028 0.50901 0.64612 0.0
H539 H 0.4089 0.53481 0.71352 0.0
H540 H 0.36705 0.48126 0.80669 0.0
H541 H 0.35406 0.43398 0.75919 0.0
C542 C 0.36704 0.43 0.68122 0.0
C543 C 0.37624 0.43123 0.64139 0.0
C544 C 0.37393 0.45709 0.70875 0.0
C545 C 0.39187 0.46004 0.62935 0.0
C546 C 0.39825 0.48715 0.65633 0.0
C547 C 0.39658 0.51292 0.72336 0.0
C548 C 0.38868 0.51158 0.76343 0.0
C549 C 0.38954 0.4859 0.69607 0.0
C550 C 0.37346 0.48279 0.77595 0.0
C551 C 0.36594 0.45583 0.74881 0.0
H552 H 0.00525 0.85359 0.05271 0.0
H553 H 0.05894 0.79885 0.13749 0.0
H554 H 0.00549 0.79757 0.1767 0.0
H555 H 0.94482 0.81613 0.18964 0.0
H556 H 0.89103 0.86978 0.10407 0.0
H557 H 0.94305 0.86713 0.06221 0.0
C558 C 0.00513 0.84107 0.07954 0.0
C559 C 0.03605 0.82662 0.09237 0.0
C560 C 0.97434 0.84037 0.10187 0.0
C561 C 0.03543 0.81012 0.12694 0.0
C562 C 0.00494 0.80954 0.1495 0.0
C563 C 0.94451 0.8269 0.16161 0.0
C564 C 0.91436 0.84328 0.14996 0.0
C565 C 0.97447 0.82521 0.13769 0.0
C566 C 0.91395 0.85689 0.11347 0.0
C567 C 0.94372 0.85555 0.08967 0.0
H568 H 0.72958 0.53883 0.50693 0.0
H569 H 0.67756 0.57379 0.61485 0.0
H570 H 0.70404 0.52928 0.64845 0.0
H571 H 0.73649 0.47721 0.645 0.0
H572 H 0.78213 0.43914 0.53433 0.0
H573 H 0.76497 0.4888 0.50466 0.0
C574 C 0.72448 0.53709 0.53799 0.0
C575 C 0.70135 0.55937 0.55827 0.0
C576 C 0.73875 0.51084 0.5567 0.0
C577 C 0.69499 0.55672 0.59848 0.0
C578 C 0.71011 0.53128 0.61769 0.0
C579 C 0.74272 0.47968 0.61437 0.0
C580 C 0.76021 0.45401 0.59198 0.0
C581 C 0.73109 0.50758 0.59671 0.0
C582 C 0.76904 0.45838 0.55266 0.0
C583 C 0.75881 0.4867 0.53538 0.0
H584 H 0.91216 0.22819 0.14844 0.0
H585 H 0.93719 0.12759 0.10738 0.0
H586 H 0.95755 0.11712 0.17249 0.0
H587 H 0.97072 0.13643 0.24015 0.0
H588 H 0.95173 0.23759 0.28237 0.0
H589 H 0.92665 0.24813 0.21799 0.0
C590 C 0.92205 0.20407 0.15396 0.0
C591 C 0.9232 0.17875 0.12307 0.0
C592 C 0.9348 0.19831 0.19163 0.0
C593 C 0.93623 0.1476 0.13049 0.0
C594 C 0.94782 0.14148 0.16779 0.0
C595 C 0.96051 0.16065 0.23543 0.0
C596 C 0.96231 0.18604 0.26588 0.0
C597 C 0.94746 0.16663 0.19841 0.0
C598 C 0.95013 0.21762 0.25924 0.0
C599 C 0.93596 0.22361 0.2225 0.0
H600 H 0.14271 0.74951 0.12952 0.0
H601 H 0.20043 0.83004 0.19028 0.0
H602 H 0.22016 0.79362 0.23932 0.0
H603 H 0.22754 0.7372 0.25906 0.0
H604 H 0.17231 0.65657 0.19499 0.0
H605 H 0.14418 0.69492 0.1541 0.0
C606 C 0.15928 0.75922 0.15378 0.0
C607 C 0.17075 0.7922 0.15577 0.0
C608 C 0.17095 0.73808 0.18134 0.0
C609 C 0.19151 0.80464 0.18785 0.0
C610 C 0.2029 0.78379 0.21582 0.0
C611 C 0.20899 0.72809 0.23648 0.0
C612 C 0.20251 0.69394 0.22982 0.0
C613 C 0.19382 0.75019 0.21196 0.0
C614 C 0.17773 0.68265 0.20107 0.0
C615 C 0.16191 0.70456 0.17724 0.0
H616 H 0.70052 0.74465 0.53842 0.0
H617 H 0.7642 0.65733 0.54163 0.0
H618 H 0.80817 0.68891 0.58102 0.0
H619 H 0.82637 0.74021 0.61892 0.0
H620 H 0.76144 0.82679 0.61782 0.0
H621 H 0.72076 0.79681 0.57241 0.0
C622 C 0.72414 0.73253 0.54742 0.0
C623 C 0.72879 0.69857 0.53736 0.0
C624 C 0.74924 0.75074 0.57039 0.0
C625 C 0.75976 0.6834 0.54906 0.0
C626 C 0.78496 0.70143 0.57166 0.0
C627 C 0.80342 0.75256 0.60855 0.0
C628 C 0.79691 0.78563 0.62198 0.0
C629 C 0.77962 0.73494 0.58319 0.0
C630 C 0.76737 0.80146 0.60768 0.0
C631 C 0.74384 0.78423 0.58201 0.0
H632 H 0.78188 0.26553 0.05667 0.0
H633 H 0.76383 0.17549 0.11176 0.0
H634 H 0.71023 0.19873 0.14216 0.0
H635 H 0.66671 0.24362 0.14975 0.0
H636 H 0.68327 0.33176 0.09047 0.0
H637 H 0.7392 0.31027 0.06479 0.0
C638 C 0.76653 0.25118 0.07585 0.0
C639 C 0.77687 0.21895 0.08223 0.0
C640 C 0.73526 0.26422 0.09201 0.0
C641 C 0.75637 0.20041 0.10653 0.0
C642 C 0.72571 0.21363 0.12377 0.0
C643 C 0.68278 0.2581 0.13142 0.0
C644 C 0.67097 0.2891 0.1218 0.0
C645 C 0.7146 0.24532 0.11618 0.0
C646 C 0.69174 0.30765 0.09781 0.0
C647 C 0.72374 0.29546 0.08331 0.0
H648 H 0.3666 0.24999 0.66614 0.0
H649 H 0.30904 0.34054 0.69066 0.0
H650 H 0.29181 0.3236 0.75474 0.0
H651 H 0.29016 0.28199 0.80214 0.0
H652 H 0.34509 0.19013 0.77755 0.0
H653 H 0.36608 0.20844 0.71507 0.0
C654 C 0.35062 0.26608 0.68578 0.0
C655 C 0.339 0.29639 0.67371 0.0
C656 C 0.34008 0.25584 0.72235 0.0
C657 C 0.31804 0.31695 0.6992 0.0
C658 C 0.3082 0.30732 0.73584 0.0
C659 C 0.30716 0.26618 0.78338 0.0
C660 C 0.31621 0.23486 0.79446 0.0
C661 C 0.31862 0.27665 0.74746 0.0
C662 C 0.33764 0.21431 0.76948 0.0
C663 C 0.3497 0.22481 0.73386 0.0
H664 H 0.63113 0.73424 0.41652 0.0
H665 H 0.68633 0.65093 0.35974 0.0
H666 H 0.7032 0.68372 0.30597 0.0
H667 H 0.70907 0.73775 0.28028 0.0
H668 H 0.66051 0.82275 0.34238 0.0
H669 H 0.63299 0.78746 0.38755 0.0
C670 C 0.64613 0.72309 0.39187 0.0
C671 C 0.65769 0.69033 0.39211 0.0
C672 C 0.65703 0.74249 0.36197 0.0
C673 C 0.6774 0.67622 0.36025 0.0
C674 C 0.68709 0.69496 0.32958 0.0
C675 C 0.69235 0.74863 0.30357 0.0
C676 C 0.68754 0.78306 0.30812 0.0
C677 C 0.67821 0.72846 0.33097 0.0
C678 C 0.66472 0.79641 0.33774 0.0
C679 C 0.64925 0.77625 0.36406 0.0
H680 H 0.86811 0.25485 0.9181 0.0
H681 H 0.76739 0.20716 0.92677 0.0
H682 H 0.74919 0.2272 0.8647 0.0
H683 H 0.76276 0.25547 0.80619 0.0
H684 H 0.86338 0.30249 0.79603 0.0
H685 H 0.88054 0.28592 0.86076 0.0
C686 C 0.84204 0.24916 0.90666 0.0
C687 C 0.81928 0.22935 0.92704 0.0
C688 C 0.83174 0.26051 0.87061 0.0
C689 C 0.78558 0.2222 0.91169 0.0
C690 C 0.77509 0.23361 0.87612 0.0
C691 C 0.78847 0.26203 0.81815 0.0
C692 C 0.81194 0.27979 0.79628 0.0
C693 C 0.79817 0.25224 0.85503 0.0
C694 C 0.84486 0.28883 0.81242 0.0
C695 C 0.85472 0.27924 0.8493 0.0
H696 H 0.24407 0.31373 0.51536 0.0
H697 H 0.31259 0.22944 0.51558 0.0
H698 H 0.2676 0.1943 0.48297 0.0
H699 H 0.20846 0.18697 0.45578 0.0
H700 H 0.13917 0.27048 0.45594 0.0
H701 H 0.1847 0.30639 0.48727 0.0
C702 C 0.24919 0.2877 0.50817 0.0
C703 C 0.28165 0.27428 0.51808 0.0
C704 C 0.22304 0.26744 0.48962 0.0
C705 C 0.28779 0.24045 0.50857 0.0
C706 C 0.26209 0.22028 0.48984 0.0
C707 C 0.20347 0.21311 0.46227 0.0
C708 C 0.17059 0.22609 0.45347 0.0
C709 C 0.22961 0.23346 0.4804 0.0
C710 C 0.16424 0.25988 0.46272 0.0
C711 C 0.19028 0.28042 0.48048 0.0
H712 H 0.20439 0.77571 0.96033 0.0
H713 H 0.27215 0.81923 0.05254 0.0
H714 H 0.3223 0.79017 0.02191 0.0
H715 H 0.34622 0.74951 0.97133 0.0
H716 H 0.27818 0.70589 0.87963 0.0
H717 H 0.22887 0.73788 0.90776 0.0
C718 C 0.23013 0.77901 0.9737 0.0
C719 C 0.23433 0.79941 0.00895 0.0
C720 C 0.25883 0.76208 0.95611 0.0
C721 C 0.26803 0.80357 0.02555 0.0
C722 C 0.29677 0.78693 0.00807 0.0
C723 C 0.32074 0.74746 0.95713 0.0
C724 C 0.31582 0.72519 0.92359 0.0
C725 C 0.29239 0.76575 0.97366 0.0
C726 C 0.28253 0.72253 0.90578 0.0
C727 C 0.25434 0.74085 0.92179 0.0
loop_
_geom_bond_atom_site_label_1
_geom_bond_atom_site_label_2
_geom_bond_distance
_geom_bond_site_symmetry_2
_ccdc_geom_bond_type
Fe0 O2 1.918 . S
Fe0 O5 1.997 . S
Fe0 O6 2.002 . S
Fe0 O11 1.976 . S
Fe0 O14 1.996 . S
Fe1 O2 1.918 . S
Fe1 O9 1.997 . S
Fe1 O12 1.996 . S
Fe1 O16 1.976 1_554 S
Fe1 O19 2.002 . S
O2 Fe0 1.918 . S
O2 Fe1 1.918 . S
O2 Fe3 1.918 . S
Fe3 O2 1.918 . S
Fe3 O4 2.002 . S
Fe3 O13 1.976 . S
Fe3 O17 1.996 1_554 S
Fe3 O20 1.997 . S
O4 Fe3 2.002 . S
O4 C21 1.295 . S
O5 Fe0 1.997 . S
O5 C21 1.235 . S
O6 Fe0 2.002 . S
O6 C7 1.295 . S
C7 O6 1.295 . S
C7 O9 1.235 . S
C8 O13 1.287 . S
C8 O14 1.255 . S
O9 Fe1 1.997 . S
O9 C7 1.235 . S
C10 O16 1.287 . S
C10 O17 1.255 . S
O11 Fe0 1.976 . S
O11 C18 1.287 . S
O12 Fe1 1.996 . S
O12 C18 1.255 . S
O13 Fe3 1.976 . S
O13 C8 1.287 . S
O14 Fe0 1.996 . S
O14 C8 1.255 . S
C15 O19 1.295 . S
C15 O20 1.235 . S
O16 Fe1 1.976 1_556 S
O16 C10 1.287 . S
O17 Fe3 1.996 1_556 S
O17 C10 1.255 . S
C18 O11 1.287 . S
C18 O12 1.255 . S
O19 Fe1 2.002 . S
O19 C15 1.295 . S
O20 Fe3 1.997 . S
O20 C15 1.235 . S
C21 O4 1.295 . S
C21 O5 1.235 . S
Fe22 O24 1.918 . S
Fe22 O27 1.997 . S
Fe22 O28 2.002 . S
Fe22 O33 1.976 . S
Fe22 O36 1.996 . S
Fe23 O24 1.918 . S
Fe23 O31 1.997 . S
Fe23 O34 1.996 . S
Fe23 O38 1.976 . S
Fe23 O41 2.002 . S
O24 Fe22 1.918 . S
O24 Fe23 1.918 . S
O24 Fe25 1.918 . S
Fe25 O24 1.918 . S
Fe25 O26 2.002 . S
Fe25 O35 1.976 . S
Fe25 O39 1.996 . S
Fe25 O42 1.997 . S
O26 Fe25 2.002 . S
O26 C43 1.295 . S
O27 Fe22 1.997 . S
O27 C43 1.235 . S
O28 Fe22 2.002 . S
O28 C29 1.295 . S
C29 O28 1.295 . S
C29 O31 1.235 . S
C30 O35 1.287 . S
C30 O36 1.255 . S
O31 Fe23 1.997 . S
O31 C29 1.235 . S
C32 O38 1.287 . S
C32 O39 1.255 . S
O33 Fe22 1.976 . S
O33 C40 1.287 . S
O34 Fe23 1.996 . S
O34 C40 1.255 . S
O35 Fe25 1.976 . S
O35 C30 1.287 . S
O36 Fe22 1.996 . S
O36 C30 1.255 . S
C37 O41 1.295 . S
C37 O42 1.235 . S
O38 Fe23 1.976 . S
O38 C32 1.287 . S
O39 Fe25 1.996 . S
O39 C32 1.255 . S
C40 O33 1.287 . S
C40 O34 1.255 . S
O41 Fe23 2.002 . S
O41 C37 1.295 . S
O42 Fe25 1.997 . S
O42 C37 1.235 . S
C43 O26 1.295 . S
C43 O27 1.235 . S
Fe44 O46 1.918 . S
Fe44 O49 1.997 1_554 S
Fe44 O50 2.002 1_554 S
Fe44 O55 1.976 . S
Fe44 O58 1.996 . S
Fe45 O46 1.918 . S
Fe45 O53 1.997 1_554 S
Fe45 O56 1.996 . S
Fe45 O60 1.976 . S
Fe45 O63 2.002 1_554 S
O46 Fe44 1.918 . S
O46 Fe45 1.918 . S
O46 Fe47 1.918 1_554 S
Fe47 O46 1.918 1_556 S
Fe47 O48 2.002 . S
Fe47 O57 1.976 1_556 S
Fe47 O61 1.996 1_556 S
Fe47 O64 1.997 . S
O48 Fe47 2.002 . S
O48 C65 1.295 . S
O49 Fe44 1.997 1_556 S
O49 C65 1.235 . S
O50 Fe44 2.002 1_556 S
O50 C51 1.295 . S
C51 O50 1.295 . S
C51 O53 1.235 . S
C52 O57 1.287 . S
C52 O58 1.255 . S
O53 Fe45 1.997 1_556 S
O53 C51 1.235 . S
C54 O60 1.287 . S
C54 O61 1.255 . S
O55 Fe44 1.976 . S
O55 C62 1.287 . S
O56 Fe45 1.996 . S
O56 C62 1.255 . S
O57 Fe47 1.976 1_554 S
O57 C52 1.287 . S
O58 Fe44 1.996 . S
O58 C52 1.255 . S
C59 O63 1.295 . S
C59 O64 1.235 . S
O60 Fe45 1.976 . S
O60 C54 1.287 . S
O61 Fe47 1.996 1_554 S
O61 C54 1.255 . S
C62 O55 1.287 . S
C62 O56 1.255 . S
O63 Fe45 2.002 1_556 S
O63 C59 1.295 . S
O64 Fe47 1.997 . S
O64 C59 1.235 . S
C65 O48 1.295 . S
C65 O49 1.235 . S
Fe66 O68 1.918 . S
Fe66 O71 1.997 . S
Fe66 O72 2.002 . S
Fe66 O77 1.976 . S
Fe66 O80 1.996 . S
Fe67 O68 1.918 . S
Fe67 O75 1.997 . S
Fe67 O78 1.996 . S
Fe67 O82 1.976 . S
Fe67 O85 2.002 . S
O68 Fe66 1.918 . S
O68 Fe67 1.918 . S
O68 Fe69 1.918 . S
Fe69 O68 1.918 . S
Fe69 O70 2.002 . S
Fe69 O79 1.976 . S
Fe69 O83 1.996 . S
Fe69 O86 1.997 . S
O70 Fe69 2.002 . S
O70 C87 1.295 . S
O71 Fe66 1.997 . S
O71 C87 1.235 . S
O72 Fe66 2.002 . S
O72 C73 1.295 . S
C73 O72 1.295 . S
C73 O75 1.235 . S
C74 O79 1.287 . S
C74 O80 1.255 . S
O75 Fe67 1.997 . S
O75 C73 1.235 . S
C76 O82 1.287 . S
C76 O83 1.255 . S
O77 Fe66 1.976 . S
O77 C84 1.287 . S
O78 Fe67 1.996 . S
O78 C84 1.255 . S
O79 Fe69 1.976 . S
O79 C74 1.287 . S
O80 Fe66 1.996 . S
O80 C74 1.255 . S
C81 O85 1.295 . S
C81 O86 1.235 . S
O82 Fe67 1.976 . S
O82 C76 1.287 . S
O83 Fe69 1.996 . S
O83 C76 1.255 . S
C84 O77 1.287 . S
C84 O78 1.255 . S
O85 Fe67 2.002 . S
O85 C81 1.295 . S
O86 Fe69 1.997 . S
O86 C81 1.235 . S
C87 O70 1.295 . S
C87 O71 1.235 . S
P88 O99 1.490 . S
P88 C102 1.812 . S
P88 C108 1.803 . S
P88 C114 1.819 . S
H89 C103 0.941 . S
H90 C104 0.939 . S
H91 C106 0.940 . S
H92 C107 0.940 . S
H93 C109 0.939 . S
H94 C110 0.942 . S
H95 C112 0.940 . S
H96 C113 0.939 . S
H97 C115 0.941 . S
H98 C119 0.939 . S
O99 P88 1.490 . S
H100 C116 0.939 . S
H101 C118 0.940 . S
C102 P88 1.812 . S
C102 C103 1.389 . S
C102 C107 1.391 . S
C103 H89 0.941 . S
C103 C102 1.389 . S
C103 C104 1.397 . S
C104 H90 0.939 . S
C104 C103 1.397 . S
C104 C105 1.378 . S
C105 C104 1.378 . S
C105 C106 1.378 . S
C106 H91 0.940 . S
C106 C105 1.378 . S
C106 C107 1.396 . S
C107 H92 0.940 . S
C107 C102 1.391 . S
C107 C106 1.396 . S
C108 P88 1.803 . S
C108 C109 1.378 . S
C108 C113 1.400 . S
C109 H93 0.939 . S
C109 C108 1.378 . S
C109 C110 1.361 . S
C110 H94 0.942 . S
C110 C109 1.361 . S
C110 C111 1.369 . S
C111 C110 1.369 . S
C111 C112 1.404 . S
C112 H95 0.940 . S
C112 C111 1.404 . S
C112 C113 1.389 . S
C113 H96 0.939 . S
C113 C108 1.400 . S
C113 C112 1.389 . S
C114 P88 1.819 . S
C114 C115 1.391 1_455 S
C114 C119 1.391 . S
C115 H97 0.941 . S
C115 C114 1.391 1_655 S
C115 C116 1.396 . S
C116 H100 0.939 . S
C116 C115 1.396 . S
C116 C117 1.397 . S
C117 C116 1.397 . S
C117 C118 1.385 1_655 S
C118 H101 0.940 . S
C118 C117 1.385 1_455 S
C118 C119 1.388 . S
C119 H98 0.939 . S
C119 C114 1.391 . S
C119 C118 1.388 . S
P120 O131 1.490 . S
P120 C134 1.812 . S
P120 C140 1.803 . S
P120 C146 1.819 . S
H121 C135 0.941 . S
H122 C136 0.939 . S
H123 C138 0.940 . S
H124 C139 0.940 . S
H125 C141 0.939 . S
H126 C142 0.942 . S
H127 C144 0.940 . S
H128 C145 0.939 . S
H129 C147 0.941 . S
H130 C151 0.939 . S
O131 P120 1.490 . S
H132 C148 0.939 . S
H133 C150 0.940 . S
C134 P120 1.812 . S
C134 C135 1.389 . S
C134 C139 1.391 . S
C135 H121 0.941 . S
C135 C134 1.389 . S
C135 C136 1.397 . S
C136 H122 0.939 . S
C136 C135 1.397 . S
C136 C137 1.378 . S
C137 C136 1.378 . S
C137 C138 1.378 . S
C138 H123 0.940 . S
C138 C137 1.378 . S
C138 C139 1.396 . S
C139 H124 0.940 . S
C139 C134 1.391 . S
C139 C138 1.396 . S
C140 P120 1.803 . S
C140 C141 1.378 . S
C140 C145 1.400 . S
C141 H125 0.939 . S
C141 C140 1.378 . S
C141 C142 1.361 . S
C142 H126 0.942 . S
C142 C141 1.361 . S
C142 C143 1.369 . S
C143 C142 1.369 . S
C143 C144 1.404 . S
C144 H127 0.940 . S
C144 C143 1.404 . S
C144 C145 1.389 . S
C145 H128 0.939 . S
C145 C140 1.400 . S
C145 C144 1.389 . S
C146 P120 1.819 . S
C146 C147 1.391 . S
C146 C151 1.391 . S
C147 H129 0.941 . S
C147 C146 1.391 . S
C147 C148 1.396 . S
C148 H132 0.939 . S
C148 C147 1.396 . S
C148 C149 1.397 . S
C149 C148 1.397 . S
C149 C150 1.385 . S
C150 H133 0.940 . S
C150 C149 1.385 . S
C150 C151 1.388 . S
C151 H130 0.939 . S
C151 C146 1.391 . S
C151 C150 1.388 . S
P152 O163 1.490 . S
P152 C166 1.812 . S
P152 C172 1.803 . S
P152 C178 1.819 . S
H153 C167 0.941 . S
H154 C168 0.939 . S
H155 C170 0.940 . S
H156 C171 0.940 . S
H157 C173 0.939 . S
H158 C174 0.942 . S
H159 C176 0.940 . S
H160 C177 0.939 . S
H161 C179 0.941 . S
H162 C183 0.939 . S
O163 P152 1.490 . S
H164 C180 0.939 . S
H165 C182 0.940 . S
C166 P152 1.812 . S
C166 C167 1.389 . S
C166 C171 1.391 . S
C167 H153 0.941 . S
C167 C166 1.389 . S
C167 C168 1.397 . S
C168 H154 0.939 . S
C168 C167 1.397 . S
C168 C169 1.378 . S
C169 C168 1.378 . S
C169 C170 1.378 . S
C170 H155 0.940 . S
C170 C169 1.378 . S
C170 C171 1.396 . S
C171 H156 0.940 . S
C171 C166 1.391 . S
C171 C170 1.396 . S
C172 P152 1.803 . S
C172 C173 1.378 . S
C172 C177 1.400 . S
C173 H157 0.939 . S
C173 C172 1.378 . S
C173 C174 1.361 . S
C174 H158 0.942 . S
C174 C173 1.361 . S
C174 C175 1.369 . S
C175 C174 1.369 . S
C175 C176 1.404 . S
C176 H159 0.940 . S
C176 C175 1.404 . S
C176 C177 1.389 . S
C177 H160 0.939 . S
C177 C172 1.400 . S
C177 C176 1.389 . S
C178 P152 1.819 . S
C178 C179 1.391 . S
C178 C183 1.391 . S
C179 H161 0.941 . S
C179 C178 1.391 . S
C179 C180 1.396 . S
C180 H164 0.939 . S
C180 C179 1.396 . S
C180 C181 1.397 . S
C181 C180 1.397 . S
C181 C182 1.385 . S
C182 H165 0.940 . S
C182 C181 1.385 . S
C182 C183 1.388 . S
C183 H162 0.939 . S
C183 C178 1.391 . S
C183 C182 1.388 . S
P184 O195 1.490 . S
P184 C198 1.812 . S
P184 C204 1.803 . S
P184 C210 1.819 . S
H185 C199 0.941 . S
H186 C200 0.939 . S
H187 C202 0.940 . S
H188 C203 0.940 . S
H189 C205 0.939 . S
H190 C206 0.942 . S
H191 C208 0.940 . S
H192 C209 0.939 . S
H193 C211 0.941 . S
H194 C215 0.939 . S
O195 P184 1.490 . S
H196 C212 0.939 . S
H197 C214 0.940 . S
C198 P184 1.812 . S
C198 C199 1.389 . S
C198 C203 1.391 . S
C199 H185 0.941 . S
C199 C198 1.389 . S
C199 C200 1.397 . S
C200 H186 0.939 . S
C200 C199 1.397 . S
C200 C201 1.378 . S
C201 C200 1.378 . S
C201 C202 1.378 . S
C202 H187 0.940 . S
C202 C201 1.378 . S
C202 C203 1.396 . S
C203 H188 0.940 . S
C203 C198 1.391 . S
C203 C202 1.396 . S
C204 P184 1.803 . S
C204 C205 1.378 . S
C204 C209 1.400 . S
C205 H189 0.939 . S
C205 C204 1.378 . S
C205 C206 1.361 . S
C206 H190 0.942 . S
C206 C205 1.361 . S
C206 C207 1.369 . S
C207 C206 1.369 . S
C207 C208 1.404 . S
C208 H191 0.940 . S
C208 C207 1.404 . S
C208 C209 1.389 . S
C209 H192 0.939 . S
C209 C204 1.400 . S
C209 C208 1.389 . S
C210 P184 1.819 . S
C210 C211 1.391 . S
C210 C215 1.391 . S
C211 H193 0.941 . S
C211 C210 1.391 . S
C211 C212 1.396 . S
C212 H196 0.939 . S
C212 C211 1.396 . S
C212 C213 1.397 . S
C213 C212 1.397 . S
C213 C214 1.385 . S
C214 H197 0.940 . S
C214 C213 1.385 . S
C214 C215 1.388 . S
C215 H194 0.939 . S
C215 C210 1.391 . S
C215 C214 1.388 . S
P216 O227 1.490 . S
P216 C230 1.812 . S
P216 C236 1.803 . S
P216 C242 1.819 . S
H217 C231 0.941 . S
H218 C232 0.939 . S
H219 C234 0.940 . S
H220 C235 0.940 . S
H221 C237 0.939 . S
H222 C238 0.942 . S
H223 C240 0.940 . S
H224 C241 0.939 . S
H225 C243 0.941 . S
H226 C247 0.939 . S
O227 P216 1.490 . S
H228 C244 0.939 . S
H229 C246 0.940 . S
C230 P216 1.812 . S
C230 C231 1.389 . S
C230 C235 1.391 . S
C231 H217 0.941 . S
C231 C230 1.389 . S
C231 C232 1.397 . S
C232 H218 0.939 . S
C232 C231 1.397 . S
C232 C233 1.378 . S
C233 C232 1.378 . S
C233 C234 1.378 . S
C234 H219 0.940 . S
C234 C233 1.378 . S
C234 C235 1.396 . S
C235 H220 0.940 . S
C235 C230 1.391 . S
C235 C234 1.396 . S
C236 P216 1.803 . S
C236 C237 1.378 . S
C236 C241 1.400 . S
C237 H221 0.939 . S
C237 C236 1.378 . S
C237 C238 1.361 . S
C238 H222 0.942 . S
C238 C237 1.361 . S
C238 C239 1.369 . S
C239 C238 1.369 . S
C239 C240 1.404 . S
C240 H223 0.940 . S
C240 C239 1.404 . S
C240 C241 1.389 . S
C241 H224 0.939 . S
C241 C236 1.400 . S
C241 C240 1.389 . S
C242 P216 1.819 . S
C242 C243 1.391 . S
C242 C247 1.391 . S
C243 H225 0.941 . S
C243 C242 1.391 . S
C243 C244 1.396 . S
C244 H228 0.939 . S
C244 C243 1.396 . S
C244 C245 1.397 . S
C245 C244 1.397 . S
C245 C246 1.385 . S
C246 H229 0.940 . S
C246 C245 1.385 . S
C246 C247 1.388 . S
C247 H226 0.939 . S
C247 C242 1.391 . S
C247 C246 1.388 . S
P248 O259 1.490 . S
P248 C262 1.812 . S
P248 C268 1.803 . S
P248 C274 1.819 . S
H249 C263 0.941 . S
H250 C264 0.939 . S
H251 C266 0.940 . S
H252 C267 0.940 . S
H253 C269 0.939 . S
H254 C270 0.942 . S
H255 C272 0.940 . S
H256 C273 0.939 . S
H257 C275 0.941 1_554 S
H258 C279 0.939 . S
O259 P248 1.490 . S
H260 C276 0.939 1_554 S
H261 C278 0.940 . S
C262 P248 1.812 . S
C262 C263 1.389 . S
C262 C267 1.391 . S
C263 H249 0.941 . S
C263 C262 1.389 . S
C263 C264 1.397 . S
C264 H250 0.939 . S
C264 C263 1.397 . S
C264 C265 1.378 . S
C265 C264 1.378 . S
C265 C266 1.378 . S
C266 H251 0.940 . S
C266 C265 1.378 . S
C266 C267 1.396 . S
C267 H252 0.940 . S
C267 C262 1.391 . S
C267 C266 1.396 . S
C268 P248 1.803 . S
C268 C269 1.378 . S
C268 C273 1.400 . S
C269 H253 0.939 . S
C269 C268 1.378 . S
C269 C270 1.361 . S
C270 H254 0.942 . S
C270 C269 1.361 . S
C270 C271 1.369 . S
C271 C270 1.369 . S
C271 C272 1.404 . S
C272 H255 0.940 . S
C272 C271 1.404 . S
C272 C273 1.389 . S
C273 H256 0.939 . S
C273 C268 1.400 . S
C273 C272 1.389 . S
C274 P248 1.819 . S
C274 C275 1.391 . S
C274 C279 1.391 . S
C275 H257 0.941 1_556 S
C275 C274 1.391 . S
C275 C276 1.396 . S
C276 H260 0.939 1_556 S
C276 C275 1.396 . S
C276 C277 1.397 . S
C277 C276 1.397 . S
C277 C278 1.385 . S
C278 H261 0.940 . S
C278 C277 1.385 . S
C278 C279 1.388 . S
C279 H258 0.939 . S
C279 C274 1.391 . S
C279 C278 1.388 . S
P280 O291 1.490 . S
P280 C294 1.812 . S
P280 C300 1.803 . S
P280 C306 1.819 . S
H281 C295 0.941 . S
H282 C296 0.939 . S
H283 C298 0.940 . S
H284 C299 0.940 . S
H285 C301 0.939 . S
H286 C302 0.942 . S
H287 C304 0.940 . S
H288 C305 0.939 . S
H289 C307 0.941 . S
H290 C311 0.939 . S
O291 P280 1.490 . S
H292 C308 0.939 . S
H293 C310 0.940 . S
C294 P280 1.812 . S
C294 C295 1.389 . S
C294 C299 1.391 . S
C295 H281 0.941 . S
C295 C294 1.389 . S
C295 C296 1.397 . S
C296 H282 0.939 . S
C296 C295 1.397 . S
C296 C297 1.378 . S
C297 C296 1.378 . S
C297 C298 1.378 . S
C298 H283 0.940 . S
C298 C297 1.378 . S
C298 C299 1.396 . S
C299 H284 0.940 . S
C299 C294 1.391 . S
C299 C298 1.396 . S
C300 P280 1.803 . S
C300 C301 1.378 . S
C300 C305 1.400 . S
C301 H285 0.939 . S
C301 C300 1.378 . S
C301 C302 1.361 . S
C302 H286 0.942 . S
C302 C301 1.361 . S
C302 C303 1.369 . S
C303 C302 1.369 . S
C303 C304 1.404 . S
C304 H287 0.940 . S
C304 C303 1.404 . S
C304 C305 1.389 . S
C305 H288 0.939 . S
C305 C300 1.400 . S
C305 C304 1.389 . S
C306 P280 1.819 . S
C306 C307 1.391 . S
C306 C311 1.391 . S
C307 H289 0.941 . S
C307 C306 1.391 . S
C307 C308 1.396 . S
C308 H292 0.939 . S
C308 C307 1.396 . S
C308 C309 1.397 . S
C309 C308 1.397 . S
C309 C310 1.385 . S
C310 H293 0.940 . S
C310 C309 1.385 . S
C310 C311 1.388 . S
C311 H290 0.939 . S
C311 C306 1.391 . S
C311 C310 1.388 . S
P312 O323 1.490 . S
P312 C326 1.812 . S
P312 C332 1.803 . S
P312 C338 1.819 . S
H313 C327 0.941 . S
H314 C328 0.939 . S
H315 C330 0.940 . S
H316 C331 0.940 . S
H317 C333 0.939 . S
H318 C334 0.942 . S
H319 C336 0.940 . S
H320 C337 0.939 . S
H321 C339 0.941 . S
H322 C343 0.939 . S
O323 P312 1.490 . S
H324 C340 0.939 . S
H325 C342 0.940 1_455 S
C326 P312 1.812 . S
C326 C327 1.389 . S
C326 C331 1.391 . S
C327 H313 0.941 . S
C327 C326 1.389 . S
C327 C328 1.397 . S
C328 H314 0.939 . S
C328 C327 1.397 . S
C328 C329 1.378 . S
C329 C328 1.378 . S
C329 C330 1.378 . S
C330 H315 0.940 . S
C330 C329 1.378 . S
C330 C331 1.396 . S
C331 H316 0.940 . S
C331 C326 1.391 . S
C331 C330 1.396 . S
C332 P312 1.803 . S
C332 C333 1.378 . S
C332 C337 1.400 . S
C333 H317 0.939 . S
C333 C332 1.378 . S
C333 C334 1.361 . S
C334 H318 0.942 . S
C334 C333 1.361 . S
C334 C335 1.369 . S
C335 C334 1.369 . S
C335 C336 1.404 . S
C336 H319 0.940 . S
C336 C335 1.404 . S
C336 C337 1.389 . S
C337 H320 0.939 . S
C337 C332 1.400 . S
C337 C336 1.389 . S
C338 P312 1.819 . S
C338 C339 1.391 . S
C338 C343 1.391 . S
C339 H321 0.941 . S
C339 C338 1.391 . S
C339 C340 1.396 . S
C340 H324 0.939 . S
C340 C339 1.396 . S
C340 C341 1.397 1_655 S
C341 C340 1.397 1_455 S
C341 C342 1.385 1_455 S
C342 H325 0.940 1_655 S
C342 C341 1.385 1_655 S
C342 C343 1.388 . S
C343 H322 0.939 . S
C343 C338 1.391 . S
C343 C342 1.388 . S
H344 C350 0.930 . S
H345 C353 0.930 . S
H346 C354 0.930 . S
H347 C355 0.913 1_545 S
H348 C358 0.930 . S
H349 C359 0.930 . S
C350 H344 0.930 . S
C350 C351 1.355 . S
C350 C352 1.415 . S
C351 C350 1.355 . S
C351 C353 1.419 . S
C352 C350 1.415 . S
C352 C357 1.425 . S
C352 C359 1.409 . S
C353 H345 0.930 . S
C353 C351 1.419 . S
C353 C354 1.362 . S
C354 H346 0.930 . S
C354 C353 1.362 . S
C354 C357 1.409 . S
C355 H347 0.913 1_565 S
C355 C356 1.357 . S
C355 C357 1.428 . S
C356 C355 1.357 . S
C356 C358 1.419 . S
C357 C352 1.425 . S
C357 C354 1.409 . S
C357 C355 1.428 . S
C358 H348 0.930 . S
C358 C356 1.419 . S
C358 C359 1.362 . S
C359 H349 0.930 . S
C359 C352 1.409 . S
C359 C358 1.362 . S
H360 C366 0.930 . S
H361 C369 0.930 . S
H362 C370 0.930 . S
H363 C371 0.930 . S
H364 C374 0.930 . S
H365 C375 0.930 . S
C366 H360 0.930 . S
C366 C367 1.355 . S
C366 C368 1.415 . S
C367 C366 1.355 . S
C367 C369 1.419 . S
C368 C366 1.415 . S
C368 C373 1.425 . S
C368 C375 1.409 . S
C369 H361 0.930 . S
C369 C367 1.419 . S
C369 C370 1.362 . S
C370 H362 0.930 . S
C370 C369 1.362 . S
C370 C373 1.409 . S
C371 H363 0.930 . S
C371 C372 1.355 . S
C371 C373 1.415 . S
C372 C371 1.355 . S
C372 C374 1.419 . S
C373 C368 1.425 . S
C373 C370 1.409 . S
C373 C371 1.415 . S
C374 H364 0.930 . S
C374 C372 1.419 . S
C374 C375 1.362 . S
C375 H365 0.930 . S
C375 C368 1.409 . S
C375 C374 1.362 . S
H376 C382 0.930 . S
H377 C385 0.930 1_556 S
H378 C386 0.941 1_565 S
H379 C387 0.930 . S
H380 C390 0.930 . S
H381 C391 0.930 . S
C382 H376 0.930 . S
C382 C383 1.355 . S
C382 C384 1.415 . S
C383 C382 1.355 . S
C383 C385 1.419 . S
C384 C382 1.415 . S
C384 C389 1.422 1_545 S
C384 C391 1.409 . S
C385 H377 0.930 1_554 S
C385 C383 1.419 . S
C385 C386 1.362 . S
C386 H378 0.941 1_545 S
C386 C385 1.362 . S
C386 C389 1.408 1_545 S
C387 H379 0.930 . S
C387 C388 1.355 . S
C387 C389 1.419 . S
C388 C387 1.355 . S
C388 C390 1.419 . S
C389 C384 1.422 1_565 S
C389 C386 1.408 1_565 S
C389 C387 1.419 . S
C390 H380 0.930 . S
C390 C388 1.419 . S
C390 C391 1.362 1_565 S
C391 H381 0.930 . S
C391 C384 1.409 . S
C391 C390 1.362 1_545 S
H392 C398 0.930 . S
H393 C401 0.930 . S
H394 C402 0.930 . S
H395 C403 0.930 . S
H396 C406 0.930 . S
H397 C407 0.930 . S
C398 H392 0.930 . S
C398 C399 1.355 . S
C398 C400 1.415 . S
C399 C398 1.355 . S
C399 C401 1.419 . S
C400 C398 1.415 . S
C400 C405 1.425 . S
C400 C407 1.409 . S
C401 H393 0.930 . S
C401 C399 1.419 . S
C401 C402 1.362 . S
C402 H394 0.930 . S
C402 C401 1.362 . S
C402 C405 1.409 . S
C403 H395 0.930 . S
C403 C404 1.355 . S
C403 C405 1.415 . S
C404 C403 1.355 . S
C404 C406 1.419 . S
C405 C400 1.425 . S
C405 C402 1.409 . S
C405 C403 1.415 . S
C406 H396 0.930 . S
C406 C404 1.419 . S
C406 C407 1.362 . S
C407 H397 0.930 . S
C407 C400 1.409 . S
C407 C406 1.362 . S
H408 C414 0.930 . S
H409 C417 0.930 . S
H410 C418 0.930 . S
H411 C419 0.930 . S
H412 C422 0.930 . S
H413 C423 0.930 . S
C414 H408 0.930 . S
C414 C415 1.355 . S
C414 C416 1.415 . S
C415 C414 1.355 . S
C415 C417 1.419 . S
C416 C414 1.415 . S
C416 C421 1.425 . S
C416 C423 1.409 . S
C417 H409 0.930 . S
C417 C415 1.419 . S
C417 C418 1.362 . S
C418 H410 0.930 . S
C418 C417 1.362 . S
C418 C421 1.409 . S
C419 H411 0.930 . S
C419 C420 1.355 . S
C419 C421 1.415 . S
C420 C419 1.355 . S
C420 C422 1.419 . S
C421 C416 1.425 . S
C421 C418 1.409 . S
C421 C419 1.415 . S
C422 H412 0.930 . S
C422 C420 1.419 . S
C422 C423 1.362 . S
C423 H413 0.930 . S
C423 C416 1.409 . S
C423 C422 1.362 . S
H424 C430 0.930 . S
H425 C433 0.930 . S
H426 C434 0.930 . S
H427 C435 0.930 . S
H428 C438 0.930 . S
H429 C439 0.930 . S
C430 H424 0.930 . S
C430 C431 1.355 . S
C430 C432 1.415 1_655 S
C431 C430 1.355 . S
C431 C433 1.419 . S
C432 C430 1.415 1_455 S
C432 C437 1.425 . S
C432 C439 1.409 . S
C433 H425 0.930 . S
C433 C431 1.419 . S
C433 C434 1.362 1_655 S
C434 H426 0.930 . S
C434 C433 1.362 1_455 S
C434 C437 1.409 . S
C435 H427 0.930 . S
C435 C436 1.355 . S
C435 C437 1.415 . S
C436 C435 1.355 . S
C436 C438 1.419 . S
C437 C432 1.425 . S
C437 C434 1.409 . S
C437 C435 1.415 . S
C438 H428 0.930 . S
C438 C436 1.419 . S
C438 C439 1.362 . S
C439 H429 0.930 . S
C439 C432 1.409 . S
C439 C438 1.362 . S
H440 C446 0.930 . S
H441 C449 0.930 . S
H442 C450 0.930 . S
H443 C451 0.930 . S
H444 C454 0.930 . S
H445 C455 0.930 . S
C446 H440 0.930 . S
C446 C447 1.355 . S
C446 C448 1.415 . S
C447 C446 1.355 . S
C447 C449 1.419 . S
C448 C446 1.415 . S
C448 C453 1.425 . S
C448 C455 1.409 . S
C449 H441 0.930 . S
C449 C447 1.419 . S
C449 C450 1.362 . S
C450 H442 0.930 . S
C450 C449 1.362 . S
C450 C453 1.409 . S
C451 H443 0.930 . S
C451 C452 1.355 . S
C451 C453 1.415 . S
C452 C451 1.355 . S
C452 C454 1.419 . S
C453 C448 1.425 . S
C453 C450 1.409 . S
C453 C451 1.415 . S
C454 H444 0.930 . S
C454 C452 1.419 . S
C454 C455 1.362 . S
C455 H445 0.930 . S
C455 C448 1.409 . S
C455 C454 1.362 . S
H456 C462 0.930 . S
H457 C465 0.930 . S
H458 C466 0.930 . S
H459 C467 0.930 . S
H460 C470 0.930 . S
H461 C471 0.930 . S
C462 H456 0.930 . S
C462 C463 1.355 . S
C462 C464 1.415 . S
C463 C462 1.355 . S
C463 C465 1.419 . S
C464 C462 1.415 . S
C464 C469 1.425 . S
C464 C471 1.409 . S
C465 H457 0.930 . S
C465 C463 1.419 . S
C465 C466 1.362 . S
C466 H458 0.930 . S
C466 C465 1.362 . S
C466 C469 1.409 . S
C467 H459 0.930 . S
C467 C468 1.355 . S
C467 C469 1.415 . S
C468 C467 1.355 . S
C468 C470 1.419 . S
C469 C464 1.425 . S
C469 C466 1.409 . S
C469 C467 1.415 . S
C470 H460 0.930 . S
C470 C468 1.419 . S
C470 C471 1.362 . S
C471 H461 0.930 . S
C471 C464 1.409 . S
C471 C470 1.362 . S
H472 C478 0.930 . S
H473 C481 0.930 . S
H474 C482 0.930 . S
H475 C483 0.930 . S
H476 C486 0.930 1_565 S
H477 C487 0.930 . S
C478 H472 0.930 . S
C478 C479 1.355 . S
C478 C480 1.415 . S
C479 C478 1.355 . S
C479 C481 1.419 . S
C480 C478 1.415 . S
C480 C485 1.425 . S
C480 C487 1.409 . S
C481 H473 0.930 . S
C481 C479 1.419 . S
C481 C482 1.362 . S
C482 H474 0.930 . S
C482 C481 1.362 . S
C482 C485 1.409 . S
C483 H475 0.930 . S
C483 C484 1.355 1_545 S
C483 C485 1.415 . S
C484 C483 1.355 1_565 S
C484 C486 1.419 1_565 S
C485 C480 1.425 . S
C485 C482 1.409 . S
C485 C483 1.415 . S
C486 H476 0.930 1_545 S
C486 C484 1.419 1_545 S
C486 C487 1.362 . S
C487 H477 0.930 . S
C487 C480 1.409 . S
C487 C486 1.362 . S
H488 C494 0.930 . S
H489 C497 0.930 . S
H490 C498 0.930 . S
H491 C499 0.930 . S
H492 C502 0.930 . S
H493 C503 0.930 . S
C494 H488 0.930 . S
C494 C495 1.355 . S
C494 C496 1.415 . S
C495 C494 1.355 . S
C495 C497 1.419 . S
C496 C494 1.415 . S
C496 C501 1.425 . S
C496 C503 1.409 . S
C497 H489 0.930 . S
C497 C495 1.419 . S
C497 C498 1.362 . S
C498 H490 0.930 . S
C498 C497 1.362 . S
C498 C501 1.409 . S
C499 H491 0.930 . S
C499 C500 1.355 . S
C499 C501 1.415 . S
C500 C499 1.355 . S
C500 C502 1.419 . S
C501 C496 1.425 . S
C501 C498 1.409 . S
C501 C499 1.415 . S
C502 H492 0.930 . S
C502 C500 1.419 . S
C502 C503 1.362 . S
C503 H493 0.930 . S
C503 C496 1.409 . S
C503 C502 1.362 . S
H504 C510 0.930 . S
H505 C513 0.930 . S
H506 C514 0.930 . S
H507 C515 0.930 1_554 S
H508 C518 0.930 . S
H509 C519 0.930 . S
C510 H504 0.930 . S
C510 C511 1.355 1_556 S
C510 C512 1.415 . S
C511 C510 1.355 1_554 S
C511 C513 1.419 . S
C512 C510 1.415 . S
C512 C517 1.425 1_556 S
C512 C519 1.409 1_565 S
C513 H505 0.930 . S
C513 C511 1.419 . S
C513 C514 1.362 . S
C514 H506 0.930 . S
C514 C513 1.362 . S
C514 C517 1.409 . S
C515 H507 0.930 1_556 S
C515 C516 1.355 . S
C515 C517 1.415 1_546 S
C516 C515 1.355 . S
C516 C518 1.419 . S
C517 C512 1.425 1_554 S
C517 C514 1.409 . S
C517 C515 1.415 1_564 S
C518 H508 0.930 . S
C518 C516 1.419 . S
C518 C519 1.362 . S
C519 H509 0.930 . S
C519 C512 1.409 1_545 S
C519 C518 1.362 . S
H520 C526 0.930 . S
H521 C529 0.930 . S
H522 C530 0.930 . S
H523 C531 0.930 . S
H524 C534 0.930 . S
H525 C535 0.930 . S
C526 H520 0.930 . S
C526 C527 1.355 . S
C526 C528 1.415 . S
C527 C526 1.355 . S
C527 C529 1.419 . S
C528 C526 1.415 . S
C528 C533 1.425 . S
C528 C535 1.409 . S
C529 H521 0.930 . S
C529 C527 1.419 . S
C529 C530 1.362 . S
C530 H522 0.930 . S
C530 C529 1.362 . S
C530 C533 1.409 . S
C531 H523 0.930 . S
C531 C532 1.355 . S
C531 C533 1.415 . S
C532 C531 1.355 . S
C532 C534 1.419 . S
C533 C528 1.425 . S
C533 C530 1.409 . S
C533 C531 1.415 . S
C534 H524 0.930 . S
C534 C532 1.419 . S
C534 C535 1.362 . S
C535 H525 0.930 . S
C535 C528 1.409 . S
C535 C534 1.362 . S
H536 C542 0.930 . S
H537 C545 0.930 . S
H538 C546 0.930 . S
H539 C547 0.930 . S
H540 C550 0.930 . S
H541 C551 0.930 . S
C542 H536 0.930 . S
C542 C543 1.355 . S
C542 C544 1.415 . S
C543 C542 1.355 . S
C543 C545 1.419 . S
C544 C542 1.415 . S
C544 C549 1.425 . S
C544 C551 1.409 . S
C545 H537 0.930 . S
C545 C543 1.419 . S
C545 C546 1.362 . S
C546 H538 0.930 . S
C546 C545 1.362 . S
C546 C549 1.409 . S
C547 H539 0.930 . S
C547 C548 1.355 . S
C547 C549 1.415 . S
C548 C547 1.355 . S
C548 C550 1.419 . S
C549 C544 1.425 . S
C549 C546 1.409 . S
C549 C547 1.415 . S
C550 H540 0.930 . S
C550 C548 1.419 . S
C550 C551 1.362 . S
C551 H541 0.930 . S
C551 C544 1.409 . S
C551 C550 1.362 . S
H552 C558 0.930 . S
H553 C561 0.930 . S
H554 C562 0.930 . S
H555 C563 0.930 . S
H556 C566 0.930 . S
H557 C567 0.930 . S
C558 H552 0.930 . S
C558 C559 1.355 . S
C558 C560 1.415 1_455 S
C559 C558 1.355 . S
C559 C561 1.419 . S
C560 C558 1.415 1_655 S
C560 C565 1.425 . S
C560 C567 1.409 . S
C561 H553 0.930 . S
C561 C559 1.419 . S
C561 C562 1.362 1_455 S
C562 H554 0.930 . S
C562 C561 1.362 1_655 S
C562 C565 1.409 . S
C563 H555 0.930 . S
C563 C564 1.355 . S
C563 C565 1.415 . S
C564 C563 1.355 . S
C564 C566 1.419 . S
C565 C560 1.425 . S
C565 C562 1.409 . S
C565 C563 1.415 . S
C566 H556 0.930 . S
C566 C564 1.419 . S
C566 C567 1.362 . S
C567 H557 0.930 . S
C567 C560 1.409 . S
C567 C566 1.362 . S
H568 C574 0.930 . S
H569 C577 0.930 . S
H570 C578 0.930 . S
H571 C579 0.930 . S
H572 C582 0.930 . S
H573 C583 0.930 . S
C574 H568 0.930 . S
C574 C575 1.355 . S
C574 C576 1.415 . S
C575 C574 1.355 . S
C575 C577 1.419 . S
C576 C574 1.415 . S
C576 C581 1.425 . S
C576 C583 1.409 . S
C577 H569 0.930 . S
C577 C575 1.419 . S
C577 C578 1.362 . S
C578 H570 0.930 . S
C578 C577 1.362 . S
C578 C581 1.409 . S
C579 H571 0.930 . S
C579 C580 1.355 . S
C579 C581 1.415 . S
C580 C579 1.355 . S
C580 C582 1.419 . S
C581 C576 1.425 . S
C581 C578 1.409 . S
C581 C579 1.415 . S
C582 H572 0.930 . S
C582 C580 1.419 . S
C582 C583 1.362 . S
C583 H573 0.930 . S
C583 C576 1.409 . S
C583 C582 1.362 . S
H584 C590 0.930 . S
H585 C593 0.930 . S
H586 C594 0.930 . S
H587 C595 0.930 . S
H588 C598 0.930 . S
H589 C599 0.930 . S
C590 H584 0.930 . S
C590 C591 1.355 . S
C590 C592 1.415 . S
C591 C590 1.355 . S
C591 C593 1.419 . S
C592 C590 1.415 . S
C592 C597 1.425 . S
C592 C599 1.409 . S
C593 H585 0.930 . S
C593 C591 1.419 . S
C593 C594 1.362 . S
C594 H586 0.930 . S
C594 C593 1.362 . S
C594 C597 1.409 . S
C595 H587 0.930 . S
C595 C596 1.355 . S
C595 C597 1.415 . S
C596 C595 1.355 . S
C596 C598 1.419 . S
C597 C592 1.425 . S
C597 C594 1.409 . S
C597 C595 1.415 . S
C598 H588 0.930 . S
C598 C596 1.419 . S
C598 C599 1.362 . S
C599 H589 0.930 . S
C599 C592 1.409 . S
C599 C598 1.362 . S
H600 C606 0.930 . S
H601 C609 0.930 . S
H602 C610 0.930 . S
H603 C611 0.930 . S
H604 C614 0.930 . S
H605 C615 0.930 . S
C606 H600 0.930 . S
C606 C607 1.355 . S
C606 C608 1.415 . S
C607 C606 1.355 . S
C607 C609 1.419 . S
C608 C606 1.415 . S
C608 C613 1.425 . S
C608 C615 1.409 . S
C609 H601 0.930 . S
C609 C607 1.419 . S
C609 C610 1.362 . S
C610 H602 0.930 . S
C610 C609 1.362 . S
C610 C613 1.409 . S
C611 H603 0.930 . S
C611 C612 1.355 . S
C611 C613 1.415 . S
C612 C611 1.355 . S
C612 C614 1.419 . S
C613 C608 1.425 . S
C613 C610 1.409 . S
C613 C611 1.415 . S
C614 H604 0.930 . S
C614 C612 1.419 . S
C614 C615 1.362 . S
C615 H605 0.930 . S
C615 C608 1.409 . S
C615 C614 1.362 . S
H616 C622 0.930 . S
H617 C625 0.930 . S
H618 C626 0.930 . S
H619 C627 0.930 . S
H620 C630 0.930 . S
H621 C631 0.930 . S
C622 H616 0.930 . S
C622 C623 1.355 . S
C622 C624 1.415 . S
C623 C622 1.355 . S
C623 C625 1.419 . S
C624 C622 1.415 . S
C624 C629 1.425 . S
C624 C631 1.409 . S
C625 H617 0.930 . S
C625 C623 1.419 . S
C625 C626 1.362 . S
C626 H618 0.930 . S
C626 C625 1.362 . S
C626 C629 1.409 . S
C627 H619 0.930 . S
C627 C628 1.355 . S
C627 C629 1.415 . S
C628 C627 1.355 . S
C628 C630 1.419 . S
C629 C624 1.425 . S
C629 C626 1.409 . S
C629 C627 1.415 . S
C630 H620 0.930 . S
C630 C628 1.419 . S
C630 C631 1.362 . S
C631 H621 0.930 . S
C631 C624 1.409 . S
C631 C630 1.362 . S
H632 C638 0.930 . S
H633 C641 0.930 . S
H634 C642 0.930 . S
H635 C643 0.930 . S
H636 C646 0.930 . S
H637 C647 0.930 . S
C638 H632 0.930 . S
C638 C639 1.355 . S
C638 C640 1.415 . S
C639 C638 1.355 . S
C639 C641 1.419 . S
C640 C638 1.415 . S
C640 C645 1.425 . S
C640 C647 1.409 . S
C641 H633 0.930 . S
C641 C639 1.419 . S
C641 C642 1.362 . S
C642 H634 0.930 . S
C642 C641 1.362 . S
C642 C645 1.409 . S
C643 H635 0.930 . S
C643 C644 1.355 . S
C643 C645 1.415 . S
C644 C643 1.355 . S
C644 C646 1.419 . S
C645 C640 1.425 . S
C645 C642 1.409 . S
C645 C643 1.415 . S
C646 H636 0.930 . S
C646 C644 1.419 . S
C646 C647 1.362 . S
C647 H637 0.930 . S
C647 C640 1.409 . S
C647 C646 1.362 . S
H648 C654 0.930 . S
H649 C657 0.930 . S
H650 C658 0.930 . S
H651 C659 0.930 . S
H652 C662 0.930 . S
H653 C663 0.930 . S
C654 H648 0.930 . S
C654 C655 1.355 . S
C654 C656 1.415 . S
C655 C654 1.355 . S
C655 C657 1.419 . S
C656 C654 1.415 . S
C656 C661 1.425 . S
C656 C663 1.409 . S
C657 H649 0.930 . S
C657 C655 1.419 . S
C657 C658 1.362 . S
C658 H650 0.930 . S
C658 C657 1.362 . S
C658 C661 1.409 . S
C659 H651 0.930 . S
C659 C660 1.355 . S
C659 C661 1.415 . S
C660 C659 1.355 . S
C660 C662 1.419 . S
C661 C656 1.425 . S
C661 C658 1.409 . S
C661 C659 1.415 . S
C662 H652 0.930 . S
C662 C660 1.419 . S
C662 C663 1.362 . S
C663 H653 0.930 . S
C663 C656 1.409 . S
C663 C662 1.362 . S
H664 C670 0.930 . S
H665 C673 0.930 . S
H666 C674 0.930 . S
H667 C675 0.930 . S
H668 C678 0.930 . S
H669 C679 0.930 . S
C670 H664 0.930 . S
C670 C671 1.355 . S
C670 C672 1.415 . S
C671 C670 1.355 . S
C671 C673 1.419 . S
C672 C670 1.415 . S
C672 C677 1.425 . S
C672 C679 1.409 . S
C673 H665 0.930 . S
C673 C671 1.419 . S
C673 C674 1.362 . S
C674 H666 0.930 . S
C674 C673 1.362 . S
C674 C677 1.409 . S
C675 H667 0.930 . S
C675 C676 1.355 . S
C675 C677 1.415 . S
C676 C675 1.355 . S
C676 C678 1.419 . S
C677 C672 1.425 . S
C677 C674 1.409 . S
C677 C675 1.415 . S
C678 H668 0.930 . S
C678 C676 1.419 . S
C678 C679 1.362 . S
C679 H669 0.930 . S
C679 C672 1.409 . S
C679 C678 1.362 . S
H680 C686 0.930 . S
H681 C689 0.930 . S
H682 C690 0.930 . S
H683 C691 0.930 . S
H684 C694 0.930 . S
H685 C695 0.930 . S
C686 H680 0.930 . S
C686 C687 1.355 . S
C686 C688 1.415 . S
C687 C686 1.355 . S
C687 C689 1.419 . S
C688 C686 1.415 . S
C688 C693 1.425 . S
C688 C695 1.409 . S
C689 H681 0.930 . S
C689 C687 1.419 . S
C689 C690 1.362 . S
C690 H682 0.930 . S
C690 C689 1.362 . S
C690 C693 1.409 . S
C691 H683 0.930 . S
C691 C692 1.355 . S
C691 C693 1.415 . S
C692 C691 1.355 . S
C692 C694 1.419 . S
C693 C688 1.425 . S
C693 C690 1.409 . S
C693 C691 1.415 . S
C694 H684 0.930 . S
C694 C692 1.419 . S
C694 C695 1.362 . S
C695 H685 0.930 . S
C695 C688 1.409 . S
C695 C694 1.362 . S
H696 C702 0.930 . S
H697 C705 0.930 . S
H698 C706 0.930 . S
H699 C707 0.930 . S
H700 C710 0.930 . S
H701 C711 0.930 . S
C702 H696 0.930 . S
C702 C703 1.355 . S
C702 C704 1.415 . S
C703 C702 1.355 . S
C703 C705 1.419 . S
C704 C702 1.415 . S
C704 C709 1.425 . S
C704 C711 1.409 . S
C705 H697 0.930 . S
C705 C703 1.419 . S
C705 C706 1.362 . S
C706 H698 0.930 . S
C706 C705 1.362 . S
C706 C709 1.409 . S
C707 H699 0.930 . S
C707 C708 1.355 . S
C707 C709 1.415 . S
C708 C707 1.355 . S
C708 C710 1.419 . S
C709 C704 1.425 . S
C709 C706 1.409 . S
C709 C707 1.415 . S
C710 H700 0.930 . S
C710 C708 1.419 . S
C710 C711 1.362 . S
C711 H701 0.930 . S
C711 C704 1.409 . S
C711 C710 1.362 . S
H712 C718 0.930 . S
H713 C721 0.930 1_554 S
H714 C722 0.930 . S
H715 C723 0.930 . S
H716 C726 0.930 . S
H717 C727 0.930 . S
C718 H712 0.930 . S
C718 C719 1.350 1_556 S
C718 C720 1.415 . S
C719 C718 1.350 1_554 S
C719 C721 1.415 1_554 S
C720 C718 1.415 . S
C720 C725 1.425 . S
C720 C727 1.409 . S
C721 H713 0.930 1_556 S
C721 C719 1.415 1_556 S
C721 C722 1.362 . S
C722 H714 0.930 . S
C722 C721 1.362 . S
C722 C725 1.409 . S
C723 H715 0.930 . S
C723 C724 1.355 . S
C723 C725 1.415 . S
C724 C723 1.355 . S
C724 C726 1.419 . S
C725 C720 1.425 . S
C725 C722 1.409 . S
C725 C723 1.415 . S
C726 H716 0.930 . S
C726 C724 1.419 . S
C726 C727 1.362 . S
C727 H717 0.930 . S
C727 C720 1.409 . S
C727 C726 1.362 . S
C351 C7 1.541 . S
C356 C105 1.555 1_565 S
C367 C37 1.427 . S
C372 C137 1.429 . S
C383 C54 1.616 . S
C388 C169 1.464 . S
C404 C213 1.490 . S
C399 C87 1.500 . S
C420 C233 1.468 . S
C415 C30 1.455 . S
C431 C51 1.512 . S
C436 C277 1.540 . S
C447 C84 1.638 . S
C452 C297 1.458 . S
C463 C10 1.429 . S
C468 C341 1.319 . S
C479 C59 1.541 . S
C484 C329 1.439 . S
C500 C245 1.436 . S
C495 C74 1.460 . S
C516 C265 1.602 . S
C511 C18 1.677 . S
C527 C32 1.471 . S
C532 C309 1.410 . S
C548 C149 1.576 . S
C543 C73 1.567 . S
C559 C15 1.500 . S
C564 C181 1.437 . S
C580 C201 1.648 . S
C575 C43 1.681 . S
C596 C117 1.439 . S
C591 C62 1.423 . S
C612 C303 1.351 . S
C607 C21 1.552 . S
C628 C335 1.232 . S
C623 C29 1.363 . S
C639 C52 1.363 . S
C644 C239 1.339 . S
C660 C271 1.578 . S
C655 C81 1.567 . S
C676 C175 1.330 . S
C671 C40 1.512 . S
C687 C65 1.525 . S
C692 C207 1.535 . S
C708 C111 1.384 . S
C703 C76 1.367 . S
C724 C143 1.377 . S
C719 C8 1.382 . S
