# Generated by pormake.
# Topology eea, (3,6)-cn, num edge types: 1
# Building blocks:
#     Node 0, Type 0, BuildingBlock: BELTOD_clean_linker_0, # of connection points: 3
#     Node 1, Type 0, BuildingBlock: BELTOD_clean_linker_0, # of connection points: 3
#     Node 2, Type 0, BuildingBlock: BELTOD_clean_linker_0, # of connection points: 3
#     Node 3, Type 0, BuildingBlock: BELTOD_clean_linker_0, # of connection points: 3
#     Node 4, Type 0, BuildingBlock: BELTOD_clean_linker_0, # of connection points: 3
#     Node 5, Type 0, BuildingBlock: BELTOD_clean_linker_0, # of connection points: 3
#     Node 6, Type 0, BuildingBlock: BELTOD_clean_linker_0, # of connection points: 3
#     Node 7, Type 0, BuildingBlock: BELTOD_clean_linker_0, # of connection points: 3
#     Node 8, Type 0, BuildingBlock: BELTOD_clean_linker_0, # of connection points: 3
#     Node 9, Type 0, BuildingBlock: BELTOD_clean_linker_0, # of connection points: 3
#     Node 10, Type 0, BuildingBlock: BELTOD_clean_linker_0, # of connection points: 3
#     Node 11, Type 0, BuildingBlock: BELTOD_clean_linker_0, # of connection points: 3
#     Node 12, Type 0, BuildingBlock: BELTOD_clean_linker_0, # of connection points: 3
#     Node 13, Type 0, BuildingBlock: BELTOD_clean_linker_0, # of connection points: 3
#     Node 14, Type 0, BuildingBlock: BELTOD_clean_linker_0, # of connection points: 3
#     Node 15, Type 0, BuildingBlock: BELTOD_clean_linker_0, # of connection points: 3
#     Node 16, Type 0, BuildingBlock: BELTOD_clean_linker_0, # of connection points: 3
#     Node 17, Type 0, BuildingBlock: BELTOD_clean_linker_0, # of connection points: 3
#     Node 18, Type 1, BuildingBlock: HISSIN_clean_sbu_0, # of connection points: 6
#     Node 19, Type 1, BuildingBlock: HISSIN_clean_sbu_0, # of connection points: 6
#     Node 20, Type 1, BuildingBlock: HISSIN_clean_sbu_0, # of connection points: 6
#     Node 21, Type 1, BuildingBlock: HISSIN_clean_sbu_0, # of connection points: 6
#     Node 22, Type 1, BuildingBlock: HISSIN_clean_sbu_0, # of connection points: 6
#     Node 23, Type 1, BuildingBlock: HISSIN_clean_sbu_0, # of connection points: 6
#     Node 24, Type 1, BuildingBlock: HISSIN_clean_sbu_0, # of connection points: 6
#     Node 25, Type 1, BuildingBlock: HISSIN_clean_sbu_0, # of connection points: 6
#     Node 26, Type 1, BuildingBlock: HISSIN_clean_sbu_0, # of connection points: 6
#     Edge 27, Type (0, 1), BuildingBlock: UVAHIK_clean_linker_0, # of connection points: 2
#     Edge 28, Type (0, 1), BuildingBlock: UVAHIK_clean_linker_0, # of connection points: 2
#     Edge 29, Type (0, 1), BuildingBlock: UVAHIK_clean_linker_0, # of connection points: 2
#     Edge 30, Type (0, 1), BuildingBlock: UVAHIK_clean_linker_0, # of connection points: 2
#     Edge 31, Type (0, 1), BuildingBlock: UVAHIK_clean_linker_0, # of connection points: 2
#     Edge 32, Type (0, 1), BuildingBlock: UVAHIK_clean_linker_0, # of connection points: 2
#     Edge 33, Type (0, 1), BuildingBlock: UVAHIK_clean_linker_0, # of connection points: 2
#     Edge 34, Type (0, 1), BuildingBlock: UVAHIK_clean_linker_0, # of connection points: 2
#     Edge 35, Type (0, 1), BuildingBlock: UVAHIK_clean_linker_0, # of connection points: 2
#     Edge 36, Type (0, 1), BuildingBlock: UVAHIK_clean_linker_0, # of connection points: 2
#     Edge 37, Type (0, 1), BuildingBlock: UVAHIK_clean_linker_0, # of connection points: 2
#     Edge 38, Type (0, 1), BuildingBlock: UVAHIK_clean_linker_0, # of connection points: 2
#     Edge 39, Type (0, 1), BuildingBlock: UVAHIK_clean_linker_0, # of connection points: 2
#     Edge 40, Type (0, 1), BuildingBlock: UVAHIK_clean_linker_0, # of connection points: 2
#     Edge 41, Type (0, 1), BuildingBlock: UVAHIK_clean_linker_0, # of connection points: 2
#     Edge 42, Type (0, 1), BuildingBlock: UVAHIK_clean_linker_0, # of connection points: 2
#     Edge 43, Type (0, 1), BuildingBlock: UVAHIK_clean_linker_0, # of connection points: 2
#     Edge 44, Type (0, 1), BuildingBlock: UVAHIK_clean_linker_0, # of connection points: 2
#     Edge 45, Type (0, 1), BuildingBlock: UVAHIK_clean_linker_0, # of connection points: 2
#     Edge 46, Type (0, 1), BuildingBlock: UVAHIK_clean_linker_0, # of connection points: 2
#     Edge 47, Type (0, 1), BuildingBlock: UVAHIK_clean_linker_0, # of connection points: 2
#     Edge 48, Type (0, 1), BuildingBlock: UVAHIK_clean_linker_0, # of connection points: 2
#     Edge 49, Type (0, 1), BuildingBlock: UVAHIK_clean_linker_0, # of connection points: 2
#     Edge 50, Type (0, 1), BuildingBlock: UVAHIK_clean_linker_0, # of connection points: 2
#     Edge 51, Type (0, 1), BuildingBlock: UVAHIK_clean_linker_0, # of connection points: 2
#     Edge 52, Type (0, 1), BuildingBlock: UVAHIK_clean_linker_0, # of connection points: 2
#     Edge 53, Type (0, 1), BuildingBlock: UVAHIK_clean_linker_0, # of connection points: 2
#     Edge 54, Type (0, 1), BuildingBlock: UVAHIK_clean_linker_0, # of connection points: 2
#     Edge 55, Type (0, 1), BuildingBlock: UVAHIK_clean_linker_0, # of connection points: 2
#     Edge 56, Type (0, 1), BuildingBlock: UVAHIK_clean_linker_0, # of connection points: 2
#     Edge 57, Type (0, 1), BuildingBlock: UVAHIK_clean_linker_0, # of connection points: 2
#     Edge 58, Type (0, 1), BuildingBlock: UVAHIK_clean_linker_0, # of connection points: 2
#     Edge 59, Type (0, 1), BuildingBlock: UVAHIK_clean_linker_0, # of connection points: 2
#     Edge 60, Type (0, 1), BuildingBlock: UVAHIK_clean_linker_0, # of connection points: 2
#     Edge 61, Type (0, 1), BuildingBlock: UVAHIK_clean_linker_0, # of connection points: 2
#     Edge 62, Type (0, 1), BuildingBlock: UVAHIK_clean_linker_0, # of connection points: 2
#     Edge 63, Type (0, 1), BuildingBlock: UVAHIK_clean_linker_0, # of connection points: 2
#     Edge 64, Type (0, 1), BuildingBlock: UVAHIK_clean_linker_0, # of connection points: 2
#     Edge 65, Type (0, 1), BuildingBlock: UVAHIK_clean_linker_0, # of connection points: 2
#     Edge 66, Type (0, 1), BuildingBlock: UVAHIK_clean_linker_0, # of connection points: 2
#     Edge 67, Type (0, 1), BuildingBlock: UVAHIK_clean_linker_0, # of connection points: 2
#     Edge 68, Type (0, 1), BuildingBlock: UVAHIK_clean_linker_0, # of connection points: 2
#     Edge 69, Type (0, 1), BuildingBlock: UVAHIK_clean_linker_0, # of connection points: 2
#     Edge 70, Type (0, 1), BuildingBlock: UVAHIK_clean_linker_0, # of connection points: 2
#     Edge 71, Type (0, 1), BuildingBlock: UVAHIK_clean_linker_0, # of connection points: 2
#     Edge 72, Type (0, 1), BuildingBlock: UVAHIK_clean_linker_0, # of connection points: 2
#     Edge 73, Type (0, 1), BuildingBlock: UVAHIK_clean_linker_0, # of connection points: 2
#     Edge 74, Type (0, 1), BuildingBlock: UVAHIK_clean_linker_0, # of connection points: 2
#     Edge 75, Type (0, 1), BuildingBlock: UVAHIK_clean_linker_0, # of connection points: 2
#     Edge 76, Type (0, 1), BuildingBlock: UVAHIK_clean_linker_0, # of connection points: 2
#     Edge 77, Type (0, 1), BuildingBlock: UVAHIK_clean_linker_0, # of connection points: 2
#     Edge 78, Type (0, 1), BuildingBlock: UVAHIK_clean_linker_0, # of connection points: 2
#     Edge 79, Type (0, 1), BuildingBlock: UVAHIK_clean_linker_0, # of connection points: 2
#     Edge 80, Type (0, 1), BuildingBlock: UVAHIK_clean_linker_0, # of connection points: 2
# Relax obj value: 0.032
# Max RMSD: 0.130
# Mean RMSD: 0.071
data_MOF--net-eea--node1-HISSIN_clean_sbu_0--node2-BELTOD_clean_linker_0--edge1-UVAHIK_clean_linker_0
_symmetry_space_group_name_H-M    P1
_symmetry_Int_Tables_number       1
_symmetry_cell_setting            triclinic
loop_
_symmetry_equiv_pos_as_xyz
'x, y, z'
_cell_length_a     73.861877
_cell_length_b     73.781196
_cell_length_c     101.7497
_cell_angle_alpha  93.864956
_cell_angle_beta   93.513471
_cell_angle_gamma 119.86905
loop_
_atom_site_label
_atom_site_type_symbol
_atom_site_fract_x
_atom_site_fract_y
_atom_site_fract_z
_atom_type_partial_charge
P0 P 0.33442 0.175 0.40656 0.0
H1 H 0.33909 0.14832 0.38594 0.0
H2 H 0.3179 0.11074 0.37817 0.0
H3 H 0.27507 0.10345 0.40719 0.0
H4 H 0.29641 0.14088 0.41497 0.0
H5 H 0.34016 0.21678 0.41314 0.0
H6 H 0.32128 0.23404 0.40511 0.0
H7 H 0.28053 0.17871 0.37776 0.0
H8 H 0.29952 0.16174 0.38566 0.0
H9 H 0.36453 0.17383 0.42586 0.0
H10 H 0.31035 0.18144 0.4264 0.0
O11 O 0.35802 0.18555 0.40106 0.0
H12 H 0.36741 0.17521 0.45006 0.0
H13 H 0.31315 0.18289 0.45052 0.0
C14 C 0.31954 0.14725 0.4012 0.0
C15 C 0.32527 0.13857 0.39071 0.0
C16 C 0.31305 0.11714 0.38621 0.0
C17 C 0.29487 0.10411 0.39212 0.0
C18 C 0.28918 0.11297 0.4026 0.0
C19 C 0.30136 0.13438 0.40705 0.0
C20 C 0.32098 0.18784 0.40021 0.0
C21 C 0.32715 0.20841 0.40541 0.0
C22 C 0.31631 0.2182 0.40086 0.0
C23 C 0.29932 0.20767 0.39087 0.0
C24 C 0.29362 0.18728 0.38541 0.0
C25 C 0.3044 0.17749 0.39001 0.0
C26 C 0.33762 0.17815 0.42438 0.0
C27 C 0.35348 0.17614 0.43121 0.0
C28 C 0.35499 0.17674 0.44501 0.0
C29 C 0.34057 0.17929 0.45218 0.0
C30 C 0.32471 0.18131 0.44528 0.0
C31 C 0.32314 0.18055 0.43149 0.0
P32 P 0.91183 0.11448 0.43712 0.0
H33 H 0.90348 0.07499 0.42304 0.0
H34 H 0.87286 0.04668 0.40931 0.0
H35 H 0.83897 0.07968 0.41576 0.0
H36 H 0.86967 0.10788 0.42968 0.0
H37 H 0.9499 0.15515 0.4433 0.0
H38 H 0.97381 0.18036 0.42937 0.0
H39 H 0.93139 0.143 0.39456 0.0
H40 H 0.90788 0.1177 0.40847 0.0
H41 H 0.90911 0.10545 0.46454 0.0
H42 H 0.89846 0.14581 0.44041 0.0
O43 O 0.92685 0.10505 0.44274 0.0
H44 H 0.89889 0.11862 0.48365 0.0
H45 H 0.8879 0.15896 0.45959 0.0
C46 C 0.88868 0.09328 0.42763 0.0
C47 C 0.88939 0.07604 0.42163 0.0
C48 C 0.87194 0.05997 0.41366 0.0
C49 C 0.85348 0.06095 0.41144 0.0
C50 C 0.85286 0.07835 0.41743 0.0
C51 C 0.8704 0.09447 0.4254 0.0
C52 C 0.92712 0.13461 0.42695 0.0
C53 C 0.9456 0.15262 0.43268 0.0
C54 C 0.95921 0.16704 0.42471 0.0
C55 C 0.95456 0.16362 0.41083 0.0
C56 C 0.93558 0.14593 0.40519 0.0
C57 C 0.92201 0.1315 0.41317 0.0
C58 C 0.90486 0.12492 0.45114 0.0
C59 C 0.90475 0.1173 0.46338 0.0
C60 C 0.89894 0.12486 0.47431 0.0
C61 C 0.89279 0.13994 0.47312 0.0
C62 C 0.89257 0.14733 0.46077 0.0
C63 C 0.89868 0.13992 0.44985 0.0
P64 P 0.8571 0.7228 0.41723 0.0
H65 H 0.83584 0.71917 0.39145 0.0
H66 H 0.81514 0.7341 0.38311 0.0
H67 H 0.82504 0.76746 0.42192 0.0
H68 H 0.84713 0.75364 0.42984 0.0
H69 H 0.87331 0.71812 0.39275 0.0
H70 H 0.90765 0.73738 0.38465 0.0
H71 H 0.93179 0.77898 0.42123 0.0
H72 H 0.89706 0.75975 0.42924 0.0
H73 H 0.82562 0.71508 0.43552 0.0
H74 H 0.88763 0.72294 0.43727 0.0
O75 O 0.84537 0.69821 0.4098 0.0
H76 H 0.82386 0.70824 0.45865 0.0
H77 H 0.88603 0.71622 0.46049 0.0
C78 C 0.84232 0.73463 0.41139 0.0
C79 C 0.83355 0.72972 0.39816 0.0
C80 C 0.82154 0.73818 0.39343 0.0
C81 C 0.81783 0.75163 0.40189 0.0
C82 C 0.82745 0.7572 0.41506 0.0
C83 C 0.83987 0.74903 0.4197 0.0
C84 C 0.88283 0.73708 0.41177 0.0
C85 C 0.88599 0.73129 0.39909 0.0
C86 C 0.90558 0.74243 0.39441 0.0
C87 C 0.92242 0.75961 0.40234 0.0
C88 C 0.91915 0.76562 0.41499 0.0
C89 C 0.89937 0.75462 0.41958 0.0
C90 C 0.8572 0.72063 0.43481 0.0
C91 C 0.83917 0.71605 0.44099 0.0
C92 C 0.83813 0.71203 0.45423 0.0
C93 C 0.8549 0.71193 0.46148 0.0
C94 C 0.87286 0.71624 0.4552 0.0
C95 C 0.87392 0.72038 0.44196 0.0
P96 P 0.11856 0.27749 0.58778 0.0
H97 H 0.09074 0.29285 0.59507 0.0
H98 H 0.05474 0.27541 0.60089 0.0
H99 H 0.05054 0.21504 0.59326 0.0
H100 H 0.08668 0.23269 0.58735 0.0
H101 H 0.15251 0.27355 0.57697 0.0
H102 H 0.17357 0.2587 0.58496 0.0
H103 H 0.1362 0.23757 0.61771 0.0
H104 H 0.11566 0.2531 0.60986 0.0
H105 H 0.13386 0.31512 0.57398 0.0
H106 H 0.10575 0.24827 0.56358 0.0
O107 O 0.13093 0.30093 0.59684 0.0
H108 H 0.13702 0.32068 0.5507 0.0
H109 H 0.10854 0.25366 0.54008 0.0
C110 C 0.09155 0.2641 0.59116 0.0
C111 C 0.08207 0.27586 0.59462 0.0
C112 C 0.06143 0.26585 0.59785 0.0
C113 C 0.04986 0.24385 0.59764 0.0
C114 C 0.05918 0.23204 0.59371 0.0
C115 C 0.07981 0.24209 0.59034 0.0
C116 C 0.13206 0.26387 0.59258 0.0
C117 C 0.14854 0.26534 0.58571 0.0
C118 C 0.1606 0.2568 0.5903 0.0
C119 C 0.15656 0.24683 0.60196 0.0
C120 C 0.13988 0.24527 0.60876 0.0
C121 C 0.12792 0.2539 0.60418 0.0
C122 C 0.11971 0.28129 0.57049 0.0
C123 C 0.12822 0.30159 0.56666 0.0
C124 C 0.12989 0.30474 0.55331 0.0
C125 C 0.12304 0.28762 0.54351 0.0
C126 C 0.11419 0.26721 0.54739 0.0
C127 C 0.11247 0.26408 0.56079 0.0
P128 P 0.76676 0.87568 0.58264 0.0
H129 H 0.79438 0.90889 0.60335 0.0
H130 H 0.79262 0.93786 0.61513 0.0
H131 H 0.73306 0.9178 0.59251 0.0
H132 H 0.7348 0.88876 0.58082 0.0
H133 H 0.75421 0.83182 0.57562 0.0
H134 H 0.74969 0.8038 0.58887 0.0
H135 H 0.76059 0.8445 0.62462 0.0
H136 H 0.76498 0.87246 0.61133 0.0
H137 H 0.77747 0.88101 0.55544 0.0
H138 H 0.72144 0.8491 0.57509 0.0
O139 O 0.79185 0.88503 0.58012 0.0
H140 H 0.7564 0.86657 0.53392 0.0
H141 H 0.70016 0.83491 0.55347 0.0
C142 C 0.76484 0.89676 0.59114 0.0
C143 C 0.78092 0.9107 0.60094 0.0
C144 C 0.77983 0.92714 0.60773 0.0
C145 C 0.76268 0.93003 0.60474 0.0
C146 C 0.74651 0.91598 0.59495 0.0
C147 C 0.7475 0.89935 0.58827 0.0
C148 C 0.75966 0.85418 0.59244 0.0
C149 C 0.75506 0.83456 0.58629 0.0
C150 C 0.75243 0.81852 0.59387 0.0
C151 C 0.75476 0.82197 0.60778 0.0
C152 C 0.75879 0.84145 0.61392 0.0
C153 C 0.76124 0.85744 0.6063 0.0
C154 C 0.75099 0.86607 0.56684 0.0
C155 C 0.76062 0.87097 0.55513 0.0
C156 C 0.7486 0.86265 0.54284 0.0
C157 C 0.72671 0.84955 0.54207 0.0
C158 C 0.71701 0.84503 0.55382 0.0
C159 C 0.72912 0.8531 0.56613 0.0
P160 P 0.13527 0.84085 0.59857 0.0
H161 H 0.1538 0.86657 0.62403 0.0
H162 H 0.17303 0.90469 0.63041 0.0
H163 H 0.16496 0.91463 0.58962 0.0
H164 H 0.14572 0.87668 0.58333 0.0
H165 H 0.10425 0.79715 0.60015 0.0
H166 H 0.06854 0.77989 0.60657 0.0
H167 H 0.07195 0.84014 0.61222 0.0
H168 H 0.10769 0.85729 0.60589 0.0
H169 H 0.16903 0.84469 0.58373 0.0
H170 H 0.10412 0.82724 0.57515 0.0
O171 O 0.14786 0.83098 0.60696 0.0
H172 H 0.17228 0.84203 0.55999 0.0
H173 H 0.10724 0.82455 0.55137 0.0
C174 C 0.14878 0.86883 0.60319 0.0
C175 C 0.1562 0.87699 0.61648 0.0
C176 C 0.16705 0.89873 0.62011 0.0
C177 C 0.17066 0.91261 0.61047 0.0
C178 C 0.16273 0.90431 0.59721 0.0
C179 C 0.15173 0.88259 0.59362 0.0
C180 C 0.1087 0.82848 0.60275 0.0
C181 C 0.09727 0.80661 0.60276 0.0
C182 C 0.07683 0.79677 0.60634 0.0
C183 C 0.06745 0.80867 0.60996 0.0
C184 C 0.07885 0.83059 0.60968 0.0
C185 C 0.09928 0.8404 0.60603 0.0
C186 C 0.13627 0.8358 0.58118 0.0
C187 C 0.15538 0.83991 0.57672 0.0
C188 C 0.15726 0.83858 0.56317 0.0
C189 C 0.14002 0.83312 0.55384 0.0
C190 C 0.12072 0.82855 0.55834 0.0
C191 C 0.11891 0.83006 0.57193 0.0
P192 P 0.00025 0.50613 0.73376 0.0
H193 H 0.00558 0.48321 0.71105 0.0
H194 H 0.9848 0.44652 0.701 0.0
H195 H 0.94172 0.43326 0.73064 0.0
H196 H 0.96262 0.46965 0.74073 0.0
H197 H 0.01332 0.54275 0.71893 0.0
H198 H 0.99448 0.55969 0.71028 0.0
H199 H 0.93863 0.51457 0.72636 0.0
H200 H 0.95751 0.49788 0.73504 0.0
H201 H 0.00759 0.48161 0.7524 0.0
H202 H 0.99653 0.53384 0.75429 0.0
O203 O 0.02466 0.51752 0.72946 0.0
H204 H 0.00761 0.48172 0.77643 0.0
H205 H 0.99625 0.53386 0.77829 0.0
C206 C 0.98574 0.47907 0.7267 0.0
C207 C 0.99177 0.47234 0.71544 0.0
C208 C 0.97991 0.45143 0.70971 0.0
C209 C 0.96163 0.43713 0.71503 0.0
C210 C 0.9556 0.44402 0.72625 0.0
C211 C 0.96759 0.46479 0.73205 0.0
C212 C 0.98674 0.51892 0.7275 0.0
C213 C 0.99703 0.5365 0.72058 0.0
C214 C 0.98628 0.5462 0.71568 0.0
C215 C 0.96505 0.53832 0.71756 0.0
C216 C 0.95487 0.52075 0.72456 0.0
C217 C 0.96566 0.51121 0.72954 0.0
C218 C 0.00152 0.50734 0.75154 0.0
C219 C 0.0051 0.49305 0.75799 0.0
C220 C 0.00502 0.49308 0.77171 0.0
C221 C 0.00165 0.50761 0.77923 0.0
C222 C 0.99891 0.52248 0.77277 0.0
C223 C 0.99891 0.52238 0.75902 0.0
P224 P 0.58043 0.45409 0.78029 0.0
H225 H 0.57194 0.43527 0.75265 0.0
H226 H 0.54062 0.40613 0.73991 0.0
H227 H 0.50586 0.39924 0.7737 0.0
H228 H 0.53741 0.42804 0.78647 0.0
H229 H 0.62437 0.46645 0.77869 0.0
H230 H 0.65053 0.48931 0.76496 0.0
H231 H 0.60529 0.50301 0.7462 0.0
H232 H 0.57893 0.47967 0.75993 0.0
H233 H 0.59818 0.4729 0.80741 0.0
H234 H 0.5511 0.47002 0.77873 0.0
O235 O 0.59011 0.44153 0.78866 0.0
H236 H 0.58906 0.4916 0.82403 0.0
H237 H 0.54185 0.4888 0.79535 0.0
C238 C 0.55685 0.43424 0.77039 0.0
C239 C 0.55749 0.42776 0.75724 0.0
C240 C 0.53953 0.41108 0.74995 0.0
C241 C 0.52068 0.4004 0.75576 0.0
C242 C 0.52014 0.40701 0.76895 0.0
C243 C 0.53812 0.42365 0.77622 0.0
C244 C 0.59969 0.47126 0.77024 0.0
C245 C 0.62003 0.47433 0.77163 0.0
C246 C 0.63504 0.48754 0.76382 0.0
C247 C 0.63001 0.49803 0.7545 0.0
C248 C 0.60958 0.49499 0.75319 0.0
C249 C 0.59456 0.48177 0.76106 0.0
C250 C 0.57489 0.46958 0.79199 0.0
C251 C 0.58595 0.47641 0.80468 0.0
C252 C 0.58084 0.48725 0.81413 0.0
C253 C 0.5646 0.49151 0.81103 0.0
C254 C 0.5542 0.48546 0.79808 0.0
C255 C 0.55947 0.47475 0.78859 0.0
P256 P 0.52566 0.06018 0.75128 0.0
H257 H 0.4841 0.04167 0.73653 0.0
H258 H 0.4624 0.05632 0.72941 0.0
H259 H 0.5099 0.11755 0.74842 0.0
H260 H 0.53165 0.10266 0.75558 0.0
H261 H 0.56425 0.06046 0.76 0.0
H262 H 0.59922 0.07735 0.75248 0.0
H263 H 0.58037 0.10955 0.72575 0.0
H264 H 0.5454 0.09215 0.733 0.0
H265 H 0.4924 0.02879 0.76452 0.0
H266 H 0.5534 0.08361 0.77601 0.0
O267 O 0.51586 0.03654 0.74272 0.0
H268 H 0.48863 0.02232 0.7877 0.0
H269 H 0.54985 0.07704 0.7993 0.0
C270 C 0.50968 0.0712 0.74632 0.0
C271 C 0.48991 0.05825 0.73916 0.0
C272 C 0.47743 0.06662 0.73518 0.0
C273 C 0.48448 0.08811 0.7383 0.0
C274 C 0.50418 0.10099 0.74572 0.0
C275 C 0.51658 0.09252 0.74983 0.0
C276 C 0.55237 0.07556 0.74742 0.0
C277 C 0.56783 0.07157 0.75277 0.0
C278 C 0.58784 0.08124 0.74844 0.0
C279 C 0.59267 0.09486 0.73852 0.0
C280 C 0.57718 0.09903 0.73333 0.0
C281 C 0.55719 0.08931 0.73764 0.0
C282 C 0.5234 0.05632 0.76852 0.0
C283 C 0.50503 0.0394 0.77205 0.0
C284 C 0.50283 0.0358 0.78531 0.0
C285 C 0.519 0.0491 0.79532 0.0
C286 C 0.53726 0.06636 0.79178 0.0
C287 C 0.53932 0.0701 0.77848 0.0
P288 P 0.78689 0.61012 0.92177 0.0
H289 H 0.77001 0.58837 0.94477 0.0
H290 H 0.73545 0.57304 0.95269 0.0
H291 H 0.71185 0.58864 0.91789 0.0
H292 H 0.74637 0.60328 0.90982 0.0
H293 H 0.83114 0.62606 0.93012 0.0
H294 H 0.85095 0.60896 0.9363 0.0
H295 H 0.79423 0.54826 0.9282 0.0
H296 H 0.77445 0.56559 0.92216 0.0
H297 H 0.79211 0.64471 0.90701 0.0
H298 H 0.78207 0.58218 0.89819 0.0
O299 O 0.79914 0.63396 0.93035 0.0
H300 H 0.79542 0.65025 0.8837 0.0
H301 H 0.78506 0.58748 0.87475 0.0
C302 C 0.76065 0.59647 0.92655 0.0
C303 C 0.75727 0.58804 0.93869 0.0
C304 C 0.73753 0.57952 0.94329 0.0
C305 C 0.72082 0.57966 0.93596 0.0
C306 C 0.72424 0.58796 0.9237 0.0
C307 C 0.74401 0.59638 0.91907 0.0
C308 C 0.80125 0.59712 0.92602 0.0
C309 C 0.82295 0.60908 0.92972 0.0
C310 C 0.83429 0.59926 0.93314 0.0
C311 C 0.82415 0.57724 0.93282 0.0
C312 C 0.80244 0.56527 0.92877 0.0
C313 C 0.79112 0.57513 0.9253 0.0
C314 C 0.78729 0.61321 0.90436 0.0
C315 C 0.79048 0.63211 0.90003 0.0
C316 C 0.79221 0.6352 0.88666 0.0
C317 C 0.79068 0.61937 0.87736 0.0
C318 C 0.7867 0.60013 0.88169 0.0
C319 C 0.78491 0.59704 0.89508 0.0
P320 P 0.44553 0.21887 0.91845 0.0
H321 H 0.47493 0.25488 0.93707 0.0
H322 H 0.47181 0.28188 0.95018 0.0
H323 H 0.40631 0.25216 0.9349 0.0
H324 H 0.40965 0.22525 0.92163 0.0
H325 H 0.43697 0.1769 0.90946 0.0
H326 H 0.43228 0.14738 0.92122 0.0
H327 H 0.43489 0.1816 0.95816 0.0
H328 H 0.4399 0.21122 0.94634 0.0
H329 H 0.45627 0.23288 0.8925 0.0
H330 H 0.40107 0.18905 0.9096 0.0
O331 O 0.47075 0.2291 0.91599 0.0
H332 H 0.43607 0.2222 0.87067 0.0
H333 H 0.38065 0.17837 0.8877 0.0
C334 C 0.44268 0.23839 0.92814 0.0
C335 C 0.45992 0.25421 0.93649 0.0
C336 C 0.45804 0.2695 0.9441 0.0
C337 C 0.4388 0.26916 0.94357 0.0
C338 C 0.42139 0.25298 0.93539 0.0
C339 C 0.42329 0.2376 0.92779 0.0
C340 C 0.4385 0.19612 0.92698 0.0
C341 C 0.43606 0.17786 0.92005 0.0
C342 C 0.43331 0.16096 0.92678 0.0
C343 C 0.43319 0.16214 0.94063 0.0
C344 C 0.43507 0.18029 0.9475 0.0
C345 C 0.4378 0.19719 0.94073 0.0
C346 C 0.43022 0.2115 0.90258 0.0
C347 C 0.4398 0.22094 0.89155 0.0
C348 C 0.42827 0.2148 0.87908 0.0
C349 C 0.40687 0.19932 0.8775 0.0
C350 C 0.39712 0.19035 0.88867 0.0
C351 C 0.40876 0.19637 0.90114 0.0
P352 P 0.79586 0.15648 0.92441 0.0
H353 H 0.79707 0.18214 0.94802 0.0
H354 H 0.81654 0.2199 0.95491 0.0
H355 H 0.84865 0.22984 0.91965 0.0
H356 H 0.82851 0.19212 0.91261 0.0
H357 H 0.76675 0.11437 0.93079 0.0
H358 H 0.73143 0.09839 0.93795 0.0
H359 H 0.73166 0.15662 0.93514 0.0
H360 H 0.76667 0.17231 0.92753 0.0
H361 H 0.80406 0.12803 0.9077 0.0
H362 H 0.7834 0.1726 0.9023 0.0
O363 O 0.80831 0.1457 0.93191 0.0
H364 H 0.80305 0.12165 0.88374 0.0
H365 H 0.78303 0.16691 0.87831 0.0
C366 C 0.81064 0.18439 0.92952 0.0
C367 C 0.80806 0.19248 0.94167 0.0
C368 C 0.81943 0.21409 0.94568 0.0
C369 C 0.83404 0.22801 0.93777 0.0
C370 C 0.83714 0.21969 0.92582 0.0
C371 C 0.82563 0.19807 0.92178 0.0
C372 C 0.76959 0.14473 0.9291 0.0
C373 C 0.75918 0.12368 0.93169 0.0
C374 C 0.73901 0.11455 0.9357 0.0
C375 C 0.72903 0.12641 0.93725 0.0
C376 C 0.73921 0.14729 0.93422 0.0
C377 C 0.75921 0.15626 0.92994 0.0
C378 C 0.79417 0.15107 0.90674 0.0
C379 C 0.79939 0.13652 0.90134 0.0
C380 C 0.7989 0.13297 0.88763 0.0
C381 C 0.79319 0.14393 0.87907 0.0
C382 C 0.78734 0.15805 0.88456 0.0
C383 C 0.78769 0.16146 0.89828 0.0
P384 P 0.67116 0.84399 0.07019 0.0
H385 H 0.66169 0.82139 0.04386 0.0
H386 H 0.63929 0.78433 0.03527 0.0
H387 H 0.62554 0.76901 0.07511 0.0
H388 H 0.64668 0.80602 0.08338 0.0
H389 H 0.68039 0.88013 0.05559 0.0
H390 H 0.65885 0.89492 0.04807 0.0
H391 H 0.6062 0.84707 0.06534 0.0
H392 H 0.62783 0.8324 0.07282 0.0
H393 H 0.69303 0.83043 0.08819 0.0
H394 H 0.66131 0.86605 0.0914 0.0
O395 O 0.69389 0.85492 0.06358 0.0
H396 H 0.69716 0.83189 0.11238 0.0
H397 H 0.66503 0.86723 0.11542 0.0
C398 C 0.65632 0.81641 0.06428 0.0
C399 C 0.65396 0.80996 0.05072 0.0
C400 C 0.64119 0.78873 0.04584 0.0
C401 C 0.6306 0.77355 0.05448 0.0
C402 C 0.63316 0.7802 0.06811 0.0
C403 C 0.64563 0.80143 0.07292 0.0
C404 C 0.65563 0.85515 0.06471 0.0
C405 C 0.66421 0.87282 0.05773 0.0
C406 C 0.65188 0.8812 0.0534 0.0
C407 C 0.63085 0.87213 0.05612 0.0
C408 C 0.6224 0.8545 0.06321 0.0
C409 C 0.63469 0.84605 0.06742 0.0
C410 C 0.67657 0.8478 0.08798 0.0
C411 C 0.68714 0.83872 0.0941 0.0
C412 C 0.68934 0.83944 0.1079 0.0
C413 C 0.68121 0.84948 0.11579 0.0
C414 C 0.67154 0.85945 0.10962 0.0
C415 C 0.66925 0.85863 0.09583 0.0
P416 P 0.24174 0.7725 0.10439 0.0
H417 H 0.23449 0.73415 0.08928 0.0
H418 H 0.20376 0.70511 0.07606 0.0
H419 H 0.16789 0.73542 0.08451 0.0
H420 H 0.19877 0.7644 0.0979 0.0
H421 H 0.27801 0.8144 0.11117 0.0
H422 H 0.30225 0.84029 0.09772 0.0
H423 H 0.26342 0.80137 0.06217 0.0
H424 H 0.23956 0.77543 0.07565 0.0
H425 H 0.23654 0.76034 0.13105 0.0
H426 H 0.22966 0.80473 0.10888 0.0
O427 O 0.25708 0.76331 0.10979 0.0
H428 H 0.22568 0.77207 0.15046 0.0
H429 H 0.21875 0.81668 0.1284 0.0
C430 C 0.21877 0.75117 0.0948 0.0
C431 C 0.21999 0.73449 0.08837 0.0
C432 C 0.20244 0.71799 0.0807 0.0
C433 C 0.18336 0.71794 0.07925 0.0
C434 C 0.18228 0.73487 0.08559 0.0
C435 C 0.19992 0.75144 0.09324 0.0
C436 C 0.25691 0.79309 0.09445 0.0
C437 C 0.27451 0.81168 0.10049 0.0
C438 C 0.28833 0.82648 0.09277 0.0
C439 C 0.28484 0.82286 0.07885 0.0
C440 C 0.26673 0.80451 0.07285 0.0
C441 C 0.25294 0.78972 0.08058 0.0
C442 C 0.23433 0.78199 0.11864 0.0
C443 C 0.23292 0.77281 0.13042 0.0
C444 C 0.22675 0.77956 0.14152 0.0
C445 C 0.22159 0.79547 0.14101 0.0
C446 C 0.22263 0.80439 0.12908 0.0
C447 C 0.22898 0.79769 0.11797 0.0
P448 P 0.19013 0.38782 0.08272 0.0
H449 H 0.16393 0.37831 0.05778 0.0
H450 H 0.14248 0.39223 0.04895 0.0
H451 H 0.16197 0.43605 0.08441 0.0
H452 H 0.18305 0.42156 0.09332 0.0
H453 H 0.22108 0.37543 0.07783 0.0
H454 H 0.25631 0.39405 0.07081 0.0
H455 H 0.25278 0.4508 0.07109 0.0
H456 H 0.21743 0.432 0.07804 0.0
H457 H 0.15626 0.37596 0.09943 0.0
H458 H 0.22226 0.39622 0.10464 0.0
O459 O 0.17927 0.36302 0.07576 0.0
H460 H 0.15383 0.37024 0.12278 0.0
H461 H 0.22 0.39071 0.12803 0.0
C462 C 0.17469 0.39861 0.0763 0.0
C463 C 0.1635 0.39084 0.06369 0.0
C464 C 0.15138 0.39897 0.05859 0.0
C465 C 0.15043 0.41525 0.06597 0.0
C466 C 0.16206 0.42329 0.07855 0.0
C467 C 0.17416 0.41507 0.08365 0.0
C468 C 0.21649 0.40221 0.07821 0.0
C469 C 0.22789 0.39189 0.07638 0.0
C470 C 0.2481 0.4026 0.07247 0.0
C471 C 0.2573 0.42389 0.07032 0.0
C472 C 0.24599 0.43432 0.07247 0.0
C473 C 0.22579 0.4236 0.07647 0.0
C474 C 0.18949 0.38686 0.10033 0.0
C475 C 0.17034 0.37964 0.10568 0.0
C476 C 0.16898 0.37639 0.11904 0.0
C477 C 0.18673 0.38004 0.12728 0.0
C478 C 0.206 0.3876 0.12192 0.0
C479 C 0.20735 0.39092 0.10855 0.0
P480 P 0.45189 0.94457 0.2562 0.0
H481 H 0.43086 0.91093 0.27331 0.0
H482 H 0.39579 0.89423 0.28053 0.0
H483 H 0.37895 0.92914 0.25493 0.0
H484 H 0.41412 0.94572 0.24765 0.0
H485 H 0.47369 0.94685 0.2816 0.0
H486 H 0.49451 0.93125 0.28883 0.0
H487 H 0.48394 0.90021 0.24925 0.0
H488 H 0.46308 0.91588 0.24207 0.0
H489 H 0.48058 0.98007 0.24293 0.0
H490 H 0.42769 0.91772 0.23158 0.0
O491 O 0.46215 0.96805 0.26505 0.0
H492 H 0.48395 0.9858 0.21964 0.0
H493 H 0.43091 0.92337 0.20813 0.0
C494 C 0.42505 0.92938 0.25978 0.0
C495 C 0.41957 0.91474 0.26903 0.0
C496 C 0.39951 0.90529 0.27325 0.0
C497 C 0.38459 0.91041 0.26835 0.0
C498 C 0.38997 0.92464 0.25877 0.0
C499 C 0.41007 0.93414 0.2546 0.0
C500 C 0.46715 0.93283 0.26125 0.0
C501 C 0.47592 0.93675 0.27446 0.0
C502 C 0.48768 0.92769 0.2786 0.0
C503 C 0.49091 0.91454 0.26959 0.0
C504 C 0.48193 0.91049 0.25637 0.0
C505 C 0.46998 0.91942 0.25226 0.0
C506 C 0.45362 0.94864 0.23896 0.0
C507 C 0.46953 0.96768 0.23541 0.0
C508 C 0.47142 0.97096 0.22209 0.0
C509 C 0.45758 0.95511 0.21204 0.0
C510 C 0.44183 0.93586 0.21564 0.0
C511 C 0.43988 0.93266 0.22902 0.0
P512 P 0.11587 0.55378 0.24558 0.0
H513 H 0.14448 0.58851 0.26528 0.0
H514 H 0.14108 0.61529 0.27847 0.0
H515 H 0.07646 0.58707 0.26156 0.0
H516 H 0.0801 0.56037 0.24825 0.0
H517 H 0.11084 0.51325 0.23641 0.0
H518 H 0.10697 0.48378 0.24801 0.0
H519 H 0.10299 0.51455 0.28449 0.0
H520 H 0.10718 0.54406 0.27288 0.0
H521 H 0.12512 0.57393 0.22141 0.0
H522 H 0.07304 0.52052 0.23517 0.0
O523 O 0.14112 0.56447 0.24308 0.0
H524 H 0.10493 0.56626 0.19984 0.0
H525 H 0.05275 0.51246 0.21345 0.0
C526 C 0.11272 0.57283 0.25557 0.0
C527 C 0.12959 0.5881 0.2644 0.0
C528 C 0.12754 0.60327 0.27204 0.0
C529 C 0.1085 0.60333 0.27102 0.0
C530 C 0.0914 0.58758 0.26241 0.0
C531 C 0.09347 0.57234 0.25481 0.0
C532 C 0.10913 0.53074 0.25374 0.0
C533 C 0.10868 0.51342 0.24685 0.0
C534 C 0.10639 0.49656 0.25348 0.0
C535 C 0.10472 0.49686 0.26718 0.0
C536 C 0.10445 0.51396 0.27396 0.0
C537 C 0.10672 0.5308 0.2673 0.0
C538 C 0.10075 0.54746 0.22972 0.0
C539 C 0.1094 0.56038 0.21972 0.0
C540 C 0.09785 0.55595 0.20739 0.0
C541 C 0.07734 0.53859 0.20489 0.0
C542 C 0.0685 0.52595 0.21509 0.0
C543 C 0.08013 0.53042 0.22744 0.0
P544 P 0.47468 0.49671 0.26656 0.0
H545 H 0.48208 0.51904 0.29283 0.0
H546 H 0.50031 0.55639 0.30117 0.0
H547 H 0.51833 0.57224 0.26205 0.0
H548 H 0.49943 0.53514 0.25374 0.0
H549 H 0.44252 0.45294 0.26694 0.0
H550 H 0.40646 0.43603 0.27293 0.0
H551 H 0.412 0.49696 0.2806 0.0
H552 H 0.44775 0.51373 0.2743 0.0
H553 H 0.5029 0.49078 0.25032 0.0
H554 H 0.44779 0.49653 0.24413 0.0
O555 O 0.48629 0.48499 0.27387 0.0
H556 H 0.50562 0.48989 0.22649 0.0
H557 H 0.45053 0.49592 0.22028 0.0
C558 C 0.48912 0.52427 0.27265 0.0
C559 C 0.48995 0.53061 0.28607 0.0
C560 C 0.50049 0.55198 0.29083 0.0
C561 C 0.51069 0.5674 0.28226 0.0
C562 C 0.51025 0.56087 0.26887 0.0
C563 C 0.49952 0.53953 0.26411 0.0
C564 C 0.448 0.48458 0.27054 0.0
C565 C 0.43594 0.46263 0.26989 0.0
C566 C 0.41535 0.453 0.27324 0.0
C567 C 0.40658 0.46524 0.27736 0.0
C568 C 0.41854 0.48721 0.27767 0.0
C569 C 0.439 0.4968 0.27412 0.0
C570 C 0.47489 0.49325 0.24892 0.0
C571 C 0.49118 0.49149 0.24379 0.0
C572 C 0.49284 0.49121 0.23019 0.0
C573 C 0.4783 0.49285 0.2215 0.0
C574 C 0.46179 0.49431 0.22669 0.0
C575 C 0.4602 0.49465 0.24031 0.0
Eu576 Eu 0.48714 0.97529 0.98704 0.0
Eu577 Eu 0.50452 0.00387 0.01636 0.0
C578 C 0.48194 0.0156 0.99363 0.0
C579 C 0.47686 0.96216 0.94974 0.0
C580 C 0.47355 0.97875 0.94692 0.0
C581 C 0.48667 0.96053 0.9275 0.0
C582 C 0.47673 0.98611 0.93446 0.0
C583 C 0.48329 0.95303 0.9399 0.0
C584 C 0.48355 0.97725 0.92467 0.0
C585 C 0.47526 0.9553 0.96312 0.0
O586 O 0.46983 0.9817 0.01617 0.0
O587 O 0.46531 0.95482 0.00115 0.0
C588 C 0.45908 0.96192 0.01106 0.0
O589 O 0.50918 0.96674 0.99744 0.0
O590 O 0.50148 0.0232 0.03224 0.0
O591 O 0.52666 0.01621 0.03434 0.0
O592 O 0.50451 0.97379 0.01876 0.0
C593 C 0.51072 0.96468 0.01009 0.0
O594 O 0.515 0.0061 0.98373 0.0
O595 O 0.53254 0.01613 0.0047 0.0
O596 O 0.49785 0.02326 0.00291 0.0
O597 O 0.49305 0.96042 0.96984 0.0
O598 O 0.46275 0.95815 0.97041 0.0
O599 O 0.47286 0.99603 0.98818 0.0
C600 C 0.51088 0.01764 0.05347 0.0
C601 C 0.4928 0.9985 0.05487 0.0
C602 C 0.51874 0.02452 0.07741 0.0
C603 C 0.48764 0.99247 0.06747 0.0
C604 C 0.52383 0.03058 0.06479 0.0
C605 C 0.50056 0.00541 0.07889 0.0
C606 C 0.51642 0.02397 0.04024 0.0
C607 C 0.5323 0.01719 0.99185 0.0
H608 H 0.46891 0.9863 0.95441 0.0
H609 H 0.49174 0.95327 0.92011 0.0
H610 H 0.47442 0.99916 0.93263 0.0
H611 H 0.48607 0.94033 0.9419 0.0
H612 H 0.4827 0.9882 0.04621 0.0
H613 H 0.5289 0.03492 0.08601 0.0
H614 H 0.47368 0.97755 0.06826 0.0
H615 H 0.53787 0.04539 0.06388 0.0
Eu616 Eu 0.9949 0.49323 0.98312 0.0
Eu617 Eu 0.96986 0.48448 0.00984 0.0
C618 C 0.95491 0.44856 0.98525 0.0
C619 C 0.01101 0.50131 0.94776 0.0
C620 C 0.99077 0.48939 0.94096 0.0
C621 C 0.02479 0.51458 0.92729 0.0
C622 C 0.9876 0.48994 0.92733 0.0
C623 C 0.02794 0.51394 0.94087 0.0
C624 C 0.0046 0.50255 0.92035 0.0
C625 C 0.0149 0.50093 0.96202 0.0
O626 O 0.99998 0.48511 0.01607 0.0
O627 O 0.00639 0.47609 0.99558 0.0
C628 C 0.0095 0.47803 0.00858 0.0
O629 O 0.01715 0.51863 0.99909 0.0
O630 O 0.95653 0.46535 0.02589 0.0
O631 O 0.95336 0.49271 0.02397 0.0
O632 O 0.99311 0.51931 0.01195 0.0
C633 C 0.0121 0.52817 0.00825 0.0
O634 O 0.97398 0.50723 0.98108 0.0
O635 O 0.94865 0.48622 0.99374 0.0
O636 O 0.95836 0.453 0.99819 0.0
O637 O 0.01434 0.51536 0.96982 0.0
O638 O 0.00572 0.48256 0.96644 0.0
O639 O 0.96407 0.4632 0.97737 0.0
C640 C 0.95887 0.48522 0.04549 0.0
C641 C 0.97888 0.50278 0.04925 0.0
C642 C 0.95507 0.47914 0.06856 0.0
C643 C 0.987 0.50842 0.06258 0.0
C644 C 0.94692 0.47356 0.05521 0.0
C645 C 0.97533 0.49646 0.07237 0.0
C646 C 0.95114 0.47816 0.03142 0.0
C647 C 0.95495 0.49929 0.98467 0.0
H648 H 0.97747 0.47967 0.94618 0.0
H649 H 0.03823 0.52422 0.92217 0.0
H650 H 0.97185 0.48066 0.92226 0.0
H651 H 0.04366 0.52323 0.94599 0.0
H652 H 0.9884 0.5119 0.04186 0.0
H653 H 0.94579 0.46946 0.07583 0.0
H654 H 0.00251 0.52203 0.06519 0.0
H655 H 0.93151 0.45984 0.05243 0.0
Eu656 Eu 0.5016 0.50938 0.01864 0.0
Eu657 Eu 0.48005 0.51175 0.98992 0.0
C658 C 0.50677 0.55194 0.0108 0.0
C659 C 0.51307 0.507 0.05575 0.0
C660 C 0.52335 0.52568 0.06448 0.0
C661 C 0.49578 0.48786 0.07401 0.0
C662 C 0.51985 0.52545 0.07784 0.0
C663 C 0.49928 0.48808 0.06068 0.0
C664 C 0.50607 0.50652 0.08276 0.0
C665 C 0.51743 0.50702 0.04173 0.0
O666 O 0.50917 0.51112 0.98525 0.0
O667 O 0.52817 0.52299 0.00582 0.0
C668 C 0.52702 0.51911 0.99289 0.0
O669 O 0.49394 0.48059 0.00516 0.0
O670 O 0.47194 0.52923 0.97653 0.0
O671 O 0.46367 0.4972 0.97026 0.0
O672 O 0.4653 0.47759 0.99317 0.0
C673 C 0.47608 0.46915 0.99766 0.0
O674 O 0.46737 0.49627 0.02109 0.0
O675 O 0.45795 0.51079 0.00459 0.0
O676 O 0.50506 0.54449 0.99844 0.0
O677 O 0.50401 0.49068 0.03355 0.0
O678 O 0.52403 0.52458 0.03642 0.0
O679 O 0.50031 0.53923 0.02002 0.0
C680 C 0.47393 0.52053 0.95414 0.0
C681 C 0.49483 0.52597 0.95306 0.0
C682 C 0.46929 0.52328 0.93069 0.0
C683 C 0.50281 0.52963 0.94081 0.0
C684 C 0.4613 0.51952 0.94296 0.0
C685 C 0.49003 0.52799 0.92942 0.0
C686 C 0.46491 0.51436 0.96666 0.0
C687 C 0.45427 0.50135 0.01545 0.0
H688 H 0.53422 0.54047 0.06102 0.0
H689 H 0.48536 0.47296 0.07753 0.0
H690 H 0.5279 0.54011 0.08431 0.0
H691 H 0.49135 0.47334 0.05428 0.0
H692 H 0.50477 0.52675 0.96161 0.0
H693 H 0.45913 0.52219 0.92217 0.0
H694 H 0.51873 0.53291 0.9402 0.0
H695 H 0.44512 0.51534 0.94364 0.0
Eu696 Eu 0.15917 0.31314 0.32043 0.0
Eu697 Eu 0.17545 0.34249 0.3495 0.0
C698 C 0.15358 0.35343 0.32587 0.0
C699 C 0.14863 0.29868 0.28336 0.0
C700 C 0.15307 0.3191 0.28145 0.0
C701 C 0.14894 0.29141 0.25978 0.0
C702 C 0.15546 0.32564 0.26878 0.0
C703 C 0.14647 0.28485 0.27246 0.0
C704 C 0.1536 0.31193 0.2578 0.0
C705 C 0.14753 0.29224 0.29678 0.0
O706 O 0.14079 0.31991 0.34904 0.0
O707 O 0.13716 0.29294 0.33448 0.0
C708 C 0.13041 0.30006 0.34405 0.0
O709 O 0.18071 0.30465 0.33152 0.0
O710 O 0.17108 0.36134 0.36506 0.0
O711 O 0.19744 0.35621 0.36749 0.0
O712 O 0.17622 0.313 0.35267 0.0
C713 C 0.18236 0.3034 0.3443 0.0
O714 O 0.18714 0.34385 0.3171 0.0
O715 O 0.20391 0.35444 0.33827 0.0
O716 O 0.16913 0.3614 0.33542 0.0
O717 O 0.16561 0.29835 0.30347 0.0
O718 O 0.13484 0.29497 0.30394 0.0
O719 O 0.14469 0.33372 0.32072 0.0
C720 C 0.18082 0.35656 0.38638 0.0
C721 C 0.16637 0.33549 0.38772 0.0
C722 C 0.18463 0.36494 0.41022 0.0
C723 C 0.16106 0.32917 0.40024 0.0
C724 C 0.18991 0.37125 0.39768 0.0
C725 C 0.17013 0.34382 0.41165 0.0
C726 C 0.18637 0.36313 0.3732 0.0
C727 C 0.20417 0.35517 0.32541 0.0
H728 H 0.15504 0.33008 0.2898 0.0
H729 H 0.14719 0.28041 0.25151 0.0
H730 H 0.15931 0.34162 0.26763 0.0
H731 H 0.14316 0.26907 0.27378 0.0
H732 H 0.15924 0.32392 0.37906 0.0
H733 H 0.1917 0.37667 0.41879 0.0
H734 H 0.15007 0.31275 0.40098 0.0
H735 H 0.20106 0.38758 0.3968 0.0
Eu736 Eu 0.66472 0.83248 0.31988 0.0
Eu737 Eu 0.64257 0.82908 0.34745 0.0
C738 C 0.62668 0.78959 0.3258 0.0
C739 C 0.68003 0.83686 0.28396 0.0
C740 C 0.66213 0.821 0.27598 0.0
C741 C 0.69364 0.85413 0.26443 0.0
C742 C 0.66015 0.82163 0.26227 0.0
C743 C 0.69567 0.85343 0.27807 0.0
C744 C 0.67593 0.83818 0.25636 0.0
C745 C 0.68324 0.83638 0.29832 0.0
O746 O 0.67209 0.82842 0.3535 0.0
O747 O 0.67666 0.81654 0.33321 0.0
C748 C 0.68056 0.81989 0.3462 0.0
O749 O 0.68742 0.85968 0.33469 0.0
O750 O 0.6178 0.81089 0.35979 0.0
O751 O 0.64116 0.84325 0.36652 0.0
O752 O 0.66299 0.86343 0.34518 0.0
C753 C 0.68218 0.8713 0.34198 0.0
O754 O 0.64354 0.84592 0.31619 0.0
O755 O 0.62087 0.83106 0.33189 0.0
O756 O 0.63289 0.79639 0.33842 0.0
O757 O 0.68512 0.85226 0.30597 0.0
O758 O 0.67235 0.81847 0.30311 0.0
O759 O 0.63328 0.8027 0.31679 0.0
C760 C 0.62869 0.82 0.3827 0.0
C761 C 0.64737 0.82036 0.38676 0.0
C762 C 0.61688 0.81077 0.40427 0.0
C763 C 0.65099 0.81641 0.39959 0.0
C764 C 0.61334 0.81487 0.39143 0.0
C765 C 0.63591 0.81186 0.40858 0.0
C766 C 0.62558 0.82586 0.36962 0.0
C767 C 0.62588 0.84094 0.32125 0.0
H768 H 0.64978 0.80808 0.2803 0.0
H769 H 0.70621 0.86691 0.26015 0.0
H770 H 0.64625 0.80922 0.25631 0.0
H771 H 0.70965 0.86575 0.28404 0.0
H772 H 0.6594 0.82426 0.38011 0.0
H773 H 0.60481 0.807 0.41085 0.0
H774 H 0.66594 0.8177 0.40259 0.0
H775 H 0.59878 0.8144 0.3884 0.0
Eu776 Eu 0.16568 0.83944 0.35145 0.0
Eu777 Eu 0.14588 0.84489 0.32285 0.0
C778 C 0.17057 0.88332 0.3461 0.0
C779 C 0.17641 0.8352 0.38821 0.0
C780 C 0.17665 0.8527 0.3948 0.0
C781 C 0.1685 0.81811 0.40837 0.0
C782 C 0.17298 0.85292 0.40812 0.0
C783 C 0.17235 0.81797 0.39511 0.0
C784 C 0.1688 0.83559 0.41502 0.0
C785 C 0.18007 0.83433 0.37416 0.0
O786 O 0.17379 0.84192 0.31842 0.0
O787 O 0.19265 0.85412 0.33895 0.0
C788 C 0.19162 0.85005 0.32605 0.0
O789 O 0.15868 0.81142 0.33742 0.0
O790 O 0.14977 0.86406 0.30668 0.0
O791 O 0.12162 0.83372 0.30604 0.0
O792 O 0.13251 0.81007 0.32337 0.0
C793 C 0.14237 0.80108 0.32848 0.0
O794 O 0.13136 0.82749 0.35316 0.0
O795 O 0.12392 0.84448 0.33739 0.0
O796 O 0.168 0.87732 0.33335 0.0
O797 O 0.16479 0.819 0.36622 0.0
O798 O 0.18889 0.852 0.36886 0.0
O799 O 0.16559 0.86976 0.35481 0.0
C800 C 0.1367 0.84372 0.28612 0.0
C801 C 0.14443 0.82988 0.28439 0.0
C802 C 0.14018 0.84989 0.26302 0.0
C803 C 0.15017 0.82621 0.27212 0.0
C804 C 0.13441 0.85355 0.27534 0.0
C805 C 0.14845 0.83643 0.26133 0.0
C806 C 0.13304 0.84935 0.29941 0.0
C807 C 0.11928 0.83405 0.34783 0.0
H808 H 0.17958 0.86615 0.38968 0.0
H809 H 0.16558 0.80464 0.41348 0.0
H810 H 0.17313 0.86653 0.41298 0.0
H811 H 0.17213 0.80434 0.39022 0.0
H812 H 0.14647 0.82226 0.29264 0.0
H813 H 0.13884 0.85816 0.25495 0.0
H814 H 0.15615 0.8155 0.27111 0.0
H815 H 0.12871 0.86448 0.27656 0.0
Eu816 Eu 0.8222 0.64608 0.6548 0.0
Eu817 Eu 0.84026 0.67612 0.68357 0.0
C818 C 0.81365 0.68356 0.66095 0.0
C819 C 0.8126 0.6319 0.61783 0.0
C820 C 0.82186 0.65332 0.61612 0.0
C821 C 0.81088 0.62362 0.59411 0.0
C822 C 0.82551 0.65984 0.60349 0.0
C823 C 0.80715 0.6171 0.60677 0.0
C824 C 0.82008 0.64508 0.59232 0.0
C825 C 0.80916 0.62516 0.63117 0.0
O826 O 0.81557 0.64414 0.68781 0.0
O827 O 0.79558 0.63275 0.66768 0.0
C828 C 0.79766 0.63181 0.68051 0.0
O829 O 0.83351 0.62949 0.66789 0.0
O830 O 0.83481 0.69291 0.6999 0.0
O831 O 0.86391 0.69255 0.70066 0.0
O832 O 0.85794 0.65873 0.68157 0.0
C833 C 0.85043 0.63918 0.67646 0.0
O834 O 0.85595 0.67032 0.65348 0.0
O835 O 0.86111 0.69684 0.6692 0.0
O836 O 0.81551 0.68145 0.67356 0.0
O837 O 0.82576 0.62792 0.63836 0.0
O838 O 0.79811 0.63105 0.63789 0.0
O839 O 0.82043 0.67514 0.65224 0.0
C840 C 0.84875 0.69068 0.72062 0.0
C841 C 0.83977 0.66936 0.72249 0.0
C842 C 0.84932 0.6992 0.74416 0.0
C843 C 0.83543 0.66296 0.7351 0.0
C844 C 0.85361 0.70558 0.73152 0.0
C845 C 0.84 0.67778 0.74608 0.0
C846 C 0.85185 0.69719 0.70721 0.0
C847 C 0.86671 0.69003 0.65881 0.0
H848 H 0.82639 0.66501 0.62458 0.0
H849 H 0.80635 0.61185 0.5857 0.0
H850 H 0.83289 0.67649 0.60249 0.0
H851 H 0.80005 0.60051 0.60792 0.0
H852 H 0.83588 0.65763 0.71416 0.0
H853 H 0.85281 0.71099 0.75237 0.0
H854 H 0.82851 0.64639 0.73624 0.0
H855 H 0.86038 0.72208 0.73022 0.0
Eu856 Eu 0.33857 0.1787 0.65682 0.0
Eu857 Eu 0.31075 0.16527 0.68224 0.0
C858 C 0.29733 0.13294 0.65617 0.0
C859 C 0.35711 0.18725 0.62206 0.0
C860 C 0.34267 0.16772 0.61493 0.0
C861 C 0.36567 0.20263 0.60137 0.0
C862 C 0.33989 0.16565 0.60107 0.0
C863 C 0.36856 0.20463 0.61519 0.0
C864 C 0.35131 0.18313 0.59417 0.0
C865 C 0.36044 0.19006 0.63662 0.0
O866 O 0.33169 0.15121 0.68373 0.0
O867 O 0.35834 0.1742 0.67259 0.0
C868 C 0.35114 0.15979 0.68082 0.0
O869 O 0.3493 0.20827 0.67061 0.0
O870 O 0.29156 0.14181 0.69495 0.0
O871 O 0.29763 0.17371 0.69858 0.0
O872 O 0.34182 0.19366 0.69006 0.0
C873 C 0.35216 0.20996 0.68359 0.0
O874 O 0.30816 0.17721 0.65017 0.0
O875 O 0.30051 0.18424 0.67069 0.0
O876 O 0.29055 0.14072 0.66534 0.0
O877 O 0.35346 0.20117 0.64259 0.0
O878 O 0.35697 0.17368 0.64259 0.0
O879 O 0.31657 0.14362 0.65291 0.0
C880 C 0.29707 0.1562 0.71704 0.0
C881 C 0.31854 0.16566 0.72134 0.0
C882 C 0.28895 0.14793 0.73938 0.0
C883 C 0.3252 0.16634 0.73457 0.0
C884 C 0.28229 0.14732 0.72609 0.0
C885 C 0.3105 0.15743 0.74375 0.0
C886 C 0.29029 0.15547 0.70309 0.0
C887 C 0.29805 0.18343 0.65772 0.0
H888 H 0.33352 0.15411 0.62005 0.0
H889 H 0.37487 0.21629 0.59632 0.0
H890 H 0.32859 0.15049 0.59576 0.0
H891 H 0.37978 0.21982 0.62052 0.0
H892 H 0.33016 0.17258 0.71444 0.0
H893 H 0.27724 0.14077 0.74617 0.0
H894 H 0.3419 0.1741 0.73764 0.0
H895 H 0.26565 0.13987 0.72288 0.0
Eu896 Eu 0.83303 0.17036 0.68154 0.0
Eu897 Eu 0.81177 0.17651 0.65396 0.0
C898 C 0.84142 0.21493 0.67479 0.0
C899 C 0.84229 0.15984 0.71684 0.0
C900 C 0.857 0.16592 0.72796 0.0
C901 C 0.81407 0.14249 0.73064 0.0
C902 C 0.85034 0.16054 0.74039 0.0
C903 C 0.82078 0.14799 0.7182 0.0
C904 C 0.82878 0.1489 0.74192 0.0
C905 C 0.84959 0.16723 0.70412 0.0
O906 O 0.84507 0.18614 0.65048 0.0
O907 O 0.85329 0.16951 0.66609 0.0
C908 C 0.85705 0.17914 0.65532 0.0
O909 O 0.80791 0.13806 0.67254 0.0
O910 O 0.81274 0.19701 0.63921 0.0
O911 O 0.78805 0.16433 0.63682 0.0
O912 O 0.80999 0.14517 0.651 0.0
C913 C 0.80475 0.13171 0.65982 0.0
O914 O 0.80432 0.17105 0.68727 0.0
O915 O 0.78537 0.16347 0.66683 0.0
O916 O 0.82251 0.20526 0.66843 0.0
O917 O 0.84284 0.153 0.69388 0.0
O918 O 0.84908 0.18399 0.70139 0.0
O919 O 0.85068 0.2043 0.67775 0.0
C920 C 0.80353 0.17909 0.61789 0.0
C921 C 0.81565 0.16953 0.61607 0.0
C922 C 0.80538 0.18625 0.59492 0.0
C923 C 0.82267 0.16841 0.6038 0.0
C924 C 0.79831 0.18735 0.60726 0.0
C925 C 0.81786 0.17698 0.59311 0.0
C926 C 0.79775 0.18157 0.63116 0.0
C927 C 0.78666 0.16516 0.67985 0.0
H928 H 0.87366 0.17528 0.72708 0.0
H929 H 0.79738 0.13334 0.73142 0.0
H930 H 0.8621 0.16608 0.74887 0.0
H931 H 0.8092 0.1433 0.7097 0.0
H932 H 0.81994 0.16316 0.62421 0.0
H933 H 0.80154 0.19313 0.58691 0.0
H934 H 0.83192 0.16083 0.6027 0.0
H935 H 0.78914 0.19497 0.60856 0.0
C936 C 0.31126 0.85933 0.07418 0.0
C937 C 0.30073 0.83745 0.07066 0.0
C938 C 0.3273 0.87288 0.06704 0.0
C939 C 0.35027 0.8762 0.03529 0.0
H940 H 0.4008 0.92104 0.05575 0.0
C941 C 0.42822 0.9259 0.01247 0.0
C942 C 0.43982 0.9475 0.01693 0.0
C943 C 0.41053 0.91238 0.01851 0.0
C944 C 0.38672 0.90877 0.04986 0.0
H945 H 0.29872 0.81272 0.05676 0.0
H946 H 0.32659 0.83634 0.04429 0.0
H947 H 0.37097 0.89801 0.06708 0.0
H948 H 0.4416 0.97188 0.03111 0.0
H949 H 0.41081 0.94849 0.04142 0.0
H950 H 0.36615 0.88698 0.01805 0.0
C951 C 0.32228 0.84304 0.05247 0.0
C952 C 0.36959 0.89557 0.05636 0.0
C953 C 0.30626 0.8295 0.05962 0.0
C954 C 0.43314 0.95532 0.02742 0.0
C955 C 0.41552 0.94187 0.03342 0.0
C956 C 0.36743 0.88944 0.02876 0.0
C957 C 0.33318 0.86487 0.05621 0.0
C958 C 0.35116 0.87914 0.04917 0.0
C959 C 0.4041 0.92021 0.02914 0.0
C960 C 0.38584 0.90592 0.03598 0.0
H961 H 0.30718 0.86599 0.0825 0.0
H962 H 0.33515 0.88965 0.07003 0.0
H963 H 0.33621 0.8638 0.02944 0.0
H964 H 0.43295 0.91935 0.00443 0.0
H965 H 0.40217 0.89574 0.01505 0.0
C966 C 0.1251 0.42833 0.0688 0.0
C967 C 0.13714 0.42353 0.06058 0.0
C968 C 0.11178 0.43506 0.06354 0.0
C969 C 0.08276 0.43254 0.03213 0.0
H970 H 0.07861 0.4782 0.05003 0.0
C971 C 0.03625 0.46676 0.00709 0.0
C972 C 0.0243 0.47229 0.01489 0.0
C973 C 0.05017 0.46125 0.01295 0.0
C974 C 0.07938 0.46524 0.04499 0.0
H975 H 0.14523 0.42294 0.04047 0.0
H976 H 0.12189 0.43446 0.03131 0.0
H977 H 0.10283 0.46805 0.05981 0.0
H978 H 0.01769 0.47642 0.03501 0.0
H979 H 0.04174 0.46644 0.04521 0.0
H980 H 0.05922 0.4295 0.01739 0.0
C981 C 0.1225 0.43269 0.04178 0.0
C982 C 0.09329 0.45947 0.05058 0.0
C983 C 0.13587 0.42607 0.04704 0.0
C984 C 0.02668 0.47228 0.0287 0.0
C985 C 0.04057 0.46668 0.03457 0.0
C986 C 0.0688 0.43823 0.02658 0.0
C987 C 0.11014 0.43705 0.04993 0.0
C988 C 0.09523 0.44313 0.04416 0.0
C989 C 0.05243 0.46102 0.02675 0.0
C990 C 0.06702 0.45474 0.03288 0.0
H991 H 0.1255 0.42632 0.07923 0.0
H992 H 0.10231 0.43811 0.07005 0.0
H993 H 0.08358 0.41962 0.02706 0.0
H994 H 0.03496 0.46675 0.99643 0.0
H995 H 0.05932 0.45737 0.00664 0.0
C996 C 0.62188 0.74178 0.03869 0.0
C997 C 0.61675 0.75094 0.04934 0.0
C998 C 0.60898 0.72048 0.03404 0.0
C999 C 0.57227 0.67034 0.0447 0.0
H1000 H 0.55245 0.65169 0.00742 0.0
C1001 C 0.51489 0.58302 0.0267 0.0
C1002 C 0.5175 0.57488 0.01456 0.0
C1003 C 0.5259 0.60468 0.03057 0.0
C1004 C 0.55808 0.65657 0.01784 0.0
H1005 H 0.59352 0.7448 0.06313 0.0
H1006 H 0.57159 0.70751 0.05532 0.0
H1007 H 0.57438 0.68922 0.01483 0.0
H1008 H 0.5336 0.58296 0.9969 0.0
H1009 H 0.55344 0.62061 0.00383 0.0
H1010 H 0.55683 0.63791 0.04778 0.0
C1011 C 0.58563 0.71691 0.05063 0.0
C1012 C 0.57055 0.67807 0.02206 0.0
C1013 C 0.59831 0.73825 0.05514 0.0
C1014 C 0.53114 0.58881 0.00627 0.0
C1015 C 0.54244 0.61044 0.01024 0.0
C1016 C 0.56012 0.64885 0.04047 0.0
C1017 C 0.59087 0.70784 0.04006 0.0
C1018 C 0.57768 0.68512 0.03553 0.0
C1019 C 0.54009 0.61867 0.02249 0.0
C1020 C 0.5528 0.64164 0.02698 0.0
H1021 H 0.63609 0.75092 0.0341 0.0
H1022 H 0.61343 0.71376 0.02593 0.0
H1023 H 0.57781 0.67542 0.05513 0.0
H1024 H 0.50432 0.57265 0.03323 0.0
H1025 H 0.52326 0.61041 0.03992 0.0
C1026 C 0.85021 0.26553 0.93264 0.0
C1027 C 0.84601 0.25106 0.94198 0.0
C1028 C 0.86121 0.28718 0.93665 0.0
C1029 C 0.87433 0.32563 0.96566 0.0
H1030 H 0.92037 0.36362 0.947 0.0
C1031 C 0.93298 0.4104 0.98799 0.0
C1032 C 0.94097 0.42637 0.97957 0.0
C1033 C 0.92045 0.38936 0.98278 0.0
C1034 C 0.90733 0.35329 0.9522 0.0
H1035 H 0.85059 0.24817 0.96285 0.0
H1036 H 0.86941 0.28586 0.96983 0.0
H1037 H 0.90035 0.32616 0.93902 0.0
H1038 H 0.94177 0.43273 0.95904 0.0
H1039 H 0.91949 0.3959 0.94994 0.0
H1040 H 0.88112 0.35262 0.9788 0.0
C1041 C 0.86398 0.28041 0.95942 0.0
C1042 C 0.89592 0.33183 0.94764 0.0
C1043 C 0.85315 0.2588 0.95541 0.0
C1044 C 0.93591 0.42081 0.9658 0.0
C1045 C 0.92325 0.39968 0.96058 0.0
C1046 C 0.88561 0.34707 0.97015 0.0
C1047 C 0.86808 0.29482 0.95009 0.0
C1048 C 0.8795 0.31774 0.95445 0.0
C1049 C 0.91543 0.3837 0.96902 0.0
C1050 C 0.90247 0.36114 0.96361 0.0
H1051 H 0.84468 0.26015 0.92225 0.0
H1052 H 0.86399 0.29792 0.92926 0.0
H1053 H 0.8615 0.3152 0.97097 0.0
H1054 H 0.93665 0.41406 0.99864 0.0
H1055 H 0.91507 0.37748 0.98958 0.0
C1056 C 0.68121 0.56078 0.9331 0.0
C1057 C 0.70027 0.57205 0.9414 0.0
C1058 C 0.662 0.55398 0.93828 0.0
C1059 C 0.63774 0.54278 0.96965 0.0
H1060 H 0.59471 0.55015 0.95124 0.0
C1061 C 0.56598 0.5337 0.99447 0.0
C1062 C 0.54643 0.52409 0.98672 0.0
C1063 C 0.58432 0.53866 0.98864 0.0
C1064 C 0.60643 0.5477 0.95643 0.0
H1065 H 0.71396 0.58537 0.96164 0.0
H1066 H 0.68058 0.57335 0.97064 0.0
H1067 H 0.62735 0.56013 0.94152 0.0
H1068 H 0.53089 0.51204 0.96668 0.0
H1069 H 0.56281 0.52043 0.95657 0.0
H1070 H 0.6169 0.53036 0.98455 0.0
C1071 C 0.68045 0.56947 0.96016 0.0
C1072 C 0.62515 0.55344 0.95085 0.0
C1073 C 0.69962 0.57633 0.95499 0.0
C1074 C 0.54567 0.51949 0.97298 0.0
C1075 C 0.56401 0.52442 0.96715 0.0
C1076 C 0.61901 0.53698 0.9752 0.0
C1077 C 0.66141 0.55823 0.95188 0.0
C1078 C 0.6411 0.55123 0.95746 0.0
C1079 C 0.58358 0.53408 0.97491 0.0
C1080 C 0.60319 0.53955 0.96873 0.0
H1081 H 0.68111 0.55699 0.92262 0.0
H1082 H 0.64759 0.54517 0.93166 0.0
H1083 H 0.64957 0.54055 0.97489 0.0
H1084 H 0.5672 0.53758 0.00507 0.0
H1085 H 0.59914 0.5464 0.9949 0.0
C1086 C 0.42026 0.12403 0.94281 0.0
C1087 C 0.433 0.14529 0.94789 0.0
C1088 C 0.42211 0.10842 0.94877 0.0
C1089 C 0.44447 0.09783 0.97899 0.0
H1090 H 0.44915 0.05814 0.95449 0.0
C1091 C 0.48308 0.0502 0.99486 0.0
C1092 C 0.47398 0.02925 0.98915 0.0
C1093 C 0.47569 0.06312 0.99047 0.0
C1094 C 0.44756 0.06887 0.96147 0.0
H1095 H 0.45717 0.16678 0.96347 0.0
H1096 H 0.46038 0.13961 0.97384 0.0
H1097 H 0.43955 0.08257 0.94594 0.0
H1098 H 0.44975 0.00535 0.97447 0.0
H1099 H 0.43682 0.02785 0.96691 0.0
H1100 H 0.45294 0.08436 0.99452 0.0
C1101 C 0.44877 0.13493 0.96536 0.0
C1102 C 0.44201 0.08286 0.95657 0.0
C1103 C 0.44692 0.15052 0.95941 0.0
C1104 C 0.45719 0.02144 0.97906 0.0
C1105 C 0.44981 0.03435 0.97467 0.0
C1106 C 0.45002 0.08382 0.9839 0.0
C1107 C 0.43674 0.11377 0.95992 0.0
C1108 C 0.44067 0.09767 0.96526 0.0
C1109 C 0.45906 0.05537 0.98027 0.0
C1110 C 0.45189 0.06938 0.97518 0.0
H1111 H 0.40916 0.11949 0.93407 0.0
H1112 H 0.41236 0.0922 0.94449 0.0
H1113 H 0.4433 0.10889 0.98594 0.0
H1114 H 0.49604 0.05672 0.00265 0.0
H1115 H 0.48333 0.07933 0.99486 0.0
C1116 C 0.70543 0.1274 0.95352 0.0
C1117 C 0.70831 0.11716 0.94239 0.0
C1118 C 0.68623 0.11813 0.95887 0.0
C1119 C 0.63029 0.08152 0.95103 0.0
H1120 H 0.63036 0.07163 0.98797 0.0
C1121 C 0.55389 0.0267 0.97281 0.0
C1122 C 0.55209 0.03069 0.98622 0.0
C1123 C 0.57283 0.03862 0.96753 0.0
C1124 C 0.62999 0.07462 0.97771 0.0
H1125 H 0.6934 0.08961 0.92789 0.0
H1126 H 0.65951 0.07363 0.93704 0.0
H1127 H 0.66356 0.09036 0.97852 0.0
H1128 H 0.56853 0.05072 0.00453 0.0
H1129 H 0.60135 0.0722 0.99521 0.0
H1130 H 0.59688 0.06638 0.95017 0.0
C1131 C 0.67219 0.0887 0.94168 0.0
C1132 C 0.64905 0.08525 0.9723 0.0
C1133 C 0.69153 0.09775 0.9365 0.0
C1134 C 0.5695 0.04718 0.99418 0.0
C1135 C 0.58837 0.05939 0.98883 0.0
C1136 C 0.61124 0.07125 0.95648 0.0
C1137 C 0.66946 0.0987 0.953 0.0
C1138 C 0.64934 0.08853 0.95888 0.0
C1139 C 0.59038 0.05513 0.97546 0.0
C1140 C 0.61078 0.06735 0.96986 0.0
H1141 H 0.71821 0.14232 0.95828 0.0
H1142 H 0.68445 0.12615 0.96758 0.0
H1143 H 0.63017 0.08409 0.94067 0.0
H1144 H 0.54082 0.01395 0.96644 0.0
H1145 H 0.57378 0.03448 0.95729 0.0
C1146 C 0.8564 0.57388 0.93317 0.0
C1147 C 0.83617 0.56695 0.93695 0.0
C1148 C 0.86814 0.56494 0.93761 0.0
C1149 C 0.87329 0.53645 0.9646 0.0
H1150 H 0.90756 0.52549 0.94162 0.0
C1151 C 0.91983 0.49699 0.98203 0.0
C1152 C 0.94037 0.5054 0.97848 0.0
C1153 C 0.90628 0.50321 0.97645 0.0
C1154 C 0.89822 0.52864 0.9482 0.0
H1155 H 0.81236 0.54502 0.94827 0.0
H1156 H 0.83277 0.52922 0.95588 0.0
H1157 H 0.8853 0.5385 0.93271 0.0
H1158 H 0.96268 0.5268 0.96615 0.0
H1159 H 0.93917 0.53781 0.95658 0.0
H1160 H 0.88639 0.52689 0.98014 0.0
C1161 C 0.8396 0.54171 0.94957 0.0
C1162 C 0.88545 0.53608 0.94309 0.0
C1163 C 0.82782 0.5506 0.94509 0.0
C1164 C 0.94696 0.51997 0.9691 0.0
C1165 C 0.93342 0.5262 0.96354 0.0
C1166 C 0.88608 0.52906 0.96972 0.0
C1167 C 0.85997 0.5489 0.94598 0.0
C1168 C 0.87293 0.54019 0.95124 0.0
C1169 C 0.91295 0.51799 0.9672 0.0
C1170 C 0.89881 0.52517 0.96161 0.0
H1171 H 0.86319 0.58628 0.92679 0.0
H1172 H 0.88384 0.57097 0.93474 0.0
H1173 H 0.86409 0.53977 0.97121 0.0
H1174 H 0.91418 0.48565 0.98916 0.0
H1175 H 0.89053 0.49634 0.97935 0.0
C1176 C 0.42715 0.29582 0.94519 0.0
C1177 C 0.43737 0.2862 0.95115 0.0
C1178 C 0.42814 0.31362 0.95174 0.0
C1179 C 0.46342 0.3581 0.97601 0.0
H1180 H 0.41816 0.37047 0.97534 0.0
C1181 C 0.47712 0.43646 0.00091 0.0
C1182 C 0.46849 0.44664 0.99391 0.0
C1183 C 0.47098 0.41554 0.99697 0.0
C1184 C 0.43098 0.3673 0.97552 0.0
H1185 H 0.45521 0.28668 0.96905 0.0
H1186 H 0.45703 0.3178 0.98043 0.0
H1187 H 0.41106 0.33573 0.9662 0.0
H1188 H 0.44621 0.44275 0.97752 0.0
H1189 H 0.43591 0.40635 0.97036 0.0
H1190 H 0.48354 0.38966 0.98484 0.0
C1191 C 0.4486 0.31181 0.9706 0.0
C1192 C 0.4269 0.3474 0.97033 0.0
C1193 C 0.44758 0.29403 0.96408 0.0
C1194 C 0.45313 0.4353 0.98311 0.0
C1195 C 0.44714 0.4144 0.97906 0.0
C1196 C 0.46753 0.37795 0.98109 0.0
C1197 C 0.43939 0.32213 0.96436 0.0
C1198 C 0.44311 0.34266 0.97049 0.0
C1199 C 0.45625 0.40438 0.98582 0.0
C1200 C 0.45141 0.38285 0.98087 0.0
H1201 H 0.41929 0.29024 0.9352 0.0
H1202 H 0.42103 0.32133 0.94664 0.0
H1203 H 0.47634 0.35506 0.97602 0.0
H1204 H 0.48877 0.44469 0.0094 0.0
H1205 H 0.47796 0.40819 0.00259 0.0
C1206 C 0.16689 0.69133 0.05917 0.0
C1207 C 0.1647 0.70012 0.07123 0.0
C1208 C 0.1497 0.67367 0.05203 0.0
C1209 C 0.09169 0.64176 0.04801 0.0
H1210 H 0.10186 0.59787 0.03391 0.0
C1211 C 0.02493 0.55821 0.02626 0.0
C1212 C 0.02858 0.54891 0.01498 0.0
C1213 C 0.04097 0.5773 0.03294 0.0
C1214 C 0.09878 0.61006 0.03763 0.0
H1215 H 0.1426 0.69756 0.0851 0.0
H1216 H 0.11252 0.66663 0.07262 0.0
H1217 H 0.13076 0.63014 0.04573 0.0
H1218 H 0.05177 0.55273 0.00163 0.0
H1219 H 0.07952 0.586 0.01314 0.0
H1220 H 0.05961 0.62152 0.0399 0.0
C1221 C 0.12753 0.67354 0.06864 0.0
C1222 C 0.11536 0.62858 0.04441 0.0
C1223 C 0.14476 0.69125 0.07579 0.0
C1224 C 0.04844 0.55933 0.01036 0.0
C1225 C 0.06442 0.57838 0.017 0.0
C1226 C 0.07505 0.62318 0.04119 0.0
C1227 C 0.1299 0.66436 0.05679 0.0
C1228 C 0.11206 0.6447 0.04962 0.0
C1229 C 0.06098 0.58747 0.02846 0.0
C1230 C 0.07845 0.60717 0.03586 0.0
H1231 H 0.18194 0.69806 0.05525 0.0
H1232 H 0.15195 0.66725 0.0428 0.0
H1233 H 0.08868 0.65396 0.05183 0.0
H1234 H 0.00982 0.55057 0.03011 0.0
H1235 H 0.03787 0.5838 0.04181 0.0
C1236 C 0.28225 0.4479 0.05533 0.0
C1237 C 0.2784 0.43491 0.06554 0.0
C1238 C 0.30172 0.45725 0.05029 0.0
C1239 C 0.35722 0.47158 0.05789 0.0
H1240 H 0.35751 0.46841 0.01971 0.0
C1241 C 0.43021 0.48531 0.03288 0.0
C1242 C 0.43465 0.49591 0.02148 0.0
C1243 C 0.41157 0.47969 0.03847 0.0
C1244 C 0.35776 0.46975 0.0304 0.0
H1245 H 0.29223 0.42213 0.07875 0.0
H1246 H 0.32611 0.43827 0.06989 0.0
H1247 H 0.32432 0.45561 0.02921 0.0
H1248 H 0.42298 0.50917 0.00714 0.0
H1249 H 0.3905 0.49953 0.017 0.0
H1250 H 0.39062 0.48556 0.0591 0.0
C1251 C 0.31411 0.44131 0.06581 0.0
C1252 C 0.33872 0.46238 0.03584 0.0
C1253 C 0.29463 0.43188 0.0708 0.0
C1254 C 0.42005 0.50094 0.01589 0.0
C1255 C 0.40137 0.49533 0.0215 0.0
C1256 C 0.37626 0.47899 0.05245 0.0
C1257 C 0.31782 0.45393 0.0554 0.0
C1258 C 0.3382 0.46298 0.04965 0.0
C1259 C 0.39687 0.48456 0.03284 0.0
C1260 C 0.37675 0.47792 0.03863 0.0
H1261 H 0.27002 0.45041 0.05099 0.0
H1262 H 0.30415 0.46704 0.04236 0.0
H1263 H 0.35739 0.47258 0.06857 0.0
H1264 H 0.44104 0.48111 0.03746 0.0
H1265 H 0.4085 0.47112 0.04707 0.0
C1266 C 0.60486 0.88381 0.06006 0.0
C1267 C 0.6177 0.88093 0.05152 0.0
C1268 C 0.59234 0.89194 0.0557 0.0
C1269 C 0.56705 0.89833 0.02558 0.0
H1270 H 0.56647 0.94288 0.04772 0.0
C1271 C 0.53082 0.94614 0.00606 0.0
C1272 C 0.52066 0.95278 0.01475 0.0
C1273 C 0.54146 0.93619 0.01063 0.0
C1274 C 0.56615 0.93021 0.0415 0.0
H1275 H 0.62734 0.88408 0.03171 0.0
H1276 H 0.60545 0.89834 0.02409 0.0
H1277 H 0.58748 0.92793 0.05559 0.0
H1278 H 0.51313 0.95356 0.03499 0.0
H1279 H 0.53129 0.93575 0.04289 0.0
H1280 H 0.54562 0.90045 0.01151 0.0
C1281 C 0.60506 0.89425 0.03414 0.0
C1282 C 0.57826 0.9217 0.046 0.0
C1283 C 0.61773 0.8863 0.03853 0.0
C1284 C 0.52091 0.94876 0.02805 0.0
C1285 C 0.53145 0.93867 0.0326 0.0
C1286 C 0.5548 0.90672 0.02111 0.0
C1287 C 0.59225 0.89718 0.04268 0.0
C1288 C 0.57896 0.90579 0.03804 0.0
C1289 C 0.54208 0.93251 0.02399 0.0
C1290 C 0.55433 0.92288 0.02897 0.0
H1291 H 0.60465 0.87995 0.07015 0.0
H1292 H 0.58253 0.89391 0.06247 0.0
H1293 H 0.56705 0.88586 0.01932 0.0
H1294 H 0.53102 0.94908 0.99577 0.0
H1295 H 0.54972 0.93194 0.00376 0.0
C1296 C 0.97416 0.16903 0.39084 0.0
C1297 C 0.97012 0.17763 0.40228 0.0
C1298 C 0.98988 0.18193 0.3833 0.0
C1299 C 0.02343 0.23728 0.37699 0.0
H1300 H 0.06103 0.2181 0.366 0.0
C1301 C 0.10404 0.293 0.36018 0.0
C1302 C 0.11076 0.28559 0.34952 0.0
C1303 C 0.08573 0.27946 0.36556 0.0
C1304 C 0.0505 0.22356 0.36881 0.0
H1305 H 0.97896 0.20663 0.4145 0.0
H1306 H 0.00667 0.22914 0.40145 0.0
H1307 H 0.03091 0.19526 0.37723 0.0
H1308 H 0.10336 0.25811 0.33609 0.0
H1309 H 0.07123 0.23444 0.34548 0.0
H1310 H 0.04322 0.26572 0.36872 0.0
C1311 C 0.99754 0.21242 0.39826 0.0
C1312 C 0.03323 0.21047 0.37525 0.0
C1313 C 0.98182 0.19951 0.40581 0.0
C1314 C 0.09865 0.26431 0.34432 0.0
C1315 C 0.0803 0.25073 0.34973 0.0
C1316 C 0.04071 0.25037 0.37054 0.0
C1317 C 0.00194 0.20374 0.38702 0.0
C1318 C 0.01961 0.21726 0.37953 0.0
C1319 C 0.07366 0.25817 0.36043 0.0
C1320 C 0.05457 0.24375 0.36651 0.0
H1321 H 0.96562 0.15222 0.38792 0.0
H1322 H 0.99271 0.17479 0.37461 0.0
H1323 H 0.01305 0.24283 0.37997 0.0
H1324 H 0.11303 0.30926 0.3645 0.0
H1325 H 0.08127 0.28561 0.37394 0.0
C1326 C 0.8072 0.77935 0.40169 0.0
C1327 C 0.80364 0.75932 0.39701 0.0
C1328 C 0.79366 0.78629 0.39713 0.0
C1329 C 0.74049 0.76648 0.37883 0.0
H1330 H 0.76271 0.82537 0.37434 0.0
C1331 C 0.69734 0.79767 0.34638 0.0
C1332 C 0.69459 0.81349 0.35275 0.0
C1333 C 0.71035 0.79134 0.35259 0.0
C1334 C 0.75632 0.80891 0.37565 0.0
H1335 H 0.78257 0.73082 0.38394 0.0
H1336 H 0.76007 0.74335 0.37542 0.0
H1337 H 0.78615 0.81383 0.38346 0.0
H1338 H 0.7035 0.83529 0.37055 0.0
H1339 H 0.72688 0.82463 0.38122 0.0
H1340 H 0.71087 0.76158 0.37036 0.0
C1341 C 0.77292 0.75357 0.38291 0.0
C1342 C 0.76969 0.80226 0.38094 0.0
C1343 C 0.78619 0.7465 0.38763 0.0
C1344 C 0.70529 0.82302 0.36541 0.0
C1345 C 0.7187 0.81701 0.3715 0.0
C1346 C 0.72727 0.77308 0.37329 0.0
C1347 C 0.77635 0.77352 0.38763 0.0
C1348 C 0.762 0.78089 0.38252 0.0
C1349 C 0.72121 0.80102 0.36516 0.0
C1350 C 0.73509 0.79431 0.37159 0.0
H1351 H 0.82056 0.78983 0.40879 0.0
H1352 H 0.79674 0.80163 0.40116 0.0
H1353 H 0.73376 0.75002 0.3802 0.0
H1354 H 0.68922 0.78996 0.33666 0.0
H1355 H 0.71213 0.77904 0.3475 0.0
C1356 C 0.27333 0.06636 0.39628 0.0
C1357 C 0.28166 0.08141 0.38728 0.0
C1358 C 0.26057 0.04503 0.39173 0.0
C1359 C 0.24713 0.00654 0.36242 0.0
H1360 H 0.19793 0.97189 0.37988 0.0
C1361 C 0.18751 0.92096 0.34159 0.0
C1362 C 0.18086 0.90604 0.35075 0.0
C1363 C 0.19875 0.94245 0.34596 0.0
C1364 C 0.21171 0.98134 0.37497 0.0
H1365 H 0.28296 0.08588 0.36644 0.0
H1366 H 0.26064 0.04864 0.35849 0.0
H1367 H 0.21995 0.00926 0.38767 0.0
H1368 H 0.18029 0.90204 0.37169 0.0
H1369 H 0.19999 0.93957 0.37929 0.0
H1370 H 0.23893 0.97863 0.34975 0.0
C1371 C 0.26423 0.05331 0.36907 0.0
C1372 C 0.22434 0.00273 0.37944 0.0
C1373 C 0.27703 0.07464 0.37362 0.0
C1374 C 0.18516 0.91311 0.36437 0.0
C1375 C 0.19638 0.93462 0.36873 0.0
C1376 C 0.23449 0.98518 0.35794 0.0
C1377 C 0.25583 0.03825 0.37807 0.0
C1378 C 0.24224 0.01557 0.37324 0.0
C1379 C 0.20357 0.94952 0.35957 0.0
C1380 C 0.21666 0.97232 0.36418 0.0
H1381 H 0.27686 0.07106 0.40686 0.0
H1382 H 0.25465 0.03381 0.39893 0.0
H1383 H 0.26099 0.0159 0.35756 0.0
H1384 H 0.18439 0.91609 0.33103 0.0
H1385 H 0.20379 0.95356 0.33866 0.0
C1386 C 0.52101 0.60473 0.27922 0.0
C1387 C 0.52167 0.59019 0.2872 0.0
C1388 C 0.53164 0.62618 0.2837 0.0
C1389 C 0.57439 0.66586 0.30856 0.0
H1390 H 0.5507 0.70047 0.29928 0.0
C1391 C 0.61028 0.75226 0.33081 0.0
C1392 C 0.61328 0.76676 0.32169 0.0
C1393 C 0.59846 0.73066 0.32683 0.0
C1394 C 0.55753 0.69099 0.30187 0.0
H1395 H 0.53402 0.58693 0.30625 0.0
H1396 H 0.55183 0.62419 0.31427 0.0
H1397 H 0.53104 0.66274 0.29218 0.0
H1398 H 0.60586 0.76997 0.30133 0.0
H1399 H 0.58494 0.73215 0.29443 0.0
H1400 H 0.60073 0.69416 0.31844 0.0
C1401 C 0.54346 0.61907 0.3044 0.0
C1402 C 0.54633 0.66939 0.29777 0.0
C1403 C 0.53298 0.59762 0.29987 0.0
C1404 C 0.60386 0.7592 0.30858 0.0
C1405 C 0.59181 0.73757 0.30464 0.0
C1406 C 0.58546 0.68741 0.31278 0.0
C1407 C 0.54304 0.63365 0.29634 0.0
C1408 C 0.55467 0.65656 0.301 0.0
C1409 C 0.58919 0.72311 0.3137 0.0
C1410 C 0.57719 0.70019 0.30942 0.0
H1411 H 0.51219 0.59957 0.26949 0.0
H1412 H 0.53115 0.63693 0.27714 0.0
H1413 H 0.58151 0.65659 0.31102 0.0
H1414 H 0.61734 0.75756 0.34098 0.0
H1415 H 0.59652 0.71984 0.33404 0.0
C1416 C 0.34542 0.89529 0.26546 0.0
C1417 C 0.36401 0.90196 0.2738 0.0
C1418 C 0.32626 0.88824 0.27074 0.0
C1419 C 0.3001 0.86931 0.30111 0.0
H1420 H 0.26184 0.88648 0.28675 0.0
C1421 C 0.23007 0.8618 0.32776 0.0
C1422 C 0.21096 0.85473 0.31989 0.0
C1423 C 0.24833 0.86649 0.32188 0.0
C1424 C 0.27224 0.88135 0.29078 0.0
H1425 H 0.37706 0.90664 0.29424 0.0
H1426 H 0.34381 0.89457 0.30345 0.0
H1427 H 0.29429 0.89637 0.27688 0.0
H1428 H 0.1961 0.84695 0.29964 0.0
H1429 H 0.22792 0.85514 0.28944 0.0
H1430 H 0.27814 0.85461 0.31515 0.0
C1431 C 0.34387 0.89431 0.2928 0.0
C1432 C 0.29084 0.88698 0.2851 0.0
C1433 C 0.36297 0.90125 0.28752 0.0
C1434 C 0.21053 0.85238 0.30602 0.0
C1435 C 0.22881 0.85719 0.30015 0.0
C1436 C 0.28154 0.86378 0.30683 0.0
C1437 C 0.32527 0.88781 0.28449 0.0
C1438 C 0.30507 0.88113 0.29023 0.0
C1439 C 0.24793 0.86434 0.30801 0.0
C1440 C 0.26744 0.86981 0.30176 0.0
H1441 H 0.34566 0.89543 0.25483 0.0
H1442 H 0.31221 0.88304 0.26402 0.0
H1443 H 0.31049 0.86421 0.30518 0.0
H1444 H 0.23098 0.8638 0.33847 0.0
H1445 H 0.26286 0.87218 0.32821 0.0
C1446 C 0.09392 0.4591 0.26907 0.0
C1447 C 0.10508 0.48029 0.2745 0.0
C1448 C 0.09613 0.44391 0.27533 0.0
C1449 C 0.11601 0.4341 0.30692 0.0
H1450 H 0.12475 0.39564 0.28397 0.0
C1451 C 0.15429 0.38781 0.32622 0.0
C1452 C 0.14589 0.36689 0.32062 0.0
C1453 C 0.14721 0.40055 0.32107 0.0
C1454 C 0.12205 0.40605 0.29051 0.0
H1455 H 0.12696 0.50209 0.29092 0.0
H1456 H 0.13084 0.47568 0.30181 0.0
H1457 H 0.11532 0.41947 0.27428 0.0
H1458 H 0.12328 0.34289 0.3053 0.0
H1459 H 0.11093 0.36509 0.2964 0.0
H1460 H 0.1232 0.4209 0.32317 0.0
C1461 C 0.12012 0.47069 0.29282 0.0
C1462 C 0.11659 0.41969 0.28496 0.0
C1463 C 0.11789 0.48585 0.28658 0.0
C1464 C 0.13014 0.35895 0.30985 0.0
C1465 C 0.12311 0.37169 0.30469 0.0
C1466 C 0.12152 0.42047 0.31249 0.0
C1467 C 0.10958 0.44962 0.28715 0.0
C1468 C 0.11372 0.43402 0.29309 0.0
C1469 C 0.13164 0.39266 0.31019 0.0
C1470 C 0.1248 0.40644 0.30434 0.0
H1471 H 0.0837 0.45429 0.25987 0.0
H1472 H 0.08751 0.42774 0.27083 0.0
H1473 H 0.11363 0.44476 0.31345 0.0
H1474 H 0.16644 0.39443 0.33452 0.0
H1475 H 0.15428 0.41672 0.32542 0.0
C1476 C 0.38167 0.46252 0.29374 0.0
C1477 C 0.38522 0.45514 0.28165 0.0
C1478 C 0.36172 0.45252 0.29808 0.0
C1479 C 0.31083 0.40205 0.29253 0.0
H1480 H 0.29127 0.43388 0.31305 0.0
C1481 C 0.22612 0.3652 0.3065 0.0
C1482 C 0.22429 0.3684 0.32002 0.0
C1483 C 0.24542 0.37659 0.30151 0.0
C1484 C 0.2966 0.42482 0.30737 0.0
H1485 H 0.37069 0.432 0.26441 0.0
H1486 H 0.33564 0.41493 0.2717 0.0
H1487 H 0.32539 0.45228 0.30456 0.0
H1488 H 0.24115 0.38658 0.33882 0.0
H1489 H 0.27487 0.40677 0.33 0.0
H1490 H 0.28176 0.37466 0.29515 0.0
C1491 C 0.34835 0.42801 0.27808 0.0
C1492 C 0.31619 0.43531 0.30255 0.0
C1493 C 0.36838 0.43783 0.27384 0.0
C1494 C 0.24206 0.3837 0.32837 0.0
C1495 C 0.26132 0.39532 0.32333 0.0
C1496 C 0.29114 0.39163 0.29719 0.0
C1497 C 0.34478 0.43508 0.29033 0.0
C1498 C 0.32363 0.42405 0.29513 0.0
C1499 C 0.26323 0.39163 0.30989 0.0
C1500 C 0.2839 0.40289 0.30471 0.0
H1501 H 0.39447 0.4757 0.30001 0.0
H1502 H 0.35974 0.4582 0.30767 0.0
H1503 H 0.31614 0.39276 0.28711 0.0
H1504 H 0.21275 0.35351 0.2998 0.0
H1505 H 0.24646 0.37358 0.2911 0.0
C1506 C 0.51912 0.90555 0.26641 0.0
C1507 C 0.50377 0.90529 0.27403 0.0
C1508 C 0.53195 0.89783 0.27097 0.0
C1509 C 0.55102 0.88608 0.30199 0.0
H1510 H 0.5682 0.85559 0.27814 0.0
C1511 C 0.59373 0.84424 0.32122 0.0
C1512 C 0.61134 0.8471 0.31504 0.0
C1513 C 0.58044 0.85081 0.31576 0.0
C1514 C 0.56367 0.86424 0.28489 0.0
H1515 H 0.48923 0.89592 0.29213 0.0
H1516 H 0.5113 0.88214 0.29998 0.0
H1517 H 0.54496 0.86768 0.26942 0.0
H1518 H 0.62849 0.8587 0.29805 0.0
H1519 H 0.60516 0.87013 0.2885 0.0
H1520 H 0.56954 0.88247 0.31747 0.0
C1521 C 0.51388 0.88883 0.29065 0.0
C1522 C 0.55038 0.8712 0.2799 0.0
C1523 C 0.50117 0.89667 0.28614 0.0
C1524 C 0.61509 0.8563 0.3031 0.0
C1525 C 0.60168 0.86276 0.29758 0.0
C1526 C 0.56417 0.87902 0.30697 0.0
C1527 C 0.52963 0.88955 0.28322 0.0
C1528 C 0.54383 0.88215 0.28841 0.0
C1529 C 0.58435 0.86029 0.30394 0.0
C1530 C 0.57058 0.86796 0.2985 0.0
H1531 H 0.52161 0.91229 0.25709 0.0
H1532 H 0.54406 0.89887 0.26505 0.0
H1533 H 0.54672 0.89487 0.30879 0.0
H1534 H 0.59029 0.83717 0.3304 0.0
H1535 H 0.56705 0.84842 0.3208 0.0
C1536 C 0.09754 0.63052 0.27226 0.0
C1537 C 0.10699 0.62041 0.2785 0.0
C1538 C 0.09841 0.64827 0.27878 0.0
C1539 C 0.13204 0.69162 0.30433 0.0
H1540 H 0.08714 0.70452 0.30189 0.0
C1541 C 0.14303 0.76796 0.33087 0.0
C1542 C 0.1355 0.779 0.32379 0.0
C1543 C 0.13742 0.74744 0.32622 0.0
C1544 C 0.09987 0.7012 0.30256 0.0
H1545 H 0.12339 0.62 0.2968 0.0
H1546 H 0.12494 0.651 0.30818 0.0
H1547 H 0.08057 0.67017 0.29234 0.0
H1548 H 0.11581 0.777 0.30639 0.0
H1549 H 0.1064 0.74124 0.29808 0.0
H1550 H 0.15154 0.72265 0.3142 0.0
C1551 C 0.11723 0.64545 0.29815 0.0
C1552 C 0.09608 0.68153 0.29713 0.0
C1553 C 0.11635 0.62773 0.29164 0.0
C1554 C 0.12184 0.76888 0.31209 0.0
C1555 C 0.11635 0.74835 0.30736 0.0
C1556 C 0.13585 0.71125 0.30969 0.0
C1557 C 0.10875 0.65623 0.29167 0.0
C1558 C 0.11216 0.67658 0.29794 0.0
C1559 C 0.12432 0.7375 0.3143 0.0
C1560 C 0.11984 0.71631 0.30886 0.0
H1561 H 0.09037 0.62535 0.2621 0.0
H1562 H 0.09188 0.65634 0.2735 0.0
H1563 H 0.14488 0.68846 0.30486 0.0
H1564 H 0.15336 0.7752 0.34002 0.0
H1565 H 0.14348 0.73938 0.33195 0.0
C1566 C 0.81465 0.03575 0.40668 0.0
C1567 C 0.83502 0.04378 0.40291 0.0
C1568 C 0.7975 0.0186 0.39908 0.0
C1569 C 0.78544 0.97306 0.37563 0.0
H1570 H 0.73089 0.96823 0.36879 0.0
C1571 C 0.71846 0.90214 0.34289 0.0
C1572 C 0.69853 0.89288 0.34744 0.0
C1573 C 0.73454 0.92178 0.34872 0.0
C1574 C 0.74599 0.96929 0.37072 0.0
H1575 H 0.85321 0.04091 0.38781 0.0
H1576 H 0.82335 0.011 0.37458 0.0
H1577 H 0.76012 0.00052 0.38077 0.0
H1578 H 0.67962 0.89727 0.3614 0.0
H1579 H 0.70785 0.93146 0.37176 0.0
H1580 H 0.77141 0.94184 0.36587 0.0
C1581 C 0.82067 0.01767 0.38355 0.0
C1582 C 0.76271 0.98778 0.37756 0.0
C1583 C 0.83778 0.03479 0.39114 0.0
C1584 C 0.69481 0.904 0.35766 0.0
C1585 C 0.71097 0.92364 0.36356 0.0
C1586 C 0.76877 0.95462 0.36886 0.0
C1587 C 0.8004 0.00915 0.38755 0.0
C1588 C 0.78262 0.98984 0.38008 0.0
C1589 C 0.73113 0.93257 0.35931 0.0
C1590 C 0.74884 0.9525 0.3663 0.0
H1591 H 0.81204 0.04225 0.41576 0.0
H1592 H 0.78209 0.01227 0.40247 0.0
H1593 H 0.80046 0.97398 0.37765 0.0
H1594 H 0.72178 0.8941 0.33492 0.0
H1595 H 0.74975 0.92842 0.34502 0.0
C1596 C 0.96151 0.77495 0.40524 0.0
C1597 C 0.94332 0.77089 0.39737 0.0
C1598 C 0.98092 0.78391 0.4001 0.0
C1599 C 0.00342 0.79148 0.36786 0.0
H1600 H 0.05579 0.82836 0.38991 0.0
C1601 C 0.08377 0.83101 0.34676 0.0
C1602 C 0.09971 0.82919 0.35374 0.0
C1603 C 0.06499 0.82556 0.35218 0.0
C1604 C 0.04128 0.81802 0.38365 0.0
H1605 H 0.9313 0.77399 0.37821 0.0
H1606 H 0.96517 0.79018 0.36936 0.0
H1607 H 0.02252 0.81634 0.39925 0.0
H1608 H 0.10861 0.82076 0.37208 0.0
H1609 H 0.07595 0.81144 0.38154 0.0
H1610 H 0.02226 0.79333 0.35225 0.0
C1611 C 0.96445 0.78584 0.37935 0.0
C1612 C 0.02219 0.81105 0.38901 0.0
C1613 C 0.94504 0.77667 0.38443 0.0
C1614 C 0.09663 0.82225 0.36639 0.0
C1615 C 0.07797 0.81705 0.37187 0.0
C1616 C 0.02249 0.79863 0.36249 0.0
C1617 C 0.98261 0.78923 0.38701 0.0
C1618 C 0.00299 0.79752 0.38121 0.0
C1619 C 0.06186 0.81844 0.36478 0.0
C1620 C 0.04163 0.81181 0.37035 0.0
H1621 H 0.9606 0.77047 0.41521 0.0
H1622 H 0.99445 0.78599 0.40626 0.0
H1623 H 0.98904 0.78076 0.3616 0.0
H1624 H 0.08564 0.8363 0.337 0.0
H1625 H 0.0529 0.82694 0.34653 0.0
C1626 C 0.28097 0.21603 0.37275 0.0
C1627 C 0.28728 0.21768 0.3863 0.0
C1628 C 0.26904 0.22484 0.36848 0.0
C1629 C 0.25427 0.26429 0.3789 0.0
H1630 H 0.20883 0.23343 0.35063 0.0
C1631 C 0.19652 0.29214 0.36313 0.0
C1632 C 0.19225 0.29171 0.34941 0.0
C1633 C 0.20716 0.28229 0.36793 0.0
C1634 C 0.22156 0.2423 0.35847 0.0
H1635 H 0.28594 0.2298 0.406 0.0
H1636 H 0.26502 0.24513 0.39857 0.0
H1637 H 0.22965 0.2182 0.35842 0.0
H1638 H 0.19537 0.28011 0.33 0.0
H1639 H 0.21392 0.26298 0.33838 0.0
H1640 H 0.24615 0.28839 0.37893 0.0
C1641 C 0.26957 0.23729 0.39122 0.0
C1642 C 0.23353 0.2336 0.36291 0.0
C1643 C 0.28156 0.22852 0.39548 0.0
C1644 C 0.19839 0.28076 0.34062 0.0
C1645 C 0.20894 0.27084 0.34542 0.0
C1646 C 0.24226 0.27296 0.37448 0.0
C1647 C 0.26308 0.23547 0.37767 0.0
C1648 C 0.25011 0.24456 0.37313 0.0
C1649 C 0.21366 0.2717 0.35912 0.0
C1650 C 0.22585 0.2621 0.36416 0.0
H1651 H 0.2854 0.20804 0.36542 0.0
H1652 H 0.26465 0.2235 0.35796 0.0
H1653 H 0.2671 0.27328 0.38665 0.0
H1654 H 0.19198 0.3004 0.37019 0.0
H1655 H 0.21033 0.28299 0.37854 0.0
C1656 C 0.66697 0.5254 0.75181 0.0
C1657 C 0.64613 0.51196 0.7462 0.0
C1658 C 0.68247 0.53763 0.74394 0.0
C1659 C 0.6912 0.56008 0.71205 0.0
H1660 H 0.74523 0.56364 0.71851 0.0
C1661 C 0.75963 0.6039 0.67995 0.0
C1662 C 0.77958 0.61672 0.68706 0.0
C1663 C 0.74261 0.5901 0.6864 0.0
C1664 C 0.73029 0.56293 0.71664 0.0
H1665 H 0.62515 0.50114 0.72795 0.0
H1666 H 0.65232 0.52264 0.71417 0.0
H1667 H 0.71683 0.5419 0.73127 0.0
H1668 H 0.79724 0.62505 0.70652 0.0
H1669 H 0.76773 0.60124 0.71765 0.0
H1670 H 0.70484 0.58132 0.69747 0.0
C1671 C 0.65659 0.52376 0.72469 0.0
C1672 C 0.71401 0.5505 0.72397 0.0
C1673 C 0.64103 0.51147 0.73258 0.0
C1674 C 0.78215 0.61536 0.7007 0.0
C1675 C 0.76522 0.60159 0.70709 0.0
C1676 C 0.70753 0.57256 0.7047 0.0
C1677 C 0.67754 0.53676 0.73027 0.0
C1678 C 0.69438 0.54917 0.72191 0.0
C1679 C 0.74525 0.58879 0.70004 0.0
C1680 C 0.72736 0.57437 0.70707 0.0
H1681 H 0.67133 0.52647 0.76231 0.0
H1682 H 0.69837 0.54785 0.7486 0.0
H1683 H 0.67628 0.55947 0.71029 0.0
H1684 H 0.75711 0.60457 0.66944 0.0
H1685 H 0.72743 0.58032 0.68068 0.0
C1686 C 0.44964 0.08616 0.73453 0.0
C1687 C 0.47137 0.09696 0.73361 0.0
C1688 C 0.43703 0.09372 0.72939 0.0
C1689 C 0.43881 0.14114 0.71749 0.0
H1690 H 0.384 0.10007 0.69953 0.0
C1691 C 0.38678 0.16363 0.68546 0.0
C1692 C 0.36526 0.15319 0.68711 0.0
C1693 C 0.40001 0.15732 0.69142 0.0
C1694 C 0.39918 0.11173 0.70462 0.0
H1695 H 0.49694 0.1243 0.72668 0.0
H1696 H 0.4749 0.1374 0.7175 0.0
H1697 H 0.40656 0.08826 0.70949 0.0
H1698 H 0.34085 0.12799 0.69642 0.0
H1699 H 0.36391 0.11698 0.70673 0.0
H1700 H 0.43141 0.16461 0.71237 0.0
C1701 C 0.46762 0.12326 0.72241 0.0
C1702 C 0.41212 0.10497 0.71037 0.0
C1703 C 0.48028 0.11575 0.72766 0.0
C1704 C 0.35731 0.13635 0.69489 0.0
C1705 C 0.37051 0.12996 0.70076 0.0
C1706 C 0.42589 0.14791 0.71164 0.0
C1707 C 0.44578 0.11221 0.72308 0.0
C1708 C 0.43208 0.11956 0.71694 0.0
C1709 C 0.392 0.14034 0.69908 0.0
C1710 C 0.40589 0.13327 0.70519 0.0
H1711 H 0.44238 0.07181 0.73925 0.0
H1712 H 0.42037 0.08505 0.73036 0.0
H1713 H 0.45395 0.15282 0.72261 0.0
H1714 H 0.39344 0.17669 0.67956 0.0
H1715 H 0.41647 0.16552 0.68985 0.0
C1716 C 0.92695 0.40543 0.70666 0.0
C1717 C 0.94888 0.415 0.70902 0.0
C1718 C 0.91475 0.38423 0.70167 0.0
C1719 C 0.91806 0.33932 0.6855 0.0
H1720 H 0.86553 0.30596 0.70021 0.0
C1721 C 0.87474 0.24886 0.6817 0.0
C1722 C 0.85295 0.23803 0.67797 0.0
C1723 C 0.88585 0.27072 0.68452 0.0
C1724 C 0.88004 0.31514 0.69591 0.0
H1725 H 0.97533 0.41007 0.70795 0.0
H1726 H 0.95407 0.3729 0.69957 0.0
H1727 H 0.88623 0.34374 0.70686 0.0
H1728 H 0.8257 0.24159 0.67433 0.0
H1729 H 0.84519 0.27991 0.6795 0.0
H1730 H 0.91209 0.31044 0.67493 0.0
C1731 C 0.94624 0.38182 0.70124 0.0
C1732 C 0.8919 0.3368 0.69967 0.0
C1733 C 0.95845 0.4031 0.70609 0.0
C1734 C 0.84248 0.24951 0.67717 0.0
C1735 C 0.8536 0.27139 0.68017 0.0
C1736 C 0.90631 0.31762 0.68187 0.0
C1737 C 0.92421 0.37206 0.69908 0.0
C1738 C 0.91114 0.34916 0.69459 0.0
C1739 C 0.8754 0.28218 0.68381 0.0
C1740 C 0.88727 0.30531 0.68711 0.0
H1741 H 0.91922 0.41436 0.70867 0.0
H1742 H 0.89789 0.37738 0.69986 0.0
H1743 H 0.93258 0.34837 0.68119 0.0
H1744 H 0.88328 0.24049 0.68237 0.0
H1745 H 0.90262 0.27863 0.68744 0.0
C1746 C 0.17902 0.94493 0.62535 0.0
C1747 C 0.18294 0.93568 0.61418 0.0
C1748 C 0.19076 0.96667 0.62887 0.0
C1749 C 0.2416 0.01294 0.6257 0.0
H1750 H 0.2143 0.04428 0.63572 0.0
C1751 C 0.28877 0.10304 0.63893 0.0
C1752 C 0.28317 0.1112 0.64982 0.0
C1753 C 0.27593 0.08207 0.63351 0.0
C1754 C 0.2222 0.03574 0.63308 0.0
H1755 H 0.20229 0.94187 0.59801 0.0
H1756 H 0.22287 0.97988 0.60419 0.0
H1757 H 0.1931 0.00663 0.6286 0.0
H1758 H 0.25953 0.10381 0.66342 0.0
H1759 H 0.23751 0.06729 0.65421 0.0
H1760 H 0.27071 0.0418 0.63051 0.0
C1761 C 0.2107 0.97031 0.6102 0.0
C1762 C 0.21004 0.01419 0.62898 0.0
C1763 C 0.19882 0.9486 0.60661 0.0
C1764 C 0.26428 0.09808 0.65499 0.0
C1765 C 0.25155 0.07711 0.64964 0.0
C1766 C 0.25378 0.03445 0.62991 0.0
C1767 C 0.20679 0.97956 0.62137 0.0
C1768 C 0.21962 0.00255 0.62532 0.0
C1769 C 0.25729 0.06877 0.63891 0.0
C1770 C 0.24425 0.04611 0.63375 0.0
H1771 H 0.16678 0.93535 0.63132 0.0
H1772 H 0.18753 0.97337 0.6376 0.0
H1773 H 0.24942 0.0043 0.62308 0.0
H1774 H 0.30315 0.11278 0.63465 0.0
H1775 H 0.28066 0.07629 0.6251 0.0
C1776 C 0.01402 0.23971 0.59795 0.0
C1777 C 0.02846 0.23351 0.60201 0.0
C1778 C 0.99449 0.23116 0.60286 0.0
C1779 C 0.96851 0.20742 0.63174 0.0
H1780 H 0.91741 0.19249 0.60957 0.0
C1781 C 0.88869 0.17522 0.65311 0.0
C1782 C 0.87563 0.1828 0.64855 0.0
C1783 C 0.90652 0.17924 0.64689 0.0
C1784 C 0.93156 0.19678 0.61593 0.0
H1785 H 0.03358 0.2132 0.61426 0.0
H1786 H 0.99941 0.19822 0.62285 0.0
H1787 H 0.94994 0.20334 0.59953 0.0
H1788 H 0.87097 0.20032 0.6337 0.0
H1789 H 0.90215 0.2077 0.62311 0.0
H1790 H 0.95039 0.20147 0.64819 0.0
C1791 C 0.00326 0.20976 0.61588 0.0
C1792 C 0.95019 0.20293 0.61016 0.0
C1793 C 0.02273 0.21819 0.61087 0.0
C1794 C 0.88065 0.19423 0.63751 0.0
C1795 C 0.89849 0.19833 0.63134 0.0
C1796 C 0.94992 0.2014 0.63753 0.0
C1797 C 0.98901 0.21633 0.61204 0.0
C1798 C 0.96891 0.20851 0.61802 0.0
C1799 C 0.91175 0.19101 0.63599 0.0
C1800 C 0.93124 0.1962 0.62972 0.0
H1801 H 0.01792 0.25136 0.59105 0.0
H1802 H 0.98393 0.23667 0.59979 0.0
H1803 H 0.98274 0.21189 0.63809 0.0
H1804 H 0.88523 0.16623 0.66153 0.0
H1805 H 0.91616 0.17307 0.65062 0.0
C1806 C 0.74047 0.78459 0.61253 0.0
C1807 C 0.75517 0.80608 0.61575 0.0
C1808 C 0.74265 0.76951 0.61894 0.0
C1809 C 0.77265 0.76283 0.64728 0.0
H1810 H 0.7647 0.7153 0.62374 0.0
C1811 C 0.79371 0.70225 0.6652 0.0
C1812 C 0.80386 0.69564 0.65647 0.0
C1813 C 0.7846 0.71381 0.66093 0.0
C1814 C 0.76708 0.72853 0.63044 0.0
H1815 H 0.78331 0.82869 0.62845 0.0
H1816 H 0.78738 0.80251 0.63943 0.0
H1817 H 0.75431 0.73931 0.61555 0.0
H1818 H 0.81241 0.69597 0.63642 0.0
H1819 H 0.79711 0.71657 0.62912 0.0
H1820 H 0.78663 0.75274 0.66193 0.0
C1821 C 0.77386 0.7972 0.63221 0.0
C1822 C 0.7608 0.74214 0.62581 0.0
C1823 C 0.77157 0.81225 0.62589 0.0
C1824 C 0.80463 0.70073 0.64339 0.0
C1825 C 0.79568 0.71242 0.63916 0.0
C1826 C 0.77911 0.74931 0.65189 0.0
C1827 C 0.75971 0.77562 0.62861 0.0
C1828 C 0.7639 0.75972 0.63408 0.0
C1829 C 0.78558 0.71913 0.64788 0.0
C1830 C 0.77682 0.73226 0.64343 0.0
H1831 H 0.72755 0.77943 0.60485 0.0
H1832 H 0.73124 0.75304 0.61611 0.0
H1833 H 0.77496 0.77602 0.65399 0.0
H1834 H 0.79272 0.69844 0.67532 0.0
H1835 H 0.77672 0.71849 0.66786 0.0
C1836 C 0.04152 0.80703 0.6254 0.0
C1837 C 0.04602 0.79822 0.61428 0.0
C1838 C 0.02168 0.79655 0.62991 0.0
C1839 C 0.97559 0.7433 0.62866 0.0
H1840 H 0.94778 0.77251 0.64196 0.0
C1841 C 0.89077 0.69785 0.64114 0.0
C1842 C 0.88622 0.70443 0.65316 0.0
C1843 C 0.90982 0.7104 0.63619 0.0
C1844 C 0.95546 0.76418 0.63838 0.0
H1845 H 0.03296 0.77198 0.59881 0.0
H1846 H 0.99835 0.75377 0.6066 0.0
H1847 H 0.9819 0.79239 0.63353 0.0
H1848 H 0.89785 0.7298 0.66914 0.0
H1849 H 0.93136 0.75177 0.66049 0.0
H1850 H 0.94931 0.71515 0.6335 0.0
C1851 C 0.01028 0.76855 0.61203 0.0
C1852 C 0.97498 0.77555 0.63356 0.0
C1853 C 0.0301 0.77899 0.60755 0.0
C1854 C 0.90088 0.72427 0.65986 0.0
C1855 C 0.92005 0.73687 0.65489 0.0
C1856 C 0.95613 0.73198 0.63345 0.0
C1857 C 0.00591 0.77705 0.62337 0.0
C1858 C 0.98521 0.7652 0.62857 0.0
C1859 C 0.92487 0.72986 0.64313 0.0
C1860 C 0.94576 0.74224 0.63828 0.0
H1861 H 0.05353 0.82173 0.63088 0.0
H1862 H 0.01892 0.80342 0.63876 0.0
H1863 H 0.98324 0.73489 0.62519 0.0
H1864 H 0.87973 0.6828 0.63559 0.0
H1865 H 0.91285 0.70475 0.62695 0.0
C1866 C 0.17632 0.24197 0.62108 0.0
C1867 C 0.17034 0.2391 0.60737 0.0
C1868 C 0.18994 0.23553 0.62618 0.0
C1869 C 0.21197 0.20115 0.61811 0.0
H1870 H 0.25451 0.2373 0.6469 0.0
C1871 C 0.27906 0.18729 0.63772 0.0
C1872 C 0.28353 0.18964 0.65157 0.0
C1873 C 0.26528 0.19313 0.632 0.0
C1874 C 0.24261 0.22694 0.63894 0.0
H1875 H 0.17373 0.22675 0.5883 0.0
H1876 H 0.19792 0.21598 0.59717 0.0
H1877 H 0.23035 0.24766 0.63753 0.0
H1878 H 0.27696 0.19995 0.67025 0.0
H1879 H 0.25301 0.21009 0.66027 0.0
H1880 H 0.22442 0.18051 0.61952 0.0
C1881 C 0.19187 0.22301 0.604 0.0
C1882 C 0.22871 0.23285 0.63358 0.0
C1883 C 0.17818 0.22941 0.5989 0.0
C1884 C 0.27393 0.19796 0.65955 0.0
C1885 C 0.26027 0.2039 0.65383 0.0
C1886 C 0.22595 0.19528 0.62345 0.0
C1887 C 0.19804 0.22614 0.6177 0.0
C1888 C 0.2131 0.21996 0.62316 0.0
C1889 C 0.2558 0.20158 0.63999 0.0
C1890 C 0.24132 0.20804 0.634 0.0
H1891 H 0.17084 0.24961 0.6279 0.0
H1892 H 0.1941 0.23791 0.6368 0.0
H1893 H 0.19999 0.19073 0.6102 0.0
H1894 H 0.28617 0.18092 0.63128 0.0
H1895 H 0.26228 0.19132 0.6213 0.0
C1896 C 0.7577 0.96115 0.6042 0.0
C1897 C 0.76215 0.94812 0.61154 0.0
C1898 C 0.75905 0.97929 0.61046 0.0
C1899 C 0.78479 0.017 0.64062 0.0
H1900 H 0.74936 0.03875 0.62833 0.0
C1901 C 0.79471 0.09509 0.6644 0.0
C1902 C 0.79615 0.10919 0.65533 0.0
C1903 C 0.78789 0.07411 0.65997 0.0
C1904 C 0.75936 0.03284 0.63185 0.0
H1905 H 0.7704 0.94317 0.63124 0.0
H1906 H 0.7723 0.97458 0.64225 0.0
H1907 H 0.7418 0.00398 0.61906 0.0
H1908 H 0.79082 0.11215 0.63456 0.0
H1909 H 0.77884 0.07554 0.62688 0.0
H1910 H 0.80239 0.04592 0.65335 0.0
C1911 C 0.76834 0.97115 0.63161 0.0
C1912 C 0.7551 0.01297 0.62652 0.0
C1913 C 0.76719 0.95313 0.62533 0.0
C1914 C 0.78998 0.10171 0.6418 0.0
C1915 C 0.78297 0.08071 0.6374 0.0
C1916 C 0.78892 0.03675 0.64603 0.0
C1917 C 0.7647 0.98469 0.62422 0.0
C1918 C 0.76798 0.00495 0.63068 0.0
C1919 C 0.78215 0.06678 0.64641 0.0
C1920 C 0.77647 0.04502 0.64154 0.0
H1921 H 0.75398 0.95776 0.59354 0.0
H1922 H 0.75644 0.98948 0.60442 0.0
H1923 H 0.79527 0.01153 0.64392 0.0
H1924 H 0.79932 0.10035 0.67488 0.0
H1925 H 0.78725 0.06365 0.66714 0.0
C1926 C 0.49658 0.38177 0.73475 0.0
C1927 C 0.50192 0.38189 0.74827 0.0
C1928 C 0.47938 0.36403 0.72764 0.0
C1929 C 0.43039 0.31506 0.73174 0.0
H1930 H 0.43748 0.29598 0.69701 0.0
C1931 C 0.37246 0.23236 0.70479 0.0
C1932 C 0.36788 0.23046 0.69098 0.0
C1933 C 0.38793 0.25151 0.71167 0.0
C1934 C 0.43511 0.30125 0.70661 0.0
H1935 H 0.49337 0.36336 0.76489 0.0
H1936 H 0.46337 0.33251 0.75251 0.0
H1937 H 0.46599 0.32832 0.70916 0.0
H1938 H 0.37567 0.24737 0.67362 0.0
H1939 H 0.40244 0.28078 0.68566 0.0
H1940 H 0.39955 0.28789 0.72923 0.0
C1941 C 0.47229 0.34624 0.74745 0.0
C1942 C 0.45146 0.31979 0.71357 0.0
C1943 C 0.4895 0.36395 0.75455 0.0
C1944 C 0.37887 0.24823 0.68425 0.0
C1945 C 0.39432 0.26738 0.69114 0.0
C1946 C 0.41401 0.29652 0.72476 0.0
C1947 C 0.46712 0.34602 0.73389 0.0
C1948 C 0.44935 0.32683 0.72626 0.0
C1949 C 0.39916 0.2692 0.70491 0.0
C1950 C 0.41623 0.28932 0.71215 0.0
H1951 H 0.50563 0.39544 0.72967 0.0
H1952 H 0.47562 0.36444 0.71725 0.0
H1953 H 0.42816 0.32023 0.74142 0.0
H1954 H 0.36432 0.21897 0.71028 0.0
H1955 H 0.39144 0.2523 0.72226 0.0
C1956 C 0.6142 0.10453 0.71928 0.0
C1957 C 0.61326 0.10364 0.733 0.0
C1958 C 0.63331 0.11195 0.71395 0.0
C1959 C 0.69098 0.14325 0.72248 0.0
H1960 H 0.69134 0.11356 0.68965 0.0
C1961 C 0.76763 0.1597 0.7002 0.0
C1962 C 0.76739 0.15966 0.68635 0.0
C1963 C 0.74918 0.15354 0.70621 0.0
C1964 C 0.69149 0.12219 0.69874 0.0
H1965 H 0.63188 0.11027 0.75189 0.0
H1966 H 0.66525 0.1229 0.74253 0.0
H1967 H 0.65866 0.10156 0.69957 0.0
H1968 H 0.74756 0.15352 0.66804 0.0
H1969 H 0.71558 0.143 0.67853 0.0
H1970 H 0.72392 0.16384 0.72162 0.0
C1971 C 0.65117 0.11802 0.73592 0.0
C1972 C 0.67273 0.11531 0.70444 0.0
C1973 C 0.63201 0.11057 0.74127 0.0
C1974 C 0.74835 0.15365 0.67871 0.0
C1975 C 0.72995 0.14748 0.68472 0.0
C1976 C 0.7098 0.15013 0.71678 0.0
C1977 C 0.65201 0.11863 0.72217 0.0
C1978 C 0.67219 0.12582 0.71633 0.0
C1979 C 0.73008 0.14715 0.69853 0.0
C1980 C 0.71024 0.13976 0.70479 0.0
H1981 H 0.60008 0.09906 0.71258 0.0
H1982 H 0.6334 0.11246 0.70334 0.0
H1983 H 0.69109 0.15184 0.73157 0.0
H1984 H 0.78199 0.16416 0.7064 0.0
H1985 H 0.7498 0.15329 0.71686 0.0
C1986 C 0.96262 0.57045 0.71436 0.0
C1987 C 0.95352 0.54849 0.71243 0.0
C1988 C 0.95131 0.57992 0.71011 0.0
C1989 C 0.90688 0.57176 0.68713 0.0
H1990 H 0.90658 0.61408 0.71173 0.0
C1991 C 0.85303 0.60652 0.6766 0.0
C1992 C 0.86169 0.62815 0.68036 0.0
C1993 C 0.86388 0.59631 0.68039 0.0
C1994 C 0.9067 0.60249 0.70467 0.0
H1995 H 0.92575 0.51926 0.70418 0.0
H1996 H 0.90598 0.53584 0.69673 0.0
H1997 H 0.92673 0.59758 0.71823 0.0
H1998 H 0.88866 0.6561 0.69089 0.0
H1999 H 0.90764 0.63849 0.69719 0.0
H2000 H 0.88708 0.57687 0.67348 0.0
C2001 C 0.92184 0.5457 0.70154 0.0
C2002 C 0.91823 0.59303 0.70841 0.0
C2003 C 0.93307 0.53622 0.7059 0.0
C2004 C 0.88143 0.63937 0.68791 0.0
C2005 C 0.89229 0.62923 0.6916 0.0
C2006 C 0.89545 0.58135 0.68334 0.0
C2007 C 0.93076 0.56763 0.70374 0.0
C2008 C 0.9185 0.57763 0.69968 0.0
C2009 C 0.88363 0.60757 0.68795 0.0
C2010 C 0.89529 0.5969 0.69204 0.0
H2011 H 0.9783 0.58027 0.71944 0.0
H2012 H 0.95864 0.59688 0.71181 0.0
H2013 H 0.90695 0.56004 0.68016 0.0
H2014 H 0.83782 0.59741 0.67083 0.0
H2015 H 0.85664 0.57956 0.67754 0.0
C2016 C 0.46372 0.97802 0.19374 0.0
C2017 C 0.45983 0.95873 0.19789 0.0
C2018 C 0.46673 0.98185 0.18056 0.0
C2019 C 0.48331 0.96554 0.15089 0.0
H2020 H 0.45923 0.99462 0.1329 0.0
C2021 C 0.51066 0.00162 0.10214 0.0
C2022 C 0.49509 0.999 0.09229 0.0
C2023 C 0.50552 0.99567 0.11476 0.0
C2024 C 0.46594 0.98634 0.13775 0.0
H2025 H 0.45592 0.92826 0.19143 0.0
H2026 H 0.46109 0.93492 0.16835 0.0
H2027 H 0.45108 0.98566 0.15528 0.0
H2028 H 0.46192 0.9882 0.08801 0.0
H2029 H 0.45294 0.9777 0.11002 0.0
H2030 H 0.49816 0.96623 0.13334 0.0
C2031 C 0.4619 0.94711 0.17534 0.0
C2032 C 0.46143 0.98139 0.15061 0.0
C2033 C 0.45874 0.94323 0.18852 0.0
C2034 C 0.47425 0.99026 0.09534 0.0
C2035 C 0.46914 0.98443 0.10799 0.0
C2036 C 0.48792 0.97062 0.13805 0.0
C2037 C 0.46604 0.96652 0.17123 0.0
C2038 C 0.47015 0.97103 0.15736 0.0
C2039 C 0.48472 0.98707 0.11785 0.0
C2040 C 0.47937 0.98117 0.13135 0.0
H2041 H 0.46445 0.9902 0.2007 0.0
H2042 H 0.47006 0.99702 0.17775 0.0
H2043 H 0.49042 0.95772 0.15585 0.0
H2044 H 0.52681 0.00812 0.10007 0.0
H2045 H 0.51792 0.9981 0.12217 0.0
C2046 C 0.07553 0.53531 0.18014 0.0
C2047 C 0.06542 0.53374 0.19162 0.0
C2048 C 0.06473 0.53159 0.16763 0.0
C2049 C 0.01182 0.50599 0.14945 0.0
H2050 H 0.04122 0.54315 0.12334 0.0
C2051 C 0.97263 0.50009 0.09686 0.0
C2052 C 0.98472 0.5015 0.0864 0.0
C2053 C 0.98159 0.50456 0.11003 0.0
C2054 C 0.03284 0.53256 0.1305 0.0
H2055 H 0.03592 0.52676 0.19895 0.0
H2056 H 0.01696 0.5202 0.17699 0.0
H2057 H 0.05836 0.54971 0.14576 0.0
H2058 H 0.01554 0.5082 0.08162 0.0
H2059 H 0.03113 0.51615 0.10451 0.0
H2060 H 0.98634 0.48876 0.13407 0.0
C2061 C 0.03324 0.52419 0.17772 0.0
C2062 C 0.04266 0.53629 0.14333 0.0
C2063 C 0.04409 0.52792 0.19028 0.0
C2064 C 0.00591 0.50742 0.08942 0.0
C2065 C 0.01484 0.51195 0.10254 0.0
C2066 C 0.00195 0.50226 0.13657 0.0
C2067 C 0.04354 0.5262 0.16627 0.0
C2068 C 0.03241 0.52286 0.1529 0.0
C2069 C 0.00282 0.5106 0.113 0.0
C2070 C 0.01252 0.51532 0.12691 0.0
H2071 H 0.09183 0.53933 0.18083 0.0
H2072 H 0.07298 0.53279 0.15899 0.0
H2073 H 0.00357 0.49528 0.15657 0.0
H2074 H 0.95632 0.49575 0.09486 0.0
H2075 H 0.97199 0.50356 0.11789 0.0
C2076 C 0.46338 0.48296 0.19754 0.0
C2077 C 0.48085 0.4939 0.20716 0.0
C2078 C 0.46586 0.48431 0.18406 0.0
C2079 C 0.50581 0.49823 0.1605 0.0
H2080 H 0.46551 0.50341 0.13716 0.0
C2081 C 0.51997 0.51758 0.10682 0.0
C2082 C 0.50285 0.50604 0.09703 0.0
C2083 C 0.51709 0.51638 0.12025 0.0
C2084 C 0.47678 0.50177 0.14353 0.0
H2085 H 0.51455 0.51517 0.21018 0.0
H2086 H 0.51887 0.51757 0.18671 0.0
H2087 H 0.46076 0.50041 0.16059 0.0
H2088 H 0.46919 0.48462 0.09367 0.0
H2089 H 0.46422 0.4823 0.11711 0.0
H2090 H 0.52186 0.49965 0.14345 0.0
C2091 C 0.5033 0.50761 0.18955 0.0
C2092 C 0.47405 0.50002 0.15695 0.0
C2093 C 0.50083 0.50623 0.203 0.0
C2094 C 0.48273 0.49354 0.10098 0.0
C2095 C 0.47985 0.49237 0.1144 0.0
C2096 C 0.50856 0.50002 0.14709 0.0
C2097 C 0.48586 0.49667 0.17991 0.0
C2098 C 0.48856 0.49826 0.1656 0.0
C2099 C 0.49703 0.50365 0.12419 0.0
C2100 C 0.4941 0.50185 0.13846 0.0
H2101 H 0.44782 0.47315 0.20043 0.0
H2102 H 0.45214 0.47544 0.17689 0.0
H2103 H 0.51709 0.49655 0.16684 0.0
H2104 H 0.53569 0.5272 0.10412 0.0
H2105 H 0.5306 0.52546 0.12755 0.0
C2106 C 0.01056 0.52562 0.80248 0.0
C2107 C 0.00061 0.50697 0.79372 0.0
C2108 C 0.0096 0.5249 0.81612 0.0
C2109 C 0.99981 0.48908 0.8419 0.0
H2110 H 0.9934 0.53067 0.86327 0.0
C2111 C 0.9891 0.48411 0.89743 0.0
C2112 C 0.00154 0.5029 0.90585 0.0
C2113 C 0.98744 0.48433 0.8837 0.0
C2114 C 0.99533 0.51903 0.85743 0.0
H2115 H 0.98137 0.473 0.79236 0.0
H2116 H 0.97959 0.47175 0.81614 0.0
H2117 H 0.99368 0.53162 0.83935 0.0
H2118 H 0.0213 0.53674 0.90651 0.0
H2119 H 0.01856 0.5371 0.88253 0.0
H2120 H 0.00154 0.47654 0.85998 0.0
C2121 C 0.9885 0.4869 0.81251 0.0
C2122 C 0.99553 0.5196 0.84374 0.0
C2123 C 0.98952 0.48762 0.79888 0.0
C2124 C 0.01179 0.52198 0.90026 0.0
C2125 C 0.01005 0.5222 0.88654 0.0
C2126 C 0.99954 0.48848 0.85557 0.0
C2127 C 0.9986 0.50553 0.8213 0.0
C2128 C 0.9979 0.50469 0.83582 0.0
C2129 C 0.99808 0.50336 0.8781 0.0
C2130 C 0.99741 0.50351 0.8635 0.0
H2131 H 0.01942 0.54075 0.7988 0.0
H2132 H 0.01782 0.53952 0.82263 0.0
H2133 H 0.002 0.47757 0.83612 0.0
H2134 H 0.98113 0.46916 0.90144 0.0
H2135 H 0.97792 0.46958 0.87745 0.0
C2136 C 0.57251 0.51762 0.83079 0.0
C2137 C 0.55772 0.50093 0.82153 0.0
C2138 C 0.56601 0.5249 0.84153 0.0
C2139 C 0.51893 0.52205 0.85504 0.0
H2140 H 0.55081 0.53091 0.88894 0.0
C2141 C 0.48481 0.51591 0.9051 0.0
C2142 C 0.49793 0.52977 0.91618 0.0
C2143 C 0.4927 0.51611 0.89295 0.0
C2144 C 0.54192 0.52887 0.87954 0.0
H2145 H 0.52448 0.47917 0.81608 0.0
H2146 H 0.51314 0.49163 0.83485 0.0
H2147 H 0.56364 0.52465 0.86867 0.0
H2148 H 0.52938 0.5555 0.92292 0.0
H2149 H 0.54321 0.55564 0.90172 0.0
H2150 H 0.4968 0.5255 0.86606 0.0
C2151 C 0.52975 0.49941 0.83372 0.0
C2152 C 0.5493 0.52531 0.86789 0.0
C2153 C 0.53625 0.49223 0.82295 0.0
C2154 C 0.51895 0.54435 0.91466 0.0
C2155 C 0.52686 0.54447 0.90252 0.0
C2156 C 0.5115 0.52551 0.86671 0.0
C2157 C 0.54457 0.51556 0.84329 0.0
C2158 C 0.53773 0.5215 0.85551 0.0
C2159 C 0.51391 0.53011 0.89159 0.0
C2160 C 0.52275 0.52862 0.8791 0.0
H2161 H 0.58915 0.52484 0.82984 0.0
H2162 H 0.57782 0.53763 0.84856 0.0
H2163 H 0.5098 0.51954 0.84566 0.0
H2164 H 0.46865 0.50425 0.90594 0.0
H2165 H 0.48239 0.50465 0.88477 0.0
C2166 C 0.49797 0.03901 0.81475 0.0
C2167 C 0.51686 0.04454 0.80932 0.0
C2168 C 0.49541 0.03335 0.82764 0.0
C2169 C 0.51423 0.01109 0.85244 0.0
H2170 H 0.48803 0.03109 0.87685 0.0
C2171 C 0.50631 0.98957 0.90615 0.0
C2172 C 0.4879 0.98572 0.91166 0.0
C2173 C 0.51055 0.99771 0.89397 0.0
C2174 C 0.49512 0.02512 0.87011 0.0
H2175 H 0.54797 0.04873 0.8132 0.0
H2176 H 0.54347 0.03875 0.83574 0.0
H2177 H 0.49429 0.04389 0.85515 0.0
H2178 H 0.45939 0.98717 0.90866 0.0
H2179 H 0.46646 0.00089 0.88725 0.0
H2180 H 0.5146 0.9919 0.86716 0.0
C2181 C 0.53064 0.03879 0.82999 0.0
C2182 C 0.49879 0.03255 0.85769 0.0
C2183 C 0.53329 0.04468 0.81715 0.0
C2184 C 0.47381 0.99018 0.90472 0.0
C2185 C 0.47793 0.99813 0.89247 0.0
C2186 C 0.51039 0.0035 0.8648 0.0
C2187 C 0.51161 0.03289 0.83534 0.0
C2188 C 0.50835 0.02559 0.84871 0.0
C2189 C 0.49638 0.00203 0.88692 0.0
C2190 C 0.50074 0.01037 0.87381 0.0
H2191 H 0.48509 0.03892 0.80899 0.0
H2192 H 0.48052 0.02877 0.83145 0.0
H2193 H 0.52134 0.00519 0.84565 0.0
H2194 H 0.51764 0.98661 0.91137 0.0
H2195 H 0.5251 0.00087 0.89017 0.0
C2196 C 0.13281 0.28038 0.52132 0.0
C2197 C 0.12567 0.29124 0.52937 0.0
C2198 C 0.13652 0.28476 0.50827 0.0
C2199 C 0.12476 0.30945 0.48096 0.0
H2200 H 0.17552 0.31439 0.46863 0.0
C2201 C 0.14361 0.32267 0.42689 0.0
C2202 C 0.1645 0.33707 0.42499 0.0
C2203 C 0.13833 0.31626 0.4394 0.0
C2204 C 0.16134 0.31319 0.47195 0.0
H2205 H 0.11612 0.3147 0.52983 0.0
H2206 H 0.12291 0.32258 0.50718 0.0
H2207 H 0.16698 0.30461 0.49079 0.0
H2208 H 0.19625 0.35584 0.43478 0.0
H2209 H 0.18699 0.345 0.45665 0.0
H2210 H 0.11941 0.31857 0.46224 0.0
C2211 C 0.12553 0.31058 0.51091 0.0
C2212 C 0.1563 0.30732 0.48459 0.0
C2213 C 0.12186 0.30622 0.52395 0.0
C2214 C 0.17998 0.3449 0.43592 0.0
C2215 C 0.17471 0.33848 0.44843 0.0
C2216 C 0.12979 0.3153 0.4683 0.0
C2217 C 0.13312 0.30006 0.50294 0.0
C2218 C 0.13801 0.30549 0.48928 0.0
C2219 C 0.15382 0.32408 0.45033 0.0
C2220 C 0.14821 0.31737 0.46367 0.0
H2221 H 0.13607 0.26887 0.5252 0.0
H2222 H 0.14212 0.27619 0.50235 0.0
H2223 H 0.11045 0.30799 0.48421 0.0
H2224 H 0.13126 0.31648 0.41872 0.0
H2225 H 0.12213 0.30501 0.44048 0.0
C2226 C 0.69658 0.84275 0.5258 0.0
C2227 C 0.71416 0.84067 0.52899 0.0
C2228 C 0.68577 0.83579 0.51307 0.0
C2229 C 0.694 0.82385 0.47877 0.0
H2230 H 0.63426 0.80297 0.47185 0.0
C2231 C 0.65234 0.79985 0.42574 0.0
C2232 C 0.64071 0.80965 0.42259 0.0
C2233 C 0.65899 0.80003 0.43892 0.0
C2234 C 0.65095 0.80876 0.47367 0.0
H2235 H 0.73357 0.82868 0.52173 0.0
H2236 H 0.71437 0.8159 0.49965 0.0
H2237 H 0.65032 0.80973 0.4947 0.0
H2238 H 0.62627 0.82658 0.43094 0.0
H2239 H 0.63756 0.82649 0.45392 0.0
H2240 H 0.69462 0.82291 0.45776 0.0
C2241 C 0.70928 0.82353 0.50677 0.0
C2242 C 0.66018 0.81273 0.48674 0.0
C2243 C 0.72024 0.83076 0.51943 0.0
C2244 C 0.63497 0.81865 0.43298 0.0
C2245 C 0.64146 0.81865 0.44617 0.0
C2246 C 0.68473 0.81965 0.46574 0.0
C2247 C 0.69218 0.82636 0.50333 0.0
C2248 C 0.6819 0.82061 0.48946 0.0
C2249 C 0.65397 0.8098 0.44924 0.0
C2250 C 0.66319 0.81233 0.46305 0.0
H2251 H 0.69168 0.85046 0.533 0.0
H2252 H 0.67287 0.83851 0.51075 0.0
H2253 H 0.71081 0.83032 0.48044 0.0
H2254 H 0.65666 0.79238 0.418 0.0
H2255 H 0.66839 0.79283 0.44103 0.0
C2256 C 0.16003 0.84983 0.53492 0.0
C2257 C 0.14248 0.83313 0.53948 0.0
C2258 C 0.16243 0.85008 0.52142 0.0
C2259 C 0.13282 0.82666 0.48815 0.0
H2260 H 0.18857 0.84773 0.47717 0.0
C2261 C 0.1484 0.81795 0.43365 0.0
C2262 C 0.16495 0.83572 0.42915 0.0
C2263 C 0.14517 0.81779 0.44704 0.0
C2264 C 0.17294 0.84199 0.4801 0.0
H2265 H 0.11373 0.80354 0.5335 0.0
H2266 H 0.11808 0.8037 0.50989 0.0
H2267 H 0.1839 0.84664 0.50065 0.0
H2268 H 0.19104 0.86726 0.43512 0.0
H2269 H 0.18541 0.86698 0.45855 0.0
H2270 H 0.1219 0.82169 0.4675 0.0
C2271 C 0.12981 0.81684 0.51672 0.0
C2272 C 0.17024 0.84139 0.49356 0.0
C2273 C 0.12733 0.81669 0.53024 0.0
C2274 C 0.17808 0.8534 0.43829 0.0
C2275 C 0.17498 0.85317 0.45171 0.0
C2276 C 0.13552 0.8271 0.47467 0.0
C2277 C 0.14741 0.83355 0.51214 0.0
C2278 C 0.15016 0.83381 0.49777 0.0
C2279 C 0.15855 0.83532 0.45623 0.0
C2280 C 0.15562 0.83485 0.47052 0.0
H2281 H 0.17178 0.86291 0.54179 0.0
H2282 H 0.17594 0.86342 0.51825 0.0
H2283 H 0.11718 0.82103 0.49103 0.0
H2284 H 0.13793 0.80416 0.4268 0.0
H2285 H 0.13247 0.80377 0.45025 0.0
C2286 C 0.68643 0.86638 0.13904 0.0
C2287 C 0.68177 0.84863 0.13034 0.0
C2288 C 0.68569 0.86514 0.15266 0.0
C2289 C 0.68588 0.8329 0.17898 0.0
H2290 H 0.66122 0.86084 0.19824 0.0
C2291 C 0.66824 0.8204 0.23315 0.0
C2292 C 0.6744 0.83865 0.24179 0.0
C2293 C 0.66833 0.82123 0.21947 0.0
C2294 C 0.66829 0.85309 0.19302 0.0
H2295 H 0.67265 0.81566 0.1291 0.0
H2296 H 0.67129 0.81347 0.15283 0.0
H2297 H 0.66375 0.86338 0.17458 0.0
H2298 H 0.68472 0.8719 0.24285 0.0
H2299 H 0.68501 0.87338 0.21898 0.0
H2300 H 0.69035 0.82256 0.19742 0.0
C2301 C 0.67586 0.82845 0.14918 0.0
C2302 C 0.66981 0.85459 0.17947 0.0
C2303 C 0.67666 0.82971 0.13557 0.0
C2304 C 0.68009 0.85762 0.23644 0.0
C2305 C 0.68007 0.85842 0.22277 0.0
C2306 C 0.68431 0.83134 0.19251 0.0
C2307 C 0.68021 0.84611 0.15787 0.0
C2308 C 0.67868 0.84456 0.17229 0.0
C2309 C 0.67445 0.8403 0.21415 0.0
C2310 C 0.67554 0.84146 0.19969 0.0
H2311 H 0.69066 0.88124 0.13531 0.0
H2312 H 0.6895 0.87914 0.15911 0.0
H2313 H 0.69307 0.82523 0.17379 0.0
H2314 H 0.66393 0.80559 0.23699 0.0
H2315 H 0.66368 0.80695 0.21306 0.0
C2316 C 0.19737 0.80503 0.15195 0.0
C2317 C 0.21497 0.80239 0.15292 0.0
C2318 C 0.19026 0.80989 0.16337 0.0
C2319 C 0.19254 0.80565 0.19933 0.0
H2320 H 0.17132 0.8443 0.20108 0.0
C2321 C 0.17469 0.83293 0.24852 0.0
C2322 C 0.15599 0.83358 0.24856 0.0
C2323 C 0.18172 0.82981 0.23662 0.0
C2324 C 0.17701 0.8333 0.20069 0.0
H2325 H 0.23961 0.80396 0.16651 0.0
H2326 H 0.2274 0.81264 0.18636 0.0
H2327 H 0.18425 0.83807 0.18068 0.0
H2328 H 0.13016 0.83173 0.23604 0.0
H2329 H 0.1425 0.82631 0.21518 0.0
H2330 H 0.18539 0.80087 0.21928 0.0
C2331 C 0.21872 0.8104 0.17685 0.0
C2332 C 0.18441 0.82974 0.18901 0.0
C2333 C 0.22575 0.80548 0.16547 0.0
C2334 C 0.1447 0.83146 0.23635 0.0
C2335 C 0.15177 0.82836 0.22441 0.0
C2336 C 0.1852 0.80923 0.21097 0.0
C2337 C 0.20066 0.81228 0.17597 0.0
C2338 C 0.19242 0.81598 0.18824 0.0
C2339 C 0.17026 0.8273 0.22442 0.0
C2340 C 0.1775 0.82321 0.21184 0.0
H2341 H 0.18866 0.8026 0.14241 0.0
H2342 H 0.17622 0.81108 0.16235 0.0
H2343 H 0.19812 0.79456 0.19899 0.0
H2344 H 0.18406 0.83501 0.25772 0.0
H2345 H 0.19625 0.82951 0.23697 0.0
C2346 C 0.19448 0.36416 0.14634 0.0
C2347 C 0.18481 0.37483 0.14118 0.0
C2348 C 0.19164 0.35805 0.15911 0.0
C2349 C 0.17571 0.36833 0.1912 0.0
H2350 H 0.1641 0.31199 0.19604 0.0
C2351 C 0.14881 0.33146 0.23984 0.0
C2352 C 0.15704 0.31919 0.24442 0.0
C2353 C 0.15232 0.3385 0.22732 0.0
C2354 C 0.16759 0.32786 0.19492 0.0
H2355 H 0.16505 0.38799 0.14555 0.0
H2356 H 0.15996 0.37718 0.16783 0.0
H2357 H 0.17053 0.32425 0.17425 0.0
H2358 H 0.17576 0.30504 0.23951 0.0
H2359 H 0.18199 0.31741 0.21773 0.0
H2360 H 0.17285 0.37198 0.21189 0.0
C2361 C 0.16981 0.37361 0.162 0.0
C2362 C 0.17126 0.33489 0.18241 0.0
C2363 C 0.17257 0.37964 0.1492 0.0
C2364 C 0.16889 0.31416 0.23619 0.0
C2365 C 0.17246 0.32125 0.2237 0.0
C2366 C 0.1721 0.36133 0.20374 0.0
C2367 C 0.17911 0.36253 0.16705 0.0
C2368 C 0.17538 0.35521 0.1804 0.0
C2369 C 0.16421 0.33351 0.21909 0.0
C2370 C 0.16799 0.341 0.20575 0.0
H2371 H 0.20382 0.36002 0.14039 0.0
H2372 H 0.19922 0.34975 0.16276 0.0
H2373 H 0.17908 0.38416 0.19002 0.0
H2374 H 0.13941 0.3354 0.24588 0.0
H2375 H 0.14545 0.34762 0.22401 0.0
C2376 C 0.80629 0.61688 0.85652 0.0
C2377 C 0.79407 0.62331 0.86332 0.0
C2378 C 0.81059 0.62171 0.84361 0.0
C2379 C 0.79286 0.63788 0.81409 0.0
H2380 H 0.84965 0.65763 0.80539 0.0
C2381 C 0.81552 0.65272 0.76084 0.0
C2382 C 0.83465 0.67088 0.75942 0.0
C2383 C 0.81033 0.64634 0.77337 0.0
C2384 C 0.83375 0.65227 0.80768 0.0
H2385 H 0.77625 0.63932 0.86169 0.0
H2386 H 0.78398 0.648 0.83923 0.0
H2387 H 0.84072 0.64748 0.82743 0.0
H2388 H 0.86345 0.69641 0.77009 0.0
H2389 H 0.85426 0.68547 0.79197 0.0
H2390 H 0.78601 0.6431 0.79442 0.0
C2391 C 0.79015 0.6391 0.84386 0.0
C2392 C 0.82856 0.6462 0.82027 0.0
C2393 C 0.78589 0.63431 0.85678 0.0
C2394 C 0.84851 0.68246 0.77084 0.0
C2395 C 0.84334 0.67605 0.78337 0.0
C2396 C 0.79804 0.6439 0.80148 0.0
C2397 C 0.80273 0.63305 0.83716 0.0
C2398 C 0.80807 0.639 0.82364 0.0
C2399 C 0.82416 0.65794 0.78479 0.0
C2400 C 0.81857 0.65124 0.79814 0.0
H2401 H 0.813 0.60856 0.8613 0.0
H2402 H 0.82012 0.61659 0.83868 0.0
H2403 H 0.77689 0.63223 0.81632 0.0
H2404 H 0.80438 0.64355 0.75227 0.0
H2405 H 0.79553 0.6322 0.77409 0.0
C2406 C 0.37528 0.19081 0.86194 0.0
C2407 C 0.395 0.1924 0.86415 0.0
C2408 C 0.36475 0.18538 0.84914 0.0
C2409 C 0.37537 0.18508 0.81409 0.0
H2410 H 0.31485 0.14985 0.80689 0.0
C2411 C 0.33491 0.15546 0.76105 0.0
C2412 C 0.31782 0.15838 0.75783 0.0
C2413 C 0.34301 0.15805 0.77422 0.0
C2414 C 0.33175 0.1598 0.8088 0.0
H2415 H 0.4187 0.18852 0.8549 0.0
H2416 H 0.40022 0.17862 0.83266 0.0
H2417 H 0.33156 0.1572 0.82964 0.0
H2418 H 0.29539 0.1656 0.76599 0.0
H2419 H 0.30946 0.16987 0.78909 0.0
H2420 H 0.37561 0.18755 0.79329 0.0
C2421 C 0.39312 0.18219 0.84068 0.0
C2422 C 0.34132 0.16406 0.8218 0.0
C2423 C 0.40369 0.1878 0.85342 0.0
C2424 C 0.30846 0.16308 0.76814 0.0
C2425 C 0.31651 0.16556 0.78136 0.0
C2426 C 0.36585 0.1807 0.80113 0.0
C2427 C 0.3737 0.18127 0.83833 0.0
C2428 C 0.36327 0.17669 0.82459 0.0
C2429 C 0.33413 0.16348 0.78449 0.0
C2430 C 0.34397 0.16796 0.79833 0.0
H2431 H 0.3683 0.19438 0.87005 0.0
H2432 H 0.34992 0.185 0.84766 0.0
H2433 H 0.39224 0.1953 0.8159 0.0
H2434 H 0.34217 0.15134 0.75336 0.0
H2435 H 0.35637 0.15597 0.77637 0.0
C2436 C 0.77888 0.14121 0.85544 0.0
C2437 C 0.79403 0.1412 0.86453 0.0
C2438 C 0.7803 0.13958 0.84182 0.0
C2439 C 0.80433 0.123 0.81642 0.0
H2440 H 0.79864 0.1629 0.79618 0.0
C2441 C 0.83302 0.13949 0.76476 0.0
C2442 C 0.82181 0.14434 0.75533 0.0
C2443 C 0.8275 0.13687 0.77768 0.0
C2444 C 0.7999 0.15137 0.8016 0.0
H2445 H 0.82256 0.13947 0.86632 0.0
H2446 H 0.82481 0.13633 0.84259 0.0
H2447 H 0.79269 0.16227 0.81946 0.0
H2448 H 0.79562 0.14971 0.75208 0.0
H2449 H 0.78557 0.14443 0.77446 0.0
H2450 H 0.81161 0.11212 0.79859 0.0
C2451 C 0.81173 0.13738 0.84601 0.0
C2452 C 0.79653 0.15106 0.81496 0.0
C2453 C 0.8104 0.13915 0.85963 0.0
C2454 C 0.8045 0.14581 0.75903 0.0
C2455 C 0.79891 0.14307 0.77193 0.0
C2456 C 0.80756 0.12321 0.80303 0.0
C2457 C 0.79681 0.13777 0.83697 0.0
C2458 C 0.79897 0.13706 0.82256 0.0
C2459 C 0.81055 0.1389 0.78148 0.0
C2460 C 0.80566 0.13759 0.79548 0.0
H2461 H 0.76588 0.14241 0.85885 0.0
H2462 H 0.76844 0.13968 0.83506 0.0
H2463 H 0.80605 0.11184 0.82199 0.0
H2464 H 0.84624 0.13794 0.76221 0.0
H2465 H 0.83696 0.13388 0.78478 0.0
C2466 C 0.33919 0.19395 0.47481 0.0
C2467 C 0.34168 0.17926 0.46678 0.0
C2468 C 0.33968 0.1936 0.48853 0.0
C2469 C 0.35682 0.17357 0.51625 0.0
H2470 H 0.31862 0.18494 0.53486 0.0
C2471 C 0.34806 0.16433 0.57189 0.0
C2472 C 0.34843 0.18115 0.57949 0.0
C2473 C 0.34637 0.1631 0.55806 0.0
C2474 C 0.32946 0.18185 0.5298 0.0
H2475 H 0.34642 0.15254 0.46681 0.0
H2476 H 0.34703 0.15172 0.49075 0.0
H2477 H 0.3176 0.18482 0.51086 0.0
H2478 H 0.34666 0.20951 0.57859 0.0
H2479 H 0.34372 0.20739 0.55445 0.0
H2480 H 0.36855 0.17049 0.53524 0.0
C2481 C 0.34512 0.1638 0.48649 0.0
C2482 C 0.32894 0.18186 0.51606 0.0
C2483 C 0.34476 0.16425 0.47277 0.0
C2484 C 0.34662 0.19647 0.57299 0.0
C2485 C 0.34475 0.19516 0.55917 0.0
C2486 C 0.35724 0.17344 0.52999 0.0
C2487 C 0.34252 0.17843 0.49453 0.0
C2488 C 0.34273 0.17789 0.50912 0.0
C2489 C 0.34479 0.17857 0.55156 0.0
C2490 C 0.34367 0.17774 0.53692 0.0
H2491 H 0.33707 0.20587 0.47048 0.0
H2492 H 0.33805 0.20536 0.49444 0.0
H2493 H 0.36786 0.17074 0.51126 0.0
H2494 H 0.34956 0.15237 0.57665 0.0
H2495 H 0.34627 0.15005 0.55243 0.0
C2496 C 0.89851 0.15326 0.49712 0.0
C2497 C 0.88636 0.14755 0.4848 0.0
C2498 C 0.89167 0.15865 0.50843 0.0
C2499 C 0.85362 0.17339 0.52027 0.0
H2500 H 0.86186 0.15085 0.55199 0.0
C2501 C 0.81358 0.17145 0.56816 0.0
C2502 C 0.8262 0.17641 0.58026 0.0
C2503 C 0.82119 0.16959 0.55617 0.0
C2504 C 0.85964 0.15746 0.54326 0.0
H2505 H 0.85784 0.14359 0.47452 0.0
H2506 H 0.84561 0.15266 0.49436 0.0
H2507 H 0.87468 0.14471 0.53172 0.0
H2508 H 0.85714 0.18456 0.58919 0.0
H2509 H 0.87025 0.18111 0.56836 0.0
H2510 H 0.83815 0.18578 0.53192 0.0
C2511 C 0.8606 0.15328 0.49526 0.0
C2512 C 0.86704 0.15399 0.53163 0.0
C2513 C 0.86756 0.14805 0.4839 0.0
C2514 C 0.84681 0.1802 0.58007 0.0
C2515 C 0.85436 0.17827 0.56814 0.0
C2516 C 0.84607 0.17676 0.53194 0.0
C2517 C 0.87239 0.15825 0.50771 0.0
C2518 C 0.8643 0.16203 0.52001 0.0
C2519 C 0.84153 0.17259 0.55608 0.0
C2520 C 0.84916 0.16895 0.54358 0.0
H2521 H 0.91325 0.15335 0.49804 0.0
H2522 H 0.90143 0.16292 0.51778 0.0
H2523 H 0.85138 0.17994 0.51153 0.0
H2524 H 0.7976 0.16832 0.56798 0.0
H2525 H 0.81091 0.16508 0.54703 0.0
C2526 C 0.85957 0.69246 0.47951 0.0
C2527 C 0.85317 0.70638 0.47531 0.0
C2528 C 0.85688 0.68632 0.49229 0.0
C2529 C 0.84846 0.70132 0.52579 0.0
H2530 H 0.82598 0.64226 0.52985 0.0
C2531 C 0.81993 0.66765 0.57493 0.0
C2532 C 0.82414 0.6521 0.5789 0.0
C2533 C 0.82393 0.67443 0.56238 0.0
C2534 C 0.83253 0.65885 0.52894 0.0
H2535 H 0.83944 0.72519 0.48139 0.0
H2536 H 0.83463 0.71438 0.50367 0.0
H2537 H 0.83265 0.65412 0.50796 0.0
H2538 H 0.83612 0.63171 0.57283 0.0
H2539 H 0.84329 0.64366 0.55096 0.0
H2540 H 0.84843 0.7061 0.54676 0.0
C2541 C 0.84179 0.70827 0.49709 0.0
C2542 C 0.83635 0.66565 0.51637 0.0
C2543 C 0.84437 0.71431 0.48429 0.0
C2544 C 0.83242 0.64349 0.57 0.0
C2545 C 0.83652 0.65034 0.55746 0.0
C2546 C 0.84473 0.69454 0.53837 0.0
C2547 C 0.84783 0.69404 0.5012 0.0
C2548 C 0.84428 0.68695 0.51463 0.0
C2549 C 0.83233 0.66591 0.55348 0.0
C2550 C 0.83663 0.6732 0.54011 0.0
H2551 H 0.86621 0.6859 0.47281 0.0
H2552 H 0.86189 0.67551 0.49519 0.0
H2553 H 0.85485 0.71788 0.52481 0.0
H2554 H 0.81325 0.67438 0.58148 0.0
H2555 H 0.82015 0.68616 0.55958 0.0
loop_
_geom_bond_atom_site_label_1
_geom_bond_atom_site_label_2
_geom_bond_distance
_geom_bond_site_symmetry_2
_ccdc_geom_bond_type
P0 O11 1.490 . S
P0 C14 1.812 . S
P0 C20 1.803 . S
P0 C26 1.819 . S
H1 C15 0.941 . S
H2 C16 0.939 . S
H3 C18 0.940 . S
H4 C19 0.940 . S
H5 C21 0.939 . S
H6 C22 0.942 . S
H7 C24 0.940 . S
H8 C25 0.939 . S
H9 C27 0.941 . S
H10 C31 0.939 . S
O11 P0 1.490 . S
H12 C28 0.939 . S
H13 C30 0.940 . S
C14 P0 1.812 . S
C14 C15 1.389 . S
C14 C19 1.391 . S
C15 H1 0.941 . S
C15 C14 1.389 . S
C15 C16 1.397 . S
C16 H2 0.939 . S
C16 C15 1.397 . S
C16 C17 1.378 . S
C17 C16 1.378 . S
C17 C18 1.378 . S
C18 H3 0.940 . S
C18 C17 1.378 . S
C18 C19 1.396 . S
C19 H4 0.940 . S
C19 C14 1.391 . S
C19 C18 1.396 . S
C20 P0 1.803 . S
C20 C21 1.378 . S
C20 C25 1.400 . S
C21 H5 0.939 . S
C21 C20 1.378 . S
C21 C22 1.361 . S
C22 H6 0.942 . S
C22 C21 1.361 . S
C22 C23 1.369 . S
C23 C22 1.369 . S
C23 C24 1.404 . S
C24 H7 0.940 . S
C24 C23 1.404 . S
C24 C25 1.389 . S
C25 H8 0.939 . S
C25 C20 1.400 . S
C25 C24 1.389 . S
C26 P0 1.819 . S
C26 C27 1.391 . S
C26 C31 1.391 . S
C27 H9 0.941 . S
C27 C26 1.391 . S
C27 C28 1.396 . S
C28 H12 0.939 . S
C28 C27 1.396 . S
C28 C29 1.397 . S
C29 C28 1.397 . S
C29 C30 1.385 . S
C30 H13 0.940 . S
C30 C29 1.385 . S
C30 C31 1.388 . S
C31 H10 0.939 . S
C31 C26 1.391 . S
C31 C30 1.388 . S
P32 O43 1.490 . S
P32 C46 1.812 . S
P32 C52 1.803 . S
P32 C58 1.819 . S
H33 C47 0.941 . S
H34 C48 0.939 . S
H35 C50 0.940 . S
H36 C51 0.940 . S
H37 C53 0.939 . S
H38 C54 0.942 . S
H39 C56 0.940 . S
H40 C57 0.939 . S
H41 C59 0.941 . S
H42 C63 0.939 . S
O43 P32 1.490 . S
H44 C60 0.939 . S
H45 C62 0.940 . S
C46 P32 1.812 . S
C46 C47 1.389 . S
C46 C51 1.391 . S
C47 H33 0.941 . S
C47 C46 1.389 . S
C47 C48 1.397 . S
C48 H34 0.939 . S
C48 C47 1.397 . S
C48 C49 1.378 . S
C49 C48 1.378 . S
C49 C50 1.378 . S
C50 H35 0.940 . S
C50 C49 1.378 . S
C50 C51 1.396 . S
C51 H36 0.940 . S
C51 C46 1.391 . S
C51 C50 1.396 . S
C52 P32 1.803 . S
C52 C53 1.378 . S
C52 C57 1.400 . S
C53 H37 0.939 . S
C53 C52 1.378 . S
C53 C54 1.361 . S
C54 H38 0.942 . S
C54 C53 1.361 . S
C54 C55 1.369 . S
C55 C54 1.369 . S
C55 C56 1.404 . S
C56 H39 0.940 . S
C56 C55 1.404 . S
C56 C57 1.389 . S
C57 H40 0.939 . S
C57 C52 1.400 . S
C57 C56 1.389 . S
C58 P32 1.819 . S
C58 C59 1.391 . S
C58 C63 1.391 . S
C59 H41 0.941 . S
C59 C58 1.391 . S
C59 C60 1.396 . S
C60 H44 0.939 . S
C60 C59 1.396 . S
C60 C61 1.397 . S
C61 C60 1.397 . S
C61 C62 1.385 . S
C62 H45 0.940 . S
C62 C61 1.385 . S
C62 C63 1.388 . S
C63 H42 0.939 . S
C63 C58 1.391 . S
C63 C62 1.388 . S
P64 O75 1.490 . S
P64 C78 1.812 . S
P64 C84 1.803 . S
P64 C90 1.819 . S
H65 C79 0.941 . S
H66 C80 0.939 . S
H67 C82 0.940 . S
H68 C83 0.940 . S
H69 C85 0.939 . S
H70 C86 0.942 . S
H71 C88 0.940 . S
H72 C89 0.939 . S
H73 C91 0.941 . S
H74 C95 0.939 . S
O75 P64 1.490 . S
H76 C92 0.939 . S
H77 C94 0.940 . S
C78 P64 1.812 . S
C78 C79 1.389 . S
C78 C83 1.391 . S
C79 H65 0.941 . S
C79 C78 1.389 . S
C79 C80 1.397 . S
C80 H66 0.939 . S
C80 C79 1.397 . S
C80 C81 1.378 . S
C81 C80 1.378 . S
C81 C82 1.378 . S
C82 H67 0.940 . S
C82 C81 1.378 . S
C82 C83 1.396 . S
C83 H68 0.940 . S
C83 C78 1.391 . S
C83 C82 1.396 . S
C84 P64 1.803 . S
C84 C85 1.378 . S
C84 C89 1.400 . S
C85 H69 0.939 . S
C85 C84 1.378 . S
C85 C86 1.361 . S
C86 H70 0.942 . S
C86 C85 1.361 . S
C86 C87 1.369 . S
C87 C86 1.369 . S
C87 C88 1.404 . S
C88 H71 0.940 . S
C88 C87 1.404 . S
C88 C89 1.389 . S
C89 H72 0.939 . S
C89 C84 1.400 . S
C89 C88 1.389 . S
C90 P64 1.819 . S
C90 C91 1.391 . S
C90 C95 1.391 . S
C91 H73 0.941 . S
C91 C90 1.391 . S
C91 C92 1.396 . S
C92 H76 0.939 . S
C92 C91 1.396 . S
C92 C93 1.397 . S
C93 C92 1.397 . S
C93 C94 1.385 . S
C94 H77 0.940 . S
C94 C93 1.385 . S
C94 C95 1.388 . S
C95 H74 0.939 . S
C95 C90 1.391 . S
C95 C94 1.388 . S
P96 O107 1.490 . S
P96 C110 1.812 . S
P96 C116 1.803 . S
P96 C122 1.819 . S
H97 C111 0.941 . S
H98 C112 0.939 . S
H99 C114 0.940 . S
H100 C115 0.940 . S
H101 C117 0.939 . S
H102 C118 0.942 . S
H103 C120 0.940 . S
H104 C121 0.939 . S
H105 C123 0.941 . S
H106 C127 0.939 . S
O107 P96 1.490 . S
H108 C124 0.939 . S
H109 C126 0.940 . S
C110 P96 1.812 . S
C110 C111 1.389 . S
C110 C115 1.391 . S
C111 H97 0.941 . S
C111 C110 1.389 . S
C111 C112 1.397 . S
C112 H98 0.939 . S
C112 C111 1.397 . S
C112 C113 1.378 . S
C113 C112 1.378 . S
C113 C114 1.378 . S
C114 H99 0.940 . S
C114 C113 1.378 . S
C114 C115 1.396 . S
C115 H100 0.940 . S
C115 C110 1.391 . S
C115 C114 1.396 . S
C116 P96 1.803 . S
C116 C117 1.378 . S
C116 C121 1.400 . S
C117 H101 0.939 . S
C117 C116 1.378 . S
C117 C118 1.361 . S
C118 H102 0.942 . S
C118 C117 1.361 . S
C118 C119 1.369 . S
C119 C118 1.369 . S
C119 C120 1.404 . S
C120 H103 0.940 . S
C120 C119 1.404 . S
C120 C121 1.389 . S
C121 H104 0.939 . S
C121 C116 1.400 . S
C121 C120 1.389 . S
C122 P96 1.819 . S
C122 C123 1.391 . S
C122 C127 1.391 . S
C123 H105 0.941 . S
C123 C122 1.391 . S
C123 C124 1.396 . S
C124 H108 0.939 . S
C124 C123 1.396 . S
C124 C125 1.397 . S
C125 C124 1.397 . S
C125 C126 1.385 . S
C126 H109 0.940 . S
C126 C125 1.385 . S
C126 C127 1.388 . S
C127 H106 0.939 . S
C127 C122 1.391 . S
C127 C126 1.388 . S
P128 O139 1.490 . S
P128 C142 1.812 . S
P128 C148 1.803 . S
P128 C154 1.819 . S
H129 C143 0.941 . S
H130 C144 0.939 . S
H131 C146 0.940 . S
H132 C147 0.940 . S
H133 C149 0.939 . S
H134 C150 0.942 . S
H135 C152 0.940 . S
H136 C153 0.939 . S
H137 C155 0.941 . S
H138 C159 0.939 . S
O139 P128 1.490 . S
H140 C156 0.939 . S
H141 C158 0.940 . S
C142 P128 1.812 . S
C142 C143 1.389 . S
C142 C147 1.391 . S
C143 H129 0.941 . S
C143 C142 1.389 . S
C143 C144 1.397 . S
C144 H130 0.939 . S
C144 C143 1.397 . S
C144 C145 1.378 . S
C145 C144 1.378 . S
C145 C146 1.378 . S
C146 H131 0.940 . S
C146 C145 1.378 . S
C146 C147 1.396 . S
C147 H132 0.940 . S
C147 C142 1.391 . S
C147 C146 1.396 . S
C148 P128 1.803 . S
C148 C149 1.378 . S
C148 C153 1.400 . S
C149 H133 0.939 . S
C149 C148 1.378 . S
C149 C150 1.361 . S
C150 H134 0.942 . S
C150 C149 1.361 . S
C150 C151 1.369 . S
C151 C150 1.369 . S
C151 C152 1.404 . S
C152 H135 0.940 . S
C152 C151 1.404 . S
C152 C153 1.389 . S
C153 H136 0.939 . S
C153 C148 1.400 . S
C153 C152 1.389 . S
C154 P128 1.819 . S
C154 C155 1.391 . S
C154 C159 1.391 . S
C155 H137 0.941 . S
C155 C154 1.391 . S
C155 C156 1.396 . S
C156 H140 0.939 . S
C156 C155 1.396 . S
C156 C157 1.397 . S
C157 C156 1.397 . S
C157 C158 1.385 . S
C158 H141 0.940 . S
C158 C157 1.385 . S
C158 C159 1.388 . S
C159 H138 0.939 . S
C159 C154 1.391 . S
C159 C158 1.388 . S
P160 O171 1.490 . S
P160 C174 1.812 . S
P160 C180 1.803 . S
P160 C186 1.819 . S
H161 C175 0.941 . S
H162 C176 0.939 . S
H163 C178 0.940 . S
H164 C179 0.940 . S
H165 C181 0.939 . S
H166 C182 0.942 . S
H167 C184 0.940 . S
H168 C185 0.939 . S
H169 C187 0.941 . S
H170 C191 0.939 . S
O171 P160 1.490 . S
H172 C188 0.939 . S
H173 C190 0.940 . S
C174 P160 1.812 . S
C174 C175 1.389 . S
C174 C179 1.391 . S
C175 H161 0.941 . S
C175 C174 1.389 . S
C175 C176 1.397 . S
C176 H162 0.939 . S
C176 C175 1.397 . S
C176 C177 1.378 . S
C177 C176 1.378 . S
C177 C178 1.378 . S
C178 H163 0.940 . S
C178 C177 1.378 . S
C178 C179 1.396 . S
C179 H164 0.940 . S
C179 C174 1.391 . S
C179 C178 1.396 . S
C180 P160 1.803 . S
C180 C181 1.378 . S
C180 C185 1.400 . S
C181 H165 0.939 . S
C181 C180 1.378 . S
C181 C182 1.361 . S
C182 H166 0.942 . S
C182 C181 1.361 . S
C182 C183 1.369 . S
C183 C182 1.369 . S
C183 C184 1.404 . S
C184 H167 0.940 . S
C184 C183 1.404 . S
C184 C185 1.389 . S
C185 H168 0.939 . S
C185 C180 1.400 . S
C185 C184 1.389 . S
C186 P160 1.819 . S
C186 C187 1.391 . S
C186 C191 1.391 . S
C187 H169 0.941 . S
C187 C186 1.391 . S
C187 C188 1.396 . S
C188 H172 0.939 . S
C188 C187 1.396 . S
C188 C189 1.397 . S
C189 C188 1.397 . S
C189 C190 1.385 . S
C190 H173 0.940 . S
C190 C189 1.385 . S
C190 C191 1.388 . S
C191 H170 0.939 . S
C191 C186 1.391 . S
C191 C190 1.388 . S
P192 O203 1.490 1_655 S
P192 C206 1.812 . S
P192 C212 1.803 . S
P192 C218 1.819 . S
H193 C207 0.941 . S
H194 C208 0.939 . S
H195 C210 0.940 . S
H196 C211 0.940 . S
H197 C213 0.939 . S
H198 C214 0.942 . S
H199 C216 0.940 . S
H200 C217 0.939 . S
H201 C219 0.941 1_455 S
H202 C223 0.939 . S
O203 P192 1.490 1_455 S
H204 C220 0.939 1_455 S
H205 C222 0.940 . S
C206 P192 1.812 . S
C206 C207 1.389 . S
C206 C211 1.391 . S
C207 H193 0.941 . S
C207 C206 1.389 . S
C207 C208 1.397 . S
C208 H194 0.939 . S
C208 C207 1.397 . S
C208 C209 1.378 . S
C209 C208 1.378 . S
C209 C210 1.378 . S
C210 H195 0.940 . S
C210 C209 1.378 . S
C210 C211 1.396 . S
C211 H196 0.940 . S
C211 C206 1.391 . S
C211 C210 1.396 . S
C212 P192 1.803 . S
C212 C213 1.378 . S
C212 C217 1.400 . S
C213 H197 0.939 . S
C213 C212 1.378 . S
C213 C214 1.361 . S
C214 H198 0.942 . S
C214 C213 1.361 . S
C214 C215 1.369 . S
C215 C214 1.369 . S
C215 C216 1.404 . S
C216 H199 0.940 . S
C216 C215 1.404 . S
C216 C217 1.389 . S
C217 H200 0.939 . S
C217 C212 1.400 . S
C217 C216 1.389 . S
C218 P192 1.819 . S
C218 C219 1.391 . S
C218 C223 1.391 . S
C219 H201 0.941 1_655 S
C219 C218 1.391 . S
C219 C220 1.396 . S
C220 H204 0.939 1_655 S
C220 C219 1.396 . S
C220 C221 1.397 . S
C221 C220 1.397 . S
C221 C222 1.385 . S
C222 H205 0.940 . S
C222 C221 1.385 . S
C222 C223 1.388 . S
C223 H202 0.939 . S
C223 C218 1.391 . S
C223 C222 1.388 . S
P224 O235 1.490 . S
P224 C238 1.812 . S
P224 C244 1.803 . S
P224 C250 1.819 . S
H225 C239 0.941 . S
H226 C240 0.939 . S
H227 C242 0.940 . S
H228 C243 0.940 . S
H229 C245 0.939 . S
H230 C246 0.942 . S
H231 C248 0.940 . S
H232 C249 0.939 . S
H233 C251 0.941 . S
H234 C255 0.939 . S
O235 P224 1.490 . S
H236 C252 0.939 . S
H237 C254 0.940 . S
C238 P224 1.812 . S
C238 C239 1.389 . S
C238 C243 1.391 . S
C239 H225 0.941 . S
C239 C238 1.389 . S
C239 C240 1.397 . S
C240 H226 0.939 . S
C240 C239 1.397 . S
C240 C241 1.378 . S
C241 C240 1.378 . S
C241 C242 1.378 . S
C242 H227 0.940 . S
C242 C241 1.378 . S
C242 C243 1.396 . S
C243 H228 0.940 . S
C243 C238 1.391 . S
C243 C242 1.396 . S
C244 P224 1.803 . S
C244 C245 1.378 . S
C244 C249 1.400 . S
C245 H229 0.939 . S
C245 C244 1.378 . S
C245 C246 1.361 . S
C246 H230 0.942 . S
C246 C245 1.361 . S
C246 C247 1.369 . S
C247 C246 1.369 . S
C247 C248 1.404 . S
C248 H231 0.940 . S
C248 C247 1.404 . S
C248 C249 1.389 . S
C249 H232 0.939 . S
C249 C244 1.400 . S
C249 C248 1.389 . S
C250 P224 1.819 . S
C250 C251 1.391 . S
C250 C255 1.391 . S
C251 H233 0.941 . S
C251 C250 1.391 . S
C251 C252 1.396 . S
C252 H236 0.939 . S
C252 C251 1.396 . S
C252 C253 1.397 . S
C253 C252 1.397 . S
C253 C254 1.385 . S
C254 H237 0.940 . S
C254 C253 1.385 . S
C254 C255 1.388 . S
C255 H234 0.939 . S
C255 C250 1.391 . S
C255 C254 1.388 . S
P256 O267 1.490 . S
P256 C270 1.812 . S
P256 C276 1.803 . S
P256 C282 1.819 . S
H257 C271 0.941 . S
H258 C272 0.939 . S
H259 C274 0.940 . S
H260 C275 0.940 . S
H261 C277 0.939 . S
H262 C278 0.942 . S
H263 C280 0.940 . S
H264 C281 0.939 . S
H265 C283 0.941 . S
H266 C287 0.939 . S
O267 P256 1.490 . S
H268 C284 0.939 . S
H269 C286 0.940 . S
C270 P256 1.812 . S
C270 C271 1.389 . S
C270 C275 1.391 . S
C271 H257 0.941 . S
C271 C270 1.389 . S
C271 C272 1.397 . S
C272 H258 0.939 . S
C272 C271 1.397 . S
C272 C273 1.378 . S
C273 C272 1.378 . S
C273 C274 1.378 . S
C274 H259 0.940 . S
C274 C273 1.378 . S
C274 C275 1.396 . S
C275 H260 0.940 . S
C275 C270 1.391 . S
C275 C274 1.396 . S
C276 P256 1.803 . S
C276 C277 1.378 . S
C276 C281 1.400 . S
C277 H261 0.939 . S
C277 C276 1.378 . S
C277 C278 1.361 . S
C278 H262 0.942 . S
C278 C277 1.361 . S
C278 C279 1.369 . S
C279 C278 1.369 . S
C279 C280 1.404 . S
C280 H263 0.940 . S
C280 C279 1.404 . S
C280 C281 1.389 . S
C281 H264 0.939 . S
C281 C276 1.400 . S
C281 C280 1.389 . S
C282 P256 1.819 . S
C282 C283 1.391 . S
C282 C287 1.391 . S
C283 H265 0.941 . S
C283 C282 1.391 . S
C283 C284 1.396 . S
C284 H268 0.939 . S
C284 C283 1.396 . S
C284 C285 1.397 . S
C285 C284 1.397 . S
C285 C286 1.385 . S
C286 H269 0.940 . S
C286 C285 1.385 . S
C286 C287 1.388 . S
C287 H266 0.939 . S
C287 C282 1.391 . S
C287 C286 1.388 . S
P288 O299 1.490 . S
P288 C302 1.812 . S
P288 C308 1.803 . S
P288 C314 1.819 . S
H289 C303 0.941 . S
H290 C304 0.939 . S
H291 C306 0.940 . S
H292 C307 0.940 . S
H293 C309 0.939 . S
H294 C310 0.942 . S
H295 C312 0.940 . S
H296 C313 0.939 . S
H297 C315 0.941 . S
H298 C319 0.939 . S
O299 P288 1.490 . S
H300 C316 0.939 . S
H301 C318 0.940 . S
C302 P288 1.812 . S
C302 C303 1.389 . S
C302 C307 1.391 . S
C303 H289 0.941 . S
C303 C302 1.389 . S
C303 C304 1.397 . S
C304 H290 0.939 . S
C304 C303 1.397 . S
C304 C305 1.378 . S
C305 C304 1.378 . S
C305 C306 1.378 . S
C306 H291 0.940 . S
C306 C305 1.378 . S
C306 C307 1.396 . S
C307 H292 0.940 . S
C307 C302 1.391 . S
C307 C306 1.396 . S
C308 P288 1.803 . S
C308 C309 1.378 . S
C308 C313 1.400 . S
C309 H293 0.939 . S
C309 C308 1.378 . S
C309 C310 1.361 . S
C310 H294 0.942 . S
C310 C309 1.361 . S
C310 C311 1.369 . S
C311 C310 1.369 . S
C311 C312 1.404 . S
C312 H295 0.940 . S
C312 C311 1.404 . S
C312 C313 1.389 . S
C313 H296 0.939 . S
C313 C308 1.400 . S
C313 C312 1.389 . S
C314 P288 1.819 . S
C314 C315 1.391 . S
C314 C319 1.391 . S
C315 H297 0.941 . S
C315 C314 1.391 . S
C315 C316 1.396 . S
C316 H300 0.939 . S
C316 C315 1.396 . S
C316 C317 1.397 . S
C317 C316 1.397 . S
C317 C318 1.385 . S
C318 H301 0.940 . S
C318 C317 1.385 . S
C318 C319 1.388 . S
C319 H298 0.939 . S
C319 C314 1.391 . S
C319 C318 1.388 . S
P320 O331 1.490 . S
P320 C334 1.812 . S
P320 C340 1.803 . S
P320 C346 1.819 . S
H321 C335 0.941 . S
H322 C336 0.939 . S
H323 C338 0.940 . S
H324 C339 0.940 . S
H325 C341 0.939 . S
H326 C342 0.942 . S
H327 C344 0.940 . S
H328 C345 0.939 . S
H329 C347 0.941 . S
H330 C351 0.939 . S
O331 P320 1.490 . S
H332 C348 0.939 . S
H333 C350 0.940 . S
C334 P320 1.812 . S
C334 C335 1.389 . S
C334 C339 1.391 . S
C335 H321 0.941 . S
C335 C334 1.389 . S
C335 C336 1.397 . S
C336 H322 0.939 . S
C336 C335 1.397 . S
C336 C337 1.378 . S
C337 C336 1.378 . S
C337 C338 1.378 . S
C338 H323 0.940 . S
C338 C337 1.378 . S
C338 C339 1.396 . S
C339 H324 0.940 . S
C339 C334 1.391 . S
C339 C338 1.396 . S
C340 P320 1.803 . S
C340 C341 1.378 . S
C340 C345 1.400 . S
C341 H325 0.939 . S
C341 C340 1.378 . S
C341 C342 1.361 . S
C342 H326 0.942 . S
C342 C341 1.361 . S
C342 C343 1.369 . S
C343 C342 1.369 . S
C343 C344 1.404 . S
C344 H327 0.940 . S
C344 C343 1.404 . S
C344 C345 1.389 . S
C345 H328 0.939 . S
C345 C340 1.400 . S
C345 C344 1.389 . S
C346 P320 1.819 . S
C346 C347 1.391 . S
C346 C351 1.391 . S
C347 H329 0.941 . S
C347 C346 1.391 . S
C347 C348 1.396 . S
C348 H332 0.939 . S
C348 C347 1.396 . S
C348 C349 1.397 . S
C349 C348 1.397 . S
C349 C350 1.385 . S
C350 H333 0.940 . S
C350 C349 1.385 . S
C350 C351 1.388 . S
C351 H330 0.939 . S
C351 C346 1.391 . S
C351 C350 1.388 . S
P352 O363 1.490 . S
P352 C366 1.812 . S
P352 C372 1.803 . S
P352 C378 1.819 . S
H353 C367 0.941 . S
H354 C368 0.939 . S
H355 C370 0.940 . S
H356 C371 0.940 . S
H357 C373 0.939 . S
H358 C374 0.942 . S
H359 C376 0.940 . S
H360 C377 0.939 . S
H361 C379 0.941 . S
H362 C383 0.939 . S
O363 P352 1.490 . S
H364 C380 0.939 . S
H365 C382 0.940 . S
C366 P352 1.812 . S
C366 C367 1.389 . S
C366 C371 1.391 . S
C367 H353 0.941 . S
C367 C366 1.389 . S
C367 C368 1.397 . S
C368 H354 0.939 . S
C368 C367 1.397 . S
C368 C369 1.378 . S
C369 C368 1.378 . S
C369 C370 1.378 . S
C370 H355 0.940 . S
C370 C369 1.378 . S
C370 C371 1.396 . S
C371 H356 0.940 . S
C371 C366 1.391 . S
C371 C370 1.396 . S
C372 P352 1.803 . S
C372 C373 1.378 . S
C372 C377 1.400 . S
C373 H357 0.939 . S
C373 C372 1.378 . S
C373 C374 1.361 . S
C374 H358 0.942 . S
C374 C373 1.361 . S
C374 C375 1.369 . S
C375 C374 1.369 . S
C375 C376 1.404 . S
C376 H359 0.940 . S
C376 C375 1.404 . S
C376 C377 1.389 . S
C377 H360 0.939 . S
C377 C372 1.400 . S
C377 C376 1.389 . S
C378 P352 1.819 . S
C378 C379 1.391 . S
C378 C383 1.391 . S
C379 H361 0.941 . S
C379 C378 1.391 . S
C379 C380 1.396 . S
C380 H364 0.939 . S
C380 C379 1.396 . S
C380 C381 1.397 . S
C381 C380 1.397 . S
C381 C382 1.385 . S
C382 H365 0.940 . S
C382 C381 1.385 . S
C382 C383 1.388 . S
C383 H362 0.939 . S
C383 C378 1.391 . S
C383 C382 1.388 . S
P384 O395 1.490 . S
P384 C398 1.812 . S
P384 C404 1.803 . S
P384 C410 1.819 . S
H385 C399 0.941 . S
H386 C400 0.939 . S
H387 C402 0.940 . S
H388 C403 0.940 . S
H389 C405 0.939 . S
H390 C406 0.942 . S
H391 C408 0.940 . S
H392 C409 0.939 . S
H393 C411 0.941 . S
H394 C415 0.939 . S
O395 P384 1.490 . S
H396 C412 0.939 . S
H397 C414 0.940 . S
C398 P384 1.812 . S
C398 C399 1.389 . S
C398 C403 1.391 . S
C399 H385 0.941 . S
C399 C398 1.389 . S
C399 C400 1.397 . S
C400 H386 0.939 . S
C400 C399 1.397 . S
C400 C401 1.378 . S
C401 C400 1.378 . S
C401 C402 1.378 . S
C402 H387 0.940 . S
C402 C401 1.378 . S
C402 C403 1.396 . S
C403 H388 0.940 . S
C403 C398 1.391 . S
C403 C402 1.396 . S
C404 P384 1.803 . S
C404 C405 1.378 . S
C404 C409 1.400 . S
C405 H389 0.939 . S
C405 C404 1.378 . S
C405 C406 1.361 . S
C406 H390 0.942 . S
C406 C405 1.361 . S
C406 C407 1.369 . S
C407 C406 1.369 . S
C407 C408 1.404 . S
C408 H391 0.940 . S
C408 C407 1.404 . S
C408 C409 1.389 . S
C409 H392 0.939 . S
C409 C404 1.400 . S
C409 C408 1.389 . S
C410 P384 1.819 . S
C410 C411 1.391 . S
C410 C415 1.391 . S
C411 H393 0.941 . S
C411 C410 1.391 . S
C411 C412 1.396 . S
C412 H396 0.939 . S
C412 C411 1.396 . S
C412 C413 1.397 . S
C413 C412 1.397 . S
C413 C414 1.385 . S
C414 H397 0.940 . S
C414 C413 1.385 . S
C414 C415 1.388 . S
C415 H394 0.939 . S
C415 C410 1.391 . S
C415 C414 1.388 . S
P416 O427 1.490 . S
P416 C430 1.812 . S
P416 C436 1.803 . S
P416 C442 1.819 . S
H417 C431 0.941 . S
H418 C432 0.939 . S
H419 C434 0.940 . S
H420 C435 0.940 . S
H421 C437 0.939 . S
H422 C438 0.942 . S
H423 C440 0.940 . S
H424 C441 0.939 . S
H425 C443 0.941 . S
H426 C447 0.939 . S
O427 P416 1.490 . S
H428 C444 0.939 . S
H429 C446 0.940 . S
C430 P416 1.812 . S
C430 C431 1.389 . S
C430 C435 1.391 . S
C431 H417 0.941 . S
C431 C430 1.389 . S
C431 C432 1.397 . S
C432 H418 0.939 . S
C432 C431 1.397 . S
C432 C433 1.378 . S
C433 C432 1.378 . S
C433 C434 1.378 . S
C434 H419 0.940 . S
C434 C433 1.378 . S
C434 C435 1.396 . S
C435 H420 0.940 . S
C435 C430 1.391 . S
C435 C434 1.396 . S
C436 P416 1.803 . S
C436 C437 1.378 . S
C436 C441 1.400 . S
C437 H421 0.939 . S
C437 C436 1.378 . S
C437 C438 1.361 . S
C438 H422 0.942 . S
C438 C437 1.361 . S
C438 C439 1.369 . S
C439 C438 1.369 . S
C439 C440 1.404 . S
C440 H423 0.940 . S
C440 C439 1.404 . S
C440 C441 1.389 . S
C441 H424 0.939 . S
C441 C436 1.400 . S
C441 C440 1.389 . S
C442 P416 1.819 . S
C442 C443 1.391 . S
C442 C447 1.391 . S
C443 H425 0.941 . S
C443 C442 1.391 . S
C443 C444 1.396 . S
C444 H428 0.939 . S
C444 C443 1.396 . S
C444 C445 1.397 . S
C445 C444 1.397 . S
C445 C446 1.385 . S
C446 H429 0.940 . S
C446 C445 1.385 . S
C446 C447 1.388 . S
C447 H426 0.939 . S
C447 C442 1.391 . S
C447 C446 1.388 . S
P448 O459 1.490 . S
P448 C462 1.812 . S
P448 C468 1.803 . S
P448 C474 1.819 . S
H449 C463 0.941 . S
H450 C464 0.939 . S
H451 C466 0.940 . S
H452 C467 0.940 . S
H453 C469 0.939 . S
H454 C470 0.942 . S
H455 C472 0.940 . S
H456 C473 0.939 . S
H457 C475 0.941 . S
H458 C479 0.939 . S
O459 P448 1.490 . S
H460 C476 0.939 . S
H461 C478 0.940 . S
C462 P448 1.812 . S
C462 C463 1.389 . S
C462 C467 1.391 . S
C463 H449 0.941 . S
C463 C462 1.389 . S
C463 C464 1.397 . S
C464 H450 0.939 . S
C464 C463 1.397 . S
C464 C465 1.378 . S
C465 C464 1.378 . S
C465 C466 1.378 . S
C466 H451 0.940 . S
C466 C465 1.378 . S
C466 C467 1.396 . S
C467 H452 0.940 . S
C467 C462 1.391 . S
C467 C466 1.396 . S
C468 P448 1.803 . S
C468 C469 1.378 . S
C468 C473 1.400 . S
C469 H453 0.939 . S
C469 C468 1.378 . S
C469 C470 1.361 . S
C470 H454 0.942 . S
C470 C469 1.361 . S
C470 C471 1.369 . S
C471 C470 1.369 . S
C471 C472 1.404 . S
C472 H455 0.940 . S
C472 C471 1.404 . S
C472 C473 1.389 . S
C473 H456 0.939 . S
C473 C468 1.400 . S
C473 C472 1.389 . S
C474 P448 1.819 . S
C474 C475 1.391 . S
C474 C479 1.391 . S
C475 H457 0.941 . S
C475 C474 1.391 . S
C475 C476 1.396 . S
C476 H460 0.939 . S
C476 C475 1.396 . S
C476 C477 1.397 . S
C477 C476 1.397 . S
C477 C478 1.385 . S
C478 H461 0.940 . S
C478 C477 1.385 . S
C478 C479 1.388 . S
C479 H458 0.939 . S
C479 C474 1.391 . S
C479 C478 1.388 . S
P480 O491 1.490 . S
P480 C494 1.812 . S
P480 C500 1.803 . S
P480 C506 1.819 . S
H481 C495 0.941 . S
H482 C496 0.939 . S
H483 C498 0.940 . S
H484 C499 0.940 . S
H485 C501 0.939 . S
H486 C502 0.942 . S
H487 C504 0.940 . S
H488 C505 0.939 . S
H489 C507 0.941 . S
H490 C511 0.939 . S
O491 P480 1.490 . S
H492 C508 0.939 . S
H493 C510 0.940 . S
C494 P480 1.812 . S
C494 C495 1.389 . S
C494 C499 1.391 . S
C495 H481 0.941 . S
C495 C494 1.389 . S
C495 C496 1.397 . S
C496 H482 0.939 . S
C496 C495 1.397 . S
C496 C497 1.378 . S
C497 C496 1.378 . S
C497 C498 1.378 . S
C498 H483 0.940 . S
C498 C497 1.378 . S
C498 C499 1.396 . S
C499 H484 0.940 . S
C499 C494 1.391 . S
C499 C498 1.396 . S
C500 P480 1.803 . S
C500 C501 1.378 . S
C500 C505 1.400 . S
C501 H485 0.939 . S
C501 C500 1.378 . S
C501 C502 1.361 . S
C502 H486 0.942 . S
C502 C501 1.361 . S
C502 C503 1.369 . S
C503 C502 1.369 . S
C503 C504 1.404 . S
C504 H487 0.940 . S
C504 C503 1.404 . S
C504 C505 1.389 . S
C505 H488 0.939 . S
C505 C500 1.400 . S
C505 C504 1.389 . S
C506 P480 1.819 . S
C506 C507 1.391 . S
C506 C511 1.391 . S
C507 H489 0.941 . S
C507 C506 1.391 . S
C507 C508 1.396 . S
C508 H492 0.939 . S
C508 C507 1.396 . S
C508 C509 1.397 . S
C509 C508 1.397 . S
C509 C510 1.385 . S
C510 H493 0.940 . S
C510 C509 1.385 . S
C510 C511 1.388 . S
C511 H490 0.939 . S
C511 C506 1.391 . S
C511 C510 1.388 . S
P512 O523 1.490 . S
P512 C526 1.812 . S
P512 C532 1.803 . S
P512 C538 1.819 . S
H513 C527 0.941 . S
H514 C528 0.939 . S
H515 C530 0.940 . S
H516 C531 0.940 . S
H517 C533 0.939 . S
H518 C534 0.942 . S
H519 C536 0.940 . S
H520 C537 0.939 . S
H521 C539 0.941 . S
H522 C543 0.939 . S
O523 P512 1.490 . S
H524 C540 0.939 . S
H525 C542 0.940 . S
C526 P512 1.812 . S
C526 C527 1.389 . S
C526 C531 1.391 . S
C527 H513 0.941 . S
C527 C526 1.389 . S
C527 C528 1.397 . S
C528 H514 0.939 . S
C528 C527 1.397 . S
C528 C529 1.378 . S
C529 C528 1.378 . S
C529 C530 1.378 . S
C530 H515 0.940 . S
C530 C529 1.378 . S
C530 C531 1.396 . S
C531 H516 0.940 . S
C531 C526 1.391 . S
C531 C530 1.396 . S
C532 P512 1.803 . S
C532 C533 1.378 . S
C532 C537 1.400 . S
C533 H517 0.939 . S
C533 C532 1.378 . S
C533 C534 1.361 . S
C534 H518 0.942 . S
C534 C533 1.361 . S
C534 C535 1.369 . S
C535 C534 1.369 . S
C535 C536 1.404 . S
C536 H519 0.940 . S
C536 C535 1.404 . S
C536 C537 1.389 . S
C537 H520 0.939 . S
C537 C532 1.400 . S
C537 C536 1.389 . S
C538 P512 1.819 . S
C538 C539 1.391 . S
C538 C543 1.391 . S
C539 H521 0.941 . S
C539 C538 1.391 . S
C539 C540 1.396 . S
C540 H524 0.939 . S
C540 C539 1.396 . S
C540 C541 1.397 . S
C541 C540 1.397 . S
C541 C542 1.385 . S
C542 H525 0.940 . S
C542 C541 1.385 . S
C542 C543 1.388 . S
C543 H522 0.939 . S
C543 C538 1.391 . S
C543 C542 1.388 . S
P544 O555 1.490 . S
P544 C558 1.812 . S
P544 C564 1.803 . S
P544 C570 1.819 . S
H545 C559 0.941 . S
H546 C560 0.939 . S
H547 C562 0.940 . S
H548 C563 0.940 . S
H549 C565 0.939 . S
H550 C566 0.942 . S
H551 C568 0.940 . S
H552 C569 0.939 . S
H553 C571 0.941 . S
H554 C575 0.939 . S
O555 P544 1.490 . S
H556 C572 0.939 . S
H557 C574 0.940 . S
C558 P544 1.812 . S
C558 C559 1.389 . S
C558 C563 1.391 . S
C559 H545 0.941 . S
C559 C558 1.389 . S
C559 C560 1.397 . S
C560 H546 0.939 . S
C560 C559 1.397 . S
C560 C561 1.378 . S
C561 C560 1.378 . S
C561 C562 1.378 . S
C562 H547 0.940 . S
C562 C561 1.378 . S
C562 C563 1.396 . S
C563 H548 0.940 . S
C563 C558 1.391 . S
C563 C562 1.396 . S
C564 P544 1.803 . S
C564 C565 1.378 . S
C564 C569 1.400 . S
C565 H549 0.939 . S
C565 C564 1.378 . S
C565 C566 1.361 . S
C566 H550 0.942 . S
C566 C565 1.361 . S
C566 C567 1.369 . S
C567 C566 1.369 . S
C567 C568 1.404 . S
C568 H551 0.940 . S
C568 C567 1.404 . S
C568 C569 1.389 . S
C569 H552 0.939 . S
C569 C564 1.400 . S
C569 C568 1.389 . S
C570 P544 1.819 . S
C570 C571 1.391 . S
C570 C575 1.391 . S
C571 H553 0.941 . S
C571 C570 1.391 . S
C571 C572 1.396 . S
C572 H556 0.939 . S
C572 C571 1.396 . S
C572 C573 1.397 . S
C573 C572 1.397 . S
C573 C574 1.385 . S
C574 H557 0.940 . S
C574 C573 1.385 . S
C574 C575 1.388 . S
C575 H554 0.939 . S
C575 C570 1.391 . S
C575 C574 1.388 . S
Eu576 C585 2.828 . S
Eu576 O587 2.389 1_556 S
Eu576 O589 2.418 . S
Eu576 O594 2.373 1_565 S
Eu576 O597 2.488 . S
Eu576 O598 2.471 1_565 S
Eu576 O599 2.349 1_565 S
Eu577 O586 2.373 1_545 S
Eu577 O590 2.488 . S
Eu577 O591 2.471 1_545 S
Eu577 O592 2.349 1_545 S
Eu577 O595 2.392 . S
Eu577 O596 2.418 . S
Eu577 C606 2.828 . S
C578 O596 1.292 . S
C578 O599 1.246 1_554 S
C579 C580 1.379 1_565 S
C579 C583 1.373 . S
C579 C585 1.505 . S
C580 C579 1.379 1_545 S
C580 C582 1.369 . S
C580 H608 0.930 . S
C581 C583 1.383 . S
C581 C584 1.382 1_565 S
C581 H609 0.930 . S
C582 C580 1.369 . S
C582 C584 1.392 . S
C582 H610 0.930 . S
C583 C579 1.373 . S
C583 C581 1.383 . S
C583 H611 0.931 . S
C584 C581 1.382 1_545 S
C584 C582 1.392 . S
C585 Eu576 2.828 . S
C585 C579 1.505 . S
C585 O597 1.249 . S
C585 O598 1.244 1_565 S
O586 Eu577 2.373 1_565 S
O586 C588 1.258 . S
O587 Eu576 2.389 1_554 S
O587 C588 1.246 . S
C588 O586 1.258 . S
C588 O587 1.246 . S
O589 Eu576 2.418 . S
O589 C593 1.244 1_556 S
O590 Eu577 2.488 . S
O590 C606 1.249 . S
O591 Eu577 2.471 1_565 S
O591 C606 1.244 1_565 S
O592 Eu577 2.349 1_565 S
O592 C593 1.265 . S
C593 O589 1.244 1_554 S
C593 O592 1.265 . S
O594 Eu576 2.373 1_545 S
O594 C607 1.258 . S
O595 Eu577 2.392 . S
O595 C607 1.242 1_554 S
O596 Eu577 2.418 . S
O596 C578 1.292 . S
O597 Eu576 2.488 . S
O597 C585 1.249 . S
O598 Eu576 2.471 1_545 S
O598 C585 1.244 1_545 S
O599 Eu576 2.349 1_545 S
O599 C578 1.246 1_556 S
C600 C601 1.379 1_545 S
C600 C604 1.373 . S
C600 C606 1.505 . S
C601 C600 1.379 1_565 S
C601 C603 1.369 . S
C601 H612 0.930 . S
C602 C604 1.383 . S
C602 C605 1.382 1_545 S
C602 H613 0.930 . S
C603 C601 1.369 . S
C603 C605 1.392 . S
C603 H614 0.930 . S
C604 C600 1.373 . S
C604 C602 1.383 . S
C604 H615 0.931 . S
C605 C602 1.382 1_565 S
C605 C603 1.392 . S
C606 Eu577 2.828 . S
C606 O590 1.249 . S
C606 O591 1.244 1_545 S
C606 C600 1.505 . S
C607 O594 1.258 . S
C607 O595 1.242 1_556 S
H608 C580 0.930 . S
H609 C581 0.930 . S
H610 C582 0.930 . S
H611 C583 0.931 . S
H612 C601 0.930 . S
H613 C602 0.930 . S
H614 C603 0.930 . S
H615 C604 0.931 . S
Eu616 C625 2.828 . S
Eu616 O627 2.392 1_556 S
Eu616 O629 2.418 . S
Eu616 O634 2.373 1_455 S
Eu616 O637 2.488 . S
Eu616 O638 2.471 1_455 S
Eu616 O639 2.349 1_455 S
Eu617 O626 2.373 1_655 S
Eu617 O630 2.488 . S
Eu617 O631 2.471 1_655 S
Eu617 O632 2.349 1_655 S
Eu617 O635 2.392 . S
Eu617 O636 2.418 . S
Eu617 C646 2.828 . S
C618 O636 1.244 1_556 S
C618 O639 1.265 . S
C619 C620 1.369 1_455 S
C619 C623 1.379 . S
C619 C625 1.510 . S
C620 C619 1.369 1_655 S
C620 C622 1.369 . S
C620 H648 0.930 . S
C621 C623 1.383 . S
C621 C624 1.382 1_455 S
C621 H649 0.930 . S
C622 C620 1.369 . S
C622 C624 1.392 . S
C622 H650 0.930 . S
C623 C619 1.379 . S
C623 C621 1.383 . S
C623 H651 0.931 . S
C624 C621 1.382 1_655 S
C624 C622 1.392 . S
C625 Eu616 2.828 . S
C625 C619 1.510 . S
C625 O637 1.249 . S
C625 O638 1.244 1_455 S
O626 Eu617 2.373 1_455 S
O626 C628 1.258 . S
O627 Eu616 2.392 1_554 S
O627 C628 1.242 . S
C628 O626 1.258 . S
C628 O627 1.242 . S
O629 Eu616 2.418 . S
O629 C633 1.244 1_556 S
O630 Eu617 2.488 . S
O630 C646 1.249 . S
O631 Eu617 2.471 1_455 S
O631 C646 1.244 1_455 S
O632 Eu617 2.349 1_455 S
O632 C633 1.265 . S
C633 O629 1.244 1_554 S
C633 O632 1.265 . S
O634 Eu616 2.373 1_655 S
O634 C647 1.258 . S
O635 Eu617 2.392 . S
O635 C647 1.242 1_554 S
O636 Eu617 2.418 . S
O636 C618 1.244 1_554 S
O637 Eu616 2.488 . S
O637 C625 1.249 . S
O638 Eu616 2.471 1_655 S
O638 C625 1.244 1_655 S
O639 Eu616 2.349 1_655 S
O639 C618 1.265 . S
C640 C641 1.379 . S
C640 C644 1.373 1_455 S
C640 C646 1.505 1_455 S
C641 C640 1.379 . S
C641 C643 1.369 . S
C641 H652 0.930 . S
C642 C644 1.383 . S
C642 C645 1.382 1_655 S
C642 H653 0.930 . S
C643 C641 1.369 . S
C643 C645 1.392 . S
C643 H654 0.930 . S
C644 C640 1.373 1_655 S
C644 C642 1.383 . S
C644 H655 0.931 . S
C645 C642 1.382 1_455 S
C645 C643 1.392 . S
C646 Eu617 2.828 . S
C646 O630 1.249 . S
C646 O631 1.244 1_655 S
C646 C640 1.505 1_655 S
C647 O634 1.258 . S
C647 O635 1.242 1_556 S
H648 C620 0.930 . S
H649 C621 0.930 . S
H650 C622 0.930 . S
H651 C623 0.931 . S
H652 C641 0.930 . S
H653 C642 0.930 . S
H654 C643 0.930 . S
H655 C644 0.931 . S
Eu656 C665 2.828 . S
Eu656 O667 2.392 . S
Eu656 O669 2.418 . S
Eu656 O674 2.373 . S
Eu656 O677 2.488 . S
Eu656 O678 2.471 . S
Eu656 O679 2.349 . S
Eu657 O666 2.373 . S
Eu657 O670 2.488 . S
Eu657 O671 2.471 . S
Eu657 O672 2.349 . S
Eu657 O675 2.392 1_556 S
Eu657 O676 2.418 . S
Eu657 C686 2.828 . S
C658 O676 1.244 1_554 S
C658 O679 1.265 . S
C659 C660 1.379 . S
C659 C663 1.373 . S
C659 C665 1.505 . S
C660 C659 1.379 . S
C660 C662 1.369 . S
C660 H688 0.930 . S
C661 C663 1.383 . S
C661 C664 1.382 . S
C661 H689 0.930 . S
C662 C660 1.369 . S
C662 C664 1.392 . S
C662 H690 0.930 . S
C663 C659 1.373 . S
C663 C661 1.383 . S
C663 H691 0.931 . S
C664 C661 1.382 . S
C664 C662 1.392 . S
C665 Eu656 2.828 . S
C665 C659 1.505 . S
C665 O677 1.249 . S
C665 O678 1.244 . S
O666 Eu657 2.373 . S
O666 C668 1.258 . S
O667 Eu656 2.392 . S
O667 C668 1.242 1_554 S
C668 O666 1.258 . S
C668 O667 1.242 1_556 S
O669 Eu656 2.418 . S
O669 C673 1.244 1_554 S
O670 Eu657 2.488 . S
O670 C686 1.249 . S
O671 Eu657 2.471 . S
O671 C686 1.244 . S
O672 Eu657 2.349 . S
O672 C673 1.265 . S
C673 O669 1.244 1_556 S
C673 O672 1.265 . S
O674 Eu656 2.373 . S
O674 C687 1.258 . S
O675 Eu657 2.392 1_554 S
O675 C687 1.242 . S
O676 Eu657 2.418 . S
O676 C658 1.244 1_556 S
O677 Eu656 2.488 . S
O677 C665 1.249 . S
O678 Eu656 2.471 . S
O678 C665 1.244 . S
O679 Eu656 2.349 . S
O679 C658 1.265 . S
C680 C681 1.379 . S
C680 C684 1.373 . S
C680 C686 1.505 . S
C681 C680 1.379 . S
C681 C683 1.369 . S
C681 H692 0.930 . S
C682 C684 1.383 . S
C682 C685 1.382 . S
C682 H693 0.930 . S
C683 C681 1.369 . S
C683 C685 1.392 . S
C683 H694 0.930 . S
C684 C680 1.373 . S
C684 C682 1.383 . S
C684 H695 0.931 . S
C685 C682 1.382 . S
C685 C683 1.392 . S
C686 Eu657 2.828 . S
C686 O670 1.249 . S
C686 O671 1.244 . S
C686 C680 1.505 . S
C687 O674 1.258 . S
C687 O675 1.242 . S
H688 C660 0.930 . S
H689 C661 0.930 . S
H690 C662 0.930 . S
H691 C663 0.931 . S
H692 C681 0.930 . S
H693 C682 0.930 . S
H694 C683 0.930 . S
H695 C684 0.931 . S
Eu696 C705 2.828 . S
Eu696 O707 2.392 . S
Eu696 O709 2.418 . S
Eu696 O714 2.373 . S
Eu696 O717 2.488 . S
Eu696 O718 2.471 . S
Eu696 O719 2.349 . S
Eu697 O706 2.373 . S
Eu697 O710 2.488 . S
Eu697 O711 2.471 . S
Eu697 O712 2.349 . S
Eu697 O715 2.392 . S
Eu697 O716 2.418 . S
Eu697 C726 2.828 . S
C698 O716 1.244 . S
C698 O719 1.265 . S
C699 C700 1.379 . S
C699 C703 1.373 . S
C699 C705 1.505 . S
C700 C699 1.379 . S
C700 C702 1.369 . S
C700 H728 0.930 . S
C701 C703 1.383 . S
C701 C704 1.382 . S
C701 H729 0.930 . S
C702 C700 1.369 . S
C702 C704 1.392 . S
C702 H730 0.930 . S
C703 C699 1.373 . S
C703 C701 1.383 . S
C703 H731 0.931 . S
C704 C701 1.382 . S
C704 C702 1.392 . S
C705 Eu696 2.828 . S
C705 C699 1.505 . S
C705 O717 1.249 . S
C705 O718 1.244 . S
O706 Eu697 2.373 . S
O706 C708 1.258 . S
O707 Eu696 2.392 . S
O707 C708 1.242 . S
C708 O706 1.258 . S
C708 O707 1.242 . S
O709 Eu696 2.418 . S
O709 C713 1.244 . S
O710 Eu697 2.488 . S
O710 C726 1.249 . S
O711 Eu697 2.471 . S
O711 C726 1.244 . S
O712 Eu697 2.349 . S
O712 C713 1.265 . S
C713 O709 1.244 . S
C713 O712 1.265 . S
O714 Eu696 2.373 . S
O714 C727 1.258 . S
O715 Eu697 2.392 . S
O715 C727 1.242 . S
O716 Eu697 2.418 . S
O716 C698 1.244 . S
O717 Eu696 2.488 . S
O717 C705 1.249 . S
O718 Eu696 2.471 . S
O718 C705 1.244 . S
O719 Eu696 2.349 . S
O719 C698 1.265 . S
C720 C721 1.379 . S
C720 C724 1.373 . S
C720 C726 1.505 . S
C721 C720 1.379 . S
C721 C723 1.369 . S
C721 H732 0.930 . S
C722 C724 1.383 . S
C722 C725 1.382 . S
C722 H733 0.930 . S
C723 C721 1.369 . S
C723 C725 1.392 . S
C723 H734 0.930 . S
C724 C720 1.373 . S
C724 C722 1.383 . S
C724 H735 0.931 . S
C725 C722 1.382 . S
C725 C723 1.392 . S
C726 Eu697 2.828 . S
C726 O710 1.249 . S
C726 O711 1.244 . S
C726 C720 1.505 . S
C727 O714 1.258 . S
C727 O715 1.242 . S
H728 C700 0.930 . S
H729 C701 0.930 . S
H730 C702 0.930 . S
H731 C703 0.931 . S
H732 C721 0.930 . S
H733 C722 0.930 . S
H734 C723 0.930 . S
H735 C724 0.931 . S
Eu736 C745 2.828 . S
Eu736 O747 2.392 . S
Eu736 O749 2.418 . S
Eu736 O754 2.373 . S
Eu736 O757 2.488 . S
Eu736 O758 2.471 . S
Eu736 O759 2.349 . S
Eu737 O746 2.373 . S
Eu737 O750 2.488 . S
Eu737 O751 2.471 . S
Eu737 O752 2.349 . S
Eu737 O755 2.392 . S
Eu737 O756 2.418 . S
Eu737 C766 2.828 . S
C738 O756 1.244 . S
C738 O759 1.265 . S
C739 C740 1.379 . S
C739 C743 1.373 . S
C739 C745 1.505 . S
C740 C739 1.379 . S
C740 C742 1.369 . S
C740 H768 0.930 . S
C741 C743 1.383 . S
C741 C744 1.382 . S
C741 H769 0.930 . S
C742 C740 1.369 . S
C742 C744 1.392 . S
C742 H770 0.930 . S
C743 C739 1.373 . S
C743 C741 1.383 . S
C743 H771 0.931 . S
C744 C741 1.382 . S
C744 C742 1.392 . S
C745 Eu736 2.828 . S
C745 C739 1.505 . S
C745 O757 1.249 . S
C745 O758 1.244 . S
O746 Eu737 2.373 . S
O746 C748 1.258 . S
O747 Eu736 2.392 . S
O747 C748 1.242 . S
C748 O746 1.258 . S
C748 O747 1.242 . S
O749 Eu736 2.418 . S
O749 C753 1.244 . S
O750 Eu737 2.488 . S
O750 C766 1.249 . S
O751 Eu737 2.471 . S
O751 C766 1.244 . S
O752 Eu737 2.349 . S
O752 C753 1.265 . S
C753 O749 1.244 . S
C753 O752 1.265 . S
O754 Eu736 2.373 . S
O754 C767 1.258 . S
O755 Eu737 2.392 . S
O755 C767 1.242 . S
O756 Eu737 2.418 . S
O756 C738 1.244 . S
O757 Eu736 2.488 . S
O757 C745 1.249 . S
O758 Eu736 2.471 . S
O758 C745 1.244 . S
O759 Eu736 2.349 . S
O759 C738 1.265 . S
C760 C761 1.379 . S
C760 C764 1.373 . S
C760 C766 1.505 . S
C761 C760 1.379 . S
C761 C763 1.369 . S
C761 H772 0.930 . S
C762 C764 1.383 . S
C762 C765 1.382 . S
C762 H773 0.930 . S
C763 C761 1.369 . S
C763 C765 1.392 . S
C763 H774 0.930 . S
C764 C760 1.373 . S
C764 C762 1.383 . S
C764 H775 0.931 . S
C765 C762 1.382 . S
C765 C763 1.392 . S
C766 Eu737 2.828 . S
C766 O750 1.249 . S
C766 O751 1.244 . S
C766 C760 1.505 . S
C767 O754 1.258 . S
C767 O755 1.242 . S
H768 C740 0.930 . S
H769 C741 0.930 . S
H770 C742 0.930 . S
H771 C743 0.931 . S
H772 C761 0.930 . S
H773 C762 0.930 . S
H774 C763 0.930 . S
H775 C764 0.931 . S
Eu776 C785 2.828 . S
Eu776 O787 2.392 . S
Eu776 O789 2.418 . S
Eu776 O794 2.373 . S
Eu776 O797 2.488 . S
Eu776 O798 2.471 . S
Eu776 O799 2.349 . S
Eu777 O786 2.373 . S
Eu777 O790 2.488 . S
Eu777 O791 2.471 . S
Eu777 O792 2.349 . S
Eu777 O795 2.392 . S
Eu777 O796 2.418 . S
Eu777 C806 2.828 . S
C778 O796 1.244 . S
C778 O799 1.265 . S
C779 C780 1.379 . S
C779 C783 1.373 . S
C779 C785 1.505 . S
C780 C779 1.379 . S
C780 C782 1.369 . S
C780 H808 0.930 . S
C781 C783 1.383 . S
C781 C784 1.382 . S
C781 H809 0.930 . S
C782 C780 1.369 . S
C782 C784 1.392 . S
C782 H810 0.930 . S
C783 C779 1.373 . S
C783 C781 1.383 . S
C783 H811 0.931 . S
C784 C781 1.382 . S
C784 C782 1.392 . S
C785 Eu776 2.828 . S
C785 C779 1.505 . S
C785 O797 1.249 . S
C785 O798 1.244 . S
O786 Eu777 2.373 . S
O786 C788 1.258 . S
O787 Eu776 2.392 . S
O787 C788 1.242 . S
C788 O786 1.258 . S
C788 O787 1.242 . S
O789 Eu776 2.418 . S
O789 C793 1.244 . S
O790 Eu777 2.488 . S
O790 C806 1.249 . S
O791 Eu777 2.471 . S
O791 C806 1.244 . S
O792 Eu777 2.349 . S
O792 C793 1.265 . S
C793 O789 1.244 . S
C793 O792 1.265 . S
O794 Eu776 2.373 . S
O794 C807 1.258 . S
O795 Eu777 2.392 . S
O795 C807 1.242 . S
O796 Eu777 2.418 . S
O796 C778 1.244 . S
O797 Eu776 2.488 . S
O797 C785 1.249 . S
O798 Eu776 2.471 . S
O798 C785 1.244 . S
O799 Eu776 2.349 . S
O799 C778 1.265 . S
C800 C801 1.379 . S
C800 C804 1.373 . S
C800 C806 1.505 . S
C801 C800 1.379 . S
C801 C803 1.369 . S
C801 H812 0.930 . S
C802 C804 1.383 . S
C802 C805 1.382 . S
C802 H813 0.930 . S
C803 C801 1.369 . S
C803 C805 1.392 . S
C803 H814 0.930 . S
C804 C800 1.373 . S
C804 C802 1.383 . S
C804 H815 0.931 . S
C805 C802 1.382 . S
C805 C803 1.392 . S
C806 Eu777 2.828 . S
C806 O790 1.249 . S
C806 O791 1.244 . S
C806 C800 1.505 . S
C807 O794 1.258 . S
C807 O795 1.242 . S
H808 C780 0.930 . S
H809 C781 0.930 . S
H810 C782 0.930 . S
H811 C783 0.931 . S
H812 C801 0.930 . S
H813 C802 0.930 . S
H814 C803 0.930 . S
H815 C804 0.931 . S
Eu816 C825 2.828 . S
Eu816 O827 2.392 . S
Eu816 O829 2.418 . S
Eu816 O834 2.373 . S
Eu816 O837 2.488 . S
Eu816 O838 2.471 . S
Eu816 O839 2.349 . S
Eu817 O826 2.373 . S
Eu817 O830 2.488 . S
Eu817 O831 2.471 . S
Eu817 O832 2.349 . S
Eu817 O835 2.392 . S
Eu817 O836 2.418 . S
Eu817 C846 2.828 . S
C818 O836 1.244 . S
C818 O839 1.265 . S
C819 C820 1.379 . S
C819 C823 1.373 . S
C819 C825 1.505 . S
C820 C819 1.379 . S
C820 C822 1.369 . S
C820 H848 0.930 . S
C821 C823 1.383 . S
C821 C824 1.382 . S
C821 H849 0.930 . S
C822 C820 1.369 . S
C822 C824 1.392 . S
C822 H850 0.930 . S
C823 C819 1.373 . S
C823 C821 1.383 . S
C823 H851 0.931 . S
C824 C821 1.382 . S
C824 C822 1.392 . S
C825 Eu816 2.828 . S
C825 C819 1.505 . S
C825 O837 1.249 . S
C825 O838 1.244 . S
O826 Eu817 2.373 . S
O826 C828 1.258 . S
O827 Eu816 2.392 . S
O827 C828 1.242 . S
C828 O826 1.258 . S
C828 O827 1.242 . S
O829 Eu816 2.418 . S
O829 C833 1.244 . S
O830 Eu817 2.488 . S
O830 C846 1.249 . S
O831 Eu817 2.471 . S
O831 C846 1.244 . S
O832 Eu817 2.349 . S
O832 C833 1.265 . S
C833 O829 1.244 . S
C833 O832 1.265 . S
O834 Eu816 2.373 . S
O834 C847 1.258 . S
O835 Eu817 2.392 . S
O835 C847 1.242 . S
O836 Eu817 2.418 . S
O836 C818 1.244 . S
O837 Eu816 2.488 . S
O837 C825 1.249 . S
O838 Eu816 2.471 . S
O838 C825 1.244 . S
O839 Eu816 2.349 . S
O839 C818 1.265 . S
C840 C841 1.379 . S
C840 C844 1.373 . S
C840 C846 1.505 . S
C841 C840 1.379 . S
C841 C843 1.369 . S
C841 H852 0.930 . S
C842 C844 1.383 . S
C842 C845 1.382 . S
C842 H853 0.930 . S
C843 C841 1.369 . S
C843 C845 1.392 . S
C843 H854 0.930 . S
C844 C840 1.373 . S
C844 C842 1.383 . S
C844 H855 0.931 . S
C845 C842 1.382 . S
C845 C843 1.392 . S
C846 Eu817 2.828 . S
C846 O830 1.249 . S
C846 O831 1.244 . S
C846 C840 1.505 . S
C847 O834 1.258 . S
C847 O835 1.242 . S
H848 C820 0.930 . S
H849 C821 0.930 . S
H850 C822 0.930 . S
H851 C823 0.931 . S
H852 C841 0.930 . S
H853 C842 0.930 . S
H854 C843 0.930 . S
H855 C844 0.931 . S
Eu856 C865 2.828 . S
Eu856 O867 2.392 . S
Eu856 O869 2.418 . S
Eu856 O874 2.373 . S
Eu856 O877 2.488 . S
Eu856 O878 2.471 . S
Eu856 O879 2.349 . S
Eu857 O866 2.373 . S
Eu857 O870 2.488 . S
Eu857 O871 2.471 . S
Eu857 O872 2.349 . S
Eu857 O875 2.392 . S
Eu857 O876 2.418 . S
Eu857 C886 2.828 . S
C858 O876 1.244 . S
C858 O879 1.265 . S
C859 C860 1.379 . S
C859 C863 1.373 . S
C859 C865 1.505 . S
C860 C859 1.379 . S
C860 C862 1.369 . S
C860 H888 0.930 . S
C861 C863 1.383 . S
C861 C864 1.382 . S
C861 H889 0.930 . S
C862 C860 1.369 . S
C862 C864 1.392 . S
C862 H890 0.930 . S
C863 C859 1.373 . S
C863 C861 1.383 . S
C863 H891 0.931 . S
C864 C861 1.382 . S
C864 C862 1.392 . S
C865 Eu856 2.828 . S
C865 C859 1.505 . S
C865 O877 1.249 . S
C865 O878 1.244 . S
O866 Eu857 2.373 . S
O866 C868 1.258 . S
O867 Eu856 2.392 . S
O867 C868 1.242 . S
C868 O866 1.258 . S
C868 O867 1.242 . S
O869 Eu856 2.418 . S
O869 C873 1.244 . S
O870 Eu857 2.488 . S
O870 C886 1.249 . S
O871 Eu857 2.471 . S
O871 C886 1.244 . S
O872 Eu857 2.349 . S
O872 C873 1.265 . S
C873 O869 1.244 . S
C873 O872 1.265 . S
O874 Eu856 2.373 . S
O874 C887 1.258 . S
O875 Eu857 2.392 . S
O875 C887 1.242 . S
O876 Eu857 2.418 . S
O876 C858 1.244 . S
O877 Eu856 2.488 . S
O877 C865 1.249 . S
O878 Eu856 2.471 . S
O878 C865 1.244 . S
O879 Eu856 2.349 . S
O879 C858 1.265 . S
C880 C881 1.379 . S
C880 C884 1.373 . S
C880 C886 1.505 . S
C881 C880 1.379 . S
C881 C883 1.369 . S
C881 H892 0.930 . S
C882 C884 1.383 . S
C882 C885 1.382 . S
C882 H893 0.930 . S
C883 C881 1.369 . S
C883 C885 1.392 . S
C883 H894 0.930 . S
C884 C880 1.373 . S
C884 C882 1.383 . S
C884 H895 0.931 . S
C885 C882 1.382 . S
C885 C883 1.392 . S
C886 Eu857 2.828 . S
C886 O870 1.249 . S
C886 O871 1.244 . S
C886 C880 1.505 . S
C887 O874 1.258 . S
C887 O875 1.242 . S
H888 C860 0.930 . S
H889 C861 0.930 . S
H890 C862 0.930 . S
H891 C863 0.931 . S
H892 C881 0.930 . S
H893 C882 0.930 . S
H894 C883 0.930 . S
H895 C884 0.931 . S
Eu896 C905 2.828 . S
Eu896 O907 2.392 . S
Eu896 O909 2.418 . S
Eu896 O914 2.373 . S
Eu896 O917 2.488 . S
Eu896 O918 2.471 . S
Eu896 O919 2.349 . S
Eu897 O906 2.373 . S
Eu897 O910 2.488 . S
Eu897 O911 2.471 . S
Eu897 O912 2.349 . S
Eu897 O915 2.392 . S
Eu897 O916 2.418 . S
Eu897 C926 2.828 . S
C898 O916 1.244 . S
C898 O919 1.265 . S
C899 C900 1.379 . S
C899 C903 1.373 . S
C899 C905 1.505 . S
C900 C899 1.379 . S
C900 C902 1.369 . S
C900 H928 0.930 . S
C901 C903 1.383 . S
C901 C904 1.382 . S
C901 H929 0.930 . S
C902 C900 1.369 . S
C902 C904 1.392 . S
C902 H930 0.930 . S
C903 C899 1.373 . S
C903 C901 1.383 . S
C903 H931 0.931 . S
C904 C901 1.382 . S
C904 C902 1.392 . S
C905 Eu896 2.828 . S
C905 C899 1.505 . S
C905 O917 1.249 . S
C905 O918 1.244 . S
O906 Eu897 2.373 . S
O906 C908 1.258 . S
O907 Eu896 2.392 . S
O907 C908 1.242 . S
C908 O906 1.258 . S
C908 O907 1.242 . S
O909 Eu896 2.418 . S
O909 C913 1.244 . S
O910 Eu897 2.488 . S
O910 C926 1.249 . S
O911 Eu897 2.471 . S
O911 C926 1.244 . S
O912 Eu897 2.349 . S
O912 C913 1.265 . S
C913 O909 1.244 . S
C913 O912 1.265 . S
O914 Eu896 2.373 . S
O914 C927 1.258 . S
O915 Eu897 2.392 . S
O915 C927 1.242 . S
O916 Eu897 2.418 . S
O916 C898 1.244 . S
O917 Eu896 2.488 . S
O917 C905 1.249 . S
O918 Eu896 2.471 . S
O918 C905 1.244 . S
O919 Eu896 2.349 . S
O919 C898 1.265 . S
C920 C921 1.379 . S
C920 C924 1.373 . S
C920 C926 1.505 . S
C921 C920 1.379 . S
C921 C923 1.369 . S
C921 H932 0.930 . S
C922 C924 1.383 . S
C922 C925 1.382 . S
C922 H933 0.930 . S
C923 C921 1.369 . S
C923 C925 1.392 . S
C923 H934 0.930 . S
C924 C920 1.373 . S
C924 C922 1.383 . S
C924 H935 0.931 . S
C925 C922 1.382 . S
C925 C923 1.392 . S
C926 Eu897 2.828 . S
C926 O910 1.249 . S
C926 O911 1.244 . S
C926 C920 1.505 . S
C927 O914 1.258 . S
C927 O915 1.242 . S
H928 C900 0.930 . S
H929 C901 0.930 . S
H930 C902 0.930 . S
H931 C903 0.931 . S
H932 C921 0.930 . S
H933 C922 0.930 . S
H934 C923 0.930 . S
H935 C924 0.931 . S
C936 C937 1.349 . S
C936 C938 1.327 . S
C936 H961 0.950 . S
C937 C936 1.349 . S
C937 C953 1.349 . S
C938 C936 1.327 . S
C938 C957 1.429 . S
C938 H962 0.950 . S
C939 C956 1.574 . S
C939 C958 1.368 . S
C939 H963 0.949 . S
H940 C944 0.949 . S
C941 C942 1.349 . S
C941 C943 1.327 . S
C941 H964 0.879 1_554 S
C942 C941 1.349 . S
C942 C954 1.349 . S
C943 C941 1.327 . S
C943 C959 1.429 . S
C943 H965 0.950 . S
C944 H940 0.949 . S
C944 C952 1.574 . S
C944 C960 1.368 . S
H945 C953 0.950 . S
H946 C951 0.950 . S
H947 C952 0.949 . S
H948 C954 0.950 . S
H949 C955 0.950 . S
H950 C956 0.949 . S
C951 H946 0.950 . S
C951 C953 1.327 . S
C951 C957 1.429 . S
C952 C944 1.574 . S
C952 H947 0.949 . S
C952 C958 1.368 . S
C953 C937 1.349 . S
C953 H945 0.950 . S
C953 C951 1.327 . S
C954 C942 1.349 . S
C954 H948 0.950 . S
C954 C955 1.327 . S
C955 H949 0.950 . S
C955 C954 1.327 . S
C955 C959 1.429 . S
C956 C939 1.574 . S
C956 H950 0.949 . S
C956 C960 1.368 . S
C957 C938 1.429 . S
C957 C951 1.429 . S
C957 C958 1.523 . S
C958 C939 1.368 . S
C958 C952 1.368 . S
C958 C957 1.523 . S
C959 C943 1.429 . S
C959 C955 1.429 . S
C959 C960 1.523 . S
C960 C944 1.368 . S
C960 C956 1.368 . S
C960 C959 1.523 . S
H961 C936 0.950 . S
H962 C938 0.950 . S
H963 C939 0.949 . S
H964 C941 0.879 1_556 S
H965 C943 0.950 . S
C966 C967 1.349 . S
C966 C968 1.327 . S
C966 H991 0.950 . S
C967 C966 1.349 . S
C967 C983 1.349 . S
C968 C966 1.327 . S
C968 C987 1.429 . S
C968 H992 0.950 . S
C969 C986 1.574 . S
C969 C988 1.368 . S
C969 H993 0.949 . S
H970 C974 0.949 . S
C971 C972 1.349 . S
C971 C973 1.327 . S
C971 H994 0.950 . S
C972 C971 1.349 . S
C972 C984 1.349 . S
C973 C971 1.327 . S
C973 C989 1.429 . S
C973 H995 0.950 . S
C974 H970 0.949 . S
C974 C982 1.574 . S
C974 C990 1.368 . S
H975 C983 0.950 . S
H976 C981 0.950 . S
H977 C982 0.949 . S
H978 C984 0.950 . S
H979 C985 0.950 . S
H980 C986 0.949 . S
C981 H976 0.950 . S
C981 C983 1.327 . S
C981 C987 1.429 . S
C982 C974 1.574 . S
C982 H977 0.949 . S
C982 C988 1.368 . S
C983 C967 1.349 . S
C983 H975 0.950 . S
C983 C981 1.327 . S
C984 C972 1.349 . S
C984 H978 0.950 . S
C984 C985 1.327 . S
C985 H979 0.950 . S
C985 C984 1.327 . S
C985 C989 1.429 . S
C986 C969 1.574 . S
C986 H980 0.949 . S
C986 C990 1.368 . S
C987 C968 1.429 . S
C987 C981 1.429 . S
C987 C988 1.523 . S
C988 C969 1.368 . S
C988 C982 1.368 . S
C988 C987 1.523 . S
C989 C973 1.429 . S
C989 C985 1.429 . S
C989 C990 1.523 . S
C990 C974 1.368 . S
C990 C986 1.368 . S
C990 C989 1.523 . S
H991 C966 0.950 . S
H992 C968 0.950 . S
H993 C969 0.949 . S
H994 C971 0.950 . S
H995 C973 0.950 . S
C996 C997 1.349 . S
C996 C998 1.327 . S
C996 H1021 0.950 . S
C997 C996 1.349 . S
C997 C1013 1.349 . S
C998 C996 1.327 . S
C998 C1017 1.429 . S
C998 H1022 0.950 . S
C999 C1016 1.574 . S
C999 C1018 1.368 . S
C999 H1023 0.949 . S
H1000 C1004 0.949 . S
C1001 C1002 1.349 . S
C1001 C1003 1.327 . S
C1001 H1024 0.950 . S
C1002 C1001 1.349 . S
C1002 C1014 1.349 . S
C1003 C1001 1.327 . S
C1003 C1019 1.429 . S
C1003 H1025 0.950 . S
C1004 H1000 0.949 . S
C1004 C1012 1.574 . S
C1004 C1020 1.368 . S
H1005 C1013 0.950 . S
H1006 C1011 0.950 . S
H1007 C1012 0.949 . S
H1008 C1014 0.935 1_556 S
H1009 C1015 0.950 . S
H1010 C1016 0.949 . S
C1011 H1006 0.950 . S
C1011 C1013 1.327 . S
C1011 C1017 1.429 . S
C1012 C1004 1.574 . S
C1012 H1007 0.949 . S
C1012 C1018 1.368 . S
C1013 C997 1.349 . S
C1013 H1005 0.950 . S
C1013 C1011 1.327 . S
C1014 C1002 1.349 . S
C1014 H1008 0.935 1_554 S
C1014 C1015 1.327 . S
C1015 H1009 0.950 . S
C1015 C1014 1.327 . S
C1015 C1019 1.429 . S
C1016 C999 1.574 . S
C1016 H1010 0.949 . S
C1016 C1020 1.368 . S
C1017 C998 1.429 . S
C1017 C1011 1.429 . S
C1017 C1018 1.523 . S
C1018 C999 1.368 . S
C1018 C1012 1.368 . S
C1018 C1017 1.523 . S
C1019 C1003 1.429 . S
C1019 C1015 1.429 . S
C1019 C1020 1.523 . S
C1020 C1004 1.368 . S
C1020 C1016 1.368 . S
C1020 C1019 1.523 . S
H1021 C996 0.950 . S
H1022 C998 0.950 . S
H1023 C999 0.949 . S
H1024 C1001 0.950 . S
H1025 C1003 0.950 . S
C1026 C1027 1.349 . S
C1026 C1028 1.327 . S
C1026 H1051 0.950 . S
C1027 C1026 1.349 . S
C1027 C1043 1.349 . S
C1028 C1026 1.327 . S
C1028 C1047 1.429 . S
C1028 H1052 0.950 . S
C1029 C1046 1.574 . S
C1029 C1048 1.368 . S
C1029 H1053 0.949 . S
H1030 C1034 0.949 . S
C1031 C1032 1.349 . S
C1031 C1033 1.327 . S
C1031 H1054 0.950 1_556 S
C1032 C1031 1.349 . S
C1032 C1044 1.349 . S
C1033 C1031 1.327 . S
C1033 C1049 1.429 . S
C1033 H1055 0.950 . S
C1034 H1030 0.949 . S
C1034 C1042 1.574 . S
C1034 C1050 1.368 . S
H1035 C1043 0.950 . S
H1036 C1041 0.950 . S
H1037 C1042 0.949 . S
H1038 C1044 0.950 . S
H1039 C1045 0.950 . S
H1040 C1046 0.949 . S
C1041 H1036 0.950 . S
C1041 C1043 1.327 . S
C1041 C1047 1.429 . S
C1042 C1034 1.574 . S
C1042 H1037 0.949 . S
C1042 C1048 1.368 . S
C1043 C1027 1.349 . S
C1043 H1035 0.950 . S
C1043 C1041 1.327 . S
C1044 C1032 1.349 . S
C1044 H1038 0.950 . S
C1044 C1045 1.327 . S
C1045 H1039 0.950 . S
C1045 C1044 1.327 . S
C1045 C1049 1.429 . S
C1046 C1029 1.574 . S
C1046 H1040 0.949 . S
C1046 C1050 1.368 . S
C1047 C1028 1.429 . S
C1047 C1041 1.429 . S
C1047 C1048 1.523 . S
C1048 C1029 1.368 . S
C1048 C1042 1.368 . S
C1048 C1047 1.523 . S
C1049 C1033 1.429 . S
C1049 C1045 1.429 . S
C1049 C1050 1.523 . S
C1050 C1034 1.368 . S
C1050 C1046 1.368 . S
C1050 C1049 1.523 . S
H1051 C1026 0.950 . S
H1052 C1028 0.950 . S
H1053 C1029 0.949 . S
H1054 C1031 0.950 1_554 S
H1055 C1033 0.950 . S
C1056 C1057 1.349 . S
C1056 C1058 1.327 . S
C1056 H1081 0.950 . S
C1057 C1056 1.349 . S
C1057 C1073 1.349 . S
C1058 C1056 1.327 . S
C1058 C1077 1.429 . S
C1058 H1082 0.950 . S
C1059 C1076 1.574 . S
C1059 C1078 1.368 . S
C1059 H1083 0.949 . S
H1060 C1064 0.949 . S
C1061 C1062 1.349 . S
C1061 C1063 1.327 . S
C1061 H1084 0.950 . S
C1062 C1061 1.349 . S
C1062 C1074 1.349 . S
C1063 C1061 1.327 . S
C1063 C1079 1.429 . S
C1063 H1085 0.950 . S
C1064 H1060 0.949 . S
C1064 C1072 1.574 . S
C1064 C1080 1.368 . S
H1065 C1073 0.950 . S
H1066 C1071 0.950 . S
H1067 C1072 0.949 . S
H1068 C1074 0.950 . S
H1069 C1075 0.950 . S
H1070 C1076 0.949 . S
C1071 H1066 0.950 . S
C1071 C1073 1.327 . S
C1071 C1077 1.429 . S
C1072 C1064 1.574 . S
C1072 H1067 0.949 . S
C1072 C1078 1.368 . S
C1073 C1057 1.349 . S
C1073 H1065 0.950 . S
C1073 C1071 1.327 . S
C1074 C1062 1.349 . S
C1074 H1068 0.950 . S
C1074 C1075 1.327 . S
C1075 H1069 0.950 . S
C1075 C1074 1.327 . S
C1075 C1079 1.429 . S
C1076 C1059 1.574 . S
C1076 H1070 0.949 . S
C1076 C1080 1.368 . S
C1077 C1058 1.429 . S
C1077 C1071 1.429 . S
C1077 C1078 1.523 . S
C1078 C1059 1.368 . S
C1078 C1072 1.368 . S
C1078 C1077 1.523 . S
C1079 C1063 1.429 . S
C1079 C1075 1.429 . S
C1079 C1080 1.523 . S
C1080 C1064 1.368 . S
C1080 C1076 1.368 . S
C1080 C1079 1.523 . S
H1081 C1056 0.950 . S
H1082 C1058 0.950 . S
H1083 C1059 0.949 . S
H1084 C1061 0.950 . S
H1085 C1063 0.950 . S
C1086 C1087 1.349 . S
C1086 C1088 1.327 . S
C1086 H1111 0.950 . S
C1087 C1086 1.349 . S
C1087 C1103 1.349 . S
C1088 C1086 1.327 . S
C1088 C1107 1.429 . S
C1088 H1112 0.950 . S
C1089 C1106 1.574 . S
C1089 C1108 1.368 . S
C1089 H1113 0.949 . S
H1090 C1094 0.949 . S
C1091 C1092 1.349 1_554 S
C1091 C1093 1.331 . S
C1091 H1114 0.950 . S
C1092 C1091 1.349 1_556 S
C1092 C1104 1.349 . S
C1093 C1091 1.331 . S
C1093 C1109 1.415 1_554 S
C1093 H1115 0.960 . S
C1094 H1090 0.949 . S
C1094 C1102 1.574 . S
C1094 C1110 1.368 . S
H1095 C1103 0.950 . S
H1096 C1101 0.950 . S
H1097 C1102 0.949 . S
H1098 C1104 0.950 . S
H1099 C1105 0.950 . S
H1100 C1106 0.949 1_554 S
C1101 H1096 0.950 . S
C1101 C1103 1.327 . S
C1101 C1107 1.429 . S
C1102 C1094 1.574 . S
C1102 H1097 0.949 . S
C1102 C1108 1.368 . S
C1103 C1087 1.349 . S
C1103 H1095 0.950 . S
C1103 C1101 1.327 . S
C1104 C1092 1.349 . S
C1104 H1098 0.950 . S
C1104 C1105 1.327 . S
C1105 H1099 0.950 . S
C1105 C1104 1.327 . S
C1105 C1109 1.429 . S
C1106 C1089 1.574 . S
C1106 H1100 0.949 1_556 S
C1106 C1110 1.368 . S
C1107 C1088 1.429 . S
C1107 C1101 1.429 . S
C1107 C1108 1.523 . S
C1108 C1089 1.368 . S
C1108 C1102 1.368 . S
C1108 C1107 1.523 . S
C1109 C1093 1.415 1_556 S
C1109 C1105 1.429 . S
C1109 C1110 1.523 . S
C1110 C1094 1.368 . S
C1110 C1106 1.368 . S
C1110 C1109 1.523 . S
H1111 C1086 0.950 . S
H1112 C1088 0.950 . S
H1113 C1089 0.949 . S
H1114 C1091 0.950 . S
H1115 C1093 0.960 . S
C1116 C1117 1.349 . S
C1116 C1118 1.327 . S
C1116 H1141 0.950 . S
C1117 C1116 1.349 . S
C1117 C1133 1.349 . S
C1118 C1116 1.327 . S
C1118 C1137 1.429 . S
C1118 H1142 0.950 . S
C1119 C1136 1.574 . S
C1119 C1138 1.368 . S
C1119 H1143 0.949 . S
H1120 C1124 0.949 . S
C1121 C1122 1.349 . S
C1121 C1123 1.327 . S
C1121 H1144 0.950 . S
C1122 C1121 1.349 . S
C1122 C1134 1.349 . S
C1123 C1121 1.327 . S
C1123 C1139 1.429 . S
C1123 H1145 0.950 . S
C1124 H1120 0.949 . S
C1124 C1132 1.574 . S
C1124 C1140 1.368 . S
H1125 C1133 0.950 . S
H1126 C1131 0.950 . S
H1127 C1132 0.949 . S
H1128 C1134 0.950 1_554 S
H1129 C1135 0.949 1_554 S
H1130 C1136 0.949 . S
C1131 H1126 0.950 . S
C1131 C1133 1.327 . S
C1131 C1137 1.429 . S
C1132 C1124 1.574 . S
C1132 H1127 0.949 . S
C1132 C1138 1.368 . S
C1133 C1117 1.349 . S
C1133 H1125 0.950 . S
C1133 C1131 1.327 . S
C1134 C1122 1.349 . S
C1134 H1128 0.950 1_556 S
C1134 C1135 1.327 . S
C1135 H1129 0.949 1_556 S
C1135 C1134 1.327 . S
C1135 C1139 1.429 . S
C1136 C1119 1.574 . S
C1136 H1130 0.949 . S
C1136 C1140 1.368 . S
C1137 C1118 1.429 . S
C1137 C1131 1.429 . S
C1137 C1138 1.523 . S
C1138 C1119 1.368 . S
C1138 C1132 1.368 . S
C1138 C1137 1.523 . S
C1139 C1123 1.429 . S
C1139 C1135 1.429 . S
C1139 C1140 1.523 . S
C1140 C1124 1.368 . S
C1140 C1136 1.368 . S
C1140 C1139 1.523 . S
H1141 C1116 0.950 . S
H1142 C1118 0.950 . S
H1143 C1119 0.949 . S
H1144 C1121 0.950 . S
H1145 C1123 0.950 . S
C1146 C1147 1.349 . S
C1146 C1148 1.327 . S
C1146 H1171 0.950 . S
C1147 C1146 1.349 . S
C1147 C1163 1.349 . S
C1148 C1146 1.327 . S
C1148 C1167 1.429 . S
C1148 H1172 0.950 . S
C1149 C1166 1.574 . S
C1149 C1168 1.368 . S
C1149 H1173 0.949 . S
H1150 C1154 0.949 . S
C1151 C1152 1.349 . S
C1151 C1153 1.327 . S
C1151 H1174 0.950 1_556 S
C1152 C1151 1.349 . S
C1152 C1164 1.349 . S
C1153 C1151 1.327 . S
C1153 C1169 1.429 . S
C1153 H1175 0.950 . S
C1154 H1150 0.949 . S
C1154 C1162 1.574 . S
C1154 C1170 1.368 . S
H1155 C1163 0.950 . S
H1156 C1161 0.950 . S
H1157 C1162 0.949 . S
H1158 C1164 0.950 . S
H1159 C1165 0.950 . S
H1160 C1166 0.949 . S
C1161 H1156 0.950 . S
C1161 C1163 1.327 . S
C1161 C1167 1.429 . S
C1162 C1154 1.574 . S
C1162 H1157 0.949 . S
C1162 C1168 1.368 . S
C1163 C1147 1.349 . S
C1163 H1155 0.950 . S
C1163 C1161 1.327 . S
C1164 C1152 1.349 . S
C1164 H1158 0.950 . S
C1164 C1165 1.327 . S
C1165 H1159 0.950 . S
C1165 C1164 1.327 . S
C1165 C1169 1.429 . S
C1166 C1149 1.574 . S
C1166 H1160 0.949 . S
C1166 C1170 1.368 . S
C1167 C1148 1.429 . S
C1167 C1161 1.429 . S
C1167 C1168 1.523 . S
C1168 C1149 1.368 . S
C1168 C1162 1.368 . S
C1168 C1167 1.523 . S
C1169 C1153 1.429 . S
C1169 C1165 1.429 . S
C1169 C1170 1.523 . S
C1170 C1154 1.368 . S
C1170 C1166 1.368 . S
C1170 C1169 1.523 . S
H1171 C1146 0.950 . S
H1172 C1148 0.950 . S
H1173 C1149 0.949 . S
H1174 C1151 0.950 1_554 S
H1175 C1153 0.950 . S
C1176 C1177 1.349 . S
C1176 C1178 1.327 . S
C1176 H1201 0.950 . S
C1177 C1176 1.349 . S
C1177 C1193 1.349 . S
C1178 C1176 1.327 . S
C1178 C1197 1.429 . S
C1178 H1202 0.950 . S
C1179 C1196 1.574 . S
C1179 C1198 1.368 . S
C1179 H1203 0.949 . S
H1180 C1184 0.949 . S
C1181 C1182 1.353 1_554 S
C1181 C1183 1.328 1_554 S
C1181 H1204 0.944 . S
C1182 C1181 1.353 1_556 S
C1182 C1194 1.349 . S
C1183 C1181 1.328 1_556 S
C1183 C1199 1.429 . S
C1183 H1205 0.950 1_556 S
C1184 H1180 0.949 . S
C1184 C1192 1.574 . S
C1184 C1200 1.368 . S
H1185 C1193 0.950 . S
H1186 C1191 0.950 . S
H1187 C1192 0.949 . S
H1188 C1194 0.950 . S
H1189 C1195 0.950 . S
H1190 C1196 1.013 . S
C1191 H1186 0.950 . S
C1191 C1193 1.327 . S
C1191 C1197 1.429 . S
C1192 C1184 1.574 . S
C1192 H1187 0.949 . S
C1192 C1198 1.368 . S
C1193 C1177 1.349 . S
C1193 H1185 0.950 . S
C1193 C1191 1.327 . S
C1194 C1182 1.349 . S
C1194 H1188 0.950 . S
C1194 C1195 1.327 . S
C1195 H1189 0.950 . S
C1195 C1194 1.327 . S
C1195 C1199 1.429 . S
C1196 C1179 1.574 . S
C1196 H1190 1.013 . S
C1196 C1200 1.368 . S
C1197 C1178 1.429 . S
C1197 C1191 1.429 . S
C1197 C1198 1.523 . S
C1198 C1179 1.368 . S
C1198 C1192 1.368 . S
C1198 C1197 1.523 . S
C1199 C1183 1.429 . S
C1199 C1195 1.429 . S
C1199 C1200 1.523 . S
C1200 C1184 1.368 . S
C1200 C1196 1.368 . S
C1200 C1199 1.523 . S
H1201 C1176 0.950 . S
H1202 C1178 0.950 . S
H1203 C1179 0.949 . S
H1204 C1181 0.944 . S
H1205 C1183 0.950 1_554 S
C1206 C1207 1.349 . S
C1206 C1208 1.327 . S
C1206 H1231 0.950 . S
C1207 C1206 1.349 . S
C1207 C1223 1.349 . S
C1208 C1206 1.327 . S
C1208 C1227 1.429 . S
C1208 H1232 0.950 . S
C1209 C1226 1.574 . S
C1209 C1228 1.368 . S
C1209 H1233 0.949 . S
H1210 C1214 0.949 . S
C1211 C1212 1.349 . S
C1211 C1213 1.327 . S
C1211 H1234 0.950 . S
C1212 C1211 1.349 . S
C1212 C1224 1.349 . S
C1213 C1211 1.327 . S
C1213 C1229 1.429 . S
C1213 H1235 0.950 . S
C1214 H1210 0.949 . S
C1214 C1222 1.574 . S
C1214 C1230 1.368 . S
H1215 C1223 0.950 . S
H1216 C1221 0.950 . S
H1217 C1222 0.949 . S
H1218 C1224 0.950 . S
H1219 C1225 0.950 . S
H1220 C1226 0.949 . S
C1221 H1216 0.950 . S
C1221 C1223 1.327 . S
C1221 C1227 1.429 . S
C1222 C1214 1.574 . S
C1222 H1217 0.949 . S
C1222 C1228 1.368 . S
C1223 C1207 1.349 . S
C1223 H1215 0.950 . S
C1223 C1221 1.327 . S
C1224 C1212 1.349 . S
C1224 H1218 0.950 . S
C1224 C1225 1.327 . S
C1225 H1219 0.950 . S
C1225 C1224 1.327 . S
C1225 C1229 1.429 . S
C1226 C1209 1.574 . S
C1226 H1220 0.949 . S
C1226 C1230 1.368 . S
C1227 C1208 1.429 . S
C1227 C1221 1.429 . S
C1227 C1228 1.523 . S
C1228 C1209 1.368 . S
C1228 C1222 1.368 . S
C1228 C1227 1.523 . S
C1229 C1213 1.429 . S
C1229 C1225 1.429 . S
C1229 C1230 1.523 . S
C1230 C1214 1.368 . S
C1230 C1226 1.368 . S
C1230 C1229 1.523 . S
H1231 C1206 0.950 . S
H1232 C1208 0.950 . S
H1233 C1209 0.949 . S
H1234 C1211 0.950 . S
H1235 C1213 0.950 . S
C1236 C1237 1.349 . S
C1236 C1238 1.327 . S
C1236 H1261 0.950 . S
C1237 C1236 1.349 . S
C1237 C1253 1.349 . S
C1238 C1236 1.327 . S
C1238 C1257 1.429 . S
C1238 H1262 0.950 . S
C1239 C1256 1.574 . S
C1239 C1258 1.368 . S
C1239 H1263 0.949 . S
H1240 C1244 0.949 . S
C1241 C1242 1.349 . S
C1241 C1243 1.327 . S
C1241 H1264 0.950 . S
C1242 C1241 1.349 . S
C1242 C1254 1.349 . S
C1243 C1241 1.327 . S
C1243 C1259 1.429 . S
C1243 H1265 0.950 . S
C1244 H1240 0.949 . S
C1244 C1252 1.574 . S
C1244 C1260 1.368 . S
H1245 C1253 0.950 . S
H1246 C1251 0.950 . S
H1247 C1252 0.949 . S
H1248 C1254 0.950 . S
H1249 C1255 0.950 . S
H1250 C1256 0.949 . S
C1251 H1246 0.950 . S
C1251 C1253 1.327 . S
C1251 C1257 1.429 . S
C1252 C1244 1.574 . S
C1252 H1247 0.949 . S
C1252 C1258 1.368 . S
C1253 C1237 1.349 . S
C1253 H1245 0.950 . S
C1253 C1251 1.327 . S
C1254 C1242 1.349 . S
C1254 H1248 0.950 . S
C1254 C1255 1.327 . S
C1255 H1249 0.950 . S
C1255 C1254 1.327 . S
C1255 C1259 1.429 . S
C1256 C1239 1.574 . S
C1256 H1250 0.949 . S
C1256 C1260 1.368 . S
C1257 C1238 1.429 . S
C1257 C1251 1.429 . S
C1257 C1258 1.523 . S
C1258 C1239 1.368 . S
C1258 C1252 1.368 . S
C1258 C1257 1.523 . S
C1259 C1243 1.429 . S
C1259 C1255 1.429 . S
C1259 C1260 1.523 . S
C1260 C1244 1.368 . S
C1260 C1256 1.368 . S
C1260 C1259 1.523 . S
H1261 C1236 0.950 . S
H1262 C1238 0.950 . S
H1263 C1239 0.949 . S
H1264 C1241 0.950 . S
H1265 C1243 0.950 . S
C1266 C1267 1.349 . S
C1266 C1268 1.327 . S
C1266 H1291 0.950 . S
C1267 C1266 1.349 . S
C1267 C1283 1.349 . S
C1268 C1266 1.327 . S
C1268 C1287 1.429 . S
C1268 H1292 0.950 . S
C1269 C1286 1.574 . S
C1269 C1288 1.368 . S
C1269 H1293 0.949 . S
H1270 C1274 0.949 . S
C1271 C1272 1.349 . S
C1271 C1273 1.327 . S
C1271 H1294 0.950 1_554 S
C1272 C1271 1.349 . S
C1272 C1284 1.349 . S
C1273 C1271 1.327 . S
C1273 C1289 1.429 . S
C1273 H1295 0.950 . S
C1274 H1270 0.949 . S
C1274 C1282 1.574 . S
C1274 C1290 1.368 . S
H1275 C1283 0.950 . S
H1276 C1281 0.950 . S
H1277 C1282 0.949 . S
H1278 C1284 0.950 . S
H1279 C1285 0.950 . S
H1280 C1286 0.949 . S
C1281 H1276 0.950 . S
C1281 C1283 1.327 . S
C1281 C1287 1.429 . S
C1282 C1274 1.574 . S
C1282 H1277 0.949 . S
C1282 C1288 1.368 . S
C1283 C1267 1.349 . S
C1283 H1275 0.950 . S
C1283 C1281 1.327 . S
C1284 C1272 1.349 . S
C1284 H1278 0.950 . S
C1284 C1285 1.327 . S
C1285 H1279 0.950 . S
C1285 C1284 1.327 . S
C1285 C1289 1.429 . S
C1286 C1269 1.574 . S
C1286 H1280 0.949 . S
C1286 C1290 1.368 . S
C1287 C1268 1.429 . S
C1287 C1281 1.429 . S
C1287 C1288 1.523 . S
C1288 C1269 1.368 . S
C1288 C1282 1.368 . S
C1288 C1287 1.523 . S
C1289 C1273 1.429 . S
C1289 C1285 1.429 . S
C1289 C1290 1.523 . S
C1290 C1274 1.368 . S
C1290 C1286 1.368 . S
C1290 C1289 1.523 . S
H1291 C1266 0.950 . S
H1292 C1268 0.950 . S
H1293 C1269 0.949 . S
H1294 C1271 0.950 1_556 S
H1295 C1273 0.950 . S
C1296 C1297 1.349 . S
C1296 C1298 1.327 . S
C1296 H1321 0.950 . S
C1297 C1296 1.349 . S
C1297 C1313 1.349 . S
C1298 C1296 1.327 . S
C1298 C1317 1.429 . S
C1298 H1322 0.950 . S
C1299 C1316 1.574 . S
C1299 C1318 1.368 . S
C1299 H1323 0.949 . S
H1300 C1304 0.949 . S
C1301 C1302 1.349 . S
C1301 C1303 1.327 . S
C1301 H1324 0.950 . S
C1302 C1301 1.349 . S
C1302 C1314 1.349 . S
C1303 C1301 1.327 . S
C1303 C1319 1.429 . S
C1303 H1325 0.950 . S
C1304 H1300 0.949 . S
C1304 C1312 1.574 . S
C1304 C1320 1.368 . S
H1305 C1313 0.950 . S
H1306 C1311 0.950 . S
H1307 C1312 0.949 . S
H1308 C1314 0.950 . S
H1309 C1315 0.950 . S
H1310 C1316 0.949 . S
C1311 H1306 0.950 . S
C1311 C1313 1.327 . S
C1311 C1317 1.429 . S
C1312 C1304 1.574 . S
C1312 H1307 0.949 . S
C1312 C1318 1.368 . S
C1313 C1297 1.349 . S
C1313 H1305 0.950 . S
C1313 C1311 1.327 . S
C1314 C1302 1.349 . S
C1314 H1308 0.950 . S
C1314 C1315 1.327 . S
C1315 H1309 0.950 . S
C1315 C1314 1.327 . S
C1315 C1319 1.429 . S
C1316 C1299 1.574 . S
C1316 H1310 0.949 . S
C1316 C1320 1.368 . S
C1317 C1298 1.429 . S
C1317 C1311 1.429 . S
C1317 C1318 1.523 1_655 S
C1318 C1299 1.368 . S
C1318 C1312 1.368 . S
C1318 C1317 1.523 1_455 S
C1319 C1303 1.429 . S
C1319 C1315 1.429 . S
C1319 C1320 1.523 . S
C1320 C1304 1.368 . S
C1320 C1316 1.368 . S
C1320 C1319 1.523 . S
H1321 C1296 0.950 . S
H1322 C1298 0.950 . S
H1323 C1299 0.949 . S
H1324 C1301 0.950 . S
H1325 C1303 0.950 . S
C1326 C1327 1.349 . S
C1326 C1328 1.327 . S
C1326 H1351 0.950 . S
C1327 C1326 1.349 . S
C1327 C1343 1.349 . S
C1328 C1326 1.327 . S
C1328 C1347 1.429 . S
C1328 H1352 0.950 . S
C1329 C1346 1.574 . S
C1329 C1348 1.368 . S
C1329 H1353 0.949 . S
H1330 C1334 0.949 . S
C1331 C1332 1.349 . S
C1331 C1333 1.327 . S
C1331 H1354 0.950 . S
C1332 C1331 1.349 . S
C1332 C1344 1.349 . S
C1333 C1331 1.327 . S
C1333 C1349 1.429 . S
C1333 H1355 0.950 . S
C1334 H1330 0.949 . S
C1334 C1342 1.574 . S
C1334 C1350 1.368 . S
H1335 C1343 0.950 . S
H1336 C1341 0.950 . S
H1337 C1342 0.949 . S
H1338 C1344 0.950 . S
H1339 C1345 0.950 . S
H1340 C1346 0.949 . S
C1341 H1336 0.950 . S
C1341 C1343 1.327 . S
C1341 C1347 1.429 . S
C1342 C1334 1.574 . S
C1342 H1337 0.949 . S
C1342 C1348 1.368 . S
C1343 C1327 1.349 . S
C1343 H1335 0.950 . S
C1343 C1341 1.327 . S
C1344 C1332 1.349 . S
C1344 H1338 0.950 . S
C1344 C1345 1.327 . S
C1345 H1339 0.950 . S
C1345 C1344 1.327 . S
C1345 C1349 1.429 . S
C1346 C1329 1.574 . S
C1346 H1340 0.949 . S
C1346 C1350 1.368 . S
C1347 C1328 1.429 . S
C1347 C1341 1.429 . S
C1347 C1348 1.523 . S
C1348 C1329 1.368 . S
C1348 C1342 1.368 . S
C1348 C1347 1.523 . S
C1349 C1333 1.429 . S
C1349 C1345 1.429 . S
C1349 C1350 1.523 . S
C1350 C1334 1.368 . S
C1350 C1346 1.368 . S
C1350 C1349 1.523 . S
H1351 C1326 0.950 . S
H1352 C1328 0.950 . S
H1353 C1329 0.949 . S
H1354 C1331 0.950 . S
H1355 C1333 0.950 . S
C1356 C1357 1.349 . S
C1356 C1358 1.327 . S
C1356 H1381 0.950 . S
C1357 C1356 1.349 . S
C1357 C1373 1.349 . S
C1358 C1356 1.327 . S
C1358 C1377 1.429 . S
C1358 H1382 0.950 . S
C1359 C1376 1.574 1_545 S
C1359 C1378 1.368 . S
C1359 H1383 0.949 . S
H1360 C1364 0.949 . S
C1361 C1362 1.349 . S
C1361 C1363 1.327 . S
C1361 H1384 0.950 . S
C1362 C1361 1.349 . S
C1362 C1374 1.349 . S
C1363 C1361 1.327 . S
C1363 C1379 1.429 . S
C1363 H1385 0.950 . S
C1364 H1360 0.949 . S
C1364 C1372 1.574 . S
C1364 C1380 1.368 . S
H1365 C1373 0.950 . S
H1366 C1371 0.950 . S
H1367 C1372 0.949 1_545 S
H1368 C1374 0.950 . S
H1369 C1375 0.950 . S
H1370 C1376 0.949 . S
C1371 H1366 0.950 . S
C1371 C1373 1.327 . S
C1371 C1377 1.429 . S
C1372 C1364 1.574 . S
C1372 H1367 0.949 1_565 S
C1372 C1378 1.368 1_565 S
C1373 C1357 1.349 . S
C1373 H1365 0.950 . S
C1373 C1371 1.327 . S
C1374 C1362 1.349 . S
C1374 H1368 0.950 . S
C1374 C1375 1.327 . S
C1375 H1369 0.950 . S
C1375 C1374 1.327 . S
C1375 C1379 1.429 . S
C1376 C1359 1.574 1_565 S
C1376 H1370 0.949 . S
C1376 C1380 1.368 . S
C1377 C1358 1.429 . S
C1377 C1371 1.429 . S
C1377 C1378 1.523 . S
C1378 C1359 1.368 . S
C1378 C1372 1.368 1_545 S
C1378 C1377 1.523 . S
C1379 C1363 1.429 . S
C1379 C1375 1.429 . S
C1379 C1380 1.523 . S
C1380 C1364 1.368 . S
C1380 C1376 1.368 . S
C1380 C1379 1.523 . S
H1381 C1356 0.950 . S
H1382 C1358 0.950 . S
H1383 C1359 0.949 . S
H1384 C1361 0.950 . S
H1385 C1363 0.950 . S
C1386 C1387 1.349 . S
C1386 C1388 1.327 . S
C1386 H1411 0.950 . S
C1387 C1386 1.349 . S
C1387 C1403 1.349 . S
C1388 C1386 1.327 . S
C1388 C1407 1.429 . S
C1388 H1412 0.950 . S
C1389 C1406 1.574 . S
C1389 C1408 1.368 . S
C1389 H1413 0.949 . S
H1390 C1394 0.949 . S
C1391 C1392 1.349 . S
C1391 C1393 1.327 . S
C1391 H1414 0.950 . S
C1392 C1391 1.349 . S
C1392 C1404 1.349 . S
C1393 C1391 1.327 . S
C1393 C1409 1.429 . S
C1393 H1415 0.950 . S
C1394 H1390 0.949 . S
C1394 C1402 1.574 . S
C1394 C1410 1.368 . S
H1395 C1403 0.950 . S
H1396 C1401 0.950 . S
H1397 C1402 0.949 . S
H1398 C1404 0.950 . S
H1399 C1405 0.950 . S
H1400 C1406 0.949 . S
C1401 H1396 0.950 . S
C1401 C1403 1.327 . S
C1401 C1407 1.429 . S
C1402 C1394 1.574 . S
C1402 H1397 0.949 . S
C1402 C1408 1.368 . S
C1403 C1387 1.349 . S
C1403 H1395 0.950 . S
C1403 C1401 1.327 . S
C1404 C1392 1.349 . S
C1404 H1398 0.950 . S
C1404 C1405 1.327 . S
C1405 H1399 0.950 . S
C1405 C1404 1.327 . S
C1405 C1409 1.429 . S
C1406 C1389 1.574 . S
C1406 H1400 0.949 . S
C1406 C1410 1.368 . S
C1407 C1388 1.429 . S
C1407 C1401 1.429 . S
C1407 C1408 1.523 . S
C1408 C1389 1.368 . S
C1408 C1402 1.368 . S
C1408 C1407 1.523 . S
C1409 C1393 1.429 . S
C1409 C1405 1.429 . S
C1409 C1410 1.523 . S
C1410 C1394 1.368 . S
C1410 C1406 1.368 . S
C1410 C1409 1.523 . S
H1411 C1386 0.950 . S
H1412 C1388 0.950 . S
H1413 C1389 0.949 . S
H1414 C1391 0.950 . S
H1415 C1393 0.950 . S
C1416 C1417 1.349 . S
C1416 C1418 1.327 . S
C1416 H1441 0.950 . S
C1417 C1416 1.349 . S
C1417 C1433 1.349 . S
C1418 C1416 1.327 . S
C1418 C1437 1.429 . S
C1418 H1442 0.950 . S
C1419 C1436 1.574 . S
C1419 C1438 1.368 . S
C1419 H1443 0.949 . S
H1420 C1424 0.949 . S
C1421 C1422 1.349 . S
C1421 C1423 1.327 . S
C1421 H1444 0.950 . S
C1422 C1421 1.349 . S
C1422 C1434 1.349 . S
C1423 C1421 1.327 . S
C1423 C1439 1.429 . S
C1423 H1445 0.950 . S
C1424 H1420 0.949 . S
C1424 C1432 1.574 . S
C1424 C1440 1.368 . S
H1425 C1433 0.950 . S
H1426 C1431 0.950 . S
H1427 C1432 0.949 . S
H1428 C1434 0.950 . S
H1429 C1435 0.950 . S
H1430 C1436 0.949 . S
C1431 H1426 0.950 . S
C1431 C1433 1.327 . S
C1431 C1437 1.429 . S
C1432 C1424 1.574 . S
C1432 H1427 0.949 . S
C1432 C1438 1.368 . S
C1433 C1417 1.349 . S
C1433 H1425 0.950 . S
C1433 C1431 1.327 . S
C1434 C1422 1.349 . S
C1434 H1428 0.950 . S
C1434 C1435 1.327 . S
C1435 H1429 0.950 . S
C1435 C1434 1.327 . S
C1435 C1439 1.429 . S
C1436 C1419 1.574 . S
C1436 H1430 0.949 . S
C1436 C1440 1.368 . S
C1437 C1418 1.429 . S
C1437 C1431 1.429 . S
C1437 C1438 1.523 . S
C1438 C1419 1.368 . S
C1438 C1432 1.368 . S
C1438 C1437 1.523 . S
C1439 C1423 1.429 . S
C1439 C1435 1.429 . S
C1439 C1440 1.523 . S
C1440 C1424 1.368 . S
C1440 C1436 1.368 . S
C1440 C1439 1.523 . S
H1441 C1416 0.950 . S
H1442 C1418 0.950 . S
H1443 C1419 0.949 . S
H1444 C1421 0.950 . S
H1445 C1423 0.950 . S
C1446 C1447 1.349 . S
C1446 C1448 1.327 . S
C1446 H1471 0.950 . S
C1447 C1446 1.349 . S
C1447 C1463 1.349 . S
C1448 C1446 1.327 . S
C1448 C1467 1.429 . S
C1448 H1472 0.950 . S
C1449 C1466 1.574 . S
C1449 C1468 1.368 . S
C1449 H1473 0.949 . S
H1450 C1454 0.949 . S
C1451 C1452 1.349 . S
C1451 C1453 1.327 . S
C1451 H1474 0.950 . S
C1452 C1451 1.349 . S
C1452 C1464 1.349 . S
C1453 C1451 1.327 . S
C1453 C1469 1.429 . S
C1453 H1475 0.950 . S
C1454 H1450 0.949 . S
C1454 C1462 1.574 . S
C1454 C1470 1.368 . S
H1455 C1463 0.950 . S
H1456 C1461 0.950 . S
H1457 C1462 0.949 . S
H1458 C1464 0.950 . S
H1459 C1465 0.950 . S
H1460 C1466 0.949 . S
C1461 H1456 0.950 . S
C1461 C1463 1.327 . S
C1461 C1467 1.429 . S
C1462 C1454 1.574 . S
C1462 H1457 0.949 . S
C1462 C1468 1.368 . S
C1463 C1447 1.349 . S
C1463 H1455 0.950 . S
C1463 C1461 1.327 . S
C1464 C1452 1.349 . S
C1464 H1458 0.950 . S
C1464 C1465 1.327 . S
C1465 H1459 0.950 . S
C1465 C1464 1.327 . S
C1465 C1469 1.429 . S
C1466 C1449 1.574 . S
C1466 H1460 0.949 . S
C1466 C1470 1.368 . S
C1467 C1448 1.429 . S
C1467 C1461 1.429 . S
C1467 C1468 1.523 . S
C1468 C1449 1.368 . S
C1468 C1462 1.368 . S
C1468 C1467 1.523 . S
C1469 C1453 1.429 . S
C1469 C1465 1.429 . S
C1469 C1470 1.523 . S
C1470 C1454 1.368 . S
C1470 C1466 1.368 . S
C1470 C1469 1.523 . S
H1471 C1446 0.950 . S
H1472 C1448 0.950 . S
H1473 C1449 0.949 . S
H1474 C1451 0.950 . S
H1475 C1453 0.950 . S
C1476 C1477 1.349 . S
C1476 C1478 1.327 . S
C1476 H1501 0.950 . S
C1477 C1476 1.349 . S
C1477 C1493 1.349 . S
C1478 C1476 1.327 . S
C1478 C1497 1.429 . S
C1478 H1502 0.950 . S
C1479 C1496 1.574 . S
C1479 C1498 1.368 . S
C1479 H1503 0.949 . S
H1480 C1484 0.949 . S
C1481 C1482 1.349 . S
C1481 C1483 1.327 . S
C1481 H1504 0.950 . S
C1482 C1481 1.349 . S
C1482 C1494 1.349 . S
C1483 C1481 1.327 . S
C1483 C1499 1.429 . S
C1483 H1505 0.950 . S
C1484 H1480 0.949 . S
C1484 C1492 1.574 . S
C1484 C1500 1.368 . S
H1485 C1493 0.950 . S
H1486 C1491 0.950 . S
H1487 C1492 0.949 . S
H1488 C1494 0.950 . S
H1489 C1495 0.950 . S
H1490 C1496 0.949 . S
C1491 H1486 0.950 . S
C1491 C1493 1.327 . S
C1491 C1497 1.429 . S
C1492 C1484 1.574 . S
C1492 H1487 0.949 . S
C1492 C1498 1.368 . S
C1493 C1477 1.349 . S
C1493 H1485 0.950 . S
C1493 C1491 1.327 . S
C1494 C1482 1.349 . S
C1494 H1488 0.950 . S
C1494 C1495 1.327 . S
C1495 H1489 0.950 . S
C1495 C1494 1.327 . S
C1495 C1499 1.429 . S
C1496 C1479 1.574 . S
C1496 H1490 0.949 . S
C1496 C1500 1.368 . S
C1497 C1478 1.429 . S
C1497 C1491 1.429 . S
C1497 C1498 1.523 . S
C1498 C1479 1.368 . S
C1498 C1492 1.368 . S
C1498 C1497 1.523 . S
C1499 C1483 1.429 . S
C1499 C1495 1.429 . S
C1499 C1500 1.523 . S
C1500 C1484 1.368 . S
C1500 C1496 1.368 . S
C1500 C1499 1.523 . S
H1501 C1476 0.950 . S
H1502 C1478 0.950 . S
H1503 C1479 0.949 . S
H1504 C1481 0.950 . S
H1505 C1483 0.950 . S
C1506 C1507 1.349 . S
C1506 C1508 1.327 . S
C1506 H1531 0.950 . S
C1507 C1506 1.349 . S
C1507 C1523 1.349 . S
C1508 C1506 1.327 . S
C1508 C1527 1.429 . S
C1508 H1532 0.950 . S
C1509 C1526 1.574 . S
C1509 C1528 1.368 . S
C1509 H1533 0.949 . S
H1510 C1514 0.949 . S
C1511 C1512 1.349 . S
C1511 C1513 1.327 . S
C1511 H1534 0.950 . S
C1512 C1511 1.349 . S
C1512 C1524 1.349 . S
C1513 C1511 1.327 . S
C1513 C1529 1.429 . S
C1513 H1535 0.950 . S
C1514 H1510 0.949 . S
C1514 C1522 1.574 . S
C1514 C1530 1.368 . S
H1515 C1523 0.950 . S
H1516 C1521 0.950 . S
H1517 C1522 0.949 . S
H1518 C1524 0.950 . S
H1519 C1525 0.950 . S
H1520 C1526 0.949 . S
C1521 H1516 0.950 . S
C1521 C1523 1.327 . S
C1521 C1527 1.429 . S
C1522 C1514 1.574 . S
C1522 H1517 0.949 . S
C1522 C1528 1.368 . S
C1523 C1507 1.349 . S
C1523 H1515 0.950 . S
C1523 C1521 1.327 . S
C1524 C1512 1.349 . S
C1524 H1518 0.950 . S
C1524 C1525 1.327 . S
C1525 H1519 0.950 . S
C1525 C1524 1.327 . S
C1525 C1529 1.429 . S
C1526 C1509 1.574 . S
C1526 H1520 0.949 . S
C1526 C1530 1.368 . S
C1527 C1508 1.429 . S
C1527 C1521 1.429 . S
C1527 C1528 1.523 . S
C1528 C1509 1.368 . S
C1528 C1522 1.368 . S
C1528 C1527 1.523 . S
C1529 C1513 1.429 . S
C1529 C1525 1.429 . S
C1529 C1530 1.523 . S
C1530 C1514 1.368 . S
C1530 C1526 1.368 . S
C1530 C1529 1.523 . S
H1531 C1506 0.950 . S
H1532 C1508 0.950 . S
H1533 C1509 0.949 . S
H1534 C1511 0.950 . S
H1535 C1513 0.950 . S
C1536 C1537 1.349 . S
C1536 C1538 1.327 . S
C1536 H1561 0.950 . S
C1537 C1536 1.349 . S
C1537 C1553 1.349 . S
C1538 C1536 1.327 . S
C1538 C1557 1.429 . S
C1538 H1562 0.950 . S
C1539 C1556 1.574 . S
C1539 C1558 1.368 . S
C1539 H1563 0.949 . S
H1540 C1544 0.949 . S
C1541 C1542 1.349 . S
C1541 C1543 1.327 . S
C1541 H1564 0.950 . S
C1542 C1541 1.349 . S
C1542 C1554 1.349 . S
C1543 C1541 1.327 . S
C1543 C1559 1.429 . S
C1543 H1565 0.950 . S
C1544 H1540 0.949 . S
C1544 C1552 1.574 . S
C1544 C1560 1.368 . S
H1545 C1553 0.950 . S
H1546 C1551 0.950 . S
H1547 C1552 0.949 . S
H1548 C1554 0.950 . S
H1549 C1555 0.950 . S
H1550 C1556 0.949 . S
C1551 H1546 0.950 . S
C1551 C1553 1.327 . S
C1551 C1557 1.429 . S
C1552 C1544 1.574 . S
C1552 H1547 0.949 . S
C1552 C1558 1.368 . S
C1553 C1537 1.349 . S
C1553 H1545 0.950 . S
C1553 C1551 1.327 . S
C1554 C1542 1.349 . S
C1554 H1548 0.950 . S
C1554 C1555 1.327 . S
C1555 H1549 0.950 . S
C1555 C1554 1.327 . S
C1555 C1559 1.429 . S
C1556 C1539 1.574 . S
C1556 H1550 0.949 . S
C1556 C1560 1.368 . S
C1557 C1538 1.429 . S
C1557 C1551 1.429 . S
C1557 C1558 1.523 . S
C1558 C1539 1.368 . S
C1558 C1552 1.368 . S
C1558 C1557 1.523 . S
C1559 C1543 1.429 . S
C1559 C1555 1.429 . S
C1559 C1560 1.523 . S
C1560 C1544 1.368 . S
C1560 C1556 1.368 . S
C1560 C1559 1.523 . S
H1561 C1536 0.950 . S
H1562 C1538 0.950 . S
H1563 C1539 0.949 . S
H1564 C1541 0.950 . S
H1565 C1543 0.950 . S
C1566 C1567 1.349 . S
C1566 C1568 1.327 . S
C1566 H1591 0.950 . S
C1567 C1566 1.349 . S
C1567 C1583 1.349 . S
C1568 C1566 1.327 . S
C1568 C1587 1.429 . S
C1568 H1592 0.950 . S
C1569 C1586 1.574 . S
C1569 C1588 1.368 1_565 S
C1569 H1593 0.949 1_565 S
H1570 C1574 0.949 . S
C1571 C1572 1.349 . S
C1571 C1573 1.327 . S
C1571 H1594 0.950 . S
C1572 C1571 1.349 . S
C1572 C1584 1.349 . S
C1573 C1571 1.327 . S
C1573 C1589 1.429 . S
C1573 H1595 0.950 . S
C1574 H1570 0.949 . S
C1574 C1582 1.574 . S
C1574 C1590 1.368 . S
H1575 C1583 0.950 . S
H1576 C1581 0.950 . S
H1577 C1582 0.969 . S
H1578 C1584 0.950 . S
H1579 C1585 0.950 . S
H1580 C1586 0.949 . S
C1581 H1576 0.950 . S
C1581 C1583 1.327 . S
C1581 C1587 1.429 . S
C1582 C1574 1.574 . S
C1582 H1577 0.969 . S
C1582 C1588 1.368 1_565 S
C1583 C1567 1.349 . S
C1583 H1575 0.950 . S
C1583 C1581 1.327 . S
C1584 C1572 1.349 . S
C1584 H1578 0.950 . S
C1584 C1585 1.327 . S
C1585 H1579 0.950 . S
C1585 C1584 1.327 . S
C1585 C1589 1.429 . S
C1586 C1569 1.574 . S
C1586 H1580 0.949 . S
C1586 C1590 1.368 . S
C1587 C1568 1.429 . S
C1587 C1581 1.429 . S
C1587 C1588 1.523 . S
C1588 C1569 1.368 1_545 S
C1588 C1582 1.368 1_545 S
C1588 C1587 1.523 . S
C1589 C1573 1.429 . S
C1589 C1585 1.429 . S
C1589 C1590 1.523 . S
C1590 C1574 1.368 . S
C1590 C1586 1.368 . S
C1590 C1589 1.523 . S
H1591 C1566 0.950 . S
H1592 C1568 0.950 . S
H1593 C1569 0.949 1_545 S
H1594 C1571 0.950 . S
H1595 C1573 0.950 . S
C1596 C1597 1.349 . S
C1596 C1598 1.327 . S
C1596 H1621 0.950 . S
C1597 C1596 1.349 . S
C1597 C1613 1.349 . S
C1598 C1596 1.327 . S
C1598 C1617 1.429 . S
C1598 H1622 0.950 1_655 S
C1599 C1616 1.574 . S
C1599 C1618 1.368 . S
C1599 H1623 0.949 . S
H1600 C1604 0.949 . S
C1601 C1602 1.349 . S
C1601 C1603 1.327 . S
C1601 H1624 0.950 . S
C1602 C1601 1.349 . S
C1602 C1614 1.349 . S
C1603 C1601 1.327 . S
C1603 C1619 1.429 . S
C1603 H1625 0.950 . S
C1604 H1600 0.949 . S
C1604 C1612 1.574 . S
C1604 C1620 1.368 . S
H1605 C1613 0.950 . S
H1606 C1611 0.950 . S
H1607 C1612 0.949 . S
H1608 C1614 0.950 . S
H1609 C1615 0.950 . S
H1610 C1616 0.949 . S
C1611 H1606 0.950 . S
C1611 C1613 1.327 . S
C1611 C1617 1.429 . S
C1612 C1604 1.574 . S
C1612 H1607 0.949 . S
C1612 C1618 1.368 . S
C1613 C1597 1.349 . S
C1613 H1605 0.950 . S
C1613 C1611 1.327 . S
C1614 C1602 1.349 . S
C1614 H1608 0.950 . S
C1614 C1615 1.327 . S
C1615 H1609 0.950 . S
C1615 C1614 1.327 . S
C1615 C1619 1.429 . S
C1616 C1599 1.574 . S
C1616 H1610 0.949 . S
C1616 C1620 1.368 . S
C1617 C1598 1.429 . S
C1617 C1611 1.429 . S
C1617 C1618 1.523 1_655 S
C1618 C1599 1.368 . S
C1618 C1612 1.368 . S
C1618 C1617 1.523 1_455 S
C1619 C1603 1.429 . S
C1619 C1615 1.429 . S
C1619 C1620 1.523 . S
C1620 C1604 1.368 . S
C1620 C1616 1.368 . S
C1620 C1619 1.523 . S
H1621 C1596 0.950 . S
H1622 C1598 0.950 1_455 S
H1623 C1599 0.949 . S
H1624 C1601 0.950 . S
H1625 C1603 0.950 . S
C1626 C1627 1.349 . S
C1626 C1628 1.327 . S
C1626 H1651 0.950 . S
C1627 C1626 1.349 . S
C1627 C1643 1.349 . S
C1628 C1626 1.327 . S
C1628 C1647 1.429 . S
C1628 H1652 0.950 . S
C1629 C1646 1.574 . S
C1629 C1648 1.368 . S
C1629 H1653 0.949 . S
H1630 C1634 0.949 . S
C1631 C1632 1.349 . S
C1631 C1633 1.327 . S
C1631 H1654 0.950 . S
C1632 C1631 1.349 . S
C1632 C1644 1.349 . S
C1633 C1631 1.327 . S
C1633 C1649 1.429 . S
C1633 H1655 0.950 . S
C1634 H1630 0.949 . S
C1634 C1642 1.574 . S
C1634 C1650 1.368 . S
H1635 C1643 0.950 . S
H1636 C1641 0.950 . S
H1637 C1642 0.949 . S
H1638 C1644 0.950 . S
H1639 C1645 0.950 . S
H1640 C1646 0.949 . S
C1641 H1636 0.950 . S
C1641 C1643 1.327 . S
C1641 C1647 1.429 . S
C1642 C1634 1.574 . S
C1642 H1637 0.949 . S
C1642 C1648 1.368 . S
C1643 C1627 1.349 . S
C1643 H1635 0.950 . S
C1643 C1641 1.327 . S
C1644 C1632 1.349 . S
C1644 H1638 0.950 . S
C1644 C1645 1.327 . S
C1645 H1639 0.950 . S
C1645 C1644 1.327 . S
C1645 C1649 1.429 . S
C1646 C1629 1.574 . S
C1646 H1640 0.949 . S
C1646 C1650 1.368 . S
C1647 C1628 1.429 . S
C1647 C1641 1.429 . S
C1647 C1648 1.523 . S
C1648 C1629 1.368 . S
C1648 C1642 1.368 . S
C1648 C1647 1.523 . S
C1649 C1633 1.429 . S
C1649 C1645 1.429 . S
C1649 C1650 1.523 . S
C1650 C1634 1.368 . S
C1650 C1646 1.368 . S
C1650 C1649 1.523 . S
H1651 C1626 0.950 . S
H1652 C1628 0.950 . S
H1653 C1629 0.949 . S
H1654 C1631 0.950 . S
H1655 C1633 0.950 . S
C1656 C1657 1.349 . S
C1656 C1658 1.327 . S
C1656 H1681 0.950 . S
C1657 C1656 1.349 . S
C1657 C1673 1.349 . S
C1658 C1656 1.327 . S
C1658 C1677 1.429 . S
C1658 H1682 0.950 . S
C1659 C1676 1.574 . S
C1659 C1678 1.368 . S
C1659 H1683 0.949 . S
H1660 C1664 0.949 . S
C1661 C1662 1.349 . S
C1661 C1663 1.327 . S
C1661 H1684 0.950 . S
C1662 C1661 1.349 . S
C1662 C1674 1.349 . S
C1663 C1661 1.327 . S
C1663 C1679 1.429 . S
C1663 H1685 0.950 . S
C1664 H1660 0.949 . S
C1664 C1672 1.574 . S
C1664 C1680 1.368 . S
H1665 C1673 0.950 . S
H1666 C1671 0.950 . S
H1667 C1672 0.949 . S
H1668 C1674 0.950 . S
H1669 C1675 0.950 . S
H1670 C1676 0.949 . S
C1671 H1666 0.950 . S
C1671 C1673 1.327 . S
C1671 C1677 1.429 . S
C1672 C1664 1.574 . S
C1672 H1667 0.949 . S
C1672 C1678 1.368 . S
C1673 C1657 1.349 . S
C1673 H1665 0.950 . S
C1673 C1671 1.327 . S
C1674 C1662 1.349 . S
C1674 H1668 0.950 . S
C1674 C1675 1.327 . S
C1675 H1669 0.950 . S
C1675 C1674 1.327 . S
C1675 C1679 1.429 . S
C1676 C1659 1.574 . S
C1676 H1670 0.949 . S
C1676 C1680 1.368 . S
C1677 C1658 1.429 . S
C1677 C1671 1.429 . S
C1677 C1678 1.523 . S
C1678 C1659 1.368 . S
C1678 C1672 1.368 . S
C1678 C1677 1.523 . S
C1679 C1663 1.429 . S
C1679 C1675 1.429 . S
C1679 C1680 1.523 . S
C1680 C1664 1.368 . S
C1680 C1676 1.368 . S
C1680 C1679 1.523 . S
H1681 C1656 0.950 . S
H1682 C1658 0.950 . S
H1683 C1659 0.949 . S
H1684 C1661 0.950 . S
H1685 C1663 0.950 . S
C1686 C1687 1.349 . S
C1686 C1688 1.327 . S
C1686 H1711 0.950 . S
C1687 C1686 1.349 . S
C1687 C1703 1.349 . S
C1688 C1686 1.327 . S
C1688 C1707 1.429 . S
C1688 H1712 0.950 . S
C1689 C1706 1.574 . S
C1689 C1708 1.368 . S
C1689 H1713 0.949 . S
H1690 C1694 0.949 . S
C1691 C1692 1.349 . S
C1691 C1693 1.327 . S
C1691 H1714 0.950 . S
C1692 C1691 1.349 . S
C1692 C1704 1.349 . S
C1693 C1691 1.327 . S
C1693 C1709 1.429 . S
C1693 H1715 0.950 . S
C1694 H1690 0.949 . S
C1694 C1702 1.574 . S
C1694 C1710 1.368 . S
H1695 C1703 0.950 . S
H1696 C1701 0.950 . S
H1697 C1702 0.949 . S
H1698 C1704 0.950 . S
H1699 C1705 0.950 . S
H1700 C1706 0.949 . S
C1701 H1696 0.950 . S
C1701 C1703 1.327 . S
C1701 C1707 1.429 . S
C1702 C1694 1.574 . S
C1702 H1697 0.949 . S
C1702 C1708 1.368 . S
C1703 C1687 1.349 . S
C1703 H1695 0.950 . S
C1703 C1701 1.327 . S
C1704 C1692 1.349 . S
C1704 H1698 0.950 . S
C1704 C1705 1.327 . S
C1705 H1699 0.950 . S
C1705 C1704 1.327 . S
C1705 C1709 1.429 . S
C1706 C1689 1.574 . S
C1706 H1700 0.949 . S
C1706 C1710 1.368 . S
C1707 C1688 1.429 . S
C1707 C1701 1.429 . S
C1707 C1708 1.523 . S
C1708 C1689 1.368 . S
C1708 C1702 1.368 . S
C1708 C1707 1.523 . S
C1709 C1693 1.429 . S
C1709 C1705 1.429 . S
C1709 C1710 1.523 . S
C1710 C1694 1.368 . S
C1710 C1706 1.368 . S
C1710 C1709 1.523 . S
H1711 C1686 0.950 . S
H1712 C1688 0.950 . S
H1713 C1689 0.949 . S
H1714 C1691 0.950 . S
H1715 C1693 0.950 . S
C1716 C1717 1.349 . S
C1716 C1718 1.327 . S
C1716 H1741 0.950 . S
C1717 C1716 1.349 . S
C1717 C1733 1.349 . S
C1718 C1716 1.327 . S
C1718 C1737 1.429 . S
C1718 H1742 0.950 . S
C1719 C1736 1.574 . S
C1719 C1738 1.368 . S
C1719 H1743 0.949 . S
H1720 C1724 0.949 . S
C1721 C1722 1.349 . S
C1721 C1723 1.327 . S
C1721 H1744 0.950 . S
C1722 C1721 1.349 . S
C1722 C1734 1.349 . S
C1723 C1721 1.327 . S
C1723 C1739 1.429 . S
C1723 H1745 0.950 . S
C1724 H1720 0.949 . S
C1724 C1732 1.574 . S
C1724 C1740 1.368 . S
H1725 C1733 0.950 . S
H1726 C1731 0.950 . S
H1727 C1732 0.949 . S
H1728 C1734 0.950 . S
H1729 C1735 0.950 . S
H1730 C1736 0.949 . S
C1731 H1726 0.950 . S
C1731 C1733 1.327 . S
C1731 C1737 1.429 . S
C1732 C1724 1.574 . S
C1732 H1727 0.949 . S
C1732 C1738 1.368 . S
C1733 C1717 1.349 . S
C1733 H1725 0.950 . S
C1733 C1731 1.327 . S
C1734 C1722 1.349 . S
C1734 H1728 0.950 . S
C1734 C1735 1.327 . S
C1735 H1729 0.950 . S
C1735 C1734 1.327 . S
C1735 C1739 1.429 . S
C1736 C1719 1.574 . S
C1736 H1730 0.949 . S
C1736 C1740 1.368 . S
C1737 C1718 1.429 . S
C1737 C1731 1.429 . S
C1737 C1738 1.523 . S
C1738 C1719 1.368 . S
C1738 C1732 1.368 . S
C1738 C1737 1.523 . S
C1739 C1723 1.429 . S
C1739 C1735 1.429 . S
C1739 C1740 1.523 . S
C1740 C1724 1.368 . S
C1740 C1736 1.368 . S
C1740 C1739 1.523 . S
H1741 C1716 0.950 . S
H1742 C1718 0.950 . S
H1743 C1719 0.949 . S
H1744 C1721 0.950 . S
H1745 C1723 0.950 . S
C1746 C1747 1.349 . S
C1746 C1748 1.327 . S
C1746 H1771 0.950 . S
C1747 C1746 1.349 . S
C1747 C1763 1.349 . S
C1748 C1746 1.327 . S
C1748 C1767 1.429 . S
C1748 H1772 0.950 . S
C1749 C1766 1.574 . S
C1749 C1768 1.368 1_545 S
C1749 H1773 0.949 . S
H1750 C1754 0.949 . S
C1751 C1752 1.349 . S
C1751 C1753 1.327 . S
C1751 H1774 0.950 . S
C1752 C1751 1.349 . S
C1752 C1764 1.349 . S
C1753 C1751 1.327 . S
C1753 C1769 1.429 . S
C1753 H1775 0.950 . S
C1754 H1750 0.949 . S
C1754 C1762 1.574 . S
C1754 C1770 1.368 . S
H1755 C1763 0.950 . S
H1756 C1761 0.950 . S
H1757 C1762 0.949 1_565 S
H1758 C1764 0.950 . S
H1759 C1765 0.950 . S
H1760 C1766 0.949 . S
C1761 H1756 0.950 . S
C1761 C1763 1.327 . S
C1761 C1767 1.429 . S
C1762 C1754 1.574 . S
C1762 H1757 0.949 1_545 S
C1762 C1768 1.368 1_545 S
C1763 C1747 1.349 . S
C1763 H1755 0.950 . S
C1763 C1761 1.327 . S
C1764 C1752 1.349 . S
C1764 H1758 0.950 . S
C1764 C1765 1.327 . S
C1765 H1759 0.950 . S
C1765 C1764 1.327 . S
C1765 C1769 1.429 . S
C1766 C1749 1.574 . S
C1766 H1760 0.949 . S
C1766 C1770 1.368 . S
C1767 C1748 1.429 . S
C1767 C1761 1.429 . S
C1767 C1768 1.523 . S
C1768 C1749 1.368 1_565 S
C1768 C1762 1.368 1_565 S
C1768 C1767 1.523 . S
C1769 C1753 1.429 . S
C1769 C1765 1.429 . S
C1769 C1770 1.523 . S
C1770 C1754 1.368 . S
C1770 C1766 1.368 . S
C1770 C1769 1.523 . S
H1771 C1746 0.950 . S
H1772 C1748 0.950 . S
H1773 C1749 0.949 . S
H1774 C1751 0.950 . S
H1775 C1753 0.950 . S
C1776 C1777 1.349 . S
C1776 C1778 1.327 . S
C1776 H1801 0.950 . S
C1777 C1776 1.349 . S
C1777 C1793 1.349 . S
C1778 C1776 1.327 . S
C1778 C1797 1.429 . S
C1778 H1802 0.950 . S
C1779 C1796 1.574 . S
C1779 C1798 1.368 . S
C1779 H1803 0.949 . S
H1780 C1784 0.949 . S
C1781 C1782 1.349 . S
C1781 C1783 1.327 . S
C1781 H1804 0.950 . S
C1782 C1781 1.349 . S
C1782 C1794 1.349 . S
C1783 C1781 1.327 . S
C1783 C1799 1.429 . S
C1783 H1805 0.950 . S
C1784 H1780 0.949 . S
C1784 C1792 1.574 . S
C1784 C1800 1.368 . S
H1785 C1793 0.950 . S
H1786 C1791 0.950 . S
H1787 C1792 0.949 . S
H1788 C1794 0.950 . S
H1789 C1795 0.950 . S
H1790 C1796 0.949 . S
C1791 H1786 0.950 . S
C1791 C1793 1.327 . S
C1791 C1797 1.429 . S
C1792 C1784 1.574 . S
C1792 H1787 0.949 . S
C1792 C1798 1.368 . S
C1793 C1777 1.349 . S
C1793 H1785 0.950 . S
C1793 C1791 1.327 . S
C1794 C1782 1.349 . S
C1794 H1788 0.950 . S
C1794 C1795 1.327 . S
C1795 H1789 0.950 . S
C1795 C1794 1.327 . S
C1795 C1799 1.429 . S
C1796 C1779 1.574 . S
C1796 H1790 0.949 . S
C1796 C1800 1.368 . S
C1797 C1778 1.429 . S
C1797 C1791 1.429 . S
C1797 C1798 1.523 1_455 S
C1798 C1779 1.368 . S
C1798 C1792 1.368 . S
C1798 C1797 1.523 1_655 S
C1799 C1783 1.429 . S
C1799 C1795 1.429 . S
C1799 C1800 1.523 . S
C1800 C1784 1.368 . S
C1800 C1796 1.368 . S
C1800 C1799 1.523 . S
H1801 C1776 0.950 . S
H1802 C1778 0.950 . S
H1803 C1779 0.949 . S
H1804 C1781 0.950 . S
H1805 C1783 0.950 . S
C1806 C1807 1.349 . S
C1806 C1808 1.327 . S
C1806 H1831 0.950 . S
C1807 C1806 1.349 . S
C1807 C1823 1.349 . S
C1808 C1806 1.327 . S
C1808 C1827 1.429 . S
C1808 H1832 0.950 . S
C1809 C1826 1.574 . S
C1809 C1828 1.368 . S
C1809 H1833 0.949 . S
H1810 C1814 0.949 . S
C1811 C1812 1.349 . S
C1811 C1813 1.327 . S
C1811 H1834 0.950 . S
C1812 C1811 1.349 . S
C1812 C1824 1.349 . S
C1813 C1811 1.327 . S
C1813 C1829 1.429 . S
C1813 H1835 0.950 . S
C1814 H1810 0.949 . S
C1814 C1822 1.574 . S
C1814 C1830 1.368 . S
H1815 C1823 0.950 . S
H1816 C1821 0.950 . S
H1817 C1822 0.949 . S
H1818 C1824 0.950 . S
H1819 C1825 0.950 . S
H1820 C1826 0.949 . S
C1821 H1816 0.950 . S
C1821 C1823 1.327 . S
C1821 C1827 1.429 . S
C1822 C1814 1.574 . S
C1822 H1817 0.949 . S
C1822 C1828 1.368 . S
C1823 C1807 1.349 . S
C1823 H1815 0.950 . S
C1823 C1821 1.327 . S
C1824 C1812 1.349 . S
C1824 H1818 0.950 . S
C1824 C1825 1.327 . S
C1825 H1819 0.950 . S
C1825 C1824 1.327 . S
C1825 C1829 1.429 . S
C1826 C1809 1.574 . S
C1826 H1820 0.949 . S
C1826 C1830 1.368 . S
C1827 C1808 1.429 . S
C1827 C1821 1.429 . S
C1827 C1828 1.523 . S
C1828 C1809 1.368 . S
C1828 C1822 1.368 . S
C1828 C1827 1.523 . S
C1829 C1813 1.429 . S
C1829 C1825 1.429 . S
C1829 C1830 1.523 . S
C1830 C1814 1.368 . S
C1830 C1826 1.368 . S
C1830 C1829 1.523 . S
H1831 C1806 0.950 . S
H1832 C1808 0.950 . S
H1833 C1809 0.949 . S
H1834 C1811 0.950 . S
H1835 C1813 0.950 . S
C1836 C1837 1.349 . S
C1836 C1838 1.327 . S
C1836 H1861 0.950 . S
C1837 C1836 1.349 . S
C1837 C1853 1.349 . S
C1838 C1836 1.327 . S
C1838 C1857 1.429 . S
C1838 H1862 0.950 . S
C1839 C1856 1.574 . S
C1839 C1858 1.368 . S
C1839 H1863 0.949 . S
H1840 C1844 0.949 . S
C1841 C1842 1.349 . S
C1841 C1843 1.327 . S
C1841 H1864 0.950 . S
C1842 C1841 1.349 . S
C1842 C1854 1.349 . S
C1843 C1841 1.327 . S
C1843 C1859 1.429 . S
C1843 H1865 0.950 . S
C1844 H1840 0.949 . S
C1844 C1852 1.574 . S
C1844 C1860 1.368 . S
H1845 C1853 0.950 . S
H1846 C1851 0.950 . S
H1847 C1852 0.949 . S
H1848 C1854 0.950 . S
H1849 C1855 0.950 . S
H1850 C1856 0.949 . S
C1851 H1846 0.950 . S
C1851 C1853 1.327 . S
C1851 C1857 1.429 . S
C1852 C1844 1.574 . S
C1852 H1847 0.949 . S
C1852 C1858 1.368 . S
C1853 C1837 1.349 . S
C1853 H1845 0.950 . S
C1853 C1851 1.327 . S
C1854 C1842 1.349 . S
C1854 H1848 0.950 . S
C1854 C1855 1.327 . S
C1855 H1849 0.950 . S
C1855 C1854 1.327 . S
C1855 C1859 1.429 . S
C1856 C1839 1.574 . S
C1856 H1850 0.949 . S
C1856 C1860 1.368 . S
C1857 C1838 1.429 . S
C1857 C1851 1.429 . S
C1857 C1858 1.523 1_455 S
C1858 C1839 1.368 . S
C1858 C1852 1.368 . S
C1858 C1857 1.523 1_655 S
C1859 C1843 1.429 . S
C1859 C1855 1.429 . S
C1859 C1860 1.523 . S
C1860 C1844 1.368 . S
C1860 C1856 1.368 . S
C1860 C1859 1.523 . S
H1861 C1836 0.950 . S
H1862 C1838 0.950 . S
H1863 C1839 0.949 . S
H1864 C1841 0.950 . S
H1865 C1843 0.950 . S
C1866 C1867 1.349 . S
C1866 C1868 1.327 . S
C1866 H1891 0.950 . S
C1867 C1866 1.349 . S
C1867 C1883 1.349 . S
C1868 C1866 1.327 . S
C1868 C1887 1.429 . S
C1868 H1892 0.950 . S
C1869 C1886 1.574 . S
C1869 C1888 1.368 . S
C1869 H1893 0.949 . S
H1870 C1874 0.949 . S
C1871 C1872 1.349 . S
C1871 C1873 1.327 . S
C1871 H1894 0.950 . S
C1872 C1871 1.349 . S
C1872 C1884 1.349 . S
C1873 C1871 1.327 . S
C1873 C1889 1.429 . S
C1873 H1895 0.950 . S
C1874 H1870 0.949 . S
C1874 C1882 1.574 . S
C1874 C1890 1.368 . S
H1875 C1883 0.950 . S
H1876 C1881 0.950 . S
H1877 C1882 0.949 . S
H1878 C1884 0.950 . S
H1879 C1885 0.950 . S
H1880 C1886 0.949 . S
C1881 H1876 0.950 . S
C1881 C1883 1.327 . S
C1881 C1887 1.429 . S
C1882 C1874 1.574 . S
C1882 H1877 0.949 . S
C1882 C1888 1.368 . S
C1883 C1867 1.349 . S
C1883 H1875 0.950 . S
C1883 C1881 1.327 . S
C1884 C1872 1.349 . S
C1884 H1878 0.950 . S
C1884 C1885 1.327 . S
C1885 H1879 0.950 . S
C1885 C1884 1.327 . S
C1885 C1889 1.429 . S
C1886 C1869 1.574 . S
C1886 H1880 0.949 . S
C1886 C1890 1.368 . S
C1887 C1868 1.429 . S
C1887 C1881 1.429 . S
C1887 C1888 1.523 . S
C1888 C1869 1.368 . S
C1888 C1882 1.368 . S
C1888 C1887 1.523 . S
C1889 C1873 1.429 . S
C1889 C1885 1.429 . S
C1889 C1890 1.523 . S
C1890 C1874 1.368 . S
C1890 C1886 1.368 . S
C1890 C1889 1.523 . S
H1891 C1866 0.950 . S
H1892 C1868 0.950 . S
H1893 C1869 0.949 . S
H1894 C1871 0.950 . S
H1895 C1873 0.950 . S
C1896 C1897 1.349 . S
C1896 C1898 1.327 . S
C1896 H1921 0.950 . S
C1897 C1896 1.349 . S
C1897 C1913 1.349 . S
C1898 C1896 1.327 . S
C1898 C1917 1.429 . S
C1898 H1922 0.950 . S
C1899 C1916 1.574 . S
C1899 C1918 1.368 1_545 S
C1899 H1923 0.949 1_545 S
H1900 C1904 0.949 . S
C1901 C1902 1.349 . S
C1901 C1903 1.327 . S
C1901 H1924 0.950 . S
C1902 C1901 1.349 . S
C1902 C1914 1.349 . S
C1903 C1901 1.327 . S
C1903 C1919 1.429 . S
C1903 H1925 0.950 . S
C1904 H1900 0.949 . S
C1904 C1912 1.574 . S
C1904 C1920 1.368 . S
H1905 C1913 0.950 . S
H1906 C1911 0.950 . S
H1907 C1912 0.949 1_565 S
H1908 C1914 0.950 . S
H1909 C1915 0.950 . S
H1910 C1916 0.949 . S
C1911 H1906 0.950 . S
C1911 C1913 1.327 . S
C1911 C1917 1.429 . S
C1912 C1904 1.574 . S
C1912 H1907 0.949 1_545 S
C1912 C1918 1.368 1_545 S
C1913 C1897 1.349 . S
C1913 H1905 0.950 . S
C1913 C1911 1.327 . S
C1914 C1902 1.349 . S
C1914 H1908 0.950 . S
C1914 C1915 1.327 . S
C1915 H1909 0.950 . S
C1915 C1914 1.327 . S
C1915 C1919 1.429 . S
C1916 C1899 1.574 . S
C1916 H1910 0.949 . S
C1916 C1920 1.368 . S
C1917 C1898 1.429 . S
C1917 C1911 1.429 . S
C1917 C1918 1.523 . S
C1918 C1899 1.368 1_565 S
C1918 C1912 1.368 1_565 S
C1918 C1917 1.523 . S
C1919 C1903 1.429 . S
C1919 C1915 1.429 . S
C1919 C1920 1.523 . S
C1920 C1904 1.368 . S
C1920 C1916 1.368 . S
C1920 C1919 1.523 . S
H1921 C1896 0.950 . S
H1922 C1898 0.950 . S
H1923 C1899 0.949 1_565 S
H1924 C1901 0.950 . S
H1925 C1903 0.950 . S
C1926 C1927 1.349 . S
C1926 C1928 1.327 . S
C1926 H1951 0.950 . S
C1927 C1926 1.349 . S
C1927 C1943 1.349 . S
C1928 C1926 1.327 . S
C1928 C1947 1.429 . S
C1928 H1952 0.950 . S
C1929 C1946 1.574 . S
C1929 C1948 1.368 . S
C1929 H1953 0.949 . S
H1930 C1934 0.949 . S
C1931 C1932 1.349 . S
C1931 C1933 1.327 . S
C1931 H1954 0.950 . S
C1932 C1931 1.349 . S
C1932 C1944 1.349 . S
C1933 C1931 1.327 . S
C1933 C1949 1.429 . S
C1933 H1955 0.950 . S
C1934 H1930 0.949 . S
C1934 C1942 1.574 . S
C1934 C1950 1.368 . S
H1935 C1943 0.950 . S
H1936 C1941 0.950 . S
H1937 C1942 0.949 . S
H1938 C1944 0.950 . S
H1939 C1945 0.950 . S
H1940 C1946 0.949 . S
C1941 H1936 0.950 . S
C1941 C1943 1.327 . S
C1941 C1947 1.429 . S
C1942 C1934 1.574 . S
C1942 H1937 0.949 . S
C1942 C1948 1.368 . S
C1943 C1927 1.349 . S
C1943 H1935 0.950 . S
C1943 C1941 1.327 . S
C1944 C1932 1.349 . S
C1944 H1938 0.950 . S
C1944 C1945 1.327 . S
C1945 H1939 0.950 . S
C1945 C1944 1.327 . S
C1945 C1949 1.429 . S
C1946 C1929 1.574 . S
C1946 H1940 0.949 . S
C1946 C1950 1.368 . S
C1947 C1928 1.429 . S
C1947 C1941 1.429 . S
C1947 C1948 1.523 . S
C1948 C1929 1.368 . S
C1948 C1942 1.368 . S
C1948 C1947 1.523 . S
C1949 C1933 1.429 . S
C1949 C1945 1.429 . S
C1949 C1950 1.523 . S
C1950 C1934 1.368 . S
C1950 C1946 1.368 . S
C1950 C1949 1.523 . S
H1951 C1926 0.950 . S
H1952 C1928 0.950 . S
H1953 C1929 0.949 . S
H1954 C1931 0.950 . S
H1955 C1933 0.950 . S
C1956 C1957 1.349 . S
C1956 C1958 1.327 . S
C1956 H1981 0.950 . S
C1957 C1956 1.349 . S
C1957 C1973 1.349 . S
C1958 C1956 1.327 . S
C1958 C1977 1.429 . S
C1958 H1982 0.950 . S
C1959 C1976 1.574 . S
C1959 C1978 1.368 . S
C1959 H1983 0.949 . S
H1960 C1964 0.949 . S
C1961 C1962 1.349 . S
C1961 C1963 1.327 . S
C1961 H1984 0.950 . S
C1962 C1961 1.349 . S
C1962 C1974 1.349 . S
C1963 C1961 1.327 . S
C1963 C1979 1.429 . S
C1963 H1985 0.950 . S
C1964 H1960 0.949 . S
C1964 C1972 1.574 . S
C1964 C1980 1.368 . S
H1965 C1973 0.950 . S
H1966 C1971 0.950 . S
H1967 C1972 0.949 . S
H1968 C1974 0.950 . S
H1969 C1975 0.950 . S
H1970 C1976 0.949 . S
C1971 H1966 0.950 . S
C1971 C1973 1.327 . S
C1971 C1977 1.429 . S
C1972 C1964 1.574 . S
C1972 H1967 0.949 . S
C1972 C1978 1.368 . S
C1973 C1957 1.349 . S
C1973 H1965 0.950 . S
C1973 C1971 1.327 . S
C1974 C1962 1.349 . S
C1974 H1968 0.950 . S
C1974 C1975 1.327 . S
C1975 H1969 0.950 . S
C1975 C1974 1.327 . S
C1975 C1979 1.429 . S
C1976 C1959 1.574 . S
C1976 H1970 0.949 . S
C1976 C1980 1.368 . S
C1977 C1958 1.429 . S
C1977 C1971 1.429 . S
C1977 C1978 1.523 . S
C1978 C1959 1.368 . S
C1978 C1972 1.368 . S
C1978 C1977 1.523 . S
C1979 C1963 1.429 . S
C1979 C1975 1.429 . S
C1979 C1980 1.523 . S
C1980 C1964 1.368 . S
C1980 C1976 1.368 . S
C1980 C1979 1.523 . S
H1981 C1956 0.950 . S
H1982 C1958 0.950 . S
H1983 C1959 0.949 . S
H1984 C1961 0.950 . S
H1985 C1963 0.950 . S
C1986 C1987 1.349 . S
C1986 C1988 1.327 . S
C1986 H2011 0.950 . S
C1987 C1986 1.349 . S
C1987 C2003 1.349 . S
C1988 C1986 1.327 . S
C1988 C2007 1.429 . S
C1988 H2012 0.950 . S
C1989 C2006 1.574 . S
C1989 C2008 1.368 . S
C1989 H2013 0.949 . S
H1990 C1994 0.949 . S
C1991 C1992 1.349 . S
C1991 C1993 1.327 . S
C1991 H2014 0.950 . S
C1992 C1991 1.349 . S
C1992 C2004 1.349 . S
C1993 C1991 1.327 . S
C1993 C2009 1.429 . S
C1993 H2015 0.950 . S
C1994 H1990 0.949 . S
C1994 C2002 1.574 . S
C1994 C2010 1.368 . S
H1995 C2003 0.950 . S
H1996 C2001 0.950 . S
H1997 C2002 0.949 . S
H1998 C2004 0.950 . S
H1999 C2005 0.950 . S
H2000 C2006 0.949 . S
C2001 H1996 0.950 . S
C2001 C2003 1.327 . S
C2001 C2007 1.429 . S
C2002 C1994 1.574 . S
C2002 H1997 0.949 . S
C2002 C2008 1.368 . S
C2003 C1987 1.349 . S
C2003 H1995 0.950 . S
C2003 C2001 1.327 . S
C2004 C1992 1.349 . S
C2004 H1998 0.950 . S
C2004 C2005 1.327 . S
C2005 H1999 0.950 . S
C2005 C2004 1.327 . S
C2005 C2009 1.429 . S
C2006 C1989 1.574 . S
C2006 H2000 0.949 . S
C2006 C2010 1.368 . S
C2007 C1988 1.429 . S
C2007 C2001 1.429 . S
C2007 C2008 1.523 . S
C2008 C1989 1.368 . S
C2008 C2002 1.368 . S
C2008 C2007 1.523 . S
C2009 C1993 1.429 . S
C2009 C2005 1.429 . S
C2009 C2010 1.523 . S
C2010 C1994 1.368 . S
C2010 C2006 1.368 . S
C2010 C2009 1.523 . S
H2011 C1986 0.950 . S
H2012 C1988 0.950 . S
H2013 C1989 0.949 . S
H2014 C1991 0.950 . S
H2015 C1993 0.950 . S
C2016 C2017 1.349 . S
C2016 C2018 1.327 . S
C2016 H2041 0.950 . S
C2017 C2016 1.349 . S
C2017 C2033 1.349 . S
C2018 C2016 1.327 . S
C2018 C2037 1.429 . S
C2018 H2042 0.950 . S
C2019 C2036 1.574 . S
C2019 C2038 1.368 . S
C2019 H2043 0.949 . S
H2020 C2024 0.949 . S
C2021 C2022 1.349 1_545 S
C2021 C2023 1.327 1_545 S
C2021 H2044 0.950 . S
C2022 C2021 1.349 1_565 S
C2022 C2034 1.349 . S
C2023 C2021 1.327 1_565 S
C2023 C2039 1.429 . S
C2023 H2045 0.950 1_565 S
C2024 H2020 0.949 . S
C2024 C2032 1.574 . S
C2024 C2040 1.368 . S
H2025 C2033 0.950 . S
H2026 C2031 0.950 . S
H2027 C2032 0.949 . S
H2028 C2034 0.950 . S
H2029 C2035 0.950 . S
H2030 C2036 0.962 . S
C2031 H2026 0.950 . S
C2031 C2033 1.327 . S
C2031 C2037 1.429 . S
C2032 C2024 1.574 . S
C2032 H2027 0.949 . S
C2032 C2038 1.368 . S
C2033 C2017 1.349 . S
C2033 H2025 0.950 . S
C2033 C2031 1.327 . S
C2034 C2022 1.349 . S
C2034 H2028 0.950 . S
C2034 C2035 1.327 . S
C2035 H2029 0.950 . S
C2035 C2034 1.327 . S
C2035 C2039 1.429 . S
C2036 C2019 1.574 . S
C2036 H2030 0.962 . S
C2036 C2040 1.368 . S
C2037 C2018 1.429 . S
C2037 C2031 1.429 . S
C2037 C2038 1.523 . S
C2038 C2019 1.368 . S
C2038 C2032 1.368 . S
C2038 C2037 1.523 . S
C2039 C2023 1.429 . S
C2039 C2035 1.429 . S
C2039 C2040 1.523 . S
C2040 C2024 1.368 . S
C2040 C2036 1.368 . S
C2040 C2039 1.523 . S
H2041 C2016 0.950 . S
H2042 C2018 0.950 . S
H2043 C2019 0.949 . S
H2044 C2021 0.950 . S
H2045 C2023 0.950 1_545 S
C2046 C2047 1.349 . S
C2046 C2048 1.327 . S
C2046 H2071 0.950 . S
C2047 C2046 1.349 . S
C2047 C2063 1.349 . S
C2048 C2046 1.327 . S
C2048 C2067 1.429 . S
C2048 H2072 0.950 . S
C2049 C2066 1.575 1_455 S
C2049 C2068 1.367 . S
C2049 H2073 0.951 1_455 S
H2050 C2054 0.949 . S
C2051 C2052 1.335 1_655 S
C2051 C2053 1.327 . S
C2051 H2074 0.963 . S
C2052 C2051 1.335 1_455 S
C2052 C2064 1.349 . S
C2053 C2051 1.327 . S
C2053 C2069 1.416 1_655 S
C2053 H2075 0.964 . S
C2054 H2050 0.949 . S
C2054 C2062 1.574 . S
C2054 C2070 1.368 . S
H2055 C2063 0.950 1_655 S
H2056 C2061 0.950 1_655 S
H2057 C2062 0.949 . S
H2058 C2064 0.950 . S
H2059 C2065 0.950 . S
H2060 C2066 0.961 . S
C2061 H2056 0.950 1_455 S
C2061 C2063 1.327 . S
C2061 C2067 1.429 . S
C2062 C2054 1.574 . S
C2062 H2057 0.949 . S
C2062 C2068 1.368 . S
C2063 C2047 1.349 . S
C2063 H2055 0.950 1_455 S
C2063 C2061 1.327 . S
C2064 C2052 1.349 . S
C2064 H2058 0.950 . S
C2064 C2065 1.327 . S
C2065 H2059 0.950 . S
C2065 C2064 1.327 . S
C2065 C2069 1.429 . S
C2066 C2049 1.575 1_655 S
C2066 H2060 0.961 . S
C2066 C2070 1.354 1_655 S
C2067 C2048 1.429 . S
C2067 C2061 1.429 . S
C2067 C2068 1.523 . S
C2068 C2049 1.367 . S
C2068 C2062 1.368 . S
C2068 C2067 1.523 . S
C2069 C2053 1.416 1_455 S
C2069 C2065 1.429 . S
C2069 C2070 1.523 . S
C2070 C2054 1.368 . S
C2070 C2066 1.354 1_455 S
C2070 C2069 1.523 . S
H2071 C2046 0.950 . S
H2072 C2048 0.950 . S
H2073 C2049 0.951 1_655 S
H2074 C2051 0.963 . S
H2075 C2053 0.964 . S
C2076 C2077 1.349 . S
C2076 C2078 1.327 . S
C2076 H2101 0.950 . S
C2077 C2076 1.349 . S
C2077 C2093 1.349 . S
C2078 C2076 1.327 . S
C2078 C2097 1.429 . S
C2078 H2102 0.950 . S
C2079 C2096 1.574 . S
C2079 C2098 1.368 . S
C2079 H2103 0.949 . S
H2080 C2084 0.949 . S
C2081 C2082 1.349 . S
C2081 C2083 1.327 . S
C2081 H2104 0.950 . S
C2082 C2081 1.349 . S
C2082 C2094 1.349 . S
C2083 C2081 1.327 . S
C2083 C2099 1.429 . S
C2083 H2105 0.950 . S
C2084 H2080 0.949 . S
C2084 C2092 1.574 . S
C2084 C2100 1.368 . S
H2085 C2093 0.950 . S
H2086 C2091 0.950 . S
H2087 C2092 0.949 . S
H2088 C2094 0.950 . S
H2089 C2095 0.950 . S
H2090 C2096 0.949 . S
C2091 H2086 0.950 . S
C2091 C2093 1.327 . S
C2091 C2097 1.429 . S
C2092 C2084 1.574 . S
C2092 H2087 0.949 . S
C2092 C2098 1.368 . S
C2093 C2077 1.349 . S
C2093 H2085 0.950 . S
C2093 C2091 1.327 . S
C2094 C2082 1.349 . S
C2094 H2088 0.950 . S
C2094 C2095 1.327 . S
C2095 H2089 0.950 . S
C2095 C2094 1.327 . S
C2095 C2099 1.429 . S
C2096 C2079 1.574 . S
C2096 H2090 0.949 . S
C2096 C2100 1.368 . S
C2097 C2078 1.429 . S
C2097 C2091 1.429 . S
C2097 C2098 1.523 . S
C2098 C2079 1.368 . S
C2098 C2092 1.368 . S
C2098 C2097 1.523 . S
C2099 C2083 1.429 . S
C2099 C2095 1.429 . S
C2099 C2100 1.523 . S
C2100 C2084 1.368 . S
C2100 C2096 1.368 . S
C2100 C2099 1.523 . S
H2101 C2076 0.950 . S
H2102 C2078 0.950 . S
H2103 C2079 0.949 . S
H2104 C2081 0.950 . S
H2105 C2083 0.950 . S
C2106 C2107 1.349 . S
C2106 C2108 1.327 . S
C2106 H2131 0.950 . S
C2107 C2106 1.349 . S
C2107 C2123 1.349 . S
C2108 C2106 1.327 . S
C2108 C2127 1.429 . S
C2108 H2132 0.950 . S
C2109 C2126 1.574 . S
C2109 C2128 1.368 . S
C2109 H2133 0.949 . S
H2110 C2114 0.949 . S
C2111 C2112 1.349 . S
C2111 C2113 1.327 . S
C2111 H2134 0.950 . S
C2112 C2111 1.349 . S
C2112 C2124 1.349 . S
C2113 C2111 1.327 . S
C2113 C2129 1.429 . S
C2113 H2135 0.950 . S
C2114 H2110 0.949 . S
C2114 C2122 1.574 . S
C2114 C2130 1.368 . S
H2115 C2123 0.950 . S
H2116 C2121 0.950 . S
H2117 C2122 0.949 . S
H2118 C2124 0.950 . S
H2119 C2125 0.950 . S
H2120 C2126 0.949 . S
C2121 H2116 0.950 . S
C2121 C2123 1.327 . S
C2121 C2127 1.429 . S
C2122 C2114 1.574 . S
C2122 H2117 0.949 . S
C2122 C2128 1.368 . S
C2123 C2107 1.349 . S
C2123 H2115 0.950 . S
C2123 C2121 1.327 . S
C2124 C2112 1.349 . S
C2124 H2118 0.950 . S
C2124 C2125 1.327 . S
C2125 H2119 0.950 . S
C2125 C2124 1.327 . S
C2125 C2129 1.429 . S
C2126 C2109 1.574 . S
C2126 H2120 0.949 . S
C2126 C2130 1.368 . S
C2127 C2108 1.429 . S
C2127 C2121 1.429 . S
C2127 C2128 1.523 . S
C2128 C2109 1.368 . S
C2128 C2122 1.368 . S
C2128 C2127 1.523 . S
C2129 C2113 1.429 . S
C2129 C2125 1.429 . S
C2129 C2130 1.523 . S
C2130 C2114 1.368 . S
C2130 C2126 1.368 . S
C2130 C2129 1.523 . S
H2131 C2106 0.950 . S
H2132 C2108 0.950 . S
H2133 C2109 0.949 . S
H2134 C2111 0.950 . S
H2135 C2113 0.950 . S
C2136 C2137 1.349 . S
C2136 C2138 1.327 . S
C2136 H2161 0.950 . S
C2137 C2136 1.349 . S
C2137 C2153 1.349 . S
C2138 C2136 1.327 . S
C2138 C2157 1.429 . S
C2138 H2162 0.950 . S
C2139 C2156 1.574 . S
C2139 C2158 1.368 . S
C2139 H2163 0.949 . S
H2140 C2144 0.949 . S
C2141 C2142 1.349 . S
C2141 C2143 1.327 . S
C2141 H2164 0.950 . S
C2142 C2141 1.349 . S
C2142 C2154 1.349 . S
C2143 C2141 1.327 . S
C2143 C2159 1.429 . S
C2143 H2165 0.950 . S
C2144 H2140 0.949 . S
C2144 C2152 1.574 . S
C2144 C2160 1.368 . S
H2145 C2153 0.950 . S
H2146 C2151 0.950 . S
H2147 C2152 0.949 . S
H2148 C2154 0.950 . S
H2149 C2155 0.950 . S
H2150 C2156 0.949 . S
C2151 H2146 0.950 . S
C2151 C2153 1.327 . S
C2151 C2157 1.429 . S
C2152 C2144 1.574 . S
C2152 H2147 0.949 . S
C2152 C2158 1.368 . S
C2153 C2137 1.349 . S
C2153 H2145 0.950 . S
C2153 C2151 1.327 . S
C2154 C2142 1.349 . S
C2154 H2148 0.950 . S
C2154 C2155 1.327 . S
C2155 H2149 0.950 . S
C2155 C2154 1.327 . S
C2155 C2159 1.429 . S
C2156 C2139 1.574 . S
C2156 H2150 0.949 . S
C2156 C2160 1.368 . S
C2157 C2138 1.429 . S
C2157 C2151 1.429 . S
C2157 C2158 1.523 . S
C2158 C2139 1.368 . S
C2158 C2152 1.368 . S
C2158 C2157 1.523 . S
C2159 C2143 1.429 . S
C2159 C2155 1.429 . S
C2159 C2160 1.523 . S
C2160 C2144 1.368 . S
C2160 C2156 1.368 . S
C2160 C2159 1.523 . S
H2161 C2136 0.950 . S
H2162 C2138 0.950 . S
H2163 C2139 0.949 . S
H2164 C2141 0.950 . S
H2165 C2143 0.950 . S
C2166 C2167 1.349 . S
C2166 C2168 1.327 . S
C2166 H2191 0.950 . S
C2167 C2166 1.349 . S
C2167 C2183 1.349 . S
C2168 C2166 1.327 . S
C2168 C2187 1.429 . S
C2168 H2192 0.950 . S
C2169 C2186 1.574 . S
C2169 C2188 1.368 . S
C2169 H2193 0.949 . S
H2170 C2174 0.949 . S
C2171 C2172 1.349 . S
C2171 C2173 1.327 . S
C2171 H2194 0.950 1_545 S
C2172 C2171 1.349 . S
C2172 C2184 1.349 . S
C2173 C2171 1.327 . S
C2173 C2189 1.429 . S
C2173 H2195 0.950 . S
C2174 H2170 0.949 . S
C2174 C2182 1.574 . S
C2174 C2190 1.368 . S
H2175 C2183 0.950 . S
H2176 C2181 0.950 . S
H2177 C2182 0.949 . S
H2178 C2184 0.950 . S
H2179 C2185 0.950 . S
H2180 C2186 0.949 . S
C2181 H2176 0.950 . S
C2181 C2183 1.327 . S
C2181 C2187 1.429 . S
C2182 C2174 1.574 . S
C2182 H2177 0.949 . S
C2182 C2188 1.368 . S
C2183 C2167 1.349 . S
C2183 H2175 0.950 . S
C2183 C2181 1.327 . S
C2184 C2172 1.349 . S
C2184 H2178 0.950 . S
C2184 C2185 1.327 . S
C2185 H2179 0.950 . S
C2185 C2184 1.327 . S
C2185 C2189 1.429 . S
C2186 C2169 1.574 . S
C2186 H2180 0.949 . S
C2186 C2190 1.368 . S
C2187 C2168 1.429 . S
C2187 C2181 1.429 . S
C2187 C2188 1.523 . S
C2188 C2169 1.368 . S
C2188 C2182 1.368 . S
C2188 C2187 1.523 . S
C2189 C2173 1.429 . S
C2189 C2185 1.429 . S
C2189 C2190 1.523 . S
C2190 C2174 1.368 . S
C2190 C2186 1.368 . S
C2190 C2189 1.523 . S
H2191 C2166 0.950 . S
H2192 C2168 0.950 . S
H2193 C2169 0.949 . S
H2194 C2171 0.950 1_565 S
H2195 C2173 0.950 . S
C2196 C2197 1.349 . S
C2196 C2198 1.327 . S
C2196 H2221 0.950 . S
C2197 C2196 1.349 . S
C2197 C2213 1.349 . S
C2198 C2196 1.327 . S
C2198 C2217 1.429 . S
C2198 H2222 0.950 . S
C2199 C2216 1.574 . S
C2199 C2218 1.368 . S
C2199 H2223 0.949 . S
H2200 C2204 0.949 . S
C2201 C2202 1.349 . S
C2201 C2203 1.327 . S
C2201 H2224 0.950 . S
C2202 C2201 1.349 . S
C2202 C2214 1.349 . S
C2203 C2201 1.327 . S
C2203 C2219 1.429 . S
C2203 H2225 0.950 . S
C2204 H2200 0.949 . S
C2204 C2212 1.574 . S
C2204 C2220 1.368 . S
H2205 C2213 0.950 . S
H2206 C2211 0.950 . S
H2207 C2212 0.949 . S
H2208 C2214 0.950 . S
H2209 C2215 0.950 . S
H2210 C2216 0.949 . S
C2211 H2206 0.950 . S
C2211 C2213 1.327 . S
C2211 C2217 1.429 . S
C2212 C2204 1.574 . S
C2212 H2207 0.949 . S
C2212 C2218 1.368 . S
C2213 C2197 1.349 . S
C2213 H2205 0.950 . S
C2213 C2211 1.327 . S
C2214 C2202 1.349 . S
C2214 H2208 0.950 . S
C2214 C2215 1.327 . S
C2215 H2209 0.950 . S
C2215 C2214 1.327 . S
C2215 C2219 1.429 . S
C2216 C2199 1.574 . S
C2216 H2210 0.949 . S
C2216 C2220 1.368 . S
C2217 C2198 1.429 . S
C2217 C2211 1.429 . S
C2217 C2218 1.523 . S
C2218 C2199 1.368 . S
C2218 C2212 1.368 . S
C2218 C2217 1.523 . S
C2219 C2203 1.429 . S
C2219 C2215 1.429 . S
C2219 C2220 1.523 . S
C2220 C2204 1.368 . S
C2220 C2216 1.368 . S
C2220 C2219 1.523 . S
H2221 C2196 0.950 . S
H2222 C2198 0.950 . S
H2223 C2199 0.949 . S
H2224 C2201 0.950 . S
H2225 C2203 0.950 . S
C2226 C2227 1.349 . S
C2226 C2228 1.327 . S
C2226 H2251 0.950 . S
C2227 C2226 1.349 . S
C2227 C2243 1.349 . S
C2228 C2226 1.327 . S
C2228 C2247 1.429 . S
C2228 H2252 0.950 . S
C2229 C2246 1.574 . S
C2229 C2248 1.368 . S
C2229 H2253 0.949 . S
H2230 C2234 0.949 . S
C2231 C2232 1.349 . S
C2231 C2233 1.327 . S
C2231 H2254 0.950 . S
C2232 C2231 1.349 . S
C2232 C2244 1.349 . S
C2233 C2231 1.327 . S
C2233 C2249 1.429 . S
C2233 H2255 0.950 . S
C2234 H2230 0.949 . S
C2234 C2242 1.574 . S
C2234 C2250 1.368 . S
H2235 C2243 0.950 . S
H2236 C2241 0.950 . S
H2237 C2242 0.949 . S
H2238 C2244 0.950 . S
H2239 C2245 0.950 . S
H2240 C2246 0.949 . S
C2241 H2236 0.950 . S
C2241 C2243 1.327 . S
C2241 C2247 1.429 . S
C2242 C2234 1.574 . S
C2242 H2237 0.949 . S
C2242 C2248 1.368 . S
C2243 C2227 1.349 . S
C2243 H2235 0.950 . S
C2243 C2241 1.327 . S
C2244 C2232 1.349 . S
C2244 H2238 0.950 . S
C2244 C2245 1.327 . S
C2245 H2239 0.950 . S
C2245 C2244 1.327 . S
C2245 C2249 1.429 . S
C2246 C2229 1.574 . S
C2246 H2240 0.949 . S
C2246 C2250 1.368 . S
C2247 C2228 1.429 . S
C2247 C2241 1.429 . S
C2247 C2248 1.523 . S
C2248 C2229 1.368 . S
C2248 C2242 1.368 . S
C2248 C2247 1.523 . S
C2249 C2233 1.429 . S
C2249 C2245 1.429 . S
C2249 C2250 1.523 . S
C2250 C2234 1.368 . S
C2250 C2246 1.368 . S
C2250 C2249 1.523 . S
H2251 C2226 0.950 . S
H2252 C2228 0.950 . S
H2253 C2229 0.949 . S
H2254 C2231 0.950 . S
H2255 C2233 0.950 . S
C2256 C2257 1.349 . S
C2256 C2258 1.327 . S
C2256 H2281 0.950 . S
C2257 C2256 1.349 . S
C2257 C2273 1.349 . S
C2258 C2256 1.327 . S
C2258 C2277 1.429 . S
C2258 H2282 0.950 . S
C2259 C2276 1.574 . S
C2259 C2278 1.368 . S
C2259 H2283 0.949 . S
H2260 C2264 0.949 . S
C2261 C2262 1.349 . S
C2261 C2263 1.327 . S
C2261 H2284 0.950 . S
C2262 C2261 1.349 . S
C2262 C2274 1.349 . S
C2263 C2261 1.327 . S
C2263 C2279 1.429 . S
C2263 H2285 0.950 . S
C2264 H2260 0.949 . S
C2264 C2272 1.574 . S
C2264 C2280 1.368 . S
H2265 C2273 0.950 . S
H2266 C2271 0.950 . S
H2267 C2272 0.949 . S
H2268 C2274 0.950 . S
H2269 C2275 0.950 . S
H2270 C2276 0.949 . S
C2271 H2266 0.950 . S
C2271 C2273 1.327 . S
C2271 C2277 1.429 . S
C2272 C2264 1.574 . S
C2272 H2267 0.949 . S
C2272 C2278 1.368 . S
C2273 C2257 1.349 . S
C2273 H2265 0.950 . S
C2273 C2271 1.327 . S
C2274 C2262 1.349 . S
C2274 H2268 0.950 . S
C2274 C2275 1.327 . S
C2275 H2269 0.950 . S
C2275 C2274 1.327 . S
C2275 C2279 1.429 . S
C2276 C2259 1.574 . S
C2276 H2270 0.949 . S
C2276 C2280 1.368 . S
C2277 C2258 1.429 . S
C2277 C2271 1.429 . S
C2277 C2278 1.523 . S
C2278 C2259 1.368 . S
C2278 C2272 1.368 . S
C2278 C2277 1.523 . S
C2279 C2263 1.429 . S
C2279 C2275 1.429 . S
C2279 C2280 1.523 . S
C2280 C2264 1.368 . S
C2280 C2276 1.368 . S
C2280 C2279 1.523 . S
H2281 C2256 0.950 . S
H2282 C2258 0.950 . S
H2283 C2259 0.949 . S
H2284 C2261 0.950 . S
H2285 C2263 0.950 . S
C2286 C2287 1.349 . S
C2286 C2288 1.327 . S
C2286 H2311 0.950 . S
C2287 C2286 1.349 . S
C2287 C2303 1.349 . S
C2288 C2286 1.327 . S
C2288 C2307 1.429 . S
C2288 H2312 0.950 . S
C2289 C2306 1.574 . S
C2289 C2308 1.368 . S
C2289 H2313 0.949 . S
H2290 C2294 0.949 . S
C2291 C2292 1.349 . S
C2291 C2293 1.327 . S
C2291 H2314 0.950 . S
C2292 C2291 1.349 . S
C2292 C2304 1.349 . S
C2293 C2291 1.327 . S
C2293 C2309 1.429 . S
C2293 H2315 0.950 . S
C2294 H2290 0.949 . S
C2294 C2302 1.574 . S
C2294 C2310 1.368 . S
H2295 C2303 0.950 . S
H2296 C2301 0.950 . S
H2297 C2302 0.949 . S
H2298 C2304 0.950 . S
H2299 C2305 0.950 . S
H2300 C2306 0.949 . S
C2301 H2296 0.950 . S
C2301 C2303 1.327 . S
C2301 C2307 1.429 . S
C2302 C2294 1.574 . S
C2302 H2297 0.949 . S
C2302 C2308 1.368 . S
C2303 C2287 1.349 . S
C2303 H2295 0.950 . S
C2303 C2301 1.327 . S
C2304 C2292 1.349 . S
C2304 H2298 0.950 . S
C2304 C2305 1.327 . S
C2305 H2299 0.950 . S
C2305 C2304 1.327 . S
C2305 C2309 1.429 . S
C2306 C2289 1.574 . S
C2306 H2300 0.949 . S
C2306 C2310 1.368 . S
C2307 C2288 1.429 . S
C2307 C2301 1.429 . S
C2307 C2308 1.523 . S
C2308 C2289 1.368 . S
C2308 C2302 1.368 . S
C2308 C2307 1.523 . S
C2309 C2293 1.429 . S
C2309 C2305 1.429 . S
C2309 C2310 1.523 . S
C2310 C2294 1.368 . S
C2310 C2306 1.368 . S
C2310 C2309 1.523 . S
H2311 C2286 0.950 . S
H2312 C2288 0.950 . S
H2313 C2289 0.949 . S
H2314 C2291 0.950 . S
H2315 C2293 0.950 . S
C2316 C2317 1.349 . S
C2316 C2318 1.327 . S
C2316 H2341 0.950 . S
C2317 C2316 1.349 . S
C2317 C2333 1.349 . S
C2318 C2316 1.327 . S
C2318 C2337 1.429 . S
C2318 H2342 0.950 . S
C2319 C2336 1.574 . S
C2319 C2338 1.368 . S
C2319 H2343 0.949 . S
H2320 C2324 0.949 . S
C2321 C2322 1.349 . S
C2321 C2323 1.327 . S
C2321 H2344 0.950 . S
C2322 C2321 1.349 . S
C2322 C2334 1.349 . S
C2323 C2321 1.327 . S
C2323 C2339 1.429 . S
C2323 H2345 0.950 . S
C2324 H2320 0.949 . S
C2324 C2332 1.574 . S
C2324 C2340 1.368 . S
H2325 C2333 0.950 . S
H2326 C2331 0.950 . S
H2327 C2332 0.949 . S
H2328 C2334 0.950 . S
H2329 C2335 0.950 . S
H2330 C2336 0.949 . S
C2331 H2326 0.950 . S
C2331 C2333 1.327 . S
C2331 C2337 1.429 . S
C2332 C2324 1.574 . S
C2332 H2327 0.949 . S
C2332 C2338 1.368 . S
C2333 C2317 1.349 . S
C2333 H2325 0.950 . S
C2333 C2331 1.327 . S
C2334 C2322 1.349 . S
C2334 H2328 0.950 . S
C2334 C2335 1.327 . S
C2335 H2329 0.950 . S
C2335 C2334 1.327 . S
C2335 C2339 1.429 . S
C2336 C2319 1.574 . S
C2336 H2330 0.949 . S
C2336 C2340 1.368 . S
C2337 C2318 1.429 . S
C2337 C2331 1.429 . S
C2337 C2338 1.523 . S
C2338 C2319 1.368 . S
C2338 C2332 1.368 . S
C2338 C2337 1.523 . S
C2339 C2323 1.429 . S
C2339 C2335 1.429 . S
C2339 C2340 1.523 . S
C2340 C2324 1.368 . S
C2340 C2336 1.368 . S
C2340 C2339 1.523 . S
H2341 C2316 0.950 . S
H2342 C2318 0.950 . S
H2343 C2319 0.949 . S
H2344 C2321 0.950 . S
H2345 C2323 0.950 . S
C2346 C2347 1.349 . S
C2346 C2348 1.327 . S
C2346 H2371 0.950 . S
C2347 C2346 1.349 . S
C2347 C2363 1.349 . S
C2348 C2346 1.327 . S
C2348 C2367 1.429 . S
C2348 H2372 0.950 . S
C2349 C2366 1.574 . S
C2349 C2368 1.368 . S
C2349 H2373 0.949 . S
H2350 C2354 0.949 . S
C2351 C2352 1.349 . S
C2351 C2353 1.327 . S
C2351 H2374 0.950 . S
C2352 C2351 1.349 . S
C2352 C2364 1.349 . S
C2353 C2351 1.327 . S
C2353 C2369 1.429 . S
C2353 H2375 0.950 . S
C2354 H2350 0.949 . S
C2354 C2362 1.574 . S
C2354 C2370 1.368 . S
H2355 C2363 0.950 . S
H2356 C2361 0.950 . S
H2357 C2362 0.949 . S
H2358 C2364 0.950 . S
H2359 C2365 0.950 . S
H2360 C2366 0.949 . S
C2361 H2356 0.950 . S
C2361 C2363 1.327 . S
C2361 C2367 1.429 . S
C2362 C2354 1.574 . S
C2362 H2357 0.949 . S
C2362 C2368 1.368 . S
C2363 C2347 1.349 . S
C2363 H2355 0.950 . S
C2363 C2361 1.327 . S
C2364 C2352 1.349 . S
C2364 H2358 0.950 . S
C2364 C2365 1.327 . S
C2365 H2359 0.950 . S
C2365 C2364 1.327 . S
C2365 C2369 1.429 . S
C2366 C2349 1.574 . S
C2366 H2360 0.949 . S
C2366 C2370 1.368 . S
C2367 C2348 1.429 . S
C2367 C2361 1.429 . S
C2367 C2368 1.523 . S
C2368 C2349 1.368 . S
C2368 C2362 1.368 . S
C2368 C2367 1.523 . S
C2369 C2353 1.429 . S
C2369 C2365 1.429 . S
C2369 C2370 1.523 . S
C2370 C2354 1.368 . S
C2370 C2366 1.368 . S
C2370 C2369 1.523 . S
H2371 C2346 0.950 . S
H2372 C2348 0.950 . S
H2373 C2349 0.949 . S
H2374 C2351 0.950 . S
H2375 C2353 0.950 . S
C2376 C2377 1.349 . S
C2376 C2378 1.327 . S
C2376 H2401 0.950 . S
C2377 C2376 1.349 . S
C2377 C2393 1.349 . S
C2378 C2376 1.327 . S
C2378 C2397 1.429 . S
C2378 H2402 0.950 . S
C2379 C2396 1.574 . S
C2379 C2398 1.368 . S
C2379 H2403 0.949 . S
H2380 C2384 0.949 . S
C2381 C2382 1.349 . S
C2381 C2383 1.327 . S
C2381 H2404 0.950 . S
C2382 C2381 1.349 . S
C2382 C2394 1.349 . S
C2383 C2381 1.327 . S
C2383 C2399 1.429 . S
C2383 H2405 0.950 . S
C2384 H2380 0.949 . S
C2384 C2392 1.574 . S
C2384 C2400 1.368 . S
H2385 C2393 0.950 . S
H2386 C2391 0.950 . S
H2387 C2392 0.949 . S
H2388 C2394 0.950 . S
H2389 C2395 0.950 . S
H2390 C2396 0.949 . S
C2391 H2386 0.950 . S
C2391 C2393 1.327 . S
C2391 C2397 1.429 . S
C2392 C2384 1.574 . S
C2392 H2387 0.949 . S
C2392 C2398 1.368 . S
C2393 C2377 1.349 . S
C2393 H2385 0.950 . S
C2393 C2391 1.327 . S
C2394 C2382 1.349 . S
C2394 H2388 0.950 . S
C2394 C2395 1.327 . S
C2395 H2389 0.950 . S
C2395 C2394 1.327 . S
C2395 C2399 1.429 . S
C2396 C2379 1.574 . S
C2396 H2390 0.949 . S
C2396 C2400 1.368 . S
C2397 C2378 1.429 . S
C2397 C2391 1.429 . S
C2397 C2398 1.523 . S
C2398 C2379 1.368 . S
C2398 C2392 1.368 . S
C2398 C2397 1.523 . S
C2399 C2383 1.429 . S
C2399 C2395 1.429 . S
C2399 C2400 1.523 . S
C2400 C2384 1.368 . S
C2400 C2396 1.368 . S
C2400 C2399 1.523 . S
H2401 C2376 0.950 . S
H2402 C2378 0.950 . S
H2403 C2379 0.949 . S
H2404 C2381 0.950 . S
H2405 C2383 0.950 . S
C2406 C2407 1.349 . S
C2406 C2408 1.327 . S
C2406 H2431 0.950 . S
C2407 C2406 1.349 . S
C2407 C2423 1.349 . S
C2408 C2406 1.327 . S
C2408 C2427 1.429 . S
C2408 H2432 0.950 . S
C2409 C2426 1.574 . S
C2409 C2428 1.368 . S
C2409 H2433 0.949 . S
H2410 C2414 0.949 . S
C2411 C2412 1.349 . S
C2411 C2413 1.327 . S
C2411 H2434 0.950 . S
C2412 C2411 1.349 . S
C2412 C2424 1.349 . S
C2413 C2411 1.327 . S
C2413 C2429 1.429 . S
C2413 H2435 0.950 . S
C2414 H2410 0.949 . S
C2414 C2422 1.574 . S
C2414 C2430 1.368 . S
H2415 C2423 0.950 . S
H2416 C2421 0.950 . S
H2417 C2422 0.949 . S
H2418 C2424 0.950 . S
H2419 C2425 0.950 . S
H2420 C2426 0.949 . S
C2421 H2416 0.950 . S
C2421 C2423 1.327 . S
C2421 C2427 1.429 . S
C2422 C2414 1.574 . S
C2422 H2417 0.949 . S
C2422 C2428 1.368 . S
C2423 C2407 1.349 . S
C2423 H2415 0.950 . S
C2423 C2421 1.327 . S
C2424 C2412 1.349 . S
C2424 H2418 0.950 . S
C2424 C2425 1.327 . S
C2425 H2419 0.950 . S
C2425 C2424 1.327 . S
C2425 C2429 1.429 . S
C2426 C2409 1.574 . S
C2426 H2420 0.949 . S
C2426 C2430 1.368 . S
C2427 C2408 1.429 . S
C2427 C2421 1.429 . S
C2427 C2428 1.523 . S
C2428 C2409 1.368 . S
C2428 C2422 1.368 . S
C2428 C2427 1.523 . S
C2429 C2413 1.429 . S
C2429 C2425 1.429 . S
C2429 C2430 1.523 . S
C2430 C2414 1.368 . S
C2430 C2426 1.368 . S
C2430 C2429 1.523 . S
H2431 C2406 0.950 . S
H2432 C2408 0.950 . S
H2433 C2409 0.949 . S
H2434 C2411 0.950 . S
H2435 C2413 0.950 . S
C2436 C2437 1.349 . S
C2436 C2438 1.327 . S
C2436 H2461 0.950 . S
C2437 C2436 1.349 . S
C2437 C2453 1.349 . S
C2438 C2436 1.327 . S
C2438 C2457 1.429 . S
C2438 H2462 0.950 . S
C2439 C2456 1.574 . S
C2439 C2458 1.368 . S
C2439 H2463 0.949 . S
H2440 C2444 0.949 . S
C2441 C2442 1.349 . S
C2441 C2443 1.327 . S
C2441 H2464 0.950 . S
C2442 C2441 1.349 . S
C2442 C2454 1.349 . S
C2443 C2441 1.327 . S
C2443 C2459 1.429 . S
C2443 H2465 0.950 . S
C2444 H2440 0.949 . S
C2444 C2452 1.574 . S
C2444 C2460 1.368 . S
H2445 C2453 0.950 . S
H2446 C2451 0.950 . S
H2447 C2452 0.949 . S
H2448 C2454 0.950 . S
H2449 C2455 0.950 . S
H2450 C2456 0.949 . S
C2451 H2446 0.950 . S
C2451 C2453 1.327 . S
C2451 C2457 1.429 . S
C2452 C2444 1.574 . S
C2452 H2447 0.949 . S
C2452 C2458 1.368 . S
C2453 C2437 1.349 . S
C2453 H2445 0.950 . S
C2453 C2451 1.327 . S
C2454 C2442 1.349 . S
C2454 H2448 0.950 . S
C2454 C2455 1.327 . S
C2455 H2449 0.950 . S
C2455 C2454 1.327 . S
C2455 C2459 1.429 . S
C2456 C2439 1.574 . S
C2456 H2450 0.949 . S
C2456 C2460 1.368 . S
C2457 C2438 1.429 . S
C2457 C2451 1.429 . S
C2457 C2458 1.523 . S
C2458 C2439 1.368 . S
C2458 C2452 1.368 . S
C2458 C2457 1.523 . S
C2459 C2443 1.429 . S
C2459 C2455 1.429 . S
C2459 C2460 1.523 . S
C2460 C2444 1.368 . S
C2460 C2456 1.368 . S
C2460 C2459 1.523 . S
H2461 C2436 0.950 . S
H2462 C2438 0.950 . S
H2463 C2439 0.949 . S
H2464 C2441 0.950 . S
H2465 C2443 0.950 . S
C2466 C2467 1.349 . S
C2466 C2468 1.327 . S
C2466 H2491 0.950 . S
C2467 C2466 1.349 . S
C2467 C2483 1.349 . S
C2468 C2466 1.327 . S
C2468 C2487 1.429 . S
C2468 H2492 0.950 . S
C2469 C2486 1.574 . S
C2469 C2488 1.368 . S
C2469 H2493 0.949 . S
H2470 C2474 0.949 . S
C2471 C2472 1.349 . S
C2471 C2473 1.327 . S
C2471 H2494 0.950 . S
C2472 C2471 1.349 . S
C2472 C2484 1.349 . S
C2473 C2471 1.327 . S
C2473 C2489 1.429 . S
C2473 H2495 0.950 . S
C2474 H2470 0.949 . S
C2474 C2482 1.574 . S
C2474 C2490 1.368 . S
H2475 C2483 0.950 . S
H2476 C2481 0.950 . S
H2477 C2482 0.949 . S
H2478 C2484 0.950 . S
H2479 C2485 0.950 . S
H2480 C2486 0.949 . S
C2481 H2476 0.950 . S
C2481 C2483 1.327 . S
C2481 C2487 1.429 . S
C2482 C2474 1.574 . S
C2482 H2477 0.949 . S
C2482 C2488 1.368 . S
C2483 C2467 1.349 . S
C2483 H2475 0.950 . S
C2483 C2481 1.327 . S
C2484 C2472 1.349 . S
C2484 H2478 0.950 . S
C2484 C2485 1.327 . S
C2485 H2479 0.950 . S
C2485 C2484 1.327 . S
C2485 C2489 1.429 . S
C2486 C2469 1.574 . S
C2486 H2480 0.949 . S
C2486 C2490 1.368 . S
C2487 C2468 1.429 . S
C2487 C2481 1.429 . S
C2487 C2488 1.523 . S
C2488 C2469 1.368 . S
C2488 C2482 1.368 . S
C2488 C2487 1.523 . S
C2489 C2473 1.429 . S
C2489 C2485 1.429 . S
C2489 C2490 1.523 . S
C2490 C2474 1.368 . S
C2490 C2486 1.368 . S
C2490 C2489 1.523 . S
H2491 C2466 0.950 . S
H2492 C2468 0.950 . S
H2493 C2469 0.949 . S
H2494 C2471 0.950 . S
H2495 C2473 0.950 . S
C2496 C2497 1.349 . S
C2496 C2498 1.327 . S
C2496 H2521 0.950 . S
C2497 C2496 1.349 . S
C2497 C2513 1.349 . S
C2498 C2496 1.327 . S
C2498 C2517 1.429 . S
C2498 H2522 0.950 . S
C2499 C2516 1.574 . S
C2499 C2518 1.368 . S
C2499 H2523 0.949 . S
H2500 C2504 0.949 . S
C2501 C2502 1.349 . S
C2501 C2503 1.327 . S
C2501 H2524 0.950 . S
C2502 C2501 1.349 . S
C2502 C2514 1.349 . S
C2503 C2501 1.327 . S
C2503 C2519 1.429 . S
C2503 H2525 0.950 . S
C2504 H2500 0.949 . S
C2504 C2512 1.574 . S
C2504 C2520 1.368 . S
H2505 C2513 0.950 . S
H2506 C2511 0.950 . S
H2507 C2512 0.949 . S
H2508 C2514 0.950 . S
H2509 C2515 0.950 . S
H2510 C2516 0.949 . S
C2511 H2506 0.950 . S
C2511 C2513 1.327 . S
C2511 C2517 1.429 . S
C2512 C2504 1.574 . S
C2512 H2507 0.949 . S
C2512 C2518 1.368 . S
C2513 C2497 1.349 . S
C2513 H2505 0.950 . S
C2513 C2511 1.327 . S
C2514 C2502 1.349 . S
C2514 H2508 0.950 . S
C2514 C2515 1.327 . S
C2515 H2509 0.950 . S
C2515 C2514 1.327 . S
C2515 C2519 1.429 . S
C2516 C2499 1.574 . S
C2516 H2510 0.949 . S
C2516 C2520 1.368 . S
C2517 C2498 1.429 . S
C2517 C2511 1.429 . S
C2517 C2518 1.523 . S
C2518 C2499 1.368 . S
C2518 C2512 1.368 . S
C2518 C2517 1.523 . S
C2519 C2503 1.429 . S
C2519 C2515 1.429 . S
C2519 C2520 1.523 . S
C2520 C2504 1.368 . S
C2520 C2516 1.368 . S
C2520 C2519 1.523 . S
H2521 C2496 0.950 . S
H2522 C2498 0.950 . S
H2523 C2499 0.949 . S
H2524 C2501 0.950 . S
H2525 C2503 0.950 . S
C2526 C2527 1.349 . S
C2526 C2528 1.327 . S
C2526 H2551 0.950 . S
C2527 C2526 1.349 . S
C2527 C2543 1.349 . S
C2528 C2526 1.327 . S
C2528 C2547 1.429 . S
C2528 H2552 0.950 . S
C2529 C2546 1.574 . S
C2529 C2548 1.368 . S
C2529 H2553 0.949 . S
H2530 C2534 0.949 . S
C2531 C2532 1.349 . S
C2531 C2533 1.327 . S
C2531 H2554 0.950 . S
C2532 C2531 1.349 . S
C2532 C2544 1.349 . S
C2533 C2531 1.327 . S
C2533 C2549 1.429 . S
C2533 H2555 0.950 . S
C2534 H2530 0.949 . S
C2534 C2542 1.574 . S
C2534 C2550 1.368 . S
H2535 C2543 0.950 . S
H2536 C2541 0.950 . S
H2537 C2542 0.949 . S
H2538 C2544 0.950 . S
H2539 C2545 0.950 . S
H2540 C2546 0.949 . S
C2541 H2536 0.950 . S
C2541 C2543 1.327 . S
C2541 C2547 1.429 . S
C2542 C2534 1.574 . S
C2542 H2537 0.949 . S
C2542 C2548 1.368 . S
C2543 C2527 1.349 . S
C2543 H2535 0.950 . S
C2543 C2541 1.327 . S
C2544 C2532 1.349 . S
C2544 H2538 0.950 . S
C2544 C2545 1.327 . S
C2545 H2539 0.950 . S
C2545 C2544 1.327 . S
C2545 C2549 1.429 . S
C2546 C2529 1.574 . S
C2546 H2540 0.949 . S
C2546 C2550 1.368 . S
C2547 C2528 1.429 . S
C2547 C2541 1.429 . S
C2547 C2548 1.523 . S
C2548 C2529 1.368 . S
C2548 C2542 1.368 . S
C2548 C2547 1.523 . S
C2549 C2533 1.429 . S
C2549 C2545 1.429 . S
C2549 C2550 1.523 . S
C2550 C2534 1.368 . S
C2550 C2546 1.368 . S
C2550 C2549 1.523 . S
H2551 C2526 0.950 . S
H2552 C2528 0.950 . S
H2553 C2529 0.949 . S
H2554 C2531 0.950 . S
H2555 C2533 0.950 . S
C937 C439 1.511 . S
C942 C588 1.602 . S
C967 C465 1.846 . S
C972 C628 1.846 . S
C997 C401 1.702 . S
C1002 C658 1.668 . S
C1027 C369 1.524 . S
C1032 C618 1.495 . S
C1062 C668 1.485 . S
C1057 C305 1.477 . S
C1087 C343 1.206 . S
C1092 C578 1.262 1_556 S
C1122 C607 1.642 . S
C1117 C375 1.648 . S
C1152 C647 1.804 . S
C1147 C311 1.803 . S
C1177 C337 1.593 . S
C1182 C673 1.670 . S
C1207 C433 1.442 . S
C1212 C633 1.494 . S
C1237 C471 1.436 . S
C1242 C687 1.442 . S
C1272 C593 1.327 . S
C1267 C407 1.344 . S
C1302 C708 1.602 . S
C1297 C55 1.511 . S
C1327 C81 1.846 . S
C1332 C748 1.846 . S
C1357 C17 1.702 . S
C1362 C778 1.668 . S
C1387 C561 1.524 . S
C1392 C738 1.495 . S
C1417 C497 1.477 . S
C1422 C788 1.485 . S
C1447 C535 1.206 . S
C1452 C698 1.284 . S
C1477 C567 1.648 . S
C1482 C727 1.641 . S
C1507 C503 1.803 . S
C1512 C767 1.804 . S
C1542 C793 1.670 . S
C1537 C529 1.593 . S
C1567 C49 1.441 . S
C1572 C753 1.494 . S
C1602 C807 1.443 . S
C1597 C87 1.437 . S
C1627 C23 1.344 . S
C1632 C713 1.327 . S
C1662 C828 1.602 . S
C1657 C247 1.511 . S
C1687 C273 1.846 . S
C1692 C868 1.846 . S
C1722 C898 1.668 . S
C1717 C209 1.702 . S
C1752 C858 1.494 . S
C1747 C177 1.524 . S
C1782 C908 1.485 . S
C1777 C113 1.477 . S
C1807 C151 1.206 . S
C1812 C818 1.284 . S
C1837 C183 1.649 . S
C1842 C847 1.642 . S
C1867 C119 1.803 . S
C1872 C887 1.804 . S
C1902 C913 1.669 . S
C1897 C145 1.593 . S
C1927 C241 1.442 . S
C1932 C873 1.494 . S
C1957 C279 1.436 . S
C1962 C927 1.443 . S
C1987 C215 1.344 . S
C1992 C833 1.327 . S
C2017 C509 1.279 . S
C2022 C605 1.290 . S
C2052 C645 1.835 . S
C2047 C541 1.751 . S
C2077 C573 1.561 . S
C2082 C664 1.561 . S
C2107 C221 1.885 . S
C2112 C624 1.863 . S
C2137 C253 1.466 . S
C2142 C685 1.530 . S
C2172 C584 1.284 . S
C2167 C285 1.273 . S
C2197 C125 1.279 . S
C2202 C725 1.290 . S
C2227 C157 1.751 . S
C2232 C765 1.835 . S
C2257 C189 1.561 . S
C2262 C784 1.562 . S
C2287 C413 1.885 . S
C2292 C744 1.863 . S
C2322 C805 1.530 . S
C2317 C445 1.466 . S
C2347 C477 1.273 . S
C2352 C704 1.284 . S
C2377 C317 1.279 . S
C2382 C845 1.291 . S
C2407 C349 1.751 . S
C2412 C885 1.835 . S
C2442 C904 1.562 . S
C2437 C381 1.561 . S
C2467 C29 1.885 . S
C2472 C864 1.863 . S
C2497 C61 1.466 . S
C2502 C925 1.530 . S
C2527 C93 1.273 . S
C2532 C824 1.284 . S
