# Generated by pormake.
# Topology pyr, (3,6)-cn, num edge types: 1
# Building blocks:
#     Node 0, Type 0, BuildingBlock: KAKCAD_clean_linker_0, # of connection points: 3
#     Node 1, Type 0, BuildingBlock: KAKCAD_clean_linker_0, # of connection points: 3
#     Node 2, Type 0, BuildingBlock: KAKCAD_clean_linker_0, # of connection points: 3
#     Node 3, Type 0, BuildingBlock: KAKCAD_clean_linker_0, # of connection points: 3
#     Node 4, Type 0, BuildingBlock: KAKCAD_clean_linker_0, # of connection points: 3
#     Node 5, Type 0, BuildingBlock: KAKCAD_clean_linker_0, # of connection points: 3
#     Node 6, Type 0, BuildingBlock: KAKCAD_clean_linker_0, # of connection points: 3
#     Node 7, Type 0, BuildingBlock: KAKCAD_clean_linker_0, # of connection points: 3
#     Node 8, Type 1, BuildingBlock: JUFBIX_clean_sbu_0, # of connection points: 6
#     Node 9, Type 1, BuildingBlock: JUFBIX_clean_sbu_0, # of connection points: 6
#     Node 10, Type 1, BuildingBlock: JUFBIX_clean_sbu_0, # of connection points: 6
#     Node 11, Type 1, BuildingBlock: JUFBIX_clean_sbu_0, # of connection points: 6
#     Edge 12, Type (0, 1), BuildingBlock: CIFDUS_clean_linker_0, # of connection points: 2
#     Edge 13, Type (0, 1), BuildingBlock: CIFDUS_clean_linker_0, # of connection points: 2
#     Edge 14, Type (0, 1), BuildingBlock: CIFDUS_clean_linker_0, # of connection points: 2
#     Edge 15, Type (0, 1), BuildingBlock: CIFDUS_clean_linker_0, # of connection points: 2
#     Edge 16, Type (0, 1), BuildingBlock: CIFDUS_clean_linker_0, # of connection points: 2
#     Edge 17, Type (0, 1), BuildingBlock: CIFDUS_clean_linker_0, # of connection points: 2
#     Edge 18, Type (0, 1), BuildingBlock: CIFDUS_clean_linker_0, # of connection points: 2
#     Edge 19, Type (0, 1), BuildingBlock: CIFDUS_clean_linker_0, # of connection points: 2
#     Edge 20, Type (0, 1), BuildingBlock: CIFDUS_clean_linker_0, # of connection points: 2
#     Edge 21, Type (0, 1), BuildingBlock: CIFDUS_clean_linker_0, # of connection points: 2
#     Edge 22, Type (0, 1), BuildingBlock: CIFDUS_clean_linker_0, # of connection points: 2
#     Edge 23, Type (0, 1), BuildingBlock: CIFDUS_clean_linker_0, # of connection points: 2
#     Edge 24, Type (0, 1), BuildingBlock: CIFDUS_clean_linker_0, # of connection points: 2
#     Edge 25, Type (0, 1), BuildingBlock: CIFDUS_clean_linker_0, # of connection points: 2
#     Edge 26, Type (0, 1), BuildingBlock: CIFDUS_clean_linker_0, # of connection points: 2
#     Edge 27, Type (0, 1), BuildingBlock: CIFDUS_clean_linker_0, # of connection points: 2
#     Edge 28, Type (0, 1), BuildingBlock: CIFDUS_clean_linker_0, # of connection points: 2
#     Edge 29, Type (0, 1), BuildingBlock: CIFDUS_clean_linker_0, # of connection points: 2
#     Edge 30, Type (0, 1), BuildingBlock: CIFDUS_clean_linker_0, # of connection points: 2
#     Edge 31, Type (0, 1), BuildingBlock: CIFDUS_clean_linker_0, # of connection points: 2
#     Edge 32, Type (0, 1), BuildingBlock: CIFDUS_clean_linker_0, # of connection points: 2
#     Edge 33, Type (0, 1), BuildingBlock: CIFDUS_clean_linker_0, # of connection points: 2
#     Edge 34, Type (0, 1), BuildingBlock: CIFDUS_clean_linker_0, # of connection points: 2
#     Edge 35, Type (0, 1), BuildingBlock: CIFDUS_clean_linker_0, # of connection points: 2
# Relax obj value: 0.055
# Max RMSD: 0.096
# Mean RMSD: 0.034
data_MOF--net-pyr--node1-JUFBIX_clean_sbu_0--node2-KAKCAD_clean_linker_0--edge1-CIFDUS_clean_linker_0
_symmetry_space_group_name_H-M    P1
_symmetry_Int_Tables_number       1
_symmetry_cell_setting            triclinic
loop_
_symmetry_equiv_pos_as_xyz
'x, y, z'
_cell_length_a     41.374768
_cell_length_b     39.471907
_cell_length_c     41.179978
_cell_angle_alpha  83.016438
_cell_angle_beta   89.423459
_cell_angle_gamma 91.69175
loop_
_atom_site_label
_atom_site_type_symbol
_atom_site_fract_x
_atom_site_fract_y
_atom_site_fract_z
_atom_type_partial_charge
C0 C 0.11003 0.10774 0.25777 0.0
C1 C 0.12554 0.10156 0.28815 0.0
C2 C 0.12692 0.12268 0.22975 0.0
C3 C 0.16002 0.13139 0.23095 0.0
C4 C 0.17606 0.12397 0.26079 0.0
C5 C 0.15901 0.10947 0.28909 0.0
C6 C 0.17686 0.15006 0.2015 0.0
C7 C 0.16294 0.17932 0.18518 0.0
C8 C 0.17717 0.19718 0.15668 0.0
C9 C 0.20624 0.18524 0.14468 0.0
C10 C 0.2208 0.1557 0.16037 0.0
C11 C 0.20593 0.13857 0.18913 0.0
C12 C 0.25065 0.1421 0.14587 0.0
C13 C 0.25497 0.14432 0.11169 0.0
C14 C 0.27488 0.12639 0.16576 0.0
C15 C 0.30229 0.11308 0.15189 0.0
C16 C 0.30635 0.11508 0.11767 0.0
C17 C 0.16119 0.22796 0.13954 0.0
C18 C 0.12722 0.22902 0.13806 0.0
C19 C 0.1794 0.25682 0.12526 0.0
C20 C 0.16404 0.28609 0.11077 0.0
C21 C 0.13008 0.28739 0.11039 0.0
C22 C 0.11194 0.25828 0.12389 0.0
C23 C 0.28235 0.13127 0.09789 0.0
H24 H 0.08464 0.10118 0.25548 0.0
H25 H 0.11395 0.12763 0.20702 0.0
H26 H 0.20152 0.13058 0.26252 0.0
H27 H 0.17194 0.10552 0.31189 0.0
H28 H 0.14101 0.18852 0.19522 0.0
H29 H 0.21615 0.1155 0.20123 0.0
H30 H 0.21735 0.19882 0.12279 0.0
H31 H 0.23686 0.15563 0.09533 0.0
H32 H 0.27281 0.12443 0.19216 0.0
H33 H 0.31996 0.10063 0.16807 0.0
H34 H 0.11225 0.20713 0.14789 0.0
H35 H 0.20556 0.25724 0.1261 0.0
H36 H 0.28462 0.13399 0.07148 0.0
H37 H 0.08577 0.25809 0.12349 0.0
H38 H 0.17877 0.30812 0.1008 0.0
C39 C 0.40402 0.91578 0.73961 0.0
C40 C 0.43471 0.92598 0.74988 0.0
C41 C 0.40075 0.90011 0.71128 0.0
C42 C 0.42809 0.89385 0.69277 0.0
C43 C 0.45891 0.90277 0.70341 0.0
C44 C 0.46221 0.91893 0.73169 0.0
C45 C 0.4237 0.87955 0.66162 0.0
C46 C 0.40313 0.89575 0.63824 0.0
C47 C 0.39486 0.88065 0.6103 0.0
C48 C 0.40805 0.84938 0.60539 0.0
C49 C 0.42911 0.83301 0.62842 0.0
C50 C 0.43704 0.84835 0.6565 0.0
C51 C 0.44031 0.7986 0.62412 0.0
C52 C 0.43705 0.77169 0.64975 0.0
C53 C 0.45193 0.79189 0.5935 0.0
C54 C 0.45946 0.75878 0.58832 0.0
C55 C 0.45541 0.73165 0.61363 0.0
C56 C 0.36857 0.89516 0.58954 0.0
C57 C 0.3411 0.87475 0.5848 0.0
C58 C 0.3683 0.93037 0.57926 0.0
C59 C 0.34006 0.94536 0.56707 0.0
C60 C 0.31153 0.92541 0.56541 0.0
C61 C 0.31278 0.88975 0.57296 0.0
C62 C 0.4444 0.73843 0.64449 0.0
H63 H 0.38241 0.91985 0.75349 0.0
H64 H 0.37675 0.89296 0.70368 0.0
H65 H 0.48027 0.89822 0.68933 0.0
H66 H 0.48619 0.92661 0.73882 0.0
H67 H 0.39205 0.91932 0.64282 0.0
H68 H 0.45254 0.83551 0.67486 0.0
H69 H 0.40076 0.83709 0.58435 0.0
H70 H 0.42777 0.77616 0.6735 0.0
H71 H 0.45471 0.81221 0.57339 0.0
H72 H 0.46759 0.75426 0.56417 0.0
H73 H 0.34061 0.84756 0.59285 0.0
H74 H 0.38938 0.94653 0.58242 0.0
H75 H 0.44129 0.71801 0.66446 0.0
H76 H 0.29124 0.8736 0.5723 0.0
H77 H 0.34007 0.97281 0.56074 0.0
C78 C 0.80325 0.42932 0.89095 0.0
C79 C 0.82253 0.40709 0.91108 0.0
C80 C 0.77519 0.417 0.87692 0.0
C81 C 0.76612 0.38203 0.88221 0.0
C82 C 0.78635 0.35976 0.90148 0.0
C83 C 0.81392 0.37221 0.91606 0.0
C84 C 0.73538 0.3688 0.86864 0.0
C85 C 0.72343 0.38328 0.83828 0.0
C86 C 0.69434 0.37089 0.82578 0.0
C87 C 0.6776 0.34308 0.84384 0.0
C88 C 0.68928 0.32786 0.87387 0.0
C89 C 0.71773 0.34139 0.88629 0.0
C90 C 0.67224 0.29736 0.89208 0.0
C91 C 0.63824 0.29465 0.89376 0.0
C92 C 0.69006 0.27038 0.90767 0.0
C93 C 0.67439 0.24166 0.92472 0.0
C94 C 0.64046 0.239 0.92647 0.0
C95 C 0.68124 0.38687 0.794 0.0
C96 C 0.68348 0.42248 0.78517 0.0
C97 C 0.66545 0.36672 0.77263 0.0
C98 C 0.65157 0.38178 0.74378 0.0
C99 C 0.65349 0.41734 0.73525 0.0
C100 C 0.66992 0.4375 0.75606 0.0
C101 C 0.62254 0.26575 0.91067 0.0
H102 H 0.80937 0.45639 0.88691 0.0
H103 H 0.76021 0.43512 0.86266 0.0
H104 H 0.78097 0.33256 0.90545 0.0
H105 H 0.82864 0.35451 0.93118 0.0
H106 H 0.73712 0.40373 0.82393 0.0
H107 H 0.72579 0.33077 0.91022 0.0
H108 H 0.65538 0.33311 0.83445 0.0
H109 H 0.62371 0.31508 0.88241 0.0
H110 H 0.71624 0.27119 0.90634 0.0
H111 H 0.6889 0.22124 0.93614 0.0
H112 H 0.69503 0.43892 0.80113 0.0
H113 H 0.66386 0.33919 0.77807 0.0
H114 H 0.59636 0.2646 0.91187 0.0
H115 H 0.67158 0.46501 0.75024 0.0
H116 H 0.63954 0.36552 0.72796 0.0
C117 C 0.92219 0.57187 0.30899 0.0
C118 C 0.95276 0.56954 0.29448 0.0
C119 C 0.91928 0.58314 0.33953 0.0
C120 C 0.94681 0.59263 0.35633 0.0
C121 C 0.97741 0.59166 0.34152 0.0
C122 C 0.98039 0.58002 0.31081 0.0
C123 C 0.94256 0.6035 0.38917 0.0
C124 C 0.92231 0.58369 0.41191 0.0
C125 C 0.90967 0.59713 0.43924 0.0
C126 C 0.92105 0.62963 0.44563 0.0
C127 C 0.94345 0.64885 0.42429 0.0
C128 C 0.95391 0.63564 0.39588 0.0
C129 C 0.95302 0.68418 0.42993 0.0
C130 C 0.9524 0.711 0.40416 0.0
C131 C 0.96144 0.69161 0.46134 0.0
C132 C 0.96865 0.72523 0.46695 0.0
C133 C 0.96731 0.75211 0.4413 0.0
C134 C 0.88135 0.57949 0.45764 0.0
C135 C 0.85888 0.56036 0.44117 0.0
C136 C 0.87473 0.58377 0.49053 0.0
C137 C 0.84567 0.5709 0.50573 0.0
C138 C 0.82326 0.55264 0.48866 0.0
C139 C 0.83057 0.54673 0.45663 0.0
C140 C 0.95942 0.74458 0.4098 0.0
H141 H 0.90036 0.565 0.29669 0.0
H142 H 0.89531 0.58453 0.35006 0.0
H143 H 0.99894 0.5991 0.35398 0.0
H144 H 1.0043 0.57847 0.30025 0.0
H145 H 0.91474 0.55838 0.40683 0.0
H146 H 0.9696 0.65096 0.37825 0.0
H147 H 0.91094 0.64114 0.46586 0.0
H148 H 0.94559 0.70618 0.37978 0.0
H149 H 0.96223 0.67143 0.48162 0.0
H150 H 0.97439 0.7303 0.49154 0.0
H151 H 0.86196 0.55731 0.41558 0.0
H152 H 0.89147 0.59785 0.50428 0.0
H153 H 0.95844 0.76474 0.38952 0.0
H154 H 0.81325 0.53353 0.44265 0.0
H155 H 0.84029 0.57599 0.53045 0.0
C156 C 0.88134 0.87734 0.74166 0.0
C157 C 0.88078 0.91262 0.7315 0.0
C158 C 0.86908 0.86352 0.77246 0.0
C159 C 0.85629 0.88458 0.79446 0.0
C160 C 0.85536 0.91993 0.78404 0.0
C161 C 0.86724 0.9337 0.75294 0.0
C162 C 0.84474 0.86957 0.82816 0.0
C163 C 0.86054 0.84153 0.84489 0.0
C164 C 0.84997 0.82625 0.87603 0.0
C165 C 0.82332 0.83998 0.89087 0.0
C166 C 0.80744 0.86866 0.87541 0.0
C167 C 0.81828 0.88301 0.84387 0.0
C168 C 0.77982 0.88355 0.89255 0.0
C169 C 0.77997 0.88392 0.92673 0.0
C170 C 0.75305 0.89737 0.87525 0.0
C171 C 0.7274 0.91109 0.89159 0.0
C172 C 0.7276 0.91136 0.92581 0.0
C173 C 0.86683 0.79593 0.89295 0.0
C174 C 0.87868 0.77057 0.87507 0.0
C175 C 0.87143 0.79209 0.92705 0.0
C176 C 0.88745 0.76387 0.94271 0.0
C177 C 0.89951 0.73872 0.92474 0.0
C178 C 0.89481 0.74248 0.89069 0.0
C179 C 0.7543 0.89736 0.94304 0.0
H180 H 0.89106 0.86025 0.7256 0.0
H181 H 0.86954 0.83612 0.77889 0.0
H182 H 0.84617 0.93721 0.80017 0.0
H183 H 0.86663 0.96104 0.74602 0.0
H184 H 0.88179 0.83196 0.83394 0.0
H185 H 0.80614 0.90476 0.83156 0.0
H186 H 0.81444 0.82775 0.91435 0.0
H187 H 0.80018 0.8741 0.94108 0.0
H188 H 0.75165 0.8973 0.84902 0.0
H189 H 0.70761 0.9219 0.87724 0.0
H190 H 0.87513 0.77212 0.84892 0.0
H191 H 0.86316 0.81122 0.94168 0.0
H192 H 0.75539 0.89645 0.96938 0.0
H193 H 0.90319 0.72338 0.87607 0.0
H194 H 0.89092 0.76212 0.96888 0.0
C195 C 0.56449 0.05813 0.3403 0.0
C196 C 0.55619 0.08111 0.31316 0.0
C197 C 0.57246 0.07 0.36991 0.0
C198 C 0.57283 0.10518 0.37281 0.0
C199 C 0.56291 0.12791 0.346 0.0
C200 C 0.5545 0.11596 0.31657 0.0
C201 C 0.58675 0.11849 0.40216 0.0
C202 C 0.61452 0.10379 0.41665 0.0
C203 C 0.63075 0.11881 0.44124 0.0
C204 C 0.61882 0.14847 0.4518 0.0
C205 C 0.59117 0.16364 0.43783 0.0
C206 C 0.5749 0.14812 0.41341 0.0
C207 C 0.58198 0.19763 0.44636 0.0
C208 C 0.5857 0.20571 0.4785 0.0
C209 C 0.57293 0.22343 0.42178 0.0
C210 C 0.56909 0.25679 0.42893 0.0
C211 C 0.57471 0.26501 0.46062 0.0
C212 C 0.66237 0.10611 0.453 0.0
C213 C 0.66683 0.07109 0.46201 0.0
C214 C 0.68882 0.12915 0.45365 0.0
C215 C 0.71935 0.11736 0.46213 0.0
C216 C 0.72405 0.08232 0.47025 0.0
C217 C 0.69745 0.05929 0.47081 0.0
C218 C 0.58246 0.23915 0.48547 0.0
H219 H 0.56564 0.03107 0.33834 0.0
H220 H 0.57932 0.05169 0.39023 0.0
H221 H 0.56337 0.1552 0.34702 0.0
H222 H 0.54849 0.13426 0.29589 0.0
H223 H 0.62498 0.08205 0.40722 0.0
H224 H 0.55344 0.15958 0.40263 0.0
H225 H 0.63221 0.16067 0.4699 0.0
H226 H 0.59197 0.18634 0.49816 0.0
H227 H 0.57032 0.2183 0.39668 0.0
H228 H 0.56303 0.27645 0.40943 0.0
H229 H 0.64676 0.05287 0.46179 0.0
H230 H 0.68619 0.15624 0.44643 0.0
H231 H 0.58631 0.24491 0.51023 0.0
H232 H 0.70062 0.0321 0.47674 0.0
H233 H 0.73952 0.13558 0.46161 0.0
C234 C 0.22637 0.61258 0.16982 0.0
C235 C 0.22641 0.60568 0.13701 0.0
C236 C 0.25447 0.6247 0.18386 0.0
C237 C 0.28315 0.63084 0.16532 0.0
C238 C 0.28342 0.62391 0.13268 0.0
C239 C 0.25554 0.61116 0.11881 0.0
C240 C 0.31234 0.64581 0.17955 0.0
C241 C 0.32467 0.63102 0.20953 0.0
C242 C 0.35192 0.64571 0.22349 0.0
C243 C 0.36614 0.67601 0.20703 0.0
C244 C 0.35445 0.69079 0.17682 0.0
C245 C 0.32763 0.67537 0.1632 0.0
C246 C 0.37031 0.72236 0.15949 0.0
C247 C 0.37993 0.74951 0.17677 0.0
C248 C 0.37615 0.72549 0.12556 0.0
C249 C 0.39122 0.75503 0.10928 0.0
C250 C 0.40075 0.78226 0.12652 0.0
C251 C 0.36582 0.62957 0.25494 0.0
C252 C 0.34597 0.61174 0.27969 0.0
C253 C 0.39926 0.63219 0.26066 0.0
C254 C 0.41227 0.61842 0.2904 0.0
C255 C 0.39248 0.60061 0.3152 0.0
C256 C 0.35914 0.59719 0.30918 0.0
C257 C 0.39494 0.77909 0.16048 0.0
H258 H 0.20447 0.60936 0.1846 0.0
H259 H 0.25353 0.63021 0.20899 0.0
H260 H 0.30533 0.62816 0.11793 0.0
H261 H 0.25701 0.60542 0.09381 0.0
H262 H 0.3134 0.60758 0.2214 0.0
H263 H 0.31794 0.68698 0.14027 0.0
H264 H 0.38659 0.68821 0.2176 0.0
H265 H 0.37538 0.74813 0.20285 0.0
H266 H 0.36949 0.70484 0.11161 0.0
H267 H 0.39576 0.75635 0.08321 0.0
H268 H 0.32009 0.60934 0.27661 0.0
H269 H 0.41569 0.64487 0.24214 0.0
H270 H 0.40146 0.79976 0.17445 0.0
H271 H 0.343 0.58317 0.32719 0.0
H272 H 0.43792 0.62234 0.29394 0.0
C273 C 0.06652 0.24382 0.61727 0.0
C274 C 0.05963 0.23649 0.58549 0.0
C275 C 0.07464 0.2771 0.62304 0.0
C276 C 0.07613 0.30381 0.59712 0.0
C277 C 0.06825 0.2967 0.56547 0.0
C278 C 0.05993 0.26336 0.55973 0.0
C279 C 0.08833 0.33827 0.60289 0.0
C280 C 0.11248 0.35529 0.58216 0.0
C281 C 0.12739 0.38572 0.58976 0.0
C282 C 0.11766 0.39928 0.61806 0.0
C283 C 0.094 0.38241 0.63918 0.0
C284 C 0.07887 0.35236 0.63118 0.0
C285 C 0.08848 0.39401 0.67149 0.0
C286 C 0.11501 0.39887 0.69153 0.0
C287 C 0.05731 0.40054 0.68241 0.0
C288 C 0.05296 0.41311 0.71247 0.0
C289 C 0.07972 0.41891 0.73217 0.0
C290 C 0.1567 0.40048 0.57181 0.0
C291 C 0.18272 0.37949 0.56729 0.0
C292 C 0.16087 0.43599 0.56388 0.0
C293 C 0.19112 0.45037 0.55366 0.0
C294 C 0.21788 0.42951 0.55159 0.0
C295 C 0.21299 0.39382 0.55748 0.0
C296 C 0.11068 0.41098 0.72159 0.0
H297 H 0.06617 0.22366 0.63764 0.0
H298 H 0.08098 0.28163 0.64763 0.0
H299 H 0.06906 0.31682 0.54507 0.0
H300 H 0.05493 0.25841 0.53494 0.0
H301 H 0.12095 0.34395 0.56107 0.0
H302 H 0.06099 0.33901 0.64786 0.0
H303 H 0.13002 0.42194 0.62486 0.0
H304 H 0.13922 0.39326 0.68391 0.0
H305 H 0.03652 0.39683 0.66732 0.0
H306 H 0.02881 0.41913 0.71985 0.0
H307 H 0.18034 0.35208 0.57372 0.0
H308 H 0.14106 0.45271 0.567 0.0
H309 H 0.13169 0.41418 0.73652 0.0
H310 H 0.23299 0.37684 0.55673 0.0
H311 H 0.19382 0.47789 0.54869 0.0
Co312 Co 0.99115 1.00039 0.50026 0.0
C313 C 1.01297 0.9343 0.49678 0.0
Co314 Co 0.03711 0.98887 0.52474 0.0
C315 C 0.92608 0.02245 0.48561 0.0
C316 C 0.94922 1.00145 0.44612 0.0
N317 N 0.9536 0.008 0.47722 0.0
N318 N 0.90507 0.02557 0.46068 0.0
C319 C 0.91949 0.01247 0.43581 0.0
H320 H 0.92197 0.03153 0.50904 0.0
H321 H 0.96683 0.98993 0.43163 0.0
C322 C 1.01518 0.05492 0.52821 0.0
N323 N 0.07504 0.98126 0.54681 0.0
C324 C 0.10222 0.96842 0.5356 0.0
C325 C 0.08252 0.98983 0.5766 0.0
N326 N 0.12655 0.96903 0.55704 0.0
C327 C 0.11426 0.98239 0.58294 0.0
C328 C 0.0466 0.01638 0.46005 0.0
O329 O 0.9915 0.04541 0.51179 0.0
O330 O 0.03735 0.03406 0.53632 0.0
O331 O 0.06116 0.00481 0.48583 0.0
O332 O 1.01587 0.01686 0.46088 0.0
O333 O 0.03669 0.94379 0.51317 0.0
H334 H 0.06616 1.00149 0.59231 0.0
H335 H 0.10447 0.96003 0.51164 0.0
O336 O 0.99086 0.9552 0.48872 0.0
O337 O 0.96678 0.98409 0.54016 0.0
O338 O 1.01323 0.97273 0.5635 0.0
C339 C 0.98255 0.97262 0.56542 0.0
H340 H 0.90924 0.01114 0.41189 0.0
H341 H 0.12732 0.98668 0.60479 0.0
Co342 Co 0.50385 0.00908 1.00711 0.0
C343 C 0.49775 0.95502 0.05697 0.0
Co344 Co 0.53489 0.01516 0.04929 0.0
C345 C 0.48771 0.99752 0.94145 0.0
C346 C 0.44542 1.00003 0.97129 0.0
N347 N 0.478 1.00305 0.97169 0.0
N348 N 0.46261 0.99087 0.92239 0.0
C349 C 0.4359 0.99269 0.94094 0.0
H350 H 0.51276 0.99752 0.93367 0.0
H351 H 0.42961 1.00157 0.99209 0.0
C352 C 0.54092 0.0692 0.99931 0.0
N353 N 0.5607 0.02088 0.08474 0.0
C354 C 0.55135 0.02114 0.11619 0.0
C355 C 0.59305 0.02635 0.08458 0.0
N356 N 0.57655 0.02652 0.13564 0.0
C357 C 0.60288 0.02967 0.11588 0.0
C358 C 0.56558 0.98212 1.00172 0.0
O359 O 0.52002 0.05172 0.98546 0.0
O360 O 0.55056 0.05791 0.02771 0.0
O361 O 0.56962 0.99275 0.02939 0.0
O362 O 0.53833 0.98621 0.98808 0.0
O363 O 0.51901 0.97218 0.07068 0.0
H364 H 0.60846 0.02835 0.06301 0.0
H365 H 0.52651 0.01746 0.12471 0.0
O366 O 0.48782 0.96665 0.02882 0.0
O367 O 0.46967 0.03179 0.02654 0.0
O368 O 0.49992 0.03768 0.06882 0.0
C369 C 0.47298 0.04201 0.05444 0.0
H370 H 0.4114 0.98724 0.93368 0.0
H371 H 0.62732 0.03507 0.12336 0.0
Co372 Co 0.54501 0.51431 0.51591 0.0
C373 C 0.49448 0.52681 0.47158 0.0
Co374 Co 0.49708 0.49498 0.53494 0.0
C375 C 0.6142 0.5288 0.50953 0.0
C376 C 0.58585 0.56614 0.48161 0.0
N377 N 0.58356 0.53567 0.50045 0.0
N378 N 0.63524 0.55415 0.49758 0.0
C379 C 0.61752 0.57753 0.47983 0.0
H380 H 0.62071 0.50676 0.52618 0.0
H381 H 0.56554 0.58019 0.47136 0.0
C382 C 0.54777 0.48207 0.57911 0.0
N383 N 0.45836 0.47379 0.55022 0.0
C384 C 0.42776 0.48142 0.5415 0.0
C385 C 0.45577 0.44268 0.56793 0.0
N386 N 0.40654 0.45604 0.55274 0.0
C387 C 0.42397 0.43165 0.56933 0.0
C388 C 0.53356 0.45025 0.50181 0.0
O389 O 0.56468 0.49897 0.55648 0.0
O390 O 0.51776 0.47704 0.57452 0.0
O391 O 0.50686 0.45525 0.51566 0.0
O392 O 0.55592 0.47323 0.49966 0.0
O393 O 0.47698 0.51311 0.49539 0.0
H394 H 0.47596 0.42779 0.57718 0.0
H395 H 0.42143 0.5038 0.52521 0.0
O396 O 0.5249 0.52926 0.47518 0.0
O397 O 0.5339 0.55511 0.53238 0.0
O398 O 0.48745 0.535 0.55382 0.0
C399 C 0.50837 0.55936 0.54857 0.0
H400 H 0.62673 0.60159 0.46719 0.0
H401 H 0.41455 0.40688 0.58008 0.0
Co402 Co 0.04653 0.52055 0.97917 0.0
C403 C 0.98557 0.48924 0.97508 0.0
Co404 Co 0.01815 0.51639 0.02496 0.0
C405 C 0.06967 0.50308 0.91764 0.0
C406 C 0.08684 0.55273 0.9266 0.0
N407 N 0.06926 0.5252 0.94011 0.0
N408 N 0.08652 0.51579 0.89042 0.0
C409 C 0.09753 0.54701 0.89608 0.0
H410 H 0.05737 0.47831 0.92109 0.0
H411 H 0.09071 0.5759 0.9378 0.0
C412 C 0.07915 0.54783 0.0288 0.0
N413 N 0.99558 0.51159 0.06412 0.0
C414 C 0.99593 0.53299 0.08725 0.0
C415 C 0.97884 0.48355 0.07765 0.0
N416 N 0.98056 0.51923 0.1151 0.0
C417 C 0.96963 0.48811 0.10891 0.0
C418 C 0.05811 0.46078 0.01962 0.0
O419 O 0.08117 0.5428 0.99899 0.0
O420 O 0.05342 0.5384 0.04491 0.0
O421 O 0.03737 0.47308 0.03758 0.0
O422 O 0.06573 0.47742 0.99204 0.0
O423 O 0.98324 0.49425 1.00491 0.0
H424 H 0.97504 0.46057 0.06613 0.0
H425 H 1.00823 0.55774 0.08391 0.0
O426 O 1.01154 0.49848 0.95933 0.0
O427 O 0.02747 0.56332 0.96656 0.0
O428 O 0.99885 0.56003 1.0119 0.0
C429 C 1.00675 0.57616 0.9841 0.0
H430 H 0.11119 0.56502 0.87891 0.0
H431 H 0.9573 0.46907 0.12615 0.0
H432 H 0.1451 0.05855 0.3419 0.0
H433 H 0.06268 0.11447 0.30388 0.0
H434 H 0.03095 0.09203 0.35214 0.0
H435 H 0.02624 0.05714 0.40596 0.0
H436 H 0.10959 0.00455 0.44587 0.0
H437 H 0.14107 0.02548 0.39662 0.0
C438 C 0.12034 0.06622 0.34417 0.0
C439 C 0.1065 0.08801 0.3186 0.0
C440 C 0.10217 0.05382 0.37262 0.0
C441 C 0.07407 0.0971 0.32237 0.0
C442 C 0.05581 0.0845 0.35027 0.0
C443 C 0.05126 0.05016 0.40385 0.0
C444 C 0.06538 0.02914 0.42967 0.0
C445 C 0.06953 0.06279 0.37557 0.0
C446 C 0.098 0.0207 0.42651 0.0
C447 C 0.11608 0.03266 0.39827 0.0
H448 H 0.48071 0.91817 0.79701 0.0
H449 H 0.3953 0.9744 0.76916 0.0
H450 H 0.39688 1.00014 0.81997 0.0
H451 H 0.4211 0.00481 0.8735 0.0
H452 H 0.50752 0.95053 0.90049 0.0
H453 H 0.50755 0.92668 0.84843 0.0
C454 C 0.46277 0.9365 0.80174 0.0
C455 C 0.43763 0.94384 0.77949 0.0
C456 C 0.46403 0.95164 0.83084 0.0
C457 C 0.41445 0.96753 0.78623 0.0
C458 C 0.41543 0.98249 0.81519 0.0
C459 C 0.43994 0.98786 0.8678 0.0
C460 C 0.46412 0.97928 0.89071 0.0
C461 C 0.43979 0.9743 0.83789 0.0
C462 C 0.48878 0.95771 0.88304 0.0
C463 C 0.48868 0.94389 0.85341 0.0
H464 H 0.59288 0.40471 0.71384 0.0
H465 H 0.67958 0.46591 0.68858 0.0
H466 H 0.65464 0.49149 0.63813 0.0
H467 H 0.60834 0.49585 0.6008 0.0
H468 H 0.52113 0.4356 0.62713 0.0
H469 H 0.54613 0.41025 0.67739 0.0
C470 C 0.60635 0.42353 0.69719 0.0
C471 C 0.6381 0.43327 0.70486 0.0
C472 C 0.59175 0.43832 0.6684 0.0
C473 C 0.65506 0.45812 0.68332 0.0
C474 C 0.64084 0.47265 0.65442 0.0
C475 C 0.59478 0.47721 0.61755 0.0
C476 C 0.5629 0.46761 0.61008 0.0
C477 C 0.60922 0.46289 0.64666 0.0
C478 C 0.54565 0.44355 0.63221 0.0
C479 C 0.55996 0.42895 0.66098 0.0
H480 H 0.99204 0.59246 0.24217 0.0
H481 H 0.91908 0.51518 0.2754 0.0
H482 H 0.92014 0.49409 0.2223 0.0
H483 H 0.94101 0.49787 0.16658 0.0
H484 H 0.01685 0.57223 0.134 0.0
H485 H 1.01498 0.59434 0.18651 0.0
C486 C 0.97669 0.57074 0.23791 0.0
C487 C 0.95529 0.5557 0.26265 0.0
C488 C 0.97763 0.55838 0.20733 0.0
C489 C 0.93533 0.52773 0.2566 0.0
C490 C 0.93599 0.51551 0.22627 0.0
C491 C 0.95747 0.51863 0.17085 0.0
C492 C 0.979 0.53313 0.14597 0.0
C493 C 0.95691 0.53075 0.20143 0.0
C494 C 0.99961 0.56062 0.1522 0.0
C495 C 0.9988 0.57321 0.18247 0.0
H496 H 0.36984 0.11231 0.13815 0.0
H497 H 0.30719 0.08229 0.06268 0.0
H498 H 0.35277 0.0587 0.0363 0.0
H499 H 0.41038 0.0459 0.03431 0.0
H500 H 0.47317 0.07304 0.11069 0.0
H501 H 0.42772 0.09786 0.13699 0.0
C502 C 0.366 0.10035 0.11611 0.0
C503 C 0.3348 0.09969 0.10241 0.0
C504 C 0.39249 0.08618 0.10107 0.0
C505 C 0.33078 0.08416 0.07358 0.0
C506 C 0.3569 0.07032 0.05849 0.0
C507 C 0.41425 0.05734 0.05666 0.0
C508 C 0.44539 0.05769 0.07029 0.0
C509 C 0.38789 0.07126 0.07189 0.0
C510 C 0.44962 0.07243 0.09948 0.0
C511 C 0.42356 0.08664 0.11459 0.0
H512 H 0.25956 0.90466 0.5316 0.0
H513 H 0.29183 0.98244 0.59022 0.0
H514 H 0.2375 1.00411 0.591 0.0
H515 H 0.17993 0.99778 0.57956 0.0
H516 H 0.14656 0.91856 0.52353 0.0
H517 H 0.20209 0.90037 0.51751 0.0
C518 C 0.25473 0.92647 0.54437 0.0
C519 C 0.27979 0.94175 0.56089 0.0
C520 C 0.22313 0.93822 0.54564 0.0
C521 C 0.27322 0.97042 0.57684 0.0
C522 C 0.24201 0.9826 0.5777 0.0
C523 C 0.18484 0.97645 0.56617 0.0
C524 C 0.15926 0.95921 0.55241 0.0
C525 C 0.21667 0.96612 0.56298 0.0
C526 C 0.16595 0.9322 0.53433 0.0
C527 C 0.19764 0.92177 0.53096 0.0
H528 H 0.87548 0.44191 0.88321 0.0
H529 H 0.8333 0.40119 0.9764 0.0
H530 H 0.87989 0.42293 1.00469 0.0
H531 H 0.93253 0.45401 1.00288 0.0
H532 H 0.97628 0.49168 0.90937 0.0
H533 H 0.9295 0.47052 0.8813 0.0
C534 C 0.87659 0.43793 0.9097 0.0
C535 C 0.85103 0.42024 0.92778 0.0
C536 C 0.9038 0.44985 0.92572 0.0
C537 C 0.85279 0.41476 0.96206 0.0
C538 C 0.87938 0.4272 0.9782 0.0
C539 C 0.93185 0.45751 0.97636 0.0
C540 C 0.95783 0.47457 0.9583 0.0
C541 C 0.90503 0.44482 0.9603 0.0
C542 C 0.95668 0.47859 0.92392 0.0
C543 C 0.92986 0.4666 0.90781 0.0
H544 H 0.78068 0.59677 0.50714 0.0
H545 H 0.79144 0.49062 0.4959 0.0
H546 H 0.73285 0.48051 0.50201 0.0
H547 H 0.67824 0.50417 0.5019 0.0
H548 H 0.66811 0.61148 0.50823 0.0
H549 H 0.7266 0.61905 0.51278 0.0
C550 C 0.77021 0.57122 0.50721 0.0
C551 C 0.7901 0.54441 0.50132 0.0
C552 C 0.73654 0.56608 0.50907 0.0
C553 C 0.77639 0.51152 0.50065 0.0
C554 C 0.74294 0.50586 0.50382 0.0
C555 C 0.68894 0.52898 0.50491 0.0
C556 C 0.66914 0.55733 0.5042 0.0
C557 C 0.72269 0.53326 0.50667 0.0
C558 C 0.68308 0.58947 0.508 0.0
C559 C 0.71645 0.59376 0.51077 0.0
H560 H 0.14296 0.32974 0.05338 0.0
H561 H 0.0795 0.31679 0.13802 0.0
H562 H 0.05143 0.36836 0.11734 0.0
H563 H 0.045 0.41767 0.07559 0.0
H564 H 0.10774 0.43068 0.99036 0.0
H565 H 0.13577 0.37886 1.01082 0.0
C566 C 0.12309 0.33831 0.06735 0.0
C567 C 0.11338 0.31922 0.09724 0.0
C568 C 0.10678 0.36808 0.05516 0.0
C569 C 0.08731 0.33062 0.1148 0.0
C570 C 0.07128 0.36026 0.10304 0.0
C571 C 0.06473 0.40917 0.06138 0.0
C572 C 0.07417 0.42826 0.03142 0.0
C573 C 0.08076 0.37921 0.07325 0.0
C574 C 0.09982 0.41661 1.01344 0.0
C575 C 0.11597 0.38694 0.02518 0.0
H576 H 0.58846 0.20219 0.90776 0.0
H577 H 0.65572 0.207 0.98658 0.0
H578 H 0.63042 0.15557 1.01629 0.0
H579 H 0.59004 0.10856 0.01949 0.0
H580 H 0.52307 0.10292 0.94047 0.0
H581 H 0.54717 0.15546 0.91148 0.0
C582 C 0.59734 0.19216 0.93159 0.0
C583 C 0.62403 0.20838 0.94486 0.0
C584 C 0.58275 0.1624 0.94852 0.0
C585 C 0.63549 0.19479 0.97561 0.0
C586 C 0.62095 0.16546 0.99269 0.0
C587 C 0.58056 0.11888 0.996 0.0
C588 C 0.55474 0.10176 0.98223 0.0
C589 C 0.59472 0.14891 0.9793 0.0
C590 C 0.54292 0.11551 0.95168 0.0
C591 C 0.55671 0.14557 0.93504 0.0
H592 H 1.01508 0.77804 0.47712 0.0
H593 H 0.93136 0.80678 0.4197 0.0
H594 H 0.93886 0.86577 0.43088 0.0
H595 H 0.96806 0.90877 0.45813 0.0
H596 H 0.05182 0.88066 0.51583 0.0
H597 H 0.0454 0.82182 0.50341 0.0
C598 C 0.99846 0.79724 0.46717 0.0
C599 C 0.97272 0.78805 0.44761 0.0
C600 C 1.00288 0.83117 0.47375 0.0
C601 C 0.95159 0.81326 0.43451 0.0
C602 C 0.95574 0.84696 0.44103 0.0
C603 C 0.98501 0.88983 0.46795 0.0
C604 C 1.01028 0.89908 0.48801 0.0
C605 C 0.98118 0.85615 0.46075 0.0
C606 C 0.03212 0.87423 0.50033 0.0
C607 C 0.02843 0.84056 0.4933 0.0
H608 H 0.50713 0.71064 0.58188 0.0
H609 H 0.41811 0.67375 0.63098 0.0
H610 H 0.42694 0.61647 0.61615 0.0
H611 H 0.45878 0.57773 0.58656 0.0
H612 H 0.54745 0.61608 0.53704 0.0
H613 H 0.53967 0.67194 0.55441 0.0
C614 C 0.48965 0.69005 0.5893 0.0
C615 C 0.46194 0.69639 0.60723 0.0
C616 C 0.49468 0.65749 0.5804 0.0
C617 C 0.43978 0.66938 0.61729 0.0
C618 C 0.44468 0.63673 0.60863 0.0
C619 C 0.4764 0.5983 0.57967 0.0
C620 C 0.50351 0.59272 0.56037 0.0
C621 C 0.47185 0.6306 0.58977 0.0
C622 C 0.52627 0.6196 0.55181 0.0
C623 C 0.5219 0.65164 0.56172 0.0
H624 H 0.93844 0.89844 0.70453 0.0
H625 H 0.85488 0.95994 0.68518 0.0
H626 H 0.8778 0.98312 0.63161 0.0
H627 H 0.92232 0.98612 0.58991 0.0
H628 H 1.00662 0.92609 0.61186 0.0
H629 H 0.98267 0.9021 0.66412 0.0
C630 C 0.92511 0.91675 0.68852 0.0
C631 C 0.89485 0.92722 0.69891 0.0
C632 C 0.93863 0.93029 0.65795 0.0
C633 C 0.87827 0.95151 0.67797 0.0
C634 C 0.89134 0.96468 0.64722 0.0
C635 C 0.9353 0.96765 0.60609 0.0
C636 C 0.96628 0.95793 0.59673 0.0
C637 C 0.92158 0.95429 0.63685 0.0
C638 C 0.98285 0.93422 0.61829 0.0
C639 C 0.96916 0.92039 0.6483 0.0
H640 H 0.59736 0.0426 0.28339 0.0
H641 H 0.50754 0.09474 0.26953 0.0
H642 H 0.50473 0.08021 0.21341 0.0
H643 H 0.52987 0.0559 0.16732 0.0
H644 H 0.62116 0.00659 0.18062 0.0
H645 H 0.62145 0.01666 0.23806 0.0
C646 C 0.57689 0.0502 0.26824 0.0
C647 C 0.55257 0.06948 0.28051 0.0
C648 C 0.57591 0.04253 0.2359 0.0
C649 C 0.52651 0.07987 0.26049 0.0
C650 C 0.52494 0.07161 0.22847 0.0
C651 C 0.54953 0.04693 0.18298 0.0
C652 C 0.57548 0.03055 0.16987 0.0
C653 C 0.54978 0.05342 0.21576 0.0
C654 C 0.60112 0.01953 0.19019 0.0
C655 C 0.60122 0.0252 0.22299 0.0
H656 H 0.45314 0.57553 0.32679 0.0
H657 H 0.36381 0.59324 0.37653 0.0
H658 H 0.38666 0.57022 0.42849 0.0
H659 H 0.43266 0.5467 0.46052 0.0
H660 H 0.52354 0.53509 0.41144 0.0
H661 H 0.49967 0.55509 0.3588 0.0
C662 C 0.43865 0.57503 0.34891 0.0
C663 C 0.40654 0.58621 0.34721 0.0
C664 C 0.45236 0.56301 0.37909 0.0
C665 C 0.38826 0.58425 0.3765 0.0
C666 C 0.40145 0.57137 0.40648 0.0
C667 C 0.44719 0.5485 0.43826 0.0
C668 C 0.4798 0.5393 0.43987 0.0
C669 C 0.43351 0.56083 0.40811 0.0
C670 C 0.49842 0.54212 0.41089 0.0
C671 C 0.48476 0.55347 0.38076 0.0
H672 H 0.11892 0.46657 0.75526 0.0
H673 H 0.03161 0.40553 0.77876 0.0
H674 H 0.02591 0.43041 0.82999 0.0
H675 H 0.04594 0.46932 0.86797 0.0
H676 H 0.13478 0.52796 0.84536 0.0
H677 H 0.13982 0.50379 0.79388 0.0
C678 C 0.09885 0.45828 0.77176 0.0
C679 C 0.07583 0.43406 0.76322 0.0
C680 C 0.09603 0.47222 0.8013 0.0
C681 C 0.04952 0.42436 0.78455 0.0
C682 C 0.04637 0.4384 0.81395 0.0
C683 C 0.06666 0.47648 0.85207 0.0
C684 C 0.08996 0.50047 0.86061 0.0
C685 C 0.06955 0.46227 0.8226 0.0
C686 C 0.11629 0.50991 0.83926 0.0
C687 C 0.11927 0.49598 0.80987 0.0
H688 H 0.66228 0.91029 0.91278 0.0
H689 H 0.73153 0.94704 0.97911 0.0
H690 H 0.68806 0.97026 1.00909 0.0
H691 H 0.63016 0.98129 1.01643 0.0
H692 H 0.5613 0.94733 0.94838 0.0
H693 H 0.60464 0.92255 0.91923 0.0
C694 C 0.66805 0.92368 0.93355 0.0
C695 C 0.7005 0.92642 0.94356 0.0
C696 C 0.64281 0.93765 0.95058 0.0
C697 C 0.70698 0.94363 0.97098 0.0
C698 C 0.68204 0.95726 0.98813 0.0
C699 C 0.62458 0.9683 0.99534 0.0
C700 C 0.59231 0.96613 0.98485 0.0
C701 C 0.64982 0.95441 0.97824 0.0
C702 C 0.58577 0.94945 0.95717 0.0
C703 C 0.61063 0.93523 0.94039 0.0
H704 H 0.77514 0.0982 0.43008 0.0
H705 H 0.74653 0.03802 0.52074 0.0
H706 H 0.80154 0.01669 0.52722 0.0
H707 H 0.85743 0.01391 0.50559 0.0
H708 H 0.88392 0.07148 0.41311 0.0
H709 H 0.83016 0.09568 0.40883 0.0
C710 C 0.7811 0.08071 0.45144 0.0
C711 C 0.75714 0.06983 0.47505 0.0
C712 C 0.81233 0.06822 0.45457 0.0
C713 C 0.76478 0.04663 0.50228 0.0
C714 C 0.79614 0.03455 0.50599 0.0
C715 C 0.8513 0.03206 0.48482 0.0
C716 C 0.87425 0.04114 0.45971 0.0
C717 C 0.82006 0.04502 0.48215 0.0
C718 C 0.86631 0.06421 0.43254 0.0
C719 C 0.83572 0.07797 0.43013 0.0
H720 H 0.20689 0.61924 0.07337 0.0
H721 H 0.17759 0.56327 0.16626 0.0
H722 H 0.12848 0.54303 0.14173 0.0
H723 H 0.09453 0.53917 0.09336 0.0
H724 H 0.12666 0.59046 0.99962 0.0
H725 H 0.17414 0.61395 0.02493 0.0
C726 C 0.19014 0.60221 0.08831 0.0
C727 C 0.1963 0.59302 0.12182 0.0
C728 C 0.1623 0.58967 0.07381 0.0
C729 C 0.17354 0.5715 0.14062 0.0
C730 C 0.14543 0.55958 0.12653 0.0
C731 C 0.11182 0.55571 0.07855 0.0
C732 C 0.107 0.56321 0.04468 0.0
C733 C 0.1396 0.56837 0.09312 0.0
C734 C 0.12983 0.58429 0.02573 0.0
C735 C 0.157 0.59772 0.04019 0.0
H736 H 0.26843 0.40637 0.51829 0.0
H737 H 0.24294 0.4863 0.57587 0.0
H738 H 0.2995 0.50489 0.57715 0.0
H739 H 0.35723 0.49331 0.56864 0.0
H740 H 0.38256 0.40938 0.51693 0.0
H741 H 0.32536 0.39704 0.50697 0.0
C742 C 0.27517 0.42793 0.53106 0.0
C743 C 0.25133 0.44453 0.54726 0.0
C744 C 0.30792 0.43747 0.53313 0.0
C745 C 0.26055 0.47308 0.56288 0.0
C746 C 0.29304 0.48355 0.564 0.0
C747 C 0.34995 0.47282 0.55471 0.0
C748 C 0.37354 0.45214 0.54351 0.0
C749 C 0.31703 0.46522 0.55018 0.0
C750 C 0.36439 0.42537 0.52574 0.0
C751 C 0.33184 0.41836 0.52014 0.0
H752 H 0.95366 0.70949 0.90356 0.0
H753 H 0.88455 0.70016 0.98348 0.0
H754 H 0.91213 0.65035 1.00985 0.0
H755 H 0.95509 0.60776 1.0093 0.0
H756 H 0.02343 0.6177 0.9285 0.0
H757 H 0.99694 0.66842 0.90364 0.0
C758 C 0.94444 0.69648 0.92665 0.0
C759 C 0.91686 0.70867 0.9413 0.0
C760 C 0.96036 0.66772 0.94167 0.0
C761 C 0.90582 0.69169 0.97163 0.0
C762 C 0.92152 0.663 0.98671 0.0
C763 C 0.96434 0.62118 0.98641 0.0
C764 C 0.99128 0.60861 0.97089 0.0
C765 C 0.94876 0.65059 0.97188 0.0
C766 C 1.00275 0.62647 0.94111 0.0
C767 C 0.98757 0.6556 0.92673 0.0
H768 H 0.45127 0.82044 0.14662 0.0
H769 H 0.38488 0.81566 0.06698 0.0
H770 H 0.4097 0.86774 0.03817 0.0
H771 H 0.44935 0.91533 0.03595 0.0
H772 H 0.51493 0.92133 0.11608 0.0
H773 H 0.49108 0.86832 0.14441 0.0
C774 C 0.44204 0.83093 0.12308 0.0
C775 C 0.41622 0.81401 0.10903 0.0
C776 C 0.45625 0.86117 0.10671 0.0
C777 C 0.40498 0.82777 0.07823 0.0
C778 C 0.41904 0.85772 0.06179 0.0
C779 C 0.45856 0.90503 0.05957 0.0
C780 C 0.48394 0.92236 0.07382 0.0
C781 C 0.44461 0.87467 0.07582 0.0
C782 C 0.49543 0.90859 0.1045 0.0
C783 C 0.48178 0.87826 0.12075 0.0
H784 H 1.01294 0.21116 0.54798 0.0
H785 H 0.09446 0.18149 0.60834 0.0
H786 H 0.08718 0.12263 0.59677 0.0
H787 H 0.05886 0.07999 0.56838 0.0
H788 H 0.97717 0.10889 0.50789 0.0
H789 H 0.98334 0.16765 0.52061 0.0
C790 C 0.02909 0.19176 0.55852 0.0
C791 C 0.05415 0.20064 0.57902 0.0
C792 C 0.02479 0.15789 0.55172 0.0
C793 C 0.07473 0.17522 0.59282 0.0
C794 C 0.07071 0.1416 0.58607 0.0
C795 C 0.04231 0.09909 0.55801 0.0
C796 C 0.0177 0.09009 0.53708 0.0
C797 C 0.04597 0.1327 0.56543 0.0
C798 C 0.99635 0.11513 0.52407 0.0
C799 C 0.9999 0.14876 0.53127 0.0
H800 H 0.52446 0.30685 0.4504 0.0
H801 H 0.62166 0.30238 0.48686 0.0
H802 H 0.61885 0.36111 0.50004 0.0
H803 H 0.58751 0.41277 0.50362 0.0
H804 H 0.48862 0.41478 0.47161 0.0
H805 H 0.49328 0.35826 0.45384 0.0
C806 C 0.54502 0.31896 0.461 0.0
C807 C 0.57317 0.30065 0.46771 0.0
C808 C 0.5429 0.35226 0.46923 0.0
C809 C 0.59967 0.31619 0.48174 0.0
C810 C 0.59811 0.34969 0.48917 0.0
C811 C 0.56724 0.40089 0.49233 0.0
C812 C 0.53787 0.41771 0.48869 0.0
C813 C 0.56971 0.36787 0.48333 0.0
C814 C 0.51146 0.40207 0.4746 0.0
C815 C 0.51407 0.36981 0.46451 0.0
loop_
_geom_bond_atom_site_label_1
_geom_bond_atom_site_label_2
_geom_bond_distance
_geom_bond_site_symmetry_2
_ccdc_geom_bond_type
C0 C1 1.386 . S
C0 C2 1.397 . S
C0 H24 0.931 . S
C1 C0 1.386 . S
C1 C5 1.397 . S
C2 C0 1.397 . S
C2 C3 1.384 . S
C2 H25 0.930 . S
C3 C2 1.384 . S
C3 C4 1.377 . S
C3 C6 1.481 . S
C4 C3 1.377 . S
C4 C5 1.389 . S
C4 H26 0.929 . S
C5 C1 1.397 . S
C5 C4 1.389 . S
C5 H27 0.931 . S
C6 C3 1.481 . S
C6 C7 1.387 . S
C6 C11 1.390 . S
C7 C6 1.387 . S
C7 C8 1.401 . S
C7 H28 0.930 . S
C8 C7 1.401 . S
C8 C9 1.376 . S
C8 C17 1.511 . S
C9 C8 1.376 . S
C9 C10 1.392 . S
C9 H30 0.931 . S
C10 C9 1.392 . S
C10 C11 1.361 . S
C10 C12 1.500 . S
C11 C6 1.390 . S
C11 C10 1.361 . S
C11 H29 0.931 . S
C12 C10 1.500 . S
C12 C13 1.371 . S
C12 C14 1.365 . S
C13 C12 1.371 . S
C13 C23 1.386 . S
C13 H31 0.931 . S
C14 C12 1.365 . S
C14 C15 1.409 . S
C14 H32 0.929 . S
C15 C14 1.409 . S
C15 C16 1.380 . S
C15 H33 0.930 . S
C16 C15 1.380 . S
C16 C23 1.357 . S
C17 C8 1.511 . S
C17 C18 1.341 . S
C17 C19 1.371 . S
C18 C17 1.341 . S
C18 C22 1.394 . S
C18 H34 0.930 . S
C19 C17 1.371 . S
C19 C20 1.392 . S
C19 H35 0.931 . S
C20 C19 1.392 . S
C20 C21 1.331 . S
C20 H38 0.932 . S
C21 C20 1.331 . S
C21 C22 1.336 . S
C22 C18 1.394 . S
C22 C21 1.336 . S
C22 H37 0.929 . S
C23 C13 1.386 . S
C23 C16 1.357 . S
C23 H36 0.928 . S
H24 C0 0.931 . S
H25 C2 0.930 . S
H26 C4 0.929 . S
H27 C5 0.931 . S
H28 C7 0.930 . S
H29 C11 0.931 . S
H30 C9 0.931 . S
H31 C13 0.931 . S
H32 C14 0.929 . S
H33 C15 0.930 . S
H34 C18 0.930 . S
H35 C19 0.931 . S
H36 C23 0.928 . S
H37 C22 0.929 . S
H38 C20 0.932 . S
C39 C40 1.386 . S
C39 C41 1.397 . S
C39 H63 0.931 . S
C40 C39 1.386 . S
C40 C44 1.397 . S
C41 C39 1.397 . S
C41 C42 1.384 . S
C41 H64 0.930 . S
C42 C41 1.384 . S
C42 C43 1.377 . S
C42 C45 1.481 . S
C43 C42 1.377 . S
C43 C44 1.389 . S
C43 H65 0.929 . S
C44 C40 1.397 . S
C44 C43 1.389 . S
C44 H66 0.931 . S
C45 C42 1.481 . S
C45 C46 1.387 . S
C45 C50 1.390 . S
C46 C45 1.387 . S
C46 C47 1.401 . S
C46 H67 0.930 . S
C47 C46 1.401 . S
C47 C48 1.376 . S
C47 C56 1.511 . S
C48 C47 1.376 . S
C48 C49 1.392 . S
C48 H69 0.931 . S
C49 C48 1.392 . S
C49 C50 1.361 . S
C49 C51 1.500 . S
C50 C45 1.390 . S
C50 C49 1.361 . S
C50 H68 0.931 . S
C51 C49 1.500 . S
C51 C52 1.371 . S
C51 C53 1.365 . S
C52 C51 1.371 . S
C52 C62 1.386 . S
C52 H70 0.931 . S
C53 C51 1.365 . S
C53 C54 1.409 . S
C53 H71 0.929 . S
C54 C53 1.409 . S
C54 C55 1.380 . S
C54 H72 0.930 . S
C55 C54 1.380 . S
C55 C62 1.357 . S
C56 C47 1.511 . S
C56 C57 1.341 . S
C56 C58 1.371 . S
C57 C56 1.341 . S
C57 C61 1.394 . S
C57 H73 0.930 . S
C58 C56 1.371 . S
C58 C59 1.392 . S
C58 H74 0.931 . S
C59 C58 1.392 . S
C59 C60 1.331 . S
C59 H77 0.932 . S
C60 C59 1.331 . S
C60 C61 1.336 . S
C61 C57 1.394 . S
C61 C60 1.336 . S
C61 H76 0.929 . S
C62 C52 1.386 . S
C62 C55 1.357 . S
C62 H75 0.928 . S
H63 C39 0.931 . S
H64 C41 0.930 . S
H65 C43 0.929 . S
H66 C44 0.931 . S
H67 C46 0.930 . S
H68 C50 0.931 . S
H69 C48 0.931 . S
H70 C52 0.931 . S
H71 C53 0.929 . S
H72 C54 0.930 . S
H73 C57 0.930 . S
H74 C58 0.931 . S
H75 C62 0.928 . S
H76 C61 0.929 . S
H77 C59 0.932 . S
C78 C79 1.386 . S
C78 C80 1.397 . S
C78 H102 0.931 . S
C79 C78 1.386 . S
C79 C83 1.397 . S
C80 C78 1.397 . S
C80 C81 1.384 . S
C80 H103 0.930 . S
C81 C80 1.384 . S
C81 C82 1.377 . S
C81 C84 1.481 . S
C82 C81 1.377 . S
C82 C83 1.389 . S
C82 H104 0.929 . S
C83 C79 1.397 . S
C83 C82 1.389 . S
C83 H105 0.931 . S
C84 C81 1.481 . S
C84 C85 1.387 . S
C84 C89 1.390 . S
C85 C84 1.387 . S
C85 C86 1.401 . S
C85 H106 0.930 . S
C86 C85 1.401 . S
C86 C87 1.376 . S
C86 C95 1.511 . S
C87 C86 1.376 . S
C87 C88 1.392 . S
C87 H108 0.931 . S
C88 C87 1.392 . S
C88 C89 1.361 . S
C88 C90 1.500 . S
C89 C84 1.390 . S
C89 C88 1.361 . S
C89 H107 0.931 . S
C90 C88 1.500 . S
C90 C91 1.371 . S
C90 C92 1.365 . S
C91 C90 1.371 . S
C91 C101 1.386 . S
C91 H109 0.931 . S
C92 C90 1.365 . S
C92 C93 1.409 . S
C92 H110 0.929 . S
C93 C92 1.409 . S
C93 C94 1.380 . S
C93 H111 0.930 . S
C94 C93 1.380 . S
C94 C101 1.357 . S
C95 C86 1.511 . S
C95 C96 1.341 . S
C95 C97 1.371 . S
C96 C95 1.341 . S
C96 C100 1.394 . S
C96 H112 0.930 . S
C97 C95 1.371 . S
C97 C98 1.392 . S
C97 H113 0.931 . S
C98 C97 1.392 . S
C98 C99 1.331 . S
C98 H116 0.932 . S
C99 C98 1.331 . S
C99 C100 1.336 . S
C100 C96 1.394 . S
C100 C99 1.336 . S
C100 H115 0.929 . S
C101 C91 1.386 . S
C101 C94 1.357 . S
C101 H114 0.928 . S
H102 C78 0.931 . S
H103 C80 0.930 . S
H104 C82 0.929 . S
H105 C83 0.931 . S
H106 C85 0.930 . S
H107 C89 0.931 . S
H108 C87 0.931 . S
H109 C91 0.931 . S
H110 C92 0.929 . S
H111 C93 0.930 . S
H112 C96 0.930 . S
H113 C97 0.931 . S
H114 C101 0.928 . S
H115 C100 0.929 . S
H116 C98 0.932 . S
C117 C118 1.386 . S
C117 C119 1.397 . S
C117 H141 0.931 . S
C118 C117 1.386 . S
C118 C122 1.397 . S
C119 C117 1.397 . S
C119 C120 1.384 . S
C119 H142 0.930 . S
C120 C119 1.384 . S
C120 C121 1.377 . S
C120 C123 1.481 . S
C121 C120 1.377 . S
C121 C122 1.389 . S
C121 H143 0.929 . S
C122 C118 1.397 . S
C122 C121 1.389 . S
C122 H144 0.931 . S
C123 C120 1.481 . S
C123 C124 1.387 . S
C123 C128 1.390 . S
C124 C123 1.387 . S
C124 C125 1.401 . S
C124 H145 0.930 . S
C125 C124 1.401 . S
C125 C126 1.376 . S
C125 C134 1.511 . S
C126 C125 1.376 . S
C126 C127 1.392 . S
C126 H147 0.931 . S
C127 C126 1.392 . S
C127 C128 1.361 . S
C127 C129 1.500 . S
C128 C123 1.390 . S
C128 C127 1.361 . S
C128 H146 0.931 . S
C129 C127 1.500 . S
C129 C130 1.371 . S
C129 C131 1.365 . S
C130 C129 1.371 . S
C130 C140 1.386 . S
C130 H148 0.931 . S
C131 C129 1.365 . S
C131 C132 1.409 . S
C131 H149 0.929 . S
C132 C131 1.409 . S
C132 C133 1.380 . S
C132 H150 0.941 . S
C133 C132 1.380 . S
C133 C140 1.357 . S
C134 C125 1.511 . S
C134 C135 1.341 . S
C134 C136 1.371 . S
C135 C134 1.341 . S
C135 C139 1.394 . S
C135 H151 0.930 . S
C136 C134 1.371 . S
C136 C137 1.392 . S
C136 H152 0.931 . S
C137 C136 1.392 . S
C137 C138 1.331 . S
C137 H155 0.932 . S
C138 C137 1.331 . S
C138 C139 1.336 . S
C139 C135 1.394 . S
C139 C138 1.336 . S
C139 H154 0.929 . S
C140 C130 1.386 . S
C140 C133 1.357 . S
C140 H153 0.928 . S
H141 C117 0.931 . S
H142 C119 0.930 . S
H143 C121 0.929 . S
H144 C122 0.931 . S
H145 C124 0.930 . S
H146 C128 0.931 . S
H147 C126 0.931 . S
H148 C130 0.931 . S
H149 C131 0.929 . S
H150 C132 0.941 . S
H151 C135 0.930 . S
H152 C136 0.931 . S
H153 C140 0.928 . S
H154 C139 0.929 . S
H155 C137 0.932 . S
C156 C157 1.386 . S
C156 C158 1.397 . S
C156 H180 0.931 . S
C157 C156 1.386 . S
C157 C161 1.397 . S
C158 C156 1.397 . S
C158 C159 1.384 . S
C158 H181 0.930 . S
C159 C158 1.384 . S
C159 C160 1.377 . S
C159 C162 1.481 . S
C160 C159 1.377 . S
C160 C161 1.389 . S
C160 H182 0.929 . S
C161 C157 1.397 . S
C161 C160 1.389 . S
C161 H183 0.931 . S
C162 C159 1.481 . S
C162 C163 1.387 . S
C162 C167 1.390 . S
C163 C162 1.387 . S
C163 C164 1.401 . S
C163 H184 0.930 . S
C164 C163 1.401 . S
C164 C165 1.376 . S
C164 C173 1.511 . S
C165 C164 1.376 . S
C165 C166 1.392 . S
C165 H186 0.931 . S
C166 C165 1.392 . S
C166 C167 1.361 . S
C166 C168 1.500 . S
C167 C162 1.390 . S
C167 C166 1.361 . S
C167 H185 0.931 . S
C168 C166 1.500 . S
C168 C169 1.371 . S
C168 C170 1.365 . S
C169 C168 1.371 . S
C169 C179 1.386 . S
C169 H187 0.931 . S
C170 C168 1.365 . S
C170 C171 1.409 . S
C170 H188 0.929 . S
C171 C170 1.409 . S
C171 C172 1.380 . S
C171 H189 0.930 . S
C172 C171 1.380 . S
C172 C179 1.357 . S
C173 C164 1.511 . S
C173 C174 1.341 . S
C173 C175 1.371 . S
C174 C173 1.341 . S
C174 C178 1.394 . S
C174 H190 0.930 . S
C175 C173 1.371 . S
C175 C176 1.392 . S
C175 H191 0.931 . S
C176 C175 1.392 . S
C176 C177 1.331 . S
C176 H194 0.932 . S
C177 C176 1.331 . S
C177 C178 1.336 . S
C178 C174 1.394 . S
C178 C177 1.336 . S
C178 H193 0.929 . S
C179 C169 1.386 . S
C179 C172 1.357 . S
C179 H192 0.928 . S
H180 C156 0.931 . S
H181 C158 0.930 . S
H182 C160 0.929 . S
H183 C161 0.931 . S
H184 C163 0.930 . S
H185 C167 0.931 . S
H186 C165 0.931 . S
H187 C169 0.931 . S
H188 C170 0.929 . S
H189 C171 0.930 . S
H190 C174 0.930 . S
H191 C175 0.931 . S
H192 C179 0.928 . S
H193 C178 0.929 . S
H194 C176 0.932 . S
C195 C196 1.386 . S
C195 C197 1.397 . S
C195 H219 0.931 . S
C196 C195 1.386 . S
C196 C200 1.397 . S
C197 C195 1.397 . S
C197 C198 1.384 . S
C197 H220 0.930 . S
C198 C197 1.384 . S
C198 C199 1.377 . S
C198 C201 1.481 . S
C199 C198 1.377 . S
C199 C200 1.389 . S
C199 H221 0.929 . S
C200 C196 1.397 . S
C200 C199 1.389 . S
C200 H222 0.931 . S
C201 C198 1.481 . S
C201 C202 1.387 . S
C201 C206 1.390 . S
C202 C201 1.387 . S
C202 C203 1.401 . S
C202 H223 0.930 . S
C203 C202 1.401 . S
C203 C204 1.376 . S
C203 C212 1.511 . S
C204 C203 1.376 . S
C204 C205 1.392 . S
C204 H225 0.931 . S
C205 C204 1.392 . S
C205 C206 1.361 . S
C205 C207 1.500 . S
C206 C201 1.390 . S
C206 C205 1.361 . S
C206 H224 0.931 . S
C207 C205 1.500 . S
C207 C208 1.371 . S
C207 C209 1.365 . S
C208 C207 1.371 . S
C208 C218 1.386 . S
C208 H226 0.931 . S
C209 C207 1.365 . S
C209 C210 1.409 . S
C209 H227 0.929 . S
C210 C209 1.409 . S
C210 C211 1.380 . S
C210 H228 0.930 . S
C211 C210 1.380 . S
C211 C218 1.357 . S
C212 C203 1.511 . S
C212 C213 1.341 . S
C212 C214 1.371 . S
C213 C212 1.341 . S
C213 C217 1.394 . S
C213 H229 0.930 . S
C214 C212 1.371 . S
C214 C215 1.392 . S
C214 H230 0.931 . S
C215 C214 1.392 . S
C215 C216 1.331 . S
C215 H233 0.932 . S
C216 C215 1.331 . S
C216 C217 1.336 . S
C217 C213 1.394 . S
C217 C216 1.336 . S
C217 H232 0.929 . S
C218 C208 1.386 . S
C218 C211 1.357 . S
C218 H231 0.928 . S
H219 C195 0.931 . S
H220 C197 0.930 . S
H221 C199 0.929 . S
H222 C200 0.931 . S
H223 C202 0.930 . S
H224 C206 0.931 . S
H225 C204 0.931 . S
H226 C208 0.931 . S
H227 C209 0.929 . S
H228 C210 0.930 . S
H229 C213 0.930 . S
H230 C214 0.931 . S
H231 C218 0.928 . S
H232 C217 0.929 . S
H233 C215 0.932 . S
C234 C235 1.386 . S
C234 C236 1.397 . S
C234 H258 0.931 . S
C235 C234 1.386 . S
C235 C239 1.397 . S
C236 C234 1.397 . S
C236 C237 1.384 . S
C236 H259 0.930 . S
C237 C236 1.384 . S
C237 C238 1.377 . S
C237 C240 1.481 . S
C238 C237 1.377 . S
C238 C239 1.389 . S
C238 H260 0.929 . S
C239 C235 1.397 . S
C239 C238 1.389 . S
C239 H261 0.931 . S
C240 C237 1.481 . S
C240 C241 1.387 . S
C240 C245 1.390 . S
C241 C240 1.387 . S
C241 C242 1.401 . S
C241 H262 0.930 . S
C242 C241 1.401 . S
C242 C243 1.376 . S
C242 C251 1.511 . S
C243 C242 1.376 . S
C243 C244 1.392 . S
C243 H264 0.931 . S
C244 C243 1.392 . S
C244 C245 1.361 . S
C244 C246 1.500 . S
C245 C240 1.390 . S
C245 C244 1.361 . S
C245 H263 0.931 . S
C246 C244 1.500 . S
C246 C247 1.371 . S
C246 C248 1.365 . S
C247 C246 1.371 . S
C247 C257 1.386 . S
C247 H265 0.931 . S
C248 C246 1.365 . S
C248 C249 1.409 . S
C248 H266 0.929 . S
C249 C248 1.409 . S
C249 C250 1.380 . S
C249 H267 0.930 . S
C250 C249 1.380 . S
C250 C257 1.357 . S
C251 C242 1.511 . S
C251 C252 1.341 . S
C251 C253 1.371 . S
C252 C251 1.341 . S
C252 C256 1.394 . S
C252 H268 0.930 . S
C253 C251 1.371 . S
C253 C254 1.392 . S
C253 H269 0.931 . S
C254 C253 1.392 . S
C254 C255 1.331 . S
C254 H272 0.932 . S
C255 C254 1.331 . S
C255 C256 1.336 . S
C256 C252 1.394 . S
C256 C255 1.336 . S
C256 H271 0.929 . S
C257 C247 1.386 . S
C257 C250 1.357 . S
C257 H270 0.928 . S
H258 C234 0.931 . S
H259 C236 0.930 . S
H260 C238 0.929 . S
H261 C239 0.931 . S
H262 C241 0.930 . S
H263 C245 0.931 . S
H264 C243 0.931 . S
H265 C247 0.931 . S
H266 C248 0.929 . S
H267 C249 0.930 . S
H268 C252 0.930 . S
H269 C253 0.931 . S
H270 C257 0.928 . S
H271 C256 0.929 . S
H272 C254 0.932 . S
C273 C274 1.386 . S
C273 C275 1.397 . S
C273 H297 0.931 . S
C274 C273 1.386 . S
C274 C278 1.397 . S
C275 C273 1.397 . S
C275 C276 1.384 . S
C275 H298 0.930 . S
C276 C275 1.384 . S
C276 C277 1.377 . S
C276 C279 1.481 . S
C277 C276 1.377 . S
C277 C278 1.389 . S
C277 H299 0.929 . S
C278 C274 1.397 . S
C278 C277 1.389 . S
C278 H300 0.931 . S
C279 C276 1.481 . S
C279 C280 1.387 . S
C279 C284 1.390 . S
C280 C279 1.387 . S
C280 C281 1.401 . S
C280 H301 0.930 . S
C281 C280 1.401 . S
C281 C282 1.376 . S
C281 C290 1.511 . S
C282 C281 1.376 . S
C282 C283 1.392 . S
C282 H303 0.931 . S
C283 C282 1.392 . S
C283 C284 1.361 . S
C283 C285 1.500 . S
C284 C279 1.390 . S
C284 C283 1.361 . S
C284 H302 0.931 . S
C285 C283 1.500 . S
C285 C286 1.371 . S
C285 C287 1.365 . S
C286 C285 1.371 . S
C286 C296 1.386 . S
C286 H304 0.931 . S
C287 C285 1.365 . S
C287 C288 1.409 . S
C287 H305 0.929 . S
C288 C287 1.409 . S
C288 C289 1.380 . S
C288 H306 0.930 . S
C289 C288 1.380 . S
C289 C296 1.357 . S
C290 C281 1.511 . S
C290 C291 1.341 . S
C290 C292 1.371 . S
C291 C290 1.341 . S
C291 C295 1.394 . S
C291 H307 0.930 . S
C292 C290 1.371 . S
C292 C293 1.392 . S
C292 H308 0.931 . S
C293 C292 1.392 . S
C293 C294 1.331 . S
C293 H311 0.932 . S
C294 C293 1.331 . S
C294 C295 1.336 . S
C295 C291 1.394 . S
C295 C294 1.336 . S
C295 H310 0.929 . S
C296 C286 1.386 . S
C296 C289 1.357 . S
C296 H309 0.928 . S
H297 C273 0.931 . S
H298 C275 0.930 . S
H299 C277 0.929 . S
H300 C278 0.931 . S
H301 C280 0.930 . S
H302 C284 0.931 . S
H303 C282 0.931 . S
H304 C286 0.931 . S
H305 C287 0.929 . S
H306 C288 0.930 . S
H307 C291 0.930 . S
H308 C292 0.931 . S
H309 C296 0.928 . S
H310 C295 0.929 . S
H311 C293 0.932 . S
Co312 N317 2.057 . S
Co312 O329 2.021 . S
Co312 O332 2.062 . S
Co312 O336 2.117 1_545 S
Co312 O337 2.020 1_545 S
C313 O333 1.259 1_655 S
C313 O336 1.258 . S
Co314 N323 2.057 . S
Co314 O330 2.117 1_565 S
Co314 O331 2.020 1_565 S
Co314 O333 2.021 . S
Co314 O338 2.062 . S
C315 N317 1.316 . S
C315 N318 1.347 . S
C315 H320 0.931 . S
C316 N317 1.375 1_565 S
C316 C319 1.350 1_565 S
C316 H321 0.930 . S
N317 Co312 2.057 . S
N317 C315 1.316 . S
N317 C316 1.375 1_545 S
N318 C315 1.347 . S
N318 C319 1.373 . S
C319 C316 1.350 1_545 S
C319 N318 1.373 . S
C319 H340 0.931 1_545 S
H320 C315 0.931 . S
H321 C316 0.930 . S
C322 O329 1.259 1_455 S
C322 O330 1.258 . S
N323 Co314 2.057 . S
N323 C324 1.316 . S
N323 C325 1.375 1_565 S
C324 N323 1.316 . S
C324 N326 1.347 . S
C324 H335 0.931 . S
C325 N323 1.375 1_545 S
C325 C327 1.350 1_545 S
C325 H334 0.930 . S
N326 C324 1.347 . S
N326 C327 1.373 . S
C327 C325 1.350 1_565 S
C327 N326 1.373 . S
C327 H341 0.931 1_565 S
C328 O331 1.256 . S
C328 O332 1.255 1_455 S
O329 Co312 2.021 . S
O329 C322 1.259 1_655 S
O330 Co314 2.117 1_545 S
O330 C322 1.258 . S
O331 Co314 2.020 1_545 S
O331 C328 1.256 . S
O332 Co312 2.062 . S
O332 C328 1.255 1_655 S
O333 C313 1.259 1_455 S
O333 Co314 2.021 . S
H334 C325 0.930 . S
H335 C324 0.931 . S
O336 Co312 2.117 1_565 S
O336 C313 1.258 . S
O337 Co312 2.020 1_565 S
O337 C339 1.256 . S
O338 Co314 2.062 . S
O338 C339 1.255 1_455 S
C339 O337 1.256 . S
C339 O338 1.255 1_655 S
H340 C319 0.931 1_565 S
H341 C327 0.931 1_545 S
Co342 N347 2.057 . S
Co342 O359 2.021 1_565 S
Co342 O362 2.062 . S
Co342 O366 2.134 . S
Co342 O367 2.020 1_565 S
C343 O363 1.259 . S
C343 O366 1.228 1_554 S
Co344 N353 2.057 . S
Co344 O360 2.117 . S
Co344 O361 2.020 1_545 S
Co344 O363 2.021 1_545 S
Co344 O368 2.062 . S
C345 N347 1.316 . S
C345 N348 1.347 . S
C345 H350 0.931 1_565 S
C346 N347 1.375 . S
C346 C349 1.350 . S
C346 H351 0.930 . S
N347 Co342 2.057 . S
N347 C345 1.316 . S
N347 C346 1.375 . S
N348 C345 1.347 . S
N348 C349 1.373 . S
C349 C346 1.350 . S
C349 N348 1.373 . S
C349 H370 0.931 . S
H350 C345 0.931 1_545 S
H351 C346 0.930 . S
C352 O359 1.259 . S
C352 O360 1.258 1_556 S
N353 Co344 2.057 . S
N353 C354 1.316 . S
N353 C355 1.375 . S
C354 N353 1.316 . S
C354 N356 1.347 . S
C354 H365 0.931 1_545 S
C355 N353 1.375 . S
C355 C357 1.350 . S
C355 H364 0.930 . S
N356 C354 1.347 . S
N356 C357 1.373 . S
C357 C355 1.350 . S
C357 N356 1.373 . S
C357 H371 0.931 . S
C358 O361 1.256 1_556 S
C358 O362 1.255 . S
O359 Co342 2.021 1_545 S
O359 C352 1.259 . S
O360 Co344 2.117 . S
O360 C352 1.258 1_554 S
O361 Co344 2.020 1_565 S
O361 C358 1.256 1_554 S
O362 Co342 2.062 . S
O362 C358 1.255 . S
O363 C343 1.259 . S
O363 Co344 2.021 1_565 S
H364 C355 0.930 . S
H365 C354 0.931 1_565 S
O366 Co342 2.134 . S
O366 C343 1.228 1_556 S
O367 Co342 2.020 1_545 S
O367 C369 1.256 1_556 S
O368 Co344 2.062 . S
O368 C369 1.255 . S
C369 O367 1.256 1_554 S
C369 O368 1.255 . S
H370 C349 0.931 . S
H371 C357 0.931 . S
Co372 N377 2.057 . S
Co372 O389 2.021 . S
Co372 O392 2.062 . S
Co372 O396 2.117 . S
Co372 O397 2.020 . S
C373 O393 1.259 . S
C373 O396 1.258 . S
Co374 N383 2.057 . S
Co374 O390 2.117 . S
Co374 O391 2.020 . S
Co374 O393 2.021 . S
Co374 O398 2.062 . S
C375 N377 1.316 . S
C375 N378 1.347 . S
C375 H380 0.931 . S
C376 N377 1.375 . S
C376 C379 1.350 . S
C376 H381 0.930 . S
N377 Co372 2.057 . S
N377 C375 1.316 . S
N377 C376 1.375 . S
N378 C375 1.347 . S
N378 C379 1.373 . S
C379 C376 1.350 . S
C379 N378 1.373 . S
C379 H400 0.931 . S
H380 C375 0.931 . S
H381 C376 0.930 . S
C382 O389 1.259 . S
C382 O390 1.258 . S
N383 Co374 2.057 . S
N383 C384 1.316 . S
N383 C385 1.375 . S
C384 N383 1.316 . S
C384 N386 1.347 . S
C384 H395 0.931 . S
C385 N383 1.375 . S
C385 C387 1.350 . S
C385 H394 0.930 . S
N386 C384 1.347 . S
N386 C387 1.373 . S
C387 C385 1.350 . S
C387 N386 1.373 . S
C387 H401 0.931 . S
C388 O391 1.256 . S
C388 O392 1.255 . S
O389 Co372 2.021 . S
O389 C382 1.259 . S
O390 Co374 2.117 . S
O390 C382 1.258 . S
O391 Co374 2.020 . S
O391 C388 1.256 . S
O392 Co372 2.062 . S
O392 C388 1.255 . S
O393 C373 1.259 . S
O393 Co374 2.021 . S
H394 C385 0.930 . S
H395 C384 0.931 . S
O396 Co372 2.117 . S
O396 C373 1.258 . S
O397 Co372 2.020 . S
O397 C399 1.256 . S
O398 Co374 2.062 . S
O398 C399 1.255 . S
C399 O397 1.256 . S
C399 O398 1.255 . S
H400 C379 0.931 . S
H401 C387 0.931 . S
Co402 N407 2.057 . S
Co402 O419 2.021 . S
Co402 O422 2.062 . S
Co402 O426 2.117 1_455 S
Co402 O427 2.020 1_455 S
C403 O423 1.259 1_556 S
C403 O426 1.258 . S
Co404 N413 2.057 . S
Co404 O420 2.117 1_655 S
Co404 O421 2.020 1_655 S
Co404 O423 2.021 . S
Co404 O428 2.062 . S
C405 N407 1.316 . S
C405 N408 1.347 . S
C405 H410 0.931 . S
C406 N407 1.375 1_655 S
C406 C409 1.350 1_655 S
C406 H411 0.930 . S
N407 Co402 2.057 . S
N407 C405 1.316 . S
N407 C406 1.375 1_455 S
N408 C405 1.347 . S
N408 C409 1.373 . S
C409 C406 1.350 1_455 S
C409 N408 1.373 . S
C409 H430 0.931 1_455 S
H410 C405 0.931 . S
H411 C406 0.930 . S
C412 O419 1.259 1_554 S
C412 O420 1.258 . S
N413 Co404 2.057 . S
N413 C414 1.316 . S
N413 C415 1.375 1_655 S
C414 N413 1.316 . S
C414 N416 1.347 . S
C414 H425 0.931 . S
C415 N413 1.375 1_455 S
C415 C417 1.350 1_455 S
C415 H424 0.930 . S
N416 C414 1.347 . S
N416 C417 1.373 . S
C417 C415 1.350 1_655 S
C417 N416 1.373 . S
C417 H431 0.931 1_655 S
C418 O421 1.256 . S
C418 O422 1.255 1_554 S
O419 Co402 2.021 . S
O419 C412 1.259 1_556 S
O420 Co404 2.117 1_455 S
O420 C412 1.258 . S
O421 Co404 2.020 1_455 S
O421 C418 1.256 . S
O422 Co402 2.062 . S
O422 C418 1.255 1_556 S
O423 C403 1.259 1_554 S
O423 Co404 2.021 . S
H424 C415 0.930 . S
H425 C414 0.931 . S
O426 Co402 2.117 1_655 S
O426 C403 1.258 . S
O427 Co402 2.020 1_655 S
O427 C429 1.256 . S
O428 Co404 2.062 . S
O428 C429 1.255 1_554 S
C429 O427 1.256 . S
C429 O428 1.255 1_556 S
H430 C409 0.931 1_655 S
H431 C417 0.931 1_455 S
H432 C438 0.930 . S
H433 C441 0.930 . S
H434 C442 0.930 . S
H435 C443 0.930 . S
H436 C446 0.930 . S
H437 C447 0.930 . S
C438 H432 0.930 . S
C438 C439 1.355 . S
C438 C440 1.415 . S
C439 C438 1.355 . S
C439 C441 1.419 . S
C440 C438 1.415 . S
C440 C445 1.425 . S
C440 C447 1.409 1_545 S
C441 H433 0.930 . S
C441 C439 1.419 . S
C441 C442 1.362 . S
C442 H434 0.930 . S
C442 C441 1.362 . S
C442 C445 1.409 . S
C443 H435 0.930 . S
C443 C444 1.355 . S
C443 C445 1.415 . S
C444 C443 1.355 . S
C444 C446 1.419 1_545 S
C445 C440 1.425 . S
C445 C442 1.409 . S
C445 C443 1.415 . S
C446 H436 0.930 . S
C446 C444 1.419 1_565 S
C446 C447 1.362 . S
C447 H437 0.930 . S
C447 C440 1.409 1_565 S
C447 C446 1.362 . S
H448 C454 0.930 . S
H449 C457 0.930 . S
H450 C458 0.930 . S
H451 C459 0.930 . S
H452 C462 0.930 . S
H453 C463 0.930 . S
C454 H448 0.930 . S
C454 C455 1.355 . S
C454 C456 1.415 . S
C455 C454 1.355 . S
C455 C457 1.419 . S
C456 C454 1.415 . S
C456 C461 1.425 . S
C456 C463 1.409 . S
C457 H449 0.930 . S
C457 C455 1.419 . S
C457 C458 1.362 . S
C458 H450 0.930 . S
C458 C457 1.362 . S
C458 C461 1.409 . S
C459 H451 0.930 . S
C459 C460 1.355 . S
C459 C461 1.415 . S
C460 C459 1.355 . S
C460 C462 1.419 . S
C461 C456 1.425 . S
C461 C458 1.409 . S
C461 C459 1.415 . S
C462 H452 0.930 . S
C462 C460 1.419 . S
C462 C463 1.362 . S
C463 H453 0.930 . S
C463 C456 1.409 . S
C463 C462 1.362 . S
H464 C470 0.930 . S
H465 C473 0.930 . S
H466 C474 0.930 . S
H467 C475 0.930 . S
H468 C478 0.930 . S
H469 C479 0.930 . S
C470 H464 0.930 . S
C470 C471 1.355 . S
C470 C472 1.415 . S
C471 C470 1.355 . S
C471 C473 1.419 . S
C472 C470 1.415 . S
C472 C477 1.425 . S
C472 C479 1.409 . S
C473 H465 0.930 . S
C473 C471 1.419 . S
C473 C474 1.362 . S
C474 H466 0.930 . S
C474 C473 1.362 . S
C474 C477 1.409 . S
C475 H467 0.930 . S
C475 C476 1.355 . S
C475 C477 1.415 . S
C476 C475 1.355 . S
C476 C478 1.419 . S
C477 C472 1.425 . S
C477 C474 1.409 . S
C477 C475 1.415 . S
C478 H468 0.930 . S
C478 C476 1.419 . S
C478 C479 1.362 . S
C479 H469 0.930 . S
C479 C472 1.409 . S
C479 C478 1.362 . S
H480 C486 0.930 . S
H481 C489 0.930 . S
H482 C490 0.930 . S
H483 C491 0.930 . S
H484 C494 0.939 . S
H485 C495 0.930 1_455 S
C486 H480 0.930 . S
C486 C487 1.355 . S
C486 C488 1.415 . S
C487 C486 1.355 . S
C487 C489 1.419 . S
C488 C486 1.415 . S
C488 C493 1.425 . S
C488 C495 1.409 . S
C489 H481 0.930 . S
C489 C487 1.419 . S
C489 C490 1.362 . S
C490 H482 0.930 . S
C490 C489 1.362 . S
C490 C493 1.409 . S
C491 H483 0.930 . S
C491 C492 1.355 . S
C491 C493 1.415 . S
C492 C491 1.355 . S
C492 C494 1.419 . S
C493 C488 1.425 . S
C493 C490 1.409 . S
C493 C491 1.415 . S
C494 H484 0.939 . S
C494 C492 1.419 . S
C494 C495 1.362 . S
C495 H485 0.930 1_655 S
C495 C488 1.409 . S
C495 C494 1.362 . S
H496 C502 0.930 . S
H497 C505 0.930 . S
H498 C506 0.930 1_565 S
H499 C507 0.930 1_565 S
H500 C510 0.930 . S
H501 C511 0.930 . S
C502 H496 0.930 . S
C502 C503 1.355 . S
C502 C504 1.415 . S
C503 C502 1.355 . S
C503 C505 1.419 . S
C504 C502 1.415 . S
C504 C509 1.425 . S
C504 C511 1.409 . S
C505 H497 0.930 . S
C505 C503 1.419 . S
C505 C506 1.362 . S
C506 H498 0.930 1_545 S
C506 C505 1.362 . S
C506 C509 1.409 . S
C507 H499 0.930 1_545 S
C507 C508 1.355 . S
C507 C509 1.415 . S
C508 C507 1.355 . S
C508 C510 1.419 . S
C509 C504 1.425 . S
C509 C506 1.409 . S
C509 C507 1.415 . S
C510 H500 0.930 . S
C510 C508 1.419 . S
C510 C511 1.362 . S
C511 H501 0.930 . S
C511 C504 1.409 . S
C511 C510 1.362 . S
H512 C518 0.930 . S
H513 C521 0.930 . S
H514 C522 0.930 . S
H515 C523 0.930 . S
H516 C526 0.930 . S
H517 C527 0.930 . S
C518 H512 0.930 . S
C518 C519 1.355 . S
C518 C520 1.415 . S
C519 C518 1.355 . S
C519 C521 1.419 . S
C520 C518 1.415 . S
C520 C525 1.425 . S
C520 C527 1.409 . S
C521 H513 0.930 . S
C521 C519 1.419 . S
C521 C522 1.362 . S
C522 H514 0.930 . S
C522 C521 1.362 . S
C522 C525 1.409 . S
C523 H515 0.930 . S
C523 C524 1.355 . S
C523 C525 1.415 . S
C524 C523 1.355 . S
C524 C526 1.419 . S
C525 C520 1.425 . S
C525 C522 1.409 . S
C525 C523 1.415 . S
C526 H516 0.930 . S
C526 C524 1.419 . S
C526 C527 1.362 . S
C527 H517 0.930 . S
C527 C520 1.409 . S
C527 C526 1.362 . S
H528 C534 0.930 . S
H529 C537 0.930 . S
H530 C538 0.930 . S
H531 C539 0.930 . S
H532 C542 0.930 . S
H533 C543 0.930 . S
C534 H528 0.930 . S
C534 C535 1.355 . S
C534 C536 1.415 . S
C535 C534 1.355 . S
C535 C537 1.419 . S
C536 C534 1.415 . S
C536 C541 1.425 . S
C536 C543 1.409 . S
C537 H529 0.930 . S
C537 C535 1.419 . S
C537 C538 1.362 . S
C538 H530 0.930 . S
C538 C537 1.362 . S
C538 C541 1.409 . S
C539 H531 0.930 . S
C539 C540 1.355 . S
C539 C541 1.415 . S
C540 C539 1.355 . S
C540 C542 1.419 . S
C541 C536 1.425 . S
C541 C538 1.409 . S
C541 C539 1.415 . S
C542 H532 0.930 . S
C542 C540 1.419 . S
C542 C543 1.362 . S
C543 H533 0.930 . S
C543 C536 1.409 . S
C543 C542 1.362 . S
H544 C550 0.930 . S
H545 C553 0.930 . S
H546 C554 0.930 . S
H547 C555 0.930 . S
H548 C558 0.930 . S
H549 C559 0.930 . S
C550 H544 0.930 . S
C550 C551 1.355 . S
C550 C552 1.415 . S
C551 C550 1.355 . S
C551 C553 1.419 . S
C552 C550 1.415 . S
C552 C557 1.425 . S
C552 C559 1.409 . S
C553 H545 0.930 . S
C553 C551 1.419 . S
C553 C554 1.362 . S
C554 H546 0.930 . S
C554 C553 1.362 . S
C554 C557 1.409 . S
C555 H547 0.930 . S
C555 C556 1.355 . S
C555 C557 1.415 . S
C556 C555 1.355 . S
C556 C558 1.419 . S
C557 C552 1.425 . S
C557 C554 1.409 . S
C557 C555 1.415 . S
C558 H548 0.930 . S
C558 C556 1.419 . S
C558 C559 1.362 . S
C559 H549 0.930 . S
C559 C552 1.409 . S
C559 C558 1.362 . S
H560 C566 0.930 . S
H561 C569 0.930 . S
H562 C570 0.930 1_655 S
H563 C571 0.930 1_655 S
H564 C574 0.930 . S
H565 C575 0.930 . S
C566 H560 0.930 . S
C566 C567 1.355 . S
C566 C568 1.415 . S
C567 C566 1.355 . S
C567 C569 1.419 . S
C568 C566 1.415 . S
C568 C573 1.425 . S
C568 C575 1.409 . S
C569 H561 0.930 . S
C569 C567 1.419 . S
C569 C570 1.362 . S
C570 H562 0.930 1_455 S
C570 C569 1.362 . S
C570 C573 1.409 . S
C571 H563 0.930 1_455 S
C571 C572 1.355 . S
C571 C573 1.415 . S
C572 C571 1.355 . S
C572 C574 1.419 . S
C573 C568 1.425 . S
C573 C570 1.409 . S
C573 C571 1.415 . S
C574 H564 0.930 . S
C574 C572 1.419 . S
C574 C575 1.362 . S
C575 H565 0.930 . S
C575 C568 1.409 . S
C575 C574 1.362 . S
H576 C582 0.930 . S
H577 C585 0.930 . S
H578 C586 0.930 1_554 S
H579 C587 0.930 1_554 S
H580 C590 0.930 . S
H581 C591 0.930 . S
C582 H576 0.930 . S
C582 C583 1.355 . S
C582 C584 1.415 . S
C583 C582 1.355 . S
C583 C585 1.419 . S
C584 C582 1.415 . S
C584 C589 1.425 . S
C584 C591 1.409 . S
C585 H577 0.930 . S
C585 C583 1.419 . S
C585 C586 1.362 . S
C586 H578 0.930 1_556 S
C586 C585 1.362 . S
C586 C589 1.409 . S
C587 H579 0.930 1_556 S
C587 C588 1.355 . S
C587 C589 1.415 . S
C588 C587 1.355 . S
C588 C590 1.419 . S
C589 C584 1.425 . S
C589 C586 1.409 . S
C589 C587 1.415 . S
C590 H580 0.930 . S
C590 C588 1.419 . S
C590 C591 1.362 . S
C591 H581 0.930 . S
C591 C584 1.409 . S
C591 C590 1.362 . S
H592 C598 0.930 1_455 S
H593 C601 0.930 . S
H594 C602 0.930 . S
H595 C603 0.930 . S
H596 C606 0.930 . S
H597 C607 0.930 . S
C598 H592 0.930 1_655 S
C598 C599 1.355 . S
C598 C600 1.415 . S
C599 C598 1.355 . S
C599 C601 1.419 . S
C600 C598 1.415 . S
C600 C605 1.425 . S
C600 C607 1.409 1_655 S
C601 H593 0.930 . S
C601 C599 1.419 . S
C601 C602 1.362 . S
C602 H594 0.930 . S
C602 C601 1.362 . S
C602 C605 1.409 . S
C603 H595 0.930 . S
C603 C604 1.355 . S
C603 C605 1.415 . S
C604 C603 1.355 . S
C604 C606 1.419 1_655 S
C605 C600 1.425 . S
C605 C602 1.409 . S
C605 C603 1.415 . S
C606 H596 0.930 . S
C606 C604 1.419 1_455 S
C606 C607 1.362 . S
C607 H597 0.930 . S
C607 C600 1.409 1_455 S
C607 C606 1.362 . S
H608 C614 0.930 . S
H609 C617 0.930 . S
H610 C618 0.930 . S
H611 C619 0.930 . S
H612 C622 0.930 . S
H613 C623 0.930 . S
C614 H608 0.930 . S
C614 C615 1.355 . S
C614 C616 1.415 . S
C615 C614 1.355 . S
C615 C617 1.419 . S
C616 C614 1.415 . S
C616 C621 1.425 . S
C616 C623 1.409 . S
C617 H609 0.930 . S
C617 C615 1.419 . S
C617 C618 1.362 . S
C618 H610 0.930 . S
C618 C617 1.362 . S
C618 C621 1.409 . S
C619 H611 0.930 . S
C619 C620 1.355 . S
C619 C621 1.415 . S
C620 C619 1.355 . S
C620 C622 1.419 . S
C621 C616 1.425 . S
C621 C618 1.409 . S
C621 C619 1.415 . S
C622 H612 0.930 . S
C622 C620 1.419 . S
C622 C623 1.362 . S
C623 H613 0.930 . S
C623 C616 1.409 . S
C623 C622 1.362 . S
H624 C630 0.930 . S
H625 C633 0.930 . S
H626 C634 0.930 . S
H627 C635 0.930 . S
H628 C638 0.930 1_455 S
H629 C639 0.930 1_455 S
C630 H624 0.930 . S
C630 C631 1.355 . S
C630 C632 1.415 . S
C631 C630 1.355 . S
C631 C633 1.419 . S
C632 C630 1.415 . S
C632 C637 1.425 . S
C632 C639 1.409 . S
C633 H625 0.930 . S
C633 C631 1.419 . S
C633 C634 1.362 . S
C634 H626 0.930 . S
C634 C633 1.362 . S
C634 C637 1.409 . S
C635 H627 0.930 . S
C635 C636 1.355 . S
C635 C637 1.415 . S
C636 C635 1.355 . S
C636 C638 1.419 . S
C637 C632 1.425 . S
C637 C634 1.409 . S
C637 C635 1.415 . S
C638 H628 0.930 1_655 S
C638 C636 1.419 . S
C638 C639 1.362 . S
C639 H629 0.930 1_655 S
C639 C632 1.409 . S
C639 C638 1.362 . S
H640 C646 0.930 . S
H641 C649 0.930 . S
H642 C650 0.930 . S
H643 C651 0.930 . S
H644 C654 0.930 . S
H645 C655 0.930 . S
C646 H640 0.930 . S
C646 C647 1.355 . S
C646 C648 1.415 . S
C647 C646 1.355 . S
C647 C649 1.419 . S
C648 C646 1.415 . S
C648 C653 1.425 . S
C648 C655 1.409 . S
C649 H641 0.930 . S
C649 C647 1.419 . S
C649 C650 1.362 . S
C650 H642 0.930 . S
C650 C649 1.362 . S
C650 C653 1.409 . S
C651 H643 0.930 . S
C651 C652 1.355 . S
C651 C653 1.415 . S
C652 C651 1.355 . S
C652 C654 1.419 . S
C653 C648 1.425 . S
C653 C650 1.409 . S
C653 C651 1.415 . S
C654 H644 0.930 . S
C654 C652 1.419 . S
C654 C655 1.362 . S
C655 H645 0.930 . S
C655 C648 1.409 . S
C655 C654 1.362 . S
H656 C662 0.930 . S
H657 C665 0.930 . S
H658 C666 0.930 . S
H659 C667 0.930 . S
H660 C670 0.930 . S
H661 C671 0.930 . S
C662 H656 0.930 . S
C662 C663 1.355 . S
C662 C664 1.415 . S
C663 C662 1.355 . S
C663 C665 1.419 . S
C664 C662 1.415 . S
C664 C669 1.425 . S
C664 C671 1.409 . S
C665 H657 0.930 . S
C665 C663 1.419 . S
C665 C666 1.362 . S
C666 H658 0.930 . S
C666 C665 1.362 . S
C666 C669 1.409 . S
C667 H659 0.930 . S
C667 C668 1.355 . S
C667 C669 1.415 . S
C668 C667 1.355 . S
C668 C670 1.419 . S
C669 C664 1.425 . S
C669 C666 1.409 . S
C669 C667 1.415 . S
C670 H660 0.930 . S
C670 C668 1.419 . S
C670 C671 1.362 . S
C671 H661 0.930 . S
C671 C664 1.409 . S
C671 C670 1.362 . S
H672 C678 0.930 . S
H673 C681 0.930 . S
H674 C682 0.930 . S
H675 C683 0.930 . S
H676 C686 0.930 . S
H677 C687 0.930 . S
C678 H672 0.930 . S
C678 C679 1.355 . S
C678 C680 1.415 . S
C679 C678 1.355 . S
C679 C681 1.419 . S
C680 C678 1.415 . S
C680 C685 1.425 . S
C680 C687 1.409 . S
C681 H673 0.930 . S
C681 C679 1.419 . S
C681 C682 1.362 . S
C682 H674 0.930 . S
C682 C681 1.362 . S
C682 C685 1.409 . S
C683 H675 0.930 . S
C683 C684 1.355 . S
C683 C685 1.415 . S
C684 C683 1.355 . S
C684 C686 1.419 . S
C685 C680 1.425 . S
C685 C682 1.409 . S
C685 C683 1.415 . S
C686 H676 0.930 . S
C686 C684 1.419 . S
C686 C687 1.362 . S
C687 H677 0.930 . S
C687 C680 1.409 . S
C687 C686 1.362 . S
H688 C694 0.930 . S
H689 C697 0.930 . S
H690 C698 0.930 1_554 S
H691 C699 0.930 1_554 S
H692 C702 0.930 1_545 S
H693 C703 0.930 . S
C694 H688 0.930 . S
C694 C695 1.355 . S
C694 C696 1.415 . S
C695 C694 1.355 . S
C695 C697 1.419 . S
C696 C694 1.415 . S
C696 C701 1.425 . S
C696 C703 1.409 . S
C697 H689 0.930 . S
C697 C695 1.419 . S
C697 C698 1.362 . S
C698 H690 0.930 1_556 S
C698 C697 1.362 . S
C698 C701 1.409 . S
C699 H691 0.930 1_556 S
C699 C700 1.355 . S
C699 C701 1.415 . S
C700 C699 1.355 . S
C700 C702 1.419 . S
C701 C696 1.425 . S
C701 C698 1.409 . S
C701 C699 1.415 . S
C702 H692 0.930 1_565 S
C702 C700 1.419 . S
C702 C703 1.362 . S
C703 H693 0.930 . S
C703 C696 1.409 . S
C703 C702 1.362 . S
H704 C710 0.930 . S
H705 C713 0.930 . S
H706 C714 0.930 . S
H707 C715 0.930 . S
H708 C718 0.930 . S
H709 C719 0.930 . S
C710 H704 0.930 . S
C710 C711 1.355 . S
C710 C712 1.415 . S
C711 C710 1.355 . S
C711 C713 1.419 . S
C712 C710 1.415 . S
C712 C717 1.425 . S
C712 C719 1.409 . S
C713 H705 0.930 . S
C713 C711 1.419 . S
C713 C714 1.362 . S
C714 H706 0.930 . S
C714 C713 1.362 . S
C714 C717 1.409 . S
C715 H707 0.930 . S
C715 C716 1.355 . S
C715 C717 1.415 . S
C716 C715 1.355 . S
C716 C718 1.419 . S
C717 C712 1.425 . S
C717 C714 1.409 . S
C717 C715 1.415 . S
C718 H708 0.930 . S
C718 C716 1.419 . S
C718 C719 1.362 . S
C719 H709 0.930 . S
C719 C712 1.409 . S
C719 C718 1.362 . S
H720 C726 0.930 . S
H721 C729 0.930 . S
H722 C730 0.930 . S
H723 C731 0.930 . S
H724 C734 0.930 . S
H725 C735 0.930 . S
C726 H720 0.930 . S
C726 C727 1.355 . S
C726 C728 1.415 . S
C727 C726 1.355 . S
C727 C729 1.419 . S
C728 C726 1.415 . S
C728 C733 1.425 . S
C728 C735 1.409 . S
C729 H721 0.930 . S
C729 C727 1.419 . S
C729 C730 1.362 . S
C730 H722 0.930 . S
C730 C729 1.362 . S
C730 C733 1.409 . S
C731 H723 0.930 . S
C731 C732 1.355 . S
C731 C733 1.415 . S
C732 C731 1.355 . S
C732 C734 1.419 . S
C733 C728 1.425 . S
C733 C730 1.409 . S
C733 C731 1.415 . S
C734 H724 0.930 . S
C734 C732 1.419 . S
C734 C735 1.362 . S
C735 H725 0.930 . S
C735 C728 1.409 . S
C735 C734 1.362 . S
H736 C742 0.930 . S
H737 C745 0.930 . S
H738 C746 0.930 . S
H739 C747 0.930 . S
H740 C750 0.930 . S
H741 C751 0.930 . S
C742 H736 0.930 . S
C742 C743 1.355 . S
C742 C744 1.415 . S
C743 C742 1.355 . S
C743 C745 1.419 . S
C744 C742 1.415 . S
C744 C749 1.425 . S
C744 C751 1.409 . S
C745 H737 0.930 . S
C745 C743 1.419 . S
C745 C746 1.362 . S
C746 H738 0.930 . S
C746 C745 1.362 . S
C746 C749 1.409 . S
C747 H739 0.930 . S
C747 C748 1.355 . S
C747 C749 1.415 . S
C748 C747 1.355 . S
C748 C750 1.419 . S
C749 C744 1.425 . S
C749 C746 1.409 . S
C749 C747 1.415 . S
C750 H740 0.930 . S
C750 C748 1.419 . S
C750 C751 1.362 . S
C751 H741 0.930 . S
C751 C744 1.409 . S
C751 C750 1.362 . S
H752 C758 0.930 . S
H753 C761 0.939 . S
H754 C762 0.930 1_554 S
H755 C763 0.930 1_554 S
H756 C766 0.930 . S
H757 C767 0.930 . S
C758 H752 0.930 . S
C758 C759 1.355 . S
C758 C760 1.415 . S
C759 C758 1.355 . S
C759 C761 1.419 . S
C760 C758 1.415 . S
C760 C765 1.425 . S
C760 C767 1.409 . S
C761 H753 0.939 . S
C761 C759 1.419 . S
C761 C762 1.362 . S
C762 H754 0.930 1_556 S
C762 C761 1.362 . S
C762 C765 1.409 . S
C763 H755 0.930 1_556 S
C763 C764 1.355 . S
C763 C765 1.415 . S
C764 C763 1.355 . S
C764 C766 1.419 . S
C765 C760 1.425 . S
C765 C762 1.409 . S
C765 C763 1.415 . S
C766 H756 0.930 . S
C766 C764 1.419 . S
C766 C767 1.362 . S
C767 H757 0.930 . S
C767 C760 1.409 . S
C767 C766 1.362 . S
H768 C774 0.930 . S
H769 C777 0.930 . S
H770 C778 0.930 . S
H771 C779 0.930 . S
H772 C782 0.930 . S
H773 C783 0.930 . S
C774 H768 0.930 . S
C774 C775 1.355 . S
C774 C776 1.415 . S
C775 C774 1.355 . S
C775 C777 1.419 . S
C776 C774 1.415 . S
C776 C781 1.425 . S
C776 C783 1.409 . S
C777 H769 0.930 . S
C777 C775 1.419 . S
C777 C778 1.362 . S
C778 H770 0.930 . S
C778 C777 1.362 . S
C778 C781 1.409 . S
C779 H771 0.930 . S
C779 C780 1.355 . S
C779 C781 1.415 . S
C780 C779 1.355 . S
C780 C782 1.419 . S
C781 C776 1.425 . S
C781 C778 1.409 . S
C781 C779 1.415 . S
C782 H772 0.930 . S
C782 C780 1.419 . S
C782 C783 1.362 . S
C783 H773 0.930 . S
C783 C776 1.409 . S
C783 C782 1.362 . S
H784 C790 0.930 . S
H785 C793 0.930 . S
H786 C794 0.930 . S
H787 C795 0.930 . S
H788 C798 0.930 1_655 S
H789 C799 0.913 1_655 S
C790 H784 0.930 . S
C790 C791 1.355 . S
C790 C792 1.415 . S
C791 C790 1.355 . S
C791 C793 1.419 . S
C792 C790 1.415 . S
C792 C797 1.425 . S
C792 C799 1.424 . S
C793 H785 0.930 . S
C793 C791 1.419 . S
C793 C794 1.362 . S
C794 H786 0.930 . S
C794 C793 1.362 . S
C794 C797 1.409 . S
C795 H787 0.930 . S
C795 C796 1.355 . S
C795 C797 1.415 . S
C796 C795 1.355 . S
C796 C798 1.419 . S
C797 C792 1.425 . S
C797 C794 1.409 . S
C797 C795 1.415 . S
C798 H788 0.930 1_455 S
C798 C796 1.419 . S
C798 C799 1.365 . S
C799 H789 0.913 1_455 S
C799 C792 1.424 . S
C799 C798 1.365 . S
H800 C806 0.930 . S
H801 C809 0.930 . S
H802 C810 0.930 . S
H803 C811 0.930 . S
H804 C814 0.930 . S
H805 C815 0.930 . S
C806 H800 0.930 . S
C806 C807 1.355 . S
C806 C808 1.415 . S
C807 C806 1.355 . S
C807 C809 1.419 . S
C808 C806 1.415 . S
C808 C813 1.425 . S
C808 C815 1.409 . S
C809 H801 0.930 . S
C809 C807 1.419 . S
C809 C810 1.362 . S
C810 H802 0.930 . S
C810 C809 1.362 . S
C810 C813 1.409 . S
C811 H803 0.930 . S
C811 C812 1.355 . S
C811 C813 1.415 . S
C812 C811 1.355 . S
C812 C814 1.419 . S
C813 C808 1.425 . S
C813 C810 1.409 . S
C813 C811 1.415 . S
C814 H804 0.930 . S
C814 C812 1.419 . S
C814 C815 1.362 . S
C815 H805 0.930 . S
C815 C808 1.409 . S
C815 C814 1.362 . S
C439 C1 2.152 . S
C444 C328 2.176 . S
C455 C40 1.120 . S
C460 N348 1.130 . S
C476 C382 2.014 . S
C471 C99 1.999 . S
C487 C118 1.326 . S
C492 N416 1.235 . S
C508 C369 2.349 . S
C503 C16 2.337 . S
C524 N326 1.229 . S
C519 C60 1.263 . S
C540 C403 2.027 . S
C535 C79 2.009 . S
C556 N378 1.064 . S
C551 C138 1.057 . S
C567 C21 1.828 . S
C572 C418 1.844 . S
C588 C352 1.758 . S
C583 C94 1.747 . S
C599 C133 1.475 . S
C604 C313 1.490 . S
C615 C55 1.461 . S
C620 C399 1.481 . S
C636 C339 2.192 . S
C631 C157 2.167 . S
C647 C196 1.173 . S
C652 N356 1.125 . S
C663 C255 1.973 . S
C668 C373 2.005 . S
C679 C289 1.349 . S
C684 N408 1.274 . S
C695 C172 2.330 . S
C700 C358 2.341 . S
C716 N318 1.232 . S
C711 C216 1.252 . S
C732 C412 2.037 . S
C727 C235 2.024 . S
C748 N386 1.072 . S
C743 C294 1.032 . S
C759 C177 1.834 . S
C764 C429 1.851 . S
C780 C343 1.742 . S
C775 C250 1.715 . S
C796 C322 1.485 . S
C791 C274 1.458 . S
C807 C211 1.429 . S
C812 C388 1.462 . S
