# Generated by pormake.
# Topology tsx, (6,3)-cn, num edge types: 1
# Building blocks:
#     Node 0, Type 0, BuildingBlock: FUNLAD_clean_sbu_0, # of connection points: 6
#     Node 1, Type 0, BuildingBlock: FUNLAD_clean_sbu_0, # of connection points: 6
#     Node 2, Type 1, BuildingBlock: BETDAH_clean_linker_0, # of connection points: 3
#     Node 3, Type 1, BuildingBlock: BETDAH_clean_linker_0, # of connection points: 3
#     Node 4, Type 1, BuildingBlock: BETDAH_clean_linker_0, # of connection points: 3
#     Node 5, Type 1, BuildingBlock: BETDAH_clean_linker_0, # of connection points: 3
#     Edge 6, Type (0, 1), BuildingBlock: FUNLAD_clean_linker_0, # of connection points: 2
#     Edge 7, Type (0, 1), BuildingBlock: FUNLAD_clean_linker_0, # of connection points: 2
#     Edge 8, Type (0, 1), BuildingBlock: FUNLAD_clean_linker_0, # of connection points: 2
#     Edge 9, Type (0, 1), BuildingBlock: FUNLAD_clean_linker_0, # of connection points: 2
#     Edge 10, Type (0, 1), BuildingBlock: FUNLAD_clean_linker_0, # of connection points: 2
#     Edge 11, Type (0, 1), BuildingBlock: FUNLAD_clean_linker_0, # of connection points: 2
#     Edge 12, Type (0, 1), BuildingBlock: FUNLAD_clean_linker_0, # of connection points: 2
#     Edge 13, Type (0, 1), BuildingBlock: FUNLAD_clean_linker_0, # of connection points: 2
#     Edge 14, Type (0, 1), BuildingBlock: FUNLAD_clean_linker_0, # of connection points: 2
#     Edge 15, Type (0, 1), BuildingBlock: FUNLAD_clean_linker_0, # of connection points: 2
#     Edge 16, Type (0, 1), BuildingBlock: FUNLAD_clean_linker_0, # of connection points: 2
#     Edge 17, Type (0, 1), BuildingBlock: FUNLAD_clean_linker_0, # of connection points: 2
# Relax obj value: 0.106
# Max RMSD: 0.112
# Mean RMSD: 0.107
data_MOF--net-tsx--node1-FUNLAD_clean_sbu_0--node2-BETDAH_clean_linker_0--edge1-FUNLAD_clean_linker_0
_symmetry_space_group_name_H-M    P1
_symmetry_Int_Tables_number       1
_symmetry_cell_setting            triclinic
loop_
_symmetry_equiv_pos_as_xyz
'x, y, z'
_cell_length_a     22.76648
_cell_length_b     25.189282
_cell_length_c     44.488916
_cell_angle_alpha  90.878739
_cell_angle_beta   100.6946
_cell_angle_gamma 90.293753
loop_
_atom_site_label
_atom_site_type_symbol
_atom_site_fract_x
_atom_site_fract_y
_atom_site_fract_z
_atom_type_partial_charge
C0 C 0.9208 0.93211 0.9913 0.0
N1 N 0.02246 0.99033 0.07379 0.0
C2 C 0.96823 0.99072 0.0825 0.0
C3 C 0.96422 0.99539 0.11329 0.0
C4 C 0.01645 0.00067 0.13559 0.0
C5 C 0.07202 -0.00187 0.1261 0.0
C6 C 0.07401 0.99281 0.09493 0.0
Zn7 Zn 0.02262 0.99547 0.02779 0.0
C8 C 0.09291 0.91424 0.00288 0.0
N9 N 0.01345 0.01324 0.93142 0.0
C10 C 0.96366 0.02776 0.91138 0.0
C11 C 0.06684 0.00755 0.9222 0.0
C12 C 0.07195 0.01724 0.89203 0.0
C13 C 0.02182 0.03359 0.87091 0.0
C14 C 0.96686 0.03819 0.88087 0.0
Zn15 Zn 0.01317 0.00459 0.97726 0.0
O16 O 0.9495 0.94305 0.018 0.0
C17 C 0.9426 0.08532 0.00249 0.0
O18 O 0.93716 0.95293 0.96825 0.0
H19 H 0.1061 -0.00362 0.93843 0.0
H20 H 0.92764 0.98944 0.06548 0.0
H21 H 0.9217 0.03239 0.91919 0.0
O22 O 0.9638 0.06025 0.02655 0.0
O23 O 0.95648 0.0711 0.97719 0.0
H24 H 0.11669 0.99279 0.08757 0.0
O25 O 0.08861 0.05582 0.98702 0.0
O26 O 0.09582 0.04816 0.03659 0.0
O27 O 0.06988 0.93794 0.97852 0.0
O28 O 0.0814 0.93032 0.02841 0.0
C29 C 0.11475 0.06784 0.01405 0.0
H30 H 0.92039 0.99586 0.11945 0.0
H31 H 0.11351 0.00233 0.14241 0.0
H32 H 0.11497 0.01194 0.88537 0.0
H33 H 0.92706 0.051 0.8655 0.0
C34 C 0.41586 0.45083 0.49168 0.0
N35 N 0.52237 0.5194 0.56924 0.0
C36 C 0.47066 0.52685 0.5799 0.0
C37 C 0.47141 0.53161 0.61121 0.0
C38 C 0.52589 0.52867 0.63187 0.0
C39 C 0.57853 0.51995 0.6203 0.0
C40 C 0.57574 0.51549 0.58872 0.0
Zn41 Zn 0.51807 0.51935 0.52303 0.0
C42 C 0.58886 0.43541 0.49969 0.0
N43 N 0.50315 0.52433 0.42599 0.0
C44 C 0.45168 0.53715 0.40672 0.0
C45 C 0.55554 0.5196 0.41565 0.0
C46 C 0.55798 0.52936 0.38515 0.0
C47 C 0.50621 0.54495 0.36497 0.0
C48 C 0.45222 0.54779 0.376 0.0
Zn49 Zn 0.50671 0.5207 0.47228 0.0
O50 O 0.44384 0.46842 0.51728 0.0
C51 C 0.43823 0.60644 0.4946 0.0
O52 O 0.4322 0.46543 0.46713 0.0
H53 H 0.59618 0.50997 0.43131 0.0
H54 H 0.42869 0.52992 0.56404 0.0
H55 H 0.41057 0.5411 0.41543 0.0
O56 O 0.46105 0.58674 0.52021 0.0
O57 O 0.44896 0.58527 0.47018 0.0
H58 H 0.61632 0.50991 0.57973 0.0
O59 O 0.58114 0.57485 0.47867 0.0
O60 O 0.59234 0.57018 0.52854 0.0
O61 O 0.56521 0.45716 0.47489 0.0
O62 O 0.57614 0.45211 0.52487 0.0
C63 C 0.60937 0.58832 0.50511 0.0
H64 H 0.42968 0.53736 0.61916 0.0
H65 H 0.62155 0.51779 0.63544 0.0
H66 H 0.60035 0.52542 0.37763 0.0
H67 H 0.41122 0.56 0.36139 0.0
H68 H 0.10564 0.96928 0.4169 0.0
H69 H 0.93095 0.03628 0.41477 0.0
H70 H 0.01078 0.94083 0.48986 0.0
C71 C 0.06771 0.97699 0.42783 0.0
C72 C 0.06508 0.95277 0.45572 0.0
C73 C 0.01946 0.00691 0.41261 0.0
C74 C 0.96896 0.01412 0.42635 0.0
C75 C 0.96635 0.98997 0.45435 0.0
C76 C 0.01401 0.95948 0.4686 0.0
N77 N 0.91441 0.99155 0.4675 0.0
C78 C 0.88364 0.03784 0.47088 0.0
H79 H 0.97463 0.94156 0.60885 0.0
H80 H 0.10636 0.05101 0.58741 0.0
H81 H 0.06556 0.90654 0.53481 0.0
C82 C 0.00656 0.95268 0.59471 0.0
C83 C 0.01469 0.91912 0.57046 0.0
C84 C 0.03995 -0.00013 0.60137 0.0
C85 C 0.08058 0.0146 0.58255 0.0
C86 C 0.08867 0.98125 0.55793 0.0
C87 C 0.05716 0.9331 0.55282 0.0
N88 N 0.12911 0.99365 0.53826 0.0
C89 C 0.14731 0.04461 0.53242 0.0
H90 H 0.63909 0.46772 0.92208 0.0
H91 H 0.45523 0.51716 0.90496 0.0
H92 H 0.52644 0.43377 0.9869 0.0
C93 C 0.59636 0.47127 0.92931 0.0
C94 C 0.589 0.44855 0.95694 0.0
C95 C 0.54808 0.4943 0.90964 0.0
C96 C 0.49332 0.49986 0.91969 0.0
C97 C 0.48604 0.47878 0.94786 0.0
C98 C 0.53323 0.45188 0.96586 0.0
N99 N 0.43024 0.48069 0.95744 0.0
C100 C 0.39868 0.52755 0.95786 0.0
H101 H 0.41602 0.48456 0.10829 0.0
H102 H 0.51998 0.59952 0.07005 0.0
H103 H 0.44995 0.46088 0.01733 0.0
C104 C 0.43507 0.49815 0.08913 0.0
C105 C 0.42875 0.46696 0.06241 0.0
C106 C 0.46777 0.54582 0.09199 0.0
C107 C 0.49451 0.56278 0.06772 0.0
C108 C 0.48752 0.53197 0.0405 0.0
C109 C 0.45521 0.48425 0.03826 0.0
N110 N 0.51166 0.5473 0.01474 0.0
C111 C 0.54352 0.59377 0.01291 0.0
C112 C 0.18964 0.12422 0.04882 0.0
C113 C 0.16482 0.1063 0.0191 0.0
C114 C 0.23334 0.16406 0.05337 0.0
C115 C 0.25289 0.18681 0.02824 0.0
C116 C 0.23056 0.16684 0.99872 0.0
C117 C 0.18663 0.12717 0.99414 0.0
C118 C 0.29475 0.23261 0.03195 0.0
C119 C 0.29469 0.27009 0.05383 0.0
C120 C 0.33041 0.31972 0.05576 0.0
C121 C 0.30972 0.36478 0.06935 0.0
C122 C 0.34131 0.41264 0.07125 0.0
C123 C 0.3948 0.41624 0.05991 0.0
H124 H 0.40252 0.2887 0.03485 0.0
C125 C 0.41604 0.37093 0.04665 0.0
C126 C 0.38424 0.32305 0.04464 0.0
H127 H 0.45778 0.3722 0.03829 0.0
H128 H 0.17437 0.10839 0.06856 0.0
H129 H 0.25125 0.17728 0.07654 0.0
H130 H 0.24548 0.18332 0.97905 0.0
H131 H 0.16888 0.11374 0.97097 0.0
H132 H 0.32138 0.23833 0.01437 0.0
H133 H 0.26335 0.26667 0.06939 0.0
H134 H 0.26845 0.36321 0.07815 0.0
H135 H 0.32345 0.44699 0.0813 0.0
C136 C 0.14517 0.85163 0.97271 0.0
C137 C 0.13192 0.86792 0.00106 0.0
C138 C 0.18057 0.80718 0.9705 0.0
C139 C 0.20402 0.77807 0.99669 0.0
C140 C 0.1906 0.79424 0.02501 0.0
C141 C 0.15519 0.83885 0.02724 0.0
C142 C 0.23986 0.72925 0.99508 0.0
C143 C 0.27156 0.71961 0.97279 0.0
C144 C 0.30516 0.66979 0.96987 0.0
C145 C 0.3223 0.65796 0.94171 0.0
C146 C 0.35303 0.61124 0.93763 0.0
C147 C 0.36718 0.57575 0.96171 0.0
H148 H 0.31048 0.6421 0.01653 0.0
C149 C 0.35128 0.58746 0.98997 0.0
C150 C 0.32081 0.63418 0.99415 0.0
H151 H 0.36245 0.5605 0.00888 0.0
H152 H 0.1276 0.87286 0.95202 0.0
H153 H 0.18793 0.79517 0.94806 0.0
H154 H 0.20755 0.77225 0.0455 0.0
H155 H 0.14562 0.8502 0.0494 0.0
H156 H 0.23944 0.70063 0.01298 0.0
H157 H 0.27224 0.74901 0.95528 0.0
H158 H 0.31138 0.68472 0.92268 0.0
H159 H 0.36553 0.60281 0.91571 0.0
C160 C 0.85102 0.87555 0.01408 0.0
C161 C 0.86924 0.89513 0.98782 0.0
C162 C 0.8038 0.83948 0.01159 0.0
C163 C 0.77299 0.82227 0.98271 0.0
C164 C 0.7911 0.84171 0.95638 0.0
C165 C 0.83859 0.87812 0.95888 0.0
C166 C 0.72503 0.78125 0.9797 0.0
C167 C 0.69197 0.77372 0.00151 0.0
C168 C 0.65044 0.72814 0.00188 0.0
C169 C 0.60942 0.73051 0.02193 0.0
C170 C 0.5735 0.68665 0.02529 0.0
C171 C 0.57839 0.63977 0.00874 0.0
H172 H 0.68632 0.67664 0.96996 0.0
C173 C 0.61833 0.63715 0.98838 0.0
C174 C 0.65433 0.68091 0.98499 0.0
H175 H 0.62254 0.60089 0.97551 0.0
H176 H 0.87379 0.8875 0.03678 0.0
H177 H 0.79299 0.82404 0.03248 0.0
H178 H 0.76863 0.82853 0.93386 0.0
H179 H 0.85174 0.89233 0.93822 0.0
H180 H 0.71743 0.75668 0.95908 0.0
H181 H 0.69594 0.80194 0.0205 0.0
H182 H 0.60584 0.76612 0.03542 0.0
H183 H 0.54265 0.68912 0.0411 0.0
C184 C 0.88816 0.16577 0.98003 0.0
C185 C 0.90157 0.13 0.00419 0.0
C186 C 0.8489 0.20769 0.98176 0.0
C187 C 0.82197 0.21435 0.0076 0.0
C188 C 0.83494 0.17831 0.03156 0.0
C189 C 0.87487 0.13689 0.03006 0.0
C190 C 0.777 0.25616 0.00902 0.0
C191 C 0.77977 0.30371 0.996 0.0
C192 C 0.73078 0.34306 0.99252 0.0
C193 C 0.74359 0.39576 0.98607 0.0
C194 C 0.69746 0.43168 0.97697 0.0
C195 C 0.63747 0.41536 0.97376 0.0
H196 H 0.65884 0.2874 0.99575 0.0
C197 C 0.62468 0.36375 0.98234 0.0
C198 C 0.67083 0.32785 0.99156 0.0
H199 H 0.57891 0.34978 0.97973 0.0
H200 H 0.90788 0.16133 0.95978 0.0
H201 H 0.83845 0.23388 0.96246 0.0
H202 H 0.81415 0.18223 0.0515 0.0
H203 H 0.88402 0.10972 0.04897 0.0
H204 H 0.74107 0.24734 0.02121 0.0
H205 H 0.81908 0.31383 0.98657 0.0
H206 H 0.78933 0.40856 0.9867 0.0
H207 H 0.70864 0.47146 0.97087 0.0
C208 C 0.69335 0.63761 0.53824 0.0
C209 C 0.66136 0.62487 0.50884 0.0
C210 C 0.74171 0.67289 0.54214 0.0
C211 C 0.75953 0.6961 0.51665 0.0
C212 C 0.72749 0.68344 0.48727 0.0
C213 C 0.67911 0.64794 0.48335 0.0
C214 C 0.80848 0.73625 0.52007 0.0
C215 C 0.85344 0.73899 0.54452 0.0
C216 C 0.89832 0.78281 0.55 0.0
C217 C 0.92707 0.7941 0.58018 0.0
C218 C 0.96611 0.83743 0.58678 0.0
C219 C 0.97768 0.87023 0.56325 0.0
H220 H 0.8926 0.80589 0.50259 0.0
C221 C 0.95112 0.85749 0.5329 0.0
C222 C 0.91204 0.81419 0.52628 0.0
H223 H 0.95891 0.88195 0.51427 0.0
H224 H 0.68065 0.62081 0.5584 0.0
H225 H 0.76365 0.68293 0.56524 0.0
H226 H 0.73981 0.70121 0.46728 0.0
H227 H 0.65528 0.63904 0.4604 0.0
H228 H 0.80593 0.7651 0.50203 0.0
H229 H 0.85589 0.70963 0.5623 0.0
H230 H 0.91801 0.7702 0.59887 0.0
H231 H 0.98673 0.84563 0.61036 0.0
C232 C 0.64821 0.35703 0.52261 0.0
C233 C 0.63236 0.39256 0.49848 0.0
C234 C 0.68806 0.31565 0.52011 0.0
C235 C 0.71302 0.30975 0.49353 0.0
C236 C 0.69857 0.34643 0.47004 0.0
C237 C 0.65837 0.387 0.47233 0.0
C238 C 0.7539 0.26605 0.48897 0.0
C239 C 0.75133 0.21759 0.50093 0.0
C240 C 0.78724 0.17232 0.49285 0.0
C241 C 0.80042 0.1307 0.51357 0.0
C242 C 0.83254 0.08674 0.50632 0.0
C243 C 0.85133 0.08359 0.47812 0.0
H244 H 0.79478 0.19875 0.44726 0.0
C245 C 0.83803 0.12451 0.45716 0.0
C246 C 0.80596 0.16857 0.46437 0.0
H247 H 0.85188 0.12219 0.43515 0.0
H248 H 0.62919 0.36072 0.54312 0.0
H249 H 0.69951 0.2888 0.53902 0.0
H250 H 0.71749 0.34304 0.44947 0.0
H251 H 0.64776 0.41415 0.45347 0.0
H252 H 0.78448 0.27337 0.47341 0.0
H253 H 0.72127 0.2102 0.51674 0.0
H254 H 0.78598 0.13227 0.53544 0.0
H255 H 0.84246 0.0551 0.52269 0.0
C256 C 0.35252 0.37269 0.46862 0.0
C257 C 0.36698 0.41179 0.49171 0.0
C258 C 0.31281 0.33115 0.47185 0.0
C259 C 0.28661 0.3284 0.49818 0.0
C260 C 0.29841 0.36951 0.52013 0.0
C261 C 0.33834 0.41036 0.51709 0.0
C262 C 0.24869 0.28303 0.50466 0.0
C263 C 0.2501 0.23386 0.49241 0.0
C264 C 0.21894 0.18721 0.50277 0.0
C265 C 0.20418 0.14362 0.48266 0.0
C266 C 0.17909 0.09752 0.49228 0.0
C267 C 0.16903 0.09392 0.52231 0.0
H268 H 0.22026 0.21545 0.54942 0.0
C269 C 0.18304 0.13721 0.54251 0.0
C270 C 0.20785 0.18356 0.53287 0.0
H271 H 0.17606 0.1348 0.56589 0.0
H272 H 0.3738 0.37289 0.44877 0.0
H273 H 0.30354 0.30118 0.4539 0.0
H274 H 0.2785 0.36898 0.54044 0.0
H275 H 0.34804 0.4402 0.53516 0.0
H276 H 0.2215 0.28981 0.52196 0.0
H277 H 0.27624 0.22657 0.47474 0.0
H278 H 0.21264 0.14502 0.4595 0.0
H279 H 0.16857 0.0643 0.47639 0.0
C280 C 0.38097 0.6743 0.51896 0.0
C281 C 0.40154 0.65476 0.49306 0.0
C282 C 0.34646 0.72031 0.51716 0.0
C283 C 0.33236 0.74765 0.48943 0.0
C284 C 0.35422 0.72878 0.46386 0.0
C285 C 0.38797 0.68258 0.46554 0.0
C286 C 0.29418 0.79534 0.48599 0.0
C287 C 0.2488 0.80216 0.50114 0.0
C288 C 0.20349 0.84383 0.49253 0.0
C289 C 0.14352 0.83187 0.49302 0.0
C290 C 0.09871 0.8676 0.48149 0.0
C291 C 0.11317 0.91666 0.46993 0.0
H292 H 0.26448 0.90457 0.48222 0.0
C293 C 0.17354 0.92975 0.47088 0.0
C294 C 0.21837 0.89368 0.4821 0.0
H295 H 0.18607 0.9676 0.46261 0.0
H296 H 0.39124 0.65393 0.54055 0.0
H297 H 0.33139 0.73457 0.53749 0.0
H298 H 0.34417 0.74929 0.44229 0.0
H299 H 0.40372 0.66889 0.44525 0.0
H300 H 0.29901 0.82221 0.4677 0.0
H301 H 0.23986 0.77237 0.51714 0.0
H302 H 0.13102 0.79377 0.50103 0.0
H303 H 0.05258 0.85605 0.4808 0.0
C304 C 0.05345 0.98803 0.19205 0.0
C305 C 0.0124 0.01068 0.16824 0.0
C306 C 0.04838 -0.00325 0.22261 0.0
C307 C 0.0021 0.0284 0.23002 0.0
C308 C 0.96133 0.05112 0.20629 0.0
C309 C 0.9667 0.04285 0.17582 0.0
C310 C 0.99269 0.03549 0.26199 0.0
C311 C 0.03752 0.03419 0.28641 0.0
C312 C 0.02817 0.03559 0.31864 0.0
C313 C 0.07662 0.04914 0.34195 0.0
C314 C 0.0724 0.04365 0.37268 0.0
C315 C 0.01971 0.02389 0.38079 0.0
H316 H 0.93619 0.00669 0.30964 0.0
C317 C 0.97007 0.01311 0.35756 0.0
C318 C 0.97423 0.01872 0.3268 0.0
H319 H 0.9292 -0.00306 0.36301 0.0
H320 H 0.08861 0.96241 0.18709 0.0
H321 H 0.07961 0.97723 0.24025 0.0
H322 H 0.92517 0.07547 0.21134 0.0
H323 H 0.93497 0.06192 0.15819 0.0
H324 H 0.94738 0.04304 0.26527 0.0
H325 H 0.08333 0.03179 0.28277 0.0
H326 H 0.11865 0.0623 0.33637 0.0
H327 H 0.11127 0.05273 0.3901 0.0
C328 C 0.98221 0.03101 0.81406 0.0
C329 C 0.02751 0.04568 0.83886 0.0
C330 C 0.9897 0.03912 0.78393 0.0
C331 C 0.04272 0.06224 0.77791 0.0
C332 C 0.08731 0.0779 0.80266 0.0
C333 C 0.07964 0.07021 0.83274 0.0
C334 C 0.05542 0.06551 0.74636 0.0
C335 C 0.01234 0.06974 0.72126 0.0
C336 C 0.02222 0.06271 0.68917 0.0
C337 C 0.07937 0.05773 0.68141 0.0
C338 C 0.0853 0.04165 0.65184 0.0
C339 C 0.03445 0.03036 0.6295 0.0
H340 H 0.92716 0.06055 0.67084 0.0
C341 C 0.97771 0.04011 0.63643 0.0
C342 C 0.97173 0.0562 0.66587 0.0
H343 H 0.93772 0.03237 0.61948 0.0
H344 H 0.94188 0.01133 0.81785 0.0
H345 H 0.95501 0.02499 0.7655 0.0
H346 H 0.12865 0.09558 0.79872 0.0
H347 H 0.11502 0.08307 0.85121 0.0
H348 H 0.1019 0.06248 0.74421 0.0
H349 H 0.96645 0.07483 0.72433 0.0
H350 H 0.11981 0.06393 0.69813 0.0
H351 H 0.1296 0.03453 0.6471 0.0
C352 C 0.56337 0.5008 0.68578 0.0
C353 C 0.52755 0.53439 0.66526 0.0
C354 C 0.56361 0.5049 0.71712 0.0
C355 C 0.52849 0.54326 0.72876 0.0
C356 C 0.49259 0.57674 0.70822 0.0
C357 C 0.49227 0.57256 0.67682 0.0
C358 C 0.52541 0.54677 0.76183 0.0
C359 C 0.56973 0.52973 0.78379 0.0
C360 C 0.56359 0.52358 0.8161 0.0
C361 C 0.59333 0.48125 0.83212 0.0
C362 C 0.58773 0.47197 0.86218 0.0
C363 C 0.55369 0.50591 0.87754 0.0
H364 H 0.50634 0.59128 0.81938 0.0
C365 C 0.52433 0.54899 0.8616 0.0
C366 C 0.52902 0.55767 0.83105 0.0
H367 H 0.49811 0.57611 0.87274 0.0
H368 H 0.58998 0.47022 0.67754 0.0
H369 H 0.58998 0.47667 0.73187 0.0
H370 H 0.46465 0.60621 0.71649 0.0
H371 H 0.46451 0.59934 0.66159 0.0
H372 H 0.48459 0.56194 0.768 0.0
H373 H 0.61079 0.51518 0.77764 0.0
H374 H 0.61981 0.45418 0.82104 0.0
H375 H 0.60934 0.43724 0.87309 0.0
C376 C 0.46218 0.5459 0.3087 0.0
C377 C 0.50916 0.5593 0.33292 0.0
C378 C 0.46587 0.55825 0.27858 0.0
C379 C 0.51668 0.5844 0.27195 0.0
C380 C 0.56347 0.59794 0.29609 0.0
C381 C 0.55957 0.58606 0.32624 0.0
C382 C 0.52417 0.59368 0.23997 0.0
C383 C 0.47749 0.60179 0.21708 0.0
C384 C 0.48051 0.60004 0.18387 0.0
C385 C 0.42675 0.60527 0.16279 0.0
C386 C 0.42387 0.59263 0.13191 0.0
C387 C 0.47492 0.57514 0.12138 0.0
H388 H 0.57552 0.5828 0.18776 0.0
C389 C 0.52994 0.5747 0.14165 0.0
C390 C 0.53286 0.58696 0.1727 0.0
H391 H 0.56969 0.56067 0.13398 0.0
H392 H 0.42321 0.52446 0.31287 0.0
H393 H 0.42978 0.54546 0.26047 0.0
H394 H 0.60326 0.61771 0.2916 0.0
H395 H 0.59618 0.59794 0.34431 0.0
H396 H 0.56936 0.59253 0.23555 0.0
H397 H 0.43342 0.60649 0.22283 0.0
H398 H 0.38579 0.61563 0.17051 0.0
H399 H 0.38086 0.59284 0.11662 0.0
loop_
_geom_bond_atom_site_label_1
_geom_bond_atom_site_label_2
_geom_bond_distance
_geom_bond_site_symmetry_2
_ccdc_geom_bond_type
C0 O16 1.251 . S
C0 O18 1.254 1_554 S
N1 C2 1.332 1_445 S
N1 C6 1.307 . S
N1 Zn7 2.020 . S
C2 N1 1.332 1_665 S
C2 C3 1.380 . S
C2 H20 0.952 . S
C3 C2 1.380 . S
C3 C4 1.390 1_665 S
C3 H30 0.949 . S
C4 C3 1.390 1_445 S
C4 C5 1.357 . S
C5 C4 1.357 . S
C5 C6 1.370 . S
C5 H31 0.950 . S
C6 N1 1.307 . S
C6 C5 1.370 . S
C6 H24 0.948 . S
Zn7 N1 2.020 . S
Zn7 O16 2.039 1_445 S
Zn7 O22 2.034 1_455 S
Zn7 O26 2.025 . S
Zn7 O28 2.024 1_545 S
C8 O27 1.246 1_554 S
C8 O28 1.249 . S
N9 C10 1.300 1_455 S
N9 C11 1.343 . S
N9 Zn15 2.018 . S
C10 N9 1.300 1_655 S
C10 C14 1.370 . S
C10 H21 0.946 1_545 S
C11 N9 1.343 . S
C11 C12 1.379 . S
C11 H19 0.952 . S
C12 C11 1.379 . S
C12 C13 1.390 1_455 S
C12 H32 0.949 . S
C13 C12 1.390 1_655 S
C13 C14 1.357 . S
C14 C10 1.370 . S
C14 C13 1.357 . S
C14 H33 0.950 1_545 S
Zn15 N9 2.018 . S
Zn15 O18 2.025 1_445 S
Zn15 O23 2.024 1_455 S
Zn15 O25 2.039 . S
Zn15 O27 2.034 1_545 S
O16 C0 1.251 . S
O16 Zn7 2.039 1_665 S
C17 O22 1.258 . S
C17 O23 1.236 1_554 S
O18 C0 1.254 1_556 S
O18 Zn15 2.025 1_665 S
H19 C11 0.952 . S
H20 C2 0.952 . S
H21 C10 0.946 1_565 S
O22 Zn7 2.034 1_655 S
O22 C17 1.258 . S
O23 Zn15 2.024 1_655 S
O23 C17 1.236 1_556 S
H24 C6 0.948 . S
O25 Zn15 2.039 . S
O25 C29 1.251 1_556 S
O26 Zn7 2.025 . S
O26 C29 1.254 . S
O27 C8 1.246 1_556 S
O27 Zn15 2.034 1_565 S
O28 Zn7 2.024 1_565 S
O28 C8 1.249 . S
C29 O25 1.251 1_554 S
C29 O26 1.254 . S
H30 C3 0.949 . S
H31 C5 0.950 . S
H32 C12 0.949 . S
H33 C14 0.950 1_565 S
C34 O50 1.251 . S
C34 O52 1.254 . S
N35 C36 1.333 . S
N35 C40 1.307 . S
N35 Zn41 2.020 . S
C36 N35 1.333 . S
C36 C37 1.379 . S
C36 H54 0.952 . S
C37 C36 1.379 . S
C37 C38 1.390 . S
C37 H64 0.949 . S
C38 C37 1.390 . S
C38 C39 1.357 . S
C39 C38 1.357 . S
C39 C40 1.370 . S
C39 H65 0.950 . S
C40 N35 1.307 . S
C40 C39 1.370 . S
C40 H58 0.948 . S
Zn41 N35 2.020 . S
Zn41 O50 2.039 . S
Zn41 O56 2.034 . S
Zn41 O60 2.025 . S
Zn41 O62 2.024 . S
C42 O61 1.246 . S
C42 O62 1.249 . S
N43 C44 1.307 . S
N43 C45 1.333 . S
N43 Zn49 2.020 . S
C44 N43 1.307 . S
C44 C48 1.370 . S
C44 H55 0.948 . S
C45 N43 1.333 . S
C45 C46 1.379 . S
C45 H53 0.952 . S
C46 C45 1.379 . S
C46 C47 1.390 . S
C46 H66 0.949 . S
C47 C46 1.390 . S
C47 C48 1.357 . S
C48 C44 1.370 . S
C48 C47 1.357 . S
C48 H67 0.950 . S
Zn49 N43 2.020 . S
Zn49 O52 2.025 . S
Zn49 O57 2.024 . S
Zn49 O59 2.039 . S
Zn49 O61 2.034 . S
O50 C34 1.251 . S
O50 Zn41 2.039 . S
C51 O56 1.246 . S
C51 O57 1.249 . S
O52 C34 1.254 . S
O52 Zn49 2.025 . S
H53 C45 0.952 . S
H54 C36 0.952 . S
H55 C44 0.948 . S
O56 Zn41 2.034 . S
O56 C51 1.246 . S
O57 Zn49 2.024 . S
O57 C51 1.249 . S
H58 C40 0.948 . S
O59 Zn49 2.039 . S
O59 C63 1.251 . S
O60 Zn41 2.025 . S
O60 C63 1.254 . S
O61 C42 1.246 . S
O61 Zn49 2.034 . S
O62 Zn41 2.024 . S
O62 C42 1.249 . S
C63 O59 1.251 . S
C63 O60 1.254 . S
H64 C37 0.949 . S
H65 C39 0.950 . S
H66 C46 0.949 . S
H67 C48 0.950 . S
H68 C71 0.929 . S
H69 C74 0.929 1_655 S
H70 C76 0.930 . S
C71 H68 0.929 . S
C71 C72 1.398 . S
C71 C73 1.396 1_565 S
C72 C71 1.398 . S
C72 C76 1.407 . S
C73 C71 1.396 1_545 S
C73 C74 1.394 . S
C74 H69 0.929 1_455 S
C74 C73 1.394 . S
C74 C75 1.382 . S
C75 C74 1.382 . S
C75 C76 1.392 1_545 S
C75 N77 1.420 1_455 S
C76 H70 0.930 . S
C76 C72 1.407 . S
C76 C75 1.392 1_565 S
N77 C75 1.420 1_655 S
N77 C78 1.244 . S
C78 N77 1.244 . S
H79 C82 0.929 . S
H80 C85 0.929 . S
H81 C87 0.930 . S
C82 H79 0.929 . S
C82 C83 1.398 . S
C82 C84 1.396 1_565 S
C83 C82 1.398 . S
C83 C87 1.407 . S
C84 C82 1.396 1_545 S
C84 C85 1.394 1_655 S
C85 H80 0.929 . S
C85 C84 1.394 1_455 S
C85 C86 1.382 . S
C86 C85 1.382 . S
C86 C87 1.392 1_445 S
C86 N88 1.420 . S
C87 H81 0.930 . S
C87 C83 1.407 . S
C87 C86 1.392 1_665 S
N88 C86 1.420 . S
N88 C89 1.244 . S
C89 N88 1.244 . S
H90 C93 0.929 . S
H91 C96 0.929 . S
H92 C98 0.930 1_554 S
C93 H90 0.929 . S
C93 C94 1.398 . S
C93 C95 1.396 . S
C94 C93 1.398 . S
C94 C98 1.407 . S
C95 C93 1.396 . S
C95 C96 1.394 . S
C96 H91 0.929 . S
C96 C95 1.394 . S
C96 C97 1.382 . S
C97 C96 1.382 . S
C97 C98 1.392 . S
C97 N99 1.420 . S
C98 H92 0.930 1_556 S
C98 C94 1.407 . S
C98 C97 1.392 . S
N99 C97 1.420 . S
N99 C100 1.244 . S
C100 N99 1.244 . S
H101 C104 0.929 . S
H102 C107 0.929 . S
H103 C109 0.930 . S
C104 H101 0.929 . S
C104 C105 1.398 . S
C104 C106 1.396 . S
C105 C104 1.398 . S
C105 C109 1.407 . S
C106 C104 1.396 . S
C106 C107 1.394 . S
C107 H102 0.929 . S
C107 C106 1.394 . S
C107 C108 1.382 . S
C108 C107 1.382 . S
C108 C109 1.392 . S
C108 N110 1.420 . S
C109 H103 0.930 . S
C109 C105 1.407 . S
C109 C108 1.392 . S
N110 C108 1.420 . S
N110 C111 1.244 . S
C111 N110 1.244 . S
C112 C113 1.386 . S
C112 C114 1.383 . S
C112 H128 0.951 . S
C113 C112 1.386 . S
C113 C117 1.383 1_554 S
C114 C112 1.383 . S
C114 C115 1.402 . S
C114 H129 0.951 . S
C115 C114 1.402 . S
C115 C116 1.375 1_554 S
C115 C118 1.481 . S
C116 C115 1.375 1_556 S
C116 C117 1.367 . S
C116 H130 0.951 . S
C117 C113 1.383 1_556 S
C117 C116 1.367 . S
C117 H131 0.950 . S
C118 C115 1.481 . S
C118 C119 1.297 . S
C118 H132 0.950 1_554 S
C119 C118 1.297 . S
C119 C120 1.479 . S
C119 H133 0.950 . S
C120 C119 1.479 . S
C120 C121 1.375 . S
C120 C126 1.404 . S
C121 C120 1.375 . S
C121 C122 1.369 . S
C121 H134 0.950 . S
C122 C121 1.369 . S
C122 C123 1.392 . S
C122 H135 0.951 . S
C123 C122 1.392 . S
C123 C125 1.384 . S
H124 C126 0.949 1_556 S
C125 C123 1.384 . S
C125 C126 1.385 . S
C125 H127 0.950 1_554 S
C126 C120 1.404 . S
C126 H124 0.949 1_554 S
C126 C125 1.385 . S
H127 C125 0.950 1_556 S
H128 C112 0.951 . S
H129 C114 0.951 . S
H130 C116 0.951 . S
H131 C117 0.950 . S
H132 C118 0.950 1_556 S
H133 C119 0.950 . S
H134 C121 0.950 . S
H135 C122 0.951 . S
C136 C137 1.386 1_556 S
C136 C138 1.383 . S
C136 H152 0.951 . S
C137 C136 1.386 1_554 S
C137 C141 1.383 . S
C138 C136 1.383 . S
C138 C139 1.402 1_556 S
C138 H153 0.951 . S
C139 C138 1.402 1_554 S
C139 C140 1.375 . S
C139 C142 1.481 . S
C140 C139 1.375 . S
C140 C141 1.367 . S
C140 H154 0.951 . S
C141 C137 1.383 . S
C141 C140 1.367 . S
C141 H155 0.950 . S
C142 C139 1.481 . S
C142 C143 1.297 1_554 S
C142 H156 0.950 . S
C143 C142 1.297 1_556 S
C143 C144 1.479 . S
C143 H157 0.950 . S
C144 C143 1.479 . S
C144 C145 1.375 . S
C144 C150 1.404 1_556 S
C145 C144 1.375 . S
C145 C146 1.369 . S
C145 H158 0.950 . S
C146 C145 1.369 . S
C146 C147 1.392 . S
C146 H159 0.951 . S
C147 C146 1.392 . S
C147 C149 1.384 1_556 S
H148 C150 0.949 . S
C149 C147 1.384 1_554 S
C149 C150 1.385 . S
C149 H151 0.950 . S
C150 C144 1.404 1_554 S
C150 H148 0.949 . S
C150 C149 1.385 . S
H151 C149 0.950 . S
H152 C136 0.951 . S
H153 C138 0.951 . S
H154 C140 0.951 . S
H155 C141 0.950 . S
H156 C142 0.950 . S
H157 C143 0.950 . S
H158 C145 0.950 . S
H159 C146 0.951 . S
C160 C161 1.387 . S
C160 C162 1.383 . S
C160 H176 0.951 . S
C161 C160 1.387 . S
C161 C165 1.382 1_554 S
C162 C160 1.383 . S
C162 C163 1.402 1_554 S
C162 H177 0.951 . S
C163 C162 1.402 1_556 S
C163 C164 1.375 . S
C163 C166 1.481 . S
C164 C163 1.375 . S
C164 C165 1.367 . S
C164 H178 0.951 . S
C165 C161 1.382 1_556 S
C165 C164 1.367 . S
C165 H179 0.950 . S
C166 C163 1.481 . S
C166 C167 1.297 . S
C166 H180 0.950 . S
C167 C166 1.297 . S
C167 C168 1.477 1_556 S
C167 H181 0.950 . S
C168 C167 1.477 1_554 S
C168 C169 1.380 . S
C168 C174 1.403 1_554 S
C169 C168 1.380 . S
C169 C170 1.369 . S
C169 H182 0.950 . S
C170 C169 1.369 . S
C170 C171 1.392 . S
C170 H183 0.951 . S
C171 C170 1.392 . S
C171 C173 1.384 . S
H172 C174 0.949 . S
C173 C171 1.384 . S
C173 C174 1.385 1_554 S
C173 H175 0.950 . S
C174 C168 1.403 1_556 S
C174 H172 0.949 . S
C174 C173 1.385 1_556 S
H175 C173 0.950 . S
H176 C160 0.951 . S
H177 C162 0.951 . S
H178 C164 0.951 . S
H179 C165 0.950 . S
H180 C166 0.950 . S
H181 C167 0.950 . S
H182 C169 0.950 . S
H183 C170 0.951 . S
C184 C185 1.386 . S
C184 C186 1.383 . S
C184 H200 0.951 . S
C185 C184 1.386 . S
C185 C189 1.383 1_556 S
C186 C184 1.383 . S
C186 C187 1.402 . S
C186 H201 0.951 . S
C187 C186 1.402 . S
C187 C188 1.375 1_556 S
C187 C190 1.481 . S
C188 C187 1.375 1_554 S
C188 C189 1.367 . S
C188 H202 0.951 . S
C189 C185 1.383 1_554 S
C189 C188 1.367 . S
C189 H203 0.950 . S
C190 C187 1.481 . S
C190 C191 1.297 . S
C190 H204 0.950 1_556 S
C191 C190 1.297 . S
C191 C192 1.479 . S
C191 H205 0.950 . S
C192 C191 1.479 . S
C192 C193 1.375 . S
C192 C198 1.404 . S
C193 C192 1.375 . S
C193 C194 1.369 . S
C193 H206 0.950 . S
C194 C193 1.369 . S
C194 C195 1.392 . S
C194 H207 0.951 . S
C195 C194 1.392 . S
C195 C197 1.384 . S
H196 C198 0.949 . S
C197 C195 1.384 . S
C197 C198 1.385 . S
C197 H199 0.950 . S
C198 C192 1.404 . S
C198 H196 0.949 . S
C198 C197 1.385 . S
H199 C197 0.950 . S
H200 C184 0.951 . S
H201 C186 0.951 . S
H202 C188 0.951 . S
H203 C189 0.950 . S
H204 C190 0.950 1_554 S
H205 C191 0.950 . S
H206 C193 0.950 . S
H207 C194 0.951 . S
C208 C209 1.386 . S
C208 C210 1.383 . S
C208 H224 0.951 . S
C209 C208 1.386 . S
C209 C213 1.383 . S
C210 C208 1.383 . S
C210 C211 1.402 . S
C210 H225 0.951 . S
C211 C210 1.402 . S
C211 C212 1.375 . S
C211 C214 1.481 . S
C212 C211 1.375 . S
C212 C213 1.367 . S
C212 H226 0.951 . S
C213 C209 1.383 . S
C213 C212 1.367 . S
C213 H227 0.950 . S
C214 C211 1.481 . S
C214 C215 1.297 . S
C214 H228 0.950 . S
C215 C214 1.297 . S
C215 C216 1.479 . S
C215 H229 0.950 . S
C216 C215 1.479 . S
C216 C217 1.375 . S
C216 C222 1.404 . S
C217 C216 1.375 . S
C217 C218 1.369 . S
C217 H230 0.950 . S
C218 C217 1.369 . S
C218 C219 1.392 . S
C218 H231 0.951 . S
C219 C218 1.392 . S
C219 C221 1.384 . S
H220 C222 0.949 . S
C221 C219 1.384 . S
C221 C222 1.385 . S
C221 H223 0.950 . S
C222 C216 1.404 . S
C222 H220 0.949 . S
C222 C221 1.385 . S
H223 C221 0.950 . S
H224 C208 0.951 . S
H225 C210 0.951 . S
H226 C212 0.951 . S
H227 C213 0.950 . S
H228 C214 0.950 . S
H229 C215 0.950 . S
H230 C217 0.950 . S
H231 C218 0.951 . S
C232 C233 1.386 . S
C232 C234 1.383 . S
C232 H248 0.951 . S
C233 C232 1.386 . S
C233 C237 1.383 . S
C234 C232 1.383 . S
C234 C235 1.402 . S
C234 H249 0.951 . S
C235 C234 1.402 . S
C235 C236 1.375 . S
C235 C238 1.481 . S
C236 C235 1.375 . S
C236 C237 1.367 . S
C236 H250 0.951 . S
C237 C233 1.383 . S
C237 C236 1.367 . S
C237 H251 0.950 . S
C238 C235 1.481 . S
C238 C239 1.297 . S
C238 H252 0.950 . S
C239 C238 1.297 . S
C239 C240 1.479 . S
C239 H253 0.950 . S
C240 C239 1.479 . S
C240 C241 1.375 . S
C240 C246 1.404 . S
C241 C240 1.375 . S
C241 C242 1.369 . S
C241 H254 0.950 . S
C242 C241 1.369 . S
C242 C243 1.392 . S
C242 H255 0.951 . S
C243 C242 1.392 . S
C243 C245 1.384 . S
H244 C246 0.949 . S
C245 C243 1.384 . S
C245 C246 1.385 . S
C245 H247 0.950 . S
C246 C240 1.404 . S
C246 H244 0.949 . S
C246 C245 1.385 . S
H247 C245 0.950 . S
H248 C232 0.951 . S
H249 C234 0.951 . S
H250 C236 0.951 . S
H251 C237 0.950 . S
H252 C238 0.950 . S
H253 C239 0.950 . S
H254 C241 0.950 . S
H255 C242 0.951 . S
C256 C257 1.386 . S
C256 C258 1.383 . S
C256 H272 0.951 . S
C257 C256 1.386 . S
C257 C261 1.383 . S
C258 C256 1.383 . S
C258 C259 1.402 . S
C258 H273 0.951 . S
C259 C258 1.402 . S
C259 C260 1.375 . S
C259 C262 1.481 . S
C260 C259 1.375 . S
C260 C261 1.367 . S
C260 H274 0.951 . S
C261 C257 1.383 . S
C261 C260 1.367 . S
C261 H275 0.950 . S
C262 C259 1.481 . S
C262 C263 1.297 . S
C262 H276 0.950 . S
C263 C262 1.297 . S
C263 C264 1.479 . S
C263 H277 0.950 . S
C264 C263 1.479 . S
C264 C265 1.375 . S
C264 C270 1.404 . S
C265 C264 1.375 . S
C265 C266 1.369 . S
C265 H278 0.950 . S
C266 C265 1.369 . S
C266 C267 1.392 . S
C266 H279 0.951 . S
C267 C266 1.392 . S
C267 C269 1.384 . S
H268 C270 0.949 . S
C269 C267 1.384 . S
C269 C270 1.385 . S
C269 H271 0.950 . S
C270 C264 1.404 . S
C270 H268 0.949 . S
C270 C269 1.385 . S
H271 C269 0.950 . S
H272 C256 0.951 . S
H273 C258 0.951 . S
H274 C260 0.951 . S
H275 C261 0.950 . S
H276 C262 0.950 . S
H277 C263 0.950 . S
H278 C265 0.950 . S
H279 C266 0.951 . S
C280 C281 1.386 . S
C280 C282 1.383 . S
C280 H296 0.951 . S
C281 C280 1.386 . S
C281 C285 1.383 . S
C282 C280 1.383 . S
C282 C283 1.402 . S
C282 H297 0.951 . S
C283 C282 1.402 . S
C283 C284 1.375 . S
C283 C286 1.481 . S
C284 C283 1.375 . S
C284 C285 1.367 . S
C284 H298 0.951 . S
C285 C281 1.383 . S
C285 C284 1.367 . S
C285 H299 0.950 . S
C286 C283 1.481 . S
C286 C287 1.297 . S
C286 H300 0.950 . S
C287 C286 1.297 . S
C287 C288 1.479 . S
C287 H301 0.950 . S
C288 C287 1.479 . S
C288 C289 1.375 . S
C288 C294 1.404 . S
C289 C288 1.375 . S
C289 C290 1.369 . S
C289 H302 0.950 . S
C290 C289 1.369 . S
C290 C291 1.392 . S
C290 H303 0.951 . S
C291 C290 1.392 . S
C291 C293 1.384 . S
H292 C294 0.949 . S
C293 C291 1.384 . S
C293 C294 1.385 . S
C293 H295 0.950 . S
C294 C288 1.404 . S
C294 H292 0.949 . S
C294 C293 1.385 . S
H295 C293 0.950 . S
H296 C280 0.951 . S
H297 C282 0.951 . S
H298 C284 0.951 . S
H299 C285 0.950 . S
H300 C286 0.950 . S
H301 C287 0.950 . S
H302 C289 0.950 . S
H303 C290 0.951 . S
C304 C305 1.386 1_565 S
C304 C306 1.383 1_565 S
C304 H320 0.951 . S
C305 C304 1.386 1_545 S
C305 C309 1.383 1_455 S
C306 C304 1.383 1_545 S
C306 C307 1.402 . S
C306 H321 0.951 1_545 S
C307 C306 1.402 . S
C307 C308 1.375 1_455 S
C307 C310 1.481 . S
C308 C307 1.375 1_655 S
C308 C309 1.367 . S
C308 H322 0.951 . S
C309 C305 1.383 1_655 S
C309 C308 1.367 . S
C309 H323 0.950 . S
C310 C307 1.481 . S
C310 C311 1.297 . S
C310 H324 0.950 1_455 S
C311 C310 1.297 . S
C311 C312 1.479 . S
C311 H325 0.950 . S
C312 C311 1.479 . S
C312 C313 1.383 . S
C312 C318 1.404 . S
C313 C312 1.383 . S
C313 C314 1.367 1_545 S
C313 H326 0.944 1_545 S
C314 C313 1.367 1_565 S
C314 C315 1.392 1_565 S
C314 H327 0.951 . S
C315 C314 1.392 1_545 S
C315 C317 1.384 . S
H316 C318 0.949 1_655 S
C317 C315 1.384 . S
C317 C318 1.385 . S
C317 H319 0.950 1_455 S
C318 C312 1.404 . S
C318 H316 0.949 1_455 S
C318 C317 1.385 . S
H319 C317 0.950 1_655 S
H320 C304 0.951 . S
H321 C306 0.951 1_565 S
H322 C308 0.951 . S
H323 C309 0.950 . S
H324 C310 0.950 1_655 S
H325 C311 0.950 . S
H326 C313 0.944 1_565 S
H327 C314 0.951 . S
C328 C329 1.386 1_565 S
C328 C330 1.381 1_565 S
C328 H344 0.951 . S
C329 C328 1.386 1_545 S
C329 C333 1.383 1_655 S
C330 C328 1.381 1_545 S
C330 C331 1.410 . S
C330 H345 0.944 1_545 S
C331 C330 1.410 . S
C331 C332 1.375 1_655 S
C331 C334 1.481 1_655 S
C332 C331 1.375 1_455 S
C332 C333 1.367 . S
C332 H346 0.951 . S
C333 C329 1.383 1_455 S
C333 C332 1.367 . S
C333 H347 0.950 . S
C334 C331 1.481 1_455 S
C334 C335 1.297 1_455 S
C334 H348 0.950 . S
C335 C334 1.297 1_655 S
C335 C336 1.479 . S
C335 H349 0.950 . S
C336 C335 1.479 . S
C336 C337 1.375 1_545 S
C336 C342 1.404 1_655 S
C337 C336 1.375 1_565 S
C337 C338 1.369 . S
C337 H350 0.950 . S
C338 C337 1.369 . S
C338 C339 1.392 1_565 S
C338 H351 0.951 . S
C339 C338 1.392 1_545 S
C339 C341 1.384 1_655 S
H340 C342 0.949 . S
C341 C339 1.384 1_455 S
C341 C342 1.385 . S
C341 H343 0.950 . S
C342 C336 1.404 1_455 S
C342 H340 0.949 . S
C342 C341 1.385 . S
H343 C341 0.950 . S
H344 C328 0.951 . S
H345 C330 0.944 1_565 S
H346 C332 0.951 . S
H347 C333 0.950 . S
H348 C334 0.950 . S
H349 C335 0.950 . S
H350 C337 0.950 . S
H351 C338 0.951 . S
C352 C353 1.386 . S
C352 C354 1.383 . S
C352 H368 0.951 . S
C353 C352 1.386 . S
C353 C357 1.383 . S
C354 C352 1.383 . S
C354 C355 1.402 . S
C354 H369 0.951 . S
C355 C354 1.402 . S
C355 C356 1.375 . S
C355 C358 1.481 . S
C356 C355 1.375 . S
C356 C357 1.367 . S
C356 H370 0.951 . S
C357 C353 1.383 . S
C357 C356 1.367 . S
C357 H371 0.950 . S
C358 C355 1.481 . S
C358 C359 1.297 . S
C358 H372 0.950 . S
C359 C358 1.297 . S
C359 C360 1.479 . S
C359 H373 0.950 . S
C360 C359 1.479 . S
C360 C361 1.375 . S
C360 C366 1.404 . S
C361 C360 1.375 . S
C361 C362 1.369 . S
C361 H374 0.950 . S
C362 C361 1.369 . S
C362 C363 1.392 . S
C362 H375 0.951 . S
C363 C362 1.392 . S
C363 C365 1.384 . S
H364 C366 0.949 . S
C365 C363 1.384 . S
C365 C366 1.385 . S
C365 H367 0.950 . S
C366 C360 1.404 . S
C366 H364 0.949 . S
C366 C365 1.385 . S
H367 C365 0.950 . S
H368 C352 0.951 . S
H369 C354 0.951 . S
H370 C356 0.951 . S
H371 C357 0.950 . S
H372 C358 0.950 . S
H373 C359 0.950 . S
H374 C361 0.950 . S
H375 C362 0.951 . S
C376 C377 1.386 . S
C376 C378 1.383 . S
C376 H392 0.951 . S
C377 C376 1.386 . S
C377 C381 1.383 . S
C378 C376 1.383 . S
C378 C379 1.402 . S
C378 H393 0.951 . S
C379 C378 1.402 . S
C379 C380 1.375 . S
C379 C382 1.481 . S
C380 C379 1.375 . S
C380 C381 1.367 . S
C380 H394 0.951 . S
C381 C377 1.383 . S
C381 C380 1.367 . S
C381 H395 0.950 . S
C382 C379 1.481 . S
C382 C383 1.297 . S
C382 H396 0.950 . S
C383 C382 1.297 . S
C383 C384 1.479 . S
C383 H397 0.950 . S
C384 C383 1.479 . S
C384 C385 1.375 . S
C384 C390 1.404 . S
C385 C384 1.375 . S
C385 C386 1.369 . S
C385 H398 0.950 . S
C386 C385 1.369 . S
C386 C387 1.392 . S
C386 H399 0.951 . S
C387 C386 1.392 . S
C387 C389 1.384 . S
H388 C390 0.949 . S
C389 C387 1.384 . S
C389 C390 1.385 . S
C389 H391 0.950 . S
C390 C384 1.404 . S
C390 H388 0.949 . S
C390 C389 1.385 . S
H391 C389 0.950 . S
H392 C376 0.951 . S
H393 C378 0.951 . S
H394 C380 0.951 . S
H395 C381 0.950 . S
H396 C382 0.950 . S
H397 C383 0.950 . S
H398 C385 0.950 . S
H399 C386 0.951 . S
C123 C105 1.402 . S
C113 C29 1.473 . S
C137 C8 1.372 . S
C147 C100 1.327 . S
C161 C0 1.385 . S
C171 C111 1.380 . S
C185 C17 1.471 1_556 S
C195 C94 1.403 . S
C209 C63 1.474 . S
C219 C83 1.419 . S
C233 C42 1.366 . S
C243 C78 1.303 . S
C267 C89 1.327 . S
C257 C34 1.374 . S
C291 C72 1.453 . S
C281 C51 1.473 . S
C305 C4 1.508 . S
C315 C73 1.506 . S
C329 C13 1.511 . S
C339 C84 1.495 . S
C363 C95 1.501 . S
C353 C38 1.508 . S
C377 C47 1.510 . S
C387 C106 1.502 . S
