# Generated by pormake.
# Topology anh, (6,3)-cn, num edge types: 1
# Building blocks:
#     Node 0, Type 0, BuildingBlock: BETFAJ_clean_sbu_0, # of connection points: 6
#     Node 1, Type 0, BuildingBlock: BETFAJ_clean_sbu_0, # of connection points: 6
#     Node 2, Type 0, BuildingBlock: BETFAJ_clean_sbu_0, # of connection points: 6
#     Node 3, Type 1, BuildingBlock: VETTIZ_charged_linker_0, # of connection points: 3
#     Node 4, Type 1, BuildingBlock: VETTIZ_charged_linker_0, # of connection points: 3
#     Node 5, Type 1, BuildingBlock: VETTIZ_charged_linker_0, # of connection points: 3
#     Node 6, Type 1, BuildingBlock: VETTIZ_charged_linker_0, # of connection points: 3
#     Node 7, Type 1, BuildingBlock: VETTIZ_charged_linker_0, # of connection points: 3
#     Node 8, Type 1, BuildingBlock: VETTIZ_charged_linker_0, # of connection points: 3
#     Edge 9, Type (0, 1), BuildingBlock: TEMPAE_clean_linker_10, # of connection points: 2
#     Edge 10, Type (0, 1), BuildingBlock: TEMPAE_clean_linker_10, # of connection points: 2
#     Edge 11, Type (0, 1), BuildingBlock: TEMPAE_clean_linker_10, # of connection points: 2
#     Edge 12, Type (0, 1), BuildingBlock: TEMPAE_clean_linker_10, # of connection points: 2
#     Edge 13, Type (0, 1), BuildingBlock: TEMPAE_clean_linker_10, # of connection points: 2
#     Edge 14, Type (0, 1), BuildingBlock: TEMPAE_clean_linker_10, # of connection points: 2
#     Edge 15, Type (0, 1), BuildingBlock: TEMPAE_clean_linker_10, # of connection points: 2
#     Edge 16, Type (0, 1), BuildingBlock: TEMPAE_clean_linker_10, # of connection points: 2
#     Edge 17, Type (0, 1), BuildingBlock: TEMPAE_clean_linker_10, # of connection points: 2
#     Edge 18, Type (0, 1), BuildingBlock: TEMPAE_clean_linker_10, # of connection points: 2
#     Edge 19, Type (0, 1), BuildingBlock: TEMPAE_clean_linker_10, # of connection points: 2
#     Edge 20, Type (0, 1), BuildingBlock: TEMPAE_clean_linker_10, # of connection points: 2
#     Edge 21, Type (0, 1), BuildingBlock: TEMPAE_clean_linker_10, # of connection points: 2
#     Edge 22, Type (0, 1), BuildingBlock: TEMPAE_clean_linker_10, # of connection points: 2
#     Edge 23, Type (0, 1), BuildingBlock: TEMPAE_clean_linker_10, # of connection points: 2
#     Edge 24, Type (0, 1), BuildingBlock: TEMPAE_clean_linker_10, # of connection points: 2
#     Edge 25, Type (0, 1), BuildingBlock: TEMPAE_clean_linker_10, # of connection points: 2
#     Edge 26, Type (0, 1), BuildingBlock: TEMPAE_clean_linker_10, # of connection points: 2
# Relax obj value: 0.186
# Max RMSD: 0.210
# Mean RMSD: 0.158
data_MOF--net-anh--node1-BETFAJ_clean_sbu_0--node2-VETTIZ_charged_linker_0--edge1-TEMPAE_clean_linker_10
_symmetry_space_group_name_H-M    P1
_symmetry_Int_Tables_number       1
_symmetry_cell_setting            triclinic
loop_
_symmetry_equiv_pos_as_xyz
'x, y, z'
_cell_length_a     36.520561
_cell_length_b     43.853536
_cell_length_c     67.907198
_cell_angle_alpha  92.500475
_cell_angle_beta   89.255594
_cell_angle_gamma 128.82973
loop_
_atom_site_label
_atom_site_type_symbol
_atom_site_fract_x
_atom_site_fract_y
_atom_site_fract_z
_atom_type_partial_charge
Sm0 Sm 0.12257 0.4995 0.15177 0.0
Sm1 Sm 1.06504 0.5259 0.15631 0.0
C2 C 0.192 0.49745 0.14842 0.0
C3 C 0.24114 0.53094 0.15284 0.0
C4 C 0.263 0.56652 0.14358 0.0
C5 C 0.30993 0.59807 0.14779 0.0
C6 C 0.33607 0.59346 0.16045 0.0
C7 C 0.31186 0.56044 0.17217 0.0
C8 C 0.26493 0.52903 0.16806 0.0
C9 C 0.09442 0.49999 0.18927 0.0
C10 C 0.17398 0.59558 0.15251 0.0
C11 C 1.00858 0.53068 0.17762 0.0
C12 C 0.96501 0.49822 0.1865 0.0
C13 C 0.94969 0.50424 0.20414 0.0
C14 C 0.90305 0.47584 0.20964 0.0
C15 C 0.87209 0.44377 0.19648 0.0
C16 C 0.89127 0.43225 0.18309 0.0
C17 C 0.93688 0.46087 0.17689 0.0
C18 C 0.07342 0.52059 0.11623 0.0
C19 C 1.0148 0.43173 0.14701 0.0
O20 O 0.17267 0.49952 0.13297 0.0
O21 O 0.16523 0.48457 0.16381 0.0
O22 O 0.11239 0.52701 0.17738 0.0
O23 O 0.08834 0.4698 0.18121 0.0
O24 O 0.17775 0.5675 0.15003 0.0
O25 O 0.13347 0.58786 0.15592 0.0
O26 O 1.04642 0.53837 0.18504 0.0
O27 O 1.00831 0.53081 0.15831 0.0
O28 O 0.09123 0.51295 0.12908 0.0
O29 O 1.05231 0.53304 0.12446 0.0
O30 O 1.01249 0.45792 0.15576 0.0
O31 O 1.05491 0.44121 0.14103 0.0
H32 H 0.24471 0.56942 0.13236 0.0
H33 H 0.32741 0.6236 0.13894 0.0
H34 H 0.33044 0.55624 0.18256 0.0
H35 H 0.24788 0.50259 0.17616 0.0
H36 H 0.97181 0.53209 0.2124 0.0
H37 H 0.88921 0.48366 0.2212 0.0
H38 H 0.86824 0.4062 0.17355 0.0
H39 H 0.9474 0.45518 0.16325 0.0
Sm40 Sm 0.60725 1.00641 0.47885 0.0
Sm41 Sm 0.54589 0.02838 0.47448 0.0
C42 C 0.64302 0.97174 0.48767 0.0
C43 C 0.62806 0.93186 0.48463 0.0
C44 C 0.58557 0.89911 0.49216 0.0
C45 C 0.57344 0.86193 0.48987 0.0
C46 C 0.60357 0.85695 0.48003 0.0
C47 C 0.64475 0.88937 0.47167 0.0
C48 C 0.65691 0.92649 0.47399 0.0
C49 C 0.59702 0.01796 0.44047 0.0
C50 C 0.49222 0.93728 0.47484 0.0
C51 C 0.50979 0.06204 0.4641 0.0
C52 C 0.52374 0.10146 0.46739 0.0
C53 C 0.52677 0.12183 0.45126 0.0
C54 C 0.54056 0.15951 0.45409 0.0
C55 C 0.55116 0.17718 0.47313 0.0
C56 C 0.54932 0.15715 0.48919 0.0
C57 C 0.53597 0.11969 0.48634 0.0
C58 C 0.55567 0.01586 0.51257 0.0
C59 C 0.66099 0.09833 0.48156 0.0
O60 O 0.61934 0.97656 0.5002 0.0
O61 O 0.654 0.99148 0.47181 0.0
O62 O 0.56412 0.99997 0.45265 0.0
O63 O 0.63587 0.02825 0.44799 0.0
O64 O 0.53218 0.9481 0.48229 0.0
O65 O 0.48972 0.96295 0.46711 0.0
O66 O 0.53746 0.06001 0.45281 0.0
O67 O 0.49569 0.04033 0.47944 0.0
O68 O 0.58876 0.03479 0.50056 0.0
O69 O 0.51615 1.00425 0.50498 0.0
O70 O 0.62066 0.08858 0.47526 0.0
O71 O 0.66475 0.0716 0.48633 0.0
H72 H 0.56225 0.90228 0.50021 0.0
H73 H 0.54169 0.83747 0.49661 0.0
H74 H 0.6683 0.88619 0.46385 0.0
H75 H 0.68945 0.9512 0.46782 0.0
H76 H 0.51822 0.10849 0.43649 0.0
H77 H 0.54165 0.17437 0.44149 0.0
H78 H 0.55803 0.17044 0.50398 0.0
H79 H 0.53506 0.10501 0.49899 0.0
Sm80 Sm 0.64919 0.57887 0.82212 0.0
Sm81 Sm 0.58358 0.49156 0.82603 0.0
C82 C 0.68857 0.65123 0.81288 0.0
C83 C 0.6747 0.67629 0.81556 0.0
C84 C 0.62975 0.66277 0.80975 0.0
C85 C 0.61735 0.68701 0.81224 0.0
C86 C 0.64955 0.72518 0.82064 0.0
C87 C 0.69387 0.73811 0.82707 0.0
C88 C 0.70632 0.71388 0.82453 0.0
C89 C 0.63318 0.5553 0.85991 0.0
C90 C 0.53286 0.53179 0.82617 0.0
C91 C 0.54396 0.4201 0.83727 0.0
C92 C 0.55235 0.39144 0.83392 0.0
C93 C 0.56096 0.37762 0.85005 0.0
C94 C 0.56839 0.3501 0.84713 0.0
C95 C 0.56699 0.3357 0.82802 0.0
C96 C 0.55924 0.35014 0.81187 0.0
C97 C 0.55211 0.37776 0.81477 0.0
C98 C 0.59702 0.51256 0.78764 0.0
C99 C 0.70028 0.53943 0.82451 0.0
O100 O 0.66335 0.62111 0.80034 0.0
O101 O 0.69954 0.64308 0.82898 0.0
O102 O 0.60266 0.54078 0.8464 0.0
O103 O 0.67432 0.58492 0.85408 0.0
O104 O 0.57491 0.56394 0.82131 0.0
O105 O 0.52727 0.50004 0.8307 0.0
O106 O 0.57551 0.45167 0.84804 0.0
O107 O 0.5288 0.4272 0.82218 0.0
O108 O 0.62927 0.52957 0.80073 0.0
O109 O 0.55785 0.48194 0.79425 0.0
O110 O 0.65796 0.50775 0.8294 0.0
O111 O 0.70596 0.57055 0.81855 0.0
H112 H 0.60433 0.63368 0.80302 0.0
H113 H 0.58315 0.67635 0.80691 0.0
H114 H 0.7192 0.76721 0.8338 0.0
H115 H 0.74085 0.72464 0.82941 0.0
H116 H 0.56159 0.38791 0.86494 0.0
H117 H 0.5741 0.3394 0.85986 0.0
H118 H 0.55881 0.34011 0.79694 0.0
H119 H 0.54624 0.38824 0.802 0.0
C120 C 0.69207 0.129 0.1683 0.0
C121 C 0.72743 0.1649 0.17863 0.0
C122 C 0.73004 0.16517 0.19933 0.0
C123 C 0.6613 0.09721 0.19948 0.0
C124 C 0.65946 0.09527 0.17912 0.0
C125 C 0.61988 0.05392 0.17126 0.0
H126 H 0.44129 0.86409 0.19512 0.0
C127 C 0.62302 0.05851 0.20674 0.0
C128 C 0.59843 0.03222 0.19038 0.0
H129 H 0.48238 0.90508 0.13616 0.0
H130 H 0.54208 0.97205 0.14963 0.0
H131 H 0.53786 0.90643 0.2124 0.0
H132 H 0.44518 0.93504 0.21188 0.0
H133 H 0.46991 0.94804 0.23574 0.0
H134 H 0.43593 0.89782 0.2266 0.0
H135 H 0.49075 0.88632 0.22945 0.0
H136 H 0.5488 0.93168 0.23508 0.0
C137 C 0.64159 0.03851 0.15906 0.0
C138 C 0.58501 0.05481 0.15928 0.0
C139 C 0.59836 0.04371 0.28084 0.0
C140 C 0.5684 0.01088 0.29247 0.0
C141 C 0.53691 0.97362 0.28274 0.0
C142 C 0.53448 0.96925 0.26218 0.0
C143 C 0.56468 1.00222 0.2509 0.0
C144 C 0.59644 0.03853 0.26024 0.0
C145 C 0.62859 0.06956 0.24588 0.0
C146 C 0.60907 0.04604 0.22629 0.0
C147 C 0.57167 1.00688 0.22942 0.0
C148 C 0.67945 0.08489 0.25022 0.0
C149 C 0.62203 0.10122 0.24782 0.0
C150 C 0.4634 0.88725 0.18498 0.0
C151 C 0.45796 0.87914 0.16463 0.0
C152 C 0.48641 0.91056 0.15199 0.0
C153 C 0.52113 0.94927 0.15983 0.0
C154 C 0.52703 0.95642 0.18047 0.0
C155 C 0.49758 0.92533 0.19247 0.0
C156 C 0.50683 0.93673 0.21389 0.0
C157 C 0.54729 0.97989 0.21319 0.0
C158 C 0.55979 0.99203 0.19365 0.0
C159 C 0.52153 0.91409 0.22335 0.0
C160 C 0.46226 0.92888 0.22267 0.0
H161 H 0.70106 0.13521 0.22537 0.0
H162 H 0.68951 0.12732 0.15237 0.0
H163 H 0.57571 0.07131 0.16776 0.0
H164 H 0.55171 0.02525 0.15593 0.0
H165 H 0.60066 0.0694 0.14517 0.0
H166 H 0.67107 0.04354 0.16743 0.0
H167 H 0.65566 0.05385 0.14502 0.0
H168 H 0.61622 1.00675 0.15554 0.0
H169 H 0.62314 0.07291 0.28749 0.0
H170 H 0.51451 0.94734 0.29095 0.0
H171 H 0.50942 0.94009 0.25593 0.0
H172 H 0.67992 0.06428 0.25899 0.0
H173 H 0.70035 0.1135 0.25867 0.0
H174 H 0.69826 0.08785 0.23658 0.0
H175 H 0.58415 0.08733 0.24913 0.0
H176 H 0.63415 0.11949 0.23488 0.0
H177 H 0.64072 0.12069 0.26117 0.0
H178 H 0.75793 0.19128 0.20778 0.0
C179 C 0.69713 0.13207 0.20969 0.0
C180 C 0.57139 0.60131 0.51678 0.0
C181 C 0.57582 0.63291 0.52606 0.0
C182 C 0.58855 0.64181 0.5463 0.0
C183 C 0.58808 0.58673 0.54793 0.0
C184 C 0.57849 0.57917 0.52791 0.0
C185 C 0.57883 0.54662 0.52024 0.0
H186 H 0.59572 0.40585 0.53974 0.0
C187 C 0.59226 0.55802 0.55537 0.0
C188 C 0.58762 0.53474 0.53919 0.0
H189 H 0.58606 0.44046 0.48259 0.0
H190 H 0.58249 0.48913 0.49831 0.0
H191 H 0.67064 0.48888 0.55737 0.0
H192 H 0.52004 0.41232 0.56145 0.0
H193 H 0.54344 0.43394 0.58507 0.0
H194 H 0.5562 0.40383 0.57348 0.0
H195 H 0.63975 0.44888 0.57359 0.0
H196 H 0.65864 0.49678 0.58129 0.0
C197 C 0.62007 0.56395 0.50573 0.0
C198 C 0.5299 0.5134 0.511 0.0
C199 C 0.60781 0.55219 0.6292 0.0
C200 C 0.61141 0.52801 0.64048 0.0
C201 C 0.61051 0.49844 0.63084 0.0
C202 C 0.60611 0.49296 0.61029 0.0
C203 C 0.60288 0.51749 0.59917 0.0
C204 C 0.60382 0.54654 0.60862 0.0
C205 C 0.60089 0.57025 0.59433 0.0
C206 C 0.59737 0.5502 0.57479 0.0
C207 C 0.59852 0.51939 0.57775 0.0
C208 C 0.64686 0.61332 0.59626 0.0
C209 C 0.55556 0.56502 0.59865 0.0
C210 C 0.59342 0.42419 0.53055 0.0
C211 C 0.59179 0.41964 0.50989 0.0
C212 C 0.58739 0.4434 0.49854 0.0
C213 C 0.58562 0.47177 0.50769 0.0
C214 C 0.58834 0.47642 0.52838 0.0
C215 C 0.59207 0.45274 0.53941 0.0
C216 C 0.59588 0.46231 0.56115 0.0
C217 C 0.59509 0.49643 0.56139 0.0
C218 C 0.58993 0.50419 0.54221 0.0
C219 C 0.64342 0.47463 0.56893 0.0
C220 C 0.5519 0.4263 0.57097 0.0
H221 H 0.60332 0.62696 0.57256 0.0
H222 H 0.56251 0.59374 0.50125 0.0
H223 H 0.50159 0.50759 0.52074 0.0
H224 H 0.52346 0.48528 0.50903 0.0
H225 H 0.52543 0.5215 0.49647 0.0
H226 H 0.64872 0.59569 0.50918 0.0
H227 H 0.60819 0.56089 0.49027 0.0
H228 H 0.63729 0.55043 0.50666 0.0
H229 H 0.6088 0.57536 0.63623 0.0
H230 H 0.61261 0.47914 0.63926 0.0
H231 H 0.60546 0.46984 0.60387 0.0
H232 H 0.67627 0.61546 0.60273 0.0
H233 H 0.64204 0.6317 0.60585 0.0
H234 H 0.65987 0.6267 0.58176 0.0
H235 H 0.52538 0.53361 0.60061 0.0
H236 H 0.54489 0.57417 0.58661 0.0
H237 H 0.55983 0.58175 0.61239 0.0
H238 H 0.59493 0.66707 0.55381 0.0
C239 C 0.59413 0.61874 0.55725 0.0
C240 C 0.22229 0.53254 0.8426 0.0
C241 C 0.25869 0.53594 0.8532 0.0
C242 C 0.2632 0.54523 0.87356 0.0
C243 C 0.19333 0.54024 0.87355 0.0
C244 C 0.19 0.53535 0.85325 0.0
C245 C 0.14928 0.53419 0.84585 0.0
H246 H 0.96249 0.53132 0.87592 0.0
C247 C 0.15395 0.53845 0.88121 0.0
C248 C 0.1274 0.53571 0.86523 0.0
H249 H 1.00479 0.53958 0.81554 0.0
H250 H 1.06643 0.53593 0.82615 0.0
H251 H 0.9681 0.46744 0.88639 0.0
H252 H 1.06349 0.59267 0.89429 0.0
H253 H 1.06498 0.57447 0.91651 0.0
H254 H 1.01031 0.56158 0.90785 0.0
H255 H 0.96233 0.49233 0.90627 0.0
H256 H 0.99738 0.47658 0.90879 0.0
C257 C 0.11381 0.49603 0.83358 0.0
C258 C 0.17005 0.57057 0.83385 0.0
C259 C 0.13135 0.53051 0.9557 0.0
C260 C 0.0959 0.5242 0.96781 0.0
C261 C 1.05833 0.52036 0.95915 0.0
C262 C 1.05621 0.52306 0.93873 0.0
C263 C 0.09175 0.52911 0.92665 0.0
C264 C 0.12818 0.53235 0.93522 0.0
C265 C 0.16196 0.53754 0.92015 0.0
C266 C 0.13953 0.53637 0.90101 0.0
C267 C 0.09903 0.53213 0.90496 0.0
C268 C 0.16168 0.50208 0.92125 0.0
C269 C 0.21041 0.57838 0.92454 0.0
C270 C 0.98534 0.53351 0.86474 0.0
C271 C 0.97878 0.53707 0.84491 0.0
C272 C 1.00875 0.5374 0.83106 0.0
C273 C 1.04493 0.53574 0.83721 0.0
C274 C 1.05172 0.53383 0.85745 0.0
C275 C 1.02126 0.53244 0.87055 0.0
C276 C 1.03085 0.52986 0.8914 0.0
C277 C 0.07329 0.5316 0.8893 0.0
C278 C 0.08656 0.53356 0.86935 0.0
C279 C 0.98752 0.48972 0.89877 0.0
C280 C 1.04276 0.56626 0.9033 0.0
H281 H 0.23678 0.55243 0.89914 0.0
H282 H 0.21855 0.52708 0.82678 0.0
H283 H 0.19694 0.59774 0.84277 0.0
H284 H 0.14283 0.57263 0.82923 0.0
H285 H 0.18714 0.56975 0.82039 0.0
H286 H 0.10074 0.47021 0.84232 0.0
H287 H 0.13044 0.49473 0.82009 0.0
H288 H 0.08314 0.49372 0.829 0.0
H289 H 0.16056 0.53341 0.96199 0.0
H290 H 1.03081 0.51572 0.96827 0.0
H291 H 1.02703 0.52057 0.93322 0.0
H292 H 0.1258 0.47485 0.92432 0.0
H293 H 0.18558 0.50703 0.9332 0.0
H294 H 0.17115 0.49491 0.90731 0.0
H295 H 0.20687 0.59854 0.93318 0.0
H296 H 0.22822 0.59403 0.91091 0.0
H297 H 0.23407 0.57592 0.93312 0.0
H298 H 0.2917 0.55064 0.88216 0.0
C299 C 0.23109 0.54683 0.8836 0.0
C300 C 0.96422 0.40876 0.46156 0.0
C301 C 0.93347 0.37158 0.45152 0.0
C302 C 0.94165 0.36812 0.43151 0.0
C303 C 1.00258 0.43784 0.43065 0.0
C304 C 0.99926 0.44157 0.45077 0.0
C305 C 1.0375 0.48338 0.45839 0.0
H306 H 0.22064 0.67084 0.43383 0.0
C307 C 1.03865 0.47671 0.42305 0.0
C308 C 1.06045 0.50403 0.43917 0.0
H309 H 0.18117 0.62959 0.49281 0.0
H310 H 0.11409 0.56483 0.4795 0.0
H311 H 0.20944 0.59918 0.41505 0.0
H312 H 0.11929 0.63052 0.41814 0.0
H313 H 0.10526 0.60467 0.39538 0.0
H314 H 0.16413 0.64982 0.40003 0.0
H315 H 0.21945 0.63837 0.40189 0.0
H316 H 0.18379 0.589 0.39149 0.0
C317 C 0.07139 0.48316 0.47163 0.0
C318 C 1.01466 0.49916 0.46921 0.0
C319 C 1.05043 0.49118 0.34869 0.0
C320 C 0.07815 0.52383 0.33686 0.0
C321 C 0.11037 0.56135 0.34611 0.0
C322 C 0.11526 0.56623 0.3667 0.0
C323 C 0.08758 0.53329 0.37831 0.0
C324 C 1.0556 0.49663 0.36928 0.0
C325 C 1.0291 0.46505 0.38396 0.0
C326 C 1.05002 0.48903 0.40336 0.0
C327 C 0.08435 0.52871 0.39989 0.0
C328 C 1.04078 0.43674 0.38043 0.0
C329 C 0.97631 0.44545 0.38157 0.0
C330 C 0.19787 0.64781 0.44394 0.0
C331 C 0.20673 0.65483 0.46426 0.0
C332 C 0.17531 0.62452 0.477 0.0
C333 C 0.1369 0.58697 0.46924 0.0
C334 C 0.13025 0.57997 0.44862 0.0
C335 C 0.1603 0.61069 0.43652 0.0
C336 C 0.14915 0.59941 0.41509 0.0
C337 C 0.10864 0.55625 0.41597 0.0
C338 C 0.09703 0.54443 0.43559 0.0
C339 C 0.19261 0.607 0.40519 0.0
C340 C 0.13393 0.62232 0.40656 0.0
H341 H 0.97814 0.39585 0.4058 0.0
H342 H 0.96049 0.41232 0.47715 0.0
H343 H 0.98602 0.4937 0.45994 0.0
H344 H 1.03991 0.53106 0.47246 0.0
H345 H 0.99928 0.48447 0.48331 0.0
H346 H 0.07978 0.4649 0.46453 0.0
H347 H 1.05528 0.47078 0.48608 0.0
H348 H 0.10543 0.51248 0.47425 0.0
H349 H 1.02516 0.46197 0.34207 0.0
H350 H 0.13268 0.58694 0.33739 0.0
H351 H 0.14095 0.5955 0.37273 0.0
H352 H 0.0727 0.44976 0.3714 0.0
H353 H 1.01143 0.40901 0.37261 0.0
H354 H 1.04906 0.42979 0.39439 0.0
H355 H 0.97155 0.46807 0.3808 0.0
H356 H 0.9548 0.42737 0.39395 0.0
H357 H 0.96129 0.4267 0.36778 0.0
H358 H 0.92119 0.33985 0.42361 0.0
C359 C 0.97528 0.40081 0.42108 0.0
C360 C 0.57856 0.92472 0.78498 0.0
C361 C 0.58272 0.8976 0.77563 0.0
C362 C 0.58778 0.8983 0.75492 0.0
C363 C 0.5824 0.95025 0.75332 0.0
C364 C 0.57951 0.95118 0.7736 0.0
C365 C 0.58031 0.98444 0.78118 0.0
H366 H 0.58919 0.13889 0.76042 0.0
C367 C 0.58356 0.98178 0.74576 0.0
C368 C 0.58324 1.00254 0.76202 0.0
H369 H 0.58871 0.10042 0.81806 0.0
H370 H 0.58394 0.04699 0.80287 0.0
H371 H 0.662 0.13567 0.74308 0.0
H372 H 0.51153 0.0503 0.7392 0.0
H373 H 0.53431 0.05623 0.71536 0.0
H374 H 0.54561 0.09767 0.72878 0.0
H375 H 0.62908 0.13765 0.72458 0.0
H376 H 0.65021 0.11011 0.72038 0.0
C377 C 0.62496 0.01276 0.79434 0.0
C378 C 0.53373 0.9669 0.7919 0.0
C379 C 0.5776 0.99293 0.67166 0.0
C380 C 0.58197 0.02114 0.66018 0.0
C381 C 0.58995 0.05393 0.67011 0.0
C382 C 0.59113 0.05755 0.69069 0.0
C383 C 0.58574 0.02882 0.7018 0.0
C384 C 0.58054 0.99781 0.69231 0.0
C385 C 0.58085 0.97265 0.70662 0.0
C386 C 0.58418 0.99251 0.72625 0.0
C387 C 0.58645 0.02503 0.72325 0.0
C388 C 0.62516 0.97579 0.70283 0.0
C389 C 0.53384 0.93049 0.7042 0.0
C390 C 0.58871 0.11938 0.76987 0.0
C391 C 0.58995 0.12434 0.7905 0.0
C392 C 0.58776 0.09734 0.80213 0.0
C393 C 0.58533 0.06649 0.79328 0.0
C394 C 0.58535 0.06271 0.77259 0.0
C395 C 0.58688 0.08894 0.76132 0.0
C396 C 0.5878 0.08151 0.73962 0.0
C397 C 0.58675 0.04645 0.7396 0.0
C398 C 0.58499 0.03527 0.7589 0.0
C399 C 0.6344 0.11805 0.73134 0.0
C400 C 0.54268 0.07105 0.73007 0.0
H401 H 0.59023 0.92229 0.72818 0.0
H402 H 0.57498 0.92577 0.80078 0.0
H403 H 0.50348 0.94089 0.78335 0.0
H404 H 0.52598 0.98747 0.79356 0.0
H405 H 0.53416 0.95734 0.80672 0.0
H406 H 0.65468 0.01413 0.78867 0.0
H407 H 0.6186 1.00304 0.80971 0.0
H408 H 0.63813 0.04332 0.7945 0.0
H409 H 0.57184 0.96743 0.6649 0.0
H410 H 0.59588 0.07738 0.66206 0.0
H411 H 0.59657 0.08287 0.69715 0.0
H412 H 0.65181 1.00158 0.69413 0.0
H413 H 0.61604 0.94938 0.69454 0.0
H414 H 0.64392 0.98023 0.71671 0.0
H415 H 0.50374 0.93096 0.70397 0.0
H416 H 0.52739 0.91193 0.71639 0.0
H417 H 0.53277 0.91594 0.69016 0.0
H418 H 0.59363 0.87974 0.74707 0.0
C419 C 0.58681 0.92381 0.7438 0.0
C420 C 0.66096 0.4971 0.12805 0.0
C421 C 0.70225 0.50591 0.12067 0.0
C422 C 0.71244 0.51303 0.10056 0.0
C423 C 0.63454 0.49225 0.09485 0.0
C424 C 0.62669 0.48838 0.11485 0.0
C425 C 0.57638 0.46731 0.11994 0.0
H426 H 0.3916 0.44516 0.09683 0.0
C427 C 0.5893 0.47456 0.08507 0.0
C428 C 0.5549 0.45909 0.09955 0.0
H429 H 0.43466 0.4322 0.15249 0.0
H430 H 0.48086 0.41778 0.13571 0.0
H431 H 0.47624 0.49632 0.07797 0.0
H432 H 0.39554 0.37107 0.07205 0.0
H433 H 0.42715 0.39017 0.05021 0.0
H434 H 0.38407 0.39655 0.05668 0.0
H435 H 0.42141 0.4642 0.0644 0.0
H436 H 0.47593 0.48282 0.05308 0.0
C437 C 0.57472 0.4965 0.13279 0.0
C438 C 0.55754 0.42897 0.13019 0.0
C439 C 0.58308 0.48243 0.01146 0.0
C440 C 0.54744 0.47304 -0.00142 0.0
C441 C 0.50257 0.45682 0.00576 0.0
C442 C 0.49319 0.44975 0.02581 0.0
C443 C 0.52951 0.46001 0.03867 0.0
C444 C 0.57351 0.47603 0.03142 0.0
C445 C 0.60813 0.4861 0.04725 0.0
C446 C 0.57718 0.47233 0.06513 0.0
C447 C 0.5313 0.45708 0.06004 0.0
C448 C 0.64768 0.53118 0.04807 0.0
C449 C 0.62525 0.46189 0.04293 0.0
C450 C 0.4089 0.43677 0.10515 0.0
C451 C 0.41225 0.44185 0.12581 0.0
C452 C 0.4331 0.42957 0.13652 0.0
C453 C 0.46118 0.42261 0.12678 0.0
C454 C 0.46803 0.4287 0.10652 0.0
C455 C 0.43795 0.4305 0.09556 0.0
C456 C 0.45037 0.43556 0.074 0.0
C457 C 0.49702 0.44318 0.07482 0.0
C458 C 0.50788 0.441 0.09414 0.0
C459 C 0.45616 0.47146 0.06683 0.0
C460 C 0.41233 0.39654 0.0625 0.0
H461 H 0.6871 0.51041 0.07219 0.0
H462 H 0.65204 0.49049 0.14341 0.0
H463 H 0.58095 0.42102 0.12819 0.0
H464 H 0.5233 0.40316 0.12379 0.0
H465 H 0.55398 0.43175 0.14631 0.0
H466 H 0.59108 0.52403 0.12499 0.0
H467 H 0.59444 0.50424 0.1469 0.0
H468 H 0.53909 0.48535 0.13663 0.0
H469 H 0.61802 0.49551 0.00616 0.0
H470 H 0.47496 0.44978 -0.00415 0.0
H471 H 0.45854 0.43755 0.03063 0.0
H472 H 0.6334 0.54662 0.0448 0.0
H473 H 0.67512 0.53983 0.03708 0.0
H474 H 0.66458 0.54318 0.06278 0.0
H475 H 0.59669 0.43263 0.03599 0.0
H476 H 0.63539 0.45541 0.05643 0.0
H477 H 0.6553 0.47701 0.03271 0.0
H478 H 0.74448 0.51984 0.09474 0.0
C479 C 0.6787 0.50663 0.08753 0.0
C480 C 0.38734 0.59924 0.13536 0.0
C481 C 0.38414 0.60958 0.15479 0.0
C482 C 0.40448 0.57869 0.13199 0.0
C483 C 0.4253 0.57448 0.14794 0.0
C484 C 0.43513 0.59596 0.16595 0.0
C485 C 0.41426 0.61375 0.16924 0.0
C486 C 0.39232 0.55571 0.11256 0.0
C487 C 0.46128 0.5952 0.18264 0.0
C488 C 0.38275 0.47105 0.14585 0.0
C489 C 0.4173 0.47554 0.1342 0.0
C490 C 0.3871 0.50403 0.15218 0.0
C491 C 0.42718 0.54185 0.14673 0.0
C492 C 0.4641 0.54645 0.13653 0.0
C493 C 0.4585 0.51305 0.13021 0.0
C494 C 0.34713 0.498 0.16332 0.0
C495 C 0.50788 0.58622 0.13105 0.0
H496 H 0.36674 0.59847 0.1237 0.0
H497 H 0.41418 0.62399 0.18406 0.0
H498 H 0.42339 0.55987 0.1065 0.0
H499 H 0.36491 0.52397 0.11493 0.0
H500 H 0.37863 0.5642 0.10136 0.0
H501 H 0.47786 0.62154 0.19273 0.0
H502 H 0.4363 0.56897 0.19131 0.0
H503 H 0.48878 0.59366 0.17703 0.0
H504 H 0.35171 0.44186 0.14923 0.0
H505 H 0.48577 0.51611 0.12156 0.0
H506 H 0.32946 0.50561 0.15395 0.0
H507 H 0.36063 0.51745 0.17682 0.0
H508 H 0.32054 0.46724 0.16767 0.0
H509 H 0.50096 0.59498 0.1174 0.0
H510 H 0.53763 0.58586 0.12822 0.0
H511 H 0.5185 0.60887 0.14282 0.0
C512 C 0.69769 0.16883 0.48753 0.0
C513 C 0.70269 0.14017 0.48289 0.0
C514 C 0.73622 0.20887 0.48682 0.0
C515 C 0.78024 0.22037 0.48051 0.0
C516 C 0.7858 0.19145 0.4766 0.0
C517 C 0.74707 0.15168 0.47819 0.0
C518 C 0.72904 0.23867 0.49176 0.0
C519 C 0.8315 0.20217 0.4691 0.0
C520 C 0.85119 0.30899 0.44922 0.0
C521 C 0.89201 0.33582 0.46081 0.0
C522 C 0.81498 0.27154 0.45549 0.0
C523 C 0.81749 0.26129 0.47458 0.0
C524 C 0.8562 0.28946 0.48725 0.0
C525 C 0.8936 0.32631 0.4801 0.0
C526 C 0.7752 0.24235 0.44118 0.0
C527 C 0.85848 0.28028 0.50813 0.0
H528 H 0.66342 0.15995 0.4914 0.0
H529 H 0.75086 0.12948 0.47452 0.0
H530 H 0.75971 0.2644 0.5002 0.0
H531 H 0.72546 0.24929 0.47796 0.0
H532 H 0.69678 0.22598 0.50045 0.0
H533 H 0.83124 0.17667 0.46827 0.0
H534 H 0.83788 0.21367 0.45413 0.0
H535 H 0.86136 0.22564 0.47873 0.0
H536 H 0.84834 0.31665 0.43468 0.0
H537 H 0.92451 0.34694 0.48932 0.0
H538 H 0.74135 0.23324 0.44703 0.0
H539 H 0.77233 0.21565 0.43926 0.0
H540 H 0.78015 0.25442 0.42645 0.0
H541 H 0.82567 0.26967 0.51585 0.0
H542 H 0.88896 0.30621 0.51659 0.0
H543 H 0.86114 0.25645 0.5081 0.0
C544 C 0.59374 0.74002 0.82568 0.0
C545 C 0.6386 0.75256 0.82077 0.0
C546 C 0.58116 0.76393 0.82278 0.0
C547 C 0.61394 0.80077 0.81439 0.0
C548 C 0.66027 0.81463 0.81075 0.0
C549 C 0.67205 0.79041 0.81407 0.0
C550 C 0.53197 0.74868 0.82756 0.0
C551 C 0.6963 0.8536 0.80167 0.0
C552 C 0.57053 0.83468 0.77787 0.0
C553 C 0.58398 0.86979 0.78708 0.0
C554 C 0.57916 0.81156 0.78681 0.0
C555 C 0.59827 0.82184 0.80619 0.0
C556 C 0.60704 0.8546 0.81652 0.0
C557 C 0.60102 0.87882 0.80669 0.0
C558 C 0.57047 0.77748 0.77498 0.0
C559 C 0.62405 0.86463 0.83772 0.0
H560 H 0.56799 0.71102 0.83122 0.0
H561 H 0.70667 0.8002 0.81012 0.0
H562 H 0.532 0.77259 0.83367 0.0
H563 H 0.50995 0.73639 0.8139 0.0
H564 H 0.51531 0.72509 0.83828 0.0
H565 H 0.73168 0.86138 0.80123 0.0
H566 H 0.68503 0.85248 0.78637 0.0
H567 H 0.69916 0.87731 0.81003 0.0
H568 H 0.55459 0.82565 0.76327 0.0
H569 H 0.61134 0.90544 0.81426 0.0
H570 H 0.5449 0.74982 0.78254 0.0
H571 H 0.6037 0.78167 0.77374 0.0
H572 H 0.55675 0.77412 0.75986 0.0
H573 H 0.59886 0.83917 0.84682 0.0
H574 H 0.62788 0.89039 0.8439 0.0
H575 H 0.65842 0.87084 0.83904 0.0
C576 C 0.85595 0.47518 0.17339 0.0
C577 C 0.83804 0.44579 0.18695 0.0
C578 C 0.82672 0.47889 0.1631 0.0
C579 C 0.77814 0.45296 0.16677 0.0
C580 C 0.75928 0.42282 0.18027 0.0
C581 C 0.78985 0.41928 0.19022 0.0
C582 C 0.84824 0.51113 0.14854 0.0
C583 C 0.7073 0.39465 0.18413 0.0
C584 C 0.73612 0.50693 0.15218 0.0
C585 C 0.72413 0.49403 0.13241 0.0
C586 C 0.74816 0.48981 0.16456 0.0
C587 C 0.74887 0.45977 0.15673 0.0
C588 C 0.73429 0.44521 0.13706 0.0
C589 C 0.72232 0.46279 0.12505 0.0
C590 C 0.76372 0.50598 0.18552 0.0
C591 C 0.73497 0.41338 0.12821 0.0
H592 H 0.89333 0.49544 0.17071 0.0
H593 H 0.77641 0.3963 0.20049 0.0
H594 H 0.83152 0.49863 0.13375 0.0
H595 H 0.84228 0.53219 0.15333 0.0
H596 H 0.88671 0.52769 0.14705 0.0
H597 H 0.69911 0.3758 0.1966 0.0
H598 H 0.69363 0.41085 0.1874 0.0
H599 H 0.68835 0.37553 0.17075 0.0
H600 H 0.73566 0.53016 0.15792 0.0
H601 H 0.71065 0.45157 0.10997 0.0
H602 H 0.8027 0.5258 0.18654 0.0
H603 H 0.75013 0.48205 0.19574 0.0
H604 H 0.7518 0.52292 0.19046 0.0
H605 H 0.77148 0.42638 0.1241 0.0
H606 H 0.71232 0.39914 0.11473 0.0
H607 H 0.72321 0.39065 0.13896 0.0
C608 C 0.44734 0.87194 0.48971 0.0
C609 C 0.44964 0.89586 0.47582 0.0
C610 C 0.40751 0.83244 0.49079 0.0
C611 C 0.36944 0.81626 0.47741 0.0
C612 C 0.37137 0.84042 0.4635 0.0
C613 C 0.41127 0.88006 0.46302 0.0
C614 C 0.40659 0.80784 0.50598 0.0
C615 C 0.33194 0.82411 0.44869 0.0
C616 C 0.29261 0.70844 0.46208 0.0
C617 C 0.25005 0.69373 0.47121 0.0
C618 C 0.33212 0.74795 0.46453 0.0
C619 C 0.3294 0.77342 0.47673 0.0
C620 C 0.2876 0.75819 0.48717 0.0
C621 C 0.24815 0.71837 0.48422 0.0
C622 C 0.37581 0.76286 0.45306 0.0
C623 C 0.28383 0.78439 0.50062 0.0
H624 H 0.47666 0.88414 0.49984 0.0
H625 H 0.41293 0.89843 0.45226 0.0
H626 H 0.37366 0.79239 0.51446 0.0
H627 H 0.40716 0.78513 0.49852 0.0
H628 H 0.43703 0.82565 0.51645 0.0
H629 H 0.33826 0.847 0.43924 0.0
H630 H 0.32787 0.80101 0.43906 0.0
H631 H 0.29825 0.81026 0.45639 0.0
H632 H 0.29415 0.68927 0.45212 0.0
H633 H 0.21522 0.7071 0.49119 0.0
H634 H 0.40695 0.77863 0.4631 0.0
H635 H 0.38229 0.78402 0.44229 0.0
H636 H 0.37286 0.73886 0.4449 0.0
H637 H 0.31437 0.80186 0.51102 0.0
H638 H 0.25097 0.76746 0.50921 0.0
H639 H 0.28446 0.80536 0.49175 0.0
C640 C 0.60743 0.30736 0.83489 0.0
C641 C 0.5723 0.30495 0.82484 0.0
C642 C 0.61319 0.27875 0.83152 0.0
C643 C 0.58302 0.24704 0.81783 0.0
C644 C 0.54702 0.24415 0.80792 0.0
C645 C 0.54211 0.2731 0.81155 0.0
C646 C 0.65213 0.2829 0.84226 0.0
C647 C 0.51413 0.21078 0.79319 0.0
C648 C 0.62061 0.19387 0.79061 0.0
C649 C 0.59311 0.15751 0.79947 0.0
C650 C 0.6191 0.22386 0.79698 0.0
C651 C 0.59023 0.21779 0.81294 0.0
C652 C 0.56494 0.18226 0.82287 0.0
C653 C 0.56642 0.15238 0.81593 0.0
C654 C 0.64643 0.26122 0.78591 0.0
C655 C 0.53442 0.17504 0.84016 0.0
H656 H 0.63109 0.3321 0.84506 0.0
H657 H 0.51441 0.27075 0.804 0.0
H658 H 0.6378 0.25562 0.84984 0.0
H659 H 0.67814 0.28744 0.83153 0.0
H660 H 0.67067 0.30788 0.85332 0.0
H661 H 0.48715 0.21224 0.78717 0.0
H662 H 0.5345 0.21132 0.78075 0.0
H663 H 0.49601 0.18232 0.8002 0.0
H664 H 0.64246 0.19856 0.77826 0.0
H665 H 0.54502 0.12444 0.82287 0.0
H666 H 0.66784 0.28712 0.7963 0.0
H667 H 0.6216 0.26334 0.77813 0.0
H668 H 0.67005 0.26258 0.77485 0.0
H669 H 0.55421 0.20018 0.85108 0.0
H670 H 0.52136 0.14792 0.84763 0.0
H671 H 0.50371 0.17227 0.835 0.0
C672 C 0.63218 0.82009 0.48731 0.0
C673 C 0.59548 0.81948 0.48083 0.0
C674 C 0.62438 0.78542 0.49118 0.0
C675 C 0.57882 0.7491 0.48818 0.0
C676 C 0.54234 0.74803 0.48025 0.0
C677 C 0.55091 0.78342 0.47694 0.0
C678 C 0.66414 0.788 0.49993 0.0
C679 C 0.4938 0.70976 0.47617 0.0
C680 C 0.58077 0.66499 0.49497 0.0
C681 C 0.5689 0.65761 0.51494 0.0
C682 C 0.57956 0.69206 0.48533 0.0
C683 C 0.56853 0.71356 0.49617 0.0
C684 C 0.55393 0.70465 0.5159 0.0
C685 C 0.55281 0.67593 0.52479 0.0
C686 C 0.59265 0.69921 0.46391 0.0
C687 C 0.54284 0.72746 0.52818 0.0
H688 H 0.66651 0.84795 0.49055 0.0
H689 H 0.5226 0.78293 0.47173 0.0
H690 H 0.65544 0.77767 0.51519 0.0
H691 H 0.66906 0.76881 0.49129 0.0
H692 H 0.69797 0.81836 0.50039 0.0
H693 H 0.47297 0.71325 0.46614 0.0
H694 H 0.49583 0.68729 0.46954 0.0
H695 H 0.47469 0.69862 0.49021 0.0
H696 H 0.59299 0.65105 0.48701 0.0
H697 H 0.54107 0.66908 0.53984 0.0
H698 H 0.62923 0.72667 0.46272 0.0
H699 H 0.56938 0.70275 0.45583 0.0
H700 H 0.59035 0.67488 0.4566 0.0
H701 H 0.57452 0.75879 0.52955 0.0
H702 H 0.53135 0.71641 0.54324 0.0
H703 H 0.51478 0.72603 0.52091 0.0
C704 C 0.73731 0.50893 0.83497 0.0
C705 C 0.74187 0.53957 0.82604 0.0
C706 C 0.77582 0.50876 0.83701 0.0
C707 C 0.82076 0.53977 0.82979 0.0
C708 C 0.82551 0.5706 0.82059 0.0
C709 C 0.78647 0.57025 0.81893 0.0
C710 C 0.76845 0.4755 0.84728 0.0
C711 C 0.87216 0.6043 0.81254 0.0
C712 C 0.93039 0.55967 0.85293 0.0
C713 C 0.94074 0.54035 0.83965 0.0
C714 C 0.89212 0.5597 0.84989 0.0
C715 C 0.86302 0.54084 0.83276 0.0
C716 C 0.87415 0.5226 0.81883 0.0
C717 C 0.91243 0.52245 0.82242 0.0
C718 C 0.88223 0.57935 0.86538 0.0
C719 C 0.84482 0.5024 0.80025 0.0
H720 H 0.70349 0.48503 0.84069 0.0
H721 H 0.79099 0.59418 0.812 0.0
H722 H 0.77849 0.46103 0.83746 0.0
H723 H 0.79143 0.48709 0.86064 0.0
H724 H 0.73141 0.45314 0.85172 0.0
H725 H 0.87008 0.6253 0.80516 0.0
H726 H 0.89878 0.62031 0.82467 0.0
H727 H 0.88477 0.59305 0.80181 0.0
H728 H 0.95219 0.57478 0.86606 0.0
H729 H 0.91926 0.50727 0.81195 0.0
H730 H 0.84651 0.55759 0.87127 0.0
H731 H 0.88293 0.60238 0.85875 0.0
H732 H 0.90803 0.59293 0.87786 0.0
H733 H 0.80852 0.47697 0.80407 0.0
H734 H 0.85942 0.49188 0.79021 0.0
H735 H 0.84241 0.52267 0.79228 0.0
C736 C 0.22159 0.6655 0.16452 0.0
C737 C 0.21666 0.63701 0.15184 0.0
C738 C 0.26231 0.70488 0.16446 0.0
C739 C 0.29842 0.71626 0.15097 0.0
C740 C 0.29305 0.68765 0.13782 0.0
C741 C 0.25246 0.64827 0.13858 0.0
C742 C 0.2672 0.73409 0.17921 0.0
C743 C 0.33035 0.6986 0.12306 0.0
C744 C 0.38628 0.82645 0.14418 0.0
C745 C 0.42211 0.83756 0.15753 0.0
C746 C 0.3467 0.78669 0.14105 0.0
C747 C 0.34291 0.75762 0.15162 0.0
C748 C 0.38042 0.76861 0.16415 0.0
C749 C 0.41964 0.80828 0.16677 0.0
C750 C 0.30774 0.77601 0.12731 0.0
C751 C 0.37777 0.73885 0.17595 0.0
H752 H 0.19405 0.65678 0.17489 0.0
H753 H 0.24835 0.62636 0.12856 0.0
H754 H 0.29846 0.7471 0.1889 0.0
H755 H 0.27276 0.7584 0.17145 0.0
H756 H 0.23582 0.72057 0.18861 0.0
H757 H 0.31972 0.67329 0.11318 0.0
H758 H 0.33797 0.72231 0.11394 0.0
H759 H 0.36348 0.71003 0.13088 0.0
H760 H 0.38785 0.84891 0.1371 0.0
H761 H 0.44749 0.81671 0.17698 0.0
H762 H 0.27653 0.76658 0.136 0.0
H763 H 0.29697 0.75103 0.11715 0.0
H764 H 0.31828 0.80102 0.11846 0.0
H765 H 0.35011 0.72738 0.18718 0.0
H766 H 0.41157 0.75158 0.18363 0.0
H767 H 0.36789 0.71357 0.1663 0.0
C768 C 0.59418 0.24722 0.46499 0.0
C769 C 0.5614 0.21539 0.47648 0.0
C770 C 0.60356 0.2834 0.46819 0.0
C771 C 0.57908 0.2874 0.48303 0.0
C772 C 0.5457 0.25518 0.49453 0.0
C773 C 0.53742 0.21963 0.49116 0.0
C774 C 0.63982 0.31737 0.45587 0.0
C775 C 0.51869 0.25823 0.51045 0.0
C776 C 0.62429 0.3837 0.50843 0.0
C777 C 0.59401 0.38966 0.50054 0.0
C778 C 0.6218 0.35169 0.50199 0.0
C779 C 0.58867 0.32533 0.4871 0.0
C780 C 0.5606 0.33288 0.47797 0.0
C781 C 0.56346 0.36496 0.48487 0.0
C782 C 0.65238 0.34466 0.51209 0.0
C783 C 0.52529 0.3056 0.46186 0.0
H784 H 0.61291 0.24393 0.45371 0.0
H785 H 0.51159 0.19483 0.49984 0.0
H786 H 0.62368 0.32814 0.44807 0.0
H787 H 0.66843 0.34204 0.46553 0.0
H788 H 0.65546 0.30931 0.44481 0.0
H789 H 0.49353 0.23022 0.51788 0.0
H790 H 0.54344 0.28126 0.52174 0.0
H791 H 0.49883 0.26693 0.50403 0.0
H792 H 0.6489 0.40336 0.52019 0.0
H793 H 0.53998 0.36941 0.47871 0.0
H794 H 0.66955 0.33815 0.50105 0.0
H795 H 0.63024 0.3188 0.52131 0.0
H796 H 0.67998 0.37019 0.52171 0.0
H797 H 0.54169 0.29894 0.45046 0.0
H798 H 0.51048 0.3181 0.45466 0.0
H799 H 0.49598 0.27745 0.46819 0.0
C800 C 0.44632 0.4992 0.82142 0.0
C801 C 0.49181 0.53217 0.82754 0.0
C802 C 0.40739 0.49906 0.8227 0.0
C803 C 0.41295 0.53198 0.83126 0.0
C804 C 0.45893 0.56528 0.83762 0.0
C805 C 0.49765 0.56531 0.83526 0.0
C806 C 0.36007 0.46343 0.81488 0.0
C807 C 0.46705 0.60045 0.84772 0.0
C808 C 0.31834 0.54647 0.82753 0.0
C809 C 0.29263 0.52964 0.84482 0.0
C810 C 0.35623 0.54618 0.82246 0.0
C811 C 0.3703 0.53007 0.83525 0.0
C812 C 0.34349 0.51214 0.85233 0.0
C813 C 0.30457 0.51087 0.85639 0.0
C814 C 0.38195 0.56404 0.80359 0.0
C815 C 0.35722 0.49583 0.86704 0.0
H816 H 0.44123 0.47352 0.81528 0.0
H817 H 0.53243 0.5909 0.84018 0.0
H818 H 0.33599 0.44772 0.82727 0.0
H819 H 0.34403 0.47236 0.80537 0.0
H820 H 0.36257 0.44272 0.80623 0.0
H821 H 0.5045 0.6238 0.85208 0.0
H822 H 0.45596 0.61291 0.83785 0.0
H823 H 0.44532 0.59139 0.86112 0.0
H824 H 0.31004 0.56103 0.81833 0.0
H825 H 0.28454 0.49656 0.86947 0.0
H826 H 0.38827 0.54502 0.79574 0.0
H827 H 0.4167 0.59278 0.80702 0.0
H828 H 0.36216 0.56871 0.79361 0.0
H829 H 0.35371 0.4707 0.86019 0.0
H830 H 0.33528 0.48583 0.88041 0.0
H831 H 0.3946 0.5185 0.87167 0.0
C832 C 0.9298 0.37996 0.13886 0.0
C833 C 0.97209 0.39038 0.14621 0.0
C834 C 0.88756 0.34154 0.14009 0.0
C835 C 0.88732 0.31351 0.14986 0.0
C836 C 0.93035 0.3239 0.157 0.0
C837 C 0.97241 0.36205 0.15471 0.0
C838 C 0.84305 0.33176 0.13173 0.0
C839 C 0.93155 0.2957 0.16838 0.0
C840 C 0.77885 0.23809 0.1785 0.0
C841 C 0.76268 0.20257 0.16875 0.0
C842 C 0.81897 0.2742 0.1724 0.0
C843 C 0.8419 0.27547 0.15515 0.0
C844 C 0.82285 0.24027 0.14392 0.0
C845 C 0.78396 0.20405 0.15105 0.0
C846 C 0.83836 0.31069 0.18518 0.0
C847 C 0.84453 0.24079 0.12476 0.0
H848 H 0.92966 0.40205 0.13236 0.0
H849 H 1.00512 0.37046 0.1607 0.0
H850 H 0.81888 0.30104 0.1257 0.0
H851 H 0.82457 0.33528 0.14356 0.0
H852 H 0.85079 0.35166 0.11989 0.0
H853 H 0.96796 0.30776 0.17232 0.0
H854 H 0.91153 0.28883 0.18217 0.0
H855 H 0.9144 0.26773 0.15968 0.0
H856 H 0.76139 0.23763 0.19165 0.0
H857 H 0.77159 0.17702 0.14319 0.0
H858 H 0.8389 0.33203 0.17675 0.0
H859 H 0.87515 0.32501 0.18976 0.0
H860 H 0.81745 0.30431 0.19864 0.0
H861 H 0.8513 0.26401 0.11546 0.0
H862 H 0.82166 0.21218 0.11634 0.0
H863 H 0.87883 0.24766 0.12775 0.0
C864 C 0.10742 0.51085 0.08626 0.0
C865 C 0.07879 0.519 0.09452 0.0
C866 C 0.11319 0.51056 0.06566 0.0
C867 C 0.08963 0.51845 0.05301 0.0
C868 C 1.06037 0.52628 0.06134 0.0
C869 C 1.05543 0.52654 0.0819 0.0
C870 C 0.14478 0.50217 0.05742 0.0
C871 C 1.03433 0.5346 0.0485 0.0
C872 C 0.13135 0.55524 0.00119 0.0
C873 C 0.09772 0.52178 0.98945 0.0
C874 C 0.13031 0.55426 0.02191 0.0
C875 C 0.09527 0.51876 0.03108 0.0
C876 C 1.06272 0.48443 0.01913 0.0
C877 C 1.06398 0.48649 -0.00152 0.0
C878 C 0.16537 0.59164 0.03399 0.0
C879 C 1.02539 0.44582 0.02816 0.0
H880 H 0.12567 0.50507 0.09591 0.0
H881 H 1.03315 0.53277 0.08811 0.0
H882 H 0.12516 0.47724 0.04638 0.0
H883 H 0.17452 0.52798 0.04971 0.0
H884 H 0.15919 0.49515 0.06909 0.0
H885 H 1.01279 0.53999 0.05723 0.0
H886 H 1.0597 0.56067 0.0398 0.0
H887 H 1.01084 0.50951 0.03787 0.0
H888 H 0.15731 0.58256 -0.00584 0.0
H889 H 1.03815 0.46058 0.98934 0.0
H890 H 0.1832 0.58689 0.04507 0.0
H891 H 0.14676 0.60061 0.04215 0.0
H892 H 0.19245 0.61602 0.02471 0.0
H893 H 1.04144 0.43915 0.03915 0.0
H894 H 1.0058 0.4212 0.01691 0.0
H895 H 0.99999 0.44765 0.03605 0.0
C896 C 0.60183 0.99838 0.40626 0.0
C897 C 0.58963 0.01646 0.41908 0.0
C898 C 0.59682 0.9979 0.38576 0.0
C899 C 0.58076 0.01717 0.37795 0.0
C900 C 0.56883 0.03582 0.39091 0.0
C901 C 0.57281 0.03473 0.41137 0.0
C902 C 0.60872 0.9768 0.37247 0.0
C903 C 0.55303 0.05772 0.38316 0.0
C904 C 0.6132 0.04422 0.32461 0.0
C905 C 0.57078 0.01476 0.31452 0.0
C906 C 0.61627 0.04656 0.34529 0.0
C907 C 0.57662 0.01776 0.35622 0.0
C908 C 0.5336 0.98837 0.34627 0.0
C909 C 0.5309 0.98787 0.32566 0.0
C910 C 0.66237 0.0793 0.3554 0.0
C911 C 0.49077 0.95654 0.35733 0.0
H912 H 0.61491 0.98429 0.41231 0.0
H913 H 0.56435 0.04936 0.42128 0.0
H914 H 0.57841 0.95506 0.36251 0.0
H915 H 0.63872 0.99801 0.36306 0.0
H916 H 0.61812 0.96139 0.38092 0.0
H917 H 0.54585 0.07122 0.3952 0.0
H918 H 0.58048 0.08116 0.3736 0.0
H919 H 0.52068 0.03764 0.37394 0.0
H920 H 0.64462 0.06501 0.31643 0.0
H921 H 0.49737 0.96583 0.31832 0.0
H922 H 0.67837 0.06724 0.3619 0.0
H923 H 0.65653 0.09337 0.36763 0.0
H924 H 0.68779 0.1021 0.34507 0.0
H925 H 0.49868 0.93963 0.36528 0.0
H926 H 0.45982 0.93591 0.34741 0.0
H927 H 0.48136 0.9696 0.36856 0.0
C928 C 0.63598 0.55669 0.75932 0.0
C929 C 0.60504 0.51891 0.76637 0.0
C930 C 0.64015 0.56257 0.73895 0.0
C931 C 0.61414 0.52972 0.72546 0.0
C932 C 0.58428 0.49145 0.7326 0.0
C933 C 0.57949 0.48658 0.75296 0.0
C934 C 0.67135 0.60382 0.73188 0.0
C935 C 0.55704 0.45558 0.71874 0.0
C936 C 0.58395 0.53492 0.67308 0.0
C937 C 0.61541 0.53294 0.66227 0.0
C938 C 0.58451 0.5357 0.69377 0.0
C939 C 0.61759 0.53483 0.70382 0.0
C940 C 0.65093 0.53482 0.69296 0.0
C941 C 0.64926 0.53366 0.6723 0.0
C942 C 0.54827 0.53556 0.70483 0.0
C943 C 0.687 0.53425 0.70312 0.0
H944 H 0.65573 0.58163 0.76968 0.0
H945 H 0.55588 0.45728 0.75843 0.0
H946 H 0.69743 0.60777 0.7214 0.0
H947 H 0.64977 0.6092 0.72382 0.0
H948 H 0.69036 0.62615 0.74423 0.0
H949 H 0.53685 0.4279 0.7267 0.0
H950 H 0.53214 0.4556 0.70957 0.0
H951 H 0.58141 0.45604 0.70858 0.0
H952 H 0.55762 0.53419 0.66533 0.0
H953 H 0.67404 0.53271 0.66393 0.0
H954 H 0.56539 0.55878 0.71679 0.0
H955 H 0.52319 0.50707 0.71183 0.0
H956 H 0.52808 0.54009 0.69502 0.0
H957 H 0.70608 0.55792 0.71482 0.0
H958 H 0.71301 0.53784 0.69268 0.0
H959 H 0.66907 0.506 0.71034 0.0
C960 C 0.60583 0.03843 0.54296 0.0
C961 C 0.5619 0.012 0.53348 0.0
C962 C 0.61078 0.03745 0.56336 0.0
C963 C 0.57105 0.00874 0.57434 0.0
C964 C 0.52738 0.98034 0.5645 0.0
C965 C 0.52317 0.98269 0.54422 0.0
C966 C 0.65776 0.06863 0.57332 0.0
C967 C 0.48457 0.94845 0.57552 0.0
C968 C 0.59098 0.9965 0.6274 0.0
C969 C 0.5785 0.01694 0.63808 0.0
C970 C 0.58764 0.99265 0.60669 0.0
C971 C 0.57368 0.01121 0.59628 0.0
C972 C 0.56159 0.03218 0.60684 0.0
C973 C 0.56281 0.03379 0.62749 0.0
C974 C 0.59906 0.96873 0.59595 0.0
C975 C 0.54744 0.05315 0.59633 0.0
H976 H 0.63585 0.06103 0.53461 0.0
H977 H 0.48935 0.96182 0.53679 0.0
H978 H 0.65505 0.08826 0.58292 0.0
H979 H 0.66806 0.05518 0.58289 0.0
H980 H 0.68602 0.08665 0.56253 0.0
H981 H 0.45546 0.92549 0.56538 0.0
H982 H 0.49354 0.93443 0.58543 0.0
H983 H 0.47182 0.96133 0.58488 0.0
H984 H 0.60385 0.98373 0.6351 0.0
H985 H 0.55113 0.04831 0.63525 0.0
H986 H 0.63084 0.98801 0.58697 0.0
H987 H 0.56979 0.94658 0.58567 0.0
H988 H 0.60545 0.95341 0.60622 0.0
H989 H 0.57475 0.07324 0.58565 0.0
H990 H 0.54231 0.07047 0.60668 0.0
H991 H 0.51421 0.03158 0.58785 0.0
C992 C 0.65729 0.55957 0.89465 0.0
C993 C 0.62217 0.54134 0.87997 0.0
C994 C 0.64622 0.54715 0.91402 0.0
C995 C 0.59904 0.51596 0.91857 0.0
C996 C 0.56376 0.49679 0.90364 0.0
C997 C 0.5758 0.50977 0.88446 0.0
C998 C 0.68464 0.568 0.92968 0.0
C999 C 0.5131 0.46335 0.90802 0.0
C1000 C 0.57258 0.46464 0.96616 0.0
C1001 C 0.55833 0.4824 0.97788 0.0
C1002 C 0.58596 0.47522 0.94668 0.0
C1003 C 0.58584 0.50473 0.93915 0.0
C1004 C 0.57181 0.52294 0.95109 0.0
C1005 C 0.55775 0.51122 0.97037 0.0
C1006 C 0.60015 0.45493 0.93419 0.0
C1007 C 0.57195 0.55492 0.94356 0.0
H1008 H 0.69319 0.58384 0.89108 0.0
H1009 H 0.54868 0.4955 0.87303 0.0
H1010 H 0.67768 0.58303 0.94079 0.0
H1011 H 0.68508 0.54655 0.93751 0.0
H1012 H 0.71994 0.59007 0.92345 0.0
H1013 H 0.49055 0.45013 0.89448 0.0
H1014 H 0.51063 0.44014 0.9155 0.0
H1015 H 0.4989 0.474 0.91819 0.0
H1016 H 0.57315 0.4425 0.97227 0.0
H1017 H 0.54741 0.52521 0.97977 0.0
H1018 H 0.63653 0.47677 0.92896 0.0
H1019 H 0.57683 0.4403 0.92094 0.0
H1020 H 0.59836 0.43264 0.94237 0.0
H1021 H 0.60767 0.57946 0.93864 0.0
H1022 H 0.56097 0.56658 0.95493 0.0
H1023 H 0.54784 0.54353 0.93059 0.0
C1024 C 0.12882 0.53028 0.22258 0.0
C1025 C 0.08898 0.50465 0.21047 0.0
C1026 C 0.12464 0.53334 0.24303 0.0
C1027 C 0.0794 0.51111 0.25144 0.0
C1028 C 1.03893 0.48647 0.23904 0.0
C1029 C 1.04426 0.48295 0.21869 0.0
C1030 C 0.16869 0.55944 0.25572 0.0
C1031 C 0.9901 0.46349 0.24726 0.0
C1032 C 0.07318 0.48894 0.30549 0.0
C1033 C 0.07486 0.51887 0.31496 0.0
C1034 C 0.07333 0.48547 0.28483 0.0
C1035 C 0.07487 0.51241 0.2733 0.0
C1036 C 0.07493 0.54187 0.28277 0.0
C1037 C 0.07519 0.54488 0.30348 0.0
C1038 C 0.07358 0.4538 0.27538 0.0
C1039 C 0.07573 0.57076 0.27106 0.0
H1040 H 0.16336 0.547 0.21609 0.0
H1041 H 1.0135 0.46347 0.20918 0.0
H1042 H 0.16851 0.58138 0.26438 0.0
H1043 H 0.16985 0.5416 0.2664 0.0
H1044 H 0.20116 0.57517 0.24688 0.0
H1045 H 0.96253 0.44888 0.23545 0.0
H1046 H 0.9836 0.44078 0.25688 0.0
H1047 H 0.98672 0.48308 0.2565 0.0
H1048 H 0.07338 0.46897 0.31426 0.0
H1049 H 0.07578 0.56772 0.3107 0.0
H1050 H 0.10667 0.46736 0.2672 0.0
H1051 H 1.04406 0.43562 0.26455 0.0
H1052 H 0.0706 0.43434 0.28637 0.0
H1053 H 0.10975 0.59009 0.26345 0.0
H1054 H 0.07111 0.5894 0.28053 0.0
H1055 H 1.04756 0.55507 0.25953 0.0
loop_
_geom_bond_atom_site_label_1
_geom_bond_atom_site_label_2
_geom_bond_distance
_geom_bond_site_symmetry_2
_ccdc_geom_bond_type
Sm0 C2 2.846 . S
Sm0 O20 2.543 . S
Sm0 O21 2.450 . S
Sm0 O22 2.681 . S
Sm0 O23 2.464 . S
Sm0 O24 2.396 . S
Sm0 O28 2.386 . S
Sm0 O31 2.408 1_455 S
Sm1 C11 2.846 . S
Sm1 O22 2.386 1_655 S
Sm1 O25 2.408 1_655 S
Sm1 O26 2.543 . S
Sm1 O27 2.450 . S
Sm1 O28 2.681 1_655 S
Sm1 O29 2.464 . S
Sm1 O30 2.396 . S
C2 Sm0 2.846 . S
C2 C3 1.506 . S
C2 O20 1.261 . S
C2 O21 1.242 . S
C3 C2 1.506 . S
C3 C4 1.358 . S
C3 C8 1.382 . S
C4 C3 1.358 . S
C4 C5 1.385 . S
C4 H32 0.930 . S
C5 C4 1.385 . S
C5 C6 1.395 . S
C5 H33 0.929 . S
C6 C5 1.395 . S
C6 C7 1.335 . S
C7 C6 1.335 . S
C7 C8 1.398 . S
C7 H34 0.930 . S
C8 C3 1.382 . S
C8 C7 1.398 . S
C8 H35 0.929 . S
C9 O22 1.271 . S
C9 O23 1.251 . S
C10 O24 1.252 . S
C10 O25 1.272 . S
C11 Sm1 2.846 . S
C11 C12 1.506 . S
C11 O26 1.261 . S
C11 O27 1.242 . S
C12 C11 1.506 . S
C12 C13 1.358 . S
C12 C17 1.382 . S
C13 C12 1.358 . S
C13 C14 1.385 . S
C13 H36 0.930 . S
C14 C13 1.385 . S
C14 C15 1.395 . S
C14 H37 0.929 . S
C15 C14 1.395 . S
C15 C16 1.335 . S
C16 C15 1.335 . S
C16 C17 1.398 . S
C16 H38 0.930 . S
C17 C12 1.382 . S
C17 C16 1.398 . S
C17 H39 0.929 . S
C18 O28 1.271 . S
C18 O29 1.251 1_455 S
C19 O30 1.252 . S
C19 O31 1.272 . S
O20 Sm0 2.543 . S
O20 C2 1.261 . S
O21 Sm0 2.450 . S
O21 C2 1.242 . S
O22 Sm0 2.681 . S
O22 Sm1 2.386 1_455 S
O22 C9 1.271 . S
O23 Sm0 2.464 . S
O23 C9 1.251 . S
O24 Sm0 2.396 . S
O24 C10 1.252 . S
O25 Sm1 2.408 1_455 S
O25 C10 1.272 . S
O26 Sm1 2.543 . S
O26 C11 1.261 . S
O27 Sm1 2.450 . S
O27 C11 1.242 . S
O28 Sm0 2.386 . S
O28 Sm1 2.681 1_455 S
O28 C18 1.271 . S
O29 Sm1 2.464 . S
O29 C18 1.251 1_655 S
O30 Sm1 2.396 . S
O30 C19 1.252 . S
O31 Sm0 2.408 1_655 S
O31 C19 1.272 . S
H32 C4 0.930 . S
H33 C5 0.929 . S
H34 C7 0.930 . S
H35 C8 0.929 . S
H36 C13 0.930 . S
H37 C14 0.929 . S
H38 C16 0.930 . S
H39 C17 0.929 . S
Sm40 C42 2.846 . S
Sm40 O60 2.543 . S
Sm40 O61 2.450 . S
Sm40 O62 2.681 1_565 S
Sm40 O63 2.464 . S
Sm40 O64 2.396 . S
Sm40 O68 2.386 . S
Sm40 O71 2.408 1_565 S
Sm41 C51 2.846 . S
Sm41 O62 2.386 . S
Sm41 O65 2.408 1_545 S
Sm41 O66 2.543 . S
Sm41 O67 2.450 . S
Sm41 O68 2.681 1_545 S
Sm41 O69 2.464 . S
Sm41 O70 2.396 . S
C42 Sm40 2.846 . S
C42 C43 1.506 . S
C42 O60 1.261 . S
C42 O61 1.242 . S
C43 C42 1.506 . S
C43 C44 1.358 . S
C43 C48 1.382 . S
C44 C43 1.358 . S
C44 C45 1.385 . S
C44 H72 0.930 . S
C45 C44 1.385 . S
C45 C46 1.395 . S
C45 H73 0.929 . S
C46 C45 1.395 . S
C46 C47 1.335 . S
C47 C46 1.335 . S
C47 C48 1.398 . S
C47 H74 0.930 . S
C48 C43 1.382 . S
C48 C47 1.398 . S
C48 H75 0.929 . S
C49 O62 1.271 . S
C49 O63 1.251 1_545 S
C50 O64 1.252 . S
C50 O65 1.272 . S
C51 Sm41 2.846 . S
C51 C52 1.506 . S
C51 O66 1.261 . S
C51 O67 1.242 . S
C52 C51 1.506 . S
C52 C53 1.358 . S
C52 C57 1.382 . S
C53 C52 1.358 . S
C53 C54 1.385 . S
C53 H76 0.930 . S
C54 C53 1.385 . S
C54 C55 1.395 . S
C54 H77 0.929 . S
C55 C54 1.395 . S
C55 C56 1.335 . S
C56 C55 1.335 . S
C56 C57 1.398 . S
C56 H78 0.930 . S
C57 C52 1.382 . S
C57 C56 1.398 . S
C57 H79 0.929 . S
C58 O68 1.271 1_545 S
C58 O69 1.251 . S
C59 O70 1.252 . S
C59 O71 1.272 . S
O60 Sm40 2.543 . S
O60 C42 1.261 . S
O61 Sm40 2.450 . S
O61 C42 1.242 . S
O62 Sm40 2.681 1_545 S
O62 Sm41 2.386 . S
O62 C49 1.271 . S
O63 Sm40 2.464 . S
O63 C49 1.251 1_565 S
O64 Sm40 2.396 . S
O64 C50 1.252 . S
O65 Sm41 2.408 1_565 S
O65 C50 1.272 . S
O66 Sm41 2.543 . S
O66 C51 1.261 . S
O67 Sm41 2.450 . S
O67 C51 1.242 . S
O68 Sm40 2.386 . S
O68 Sm41 2.681 1_565 S
O68 C58 1.271 1_565 S
O69 Sm41 2.464 . S
O69 C58 1.251 . S
O70 Sm41 2.396 . S
O70 C59 1.252 . S
O71 Sm40 2.408 1_545 S
O71 C59 1.272 . S
H72 C44 0.930 . S
H73 C45 0.929 . S
H74 C47 0.930 . S
H75 C48 0.929 . S
H76 C53 0.930 . S
H77 C54 0.929 . S
H78 C56 0.930 . S
H79 C57 0.929 . S
Sm80 C82 2.846 . S
Sm80 O100 2.543 . S
Sm80 O101 2.450 . S
Sm80 O102 2.681 . S
Sm80 O103 2.464 . S
Sm80 O104 2.396 . S
Sm80 O108 2.386 . S
Sm80 O111 2.408 . S
Sm81 C91 2.846 . S
Sm81 O102 2.386 . S
Sm81 O105 2.408 . S
Sm81 O106 2.543 . S
Sm81 O107 2.450 . S
Sm81 O108 2.681 . S
Sm81 O109 2.464 . S
Sm81 O110 2.396 . S
C82 Sm80 2.846 . S
C82 C83 1.506 . S
C82 O100 1.261 . S
C82 O101 1.242 . S
C83 C82 1.506 . S
C83 C84 1.358 . S
C83 C88 1.382 . S
C84 C83 1.358 . S
C84 C85 1.385 . S
C84 H112 0.930 . S
C85 C84 1.385 . S
C85 C86 1.395 . S
C85 H113 0.929 . S
C86 C85 1.395 . S
C86 C87 1.335 . S
C87 C86 1.335 . S
C87 C88 1.398 . S
C87 H114 0.930 . S
C88 C83 1.382 . S
C88 C87 1.398 . S
C88 H115 0.929 . S
C89 O102 1.271 . S
C89 O103 1.251 . S
C90 O104 1.252 . S
C90 O105 1.272 . S
C91 Sm81 2.846 . S
C91 C92 1.506 . S
C91 O106 1.261 . S
C91 O107 1.242 . S
C92 C91 1.506 . S
C92 C93 1.358 . S
C92 C97 1.382 . S
C93 C92 1.358 . S
C93 C94 1.385 . S
C93 H116 0.930 . S
C94 C93 1.385 . S
C94 C95 1.395 . S
C94 H117 0.929 . S
C95 C94 1.395 . S
C95 C96 1.335 . S
C96 C95 1.335 . S
C96 C97 1.398 . S
C96 H118 0.930 . S
C97 C92 1.382 . S
C97 C96 1.398 . S
C97 H119 0.929 . S
C98 O108 1.271 . S
C98 O109 1.251 . S
C99 O110 1.252 . S
C99 O111 1.272 . S
O100 Sm80 2.543 . S
O100 C82 1.261 . S
O101 Sm80 2.450 . S
O101 C82 1.242 . S
O102 Sm80 2.681 . S
O102 Sm81 2.386 . S
O102 C89 1.271 . S
O103 Sm80 2.464 . S
O103 C89 1.251 . S
O104 Sm80 2.396 . S
O104 C90 1.252 . S
O105 Sm81 2.408 . S
O105 C90 1.272 . S
O106 Sm81 2.543 . S
O106 C91 1.261 . S
O107 Sm81 2.450 . S
O107 C91 1.242 . S
O108 Sm80 2.386 . S
O108 Sm81 2.681 . S
O108 C98 1.271 . S
O109 Sm81 2.464 . S
O109 C98 1.251 . S
O110 Sm81 2.396 . S
O110 C99 1.252 . S
O111 Sm80 2.408 . S
O111 C99 1.272 . S
H112 C84 0.930 . S
H113 C85 0.929 . S
H114 C87 0.930 . S
H115 C88 0.929 . S
H116 C93 0.930 . S
H117 C94 0.929 . S
H118 C96 0.930 . S
H119 C97 0.929 . S
C120 C121 1.391 . S
C120 C124 1.391 . S
C120 H162 0.948 . S
C121 C120 1.391 . S
C121 C122 1.391 . S
C122 C121 1.391 . S
C122 H178 0.947 . S
C122 C179 1.392 . S
C123 C124 1.391 . S
C123 C127 1.397 . S
C123 C179 1.419 . S
C124 C120 1.391 . S
C124 C123 1.391 . S
C124 C125 1.399 . S
C125 C124 1.399 . S
C125 C128 1.396 . S
C125 C137 1.453 . S
C125 C138 1.684 . S
H126 C150 0.948 . S
C127 C123 1.397 . S
C127 C128 1.394 . S
C127 C146 1.723 . S
C128 C125 1.396 . S
C128 C127 1.394 . S
C128 C158 1.723 1_545 S
H129 C152 0.947 . S
H130 C153 0.948 . S
H131 C159 0.982 . S
H132 C160 0.979 . S
H133 C160 0.980 . S
H134 C160 0.983 . S
H135 C159 0.979 . S
H136 C159 0.977 . S
C137 C125 1.453 . S
C137 H166 0.982 . S
C137 H167 0.979 . S
C137 H168 0.977 1_545 S
C138 C125 1.684 . S
C138 H163 0.979 . S
C138 H164 0.980 . S
C138 H165 0.983 . S
C139 C140 1.391 . S
C139 C144 1.391 . S
C139 H169 0.948 . S
C140 C139 1.391 . S
C140 C141 1.391 1_545 S
C141 C140 1.391 1_565 S
C141 C142 1.392 . S
C141 H170 0.947 . S
C142 C141 1.392 . S
C142 C143 1.419 1_565 S
C142 H171 0.948 . S
C143 C142 1.419 1_545 S
C143 C144 1.391 . S
C143 C147 1.397 . S
C144 C139 1.391 . S
C144 C143 1.391 . S
C144 C145 1.399 . S
C145 C144 1.399 . S
C145 C146 1.396 . S
C145 C148 1.453 . S
C145 C149 1.684 . S
C146 C127 1.723 . S
C146 C145 1.396 . S
C146 C147 1.394 . S
C147 C143 1.397 . S
C147 C146 1.394 . S
C147 C157 1.723 1_545 S
C148 C145 1.453 . S
C148 H172 0.982 . S
C148 H173 0.979 . S
C148 H174 0.977 . S
C149 C145 1.684 . S
C149 H175 0.979 . S
C149 H176 0.980 . S
C149 H177 0.983 . S
C150 H126 0.948 . S
C150 C151 1.391 . S
C150 C155 1.391 . S
C151 C150 1.391 . S
C151 C152 1.391 . S
C152 H129 0.947 . S
C152 C151 1.391 . S
C152 C153 1.392 . S
C153 H130 0.948 . S
C153 C152 1.392 . S
C153 C154 1.419 . S
C154 C153 1.419 . S
C154 C155 1.391 . S
C154 C158 1.397 . S
C155 C150 1.391 . S
C155 C154 1.391 . S
C155 C156 1.399 . S
C156 C155 1.399 . S
C156 C157 1.396 . S
C156 C159 1.453 . S
C156 C160 1.684 . S
C157 C147 1.723 1_565 S
C157 C156 1.396 . S
C157 C158 1.394 . S
C158 C128 1.723 1_565 S
C158 C154 1.397 . S
C158 C157 1.394 . S
C159 H131 0.982 . S
C159 H135 0.979 . S
C159 H136 0.977 . S
C159 C156 1.453 . S
C160 H132 0.979 . S
C160 H133 0.980 . S
C160 H134 0.983 . S
C160 C156 1.684 . S
H161 C179 0.948 . S
H162 C120 0.948 . S
H163 C138 0.979 . S
H164 C138 0.980 . S
H165 C138 0.983 . S
H166 C137 0.982 . S
H167 C137 0.979 . S
H168 C137 0.977 1_565 S
H169 C139 0.948 . S
H170 C141 0.947 . S
H171 C142 0.948 . S
H172 C148 0.982 . S
H173 C148 0.979 . S
H174 C148 0.977 . S
H175 C149 0.979 . S
H176 C149 0.980 . S
H177 C149 0.983 . S
H178 C122 0.947 . S
C179 C122 1.392 . S
C179 C123 1.419 . S
C179 H161 0.948 . S
C180 C181 1.391 . S
C180 C184 1.391 . S
C180 H222 0.948 . S
C181 C180 1.391 . S
C181 C182 1.391 . S
C182 C181 1.391 . S
C182 H238 0.947 . S
C182 C239 1.392 . S
C183 C184 1.391 . S
C183 C187 1.397 . S
C183 C239 1.419 . S
C184 C180 1.391 . S
C184 C183 1.391 . S
C184 C185 1.399 . S
C185 C184 1.399 . S
C185 C188 1.396 . S
C185 C197 1.453 . S
C185 C198 1.684 . S
H186 C210 0.948 . S
C187 C183 1.397 . S
C187 C188 1.394 . S
C187 C206 1.723 . S
C188 C185 1.396 . S
C188 C187 1.394 . S
C188 C218 1.723 . S
H189 C212 0.947 . S
H190 C213 0.948 . S
H191 C219 0.982 . S
H192 C220 0.979 . S
H193 C220 0.980 . S
H194 C220 0.983 . S
H195 C219 0.979 . S
H196 C219 0.977 . S
C197 C185 1.453 . S
C197 H226 0.982 . S
C197 H227 0.979 . S
C197 H228 0.977 . S
C198 C185 1.684 . S
C198 H223 0.979 . S
C198 H224 0.980 . S
C198 H225 0.983 . S
C199 C200 1.391 . S
C199 C204 1.391 . S
C199 H229 0.948 . S
C200 C199 1.391 . S
C200 C201 1.391 . S
C201 C200 1.391 . S
C201 C202 1.392 . S
C201 H230 0.947 . S
C202 C201 1.392 . S
C202 C203 1.419 . S
C202 H231 0.948 . S
C203 C202 1.419 . S
C203 C204 1.391 . S
C203 C207 1.397 . S
C204 C199 1.391 . S
C204 C203 1.391 . S
C204 C205 1.399 . S
C205 C204 1.399 . S
C205 C206 1.396 . S
C205 C208 1.453 . S
C205 C209 1.684 . S
C206 C187 1.723 . S
C206 C205 1.396 . S
C206 C207 1.394 . S
C207 C203 1.397 . S
C207 C206 1.394 . S
C207 C217 1.723 . S
C208 C205 1.453 . S
C208 H232 0.982 . S
C208 H233 0.979 . S
C208 H234 0.977 . S
C209 C205 1.684 . S
C209 H235 0.979 . S
C209 H236 0.980 . S
C209 H237 0.983 . S
C210 H186 0.948 . S
C210 C211 1.391 . S
C210 C215 1.391 . S
C211 C210 1.391 . S
C211 C212 1.391 . S
C212 H189 0.947 . S
C212 C211 1.391 . S
C212 C213 1.392 . S
C213 H190 0.948 . S
C213 C212 1.392 . S
C213 C214 1.419 . S
C214 C213 1.419 . S
C214 C215 1.391 . S
C214 C218 1.397 . S
C215 C210 1.391 . S
C215 C214 1.391 . S
C215 C216 1.399 . S
C216 C215 1.399 . S
C216 C217 1.396 . S
C216 C219 1.453 . S
C216 C220 1.684 . S
C217 C207 1.723 . S
C217 C216 1.396 . S
C217 C218 1.394 . S
C218 C188 1.723 . S
C218 C214 1.397 . S
C218 C217 1.394 . S
C219 H191 0.982 . S
C219 H195 0.979 . S
C219 H196 0.977 . S
C219 C216 1.453 . S
C220 H192 0.979 . S
C220 H193 0.980 . S
C220 H194 0.983 . S
C220 C216 1.684 . S
H221 C239 0.948 . S
H222 C180 0.948 . S
H223 C198 0.979 . S
H224 C198 0.980 . S
H225 C198 0.983 . S
H226 C197 0.982 . S
H227 C197 0.979 . S
H228 C197 0.977 . S
H229 C199 0.948 . S
H230 C201 0.947 . S
H231 C202 0.948 . S
H232 C208 0.982 . S
H233 C208 0.979 . S
H234 C208 0.977 . S
H235 C209 0.979 . S
H236 C209 0.980 . S
H237 C209 0.983 . S
H238 C182 0.947 . S
C239 C182 1.392 . S
C239 C183 1.419 . S
C239 H221 0.948 . S
C240 C241 1.391 . S
C240 C244 1.391 . S
C240 H282 0.948 . S
C241 C240 1.391 . S
C241 C242 1.391 . S
C242 C241 1.391 . S
C242 H298 0.947 . S
C242 C299 1.392 . S
C243 C244 1.391 . S
C243 C247 1.397 . S
C243 C299 1.419 . S
C244 C240 1.391 . S
C244 C243 1.391 . S
C244 C245 1.399 . S
C245 C244 1.399 . S
C245 C248 1.396 . S
C245 C257 1.453 . S
C245 C258 1.684 . S
H246 C270 0.948 . S
C247 C243 1.397 . S
C247 C248 1.394 . S
C247 C266 1.723 . S
C248 C245 1.396 . S
C248 C247 1.394 . S
C248 C278 1.723 . S
H249 C272 0.947 . S
H250 C273 0.948 1_455 S
H251 C279 0.982 . S
H252 C280 0.979 . S
H253 C280 0.980 . S
H254 C280 0.983 . S
H255 C279 0.979 . S
H256 C279 0.977 . S
C257 C245 1.453 . S
C257 H286 0.982 . S
C257 H287 0.979 . S
C257 H288 0.977 . S
C258 C245 1.684 . S
C258 H283 0.979 . S
C258 H284 0.980 . S
C258 H285 0.983 . S
C259 C260 1.391 . S
C259 C264 1.391 . S
C259 H289 0.948 . S
C260 C259 1.391 . S
C260 C261 1.391 . S
C261 C260 1.391 . S
C261 C262 1.392 . S
C261 H290 0.947 1_455 S
C262 C261 1.392 . S
C262 C263 1.419 . S
C262 H291 0.948 1_455 S
C263 C262 1.419 . S
C263 C264 1.391 . S
C263 C267 1.397 . S
C264 C259 1.391 . S
C264 C263 1.391 . S
C264 C265 1.399 . S
C265 C264 1.399 . S
C265 C266 1.396 . S
C265 C268 1.453 . S
C265 C269 1.684 . S
C266 C247 1.723 . S
C266 C265 1.396 . S
C266 C267 1.394 . S
C267 C263 1.397 . S
C267 C266 1.394 . S
C267 C277 1.723 . S
C268 C265 1.453 . S
C268 H292 0.982 . S
C268 H293 0.979 . S
C268 H294 0.977 . S
C269 C265 1.684 . S
C269 H295 0.979 . S
C269 H296 0.980 . S
C269 H297 0.983 . S
C270 H246 0.948 . S
C270 C271 1.391 . S
C270 C275 1.391 . S
C271 C270 1.391 . S
C271 C272 1.391 . S
C272 H249 0.947 . S
C272 C271 1.391 . S
C272 C273 1.392 . S
C273 H250 0.948 1_655 S
C273 C272 1.392 . S
C273 C274 1.419 . S
C274 C273 1.419 . S
C274 C275 1.391 . S
C274 C278 1.397 1_655 S
C275 C270 1.391 . S
C275 C274 1.391 . S
C275 C276 1.399 . S
C276 C275 1.399 . S
C276 C277 1.396 1_655 S
C276 C279 1.453 . S
C276 C280 1.684 . S
C277 C267 1.723 . S
C277 C276 1.396 1_455 S
C277 C278 1.394 . S
C278 C248 1.723 . S
C278 C274 1.397 1_455 S
C278 C277 1.394 . S
C279 H251 0.982 . S
C279 H255 0.979 . S
C279 H256 0.977 . S
C279 C276 1.453 . S
C280 H252 0.979 . S
C280 H253 0.980 . S
C280 H254 0.983 . S
C280 C276 1.684 . S
H281 C299 0.948 . S
H282 C240 0.948 . S
H283 C258 0.979 . S
H284 C258 0.980 . S
H285 C258 0.983 . S
H286 C257 0.982 . S
H287 C257 0.979 . S
H288 C257 0.977 . S
H289 C259 0.948 . S
H290 C261 0.947 1_655 S
H291 C262 0.948 1_655 S
H292 C268 0.982 . S
H293 C268 0.979 . S
H294 C268 0.977 . S
H295 C269 0.979 . S
H296 C269 0.980 . S
H297 C269 0.983 . S
H298 C242 0.947 . S
C299 C242 1.392 . S
C299 C243 1.419 . S
C299 H281 0.948 . S
C300 C301 1.391 . S
C300 C304 1.391 . S
C300 H342 0.948 . S
C301 C300 1.391 . S
C301 C302 1.391 . S
C302 C301 1.391 . S
C302 H358 0.947 . S
C302 C359 1.392 . S
C303 C304 1.391 . S
C303 C307 1.397 . S
C303 C359 1.419 . S
C304 C300 1.391 . S
C304 C303 1.391 . S
C304 C305 1.399 . S
C305 C304 1.399 . S
C305 C308 1.396 . S
C305 C317 1.453 . S
C305 C318 1.684 . S
H306 C330 0.948 . S
C307 C303 1.397 . S
C307 C308 1.394 . S
C307 C326 1.723 . S
C308 C305 1.396 . S
C308 C307 1.394 . S
C308 C338 1.723 1_655 S
H309 C332 0.947 . S
H310 C333 0.948 . S
H311 C339 0.982 . S
H312 C340 0.979 . S
H313 C340 0.980 . S
H314 C340 0.983 . S
H315 C339 0.979 . S
H316 C339 0.977 . S
C317 C305 1.453 . S
C317 H346 0.982 1_655 S
C317 H347 0.979 . S
C317 H348 0.977 1_655 S
C318 C305 1.684 . S
C318 H343 0.979 . S
C318 H344 0.980 . S
C318 H345 0.983 . S
C319 C320 1.391 1_655 S
C319 C324 1.391 . S
C319 H349 0.948 . S
C320 C319 1.391 1_455 S
C320 C321 1.391 . S
C321 C320 1.391 . S
C321 C322 1.392 . S
C321 H350 0.947 . S
C322 C321 1.392 . S
C322 C323 1.419 . S
C322 H351 0.948 . S
C323 C322 1.419 . S
C323 C324 1.391 1_455 S
C323 C327 1.397 . S
C324 C319 1.391 . S
C324 C323 1.391 1_655 S
C324 C325 1.399 . S
C325 C324 1.399 . S
C325 C326 1.396 . S
C325 C328 1.453 . S
C325 C329 1.684 . S
C326 C307 1.723 . S
C326 C325 1.396 . S
C326 C327 1.394 1_655 S
C327 C323 1.397 . S
C327 C326 1.394 1_455 S
C327 C337 1.723 . S
C328 C325 1.453 . S
C328 H352 0.982 . S
C328 H353 0.979 . S
C328 H354 0.977 . S
C329 C325 1.684 . S
C329 H355 0.979 . S
C329 H356 0.980 . S
C329 H357 0.983 . S
C330 H306 0.948 . S
C330 C331 1.391 . S
C330 C335 1.391 . S
C331 C330 1.391 . S
C331 C332 1.391 . S
C332 H309 0.947 . S
C332 C331 1.391 . S
C332 C333 1.392 . S
C333 H310 0.948 . S
C333 C332 1.392 . S
C333 C334 1.419 . S
C334 C333 1.419 . S
C334 C335 1.391 . S
C334 C338 1.397 . S
C335 C330 1.391 . S
C335 C334 1.391 . S
C335 C336 1.399 . S
C336 C335 1.399 . S
C336 C337 1.396 . S
C336 C339 1.453 . S
C336 C340 1.684 . S
C337 C327 1.723 . S
C337 C336 1.396 . S
C337 C338 1.394 . S
C338 C308 1.723 1_455 S
C338 C334 1.397 . S
C338 C337 1.394 . S
C339 H311 0.982 . S
C339 H315 0.979 . S
C339 H316 0.977 . S
C339 C336 1.453 . S
C340 H312 0.979 . S
C340 H313 0.980 . S
C340 H314 0.983 . S
C340 C336 1.684 . S
H341 C359 0.948 . S
H342 C300 0.948 . S
H343 C318 0.979 . S
H344 C318 0.980 . S
H345 C318 0.983 . S
H346 C317 0.982 1_455 S
H347 C317 0.979 . S
H348 C317 0.977 1_455 S
H349 C319 0.948 . S
H350 C321 0.947 . S
H351 C322 0.948 . S
H352 C328 0.982 . S
H353 C328 0.979 . S
H354 C328 0.977 . S
H355 C329 0.979 . S
H356 C329 0.980 . S
H357 C329 0.983 . S
H358 C302 0.947 . S
C359 C302 1.392 . S
C359 C303 1.419 . S
C359 H341 0.948 . S
C360 C361 1.391 . S
C360 C364 1.391 . S
C360 H402 0.948 . S
C361 C360 1.391 . S
C361 C362 1.391 . S
C362 C361 1.391 . S
C362 H418 0.947 . S
C362 C419 1.392 . S
C363 C364 1.391 . S
C363 C367 1.397 . S
C363 C419 1.419 . S
C364 C360 1.391 . S
C364 C363 1.391 . S
C364 C365 1.399 . S
C365 C364 1.399 . S
C365 C368 1.396 . S
C365 C377 1.453 1_565 S
C365 C378 1.684 . S
H366 C390 0.948 . S
C367 C363 1.397 . S
C367 C368 1.394 . S
C367 C386 1.723 . S
C368 C365 1.396 . S
C368 C367 1.394 . S
C368 C398 1.723 1_565 S
H369 C392 0.947 . S
H370 C393 0.948 . S
H371 C399 0.982 . S
H372 C400 0.979 . S
H373 C400 0.980 . S
H374 C400 0.983 . S
H375 C399 0.979 . S
H376 C399 0.977 . S
C377 C365 1.453 1_545 S
C377 H406 0.982 . S
C377 H407 0.979 1_545 S
C377 H408 0.977 . S
C378 C365 1.684 . S
C378 H403 0.979 . S
C378 H404 0.980 . S
C378 H405 0.983 . S
C379 C380 1.391 . S
C379 C384 1.391 . S
C379 H409 0.948 . S
C380 C379 1.391 . S
C380 C381 1.391 1_565 S
C381 C380 1.391 1_545 S
C381 C382 1.392 . S
C381 H410 0.947 . S
C382 C381 1.392 . S
C382 C383 1.419 . S
C382 H411 0.948 . S
C383 C382 1.419 . S
C383 C384 1.391 1_545 S
C383 C387 1.397 . S
C384 C379 1.391 . S
C384 C383 1.391 1_565 S
C384 C385 1.399 . S
C385 C384 1.399 . S
C385 C386 1.396 . S
C385 C388 1.453 . S
C385 C389 1.684 . S
C386 C367 1.723 . S
C386 C385 1.396 . S
C386 C387 1.394 1_565 S
C387 C383 1.397 . S
C387 C386 1.394 1_545 S
C387 C397 1.723 . S
C388 C385 1.453 . S
C388 H412 0.982 . S
C388 H413 0.979 . S
C388 H414 0.977 . S
C389 C385 1.684 . S
C389 H415 0.979 . S
C389 H416 0.980 . S
C389 H417 0.983 . S
C390 H366 0.948 . S
C390 C391 1.391 . S
C390 C395 1.391 . S
C391 C390 1.391 . S
C391 C392 1.391 . S
C392 H369 0.947 . S
C392 C391 1.391 . S
C392 C393 1.392 . S
C393 H370 0.948 . S
C393 C392 1.392 . S
C393 C394 1.419 . S
C394 C393 1.419 . S
C394 C395 1.391 . S
C394 C398 1.397 . S
C395 C390 1.391 . S
C395 C394 1.391 . S
C395 C396 1.399 . S
C396 C395 1.399 . S
C396 C397 1.396 . S
C396 C399 1.453 . S
C396 C400 1.684 . S
C397 C387 1.723 . S
C397 C396 1.396 . S
C397 C398 1.394 . S
C398 C368 1.723 1_545 S
C398 C394 1.397 . S
C398 C397 1.394 . S
C399 H371 0.982 . S
C399 H375 0.979 . S
C399 H376 0.977 . S
C399 C396 1.453 . S
C400 H372 0.979 . S
C400 H373 0.980 . S
C400 H374 0.983 . S
C400 C396 1.684 . S
H401 C419 0.948 . S
H402 C360 0.948 . S
H403 C378 0.979 . S
H404 C378 0.980 . S
H405 C378 0.983 . S
H406 C377 0.982 . S
H407 C377 0.979 1_565 S
H408 C377 0.977 . S
H409 C379 0.948 . S
H410 C381 0.947 . S
H411 C382 0.948 . S
H412 C388 0.982 . S
H413 C388 0.979 . S
H414 C388 0.977 . S
H415 C389 0.979 . S
H416 C389 0.980 . S
H417 C389 0.983 . S
H418 C362 0.947 . S
C419 C362 1.392 . S
C419 C363 1.419 . S
C419 H401 0.948 . S
C420 C421 1.391 . S
C420 C424 1.391 . S
C420 H462 0.948 . S
C421 C420 1.391 . S
C421 C422 1.391 . S
C422 C421 1.391 . S
C422 H478 0.947 . S
C422 C479 1.392 . S
C423 C424 1.391 . S
C423 C427 1.397 . S
C423 C479 1.419 . S
C424 C420 1.391 . S
C424 C423 1.391 . S
C424 C425 1.399 . S
C425 C424 1.399 . S
C425 C428 1.396 . S
C425 C437 1.453 . S
C425 C438 1.684 . S
H426 C450 0.948 . S
C427 C423 1.397 . S
C427 C428 1.394 . S
C427 C446 1.723 . S
C428 C425 1.396 . S
C428 C427 1.394 . S
C428 C458 1.723 . S
H429 C452 0.947 . S
H430 C453 0.948 . S
H431 C459 0.982 . S
H432 C460 0.979 . S
H433 C460 0.980 . S
H434 C460 0.983 . S
H435 C459 0.979 . S
H436 C459 0.977 . S
C437 C425 1.453 . S
C437 H466 0.982 . S
C437 H467 0.979 . S
C437 H468 0.977 . S
C438 C425 1.684 . S
C438 H463 0.979 . S
C438 H464 0.980 . S
C438 H465 0.983 . S
C439 C440 1.391 . S
C439 C444 1.391 . S
C439 H469 0.948 . S
C440 C439 1.391 . S
C440 C441 1.391 . S
C441 C440 1.391 . S
C441 C442 1.392 . S
C441 H470 0.947 . S
C442 C441 1.392 . S
C442 C443 1.419 . S
C442 H471 0.948 . S
C443 C442 1.419 . S
C443 C444 1.391 . S
C443 C447 1.397 . S
C444 C439 1.391 . S
C444 C443 1.391 . S
C444 C445 1.399 . S
C445 C444 1.399 . S
C445 C446 1.396 . S
C445 C448 1.453 . S
C445 C449 1.684 . S
C446 C427 1.723 . S
C446 C445 1.396 . S
C446 C447 1.394 . S
C447 C443 1.397 . S
C447 C446 1.394 . S
C447 C457 1.723 . S
C448 C445 1.453 . S
C448 H472 0.982 . S
C448 H473 0.979 . S
C448 H474 0.977 . S
C449 C445 1.684 . S
C449 H475 0.979 . S
C449 H476 0.980 . S
C449 H477 0.983 . S
C450 H426 0.948 . S
C450 C451 1.391 . S
C450 C455 1.391 . S
C451 C450 1.391 . S
C451 C452 1.391 . S
C452 H429 0.947 . S
C452 C451 1.391 . S
C452 C453 1.392 . S
C453 H430 0.948 . S
C453 C452 1.392 . S
C453 C454 1.419 . S
C454 C453 1.419 . S
C454 C455 1.391 . S
C454 C458 1.397 . S
C455 C450 1.391 . S
C455 C454 1.391 . S
C455 C456 1.399 . S
C456 C455 1.399 . S
C456 C457 1.396 . S
C456 C459 1.453 . S
C456 C460 1.684 . S
C457 C447 1.723 . S
C457 C456 1.396 . S
C457 C458 1.394 . S
C458 C428 1.723 . S
C458 C454 1.397 . S
C458 C457 1.394 . S
C459 H431 0.982 . S
C459 H435 0.979 . S
C459 H436 0.977 . S
C459 C456 1.453 . S
C460 H432 0.979 . S
C460 H433 0.980 . S
C460 H434 0.983 . S
C460 C456 1.684 . S
H461 C479 0.948 . S
H462 C420 0.948 . S
H463 C438 0.979 . S
H464 C438 0.980 . S
H465 C438 0.983 . S
H466 C437 0.982 . S
H467 C437 0.979 . S
H468 C437 0.977 . S
H469 C439 0.948 . S
H470 C441 0.947 . S
H471 C442 0.948 . S
H472 C448 0.982 . S
H473 C448 0.979 . S
H474 C448 0.977 . S
H475 C449 0.979 . S
H476 C449 0.980 . S
H477 C449 0.983 . S
H478 C422 0.947 . S
C479 C422 1.392 . S
C479 C423 1.419 . S
C479 H461 0.948 . S
C480 C481 1.391 . S
C480 C482 1.394 . S
C480 H496 0.931 . S
C481 C480 1.391 . S
C481 C485 1.376 . S
C482 C480 1.394 . S
C482 C483 1.369 . S
C482 C486 1.531 . S
C483 C482 1.369 . S
C483 C484 1.410 . S
C483 C491 1.503 . S
C484 C483 1.410 . S
C484 C485 1.392 . S
C484 C487 1.511 . S
C485 C481 1.376 . S
C485 C484 1.392 . S
C485 H497 0.929 . S
C486 C482 1.531 . S
C486 H498 0.960 . S
C486 H499 0.962 . S
C486 H500 0.960 . S
C487 C484 1.511 . S
C487 H501 0.961 . S
C487 H502 0.961 . S
C487 H503 0.961 . S
C488 C489 1.370 . S
C488 C490 1.363 . S
C488 H504 0.931 . S
C489 C488 1.370 . S
C489 C493 1.408 . S
C490 C488 1.363 . S
C490 C491 1.370 . S
C490 C494 1.524 . S
C491 C483 1.503 . S
C491 C490 1.370 . S
C491 C492 1.403 . S
C492 C491 1.403 . S
C492 C493 1.404 . S
C492 C495 1.539 . S
C493 C489 1.408 . S
C493 C492 1.404 . S
C493 H505 0.930 . S
C494 C490 1.524 . S
C494 H506 0.956 . S
C494 H507 0.961 . S
C494 H508 0.961 . S
C495 C492 1.539 . S
C495 H509 0.958 . S
C495 H510 0.961 . S
C495 H511 0.960 . S
H496 C480 0.931 . S
H497 C485 0.929 . S
H498 C486 0.960 . S
H499 C486 0.962 . S
H500 C486 0.960 . S
H501 C487 0.961 . S
H502 C487 0.961 . S
H503 C487 0.961 . S
H504 C488 0.931 . S
H505 C493 0.930 . S
H506 C494 0.956 . S
H507 C494 0.961 . S
H508 C494 0.961 . S
H509 C495 0.958 . S
H510 C495 0.961 . S
H511 C495 0.960 . S
C512 C513 1.391 . S
C512 C514 1.394 . S
C512 H528 0.931 . S
C513 C512 1.391 . S
C513 C517 1.376 . S
C514 C512 1.394 . S
C514 C515 1.369 . S
C514 C518 1.531 . S
C515 C514 1.369 . S
C515 C516 1.410 . S
C515 C523 1.503 . S
C516 C515 1.410 . S
C516 C517 1.392 . S
C516 C519 1.511 . S
C517 C513 1.376 . S
C517 C516 1.392 . S
C517 H529 0.929 . S
C518 C514 1.531 . S
C518 H530 0.960 . S
C518 H531 0.962 . S
C518 H532 0.960 . S
C519 C516 1.511 . S
C519 H533 0.961 . S
C519 H534 0.961 . S
C519 H535 0.961 . S
C520 C521 1.370 . S
C520 C522 1.363 . S
C520 H536 0.931 . S
C521 C520 1.370 . S
C521 C525 1.408 . S
C522 C520 1.363 . S
C522 C523 1.370 . S
C522 C526 1.524 . S
C523 C515 1.503 . S
C523 C522 1.370 . S
C523 C524 1.403 . S
C524 C523 1.403 . S
C524 C525 1.404 . S
C524 C527 1.539 . S
C525 C521 1.408 . S
C525 C524 1.404 . S
C525 H537 0.930 . S
C526 C522 1.524 . S
C526 H538 0.956 . S
C526 H539 0.961 . S
C526 H540 0.961 . S
C527 C524 1.539 . S
C527 H541 0.958 . S
C527 H542 0.961 . S
C527 H543 0.960 . S
H528 C512 0.931 . S
H529 C517 0.929 . S
H530 C518 0.960 . S
H531 C518 0.962 . S
H532 C518 0.960 . S
H533 C519 0.961 . S
H534 C519 0.961 . S
H535 C519 0.961 . S
H536 C520 0.931 . S
H537 C525 0.930 . S
H538 C526 0.956 . S
H539 C526 0.961 . S
H540 C526 0.961 . S
H541 C527 0.958 . S
H542 C527 0.961 . S
H543 C527 0.960 . S
C544 C545 1.391 . S
C544 C546 1.394 . S
C544 H560 0.931 . S
C545 C544 1.391 . S
C545 C549 1.376 . S
C546 C544 1.394 . S
C546 C547 1.369 . S
C546 C550 1.531 . S
C547 C546 1.369 . S
C547 C548 1.410 . S
C547 C555 1.503 . S
C548 C547 1.410 . S
C548 C549 1.392 . S
C548 C551 1.511 . S
C549 C545 1.376 . S
C549 C548 1.392 . S
C549 H561 0.929 . S
C550 C546 1.531 . S
C550 H562 0.960 . S
C550 H563 0.962 . S
C550 H564 0.960 . S
C551 C548 1.511 . S
C551 H565 0.961 . S
C551 H566 0.961 . S
C551 H567 0.961 . S
C552 C553 1.370 . S
C552 C554 1.363 . S
C552 H568 0.931 . S
C553 C552 1.370 . S
C553 C557 1.408 . S
C554 C552 1.363 . S
C554 C555 1.370 . S
C554 C558 1.524 . S
C555 C547 1.503 . S
C555 C554 1.370 . S
C555 C556 1.403 . S
C556 C555 1.403 . S
C556 C557 1.404 . S
C556 C559 1.539 . S
C557 C553 1.408 . S
C557 C556 1.404 . S
C557 H569 0.930 . S
C558 C554 1.524 . S
C558 H570 0.956 . S
C558 H571 0.961 . S
C558 H572 0.961 . S
C559 C556 1.539 . S
C559 H573 0.958 . S
C559 H574 0.961 . S
C559 H575 0.960 . S
H560 C544 0.931 . S
H561 C549 0.929 . S
H562 C550 0.960 . S
H563 C550 0.962 . S
H564 C550 0.960 . S
H565 C551 0.961 . S
H566 C551 0.961 . S
H567 C551 0.961 . S
H568 C552 0.931 . S
H569 C557 0.930 . S
H570 C558 0.956 . S
H571 C558 0.961 . S
H572 C558 0.961 . S
H573 C559 0.958 . S
H574 C559 0.961 . S
H575 C559 0.960 . S
C576 C577 1.391 . S
C576 C578 1.394 . S
C576 H592 0.931 . S
C577 C576 1.391 . S
C577 C581 1.376 . S
C578 C576 1.394 . S
C578 C579 1.369 . S
C578 C582 1.531 . S
C579 C578 1.369 . S
C579 C580 1.410 . S
C579 C587 1.503 . S
C580 C579 1.410 . S
C580 C581 1.392 . S
C580 C583 1.511 . S
C581 C577 1.376 . S
C581 C580 1.392 . S
C581 H593 0.929 . S
C582 C578 1.531 . S
C582 H594 0.960 . S
C582 H595 0.962 . S
C582 H596 0.960 . S
C583 C580 1.511 . S
C583 H597 0.961 . S
C583 H598 0.961 . S
C583 H599 0.961 . S
C584 C585 1.370 . S
C584 C586 1.363 . S
C584 H600 0.931 . S
C585 C584 1.370 . S
C585 C589 1.408 . S
C586 C584 1.363 . S
C586 C587 1.370 . S
C586 C590 1.524 . S
C587 C579 1.503 . S
C587 C586 1.370 . S
C587 C588 1.403 . S
C588 C587 1.403 . S
C588 C589 1.404 . S
C588 C591 1.539 . S
C589 C585 1.408 . S
C589 C588 1.404 . S
C589 H601 0.930 . S
C590 C586 1.524 . S
C590 H602 0.956 . S
C590 H603 0.961 . S
C590 H604 0.961 . S
C591 C588 1.539 . S
C591 H605 0.958 . S
C591 H606 0.961 . S
C591 H607 0.960 . S
H592 C576 0.931 . S
H593 C581 0.929 . S
H594 C582 0.960 . S
H595 C582 0.962 . S
H596 C582 0.960 . S
H597 C583 0.961 . S
H598 C583 0.961 . S
H599 C583 0.961 . S
H600 C584 0.931 . S
H601 C589 0.930 . S
H602 C590 0.956 . S
H603 C590 0.961 . S
H604 C590 0.961 . S
H605 C591 0.958 . S
H606 C591 0.961 . S
H607 C591 0.960 . S
C608 C609 1.391 . S
C608 C610 1.394 . S
C608 H624 0.931 . S
C609 C608 1.391 . S
C609 C613 1.376 . S
C610 C608 1.394 . S
C610 C611 1.369 . S
C610 C614 1.531 . S
C611 C610 1.369 . S
C611 C612 1.410 . S
C611 C619 1.503 . S
C612 C611 1.410 . S
C612 C613 1.392 . S
C612 C615 1.511 . S
C613 C609 1.376 . S
C613 C612 1.392 . S
C613 H625 0.929 . S
C614 C610 1.531 . S
C614 H626 0.960 . S
C614 H627 0.962 . S
C614 H628 0.960 . S
C615 C612 1.511 . S
C615 H629 0.961 . S
C615 H630 0.961 . S
C615 H631 0.961 . S
C616 C617 1.370 . S
C616 C618 1.363 . S
C616 H632 0.931 . S
C617 C616 1.370 . S
C617 C621 1.408 . S
C618 C616 1.363 . S
C618 C619 1.370 . S
C618 C622 1.524 . S
C619 C611 1.503 . S
C619 C618 1.370 . S
C619 C620 1.403 . S
C620 C619 1.403 . S
C620 C621 1.404 . S
C620 C623 1.539 . S
C621 C617 1.408 . S
C621 C620 1.404 . S
C621 H633 0.930 . S
C622 C618 1.524 . S
C622 H634 0.956 . S
C622 H635 0.961 . S
C622 H636 0.961 . S
C623 C620 1.539 . S
C623 H637 0.958 . S
C623 H638 0.961 . S
C623 H639 0.960 . S
H624 C608 0.931 . S
H625 C613 0.929 . S
H626 C614 0.960 . S
H627 C614 0.962 . S
H628 C614 0.960 . S
H629 C615 0.961 . S
H630 C615 0.961 . S
H631 C615 0.961 . S
H632 C616 0.931 . S
H633 C621 0.930 . S
H634 C622 0.956 . S
H635 C622 0.961 . S
H636 C622 0.961 . S
H637 C623 0.958 . S
H638 C623 0.961 . S
H639 C623 0.960 . S
C640 C641 1.391 . S
C640 C642 1.394 . S
C640 H656 0.931 . S
C641 C640 1.391 . S
C641 C645 1.376 . S
C642 C640 1.394 . S
C642 C643 1.369 . S
C642 C646 1.531 . S
C643 C642 1.369 . S
C643 C644 1.410 . S
C643 C651 1.503 . S
C644 C643 1.410 . S
C644 C645 1.392 . S
C644 C647 1.511 . S
C645 C641 1.376 . S
C645 C644 1.392 . S
C645 H657 0.929 . S
C646 C642 1.531 . S
C646 H658 0.960 . S
C646 H659 0.962 . S
C646 H660 0.960 . S
C647 C644 1.511 . S
C647 H661 0.961 . S
C647 H662 0.961 . S
C647 H663 0.961 . S
C648 C649 1.370 . S
C648 C650 1.363 . S
C648 H664 0.931 . S
C649 C648 1.370 . S
C649 C653 1.408 . S
C650 C648 1.363 . S
C650 C651 1.370 . S
C650 C654 1.524 . S
C651 C643 1.503 . S
C651 C650 1.370 . S
C651 C652 1.403 . S
C652 C651 1.403 . S
C652 C653 1.404 . S
C652 C655 1.539 . S
C653 C649 1.408 . S
C653 C652 1.404 . S
C653 H665 0.930 . S
C654 C650 1.524 . S
C654 H666 0.956 . S
C654 H667 0.961 . S
C654 H668 0.961 . S
C655 C652 1.539 . S
C655 H669 0.958 . S
C655 H670 0.961 . S
C655 H671 0.960 . S
H656 C640 0.931 . S
H657 C645 0.929 . S
H658 C646 0.960 . S
H659 C646 0.962 . S
H660 C646 0.960 . S
H661 C647 0.961 . S
H662 C647 0.961 . S
H663 C647 0.961 . S
H664 C648 0.931 . S
H665 C653 0.930 . S
H666 C654 0.956 . S
H667 C654 0.961 . S
H668 C654 0.961 . S
H669 C655 0.958 . S
H670 C655 0.961 . S
H671 C655 0.960 . S
C672 C673 1.391 . S
C672 C674 1.394 . S
C672 H688 0.931 . S
C673 C672 1.391 . S
C673 C677 1.376 . S
C674 C672 1.394 . S
C674 C675 1.369 . S
C674 C678 1.531 . S
C675 C674 1.369 . S
C675 C676 1.410 . S
C675 C683 1.503 . S
C676 C675 1.410 . S
C676 C677 1.392 . S
C676 C679 1.511 . S
C677 C673 1.376 . S
C677 C676 1.392 . S
C677 H689 0.929 . S
C678 C674 1.531 . S
C678 H690 0.960 . S
C678 H691 0.962 . S
C678 H692 0.960 . S
C679 C676 1.511 . S
C679 H693 0.961 . S
C679 H694 0.961 . S
C679 H695 0.961 . S
C680 C681 1.370 . S
C680 C682 1.363 . S
C680 H696 0.931 . S
C681 C680 1.370 . S
C681 C685 1.408 . S
C682 C680 1.363 . S
C682 C683 1.370 . S
C682 C686 1.524 . S
C683 C675 1.503 . S
C683 C682 1.370 . S
C683 C684 1.403 . S
C684 C683 1.403 . S
C684 C685 1.404 . S
C684 C687 1.539 . S
C685 C681 1.408 . S
C685 C684 1.404 . S
C685 H697 0.930 . S
C686 C682 1.524 . S
C686 H698 0.956 . S
C686 H699 0.961 . S
C686 H700 0.961 . S
C687 C684 1.539 . S
C687 H701 0.958 . S
C687 H702 0.961 . S
C687 H703 0.960 . S
H688 C672 0.931 . S
H689 C677 0.929 . S
H690 C678 0.960 . S
H691 C678 0.962 . S
H692 C678 0.960 . S
H693 C679 0.961 . S
H694 C679 0.961 . S
H695 C679 0.961 . S
H696 C680 0.931 . S
H697 C685 0.930 . S
H698 C686 0.956 . S
H699 C686 0.961 . S
H700 C686 0.961 . S
H701 C687 0.958 . S
H702 C687 0.961 . S
H703 C687 0.960 . S
C704 C705 1.391 . S
C704 C706 1.394 . S
C704 H720 0.931 . S
C705 C704 1.391 . S
C705 C709 1.376 . S
C706 C704 1.394 . S
C706 C707 1.369 . S
C706 C710 1.531 . S
C707 C706 1.369 . S
C707 C708 1.410 . S
C707 C715 1.503 . S
C708 C707 1.410 . S
C708 C709 1.392 . S
C708 C711 1.511 . S
C709 C705 1.376 . S
C709 C708 1.392 . S
C709 H721 0.929 . S
C710 C706 1.531 . S
C710 H722 0.960 . S
C710 H723 0.962 . S
C710 H724 0.960 . S
C711 C708 1.511 . S
C711 H725 0.961 . S
C711 H726 0.961 . S
C711 H727 0.961 . S
C712 C713 1.370 . S
C712 C714 1.363 . S
C712 H728 0.931 . S
C713 C712 1.370 . S
C713 C717 1.408 . S
C714 C712 1.363 . S
C714 C715 1.370 . S
C714 C718 1.524 . S
C715 C707 1.503 . S
C715 C714 1.370 . S
C715 C716 1.403 . S
C716 C715 1.403 . S
C716 C717 1.404 . S
C716 C719 1.539 . S
C717 C713 1.408 . S
C717 C716 1.404 . S
C717 H729 0.930 . S
C718 C714 1.524 . S
C718 H730 0.956 . S
C718 H731 0.961 . S
C718 H732 0.961 . S
C719 C716 1.539 . S
C719 H733 0.958 . S
C719 H734 0.961 . S
C719 H735 0.960 . S
H720 C704 0.931 . S
H721 C709 0.929 . S
H722 C710 0.960 . S
H723 C710 0.962 . S
H724 C710 0.960 . S
H725 C711 0.961 . S
H726 C711 0.961 . S
H727 C711 0.961 . S
H728 C712 0.931 . S
H729 C717 0.930 . S
H730 C718 0.956 . S
H731 C718 0.961 . S
H732 C718 0.961 . S
H733 C719 0.958 . S
H734 C719 0.961 . S
H735 C719 0.960 . S
C736 C737 1.391 . S
C736 C738 1.394 . S
C736 H752 0.931 . S
C737 C736 1.391 . S
C737 C741 1.376 . S
C738 C736 1.394 . S
C738 C739 1.369 . S
C738 C742 1.531 . S
C739 C738 1.369 . S
C739 C740 1.410 . S
C739 C747 1.503 . S
C740 C739 1.410 . S
C740 C741 1.392 . S
C740 C743 1.511 . S
C741 C737 1.376 . S
C741 C740 1.392 . S
C741 H753 0.929 . S
C742 C738 1.531 . S
C742 H754 0.960 . S
C742 H755 0.962 . S
C742 H756 0.960 . S
C743 C740 1.511 . S
C743 H757 0.961 . S
C743 H758 0.961 . S
C743 H759 0.961 . S
C744 C745 1.370 . S
C744 C746 1.363 . S
C744 H760 0.931 . S
C745 C744 1.370 . S
C745 C749 1.408 . S
C746 C744 1.363 . S
C746 C747 1.370 . S
C746 C750 1.524 . S
C747 C739 1.503 . S
C747 C746 1.370 . S
C747 C748 1.403 . S
C748 C747 1.403 . S
C748 C749 1.404 . S
C748 C751 1.539 . S
C749 C745 1.408 . S
C749 C748 1.404 . S
C749 H761 0.930 . S
C750 C746 1.524 . S
C750 H762 0.956 . S
C750 H763 0.961 . S
C750 H764 0.961 . S
C751 C748 1.539 . S
C751 H765 0.958 . S
C751 H766 0.961 . S
C751 H767 0.960 . S
H752 C736 0.931 . S
H753 C741 0.929 . S
H754 C742 0.960 . S
H755 C742 0.962 . S
H756 C742 0.960 . S
H757 C743 0.961 . S
H758 C743 0.961 . S
H759 C743 0.961 . S
H760 C744 0.931 . S
H761 C749 0.930 . S
H762 C750 0.956 . S
H763 C750 0.961 . S
H764 C750 0.961 . S
H765 C751 0.958 . S
H766 C751 0.961 . S
H767 C751 0.960 . S
C768 C769 1.391 . S
C768 C770 1.394 . S
C768 H784 0.931 . S
C769 C768 1.391 . S
C769 C773 1.376 . S
C770 C768 1.394 . S
C770 C771 1.369 . S
C770 C774 1.531 . S
C771 C770 1.369 . S
C771 C772 1.410 . S
C771 C779 1.503 . S
C772 C771 1.410 . S
C772 C773 1.392 . S
C772 C775 1.511 . S
C773 C769 1.376 . S
C773 C772 1.392 . S
C773 H785 0.929 . S
C774 C770 1.531 . S
C774 H786 0.960 . S
C774 H787 0.962 . S
C774 H788 0.960 . S
C775 C772 1.511 . S
C775 H789 0.961 . S
C775 H790 0.961 . S
C775 H791 0.961 . S
C776 C777 1.370 . S
C776 C778 1.363 . S
C776 H792 0.931 . S
C777 C776 1.370 . S
C777 C781 1.408 . S
C778 C776 1.363 . S
C778 C779 1.370 . S
C778 C782 1.524 . S
C779 C771 1.503 . S
C779 C778 1.370 . S
C779 C780 1.403 . S
C780 C779 1.403 . S
C780 C781 1.404 . S
C780 C783 1.539 . S
C781 C777 1.408 . S
C781 C780 1.404 . S
C781 H793 0.930 . S
C782 C778 1.524 . S
C782 H794 0.956 . S
C782 H795 0.961 . S
C782 H796 0.961 . S
C783 C780 1.539 . S
C783 H797 0.958 . S
C783 H798 0.961 . S
C783 H799 0.960 . S
H784 C768 0.931 . S
H785 C773 0.929 . S
H786 C774 0.960 . S
H787 C774 0.962 . S
H788 C774 0.960 . S
H789 C775 0.961 . S
H790 C775 0.961 . S
H791 C775 0.961 . S
H792 C776 0.931 . S
H793 C781 0.930 . S
H794 C782 0.956 . S
H795 C782 0.961 . S
H796 C782 0.961 . S
H797 C783 0.958 . S
H798 C783 0.961 . S
H799 C783 0.960 . S
C800 C801 1.391 . S
C800 C802 1.394 . S
C800 H816 0.931 . S
C801 C800 1.391 . S
C801 C805 1.376 . S
C802 C800 1.394 . S
C802 C803 1.369 . S
C802 C806 1.531 . S
C803 C802 1.369 . S
C803 C804 1.410 . S
C803 C811 1.503 . S
C804 C803 1.410 . S
C804 C805 1.392 . S
C804 C807 1.511 . S
C805 C801 1.376 . S
C805 C804 1.392 . S
C805 H817 0.929 . S
C806 C802 1.531 . S
C806 H818 0.960 . S
C806 H819 0.962 . S
C806 H820 0.960 . S
C807 C804 1.511 . S
C807 H821 0.961 . S
C807 H822 0.961 . S
C807 H823 0.961 . S
C808 C809 1.370 . S
C808 C810 1.363 . S
C808 H824 0.931 . S
C809 C808 1.370 . S
C809 C813 1.408 . S
C810 C808 1.363 . S
C810 C811 1.370 . S
C810 C814 1.524 . S
C811 C803 1.503 . S
C811 C810 1.370 . S
C811 C812 1.403 . S
C812 C811 1.403 . S
C812 C813 1.404 . S
C812 C815 1.539 . S
C813 C809 1.408 . S
C813 C812 1.404 . S
C813 H825 0.930 . S
C814 C810 1.524 . S
C814 H826 0.956 . S
C814 H827 0.961 . S
C814 H828 0.961 . S
C815 C812 1.539 . S
C815 H829 0.958 . S
C815 H830 0.961 . S
C815 H831 0.960 . S
H816 C800 0.931 . S
H817 C805 0.929 . S
H818 C806 0.960 . S
H819 C806 0.962 . S
H820 C806 0.960 . S
H821 C807 0.961 . S
H822 C807 0.961 . S
H823 C807 0.961 . S
H824 C808 0.931 . S
H825 C813 0.930 . S
H826 C814 0.956 . S
H827 C814 0.961 . S
H828 C814 0.961 . S
H829 C815 0.958 . S
H830 C815 0.961 . S
H831 C815 0.960 . S
C832 C833 1.391 . S
C832 C834 1.394 . S
C832 H848 0.931 . S
C833 C832 1.391 . S
C833 C837 1.376 . S
C834 C832 1.394 . S
C834 C835 1.369 . S
C834 C838 1.531 . S
C835 C834 1.369 . S
C835 C836 1.410 . S
C835 C843 1.503 . S
C836 C835 1.410 . S
C836 C837 1.392 . S
C836 C839 1.511 . S
C837 C833 1.376 . S
C837 C836 1.392 . S
C837 H849 0.929 . S
C838 C834 1.531 . S
C838 H850 0.960 . S
C838 H851 0.962 . S
C838 H852 0.960 . S
C839 C836 1.511 . S
C839 H853 0.961 . S
C839 H854 0.961 . S
C839 H855 0.961 . S
C840 C841 1.370 . S
C840 C842 1.363 . S
C840 H856 0.931 . S
C841 C840 1.370 . S
C841 C845 1.408 . S
C842 C840 1.363 . S
C842 C843 1.370 . S
C842 C846 1.524 . S
C843 C835 1.503 . S
C843 C842 1.370 . S
C843 C844 1.403 . S
C844 C843 1.403 . S
C844 C845 1.404 . S
C844 C847 1.539 . S
C845 C841 1.408 . S
C845 C844 1.404 . S
C845 H857 0.930 . S
C846 C842 1.524 . S
C846 H858 0.956 . S
C846 H859 0.961 . S
C846 H860 0.961 . S
C847 C844 1.539 . S
C847 H861 0.958 . S
C847 H862 0.961 . S
C847 H863 0.960 . S
H848 C832 0.931 . S
H849 C837 0.929 . S
H850 C838 0.960 . S
H851 C838 0.962 . S
H852 C838 0.960 . S
H853 C839 0.961 . S
H854 C839 0.961 . S
H855 C839 0.961 . S
H856 C840 0.931 . S
H857 C845 0.930 . S
H858 C846 0.956 . S
H859 C846 0.961 . S
H860 C846 0.961 . S
H861 C847 0.958 . S
H862 C847 0.961 . S
H863 C847 0.960 . S
C864 C865 1.391 . S
C864 C866 1.394 . S
C864 H880 0.931 . S
C865 C864 1.391 . S
C865 C869 1.376 1_455 S
C866 C864 1.394 . S
C866 C867 1.369 . S
C866 C870 1.531 . S
C867 C866 1.369 . S
C867 C868 1.410 1_455 S
C867 C875 1.503 . S
C868 C867 1.410 1_655 S
C868 C869 1.392 . S
C868 C871 1.511 . S
C869 C865 1.376 1_655 S
C869 C868 1.392 . S
C869 H881 0.929 . S
C870 C866 1.531 . S
C870 H882 0.960 . S
C870 H883 0.962 . S
C870 H884 0.960 . S
C871 C868 1.511 . S
C871 H885 0.961 . S
C871 H886 0.961 . S
C871 H887 0.961 . S
C872 C873 1.362 1_554 S
C872 C874 1.363 . S
C872 H888 0.931 . S
C873 C872 1.362 1_556 S
C873 C877 1.404 1_556 S
C874 C872 1.363 . S
C874 C875 1.370 . S
C874 C878 1.524 . S
C875 C867 1.503 . S
C875 C874 1.370 . S
C875 C876 1.403 . S
C876 C875 1.403 . S
C876 C877 1.404 . S
C876 C879 1.539 1_455 S
C877 C873 1.404 1_554 S
C877 C876 1.404 . S
C877 H889 0.930 1_454 S
C878 C874 1.524 . S
C878 H890 0.956 . S
C878 H891 0.961 . S
C878 H892 0.961 . S
C879 C876 1.539 1_655 S
C879 H893 0.958 . S
C879 H894 0.961 . S
C879 H895 0.960 . S
H880 C864 0.931 . S
H881 C869 0.929 . S
H882 C870 0.960 . S
H883 C870 0.962 . S
H884 C870 0.960 . S
H885 C871 0.961 . S
H886 C871 0.961 . S
H887 C871 0.961 . S
H888 C872 0.931 . S
H889 C877 0.930 1_656 S
H890 C878 0.956 . S
H891 C878 0.961 . S
H892 C878 0.961 . S
H893 C879 0.958 . S
H894 C879 0.961 . S
H895 C879 0.960 . S
C896 C897 1.391 1_565 S
C896 C898 1.394 . S
C896 H912 0.931 . S
C897 C896 1.391 1_545 S
C897 C901 1.376 . S
C898 C896 1.394 . S
C898 C899 1.369 1_565 S
C898 C902 1.531 . S
C899 C898 1.369 1_545 S
C899 C900 1.410 . S
C899 C907 1.503 . S
C900 C899 1.410 . S
C900 C901 1.392 . S
C900 C903 1.511 . S
C901 C897 1.376 . S
C901 C900 1.392 . S
C901 H913 0.929 . S
C902 C898 1.531 . S
C902 H914 0.960 . S
C902 H915 0.962 . S
C902 H916 0.960 . S
C903 C900 1.511 . S
C903 H917 0.961 . S
C903 H918 0.961 . S
C903 H919 0.961 . S
C904 C905 1.370 . S
C904 C906 1.363 . S
C904 H920 0.931 . S
C905 C904 1.370 . S
C905 C909 1.408 1_545 S
C906 C904 1.363 . S
C906 C907 1.370 . S
C906 C910 1.524 . S
C907 C899 1.503 . S
C907 C906 1.370 . S
C907 C908 1.403 1_545 S
C908 C907 1.403 1_565 S
C908 C909 1.404 . S
C908 C911 1.539 . S
C909 C905 1.408 1_565 S
C909 C908 1.404 . S
C909 H921 0.930 . S
C910 C906 1.524 . S
C910 H922 0.956 . S
C910 H923 0.961 . S
C910 H924 0.961 . S
C911 C908 1.539 . S
C911 H925 0.958 . S
C911 H926 0.961 . S
C911 H927 0.960 . S
H912 C896 0.931 . S
H913 C901 0.929 . S
H914 C902 0.960 . S
H915 C902 0.962 . S
H916 C902 0.960 . S
H917 C903 0.961 . S
H918 C903 0.961 . S
H919 C903 0.961 . S
H920 C904 0.931 . S
H921 C909 0.930 . S
H922 C910 0.956 . S
H923 C910 0.961 . S
H924 C910 0.961 . S
H925 C911 0.958 . S
H926 C911 0.961 . S
H927 C911 0.960 . S
C928 C929 1.391 . S
C928 C930 1.394 . S
C928 H944 0.931 . S
C929 C928 1.391 . S
C929 C933 1.376 . S
C930 C928 1.394 . S
C930 C931 1.369 . S
C930 C934 1.531 . S
C931 C930 1.369 . S
C931 C932 1.410 . S
C931 C939 1.503 . S
C932 C931 1.410 . S
C932 C933 1.392 . S
C932 C935 1.511 . S
C933 C929 1.376 . S
C933 C932 1.392 . S
C933 H945 0.929 . S
C934 C930 1.531 . S
C934 H946 0.960 . S
C934 H947 0.962 . S
C934 H948 0.960 . S
C935 C932 1.511 . S
C935 H949 0.961 . S
C935 H950 0.961 . S
C935 H951 0.961 . S
C936 C937 1.370 . S
C936 C938 1.363 . S
C936 H952 0.931 . S
C937 C936 1.370 . S
C937 C941 1.408 . S
C938 C936 1.363 . S
C938 C939 1.370 . S
C938 C942 1.524 . S
C939 C931 1.503 . S
C939 C938 1.370 . S
C939 C940 1.403 . S
C940 C939 1.403 . S
C940 C941 1.404 . S
C940 C943 1.539 . S
C941 C937 1.408 . S
C941 C940 1.404 . S
C941 H953 0.930 . S
C942 C938 1.524 . S
C942 H954 0.956 . S
C942 H955 0.961 . S
C942 H956 0.961 . S
C943 C940 1.539 . S
C943 H957 0.958 . S
C943 H958 0.961 . S
C943 H959 0.960 . S
H944 C928 0.931 . S
H945 C933 0.929 . S
H946 C934 0.960 . S
H947 C934 0.962 . S
H948 C934 0.960 . S
H949 C935 0.961 . S
H950 C935 0.961 . S
H951 C935 0.961 . S
H952 C936 0.931 . S
H953 C941 0.930 . S
H954 C942 0.956 . S
H955 C942 0.961 . S
H956 C942 0.961 . S
H957 C943 0.958 . S
H958 C943 0.961 . S
H959 C943 0.960 . S
C960 C961 1.391 . S
C960 C962 1.394 . S
C960 H976 0.931 . S
C961 C960 1.391 . S
C961 C965 1.376 1_545 S
C962 C960 1.394 . S
C962 C963 1.369 . S
C962 C966 1.531 . S
C963 C962 1.369 . S
C963 C964 1.410 1_545 S
C963 C971 1.503 . S
C964 C963 1.410 1_565 S
C964 C965 1.392 . S
C964 C967 1.511 . S
C965 C961 1.376 1_565 S
C965 C964 1.392 . S
C965 H977 0.929 . S
C966 C962 1.531 . S
C966 H978 0.960 . S
C966 H979 0.962 . S
C966 H980 0.960 . S
C967 C964 1.511 . S
C967 H981 0.961 . S
C967 H982 0.961 . S
C967 H983 0.961 . S
C968 C969 1.370 . S
C968 C970 1.363 . S
C968 H984 0.931 . S
C969 C968 1.370 . S
C969 C973 1.408 1_565 S
C970 C968 1.363 . S
C970 C971 1.370 1_565 S
C970 C974 1.524 . S
C971 C963 1.503 . S
C971 C970 1.370 1_545 S
C971 C972 1.403 . S
C972 C971 1.403 . S
C972 C973 1.404 . S
C972 C975 1.539 . S
C973 C969 1.408 1_545 S
C973 C972 1.404 . S
C973 H985 0.930 . S
C974 C970 1.524 . S
C974 H986 0.956 . S
C974 H987 0.961 . S
C974 H988 0.961 . S
C975 C972 1.539 . S
C975 H989 0.958 . S
C975 H990 0.961 . S
C975 H991 0.960 . S
H976 C960 0.931 . S
H977 C965 0.929 . S
H978 C966 0.960 . S
H979 C966 0.962 . S
H980 C966 0.960 . S
H981 C967 0.961 . S
H982 C967 0.961 . S
H983 C967 0.961 . S
H984 C968 0.931 . S
H985 C973 0.930 . S
H986 C974 0.956 . S
H987 C974 0.961 . S
H988 C974 0.961 . S
H989 C975 0.958 . S
H990 C975 0.961 . S
H991 C975 0.960 . S
C992 C993 1.391 . S
C992 C994 1.394 . S
C992 H1008 0.931 . S
C993 C992 1.391 . S
C993 C997 1.376 . S
C994 C992 1.394 . S
C994 C995 1.369 . S
C994 C998 1.531 . S
C995 C994 1.369 . S
C995 C996 1.410 . S
C995 C1003 1.503 . S
C996 C995 1.410 . S
C996 C997 1.392 . S
C996 C999 1.511 . S
C997 C993 1.376 . S
C997 C996 1.392 . S
C997 H1009 0.929 . S
C998 C994 1.531 . S
C998 H1010 0.960 . S
C998 H1011 0.962 . S
C998 H1012 0.960 . S
C999 C996 1.511 . S
C999 H1013 0.961 . S
C999 H1014 0.961 . S
C999 H1015 0.961 . S
C1000 C1001 1.370 . S
C1000 C1002 1.363 . S
C1000 H1016 0.931 . S
C1001 C1000 1.370 . S
C1001 C1005 1.408 . S
C1002 C1000 1.363 . S
C1002 C1003 1.370 . S
C1002 C1006 1.524 . S
C1003 C995 1.503 . S
C1003 C1002 1.370 . S
C1003 C1004 1.403 . S
C1004 C1003 1.403 . S
C1004 C1005 1.404 . S
C1004 C1007 1.539 . S
C1005 C1001 1.408 . S
C1005 C1004 1.404 . S
C1005 H1017 0.930 . S
C1006 C1002 1.524 . S
C1006 H1018 0.956 . S
C1006 H1019 0.961 . S
C1006 H1020 0.961 . S
C1007 C1004 1.539 . S
C1007 H1021 0.958 . S
C1007 H1022 0.961 . S
C1007 H1023 0.960 . S
H1008 C992 0.931 . S
H1009 C997 0.929 . S
H1010 C998 0.960 . S
H1011 C998 0.962 . S
H1012 C998 0.960 . S
H1013 C999 0.961 . S
H1014 C999 0.961 . S
H1015 C999 0.961 . S
H1016 C1000 0.931 . S
H1017 C1005 0.930 . S
H1018 C1006 0.956 . S
H1019 C1006 0.961 . S
H1020 C1006 0.961 . S
H1021 C1007 0.958 . S
H1022 C1007 0.961 . S
H1023 C1007 0.960 . S
C1024 C1025 1.391 . S
C1024 C1026 1.394 . S
C1024 H1040 0.931 . S
C1025 C1024 1.391 . S
C1025 C1029 1.376 1_455 S
C1026 C1024 1.394 . S
C1026 C1027 1.369 . S
C1026 C1030 1.531 . S
C1027 C1026 1.369 . S
C1027 C1028 1.410 1_455 S
C1027 C1035 1.503 . S
C1028 C1027 1.410 1_655 S
C1028 C1029 1.392 . S
C1028 C1031 1.511 . S
C1029 C1025 1.376 1_655 S
C1029 C1028 1.392 . S
C1029 H1041 0.929 . S
C1030 C1026 1.531 . S
C1030 H1042 0.960 . S
C1030 H1043 0.962 . S
C1030 H1044 0.960 . S
C1031 C1028 1.511 . S
C1031 H1045 0.961 . S
C1031 H1046 0.961 . S
C1031 H1047 0.961 . S
C1032 C1033 1.366 . S
C1032 C1034 1.363 . S
C1032 H1048 0.931 . S
C1033 C1032 1.366 . S
C1033 C1037 1.412 1_655 S
C1034 C1032 1.363 . S
C1034 C1035 1.370 1_655 S
C1034 C1038 1.524 . S
C1035 C1027 1.503 . S
C1035 C1034 1.370 1_455 S
C1035 C1036 1.403 . S
C1036 C1035 1.403 . S
C1036 C1037 1.404 . S
C1036 C1039 1.539 . S
C1037 C1033 1.412 1_455 S
C1037 C1036 1.404 . S
C1037 H1049 0.930 . S
C1038 C1034 1.524 . S
C1038 H1050 0.956 1_655 S
C1038 H1051 0.961 . S
C1038 H1052 0.961 . S
C1039 C1036 1.539 . S
C1039 H1053 0.958 . S
C1039 H1054 0.961 . S
C1039 H1055 0.960 . S
H1040 C1024 0.931 . S
H1041 C1029 0.929 . S
H1042 C1030 0.960 . S
H1043 C1030 0.962 . S
H1044 C1030 0.960 . S
H1045 C1031 0.961 . S
H1046 C1031 0.961 . S
H1047 C1031 0.961 . S
H1048 C1032 0.931 . S
H1049 C1037 0.930 . S
H1050 C1038 0.956 1_455 S
H1051 C1038 0.961 . S
H1052 C1038 0.961 . S
H1053 C1039 0.958 . S
H1054 C1039 0.961 . S
H1055 C1039 0.960 . S
C481 C6 0.625 . S
C489 C451 0.543 . S
C513 C59 1.912 . S
C521 C301 1.805 . S
C545 C86 1.248 . S
C553 C361 1.222 . S
C577 C15 0.409 . S
C585 C421 0.388 . S
C617 C331 2.034 . S
C609 C50 2.023 . S
C649 C391 1.318 . S
C641 C95 1.319 . S
C673 C46 1.195 . S
C681 C181 1.160 . S
C705 C99 3.095 . S
C713 C271 3.101 . S
C737 C10 2.060 . S
C745 C151 2.077 . S
C777 C211 1.306 . S
C769 C55 1.301 . S
C809 C241 2.856 . S
C801 C90 2.994 . S
C833 C19 1.904 . S
C841 C121 1.805 . S
C873 C260 1.762 . S
C865 C18 1.711 . S
C897 C49 1.335 . S
C905 C140 1.340 . S
C929 C98 1.454 . S
C937 C200 1.476 . S
C969 C380 1.450 . S
C961 C58 1.413 . S
C1001 C440 1.077 1_556 S
C993 C89 1.044 . S
C1025 C9 1.348 . S
C1033 C320 1.332 1_655 S
