# Generated by pormake.
# Topology nom, (4,4)-cn, num edge types: 1
# Building blocks:
#     Node 0, Type 0, BuildingBlock: KUFVIS_clean_linker_0, # of connection points: 4
#     Node 1, Type 0, BuildingBlock: KUFVIS_clean_linker_0, # of connection points: 4
#     Node 2, Type 0, BuildingBlock: KUFVIS_clean_linker_0, # of connection points: 4
#     Node 3, Type 0, BuildingBlock: KUFVIS_clean_linker_0, # of connection points: 4
#     Node 4, Type 0, BuildingBlock: KUFVIS_clean_linker_0, # of connection points: 4
#     Node 5, Type 0, BuildingBlock: KUFVIS_clean_linker_0, # of connection points: 4
#     Node 6, Type 1, BuildingBlock: CEKHIL_clean_sbu_0, # of connection points: 4
#     Node 7, Type 1, BuildingBlock: CEKHIL_clean_sbu_0, # of connection points: 4
#     Node 8, Type 1, BuildingBlock: CEKHIL_clean_sbu_0, # of connection points: 4
#     Node 9, Type 1, BuildingBlock: CEKHIL_clean_sbu_0, # of connection points: 4
#     Node 10, Type 1, BuildingBlock: CEKHIL_clean_sbu_0, # of connection points: 4
#     Node 11, Type 1, BuildingBlock: CEKHIL_clean_sbu_0, # of connection points: 4
#     Edge 12, Type (0, 1), BuildingBlock: CIFDUS_clean_linker_0, # of connection points: 2
#     Edge 13, Type (0, 1), BuildingBlock: CIFDUS_clean_linker_0, # of connection points: 2
#     Edge 14, Type (0, 1), BuildingBlock: CIFDUS_clean_linker_0, # of connection points: 2
#     Edge 15, Type (0, 1), BuildingBlock: CIFDUS_clean_linker_0, # of connection points: 2
#     Edge 16, Type (0, 1), BuildingBlock: CIFDUS_clean_linker_0, # of connection points: 2
#     Edge 17, Type (0, 1), BuildingBlock: CIFDUS_clean_linker_0, # of connection points: 2
#     Edge 18, Type (0, 1), BuildingBlock: CIFDUS_clean_linker_0, # of connection points: 2
#     Edge 19, Type (0, 1), BuildingBlock: CIFDUS_clean_linker_0, # of connection points: 2
#     Edge 20, Type (0, 1), BuildingBlock: CIFDUS_clean_linker_0, # of connection points: 2
#     Edge 21, Type (0, 1), BuildingBlock: CIFDUS_clean_linker_0, # of connection points: 2
#     Edge 22, Type (0, 1), BuildingBlock: CIFDUS_clean_linker_0, # of connection points: 2
#     Edge 23, Type (0, 1), BuildingBlock: CIFDUS_clean_linker_0, # of connection points: 2
#     Edge 24, Type (0, 1), BuildingBlock: CIFDUS_clean_linker_0, # of connection points: 2
#     Edge 25, Type (0, 1), BuildingBlock: CIFDUS_clean_linker_0, # of connection points: 2
#     Edge 26, Type (0, 1), BuildingBlock: CIFDUS_clean_linker_0, # of connection points: 2
#     Edge 27, Type (0, 1), BuildingBlock: CIFDUS_clean_linker_0, # of connection points: 2
#     Edge 28, Type (0, 1), BuildingBlock: CIFDUS_clean_linker_0, # of connection points: 2
#     Edge 29, Type (0, 1), BuildingBlock: CIFDUS_clean_linker_0, # of connection points: 2
#     Edge 30, Type (0, 1), BuildingBlock: CIFDUS_clean_linker_0, # of connection points: 2
#     Edge 31, Type (0, 1), BuildingBlock: CIFDUS_clean_linker_0, # of connection points: 2
#     Edge 32, Type (0, 1), BuildingBlock: CIFDUS_clean_linker_0, # of connection points: 2
#     Edge 33, Type (0, 1), BuildingBlock: CIFDUS_clean_linker_0, # of connection points: 2
#     Edge 34, Type (0, 1), BuildingBlock: CIFDUS_clean_linker_0, # of connection points: 2
#     Edge 35, Type (0, 1), BuildingBlock: CIFDUS_clean_linker_0, # of connection points: 2
# Relax obj value: 0.004
# Max RMSD: 0.051
# Mean RMSD: 0.042
data_MOF--net-nom--node1-CEKHIL_clean_sbu_0--node2-KUFVIS_clean_linker_0--edge1-CIFDUS_clean_linker_0
_symmetry_space_group_name_H-M    P1
_symmetry_Int_Tables_number       1
_symmetry_cell_setting            triclinic
loop_
_symmetry_equiv_pos_as_xyz
'x, y, z'
_cell_length_a     40.124362
_cell_length_b     39.748061
_cell_length_c     40.828231
_cell_angle_alpha  90.142296
_cell_angle_beta   89.774227
_cell_angle_gamma 120.95073
loop_
_atom_site_label
_atom_site_type_symbol
_atom_site_fract_x
_atom_site_fract_y
_atom_site_fract_z
_atom_type_partial_charge
H0 H 0.16096 0.62109 0.36341 0.0
H1 H 0.08168 0.59678 0.28462 0.0
H2 H 0.03977 0.56336 0.38457 0.0
H3 H 0.98783 0.56254 0.36883 0.0
H4 H 0.90554 0.5142 0.29082 0.0
H5 H 1.02337 0.5488 0.27126 0.0
C6 C 0.13138 0.6079 0.35455 0.0
C7 C 0.10104 0.59193 0.37725 0.0
C8 C 0.1248 0.60872 0.32108 0.0
C9 C 0.08629 0.59449 0.31038 0.0
C10 C 0.05431 0.57752 0.33284 0.0
C11 C 0.06268 0.57655 0.36647 0.0
C12 C 1.01261 0.56041 0.32136 0.0
C13 C 0.98211 0.55439 0.34331 0.0
C14 C 0.9434 0.5377 0.33231 0.0
C15 C 0.93535 0.52799 0.29935 0.0
C16 C 0.96391 0.53189 0.27761 0.0
C17 C 1.00234 0.54795 0.28839 0.0
H18 H 0.56618 0.14709 0.51719 0.0
H19 H 0.49889 0.06507 0.44161 0.0
H20 H 0.51526 0.02511 0.53599 0.0
H21 H 0.46146 0.97 0.52359 0.0
H22 H 0.42582 0.88797 0.44441 0.0
H23 H 0.49573 1.01036 0.42338 0.0
C24 C 0.54797 0.11715 0.50867 0.0
C25 C 0.54075 0.08689 0.52999 0.0
C26 C 0.53294 0.11 0.47693 0.0
C27 C 0.51089 0.07062 0.46604 0.0
C28 C 0.5038 0.03879 0.48697 0.0
C29 C 0.51896 0.04786 0.51929 0.0
C30 C 0.48158 0.99655 0.4752 0.0
C31 C 0.46198 0.96468 0.49767 0.0
C32 C 0.44313 0.92537 0.4868 0.0
C33 C 0.44161 0.91802 0.45323 0.0
C34 C 0.45988 0.94831 0.43052 0.0
C35 C 0.48057 0.98745 0.44139 0.0
H36 H 0.54368 0.40058 0.6154 0.0
H37 H 0.49518 0.42856 0.69655 0.0
H38 H 0.47917 0.45678 0.59691 0.0
H39 H 0.43505 0.46701 0.61515 0.0
H40 H 0.40429 0.51267 0.69707 0.0
H41 H 0.48333 0.47294 0.7119 0.0
C42 C 0.52692 0.41304 0.62465 0.0
C43 C 0.51133 0.4281 0.60273 0.0
C44 C 0.52172 0.41384 0.65824 0.0
C45 C 0.49955 0.42951 0.67039 0.0
C46 C 0.48331 0.44566 0.64882 0.0
C47 C 0.4897 0.44437 0.61464 0.0
C48 C 0.46081 0.46436 0.66185 0.0
C49 C 0.43768 0.47332 0.64104 0.0
C50 C 0.41845 0.49206 0.65361 0.0
C51 C 0.41947 0.49878 0.68718 0.0
C52 C 0.44262 0.49182 0.70789 0.0
C53 C 0.46381 0.47548 0.69536 0.0
H54 H 0.15535 0.52021 0.78682 0.0
H55 H 0.07846 0.48535 0.8694 0.0
H56 H 0.0376 0.48906 0.7718 0.0
H57 H 0.98025 0.43797 0.79113 0.0
H58 H 0.9088 0.44481 0.86642 0.0
H59 H 0.02947 0.49303 0.88453 0.0
C60 C 0.12635 0.50906 0.79673 0.0
C61 C 0.09684 0.50377 0.77571 0.0
C62 C 0.12055 0.50439 0.83051 0.0
C63 C 0.08275 0.48984 0.84326 0.0
C64 C 0.05134 0.48259 0.8222 0.0
C65 C 0.05956 0.491 0.78832 0.0
C66 C 1.01094 0.46926 0.83528 0.0
C67 C 0.9774 0.44776 0.81516 0.0
C68 C 0.93992 0.43777 0.82636 0.0
C69 C 0.93672 0.45049 0.85759 0.0
C70 C 0.96824 0.46848 0.87887 0.0
C71 C 1.00533 0.4781 0.8678 0.0
H72 H 0.5332 0.89297 0.03192 0.0
H73 H 0.5771 0.96829 0.94855 0.0
H74 H 0.57388 0.01473 0.04434 0.0
H75 H 0.6236 0.07085 0.02551 0.0
H76 H 0.6338 0.14281 0.9434 0.0
H77 H 0.57929 0.01972 0.92976 0.0
C78 C 0.5467 0.92221 0.02146 0.0
C79 C 0.55433 0.95352 0.04175 0.0
C80 C 0.5525 0.927 0.9877 0.0
C81 C 0.57116 0.96517 0.97452 0.0
C82 C 0.58039 0.99826 0.99463 0.0
C83 C 0.57046 0.99136 0.02843 0.0
C84 C 0.59752 0.03906 0.98021 0.0
C85 C 0.61776 0.07334 9e-05 0.0
C86 C 0.63162 0.11123 0.98698 0.0
C87 C 0.62473 0.11435 0.95388 0.0
C88 C 0.60779 0.08183 0.93322 0.0
C89 C 0.59375 0.04432 0.94631 0.0
H90 H 0.52105 0.63483 0.11997 0.0
H91 H 0.58104 0.61487 0.19652 0.0
H92 H 0.58376 0.57756 0.09672 0.0
H93 H 0.63438 0.57491 0.11057 0.0
H94 H 0.67234 0.53104 0.18846 0.0
H95 H 0.59296 0.5692 0.21029 0.0
C96 C 0.5391 0.62331 0.1278 0.0
C97 C 0.55179 0.60625 0.10482 0.0
C98 C 0.54904 0.62596 0.1607 0.0
C99 C 0.57312 0.61169 0.17096 0.0
C100 C 0.58669 0.59386 0.14821 0.0
C101 C 0.5754 0.59158 0.11496 0.0
C102 C 0.61142 0.57688 0.15906 0.0
C103 C 0.63376 0.56874 0.13638 0.0
C104 C 0.65498 0.55131 0.14696 0.0
C105 C 0.65619 0.54455 0.18027 0.0
C106 C 0.63435 0.55143 0.20292 0.0
C107 C 0.6114 0.56661 0.19237 0.0
Co108 Co 0.6579 0.39293 0.39648 0.0
O109 O 0.70084 0.39879 0.36966 0.0
O110 O 0.70499 0.44232 0.40577 0.0
C111 C 0.63455 0.32971 0.41207 0.0
O112 O 0.62343 0.39859 0.43005 0.0
Co113 Co 0.57054 0.33325 0.38431 0.0
O114 O 0.56059 0.35163 0.42644 0.0
C115 C 0.61118 0.40612 0.3447 0.0
C116 C 0.72221 0.43228 0.38433 0.0
C117 C 0.58811 0.38184 0.44034 0.0
O118 O 0.64249 0.41881 0.3617 0.0
O119 O 0.58109 0.37197 0.34863 0.0
O120 O 0.6642 0.35853 0.42686 0.0
O121 O 0.62169 0.33946 0.38718 0.0
Co122 Co 0.29147 0.64758 0.58268 0.0
O123 O 0.32967 0.64896 0.61219 0.0
O124 O 0.29202 0.59875 0.58032 0.0
C125 C 0.33191 0.70837 0.56111 0.0
O126 O 0.25042 0.63529 0.54772 0.0
Co127 Co 0.26336 0.707 0.58662 0.0
O128 O 0.23348 0.68109 0.54652 0.0
C129 C 0.23231 0.64078 0.63353 0.0
C130 C 0.32041 0.61453 0.60124 0.0
C131 C 0.23087 0.64979 0.5356 0.0
O132 O 0.24987 0.62576 0.61824 0.0
O133 O 0.23693 0.67423 0.62621 0.0
O134 O 0.33255 0.67781 0.55069 0.0
O135 O 0.3088 0.70194 0.58553 0.0
Co136 Co 0.66372 0.27525 0.73211 0.0
O137 O 0.66117 0.31519 0.70632 0.0
O138 O 0.61301 0.26958 0.73598 0.0
C139 C 0.72278 0.31602 0.75516 0.0
O140 O 0.65334 0.2314 0.76367 0.0
Co141 Co 0.726 0.25159 0.72652 0.0
O142 O 0.70056 0.21718 0.76506 0.0
C143 C 0.66356 0.22364 0.67698 0.0
C144 C 0.62567 0.2999 0.71703 0.0
C145 C 0.66827 0.21209 0.77531 0.0
O146 O 0.64567 0.23726 0.6937 0.0
O147 O 0.69714 0.2297 0.68459 0.0
O148 O 0.69147 0.3137 0.76694 0.0
O149 O 0.71798 0.29573 0.72907 0.0
Co150 Co 0.40705 0.6465 0.89834 0.0
O151 O 0.37088 0.64885 0.86892 0.0
O152 O 0.35556 0.59904 0.90182 0.0
C153 C 0.43119 0.70813 0.91854 0.0
O154 O 0.43571 0.63437 0.93343 0.0
Co155 Co 0.49634 0.70428 0.89157 0.0
O156 O 0.49958 0.6799 0.93265 0.0
C157 C 0.45632 0.63624 0.84676 0.0
C158 C 0.3441 0.61536 0.88062 0.0
C159 C 0.47049 0.64936 0.94479 0.0
O160 O 0.42428 0.62234 0.86314 0.0
O161 O 0.48648 0.66976 0.85266 0.0
O162 O 0.399 0.67882 0.92978 0.0
O163 O 0.44624 0.69997 0.89406 0.0
Co164 Co 0.77901 0.39266 0.07611 0.0
O165 O 0.73665 0.39129 0.09983 0.0
O166 O 0.77923 0.44195 0.07073 0.0
C167 C 0.74224 0.33195 0.05365 0.0
O168 O 0.82566 0.40394 0.04706 0.0
Co169 Co 0.80248 0.33025 0.09038 0.0
O170 O 0.83646 0.35388 0.05164 0.0
C171 C 0.82638 0.39703 0.13566 0.0
C172 C 0.748 0.42613 0.08884 0.0
C173 C 0.84398 0.3863 0.03885 0.0
O174 O 0.81413 0.41369 0.11595 0.0
O175 O 0.82078 0.36263 0.13108 0.0
O176 O 0.74366 0.36224 0.04014 0.0
O177 O 0.76048 0.33874 0.08093 0.0
Co178 Co 0.40262 0.76006 0.23246 0.0
O179 O 0.41138 0.72378 0.20713 0.0
O180 O 0.45407 0.76824 0.24104 0.0
C181 C 0.34148 0.7146 0.24989 0.0
O182 O 0.40406 0.80093 0.26428 0.0
Co183 Co 0.33593 0.77564 0.21594 0.0
O184 O 0.34922 0.80271 0.25882 0.0
C185 C 0.40936 0.81592 0.17777 0.0
C186 C 0.44523 0.73943 0.22094 0.0
C187 C 0.38116 0.8131 0.27332 0.0
O188 O 0.42456 0.80089 0.1961 0.0
O189 O 0.37394 0.80707 0.18054 0.0
O190 O 0.37203 0.71832 0.26434 0.0
O191 O 0.34869 0.73577 0.22397 0.0
H192 H 0.18549 0.59661 0.32311 0.0
H193 H 0.14304 0.66008 0.26914 0.0
H194 H 0.20573 0.69682 0.2405 0.0
H195 H 0.2751 0.71549 0.23506 0.0
H196 H 0.3177 0.65563 0.29406 0.0
H197 H 0.25292 0.61383 0.31713 0.0
C198 C 0.18978 0.61847 0.30503 0.0
C199 C 0.15953 0.62586 0.29873 0.0
C200 C 0.22637 0.64075 0.29003 0.0
C201 C 0.16553 0.65354 0.2745 0.0
C202 C 0.20163 0.67494 0.25842 0.0
C203 C 0.27012 0.69316 0.25284 0.0
C204 C 0.30142 0.68888 0.26293 0.0
C205 C 0.23267 0.66958 0.26667 0.0
C206 C 0.29438 0.65983 0.28605 0.0
C207 C 0.25725 0.63577 0.29917 0.0
H208 H 0.5352 0.17687 0.49572 0.0
H209 H 0.55399 0.12299 0.41141 0.0
H210 H 0.58467 0.18619 0.38256 0.0
H211 H 0.61327 0.25892 0.38407 0.0
H212 H 0.6038 0.31239 0.47284 0.0
H213 H 0.56402 0.24766 0.49783 0.0
C214 C 0.54613 0.17876 0.47103 0.0
C215 C 0.54293 0.14509 0.45613 0.0
C216 C 0.56648 0.21558 0.45579 0.0
C217 C 0.55589 0.14814 0.42361 0.0
C218 C 0.57404 0.18451 0.4073 0.0
C219 C 0.60246 0.25616 0.4089 0.0
C220 C 0.61166 0.29025 0.42684 0.0
C221 C 0.58075 0.21873 0.42359 0.0
C222 C 0.59755 0.28656 0.45888 0.0
C223 C 0.57457 0.24958 0.47302 0.0
H224 H 0.43941 0.56768 0.65205 0.0
H225 H 0.35593 0.4556 0.6111 0.0
H226 H 0.31814 0.48383 0.58979 0.0
H227 H 0.30587 0.53967 0.58795 0.0
H228 H 0.38831 0.64911 0.63439 0.0
H229 H 0.42878 0.62248 0.649 0.0
C230 C 0.41331 0.54958 0.63785 0.0
C231 C 0.40058 0.50965 0.63303 0.0
C232 C 0.39092 0.5654 0.62745 0.0
C233 C 0.36665 0.48651 0.61475 0.0
C234 C 0.34477 0.50258 0.60305 0.0
C235 C 0.33268 0.5576 0.60127 0.0
C236 C 0.34369 0.59637 0.61029 0.0
C237 C 0.356 0.54178 0.61015 0.0
C238 C 0.37868 0.61916 0.62741 0.0
C239 C 0.40212 0.60404 0.63563 0.0
H240 H 0.86696 0.38491 0.84937 0.0
H241 H 0.92925 0.43463 0.75893 0.0
H242 H 0.86789 0.3995 0.72877 0.0
H243 H 0.79552 0.3578 0.72867 0.0
H244 H 0.73446 0.31839 0.82072 0.0
H245 H 0.79636 0.34818 0.84992 0.0
C246 C 0.86753 0.38928 0.82315 0.0
C247 C 0.90327 0.41359 0.8068 0.0
C248 C 0.83203 0.3712 0.80629 0.0
C249 C 0.90267 0.41632 0.77245 0.0
C250 C 0.86739 0.39652 0.75517 0.0
C251 C 0.79593 0.35597 0.75515 0.0
C252 C 0.76049 0.33601 0.77261 0.0
C253 C 0.83179 0.37445 0.77191 0.0
C254 C 0.76128 0.33391 0.80684 0.0
C255 C 0.79668 0.35072 0.82348 0.0
H256 H 0.47954 0.86563 0.99272 0.0
H257 H 0.58476 0.90707 0.93663 0.0
H258 H 0.55595 0.84296 0.90904 0.0
H259 H 0.50195 0.77335 0.90416 0.0
H260 H 0.39925 0.733 0.96395 0.0
H261 H 0.42642 0.79824 0.98745 0.0
C262 C 0.49631 0.8607 0.97446 0.0
C263 C 0.5345 0.89086 0.96711 0.0
C264 C 0.48015 0.82372 0.95978 0.0
C265 C 0.55536 0.88435 0.94275 0.0
C266 C 0.53898 0.84758 0.92724 0.0
C267 C 0.48557 0.77893 0.9223 0.0
C268 C 0.44864 0.74818 0.93242 0.0
C269 C 0.50165 0.81674 0.9361 0.0
C270 C 0.42776 0.75592 0.95589 0.0
C271 C 0.44321 0.7933 0.96927 0.0
H272 H 0.62914 0.47534 0.13674 0.0
H273 H 0.72222 0.59049 0.1101 0.0
H274 H 0.7593 0.56198 0.08745 0.0
H275 H 0.76797 0.50402 0.08119 0.0
H276 H 0.67478 0.39032 0.1126 0.0
H277 H 0.63554 0.41834 0.12748 0.0
C278 C 0.65705 0.49406 0.12498 0.0
C279 C 0.67257 0.53487 0.12453 0.0
C280 C 0.67874 0.47765 0.1136 0.0
C281 C 0.7092 0.55892 0.11003 0.0
C282 C 0.73065 0.54259 0.09759 0.0
C283 C 0.73897 0.48542 0.09104 0.0
C284 C 0.72471 0.44501 0.09603 0.0
C285 C 0.71624 0.502 0.10019 0.0
C286 C 0.68695 0.42147 0.10881 0.0
C287 C 0.66423 0.43744 0.11724 0.0
H288 H 0.45095 0.86184 0.48461 0.0
H289 H 0.39304 0.91034 0.53886 0.0
H290 H 0.35419 0.84769 0.56796 0.0
H291 H 0.33279 0.7769 0.57418 0.0
H292 H 0.38897 0.72921 0.51599 0.0
H293 H 0.43152 0.79334 0.49166 0.0
C294 C 0.42993 0.85885 0.50294 0.0
C295 C 0.42464 0.89069 0.50925 0.0
C296 C 0.40678 0.82249 0.5184 0.0
C297 C 0.39788 0.88647 0.53359 0.0
C298 C 0.37533 0.85045 0.54992 0.0
C299 C 0.35441 0.78063 0.55622 0.0
C300 C 0.3574 0.74803 0.54678 0.0
C301 C 0.37881 0.81788 0.54189 0.0
C302 C 0.38568 0.75349 0.52355 0.0
C303 C 0.41023 0.79028 0.50969 0.0
H304 H 0.497 0.33873 0.67583 0.0
H305 H 0.59388 0.45695 0.68379 0.0
H306 H 0.63568 0.43247 0.70205 0.0
H307 H 0.6461 0.37674 0.71072 0.0
H308 H 0.54817 0.25858 0.70531 0.0
H309 H 0.50554 0.28337 0.6909 0.0
C310 C 0.52686 0.35907 0.68286 0.0
C311 C 0.54212 0.39963 0.67927 0.0
C312 C 0.55085 0.34465 0.69285 0.0
C313 C 0.58124 0.42569 0.68731 0.0
C314 C 0.60529 0.41163 0.69719 0.0
C315 C 0.61543 0.35652 0.70636 0.0
C316 C 0.60045 0.31583 0.70846 0.0
C317 C 0.59073 0.3711 0.6991 0.0
C318 C 0.56047 0.28999 0.70353 0.0
C319 C 0.53603 0.30416 0.6954 0.0
H320 H 0.17997 0.57839 0.83089 0.0
H321 H 0.14247 0.46552 0.87363 0.0
H322 H 0.20869 0.49005 0.89447 0.0
H323 H 0.27937 0.54265 0.89538 0.0
H324 H 0.31475 0.65271 0.84708 0.0
H325 H 0.24782 0.63005 0.83306 0.0
C326 C 0.1861 0.55938 0.84544 0.0
C327 C 0.15632 0.52031 0.85093 0.0
C328 C 0.22433 0.57299 0.85556 0.0
C329 C 0.1647 0.49589 0.86953 0.0
C330 C 0.20275 0.5098 0.88095 0.0
C331 C 0.27233 0.56157 0.88179 0.0
C332 C 0.30245 0.59932 0.87207 0.0
C333 C 0.23318 0.54804 0.87322 0.0
C334 C 0.2926 0.62345 0.85461 0.0
C335 C 0.25414 0.61063 0.84671 0.0
H336 H 0.69063 0.18292 0.96625 0.0
H337 H 0.6228 0.12416 0.05242 0.0
H338 H 0.65306 0.18715 0.08134 0.0
H339 H 0.69515 0.26005 0.08051 0.0
H340 H 0.75254 0.31784 0.99063 0.0
H341 H 0.7282 0.25413 0.96405 0.0
C342 C 0.68142 0.18355 0.99112 0.0
C343 C 0.65339 0.1484 0.00665 0.0
C344 C 0.69659 0.22001 0.00668 0.0
C345 C 0.64415 0.15033 0.03962 0.0
C346 C 0.66111 0.18653 0.05608 0.0
C347 C 0.70203 0.25848 0.05504 0.0
C348 C 0.72539 0.29342 0.03736 0.0
C349 C 0.68667 0.22167 0.03958 0.0
C350 C 0.73421 0.2913 0.00446 0.0
C351 C 0.72055 0.25492 0.98941 0.0
H352 H 0.57459 0.70228 0.17651 0.0
H353 H 0.48011 0.58399 0.19175 0.0
H354 H 0.43911 0.60854 0.21217 0.0
H355 H 0.42768 0.66363 0.21951 0.0
H356 H 0.52298 0.78228 0.20775 0.0
H357 H 0.56605 0.75799 0.19216 0.0
C358 C 0.54559 0.68203 0.18566 0.0
C359 C 0.53068 0.64131 0.18329 0.0
C360 C 0.52198 0.6965 0.19712 0.0
C361 C 0.49257 0.61538 0.19419 0.0
C362 C 0.46891 0.62945 0.20534 0.0
C363 C 0.45799 0.68412 0.21382 0.0
C364 C 0.47201 0.7247 0.21424 0.0
C365 C 0.48285 0.66989 0.20587 0.0
C366 C 0.51148 0.75094 0.20741 0.0
C367 C 0.5361 0.73702 0.1985 0.0
H368 H 0.88714 0.55608 0.32785 0.0
H369 H 0.92109 0.48701 0.38394 0.0
H370 H 0.85498 0.44805 0.40612 0.0
H371 H 0.78507 0.42801 0.40355 0.0
H372 H 0.75178 0.49702 0.34654 0.0
H373 H 0.81959 0.54109 0.3302 0.0
C374 C 0.88035 0.53336 0.34583 0.0
C375 C 0.90912 0.52463 0.35436 0.0
C376 C 0.84194 0.51018 0.3574 0.0
C377 C 0.89978 0.49482 0.3774 0.0
C378 C 0.86172 0.47202 0.38957 0.0
C379 C 0.7929 0.45286 0.38768 0.0
C380 C 0.76358 0.45903 0.37571 0.0
C381 C 0.83217 0.4784 0.37871 0.0
C382 C 0.77391 0.49156 0.35565 0.0
C383 C 0.81266 0.51681 0.34645 0.0
H384 H 0.14417 0.5655 0.40535 0.0
H385 H 0.0831 0.62586 0.427 0.0
H386 H 0.11644 0.64718 0.47983 0.0
H387 H 0.16965 0.65629 0.51581 0.0
H388 H 0.23184 0.59706 0.49311 0.0
H389 H 0.1916 0.56787 0.44458 0.0
C390 C 0.13744 0.58243 0.42211 0.0
C391 C 0.11144 0.59433 0.41235 0.0
C392 C 0.15766 0.5956 0.45179 0.0
C393 C 0.10277 0.61612 0.43415 0.0
C394 C 0.12227 0.62878 0.4641 0.0
C395 C 0.17427 0.63681 0.50036 0.0
C396 C 0.20428 0.6295 0.50776 0.0
C397 C 0.15095 0.62005 0.4725 0.0
C398 C 0.20925 0.60349 0.48786 0.0
C399 C 0.18621 0.58675 0.46011 0.0
H400 H 0.61621 0.12712 0.54555 0.0
H401 H 0.50188 0.07614 0.58768 0.0
H402 H 0.52957 0.11517 0.6377 0.0
H403 H 0.5864 0.16936 0.66687 0.0
H404 H 0.69999 0.2209 0.62228 0.0
H405 H 0.67254 0.17707 0.57552 0.0
C406 C 0.59759 0.12361 0.56623 0.0
C407 C 0.55725 0.0985 0.56329 0.0
C408 C 0.6135 0.14743 0.59394 0.0
C409 C 0.53314 0.09467 0.5898 0.0
C410 C 0.54892 0.1176 0.61806 0.0
C411 C 0.60494 0.17112 0.64673 0.0
C412 C 0.6451 0.19873 0.64784 0.0
C413 C 0.58898 0.14518 0.61991 0.0
C414 C 0.66896 0.20012 0.62193 0.0
C415 C 0.65337 0.17488 0.59526 0.0
H416 H 0.49623 0.56432 0.72568 0.0
H417 H 0.3982 0.45772 0.76219 0.0
H418 H 0.39345 0.49317 0.80962 0.0
H419 H 0.41294 0.55646 0.83704 0.0
H420 H 0.50909 0.66318 0.79725 0.0
H421 H 0.51836 0.62605 0.75463 0.0
C422 C 0.47493 0.54869 0.74483 0.0
C423 C 0.44832 0.50845 0.74114 0.0
C424 C 0.47115 0.56963 0.77083 0.0
C425 C 0.41972 0.48854 0.76523 0.0
C426 C 0.41656 0.50898 0.79192 0.0
C427 C 0.43581 0.57153 0.81898 0.0
C428 C 0.46 0.61265 0.8203 0.0
C429 C 0.44124 0.54986 0.79432 0.0
C430 C 0.48989 0.63162 0.79691 0.0
C431 C 0.49542 0.6104 0.77251 0.0
H432 H 0.96858 0.42442 0.92824 0.0
H433 H 0.94294 0.51439 0.90571 0.0
H434 H 0.90368 0.49892 0.95568 0.0
H435 H 0.86809 0.45225 0.00079 0.0
H436 H 0.89174 0.35971 0.02037 0.0
H437 H 0.93973 0.38346 0.97681 0.0
C438 C 0.95585 0.4418 0.93514 0.0
C439 C 0.9591 0.47086 0.9137 0.0
C440 C 0.93165 0.43126 0.96289 0.0
C441 C 0.94146 0.49242 0.92229 0.0
C442 C 0.9184 0.48303 0.95053 0.0
C443 C 0.88402 0.43755 0.99577 0.0
C444 C 0.87546 0.4037 0.01365 0.0
C445 C 0.91178 0.45122 0.97021 0.0
C446 C 0.89691 0.38539 0.00684 0.0
C447 C 0.92469 0.39905 0.98193 0.0
H448 H 0.48364 0.93618 0.06088 0.0
H449 H 0.58772 0.94225 0.09534 0.0
H450 H 0.55196 0.90026 0.14214 0.0
H451 H 0.4888 0.8546 0.1688 0.0
H452 H 0.38439 0.84608 0.13059 0.0
H453 H 0.42224 0.89546 0.08971 0.0
C454 C 0.49875 0.92972 0.07954 0.0
C455 C 0.53835 0.94307 0.07531 0.0
C456 C 0.47753 0.90378 0.10508 0.0
C457 C 0.55746 0.93325 0.09877 0.0
C458 C 0.5368 0.90856 0.12509 0.0
C459 C 0.47435 0.86357 0.15156 0.0
C460 C 0.43359 0.84604 0.15277 0.0
C461 C 0.49642 0.8923 0.12772 0.0
C462 C 0.41557 0.85858 0.13034 0.0
C463 C 0.43723 0.88711 0.10691 0.0
H464 H 0.5739 0.48759 0.22975 0.0
H465 H 0.69137 0.57982 0.2489 0.0
H466 H 0.69449 0.54367 0.29623 0.0
H467 H 0.66615 0.48195 0.32787 0.0
H468 H 0.5494 0.38848 0.30554 0.0
H469 H 0.54386 0.42862 0.26388 0.0
C470 C 0.59957 0.50032 0.24513 0.0
C471 C 0.63204 0.5365 0.23645 0.0
C472 C 0.60171 0.47854 0.2712 0.0
C473 C 0.66574 0.55231 0.25573 0.0
C474 C 0.66769 0.53136 0.28242 0.0
C475 C 0.63944 0.47042 0.31401 0.0
C476 C 0.60853 0.4319 0.31977 0.0
C477 C 0.63631 0.49375 0.28967 0.0
C478 C 0.574 0.41774 0.30162 0.0
C479 C 0.57061 0.44079 0.27776 0.0
H480 H 0.39512 0.9182 0.39467 0.0
H481 H 0.51457 0.94864 0.39019 0.0
H482 H 0.50124 0.90949 0.34 0.0
H483 H 0.45325 0.86037 0.30104 0.0
H484 H 0.33322 0.82922 0.30814 0.0
H485 H 0.34896 0.8743 0.35367 0.0
C486 C 0.41847 0.91735 0.38193 0.0
C487 C 0.45586 0.93673 0.3956 0.0
C488 C 0.41017 0.89362 0.35409 0.0
C489 C 0.48579 0.9347 0.37956 0.0
C490 C 0.47795 0.91173 0.35124 0.0
C491 C 0.43059 0.86348 0.31256 0.0
C492 C 0.39199 0.84096 0.30123 0.0
C493 C 0.43987 0.8899 0.33893 0.0
C494 C 0.36314 0.8459 0.31625 0.0
C495 C 0.37208 0.87184 0.34232 0.0
H496 H 0.58081 0.45955 0.5728 0.0
H497 H 0.45788 0.3892 0.55457 0.0
H498 H 0.47071 0.36969 0.50106 0.0
H499 H 0.5171 0.36634 0.46296 0.0
H500 H 0.64012 0.4358 0.48317 0.0
H501 H 0.62705 0.46159 0.53249 0.0
C502 C 0.55691 0.44082 0.55662 0.0
C503 C 0.51851 0.4258 0.56741 0.0
C504 C 0.56454 0.42875 0.52667 0.0
C505 C 0.48767 0.40144 0.5465 0.0
C506 C 0.49505 0.38984 0.51619 0.0
C507 C 0.54105 0.38723 0.47808 0.0
C508 C 0.57953 0.39859 0.46949 0.0
C509 C 0.53336 0.40216 0.5066 0.0
C510 C 0.61021 0.42623 0.48916 0.0
C511 C 0.60281 0.44112 0.51742 0.0
H512 H 0.11779 0.5755 0.75456 0.0
H513 H 0.10771 0.46708 0.72388 0.0
H514 H 0.14919 0.4999 0.67611 0.0
H515 H 0.19434 0.56156 0.64664 0.0
H516 H 0.20622 0.67029 0.68045 0.0
H517 H 0.15883 0.63557 0.72348 0.0
C518 C 0.12341 0.55884 0.73658 0.0
C519 C 0.1089 0.51882 0.74204 0.0
C520 C 0.14883 0.57834 0.71033 0.0
C521 C 0.11763 0.49769 0.71947 0.0
C522 C 0.14197 0.51666 0.69258 0.0
C523 C 0.18661 0.57761 0.66348 0.0
C524 C 0.20425 0.61862 0.66032 0.0
C525 C 0.15889 0.55733 0.6884 0.0
C526 C 0.19337 0.6388 0.68219 0.0
C527 C 0.16604 0.61896 0.70683 0.0
H528 H 0.57677 0.11863 0.90115 0.0
H529 H 0.64552 0.06503 0.88651 0.0
H530 H 0.66905 0.09916 0.83402 0.0
H531 H 0.67813 0.15259 0.79718 0.0
H532 H 0.61026 0.20729 0.81357 0.0
H533 H 0.57871 0.16481 0.86047 0.0
C534 C 0.59576 0.11336 0.88579 0.0
C535 C 0.60947 0.08948 0.89757 0.0
C536 C 0.61035 0.13433 0.85647 0.0
C537 C 0.63425 0.08295 0.87771 0.0
C538 C 0.64826 0.10305 0.84801 0.0
C539 C 0.65622 0.15499 0.81086 0.0
C540 C 0.64721 0.18369 0.80215 0.0
C541 C 0.63795 0.13028 0.83796 0.0
C542 C 0.61815 0.18582 0.81981 0.0
C543 C 0.59996 0.16144 0.84667 0.0
H544 H 0.47967 0.57953 0.08043 0.0
H545 H 0.59997 0.6339 0.05176 0.0
H546 H 0.58449 0.64923 -0.00211 0.0
H547 H 0.53848 0.65515 0.96231 0.0
H548 H 0.41829 0.60208 0.99153 0.0
H549 H 0.43197 0.57831 0.04196 0.0
C550 C 0.5023 0.59399 0.06206 0.0
C551 C 0.54098 0.60597 0.07006 0.0
C552 C 0.49332 0.60362 0.03161 0.0
C553 C 0.57001 0.62427 0.04608 0.0
C554 C 0.56121 0.63345 0.01546 0.0
C555 C 0.51517 0.63813 0.97959 0.0
C556 C 0.47754 0.63106 0.97347 0.0
C557 C 0.52328 0.62464 0.0085 0.0
C558 C 0.44753 0.60819 0.99575 0.0
C559 C 0.45536 0.59465 0.02461 0.0
H560 H 0.92164 0.45533 0.26631 0.0
H561 H 0.97261 0.5672 0.21801 0.0
H562 H 0.93291 0.53548 0.16909 0.0
H563 H 0.8794 0.47572 0.14213 0.0
H564 H 0.82719 0.36523 0.19363 0.0
H565 H 0.87068 0.39667 0.23964 0.0
C566 C 0.92483 0.47249 0.2446 0.0
C567 C 0.95034 0.51322 0.24526 0.0
C568 C 0.90063 0.45445 0.21768 0.0
C569 C 0.95376 0.53559 0.21755 0.0
C570 C 0.93053 0.51754 0.18993 0.0
C571 C 0.87732 0.4588 0.16365 0.0
C572 C 0.84987 0.41827 0.1646 0.0
C573 C 0.90296 0.47708 0.19012 0.0
C574 C 0.84795 0.39647 0.19235 0.0
C575 C 0.87299 0.41433 0.21859 0.0
loop_
_geom_bond_atom_site_label_1
_geom_bond_atom_site_label_2
_geom_bond_distance
_geom_bond_site_symmetry_2
_ccdc_geom_bond_type
H0 C6 0.930 . S
H1 C9 0.931 . S
H2 C11 0.931 . S
H3 C13 0.930 . S
H4 C15 0.930 . S
H5 C17 0.933 . S
C6 H0 0.930 . S
C6 C7 1.380 . S
C6 C8 1.394 . S
C7 C6 1.380 . S
C7 C11 1.382 . S
C8 C6 1.394 . S
C8 C9 1.400 . S
C9 H1 0.931 . S
C9 C8 1.400 . S
C9 C10 1.375 . S
C10 C9 1.375 . S
C10 C11 1.415 . S
C10 C12 1.501 1_455 S
C11 H2 0.931 . S
C11 C7 1.382 . S
C11 C10 1.415 . S
C12 C10 1.501 1_655 S
C12 C13 1.384 . S
C12 C17 1.408 . S
C13 H3 0.930 . S
C13 C12 1.384 . S
C13 C14 1.389 . S
C14 C13 1.389 . S
C14 C15 1.405 . S
C15 H4 0.930 . S
C15 C14 1.405 . S
C15 C16 1.364 . S
C16 C15 1.364 . S
C16 C17 1.400 . S
C17 H5 0.933 . S
C17 C12 1.408 . S
C17 C16 1.400 . S
H18 C24 0.930 . S
H19 C27 0.931 . S
H20 C29 0.931 . S
H21 C31 0.930 . S
H22 C33 0.930 . S
H23 C35 0.931 . S
C24 H18 0.930 . S
C24 C25 1.380 . S
C24 C26 1.394 . S
C25 C24 1.380 . S
C25 C29 1.382 . S
C26 C24 1.394 . S
C26 C27 1.400 . S
C27 H19 0.931 . S
C27 C26 1.400 . S
C27 C28 1.375 . S
C28 C27 1.375 . S
C28 C29 1.415 . S
C28 C30 1.501 1_545 S
C29 H20 0.931 . S
C29 C25 1.382 . S
C29 C28 1.415 . S
C30 C28 1.501 1_565 S
C30 C31 1.384 . S
C30 C35 1.408 . S
C31 H21 0.930 . S
C31 C30 1.384 . S
C31 C32 1.389 . S
C32 C31 1.389 . S
C32 C33 1.405 . S
C33 H22 0.930 . S
C33 C32 1.405 . S
C33 C34 1.364 . S
C34 C33 1.364 . S
C34 C35 1.400 . S
C35 H23 0.931 . S
C35 C30 1.408 . S
C35 C34 1.400 . S
H36 C42 0.930 . S
H37 C45 0.931 . S
H38 C47 0.931 . S
H39 C49 0.930 . S
H40 C51 0.930 . S
H41 C53 0.931 . S
C42 H36 0.930 . S
C42 C43 1.380 . S
C42 C44 1.394 . S
C43 C42 1.380 . S
C43 C47 1.382 . S
C44 C42 1.394 . S
C44 C45 1.400 . S
C45 H37 0.931 . S
C45 C44 1.400 . S
C45 C46 1.375 . S
C46 C45 1.375 . S
C46 C47 1.415 . S
C46 C48 1.501 . S
C47 H38 0.931 . S
C47 C43 1.382 . S
C47 C46 1.415 . S
C48 C46 1.501 . S
C48 C49 1.384 . S
C48 C53 1.408 . S
C49 H39 0.930 . S
C49 C48 1.384 . S
C49 C50 1.389 . S
C50 C49 1.389 . S
C50 C51 1.405 . S
C51 H40 0.930 . S
C51 C50 1.405 . S
C51 C52 1.364 . S
C52 C51 1.364 . S
C52 C53 1.400 . S
C53 H41 0.931 . S
C53 C48 1.408 . S
C53 C52 1.400 . S
H54 C60 0.930 . S
H55 C63 0.931 . S
H56 C65 0.931 . S
H57 C67 0.930 . S
H58 C69 0.930 . S
H59 C71 0.931 . S
C60 H54 0.930 . S
C60 C61 1.380 . S
C60 C62 1.394 . S
C61 C60 1.380 . S
C61 C65 1.382 . S
C62 C60 1.394 . S
C62 C63 1.400 . S
C63 H55 0.931 . S
C63 C62 1.400 . S
C63 C64 1.375 . S
C64 C63 1.375 . S
C64 C65 1.415 . S
C64 C66 1.501 1_455 S
C65 H56 0.931 . S
C65 C61 1.382 . S
C65 C64 1.415 . S
C66 C64 1.501 1_655 S
C66 C67 1.384 . S
C66 C71 1.408 . S
C67 H57 0.930 . S
C67 C66 1.384 . S
C67 C68 1.389 . S
C68 C67 1.389 . S
C68 C69 1.405 . S
C69 H58 0.930 . S
C69 C68 1.405 . S
C69 C70 1.364 . S
C70 C69 1.364 . S
C70 C71 1.400 . S
C71 H59 0.931 . S
C71 C66 1.408 . S
C71 C70 1.400 . S
H72 C78 0.930 . S
H73 C81 0.931 . S
H74 C83 0.931 . S
H75 C85 0.930 . S
H76 C87 0.930 . S
H77 C89 0.931 . S
C78 H72 0.930 . S
C78 C79 1.380 . S
C78 C80 1.394 1_554 S
C79 C78 1.380 . S
C79 C83 1.382 . S
C80 C78 1.394 1_556 S
C80 C81 1.400 . S
C81 H73 0.931 . S
C81 C80 1.400 . S
C81 C82 1.375 . S
C82 C81 1.375 . S
C82 C83 1.415 1_556 S
C82 C84 1.501 1_565 S
C83 H74 0.931 . S
C83 C79 1.382 . S
C83 C82 1.415 1_554 S
C84 C82 1.501 1_545 S
C84 C85 1.384 1_556 S
C84 C89 1.408 . S
C85 H75 0.930 . S
C85 C84 1.384 1_554 S
C85 C86 1.389 . S
C86 C85 1.389 . S
C86 C87 1.406 1_554 S
C87 H76 0.930 . S
C87 C86 1.406 1_556 S
C87 C88 1.364 . S
C88 C87 1.364 . S
C88 C89 1.400 . S
C89 H77 0.931 . S
C89 C84 1.408 . S
C89 C88 1.400 . S
H90 C96 0.930 . S
H91 C99 0.931 . S
H92 C101 0.931 . S
H93 C103 0.930 . S
H94 C105 0.930 . S
H95 C107 0.931 . S
C96 H90 0.930 . S
C96 C97 1.380 . S
C96 C98 1.394 . S
C97 C96 1.380 . S
C97 C101 1.382 . S
C98 C96 1.394 . S
C98 C99 1.400 . S
C99 H91 0.931 . S
C99 C98 1.400 . S
C99 C100 1.375 . S
C100 C99 1.375 . S
C100 C101 1.415 . S
C100 C102 1.501 . S
C101 H92 0.931 . S
C101 C97 1.382 . S
C101 C100 1.415 . S
C102 C100 1.501 . S
C102 C103 1.384 . S
C102 C107 1.408 . S
C103 H93 0.930 . S
C103 C102 1.384 . S
C103 C104 1.389 . S
C104 C103 1.389 . S
C104 C105 1.405 . S
C105 H94 0.930 . S
C105 C104 1.405 . S
C105 C106 1.364 . S
C106 C105 1.364 . S
C106 C107 1.400 . S
C107 H95 0.931 . S
C107 C102 1.408 . S
C107 C106 1.400 . S
Co108 O109 2.216 . S
Co108 O110 2.091 . S
Co108 O112 2.004 . S
Co108 O118 2.021 . S
Co108 O120 2.137 . S
Co108 O121 2.244 . S
O109 Co108 2.216 . S
O109 C116 1.247 . S
O110 Co108 2.091 . S
O110 C116 1.261 . S
C111 O120 1.247 . S
C111 O121 1.272 . S
O112 Co108 2.004 . S
O112 C117 1.259 . S
Co113 O114 2.061 . S
Co113 O119 2.052 . S
Co113 O121 2.135 . S
O114 Co113 2.061 . S
O114 C117 1.235 . S
C115 O118 1.238 . S
C115 O119 1.241 . S
C116 O109 1.247 . S
C116 O110 1.261 . S
C117 O112 1.259 . S
C117 O114 1.235 . S
O118 Co108 2.021 . S
O118 C115 1.238 . S
O119 Co113 2.052 . S
O119 C115 1.241 . S
O120 Co108 2.137 . S
O120 C111 1.247 . S
O121 Co108 2.244 . S
O121 C111 1.272 . S
O121 Co113 2.135 . S
Co122 O123 2.216 . S
Co122 O124 2.091 . S
Co122 O126 2.004 . S
Co122 O132 2.021 . S
Co122 O134 2.137 . S
Co122 O135 2.244 . S
O123 Co122 2.216 . S
O123 C130 1.247 . S
O124 Co122 2.091 . S
O124 C130 1.261 . S
C125 O134 1.247 . S
C125 O135 1.272 . S
O126 Co122 2.004 . S
O126 C131 1.259 . S
Co127 O128 2.061 . S
Co127 O133 2.052 . S
Co127 O135 2.135 . S
O128 Co127 2.061 . S
O128 C131 1.235 . S
C129 O132 1.238 . S
C129 O133 1.241 . S
C130 O123 1.247 . S
C130 O124 1.261 . S
C131 O126 1.259 . S
C131 O128 1.235 . S
O132 Co122 2.021 . S
O132 C129 1.238 . S
O133 Co127 2.052 . S
O133 C129 1.241 . S
O134 Co122 2.137 . S
O134 C125 1.247 . S
O135 Co122 2.244 . S
O135 C125 1.272 . S
O135 Co127 2.135 . S
Co136 O137 2.216 . S
Co136 O138 2.091 . S
Co136 O140 2.004 . S
Co136 O146 2.021 . S
Co136 O148 2.137 . S
Co136 O149 2.244 . S
O137 Co136 2.216 . S
O137 C144 1.247 . S
O138 Co136 2.091 . S
O138 C144 1.261 . S
C139 O148 1.247 . S
C139 O149 1.272 . S
O140 Co136 2.004 . S
O140 C145 1.259 . S
Co141 O142 2.061 . S
Co141 O147 2.052 . S
Co141 O149 2.135 . S
O142 Co141 2.061 . S
O142 C145 1.235 . S
C143 O146 1.238 . S
C143 O147 1.241 . S
C144 O137 1.247 . S
C144 O138 1.261 . S
C145 O140 1.259 . S
C145 O142 1.235 . S
O146 Co136 2.021 . S
O146 C143 1.238 . S
O147 Co141 2.052 . S
O147 C143 1.241 . S
O148 Co136 2.137 . S
O148 C139 1.247 . S
O149 Co136 2.244 . S
O149 C139 1.272 . S
O149 Co141 2.135 . S
Co150 O151 2.216 . S
Co150 O152 2.091 . S
Co150 O154 2.004 . S
Co150 O160 2.021 . S
Co150 O162 2.137 . S
Co150 O163 2.244 . S
O151 Co150 2.216 . S
O151 C158 1.247 . S
O152 Co150 2.091 . S
O152 C158 1.261 . S
C153 O162 1.247 . S
C153 O163 1.272 . S
O154 Co150 2.004 . S
O154 C159 1.259 . S
Co155 O156 2.061 . S
Co155 O161 2.052 . S
Co155 O163 2.135 . S
O156 Co155 2.061 . S
O156 C159 1.235 . S
C157 O160 1.238 . S
C157 O161 1.241 . S
C158 O151 1.247 . S
C158 O152 1.261 . S
C159 O154 1.259 . S
C159 O156 1.235 . S
O160 Co150 2.021 . S
O160 C157 1.238 . S
O161 Co155 2.052 . S
O161 C157 1.241 . S
O162 Co150 2.137 . S
O162 C153 1.247 . S
O163 Co150 2.244 . S
O163 C153 1.272 . S
O163 Co155 2.135 . S
Co164 O165 2.216 . S
Co164 O166 2.091 . S
Co164 O168 2.004 . S
Co164 O174 2.021 . S
Co164 O176 2.137 . S
Co164 O177 2.244 . S
O165 Co164 2.216 . S
O165 C172 1.247 . S
O166 Co164 2.091 . S
O166 C172 1.261 . S
C167 O176 1.247 . S
C167 O177 1.272 . S
O168 Co164 2.004 . S
O168 C173 1.259 . S
Co169 O170 2.061 . S
Co169 O175 2.052 . S
Co169 O177 2.135 . S
O170 Co169 2.061 . S
O170 C173 1.235 . S
C171 O174 1.238 . S
C171 O175 1.241 . S
C172 O165 1.247 . S
C172 O166 1.261 . S
C173 O168 1.259 . S
C173 O170 1.235 . S
O174 Co164 2.021 . S
O174 C171 1.238 . S
O175 Co169 2.052 . S
O175 C171 1.241 . S
O176 Co164 2.137 . S
O176 C167 1.247 . S
O177 Co164 2.244 . S
O177 C167 1.272 . S
O177 Co169 2.135 . S
Co178 O179 2.216 . S
Co178 O180 2.091 . S
Co178 O182 2.004 . S
Co178 O188 2.021 . S
Co178 O190 2.137 . S
Co178 O191 2.244 . S
O179 Co178 2.216 . S
O179 C186 1.247 . S
O180 Co178 2.091 . S
O180 C186 1.261 . S
C181 O190 1.247 . S
C181 O191 1.272 . S
O182 Co178 2.004 . S
O182 C187 1.259 . S
Co183 O184 2.061 . S
Co183 O189 2.052 . S
Co183 O191 2.135 . S
O184 Co183 2.061 . S
O184 C187 1.235 . S
C185 O188 1.238 . S
C185 O189 1.241 . S
C186 O179 1.247 . S
C186 O180 1.261 . S
C187 O182 1.259 . S
C187 O184 1.235 . S
O188 Co178 2.021 . S
O188 C185 1.238 . S
O189 Co183 2.052 . S
O189 C185 1.241 . S
O190 Co178 2.137 . S
O190 C181 1.247 . S
O191 Co178 2.244 . S
O191 C181 1.272 . S
O191 Co183 2.135 . S
H192 C198 0.930 . S
H193 C201 0.930 . S
H194 C202 0.930 . S
H195 C203 0.930 . S
H196 C206 0.930 . S
H197 C207 0.930 . S
C198 H192 0.930 . S
C198 C199 1.355 . S
C198 C200 1.415 . S
C199 C198 1.355 . S
C199 C201 1.419 . S
C200 C198 1.415 . S
C200 C205 1.425 . S
C200 C207 1.409 . S
C201 H193 0.930 . S
C201 C199 1.419 . S
C201 C202 1.362 . S
C202 H194 0.930 . S
C202 C201 1.362 . S
C202 C205 1.409 . S
C203 H195 0.930 . S
C203 C204 1.355 . S
C203 C205 1.415 . S
C204 C203 1.355 . S
C204 C206 1.419 . S
C205 C200 1.425 . S
C205 C202 1.409 . S
C205 C203 1.415 . S
C206 H196 0.930 . S
C206 C204 1.419 . S
C206 C207 1.362 . S
C207 H197 0.930 . S
C207 C200 1.409 . S
C207 C206 1.362 . S
H208 C214 0.930 . S
H209 C217 0.930 . S
H210 C218 0.930 . S
H211 C219 0.930 . S
H212 C222 0.930 . S
H213 C223 0.930 . S
C214 H208 0.930 . S
C214 C215 1.355 . S
C214 C216 1.415 . S
C215 C214 1.355 . S
C215 C217 1.419 . S
C216 C214 1.415 . S
C216 C221 1.425 . S
C216 C223 1.409 . S
C217 H209 0.930 . S
C217 C215 1.419 . S
C217 C218 1.362 . S
C218 H210 0.930 . S
C218 C217 1.362 . S
C218 C221 1.409 . S
C219 H211 0.930 . S
C219 C220 1.355 . S
C219 C221 1.415 . S
C220 C219 1.355 . S
C220 C222 1.419 . S
C221 C216 1.425 . S
C221 C218 1.409 . S
C221 C219 1.415 . S
C222 H212 0.930 . S
C222 C220 1.419 . S
C222 C223 1.362 . S
C223 H213 0.930 . S
C223 C216 1.409 . S
C223 C222 1.362 . S
H224 C230 0.930 . S
H225 C233 0.930 . S
H226 C234 0.930 . S
H227 C235 0.930 . S
H228 C238 0.930 . S
H229 C239 0.930 . S
C230 H224 0.930 . S
C230 C231 1.355 . S
C230 C232 1.415 . S
C231 C230 1.355 . S
C231 C233 1.419 . S
C232 C230 1.415 . S
C232 C237 1.425 . S
C232 C239 1.409 . S
C233 H225 0.930 . S
C233 C231 1.419 . S
C233 C234 1.362 . S
C234 H226 0.930 . S
C234 C233 1.362 . S
C234 C237 1.409 . S
C235 H227 0.930 . S
C235 C236 1.355 . S
C235 C237 1.415 . S
C236 C235 1.355 . S
C236 C238 1.419 . S
C237 C232 1.425 . S
C237 C234 1.409 . S
C237 C235 1.415 . S
C238 H228 0.930 . S
C238 C236 1.419 . S
C238 C239 1.362 . S
C239 H229 0.930 . S
C239 C232 1.409 . S
C239 C238 1.362 . S
H240 C246 0.930 . S
H241 C249 0.930 . S
H242 C250 0.930 . S
H243 C251 0.930 . S
H244 C254 0.930 . S
H245 C255 0.930 . S
C246 H240 0.930 . S
C246 C247 1.355 . S
C246 C248 1.415 . S
C247 C246 1.355 . S
C247 C249 1.419 . S
C248 C246 1.415 . S
C248 C253 1.425 . S
C248 C255 1.409 . S
C249 H241 0.930 . S
C249 C247 1.419 . S
C249 C250 1.362 . S
C250 H242 0.930 . S
C250 C249 1.362 . S
C250 C253 1.409 . S
C251 H243 0.930 . S
C251 C252 1.355 . S
C251 C253 1.415 . S
C252 C251 1.355 . S
C252 C254 1.419 . S
C253 C248 1.425 . S
C253 C250 1.409 . S
C253 C251 1.415 . S
C254 H244 0.930 . S
C254 C252 1.419 . S
C254 C255 1.362 . S
C255 H245 0.930 . S
C255 C248 1.409 . S
C255 C254 1.362 . S
H256 C262 0.930 . S
H257 C265 0.930 1_554 S
H258 C266 0.930 1_554 S
H259 C267 0.930 . S
H260 C270 0.930 . S
H261 C271 0.930 . S
C262 H256 0.930 . S
C262 C263 1.355 . S
C262 C264 1.415 . S
C263 C262 1.355 . S
C263 C265 1.419 . S
C264 C262 1.415 . S
C264 C269 1.425 . S
C264 C271 1.409 . S
C265 H257 0.930 1_556 S
C265 C263 1.419 . S
C265 C266 1.362 . S
C266 H258 0.930 1_556 S
C266 C265 1.362 . S
C266 C269 1.409 . S
C267 H259 0.930 . S
C267 C268 1.355 . S
C267 C269 1.415 . S
C268 C267 1.355 . S
C268 C270 1.419 . S
C269 C264 1.425 . S
C269 C266 1.409 . S
C269 C267 1.415 . S
C270 H260 0.930 . S
C270 C268 1.419 . S
C270 C271 1.362 . S
C271 H261 0.930 . S
C271 C264 1.409 . S
C271 C270 1.362 . S
H272 C278 0.930 . S
H273 C281 0.930 . S
H274 C282 0.930 . S
H275 C283 0.930 . S
H276 C286 0.930 . S
H277 C287 0.930 . S
C278 H272 0.930 . S
C278 C279 1.355 . S
C278 C280 1.415 . S
C279 C278 1.355 . S
C279 C281 1.419 . S
C280 C278 1.415 . S
C280 C285 1.425 . S
C280 C287 1.409 . S
C281 H273 0.930 . S
C281 C279 1.419 . S
C281 C282 1.362 . S
C282 H274 0.930 . S
C282 C281 1.362 . S
C282 C285 1.409 . S
C283 H275 0.930 . S
C283 C284 1.355 . S
C283 C285 1.415 . S
C284 C283 1.355 . S
C284 C286 1.419 . S
C285 C280 1.425 . S
C285 C282 1.409 . S
C285 C283 1.415 . S
C286 H276 0.930 . S
C286 C284 1.419 . S
C286 C287 1.362 . S
C287 H277 0.930 . S
C287 C280 1.409 . S
C287 C286 1.362 . S
H288 C294 0.930 . S
H289 C297 0.930 . S
H290 C298 0.930 . S
H291 C299 0.930 . S
H292 C302 0.930 . S
H293 C303 0.930 . S
C294 H288 0.930 . S
C294 C295 1.355 . S
C294 C296 1.415 . S
C295 C294 1.355 . S
C295 C297 1.419 . S
C296 C294 1.415 . S
C296 C301 1.425 . S
C296 C303 1.409 . S
C297 H289 0.930 . S
C297 C295 1.419 . S
C297 C298 1.362 . S
C298 H290 0.930 . S
C298 C297 1.362 . S
C298 C301 1.409 . S
C299 H291 0.930 . S
C299 C300 1.355 . S
C299 C301 1.415 . S
C300 C299 1.355 . S
C300 C302 1.419 . S
C301 C296 1.425 . S
C301 C298 1.409 . S
C301 C299 1.415 . S
C302 H292 0.930 . S
C302 C300 1.419 . S
C302 C303 1.362 . S
C303 H293 0.930 . S
C303 C296 1.409 . S
C303 C302 1.362 . S
H304 C310 0.930 . S
H305 C313 0.930 . S
H306 C314 0.930 . S
H307 C315 0.930 . S
H308 C318 0.930 . S
H309 C319 0.930 . S
C310 H304 0.930 . S
C310 C311 1.355 . S
C310 C312 1.415 . S
C311 C310 1.355 . S
C311 C313 1.419 . S
C312 C310 1.415 . S
C312 C317 1.425 . S
C312 C319 1.409 . S
C313 H305 0.930 . S
C313 C311 1.419 . S
C313 C314 1.362 . S
C314 H306 0.930 . S
C314 C313 1.362 . S
C314 C317 1.409 . S
C315 H307 0.930 . S
C315 C316 1.355 . S
C315 C317 1.415 . S
C316 C315 1.355 . S
C316 C318 1.419 . S
C317 C312 1.425 . S
C317 C314 1.409 . S
C317 C315 1.415 . S
C318 H308 0.930 . S
C318 C316 1.419 . S
C318 C319 1.362 . S
C319 H309 0.930 . S
C319 C312 1.409 . S
C319 C318 1.362 . S
H320 C326 0.930 . S
H321 C329 0.930 . S
H322 C330 0.930 . S
H323 C331 0.930 . S
H324 C334 0.930 . S
H325 C335 0.930 . S
C326 H320 0.930 . S
C326 C327 1.355 . S
C326 C328 1.415 . S
C327 C326 1.355 . S
C327 C329 1.419 . S
C328 C326 1.415 . S
C328 C333 1.425 . S
C328 C335 1.409 . S
C329 H321 0.930 . S
C329 C327 1.419 . S
C329 C330 1.362 . S
C330 H322 0.930 . S
C330 C329 1.362 . S
C330 C333 1.409 . S
C331 H323 0.930 . S
C331 C332 1.355 . S
C331 C333 1.415 . S
C332 C331 1.355 . S
C332 C334 1.419 . S
C333 C328 1.425 . S
C333 C330 1.409 . S
C333 C331 1.415 . S
C334 H324 0.930 . S
C334 C332 1.419 . S
C334 C335 1.362 . S
C335 H325 0.930 . S
C335 C328 1.409 . S
C335 C334 1.362 . S
H336 C342 0.930 . S
H337 C345 0.930 . S
H338 C346 0.930 . S
H339 C347 0.930 . S
H340 C350 0.930 . S
H341 C351 0.930 . S
C342 H336 0.930 . S
C342 C343 1.355 . S
C342 C344 1.415 . S
C343 C342 1.355 . S
C343 C345 1.419 . S
C344 C342 1.415 . S
C344 C349 1.425 . S
C344 C351 1.409 . S
C345 H337 0.930 . S
C345 C343 1.419 . S
C345 C346 1.362 . S
C346 H338 0.930 . S
C346 C345 1.362 . S
C346 C349 1.409 . S
C347 H339 0.930 . S
C347 C348 1.355 . S
C347 C349 1.415 . S
C348 C347 1.355 . S
C348 C350 1.419 . S
C349 C344 1.425 . S
C349 C346 1.409 . S
C349 C347 1.415 . S
C350 H340 0.930 . S
C350 C348 1.419 . S
C350 C351 1.362 . S
C351 H341 0.930 . S
C351 C344 1.409 . S
C351 C350 1.362 . S
H352 C358 0.930 . S
H353 C361 0.930 . S
H354 C362 0.930 . S
H355 C363 0.930 . S
H356 C366 0.930 . S
H357 C367 0.930 . S
C358 H352 0.930 . S
C358 C359 1.355 . S
C358 C360 1.415 . S
C359 C358 1.355 . S
C359 C361 1.419 . S
C360 C358 1.415 . S
C360 C365 1.425 . S
C360 C367 1.409 . S
C361 H353 0.930 . S
C361 C359 1.419 . S
C361 C362 1.362 . S
C362 H354 0.930 . S
C362 C361 1.362 . S
C362 C365 1.409 . S
C363 H355 0.930 . S
C363 C364 1.355 . S
C363 C365 1.415 . S
C364 C363 1.355 . S
C364 C366 1.419 . S
C365 C360 1.425 . S
C365 C362 1.409 . S
C365 C363 1.415 . S
C366 H356 0.930 . S
C366 C364 1.419 . S
C366 C367 1.362 . S
C367 H357 0.930 . S
C367 C360 1.409 . S
C367 C366 1.362 . S
H368 C374 0.930 . S
H369 C377 0.930 . S
H370 C378 0.930 . S
H371 C379 0.930 . S
H372 C382 0.930 . S
H373 C383 0.930 . S
C374 H368 0.930 . S
C374 C375 1.355 . S
C374 C376 1.415 . S
C375 C374 1.355 . S
C375 C377 1.419 . S
C376 C374 1.415 . S
C376 C381 1.425 . S
C376 C383 1.409 . S
C377 H369 0.930 . S
C377 C375 1.419 . S
C377 C378 1.362 . S
C378 H370 0.930 . S
C378 C377 1.362 . S
C378 C381 1.409 . S
C379 H371 0.930 . S
C379 C380 1.355 . S
C379 C381 1.415 . S
C380 C379 1.355 . S
C380 C382 1.419 . S
C381 C376 1.425 . S
C381 C378 1.409 . S
C381 C379 1.415 . S
C382 H372 0.930 . S
C382 C380 1.419 . S
C382 C383 1.362 . S
C383 H373 0.930 . S
C383 C376 1.409 . S
C383 C382 1.362 . S
H384 C390 0.930 . S
H385 C393 0.930 . S
H386 C394 0.930 . S
H387 C395 0.930 . S
H388 C398 0.930 . S
H389 C399 0.930 . S
C390 H384 0.930 . S
C390 C391 1.355 . S
C390 C392 1.415 . S
C391 C390 1.355 . S
C391 C393 1.419 . S
C392 C390 1.415 . S
C392 C397 1.425 . S
C392 C399 1.409 . S
C393 H385 0.930 . S
C393 C391 1.419 . S
C393 C394 1.362 . S
C394 H386 0.930 . S
C394 C393 1.362 . S
C394 C397 1.409 . S
C395 H387 0.930 . S
C395 C396 1.355 . S
C395 C397 1.415 . S
C396 C395 1.355 . S
C396 C398 1.419 . S
C397 C392 1.425 . S
C397 C394 1.409 . S
C397 C395 1.415 . S
C398 H388 0.930 . S
C398 C396 1.419 . S
C398 C399 1.362 . S
C399 H389 0.930 . S
C399 C392 1.409 . S
C399 C398 1.362 . S
H400 C406 0.930 . S
H401 C409 0.930 . S
H402 C410 0.930 . S
H403 C411 0.930 . S
H404 C414 0.930 . S
H405 C415 0.930 . S
C406 H400 0.930 . S
C406 C407 1.355 . S
C406 C408 1.415 . S
C407 C406 1.355 . S
C407 C409 1.419 . S
C408 C406 1.415 . S
C408 C413 1.425 . S
C408 C415 1.409 . S
C409 H401 0.930 . S
C409 C407 1.419 . S
C409 C410 1.362 . S
C410 H402 0.930 . S
C410 C409 1.362 . S
C410 C413 1.409 . S
C411 H403 0.930 . S
C411 C412 1.355 . S
C411 C413 1.415 . S
C412 C411 1.355 . S
C412 C414 1.419 . S
C413 C408 1.425 . S
C413 C410 1.409 . S
C413 C411 1.415 . S
C414 H404 0.930 . S
C414 C412 1.419 . S
C414 C415 1.362 . S
C415 H405 0.930 . S
C415 C408 1.409 . S
C415 C414 1.362 . S
H416 C422 0.930 . S
H417 C425 0.930 . S
H418 C426 0.930 . S
H419 C427 0.930 . S
H420 C430 0.930 . S
H421 C431 0.930 . S
C422 H416 0.930 . S
C422 C423 1.355 . S
C422 C424 1.415 . S
C423 C422 1.355 . S
C423 C425 1.419 . S
C424 C422 1.415 . S
C424 C429 1.425 . S
C424 C431 1.409 . S
C425 H417 0.930 . S
C425 C423 1.419 . S
C425 C426 1.362 . S
C426 H418 0.930 . S
C426 C425 1.362 . S
C426 C429 1.409 . S
C427 H419 0.930 . S
C427 C428 1.355 . S
C427 C429 1.415 . S
C428 C427 1.355 . S
C428 C430 1.419 . S
C429 C424 1.425 . S
C429 C426 1.409 . S
C429 C427 1.415 . S
C430 H420 0.930 . S
C430 C428 1.419 . S
C430 C431 1.362 . S
C431 H421 0.930 . S
C431 C424 1.409 . S
C431 C430 1.362 . S
H432 C438 0.930 . S
H433 C441 0.930 . S
H434 C442 0.930 . S
H435 C443 0.930 . S
H436 C446 0.930 . S
H437 C447 0.930 . S
C438 H432 0.930 . S
C438 C439 1.355 . S
C438 C440 1.415 . S
C439 C438 1.355 . S
C439 C441 1.419 . S
C440 C438 1.415 . S
C440 C445 1.425 . S
C440 C447 1.409 . S
C441 H433 0.930 . S
C441 C439 1.419 . S
C441 C442 1.362 . S
C442 H434 0.930 . S
C442 C441 1.362 . S
C442 C445 1.409 . S
C443 H435 0.930 . S
C443 C444 1.355 . S
C443 C445 1.415 . S
C444 C443 1.355 . S
C444 C446 1.419 1_556 S
C445 C440 1.425 . S
C445 C442 1.409 . S
C445 C443 1.415 . S
C446 H436 0.930 . S
C446 C444 1.419 1_554 S
C446 C447 1.362 1_554 S
C447 H437 0.930 . S
C447 C440 1.409 . S
C447 C446 1.362 1_556 S
H448 C454 0.930 . S
H449 C457 0.930 . S
H450 C458 0.930 . S
H451 C459 0.930 . S
H452 C462 0.930 . S
H453 C463 0.930 . S
C454 H448 0.930 . S
C454 C455 1.355 . S
C454 C456 1.415 . S
C455 C454 1.355 . S
C455 C457 1.419 . S
C456 C454 1.415 . S
C456 C461 1.425 . S
C456 C463 1.409 . S
C457 H449 0.930 . S
C457 C455 1.419 . S
C457 C458 1.362 . S
C458 H450 0.930 . S
C458 C457 1.362 . S
C458 C461 1.409 . S
C459 H451 0.930 . S
C459 C460 1.355 . S
C459 C461 1.415 . S
C460 C459 1.355 . S
C460 C462 1.419 . S
C461 C456 1.425 . S
C461 C458 1.409 . S
C461 C459 1.415 . S
C462 H452 0.930 . S
C462 C460 1.419 . S
C462 C463 1.362 . S
C463 H453 0.930 . S
C463 C456 1.409 . S
C463 C462 1.362 . S
H464 C470 0.930 . S
H465 C473 0.930 . S
H466 C474 0.930 . S
H467 C475 0.930 . S
H468 C478 0.930 . S
H469 C479 0.930 . S
C470 H464 0.930 . S
C470 C471 1.355 . S
C470 C472 1.415 . S
C471 C470 1.355 . S
C471 C473 1.419 . S
C472 C470 1.415 . S
C472 C477 1.425 . S
C472 C479 1.409 . S
C473 H465 0.930 . S
C473 C471 1.419 . S
C473 C474 1.362 . S
C474 H466 0.930 . S
C474 C473 1.362 . S
C474 C477 1.409 . S
C475 H467 0.930 . S
C475 C476 1.355 . S
C475 C477 1.415 . S
C476 C475 1.355 . S
C476 C478 1.419 . S
C477 C472 1.425 . S
C477 C474 1.409 . S
C477 C475 1.415 . S
C478 H468 0.930 . S
C478 C476 1.419 . S
C478 C479 1.362 . S
C479 H469 0.930 . S
C479 C472 1.409 . S
C479 C478 1.362 . S
H480 C486 0.930 . S
H481 C489 0.930 . S
H482 C490 0.930 . S
H483 C491 0.930 . S
H484 C494 0.930 . S
H485 C495 0.930 . S
C486 H480 0.930 . S
C486 C487 1.355 . S
C486 C488 1.415 . S
C487 C486 1.355 . S
C487 C489 1.419 . S
C488 C486 1.415 . S
C488 C493 1.425 . S
C488 C495 1.409 . S
C489 H481 0.930 . S
C489 C487 1.419 . S
C489 C490 1.362 . S
C490 H482 0.930 . S
C490 C489 1.362 . S
C490 C493 1.409 . S
C491 H483 0.930 . S
C491 C492 1.355 . S
C491 C493 1.415 . S
C492 C491 1.355 . S
C492 C494 1.419 . S
C493 C488 1.425 . S
C493 C490 1.409 . S
C493 C491 1.415 . S
C494 H484 0.930 . S
C494 C492 1.419 . S
C494 C495 1.362 . S
C495 H485 0.930 . S
C495 C488 1.409 . S
C495 C494 1.362 . S
H496 C502 0.930 . S
H497 C505 0.930 . S
H498 C506 0.930 . S
H499 C507 0.930 . S
H500 C510 0.930 . S
H501 C511 0.930 . S
C502 H496 0.930 . S
C502 C503 1.355 . S
C502 C504 1.415 . S
C503 C502 1.355 . S
C503 C505 1.419 . S
C504 C502 1.415 . S
C504 C509 1.425 . S
C504 C511 1.409 . S
C505 H497 0.930 . S
C505 C503 1.419 . S
C505 C506 1.362 . S
C506 H498 0.930 . S
C506 C505 1.362 . S
C506 C509 1.409 . S
C507 H499 0.930 . S
C507 C508 1.355 . S
C507 C509 1.415 . S
C508 C507 1.355 . S
C508 C510 1.419 . S
C509 C504 1.425 . S
C509 C506 1.409 . S
C509 C507 1.415 . S
C510 H500 0.930 . S
C510 C508 1.419 . S
C510 C511 1.362 . S
C511 H501 0.930 . S
C511 C504 1.409 . S
C511 C510 1.362 . S
H512 C518 0.930 . S
H513 C521 0.930 . S
H514 C522 0.930 . S
H515 C523 0.930 . S
H516 C526 0.930 . S
H517 C527 0.930 . S
C518 H512 0.930 . S
C518 C519 1.355 . S
C518 C520 1.415 . S
C519 C518 1.355 . S
C519 C521 1.419 . S
C520 C518 1.415 . S
C520 C525 1.425 . S
C520 C527 1.409 . S
C521 H513 0.930 . S
C521 C519 1.419 . S
C521 C522 1.362 . S
C522 H514 0.930 . S
C522 C521 1.362 . S
C522 C525 1.409 . S
C523 H515 0.930 . S
C523 C524 1.355 . S
C523 C525 1.415 . S
C524 C523 1.355 . S
C524 C526 1.419 . S
C525 C520 1.425 . S
C525 C522 1.409 . S
C525 C523 1.415 . S
C526 H516 0.930 . S
C526 C524 1.419 . S
C526 C527 1.362 . S
C527 H517 0.930 . S
C527 C520 1.409 . S
C527 C526 1.362 . S
H528 C534 0.930 . S
H529 C537 0.930 . S
H530 C538 0.930 . S
H531 C539 0.930 . S
H532 C542 0.930 . S
H533 C543 0.930 . S
C534 H528 0.930 . S
C534 C535 1.355 . S
C534 C536 1.415 . S
C535 C534 1.355 . S
C535 C537 1.419 . S
C536 C534 1.415 . S
C536 C541 1.425 . S
C536 C543 1.409 . S
C537 H529 0.930 . S
C537 C535 1.419 . S
C537 C538 1.362 . S
C538 H530 0.930 . S
C538 C537 1.362 . S
C538 C541 1.409 . S
C539 H531 0.930 . S
C539 C540 1.355 . S
C539 C541 1.415 . S
C540 C539 1.355 . S
C540 C542 1.419 . S
C541 C536 1.425 . S
C541 C538 1.409 . S
C541 C539 1.415 . S
C542 H532 0.930 . S
C542 C540 1.419 . S
C542 C543 1.362 . S
C543 H533 0.930 . S
C543 C536 1.409 . S
C543 C542 1.362 . S
H544 C550 0.930 . S
H545 C553 0.930 . S
H546 C554 0.930 . S
H547 C555 0.927 1_556 S
H548 C558 0.930 1_556 S
H549 C559 0.930 . S
C550 H544 0.930 . S
C550 C551 1.355 . S
C550 C552 1.415 . S
C551 C550 1.355 . S
C551 C553 1.419 . S
C552 C550 1.415 . S
C552 C557 1.425 . S
C552 C559 1.409 . S
C553 H545 0.930 . S
C553 C551 1.419 . S
C553 C554 1.362 . S
C554 H546 0.930 . S
C554 C553 1.362 . S
C554 C557 1.409 . S
C555 H547 0.927 1_554 S
C555 C556 1.352 1_554 S
C555 C557 1.420 . S
C556 C555 1.352 1_556 S
C556 C558 1.419 1_556 S
C557 C552 1.425 . S
C557 C554 1.409 . S
C557 C555 1.420 . S
C558 H548 0.930 1_554 S
C558 C556 1.419 1_554 S
C558 C559 1.362 . S
C559 H549 0.930 . S
C559 C552 1.409 . S
C559 C558 1.362 . S
H560 C566 0.930 . S
H561 C569 0.930 . S
H562 C570 0.930 . S
H563 C571 0.930 . S
H564 C574 0.930 . S
H565 C575 0.930 . S
C566 H560 0.930 . S
C566 C567 1.355 . S
C566 C568 1.415 . S
C567 C566 1.355 . S
C567 C569 1.419 . S
C568 C566 1.415 . S
C568 C573 1.425 . S
C568 C575 1.409 . S
C569 H561 0.930 . S
C569 C567 1.419 . S
C569 C570 1.362 . S
C570 H562 0.930 . S
C570 C569 1.362 . S
C570 C573 1.409 . S
C571 H563 0.930 . S
C571 C572 1.355 . S
C571 C573 1.415 . S
C572 C571 1.355 . S
C572 C574 1.419 . S
C573 C568 1.425 . S
C573 C570 1.409 . S
C573 C571 1.415 . S
C574 H564 0.930 . S
C574 C572 1.419 . S
C574 C575 1.362 . S
C575 H565 0.930 . S
C575 C568 1.409 . S
C575 C574 1.362 . S
C204 C181 1.569 . S
C199 C8 1.528 . S
C215 C26 1.562 . S
C220 C111 1.574 . S
C231 C50 1.540 . S
C236 C130 1.592 . S
C247 C68 1.532 . S
C252 C139 1.583 . S
C268 C153 1.577 . S
C263 C80 1.498 . S
C279 C104 1.503 . S
C284 C172 1.580 . S
C295 C32 1.500 . S
C300 C125 1.568 . S
C311 C44 1.542 . S
C316 C144 1.574 . S
C327 C62 1.494 . S
C332 C158 1.562 . S
C348 C167 1.566 . S
C343 C86 1.541 . S
C364 C186 1.572 . S
C359 C98 1.541 . S
C380 C116 1.577 . S
C375 C14 1.555 . S
C391 C7 1.445 . S
C396 C131 1.512 . S
C407 C25 1.493 . S
C412 C143 1.485 . S
C428 C157 1.481 . S
C423 C52 1.489 . S
C439 C70 1.429 . S
C444 C173 1.500 1_556 S
C460 C185 1.452 . S
C455 C79 1.445 . S
C476 C115 1.448 . S
C471 C106 1.444 . S
C492 C187 1.505 . S
C487 C34 1.433 . S
C503 C43 1.454 . S
C508 C117 1.525 . S
C524 C129 1.458 . S
C519 C61 1.444 . S
C535 C88 1.434 . S
C540 C145 1.508 . S
C551 C97 1.481 . S
C556 C159 1.528 . S
C567 C16 1.501 . S
C572 C171 1.497 . S
