# Generated by pormake.
# Topology anh, (6,3)-cn, num edge types: 1
# Building blocks:
#     Node 0, Type 0, BuildingBlock: BETGAK_clean_sbu_0, # of connection points: 6
#     Node 1, Type 0, BuildingBlock: BETGAK_clean_sbu_0, # of connection points: 6
#     Node 2, Type 0, BuildingBlock: BETGAK_clean_sbu_0, # of connection points: 6
#     Node 3, Type 1, BuildingBlock: VETTIZ_charged_linker_0, # of connection points: 3
#     Node 4, Type 1, BuildingBlock: VETTIZ_charged_linker_0, # of connection points: 3
#     Node 5, Type 1, BuildingBlock: VETTIZ_charged_linker_0, # of connection points: 3
#     Node 6, Type 1, BuildingBlock: VETTIZ_charged_linker_0, # of connection points: 3
#     Node 7, Type 1, BuildingBlock: VETTIZ_charged_linker_0, # of connection points: 3
#     Node 8, Type 1, BuildingBlock: VETTIZ_charged_linker_0, # of connection points: 3
#     Edge 9, Type (0, 1), BuildingBlock: KIFKEQ_clean_linker_1, # of connection points: 2
#     Edge 10, Type (0, 1), BuildingBlock: KIFKEQ_clean_linker_1, # of connection points: 2
#     Edge 11, Type (0, 1), BuildingBlock: KIFKEQ_clean_linker_1, # of connection points: 2
#     Edge 12, Type (0, 1), BuildingBlock: KIFKEQ_clean_linker_1, # of connection points: 2
#     Edge 13, Type (0, 1), BuildingBlock: KIFKEQ_clean_linker_1, # of connection points: 2
#     Edge 14, Type (0, 1), BuildingBlock: KIFKEQ_clean_linker_1, # of connection points: 2
#     Edge 15, Type (0, 1), BuildingBlock: KIFKEQ_clean_linker_1, # of connection points: 2
#     Edge 16, Type (0, 1), BuildingBlock: KIFKEQ_clean_linker_1, # of connection points: 2
#     Edge 17, Type (0, 1), BuildingBlock: KIFKEQ_clean_linker_1, # of connection points: 2
#     Edge 18, Type (0, 1), BuildingBlock: KIFKEQ_clean_linker_1, # of connection points: 2
#     Edge 19, Type (0, 1), BuildingBlock: KIFKEQ_clean_linker_1, # of connection points: 2
#     Edge 20, Type (0, 1), BuildingBlock: KIFKEQ_clean_linker_1, # of connection points: 2
#     Edge 21, Type (0, 1), BuildingBlock: KIFKEQ_clean_linker_1, # of connection points: 2
#     Edge 22, Type (0, 1), BuildingBlock: KIFKEQ_clean_linker_1, # of connection points: 2
#     Edge 23, Type (0, 1), BuildingBlock: KIFKEQ_clean_linker_1, # of connection points: 2
#     Edge 24, Type (0, 1), BuildingBlock: KIFKEQ_clean_linker_1, # of connection points: 2
#     Edge 25, Type (0, 1), BuildingBlock: KIFKEQ_clean_linker_1, # of connection points: 2
#     Edge 26, Type (0, 1), BuildingBlock: KIFKEQ_clean_linker_1, # of connection points: 2
# Relax obj value: 0.186
# Max RMSD: 0.208
# Mean RMSD: 0.158
data_MOF--net-anh--node1-BETGAK_clean_sbu_0--node2-VETTIZ_charged_linker_0--edge1-KIFKEQ_clean_linker_1
_symmetry_space_group_name_H-M    P1
_symmetry_Int_Tables_number       1
_symmetry_cell_setting            triclinic
loop_
_symmetry_equiv_pos_as_xyz
'x, y, z'
_cell_length_a     36.143479
_cell_length_b     43.47482
_cell_length_c     68.007838
_cell_angle_alpha  92.211624
_cell_angle_beta   89.492588
_cell_angle_gamma 128.56999
loop_
_atom_site_label
_atom_site_type_symbol
_atom_site_fract_x
_atom_site_fract_y
_atom_site_fract_z
_atom_type_partial_charge
La0 La 0.12732 0.51648 0.14297 0.0
La1 La 1.06888 0.53787 0.15892 0.0
C2 C 0.1885 0.51681 0.12498 0.0
C3 C 0.23958 0.54178 0.12889 0.0
C4 C 0.25922 0.56799 0.14542 0.0
C5 C 0.30679 0.5888 0.1506 0.0
C6 C 0.33545 0.58363 0.13936 0.0
C7 C 0.31601 0.55857 0.1223 0.0
C8 C 0.26835 0.53776 0.11713 0.0
C9 C 0.1186 0.51428 0.1815 0.0
C10 C 0.17439 0.60735 0.15412 0.0
C11 C 1.00725 0.53457 0.17827 0.0
C12 C 0.95609 0.50185 0.17804 0.0
C13 C 0.93404 0.47866 0.16067 0.0
C14 C 0.88673 0.4453 0.16055 0.0
C15 C 0.86031 0.43408 0.17782 0.0
C16 C 0.88234 0.45735 0.19525 0.0
C17 C 0.93006 0.49093 0.19537 0.0
C18 C 1.0797 0.54219 0.12061 0.0
C19 C 1.02157 0.44729 0.14735 0.0
O20 O 0.16264 0.49274 0.13892 0.0
O21 O 0.17272 0.53501 0.11894 0.0
O22 O 0.12169 0.49054 0.17107 0.0
O23 O 0.12397 0.53932 0.17065 0.0
O24 O 0.17593 0.58183 0.14355 0.0
O25 O 0.13665 0.59544 0.16442 0.0
O26 O 1.02429 0.55318 0.16185 0.0
O27 O 1.0333 0.52624 0.18558 0.0
O28 O 1.07689 0.56586 0.1314 0.0
O29 O 1.07301 0.5159 0.13099 0.0
O30 O 1.02066 0.47286 0.15812 0.0
O31 O 1.05899 0.45926 0.1368 0.0
H32 H 0.23734 0.57125 0.15475 0.0
H33 H 0.32079 0.60802 0.16372 0.0
H34 H 0.33697 0.55346 0.11351 0.0
H35 H 0.25361 0.51752 0.10439 0.0
H36 H 0.95358 0.486 0.14716 0.0
H37 H 0.87066 0.42861 0.14677 0.0
H38 H 0.86277 0.44947 0.20877 0.0
H39 H 0.94674 0.50806 0.209 0.0
La40 La 0.64062 0.03441 0.47994 0.0
La41 La 0.57504 0.05318 0.47397 0.0
C42 C 0.68141 1.00739 0.4909 0.0
C43 C 0.66943 0.96865 0.49384 0.0
C44 C 0.6977 0.96019 0.48518 0.0
C45 C 0.68892 0.92464 0.48846 0.0
C46 C 0.65187 0.89696 0.50062 0.0
C47 C 0.62277 0.90502 0.5089 0.0
C48 C 0.63131 0.94048 0.50547 0.0
C49 C 0.63206 0.04788 0.4436 0.0
C50 C 0.52913 0.96475 0.4742 0.0
C51 C 0.53564 0.08102 0.46234 0.0
C52 C 0.54366 0.11872 0.46511 0.0
C53 C 0.50967 0.11915 0.47491 0.0
C54 C 0.51679 0.15439 0.47834 0.0
C55 C 0.55793 0.19015 0.47186 0.0
C56 C 0.59173 0.1896 0.46177 0.0
C57 C 0.58471 0.15427 0.45844 0.0
C58 C 0.58454 0.04132 0.5106 0.0
C59 C 0.68731 0.12328 0.48022 0.0
O60 O 0.68032 0.01546 0.4727 0.0
O61 O 0.66344 0.01888 0.50305 0.0
O62 O 0.67131 0.05883 0.45144 0.0
O63 O 0.59904 0.02855 0.4556 0.0
O64 O 0.57005 0.9765 0.48169 0.0
O65 O 0.52487 0.99024 0.46696 0.0
O66 O 0.52311 0.06029 0.47801 0.0
O67 O 0.56636 0.08099 0.45197 0.0
O68 O 0.54582 0.03202 0.50311 0.0
O69 O 0.61681 0.05938 0.49822 0.0
O70 O 0.64548 0.11201 0.47419 0.0
O71 O 0.69267 0.09745 0.48581 0.0
H72 H 0.72725 0.98147 0.47614 0.0
H73 H 0.71226 0.91948 0.48206 0.0
H74 H 0.59368 0.88405 0.51819 0.0
H75 H 0.60858 0.94605 0.51216 0.0
H76 H 0.47772 0.09217 0.48019 0.0
H77 H 0.49035 0.15362 0.48648 0.0
H78 H 0.62355 0.21643 0.45634 0.0
H79 H 0.61152 0.15492 0.45074 0.0
La80 La 0.63336 0.56007 0.83391 0.0
La81 La 0.5672 0.47293 0.83769 0.0
C82 C 0.67516 0.62939 0.82329 0.0
C83 C 0.66635 0.65817 0.82186 0.0
C84 C 0.69833 0.69558 0.8311 0.0
C85 C 0.69318 0.72455 0.82891 0.0
C86 C 0.65609 0.71689 0.81724 0.0
C87 C 0.62312 0.6789 0.80849 0.0
C88 C 0.62814 0.64979 0.8108 0.0
C89 C 0.62309 0.53613 0.86977 0.0
C90 C 0.52073 0.51456 0.83808 0.0
C91 C 0.52771 0.40386 0.84807 0.0
C92 C 0.53831 0.3761 0.84611 0.0
C93 C 0.50537 0.33929 0.83646 0.0
C94 C 0.51547 0.31327 0.83336 0.0
C95 C 0.55871 0.32333 0.84 0.0
C96 C 0.59133 0.35999 0.85004 0.0
C97 C 0.58129 0.38613 0.85304 0.0
C98 C 0.57871 0.4967 0.80162 0.0
C99 C 0.68016 0.51865 0.83368 0.0
O100 O 0.6785 0.62077 0.84107 0.0
O101 O 0.65157 0.59834 0.81118 0.0
O102 O 0.66244 0.56692 0.86318 0.0
O103 O 0.59075 0.5216 0.85694 0.0
O104 O 0.56288 0.54662 0.83275 0.0
O105 O 0.5154 0.48288 0.84326 0.0
O106 O 0.51752 0.41201 0.83164 0.0
O107 O 0.55552 0.43526 0.85969 0.0
O108 O 0.53933 0.46572 0.80805 0.0
O109 O 0.61036 0.51125 0.81476 0.0
O110 O 0.63763 0.4862 0.83836 0.0
O111 O 0.68593 0.55077 0.82906 0.0
H112 H 0.72794 0.70267 0.83978 0.0
H113 H 0.71869 0.75317 0.83618 0.0
H114 H 0.59438 0.67201 0.79926 0.0
H115 H 0.60276 0.6211 0.80356 0.0
H116 H 0.47206 0.33093 0.83095 0.0
H117 H 0.4898 0.28569 0.82527 0.0
H118 H 0.6247 0.36857 0.85559 0.0
H119 H 0.60741 0.4143 0.86058 0.0
C120 C 0.71244 0.13414 0.16832 0.0
C121 C 0.75057 0.1712 0.17668 0.0
C122 C 0.75498 0.17709 0.19724 0.0
C123 C 0.6835 0.11045 0.20112 0.0
C124 C 0.67938 0.10394 0.1809 0.0
C125 C 0.63689 0.06203 0.17513 0.0
H126 H 0.44072 0.88496 0.20587 0.0
C127 C 0.64301 0.07443 0.21019 0.0
C128 C 0.61506 0.04563 0.19512 0.0
H129 H 0.49332 0.91121 0.14661 0.0
H130 H 0.55706 0.97904 0.15741 0.0
H131 H 0.53998 0.92592 0.22594 0.0
H132 H 0.45591 0.96279 0.2162 0.0
H133 H 0.48392 0.98407 0.23921 0.0
H134 H 0.44374 0.93109 0.23564 0.0
H135 H 0.48667 0.90694 0.23895 0.0
H136 H 0.54339 0.95044 0.24777 0.0
C137 C 0.65509 0.04109 0.16544 0.0
C138 C 0.60362 0.06307 0.16162 0.0
C139 C 0.62804 0.07337 0.2847 0.0
C140 C 0.59277 0.04538 0.29737 0.0
C141 C 0.55114 1.01027 0.28929 0.0
C142 C 0.54538 1.00249 0.26891 0.0
C143 C 0.58156 0.03015 0.25641 0.0
C144 C 0.62144 0.06531 0.26432 0.0
C145 C 0.65487 0.09204 0.24869 0.0
C146 C 0.62921 0.06648 0.23014 0.0
C147 C 0.58679 0.03018 0.23482 0.0
C148 C 0.70259 0.09999 0.25206 0.0
C149 C 0.65818 0.12945 0.24958 0.0
C150 C 0.46615 0.90489 0.19512 0.0
C151 C 0.46224 0.89216 0.17542 0.0
C152 C 0.49545 0.92 0.16193 0.0
C153 C 0.53271 0.95928 0.16827 0.0
C154 C 0.53697 0.97083 0.18831 0.0
C155 C 0.50357 0.94353 0.20122 0.0
C156 C 0.51344 0.9594 0.22206 0.0
C157 C 0.55877 1.00074 0.21981 0.0
C158 C 0.57268 1.00793 0.20002 0.0
C159 C 0.52102 0.93445 0.23449 0.0
C160 C 0.47215 0.95919 0.22881 0.0
H161 H 0.7272 0.15383 0.22499 0.0
H162 H 0.7086 0.12891 0.1525 0.0
H163 H 0.59796 0.08377 0.16799 0.0
H164 H 0.56825 0.03417 0.15982 0.0
H165 H 0.61901 0.0731 0.14682 0.0
H166 H 0.68715 0.04947 0.17341 0.0
H167 H 0.66472 0.04934 0.1499 0.0
H168 H 0.62923 1.00876 0.16593 0.0
H169 H 0.66008 0.10089 0.29053 0.0
H170 H 0.52362 0.98824 0.29881 0.0
H171 H 0.51327 0.97486 0.26374 0.0
H172 H 0.69654 0.073 0.25685 0.0
H173 H 0.72442 0.1235 0.26367 0.0
H174 H 0.72353 0.10805 0.23857 0.0
H175 H 0.62558 0.12325 0.25571 0.0
H176 H 0.66111 0.1407 0.23487 0.0
H177 H 0.6885 0.15331 0.25903 0.0
H178 H 0.78407 0.20539 0.20388 0.0
C179 C 0.72176 0.14711 0.20946 0.0
C180 C 0.6383 0.64478 0.53611 0.0
C181 C 0.64217 0.67501 0.54698 0.0
C182 C 0.64168 0.67458 0.5677 0.0
C183 C 0.63521 0.61576 0.56654 0.0
C184 C 0.63497 0.61552 0.54621 0.0
C185 C 0.63109 0.58122 0.53728 0.0
H186 H 0.60337 0.41385 0.55168 0.0
C187 C 0.63168 0.58188 0.57266 0.0
C188 C 0.62926 0.56132 0.55564 0.0
H189 H 0.61381 0.46338 0.49612 0.0
H190 H 0.62521 0.51883 0.51329 0.0
H191 H 0.68899 0.4936 0.57212 0.0
H192 H 0.53894 0.43214 0.57351 0.0
H193 H 0.56146 0.44798 0.59777 0.0
H194 H 0.56711 0.41447 0.58456 0.0
H195 H 0.65089 0.45216 0.58719 0.0
H196 H 0.67717 0.50174 0.596 0.0
C197 C 0.6761 0.59766 0.52529 0.0
C198 C 0.58447 0.55477 0.52501 0.0
C199 C 0.62744 0.55879 0.64553 0.0
C200 C 0.62441 0.53008 0.65599 0.0
C201 C 0.62314 0.50082 0.64549 0.0
C202 C 0.62387 0.49972 0.62487 0.0
C203 C 0.62604 0.52825 0.61459 0.0
C204 C 0.6284 0.5574 0.62496 0.0
C205 C 0.63158 0.58574 0.61168 0.0
C206 C 0.63033 0.56861 0.59159 0.0
C207 C 0.62671 0.53484 0.59337 0.0
C208 C 0.67961 0.62707 0.61602 0.0
C209 C 0.58729 0.58331 0.61498 0.0
C210 C 0.60776 0.43651 0.54321 0.0
C211 C 0.60701 0.43408 0.52257 0.0
C212 C 0.61413 0.46466 0.51206 0.0
C213 C 0.6205 0.49665 0.52205 0.0
C214 C 0.62017 0.49821 0.54277 0.0
C215 C 0.6146 0.46866 0.55294 0.0
C216 C 0.61681 0.47548 0.57484 0.0
C217 C 0.62346 0.51351 0.57625 0.0
C218 C 0.6251 0.52673 0.55745 0.0
C219 C 0.66042 0.48079 0.58313 0.0
C220 C 0.56882 0.44073 0.58329 0.0
H221 H 0.63835 0.64703 0.59323 0.0
H222 H 0.63858 0.64427 0.52018 0.0
H223 H 0.55521 0.55143 0.53299 0.0
H224 H 0.57231 0.52457 0.52224 0.0
H225 H 0.58825 0.5678 0.51067 0.0
H226 H 0.70786 0.62459 0.53281 0.0
H227 H 0.67309 0.60566 0.5104 0.0
H228 H 0.68404 0.57694 0.52379 0.0
H229 H 0.62912 0.58196 0.6532 0.0
H230 H 0.62045 0.4782 0.65323 0.0
H231 H 0.62218 0.47642 0.61773 0.0
H232 H 0.7074 0.62478 0.62037 0.0
H233 H 0.67664 0.6431 0.62823 0.0
H234 H 0.694 0.64547 0.60301 0.0
H235 H 0.55596 0.55296 0.61853 0.0
H236 H 0.57617 0.5898 0.60173 0.0
H237 H 0.59323 0.60342 0.62738 0.0
H238 H 0.6434 0.6968 0.57646 0.0
C239 C 0.6384 0.64536 0.57748 0.0
C240 C 0.20962 0.51939 0.84916 0.0
C241 C 0.24535 0.52168 0.85974 0.0
C242 C 0.24923 0.52926 0.88019 0.0
C243 C 0.18248 0.52976 0.87986 0.0
C244 C 0.17823 0.52348 0.85965 0.0
C245 C 0.13673 0.5212 0.85188 0.0
H246 H 0.95758 0.53212 0.87765 0.0
C247 C 0.14483 0.53132 0.88703 0.0
C248 C 0.11721 0.52663 0.87082 0.0
H249 H 0.98489 0.51344 0.81841 0.0
H250 H 1.05009 0.51488 0.83071 0.0
H251 H 0.96228 0.47071 0.89513 0.0
H252 H 1.06142 0.59609 0.89179 0.0
H253 H 1.06925 0.58633 0.9155 0.0
H254 H 1.01229 0.57159 0.90811 0.0
H255 H 0.9611 0.50297 0.91184 0.0
H256 H 0.995 0.48654 0.91721 0.0
C257 C 0.09991 0.4805 0.84171 0.0
C258 C 0.15584 0.55498 0.83792 0.0
C259 C 0.13374 0.5466 0.96114 0.0
C260 C 0.10197 0.54753 0.97279 0.0
C261 C 1.06531 0.54466 0.96332 0.0
C262 C 1.06055 0.54128 0.94281 0.0
C263 C 0.09236 0.54024 0.93137 0.0
C264 C 0.12807 0.54278 0.94057 0.0
C265 C 0.15787 0.54039 0.92603 0.0
C266 C 0.13387 0.53572 0.90656 0.0
C267 C 0.09587 0.53592 0.90986 0.0
C268 C 0.15303 0.50321 0.93037 0.0
C269 C 0.20906 0.57992 0.92779 0.0
C270 C 0.97757 0.52864 0.86713 0.0
C271 C 0.96624 0.52335 0.84706 0.0
C272 C 0.99283 0.51781 0.83405 0.0
C273 C 1.03072 0.5188 0.84117 0.0
C274 C 1.04176 0.52473 0.86155 0.0
C275 C 1.01429 0.52894 0.87392 0.0
C276 C 1.02742 0.53312 0.89508 0.0
C277 C 1.06843 0.5322 0.89383 0.0
C278 C 1.07801 0.52734 0.87422 0.0
C279 C 0.98438 0.49677 0.90551 0.0
C280 C 1.04315 0.57366 0.90323 0.0
H281 H 0.22413 0.53868 0.90572 0.0
H282 H 0.20563 0.51371 0.83338 0.0
H283 H 0.18457 0.58372 0.84533 0.0
H284 H 0.12798 0.55671 0.8333 0.0
H285 H 0.17045 0.55098 0.8245 0.0
H286 H 0.08967 0.45678 0.85171 0.0
H287 H 0.1145 0.47694 0.82814 0.0
H288 H 1.0673 0.47602 0.83763 0.0
H289 H 0.16256 0.54899 0.96783 0.0
H290 H 1.03955 0.54433 0.97177 0.0
H291 H 1.03198 0.53949 0.93676 0.0
H292 H 0.11729 0.47947 0.93598 0.0
H293 H 0.17942 0.50995 0.94167 0.0
H294 H 0.15628 0.4896 0.91711 0.0
H295 H 0.20922 0.60471 0.93273 0.0
H296 H 0.22727 0.589 0.91353 0.0
H297 H 0.23076 0.57849 0.9386 0.0
H298 H 0.27629 0.53173 0.88869 0.0
C299 C 0.21858 0.53333 0.89015 0.0
C300 C 1.00277 0.43261 0.45669 0.0
C301 C 0.96938 0.39472 0.44776 0.0
C302 C 0.96922 0.38963 0.42722 0.0
C303 C 1.03451 0.45892 0.42452 0.0
C304 C 1.03553 0.46434 0.44474 0.0
C305 C 1.07538 0.50665 0.45129 0.0
H306 H 0.26611 0.69037 0.42409 0.0
C307 C 1.0723 0.49701 0.4161 0.0
C308 C 0.09698 0.52547 0.43163 0.0
H309 H 0.21851 0.65477 0.48328 0.0
H310 H 0.15195 0.58902 0.47068 0.0
H311 H 0.24795 0.61164 0.40741 0.0
H312 H 0.16785 0.65396 0.40698 0.0
H313 H 0.15063 0.62475 0.38523 0.0
H314 H 0.21163 0.66813 0.38887 0.0
H315 H 0.26376 0.65288 0.3939 0.0
H316 H 0.22476 0.60348 0.38342 0.0
C317 C 0.11029 0.50696 0.4644 0.0
C318 C 1.05378 0.52415 0.46174 0.0
C319 C 0.08905 0.50426 0.34173 0.0
C320 C 0.11815 0.53585 0.32939 0.0
C321 C 0.15171 0.57404 0.33773 0.0
C322 C 0.15663 0.58072 0.35818 0.0
C323 C 0.12723 0.54891 0.37044 0.0
C324 C 0.09377 0.51158 0.36216 0.0
C325 C 1.06391 0.48186 0.37743 0.0
C326 C 1.08518 0.50751 0.39627 0.0
C327 C 0.1226 0.54649 0.39206 0.0
C328 C 1.07198 0.45072 0.37611 0.0
C329 C 1.01191 0.46515 0.37389 0.0
C330 C 0.24169 0.66829 0.43438 0.0
C331 C 0.24801 0.67736 0.45465 0.0
C332 C 0.21452 0.64823 0.46756 0.0
C333 C 0.17614 0.61013 0.46022 0.0
C334 C 0.171 0.60133 0.43978 0.0
C335 C 0.20328 0.6307 0.42733 0.0
C336 C 0.19191 0.61776 0.40605 0.0
C337 C 0.14864 0.57517 0.40758 0.0
C338 C 0.1361 0.56514 0.42733 0.0
C339 C 0.23422 0.62175 0.39705 0.0
C340 C 0.18016 0.64243 0.39613 0.0
H341 H 0.99888 0.41516 0.40007 0.0
H342 H 1.00383 0.43718 0.4725 0.0
H343 H 1.02235 0.51601 0.45332 0.0
H344 H 1.07855 0.55661 0.46286 0.0
H345 H 1.04219 0.51283 0.47675 0.0
H346 H 0.11746 0.48744 0.4577 0.0
H347 H 0.09546 0.49621 0.47921 0.0
H348 H 0.14503 0.53635 0.46618 0.0
H349 H 1.06254 0.4747 0.33559 0.0
H350 H 0.17447 0.59869 0.32837 0.0
H351 H 0.18324 0.6104 0.36361 0.0
H352 H 0.10863 0.4641 0.37147 0.0
H353 H 1.04724 0.42649 0.36524 0.0
H354 H 1.06865 0.43812 0.39045 0.0
H355 H 1.01033 0.48789 0.36806 0.0
H356 H 0.99129 0.45615 0.38752 0.0
H357 H 0.9934 0.4398 0.36304 0.0
H358 H 0.94376 0.36082 0.42007 0.0
C359 C 1.0013 0.42134 0.41561 0.0
C360 C 0.63106 0.9474 0.77829 0.0
C361 C 0.63439 0.92065 0.76778 0.0
C362 C 0.63271 0.9193 0.74705 0.0
C363 C 0.62666 0.97167 0.7475 0.0
C364 C 0.62746 0.97275 0.76784 0.0
C365 C 0.62509 1.00401 0.77644 0.0
H366 H 0.61238 0.15069 0.76062 0.0
C367 C 0.62415 1.00233 0.74103 0.0
C368 C 0.62329 0.02159 0.75788 0.0
H369 H 0.61711 0.1094 0.81667 0.0
H370 H 0.62076 0.06124 0.7999 0.0
H371 H 0.69267 0.15185 0.74113 0.0
H372 H 0.54088 0.0659 0.73894 0.0
H373 H 0.56097 0.06893 0.71493 0.0
H374 H 0.57266 0.1119 0.72701 0.0
H375 H 0.65666 0.1575 0.72627 0.0
H376 H 0.67736 0.13121 0.71705 0.0
C377 C 0.67084 0.03417 0.78879 0.0
C378 C 0.57899 0.98343 0.78824 0.0
C379 C 0.62109 0.02068 0.66787 0.0
C380 C 0.62029 0.04737 0.65725 0.0
C381 C 0.62039 0.07612 0.66763 0.0
C382 C 0.62076 0.078 0.68825 0.0
C383 C 0.62124 0.05095 0.69867 0.0
C384 C 0.62177 0.02313 0.68847 0.0
C385 C 0.62342 0.99743 0.70197 0.0
C386 C 0.62327 1.01413 0.72198 0.0
C387 C 0.62175 0.04528 0.71994 0.0
C388 C 0.67034 1.00402 0.69842 0.0
C389 C 0.57793 0.95439 0.69818 0.0
C390 C 0.61484 0.13172 0.76938 0.0
C391 C 0.61471 0.13416 0.79005 0.0
C392 C 0.61677 0.10803 0.80074 0.0
C393 C 0.61911 0.08018 0.79097 0.0
C394 C 0.61935 0.07833 0.77027 0.0
C395 C 0.6173 0.10396 0.75989 0.0
C396 C 0.61799 0.09818 0.73803 0.0
C397 C 0.62054 0.06468 0.7369 0.0
C398 C 0.62128 0.05299 0.75579 0.0
C399 C 0.66321 0.13661 0.73003 0.0
C400 C 0.57095 0.08582 0.72909 0.0
H401 H 0.62803 0.942 0.72114 0.0
H402 H 0.63239 0.94921 0.79423 0.0
H403 H 0.54936 0.95549 0.78049 0.0
H404 H 0.56678 1.00114 0.78991 0.0
H405 H 0.58343 0.97609 0.80306 0.0
H406 H 0.70202 0.03975 0.78143 0.0
H407 H 0.66843 0.02316 0.80359 0.0
H408 H 0.67929 0.06329 0.79053 0.0
H409 H 0.62163 0.99857 0.66031 0.0
H410 H 0.6193 0.09675 0.65977 0.0
H411 H 0.62041 0.10035 0.69525 0.0
H412 H 0.69891 0.03457 0.69395 0.0
H413 H 0.6659 0.98359 0.68657 0.0
H414 H 0.68463 1.0009 0.71183 0.0
H415 H 0.5471 0.95342 0.69489 0.0
H416 H 0.56734 0.93611 0.7111 0.0
H417 H 0.58209 0.94009 0.68543 0.0
H418 H 0.63429 0.8985 0.73861 0.0
C419 C 0.62887 0.94454 0.7369 0.0
C420 C 0.57604 0.36894 0.13239 0.0
C421 C 0.57905 0.34201 0.12196 0.0
C422 C 0.56994 0.33628 0.10145 0.0
C423 C 0.56373 0.38873 0.10187 0.0
C424 C 0.56867 0.39196 0.12213 0.0
C425 C 0.56977 0.42472 0.13099 0.0
H426 H 0.56944 0.57746 0.11785 0.0
C427 C 0.56336 0.42072 0.09559 0.0
C428 C 0.56665 0.4417 0.11265 0.0
H429 H 0.56598 0.52934 0.17292 0.0
H430 H 0.57054 0.48236 0.15532 0.0
H431 H 0.64846 0.57182 0.09647 0.0
H432 H 0.49708 0.50139 0.09695 0.0
H433 H 0.51057 0.49542 0.07299 0.0
H434 H 0.5328 0.54378 0.08223 0.0
H435 H 0.61656 0.58518 0.08449 0.0
H436 H 0.62836 0.55476 0.07211 0.0
C437 C 0.61766 0.45451 0.1422 0.0
C438 C 0.52556 0.40626 0.14392 0.0
C439 C 0.57058 0.44816 0.02282 0.0
C440 C 0.57465 0.47819 0.01315 0.0
C441 C 0.57242 0.50502 0.02424 0.0
C442 C 0.56839 0.50326 0.04466 0.0
C443 C 0.5666 0.47438 0.05425 0.0
C444 C 0.56667 0.44688 0.04339 0.0
C445 C 0.56437 0.41838 0.05635 0.0
C446 C 0.56373 0.43387 0.07671 0.0
C447 C 0.56554 0.46689 0.07526 0.0
C448 C 0.60975 0.42252 0.05318 0.0
C449 C 0.51776 0.37658 0.05146 0.0
C450 C 0.57147 0.55786 0.12625 0.0
C451 C 0.56794 0.55745 0.14684 0.0
C452 C 0.56883 0.5303 0.15705 0.0
C453 C 0.57096 0.50282 0.14678 0.0
C454 C 0.57182 0.50231 0.12607 0.0
C455 C 0.5728 0.52997 0.11623 0.0
C456 C 0.57128 0.52407 0.09428 0.0
C457 C 0.56836 0.48776 0.09248 0.0
C458 C 0.569 0.47529 0.11109 0.0
C459 C 0.6183 0.56081 0.08623 0.0
C460 C 0.5259 0.51601 0.08602 0.0
H461 H 0.5573 0.3548 0.07569 0.0
H462 H 0.58335 0.37467 0.14807 0.0
H463 H 0.49509 0.3767 0.13782 0.0
H464 H 0.51263 0.42356 0.14448 0.0
H465 H 0.53268 0.40254 0.15915 0.0
H466 H 0.64691 0.45807 0.13408 0.0
H467 H 0.61668 0.44439 0.15708 0.0
H468 H 0.6283 0.48443 0.14372 0.0
H469 H 0.57214 0.42711 0.01468 0.0
H470 H 0.57431 0.5278 0.01708 0.0
H471 H 0.56757 0.52494 0.05218 0.0
H472 H 0.64125 0.45406 0.05233 0.0
H473 H 0.60716 0.40705 0.03924 0.0
H474 H 0.61779 0.41137 0.06534 0.0
H475 H 0.48885 0.37775 0.04752 0.0
H476 H 0.50437 0.35732 0.06413 0.0
H477 H 0.52217 0.36226 0.0388 0.0
H478 H 0.5712 0.31528 0.09306 0.0
C479 C 0.5622 0.35945 0.09137 0.0
H480 H 0.36377 0.58658 0.17698 0.0
H481 H 0.4156 0.61792 0.11783 0.0
H482 H 0.43665 0.59903 0.18715 0.0
H483 H 0.48749 0.62891 0.12774 0.0
H484 H 0.60433 0.63391 0.14173 0.0
H485 H 0.56019 0.6589 0.14665 0.0
H486 H 0.45438 0.55515 0.17823 0.0
H487 H 0.49821 0.53056 0.17338 0.0
C488 C 0.39135 0.59738 0.16629 0.0
C489 C 0.38357 0.6004 0.14647 0.0
C490 C 0.43302 0.60433 0.17211 0.0
C491 C 0.46753 0.61426 0.15822 0.0
C492 C 0.46184 0.62146 0.13891 0.0
C493 C 0.42026 0.61457 0.1331 0.0
C494 C 0.57264 0.61734 0.15043 0.0
C495 C 0.55388 0.57972 0.15662 0.0
C496 C 0.54734 0.6316 0.15322 0.0
C497 C 0.50301 0.6084 0.16223 0.0
C498 C 0.4883 0.57381 0.17114 0.0
C499 C 0.51356 0.55958 0.16836 0.0
H500 H 0.7782 0.15742 0.49196 0.0
H501 H 0.69224 0.18552 0.46847 0.0
H502 H 0.84858 0.22559 0.48905 0.0
H503 H 0.76292 0.25364 0.46522 0.0
H504 H 0.8965 0.38041 0.46964 0.0
H505 H 0.82851 0.31641 0.48149 0.0
H506 H 0.89396 0.26518 0.46157 0.0
H507 H 0.96134 0.32881 0.45005 0.0
C508 C 0.77415 0.17815 0.48632 0.0
C509 C 0.72942 0.16572 0.48027 0.0
C510 C 0.81466 0.21731 0.48458 0.0
C511 C 0.81165 0.24518 0.47674 0.0
C512 C 0.76664 0.23316 0.4715 0.0
C513 C 0.72605 0.19393 0.47323 0.0
C514 C 0.89679 0.35564 0.46844 0.0
C515 C 0.93422 0.35951 0.4591 0.0
C516 C 0.85766 0.3189 0.47496 0.0
C517 C 0.85548 0.28546 0.47237 0.0
C518 C 0.89445 0.29019 0.46405 0.0
C519 C 0.93316 0.32668 0.45743 0.0
H520 H 0.57713 0.71275 0.81433 0.0
H521 H 0.72963 0.79404 0.81084 0.0
H522 H 0.57359 0.76445 0.80472 0.0
H523 H 0.72615 0.84588 0.80222 0.0
H524 H 0.69613 0.90647 0.75893 0.0
H525 H 0.70154 0.85894 0.77309 0.0
H526 H 0.59262 0.82827 0.81428 0.0
H527 H 0.58628 0.87549 0.79956 0.0
C528 C 0.6099 0.74168 0.8117 0.0
C529 C 0.65363 0.74905 0.81323 0.0
C530 C 0.60789 0.77146 0.80644 0.0
C531 C 0.64958 0.80926 0.80257 0.0
C532 C 0.69332 0.81696 0.80482 0.0
C533 C 0.69532 0.78726 0.81001 0.0
C534 C 0.67335 0.88964 0.77103 0.0
C535 C 0.64045 0.89443 0.778 0.0
C536 C 0.6768 0.86266 0.77931 0.0
C537 C 0.6475 0.83973 0.79484 0.0
C538 C 0.61538 0.84522 0.80221 0.0
C539 C 0.61205 0.87249 0.79393 0.0
H540 H 0.81635 0.36198 0.15896 0.0
H541 H 0.78822 0.43011 0.194 0.0
H542 H 0.73306 0.31598 0.14887 0.0
H543 H 0.70543 0.38435 0.18405 0.0
H544 H 0.6434 0.33459 0.10677 0.0
H545 H 0.70095 0.33641 0.12559 0.0
H546 H 0.62561 0.31973 0.1789 0.0
H547 H 0.56646 0.31672 0.1598 0.0
C548 C 0.7921 0.36643 0.165 0.0
C549 C 0.809 0.40029 0.1768 0.0
C550 C 0.7444 0.33997 0.15929 0.0
C551 C 0.71286 0.34696 0.16531 0.0
C552 C 0.72867 0.37793 0.17918 0.0
C553 C 0.77635 0.4044 0.18486 0.0
C554 C 0.63729 0.32908 0.12231 0.0
C555 C 0.60118 0.327 0.13186 0.0
C556 C 0.67061 0.33016 0.1332 0.0
C557 C 0.66863 0.32945 0.15385 0.0
C558 C 0.62859 0.32129 0.16304 0.0
C559 C 0.59487 0.31975 0.1521 0.0
H560 H 0.52764 0.9026 0.4821 0.0
H561 H 0.4366 0.93002 0.465 0.0
H562 H 0.45998 0.83252 0.48045 0.0
H563 H 0.36899 0.85989 0.46338 0.0
H564 H 0.24951 0.73145 0.4776 0.0
H565 H 0.3176 0.80096 0.48444 0.0
H566 H 0.40814 0.78302 0.45362 0.0
H567 H 0.34037 0.71406 0.44682 0.0
C568 C 0.49322 0.89377 0.47805 0.0
C569 C 0.48773 0.92206 0.47354 0.0
C570 C 0.45442 0.85353 0.47708 0.0
C571 C 0.40902 0.84055 0.47181 0.0
C572 C 0.40334 0.86888 0.46771 0.0
C573 C 0.44223 0.9091 0.46846 0.0
C574 C 0.28421 0.74231 0.4727 0.0
C575 C 0.28974 0.71742 0.46172 0.0
C576 C 0.32307 0.78213 0.47641 0.0
C577 C 0.3683 0.79762 0.46948 0.0
C578 C 0.37399 0.77209 0.45931 0.0
C579 C 0.33516 0.73259 0.45537 0.0
H580 H 0.49899 0.24256 0.84023 0.0
H581 H 0.64445 0.3425 0.83007 0.0
H582 H 0.5158 0.19825 0.83007 0.0
H583 H 0.66198 0.29815 0.82115 0.0
H584 H 0.65861 0.21012 0.78021 0.0
H585 H 0.64704 0.25569 0.7942 0.0
H586 H 0.55444 0.17151 0.83759 0.0
H587 H 0.56387 0.12482 0.82275 0.0
C588 C 0.53469 0.25514 0.83599 0.0
C589 C 0.57017 0.29622 0.83576 0.0
C590 C 0.54453 0.22964 0.83044 0.0
C591 C 0.59025 0.2445 0.82466 0.0
C592 C 0.62617 0.28558 0.82518 0.0
C593 C 0.61624 0.31109 0.83058 0.0
C594 C 0.63557 0.20118 0.79268 0.0
C595 C 0.61165 0.16351 0.80016 0.0
C596 C 0.62947 0.22763 0.80092 0.0
C597 C 0.59962 0.21735 0.81702 0.0
C598 C 0.57711 0.18024 0.82501 0.0
C599 C 0.58301 0.15362 0.81666 0.0
H600 H 0.63868 0.86799 0.53699 0.0
H601 H 0.65282 0.84588 0.47601 0.0
H602 H 0.63639 0.8132 0.54624 0.0
H603 H 0.65073 0.79085 0.48536 0.0
H604 H 0.59346 0.66974 0.51441 0.0
H605 H 0.59401 0.72206 0.50156 0.0
H606 H 0.70031 0.80461 0.54517 0.0
H607 H 0.70071 0.75313 0.55764 0.0
C608 C 0.64056 0.85103 0.52553 0.0
C609 C 0.64602 0.86128 0.50578 0.0
C610 C 0.63971 0.81992 0.53084 0.0
C611 C 0.64387 0.79808 0.51653 0.0
C612 C 0.64745 0.80722 0.49667 0.0
C613 C 0.6489 0.83878 0.49136 0.0
C614 C 0.61759 0.69926 0.52096 0.0
C615 C 0.64642 0.70713 0.53727 0.0
C616 C 0.61775 0.72909 0.51366 0.0
C617 C 0.64649 0.76711 0.52266 0.0
C618 C 0.67697 0.77533 0.53827 0.0
C619 C 0.67714 0.74581 0.5454 0.0
H620 H 0.68253 0.45688 0.83873 0.0
H621 H 0.77403 0.58095 0.82783 0.0
H622 H 0.75125 0.45823 0.83937 0.0
H623 H 0.84246 0.58225 0.82825 0.0
H624 H 0.95869 0.58116 0.85517 0.0
H625 H 0.89066 0.57945 0.85062 0.0
H626 H 0.81447 0.46503 0.82101 0.0
H627 H 0.8833 0.46689 0.82581 0.0
C628 C 0.71719 0.48448 0.83637 0.0
C629 C 0.72219 0.51885 0.83333 0.0
C630 C 0.75685 0.4852 0.83659 0.0
C631 C 0.80312 0.5204 0.83394 0.0
C632 C 0.80788 0.55459 0.83064 0.0
C633 C 0.76828 0.5538 0.83029 0.0
C634 C 0.9278 0.5559 0.84732 0.0
C635 C 0.927 0.52435 0.84071 0.0
C636 C 0.88847 0.55489 0.84468 0.0
C637 C 0.8463 0.52204 0.83547 0.0
C638 C 0.84584 0.49076 0.82836 0.0
C639 C 0.88565 0.492 0.83084 0.0
H640 H 0.24839 0.64724 0.12865 0.0
H641 H 0.19687 0.66269 0.18268 0.0
H642 H 0.31977 0.7165 0.13162 0.0
H643 H 0.2685 0.73126 0.18578 0.0
H644 H 0.43041 0.82775 0.19645 0.0
H645 H 0.36092 0.75972 0.18985 0.0
H646 H 0.33825 0.7907 0.1343 0.0
H647 H 0.4071 0.85999 0.14127 0.0
C648 C 0.25222 0.66539 0.14111 0.0
C649 C 0.21695 0.64946 0.15544 0.0
C650 C 0.29291 0.70499 0.14272 0.0
C651 C 0.29953 0.72909 0.15892 0.0
C652 C 0.26422 0.71324 0.17316 0.0
C653 C 0.22319 0.67401 0.17135 0.0
C654 C 0.4106 0.82042 0.18285 0.0
C655 C 0.42384 0.84979 0.16963 0.0
C656 C 0.37092 0.7813 0.17907 0.0
C657 C 0.34394 0.77014 0.16173 0.0
C658 C 0.35853 0.79869 0.14783 0.0
C659 C 0.39803 0.83827 0.15179 0.0
H660 H 0.64131 0.26311 0.48196 0.0
H661 H 0.49231 0.20266 0.47148 0.0
H662 H 0.65259 0.32322 0.49145 0.0
H663 H 0.50359 0.26246 0.48154 0.0
H664 H 0.53608 0.35705 0.52909 0.0
H665 H 0.52445 0.29942 0.51439 0.0
H666 H 0.64683 0.37475 0.47839 0.0
H667 H 0.65842 0.43272 0.49319 0.0
C668 C 0.61108 0.2627 0.48136 0.0
C669 C 0.56577 0.22777 0.47613 0.0
C670 C 0.6176 0.29719 0.48684 0.0
C671 C 0.57891 0.29743 0.48737 0.0
C672 C 0.53394 0.26297 0.48154 0.0
C673 C 0.5275 0.22865 0.47588 0.0
C674 C 0.56028 0.36126 0.51793 0.0
C675 C 0.59822 0.39929 0.5123 0.0
C676 C 0.55346 0.32829 0.50942 0.0
C677 C 0.58475 0.3326 0.49525 0.0
C678 C 0.62233 0.37062 0.48936 0.0
C679 C 0.62876 0.40368 0.4977 0.0
H680 H 0.51881 0.57709 0.83535 0.0
H681 H 0.42653 0.4516 0.84216 0.0
H682 H 0.45093 0.57664 0.83762 0.0
H683 H 0.35858 0.4506 0.84348 0.0
H684 H 0.25253 0.46528 0.86873 0.0
H685 H 0.31727 0.46349 0.86244 0.0
H686 H 0.38161 0.56302 0.82538 0.0
H687 H 0.31671 0.56548 0.83262 0.0
C688 C 0.484 0.54925 0.83717 0.0
C689 C 0.47875 0.51444 0.83879 0.0
C690 C 0.44461 0.54888 0.83831 0.0
C691 C 0.39824 0.51361 0.84091 0.0
C692 C 0.39319 0.47873 0.842 0.0
C693 C 0.43254 0.47919 0.84111 0.0
C694 C 0.2798 0.48617 0.85878 0.0
C695 C 0.27861 0.51511 0.85097 0.0
C696 C 0.31746 0.48523 0.85511 0.0
C697 C 0.35585 0.51318 0.84336 0.0
C698 C 0.3536 0.54121 0.83477 0.0
C699 C 0.31569 0.54221 0.83856 0.0
H700 H 0.93802 0.41428 0.16592 0.0
H701 H 1.00986 0.38379 0.1292 0.0
H702 H 0.87048 0.34515 0.16772 0.0
H703 H 0.94168 0.31386 0.13121 0.0
H704 H 0.84065 0.19973 0.16938 0.0
H705 H 0.90504 0.26544 0.15825 0.0
H706 H 0.80506 0.28664 0.14786 0.0
H707 H 0.74085 0.22075 0.15898 0.0
C708 C 0.93918 0.39292 0.15792 0.0
C709 C 0.97947 0.40485 0.1473 0.0
C710 C 0.90017 0.35311 0.15889 0.0
C711 C 0.90037 0.32388 0.14946 0.0
C712 C 0.94041 0.33566 0.13864 0.0
C713 C 0.97942 0.37573 0.13747 0.0
C714 C 0.83235 0.21793 0.16393 0.0
C715 C 0.78584 0.20509 0.16471 0.0
C716 C 0.86918 0.25561 0.15763 0.0
C717 C 0.8603 0.28146 0.15232 0.0
C718 C 0.81316 0.26757 0.152 0.0
C719 C 0.77629 0.22973 0.15811 0.0
H720 H 0.11331 0.60503 0.09842 0.0
H721 H 1.06605 0.48609 0.09498 0.0
H722 H 0.12621 0.60983 0.06308 0.0
H723 H 1.07625 0.48976 0.05943 0.0
H724 H 0.12718 0.51404 -0.00282 0.0
H725 H 0.12847 0.51603 0.03302 0.0
H726 H 1.08318 0.5876 0.03368 0.0
H727 H 1.08565 0.58823 -0.00188 0.0
C728 C 0.10537 0.57981 0.09001 0.0
C729 C 0.0883 0.5451 0.09932 0.0
C730 C 0.11249 0.58241 0.06973 0.0
C731 C 0.10183 0.55005 0.05823 0.0
C732 C 1.08552 0.51551 0.06774 0.0
C733 C 1.0792 0.5132 0.0881 0.0
C734 C 0.11857 0.53095 0.00499 0.0
C735 C 0.10588 0.55066 0.99468 0.0
C736 C 0.11858 0.5316 0.02558 0.0
C737 C 0.10548 0.55166 0.03637 0.0
C738 C 0.09402 0.57218 0.02602 0.0
C739 C 0.09464 0.57198 0.0055 0.0
H740 H 0.54998 1.00672 0.42198 0.0
H741 H 0.70063 0.09899 0.41849 0.0
H742 H 0.54126 1.00972 0.38676 0.0
H743 H 0.69201 0.1039 0.38351 0.0
H744 H 0.66914 0.06571 0.31838 0.0
H745 H 0.67855 0.06947 0.35397 0.0
H746 H 0.54268 0.04375 0.36068 0.0
H747 H 0.53262 0.03811 0.32493 0.0
C748 C 0.58109 0.02814 0.41368 0.0
C749 C 0.62602 0.05229 0.4228 0.0
C750 C 0.57615 0.03014 0.3935 0.0
C751 C 0.616 0.05687 0.38212 0.0
C752 C 0.66067 0.08224 0.39161 0.0
C753 C 0.66565 0.07968 0.41169 0.0
C754 C 0.64162 0.06135 0.32752 0.0
C755 C 0.60014 0.05155 0.31897 0.0
C756 C 0.64702 0.06367 0.34796 0.0
C757 C 0.61135 0.05686 0.36035 0.0
C758 C 0.57049 0.04837 0.35168 0.0
C759 C 0.56478 0.0454 0.33121 0.0
H760 H 0.66388 0.54659 0.78385 0.0
H761 H 0.513 0.4692 0.77254 0.0
H762 H 0.67764 0.55883 0.74866 0.0
H763 H 0.52666 0.48143 0.73748 0.0
H764 H 0.56882 0.53936 0.67838 0.0
H765 H 0.56037 0.53616 0.71408 0.0
H766 H 0.66327 0.51649 0.7183 0.0
H767 H 0.67216 0.52016 0.68257 0.0
C768 C 0.63374 0.53254 0.77385 0.0
C769 C 0.58739 0.5068 0.7808 0.0
C770 C 0.6416 0.53937 0.75376 0.0
C771 C 0.60321 0.52097 0.74037 0.0
C772 C 0.5569 0.49625 0.74748 0.0
C773 C 0.54908 0.4891 0.76751 0.0
C774 C 0.59007 0.53486 0.68697 0.0
C775 C 0.62104 0.52988 0.67772 0.0
C776 C 0.58499 0.53277 0.70736 0.0
C777 C 0.6111 0.52601 0.71893 0.0
C778 C 0.64299 0.52205 0.70975 0.0
C779 C 0.64773 0.52375 0.68931 0.0
H780 H 0.51683 1.00018 0.53785 0.0
H781 H 0.66827 0.07735 0.53059 0.0
H782 H 0.52798 0.99977 0.57316 0.0
H783 H 0.67954 0.07695 0.56603 0.0
H784 H 0.6719 0.10759 0.63207 0.0
H785 H 0.66528 0.10374 0.59618 0.0
H786 H 0.55805 0.9775 0.59731 0.0
H787 H 0.5642 0.9814 0.63322 0.0
C788 C 0.55249 0.01677 0.54383 0.0
C789 C 0.5917 0.03897 0.53159 0.0
C790 C 0.55887 0.01635 0.564 0.0
C791 C 0.60464 0.03842 0.57234 0.0
C792 C 0.64389 0.05996 0.56 0.0
C793 C 0.63746 0.06004 0.53975 0.0
C794 C 0.647 0.07904 0.62463 0.0
C795 C 0.61838 0.04483 0.63543 0.0
C796 C 0.64356 0.07679 0.6041 0.0
C797 C 0.61111 0.04032 0.59397 0.0
C798 C 0.58313 1.00603 0.60475 0.0
C799 C 0.58689 1.00823 0.62527 0.0
H800 H 0.54001 0.48022 0.88762 0.0
H801 H 0.69135 0.56226 0.89741 0.0
H802 H 0.52936 0.46257 0.9221 0.0
H803 H 0.68098 0.54411 0.93164 0.0
H804 H 0.53057 0.42156 0.98311 0.0
H805 H 0.54334 0.43172 0.94769 0.0
H806 H 0.65056 0.55667 0.95992 0.0
H807 H 0.63889 0.54639 0.99497 0.0
C808 C 0.57097 0.49404 0.8971 0.0
C809 C 0.61645 0.52293 0.89 0.0
C810 C 0.56493 0.48377 0.91678 0.0
C811 C 0.60432 0.50221 0.92964 0.0
C812 C 0.64988 0.52991 0.92221 0.0
C813 C 0.65586 0.54024 0.90261 0.0
C814 C 0.55725 0.45105 0.97815 0.0
C815 C 0.58343 0.48323 0.99176 0.0
C816 C 0.56428 0.45691 0.95791 0.0
C817 C 0.59795 0.495 0.95101 0.0
C818 C 0.62478 0.5269 0.96472 0.0
C819 C 0.61767 0.52108 0.98482 0.0
H820 H 0.08924 0.45552 0.20632 0.0
H821 H 0.14165 0.57578 0.20509 0.0
H822 H 1.08406 0.45773 0.24213 0.0
H823 H 0.13954 0.57918 0.24075 0.0
H824 H 0.096 0.56798 0.30335 0.0
H825 H 0.09129 0.55972 0.26758 0.0
H826 H 0.12856 0.48281 0.2713 0.0
H827 H 0.13004 0.48937 0.30717 0.0
C828 C 0.10003 0.48251 0.2138 0.0
C829 C 0.11578 0.51544 0.20306 0.0
C830 C 0.09739 0.48394 0.23431 0.0
C831 C 0.11133 0.51864 0.24448 0.0
C832 C 0.12738 0.55161 0.23354 0.0
C833 C 0.12906 0.54986 0.21306 0.0
C834 C 0.10273 0.54908 0.2964 0.0
C835 C 0.1135 0.52938 0.30783 0.0
C836 C 0.10047 0.54454 0.27591 0.0
C837 C 0.11014 0.52096 0.26639 0.0
C838 C 0.12022 0.50076 0.27801 0.0
C839 C 0.12141 0.50465 0.29854 0.0
loop_
_geom_bond_atom_site_label_1
_geom_bond_atom_site_label_2
_geom_bond_distance
_geom_bond_site_symmetry_2
_ccdc_geom_bond_type
La0 C2 2.928 . S
La0 O20 2.521 . S
La0 O21 2.628 . S
La0 O22 2.554 . S
La0 O23 2.757 . S
La0 O24 2.470 . S
La0 O29 2.482 . S
La0 O31 2.503 1_455 S
La1 C11 2.928 . S
La1 O23 2.482 1_655 S
La1 O25 2.503 1_655 S
La1 O26 2.521 . S
La1 O27 2.628 . S
La1 O28 2.554 . S
La1 O29 2.757 1_655 S
La1 O30 2.470 . S
C2 La0 2.928 . S
C2 C3 1.503 . S
C2 O20 1.261 . S
C2 O21 1.243 . S
C3 C2 1.503 . S
C3 C4 1.394 . S
C3 C8 1.373 . S
C4 C3 1.394 . S
C4 C5 1.380 . S
C4 H32 0.930 . S
C5 C4 1.380 . S
C5 C6 1.376 . S
C5 H33 0.930 . S
C6 C5 1.376 . S
C6 C7 1.370 . S
C7 C6 1.370 . S
C7 C8 1.396 . S
C7 H34 0.929 . S
C8 C3 1.373 . S
C8 C7 1.396 . S
C8 H35 0.929 . S
C9 O22 1.240 . S
C9 O23 1.289 . S
C10 O24 1.258 . S
C10 O25 1.256 . S
C11 La1 2.928 . S
C11 C12 1.503 . S
C11 O26 1.261 . S
C11 O27 1.243 . S
C12 C11 1.503 . S
C12 C13 1.394 . S
C12 C17 1.373 . S
C13 C12 1.394 . S
C13 C14 1.380 . S
C13 H36 0.930 . S
C14 C13 1.380 . S
C14 C15 1.376 . S
C14 H37 0.930 . S
C15 C14 1.376 . S
C15 C16 1.370 . S
C16 C15 1.370 . S
C16 C17 1.396 . S
C16 H38 0.929 . S
C17 C12 1.373 . S
C17 C16 1.396 . S
C17 H39 0.929 . S
C18 O28 1.240 1_455 S
C18 O29 1.289 . S
C19 O30 1.258 . S
C19 O31 1.256 . S
O20 La0 2.521 . S
O20 C2 1.261 . S
O21 La0 2.628 . S
O21 C2 1.243 . S
O22 La0 2.554 . S
O22 C9 1.240 . S
O23 La0 2.757 . S
O23 La1 2.482 1_455 S
O23 C9 1.289 . S
O24 La0 2.470 . S
O24 C10 1.258 . S
O25 La1 2.503 1_455 S
O25 C10 1.256 . S
O26 La1 2.521 . S
O26 C11 1.261 . S
O27 La1 2.628 . S
O27 C11 1.243 . S
O28 La1 2.554 . S
O28 C18 1.240 1_655 S
O29 La0 2.482 . S
O29 La1 2.757 1_455 S
O29 C18 1.289 . S
O30 La1 2.470 . S
O30 C19 1.258 . S
O31 La0 2.503 1_655 S
O31 C19 1.256 . S
H32 C4 0.930 . S
H33 C5 0.930 . S
H34 C7 0.929 . S
H35 C8 0.929 . S
H36 C13 0.930 . S
H37 C14 0.930 . S
H38 C16 0.929 . S
H39 C17 0.929 . S
La40 C42 2.928 . S
La40 O60 2.521 . S
La40 O61 2.628 . S
La40 O62 2.554 . S
La40 O63 2.757 1_565 S
La40 O64 2.470 . S
La40 O69 2.482 . S
La40 O71 2.503 1_565 S
La41 C51 2.928 . S
La41 O63 2.482 . S
La41 O65 2.503 1_545 S
La41 O66 2.521 . S
La41 O67 2.628 . S
La41 O68 2.554 . S
La41 O69 2.757 1_545 S
La41 O70 2.470 . S
C42 La40 2.928 . S
C42 C43 1.503 . S
C42 O60 1.261 . S
C42 O61 1.243 . S
C43 C42 1.503 . S
C43 C44 1.394 . S
C43 C48 1.373 . S
C44 C43 1.394 . S
C44 C45 1.380 . S
C44 H72 0.930 . S
C45 C44 1.380 . S
C45 C46 1.376 . S
C45 H73 0.930 . S
C46 C45 1.376 . S
C46 C47 1.370 . S
C47 C46 1.370 . S
C47 C48 1.396 . S
C47 H74 0.929 . S
C48 C43 1.373 . S
C48 C47 1.396 . S
C48 H75 0.929 . S
C49 O62 1.240 1_545 S
C49 O63 1.289 . S
C50 O64 1.258 . S
C50 O65 1.256 . S
C51 La41 2.928 . S
C51 C52 1.503 . S
C51 O66 1.261 . S
C51 O67 1.243 . S
C52 C51 1.503 . S
C52 C53 1.394 . S
C52 C57 1.373 . S
C53 C52 1.394 . S
C53 C54 1.380 . S
C53 H76 0.930 . S
C54 C53 1.380 . S
C54 C55 1.376 . S
C54 H77 0.930 . S
C55 C54 1.376 . S
C55 C56 1.370 . S
C56 C55 1.370 . S
C56 C57 1.396 . S
C56 H78 0.929 . S
C57 C52 1.373 . S
C57 C56 1.396 . S
C57 H79 0.929 . S
C58 O68 1.240 . S
C58 O69 1.289 1_545 S
C59 O70 1.258 . S
C59 O71 1.256 . S
O60 La40 2.521 . S
O60 C42 1.261 . S
O61 La40 2.628 . S
O61 C42 1.243 . S
O62 La40 2.554 . S
O62 C49 1.240 1_565 S
O63 La40 2.757 1_545 S
O63 La41 2.482 . S
O63 C49 1.289 . S
O64 La40 2.470 . S
O64 C50 1.258 . S
O65 La41 2.503 1_565 S
O65 C50 1.256 . S
O66 La41 2.521 . S
O66 C51 1.261 . S
O67 La41 2.628 . S
O67 C51 1.243 . S
O68 La41 2.554 . S
O68 C58 1.240 . S
O69 La40 2.482 . S
O69 La41 2.757 1_565 S
O69 C58 1.289 1_565 S
O70 La41 2.470 . S
O70 C59 1.258 . S
O71 La40 2.503 1_545 S
O71 C59 1.256 . S
H72 C44 0.930 . S
H73 C45 0.930 . S
H74 C47 0.929 . S
H75 C48 0.929 . S
H76 C53 0.930 . S
H77 C54 0.930 . S
H78 C56 0.929 . S
H79 C57 0.929 . S
La80 C82 2.928 . S
La80 O100 2.521 . S
La80 O101 2.628 . S
La80 O102 2.554 . S
La80 O103 2.757 . S
La80 O104 2.470 . S
La80 O109 2.482 . S
La80 O111 2.503 . S
La81 C91 2.928 . S
La81 O103 2.482 . S
La81 O105 2.503 . S
La81 O106 2.521 . S
La81 O107 2.628 . S
La81 O108 2.554 . S
La81 O109 2.757 . S
La81 O110 2.470 . S
C82 La80 2.928 . S
C82 C83 1.503 . S
C82 O100 1.261 . S
C82 O101 1.243 . S
C83 C82 1.503 . S
C83 C84 1.394 . S
C83 C88 1.373 . S
C84 C83 1.394 . S
C84 C85 1.380 . S
C84 H112 0.930 . S
C85 C84 1.380 . S
C85 C86 1.376 . S
C85 H113 0.930 . S
C86 C85 1.376 . S
C86 C87 1.370 . S
C87 C86 1.370 . S
C87 C88 1.396 . S
C87 H114 0.929 . S
C88 C83 1.373 . S
C88 C87 1.396 . S
C88 H115 0.929 . S
C89 O102 1.240 . S
C89 O103 1.289 . S
C90 O104 1.258 . S
C90 O105 1.256 . S
C91 La81 2.928 . S
C91 C92 1.503 . S
C91 O106 1.261 . S
C91 O107 1.243 . S
C92 C91 1.503 . S
C92 C93 1.394 . S
C92 C97 1.373 . S
C93 C92 1.394 . S
C93 C94 1.380 . S
C93 H116 0.930 . S
C94 C93 1.380 . S
C94 C95 1.376 . S
C94 H117 0.930 . S
C95 C94 1.376 . S
C95 C96 1.370 . S
C96 C95 1.370 . S
C96 C97 1.396 . S
C96 H118 0.929 . S
C97 C92 1.373 . S
C97 C96 1.396 . S
C97 H119 0.929 . S
C98 O108 1.240 . S
C98 O109 1.289 . S
C99 O110 1.258 . S
C99 O111 1.256 . S
O100 La80 2.521 . S
O100 C82 1.261 . S
O101 La80 2.628 . S
O101 C82 1.243 . S
O102 La80 2.554 . S
O102 C89 1.240 . S
O103 La80 2.757 . S
O103 La81 2.482 . S
O103 C89 1.289 . S
O104 La80 2.470 . S
O104 C90 1.258 . S
O105 La81 2.503 . S
O105 C90 1.256 . S
O106 La81 2.521 . S
O106 C91 1.261 . S
O107 La81 2.628 . S
O107 C91 1.243 . S
O108 La81 2.554 . S
O108 C98 1.240 . S
O109 La80 2.482 . S
O109 La81 2.757 . S
O109 C98 1.289 . S
O110 La81 2.470 . S
O110 C99 1.258 . S
O111 La80 2.503 . S
O111 C99 1.256 . S
H112 C84 0.930 . S
H113 C85 0.930 . S
H114 C87 0.929 . S
H115 C88 0.929 . S
H116 C93 0.930 . S
H117 C94 0.930 . S
H118 C96 0.929 . S
H119 C97 0.929 . S
C120 C121 1.391 . S
C120 C124 1.391 . S
C120 H162 0.948 . S
C121 C120 1.391 . S
C121 C122 1.391 . S
C122 C121 1.391 . S
C122 H178 0.947 . S
C122 C179 1.392 . S
C123 C124 1.391 . S
C123 C127 1.397 . S
C123 C179 1.419 . S
C124 C120 1.391 . S
C124 C123 1.391 . S
C124 C125 1.399 . S
C125 C124 1.399 . S
C125 C128 1.396 . S
C125 C137 1.453 . S
C125 C138 1.684 . S
H126 C150 0.948 . S
C127 C123 1.397 . S
C127 C128 1.394 . S
C127 C146 1.723 . S
C128 C125 1.396 . S
C128 C127 1.394 . S
C128 C158 1.723 1_545 S
H129 C152 0.947 . S
H130 C153 0.948 . S
H131 C159 0.982 . S
H132 C160 0.979 . S
H133 C160 0.980 . S
H134 C160 0.983 . S
H135 C159 0.979 . S
H136 C159 0.977 . S
C137 C125 1.453 . S
C137 H166 0.982 . S
C137 H167 0.979 . S
C137 H168 0.977 1_545 S
C138 C125 1.684 . S
C138 H163 0.979 . S
C138 H164 0.980 . S
C138 H165 0.983 . S
C139 C140 1.391 . S
C139 C144 1.391 . S
C139 H169 0.948 . S
C140 C139 1.391 . S
C140 C141 1.391 1_545 S
C141 C140 1.391 1_565 S
C141 C142 1.392 . S
C141 H170 0.947 . S
C142 C141 1.392 . S
C142 C143 1.419 1_565 S
C142 H171 0.948 . S
C143 C142 1.419 1_545 S
C143 C144 1.391 . S
C143 C147 1.397 . S
C144 C139 1.391 . S
C144 C143 1.391 . S
C144 C145 1.399 . S
C145 C144 1.399 . S
C145 C146 1.396 . S
C145 C148 1.453 . S
C145 C149 1.684 . S
C146 C127 1.723 . S
C146 C145 1.396 . S
C146 C147 1.394 . S
C147 C143 1.397 . S
C147 C146 1.394 . S
C147 C157 1.723 1_545 S
C148 C145 1.453 . S
C148 H172 0.982 . S
C148 H173 0.979 . S
C148 H174 0.977 . S
C149 C145 1.684 . S
C149 H175 0.979 . S
C149 H176 0.980 . S
C149 H177 0.983 . S
C150 H126 0.948 . S
C150 C151 1.391 . S
C150 C155 1.391 . S
C151 C150 1.391 . S
C151 C152 1.391 . S
C152 H129 0.947 . S
C152 C151 1.391 . S
C152 C153 1.392 . S
C153 H130 0.948 . S
C153 C152 1.392 . S
C153 C154 1.419 . S
C154 C153 1.419 . S
C154 C155 1.391 . S
C154 C158 1.397 . S
C155 C150 1.391 . S
C155 C154 1.391 . S
C155 C156 1.399 . S
C156 C155 1.399 . S
C156 C157 1.396 . S
C156 C159 1.453 . S
C156 C160 1.684 . S
C157 C147 1.723 1_565 S
C157 C156 1.396 . S
C157 C158 1.394 . S
C158 C128 1.723 1_565 S
C158 C154 1.397 . S
C158 C157 1.394 . S
C159 H131 0.982 . S
C159 H135 0.979 . S
C159 H136 0.977 . S
C159 C156 1.453 . S
C160 H132 0.979 . S
C160 H133 0.980 . S
C160 H134 0.983 . S
C160 C156 1.684 . S
H161 C179 0.948 . S
H162 C120 0.948 . S
H163 C138 0.979 . S
H164 C138 0.980 . S
H165 C138 0.983 . S
H166 C137 0.982 . S
H167 C137 0.979 . S
H168 C137 0.977 1_565 S
H169 C139 0.948 . S
H170 C141 0.947 . S
H171 C142 0.948 . S
H172 C148 0.982 . S
H173 C148 0.979 . S
H174 C148 0.977 . S
H175 C149 0.979 . S
H176 C149 0.980 . S
H177 C149 0.983 . S
H178 C122 0.947 . S
C179 C122 1.392 . S
C179 C123 1.419 . S
C179 H161 0.948 . S
C180 C181 1.391 . S
C180 C184 1.391 . S
C180 H222 0.948 . S
C181 C180 1.391 . S
C181 C182 1.391 . S
C182 C181 1.391 . S
C182 H238 0.947 . S
C182 C239 1.392 . S
C183 C184 1.391 . S
C183 C187 1.397 . S
C183 C239 1.419 . S
C184 C180 1.391 . S
C184 C183 1.391 . S
C184 C185 1.399 . S
C185 C184 1.399 . S
C185 C188 1.396 . S
C185 C197 1.453 . S
C185 C198 1.684 . S
H186 C210 0.948 . S
C187 C183 1.397 . S
C187 C188 1.394 . S
C187 C206 1.723 . S
C188 C185 1.396 . S
C188 C187 1.394 . S
C188 C218 1.723 . S
H189 C212 0.947 . S
H190 C213 0.948 . S
H191 C219 0.982 . S
H192 C220 0.979 . S
H193 C220 0.980 . S
H194 C220 0.983 . S
H195 C219 0.979 . S
H196 C219 0.977 . S
C197 C185 1.453 . S
C197 H226 0.982 . S
C197 H227 0.979 . S
C197 H228 0.977 . S
C198 C185 1.684 . S
C198 H223 0.979 . S
C198 H224 0.980 . S
C198 H225 0.983 . S
C199 C200 1.391 . S
C199 C204 1.391 . S
C199 H229 0.948 . S
C200 C199 1.391 . S
C200 C201 1.391 . S
C201 C200 1.391 . S
C201 C202 1.392 . S
C201 H230 0.947 . S
C202 C201 1.392 . S
C202 C203 1.419 . S
C202 H231 0.948 . S
C203 C202 1.419 . S
C203 C204 1.391 . S
C203 C207 1.397 . S
C204 C199 1.391 . S
C204 C203 1.391 . S
C204 C205 1.399 . S
C205 C204 1.399 . S
C205 C206 1.396 . S
C205 C208 1.453 . S
C205 C209 1.684 . S
C206 C187 1.723 . S
C206 C205 1.396 . S
C206 C207 1.394 . S
C207 C203 1.397 . S
C207 C206 1.394 . S
C207 C217 1.723 . S
C208 C205 1.453 . S
C208 H232 0.982 . S
C208 H233 0.979 . S
C208 H234 0.977 . S
C209 C205 1.684 . S
C209 H235 0.979 . S
C209 H236 0.980 . S
C209 H237 0.983 . S
C210 H186 0.948 . S
C210 C211 1.391 . S
C210 C215 1.391 . S
C211 C210 1.391 . S
C211 C212 1.391 . S
C212 H189 0.947 . S
C212 C211 1.391 . S
C212 C213 1.392 . S
C213 H190 0.948 . S
C213 C212 1.392 . S
C213 C214 1.419 . S
C214 C213 1.419 . S
C214 C215 1.391 . S
C214 C218 1.397 . S
C215 C210 1.391 . S
C215 C214 1.391 . S
C215 C216 1.399 . S
C216 C215 1.399 . S
C216 C217 1.396 . S
C216 C219 1.453 . S
C216 C220 1.684 . S
C217 C207 1.723 . S
C217 C216 1.396 . S
C217 C218 1.394 . S
C218 C188 1.723 . S
C218 C214 1.397 . S
C218 C217 1.394 . S
C219 H191 0.982 . S
C219 H195 0.979 . S
C219 H196 0.977 . S
C219 C216 1.453 . S
C220 H192 0.979 . S
C220 H193 0.980 . S
C220 H194 0.983 . S
C220 C216 1.684 . S
H221 C239 0.948 . S
H222 C180 0.948 . S
H223 C198 0.979 . S
H224 C198 0.980 . S
H225 C198 0.983 . S
H226 C197 0.982 . S
H227 C197 0.979 . S
H228 C197 0.977 . S
H229 C199 0.948 . S
H230 C201 0.947 . S
H231 C202 0.948 . S
H232 C208 0.982 . S
H233 C208 0.979 . S
H234 C208 0.977 . S
H235 C209 0.979 . S
H236 C209 0.980 . S
H237 C209 0.983 . S
H238 C182 0.947 . S
C239 C182 1.392 . S
C239 C183 1.419 . S
C239 H221 0.948 . S
C240 C241 1.391 . S
C240 C244 1.391 . S
C240 H282 0.948 . S
C241 C240 1.391 . S
C241 C242 1.391 . S
C242 C241 1.391 . S
C242 H298 0.947 . S
C242 C299 1.392 . S
C243 C244 1.391 . S
C243 C247 1.397 . S
C243 C299 1.419 . S
C244 C240 1.391 . S
C244 C243 1.391 . S
C244 C245 1.399 . S
C245 C244 1.399 . S
C245 C248 1.396 . S
C245 C257 1.453 . S
C245 C258 1.684 . S
H246 C270 0.948 . S
C247 C243 1.397 . S
C247 C248 1.394 . S
C247 C266 1.723 . S
C248 C245 1.396 . S
C248 C247 1.394 . S
C248 C278 1.723 . S
H249 C272 0.947 . S
H250 C273 0.948 1_455 S
H251 C279 0.982 . S
H252 C280 0.979 . S
H253 C280 0.980 . S
H254 C280 0.983 . S
H255 C279 0.979 . S
H256 C279 0.977 . S
C257 C245 1.453 . S
C257 H286 0.982 . S
C257 H287 0.979 . S
C257 H288 0.977 . S
C258 C245 1.684 . S
C258 H283 0.979 . S
C258 H284 0.980 . S
C258 H285 0.983 . S
C259 C260 1.391 . S
C259 C264 1.391 . S
C259 H289 0.948 . S
C260 C259 1.391 . S
C260 C261 1.391 . S
C261 C260 1.391 . S
C261 C262 1.392 . S
C261 H290 0.947 1_455 S
C262 C261 1.392 . S
C262 C263 1.419 . S
C262 H291 0.948 1_455 S
C263 C262 1.419 . S
C263 C264 1.391 . S
C263 C267 1.397 . S
C264 C259 1.391 . S
C264 C263 1.391 . S
C264 C265 1.399 . S
C265 C264 1.399 . S
C265 C266 1.396 . S
C265 C268 1.453 . S
C265 C269 1.684 . S
C266 C247 1.723 . S
C266 C265 1.396 . S
C266 C267 1.394 . S
C267 C263 1.397 . S
C267 C266 1.394 . S
C267 C277 1.723 . S
C268 C265 1.453 . S
C268 H292 0.982 . S
C268 H293 0.979 . S
C268 H294 0.977 . S
C269 C265 1.684 . S
C269 H295 0.979 . S
C269 H296 0.980 . S
C269 H297 0.983 . S
C270 H246 0.948 . S
C270 C271 1.391 . S
C270 C275 1.391 . S
C271 C270 1.391 . S
C271 C272 1.391 . S
C272 H249 0.947 . S
C272 C271 1.391 . S
C272 C273 1.392 . S
C273 H250 0.948 1_655 S
C273 C272 1.392 . S
C273 C274 1.419 . S
C274 C273 1.419 . S
C274 C275 1.391 . S
C274 C278 1.397 1_655 S
C275 C270 1.391 . S
C275 C274 1.391 . S
C275 C276 1.399 . S
C276 C275 1.399 . S
C276 C277 1.396 1_655 S
C276 C279 1.453 . S
C276 C280 1.684 . S
C277 C267 1.723 . S
C277 C276 1.396 1_455 S
C277 C278 1.394 . S
C278 C248 1.723 . S
C278 C274 1.397 1_455 S
C278 C277 1.394 . S
C279 H251 0.982 . S
C279 H255 0.979 . S
C279 H256 0.977 . S
C279 C276 1.453 . S
C280 H252 0.979 . S
C280 H253 0.980 . S
C280 H254 0.983 . S
C280 C276 1.684 . S
H281 C299 0.948 . S
H282 C240 0.948 . S
H283 C258 0.979 . S
H284 C258 0.980 . S
H285 C258 0.983 . S
H286 C257 0.982 . S
H287 C257 0.979 . S
H288 C257 0.977 . S
H289 C259 0.948 . S
H290 C261 0.947 1_655 S
H291 C262 0.948 1_655 S
H292 C268 0.982 . S
H293 C268 0.979 . S
H294 C268 0.977 . S
H295 C269 0.979 . S
H296 C269 0.980 . S
H297 C269 0.983 . S
H298 C242 0.947 . S
C299 C242 1.392 . S
C299 C243 1.419 . S
C299 H281 0.948 . S
C300 C301 1.391 . S
C300 C304 1.391 . S
C300 H342 0.948 . S
C301 C300 1.391 . S
C301 C302 1.391 . S
C302 C301 1.391 . S
C302 H358 0.947 . S
C302 C359 1.392 . S
C303 C304 1.391 . S
C303 C307 1.397 . S
C303 C359 1.419 . S
C304 C300 1.391 . S
C304 C303 1.391 . S
C304 C305 1.399 . S
C305 C304 1.399 . S
C305 C308 1.396 . S
C305 C317 1.453 . S
C305 C318 1.684 . S
H306 C330 0.948 . S
C307 C303 1.397 . S
C307 C308 1.394 . S
C307 C326 1.723 . S
C308 C305 1.396 . S
C308 C307 1.394 . S
C308 C338 1.723 1_655 S
H309 C332 0.947 . S
H310 C333 0.948 . S
H311 C339 0.982 . S
H312 C340 0.979 . S
H313 C340 0.980 . S
H314 C340 0.983 . S
H315 C339 0.979 . S
H316 C339 0.977 . S
C317 C305 1.453 . S
C317 H346 0.982 1_655 S
C317 H347 0.979 . S
C317 H348 0.977 1_655 S
C318 C305 1.684 . S
C318 H343 0.979 . S
C318 H344 0.980 . S
C318 H345 0.983 . S
C319 C320 1.391 1_655 S
C319 C324 1.391 . S
C319 H349 0.948 . S
C320 C319 1.391 1_455 S
C320 C321 1.391 . S
C321 C320 1.391 . S
C321 C322 1.392 . S
C321 H350 0.947 . S
C322 C321 1.392 . S
C322 C323 1.419 . S
C322 H351 0.948 . S
C323 C322 1.419 . S
C323 C324 1.391 1_455 S
C323 C327 1.397 . S
C324 C319 1.391 . S
C324 C323 1.391 1_655 S
C324 C325 1.399 . S
C325 C324 1.399 . S
C325 C326 1.396 . S
C325 C328 1.453 . S
C325 C329 1.684 . S
C326 C307 1.723 . S
C326 C325 1.396 . S
C326 C327 1.394 1_655 S
C327 C323 1.397 . S
C327 C326 1.394 1_455 S
C327 C337 1.723 . S
C328 C325 1.453 . S
C328 H352 0.982 . S
C328 H353 0.979 . S
C328 H354 0.977 . S
C329 C325 1.684 . S
C329 H355 0.979 . S
C329 H356 0.980 . S
C329 H357 0.983 . S
C330 H306 0.948 . S
C330 C331 1.391 . S
C330 C335 1.391 . S
C331 C330 1.391 . S
C331 C332 1.391 . S
C332 H309 0.947 . S
C332 C331 1.391 . S
C332 C333 1.392 . S
C333 H310 0.948 . S
C333 C332 1.392 . S
C333 C334 1.419 . S
C334 C333 1.419 . S
C334 C335 1.391 . S
C334 C338 1.397 . S
C335 C330 1.391 . S
C335 C334 1.391 . S
C335 C336 1.399 . S
C336 C335 1.399 . S
C336 C337 1.396 . S
C336 C339 1.453 . S
C336 C340 1.684 . S
C337 C327 1.723 . S
C337 C336 1.396 . S
C337 C338 1.394 . S
C338 C308 1.723 1_455 S
C338 C334 1.397 . S
C338 C337 1.394 . S
C339 H311 0.982 . S
C339 H315 0.979 . S
C339 H316 0.977 . S
C339 C336 1.453 . S
C340 H312 0.979 . S
C340 H313 0.980 . S
C340 H314 0.983 . S
C340 C336 1.684 . S
H341 C359 0.948 . S
H342 C300 0.948 . S
H343 C318 0.979 . S
H344 C318 0.980 . S
H345 C318 0.983 . S
H346 C317 0.982 1_455 S
H347 C317 0.979 . S
H348 C317 0.977 1_455 S
H349 C319 0.948 . S
H350 C321 0.947 . S
H351 C322 0.948 . S
H352 C328 0.982 . S
H353 C328 0.979 . S
H354 C328 0.977 . S
H355 C329 0.979 . S
H356 C329 0.980 . S
H357 C329 0.983 . S
H358 C302 0.947 . S
C359 C302 1.392 . S
C359 C303 1.419 . S
C359 H341 0.948 . S
C360 C361 1.391 . S
C360 C364 1.391 . S
C360 H402 0.948 . S
C361 C360 1.391 . S
C361 C362 1.391 . S
C362 C361 1.391 . S
C362 H418 0.947 . S
C362 C419 1.392 . S
C363 C364 1.391 . S
C363 C367 1.397 . S
C363 C419 1.419 . S
C364 C360 1.391 . S
C364 C363 1.391 . S
C364 C365 1.399 . S
C365 C364 1.399 . S
C365 C368 1.396 . S
C365 C377 1.453 1_565 S
C365 C378 1.684 . S
H366 C390 0.948 . S
C367 C363 1.397 . S
C367 C368 1.394 . S
C367 C386 1.723 . S
C368 C365 1.396 . S
C368 C367 1.394 . S
C368 C398 1.723 1_565 S
H369 C392 0.947 . S
H370 C393 0.948 . S
H371 C399 0.982 . S
H372 C400 0.979 . S
H373 C400 0.980 . S
H374 C400 0.983 . S
H375 C399 0.979 . S
H376 C399 0.977 . S
C377 C365 1.453 1_545 S
C377 H406 0.982 . S
C377 H407 0.979 1_545 S
C377 H408 0.977 . S
C378 C365 1.684 . S
C378 H403 0.979 . S
C378 H404 0.980 . S
C378 H405 0.983 . S
C379 C380 1.391 . S
C379 C384 1.391 . S
C379 H409 0.948 . S
C380 C379 1.391 . S
C380 C381 1.391 1_565 S
C381 C380 1.391 1_545 S
C381 C382 1.392 . S
C381 H410 0.947 . S
C382 C381 1.392 . S
C382 C383 1.419 . S
C382 H411 0.948 . S
C383 C382 1.419 . S
C383 C384 1.391 1_545 S
C383 C387 1.397 . S
C384 C379 1.391 . S
C384 C383 1.391 1_565 S
C384 C385 1.399 . S
C385 C384 1.399 . S
C385 C386 1.396 . S
C385 C388 1.453 . S
C385 C389 1.684 . S
C386 C367 1.723 . S
C386 C385 1.396 . S
C386 C387 1.394 1_565 S
C387 C383 1.397 . S
C387 C386 1.394 1_545 S
C387 C397 1.723 . S
C388 C385 1.453 . S
C388 H412 0.982 . S
C388 H413 0.979 . S
C388 H414 0.977 . S
C389 C385 1.684 . S
C389 H415 0.979 . S
C389 H416 0.980 . S
C389 H417 0.983 . S
C390 H366 0.948 . S
C390 C391 1.391 . S
C390 C395 1.391 . S
C391 C390 1.391 . S
C391 C392 1.391 . S
C392 H369 0.947 . S
C392 C391 1.391 . S
C392 C393 1.392 . S
C393 H370 0.948 . S
C393 C392 1.392 . S
C393 C394 1.419 . S
C394 C393 1.419 . S
C394 C395 1.391 . S
C394 C398 1.397 . S
C395 C390 1.391 . S
C395 C394 1.391 . S
C395 C396 1.399 . S
C396 C395 1.399 . S
C396 C397 1.396 . S
C396 C399 1.453 . S
C396 C400 1.684 . S
C397 C387 1.723 . S
C397 C396 1.396 . S
C397 C398 1.394 . S
C398 C368 1.723 1_545 S
C398 C394 1.397 . S
C398 C397 1.394 . S
C399 H371 0.982 . S
C399 H375 0.979 . S
C399 H376 0.977 . S
C399 C396 1.453 . S
C400 H372 0.979 . S
C400 H373 0.980 . S
C400 H374 0.983 . S
C400 C396 1.684 . S
H401 C419 0.948 . S
H402 C360 0.948 . S
H403 C378 0.979 . S
H404 C378 0.980 . S
H405 C378 0.983 . S
H406 C377 0.982 . S
H407 C377 0.979 1_565 S
H408 C377 0.977 . S
H409 C379 0.948 . S
H410 C381 0.947 . S
H411 C382 0.948 . S
H412 C388 0.982 . S
H413 C388 0.979 . S
H414 C388 0.977 . S
H415 C389 0.979 . S
H416 C389 0.980 . S
H417 C389 0.983 . S
H418 C362 0.947 . S
C419 C362 1.392 . S
C419 C363 1.419 . S
C419 H401 0.948 . S
C420 C421 1.391 . S
C420 C424 1.391 . S
C420 H462 0.948 . S
C421 C420 1.391 . S
C421 C422 1.391 . S
C422 C421 1.391 . S
C422 H478 0.947 . S
C422 C479 1.392 . S
C423 C424 1.391 . S
C423 C427 1.397 . S
C423 C479 1.419 . S
C424 C420 1.391 . S
C424 C423 1.391 . S
C424 C425 1.399 . S
C425 C424 1.399 . S
C425 C428 1.396 . S
C425 C437 1.453 . S
C425 C438 1.684 . S
H426 C450 0.948 . S
C427 C423 1.397 . S
C427 C428 1.394 . S
C427 C446 1.723 . S
C428 C425 1.396 . S
C428 C427 1.394 . S
C428 C458 1.723 . S
H429 C452 0.947 . S
H430 C453 0.948 . S
H431 C459 0.982 . S
H432 C460 0.979 . S
H433 C460 0.980 . S
H434 C460 0.983 . S
H435 C459 0.979 . S
H436 C459 0.977 . S
C437 C425 1.453 . S
C437 H466 0.982 . S
C437 H467 0.979 . S
C437 H468 0.977 . S
C438 C425 1.684 . S
C438 H463 0.979 . S
C438 H464 0.980 . S
C438 H465 0.983 . S
C439 C440 1.391 . S
C439 C444 1.391 . S
C439 H469 0.948 . S
C440 C439 1.391 . S
C440 C441 1.391 . S
C441 C440 1.391 . S
C441 C442 1.392 . S
C441 H470 0.947 . S
C442 C441 1.392 . S
C442 C443 1.419 . S
C442 H471 0.948 . S
C443 C442 1.419 . S
C443 C444 1.391 . S
C443 C447 1.397 . S
C444 C439 1.391 . S
C444 C443 1.391 . S
C444 C445 1.399 . S
C445 C444 1.399 . S
C445 C446 1.396 . S
C445 C448 1.453 . S
C445 C449 1.684 . S
C446 C427 1.723 . S
C446 C445 1.396 . S
C446 C447 1.394 . S
C447 C443 1.397 . S
C447 C446 1.394 . S
C447 C457 1.723 . S
C448 C445 1.453 . S
C448 H472 0.982 . S
C448 H473 0.979 . S
C448 H474 0.977 . S
C449 C445 1.684 . S
C449 H475 0.979 . S
C449 H476 0.980 . S
C449 H477 0.983 . S
C450 H426 0.948 . S
C450 C451 1.391 . S
C450 C455 1.391 . S
C451 C450 1.391 . S
C451 C452 1.391 . S
C452 H429 0.947 . S
C452 C451 1.391 . S
C452 C453 1.392 . S
C453 H430 0.948 . S
C453 C452 1.392 . S
C453 C454 1.419 . S
C454 C453 1.419 . S
C454 C455 1.391 . S
C454 C458 1.397 . S
C455 C450 1.391 . S
C455 C454 1.391 . S
C455 C456 1.399 . S
C456 C455 1.399 . S
C456 C457 1.396 . S
C456 C459 1.453 . S
C456 C460 1.684 . S
C457 C447 1.723 . S
C457 C456 1.396 . S
C457 C458 1.394 . S
C458 C428 1.723 . S
C458 C454 1.397 . S
C458 C457 1.394 . S
C459 H431 0.982 . S
C459 H435 0.979 . S
C459 H436 0.977 . S
C459 C456 1.453 . S
C460 H432 0.979 . S
C460 H433 0.980 . S
C460 H434 0.983 . S
C460 C456 1.684 . S
H461 C479 0.948 . S
H462 C420 0.948 . S
H463 C438 0.979 . S
H464 C438 0.980 . S
H465 C438 0.983 . S
H466 C437 0.982 . S
H467 C437 0.979 . S
H468 C437 0.977 . S
H469 C439 0.948 . S
H470 C441 0.947 . S
H471 C442 0.948 . S
H472 C448 0.982 . S
H473 C448 0.979 . S
H474 C448 0.977 . S
H475 C449 0.979 . S
H476 C449 0.980 . S
H477 C449 0.983 . S
H478 C422 0.947 . S
C479 C422 1.392 . S
C479 C423 1.419 . S
C479 H461 0.948 . S
H480 C488 0.950 . S
H481 C493 0.950 . S
H482 C490 0.950 . S
H483 C492 0.950 . S
H484 C494 0.950 . S
H485 C496 0.950 . S
H486 C498 0.950 . S
H487 C499 0.950 . S
C488 H480 0.950 . S
C488 C489 1.386 . S
C488 C490 1.391 . S
C489 C488 1.386 . S
C489 C493 1.393 . S
C490 H482 0.950 . S
C490 C488 1.391 . S
C490 C491 1.400 . S
C491 C490 1.400 . S
C491 C492 1.398 . S
C491 C497 1.491 . S
C492 H483 0.950 . S
C492 C491 1.398 . S
C492 C493 1.391 . S
C493 H481 0.950 . S
C493 C489 1.393 . S
C493 C492 1.391 . S
C494 H484 0.950 . S
C494 C495 1.386 . S
C494 C496 1.391 . S
C495 C494 1.386 . S
C495 C499 1.393 . S
C496 H485 0.950 . S
C496 C494 1.391 . S
C496 C497 1.400 . S
C497 C491 1.491 . S
C497 C496 1.400 . S
C497 C498 1.398 . S
C498 H486 0.950 . S
C498 C497 1.398 . S
C498 C499 1.391 . S
C499 H487 0.950 . S
C499 C495 1.393 . S
C499 C498 1.391 . S
H500 C508 0.950 . S
H501 C513 0.950 . S
H502 C510 0.950 . S
H503 C512 0.950 . S
H504 C514 0.950 . S
H505 C516 0.950 . S
H506 C518 0.950 . S
H507 C519 0.950 . S
C508 H500 0.950 . S
C508 C509 1.386 . S
C508 C510 1.391 . S
C509 C508 1.386 . S
C509 C513 1.393 . S
C510 H502 0.950 . S
C510 C508 1.391 . S
C510 C511 1.400 . S
C511 C510 1.400 . S
C511 C512 1.398 . S
C511 C517 1.491 . S
C512 H503 0.950 . S
C512 C511 1.398 . S
C512 C513 1.391 . S
C513 H501 0.950 . S
C513 C509 1.393 . S
C513 C512 1.391 . S
C514 H504 0.950 . S
C514 C515 1.386 . S
C514 C516 1.391 . S
C515 C514 1.386 . S
C515 C519 1.393 . S
C516 H505 0.950 . S
C516 C514 1.391 . S
C516 C517 1.400 . S
C517 C511 1.491 . S
C517 C516 1.400 . S
C517 C518 1.398 . S
C518 H506 0.950 . S
C518 C517 1.398 . S
C518 C519 1.391 . S
C519 H507 0.950 . S
C519 C515 1.393 . S
C519 C518 1.391 . S
H520 C528 0.950 . S
H521 C533 0.950 . S
H522 C530 0.950 . S
H523 C532 0.950 . S
H524 C534 0.950 . S
H525 C536 0.950 . S
H526 C538 0.950 . S
H527 C539 0.950 . S
C528 H520 0.950 . S
C528 C529 1.386 . S
C528 C530 1.391 . S
C529 C528 1.386 . S
C529 C533 1.393 . S
C530 H522 0.950 . S
C530 C528 1.391 . S
C530 C531 1.400 . S
C531 C530 1.400 . S
C531 C532 1.398 . S
C531 C537 1.491 . S
C532 H523 0.950 . S
C532 C531 1.398 . S
C532 C533 1.391 . S
C533 H521 0.950 . S
C533 C529 1.393 . S
C533 C532 1.391 . S
C534 H524 0.950 . S
C534 C535 1.386 . S
C534 C536 1.391 . S
C535 C534 1.386 . S
C535 C539 1.393 . S
C536 H525 0.950 . S
C536 C534 1.391 . S
C536 C537 1.400 . S
C537 C531 1.491 . S
C537 C536 1.400 . S
C537 C538 1.398 . S
C538 H526 0.950 . S
C538 C537 1.398 . S
C538 C539 1.391 . S
C539 H527 0.950 . S
C539 C535 1.393 . S
C539 C538 1.391 . S
H540 C548 0.950 . S
H541 C553 0.950 . S
H542 C550 0.950 . S
H543 C552 0.950 . S
H544 C554 0.950 . S
H545 C556 0.950 . S
H546 C558 0.950 . S
H547 C559 0.950 . S
C548 H540 0.950 . S
C548 C549 1.386 . S
C548 C550 1.391 . S
C549 C548 1.386 . S
C549 C553 1.393 . S
C550 H542 0.950 . S
C550 C548 1.391 . S
C550 C551 1.400 . S
C551 C550 1.400 . S
C551 C552 1.398 . S
C551 C557 1.491 . S
C552 H543 0.950 . S
C552 C551 1.398 . S
C552 C553 1.391 . S
C553 H541 0.950 . S
C553 C549 1.393 . S
C553 C552 1.391 . S
C554 H544 0.950 . S
C554 C555 1.386 . S
C554 C556 1.391 . S
C555 C554 1.386 . S
C555 C559 1.393 . S
C556 H545 0.950 . S
C556 C554 1.391 . S
C556 C557 1.400 . S
C557 C551 1.491 . S
C557 C556 1.400 . S
C557 C558 1.398 . S
C558 H546 0.950 . S
C558 C557 1.398 . S
C558 C559 1.391 . S
C559 H547 0.950 . S
C559 C555 1.393 . S
C559 C558 1.391 . S
H560 C568 0.950 . S
H561 C573 0.950 . S
H562 C570 0.950 . S
H563 C572 0.950 . S
H564 C574 0.950 . S
H565 C576 0.950 . S
H566 C578 0.950 . S
H567 C579 0.950 . S
C568 H560 0.950 . S
C568 C569 1.386 . S
C568 C570 1.391 . S
C569 C568 1.386 . S
C569 C573 1.393 . S
C570 H562 0.950 . S
C570 C568 1.391 . S
C570 C571 1.400 . S
C571 C570 1.400 . S
C571 C572 1.398 . S
C571 C577 1.491 . S
C572 H563 0.950 . S
C572 C571 1.398 . S
C572 C573 1.391 . S
C573 H561 0.950 . S
C573 C569 1.393 . S
C573 C572 1.391 . S
C574 H564 0.950 . S
C574 C575 1.386 . S
C574 C576 1.391 . S
C575 C574 1.386 . S
C575 C579 1.393 . S
C576 H565 0.950 . S
C576 C574 1.391 . S
C576 C577 1.400 . S
C577 C571 1.491 . S
C577 C576 1.400 . S
C577 C578 1.398 . S
C578 H566 0.950 . S
C578 C577 1.398 . S
C578 C579 1.391 . S
C579 H567 0.950 . S
C579 C575 1.393 . S
C579 C578 1.391 . S
H580 C588 0.950 . S
H581 C593 0.950 . S
H582 C590 0.950 . S
H583 C592 0.950 . S
H584 C594 0.950 . S
H585 C596 0.950 . S
H586 C598 0.950 . S
H587 C599 0.950 . S
C588 H580 0.950 . S
C588 C589 1.386 . S
C588 C590 1.391 . S
C589 C588 1.386 . S
C589 C593 1.393 . S
C590 H582 0.950 . S
C590 C588 1.391 . S
C590 C591 1.400 . S
C591 C590 1.400 . S
C591 C592 1.398 . S
C591 C597 1.491 . S
C592 H583 0.950 . S
C592 C591 1.398 . S
C592 C593 1.391 . S
C593 H581 0.950 . S
C593 C589 1.393 . S
C593 C592 1.391 . S
C594 H584 0.950 . S
C594 C595 1.386 . S
C594 C596 1.391 . S
C595 C594 1.386 . S
C595 C599 1.393 . S
C596 H585 0.950 . S
C596 C594 1.391 . S
C596 C597 1.400 . S
C597 C591 1.491 . S
C597 C596 1.400 . S
C597 C598 1.398 . S
C598 H586 0.950 . S
C598 C597 1.398 . S
C598 C599 1.391 . S
C599 H587 0.950 . S
C599 C595 1.393 . S
C599 C598 1.391 . S
H600 C608 0.950 . S
H601 C613 0.950 . S
H602 C610 0.950 . S
H603 C612 0.950 . S
H604 C614 0.950 . S
H605 C616 0.950 . S
H606 C618 0.950 . S
H607 C619 0.950 . S
C608 H600 0.950 . S
C608 C609 1.386 . S
C608 C610 1.391 . S
C609 C608 1.386 . S
C609 C613 1.393 . S
C610 H602 0.950 . S
C610 C608 1.391 . S
C610 C611 1.400 . S
C611 C610 1.400 . S
C611 C612 1.398 . S
C611 C617 1.491 . S
C612 H603 0.950 . S
C612 C611 1.398 . S
C612 C613 1.391 . S
C613 H601 0.950 . S
C613 C609 1.393 . S
C613 C612 1.391 . S
C614 H604 0.950 . S
C614 C615 1.386 . S
C614 C616 1.391 . S
C615 C614 1.386 . S
C615 C619 1.393 . S
C616 H605 0.950 . S
C616 C614 1.391 . S
C616 C617 1.400 . S
C617 C611 1.491 . S
C617 C616 1.400 . S
C617 C618 1.398 . S
C618 H606 0.950 . S
C618 C617 1.398 . S
C618 C619 1.391 . S
C619 H607 0.950 . S
C619 C615 1.393 . S
C619 C618 1.391 . S
H620 C628 0.950 . S
H621 C633 0.950 . S
H622 C630 0.950 . S
H623 C632 0.950 . S
H624 C634 0.950 . S
H625 C636 0.950 . S
H626 C638 0.950 . S
H627 C639 0.950 . S
C628 H620 0.950 . S
C628 C629 1.386 . S
C628 C630 1.391 . S
C629 C628 1.386 . S
C629 C633 1.393 . S
C630 H622 0.950 . S
C630 C628 1.391 . S
C630 C631 1.400 . S
C631 C630 1.400 . S
C631 C632 1.398 . S
C631 C637 1.491 . S
C632 H623 0.950 . S
C632 C631 1.398 . S
C632 C633 1.391 . S
C633 H621 0.950 . S
C633 C629 1.393 . S
C633 C632 1.391 . S
C634 H624 0.950 . S
C634 C635 1.386 . S
C634 C636 1.391 . S
C635 C634 1.386 . S
C635 C639 1.393 . S
C636 H625 0.950 . S
C636 C634 1.391 . S
C636 C637 1.400 . S
C637 C631 1.491 . S
C637 C636 1.400 . S
C637 C638 1.398 . S
C638 H626 0.950 . S
C638 C637 1.398 . S
C638 C639 1.391 . S
C639 H627 0.950 . S
C639 C635 1.393 . S
C639 C638 1.391 . S
H640 C648 0.950 . S
H641 C653 0.950 . S
H642 C650 0.950 . S
H643 C652 0.950 . S
H644 C654 0.950 . S
H645 C656 0.950 . S
H646 C658 0.950 . S
H647 C659 0.950 . S
C648 H640 0.950 . S
C648 C649 1.386 . S
C648 C650 1.391 . S
C649 C648 1.386 . S
C649 C653 1.393 . S
C650 H642 0.950 . S
C650 C648 1.391 . S
C650 C651 1.400 . S
C651 C650 1.400 . S
C651 C652 1.398 . S
C651 C657 1.491 . S
C652 H643 0.950 . S
C652 C651 1.398 . S
C652 C653 1.391 . S
C653 H641 0.950 . S
C653 C649 1.393 . S
C653 C652 1.391 . S
C654 H644 0.950 . S
C654 C655 1.386 . S
C654 C656 1.391 . S
C655 C654 1.386 . S
C655 C659 1.393 . S
C656 H645 0.950 . S
C656 C654 1.391 . S
C656 C657 1.400 . S
C657 C651 1.491 . S
C657 C656 1.400 . S
C657 C658 1.398 . S
C658 H646 0.950 . S
C658 C657 1.398 . S
C658 C659 1.391 . S
C659 H647 0.950 . S
C659 C655 1.393 . S
C659 C658 1.391 . S
H660 C668 0.950 . S
H661 C673 0.950 . S
H662 C670 0.950 . S
H663 C672 0.950 . S
H664 C674 0.950 . S
H665 C676 0.950 . S
H666 C678 0.950 . S
H667 C679 0.950 . S
C668 H660 0.950 . S
C668 C669 1.386 . S
C668 C670 1.391 . S
C669 C668 1.386 . S
C669 C673 1.393 . S
C670 H662 0.950 . S
C670 C668 1.391 . S
C670 C671 1.400 . S
C671 C670 1.400 . S
C671 C672 1.398 . S
C671 C677 1.491 . S
C672 H663 0.950 . S
C672 C671 1.398 . S
C672 C673 1.391 . S
C673 H661 0.950 . S
C673 C669 1.393 . S
C673 C672 1.391 . S
C674 H664 0.950 . S
C674 C675 1.386 . S
C674 C676 1.391 . S
C675 C674 1.386 . S
C675 C679 1.393 . S
C676 H665 0.950 . S
C676 C674 1.391 . S
C676 C677 1.400 . S
C677 C671 1.491 . S
C677 C676 1.400 . S
C677 C678 1.398 . S
C678 H666 0.950 . S
C678 C677 1.398 . S
C678 C679 1.391 . S
C679 H667 0.950 . S
C679 C675 1.393 . S
C679 C678 1.391 . S
H680 C688 0.950 . S
H681 C693 0.950 . S
H682 C690 0.950 . S
H683 C692 0.950 . S
H684 C694 0.950 . S
H685 C696 0.950 . S
H686 C698 0.950 . S
H687 C699 0.950 . S
C688 H680 0.950 . S
C688 C689 1.386 . S
C688 C690 1.391 . S
C689 C688 1.386 . S
C689 C693 1.393 . S
C690 H682 0.950 . S
C690 C688 1.391 . S
C690 C691 1.400 . S
C691 C690 1.400 . S
C691 C692 1.398 . S
C691 C697 1.491 . S
C692 H683 0.950 . S
C692 C691 1.398 . S
C692 C693 1.391 . S
C693 H681 0.950 . S
C693 C689 1.393 . S
C693 C692 1.391 . S
C694 H684 0.950 . S
C694 C695 1.386 . S
C694 C696 1.391 . S
C695 C694 1.386 . S
C695 C699 1.393 . S
C696 H685 0.950 . S
C696 C694 1.391 . S
C696 C697 1.400 . S
C697 C691 1.491 . S
C697 C696 1.400 . S
C697 C698 1.398 . S
C698 H686 0.950 . S
C698 C697 1.398 . S
C698 C699 1.391 . S
C699 H687 0.950 . S
C699 C695 1.393 . S
C699 C698 1.391 . S
H700 C708 0.950 . S
H701 C713 0.950 . S
H702 C710 0.950 . S
H703 C712 0.950 . S
H704 C714 0.950 . S
H705 C716 0.950 . S
H706 C718 0.950 . S
H707 C719 0.950 . S
C708 H700 0.950 . S
C708 C709 1.386 . S
C708 C710 1.391 . S
C709 C708 1.386 . S
C709 C713 1.393 . S
C710 H702 0.950 . S
C710 C708 1.391 . S
C710 C711 1.400 . S
C711 C710 1.400 . S
C711 C712 1.398 . S
C711 C717 1.491 . S
C712 H703 0.950 . S
C712 C711 1.398 . S
C712 C713 1.391 . S
C713 H701 0.950 . S
C713 C709 1.393 . S
C713 C712 1.391 . S
C714 H704 0.950 . S
C714 C715 1.386 . S
C714 C716 1.391 . S
C715 C714 1.386 . S
C715 C719 1.393 . S
C716 H705 0.950 . S
C716 C714 1.391 . S
C716 C717 1.400 . S
C717 C711 1.491 . S
C717 C716 1.400 . S
C717 C718 1.398 . S
C718 H706 0.950 . S
C718 C717 1.398 . S
C718 C719 1.391 . S
C719 H707 0.950 . S
C719 C715 1.393 . S
C719 C718 1.391 . S
H720 C728 0.950 . S
H721 C733 0.950 1_655 S
H722 C730 0.950 . S
H723 C732 0.949 . S
H724 C734 0.950 1_556 S
H725 C736 0.952 1_655 S
H726 C738 0.950 . S
H727 C739 0.950 . S
C728 H720 0.950 . S
C728 C729 1.386 . S
C728 C730 1.391 . S
C729 C728 1.386 . S
C729 C733 1.393 . S
C730 H722 0.950 . S
C730 C728 1.391 . S
C730 C731 1.400 . S
C731 C730 1.400 . S
C731 C732 1.398 . S
C731 C737 1.491 . S
C732 H723 0.949 . S
C732 C731 1.398 . S
C732 C733 1.391 . S
C733 H721 0.950 1_455 S
C733 C729 1.393 . S
C733 C732 1.391 . S
C734 H724 0.950 1_554 S
C734 C735 1.386 1_554 S
C734 C736 1.391 . S
C735 C734 1.386 1_556 S
C735 C739 1.393 1_556 S
C736 H725 0.952 1_455 S
C736 C734 1.391 . S
C736 C737 1.400 . S
C737 C731 1.491 . S
C737 C736 1.400 . S
C737 C738 1.398 . S
C738 H726 0.950 . S
C738 C737 1.398 . S
C738 C739 1.391 . S
C739 H727 0.950 . S
C739 C735 1.393 1_554 S
C739 C738 1.391 . S
H740 C748 0.950 . S
H741 C753 0.950 . S
H742 C750 0.950 . S
H743 C752 0.950 . S
H744 C754 0.950 . S
H745 C756 0.950 . S
H746 C758 0.950 . S
H747 C759 0.950 . S
C748 H740 0.950 . S
C748 C749 1.386 . S
C748 C750 1.391 . S
C749 C748 1.386 . S
C749 C753 1.393 . S
C750 H742 0.950 . S
C750 C748 1.391 . S
C750 C751 1.400 . S
C751 C750 1.400 . S
C751 C752 1.398 . S
C751 C757 1.491 . S
C752 H743 0.950 . S
C752 C751 1.398 . S
C752 C753 1.391 . S
C753 H741 0.950 . S
C753 C749 1.393 . S
C753 C752 1.391 . S
C754 H744 0.950 . S
C754 C755 1.386 . S
C754 C756 1.391 . S
C755 C754 1.386 . S
C755 C759 1.393 . S
C756 H745 0.950 . S
C756 C754 1.391 . S
C756 C757 1.400 . S
C757 C751 1.491 . S
C757 C756 1.400 . S
C757 C758 1.398 . S
C758 H746 0.950 . S
C758 C757 1.398 . S
C758 C759 1.391 . S
C759 H747 0.950 . S
C759 C755 1.393 . S
C759 C758 1.391 . S
H760 C768 0.950 . S
H761 C773 0.950 . S
H762 C770 0.950 . S
H763 C772 0.950 . S
H764 C774 0.950 . S
H765 C776 0.950 . S
H766 C778 0.950 . S
H767 C779 0.950 . S
C768 H760 0.950 . S
C768 C769 1.386 . S
C768 C770 1.391 . S
C769 C768 1.386 . S
C769 C773 1.393 . S
C770 H762 0.950 . S
C770 C768 1.391 . S
C770 C771 1.400 . S
C771 C770 1.400 . S
C771 C772 1.398 . S
C771 C777 1.491 . S
C772 H763 0.950 . S
C772 C771 1.398 . S
C772 C773 1.391 . S
C773 H761 0.950 . S
C773 C769 1.393 . S
C773 C772 1.391 . S
C774 H764 0.950 . S
C774 C775 1.386 . S
C774 C776 1.391 . S
C775 C774 1.386 . S
C775 C779 1.393 . S
C776 H765 0.950 . S
C776 C774 1.391 . S
C776 C777 1.400 . S
C777 C771 1.491 . S
C777 C776 1.400 . S
C777 C778 1.398 . S
C778 H766 0.950 . S
C778 C777 1.398 . S
C778 C779 1.391 . S
C779 H767 0.950 . S
C779 C775 1.393 . S
C779 C778 1.391 . S
H780 C788 0.950 . S
H781 C793 0.950 . S
H782 C790 0.950 . S
H783 C792 0.950 . S
H784 C794 0.950 . S
H785 C796 0.950 . S
H786 C798 0.950 . S
H787 C799 0.950 . S
C788 H780 0.950 . S
C788 C789 1.386 . S
C788 C790 1.391 . S
C789 C788 1.386 . S
C789 C793 1.393 1_545 S
C790 H782 0.950 . S
C790 C788 1.391 . S
C790 C791 1.430 . S
C791 C790 1.430 . S
C791 C792 1.371 1_545 S
C791 C797 1.489 . S
C792 H783 0.950 . S
C792 C791 1.371 1_565 S
C792 C793 1.391 . S
C793 H781 0.950 . S
C793 C789 1.393 1_565 S
C793 C792 1.391 . S
C794 H784 0.950 . S
C794 C795 1.386 . S
C794 C796 1.391 . S
C795 C794 1.386 . S
C795 C799 1.393 1_565 S
C796 H785 0.950 . S
C796 C794 1.391 . S
C796 C797 1.390 1_565 S
C797 C791 1.489 . S
C797 C796 1.390 1_545 S
C797 C798 1.407 . S
C798 H786 0.950 . S
C798 C797 1.407 . S
C798 C799 1.391 . S
C799 H787 0.950 . S
C799 C795 1.393 1_545 S
C799 C798 1.391 . S
H800 C808 0.950 . S
H801 C813 0.950 . S
H802 C810 0.950 . S
H803 C812 0.950 . S
H804 C814 0.950 . S
H805 C816 0.950 . S
H806 C818 0.950 . S
H807 C819 0.950 . S
C808 H800 0.950 . S
C808 C809 1.386 . S
C808 C810 1.391 . S
C809 C808 1.386 . S
C809 C813 1.393 . S
C810 H802 0.950 . S
C810 C808 1.391 . S
C810 C811 1.400 . S
C811 C810 1.400 . S
C811 C812 1.398 . S
C811 C817 1.491 . S
C812 H803 0.950 . S
C812 C811 1.398 . S
C812 C813 1.391 . S
C813 H801 0.950 . S
C813 C809 1.393 . S
C813 C812 1.391 . S
C814 H804 0.950 . S
C814 C815 1.386 . S
C814 C816 1.391 . S
C815 C814 1.386 . S
C815 C819 1.393 . S
C816 H805 0.950 . S
C816 C814 1.391 . S
C816 C817 1.400 . S
C817 C811 1.491 . S
C817 C816 1.400 . S
C817 C818 1.398 . S
C818 H806 0.950 . S
C818 C817 1.398 . S
C818 C819 1.391 . S
C819 H807 0.950 . S
C819 C815 1.393 . S
C819 C818 1.391 . S
H820 C828 0.950 . S
H821 C833 0.950 . S
H822 C830 0.950 . S
H823 C832 0.950 . S
H824 C834 0.950 . S
H825 C836 0.950 . S
H826 C838 0.950 . S
H827 C839 0.950 . S
C828 H820 0.950 . S
C828 C829 1.386 1_655 S
C828 C830 1.391 . S
C829 C828 1.386 1_455 S
C829 C833 1.393 . S
C830 H822 0.950 . S
C830 C828 1.391 . S
C830 C831 1.400 1_655 S
C831 C830 1.400 1_455 S
C831 C832 1.398 . S
C831 C837 1.491 . S
C832 H823 0.950 . S
C832 C831 1.398 . S
C832 C833 1.391 . S
C833 H821 0.950 . S
C833 C829 1.393 . S
C833 C832 1.391 . S
C834 H824 0.950 . S
C834 C835 1.386 1_455 S
C834 C836 1.391 . S
C835 C834 1.386 1_655 S
C835 C839 1.393 . S
C836 H825 0.950 . S
C836 C834 1.391 . S
C836 C837 1.400 . S
C837 C831 1.491 . S
C837 C836 1.400 . S
C837 C838 1.398 1_455 S
C838 H826 0.950 . S
C838 C837 1.398 1_655 S
C838 C839 1.391 . S
C839 H827 0.950 . S
C839 C835 1.393 . S
C839 C838 1.391 . S
C489 C6 0.531 . S
C495 C451 0.505 . S
C509 C59 1.918 . S
C515 C301 1.795 . S
C529 C86 1.232 . S
C535 C361 1.190 . S
C549 C15 0.439 . S
C555 C421 0.364 . S
C575 C331 2.023 . S
C569 C50 2.020 . S
C595 C391 1.311 . S
C589 C95 1.291 . S
C609 C46 1.197 . S
C615 C181 1.180 . S
C629 C99 3.110 . S
C635 C271 3.112 . S
C649 C10 2.035 . S
C655 C151 2.072 . S
C675 C211 1.303 . S
C669 C55 1.286 . S
C695 C241 2.870 . S
C689 C90 3.017 . S
C709 C19 1.901 . S
C715 C121 1.770 . S
C735 C260 1.746 . S
C729 C18 1.716 . S
C749 C49 1.327 . S
C755 C140 1.338 . S
C769 C98 1.435 . S
C775 C200 1.486 . S
C795 C380 1.459 . S
C789 C58 1.437 . S
C815 C440 1.082 1_556 S
C809 C89 1.077 . S
C829 C9 1.309 . S
C835 C320 1.339 1_655 S
