# Generated by pormake.
# Topology pyr, (3,6)-cn, num edge types: 1
# Building blocks:
#     Node 0, Type 0, BuildingBlock: QEWDON_clean_linker_0, # of connection points: 3
#     Node 1, Type 0, BuildingBlock: QEWDON_clean_linker_0, # of connection points: 3
#     Node 2, Type 0, BuildingBlock: QEWDON_clean_linker_0, # of connection points: 3
#     Node 3, Type 0, BuildingBlock: QEWDON_clean_linker_0, # of connection points: 3
#     Node 4, Type 0, BuildingBlock: QEWDON_clean_linker_0, # of connection points: 3
#     Node 5, Type 0, BuildingBlock: QEWDON_clean_linker_0, # of connection points: 3
#     Node 6, Type 0, BuildingBlock: QEWDON_clean_linker_0, # of connection points: 3
#     Node 7, Type 0, BuildingBlock: QEWDON_clean_linker_0, # of connection points: 3
#     Node 8, Type 1, BuildingBlock: BETDAH_clean_sbu_0, # of connection points: 6
#     Node 9, Type 1, BuildingBlock: BETDAH_clean_sbu_0, # of connection points: 6
#     Node 10, Type 1, BuildingBlock: BETDAH_clean_sbu_0, # of connection points: 6
#     Node 11, Type 1, BuildingBlock: BETDAH_clean_sbu_0, # of connection points: 6
#     Edge 12, Type (0, 1), BuildingBlock: UVAHIK_clean_linker_0, # of connection points: 2
#     Edge 13, Type (0, 1), BuildingBlock: UVAHIK_clean_linker_0, # of connection points: 2
#     Edge 14, Type (0, 1), BuildingBlock: UVAHIK_clean_linker_0, # of connection points: 2
#     Edge 15, Type (0, 1), BuildingBlock: UVAHIK_clean_linker_0, # of connection points: 2
#     Edge 16, Type (0, 1), BuildingBlock: UVAHIK_clean_linker_0, # of connection points: 2
#     Edge 17, Type (0, 1), BuildingBlock: UVAHIK_clean_linker_0, # of connection points: 2
#     Edge 18, Type (0, 1), BuildingBlock: UVAHIK_clean_linker_0, # of connection points: 2
#     Edge 19, Type (0, 1), BuildingBlock: UVAHIK_clean_linker_0, # of connection points: 2
#     Edge 20, Type (0, 1), BuildingBlock: UVAHIK_clean_linker_0, # of connection points: 2
#     Edge 21, Type (0, 1), BuildingBlock: UVAHIK_clean_linker_0, # of connection points: 2
#     Edge 22, Type (0, 1), BuildingBlock: UVAHIK_clean_linker_0, # of connection points: 2
#     Edge 23, Type (0, 1), BuildingBlock: UVAHIK_clean_linker_0, # of connection points: 2
#     Edge 24, Type (0, 1), BuildingBlock: UVAHIK_clean_linker_0, # of connection points: 2
#     Edge 25, Type (0, 1), BuildingBlock: UVAHIK_clean_linker_0, # of connection points: 2
#     Edge 26, Type (0, 1), BuildingBlock: UVAHIK_clean_linker_0, # of connection points: 2
#     Edge 27, Type (0, 1), BuildingBlock: UVAHIK_clean_linker_0, # of connection points: 2
#     Edge 28, Type (0, 1), BuildingBlock: UVAHIK_clean_linker_0, # of connection points: 2
#     Edge 29, Type (0, 1), BuildingBlock: UVAHIK_clean_linker_0, # of connection points: 2
#     Edge 30, Type (0, 1), BuildingBlock: UVAHIK_clean_linker_0, # of connection points: 2
#     Edge 31, Type (0, 1), BuildingBlock: UVAHIK_clean_linker_0, # of connection points: 2
#     Edge 32, Type (0, 1), BuildingBlock: UVAHIK_clean_linker_0, # of connection points: 2
#     Edge 33, Type (0, 1), BuildingBlock: UVAHIK_clean_linker_0, # of connection points: 2
#     Edge 34, Type (0, 1), BuildingBlock: UVAHIK_clean_linker_0, # of connection points: 2
#     Edge 35, Type (0, 1), BuildingBlock: UVAHIK_clean_linker_0, # of connection points: 2
# Relax obj value: 0.144
# Max RMSD: 0.267
# Mean RMSD: 0.197
data_MOF--net-pyr--node1-BETDAH_clean_sbu_0--node2-QEWDON_clean_linker_0--edge1-UVAHIK_clean_linker_0
_symmetry_space_group_name_H-M    P1
_symmetry_Int_Tables_number       1
_symmetry_cell_setting            triclinic
loop_
_symmetry_equiv_pos_as_xyz
'x, y, z'
_cell_length_a     49.315347
_cell_length_b     52.230582
_cell_length_c     49.680741
_cell_angle_alpha  91.459348
_cell_angle_beta   89.167358
_cell_angle_gamma 107.57086
loop_
_atom_site_label
_atom_site_type_symbol
_atom_site_fract_x
_atom_site_fract_y
_atom_site_fract_z
_atom_type_partial_charge
H0 H 0.38892 0.32809 0.1982 0.0
C1 C 0.37482 0.32396 0.21554 0.0
C2 C 0.36992 0.29955 0.22898 0.0
C3 C 0.36073 0.34267 0.22347 0.0
H4 H 0.34639 0.27543 0.26126 0.0
C5 C 0.35046 0.29407 0.25062 0.0
C6 C 0.33551 0.31214 0.25825 0.0
C7 C 0.34092 0.33647 0.24475 0.0
C8 C 0.36637 0.36844 0.20915 0.0
H9 H 0.32988 0.3507 0.25109 0.0
C10 C 0.34393 0.37869 0.20291 0.0
C11 C 0.34914 0.4028 0.18891 0.0
C12 C 0.39423 0.38283 0.20137 0.0
H13 H 0.41202 0.37571 0.20621 0.0
C14 C 0.39951 0.40677 0.1875 0.0
H15 H 0.32226 0.36752 0.20823 0.0
C16 C 0.37714 0.4167 0.18121 0.0
H17 H 0.38177 0.4354 0.17059 0.0
H18 H 0.42104 0.41771 0.18165 0.0
H19 H 0.22827 0.88473 0.7306 0.0
C20 C 0.24123 0.87432 0.71983 0.0
C21 C 0.26906 0.87722 0.72841 0.0
C22 C 0.22953 0.85682 0.69821 0.0
H23 H 0.3069 0.86555 0.72076 0.0
C24 C 0.28539 0.86331 0.71433 0.0
C25 C 0.27401 0.846 0.69251 0.0
C26 C 0.24593 0.84269 0.68473 0.0
C27 C 0.19995 0.85269 0.68975 0.0
H28 H 0.23687 0.82937 0.66789 0.0
C29 C 0.19177 0.87412 0.67975 0.0
C30 C 0.16438 0.86963 0.66918 0.0
C31 C 0.18032 0.82685 0.68997 0.0
H32 H 0.18633 0.81008 0.69755 0.0
C33 C 0.15285 0.82246 0.68025 0.0
H34 H 0.20716 0.89394 0.67895 0.0
C35 C 0.14493 0.84366 0.6697 0.0
H36 H 0.12365 0.83975 0.66188 0.0
H37 H 0.13779 0.8025 0.68051 0.0
H38 H 0.6901 0.44477 0.89457 0.0
C39 C 0.68197 0.42411 0.90083 0.0
C40 C 0.69952 0.41249 0.91534 0.0
C41 C 0.65341 0.40962 0.89566 0.0
H42 H 0.70105 0.37686 0.93577 0.0
C43 C 0.68823 0.38575 0.92374 0.0
C44 C 0.65982 0.37094 0.91861 0.0
C45 C 0.64261 0.38307 0.90455 0.0
C46 C 0.63357 0.42315 0.88458 0.0
H47 H 0.62051 0.37196 0.90091 0.0
C48 C 0.63844 0.43628 0.8596 0.0
C49 C 0.61907 0.44918 0.85019 0.0
C50 C 0.60927 0.42305 0.89977 0.0
H51 H 0.60515 0.4133 0.91905 0.0
C52 C 0.59025 0.43579 0.89055 0.0
H53 H 0.65705 0.43645 0.84766 0.0
C54 C 0.59508 0.44877 0.86602 0.0
H55 H 0.57974 0.45825 0.8592 0.0
H56 H 0.57165 0.43559 0.90248 0.0
H57 H 0.89297 0.79175 0.36644 0.0
C58 C 0.87717 0.77663 0.37758 0.0
C59 C 0.87177 0.78149 0.40478 0.0
C60 C 0.86173 0.75275 0.36424 0.0
H61 H 0.84535 0.76623 0.43914 0.0
C62 C 0.85063 0.76191 0.41862 0.0
C63 C 0.83474 0.73786 0.40563 0.0
C64 C 0.84083 0.7333 0.37839 0.0
C65 C 0.8644 0.75054 0.33461 0.0
H66 H 0.82853 0.71521 0.36782 0.0
C67 C 0.87633 0.73186 0.32201 0.0
C68 C 0.88047 0.73208 0.2938 0.0
C69 C 0.8558 0.76856 0.31879 0.0
H70 H 0.84653 0.78299 0.3281 0.0
C71 C 0.85916 0.76827 0.29092 0.0
H72 H 0.88335 0.71811 0.33409 0.0
C73 C 0.87157 0.75032 0.27851 0.0
H74 H 0.87429 0.7507 0.25682 0.0
H75 H 0.85243 0.78223 0.27892 0.0
H76 H 0.72226 0.80053 0.92252 0.0
C77 C 0.73395 0.81515 0.90815 0.0
C78 C 0.76291 0.81842 0.90349 0.0
C79 C 0.72036 0.83154 0.89521 0.0
H80 H 0.8002 0.83981 0.88107 0.0
C81 C 0.77801 0.83774 0.88529 0.0
C82 C 0.76469 0.85389 0.87186 0.0
C83 C 0.73582 0.85076 0.8769 0.0
C84 C 0.69024 0.82901 0.90144 0.0
H85 H 0.72544 0.8633 0.86669 0.0
C86 C 0.68215 0.85181 0.90902 0.0
C87 C 0.65377 0.84941 0.91615 0.0
C88 C 0.66962 0.8037 0.90068 0.0
H89 H 0.67536 0.78587 0.89486 0.0
C90 C 0.64135 0.80122 0.90727 0.0
H91 H 0.69808 0.87136 0.90971 0.0
C92 C 0.63344 0.82384 0.91503 0.0
H93 H 0.6115 0.8212 0.92074 0.0
H94 H 0.62557 0.78163 0.90664 0.0
H95 H 0.73641 0.18314 0.54005 0.0
C96 C 0.73039 0.18432 0.51932 0.0
C97 C 0.74768 0.17941 0.49839 0.0
C98 C 0.70586 0.19146 0.51372 0.0
H99 H 0.75298 0.17662 0.45549 0.0
C100 C 0.74013 0.18141 0.47158 0.0
C101 C 0.71549 0.1883 0.46549 0.0
C102 C 0.69865 0.19358 0.48677 0.0
C103 C 0.6877 0.19657 0.53603 0.0
H104 H 0.6797 0.19906 0.48239 0.0
C105 C 0.67725 0.21878 0.53546 0.0
C106 C 0.65989 0.22375 0.55643 0.0
C107 C 0.68076 0.17933 0.55803 0.0
H108 H 0.6883 0.16192 0.55889 0.0
C109 C 0.66361 0.18415 0.57893 0.0
H110 H 0.68323 0.23258 0.51893 0.0
C111 C 0.65318 0.20618 0.57819 0.0
H112 H 0.63957 0.20923 0.59448 0.0
H113 H 0.65822 0.17067 0.59571 0.0
H114 H 0.41777 0.78625 0.24116 0.0
C115 C 0.39602 0.77551 0.23575 0.0
C116 C 0.38019 0.78819 0.22037 0.0
C117 C 0.38487 0.74827 0.24234 0.0
H118 H 0.34002 0.78261 0.20065 0.0
C119 C 0.35268 0.77313 0.21215 0.0
C120 C 0.34149 0.74568 0.21786 0.0
C121 C 0.35759 0.73348 0.23339 0.0
C122 C 0.40413 0.73402 0.25287 0.0
H123 H 0.34977 0.7121 0.23695 0.0
C124 C 0.40717 0.73067 0.28069 0.0
C125 C 0.42707 0.71815 0.28955 0.0
C126 C 0.42052 0.72433 0.23422 0.0
H127 H 0.41843 0.72672 0.21282 0.0
C128 C 0.43988 0.71172 0.24294 0.0
H129 H 0.39469 0.7382 0.29523 0.0
C130 C 0.44327 0.70877 0.27037 0.0
H131 H 0.45853 0.69896 0.27666 0.0
H132 H 0.45245 0.70436 0.22839 0.0
H133 H 0.23217 0.45602 0.76307 0.0
C134 C 0.2201 0.43877 0.75117 0.0
C135 C 0.2268 0.43637 0.72369 0.0
C136 C 0.19883 0.4182 0.76371 0.0
H137 H 0.21731 0.41065 0.68813 0.0
C138 C 0.21144 0.41331 0.70888 0.0
C139 C 0.1901 0.3926 0.7211 0.0
C140 C 0.18383 0.3954 0.74848 0.0
C141 C 0.19498 0.41813 0.79339 0.0
H142 H 0.16766 0.37944 0.75828 0.0
C143 C 0.18602 0.438 0.80754 0.0
C144 C 0.18164 0.43646 0.83577 0.0
C145 C 0.19981 0.39706 0.80764 0.0
H146 H 0.20678 0.38166 0.7972 0.0
C147 C 0.19571 0.39556 0.83538 0.0
H148 H 0.18224 0.45428 0.79663 0.0
C149 C 0.18658 0.41493 0.84933 0.0
H150 H 0.18282 0.41269 0.87079 0.0
H151 H 0.19934 0.37912 0.8461 0.0
Ho152 Ho 0.04106 0.10109 0.52761 0.0
Ho153 Ho 0.03281 0.07879 0.58414 0.0
C154 C 0.06834 0.13966 0.57897 0.0
C155 C 0.04494 0.12854 0.4844 0.0
C156 C 0.06815 0.14848 0.47045 0.0
C157 C 0.06297 0.17062 0.45866 0.0
C158 C 0.08458 0.18914 0.44449 0.0
C159 C 0.11174 0.18572 0.4417 0.0
C160 C 0.1169 0.16368 0.45402 0.0
C161 C 0.09541 0.14538 0.46839 0.0
C162 C 0.08058 0.07821 0.54356 0.0
C163 C 1.00557 0.0401 0.53285 0.0
C164 C 0.03008 0.05183 0.62758 0.0
C165 C 0.0073 0.03333 0.64311 0.0
C166 C 0.01425 0.01872 0.66373 0.0
C167 C 0.99295 1.00301 0.68038 0.0
C168 C 0.96431 1.00178 0.67676 0.0
C169 C 0.95736 1.01574 0.65536 0.0
C170 C 0.97871 0.03138 0.63865 0.0
C171 C 0.99297 0.10131 0.56859 0.0
O172 O 0.05725 0.13822 0.55465 0.0
O173 O 0.06661 0.11765 0.5923 0.0
O174 O 0.04674 0.10409 0.4846 0.0
O175 O 0.03682 0.13615 0.50764 0.0
O176 O 0.07207 0.07751 0.51898 0.0
O177 O 0.06953 0.09273 0.55753 0.0
O178 O 0.01672 0.04167 0.55717 0.0
O179 O 0.00741 0.06204 0.51929 0.0
O180 O 0.02928 0.07659 0.62734 0.0
O181 O 0.03573 0.04316 0.60387 0.0
O182 O 1.0012 0.10143 0.59319 0.0
O183 O 1.00395 0.087 0.55418 0.0
H184 H 0.04213 0.17347 0.46024 0.0
H185 H 0.07995 0.2061 0.43569 0.0
H186 H 0.13735 0.16009 0.452 0.0
H187 H 0.10003 0.12854 0.47749 0.0
H188 H 0.03623 0.01993 0.66733 0.0
H189 H 0.99895 0.99209 0.69633 0.0
H190 H 0.93559 1.0154 0.65213 0.0
H191 H 0.97301 0.04258 0.62274 0.0
Ho192 Ho 0.55408 0.09625 0.09038 0.0
Ho193 Ho 0.49304 0.06768 0.05907 0.0
C194 C 0.49693 0.111 0.10797 0.0
C195 C 0.60148 0.12855 0.10762 0.0
C196 C 0.6124 0.13609 0.13497 0.0
C197 C 0.63556 0.15907 0.13959 0.0
C198 C 0.64482 0.16691 0.16591 0.0
C199 C 0.63094 0.15186 0.18796 0.0
C200 C 0.60795 0.12864 0.18304 0.0
C201 C 0.5987 0.12094 0.15685 0.0
C202 C 0.52028 0.05154 0.11553 0.0
C203 C 0.55002 0.05253 0.04195 0.0
C204 C 0.44436 0.03588 0.04417 0.0
C205 C 0.42921 0.02838 0.01857 0.0
C206 C 0.40663 1.00456 1.01657 0.0
C207 C 0.39249 0.99677 0.99214 0.0
C208 C 0.40072 1.01274 0.96927 0.0
C209 C 0.42327 0.0368 0.97151 0.0
C210 C 0.43745 0.04451 0.99594 0.0
C211 C 0.52689 0.11205 0.03358 0.0
O212 O 0.52513 0.11833 0.10781 0.0
O213 O 0.48068 0.09025 0.09385 0.0
O214 O 0.59838 0.10358 0.10004 0.0
O215 O 0.57958 0.13647 0.10149 0.0
O216 O 0.54518 0.06566 0.12407 0.0
O217 O 0.5156 0.0628 0.0949 0.0
O218 O 0.52182 0.04485 0.04315 0.0
O219 O 0.56652 0.07382 0.0553 0.0
O220 O 0.44817 0.06064 0.05281 0.0
O221 O 0.467 0.02799 0.04676 0.0
O222 O 0.50227 0.09752 0.02465 0.0
O223 O 0.53127 0.10137 0.05472 0.0
H224 H 0.6462 0.17113 0.1229 0.0
H225 H 0.66243 0.18501 0.16902 0.0
H226 H 0.5971 0.11629 0.19945 0.0
H227 H 0.58067 0.10323 0.15372 0.0
H228 H 0.40014 0.9918 0.03384 0.0
H229 H 0.37556 0.97791 0.99103 0.0
H230 H 0.42995 0.04971 0.9544 0.0
H231 H 0.45491 0.06299 0.99712 0.0
Ho232 Ho 0.53219 0.56724 0.55119 0.0
Ho233 Ho 0.53425 0.61417 0.58809 0.0
C234 C 0.55656 0.5685 0.61241 0.0
C235 C 0.54343 0.53003 0.52197 0.0
C236 C 0.55179 0.50577 0.52665 0.0
C237 C 0.57194 0.5055 0.54625 0.0
C238 C 0.57976 0.48227 0.55007 0.0
C239 C 0.56746 0.45887 0.53447 0.0
C240 C 0.54698 0.4592 0.51516 0.0
C241 C 0.5393 0.48246 0.51126 0.0
C242 C 0.48291 0.56355 0.57757 0.0
C243 C 0.50947 0.61232 0.52762 0.0
C244 C 0.52441 0.65184 0.6178 0.0
C245 C 0.50513 0.66836 0.61813 0.0
C246 C 0.48229 0.66305 0.60019 0.0
C247 C 0.46309 0.67802 0.60204 0.0
C248 C 0.46642 0.69833 0.62196 0.0
C249 C 0.4898 0.70395 0.6394 0.0
C250 C 0.50899 0.68906 0.63747 0.0
C251 C 0.58324 0.61749 0.56117 0.0
O252 O 0.55408 0.55755 0.58784 0.0
O253 O 0.5482 0.58977 0.61814 0.0
O254 O 0.51769 0.52908 0.5296 0.0
O255 O 0.56225 0.5531 0.52785 0.0
O256 O 0.48443 0.55544 0.55287 0.0
O257 O 0.50751 0.5721 0.58742 0.0
O258 O 0.5076 0.62004 0.55304 0.0
O259 O 0.52253 0.59433 0.52125 0.0
O260 O 0.54353 0.65639 0.59858 0.0
O261 O 0.51249 0.62623 0.62177 0.0
O262 O 0.58218 0.62553 0.58596 0.0
O263 O 0.55848 0.60924 0.55178 0.0
H264 H 0.58182 0.52326 0.55846 0.0
H265 H 0.5958 0.48282 0.56492 0.0
H266 H 0.53669 0.44141 0.50314 0.0
H267 H 0.52356 0.48224 0.49619 0.0
H268 H 0.47896 0.64701 0.58521 0.0
H269 H 0.44515 0.67311 0.58848 0.0
H270 H 0.49313 0.71972 0.65469 0.0
H271 H 0.52659 0.69342 0.65141 0.0
Ho272 Ho 0.02345 0.55026 0.07361 0.0
Ho273 Ho 0.02123 0.60457 0.05465 0.0
C274 C 0.07576 0.60425 0.08761 0.0
C275 C 0.03782 0.50765 0.08294 0.0
C276 C 0.06297 0.50165 0.09333 0.0
C277 C 0.07169 0.48103 0.08091 0.0
C278 C 0.09594 0.47535 0.08976 0.0
C279 C 0.11181 0.49009 0.11135 0.0
C280 C 0.103 0.51072 0.12387 0.0
C281 C 0.07886 0.5166 0.1148 0.0
C282 C 0.99614 0.57602 0.10707 0.0
C283 C 0.9686 0.55046 0.04082 0.0
C284 C 0.00801 0.64782 0.04555 0.0
C285 C 0.98609 0.65638 0.03175 0.0
C286 C 0.9569 0.64349 0.03568 0.0
C287 C 0.93667 0.65373 0.02424 0.0
C288 C 0.94529 0.67697 1.00865 0.0
C289 C 0.97451 0.68905 1.0039 0.0
C290 C 0.99467 0.67892 1.01543 0.0
C291 C 0.0492 0.57935 0.02132 0.0
O292 O 0.06769 0.57787 0.08334 0.0
O293 O 0.05922 0.6189 0.08127 0.0
O294 O 0.02331 0.51794 0.10001 0.0
O295 O 0.04122 0.51919 0.05959 0.0
O296 O 0.98812 0.55014 0.10322 0.0
O297 O 0.01874 0.58649 0.09411 0.0
O298 O 0.97739 0.57702 0.04365 0.0
O299 O 0.98434 0.53549 0.04846 0.0
O300 O 0.02556 0.63942 0.03028 0.0
O301 O 1.00009 0.63354 0.06714 0.0
O302 O 0.05672 0.60517 0.02533 0.0
O303 O 0.02644 0.56851 0.03398 0.0
H304 H 0.05977 0.46939 0.06423 0.0
H305 H 0.10211 0.4592 0.07991 0.0
H306 H 0.11504 0.52256 0.14037 0.0
H307 H 0.07275 0.53288 0.12445 0.0
H308 H 0.94972 0.62594 0.04811 0.0
H309 H 0.91435 0.644 0.02839 0.0
H310 H 0.98188 0.7066 0.9915 0.0
H311 H 0.01706 0.68906 1.01203 0.0
C312 C 0.28605 0.30739 0.27463 0.0
C313 C 0.31313 0.30486 0.27938 0.0
C314 C 0.26411 0.29834 0.29343 0.0
C315 C 0.24837 0.28022 0.36424 0.0
H316 H 0.17799 0.23188 0.33619 0.0
C317 C 0.16309 0.21091 0.43249 0.0
C318 C 0.13432 0.20429 0.42514 0.0
C319 C 0.18447 0.22634 0.41572 0.0
C320 C 0.19722 0.24576 0.34441 0.0
H321 H 0.33886 0.29194 0.30793 0.0
H322 H 0.30047 0.27625 0.34096 0.0
H323 H 0.21621 0.25364 0.30528 0.0
H324 H 0.10556 0.20967 0.39462 0.0
H325 H 0.14267 0.23756 0.36607 0.0
H326 H 0.22941 0.27249 0.40338 0.0
C327 C 0.29625 0.28519 0.32267 0.0
C328 C 0.21918 0.25815 0.32664 0.0
C329 C 0.31812 0.29396 0.30371 0.0
C330 C 0.12743 0.21449 0.4011 0.0
C331 C 0.1488 0.23018 0.38448 0.0
C332 C 0.22626 0.26806 0.38204 0.0
C333 C 0.2689 0.28685 0.31748 0.0
C334 C 0.24508 0.27524 0.33639 0.0
C335 C 0.17764 0.23586 0.39128 0.0
C336 C 0.20051 0.25039 0.37237 0.0
H337 H 0.28156 0.31553 0.25596 0.0
H338 H 0.24327 0.30002 0.28903 0.0
H339 H 0.26805 0.29353 0.37226 0.0
H340 H 0.1692 0.20385 0.45109 0.0
H341 H 0.20641 0.23006 0.42158 0.0
C342 C 0.29606 0.8836 0.7715 0.0
C343 C 0.28092 0.89358 0.75279 0.0
C344 C 0.3085 0.89911 0.79386 0.0
C345 C 0.30648 0.95634 0.8376 0.0
H346 H 0.38202 0.95504 0.85673 0.0
C347 C 0.35696 0.99116 0.9418 0.0
C348 C 0.38648 1.00378 0.94301 0.0
C349 C 0.34395 0.981 0.91735 0.0
C350 C 0.36109 0.95597 0.85152 0.0
H351 H 0.26626 0.92744 0.74327 0.0
H352 H 0.28811 0.95474 0.78264 0.0
H353 H 0.35959 0.93115 0.81637 0.0
H354 H 0.42531 1.01622 0.91922 0.0
H355 H 0.40254 0.99908 0.87654 0.0
H356 H 0.30813 0.98129 0.87285 0.0
C357 C 0.29025 0.9348 0.7799 0.0
C358 C 0.34808 0.94197 0.82855 0.0
C359 C 0.27776 0.9192 0.75739 0.0
C360 C 0.40251 1.0068 0.91903 0.0
C361 C 0.3895 0.9967 0.89458 0.0
C362 C 0.31953 0.97038 0.86068 0.0
C363 C 0.30611 0.92503 0.79815 0.0
C364 C 0.32046 0.94162 0.82154 0.0
C365 C 0.36016 0.98324 0.89352 0.0
C366 C 0.34687 0.97008 0.86806 0.0
H367 H 0.29827 0.86366 0.76891 0.0
H368 H 0.31995 0.89072 0.8079 0.0
H369 H 0.28515 0.95639 0.83276 0.0
H370 H 0.34392 0.98886 0.95984 0.0
H371 H 0.32134 0.97057 0.9173 0.0
C372 C 0.62008 0.4888 0.82249 0.0
C373 C 0.62276 0.46283 0.82384 0.0
C374 C 0.61847 0.50026 0.79768 0.0
C375 C 0.59624 0.48103 0.72772 0.0
H376 H 0.62718 0.55762 0.71672 0.0
C377 C 0.57475 0.53195 0.63045 0.0
C378 C 0.56825 0.55624 0.63449 0.0
C379 C 0.58496 0.52027 0.6517 0.0
C380 C 0.61822 0.5362 0.71949 0.0
H381 H 0.62695 0.42888 0.80013 0.0
H382 H 0.6243 0.44899 0.75645 0.0
H383 H 0.64001 0.53807 0.7568 0.0
H384 H 0.56773 0.58729 0.6642 0.0
H385 H 0.5852 0.56699 0.70094 0.0
H386 H 0.57393 0.47931 0.69065 0.0
C387 C 0.62325 0.46042 0.77472 0.0
C388 C 0.62564 0.52497 0.74249 0.0
C389 C 0.62512 0.44901 0.79969 0.0
C390 C 0.57251 0.56863 0.66021 0.0
C391 C 0.58278 0.55704 0.68134 0.0
C392 C 0.5888 0.49229 0.70466 0.0
C393 C 0.61933 0.48601 0.77342 0.0
C394 C 0.61428 0.49732 0.74725 0.0
C395 C 0.58909 0.53267 0.67746 0.0
C396 C 0.59919 0.52014 0.70053 0.0
H397 H 0.61819 0.49992 0.84077 0.0
H398 H 0.61517 0.51984 0.79759 0.0
H399 H 0.58682 0.45972 0.7308 0.0
H400 H 0.57173 0.52179 0.61095 0.0
H401 H 0.58978 0.50159 0.6479 0.0
C402 C 0.91833 0.72585 0.26284 0.0
C403 C 0.89494 0.71438 0.2797 0.0
C404 C 0.92963 0.70972 0.24608 0.0
C405 C 0.93005 0.63947 0.23142 0.0
H406 H 0.95174 0.66765 0.16017 0.0
C407 C 0.95984 0.57721 0.14276 0.0
C408 C 0.98369 0.59071 0.12724 0.0
C409 C 0.94858 0.59125 0.16215 0.0
C410 C 0.94603 0.65956 0.18003 0.0
H411 H 0.8657 0.67697 0.29309 0.0
H412 H 0.88518 0.64847 0.26335 0.0
H413 H 0.93356 0.69364 0.1931 0.0
H414 H 0.01466 0.62938 0.12011 0.0
H415 H 0.9949 0.65386 0.15355 0.0
H416 H 0.9423 0.60513 0.2179 0.0
C417 C 0.89505 0.67002 0.26333 0.0
C418 C 0.93567 0.67453 0.19903 0.0
C419 C 0.88387 0.68628 0.28039 0.0
C420 C 0.99605 0.61846 0.1315 0.0
C421 C 0.98469 0.6325 0.15067 0.0
C422 C 0.94031 0.62437 0.21227 0.0
C423 C 0.91761 0.68161 0.24541 0.0
C424 C 0.92788 0.66491 0.22513 0.0
C425 C 0.9608 0.61911 0.16624 0.0
C426 C 0.94872 0.6344 0.18643 0.0
H427 H 0.92744 0.74748 0.26212 0.0
H428 H 0.94753 0.71939 0.23323 0.0
H429 H 0.92443 0.63146 0.25132 0.0
H430 H 0.94992 0.5558 0.13995 0.0
H431 H 0.93004 0.58037 0.17366 0.0
C432 C 0.36989 0.25169 0.22063 0.0
C433 C 0.38423 0.27944 0.21967 0.0
C434 C 0.38288 0.23289 0.21092 0.0
C435 C 0.43108 0.2233 0.16016 0.0
H436 H 0.44142 0.16597 0.20317 0.0
C437 C 0.4564 0.12974 0.11564 0.0
C438 C 0.48285 0.12776 0.12378 0.0
C439 C 0.4443 0.14759 0.12888 0.0
C440 C 0.43859 0.1819 0.19103 0.0
H441 H 0.42407 0.30886 0.20836 0.0
H442 H 0.44597 0.27594 0.19013 0.0
H443 H 0.42068 0.19915 0.22386 0.0
H444 H 0.51681 0.14201 0.15284 0.0
H445 H 0.49497 0.17262 0.17663 0.0
H446 H 0.4481 0.20563 0.12714 0.0
C447 C 0.42475 0.26898 0.19869 0.0
C448 C 0.42674 0.20074 0.20278 0.0
C449 C 0.41205 0.28778 0.20894 0.0
C450 C 0.49644 0.1432 0.14609 0.0
C451 C 0.48397 0.1606 0.15973 0.0
C452 C 0.44226 0.20413 0.14829 0.0
C453 C 0.41022 0.24142 0.19953 0.0
C454 C 0.42304 0.22164 0.18743 0.0
C455 C 0.4581 0.16327 0.15087 0.0
C456 C 0.44615 0.18334 0.16364 0.0
H457 H 0.34829 0.24438 0.22817 0.0
H458 H 0.3712 0.2117 0.21149 0.0
H459 H 0.42823 0.23918 0.14795 0.0
H460 H 0.44553 0.11824 0.09841 0.0
H461 H 0.42428 0.14936 0.12179 0.0
C462 C 0.16227 0.917 0.669 0.0
C463 C 0.15662 0.89165 0.65627 0.0
C464 C 0.15518 0.93777 0.6565 0.0
C465 C 0.11034 0.95016 0.60174 0.0
H466 H 0.15923 0.02359 0.60955 0.0
C467 C 0.09488 0.03634 0.53967 0.0
C468 C 0.0935 0.05893 0.55487 0.0
C469 C 0.10422 1.01654 0.55146 0.0
C470 C 0.14537 1.00317 0.6073 0.0
H471 H 0.13991 0.86827 0.62028 0.0
H472 H 0.12822 0.90457 0.59812 0.0
H473 H 0.17205 0.98757 0.63142 0.0
H474 H 0.10163 0.07916 0.59388 0.0
H475 H 0.11849 0.04473 0.61439 0.0
H476 H 0.08399 0.96582 0.5772 0.0
C477 C 0.13727 0.90832 0.6181 0.0
C478 C 0.15258 0.98254 0.61994 0.0
C479 C 0.14402 0.88751 0.63074 0.0
C480 C 0.10259 0.06192 0.58174 0.0
C481 C 0.11228 0.0423 0.59343 0.0
C482 C 0.10336 0.97073 0.58886 0.0
C483 C 0.14264 0.93371 0.63084 0.0
C484 C 0.13511 0.95576 0.61738 0.0
C485 C 0.1127 0.01921 0.57854 0.0
C486 C 0.12075 0.99742 0.59157 0.0
H487 H 0.17182 0.92064 0.68879 0.0
H488 H 0.15921 0.9569 0.66713 0.0
H489 H 0.09605 0.9299 0.59975 0.0
H490 H 0.08786 0.03353 0.51894 0.0
H491 H 0.10456 0.999 0.53951 0.0
C492 C 0.75076 0.41683 0.92526 0.0
C493 C 0.7287 0.4287 0.92404 0.0
C494 C 0.77707 0.4309 0.93647 0.0
C495 C 0.82393 0.49854 0.9555 0.0
H496 H 0.85411 0.45982 1.00694 0.0
C497 C 0.92178 0.55156 0.02196 0.0
C498 C 0.94093 0.53716 0.0275 0.0
C499 C 0.89594 0.53892 1.00902 0.0
C500 C 0.84631 0.4709 0.99235 0.0
H501 H 0.71767 0.46522 0.93305 0.0
H502 H 0.7638 0.4899 0.95204 0.0
H503 H 0.81001 0.43708 0.98371 0.0
H504 H 0.94792 0.49817 0.02334 0.0
H505 H 0.90351 0.47646 1.00035 0.0
H506 H 0.86044 0.53228 0.96384 0.0
C507 C 0.76063 0.46965 0.94429 0.0
C508 C 0.82092 0.45782 0.97904 0.0
C509 C 0.73419 0.45549 0.93326 0.0
C510 C 0.93362 0.50987 0.01968 0.0
C511 C 0.90796 0.49733 1.00657 0.0
C512 C 0.84953 0.5116 0.96865 0.0
C513 C 0.78218 0.45731 0.94656 0.0
C514 C 0.80942 0.47142 0.96041 0.0
C515 C 0.88866 0.51161 1.0011 0.0
C516 C 0.86114 0.49794 0.98725 0.0
H517 H 0.74757 0.39644 0.9179 0.0
H518 H 0.7934 0.42098 0.93744 0.0
H519 H 0.81573 0.50954 0.94112 0.0
H520 H 0.92665 0.57258 0.02775 0.0
H521 H 0.88153 0.55054 1.00554 0.0
C522 C 0.78422 0.70724 0.40648 0.0
C523 C 0.81007 0.71909 0.4199 0.0
C524 C 0.7601 0.69223 0.42057 0.0
C525 C 0.73552 0.65937 0.48639 0.0
H526 H 0.66434 0.67107 0.46713 0.0
C527 C 0.63622 0.63522 0.55643 0.0
C528 C 0.60945 0.62418 0.5445 0.0
C529 C 0.66083 0.64351 0.54047 0.0
C530 C 0.68395 0.66727 0.47256 0.0
H531 H 0.83099 0.72306 0.45857 0.0
H532 H 0.78885 0.6978 0.48324 0.0
H533 H 0.70694 0.69125 0.44062 0.0
H534 H 0.58747 0.61231 0.50661 0.0
H535 H 0.6304 0.62689 0.47872 0.0
H536 H 0.71244 0.63607 0.51894 0.0
C537 C 0.78721 0.69978 0.46173 0.0
C538 C 0.70845 0.6788 0.45728 0.0
C539 C 0.81138 0.7146 0.4476 0.0
C540 C 0.60782 0.62087 0.51636 0.0
C541 C 0.63238 0.62934 0.50039 0.0
C542 C 0.71102 0.64802 0.50182 0.0
C543 C 0.76106 0.68881 0.44852 0.0
C544 C 0.73466 0.67517 0.46404 0.0
C545 C 0.65914 0.64109 0.51223 0.0
C546 C 0.68498 0.65197 0.49517 0.0
H547 H 0.78221 0.71041 0.38524 0.0
H548 H 0.74054 0.68369 0.40955 0.0
H549 H 0.75515 0.65574 0.492 0.0
H550 H 0.6381 0.63797 0.57808 0.0
H551 H 0.68107 0.65265 0.55021 0.0
C552 C 0.3232 0.42244 0.15614 0.0
C553 C 0.32535 0.41328 0.18212 0.0
C554 C 0.30067 0.4321 0.14962 0.0
C555 C 0.22829 0.43102 0.17229 0.0
H556 H 0.24085 0.49009 0.12317 0.0
C557 C 0.14151 0.48077 0.14822 0.0
C558 C 0.13745 0.48382 0.12069 0.0
C559 C 0.16504 0.47357 0.15682 0.0
C560 C 0.23704 0.47352 0.13683 0.0
H561 H 0.30596 0.4075 0.2218 0.0
H562 H 0.26691 0.4249 0.21066 0.0
H563 H 0.28082 0.47496 0.13639 0.0
H564 H 0.15517 0.48258 0.08068 0.0
H565 H 0.19638 0.47019 0.09572 0.0
H566 H 0.18449 0.42987 0.17285 0.0
C567 C 0.28222 0.42405 0.19508 0.0
C568 C 0.25989 0.46474 0.14433 0.0
C569 C 0.30462 0.41414 0.20152 0.0
C570 C 0.15768 0.48014 0.102 0.0
C571 C 0.18135 0.47327 0.11062 0.0
C572 C 0.2055 0.43999 0.16498 0.0
C573 C 0.2799 0.43308 0.16902 0.0
C574 C 0.25577 0.44318 0.16193 0.0
C575 C 0.18513 0.46966 0.13808 0.0
C576 C 0.20959 0.46114 0.14697 0.0
H577 H 0.33867 0.42167 0.14069 0.0
H578 H 0.2993 0.43836 0.12921 0.0
H579 H 0.22419 0.41411 0.18554 0.0
H580 H 0.12616 0.48335 0.16303 0.0
H581 H 0.16755 0.47109 0.17813 0.0
C582 C 0.66222 0.32429 0.92699 0.0
C583 C 0.64762 0.34357 0.92972 0.0
C584 C 0.65101 0.29881 0.9381 0.0
C585 C 0.60281 0.26293 0.99135 0.0
H586 H 0.59886 0.19861 0.94882 0.0
C587 C 0.56583 0.15617 0.03622 0.0
C588 C 0.54469 0.13724 0.02142 0.0
C589 C 0.58057 0.18101 0.02515 0.0
C590 C 0.59989 0.2164 0.96096 0.0
H591 H 0.60999 0.35129 0.94659 0.0
H592 H 0.59057 0.30693 0.96615 0.0
H593 H 0.61993 0.24285 0.92927 0.0
H594 H 0.52292 0.12905 0.98314 0.0
H595 H 0.549 0.17204 0.96359 0.0
H596 H 0.58267 0.23651 0.02299 0.0
C597 C 0.61063 0.31149 0.95532 0.0
C598 C 0.6121 0.24172 0.94982 0.0
C599 C 0.62161 0.3368 0.94389 0.0
C600 C 0.53917 0.14325 0.99503 0.0
C601 C 0.55417 0.16783 0.98379 0.0
C602 C 0.591 0.23763 1.00262 0.0
C603 C 0.62519 0.29219 0.95257 0.0
C604 C 0.61338 0.26527 0.96478 0.0
C605 C 0.57475 0.18718 0.99885 0.0
C606 C 0.5891 0.21406 0.98746 0.0
H607 H 0.68227 0.3289 0.91614 0.0
H608 H 0.6628 0.28442 0.93575 0.0
H609 H 0.60371 0.28071 1.00346 0.0
H610 H 0.57034 0.15217 0.05659 0.0
H611 H 0.59641 0.19545 0.03721 0.0
C612 C 0.89057 0.83196 0.40453 0.0
C613 C 0.88655 0.80781 0.41817 0.0
C614 C 0.90333 0.85675 0.41738 0.0
C615 C 0.94925 0.88874 0.47476 0.0
H616 H 0.91721 0.94695 0.46402 0.0
C617 C 0.98805 0.98967 0.53476 0.0
C618 C 0.9907 1.01334 0.52067 0.0
C619 C 0.97493 0.96443 0.52286 0.0
C620 C 0.92666 0.93104 0.46702 0.0
H621 H 0.89327 0.79088 0.45598 0.0
H622 H 0.91537 0.83419 0.4785 0.0
H623 H 0.89573 0.90344 0.44201 0.0
H624 H 0.98151 0.02888 0.48292 0.0
H625 H 0.95901 0.98503 0.46212 0.0
H626 H 0.98033 0.91639 0.49962 0.0
C627 C 0.90879 0.83392 0.45777 0.0
C628 C 0.91432 0.90605 0.45438 0.0
C629 C 0.8959 0.8091 0.44494 0.0
C630 C 0.97972 1.01112 0.49446 0.0
C631 C 0.96666 0.98591 0.48255 0.0
C632 C 0.96167 0.91378 0.48735 0.0
C633 C 0.91247 0.85808 0.44421 0.0
C634 C 0.9255 0.88459 0.458 0.0
C635 C 0.96415 0.9622 0.49654 0.0
C636 C 0.9506 0.93531 0.48358 0.0
H637 H 0.88331 0.83177 0.38403 0.0
H638 H 0.90611 0.87492 0.40621 0.0
H639 H 0.95864 0.87277 0.47774 0.0
H640 H 0.99623 0.99058 0.555 0.0
H641 H 0.97306 0.94666 0.5344 0.0
C642 C 0.32007 0.84288 0.67287 0.0
C643 C 0.29117 0.83055 0.67877 0.0
C644 C 0.33688 0.82779 0.66218 0.0
C645 C 0.34074 0.759 0.6614 0.0
H646 H 0.4017 0.78621 0.60965 0.0
C647 C 0.43517 0.71701 0.65145 0.0
C648 C 0.44493 0.7128 0.62551 0.0
C649 C 0.41477 0.73035 0.65509 0.0
C650 C 0.38456 0.77821 0.62389 0.0
H651 H 0.257 0.79293 0.67724 0.0
H652 H 0.28627 0.76666 0.65821 0.0
H653 H 0.36824 0.81155 0.61966 0.0
H654 H 0.44109 0.71938 0.58301 0.0
H655 H 0.40517 0.74278 0.58941 0.0
H656 H 0.35714 0.72585 0.66587 0.0
C657 C 0.29599 0.78794 0.66213 0.0
C658 C 0.36558 0.79282 0.62979 0.0
C659 C 0.27917 0.80303 0.67278 0.0
C660 C 0.43382 0.72223 0.60323 0.0
C661 C 0.41347 0.73577 0.6069 0.0
C662 C 0.35974 0.74449 0.65559 0.0
C663 C 0.32514 0.80005 0.65721 0.0
C664 C 0.34372 0.78354 0.6489 0.0
C665 C 0.40366 0.73984 0.63288 0.0
C666 C 0.38213 0.75416 0.63714 0.0
H667 H 0.32982 0.86413 0.67695 0.0
H668 H 0.35932 0.83768 0.65881 0.0
H669 H 0.32433 0.75143 0.67643 0.0
H670 H 0.44308 0.7097 0.66899 0.0
H671 H 0.40791 0.73349 0.67539 0.0
C672 C 0.80832 0.89058 0.85946 0.0
C673 C 0.78137 0.87352 0.85231 0.0
C674 C 0.82621 0.90612 0.84012 0.0
C675 C 0.83005 0.93194 0.77098 0.0
H676 H 0.90806 0.93048 0.77522 0.0
C677 C 0.91487 0.97195 0.68718 0.0
C678 C 0.94208 0.98711 0.69606 0.0
C679 C 0.89404 0.95848 0.70563 0.0
C680 C 0.88644 0.93132 0.77388 0.0
H681 H 0.7513 0.8603 0.81974 0.0
H682 H 0.78279 0.88739 0.78564 0.0
H683 H 0.87352 0.90749 0.80875 0.0
H684 H 0.96834 1.00072 0.73139 0.0
H685 H 0.93223 0.97711 0.76337 0.0
H686 H 0.8432 0.95572 0.73583 0.0
C687 C 0.78999 0.8889 0.80627 0.0
C688 C 0.86663 0.9182 0.79315 0.0
C689 C 0.77196 0.87342 0.82575 0.0
C690 C 0.94786 0.9887 0.72377 0.0
C691 C 0.92713 0.97523 0.74214 0.0
C692 C 0.84995 0.94508 0.75158 0.0
C693 C 0.81764 0.90479 0.81313 0.0
C694 C 0.83829 0.91859 0.79214 0.0
C695 C 0.90003 0.95987 0.73329 0.0
C696 C 0.87843 0.94512 0.75303 0.0
H697 H 0.81589 0.89129 0.87991 0.0
H698 H 0.84708 0.91869 0.84621 0.0
H699 H 0.8084 0.93267 0.7697 0.0
H700 H 0.9098 0.97015 0.66594 0.0
H701 H 0.87343 0.94659 0.6982 0.0
C702 C 0.67793 0.17866 0.4298 0.0
C703 C 0.70674 0.18873 0.43698 0.0
C704 C 0.6698 0.17751 0.40288 0.0
C705 C 0.69522 0.20234 0.33463 0.0
H706 H 0.63558 0.1386 0.31158 0.0
C707 C 0.66909 0.16986 0.2227 0.0
C708 C 0.64009 0.16014 0.21607 0.0
C709 C 0.67745 0.17581 0.24952 0.0
C710 C 0.65207 0.15665 0.31776 0.0
H711 H 0.74949 0.20644 0.4214 0.0
H712 H 0.73542 0.20341 0.37437 0.0
H713 H 0.64968 0.14428 0.35855 0.0
H714 H 0.59717 0.15062 0.23229 0.0
H715 H 0.61178 0.16054 0.27897 0.0
H716 H 0.69794 0.2142 0.29339 0.0
C717 C 0.71903 0.19678 0.3896 0.0
C718 C 0.6601 0.15999 0.34473 0.0
C719 C 0.72715 0.19817 0.41657 0.0
C720 C 0.61968 0.1574 0.23674 0.0
C721 C 0.62802 0.16316 0.26348 0.0
C722 C 0.68732 0.19886 0.30751 0.0
C723 C 0.69027 0.1861 0.38238 0.0
C724 C 0.6817 0.18292 0.35358 0.0
C725 C 0.65697 0.17201 0.27021 0.0
C726 C 0.66557 0.17602 0.29886 0.0
H727 H 0.66162 0.17094 0.44487 0.0
H728 H 0.6474 0.16963 0.39816 0.0
H729 H 0.7117 0.22039 0.34077 0.0
H730 H 0.68535 0.17201 0.2073 0.0
H731 H 0.69993 0.18245 0.25417 0.0
C732 C 0.45956 0.72492 0.32887 0.0
C733 C 0.43195 0.71469 0.3185 0.0
C734 C 0.46619 0.71722 0.35406 0.0
C735 C 0.43649 0.68156 0.41719 0.0
H736 H 0.5076 0.6642 0.41549 0.0
C737 C 0.48505 0.645 0.51068 0.0
C738 C 0.49776 0.62455 0.50555 0.0
C739 C 0.47544 0.65714 0.48936 0.0
C740 C 0.48761 0.66879 0.41635 0.0
H741 H 0.38924 0.68943 0.32692 0.0
H742 H 0.40083 0.67556 0.37109 0.0
H743 H 0.49353 0.68411 0.37657 0.0
H744 H 0.50938 0.60036 0.47386 0.0
H745 H 0.49264 0.62121 0.43715 0.0
H746 H 0.43047 0.66542 0.45699 0.0
C747 C 0.41733 0.68987 0.35986 0.0
C748 C 0.47967 0.68061 0.39408 0.0
C749 C 0.41063 0.69781 0.33459 0.0
C750 C 0.49998 0.61618 0.47869 0.0
C751 C 0.49048 0.62827 0.45752 0.0
C752 C 0.44454 0.66975 0.43965 0.0
C753 C 0.44547 0.69873 0.36947 0.0
C754 C 0.45397 0.6871 0.39406 0.0
C755 C 0.47846 0.64918 0.46245 0.0
C756 C 0.47008 0.66294 0.43936 0.0
H757 H 0.47637 0.73804 0.31689 0.0
H758 H 0.4879 0.72504 0.36105 0.0
H759 H 0.41663 0.68639 0.41796 0.0
H760 H 0.48294 0.65195 0.5311 0.0
H761 H 0.46637 0.67324 0.4939 0.0
C762 C 0.14846 0.46488 0.84204 0.0
C763 C 0.17091 0.4562 0.85153 0.0
C764 C 0.13569 0.48006 0.85885 0.0
C765 C 0.12229 0.48978 0.93048 0.0
H766 H 0.10416 0.55381 0.90993 0.0
C767 C 0.05159 0.53766 0.9963 0.0
C768 C 0.06245 0.56552 1.00099 0.0
C769 C 0.06432 0.52474 0.97712 0.0
C770 C 0.10911 0.53594 0.91592 0.0
H771 H 0.19897 0.45868 0.88539 0.0
H772 H 0.17643 0.48452 0.91462 0.0
H773 H 0.12817 0.53147 0.87759 0.0
H774 H 0.09478 0.60176 0.98886 0.0
H775 H 0.1167 0.57926 0.95504 0.0
H776 H 0.10318 0.49405 0.96868 0.0
C777 C 0.16837 0.47922 0.89441 0.0
C778 C 0.12267 0.52309 0.89737 0.0
C779 C 0.18127 0.46439 0.87761 0.0
C780 C 0.08598 0.58025 0.98576 0.0
C781 C 0.09843 0.5674 0.96629 0.0
C782 C 0.10835 0.50234 0.94882 0.0
C783 C 0.14499 0.48666 0.8855 0.0
C784 C 0.1297 0.50003 0.90458 0.0
C785 C 0.08788 0.53947 0.96186 0.0
C786 C 0.1018 0.52569 0.94187 0.0
H787 H 0.13983 0.45884 0.82215 0.0
H788 H 0.11771 0.48555 0.85143 0.0
H789 H 0.12716 0.47189 0.93653 0.0
H790 H 0.0332 0.52584 1.00739 0.0
H791 H 0.05553 0.50323 0.97399 0.0
C792 C 0.61936 0.87643 0.91805 0.0
C793 C 0.64547 0.87325 0.92569 0.0
C794 C 0.61064 0.89779 0.92846 0.0
C795 C 0.63568 0.9644 0.96267 0.0
H796 H 0.55765 0.94622 0.98818 0.0
C797 C 0.59178 0.03633 0.02944 0.0
C798 C 0.56342 0.03563 0.02536 0.0
C799 C 0.60317 0.01822 1.01553 0.0
C800 C 0.57938 0.95181 0.98079 0.0
H801 H 0.68312 0.89041 0.94996 0.0
H802 H 0.66793 0.92782 0.96798 0.0
H803 H 0.5749 0.91172 0.96681 0.0
H804 H 0.52536 1.01651 1.00223 0.0
H805 H 0.54532 0.98559 0.97768 0.0
H806 H 0.64009 1.00459 0.97678 0.0
C807 C 0.65434 0.91387 0.95374 0.0
C808 C 0.58927 0.93197 0.96856 0.0
C809 C 0.66304 0.89243 0.94338 0.0
C810 C 0.54715 1.01733 1.0062 0.0
C811 C 0.55856 0.99946 0.9922 0.0
C812 C 0.62571 0.98436 0.97485 0.0
C813 C 0.62784 0.91654 0.94673 0.0
C814 C 0.6175 0.93801 0.95931 0.0
C815 C 0.58646 0.9992 0.99713 0.0
C816 C 0.59739 0.97829 0.984 0.0
H817 H 0.60557 0.86232 0.90408 0.0
H818 H 0.59032 0.89957 0.92229 0.0
H819 H 0.6575 0.9697 0.95558 0.0
H820 H 0.60485 0.05015 0.04411 0.0
H821 H 0.62469 0.01847 0.01993 0.0
C822 C 0.77223 0.1519 0.52336 0.0
C823 C 0.77349 0.17186 0.50459 0.0
C824 C 0.79659 0.14495 0.52949 0.0
C825 C 0.8694 0.15027 0.5046 0.0
H826 H 0.87989 0.13272 0.5783 0.0
C827 C 0.95714 0.1043 0.53481 0.0
C828 C 0.96978 0.11151 0.56012 0.0
C829 C 0.93408 0.11284 0.52745 0.0
C830 C 0.87754 0.1379 0.55768 0.0
H831 H 0.8011 0.20033 0.47759 0.0
H832 H 0.84392 0.18873 0.48877 0.0
H833 H 0.83832 0.14575 0.56681 0.0
H834 H 0.96924 0.13412 0.59716 0.0
H835 H 0.9296 0.14978 0.58409 0.0
H836 H 0.9092 0.14331 0.49571 0.0
C837 C 0.82401 0.17796 0.49832 0.0
C838 C 0.8534 0.14495 0.55099 0.0
C839 C 0.79954 0.18469 0.49197 0.0
C840 C 0.95962 0.12806 0.57763 0.0
C841 C 0.93679 0.13686 0.57018 0.0
C842 C 0.89372 0.14345 0.51136 0.0
C843 C 0.82285 0.15804 0.51722 0.0
C844 C 0.8489 0.15104 0.52433 0.0
C845 C 0.92344 0.12903 0.54517 0.0
C846 C 0.89802 0.13705 0.53797 0.0
H847 H 0.75229 0.14143 0.53308 0.0
H848 H 0.79474 0.12912 0.5437 0.0
H849 H 0.86651 0.15456 0.48382 0.0
H850 H 0.96463 0.09153 0.52093 0.0
H851 H 0.92415 0.10614 0.50818 0.0
C852 C 0.29317 0.71074 0.21985 0.0
C853 C 0.31434 0.72946 0.20515 0.0
C854 C 0.26749 0.69617 0.20757 0.0
C855 C 0.22298 0.69813 0.14813 0.0
H856 H 0.18385 0.6242 0.16571 0.0
C857 C 0.11021 0.6449 0.10904 0.0
C858 C 0.10325 0.61764 0.10119 0.0
C859 C 0.13574 0.65766 0.12222 0.0
C860 C 0.19462 0.64476 0.16036 0.0
H861 H 0.32574 0.74644 0.1657 0.0
H862 H 0.28155 0.72092 0.14431 0.0
H863 H 0.22895 0.64759 0.18742 0.0
H864 H 0.11784 0.5824 0.10124 0.0
H865 H 0.1628 0.60488 0.12369 0.0
H866 H 0.18934 0.69521 0.12052 0.0
C867 C 0.28415 0.71804 0.16551 0.0
C868 C 0.22034 0.65831 0.17311 0.0
C869 C 0.30959 0.73269 0.17779 0.0
C870 C 0.12252 0.60343 0.10695 0.0
C871 C 0.14823 0.61629 0.12003 0.0
C872 C 0.19745 0.68459 0.13533 0.0
C873 C 0.26253 0.69982 0.18026 0.0
C874 C 0.23491 0.6852 0.16712 0.0
C875 C 0.15524 0.64364 0.12778 0.0
C876 C 0.1828 0.65774 0.14129 0.0
H877 H 0.29623 0.70782 0.24096 0.0
H878 H 0.25129 0.68249 0.21966 0.0
H879 H 0.23324 0.71892 0.14324 0.0
H880 H 0.09581 0.65646 0.10524 0.0
H881 H 0.14 0.67854 0.12833 0.0
C882 C 0.27763 0.46636 0.72429 0.0
C883 C 0.25154 0.4563 0.71076 0.0
C884 C 0.30194 0.48194 0.71076 0.0
C885 C 0.33184 0.49132 0.64238 0.0
H886 H 0.38864 0.55314 0.67319 0.0
C887 C 0.42991 0.54778 0.58032 0.0
C888 C 0.45619 0.55651 0.59349 0.0
C889 C 0.40456 0.53873 0.59504 0.0
C890 C 0.37314 0.53574 0.66437 0.0
H891 H 0.23024 0.4564 0.6729 0.0
H892 H 0.27258 0.48333 0.64934 0.0
H893 H 0.34504 0.5319 0.69848 0.0
H894 H 0.47659 0.56353 0.63245 0.0
H895 H 0.43239 0.54699 0.65825 0.0
H896 H 0.35995 0.49436 0.60873 0.0
C897 C 0.27436 0.47879 0.67028 0.0
C898 C 0.3481 0.52363 0.67886 0.0
C899 C 0.25008 0.46337 0.6838 0.0
C900 C 0.45659 0.55689 0.62177 0.0
C901 C 0.4312 0.54752 0.63655 0.0
C902 C 0.35687 0.50322 0.62803 0.0
C903 C 0.30074 0.4877 0.68338 0.0
C904 C 0.32713 0.50129 0.66799 0.0
C905 C 0.40484 0.53783 0.62334 0.0
C906 C 0.37791 0.52565 0.63874 0.0
H907 H 0.27966 0.46109 0.74494 0.0
H908 H 0.32197 0.48835 0.7214 0.0
H909 H 0.31642 0.47379 0.63363 0.0
H910 H 0.42894 0.54757 0.55854 0.0
H911 H 0.38472 0.53215 0.58413 0.0
C912 C 0.80467 0.81458 0.92895 0.0
C913 C 0.77794 0.80205 0.91753 0.0
C914 C 0.82059 0.79932 0.93955 0.0
C915 C 0.8178 0.73218 0.96344 0.0
H916 H 0.89809 0.7565 0.94499 0.0
C917 C 0.8979 0.6736 0.98791 0.0
C918 C 0.92417 0.6894 0.99833 0.0
C919 C 0.87843 0.68571 0.97796 0.0
C920 C 0.87576 0.74955 0.95047 0.0
H921 H 0.74629 0.76379 0.90929 0.0
H922 H 0.77436 0.73687 0.92777 0.0
H923 H 0.86672 0.78056 0.92849 0.0
H924 H 0.94995 0.73027 1.00757 0.0
H925 H 0.91634 0.75124 0.98997 0.0
H926 H 0.82713 0.70105 0.98546 0.0
C927 C 0.78289 0.75856 0.92862 0.0
C928 C 0.85778 0.76337 0.94108 0.0
C929 C 0.76682 0.77392 0.91806 0.0
C930 C 0.93028 0.7175 0.99903 0.0
C931 C 0.91097 0.72954 0.98901 0.0
C932 C 0.83587 0.71824 0.97282 0.0
C933 C 0.81025 0.77112 0.93887 0.0
C934 C 0.8287 0.75519 0.94785 0.0
C935 C 0.88496 0.71384 0.97816 0.0
C936 C 0.86513 0.72711 0.9668 0.0
H937 H 0.81351 0.83627 0.92926 0.0
H938 H 0.84126 0.80966 0.94797 0.0
H939 H 0.7955 0.72543 0.96904 0.0
H940 H 0.8926 0.65191 0.98695 0.0
H941 H 0.85858 0.67312 0.96958 0.0
C942 C 0.38721 0.8234 0.18487 0.0
C943 C 0.39309 0.8163 0.21086 0.0
C944 C 0.39952 0.84944 0.17558 0.0
C945 C 0.46148 0.90902 0.18489 0.0
H946 H 0.41669 0.94575 0.14661 0.0
C947 C 0.51076 0.01838 0.15221 0.0
C948 C 0.5029 0.02598 0.1273 0.0
C949 C 0.49612 0.99358 0.1631 0.0
C950 C 0.42965 0.9357 0.15692 0.0
H951 H 0.41669 0.83154 0.24737 0.0
H952 H 0.4387 0.87686 0.23082 0.0
H953 H 0.3938 0.90118 0.16437 0.0
H954 H 0.47308 1.01381 0.09456 0.0
H955 H 0.44785 0.96995 0.11301 0.0
H956 H 0.49747 0.94293 0.1769 0.0
C957 C 0.42442 0.8621 0.21773 0.0
C958 C 0.41646 0.91015 0.16722 0.0
C959 C 0.41184 0.83608 0.22718 0.0
C960 C 0.4796 1.00846 0.11374 0.0
C961 C 0.46507 0.98337 0.12448 0.0
C962 C 0.47473 0.93439 0.17437 0.0
C963 C 0.41839 0.86909 0.1918 0.0
C964 C 0.43222 0.89652 0.18137 0.0
C965 C 0.47338 0.97541 0.14921 0.0
C966 C 0.45902 0.9482 0.16029 0.0
H967 H 0.37355 0.80869 0.17133 0.0
H968 H 0.39481 0.85401 0.15535 0.0
H969 H 0.47433 0.89889 0.19528 0.0
H970 H 0.52849 0.03159 0.16328 0.0
H971 H 0.50277 0.98867 0.18247 0.0
C972 C 0.172 0.34217 0.71789 0.0
C973 C 0.17611 0.36716 0.70586 0.0
C974 C 0.15991 0.31821 0.70342 0.0
C975 C 0.14619 0.29007 0.63389 0.0
H976 H 0.09474 0.22941 0.67019 0.0
C977 C 0.08449 0.19024 0.57852 0.0
C978 C 0.08242 0.16627 0.59185 0.0
C979 C 0.09608 0.21523 0.59155 0.0
C980 C 0.10929 0.24607 0.6598 0.0
H981 H 0.17035 0.38643 0.66916 0.0
H982 H 0.149 0.34455 0.64392 0.0
H983 H 0.11369 0.272 0.69453 0.0
H984 H 0.09157 0.14992 0.62919 0.0
H985 H 0.11183 0.19329 0.65169 0.0
H986 H 0.14161 0.26397 0.5991 0.0
C987 C 0.15553 0.34351 0.66448 0.0
C988 C 0.12019 0.27053 0.67378 0.0
C989 C 0.1677 0.36753 0.67897 0.0
C990 C 0.09272 0.16791 0.61829 0.0
C991 C 0.10416 0.19282 0.63131 0.0
C992 C 0.13518 0.26556 0.61986 0.0
C993 C 0.15154 0.31851 0.67651 0.0
C994 C 0.13901 0.29281 0.66112 0.0
C995 C 0.1057 0.21679 0.61825 0.0
C996 C 0.11682 0.24318 0.63274 0.0
H997 H 0.17878 0.34109 0.73835 0.0
H998 H 0.15772 0.2994 0.71322 0.0
H999 H 0.16088 0.30667 0.62356 0.0
H1000 H 0.07673 0.18974 0.55817 0.0
H1001 H 0.09679 0.23329 0.58096 0.0
C1002 C 0.63956 0.25459 0.53112 0.0
C1003 C 0.64889 0.24725 0.55552 0.0
C1004 C 0.62978 0.27698 0.53005 0.0
C1005 C 0.63265 0.34021 0.56668 0.0
H1006 H 0.56927 0.33829 0.52053 0.0
C1007 C 0.58152 0.42646 0.5638 0.0
C1008 C 0.57616 0.4343 0.53802 0.0
C1009 C 0.58973 0.40334 0.56698 0.0
C1010 C 0.58711 0.33916 0.53337 0.0
H1011 H 0.6552 0.25774 0.598 0.0
H1012 H 0.63733 0.29639 0.59629 0.0
H1013 H 0.58435 0.29821 0.52446 0.0
H1014 H 0.57587 0.42419 0.49534 0.0
H1015 H 0.58972 0.3837 0.50099 0.0
H1016 H 0.63522 0.38122 0.57564 0.0
C1017 C 0.638 0.28504 0.57787 0.0
C1018 C 0.5958 0.31623 0.53559 0.0
C1019 C 0.64791 0.26269 0.57892 0.0
C1020 C 0.57924 0.41848 0.51553 0.0
C1021 C 0.58724 0.3953 0.51874 0.0
C1022 C 0.62382 0.36312 0.56459 0.0
C1023 C 0.6289 0.2925 0.5534 0.0
C1024 C 0.61887 0.31656 0.55204 0.0
C1025 C 0.59255 0.38748 0.54448 0.0
C1026 C 0.60115 0.36289 0.54769 0.0
H1027 H 0.63969 0.24295 0.51278 0.0
H1028 H 0.62328 0.28233 0.51079 0.0
H1029 H 0.65073 0.34128 0.57925 0.0
H1030 H 0.57898 0.43797 0.58158 0.0
H1031 H 0.59343 0.39763 0.58709 0.0
loop_
_geom_bond_atom_site_label_1
_geom_bond_atom_site_label_2
_geom_bond_distance
_geom_bond_site_symmetry_2
_ccdc_geom_bond_type
H0 C1 0.949 . S
C1 H0 0.949 . S
C1 C2 1.395 . S
C1 C3 1.391 . S
C2 C1 1.395 . S
C2 C5 1.390 . S
C3 C1 1.391 . S
C3 C7 1.387 . S
C3 C8 1.491 . S
H4 C5 0.950 . S
C5 C2 1.390 . S
C5 H4 0.950 . S
C5 C6 1.378 . S
C6 C5 1.378 . S
C6 C7 1.409 . S
C7 C3 1.387 . S
C7 C6 1.409 . S
C7 H9 0.951 . S
C8 C3 1.491 . S
C8 C10 1.382 . S
C8 C12 1.404 . S
H9 C7 0.951 . S
C10 C8 1.382 . S
C10 C11 1.390 . S
C10 H15 0.949 . S
C11 C10 1.390 . S
C11 C16 1.399 . S
C12 C8 1.404 . S
C12 H13 0.950 . S
C12 C14 1.375 . S
H13 C12 0.950 . S
C14 C12 1.375 . S
C14 C16 1.382 . S
C14 H18 0.950 . S
H15 C10 0.949 . S
C16 C11 1.399 . S
C16 C14 1.382 . S
C16 H17 0.952 . S
H17 C16 0.952 . S
H18 C14 0.950 . S
H19 C20 0.949 . S
C20 H19 0.949 . S
C20 C21 1.395 . S
C20 C22 1.391 . S
C21 C20 1.395 . S
C21 C24 1.390 . S
C22 C20 1.391 . S
C22 C26 1.387 . S
C22 C27 1.491 . S
H23 C24 0.950 . S
C24 C21 1.390 . S
C24 H23 0.950 . S
C24 C25 1.378 . S
C25 C24 1.378 . S
C25 C26 1.409 . S
C26 C22 1.387 . S
C26 C25 1.409 . S
C26 H28 0.951 . S
C27 C22 1.491 . S
C27 C29 1.382 . S
C27 C31 1.404 . S
H28 C26 0.951 . S
C29 C27 1.382 . S
C29 C30 1.390 . S
C29 H34 0.949 . S
C30 C29 1.390 . S
C30 C35 1.399 . S
C31 C27 1.404 . S
C31 H32 0.950 . S
C31 C33 1.375 . S
H32 C31 0.950 . S
C33 C31 1.375 . S
C33 C35 1.382 . S
C33 H37 0.950 . S
H34 C29 0.949 . S
C35 C30 1.399 . S
C35 C33 1.382 . S
C35 H36 0.952 . S
H36 C35 0.952 . S
H37 C33 0.950 . S
H38 C39 0.949 . S
C39 H38 0.949 . S
C39 C40 1.395 . S
C39 C41 1.391 . S
C40 C39 1.395 . S
C40 C43 1.390 . S
C41 C39 1.391 . S
C41 C45 1.387 . S
C41 C46 1.491 . S
H42 C43 0.950 . S
C43 C40 1.390 . S
C43 H42 0.950 . S
C43 C44 1.378 . S
C44 C43 1.378 . S
C44 C45 1.409 . S
C45 C41 1.387 . S
C45 C44 1.409 . S
C45 H47 0.951 . S
C46 C41 1.491 . S
C46 C48 1.382 . S
C46 C50 1.404 . S
H47 C45 0.951 . S
C48 C46 1.382 . S
C48 C49 1.390 . S
C48 H53 0.949 . S
C49 C48 1.390 . S
C49 C54 1.399 . S
C50 C46 1.404 . S
C50 H51 0.950 . S
C50 C52 1.375 . S
H51 C50 0.950 . S
C52 C50 1.375 . S
C52 C54 1.382 . S
C52 H56 0.950 . S
H53 C48 0.949 . S
C54 C49 1.399 . S
C54 C52 1.382 . S
C54 H55 0.952 . S
H55 C54 0.952 . S
H56 C52 0.950 . S
H57 C58 0.949 . S
C58 H57 0.949 . S
C58 C59 1.395 . S
C58 C60 1.391 . S
C59 C58 1.395 . S
C59 C62 1.390 . S
C60 C58 1.391 . S
C60 C64 1.387 . S
C60 C65 1.491 . S
H61 C62 0.950 . S
C62 C59 1.390 . S
C62 H61 0.950 . S
C62 C63 1.378 . S
C63 C62 1.378 . S
C63 C64 1.409 . S
C64 C60 1.387 . S
C64 C63 1.409 . S
C64 H66 0.951 . S
C65 C60 1.491 . S
C65 C67 1.382 . S
C65 C69 1.404 . S
H66 C64 0.951 . S
C67 C65 1.382 . S
C67 C68 1.390 . S
C67 H72 0.949 . S
C68 C67 1.390 . S
C68 C73 1.399 . S
C69 C65 1.404 . S
C69 H70 0.950 . S
C69 C71 1.375 . S
H70 C69 0.950 . S
C71 C69 1.375 . S
C71 C73 1.382 . S
C71 H75 0.950 . S
H72 C67 0.949 . S
C73 C68 1.399 . S
C73 C71 1.382 . S
C73 H74 0.952 . S
H74 C73 0.952 . S
H75 C71 0.950 . S
H76 C77 0.949 . S
C77 H76 0.949 . S
C77 C78 1.395 . S
C77 C79 1.391 . S
C78 C77 1.395 . S
C78 C81 1.390 . S
C79 C77 1.391 . S
C79 C83 1.387 . S
C79 C84 1.491 . S
H80 C81 0.950 . S
C81 C78 1.390 . S
C81 H80 0.950 . S
C81 C82 1.378 . S
C82 C81 1.378 . S
C82 C83 1.409 . S
C83 C79 1.387 . S
C83 C82 1.409 . S
C83 H85 0.951 . S
C84 C79 1.491 . S
C84 C86 1.382 . S
C84 C88 1.404 . S
H85 C83 0.951 . S
C86 C84 1.382 . S
C86 C87 1.390 . S
C86 H91 0.949 . S
C87 C86 1.390 . S
C87 C92 1.399 . S
C88 C84 1.404 . S
C88 H89 0.950 . S
C88 C90 1.375 . S
H89 C88 0.950 . S
C90 C88 1.375 . S
C90 C92 1.382 . S
C90 H94 0.950 . S
H91 C86 0.949 . S
C92 C87 1.399 . S
C92 C90 1.382 . S
C92 H93 0.952 . S
H93 C92 0.952 . S
H94 C90 0.950 . S
H95 C96 0.949 . S
C96 H95 0.949 . S
C96 C97 1.395 . S
C96 C98 1.391 . S
C97 C96 1.395 . S
C97 C100 1.390 . S
C98 C96 1.391 . S
C98 C102 1.387 . S
C98 C103 1.491 . S
H99 C100 0.950 . S
C100 C97 1.390 . S
C100 H99 0.950 . S
C100 C101 1.378 . S
C101 C100 1.378 . S
C101 C102 1.409 . S
C102 C98 1.387 . S
C102 C101 1.409 . S
C102 H104 0.951 . S
C103 C98 1.491 . S
C103 C105 1.382 . S
C103 C107 1.404 . S
H104 C102 0.951 . S
C105 C103 1.382 . S
C105 C106 1.390 . S
C105 H110 0.949 . S
C106 C105 1.390 . S
C106 C111 1.399 . S
C107 C103 1.404 . S
C107 H108 0.950 . S
C107 C109 1.375 . S
H108 C107 0.950 . S
C109 C107 1.375 . S
C109 C111 1.382 . S
C109 H113 0.950 . S
H110 C105 0.949 . S
C111 C106 1.399 . S
C111 C109 1.382 . S
C111 H112 0.952 . S
H112 C111 0.952 . S
H113 C109 0.950 . S
H114 C115 0.949 . S
C115 H114 0.949 . S
C115 C116 1.395 . S
C115 C117 1.391 . S
C116 C115 1.395 . S
C116 C119 1.390 . S
C117 C115 1.391 . S
C117 C121 1.387 . S
C117 C122 1.491 . S
H118 C119 0.950 . S
C119 C116 1.390 . S
C119 H118 0.950 . S
C119 C120 1.378 . S
C120 C119 1.378 . S
C120 C121 1.409 . S
C121 C117 1.387 . S
C121 C120 1.409 . S
C121 H123 0.951 . S
C122 C117 1.491 . S
C122 C124 1.382 . S
C122 C126 1.404 . S
H123 C121 0.951 . S
C124 C122 1.382 . S
C124 C125 1.390 . S
C124 H129 0.949 . S
C125 C124 1.390 . S
C125 C130 1.399 . S
C126 C122 1.404 . S
C126 H127 0.950 . S
C126 C128 1.375 . S
H127 C126 0.950 . S
C128 C126 1.375 . S
C128 C130 1.382 . S
C128 H132 0.950 . S
H129 C124 0.949 . S
C130 C125 1.399 . S
C130 C128 1.382 . S
C130 H131 0.952 . S
H131 C130 0.952 . S
H132 C128 0.950 . S
H133 C134 0.949 . S
C134 H133 0.949 . S
C134 C135 1.395 . S
C134 C136 1.391 . S
C135 C134 1.395 . S
C135 C138 1.390 . S
C136 C134 1.391 . S
C136 C140 1.387 . S
C136 C141 1.491 . S
H137 C138 0.950 . S
C138 C135 1.390 . S
C138 H137 0.950 . S
C138 C139 1.378 . S
C139 C138 1.378 . S
C139 C140 1.409 . S
C140 C136 1.387 . S
C140 C139 1.409 . S
C140 H142 0.951 . S
C141 C136 1.491 . S
C141 C143 1.382 . S
C141 C145 1.404 . S
H142 C140 0.951 . S
C143 C141 1.382 . S
C143 C144 1.390 . S
C143 H148 0.949 . S
C144 C143 1.390 . S
C144 C149 1.399 . S
C145 C141 1.404 . S
C145 H146 0.950 . S
C145 C147 1.375 . S
H146 C145 0.950 . S
C147 C145 1.375 . S
C147 C149 1.382 . S
C147 H151 0.950 . S
H148 C143 0.949 . S
C149 C144 1.399 . S
C149 C147 1.382 . S
C149 H150 0.952 . S
H150 C149 0.952 . S
H151 C147 0.950 . S
Ho152 C155 2.811 . S
Ho152 O172 2.322 . S
Ho152 O174 2.378 . S
Ho152 O175 2.524 . S
Ho152 O176 2.381 . S
Ho152 O177 2.669 . S
Ho152 O179 2.346 . S
Ho152 O183 2.305 1_455 S
Ho153 C164 2.811 1_545 S
Ho153 O173 2.346 1_655 S
Ho153 O177 2.305 1_655 S
Ho153 O178 2.322 . S
Ho153 O180 2.378 . S
Ho153 O181 2.524 1_545 S
Ho153 O182 2.381 . S
Ho153 O183 2.669 . S
C154 O172 1.259 . S
C154 O173 1.268 . S
C155 Ho152 2.811 . S
C155 C156 1.488 . S
C155 O174 1.215 . S
C155 O175 1.289 . S
C156 C155 1.488 . S
C156 C157 1.348 . S
C156 C161 1.413 . S
C157 C156 1.348 . S
C157 C158 1.442 . S
C157 H184 0.930 . S
C158 C157 1.442 . S
C158 C159 1.381 . S
C158 H185 0.931 . S
C159 C158 1.381 . S
C159 C160 1.321 . S
C160 C159 1.321 . S
C160 C161 1.403 . S
C160 H186 0.934 . S
C161 C156 1.413 . S
C161 C160 1.403 . S
C161 H187 0.930 . S
C162 O176 1.275 . S
C162 O177 1.256 . S
C163 O178 1.259 1_565 S
C163 O179 1.268 1_665 S
C164 Ho153 2.811 1_565 S
C164 C165 1.488 . S
C164 O180 1.215 1_565 S
C164 O181 1.289 . S
C165 C164 1.488 . S
C165 C166 1.348 . S
C165 C170 1.413 . S
C166 C165 1.348 . S
C166 C167 1.442 . S
C166 H188 0.930 . S
C167 C166 1.442 . S
C167 C168 1.381 . S
C167 H189 0.931 . S
C168 C167 1.381 . S
C168 C169 1.321 . S
C169 C168 1.321 . S
C169 C170 1.403 . S
C169 H190 0.934 . S
C170 C165 1.413 . S
C170 C169 1.403 . S
C170 H191 0.930 . S
C171 O182 1.275 . S
C171 O183 1.256 . S
O172 Ho152 2.322 . S
O172 C154 1.259 . S
O173 Ho153 2.346 1_455 S
O173 C154 1.268 . S
O174 Ho152 2.378 . S
O174 C155 1.215 . S
O175 Ho152 2.524 . S
O175 C155 1.289 . S
O176 Ho152 2.381 . S
O176 C162 1.275 . S
O177 Ho152 2.669 . S
O177 Ho153 2.305 1_455 S
O177 C162 1.256 . S
O178 Ho153 2.322 . S
O178 C163 1.259 1_545 S
O179 Ho152 2.346 . S
O179 C163 1.268 1_445 S
O180 Ho153 2.378 . S
O180 C164 1.215 1_545 S
O181 Ho153 2.524 1_565 S
O181 C164 1.289 . S
O182 Ho153 2.381 . S
O182 C171 1.275 . S
O183 Ho152 2.305 1_655 S
O183 Ho153 2.669 . S
O183 C171 1.256 . S
H184 C157 0.930 . S
H185 C158 0.931 . S
H186 C160 0.934 . S
H187 C161 0.930 . S
H188 C166 0.930 . S
H189 C167 0.931 . S
H190 C169 0.934 . S
H191 C170 0.930 . S
Ho192 C195 2.811 . S
Ho192 O212 2.322 . S
Ho192 O214 2.378 . S
Ho192 O215 2.524 . S
Ho192 O216 2.381 . S
Ho192 O217 2.669 . S
Ho192 O219 2.346 . S
Ho192 O223 2.305 . S
Ho193 C204 2.819 . S
Ho193 O213 2.346 . S
Ho193 O217 2.305 . S
Ho193 O218 2.322 . S
Ho193 O220 2.378 . S
Ho193 O221 2.524 1_545 S
Ho193 O222 2.381 . S
Ho193 O223 2.669 . S
C194 O212 1.259 . S
C194 O213 1.268 . S
C195 Ho192 2.811 . S
C195 C196 1.488 . S
C195 O214 1.215 . S
C195 O215 1.289 . S
C196 C195 1.488 . S
C196 C197 1.348 . S
C196 C201 1.413 . S
C197 C196 1.348 . S
C197 C198 1.442 . S
C197 H224 0.930 . S
C198 C197 1.442 . S
C198 C199 1.381 . S
C198 H225 0.931 . S
C199 C198 1.381 . S
C199 C200 1.321 . S
C200 C199 1.321 . S
C200 C201 1.403 . S
C200 H226 0.934 . S
C201 C196 1.413 . S
C201 C200 1.403 . S
C201 H227 0.930 . S
C202 O216 1.275 1_565 S
C202 O217 1.256 1_565 S
C203 O218 1.259 . S
C203 O219 1.268 . S
C204 Ho193 2.819 . S
C204 C205 1.480 1_544 S
C204 O220 1.232 . S
C204 O221 1.280 1_545 S
C205 C204 1.480 1_566 S
C205 C206 1.348 . S
C205 C210 1.413 . S
C206 C205 1.348 . S
C206 C207 1.442 . S
C206 H228 0.930 . S
C207 C206 1.442 . S
C207 C208 1.381 . S
C207 H229 0.931 . S
C208 C207 1.381 . S
C208 C209 1.321 . S
C209 C208 1.321 . S
C209 C210 1.403 . S
C209 H230 0.934 . S
C210 C205 1.413 . S
C210 C209 1.403 . S
C210 H231 0.930 1_565 S
C211 O222 1.275 . S
C211 O223 1.256 . S
O212 Ho192 2.322 . S
O212 C194 1.259 . S
O213 Ho193 2.346 . S
O213 C194 1.268 . S
O214 Ho192 2.378 . S
O214 C195 1.215 . S
O215 Ho192 2.524 . S
O215 C195 1.289 . S
O216 Ho192 2.381 . S
O216 C202 1.275 1_545 S
O217 Ho192 2.669 . S
O217 Ho193 2.305 . S
O217 C202 1.256 1_545 S
O218 Ho193 2.322 . S
O218 C203 1.259 . S
O219 Ho192 2.346 . S
O219 C203 1.268 . S
O220 Ho193 2.378 . S
O220 C204 1.232 . S
O221 Ho193 2.524 1_565 S
O221 C204 1.280 1_565 S
O222 Ho193 2.381 . S
O222 C211 1.275 . S
O223 Ho192 2.305 . S
O223 Ho193 2.669 . S
O223 C211 1.256 . S
H224 C197 0.930 . S
H225 C198 0.931 . S
H226 C200 0.934 . S
H227 C201 0.930 . S
H228 C206 0.930 . S
H229 C207 0.931 . S
H230 C209 0.934 . S
H231 C210 0.930 1_545 S
Ho232 C235 2.811 . S
Ho232 O252 2.322 . S
Ho232 O254 2.378 . S
Ho232 O255 2.524 . S
Ho232 O256 2.381 . S
Ho232 O257 2.669 . S
Ho232 O259 2.346 . S
Ho232 O263 2.305 . S
Ho233 C244 2.811 . S
Ho233 O253 2.346 . S
Ho233 O257 2.305 . S
Ho233 O258 2.322 . S
Ho233 O260 2.378 . S
Ho233 O261 2.524 . S
Ho233 O262 2.381 . S
Ho233 O263 2.669 . S
C234 O252 1.259 . S
C234 O253 1.268 . S
C235 Ho232 2.811 . S
C235 C236 1.488 . S
C235 O254 1.215 . S
C235 O255 1.289 . S
C236 C235 1.488 . S
C236 C237 1.348 . S
C236 C241 1.413 . S
C237 C236 1.348 . S
C237 C238 1.442 . S
C237 H264 0.930 . S
C238 C237 1.442 . S
C238 C239 1.381 . S
C238 H265 0.931 . S
C239 C238 1.381 . S
C239 C240 1.321 . S
C240 C239 1.321 . S
C240 C241 1.403 . S
C240 H266 0.934 . S
C241 C236 1.413 . S
C241 C240 1.403 . S
C241 H267 0.930 . S
C242 O256 1.275 . S
C242 O257 1.256 . S
C243 O258 1.259 . S
C243 O259 1.268 . S
C244 Ho233 2.811 . S
C244 C245 1.488 . S
C244 O260 1.215 . S
C244 O261 1.289 . S
C245 C244 1.488 . S
C245 C246 1.348 . S
C245 C250 1.413 . S
C246 C245 1.348 . S
C246 C247 1.442 . S
C246 H268 0.930 . S
C247 C246 1.442 . S
C247 C248 1.381 . S
C247 H269 0.931 . S
C248 C247 1.381 . S
C248 C249 1.321 . S
C249 C248 1.321 . S
C249 C250 1.403 . S
C249 H270 0.934 . S
C250 C245 1.413 . S
C250 C249 1.403 . S
C250 H271 0.930 . S
C251 O262 1.275 . S
C251 O263 1.256 . S
O252 Ho232 2.322 . S
O252 C234 1.259 . S
O253 Ho233 2.346 . S
O253 C234 1.268 . S
O254 Ho232 2.378 . S
O254 C235 1.215 . S
O255 Ho232 2.524 . S
O255 C235 1.289 . S
O256 Ho232 2.381 . S
O256 C242 1.275 . S
O257 Ho232 2.669 . S
O257 Ho233 2.305 . S
O257 C242 1.256 . S
O258 Ho233 2.322 . S
O258 C243 1.259 . S
O259 Ho232 2.346 . S
O259 C243 1.268 . S
O260 Ho233 2.378 . S
O260 C244 1.215 . S
O261 Ho233 2.524 . S
O261 C244 1.289 . S
O262 Ho233 2.381 . S
O262 C251 1.275 . S
O263 Ho232 2.305 . S
O263 Ho233 2.669 . S
O263 C251 1.256 . S
H264 C237 0.930 . S
H265 C238 0.931 . S
H266 C240 0.934 . S
H267 C241 0.930 . S
H268 C246 0.930 . S
H269 C247 0.931 . S
H270 C249 0.934 . S
H271 C250 0.930 . S
Ho272 C275 2.811 . S
Ho272 O292 2.322 . S
Ho272 O294 2.378 . S
Ho272 O295 2.524 . S
Ho272 O296 2.381 . S
Ho272 O297 2.669 . S
Ho272 O299 2.346 1_455 S
Ho272 O303 2.305 1_554 S
Ho273 C284 2.812 1_455 S
Ho273 O293 2.344 1_556 S
Ho273 O297 2.302 1_556 S
Ho273 O298 2.341 . S
Ho273 O300 2.380 . S
Ho273 O301 2.523 1_455 S
Ho273 O302 2.383 . S
Ho273 O303 2.669 . S
C274 O292 1.259 . S
C274 O293 1.268 . S
C275 Ho272 2.811 . S
C275 C276 1.488 . S
C275 O294 1.215 . S
C275 O295 1.289 . S
C276 C275 1.488 . S
C276 C277 1.348 . S
C276 C281 1.413 . S
C277 C276 1.348 . S
C277 C278 1.442 . S
C277 H304 0.930 . S
C278 C277 1.442 . S
C278 C279 1.381 . S
C278 H305 0.931 . S
C279 C278 1.381 . S
C279 C280 1.321 . S
C280 C279 1.321 . S
C280 C281 1.403 . S
C280 H306 0.934 . S
C281 C276 1.413 . S
C281 C280 1.403 . S
C281 H307 0.930 . S
C282 O296 1.275 . S
C282 O297 1.256 . S
C283 O298 1.248 1_655 S
C283 O299 1.268 1_556 S
C284 Ho273 2.812 1_655 S
C284 C285 1.488 . S
C284 O300 1.215 1_655 S
C284 O301 1.321 . S
C285 C284 1.488 . S
C285 C286 1.348 . S
C285 C290 1.413 . S
C286 C285 1.348 . S
C286 C287 1.442 . S
C286 H308 0.930 . S
C287 C286 1.442 . S
C287 C288 1.381 . S
C287 H309 0.931 . S
C288 C287 1.381 . S
C288 C289 1.321 . S
C289 C288 1.321 . S
C289 C290 1.403 . S
C289 H310 0.934 . S
C290 C285 1.413 . S
C290 C289 1.403 . S
C290 H311 0.930 . S
C291 O302 1.275 . S
C291 O303 1.256 . S
O292 Ho272 2.322 . S
O292 C274 1.259 . S
O293 Ho273 2.344 1_554 S
O293 C274 1.268 . S
O294 Ho272 2.378 . S
O294 C275 1.215 . S
O295 Ho272 2.524 . S
O295 C275 1.289 . S
O296 Ho272 2.381 . S
O296 C282 1.275 . S
O297 Ho272 2.669 . S
O297 Ho273 2.302 1_554 S
O297 C282 1.256 . S
O298 Ho273 2.341 . S
O298 C283 1.248 1_455 S
O299 Ho272 2.346 1_655 S
O299 C283 1.268 1_554 S
O300 Ho273 2.380 . S
O300 C284 1.215 1_455 S
O301 Ho273 2.523 1_655 S
O301 C284 1.321 . S
O302 Ho273 2.383 . S
O302 C291 1.275 . S
O303 Ho272 2.305 1_556 S
O303 Ho273 2.669 . S
O303 C291 1.256 . S
H304 C277 0.930 . S
H305 C278 0.931 . S
H306 C280 0.934 . S
H307 C281 0.930 . S
H308 C286 0.930 . S
H309 C287 0.931 . S
H310 C289 0.934 . S
H311 C290 0.930 . S
C312 C313 1.349 . S
C312 C314 1.327 . S
C312 H337 0.950 . S
C313 C312 1.349 . S
C313 C329 1.349 . S
C314 C312 1.327 . S
C314 C333 1.429 . S
C314 H338 0.950 . S
C315 C332 1.574 . S
C315 C334 1.368 . S
C315 H339 0.949 . S
H316 C320 0.949 . S
C317 C318 1.349 . S
C317 C319 1.327 . S
C317 H340 0.950 . S
C318 C317 1.349 . S
C318 C330 1.349 . S
C319 C317 1.327 . S
C319 C335 1.429 . S
C319 H341 0.950 . S
C320 H316 0.949 . S
C320 C328 1.574 . S
C320 C336 1.368 . S
H321 C329 0.950 . S
H322 C327 0.950 . S
H323 C328 0.949 . S
H324 C330 0.950 . S
H325 C331 0.950 . S
H326 C332 0.949 . S
C327 H322 0.950 . S
C327 C329 1.327 . S
C327 C333 1.429 . S
C328 C320 1.574 . S
C328 H323 0.949 . S
C328 C334 1.368 . S
C329 C313 1.349 . S
C329 H321 0.950 . S
C329 C327 1.327 . S
C330 C318 1.349 . S
C330 H324 0.950 . S
C330 C331 1.327 . S
C331 H325 0.950 . S
C331 C330 1.327 . S
C331 C335 1.429 . S
C332 C315 1.574 . S
C332 H326 0.949 . S
C332 C336 1.368 . S
C333 C314 1.429 . S
C333 C327 1.429 . S
C333 C334 1.523 . S
C334 C315 1.368 . S
C334 C328 1.368 . S
C334 C333 1.523 . S
C335 C319 1.429 . S
C335 C331 1.429 . S
C335 C336 1.523 . S
C336 C320 1.368 . S
C336 C332 1.368 . S
C336 C335 1.523 . S
H337 C312 0.950 . S
H338 C314 0.950 . S
H339 C315 0.949 . S
H340 C317 0.950 . S
H341 C319 0.950 . S
C342 C343 1.349 . S
C342 C344 1.327 . S
C342 H367 0.950 . S
C343 C342 1.349 . S
C343 C359 1.349 . S
C344 C342 1.327 . S
C344 C363 1.429 . S
C344 H368 0.950 . S
C345 C362 1.574 . S
C345 C364 1.368 . S
C345 H369 0.949 . S
H346 C350 0.949 . S
C347 C348 1.349 . S
C347 C349 1.327 . S
C347 H370 0.950 . S
C348 C347 1.349 . S
C348 C360 1.349 . S
C349 C347 1.327 . S
C349 C365 1.429 . S
C349 H371 0.950 . S
C350 H346 0.949 . S
C350 C358 1.574 . S
C350 C366 1.368 . S
H351 C359 0.950 . S
H352 C357 0.950 . S
H353 C358 0.949 . S
H354 C360 0.950 . S
H355 C361 0.950 . S
H356 C362 0.949 . S
C357 H352 0.950 . S
C357 C359 1.327 . S
C357 C363 1.429 . S
C358 C350 1.574 . S
C358 H353 0.949 . S
C358 C364 1.368 . S
C359 C343 1.349 . S
C359 H351 0.950 . S
C359 C357 1.327 . S
C360 C348 1.349 . S
C360 H354 0.950 . S
C360 C361 1.327 . S
C361 H355 0.950 . S
C361 C360 1.327 . S
C361 C365 1.429 . S
C362 C345 1.574 . S
C362 H356 0.949 . S
C362 C366 1.368 . S
C363 C344 1.429 . S
C363 C357 1.429 . S
C363 C364 1.523 . S
C364 C345 1.368 . S
C364 C358 1.368 . S
C364 C363 1.523 . S
C365 C349 1.429 . S
C365 C361 1.429 . S
C365 C366 1.523 . S
C366 C350 1.368 . S
C366 C362 1.368 . S
C366 C365 1.523 . S
H367 C342 0.950 . S
H368 C344 0.950 . S
H369 C345 0.949 . S
H370 C347 0.950 . S
H371 C349 0.950 . S
C372 C373 1.349 . S
C372 C374 1.327 . S
C372 H397 0.950 . S
C373 C372 1.349 . S
C373 C389 1.349 . S
C374 C372 1.327 . S
C374 C393 1.429 . S
C374 H398 0.950 . S
C375 C392 1.574 . S
C375 C394 1.368 . S
C375 H399 0.949 . S
H376 C380 0.949 . S
C377 C378 1.349 . S
C377 C379 1.327 . S
C377 H400 0.950 . S
C378 C377 1.349 . S
C378 C390 1.349 . S
C379 C377 1.327 . S
C379 C395 1.429 . S
C379 H401 0.950 . S
C380 H376 0.949 . S
C380 C388 1.574 . S
C380 C396 1.368 . S
H381 C389 0.950 . S
H382 C387 0.950 . S
H383 C388 0.949 . S
H384 C390 0.950 . S
H385 C391 0.950 . S
H386 C392 0.949 . S
C387 H382 0.950 . S
C387 C389 1.327 . S
C387 C393 1.429 . S
C388 C380 1.574 . S
C388 H383 0.949 . S
C388 C394 1.368 . S
C389 C373 1.349 . S
C389 H381 0.950 . S
C389 C387 1.327 . S
C390 C378 1.349 . S
C390 H384 0.950 . S
C390 C391 1.327 . S
C391 H385 0.950 . S
C391 C390 1.327 . S
C391 C395 1.429 . S
C392 C375 1.574 . S
C392 H386 0.949 . S
C392 C396 1.368 . S
C393 C374 1.429 . S
C393 C387 1.429 . S
C393 C394 1.523 . S
C394 C375 1.368 . S
C394 C388 1.368 . S
C394 C393 1.523 . S
C395 C379 1.429 . S
C395 C391 1.429 . S
C395 C396 1.523 . S
C396 C380 1.368 . S
C396 C392 1.368 . S
C396 C395 1.523 . S
H397 C372 0.950 . S
H398 C374 0.950 . S
H399 C375 0.949 . S
H400 C377 0.950 . S
H401 C379 0.950 . S
C402 C403 1.349 . S
C402 C404 1.327 . S
C402 H427 0.950 . S
C403 C402 1.349 . S
C403 C419 1.349 . S
C404 C402 1.327 . S
C404 C423 1.429 . S
C404 H428 0.950 . S
C405 C422 1.574 . S
C405 C424 1.368 . S
C405 H429 0.949 . S
H406 C410 0.949 . S
C407 C408 1.349 . S
C407 C409 1.327 . S
C407 H430 0.950 . S
C408 C407 1.349 . S
C408 C420 1.349 . S
C409 C407 1.327 . S
C409 C425 1.429 . S
C409 H431 0.950 . S
C410 H406 0.949 . S
C410 C418 1.574 . S
C410 C426 1.368 . S
H411 C419 0.950 . S
H412 C417 0.950 . S
H413 C418 0.949 . S
H414 C420 0.950 . S
H415 C421 0.950 . S
H416 C422 0.949 . S
C417 H412 0.950 . S
C417 C419 1.327 . S
C417 C423 1.429 . S
C418 C410 1.574 . S
C418 H413 0.949 . S
C418 C424 1.368 . S
C419 C403 1.349 . S
C419 H411 0.950 . S
C419 C417 1.327 . S
C420 C408 1.349 . S
C420 H414 0.950 . S
C420 C421 1.327 . S
C421 H415 0.950 . S
C421 C420 1.327 . S
C421 C425 1.429 . S
C422 C405 1.574 . S
C422 H416 0.949 . S
C422 C426 1.368 . S
C423 C404 1.429 . S
C423 C417 1.429 . S
C423 C424 1.523 . S
C424 C405 1.368 . S
C424 C418 1.368 . S
C424 C423 1.523 . S
C425 C409 1.429 . S
C425 C421 1.429 . S
C425 C426 1.523 . S
C426 C410 1.368 . S
C426 C422 1.368 . S
C426 C425 1.523 . S
H427 C402 0.950 . S
H428 C404 0.950 . S
H429 C405 0.949 . S
H430 C407 0.950 . S
H431 C409 0.950 . S
C432 C433 1.349 . S
C432 C434 1.327 . S
C432 H457 0.950 . S
C433 C432 1.349 . S
C433 C449 1.349 . S
C434 C432 1.327 . S
C434 C453 1.429 . S
C434 H458 0.950 . S
C435 C452 1.574 . S
C435 C454 1.368 . S
C435 H459 0.949 . S
H436 C440 0.949 . S
C437 C438 1.349 . S
C437 C439 1.327 . S
C437 H460 0.950 . S
C438 C437 1.349 . S
C438 C450 1.349 . S
C439 C437 1.327 . S
C439 C455 1.429 . S
C439 H461 0.950 . S
C440 H436 0.949 . S
C440 C448 1.574 . S
C440 C456 1.368 . S
H441 C449 0.950 . S
H442 C447 0.950 . S
H443 C448 0.949 . S
H444 C450 0.950 . S
H445 C451 0.950 . S
H446 C452 0.949 . S
C447 H442 0.950 . S
C447 C449 1.327 . S
C447 C453 1.429 . S
C448 C440 1.574 . S
C448 H443 0.949 . S
C448 C454 1.368 . S
C449 C433 1.349 . S
C449 H441 0.950 . S
C449 C447 1.327 . S
C450 C438 1.349 . S
C450 H444 0.950 . S
C450 C451 1.327 . S
C451 H445 0.950 . S
C451 C450 1.327 . S
C451 C455 1.429 . S
C452 C435 1.574 . S
C452 H446 0.949 . S
C452 C456 1.368 . S
C453 C434 1.429 . S
C453 C447 1.429 . S
C453 C454 1.523 . S
C454 C435 1.368 . S
C454 C448 1.368 . S
C454 C453 1.523 . S
C455 C439 1.429 . S
C455 C451 1.429 . S
C455 C456 1.523 . S
C456 C440 1.368 . S
C456 C452 1.368 . S
C456 C455 1.523 . S
H457 C432 0.950 . S
H458 C434 0.950 . S
H459 C435 0.949 . S
H460 C437 0.950 . S
H461 C439 0.950 . S
C462 C463 1.349 . S
C462 C464 1.327 . S
C462 H487 0.950 . S
C463 C462 1.349 . S
C463 C479 1.349 . S
C464 C462 1.327 . S
C464 C483 1.429 . S
C464 H488 0.950 . S
C465 C482 1.574 . S
C465 C484 1.368 . S
C465 H489 0.949 . S
H466 C470 0.949 1_545 S
C467 C468 1.349 1_565 S
C467 C469 1.327 . S
C467 H490 0.950 . S
C468 C467 1.349 1_545 S
C468 C480 1.349 . S
C469 C467 1.327 . S
C469 C485 1.429 . S
C469 H491 0.950 . S
C470 H466 0.949 1_565 S
C470 C478 1.574 . S
C470 C486 1.368 . S
H471 C479 0.950 . S
H472 C477 0.950 . S
H473 C478 0.949 . S
H474 C480 0.950 . S
H475 C481 0.950 . S
H476 C482 0.949 . S
C477 H472 0.950 . S
C477 C479 1.327 . S
C477 C483 1.429 . S
C478 C470 1.574 . S
C478 H473 0.949 . S
C478 C484 1.368 . S
C479 C463 1.349 . S
C479 H471 0.950 . S
C479 C477 1.327 . S
C480 C468 1.349 . S
C480 H474 0.950 . S
C480 C481 1.327 . S
C481 H475 0.950 . S
C481 C480 1.327 . S
C481 C485 1.429 1_545 S
C482 C465 1.574 . S
C482 H476 0.949 . S
C482 C486 1.368 . S
C483 C464 1.429 . S
C483 C477 1.429 . S
C483 C484 1.523 . S
C484 C465 1.368 . S
C484 C478 1.368 . S
C484 C483 1.523 . S
C485 C469 1.429 . S
C485 C481 1.429 1_565 S
C485 C486 1.523 . S
C486 C470 1.368 . S
C486 C482 1.368 . S
C486 C485 1.523 . S
H487 C462 0.950 . S
H488 C464 0.950 . S
H489 C465 0.949 . S
H490 C467 0.950 . S
H491 C469 0.950 . S
C492 C493 1.349 . S
C492 C494 1.327 . S
C492 H517 0.950 . S
C493 C492 1.349 . S
C493 C509 1.349 . S
C494 C492 1.327 . S
C494 C513 1.429 . S
C494 H518 0.950 . S
C495 C512 1.574 . S
C495 C514 1.368 . S
C495 H519 0.949 . S
H496 C500 0.949 . S
C497 C498 1.349 . S
C497 C499 1.327 . S
C497 H520 0.950 . S
C498 C497 1.349 . S
C498 C510 1.349 . S
C499 C497 1.327 . S
C499 C515 1.429 . S
C499 H521 0.950 . S
C500 H496 0.949 . S
C500 C508 1.574 . S
C500 C516 1.368 . S
H501 C509 0.950 . S
H502 C507 0.950 . S
H503 C508 0.949 . S
H504 C510 0.950 1_554 S
H505 C511 0.950 . S
H506 C512 0.949 . S
C507 H502 0.950 . S
C507 C509 1.327 . S
C507 C513 1.429 . S
C508 C500 1.574 . S
C508 H503 0.949 . S
C508 C514 1.368 . S
C509 C493 1.349 . S
C509 H501 0.950 . S
C509 C507 1.327 . S
C510 C498 1.349 . S
C510 H504 0.950 1_556 S
C510 C511 1.327 . S
C511 H505 0.950 . S
C511 C510 1.327 . S
C511 C515 1.429 . S
C512 C495 1.574 . S
C512 H506 0.949 . S
C512 C516 1.368 . S
C513 C494 1.429 . S
C513 C507 1.429 . S
C513 C514 1.523 . S
C514 C495 1.368 . S
C514 C508 1.368 . S
C514 C513 1.523 . S
C515 C499 1.429 . S
C515 C511 1.429 . S
C515 C516 1.523 . S
C516 C500 1.368 . S
C516 C512 1.368 . S
C516 C515 1.523 . S
H517 C492 0.950 . S
H518 C494 0.950 . S
H519 C495 0.949 . S
H520 C497 0.950 . S
H521 C499 0.950 . S
C522 C523 1.349 . S
C522 C524 1.327 . S
C522 H547 0.950 . S
C523 C522 1.349 . S
C523 C539 1.349 . S
C524 C522 1.327 . S
C524 C543 1.429 . S
C524 H548 0.950 . S
C525 C542 1.574 . S
C525 C544 1.368 . S
C525 H549 0.949 . S
H526 C530 0.949 . S
C527 C528 1.349 . S
C527 C529 1.327 . S
C527 H550 0.950 . S
C528 C527 1.349 . S
C528 C540 1.349 . S
C529 C527 1.327 . S
C529 C545 1.429 . S
C529 H551 0.950 . S
C530 H526 0.949 . S
C530 C538 1.574 . S
C530 C546 1.368 . S
H531 C539 0.950 . S
H532 C537 0.950 . S
H533 C538 0.949 . S
H534 C540 0.950 . S
H535 C541 0.950 . S
H536 C542 0.949 . S
C537 H532 0.950 . S
C537 C539 1.327 . S
C537 C543 1.429 . S
C538 C530 1.574 . S
C538 H533 0.949 . S
C538 C544 1.368 . S
C539 C523 1.349 . S
C539 H531 0.950 . S
C539 C537 1.327 . S
C540 C528 1.349 . S
C540 H534 0.950 . S
C540 C541 1.327 . S
C541 H535 0.950 . S
C541 C540 1.327 . S
C541 C545 1.429 . S
C542 C525 1.574 . S
C542 H536 0.949 . S
C542 C546 1.368 . S
C543 C524 1.429 . S
C543 C537 1.429 . S
C543 C544 1.523 . S
C544 C525 1.368 . S
C544 C538 1.368 . S
C544 C543 1.523 . S
C545 C529 1.429 . S
C545 C541 1.429 . S
C545 C546 1.523 . S
C546 C530 1.368 . S
C546 C542 1.368 . S
C546 C545 1.523 . S
H547 C522 0.950 . S
H548 C524 0.950 . S
H549 C525 0.949 . S
H550 C527 0.950 . S
H551 C529 0.950 . S
C552 C553 1.349 . S
C552 C554 1.327 . S
C552 H577 0.950 . S
C553 C552 1.349 . S
C553 C569 1.349 . S
C554 C552 1.327 . S
C554 C573 1.429 . S
C554 H578 0.950 . S
C555 C572 1.574 . S
C555 C574 1.368 . S
C555 H579 0.949 . S
H556 C560 0.949 . S
C557 C558 1.349 . S
C557 C559 1.327 . S
C557 H580 0.950 . S
C558 C557 1.349 . S
C558 C570 1.349 . S
C559 C557 1.327 . S
C559 C575 1.429 . S
C559 H581 0.950 . S
C560 H556 0.949 . S
C560 C568 1.574 . S
C560 C576 1.368 . S
H561 C569 0.950 . S
H562 C567 0.950 . S
H563 C568 0.949 . S
H564 C570 0.950 . S
H565 C571 0.950 . S
H566 C572 0.949 . S
C567 H562 0.950 . S
C567 C569 1.327 . S
C567 C573 1.429 . S
C568 C560 1.574 . S
C568 H563 0.949 . S
C568 C574 1.368 . S
C569 C553 1.349 . S
C569 H561 0.950 . S
C569 C567 1.327 . S
C570 C558 1.349 . S
C570 H564 0.950 . S
C570 C571 1.327 . S
C571 H565 0.950 . S
C571 C570 1.327 . S
C571 C575 1.429 . S
C572 C555 1.574 . S
C572 H566 0.949 . S
C572 C576 1.368 . S
C573 C554 1.429 . S
C573 C567 1.429 . S
C573 C574 1.523 . S
C574 C555 1.368 . S
C574 C568 1.368 . S
C574 C573 1.523 . S
C575 C559 1.429 . S
C575 C571 1.429 . S
C575 C576 1.523 . S
C576 C560 1.368 . S
C576 C572 1.368 . S
C576 C575 1.523 . S
H577 C552 0.950 . S
H578 C554 0.950 . S
H579 C555 0.949 . S
H580 C557 0.950 . S
H581 C559 0.950 . S
C582 C583 1.349 . S
C582 C584 1.327 . S
C582 H607 0.950 . S
C583 C582 1.349 . S
C583 C599 1.349 . S
C584 C582 1.327 . S
C584 C603 1.429 . S
C584 H608 0.950 . S
C585 C602 1.574 . S
C585 C604 1.368 . S
C585 H609 0.949 . S
H586 C590 0.949 . S
C587 C588 1.349 . S
C587 C589 1.327 . S
C587 H610 0.950 . S
C588 C587 1.349 . S
C588 C600 1.349 . S
C589 C587 1.327 . S
C589 C605 1.456 . S
C589 H611 0.950 . S
C590 H586 0.949 . S
C590 C598 1.574 . S
C590 C606 1.368 . S
H591 C599 0.950 . S
H592 C597 0.950 . S
H593 C598 0.949 . S
H594 C600 0.950 1_556 S
H595 C601 0.950 . S
H596 C602 0.949 1_554 S
C597 H592 0.950 . S
C597 C599 1.327 . S
C597 C603 1.429 . S
C598 C590 1.574 . S
C598 H593 0.949 . S
C598 C604 1.368 . S
C599 C583 1.349 . S
C599 H591 0.950 . S
C599 C597 1.327 . S
C600 C588 1.349 . S
C600 H594 0.950 1_554 S
C600 C601 1.327 1_554 S
C601 H595 0.950 . S
C601 C600 1.327 1_556 S
C601 C605 1.420 1_556 S
C602 C585 1.574 . S
C602 H596 0.949 1_556 S
C602 C606 1.368 . S
C603 C584 1.429 . S
C603 C597 1.429 . S
C603 C604 1.523 . S
C604 C585 1.368 . S
C604 C598 1.368 . S
C604 C603 1.523 . S
C605 C589 1.456 . S
C605 C601 1.420 1_554 S
C605 C606 1.507 1_554 S
C606 C590 1.368 . S
C606 C602 1.368 . S
C606 C605 1.507 1_556 S
H607 C582 0.950 . S
H608 C584 0.950 . S
H609 C585 0.949 . S
H610 C587 0.950 . S
H611 C589 0.950 . S
C612 C613 1.349 . S
C612 C614 1.327 . S
C612 H637 0.950 . S
C613 C612 1.349 . S
C613 C629 1.349 . S
C614 C612 1.327 . S
C614 C633 1.429 . S
C614 H638 0.950 . S
C615 C632 1.574 . S
C615 C634 1.368 . S
C615 H639 0.949 . S
H616 C620 0.949 . S
C617 C618 1.349 . S
C617 C619 1.327 . S
C617 H640 0.950 . S
C618 C617 1.349 . S
C618 C630 1.349 . S
C619 C617 1.327 . S
C619 C635 1.429 . S
C619 H641 0.950 . S
C620 H616 0.949 . S
C620 C628 1.574 . S
C620 C636 1.368 . S
H621 C629 0.950 . S
H622 C627 0.950 . S
H623 C628 0.949 . S
H624 C630 0.950 . S
H625 C631 0.950 . S
H626 C632 0.949 . S
C627 H622 0.950 . S
C627 C629 1.327 . S
C627 C633 1.429 . S
C628 C620 1.574 . S
C628 H623 0.949 . S
C628 C634 1.368 . S
C629 C613 1.349 . S
C629 H621 0.950 . S
C629 C627 1.327 . S
C630 C618 1.349 . S
C630 H624 0.950 . S
C630 C631 1.327 . S
C631 H625 0.950 . S
C631 C630 1.327 . S
C631 C635 1.429 . S
C632 C615 1.574 . S
C632 H626 0.949 . S
C632 C636 1.368 . S
C633 C614 1.429 . S
C633 C627 1.429 . S
C633 C634 1.523 . S
C634 C615 1.368 . S
C634 C628 1.368 . S
C634 C633 1.523 . S
C635 C619 1.429 . S
C635 C631 1.429 . S
C635 C636 1.523 . S
C636 C620 1.368 . S
C636 C632 1.368 . S
C636 C635 1.523 . S
H637 C612 0.950 . S
H638 C614 0.950 . S
H639 C615 0.949 . S
H640 C617 0.950 . S
H641 C619 0.950 . S
C642 C643 1.349 . S
C642 C644 1.327 . S
C642 H667 0.950 . S
C643 C642 1.349 . S
C643 C659 1.349 . S
C644 C642 1.327 . S
C644 C663 1.429 . S
C644 H668 0.950 . S
C645 C662 1.574 . S
C645 C664 1.368 . S
C645 H669 0.949 . S
H646 C650 0.949 . S
C647 C648 1.349 . S
C647 C649 1.327 . S
C647 H670 0.950 . S
C648 C647 1.349 . S
C648 C660 1.349 . S
C649 C647 1.327 . S
C649 C665 1.429 . S
C649 H671 0.950 . S
C650 H646 0.949 . S
C650 C658 1.574 . S
C650 C666 1.368 . S
H651 C659 0.950 . S
H652 C657 0.950 . S
H653 C658 0.949 . S
H654 C660 0.950 . S
H655 C661 0.950 . S
H656 C662 0.949 . S
C657 H652 0.950 . S
C657 C659 1.327 . S
C657 C663 1.429 . S
C658 C650 1.574 . S
C658 H653 0.949 . S
C658 C664 1.368 . S
C659 C643 1.349 . S
C659 H651 0.950 . S
C659 C657 1.327 . S
C660 C648 1.349 . S
C660 H654 0.950 . S
C660 C661 1.327 . S
C661 H655 0.950 . S
C661 C660 1.327 . S
C661 C665 1.429 . S
C662 C645 1.574 . S
C662 H656 0.949 . S
C662 C666 1.368 . S
C663 C644 1.429 . S
C663 C657 1.429 . S
C663 C664 1.523 . S
C664 C645 1.368 . S
C664 C658 1.368 . S
C664 C663 1.523 . S
C665 C649 1.429 . S
C665 C661 1.429 . S
C665 C666 1.523 . S
C666 C650 1.368 . S
C666 C662 1.368 . S
C666 C665 1.523 . S
H667 C642 0.950 . S
H668 C644 0.950 . S
H669 C645 0.949 . S
H670 C647 0.950 . S
H671 C649 0.950 . S
C672 C673 1.349 . S
C672 C674 1.327 . S
C672 H697 0.950 . S
C673 C672 1.349 . S
C673 C689 1.349 . S
C674 C672 1.327 . S
C674 C693 1.429 . S
C674 H698 0.950 . S
C675 C692 1.574 . S
C675 C694 1.368 . S
C675 H699 0.949 . S
H676 C680 0.949 . S
C677 C678 1.349 . S
C677 C679 1.327 . S
C677 H700 0.950 . S
C678 C677 1.349 . S
C678 C690 1.349 . S
C679 C677 1.327 . S
C679 C695 1.429 . S
C679 H701 0.950 . S
C680 H676 0.949 . S
C680 C688 1.574 . S
C680 C696 1.368 . S
H681 C689 0.950 . S
H682 C687 0.950 . S
H683 C688 0.949 . S
H684 C690 0.950 . S
H685 C691 0.950 . S
H686 C692 0.949 . S
C687 H682 0.950 . S
C687 C689 1.327 . S
C687 C693 1.429 . S
C688 C680 1.574 . S
C688 H683 0.949 . S
C688 C694 1.368 . S
C689 C673 1.349 . S
C689 H681 0.950 . S
C689 C687 1.327 . S
C690 C678 1.349 . S
C690 H684 0.950 . S
C690 C691 1.327 . S
C691 H685 0.950 . S
C691 C690 1.327 . S
C691 C695 1.429 . S
C692 C675 1.574 . S
C692 H686 0.949 . S
C692 C696 1.368 . S
C693 C674 1.429 . S
C693 C687 1.429 . S
C693 C694 1.523 . S
C694 C675 1.368 . S
C694 C688 1.368 . S
C694 C693 1.523 . S
C695 C679 1.429 . S
C695 C691 1.429 . S
C695 C696 1.523 . S
C696 C680 1.368 . S
C696 C692 1.368 . S
C696 C695 1.523 . S
H697 C672 0.950 . S
H698 C674 0.950 . S
H699 C675 0.949 . S
H700 C677 0.950 . S
H701 C679 0.950 . S
C702 C703 1.349 . S
C702 C704 1.327 . S
C702 H727 0.950 . S
C703 C702 1.349 . S
C703 C719 1.349 . S
C704 C702 1.327 . S
C704 C723 1.429 . S
C704 H728 0.950 . S
C705 C722 1.574 . S
C705 C724 1.368 . S
C705 H729 0.949 . S
H706 C710 0.949 . S
C707 C708 1.349 . S
C707 C709 1.327 . S
C707 H730 0.950 . S
C708 C707 1.349 . S
C708 C720 1.349 . S
C709 C707 1.327 . S
C709 C725 1.429 . S
C709 H731 0.950 . S
C710 H706 0.949 . S
C710 C718 1.574 . S
C710 C726 1.368 . S
H711 C719 0.950 . S
H712 C717 0.950 . S
H713 C718 0.949 . S
H714 C720 0.950 . S
H715 C721 0.950 . S
H716 C722 0.949 . S
C717 H712 0.950 . S
C717 C719 1.327 . S
C717 C723 1.429 . S
C718 C710 1.574 . S
C718 H713 0.949 . S
C718 C724 1.368 . S
C719 C703 1.349 . S
C719 H711 0.950 . S
C719 C717 1.327 . S
C720 C708 1.349 . S
C720 H714 0.950 . S
C720 C721 1.327 . S
C721 H715 0.950 . S
C721 C720 1.327 . S
C721 C725 1.429 . S
C722 C705 1.574 . S
C722 H716 0.949 . S
C722 C726 1.368 . S
C723 C704 1.429 . S
C723 C717 1.429 . S
C723 C724 1.523 . S
C724 C705 1.368 . S
C724 C718 1.368 . S
C724 C723 1.523 . S
C725 C709 1.429 . S
C725 C721 1.429 . S
C725 C726 1.523 . S
C726 C710 1.368 . S
C726 C722 1.368 . S
C726 C725 1.523 . S
H727 C702 0.950 . S
H728 C704 0.950 . S
H729 C705 0.949 . S
H730 C707 0.950 . S
H731 C709 0.950 . S
C732 C733 1.349 . S
C732 C734 1.327 . S
C732 H757 0.950 . S
C733 C732 1.349 . S
C733 C749 1.349 . S
C734 C732 1.327 . S
C734 C753 1.429 . S
C734 H758 0.950 . S
C735 C752 1.574 . S
C735 C754 1.368 . S
C735 H759 0.949 . S
H736 C740 0.949 . S
C737 C738 1.349 . S
C737 C739 1.327 . S
C737 H760 0.950 . S
C738 C737 1.349 . S
C738 C750 1.349 . S
C739 C737 1.327 . S
C739 C755 1.429 . S
C739 H761 0.950 . S
C740 H736 0.949 . S
C740 C748 1.574 . S
C740 C756 1.368 . S
H741 C749 0.950 . S
H742 C747 0.950 . S
H743 C748 0.949 . S
H744 C750 0.950 . S
H745 C751 0.950 . S
H746 C752 0.949 . S
C747 H742 0.950 . S
C747 C749 1.327 . S
C747 C753 1.429 . S
C748 C740 1.574 . S
C748 H743 0.949 . S
C748 C754 1.368 . S
C749 C733 1.349 . S
C749 H741 0.950 . S
C749 C747 1.327 . S
C750 C738 1.349 . S
C750 H744 0.950 . S
C750 C751 1.327 . S
C751 H745 0.950 . S
C751 C750 1.327 . S
C751 C755 1.429 . S
C752 C735 1.574 . S
C752 H746 0.949 . S
C752 C756 1.368 . S
C753 C734 1.429 . S
C753 C747 1.429 . S
C753 C754 1.523 . S
C754 C735 1.368 . S
C754 C748 1.368 . S
C754 C753 1.523 . S
C755 C739 1.429 . S
C755 C751 1.429 . S
C755 C756 1.523 . S
C756 C740 1.368 . S
C756 C752 1.368 . S
C756 C755 1.523 . S
H757 C732 0.950 . S
H758 C734 0.950 . S
H759 C735 0.949 . S
H760 C737 0.950 . S
H761 C739 0.950 . S
C762 C763 1.349 . S
C762 C764 1.327 . S
C762 H787 0.950 . S
C763 C762 1.349 . S
C763 C779 1.349 . S
C764 C762 1.327 . S
C764 C783 1.429 . S
C764 H788 0.950 . S
C765 C782 1.574 . S
C765 C784 1.368 . S
C765 H789 0.949 . S
H766 C770 0.949 . S
C767 C768 1.349 . S
C767 C769 1.327 . S
C767 H790 0.950 . S
C768 C767 1.349 . S
C768 C780 1.349 . S
C769 C767 1.327 . S
C769 C785 1.429 . S
C769 H791 0.950 . S
C770 H766 0.949 . S
C770 C778 1.574 . S
C770 C786 1.368 . S
H771 C779 0.950 . S
H772 C777 0.950 . S
H773 C778 0.949 . S
H774 C780 0.950 . S
H775 C781 0.950 . S
H776 C782 0.949 . S
C777 H772 0.950 . S
C777 C779 1.327 . S
C777 C783 1.429 . S
C778 C770 1.574 . S
C778 H773 0.949 . S
C778 C784 1.368 . S
C779 C763 1.349 . S
C779 H771 0.950 . S
C779 C777 1.327 . S
C780 C768 1.349 . S
C780 H774 0.950 . S
C780 C781 1.327 . S
C781 H775 0.950 . S
C781 C780 1.327 . S
C781 C785 1.429 . S
C782 C765 1.574 . S
C782 H776 0.949 . S
C782 C786 1.368 . S
C783 C764 1.429 . S
C783 C777 1.429 . S
C783 C784 1.523 . S
C784 C765 1.368 . S
C784 C778 1.368 . S
C784 C783 1.523 . S
C785 C769 1.429 . S
C785 C781 1.429 . S
C785 C786 1.523 . S
C786 C770 1.368 . S
C786 C782 1.368 . S
C786 C785 1.523 . S
H787 C762 0.950 . S
H788 C764 0.950 . S
H789 C765 0.949 . S
H790 C767 0.950 . S
H791 C769 0.950 . S
C792 C793 1.349 . S
C792 C794 1.327 . S
C792 H817 0.950 . S
C793 C792 1.349 . S
C793 C809 1.349 . S
C794 C792 1.327 . S
C794 C813 1.429 . S
C794 H818 0.950 . S
C795 C812 1.574 . S
C795 C814 1.368 . S
C795 H819 0.949 . S
H796 C800 0.949 . S
C797 C798 1.349 . S
C797 C799 1.327 . S
C797 H820 0.950 . S
C798 C797 1.349 . S
C798 C810 1.349 1_554 S
C799 C797 1.327 . S
C799 C815 1.429 1_554 S
C799 H821 0.950 . S
C800 H796 0.949 . S
C800 C808 1.574 . S
C800 C816 1.368 . S
H801 C809 0.950 . S
H802 C807 0.950 . S
H803 C808 0.949 . S
H804 C810 0.950 . S
H805 C811 0.950 . S
H806 C812 0.949 1_554 S
C807 H802 0.950 . S
C807 C809 1.327 . S
C807 C813 1.429 . S
C808 C800 1.574 . S
C808 H803 0.949 . S
C808 C814 1.368 . S
C809 C793 1.349 . S
C809 H801 0.950 . S
C809 C807 1.327 . S
C810 C798 1.349 1_556 S
C810 H804 0.950 . S
C810 C811 1.327 . S
C811 H805 0.950 . S
C811 C810 1.327 . S
C811 C815 1.429 . S
C812 C795 1.574 . S
C812 H806 0.949 1_556 S
C812 C816 1.368 . S
C813 C794 1.429 . S
C813 C807 1.429 . S
C813 C814 1.523 . S
C814 C795 1.368 . S
C814 C808 1.368 . S
C814 C813 1.523 . S
C815 C799 1.429 1_556 S
C815 C811 1.429 . S
C815 C816 1.523 . S
C816 C800 1.368 . S
C816 C812 1.368 . S
C816 C815 1.523 . S
H817 C792 0.950 . S
H818 C794 0.950 . S
H819 C795 0.949 . S
H820 C797 0.950 . S
H821 C799 0.950 . S
C822 C823 1.349 . S
C822 C824 1.327 . S
C822 H847 0.950 . S
C823 C822 1.349 . S
C823 C839 1.349 . S
C824 C822 1.327 . S
C824 C843 1.429 . S
C824 H848 0.950 . S
C825 C842 1.574 . S
C825 C844 1.368 . S
C825 H849 0.949 . S
H826 C830 0.949 . S
C827 C828 1.349 . S
C827 C829 1.327 . S
C827 H850 0.950 . S
C828 C827 1.349 . S
C828 C840 1.349 . S
C829 C827 1.327 . S
C829 C845 1.429 . S
C829 H851 0.950 . S
C830 H826 0.949 . S
C830 C838 1.574 . S
C830 C846 1.368 . S
H831 C839 0.950 . S
H832 C837 0.950 . S
H833 C838 0.949 . S
H834 C840 0.950 . S
H835 C841 0.950 . S
H836 C842 0.949 . S
C837 H832 0.950 . S
C837 C839 1.327 . S
C837 C843 1.429 . S
C838 C830 1.574 . S
C838 H833 0.949 . S
C838 C844 1.368 . S
C839 C823 1.349 . S
C839 H831 0.950 . S
C839 C837 1.327 . S
C840 C828 1.349 . S
C840 H834 0.950 . S
C840 C841 1.327 . S
C841 H835 0.950 . S
C841 C840 1.327 . S
C841 C845 1.429 . S
C842 C825 1.574 . S
C842 H836 0.949 . S
C842 C846 1.368 . S
C843 C824 1.429 . S
C843 C837 1.429 . S
C843 C844 1.523 . S
C844 C825 1.368 . S
C844 C838 1.368 . S
C844 C843 1.523 . S
C845 C829 1.429 . S
C845 C841 1.429 . S
C845 C846 1.523 . S
C846 C830 1.368 . S
C846 C842 1.368 . S
C846 C845 1.523 . S
H847 C822 0.950 . S
H848 C824 0.950 . S
H849 C825 0.949 . S
H850 C827 0.950 . S
H851 C829 0.950 . S
C852 C853 1.349 . S
C852 C854 1.327 . S
C852 H877 0.950 . S
C853 C852 1.349 . S
C853 C869 1.349 . S
C854 C852 1.327 . S
C854 C873 1.429 . S
C854 H878 0.950 . S
C855 C872 1.574 . S
C855 C874 1.368 . S
C855 H879 0.949 . S
H856 C860 0.949 . S
C857 C858 1.349 . S
C857 C859 1.327 . S
C857 H880 0.950 . S
C858 C857 1.349 . S
C858 C870 1.349 . S
C859 C857 1.327 . S
C859 C875 1.429 . S
C859 H881 0.950 . S
C860 H856 0.949 . S
C860 C868 1.574 . S
C860 C876 1.368 . S
H861 C869 0.950 . S
H862 C867 0.950 . S
H863 C868 0.949 . S
H864 C870 0.950 . S
H865 C871 0.950 . S
H866 C872 0.949 . S
C867 H862 0.950 . S
C867 C869 1.327 . S
C867 C873 1.429 . S
C868 C860 1.574 . S
C868 H863 0.949 . S
C868 C874 1.368 . S
C869 C853 1.349 . S
C869 H861 0.950 . S
C869 C867 1.327 . S
C870 C858 1.349 . S
C870 H864 0.950 . S
C870 C871 1.327 . S
C871 H865 0.950 . S
C871 C870 1.327 . S
C871 C875 1.429 . S
C872 C855 1.574 . S
C872 H866 0.949 . S
C872 C876 1.368 . S
C873 C854 1.429 . S
C873 C867 1.429 . S
C873 C874 1.523 . S
C874 C855 1.368 . S
C874 C868 1.368 . S
C874 C873 1.523 . S
C875 C859 1.429 . S
C875 C871 1.429 . S
C875 C876 1.523 . S
C876 C860 1.368 . S
C876 C872 1.368 . S
C876 C875 1.523 . S
H877 C852 0.950 . S
H878 C854 0.950 . S
H879 C855 0.949 . S
H880 C857 0.950 . S
H881 C859 0.950 . S
C882 C883 1.349 . S
C882 C884 1.327 . S
C882 H907 0.950 . S
C883 C882 1.349 . S
C883 C899 1.349 . S
C884 C882 1.327 . S
C884 C903 1.429 . S
C884 H908 0.950 . S
C885 C902 1.574 . S
C885 C904 1.368 . S
C885 H909 0.949 . S
H886 C890 0.949 . S
C887 C888 1.349 . S
C887 C889 1.327 . S
C887 H910 0.950 . S
C888 C887 1.349 . S
C888 C900 1.349 . S
C889 C887 1.327 . S
C889 C905 1.429 . S
C889 H911 0.950 . S
C890 H886 0.949 . S
C890 C898 1.574 . S
C890 C906 1.368 . S
H891 C899 0.950 . S
H892 C897 0.950 . S
H893 C898 0.949 . S
H894 C900 0.950 . S
H895 C901 0.950 . S
H896 C902 0.949 . S
C897 H892 0.950 . S
C897 C899 1.327 . S
C897 C903 1.429 . S
C898 C890 1.574 . S
C898 H893 0.949 . S
C898 C904 1.368 . S
C899 C883 1.349 . S
C899 H891 0.950 . S
C899 C897 1.327 . S
C900 C888 1.349 . S
C900 H894 0.950 . S
C900 C901 1.327 . S
C901 H895 0.950 . S
C901 C900 1.327 . S
C901 C905 1.429 . S
C902 C885 1.574 . S
C902 H896 0.949 . S
C902 C906 1.368 . S
C903 C884 1.429 . S
C903 C897 1.429 . S
C903 C904 1.523 . S
C904 C885 1.368 . S
C904 C898 1.368 . S
C904 C903 1.523 . S
C905 C889 1.429 . S
C905 C901 1.429 . S
C905 C906 1.523 . S
C906 C890 1.368 . S
C906 C902 1.368 . S
C906 C905 1.523 . S
H907 C882 0.950 . S
H908 C884 0.950 . S
H909 C885 0.949 . S
H910 C887 0.950 . S
H911 C889 0.950 . S
C912 C913 1.349 . S
C912 C914 1.327 . S
C912 H937 0.950 . S
C913 C912 1.349 . S
C913 C929 1.349 . S
C914 C912 1.327 . S
C914 C933 1.429 . S
C914 H938 0.950 . S
C915 C932 1.574 . S
C915 C934 1.368 . S
C915 H939 0.949 . S
H916 C920 0.949 . S
C917 C918 1.349 . S
C917 C919 1.327 . S
C917 H940 0.950 . S
C918 C917 1.349 . S
C918 C930 1.349 . S
C919 C917 1.327 . S
C919 C935 1.429 . S
C919 H941 0.950 . S
C920 H916 0.949 . S
C920 C928 1.574 . S
C920 C936 1.368 . S
H921 C929 0.950 . S
H922 C927 0.950 . S
H923 C928 0.949 . S
H924 C930 0.950 . S
H925 C931 0.950 . S
H926 C932 0.949 . S
C927 H922 0.950 . S
C927 C929 1.327 . S
C927 C933 1.429 . S
C928 C920 1.574 . S
C928 H923 0.949 . S
C928 C934 1.368 . S
C929 C913 1.349 . S
C929 H921 0.950 . S
C929 C927 1.327 . S
C930 C918 1.349 . S
C930 H924 0.950 . S
C930 C931 1.327 . S
C931 H925 0.950 . S
C931 C930 1.327 . S
C931 C935 1.429 . S
C932 C915 1.574 . S
C932 H926 0.949 . S
C932 C936 1.368 . S
C933 C914 1.429 . S
C933 C927 1.429 . S
C933 C934 1.523 . S
C934 C915 1.368 . S
C934 C928 1.368 . S
C934 C933 1.523 . S
C935 C919 1.429 . S
C935 C931 1.429 . S
C935 C936 1.523 . S
C936 C920 1.368 . S
C936 C932 1.368 . S
C936 C935 1.523 . S
H937 C912 0.950 . S
H938 C914 0.950 . S
H939 C915 0.949 . S
H940 C917 0.950 . S
H941 C919 0.950 . S
C942 C943 1.349 . S
C942 C944 1.327 . S
C942 H967 0.950 . S
C943 C942 1.349 . S
C943 C959 1.349 . S
C944 C942 1.327 . S
C944 C963 1.429 . S
C944 H968 0.950 . S
C945 C962 1.574 . S
C945 C964 1.368 . S
C945 H969 0.949 . S
H946 C950 0.949 . S
C947 C948 1.349 . S
C947 C949 1.327 . S
C947 H970 0.950 . S
C948 C947 1.349 . S
C948 C960 1.349 . S
C949 C947 1.327 . S
C949 C965 1.429 . S
C949 H971 0.950 . S
C950 H946 0.949 . S
C950 C958 1.574 . S
C950 C966 1.368 . S
H951 C959 0.950 . S
H952 C957 0.950 . S
H953 C958 0.949 . S
H954 C960 0.950 . S
H955 C961 0.950 . S
H956 C962 0.949 . S
C957 H952 0.950 . S
C957 C959 1.327 . S
C957 C963 1.429 . S
C958 C950 1.574 . S
C958 H953 0.949 . S
C958 C964 1.368 . S
C959 C943 1.349 . S
C959 H951 0.950 . S
C959 C957 1.327 . S
C960 C948 1.349 . S
C960 H954 0.950 . S
C960 C961 1.327 . S
C961 H955 0.950 . S
C961 C960 1.327 . S
C961 C965 1.429 . S
C962 C945 1.574 . S
C962 H956 0.949 . S
C962 C966 1.368 . S
C963 C944 1.429 . S
C963 C957 1.429 . S
C963 C964 1.523 . S
C964 C945 1.368 . S
C964 C958 1.368 . S
C964 C963 1.523 . S
C965 C949 1.429 . S
C965 C961 1.429 . S
C965 C966 1.523 . S
C966 C950 1.368 . S
C966 C962 1.368 . S
C966 C965 1.523 . S
H967 C942 0.950 . S
H968 C944 0.950 . S
H969 C945 0.949 . S
H970 C947 0.950 . S
H971 C949 0.950 . S
C972 C973 1.349 . S
C972 C974 1.327 . S
C972 H997 0.950 . S
C973 C972 1.349 . S
C973 C989 1.349 . S
C974 C972 1.327 . S
C974 C993 1.429 . S
C974 H998 0.950 . S
C975 C992 1.574 . S
C975 C994 1.368 . S
C975 H999 0.949 . S
H976 C980 0.949 . S
C977 C978 1.349 . S
C977 C979 1.327 . S
C977 H1000 0.950 . S
C978 C977 1.349 . S
C978 C990 1.349 . S
C979 C977 1.327 . S
C979 C995 1.429 . S
C979 H1001 0.950 . S
C980 H976 0.949 . S
C980 C988 1.574 . S
C980 C996 1.368 . S
H981 C989 0.950 . S
H982 C987 0.950 . S
H983 C988 0.949 . S
H984 C990 0.950 . S
H985 C991 0.950 . S
H986 C992 0.949 . S
C987 H982 0.950 . S
C987 C989 1.327 . S
C987 C993 1.429 . S
C988 C980 1.574 . S
C988 H983 0.949 . S
C988 C994 1.368 . S
C989 C973 1.349 . S
C989 H981 0.950 . S
C989 C987 1.327 . S
C990 C978 1.349 . S
C990 H984 0.950 . S
C990 C991 1.327 . S
C991 H985 0.950 . S
C991 C990 1.327 . S
C991 C995 1.429 . S
C992 C975 1.574 . S
C992 H986 0.949 . S
C992 C996 1.368 . S
C993 C974 1.429 . S
C993 C987 1.429 . S
C993 C994 1.523 . S
C994 C975 1.368 . S
C994 C988 1.368 . S
C994 C993 1.523 . S
C995 C979 1.429 . S
C995 C991 1.429 . S
C995 C996 1.523 . S
C996 C980 1.368 . S
C996 C992 1.368 . S
C996 C995 1.523 . S
H997 C972 0.950 . S
H998 C974 0.950 . S
H999 C975 0.949 . S
H1000 C977 0.950 . S
H1001 C979 0.950 . S
C1002 C1003 1.349 . S
C1002 C1004 1.327 . S
C1002 H1027 0.950 . S
C1003 C1002 1.349 . S
C1003 C1019 1.349 . S
C1004 C1002 1.327 . S
C1004 C1023 1.429 . S
C1004 H1028 0.950 . S
C1005 C1022 1.574 . S
C1005 C1024 1.368 . S
C1005 H1029 0.949 . S
H1006 C1010 0.949 . S
C1007 C1008 1.349 . S
C1007 C1009 1.327 . S
C1007 H1030 0.950 . S
C1008 C1007 1.349 . S
C1008 C1020 1.349 . S
C1009 C1007 1.327 . S
C1009 C1025 1.429 . S
C1009 H1031 0.950 . S
C1010 H1006 0.949 . S
C1010 C1018 1.574 . S
C1010 C1026 1.368 . S
H1011 C1019 0.950 . S
H1012 C1017 0.950 . S
H1013 C1018 0.949 . S
H1014 C1020 0.950 . S
H1015 C1021 0.950 . S
H1016 C1022 0.949 . S
C1017 H1012 0.950 . S
C1017 C1019 1.327 . S
C1017 C1023 1.429 . S
C1018 C1010 1.574 . S
C1018 H1013 0.949 . S
C1018 C1024 1.368 . S
C1019 C1003 1.349 . S
C1019 H1011 0.950 . S
C1019 C1017 1.327 . S
C1020 C1008 1.349 . S
C1020 H1014 0.950 . S
C1020 C1021 1.327 . S
C1021 H1015 0.950 . S
C1021 C1020 1.327 . S
C1021 C1025 1.429 . S
C1022 C1005 1.574 . S
C1022 H1016 0.949 . S
C1022 C1026 1.368 . S
C1023 C1004 1.429 . S
C1023 C1017 1.429 . S
C1023 C1024 1.523 . S
C1024 C1005 1.368 . S
C1024 C1018 1.368 . S
C1024 C1023 1.523 . S
C1025 C1009 1.429 . S
C1025 C1021 1.429 . S
C1025 C1026 1.523 . S
C1026 C1010 1.368 . S
C1026 C1022 1.368 . S
C1026 C1025 1.523 . S
H1027 C1002 0.950 . S
H1028 C1004 0.950 . S
H1029 C1005 0.949 . S
H1030 C1007 0.950 . S
H1031 C1009 0.950 . S
C313 C6 1.217 . S
C318 C159 1.233 . S
C343 C21 1.536 . S
C348 C208 1.549 . S
C378 C234 1.685 . S
C373 C49 1.629 . S
C403 C68 1.946 . S
C408 C282 2.007 1_655 S
C438 C194 3.234 . S
C433 C2 3.146 . S
C468 C162 0.404 . S
C463 C30 0.482 . S
C498 C283 1.771 . S
C493 C40 1.804 . S
C528 C251 1.327 . S
C523 C63 1.331 . S
C553 C11 1.487 . S
C558 C279 1.630 . S
C588 C211 2.612 . S
C583 C44 2.684 . S
C613 C59 1.903 . S
C618 C163 1.904 . S
C643 C25 1.083 . S
C648 C248 1.076 . S
C678 C168 1.560 . S
C673 C82 1.556 . S
C703 C101 1.209 . S
C708 C199 1.209 . S
C733 C125 2.196 . S
C738 C243 2.313 . S
C763 C144 1.620 . S
C768 C291 1.712 . S
C793 C87 1.920 . S
C798 C203 2.045 1_565 S
C828 C171 1.956 . S
C823 C97 1.996 . S
C858 C274 1.560 . S
C853 C120 1.611 . S
C888 C242 1.345 . S
C883 C135 1.398 . S
C913 C78 2.023 . S
C918 C288 2.108 . S
C948 C202 1.814 . S
C943 C116 1.856 . S
C978 C154 2.660 . S
C973 C139 2.668 . S
C1003 C106 0.783 . S
C1008 C239 0.815 . S
