# Generated by pormake.
# Topology ctn, (3,4)-cn, num edge types: 1
# Building blocks:
#     Node 0, Type 0, BuildingBlock: BETDIP_clean_linker_0, # of connection points: 3
#     Node 1, Type 0, BuildingBlock: BETDIP_clean_linker_0, # of connection points: 3
#     Node 2, Type 0, BuildingBlock: BETDIP_clean_linker_0, # of connection points: 3
#     Node 3, Type 0, BuildingBlock: BETDIP_clean_linker_0, # of connection points: 3
#     Node 4, Type 0, BuildingBlock: BETDIP_clean_linker_0, # of connection points: 3
#     Node 5, Type 0, BuildingBlock: BETDIP_clean_linker_0, # of connection points: 3
#     Node 6, Type 0, BuildingBlock: BETDIP_clean_linker_0, # of connection points: 3
#     Node 7, Type 0, BuildingBlock: BETDIP_clean_linker_0, # of connection points: 3
#     Node 8, Type 0, BuildingBlock: BETDIP_clean_linker_0, # of connection points: 3
#     Node 9, Type 0, BuildingBlock: BETDIP_clean_linker_0, # of connection points: 3
#     Node 10, Type 0, BuildingBlock: BETDIP_clean_linker_0, # of connection points: 3
#     Node 11, Type 0, BuildingBlock: BETDIP_clean_linker_0, # of connection points: 3
#     Node 12, Type 0, BuildingBlock: BETDIP_clean_linker_0, # of connection points: 3
#     Node 13, Type 0, BuildingBlock: BETDIP_clean_linker_0, # of connection points: 3
#     Node 14, Type 0, BuildingBlock: BETDIP_clean_linker_0, # of connection points: 3
#     Node 15, Type 0, BuildingBlock: BETDIP_clean_linker_0, # of connection points: 3
#     Node 16, Type 1, BuildingBlock: NAHDIM_clean_sbu_0, # of connection points: 4
#     Node 17, Type 1, BuildingBlock: NAHDIM_clean_sbu_0, # of connection points: 4
#     Node 18, Type 1, BuildingBlock: NAHDIM_clean_sbu_0, # of connection points: 4
#     Node 19, Type 1, BuildingBlock: NAHDIM_clean_sbu_0, # of connection points: 4
#     Node 20, Type 1, BuildingBlock: NAHDIM_clean_sbu_0, # of connection points: 4
#     Node 21, Type 1, BuildingBlock: NAHDIM_clean_sbu_0, # of connection points: 4
#     Node 22, Type 1, BuildingBlock: NAHDIM_clean_sbu_0, # of connection points: 4
#     Node 23, Type 1, BuildingBlock: NAHDIM_clean_sbu_0, # of connection points: 4
#     Node 24, Type 1, BuildingBlock: NAHDIM_clean_sbu_0, # of connection points: 4
#     Node 25, Type 1, BuildingBlock: NAHDIM_clean_sbu_0, # of connection points: 4
#     Node 26, Type 1, BuildingBlock: NAHDIM_clean_sbu_0, # of connection points: 4
#     Node 27, Type 1, BuildingBlock: NAHDIM_clean_sbu_0, # of connection points: 4
#     Edge 28, Type (0, 1), BuildingBlock: AJUNOK_clean_linker_0, # of connection points: 2
#     Edge 29, Type (0, 1), BuildingBlock: AJUNOK_clean_linker_0, # of connection points: 2
#     Edge 30, Type (0, 1), BuildingBlock: AJUNOK_clean_linker_0, # of connection points: 2
#     Edge 31, Type (0, 1), BuildingBlock: AJUNOK_clean_linker_0, # of connection points: 2
#     Edge 32, Type (0, 1), BuildingBlock: AJUNOK_clean_linker_0, # of connection points: 2
#     Edge 33, Type (0, 1), BuildingBlock: AJUNOK_clean_linker_0, # of connection points: 2
#     Edge 34, Type (0, 1), BuildingBlock: AJUNOK_clean_linker_0, # of connection points: 2
#     Edge 35, Type (0, 1), BuildingBlock: AJUNOK_clean_linker_0, # of connection points: 2
#     Edge 36, Type (0, 1), BuildingBlock: AJUNOK_clean_linker_0, # of connection points: 2
#     Edge 37, Type (0, 1), BuildingBlock: AJUNOK_clean_linker_0, # of connection points: 2
#     Edge 38, Type (0, 1), BuildingBlock: AJUNOK_clean_linker_0, # of connection points: 2
#     Edge 39, Type (0, 1), BuildingBlock: AJUNOK_clean_linker_0, # of connection points: 2
#     Edge 40, Type (0, 1), BuildingBlock: AJUNOK_clean_linker_0, # of connection points: 2
#     Edge 41, Type (0, 1), BuildingBlock: AJUNOK_clean_linker_0, # of connection points: 2
#     Edge 42, Type (0, 1), BuildingBlock: AJUNOK_clean_linker_0, # of connection points: 2
#     Edge 43, Type (0, 1), BuildingBlock: AJUNOK_clean_linker_0, # of connection points: 2
#     Edge 44, Type (0, 1), BuildingBlock: AJUNOK_clean_linker_0, # of connection points: 2
#     Edge 45, Type (0, 1), BuildingBlock: AJUNOK_clean_linker_0, # of connection points: 2
#     Edge 46, Type (0, 1), BuildingBlock: AJUNOK_clean_linker_0, # of connection points: 2
#     Edge 47, Type (0, 1), BuildingBlock: AJUNOK_clean_linker_0, # of connection points: 2
#     Edge 48, Type (0, 1), BuildingBlock: AJUNOK_clean_linker_0, # of connection points: 2
#     Edge 49, Type (0, 1), BuildingBlock: AJUNOK_clean_linker_0, # of connection points: 2
#     Edge 50, Type (0, 1), BuildingBlock: AJUNOK_clean_linker_0, # of connection points: 2
#     Edge 51, Type (0, 1), BuildingBlock: AJUNOK_clean_linker_0, # of connection points: 2
#     Edge 52, Type (0, 1), BuildingBlock: AJUNOK_clean_linker_0, # of connection points: 2
#     Edge 53, Type (0, 1), BuildingBlock: AJUNOK_clean_linker_0, # of connection points: 2
#     Edge 54, Type (0, 1), BuildingBlock: AJUNOK_clean_linker_0, # of connection points: 2
#     Edge 55, Type (0, 1), BuildingBlock: AJUNOK_clean_linker_0, # of connection points: 2
#     Edge 56, Type (0, 1), BuildingBlock: AJUNOK_clean_linker_0, # of connection points: 2
#     Edge 57, Type (0, 1), BuildingBlock: AJUNOK_clean_linker_0, # of connection points: 2
#     Edge 58, Type (0, 1), BuildingBlock: AJUNOK_clean_linker_0, # of connection points: 2
#     Edge 59, Type (0, 1), BuildingBlock: AJUNOK_clean_linker_0, # of connection points: 2
#     Edge 60, Type (0, 1), BuildingBlock: AJUNOK_clean_linker_0, # of connection points: 2
#     Edge 61, Type (0, 1), BuildingBlock: AJUNOK_clean_linker_0, # of connection points: 2
#     Edge 62, Type (0, 1), BuildingBlock: AJUNOK_clean_linker_0, # of connection points: 2
#     Edge 63, Type (0, 1), BuildingBlock: AJUNOK_clean_linker_0, # of connection points: 2
#     Edge 64, Type (0, 1), BuildingBlock: AJUNOK_clean_linker_0, # of connection points: 2
#     Edge 65, Type (0, 1), BuildingBlock: AJUNOK_clean_linker_0, # of connection points: 2
#     Edge 66, Type (0, 1), BuildingBlock: AJUNOK_clean_linker_0, # of connection points: 2
#     Edge 67, Type (0, 1), BuildingBlock: AJUNOK_clean_linker_0, # of connection points: 2
#     Edge 68, Type (0, 1), BuildingBlock: AJUNOK_clean_linker_0, # of connection points: 2
#     Edge 69, Type (0, 1), BuildingBlock: AJUNOK_clean_linker_0, # of connection points: 2
#     Edge 70, Type (0, 1), BuildingBlock: AJUNOK_clean_linker_0, # of connection points: 2
#     Edge 71, Type (0, 1), BuildingBlock: AJUNOK_clean_linker_0, # of connection points: 2
#     Edge 72, Type (0, 1), BuildingBlock: AJUNOK_clean_linker_0, # of connection points: 2
#     Edge 73, Type (0, 1), BuildingBlock: AJUNOK_clean_linker_0, # of connection points: 2
#     Edge 74, Type (0, 1), BuildingBlock: AJUNOK_clean_linker_0, # of connection points: 2
#     Edge 75, Type (0, 1), BuildingBlock: AJUNOK_clean_linker_0, # of connection points: 2
# Relax obj value: 0.073
# Max RMSD: 0.190
# Mean RMSD: 0.115
data_MOF--net-ctn--node1-NAHDIM_clean_sbu_0--node2-BETDIP_clean_linker_0--edge1-AJUNOK_clean_linker_0
_symmetry_space_group_name_H-M    P1
_symmetry_Int_Tables_number       1
_symmetry_cell_setting            triclinic
loop_
_symmetry_equiv_pos_as_xyz
'x, y, z'
_cell_length_a     37.962368
_cell_length_b     38.467292
_cell_length_c     42.095372
_cell_angle_alpha  95.288124
_cell_angle_beta   94.056758
_cell_angle_gamma 95.565483
loop_
_atom_site_label
_atom_site_type_symbol
_atom_site_fract_x
_atom_site_fract_y
_atom_site_fract_z
_atom_type_partial_charge
H0 H 0.02 0.07245 0.06673 0.0
H1 H 0.10608 0.03996 0.01409 0.0
H2 H 0.08804 0.99921 0.10338 0.0
H3 H 0.09805 0.08309 0.98629 0.0
C4 C 0.07338 0.09406 0.99043 0.0
C5 C 0.04262 0.05745 0.06491 0.0
C6 C 0.05174 0.0361 0.08902 0.0
C7 C 0.06246 0.06003 0.03826 0.0
C8 C 0.09085 0.0394 0.03478 0.0
C9 C 0.09964 0.01701 0.05791 0.0
C10 C 0.08025 0.01561 0.08504 0.0
N11 N 0.05315 0.08393 0.0159 0.0
H12 H 0.2373 0.68992 0.20432 0.0
H13 H 0.33919 0.74875 0.229 0.0
H14 H 0.30214 0.66823 0.28665 0.0
H15 H 0.32354 0.78183 0.19177 0.0
C16 C 0.30068 0.76919 0.1767 0.0
C17 C 0.26137 0.69555 0.22018 0.0
C18 C 0.26629 0.67644 0.24662 0.0
C19 C 0.28721 0.72167 0.21356 0.0
C20 C 0.31889 0.72857 0.23357 0.0
C21 C 0.32453 0.70926 0.25997 0.0
C22 C 0.29804 0.68323 0.26637 0.0
N23 N 0.28011 0.73967 0.18621 0.0
H24 H 0.94256 0.49111 0.99565 0.0
H25 H 0.02142 0.45915 0.06181 0.0
H26 H 0.96251 0.54529 0.0904 0.0
H27 H 0.04682 0.44409 0.01583 0.0
C28 C 0.0239 0.43197 1.00045 0.0
C29 C 0.95724 0.49469 0.01896 0.0
C30 C 0.94931 0.52073 0.04222 0.0
C31 C 0.98412 0.47332 0.02539 0.0
C32 C 1.00239 0.47724 0.05589 0.0
C33 C 0.99527 0.50338 0.07945 0.0
C34 C 0.96864 0.52527 0.07238 0.0
N35 N 0.99126 0.4472 1.00121 0.0
H36 H 0.7085 0.77042 0.15988 0.0
H37 H 0.75199 0.855 0.22999 0.0
H38 H 0.80411 0.83365 0.14402 0.0
H39 H 0.71989 0.82486 0.26292 0.0
C40 C 0.69665 0.81149 0.24884 0.0
C41 C 0.72866 0.79203 0.16761 0.0
C42 C 0.75661 0.7997 0.14846 0.0
C43 C 0.72691 0.81134 0.19722 0.0
C44 C 0.75326 0.83925 0.20753 0.0
C45 C 0.78156 0.84709 0.18865 0.0
C46 C 0.7829 0.82723 0.15912 0.0
N47 N 0.69802 0.80202 0.21555 0.0
H48 H 0.01555 0.96467 0.43068 0.0
H49 H 0.10439 0.01059 0.49513 0.0
H50 H 0.08164 0.05432 0.40683 0.0
H51 H 0.09636 0.96358 0.51967 0.0
C52 C 0.07061 0.94928 0.51257 0.0
C53 C 0.03812 0.98429 0.43643 0.0
C54 C 0.04561 0.00991 0.4155 0.0
C55 C 0.0593 0.98374 0.46496 0.0
C56 C 0.08819 0.00967 0.47285 0.0
C57 C 0.09601 0.0355 0.45215 0.0
C58 C 0.07489 0.03518 0.42337 0.0
N59 N 0.05013 0.95696 0.48497 0.0
H60 H 0.22233 0.76479 0.83966 0.0
H61 H 0.24926 0.68582 0.76953 0.0
H62 H 0.31385 0.70952 0.85851 0.0
H63 H 0.21223 0.70973 0.73616 0.0
C64 C 0.19425 0.72398 0.75003 0.0
C65 C 0.24008 0.74568 0.83221 0.0
C66 C 0.26915 0.73995 0.85282 0.0
C67 C 0.23305 0.72704 0.8021 0.0
C68 C 0.25486 0.70117 0.79248 0.0
C69 C 0.28385 0.69442 0.81293 0.0
C70 C 0.29129 0.71434 0.84289 0.0
N71 N 0.20305 0.73475 0.78299 0.0
H72 H 0.0149 0.59508 0.4685 0.0
H73 H 0.94735 0.49792 0.44809 0.0
H74 H 0.93323 0.56822 0.53048 0.0
H75 H 0.99956 0.48067 0.4305 0.0
C76 C 0.00794 0.50217 0.41683 0.0
C77 C 0.99279 0.57737 0.47424 0.0
C78 C 0.97505 0.58538 0.50171 0.0
C79 C 0.98354 0.54552 0.45519 0.0
C80 C 0.95509 0.52237 0.46289 0.0
C81 C 0.93666 0.53052 0.48992 0.0
C82 C 0.94707 0.5619 0.50936 0.0
N83 N 0.00353 0.53715 0.42874 0.0
H84 H 0.79687 0.84534 0.75897 0.0
H85 H 0.83198 0.76207 0.81069 0.0
H86 H 0.74443 0.81589 0.84136 0.0
H87 H 0.85385 0.74531 0.76482 0.0
C88 C 0.86168 0.76901 0.75385 0.0
C89 C 0.79402 0.82881 0.77833 0.0
C90 C 0.76781 0.83389 0.79973 0.0
C91 C 0.81691 0.80274 0.78166 0.0
C92 C 0.814 0.7818 0.80725 0.0
C93 C 0.78772 0.78615 0.82876 0.0
C94 C 0.76471 0.8123 0.82483 0.0
N95 N 0.84297 0.799 0.75924 0.0
H96 H 0.28081 0.34008 0.25758 0.0
H97 H 0.32719 0.26603 0.31375 0.0
H98 H 0.23888 0.31759 0.34661 0.0
H99 H 0.37542 0.2834 0.28809 0.0
C100 C 0.36495 0.28647 0.26396 0.0
C101 C 0.28097 0.32569 0.27856 0.0
C102 C 0.25717 0.33219 0.30188 0.0
C103 C 0.30646 0.30226 0.28275 0.0
C104 C 0.30744 0.28406 0.31026 0.0
C105 C 0.28295 0.28916 0.33345 0.0
C106 C 0.25793 0.3134 0.32901 0.0
N107 N 0.33069 0.29786 0.2588 0.0
H108 H 0.4482 0.01022 0.49577 0.0
H109 H 0.51715 0.96089 0.55885 0.0
H110 H 0.47548 0.05586 0.59293 0.0
H111 H 0.53607 0.93813 0.51423 0.0
C112 C 0.51324 0.93385 0.49681 0.0
C113 C 0.46224 0.00993 0.51906 0.0
C114 C 0.45891 0.03641 0.54372 0.0
C115 C 0.48389 0.98317 0.52388 0.0
C116 C 0.502 0.98248 0.55406 0.0
C117 C 0.49998 0.00911 0.57881 0.0
C118 C 0.47794 0.03579 0.57363 0.0
N119 N 0.48623 0.95698 0.49814 0.0
H120 H 0.23149 0.27223 0.66641 0.0
H121 H 0.26381 0.35711 0.73967 0.0
H122 H 0.32809 0.33964 0.66127 0.0
H123 H 0.23308 0.32353 0.77005 0.0
C124 C 0.21098 0.30954 0.75488 0.0
C125 C 0.25039 0.29414 0.67626 0.0
C126 C 0.28017 0.30399 0.65973 0.0
C127 C 0.24471 0.31233 0.70558 0.0
C128 C 0.26838 0.34171 0.7178 0.0
C129 C 0.29831 0.35167 0.70175 0.0
C130 C 0.30446 0.33231 0.67317 0.0
N131 N 0.21475 0.30069 0.72179 0.0
H132 H 0.75371 0.19259 0.69156 0.0
H133 H 0.85552 0.24798 0.72361 0.0
H134 H 0.81281 0.16392 0.77462 0.0
H135 H 0.85492 0.26086 0.6725 0.0
C136 C 0.82736 0.26407 0.66583 0.0
C137 C 0.77696 0.19647 0.70849 0.0
C138 C 0.7796 0.17539 0.7339 0.0
C139 C 0.80436 0.22218 0.70416 0.0
C140 C 0.8348 0.22714 0.72573 0.0
C141 C 0.83818 0.20595 0.751 0.0
C142 C 0.81043 0.18017 0.75501 0.0
N143 N 0.79977 0.24321 0.67846 0.0
H144 H 0.51441 0.5702 0.56896 0.0
H145 H 0.59876 0.54222 0.51179 0.0
H146 H 0.58586 0.49739 0.60026 0.0
H147 H 0.57379 0.57052 0.47531 0.0
C148 C 0.55577 0.58772 0.48575 0.0
C149 C 0.5369 0.55537 0.56527 0.0
C150 C 0.54751 0.53312 0.58801 0.0
C151 C 0.55479 0.55877 0.5376 0.0
C152 C 0.58405 0.53969 0.53264 0.0
C153 C 0.59504 0.51722 0.55502 0.0
C154 C 0.57665 0.51394 0.58259 0.0
N155 N 0.54316 0.58261 0.51617 0.0
H156 H 0.51167 0.47237 0.94096 0.0
H157 H 0.60551 0.50383 0.00435 0.0
H158 H 0.58409 0.56053 0.92339 0.0
H159 H 0.59252 0.45661 0.02637 0.0
C160 C 0.5656 0.44514 0.01929 0.0
C161 C 0.53579 0.48978 0.94757 0.0
C162 C 0.54544 0.51679 0.92858 0.0
C163 C 0.55716 0.48455 0.97483 0.0
C164 C 0.58849 0.50712 0.98344 0.0
C165 C 0.59836 0.5345 0.96493 0.0
C166 C 0.57684 0.53906 0.93741 0.0
N167 N 0.5459 0.45658 0.99291 0.0
H168 H 0.71188 0.25105 0.33735 0.0
H169 H 0.7523 0.17603 0.27145 0.0
H170 H 0.8075 0.20579 0.36445 0.0
H171 H 0.7215 0.2057 0.23436 0.0
C172 C 0.69811 0.21172 0.24637 0.0
C173 C 0.73214 0.23393 0.33173 0.0
C174 C 0.76001 0.23088 0.3546 0.0
C175 C 0.72971 0.2151 0.30161 0.0
C176 C 0.75501 0.19192 0.29426 0.0
C177 C 0.78287 0.1878 0.31706 0.0
C178 C 0.78552 0.20788 0.34708 0.0
N179 N 0.70025 0.21902 0.28013 0.0
H180 H 0.51443 0.10573 0.97473 0.0
H181 H 0.45517 0.00693 0.9395 0.0
H182 H 0.42991 0.06229 0.02669 0.0
H183 H 0.4994 0.99953 0.91016 0.0
C184 C 0.51353 0.02469 0.90697 0.0
C185 C 0.49326 0.08529 0.97701 0.0
C186 C 0.4723 0.08785 0.00313 0.0
C187 C 0.48797 0.05599 0.95422 0.0
C188 C 0.4607 0.02925 0.9573 0.0
C189 C 0.43956 0.03154 0.98331 0.0
C190 C 0.44575 0.06072 0.00625 0.0
N191 N 0.51048 0.05465 0.92863 0.0
C192 C 0.22129 0.93858 0.03843 0.0
O193 O 0.25301 0.95438 0.04793 0.0
O194 O 0.26061 0.85101 0.9776 0.0
Zn195 Zn 0.26451 0.8858 0.0172 0.0
O196 O 0.3021 0.92421 0.01073 0.0
C197 C 0.25864 0.83717 0.06397 0.0
O198 O 0.22887 0.82708 0.04626 0.0
O199 O 0.21864 0.90772 0.02402 0.0
C200 C 0.3327 0.91819 0.00272 0.0
O201 O 0.34058 0.88562 0.99932 0.0
C202 C 0.27643 0.82323 0.97616 0.0
O203 O 0.29466 0.81541 1.00174 0.0
O204 O 0.27891 0.86274 0.05628 0.0
C205 C 0.17035 0.44691 0.28302 0.0
O206 O 0.17216 0.47434 0.30432 0.0
O207 O 0.09638 0.49916 0.28908 0.0
Zn208 Zn 0.12676 0.49118 0.25216 0.0
O209 O 0.16478 0.53165 0.2547 0.0
C210 C 0.06817 0.50174 0.20603 0.0
O211 O 0.05329 0.51327 0.23165 0.0
O212 O 0.15141 0.44723 0.25687 0.0
C213 C 0.15655 0.56293 0.25785 0.0
O214 O 0.12303 0.56806 0.25982 0.0
C215 C 0.08235 0.47356 0.30248 0.0
O216 O 0.08639 0.44142 0.29091 0.0
O217 O 0.09826 0.48987 0.20929 0.0
C218 C 0.83418 0.60431 0.00982 0.0
O219 O 0.80181 0.59425 0.01667 0.0
O220 O 0.80433 0.69026 0.94976 0.0
Zn221 Zn 0.79825 0.66167 0.988 0.0
O222 O 0.75231 0.62933 0.97918 0.0
C223 C 0.76866 0.71384 0.02911 0.0
O224 O 0.74461 0.7115 0.0048 0.0
O225 O 0.83985 0.63284 0.99694 0.0
C226 C 0.73114 0.62324 1.00059 0.0
O227 O 0.74004 0.63685 0.03016 0.0
C228 C 0.77672 0.69545 0.93249 0.0
O229 O 0.7457 0.68131 0.93945 0.0
O230 O 0.79452 0.69525 0.0272 0.0
C231 C 0.87523 0.07984 0.28232 0.0
O232 O 0.88043 0.05469 0.30068 0.0
O233 O 0.94994 0.03501 0.28457 0.0
Zn234 Zn 0.91717 0.03779 0.24517 0.0
O235 O 0.88211 0.99387 0.23601 0.0
C236 C 0.97373 0.02896 0.20322 0.0
O237 O 0.98347 0.00793 0.22432 0.0
O238 O 0.8888 0.07881 0.25548 0.0
C239 C 0.88953 0.96563 0.22098 0.0
O240 O 0.92112 0.96443 0.21045 0.0
C241 C 0.95636 0.00701 0.29667 0.0
O242 O 0.94205 0.97662 0.2824 0.0
O243 O 0.9464 0.04516 0.20714 0.0
C244 C 0.36233 0.14192 0.51845 0.0
O245 O 0.36701 0.17374 0.53336 0.0
O246 O 0.29916 0.19014 0.45356 0.0
Zn247 Zn 0.29394 0.16274 0.49256 0.0
O248 O 0.24947 0.12911 0.48364 0.0
C249 C 0.3049 0.22471 0.53993 0.0
O250 O 0.32675 0.23761 0.5201 0.0
O251 O 0.33442 0.13277 0.49983 0.0
C252 C 0.21869 0.13953 0.48239 0.0
O253 O 0.2157 0.17327 0.48752 0.0
C254 C 0.28403 0.21787 0.45017 0.0
O255 O 0.26586 0.23048 0.4732 0.0
O256 O 0.28894 0.19404 0.53307 0.0
C257 C 0.3685 0.58142 0.77396 0.0
O258 O 0.35638 0.54868 0.77621 0.0
O259 O 0.46162 0.54035 0.79056 0.0
Zn260 Zn 0.42759 0.54643 0.75291 0.0
O261 O 0.39323 0.50261 0.74198 0.0
C262 C 0.47157 0.527 0.70367 0.0
O263 O 0.47021 0.49895 0.71926 0.0
O264 O 0.39931 0.58783 0.7643 0.0
C265 C 0.3987 0.47212 0.74923 0.0
O266 O 0.4287 0.46753 0.76504 0.0
C267 C 0.45063 0.53626 0.81793 0.0
O268 O 0.4165 0.53601 0.82142 0.0
O269 O 0.45562 0.55288 0.71405 0.0
C270 C 0.71773 0.44071 0.53332 0.0
O271 O 0.74987 0.4559 0.54191 0.0
O272 O 0.75163 0.34757 0.47611 0.0
Zn273 Zn 0.75809 0.38344 0.51513 0.0
O274 O 0.79878 0.41807 0.50636 0.0
C275 C 0.79978 0.34837 0.56062 0.0
O276 O 0.82438 0.35277 0.54049 0.0
O277 O 0.71395 0.40891 0.52107 0.0
C278 C 0.82217 0.43436 0.52692 0.0
O279 O 0.82061 0.42931 0.55725 0.0
C280 C 0.7566 0.31532 0.47651 0.0
O281 O 0.76309 0.30291 0.50409 0.0
O282 O 0.76992 0.3598 0.55478 0.0
C283 C 0.67921 0.94719 0.77962 0.0
O284 O 0.67794 0.9731 0.802 0.0
O285 O 0.60554 0.99777 0.78343 0.0
Zn286 Zn 0.63742 0.99209 0.74718 0.0
O287 O 0.67482 0.03341 0.74887 0.0
C288 C 0.57802 1.00127 0.70218 0.0
O289 O 0.56461 0.01359 0.72833 0.0
O290 O 0.66293 0.94874 0.75236 0.0
C291 C 0.6669 0.06309 0.74127 0.0
O292 O 0.63361 0.06684 0.73286 0.0
C293 C 0.60939 0.02364 0.80491 0.0
O294 O 0.63568 0.04831 0.80427 0.0
O295 O 0.60816 0.98934 0.70449 0.0
C296 C 0.03238 0.20549 0.91494 0.0
O297 O 0.00703 0.22408 0.92424 0.0
O298 O 0.99406 0.23785 0.83333 0.0
Zn299 Zn 0.03595 0.25316 0.86527 0.0
O300 O 0.02419 0.29357 0.89515 0.0
C301 C 0.08281 0.26093 0.81344 0.0
O302 O 0.0577 0.24009 0.79616 0.0
O303 O 0.04797 0.21307 0.89034 0.0
C304 C 0.04849 0.3108 0.91421 0.0
O305 O 0.08084 0.30135 0.91418 0.0
C306 C 0.96261 0.2361 0.84202 0.0
O307 O 0.95787 0.24397 0.87235 0.0
O308 O 0.07879 0.26956 0.84274 0.0
C309 C 0.52259 0.70531 0.4149 0.0
O310 O 0.5033 0.7293 0.42647 0.0
O311 O 0.48413 0.74293 0.33593 0.0
Zn312 Zn 0.5286 0.75247 0.36607 0.0
O313 O 0.52505 0.79262 0.39947 0.0
C314 C 0.57097 0.76509 0.31195 0.0
O315 O 0.54133 0.75392 0.29442 0.0
O316 O 0.53644 0.70937 0.38867 0.0
C317 C 0.50802 0.81898 0.39574 0.0
O318 O 0.48991 0.82078 0.36827 0.0
C319 C 0.45333 0.73976 0.34605 0.0
O320 O 0.45034 0.74345 0.37705 0.0
O321 O 0.57138 0.76585 0.34221 0.0
C322 C 0.02221 0.83048 0.58051 0.0
O323 O 0.9924 0.81134 0.56998 0.0
O324 O 0.98567 0.78362 0.65147 0.0
Zn325 Zn 0.0264 0.7769 0.62373 0.0
O326 O 0.01189 0.73729 0.58897 0.0
C327 C 0.07398 0.77347 0.68015 0.0
O328 O 0.05202 0.79315 0.69414 0.0
O329 O 0.04086 0.82102 0.60379 0.0
C330 C 0.01964 0.70658 0.59334 0.0
O331 O 0.03672 0.70141 0.62045 0.0
C332 C 0.97417 0.75867 0.66705 0.0
O333 O 0.98897 0.72917 0.6643 0.0
O334 O 0.06864 0.76436 0.65031 0.0
C335 C 0.51641 0.32712 0.08777 0.0
O336 O 0.4871 0.30663 0.07841 0.0
O337 O 0.49046 0.28035 0.1642 0.0
Zn338 Zn 0.52549 0.27419 0.13074 0.0
O339 O 0.50719 0.23599 0.09618 0.0
C340 C 0.56985 0.24512 0.17728 0.0
O341 O 0.5394 0.23922 0.18981 0.0
O342 O 0.53673 0.31886 0.11055 0.0
C343 C 0.50067 0.20457 0.10269 0.0
O344 O 0.50429 0.19775 0.13268 0.0
C345 C 0.45688 0.27598 0.15901 0.0
O346 O 0.44275 0.26833 0.12949 0.0
O347 O 0.57071 0.26033 0.15176 0.0
C348 C 0.27167 0.79711 0.88684 0.0
C349 C 0.27501 0.76082 0.88466 0.0
C350 C 0.27211 0.81693 0.91648 0.0
C351 C 0.27649 0.80145 0.94527 0.0
H352 H 0.26803 0.81026 0.86534 0.0
H353 H 0.26904 0.84466 0.9168 0.0
S354 S 0.28705 0.70762 0.95304 0.0
N355 N 0.28297 0.71024 0.91404 0.0
N356 N 0.28507 0.74782 0.96991 0.0
C357 C 0.28105 0.76545 0.94359 0.0
C358 C 0.2801 0.74509 0.91328 0.0
C359 C 0.0355 0.52106 0.36781 0.0
C360 C 0.0268 0.49465 0.38775 0.0
C361 C 0.05327 0.51392 0.34021 0.0
C362 C 0.06293 0.4801 0.33147 0.0
H363 H 0.02849 0.54744 0.37341 0.0
H364 H 0.05935 0.53512 0.32559 0.0
S365 S 0.0472 0.40219 0.37657 0.0
N366 N 0.02967 0.43369 0.39741 0.0
N367 N 0.06313 0.42017 0.34573 0.0
C368 C 0.05444 0.45352 0.35137 0.0
C369 C 0.03636 0.46083 0.37944 0.0
C370 C 0.81432 0.75811 0.87518 0.0
C371 C 0.78431 0.76307 0.85514 0.0
C372 C 0.81174 0.73611 0.89997 0.0
C373 C 0.77904 0.71807 0.90563 0.0
H374 H 0.83999 0.77163 0.87189 0.0
H375 H 0.83558 0.73345 0.91488 0.0
S376 S 0.69283 0.7207 0.85846 0.0
N377 N 0.72124 0.74709 0.84164 0.0
N378 N 0.71606 0.70604 0.88811 0.0
C379 C 0.74887 0.72258 0.88542 0.0
C380 C 0.75157 0.74501 0.86026 0.0
C381 C 0.01405 0.97866 0.36508 0.0
C382 C 0.02297 0.00997 0.38526 0.0
C383 C 0.99261 0.978 0.33648 0.0
C384 C 0.97933 0.00865 0.3269 0.0
H385 H 0.02398 0.9545 0.3713 0.0
H386 H 0.98661 0.95325 0.32171 0.0
S387 S 0.9933 0.09703 0.37238 0.0
N388 N 0.01565 0.07205 0.39453 0.0
N389 N 0.97577 0.07107 0.34062 0.0
C390 C 0.98792 0.04015 0.34701 0.0
C391 C 0.00964 0.04073 0.3762 0.0
C392 C 0.28187 0.24746 0.62519 0.0
C393 C 0.28614 0.28441 0.6287 0.0
C394 C 0.28783 0.22842 0.59636 0.0
C395 C 0.29867 0.24555 0.57002 0.0
H396 H 0.27432 0.23308 0.64502 0.0
H397 H 0.28441 0.2 0.5949 0.0
S398 S 0.31076 0.34184 0.5658 0.0
N399 N 0.29945 0.33739 0.60247 0.0
N400 N 0.31172 0.30159 0.54871 0.0
C401 C 0.3027 0.28246 0.57303 0.0
C402 C 0.29617 0.30186 0.60225 0.0
C403 C 0.52 0.5616 0.63501 0.0
C404 C 0.52848 0.53082 0.61765 0.0
C405 C 0.50151 0.56018 0.66266 0.0
C406 C 0.49099 0.52794 0.67425 0.0
H407 H 0.52796 0.58709 0.62729 0.0
H408 H 0.49576 0.5846 0.67521 0.0
S409 S 0.50472 0.43958 0.6365 0.0
N410 N 0.52333 0.46708 0.6132 0.0
N411 N 0.48934 0.46431 0.66544 0.0
C412 C 0.49917 0.49693 0.65704 0.0
C413 C 0.51774 0.49839 0.62874 0.0
C414 C 0.84688 0.29896 0.62213 0.0
C415 C 0.81933 0.28659 0.64008 0.0
C416 C 0.84036 0.31923 0.59675 0.0
C417 C 0.80605 0.32824 0.58855 0.0
H418 H 0.87367 0.29245 0.62741 0.0
H419 H 0.86244 0.32771 0.58339 0.0
S420 S 0.7249 0.304 0.62945 0.0
N421 N 0.75658 0.28595 0.64885 0.0
N422 N 0.74428 0.3241 0.60131 0.0
C423 C 0.77834 0.31672 0.60688 0.0
C424 C 0.78498 0.29586 0.6326 0.0
C425 C 0.50418 0.01223 0.63891 0.0
C426 C 0.52068 0.00834 0.61011 0.0
C427 C 0.52289 0.00972 0.66846 0.0
C428 C 0.55883 0.0031 0.67041 0.0
H429 H 0.4764 0.01659 0.63857 0.0
H430 H 0.50888 0.01268 0.68993 0.0
S431 S 0.61505 0.99379 0.60204 0.0
N432 N 0.57566 0.99981 0.5855 0.0
N433 N 0.61061 0.99448 0.64082 0.0
C434 C 0.57579 0.99972 0.64178 0.0
C435 C 0.55679 0.00251 0.61174 0.0
C436 C 0.86696 0.21679 0.80682 0.0
C437 C 0.87033 0.21161 0.77375 0.0
C438 C 0.89696 0.22426 0.82866 0.0
C439 C 0.93152 0.22665 0.81828 0.0
H440 H 0.84089 0.2159 0.81585 0.0
H441 H 0.89288 0.22859 0.85386 0.0
S442 S 0.95447 0.21261 0.73399 0.0
N443 N 0.91065 0.20744 0.73159 0.0
N444 N 0.96715 0.22155 0.77244 0.0
C445 C 0.9352 0.22058 0.7852 0.0
C446 C 0.9046 0.2131 0.763 0.0
C447 C 0.48644 0.90119 0.44484 0.0
C448 C 0.51164 0.90434 0.47137 0.0
C449 C 0.48545 0.87351 0.4205 0.0
C450 C 0.50933 0.84777 0.42197 0.0
H451 H 0.46755 0.92036 0.44261 0.0
H452 H 0.46569 0.87228 0.40044 0.0
S453 S 0.58011 0.84419 0.48694 0.0
N454 N 0.56083 0.87954 0.49791 0.0
N455 N 0.55887 0.82737 0.45257 0.0
C456 C 0.53444 0.85056 0.44864 0.0
C457 C 0.53562 0.87889 0.47319 0.0
C458 C 0.14984 0.27697 0.75184 0.0
C459 C 0.17828 0.29765 0.76984 0.0
C460 C 0.11912 0.26533 0.76614 0.0
C461 C 0.11557 0.27397 0.79895 0.0
H462 H 0.15126 0.26952 0.72656 0.0
H463 H 0.09803 0.24937 0.75125 0.0
S464 S 0.1826 0.32806 0.85637 0.0
N465 N 0.201 0.32661 0.82196 0.0
N466 N 0.14345 0.30496 0.8489 0.0
C467 C 0.14385 0.29489 0.81712 0.0
C468 C 0.17511 0.30664 0.80254 0.0
C469 C 0.56217 0.62393 0.44 0.0
C470 C 0.54542 0.61714 0.46784 0.0
C471 C 0.55431 0.65214 0.42283 0.0
C472 C 0.5293 0.67474 0.43281 0.0
H473 H 0.58194 0.60753 0.4316 0.0
H474 H 0.56836 0.65648 0.40179 0.0
S475 S 0.47611 0.66696 0.50311 0.0
N476 N 0.50134 0.63441 0.50387 0.0
N477 N 0.48653 0.6873 0.4717 0.0
C478 C 0.51173 0.66777 0.46029 0.0
C479 C 0.51978 0.63902 0.47779 0.0
C480 C 0.90575 0.73664 0.72569 0.0
C481 C 0.89008 0.76799 0.73137 0.0
C482 C 0.9327 0.73397 0.70482 0.0
C483 C 0.94519 0.76262 0.68867 0.0
H484 H 0.89711 0.71382 0.73754 0.0
H485 H 0.94379 0.70913 0.70141 0.0
S486 S 0.91315 0.85105 0.69541 0.0
N487 N 0.88911 0.82861 0.71928 0.0
N488 N 0.93975 0.82364 0.67999 0.0
C489 C 0.92973 0.79427 0.69412 0.0
C490 C 0.9022 0.79697 0.71547 0.0
C491 C 0.02548 0.89966 0.52158 0.0
C492 C 0.05813 0.91986 0.53077 0.0
C493 C 0.01397 0.87118 0.53808 0.0
C494 C 0.0346 0.86173 0.56444 0.0
H495 H 0.00868 0.9056 0.50133 0.0
H496 H 0.98877 0.8563 0.52982 0.0
S497 S 0.12184 0.90711 0.59856 0.0
N498 N 0.11061 0.92912 0.56819 0.0
N499 N 0.08914 0.87569 0.59934 0.0
C500 C 0.06712 0.88213 0.57415 0.0
C501 C 0.07881 0.91113 0.55728 0.0
C502 C 0.15863 0.73175 0.69967 0.0
C503 C 0.16273 0.73619 0.73325 0.0
C504 C 0.12993 0.74394 0.68276 0.0
C505 C 0.10414 0.76108 0.69881 0.0
H506 H 0.17798 0.71903 0.68628 0.0
H507 H 0.12815 0.74003 0.65686 0.0
S508 S 0.10141 0.77734 0.7869 0.0
N509 N 0.13762 0.75756 0.78216 0.0
N510 N 0.08389 0.78056 0.75043 0.0
C511 C 0.10763 0.76523 0.73248 0.0
C512 C 0.13684 0.75274 0.74971 0.0
C513 C 0.9971 0.61298 0.55609 0.0
C514 C 0.98711 0.61693 0.52397 0.0
C515 C 0.00788 0.64217 0.57812 0.0
C516 C 0.00861 0.6765 0.569 0.0
H517 H 0.99668 0.58703 0.56422 0.0
H518 H 0.01523 0.63769 0.60263 0.0
S519 S 0.9848 0.70076 0.48744 0.0
N520 N 0.97869 0.65742 0.4838 0.0
N521 N 0.99858 0.71268 0.52534 0.0
C522 C 0.99866 0.68081 0.53683 0.0
C523 C 0.98809 0.65092 0.51427 0.0
C524 C 0.80027 0.90996 0.20923 0.0
C525 C 0.80956 0.87639 0.19924 0.0
C526 C 0.82632 0.93856 0.21689 0.0
C527 C 0.86261 0.93464 0.21471 0.0
H528 H 0.7726 0.9144 0.21024 0.0
H529 H 0.81784 0.96408 0.22375 0.0
S530 S 0.90091 0.8511 0.19351 0.0
N531 N 0.85759 0.84012 0.19044 0.0
N532 N 0.90651 0.89375 0.20433 0.0
C533 C 0.87226 0.90087 0.20586 0.0
C534 C 0.84576 0.8718 0.19826 0.0
C535 C 0.82349 0.15978 0.28012 0.0
C536 C 0.80816 0.16149 0.30964 0.0
C537 C 0.84558 0.13374 0.27172 0.0
C538 C 0.85309 0.10819 0.29243 0.0
H539 H 0.81823 0.17866 0.26327 0.0
H540 H 0.85643 0.13342 0.24859 0.0
S541 S 0.81937 0.10124 0.37269 0.0
N542 N 0.80187 0.13539 0.35959 0.0
N543 N 0.84362 0.08681 0.34422 0.0
C544 C 0.83828 0.10997 0.32228 0.0
C545 C 0.81582 0.13651 0.33079 0.0
C546 C 0.41954 0.96805 0.98569 0.0
C547 C 0.41148 0.00302 0.98705 0.0
C548 C 0.39387 0.94082 0.99067 0.0
C549 C 0.35914 0.94754 0.99714 0.0
H550 H 0.44611 0.96176 0.98136 0.0
H551 H 0.4015 0.91436 0.98972 0.0
S552 S 0.32413 0.03468 1.00093 0.0
N553 N 0.3661 0.0429 0.99358 0.0
N554 N 0.31778 0.99196 0.00323 0.0
C555 C 0.35061 0.98246 0.99796 0.0
C556 C 0.37679 0.01013 0.99286 0.0
C557 C 0.21262 0.36141 0.26944 0.0
C558 C 0.23302 0.3601 0.29846 0.0
C559 C 0.19185 0.38911 0.26488 0.0
C560 C 0.1909 0.41678 0.28908 0.0
H561 H 0.21295 0.34099 0.24997 0.0
H562 H 0.17695 0.38907 0.24196 0.0
S563 S 0.23967 0.42548 0.36968 0.0
N564 N 0.25103 0.38871 0.35178 0.0
N565 N 0.21195 0.44052 0.34355 0.0
C566 C 0.21081 0.4154 0.31846 0.0
C567 C 0.23183 0.38714 0.32307 0.0
C568 C 0.16045 0.05255 0.46853 0.0
C569 C 0.12663 0.0626 0.46039 0.0
C570 C 0.18997 0.07761 0.47558 0.0
C571 C 0.18675 0.11375 0.47511 0.0
H572 H 0.16423 0.02503 0.46896 0.0
H573 H 0.21551 0.06848 0.48149 0.0
S574 S 0.10333 0.15357 0.45632 0.0
N575 N 0.09116 0.11093 0.45301 0.0
N576 N 0.14651 0.15819 0.46627 0.0
C577 C 0.15285 0.12413 0.46738 0.0
C578 C 0.12285 0.09853 0.45998 0.0
C579 C 0.75824 0.11325 0.74144 0.0
C580 C 0.75052 0.14773 0.7377 0.0
C581 C 0.73107 0.08623 0.74311 0.0
C582 C 0.6951 0.09261 0.74103 0.0
H583 H 0.78546 0.10691 0.74227 0.0
H584 H 0.73839 0.05999 0.74538 0.0
S585 S 0.66115 0.17924 0.73439 0.0
N586 N 0.70465 0.18743 0.73443 0.0
N587 N 0.65349 0.13668 0.73714 0.0
C588 C 0.68711 0.12724 0.73821 0.0
C589 C 0.71482 0.15476 0.73663 0.0
C590 C 0.40079 0.0546 0.52257 0.0
C591 C 0.43496 0.0641 0.53795 0.0
C592 C 0.37782 0.07994 0.51609 0.0
C593 C 0.3879 0.11593 0.52488 0.0
H594 H 0.39152 0.02724 0.51568 0.0
H595 H 0.35172 0.07107 0.50442 0.0
S596 S 0.47529 0.15486 0.56428 0.0
N597 N 0.47838 0.11218 0.5606 0.0
N598 N 0.435 0.15983 0.54907 0.0
C599 C 0.42209 0.12586 0.5402 0.0
C600 C 0.44561 0.09998 0.54661 0.0
C601 C 0.62358 0.46115 0.54765 0.0
C602 C 0.62655 0.49804 0.5499 0.0
C603 C 0.65301 0.44267 0.5417 0.0
C604 C 0.68657 0.46049 0.53843 0.0
H605 H 0.59822 0.44651 0.55009 0.0
H606 H 0.64954 0.41426 0.5401 0.0
S607 S 0.70805 0.55722 0.54283 0.0
N608 N 0.66539 0.55175 0.54858 0.0
N609 N 0.72075 0.51735 0.53787 0.0
C610 C 0.68978 0.49746 0.5409 0.0
C611 C 0.65977 0.51614 0.5465 0.0
C612 C 0.75713 0.28788 0.38751 0.0
C613 C 0.76154 0.2519 0.38619 0.0
C614 C 0.75534 0.30795 0.41672 0.0
C615 C 0.75789 0.29291 0.44595 0.0
H616 H 0.75484 0.30066 0.36568 0.0
H617 H 0.75194 0.33554 0.41627 0.0
S618 S 0.76936 0.19942 0.45545 0.0
N619 N 0.76814 0.20183 0.41644 0.0
N620 N 0.76523 0.23947 0.47156 0.0
C621 C 0.76267 0.25691 0.44498 0.0
C622 C 0.76448 0.23647 0.4151 0.0
C623 C 0.54009 0.9954 0.86071 0.0
C624 C 0.5379 0.02611 0.88097 0.0
C625 C 0.56301 0.99497 0.83606 0.0
C626 C 0.58489 0.02524 0.83081 0.0
H627 H 0.524 0.97134 0.86398 0.0
H628 H 0.56383 0.97052 0.82128 0.0
S629 S 0.58831 0.11304 0.87644 0.0
N630 N 0.55891 0.08806 0.89359 0.0
N631 N 0.60212 0.08721 0.8474 0.0
C632 C 0.58275 0.05632 0.85073 0.0
C633 C 0.55922 0.0568 0.87577 0.0
C634 C 0.28109 0.28853 0.39295 0.0
C635 C 0.28415 0.27022 0.36288 0.0
C636 C 0.28152 0.27143 0.42099 0.0
C637 C 0.28554 0.23539 0.42024 0.0
H638 H 0.27848 0.31642 0.39493 0.0
H639 H 0.27883 0.28668 0.44348 0.0
S640 S 0.29289 0.17489 0.34767 0.0
N641 N 0.28974 0.21346 0.33404 0.0
N642 N 0.29181 0.18168 0.38687 0.0
C643 C 0.28892 0.21674 0.39046 0.0
C644 C 0.28793 0.23404 0.36178 0.0
C645 C 0.48554 0.52345 0.90244 0.0
C646 C 0.52212 0.52206 0.89996 0.0
C647 C 0.46281 0.52816 0.87584 0.0
C648 C 0.4757 0.53157 0.84559 0.0
H649 H 0.4744 0.52117 0.92525 0.0
H650 H 0.43488 0.52914 0.87915 0.0
S651 S 0.56943 0.52838 0.82625 0.0
N652 N 0.57022 0.52348 0.86484 0.0
N653 N 0.52769 0.53257 0.81476 0.0
C654 C 0.51233 0.53009 0.84277 0.0
C655 C 0.53547 0.52533 0.86995 0.0
C656 C 0.79056 0.76355 0.11149 0.0
C657 C 0.75903 0.77841 0.11763 0.0
C658 C 0.79342 0.74284 0.0828 0.0
C659 C 0.76496 0.73647 0.05896 0.0
H660 H 0.81307 0.76756 0.12923 0.0
H661 H 0.8182 0.73177 0.07934 0.0
S662 S 0.67694 0.77063 0.06316 0.0
N663 N 0.69909 0.78624 0.09748 0.0
N664 N 0.70423 0.74735 0.04348 0.0
C665 C 0.73336 0.75159 0.06473 0.0
C666 C 0.73042 0.77249 0.09408 0.0
C667 C 0.02334 0.00307 0.1311 0.0
C668 C 0.03165 0.03517 0.11829 0.0
C669 C 0.00481 1.00143 0.15869 0.0
C670 C 0.99312 0.03165 0.17417 0.0
H671 H 0.03092 0.97887 0.11959 0.0
H672 H 0.99907 0.97614 0.16766 0.0
S673 S 0.00986 0.1225 0.15228 0.0
N674 N 0.02872 0.09845 0.1251 0.0
N675 N 0.99206 0.0947 0.17576 0.0
C676 C 1.00105 0.06387 0.16181 0.0
C677 C 0.02073 0.06578 0.13418 0.0
C678 C 0.30742 0.81715 0.14104 0.0
C679 C 0.28946 0.78516 0.14735 0.0
C680 C 0.29735 0.83367 0.11401 0.0
C681 C 0.26882 0.81886 0.09221 0.0
H682 H 0.32935 0.8297 0.15728 0.0
H683 H 0.31192 0.85844 0.11039 0.0
S684 S 0.21422 0.73421 0.09673 0.0
N685 N 0.24253 0.73842 0.12878 0.0
N686 N 0.22357 0.7695 0.07815 0.0
C687 C 0.25089 0.78656 0.09799 0.0
C688 C 0.26121 0.76968 0.12549 0.0
C689 C 0.99606 0.50717 0.13948 0.0
C690 C 0.01474 0.50614 0.11176 0.0
C691 C 0.01359 0.50604 0.16986 0.0
C692 C 0.05041 0.50355 0.17368 0.0
H693 H 0.96753 0.50778 0.13761 0.0
H694 H 0.99796 0.50634 0.19042 0.0
S695 S 0.11208 0.50423 0.10904 0.0
N696 N 0.0726 0.50581 0.09044 0.0
N697 N 0.10532 0.50288 0.14724 0.0
C698 C 0.06954 0.50362 0.14624 0.0
C699 C 0.05177 0.50514 0.1154 0.0
C700 C 0.35624 0.72244 0.31456 0.0
C701 C 0.35783 0.71668 0.28126 0.0
C702 C 0.38722 0.72996 0.33519 0.0
C703 C 0.42109 0.73191 0.32337 0.0
H704 H 0.33079 0.72155 0.32476 0.0
H705 H 0.38446 0.73435 0.36064 0.0
S706 S 0.43958 0.71713 0.23791 0.0
N707 N 0.39584 0.7121 0.23732 0.0
N708 N 0.45416 0.72649 0.27591 0.0
C709 C 0.42301 0.72588 0.29002 0.0
C710 C 0.3914 0.71824 0.26903 0.0
C711 C 0.06241 0.38946 0.97692 0.0
C712 C 0.02851 0.40108 0.97788 0.0
C713 C 0.06849 0.36031 0.95634 0.0
C714 C 0.04084 0.34143 0.93586 0.0
H715 H 0.08458 0.40308 0.99224 0.0
H716 H 0.09519 0.35261 0.95657 0.0
S717 S 0.94669 0.36076 0.92948 0.0
N718 N 0.9666 0.39125 0.95678 0.0
N719 N 0.97791 0.33641 0.91809 0.0
C720 C 0.00662 0.35269 0.93665 0.0
C721 C 1.00047 0.38251 0.95764 0.0
C722 C 0.63396 0.78325 0.24767 0.0
C723 C 0.66482 0.80006 0.26526 0.0
C724 C 0.60386 0.7721 0.263 0.0
C725 C 0.60342 0.77714 0.29652 0.0
H726 H 0.63287 0.77864 0.22184 0.0
H727 H 0.5808 0.75928 0.24834 0.0
S728 S 0.67755 0.82038 0.35338 0.0
N729 N 0.69312 0.82163 0.31782 0.0
N730 N 0.63675 0.80063 0.34678 0.0
C731 C 0.63417 0.79403 0.31437 0.0
C732 C 0.66476 0.80551 0.29869 0.0
C733 C 0.03234 0.13888 0.97638 0.0
C734 C 0.06265 0.12171 0.97051 0.0
C735 C 0.02274 0.16575 0.95818 0.0
C736 C 0.04295 0.17644 0.93331 0.0
H737 H 0.01597 0.1318 0.99531 0.0
H738 H 0.99926 0.17825 0.96377 0.0
S739 S 0.12468 0.13938 0.90829 0.0
N740 N 0.11272 0.11699 0.93809 0.0
N741 N 0.09476 0.16732 0.90379 0.0
C742 C 0.07318 0.15918 0.92705 0.0
C743 C 0.08299 0.13191 0.94567 0.0
C744 C 0.37514 0.28395 0.20545 0.0
C745 C 0.38853 0.28347 0.23743 0.0
C746 C 0.39739 0.2814 0.18028 0.0
C747 C 0.43395 0.27867 0.18613 0.0
H748 H 0.34723 0.28614 0.19969 0.0
H749 H 0.38582 0.28186 0.15607 0.0
S750 S 0.48187 0.27577 0.26583 0.0
N751 N 0.44032 0.27948 0.27364 0.0
N752 N 0.48232 0.27519 0.2266 0.0
C753 C 0.4476 0.27813 0.2181 0.0
C754 C 0.42484 0.28036 0.24364 0.0
C755 C 0.57287 0.40454 0.06129 0.0
C756 C 0.55115 0.41575 0.03664 0.0
C757 C 0.56114 0.37635 0.07799 0.0
C758 C 0.52713 0.35809 0.07069 0.0
H759 H 0.59942 0.41748 0.06758 0.0
H760 H 0.57921 0.36856 0.09648 0.0
S761 S 0.45903 0.37816 0.00912 0.0
N762 N 0.49335 0.40724 0.00641 0.0
N763 N 0.47127 0.35419 0.03772 0.0
C764 C 0.5048 0.36945 0.04642 0.0
C765 C 0.51678 0.39828 0.02941 0.0
C766 C 0.63371 0.22053 0.24261 0.0
C767 C 0.66545 0.21829 0.22757 0.0
C768 C 0.60293 0.22868 0.22591 0.0
C769 C 0.60271 0.23528 0.1936 0.0
H770 H 0.63253 0.21613 0.26758 0.0
H771 H 0.57929 0.23046 0.23872 0.0
S772 S 0.67861 0.23096 0.14286 0.0
N773 N 0.69462 0.2218 0.1783 0.0
N774 N 0.63672 0.2376 0.14677 0.0
C775 C 0.63413 0.23248 0.17806 0.0
C776 C 0.66546 0.22377 0.19508 0.0
C777 C 0.48284 0.11246 0.06038 0.0
C778 C 0.47877 0.11821 0.0279 0.0
C779 C 0.48929 0.14056 0.08433 0.0
C780 C 0.49189 0.17556 0.07675 0.0
H781 H 0.48159 0.08597 0.06733 0.0
H782 H 0.49274 0.13466 0.10895 0.0
S783 S 0.48076 0.20452 0.99513 0.0
N784 N 0.47597 0.16123 0.98929 0.0
N785 N 0.48832 0.21429 0.0342 0.0
C786 C 0.48719 0.18166 0.04428 0.0
C787 C 0.48065 0.15294 0.01989 0.0
C788 C 0.35927 0.37881 0.72179 0.0
C789 C 0.32319 0.38255 0.7147 0.0
C790 C 0.38337 0.40783 0.73365 0.0
C791 C 0.37233 0.44171 0.73823 0.0
H792 H 0.36888 0.35323 0.71824 0.0
H793 H 0.41098 0.40376 0.73862 0.0
S794 S 0.28043 0.46517 0.72327 0.0
N795 N 0.27736 0.42237 0.71331 0.0
N796 N 0.32262 0.47709 0.73512 0.0
C797 C 0.33621 0.4457 0.73126 0.0
C798 C 0.31164 0.41607 0.71964 0.0
C799 C 0.34223 0.67188 0.80178 0.0
C800 C 0.3053 0.66547 0.80329 0.0
C801 C 0.36251 0.64476 0.79172 0.0
C802 C 0.34663 0.61016 0.78337 0.0
H803 H 0.35544 0.69812 0.80801 0.0
H804 H 0.39087 0.65088 0.7909 0.0
S805 S 0.25071 0.57986 0.784 0.0
N806 N 0.25371 0.62218 0.79604 0.0
N807 N 0.29147 0.57127 0.77738 0.0
C808 C 0.30967 0.60352 0.78504 0.0
C809 C 0.28911 0.63114 0.79494 0.0
C810 C 0.90684 0.49624 0.52998 0.0
C811 C 0.90719 0.50587 0.49857 0.0
C812 C 0.87924 0.47319 0.53889 0.0
C813 C 0.85089 0.45885 0.51673 0.0
H814 H 0.92829 0.50636 0.54778 0.0
H815 H 0.88035 0.46645 0.56334 0.0
S816 S 0.8386 0.47732 0.43172 0.0
N817 N 0.87632 0.50053 0.44555 0.0
N818 N 0.82453 0.45689 0.46198 0.0
C819 C 0.85085 0.4685 0.48521 0.0
C820 C 0.87898 0.49204 0.4762 0.0
C821 C 0.72675 0.86498 0.76544 0.0
C822 C 0.74394 0.86195 0.79565 0.0
C823 C 0.70538 0.89215 0.76061 0.0
C824 C 0.70052 0.91759 0.78576 0.0
H825 H 0.72989 0.8462 0.74529 0.0
H826 H 0.69301 0.89343 0.73682 0.0
S827 S 0.73988 0.92126 0.86963 0.0
N828 N 0.75479 0.8866 0.85109 0.0
N829 N 0.71453 0.93743 0.84233 0.0
C830 C 0.71729 0.91454 0.81625 0.0
C831 C 0.73896 0.8868 0.82112 0.0
C832 C 0.65672 0.56373 0.952 0.0
C833 C 0.63144 0.55814 0.97432 0.0
C834 C 0.68882 0.58478 0.96072 0.0
C835 C 0.69684 0.60116 0.9921 0.0
H836 H 0.65191 0.55122 0.92774 0.0
H837 H 0.70755 0.588 0.9427 0.0
S838 S 0.63796 0.59675 0.05883 0.0
N839 N 0.61546 0.57203 0.02855 0.0
N840 N 0.67575 0.61141 0.04517 0.0
C841 C 0.67136 0.59624 0.0145 0.0
C842 C 0.6387 0.57479 0.00556 0.0
C843 C 0.24687 0.61418 0.25492 0.0
C844 C 0.23845 0.64866 0.25268 0.0
C845 C 0.22028 0.58679 0.25723 0.0
C846 C 0.18428 0.5929 0.2576 0.0
H847 H 0.27407 0.60812 0.25378 0.0
H848 H 0.22804 0.56051 0.25816 0.0
S849 S 0.14908 0.67955 0.25528 0.0
N850 N 0.19226 0.68812 0.25314 0.0
N851 N 0.14214 0.63683 0.25748 0.0
C852 C 0.17577 0.62765 0.25662 0.0
C853 C 0.20287 0.65546 0.25413 0.0
C854 C 0.92637 0.57841 0.03297 0.0
C855 C 0.9198 0.54209 0.03497 0.0
C856 C 0.89871 0.59838 0.0242 0.0
C857 C 0.86346 0.58278 0.01776 0.0
H858 H 0.95314 0.5913 0.0377 0.0
H859 H 0.9049 0.62627 0.02289 0.0
S860 S 0.83275 0.48841 0.01996 0.0
N861 N 0.8759 0.49131 0.02976 0.0
N862 N 0.82387 0.52858 0.01396 0.0
C863 C 0.85671 0.54646 0.01999 0.0
C864 C 0.88488 0.52618 0.02841 0.0
C865 C 0.16408 0.01338 0.05159 0.0
C866 C 0.13016 0.99614 0.05398 0.0
C867 C 0.19329 0.99443 0.04683 0.0
C868 C 0.18959 0.95746 0.04361 0.0
H869 H 0.16805 0.0418 0.05352 0.0
H870 H 0.2189 0.00895 0.04518 0.0
S871 S 0.10611 0.89995 0.04802 0.0
N872 N 0.09433 0.9402 0.05308 0.0
N873 N 0.14914 0.90434 0.04342 0.0
C874 C 0.15571 0.93987 0.04585 0.0
C875 C 0.12604 0.95928 0.05128 0.0
loop_
_geom_bond_atom_site_label_1
_geom_bond_atom_site_label_2
_geom_bond_distance
_geom_bond_site_symmetry_2
_ccdc_geom_bond_type
H0 C5 0.930 . S
H1 C8 0.930 . S
H2 C10 0.930 . S
H3 C4 1.016 . S
C4 H3 1.016 . S
C4 N11 1.286 1_556 S
C5 H0 0.930 . S
C5 C6 1.397 . S
C5 C7 1.361 . S
C6 C5 1.397 . S
C6 C10 1.390 . S
C7 C5 1.361 . S
C7 C8 1.393 . S
C7 N11 1.413 . S
C8 H1 0.930 . S
C8 C7 1.393 . S
C8 C9 1.399 . S
C9 C8 1.399 . S
C9 C10 1.381 . S
C10 H2 0.930 . S
C10 C6 1.390 . S
C10 C9 1.381 . S
N11 C4 1.286 1_554 S
N11 C7 1.413 . S
H12 C17 0.930 . S
H13 C20 0.930 . S
H14 C22 0.930 . S
H15 C16 1.016 . S
C16 H15 1.016 . S
C16 N23 1.286 . S
C17 H12 0.930 . S
C17 C18 1.397 . S
C17 C19 1.361 . S
C18 C17 1.397 . S
C18 C22 1.390 . S
C19 C17 1.361 . S
C19 C20 1.393 . S
C19 N23 1.413 . S
C20 H13 0.930 . S
C20 C19 1.393 . S
C20 C21 1.399 . S
C21 C20 1.399 . S
C21 C22 1.381 . S
C22 H14 0.930 . S
C22 C18 1.390 . S
C22 C21 1.381 . S
N23 C16 1.286 . S
N23 C19 1.413 . S
H24 C29 0.930 . S
H25 C32 0.930 1_455 S
H26 C34 0.930 . S
H27 C28 1.016 1_454 S
C28 H27 1.016 1_656 S
C28 N35 1.286 . S
C29 H24 0.930 . S
C29 C30 1.397 . S
C29 C31 1.361 . S
C30 C29 1.397 . S
C30 C34 1.390 . S
C31 C29 1.361 . S
C31 C32 1.393 . S
C31 N35 1.413 1_554 S
C32 H25 0.930 1_655 S
C32 C31 1.393 . S
C32 C33 1.399 . S
C33 C32 1.399 . S
C33 C34 1.381 . S
C34 H26 0.930 . S
C34 C30 1.390 . S
C34 C33 1.381 . S
N35 C28 1.286 . S
N35 C31 1.413 1_556 S
H36 C41 0.930 . S
H37 C44 0.930 . S
H38 C46 0.930 . S
H39 C40 1.016 . S
C40 H39 1.016 . S
C40 N47 1.286 . S
C41 H36 0.930 . S
C41 C42 1.397 . S
C41 C43 1.361 . S
C42 C41 1.397 . S
C42 C46 1.390 . S
C43 C41 1.361 . S
C43 C44 1.393 . S
C43 N47 1.413 . S
C44 H37 0.930 . S
C44 C43 1.393 . S
C44 C45 1.399 . S
C45 C44 1.399 . S
C45 C46 1.381 . S
C46 H38 0.930 . S
C46 C42 1.390 . S
C46 C45 1.381 . S
N47 C40 1.286 . S
N47 C43 1.413 . S
H48 C53 0.930 . S
H49 C56 0.930 . S
H50 C58 0.930 . S
H51 C52 1.016 . S
C52 H51 1.016 . S
C52 N59 1.286 . S
C53 H48 0.930 . S
C53 C54 1.397 1_565 S
C53 C55 1.361 . S
C54 C53 1.397 1_545 S
C54 C58 1.390 . S
C55 C53 1.361 . S
C55 C56 1.393 . S
C55 N59 1.413 . S
C56 H49 0.930 . S
C56 C55 1.393 . S
C56 C57 1.399 1_565 S
C57 C56 1.399 1_545 S
C57 C58 1.381 . S
C58 H50 0.930 . S
C58 C54 1.390 . S
C58 C57 1.381 . S
N59 C52 1.286 . S
N59 C55 1.413 . S
H60 C65 0.930 . S
H61 C68 0.930 . S
H62 C70 0.930 . S
H63 C64 1.016 . S
C64 H63 1.016 . S
C64 N71 1.286 . S
C65 H60 0.930 . S
C65 C66 1.397 . S
C65 C67 1.361 . S
C66 C65 1.397 . S
C66 C70 1.390 . S
C67 C65 1.361 . S
C67 C68 1.393 . S
C67 N71 1.413 . S
C68 H61 0.930 . S
C68 C67 1.393 . S
C68 C69 1.399 . S
C69 C68 1.399 . S
C69 C70 1.381 . S
C70 H62 0.930 . S
C70 C66 1.390 . S
C70 C69 1.381 . S
N71 C64 1.286 . S
N71 C67 1.413 . S
H72 C77 0.930 1_455 S
H73 C80 0.930 . S
H74 C82 0.930 . S
H75 C76 1.016 . S
C76 H75 1.016 . S
C76 N83 1.286 . S
C77 H72 0.930 1_655 S
C77 C78 1.397 . S
C77 C79 1.361 . S
C78 C77 1.397 . S
C78 C82 1.390 . S
C79 C77 1.361 . S
C79 C80 1.393 . S
C79 N83 1.413 1_655 S
C80 H73 0.930 . S
C80 C79 1.393 . S
C80 C81 1.399 . S
C81 C80 1.399 . S
C81 C82 1.381 . S
C82 H74 0.930 . S
C82 C78 1.390 . S
C82 C81 1.381 . S
N83 C76 1.286 . S
N83 C79 1.413 1_455 S
H84 C89 0.930 . S
H85 C92 0.930 . S
H86 C94 0.930 . S
H87 C88 1.016 . S
C88 H87 1.016 . S
C88 N95 1.286 . S
C89 H84 0.930 . S
C89 C90 1.397 . S
C89 C91 1.361 . S
C90 C89 1.397 . S
C90 C94 1.390 . S
C91 C89 1.361 . S
C91 C92 1.393 . S
C91 N95 1.413 . S
C92 H85 0.930 . S
C92 C91 1.393 . S
C92 C93 1.399 . S
C93 C92 1.399 . S
C93 C94 1.381 . S
C94 H86 0.930 . S
C94 C90 1.390 . S
C94 C93 1.381 . S
N95 C88 1.286 . S
N95 C91 1.413 . S
H96 C101 0.930 . S
H97 C104 0.930 . S
H98 C106 0.930 . S
H99 C100 1.016 . S
C100 H99 1.016 . S
C100 N107 1.286 . S
C101 H96 0.930 . S
C101 C102 1.397 . S
C101 C103 1.361 . S
C102 C101 1.397 . S
C102 C106 1.390 . S
C103 C101 1.361 . S
C103 C104 1.393 . S
C103 N107 1.413 . S
C104 H97 0.930 . S
C104 C103 1.393 . S
C104 C105 1.399 . S
C105 C104 1.399 . S
C105 C106 1.381 . S
C106 H98 0.930 . S
C106 C102 1.390 . S
C106 C105 1.381 . S
N107 C100 1.286 . S
N107 C103 1.413 . S
H108 C113 0.930 . S
H109 C116 0.930 . S
H110 C118 0.930 . S
H111 C112 1.016 . S
C112 H111 1.016 . S
C112 N119 1.286 . S
C113 H108 0.930 . S
C113 C114 1.397 1_565 S
C113 C115 1.361 . S
C114 C113 1.397 1_545 S
C114 C118 1.390 . S
C115 C113 1.361 . S
C115 C116 1.393 . S
C115 N119 1.413 . S
C116 H109 0.930 . S
C116 C115 1.393 . S
C116 C117 1.399 . S
C117 C116 1.399 . S
C117 C118 1.381 1_565 S
C118 H110 0.930 . S
C118 C114 1.390 . S
C118 C117 1.381 1_545 S
N119 C112 1.286 . S
N119 C115 1.413 . S
H120 C125 0.930 . S
H121 C128 0.930 . S
H122 C130 0.930 . S
H123 C124 1.016 . S
C124 H123 1.016 . S
C124 N131 1.286 . S
C125 H120 0.930 . S
C125 C126 1.397 . S
C125 C127 1.361 . S
C126 C125 1.397 . S
C126 C130 1.390 . S
C127 C125 1.361 . S
C127 C128 1.393 . S
C127 N131 1.413 . S
C128 H121 0.930 . S
C128 C127 1.393 . S
C128 C129 1.399 . S
C129 C128 1.399 . S
C129 C130 1.381 . S
C130 H122 0.930 . S
C130 C126 1.390 . S
C130 C129 1.381 . S
N131 C124 1.286 . S
N131 C127 1.413 . S
H132 C137 0.930 . S
H133 C140 0.930 . S
H134 C142 0.930 . S
H135 C136 1.016 . S
C136 H135 1.016 . S
C136 N143 1.286 . S
C137 H132 0.930 . S
C137 C138 1.397 . S
C137 C139 1.361 . S
C138 C137 1.397 . S
C138 C142 1.390 . S
C139 C137 1.361 . S
C139 C140 1.393 . S
C139 N143 1.413 . S
C140 H133 0.930 . S
C140 C139 1.393 . S
C140 C141 1.399 . S
C141 C140 1.399 . S
C141 C142 1.381 . S
C142 H134 0.930 . S
C142 C138 1.390 . S
C142 C141 1.381 . S
N143 C136 1.286 . S
N143 C139 1.413 . S
H144 C149 0.930 . S
H145 C152 0.930 . S
H146 C154 0.930 . S
H147 C148 1.016 . S
C148 H147 1.016 . S
C148 N155 1.286 . S
C149 H144 0.930 . S
C149 C150 1.397 . S
C149 C151 1.361 . S
C150 C149 1.397 . S
C150 C154 1.390 . S
C151 C149 1.361 . S
C151 C152 1.393 . S
C151 N155 1.413 . S
C152 H145 0.930 . S
C152 C151 1.393 . S
C152 C153 1.399 . S
C153 C152 1.399 . S
C153 C154 1.381 . S
C154 H146 0.930 . S
C154 C150 1.390 . S
C154 C153 1.381 . S
N155 C148 1.286 . S
N155 C151 1.413 . S
H156 C161 0.930 . S
H157 C164 0.930 1_554 S
H158 C166 0.930 . S
H159 C160 1.016 . S
C160 H159 1.016 . S
C160 N167 1.286 1_554 S
C161 H156 0.930 . S
C161 C162 1.397 . S
C161 C163 1.361 . S
C162 C161 1.397 . S
C162 C166 1.390 . S
C163 C161 1.361 . S
C163 C164 1.393 . S
C163 N167 1.413 . S
C164 H157 0.930 1_556 S
C164 C163 1.393 . S
C164 C165 1.399 . S
C165 C164 1.399 . S
C165 C166 1.381 . S
C166 H158 0.930 . S
C166 C162 1.390 . S
C166 C165 1.381 . S
N167 C160 1.286 1_556 S
N167 C163 1.413 . S
H168 C173 0.930 . S
H169 C176 0.930 . S
H170 C178 0.930 . S
H171 C172 1.016 . S
C172 H171 1.016 . S
C172 N179 1.286 . S
C173 H168 0.930 . S
C173 C174 1.397 . S
C173 C175 1.361 . S
C174 C173 1.397 . S
C174 C178 1.390 . S
C175 C173 1.361 . S
C175 C176 1.393 . S
C175 N179 1.413 . S
C176 H169 0.930 . S
C176 C175 1.393 . S
C176 C177 1.399 . S
C177 C176 1.399 . S
C177 C178 1.381 . S
C178 H170 0.930 . S
C178 C174 1.390 . S
C178 C177 1.381 . S
N179 C172 1.286 . S
N179 C175 1.413 . S
H180 C185 0.930 . S
H181 C188 0.930 . S
H182 C190 0.930 . S
H183 C184 1.016 1_565 S
C184 H183 1.016 1_545 S
C184 N191 1.286 . S
C185 H180 0.930 . S
C185 C186 1.428 . S
C185 C187 1.361 . S
C186 C185 1.428 . S
C186 C190 1.381 1_556 S
C187 C185 1.361 . S
C187 C188 1.393 . S
C187 N191 1.413 . S
C188 H181 0.930 . S
C188 C187 1.393 . S
C188 C189 1.399 . S
C189 C188 1.399 . S
C189 C190 1.381 1_556 S
C190 H182 0.930 . S
C190 C186 1.381 1_554 S
C190 C189 1.381 1_554 S
N191 C184 1.286 . S
N191 C187 1.413 . S
C192 O193 1.160 1_554 S
C192 O199 1.185 . S
O193 C192 1.160 1_556 S
O194 Zn195 1.899 1_556 S
O194 C202 1.284 . S
Zn195 O194 1.899 1_554 S
Zn195 O196 2.032 . S
Zn195 O199 2.086 . S
Zn195 O204 1.977 . S
O196 Zn195 2.032 . S
O196 C200 1.278 . S
C197 O198 1.203 . S
C197 O204 1.267 . S
O198 C197 1.203 . S
O199 C192 1.185 . S
O199 Zn195 2.086 . S
C200 O196 1.278 . S
C200 O201 1.211 . S
O201 C200 1.211 . S
C202 O194 1.284 . S
C202 O203 1.273 . S
O203 C202 1.273 . S
O204 Zn195 1.977 . S
O204 C197 1.267 . S
C205 O206 1.160 . S
C205 O212 1.185 . S
O206 C205 1.160 . S
O207 Zn208 1.899 . S
O207 C215 1.284 . S
Zn208 O207 1.899 . S
Zn208 O209 2.032 . S
Zn208 O212 2.086 . S
Zn208 O217 1.977 . S
O209 Zn208 2.032 . S
O209 C213 1.278 . S
C210 O211 1.203 . S
C210 O217 1.267 . S
O211 C210 1.203 . S
O212 C205 1.185 . S
O212 Zn208 2.086 . S
C213 O209 1.278 . S
C213 O214 1.211 . S
O214 C213 1.211 . S
C215 O207 1.284 . S
C215 O216 1.273 . S
O216 C215 1.273 . S
O217 Zn208 1.977 . S
O217 C210 1.267 . S
C218 O219 1.160 1_554 S
C218 O225 1.185 . S
O219 C218 1.160 1_556 S
O220 Zn221 1.899 1_556 S
O220 C228 1.284 . S
Zn221 O220 1.899 1_554 S
Zn221 O222 2.032 1_554 S
Zn221 O225 2.086 . S
Zn221 O230 1.977 . S
O222 Zn221 2.032 1_556 S
O222 C226 1.278 . S
C223 O224 1.203 . S
C223 O230 1.267 . S
O224 C223 1.203 . S
O225 C218 1.185 . S
O225 Zn221 2.086 . S
C226 O222 1.278 . S
C226 O227 1.211 1_556 S
O227 C226 1.211 1_554 S
C228 O220 1.284 . S
C228 O229 1.273 . S
O229 C228 1.273 . S
O230 Zn221 1.977 . S
O230 C223 1.267 . S
C231 O232 1.160 . S
C231 O238 1.185 . S
O232 C231 1.160 . S
O233 Zn234 1.899 . S
O233 C241 1.284 . S
Zn234 O233 1.899 . S
Zn234 O235 2.032 . S
Zn234 O238 2.086 . S
Zn234 O243 1.977 . S
O235 Zn234 2.032 . S
O235 C239 1.278 1_545 S
C236 O237 1.203 . S
C236 O243 1.267 . S
O237 C236 1.203 . S
O238 C231 1.185 . S
O238 Zn234 2.086 . S
C239 O235 1.278 1_565 S
C239 O240 1.211 . S
O240 C239 1.211 . S
C241 O233 1.284 . S
C241 O242 1.273 1_545 S
O242 C241 1.273 1_565 S
O243 Zn234 1.977 . S
O243 C236 1.267 . S
C244 O245 1.160 . S
C244 O251 1.185 . S
O245 C244 1.160 . S
O246 Zn247 1.899 . S
O246 C254 1.284 . S
Zn247 O246 1.899 . S
Zn247 O248 2.032 . S
Zn247 O251 2.086 . S
Zn247 O256 1.977 . S
O248 Zn247 2.032 . S
O248 C252 1.278 . S
C249 O250 1.203 . S
C249 O256 1.267 . S
O250 C249 1.203 . S
O251 C244 1.185 . S
O251 Zn247 2.086 . S
C252 O248 1.278 . S
C252 O253 1.211 . S
O253 C252 1.211 . S
C254 O246 1.284 . S
C254 O255 1.273 . S
O255 C254 1.273 . S
O256 Zn247 1.977 . S
O256 C249 1.267 . S
C257 O258 1.160 . S
C257 O264 1.185 . S
O258 C257 1.160 . S
O259 Zn260 1.899 . S
O259 C267 1.284 . S
Zn260 O259 1.899 . S
Zn260 O261 2.032 . S
Zn260 O264 2.086 . S
Zn260 O269 1.977 . S
O261 Zn260 2.032 . S
O261 C265 1.278 . S
C262 O263 1.203 . S
C262 O269 1.267 . S
O263 C262 1.203 . S
O264 C257 1.185 . S
O264 Zn260 2.086 . S
C265 O261 1.278 . S
C265 O266 1.211 . S
O266 C265 1.211 . S
C267 O259 1.284 . S
C267 O268 1.273 . S
O268 C267 1.273 . S
O269 Zn260 1.977 . S
O269 C262 1.267 . S
C270 O271 1.160 . S
C270 O277 1.185 . S
O271 C270 1.160 . S
O272 Zn273 1.899 . S
O272 C280 1.284 . S
Zn273 O272 1.899 . S
Zn273 O274 2.032 . S
Zn273 O277 2.086 . S
Zn273 O282 1.977 . S
O274 Zn273 2.032 . S
O274 C278 1.278 . S
C275 O276 1.203 . S
C275 O282 1.267 . S
O276 C275 1.203 . S
O277 C270 1.185 . S
O277 Zn273 2.086 . S
C278 O274 1.278 . S
C278 O279 1.211 . S
O279 C278 1.211 . S
C280 O272 1.284 . S
C280 O281 1.273 . S
O281 C280 1.273 . S
O282 Zn273 1.977 . S
O282 C275 1.267 . S
C283 O284 1.160 . S
C283 O290 1.185 . S
O284 C283 1.160 . S
O285 Zn286 1.899 . S
O285 C293 1.284 1_565 S
Zn286 O285 1.899 . S
Zn286 O287 2.032 1_565 S
Zn286 O290 2.086 . S
Zn286 O295 1.977 . S
O287 Zn286 2.032 1_545 S
O287 C291 1.278 . S
C288 O289 1.203 1_565 S
C288 O295 1.267 . S
O289 C288 1.203 1_545 S
O290 C283 1.185 . S
O290 Zn286 2.086 . S
C291 O287 1.278 . S
C291 O292 1.211 . S
O292 C291 1.211 . S
C293 O285 1.284 1_545 S
C293 O294 1.273 . S
O294 C293 1.273 . S
O295 Zn286 1.977 . S
O295 C288 1.267 . S
C296 O297 1.160 1_455 S
C296 O303 1.185 . S
O297 C296 1.160 1_655 S
O298 Zn299 1.899 1_655 S
O298 C306 1.284 . S
Zn299 O298 1.899 1_455 S
Zn299 O300 2.032 . S
Zn299 O303 2.086 . S
Zn299 O308 1.977 . S
O300 Zn299 2.032 . S
O300 C304 1.278 . S
C301 O302 1.203 . S
C301 O308 1.267 . S
O302 C301 1.203 . S
O303 C296 1.185 . S
O303 Zn299 2.086 . S
C304 O300 1.278 . S
C304 O305 1.211 . S
O305 C304 1.211 . S
C306 O298 1.284 . S
C306 O307 1.273 . S
O307 C306 1.273 . S
O308 Zn299 1.977 . S
O308 C301 1.267 . S
C309 O310 1.160 . S
C309 O316 1.185 . S
O310 C309 1.160 . S
O311 Zn312 1.899 . S
O311 C319 1.284 . S
Zn312 O311 1.899 . S
Zn312 O313 2.032 . S
Zn312 O316 2.086 . S
Zn312 O321 1.977 . S
O313 Zn312 2.032 . S
O313 C317 1.278 . S
C314 O315 1.203 . S
C314 O321 1.267 . S
O315 C314 1.203 . S
O316 C309 1.185 . S
O316 Zn312 2.086 . S
C317 O313 1.278 . S
C317 O318 1.211 . S
O318 C317 1.211 . S
C319 O311 1.284 . S
C319 O320 1.273 . S
O320 C319 1.273 . S
O321 Zn312 1.977 . S
O321 C314 1.267 . S
C322 O323 1.160 1_455 S
C322 O329 1.185 . S
O323 C322 1.160 1_655 S
O324 Zn325 1.899 1_655 S
O324 C332 1.284 . S
Zn325 O324 1.899 1_455 S
Zn325 O326 2.032 . S
Zn325 O329 2.086 . S
Zn325 O334 1.977 . S
O326 Zn325 2.032 . S
O326 C330 1.278 . S
C327 O328 1.203 . S
C327 O334 1.267 . S
O328 C327 1.203 . S
O329 C322 1.185 . S
O329 Zn325 2.086 . S
C330 O326 1.278 . S
C330 O331 1.211 . S
O331 C330 1.211 . S
C332 O324 1.284 . S
C332 O333 1.273 . S
O333 C332 1.273 . S
O334 Zn325 1.977 . S
O334 C327 1.267 . S
C335 O336 1.160 . S
C335 O342 1.185 . S
O336 C335 1.160 . S
O337 Zn338 1.899 . S
O337 C345 1.284 . S
Zn338 O337 1.899 . S
Zn338 O339 2.032 . S
Zn338 O342 2.086 . S
Zn338 O347 1.977 . S
O339 Zn338 2.032 . S
O339 C343 1.278 . S
C340 O341 1.203 . S
C340 O347 1.267 . S
O341 C340 1.203 . S
O342 C335 1.185 . S
O342 Zn338 2.086 . S
C343 O339 1.278 . S
C343 O344 1.211 . S
O344 C343 1.211 . S
C345 O337 1.284 . S
C345 O346 1.273 . S
O346 C345 1.273 . S
O347 Zn338 1.977 . S
O347 C340 1.267 . S
C348 C349 1.369 . S
C348 C350 1.419 . S
C348 H352 0.930 . S
C349 C348 1.369 . S
C349 C358 1.429 . S
C350 C348 1.419 . S
C350 C351 1.363 . S
C350 H353 0.929 . S
C351 C350 1.363 . S
C351 C357 1.428 . S
H352 C348 0.930 . S
H353 C350 0.929 . S
S354 N355 1.613 . S
S354 N356 1.610 . S
N355 S354 1.613 . S
N355 C358 1.350 . S
N356 S354 1.610 . S
N356 C357 1.351 . S
C357 C351 1.428 . S
C357 N356 1.351 . S
C357 C358 1.434 . S
C358 C349 1.429 . S
C358 N355 1.350 . S
C358 C357 1.434 . S
C359 C360 1.369 . S
C359 C361 1.419 . S
C359 H363 0.930 1_455 S
C360 C359 1.369 . S
C360 C369 1.429 . S
C361 C359 1.419 . S
C361 C362 1.363 . S
C361 H364 0.929 . S
C362 C361 1.363 . S
C362 C368 1.428 . S
H363 C359 0.930 1_655 S
H364 C361 0.929 . S
S365 N366 1.613 . S
S365 N367 1.610 . S
N366 S365 1.613 . S
N366 C369 1.350 . S
N367 S365 1.610 . S
N367 C368 1.351 . S
C368 C362 1.428 . S
C368 N367 1.351 . S
C368 C369 1.434 . S
C369 C360 1.429 . S
C369 N366 1.350 . S
C369 C368 1.434 . S
C370 C371 1.369 . S
C370 C372 1.419 . S
C370 H374 0.930 . S
C371 C370 1.369 . S
C371 C380 1.429 . S
C372 C370 1.419 . S
C372 C373 1.363 . S
C372 H375 0.929 . S
C373 C372 1.363 . S
C373 C379 1.428 . S
H374 C370 0.930 . S
H375 C372 0.929 . S
S376 N377 1.613 . S
S376 N378 1.610 . S
N377 S376 1.613 . S
N377 C380 1.350 . S
N378 S376 1.610 . S
N378 C379 1.351 . S
C379 C373 1.428 . S
C379 N378 1.351 . S
C379 C380 1.434 . S
C380 C371 1.429 . S
C380 N377 1.350 . S
C380 C379 1.434 . S
C381 C382 1.369 1_565 S
C381 C383 1.419 . S
C381 H385 0.930 . S
C382 C381 1.369 1_545 S
C382 C391 1.429 . S
C383 C381 1.419 . S
C383 C384 1.363 1_465 S
C383 H386 0.929 . S
C384 C383 1.363 1_645 S
C384 C390 1.428 . S
H385 C381 0.930 . S
H386 C383 0.929 . S
S387 N388 1.613 . S
S387 N389 1.610 . S
N388 S387 1.613 . S
N388 C391 1.350 1_655 S
N389 S387 1.610 . S
N389 C390 1.351 . S
C390 C384 1.428 . S
C390 N389 1.351 . S
C390 C391 1.434 1_655 S
C391 C382 1.429 . S
C391 N388 1.350 1_455 S
C391 C390 1.434 1_455 S
C392 C393 1.369 . S
C392 C394 1.419 . S
C392 H396 0.930 . S
C393 C392 1.369 . S
C393 C402 1.429 . S
C394 C392 1.419 . S
C394 C395 1.363 . S
C394 H397 0.929 . S
C395 C394 1.363 . S
C395 C401 1.428 . S
H396 C392 0.930 . S
H397 C394 0.929 . S
S398 N399 1.613 . S
S398 N400 1.610 . S
N399 S398 1.613 . S
N399 C402 1.350 . S
N400 S398 1.610 . S
N400 C401 1.351 . S
C401 C395 1.428 . S
C401 N400 1.351 . S
C401 C402 1.434 . S
C402 C393 1.429 . S
C402 N399 1.350 . S
C402 C401 1.434 . S
C403 C404 1.369 . S
C403 C405 1.419 . S
C403 H407 0.930 . S
C404 C403 1.369 . S
C404 C413 1.429 . S
C405 C403 1.419 . S
C405 C406 1.363 . S
C405 H408 0.929 . S
C406 C405 1.363 . S
C406 C412 1.428 . S
H407 C403 0.930 . S
H408 C405 0.929 . S
S409 N410 1.613 . S
S409 N411 1.610 . S
N410 S409 1.613 . S
N410 C413 1.350 . S
N411 S409 1.610 . S
N411 C412 1.351 . S
C412 C406 1.428 . S
C412 N411 1.351 . S
C412 C413 1.434 . S
C413 C404 1.429 . S
C413 N410 1.350 . S
C413 C412 1.434 . S
C414 C415 1.369 . S
C414 C416 1.419 . S
C414 H418 0.930 . S
C415 C414 1.369 . S
C415 C424 1.429 . S
C416 C414 1.419 . S
C416 C417 1.363 . S
C416 H419 0.929 . S
C417 C416 1.363 . S
C417 C423 1.428 . S
H418 C414 0.930 . S
H419 C416 0.929 . S
S420 N421 1.613 . S
S420 N422 1.610 . S
N421 S420 1.613 . S
N421 C424 1.350 . S
N422 S420 1.610 . S
N422 C423 1.351 . S
C423 C417 1.428 . S
C423 N422 1.351 . S
C423 C424 1.434 . S
C424 C415 1.429 . S
C424 N421 1.350 . S
C424 C423 1.434 . S
C425 C426 1.369 1_545 S
C425 C427 1.419 . S
C425 H429 0.930 . S
C426 C425 1.369 1_565 S
C426 C435 1.429 . S
C427 C425 1.419 . S
C427 C428 1.363 1_545 S
C427 H430 0.929 . S
C428 C427 1.363 1_565 S
C428 C434 1.428 . S
H429 C425 0.930 . S
H430 C427 0.929 . S
S431 N432 1.613 . S
S431 N433 1.610 . S
N432 S431 1.613 . S
N432 C435 1.350 . S
N433 S431 1.610 . S
N433 C434 1.351 . S
C434 C428 1.428 . S
C434 N433 1.351 . S
C434 C435 1.434 . S
C435 C426 1.429 . S
C435 N432 1.350 . S
C435 C434 1.434 . S
C436 C437 1.369 . S
C436 C438 1.419 . S
C436 H440 0.930 . S
C437 C436 1.369 . S
C437 C446 1.429 . S
C438 C436 1.419 . S
C438 C439 1.363 . S
C438 H441 0.929 . S
C439 C438 1.363 . S
C439 C445 1.428 . S
H440 C436 0.930 . S
H441 C438 0.929 . S
S442 N443 1.613 . S
S442 N444 1.610 . S
N443 S442 1.613 . S
N443 C446 1.350 . S
N444 S442 1.610 . S
N444 C445 1.351 . S
C445 C439 1.428 . S
C445 N444 1.351 . S
C445 C446 1.434 . S
C446 C437 1.429 . S
C446 N443 1.350 . S
C446 C445 1.434 . S
C447 C448 1.369 . S
C447 C449 1.419 . S
C447 H451 0.930 . S
C448 C447 1.369 . S
C448 C457 1.429 . S
C449 C447 1.419 . S
C449 C450 1.363 . S
C449 H452 0.929 . S
C450 C449 1.363 . S
C450 C456 1.428 . S
H451 C447 0.930 . S
H452 C449 0.929 . S
S453 N454 1.613 . S
S453 N455 1.610 . S
N454 S453 1.613 . S
N454 C457 1.350 . S
N455 S453 1.610 . S
N455 C456 1.351 . S
C456 C450 1.428 . S
C456 N455 1.351 . S
C456 C457 1.434 . S
C457 C448 1.429 . S
C457 N454 1.350 . S
C457 C456 1.434 . S
C458 C459 1.369 . S
C458 C460 1.419 . S
C458 H462 0.930 . S
C459 C458 1.369 . S
C459 C468 1.429 . S
C460 C458 1.419 . S
C460 C461 1.363 . S
C460 H463 0.929 . S
C461 C460 1.363 . S
C461 C467 1.428 . S
H462 C458 0.930 . S
H463 C460 0.929 . S
S464 N465 1.613 . S
S464 N466 1.610 . S
N465 S464 1.613 . S
N465 C468 1.350 . S
N466 S464 1.610 . S
N466 C467 1.351 . S
C467 C461 1.428 . S
C467 N466 1.351 . S
C467 C468 1.434 . S
C468 C459 1.429 . S
C468 N465 1.350 . S
C468 C467 1.434 . S
C469 C470 1.369 . S
C469 C471 1.419 . S
C469 H473 0.930 . S
C470 C469 1.369 . S
C470 C479 1.429 . S
C471 C469 1.419 . S
C471 C472 1.363 . S
C471 H474 0.929 . S
C472 C471 1.363 . S
C472 C478 1.428 . S
H473 C469 0.930 . S
H474 C471 0.929 . S
S475 N476 1.613 . S
S475 N477 1.610 . S
N476 S475 1.613 . S
N476 C479 1.350 . S
N477 S475 1.610 . S
N477 C478 1.351 . S
C478 C472 1.428 . S
C478 N477 1.351 . S
C478 C479 1.434 . S
C479 C470 1.429 . S
C479 N476 1.350 . S
C479 C478 1.434 . S
C480 C481 1.369 . S
C480 C482 1.419 . S
C480 H484 0.930 . S
C481 C480 1.369 . S
C481 C490 1.429 . S
C482 C480 1.419 . S
C482 C483 1.363 . S
C482 H485 0.929 . S
C483 C482 1.363 . S
C483 C489 1.428 . S
H484 C480 0.930 . S
H485 C482 0.929 . S
S486 N487 1.613 . S
S486 N488 1.610 . S
N487 S486 1.613 . S
N487 C490 1.350 . S
N488 S486 1.610 . S
N488 C489 1.351 . S
C489 C483 1.428 . S
C489 N488 1.351 . S
C489 C490 1.434 . S
C490 C481 1.429 . S
C490 N487 1.350 . S
C490 C489 1.434 . S
C491 C492 1.369 . S
C491 C493 1.419 . S
C491 H495 0.930 . S
C492 C491 1.369 . S
C492 C501 1.429 . S
C493 C491 1.419 . S
C493 C494 1.363 . S
C493 H496 0.929 1_455 S
C494 C493 1.363 . S
C494 C500 1.428 . S
H495 C491 0.930 . S
H496 C493 0.929 1_655 S
S497 N498 1.613 . S
S497 N499 1.610 . S
N498 S497 1.613 . S
N498 C501 1.350 . S
N499 S497 1.610 . S
N499 C500 1.351 . S
C500 C494 1.428 . S
C500 N499 1.351 . S
C500 C501 1.434 . S
C501 C492 1.429 . S
C501 N498 1.350 . S
C501 C500 1.434 . S
C502 C503 1.369 . S
C502 C504 1.419 . S
C502 H506 0.930 . S
C503 C502 1.369 . S
C503 C512 1.429 . S
C504 C502 1.419 . S
C504 C505 1.363 . S
C504 H507 0.929 . S
C505 C504 1.363 . S
C505 C511 1.428 . S
H506 C502 0.930 . S
H507 C504 0.929 . S
S508 N509 1.613 . S
S508 N510 1.610 . S
N509 S508 1.613 . S
N509 C512 1.350 . S
N510 S508 1.610 . S
N510 C511 1.351 . S
C511 C505 1.428 . S
C511 N510 1.351 . S
C511 C512 1.434 . S
C512 C503 1.429 . S
C512 N509 1.350 . S
C512 C511 1.434 . S
C513 C514 1.366 1_455 S
C513 C515 1.419 . S
C513 H517 0.933 . S
C514 C513 1.366 1_655 S
C514 C523 1.429 . S
C515 C513 1.419 . S
C515 C516 1.363 1_455 S
C515 H518 0.929 . S
C516 C515 1.363 1_655 S
C516 C522 1.428 . S
H517 C513 0.933 . S
H518 C515 0.929 . S
S519 N520 1.613 . S
S519 N521 1.610 . S
N520 S519 1.613 . S
N520 C523 1.350 . S
N521 S519 1.610 . S
N521 C522 1.351 . S
C522 C516 1.428 . S
C522 N521 1.351 . S
C522 C523 1.434 . S
C523 C514 1.429 . S
C523 N520 1.350 . S
C523 C522 1.434 . S
C524 C525 1.369 . S
C524 C526 1.419 . S
C524 H528 0.930 . S
C525 C524 1.369 . S
C525 C534 1.429 . S
C526 C524 1.419 . S
C526 C527 1.363 . S
C526 H529 0.929 . S
C527 C526 1.363 . S
C527 C533 1.428 . S
H528 C524 0.930 . S
H529 C526 0.929 . S
S530 N531 1.613 . S
S530 N532 1.610 . S
N531 S530 1.613 . S
N531 C534 1.350 . S
N532 S530 1.610 . S
N532 C533 1.351 . S
C533 C527 1.428 . S
C533 N532 1.351 . S
C533 C534 1.434 . S
C534 C525 1.429 . S
C534 N531 1.350 . S
C534 C533 1.434 . S
C535 C536 1.369 . S
C535 C537 1.419 . S
C535 H539 0.930 . S
C536 C535 1.369 . S
C536 C545 1.429 . S
C537 C535 1.419 . S
C537 C538 1.363 . S
C537 H540 0.929 . S
C538 C537 1.363 . S
C538 C544 1.428 . S
H539 C535 0.930 . S
H540 C537 0.929 . S
S541 N542 1.613 . S
S541 N543 1.610 . S
N542 S541 1.613 . S
N542 C545 1.350 . S
N543 S541 1.610 . S
N543 C544 1.351 . S
C544 C538 1.428 . S
C544 N543 1.351 . S
C544 C545 1.434 . S
C545 C536 1.429 . S
C545 N542 1.350 . S
C545 C544 1.434 . S
C546 C547 1.369 . S
C546 C548 1.419 . S
C546 H550 0.930 . S
C547 C546 1.369 . S
C547 C556 1.429 1_566 S
C548 C546 1.419 . S
C548 C549 1.363 1_556 S
C548 H551 0.929 . S
C549 C548 1.363 1_554 S
C549 C555 1.428 . S
H550 C546 0.930 . S
H551 C548 0.929 . S
S552 N553 1.613 . S
S552 N554 1.610 . S
N553 S552 1.613 . S
N553 C556 1.350 . S
N554 S552 1.610 . S
N554 C555 1.351 1_545 S
C555 C549 1.428 . S
C555 N554 1.351 1_565 S
C555 C556 1.434 1_565 S
C556 C547 1.429 1_544 S
C556 N553 1.350 . S
C556 C555 1.434 1_545 S
C557 C558 1.369 . S
C557 C559 1.419 . S
C557 H561 0.930 . S
C558 C557 1.369 . S
C558 C567 1.429 . S
C559 C557 1.419 . S
C559 C560 1.363 . S
C559 H562 0.929 . S
C560 C559 1.363 . S
C560 C566 1.428 . S
H561 C557 0.930 . S
H562 C559 0.929 . S
S563 N564 1.613 . S
S563 N565 1.610 . S
N564 S563 1.613 . S
N564 C567 1.350 . S
N565 S563 1.610 . S
N565 C566 1.351 . S
C566 C560 1.428 . S
C566 N565 1.351 . S
C566 C567 1.434 . S
C567 C558 1.429 . S
C567 N564 1.350 . S
C567 C566 1.434 . S
C568 C569 1.369 . S
C568 C570 1.419 . S
C568 H572 0.930 . S
C569 C568 1.369 . S
C569 C578 1.429 . S
C570 C568 1.419 . S
C570 C571 1.363 . S
C570 H573 0.929 . S
C571 C570 1.363 . S
C571 C577 1.428 . S
H572 C568 0.930 . S
H573 C570 0.929 . S
S574 N575 1.613 . S
S574 N576 1.610 . S
N575 S574 1.613 . S
N575 C578 1.350 . S
N576 S574 1.610 . S
N576 C577 1.351 . S
C577 C571 1.428 . S
C577 N576 1.351 . S
C577 C578 1.434 . S
C578 C569 1.429 . S
C578 N575 1.350 . S
C578 C577 1.434 . S
C579 C580 1.369 . S
C579 C581 1.419 . S
C579 H583 0.930 . S
C580 C579 1.369 . S
C580 C589 1.429 . S
C581 C579 1.419 . S
C581 C582 1.363 . S
C581 H584 0.929 . S
C582 C581 1.363 . S
C582 C588 1.428 . S
H583 C579 0.930 . S
H584 C581 0.929 . S
S585 N586 1.613 . S
S585 N587 1.610 . S
N586 S585 1.613 . S
N586 C589 1.350 . S
N587 S585 1.610 . S
N587 C588 1.351 . S
C588 C582 1.428 . S
C588 N587 1.351 . S
C588 C589 1.434 . S
C589 C580 1.429 . S
C589 N586 1.350 . S
C589 C588 1.434 . S
C590 C591 1.369 . S
C590 C592 1.419 . S
C590 H594 0.930 . S
C591 C590 1.369 . S
C591 C600 1.429 . S
C592 C590 1.419 . S
C592 C593 1.363 . S
C592 H595 0.929 . S
C593 C592 1.363 . S
C593 C599 1.428 . S
H594 C590 0.930 . S
H595 C592 0.929 . S
S596 N597 1.613 . S
S596 N598 1.610 . S
N597 S596 1.613 . S
N597 C600 1.350 . S
N598 S596 1.610 . S
N598 C599 1.351 . S
C599 C593 1.428 . S
C599 N598 1.351 . S
C599 C600 1.434 . S
C600 C591 1.429 . S
C600 N597 1.350 . S
C600 C599 1.434 . S
C601 C602 1.369 . S
C601 C603 1.419 . S
C601 H605 0.930 . S
C602 C601 1.369 . S
C602 C611 1.429 . S
C603 C601 1.419 . S
C603 C604 1.363 . S
C603 H606 0.929 . S
C604 C603 1.363 . S
C604 C610 1.428 . S
H605 C601 0.930 . S
H606 C603 0.929 . S
S607 N608 1.613 . S
S607 N609 1.610 . S
N608 S607 1.613 . S
N608 C611 1.350 . S
N609 S607 1.610 . S
N609 C610 1.351 . S
C610 C604 1.428 . S
C610 N609 1.351 . S
C610 C611 1.434 . S
C611 C602 1.429 . S
C611 N608 1.350 . S
C611 C610 1.434 . S
C612 C613 1.369 . S
C612 C614 1.419 . S
C612 H616 0.930 . S
C613 C612 1.369 . S
C613 C622 1.429 . S
C614 C612 1.419 . S
C614 C615 1.363 . S
C614 H617 0.929 . S
C615 C614 1.363 . S
C615 C621 1.428 . S
H616 C612 0.930 . S
H617 C614 0.929 . S
S618 N619 1.613 . S
S618 N620 1.610 . S
N619 S618 1.613 . S
N619 C622 1.350 . S
N620 S618 1.610 . S
N620 C621 1.351 . S
C621 C615 1.428 . S
C621 N620 1.351 . S
C621 C622 1.434 . S
C622 C613 1.429 . S
C622 N619 1.350 . S
C622 C621 1.434 . S
C623 C624 1.369 1_565 S
C623 C625 1.419 . S
C623 H627 0.930 . S
C624 C623 1.369 1_545 S
C624 C633 1.429 . S
C625 C623 1.419 . S
C625 C626 1.363 1_565 S
C625 H628 0.929 . S
C626 C625 1.363 1_545 S
C626 C632 1.428 . S
H627 C623 0.930 . S
H628 C625 0.929 . S
S629 N630 1.613 . S
S629 N631 1.610 . S
N630 S629 1.613 . S
N630 C633 1.350 . S
N631 S629 1.610 . S
N631 C632 1.351 . S
C632 C626 1.428 . S
C632 N631 1.351 . S
C632 C633 1.434 . S
C633 C624 1.429 . S
C633 N630 1.350 . S
C633 C632 1.434 . S
C634 C635 1.369 . S
C634 C636 1.419 . S
C634 H638 0.930 . S
C635 C634 1.369 . S
C635 C644 1.429 . S
C636 C634 1.419 . S
C636 C637 1.363 . S
C636 H639 0.929 . S
C637 C636 1.363 . S
C637 C643 1.428 . S
H638 C634 0.930 . S
H639 C636 0.929 . S
S640 N641 1.613 . S
S640 N642 1.610 . S
N641 S640 1.613 . S
N641 C644 1.350 . S
N642 S640 1.610 . S
N642 C643 1.351 . S
C643 C637 1.428 . S
C643 N642 1.351 . S
C643 C644 1.434 . S
C644 C635 1.429 . S
C644 N641 1.350 . S
C644 C643 1.434 . S
C645 C646 1.369 . S
C645 C647 1.419 . S
C645 H649 0.930 . S
C646 C645 1.369 . S
C646 C655 1.429 . S
C647 C645 1.419 . S
C647 C648 1.363 . S
C647 H650 0.929 . S
C648 C647 1.363 . S
C648 C654 1.428 . S
H649 C645 0.930 . S
H650 C647 0.929 . S
S651 N652 1.613 . S
S651 N653 1.610 . S
N652 S651 1.613 . S
N652 C655 1.350 . S
N653 S651 1.610 . S
N653 C654 1.351 . S
C654 C648 1.428 . S
C654 N653 1.351 . S
C654 C655 1.434 . S
C655 C646 1.429 . S
C655 N652 1.350 . S
C655 C654 1.434 . S
C656 C657 1.369 . S
C656 C658 1.419 . S
C656 H660 0.930 . S
C657 C656 1.369 . S
C657 C666 1.429 . S
C658 C656 1.419 . S
C658 C659 1.363 . S
C658 H661 0.929 . S
C659 C658 1.363 . S
C659 C665 1.428 . S
H660 C656 0.930 . S
H661 C658 0.929 . S
S662 N663 1.613 . S
S662 N664 1.610 . S
N663 S662 1.613 . S
N663 C666 1.350 . S
N664 S662 1.610 . S
N664 C665 1.351 . S
C665 C659 1.428 . S
C665 N664 1.351 . S
C665 C666 1.434 . S
C666 C657 1.429 . S
C666 N663 1.350 . S
C666 C665 1.434 . S
C667 C668 1.369 . S
C667 C669 1.419 . S
C667 H671 0.930 . S
C668 C667 1.369 . S
C668 C677 1.429 1_455 S
C669 C667 1.419 . S
C669 C670 1.363 1_455 S
C669 H672 0.929 . S
C670 C669 1.363 1_655 S
C670 C676 1.428 . S
H671 C667 0.930 . S
H672 C669 0.929 . S
S673 N674 1.613 . S
S673 N675 1.610 . S
N674 S673 1.613 . S
N674 C677 1.350 . S
N675 S673 1.610 . S
N675 C676 1.351 . S
C676 C670 1.428 . S
C676 N675 1.351 . S
C676 C677 1.434 . S
C677 C668 1.429 1_655 S
C677 N674 1.350 . S
C677 C676 1.434 . S
C678 C679 1.369 . S
C678 C680 1.419 . S
C678 H682 0.930 . S
C679 C678 1.369 . S
C679 C688 1.429 . S
C680 C678 1.419 . S
C680 C681 1.363 . S
C680 H683 0.929 . S
C681 C680 1.363 . S
C681 C687 1.428 . S
H682 C678 0.930 . S
H683 C680 0.929 . S
S684 N685 1.613 . S
S684 N686 1.610 . S
N685 S684 1.613 . S
N685 C688 1.350 . S
N686 S684 1.610 . S
N686 C687 1.351 . S
C687 C681 1.428 . S
C687 N686 1.351 . S
C687 C688 1.434 . S
C688 C679 1.429 . S
C688 N685 1.350 . S
C688 C687 1.434 . S
C689 C690 1.369 . S
C689 C691 1.419 . S
C689 H693 0.930 1_455 S
C690 C689 1.369 . S
C690 C699 1.429 . S
C691 C689 1.419 . S
C691 C692 1.363 . S
C691 H694 0.929 . S
C692 C691 1.363 . S
C692 C698 1.428 . S
H693 C689 0.930 1_655 S
H694 C691 0.929 . S
S695 N696 1.613 . S
S695 N697 1.610 . S
N696 S695 1.613 . S
N696 C699 1.350 . S
N697 S695 1.610 . S
N697 C698 1.351 . S
C698 C692 1.428 . S
C698 N697 1.351 . S
C698 C699 1.434 . S
C699 C690 1.429 . S
C699 N696 1.350 . S
C699 C698 1.434 . S
C700 C701 1.369 . S
C700 C702 1.419 . S
C700 H704 0.930 . S
C701 C700 1.369 . S
C701 C710 1.429 . S
C702 C700 1.419 . S
C702 C703 1.363 . S
C702 H705 0.929 . S
C703 C702 1.363 . S
C703 C709 1.428 . S
H704 C700 0.930 . S
H705 C702 0.929 . S
S706 N707 1.613 . S
S706 N708 1.610 . S
N707 S706 1.613 . S
N707 C710 1.350 . S
N708 S706 1.610 . S
N708 C709 1.351 . S
C709 C703 1.428 . S
C709 N708 1.351 . S
C709 C710 1.434 . S
C710 C701 1.429 . S
C710 N707 1.350 . S
C710 C709 1.434 . S
C711 C712 1.369 1_455 S
C711 C713 1.419 . S
C711 H715 0.930 . S
C712 C711 1.369 1_655 S
C712 C721 1.429 . S
C713 C711 1.419 . S
C713 C714 1.363 1_455 S
C713 H716 0.929 . S
C714 C713 1.363 1_655 S
C714 C720 1.428 . S
H715 C711 0.930 . S
H716 C713 0.929 . S
S717 N718 1.613 . S
S717 N719 1.610 . S
N718 S717 1.613 . S
N718 C721 1.350 . S
N719 S717 1.610 . S
N719 C720 1.351 . S
C720 C714 1.428 . S
C720 N719 1.351 . S
C720 C721 1.434 . S
C721 C712 1.429 . S
C721 N718 1.350 . S
C721 C720 1.434 . S
C722 C723 1.369 . S
C722 C724 1.419 . S
C722 H726 0.930 . S
C723 C722 1.369 . S
C723 C732 1.429 . S
C724 C722 1.419 . S
C724 C725 1.363 . S
C724 H727 0.929 . S
C725 C724 1.363 . S
C725 C731 1.428 . S
H726 C722 0.930 . S
H727 C724 0.929 . S
S728 N729 1.613 . S
S728 N730 1.610 . S
N729 S728 1.613 . S
N729 C732 1.350 . S
N730 S728 1.610 . S
N730 C731 1.351 . S
C731 C725 1.428 . S
C731 N730 1.351 . S
C731 C732 1.434 . S
C732 C723 1.429 . S
C732 N729 1.350 . S
C732 C731 1.434 . S
C733 C734 1.369 . S
C733 C735 1.413 1_455 S
C733 H737 0.930 1_455 S
C734 C733 1.369 . S
C734 C743 1.429 . S
C735 C733 1.413 1_655 S
C735 C736 1.349 1_655 S
C735 H738 0.949 . S
C736 C735 1.349 1_455 S
C736 C742 1.428 . S
H737 C733 0.930 1_655 S
H738 C735 0.949 . S
S739 N740 1.613 . S
S739 N741 1.610 . S
N740 S739 1.613 . S
N740 C743 1.350 . S
N741 S739 1.610 . S
N741 C742 1.351 . S
C742 C736 1.428 . S
C742 N741 1.351 . S
C742 C743 1.434 . S
C743 C734 1.429 . S
C743 N740 1.350 . S
C743 C742 1.434 . S
C744 C745 1.369 . S
C744 C746 1.419 . S
C744 H748 0.930 . S
C745 C744 1.369 . S
C745 C754 1.429 . S
C746 C744 1.419 . S
C746 C747 1.363 . S
C746 H749 0.929 . S
C747 C746 1.363 . S
C747 C753 1.428 . S
H748 C744 0.930 . S
H749 C746 0.929 . S
S750 N751 1.613 . S
S750 N752 1.610 . S
N751 S750 1.613 . S
N751 C754 1.350 . S
N752 S750 1.610 . S
N752 C753 1.351 . S
C753 C747 1.428 . S
C753 N752 1.351 . S
C753 C754 1.434 . S
C754 C745 1.429 . S
C754 N751 1.350 . S
C754 C753 1.434 . S
C755 C756 1.369 . S
C755 C757 1.419 . S
C755 H759 0.930 . S
C756 C755 1.369 . S
C756 C765 1.429 . S
C757 C755 1.419 . S
C757 C758 1.363 . S
C757 H760 0.929 . S
C758 C757 1.363 . S
C758 C764 1.428 . S
H759 C755 0.930 . S
H760 C757 0.929 . S
S761 N762 1.613 . S
S761 N763 1.610 . S
N762 S761 1.613 . S
N762 C765 1.350 . S
N763 S761 1.610 . S
N763 C764 1.351 . S
C764 C758 1.428 . S
C764 N763 1.351 . S
C764 C765 1.434 . S
C765 C756 1.429 . S
C765 N762 1.350 . S
C765 C764 1.434 . S
C766 C767 1.369 . S
C766 C768 1.419 . S
C766 H770 0.930 . S
C767 C766 1.369 . S
C767 C776 1.429 . S
C768 C766 1.419 . S
C768 C769 1.363 . S
C768 H771 0.929 . S
C769 C768 1.363 . S
C769 C775 1.428 . S
H770 C766 0.930 . S
H771 C768 0.929 . S
S772 N773 1.613 . S
S772 N774 1.610 . S
N773 S772 1.613 . S
N773 C776 1.350 . S
N774 S772 1.610 . S
N774 C775 1.351 . S
C775 C769 1.428 . S
C775 N774 1.351 . S
C775 C776 1.434 . S
C776 C767 1.429 . S
C776 N773 1.350 . S
C776 C775 1.434 . S
C777 C778 1.369 . S
C777 C779 1.419 . S
C777 H781 0.930 . S
C778 C777 1.369 . S
C778 C787 1.429 . S
C779 C777 1.419 . S
C779 C780 1.363 . S
C779 H782 0.929 . S
C780 C779 1.363 . S
C780 C786 1.428 . S
H781 C777 0.930 . S
H782 C779 0.929 . S
S783 N784 1.613 . S
S783 N785 1.610 1_556 S
N784 S783 1.613 . S
N784 C787 1.350 1_556 S
N785 S783 1.610 1_554 S
N785 C786 1.351 . S
C786 C780 1.428 . S
C786 N785 1.351 . S
C786 C787 1.434 . S
C787 C778 1.429 . S
C787 N784 1.350 1_554 S
C787 C786 1.434 . S
C788 C789 1.369 . S
C788 C790 1.419 . S
C788 H792 0.930 . S
C789 C788 1.369 . S
C789 C798 1.429 . S
C790 C788 1.419 . S
C790 C791 1.363 . S
C790 H793 0.929 . S
C791 C790 1.363 . S
C791 C797 1.428 . S
H792 C788 0.930 . S
H793 C790 0.929 . S
S794 N795 1.613 . S
S794 N796 1.610 . S
N795 S794 1.613 . S
N795 C798 1.350 . S
N796 S794 1.610 . S
N796 C797 1.351 . S
C797 C791 1.428 . S
C797 N796 1.351 . S
C797 C798 1.434 . S
C798 C789 1.429 . S
C798 N795 1.350 . S
C798 C797 1.434 . S
C799 C800 1.369 . S
C799 C801 1.419 . S
C799 H803 0.930 . S
C800 C799 1.369 . S
C800 C809 1.429 . S
C801 C799 1.419 . S
C801 C802 1.363 . S
C801 H804 0.929 . S
C802 C801 1.363 . S
C802 C808 1.428 . S
H803 C799 0.930 . S
H804 C801 0.929 . S
S805 N806 1.613 . S
S805 N807 1.610 . S
N806 S805 1.613 . S
N806 C809 1.350 . S
N807 S805 1.610 . S
N807 C808 1.351 . S
C808 C802 1.428 . S
C808 N807 1.351 . S
C808 C809 1.434 . S
C809 C800 1.429 . S
C809 N806 1.350 . S
C809 C808 1.434 . S
C810 C811 1.369 . S
C810 C812 1.419 . S
C810 H814 0.930 . S
C811 C810 1.369 . S
C811 C820 1.429 . S
C812 C810 1.419 . S
C812 C813 1.363 . S
C812 H815 0.929 . S
C813 C812 1.363 . S
C813 C819 1.428 . S
H814 C810 0.930 . S
H815 C812 0.929 . S
S816 N817 1.613 . S
S816 N818 1.610 . S
N817 S816 1.613 . S
N817 C820 1.350 . S
N818 S816 1.610 . S
N818 C819 1.351 . S
C819 C813 1.428 . S
C819 N818 1.351 . S
C819 C820 1.434 . S
C820 C811 1.429 . S
C820 N817 1.350 . S
C820 C819 1.434 . S
C821 C822 1.369 . S
C821 C823 1.419 . S
C821 H825 0.930 . S
C822 C821 1.369 . S
C822 C831 1.429 . S
C823 C821 1.419 . S
C823 C824 1.363 . S
C823 H826 0.929 . S
C824 C823 1.363 . S
C824 C830 1.428 . S
H825 C821 0.930 . S
H826 C823 0.929 . S
S827 N828 1.613 . S
S827 N829 1.610 . S
N828 S827 1.613 . S
N828 C831 1.350 . S
N829 S827 1.610 . S
N829 C830 1.351 . S
C830 C824 1.428 . S
C830 N829 1.351 . S
C830 C831 1.434 . S
C831 C822 1.429 . S
C831 N828 1.350 . S
C831 C830 1.434 . S
C832 C833 1.369 . S
C832 C834 1.419 . S
C832 H836 0.930 . S
C833 C832 1.369 . S
C833 C842 1.429 1_556 S
C834 C832 1.419 . S
C834 C835 1.363 . S
C834 H837 0.929 . S
C835 C834 1.363 . S
C835 C841 1.428 1_556 S
H836 C832 0.930 . S
H837 C834 0.929 . S
S838 N839 1.613 . S
S838 N840 1.610 . S
N839 S838 1.613 . S
N839 C842 1.350 . S
N840 S838 1.610 . S
N840 C841 1.351 . S
C841 C835 1.428 1_554 S
C841 N840 1.351 . S
C841 C842 1.434 . S
C842 C833 1.429 1_554 S
C842 N839 1.350 . S
C842 C841 1.434 . S
C843 C844 1.369 . S
C843 C845 1.419 . S
C843 H847 0.930 . S
C844 C843 1.369 . S
C844 C853 1.429 . S
C845 C843 1.419 . S
C845 C846 1.363 . S
C845 H848 0.929 . S
C846 C845 1.363 . S
C846 C852 1.428 . S
H847 C843 0.930 . S
H848 C845 0.929 . S
S849 N850 1.613 . S
S849 N851 1.610 . S
N850 S849 1.613 . S
N850 C853 1.350 . S
N851 S849 1.610 . S
N851 C852 1.351 . S
C852 C846 1.428 . S
C852 N851 1.351 . S
C852 C853 1.434 . S
C853 C844 1.429 . S
C853 N850 1.350 . S
C853 C852 1.434 . S
C854 C855 1.369 . S
C854 C856 1.419 . S
C854 H858 0.930 . S
C855 C854 1.369 . S
C855 C864 1.429 . S
C856 C854 1.419 . S
C856 C857 1.363 . S
C856 H859 0.929 . S
C857 C856 1.363 . S
C857 C863 1.428 . S
H858 C854 0.930 . S
H859 C856 0.929 . S
S860 N861 1.613 . S
S860 N862 1.610 . S
N861 S860 1.613 . S
N861 C864 1.350 1_556 S
N862 S860 1.610 . S
N862 C863 1.351 1_556 S
C863 C857 1.428 . S
C863 N862 1.351 1_554 S
C863 C864 1.434 . S
C864 C855 1.429 . S
C864 N861 1.350 1_554 S
C864 C863 1.434 . S
C865 C866 1.369 . S
C865 C867 1.419 . S
C865 H869 0.930 1_564 S
C866 C865 1.369 . S
C866 C875 1.429 . S
C867 C865 1.419 . S
C867 C868 1.363 . S
C867 H870 0.929 1_554 S
C868 C867 1.363 . S
C868 C874 1.428 . S
H869 C865 0.930 1_546 S
H870 C867 0.929 1_556 S
S871 N872 1.613 . S
S871 N873 1.610 . S
N872 S871 1.613 . S
N872 C875 1.350 . S
N873 S871 1.610 . S
N873 C874 1.351 . S
C874 C868 1.428 . S
C874 N873 1.351 . S
C874 C875 1.434 . S
C875 C866 1.429 . S
C875 N872 1.350 . S
C875 C874 1.434 . S
C351 C202 1.637 . S
C349 C66 1.666 . S
C362 C215 1.316 . S
C360 C76 1.324 . S
C371 C93 1.768 . S
C373 C228 1.721 . S
C384 C241 1.480 . S
C382 C54 1.507 . S
C395 C249 1.502 . S
C393 C126 1.518 . S
C406 C262 1.689 . S
C404 C150 1.719 . S
C415 C136 1.283 . S
C417 C275 1.267 . S
C428 C288 1.720 . S
C426 C117 1.746 . S
C437 C141 1.298 . S
C439 C306 1.285 . S
C450 C317 1.369 . S
C448 C112 1.383 . S
C459 C124 1.490 . S
C461 C301 1.468 . S
C472 C309 1.330 . S
C470 C148 1.337 . S
C481 C88 1.371 . S
C483 C332 1.365 . S
C492 C52 1.561 . S
C494 C322 1.544 . S
C503 C64 1.328 . S
C505 C327 1.302 . S
C514 C78 1.325 . S
C516 C330 1.301 1_655 S
C525 C45 1.643 . S
C527 C239 1.625 . S
C536 C177 1.742 . S
C538 C231 1.715 . S
C549 C200 1.469 . S
C547 C189 1.468 1_565 S
C560 C205 1.588 . S
C558 C102 1.624 . S
C569 C57 1.696 . S
C571 C252 1.683 . S
C582 C291 1.475 . S
C580 C138 1.510 . S
C593 C244 1.731 . S
C591 C114 1.737 . S
C604 C270 1.627 . S
C602 C153 1.665 . S
C615 C280 1.636 . S
C613 C174 1.667 . S
C624 C184 1.323 . S
C626 C293 1.317 . S
C635 C105 1.769 . S
C637 C254 1.718 . S
C648 C267 1.482 . S
C646 C162 1.507 . S
C657 C42 1.518 . S
C659 C223 1.502 . S
C670 C236 1.693 . S
C668 C6 1.717 . S
C681 C197 1.264 . S
C679 C16 1.282 . S
C692 C210 1.717 . S
C690 C33 1.747 1_455 S
C701 C21 1.299 . S
C703 C319 1.284 . S
C712 C28 1.384 . S
C714 C304 1.372 1_655 S
C723 C40 1.491 . S
C725 C314 1.468 . S
C734 C4 1.336 . S
C736 C296 1.333 . S
C747 C345 1.364 . S
C745 C100 1.369 . S
C758 C335 1.540 . S
C756 C160 1.562 . S
C769 C340 1.307 . S
C767 C172 1.324 . S
C778 C186 1.305 1_554 S
C780 C343 1.302 . S
C789 C129 1.646 . S
C791 C265 1.625 . S
C802 C257 1.717 . S
C800 C69 1.743 . S
C813 C278 1.468 . S
C811 C81 1.471 . S
C824 C283 1.588 . S
C822 C90 1.624 . S
C833 C165 1.697 . S
C835 C226 1.681 . S
C846 C213 1.472 . S
C844 C18 1.510 . S
C855 C30 1.735 . S
C857 C218 1.730 . S
C868 C192 1.629 . S
C866 C9 1.665 1_565 S
