# Generated by pormake.
# Topology rtl, (3,6)-cn, num edge types: 1
# Building blocks:
#     Node 0, Type 0, BuildingBlock: KAKCAD_clean_linker_0, # of connection points: 3
#     Node 1, Type 0, BuildingBlock: KAKCAD_clean_linker_0, # of connection points: 3
#     Node 2, Type 0, BuildingBlock: KAKCAD_clean_linker_0, # of connection points: 3
#     Node 3, Type 0, BuildingBlock: KAKCAD_clean_linker_0, # of connection points: 3
#     Node 4, Type 1, BuildingBlock: KUMBOL_clean_sbu_1, # of connection points: 6
#     Node 5, Type 1, BuildingBlock: KUMBOL_clean_sbu_1, # of connection points: 6
#     Edge 6, Type (0, 1), BuildingBlock: XIVTED_clean_linker_0, # of connection points: 2
#     Edge 7, Type (0, 1), BuildingBlock: XIVTED_clean_linker_0, # of connection points: 2
#     Edge 8, Type (0, 1), BuildingBlock: XIVTED_clean_linker_0, # of connection points: 2
#     Edge 9, Type (0, 1), BuildingBlock: XIVTED_clean_linker_0, # of connection points: 2
#     Edge 10, Type (0, 1), BuildingBlock: XIVTED_clean_linker_0, # of connection points: 2
#     Edge 11, Type (0, 1), BuildingBlock: XIVTED_clean_linker_0, # of connection points: 2
#     Edge 12, Type (0, 1), BuildingBlock: XIVTED_clean_linker_0, # of connection points: 2
#     Edge 13, Type (0, 1), BuildingBlock: XIVTED_clean_linker_0, # of connection points: 2
#     Edge 14, Type (0, 1), BuildingBlock: XIVTED_clean_linker_0, # of connection points: 2
#     Edge 15, Type (0, 1), BuildingBlock: XIVTED_clean_linker_0, # of connection points: 2
#     Edge 16, Type (0, 1), BuildingBlock: XIVTED_clean_linker_0, # of connection points: 2
#     Edge 17, Type (0, 1), BuildingBlock: XIVTED_clean_linker_0, # of connection points: 2
# Relax obj value: 0.018
# Max RMSD: 0.097
# Mean RMSD: 0.059
data_MOF--net-rtl--node1-KUMBOL_clean_sbu_1--node2-KAKCAD_clean_linker_0--edge1-XIVTED_clean_linker_0
_symmetry_space_group_name_H-M    P1
_symmetry_Int_Tables_number       1
_symmetry_cell_setting            triclinic
loop_
_symmetry_equiv_pos_as_xyz
'x, y, z'
_cell_length_a     40.069172
_cell_length_b     40.668981
_cell_length_c     35.417862
_cell_angle_alpha  80.21767
_cell_angle_beta   99.665248
_cell_angle_gamma 90.283773
loop_
_atom_site_label
_atom_site_type_symbol
_atom_site_fract_x
_atom_site_fract_y
_atom_site_fract_z
_atom_type_partial_charge
C0 C 0.19289 0.8917 0.87585 0.0
C1 C 0.17835 0.924 0.86494 0.0
C2 C 0.21097 0.88113 0.9131 0.0
C3 C 0.21582 0.90273 0.94053 0.0
C4 C 0.20212 0.93544 0.92942 0.0
C5 C 0.18353 0.94594 0.89206 0.0
C6 C 0.23388 0.89018 0.98081 0.0
C7 C 0.26057 0.86661 0.98695 0.0
C8 C 0.27389 0.84949 0.02437 0.0
C9 C 0.26233 0.85894 0.05649 0.0
C10 C 0.23729 0.88431 0.05124 0.0
C11 C 0.22279 0.89928 0.01325 0.0
C12 C 0.22532 0.89453 0.08522 0.0
C13 C 0.22009 0.87067 0.11724 0.0
C14 C 0.2187 0.92839 0.08564 0.0
C15 C 0.20712 0.93815 0.11725 0.0
C16 C 0.20181 0.9143 0.14928 0.0
C17 C 0.29799 0.82048 0.02904 0.0
C18 C 0.29536 0.80034 0.99997 0.0
C19 C 0.32305 0.81191 0.06241 0.0
C20 C 0.3446 0.78397 0.06648 0.0
C21 C 0.34182 0.76454 0.03701 0.0
C22 C 0.31726 0.77304 0.00373 0.0
C23 C 0.20844 0.88042 0.14883 0.0
H24 H 0.19021 0.87428 0.85563 0.0
H25 H 0.22047 0.85557 0.92055 0.0
H26 H 0.20559 0.95291 0.9496 0.0
H27 H 0.17261 0.97098 0.8848 0.0
H28 H 0.27052 0.86104 0.9621 0.0
H29 H 0.20185 0.917 0.00902 0.0
H30 H 0.27242 0.84634 0.08559 0.0
H31 H 0.22433 0.84433 0.1176 0.0
H32 H 0.22287 0.94746 0.06166 0.0
H33 H 0.20276 0.96449 0.11675 0.0
H34 H 0.27585 0.80505 0.97444 0.0
H35 H 0.32621 0.82675 0.08533 0.0
H36 H 0.20399 0.86126 0.17257 0.0
H37 H 0.3145 0.75801 0.98093 0.0
H38 H 0.3634 0.77754 0.09253 0.0
C39 C 0.61268 0.70185 0.73368 0.0
C40 C 0.60537 0.66775 0.73957 0.0
C41 C 0.62471 0.7166 0.69995 0.0
C42 C 0.62991 0.69732 0.67189 0.0
C43 C 0.62343 0.66297 0.67868 0.0
C44 C 0.61102 0.64843 0.71197 0.0
C45 C 0.64115 0.7127 0.63506 0.0
C46 C 0.66696 0.73635 0.63476 0.0
C47 C 0.67868 0.7492 0.59999 0.0
C48 C 0.66383 0.73833 0.56543 0.0
C49 C 0.63801 0.71482 0.56508 0.0
C50 C 0.6266 0.70258 0.60001 0.0
C51 C 0.62393 0.70227 0.52851 0.0
C52 C 0.62072 0.72351 0.49224 0.0
C53 C 0.61488 0.66861 0.5293 0.0
C54 C 0.60367 0.65649 0.49473 0.0
C55 C 0.60189 0.67761 0.45873 0.0
C56 C 0.70724 0.77294 0.59935 0.0
C57 C 0.71045 0.79871 0.62168 0.0
C58 C 0.73123 0.77039 0.57513 0.0
C59 C 0.75664 0.79367 0.57183 0.0
C60 C 0.75924 0.82004 0.59302 0.0
C61 C 0.73632 0.82197 0.61866 0.0
C62 C 0.61024 0.71121 0.45778 0.0
H63 H 0.60843 0.71715 0.75473 0.0
H64 H 0.62922 0.74315 0.69545 0.0
H65 H 0.62794 0.64721 0.65819 0.0
H66 H 0.60603 0.62196 0.71633 0.0
H67 H 0.67884 0.74365 0.66179 0.0
H68 H 0.60601 0.68522 0.59994 0.0
H69 H 0.67286 0.74791 0.53864 0.0
H70 H 0.62658 0.74969 0.49029 0.0
H71 H 0.6175 0.65128 0.55651 0.0
H72 H 0.59769 0.63035 0.49605 0.0
H73 H 0.69245 0.80149 0.64063 0.0
H74 H 0.73046 0.75029 0.55851 0.0
H75 H 0.6089 0.72792 0.43024 0.0
H76 H 0.73778 0.84198 0.63548 0.0
H77 H 0.77445 0.79088 0.55265 0.0
C78 C 0.79523 0.08542 0.18835 0.0
C79 C 0.83046 0.07956 0.19525 0.0
C80 C 0.77805 0.09726 0.15077 0.0
C81 C 0.79574 0.10363 0.11931 0.0
C82 C 0.83089 0.09715 0.12618 0.0
C83 C 0.84802 0.08517 0.16368 0.0
C84 C 0.77787 0.11782 0.07962 0.0
C85 C 0.75333 0.14346 0.07414 0.0
C86 C 0.73687 0.15783 0.03665 0.0
C87 C 0.74639 0.1467 0.00428 0.0
C88 C 0.77149 0.1214 0.00919 0.0
C89 C 0.78631 0.10665 0.04706 0.0
C90 C 0.78318 0.11085 0.97512 0.0
C91 C 0.76058 0.11014 0.94023 0.0
C92 C 0.81741 0.10158 0.9772 0.0
C93 C 0.8286 0.09161 0.94553 0.0
C94 C 0.80603 0.09143 0.91083 0.0
C95 C 0.71094 0.18529 0.03187 0.0
C96 C 0.69038 0.18596 0.06035 0.0
C97 C 0.70761 0.21195 1.0002 0.0
C98 C 0.68566 0.23916 0.99824 0.0
C99 C 0.66701 0.24059 0.02818 0.0
C100 C 0.66906 0.21339 0.05877 0.0
C101 C 0.77202 0.10086 0.90826 0.0
H102 H 0.78095 0.08091 0.21205 0.0
H103 H 0.75089 0.10146 0.14636 0.0
H104 H 0.84539 0.10225 0.10272 0.0
H105 H 0.87523 0.08137 0.16815 0.0
H106 H 0.74798 0.15302 0.09928 0.0
H107 H 0.8045 0.08617 0.05138 0.0
H108 H 0.73458 0.158 0.97526 0.0
H109 H 0.73401 0.11657 0.93758 0.0
H110 H 0.83587 0.10263 0.00304 0.0
H111 H 0.8551 0.08494 0.94776 0.0
H112 H 0.6911 0.1655 0.08444 0.0
H113 H 0.72297 0.21268 0.97771 0.0
H114 H 0.75432 0.10098 0.88151 0.0
H115 H 0.65445 0.21352 0.08186 0.0
H116 H 0.68457 0.25982 0.97428 0.0
C117 C 0.37144 0.32891 0.32139 0.0
C118 C 0.40541 0.3384 0.32344 0.0
C119 C 0.3594 0.31348 0.3548 0.0
C120 C 0.38115 0.30701 0.39094 0.0
C121 C 0.41544 0.3153 0.39254 0.0
C122 C 0.42736 0.33092 0.35927 0.0
C123 C 0.36804 0.29314 0.42721 0.0
C124 C 0.34394 0.26782 0.42766 0.0
C125 C 0.33141 0.25511 0.46196 0.0
C126 C 0.34348 0.26807 0.496 0.0
C127 C 0.36771 0.29313 0.49629 0.0
C128 C 0.37952 0.30568 0.46163 0.0
C129 C 0.38075 0.30611 0.53279 0.0
C130 C 0.35908 0.31045 0.55914 0.0
C131 C 0.4151 0.31414 0.54169 0.0
C132 C 0.42734 0.32647 0.57579 0.0
C133 C 0.40561 0.33057 0.60183 0.0
C134 C 0.30543 0.22867 0.46263 0.0
C135 C 0.27888 0.22867 0.43102 0.0
C136 C 0.30596 0.20417 0.49598 0.0
C137 C 0.2797 0.18171 0.49867 0.0
C138 C 0.25237 0.18279 0.46791 0.0
C139 C 0.2527 0.20583 0.43358 0.0
C140 C 0.37146 0.32246 0.59341 0.0
H141 H 0.35385 0.33453 0.29423 0.0
H142 H 0.3328 0.30771 0.35256 0.0
H143 H 0.4331 0.30997 0.41966 0.0
H144 H 0.45381 0.33734 0.36165 0.0
H145 H 0.33551 0.25752 0.40151 0.0
H146 H 0.39716 0.32597 0.4612 0.0
H147 H 0.33397 0.25862 0.52252 0.0
H148 H 0.3324 0.30516 0.55301 0.0
H149 H 0.43265 0.3107 0.52245 0.0
H150 H 0.45375 0.33289 0.5818 0.0
H151 H 0.27748 0.24719 0.40492 0.0
H152 H 0.32647 0.20258 0.52044 0.0
H153 H 0.35425 0.32598 0.61302 0.0
H154 H 0.23193 0.20729 0.40941 0.0
H155 H 0.28054 0.16374 0.52519 0.0
C156 C 0.95015 0.10821 0.50292 0.0
C157 C 0.89029 0.09945 0.48212 0.0
C158 C 0.9227 0.08699 0.50092 0.0
C159 C 0.88593 0.13321 0.46479 0.0
C160 C 0.94581 0.14208 0.48538 0.0
C161 C 0.91363 0.15439 0.4662 0.0
N162 N 0.98095 0.09583 0.52227 0.0
C163 C 0.00813 0.1161 0.5261 0.0
C164 C 0.97389 0.1627 0.488 0.0
C165 C 0.00515 0.14967 0.50857 0.0
Gd166 Gd 0.02544 0.96804 0.5087 0.0
Gd167 Gd 0.98182 0.03978 0.55192 0.0
N168 N 0.92787 0.05403 0.51647 0.0
C169 C 0.86324 0.07752 0.48108 0.0
C170 C 0.90146 0.03285 0.51673 0.0
C171 C 0.86883 0.04413 0.4987 0.0
H172 H 0.90525 0.00755 0.53171 0.0
H173 H 0.84792 0.02718 0.49885 0.0
H174 H 0.10245 1.00002 0.5276 0.0
H175 H 0.03187 0.10683 0.54368 0.0
H176 H 0.1593 0.98136 0.56311 0.0
H177 H 0.83792 0.08617 0.4671 0.0
H178 H 0.86123 0.14317 0.45008 0.0
H179 H 0.97601 0.90093 0.51798 0.0
H180 H 0.9716 0.18883 0.4748 0.0
H181 H 0.02681 0.16561 0.51154 0.0
H182 H 0.14578 0.86626 0.61584 0.0
H183 H 0.90983 0.18035 0.45261 0.0
H184 H 0.03613 0.81955 0.58878 0.0
H185 H 0.98116 0.84228 0.5508 0.0
N186 N 0.02692 0.9121 0.53931 0.0
C187 C 0.05749 0.90002 0.55958 0.0
C188 C 0.99978 0.89175 0.53569 0.0
C189 C 0.03385 0.84556 0.57507 0.0
C190 C 0.00275 0.85831 0.55375 0.0
C191 C 0.06178 0.86636 0.57798 0.0
H192 H 0.09751 0.82865 0.61257 0.0
N193 N 0.07971 0.95383 0.54408 0.0
C194 C 0.08473 0.92137 0.56171 0.0
C195 C 0.14385 0.93144 0.58275 0.0
C196 C 0.11689 0.90941 0.58191 0.0
C197 C 0.10608 0.97507 0.54369 0.0
C198 C 0.13845 0.96435 0.56335 0.0
O199 O 0.97071 0.04288 0.48611 0.0
O200 O 0.97493 0.98867 0.47655 0.0
O201 O 0.05256 0.97705 0.45833 0.0
O202 O 0.02271 0.93235 0.47032 0.0
O203 O 0.96754 0.98583 0.56858 0.0
O204 O 0.97076 0.96117 0.51539 0.0
O205 O 0.0358 0.9656 0.5745 0.0
O206 O 0.03253 0.02001 0.585 0.0
O207 O 0.9548 0.02914 0.60152 0.0
O208 O 0.97834 0.07693 0.58783 0.0
O209 O 0.04047 0.02182 0.49261 0.0
O210 O 0.03652 0.04718 0.54534 0.0
C211 C 0.96661 0.02014 0.46345 0.0
C212 C 0.95734 0.96382 0.54622 0.0
C213 C 0.0478 0.93664 0.41266 0.0
C214 C 0.07851 0.9358 0.35881 0.0
C215 C 0.0307 0.89982 0.3658 0.0
C216 C 0.02629 0.91222 0.39893 0.0
C217 C 0.05658 0.91153 0.34583 0.0
C218 C 0.07418 0.94853 0.39238 0.0
C219 C 0.04153 0.94917 0.44775 0.0
C220 C 0.12123 0.87589 0.60024 0.0
C221 C 0.09374 0.85446 0.59836 0.0
H222 H 0.169 0.92317 0.59778 0.0
C223 C 0.04244 0.98863 0.59664 0.0
C224 C 0.0504 0.044 0.5149 0.0
C225 C 0.96316 0.06428 0.65066 0.0
C226 C 0.93548 0.06784 0.70619 0.0
C227 C 0.99061 0.09198 0.70282 0.0
C228 C 0.99078 0.08151 0.66734 0.0
C229 C 0.96308 0.08534 0.72207 0.0
C230 C 0.93554 0.0572 0.67048 0.0
C231 C 0.96005 0.0589 0.61012 0.0
H232 H 0.01399 0.88104 0.35557 0.0
H233 H 0.00574 0.90272 0.41369 0.0
H234 H 0.05971 0.90142 0.32018 0.0
H235 H 0.09111 0.96725 0.40255 0.0
H236 H 0.01155 0.10596 0.71503 0.0
H237 H 0.01196 0.08792 0.65234 0.0
H238 H 0.96299 0.09442 0.74911 0.0
H239 H 0.91361 0.04487 0.6574 0.0
C240 C 0.61292 0.5435 0.0478 0.0
C241 C 0.60871 0.60346 0.02538 0.0
C242 C 0.594 0.57328 0.03964 0.0
C243 C 0.64236 0.60328 0.01897 0.0
C244 C 0.64686 0.54338 0.04178 0.0
C245 C 0.66135 0.57334 0.0271 0.0
N246 N 0.59819 0.51474 0.06165 0.0
C247 C 0.61666 0.48556 0.07251 0.0
C248 C 0.66537 0.51316 0.05105 0.0
C249 C 0.65028 0.48419 0.06682 0.0
Gd250 Gd 0.46838 0.48625 0.99173 0.0
Gd251 Gd 0.54191 0.52038 0.07055 0.0
N252 N 0.56119 0.57269 0.0453 0.0
C253 C 0.58918 0.633 0.01816 0.0
C254 C 0.54261 0.60155 0.03999 0.0
C255 C 0.55611 0.63207 0.02588 0.0
H256 H 0.51784 0.60125 0.04785 0.0
H257 H 0.54115 0.65491 0.02148 0.0
H258 H 0.48983 0.40573 0.00817 0.0
H259 H 0.60592 0.46341 0.08647 0.0
H260 H 0.46488 0.35136 0.02963 0.0
H261 H 0.59959 0.65669 0.00731 0.0
H262 H 0.654 0.62622 0.0079 0.0
H263 H 0.40461 0.54433 0.97789 0.0
H264 H 0.69149 0.51204 0.04685 0.0
H265 H 0.66468 0.46088 0.07509 0.0
H266 H 0.35358 0.38068 0.04803 0.0
H267 H 0.68735 0.57367 0.02222 0.0
H268 H 0.31865 0.4957 0.0157 0.0
H269 H 0.3461 0.54688 0.98889 0.0
N270 N 0.41268 0.49283 0.00325 0.0
C271 C 0.39739 0.46402 0.01595 0.0
C272 C 0.39418 0.52211 0.99225 0.0
C273 C 0.34499 0.49457 0.01238 0.0
C274 C 0.36044 0.52354 0.99741 0.0
C275 C 0.3632 0.46422 0.02113 0.0
H276 H 0.32167 0.43382 0.03761 0.0
N277 N 0.44759 0.43416 0.01459 0.0
C278 C 0.41517 0.43386 0.02131 0.0
C279 C 0.41791 0.37353 0.03626 0.0
C280 C 0.39952 0.40344 0.03258 0.0
C281 C 0.46494 0.40507 0.01592 0.0
C282 C 0.4507 0.37436 0.02763 0.0
O283 O 0.54793 0.52891 0.00659 0.0
O284 O 0.49343 0.53429 0.97236 0.0
O285 O 0.4781 0.46381 0.94126 0.0
O286 O 0.43086 0.49056 0.94074 0.0
O287 O 0.49051 0.54581 0.06121 0.0
O288 O 0.46337 0.54041 0.99911 0.0
O289 O 0.47708 0.45866 0.05402 0.0
O290 O 0.49275 0.5008 0.08793 0.0
O291 O 0.55123 0.5519 0.11516 0.0
O292 O 0.56817 0.49933 0.1285 0.0
O293 O 0.52275 0.46823 1.00001 0.0
O294 O 0.5451 0.46569 0.06496 0.0
C295 C 0.52605 0.53916 0.97451 0.0
C296 C 0.46727 0.55478 0.03022 0.0
C297 C 0.43306 0.46824 0.88281 0.0
C298 C 0.43219 0.44265 0.82514 0.0
C299 C 0.38523 0.47836 0.82957 0.0
C300 C 0.4013 0.48348 0.86593 0.0
C301 C 0.40051 0.45809 0.80929 0.0
C302 C 0.44857 0.44748 0.86222 0.0
C303 C 0.44799 0.47356 0.92241 0.0
C304 C 0.36597 0.40377 0.03918 0.0
C305 C 0.34784 0.43406 0.03338 0.0
H306 H 0.40683 0.34969 0.04508 0.0
C307 C 0.48137 0.47068 0.08656 0.0
C308 C 0.54112 0.45298 0.03256 0.0
C309 C 0.57988 0.53158 0.18141 0.0
C310 C 0.58279 0.56091 0.23671 0.0
C311 C 0.6146 0.50903 0.2434 0.0
C312 C 0.60228 0.50693 0.20473 0.0
C313 C 0.60481 0.53569 0.25935 0.0
C314 C 0.57031 0.55901 0.19748 0.0
C315 C 0.56605 0.52752 0.14108 0.0
H316 H 0.36079 0.49014 0.81705 0.0
H317 H 0.38854 0.49939 0.88092 0.0
H318 H 0.38753 0.45443 0.78094 0.0
H319 H 0.47289 0.43534 0.87472 0.0
H320 H 0.63178 0.48984 0.26114 0.0
H321 H 0.61023 0.48585 0.19311 0.0
H322 H 0.61471 0.53683 0.28951 0.0
H323 H 0.55322 0.57842 0.17991 0.0
H324 H 0.21604 0.14634 0.41662 0.0
H325 H 0.08861 0.08053 0.56329 0.0
H326 H 0.22066 0.1715 0.53089 0.0
H327 H 0.07997 0.05382 0.44922 0.0
H328 H 0.1373 0.11388 0.55088 0.0
H329 H 0.16652 0.11212 0.42691 0.0
C330 C 0.20661 0.1447 0.44379 0.0
C331 C 0.22264 0.16158 0.47308 0.0
C332 C 0.12475 0.10089 0.5284 0.0
C333 C 0.16619 0.12273 0.48497 0.0
C334 C 0.0967 0.08197 0.53539 0.0
C335 C 0.07973 0.06479 0.50701 0.0
C336 C 0.13629 0.10261 0.4928 0.0
C337 C 0.09211 0.06691 0.47182 0.0
C338 C 0.17846 0.12513 0.44969 0.0
C339 C 0.20952 0.15847 0.50779 0.0
N340 N 0.11964 0.08553 0.46566 0.0
N341 N 0.18213 0.13952 0.5127 0.0
H342 H 0.33164 0.7026 0.07496 0.0
H343 H 0.47352 0.61593 0.98738 0.0
H344 H 0.39872 0.75802 0.00603 0.0
H345 H 0.417 0.56265 0.07063 0.0
H346 H 0.44547 0.66821 0.99224 0.0
H347 H 0.36205 0.65086 0.07314 0.0
C348 C 0.3533 0.70378 0.06016 0.0
C349 C 0.36311 0.73433 0.04101 0.0
C350 C 0.43891 0.64508 0.00918 0.0
C351 C 0.3975 0.67555 0.03797 0.0
C352 C 0.45472 0.61533 0.00619 0.0
C353 C 0.44748 0.58531 0.02884 0.0
C354 C 0.415 0.64449 0.03414 0.0
C355 C 0.42327 0.58554 0.05298 0.0
C356 C 0.37049 0.67434 0.05885 0.0
C357 C 0.39073 0.73478 0.0214 0.0
N358 N 0.40771 0.61469 0.05488 0.0
N359 N 0.40696 0.70576 0.02026 0.0
H360 H 0.80178 0.84751 0.64853 0.0
H361 H 0.91617 0.93142 0.49576 0.0
H362 H 0.77709 0.85011 0.52469 0.0
H363 H 0.93043 0.95051 0.61355 0.0
H364 H 0.86629 0.89948 0.50752 0.0
H365 H 0.8493 0.88449 0.63793 0.0
C366 C 0.80609 0.85616 0.61913 0.0
C367 C 0.78579 0.84526 0.58749 0.0
C368 C 0.88027 0.91061 0.53088 0.0
C369 C 0.84013 0.88708 0.57524 0.0
C370 C 0.90898 0.92865 0.52426 0.0
C371 C 0.92772 0.9434 0.55384 0.0
C372 C 0.87021 0.90695 0.56747 0.0
C373 C 0.91677 0.93943 0.58998 0.0
C374 C 0.83328 0.8771 0.61312 0.0
C375 C 0.79257 0.85719 0.55003 0.0
N376 N 0.8888 0.9214 0.59589 0.0
N377 N 0.81925 0.87716 0.54501 0.0
H378 H 0.66804 0.27356 0.08915 0.0
H379 H 0.54251 0.42181 0.97008 0.0
H380 H 0.62173 0.27751 0.96936 0.0
H381 H 0.57952 0.41083 0.09343 0.0
H382 H 0.57147 0.36953 0.96896 0.0
H383 H 0.63671 0.32453 0.09071 0.0
C384 C 0.65094 0.28501 0.06327 0.0
C385 C 0.64732 0.27119 0.02914 0.0
C386 C 0.57347 0.37866 0.99623 0.0
C387 C 0.61143 0.32976 0.03062 0.0
C388 C 0.55697 0.40863 0.99695 0.0
C389 C 0.55895 0.42121 0.03185 0.0
C390 C 0.59259 0.3612 0.03054 0.0
C391 C 0.57774 0.4026 0.0657 0.0
C392 C 0.63315 0.31419 0.06413 0.0
C393 C 0.62538 0.28745 0.9962 0.0
N394 N 0.59399 0.37369 0.06413 0.0
N395 N 0.60821 0.31587 0.99778 0.0
H396 H 0.15476 0.96375 0.14802 0.0
H397 H 0.14253 0.91007 0.3723 0.0
H398 H 0.21936 0.88845 0.22707 0.0
H399 H 0.07463 0.98155 0.29266 0.0
H400 H 0.17853 0.91069 0.32274 0.0
H401 H 0.13198 0.9782 0.20295 0.0
C402 C 0.16451 0.95049 0.17693 0.0
C403 C 0.1889 0.92459 0.18273 0.0
C404 C 0.15631 0.92702 0.31638 0.0
C405 C 0.16246 0.94083 0.2459 0.0
C406 C 0.1361 0.92704 0.34492 0.0
C407 C 0.10588 0.94604 0.33653 0.0
C408 C 0.1459 0.94584 0.27911 0.0
C409 C 0.09801 0.96688 0.30026 0.0
C410 C 0.15134 0.9587 0.20833 0.0
C411 C 0.20012 0.90809 0.22096 0.0
N412 N 0.11761 0.96585 0.27262 0.0
N413 N 0.18664 0.91631 0.25096 0.0
H414 H 0.54451 0.63836 0.74218 0.0
H415 H 0.59087 0.55834 0.96645 0.0
H416 H 0.63614 0.66035 0.81536 0.0
H417 H 0.48874 0.5631 0.90284 0.0
H418 H 0.60908 0.59247 0.91044 0.0
H419 H 0.52437 0.60776 0.79964 0.0
C420 C 0.56021 0.63686 0.77052 0.0
C421 C 0.59188 0.65185 0.77435 0.0
C422 C 0.58264 0.58622 0.90886 0.0
C423 C 0.56955 0.61647 0.83984 0.0
C424 C 0.57214 0.5669 0.94105 0.0
C425 C 0.53801 0.5586 0.94008 0.0
C426 C 0.55904 0.59657 0.87486 0.0
C427 C 0.51524 0.56928 0.90535 0.0
C428 C 0.54878 0.61945 0.80322 0.0
C429 C 0.61144 0.64928 0.81146 0.0
N430 N 0.52619 0.58757 0.87412 0.0
N431 N 0.6001 0.63162 0.8428 0.0
H432 H 0.82233 0.1039 0.26057 0.0
H433 H 0.9656 0.98578 0.40342 0.0
H434 H 0.88144 0.03214 0.22124 0.0
H435 H 0.92552 0.07524 0.43105 0.0
H436 H 0.93217 0.99912 0.33803 0.0
H437 H 0.85557 0.08917 0.32575 0.0
C438 C 0.84209 0.08479 0.26575 0.0
C439 C 0.84917 0.06928 0.2354 0.0
C440 C 0.93044 0.01563 0.35864 0.0
C441 C 0.8876 0.05256 0.30987 0.0
C442 C 0.94944 0.00802 0.396 0.0
C443 C 0.94762 0.02897 0.42334 0.0
C444 C 0.90899 0.04407 0.34877 0.0
C445 C 0.927 0.05787 0.41166 0.0
C446 C 0.86127 0.07662 0.30288 0.0
C447 C 0.87539 0.04498 0.24371 0.0
N448 N 0.90818 0.06436 0.37548 0.0
N449 N 0.89365 0.03734 0.28018 0.0
H450 H 0.41163 0.39611 0.60573 0.0
H451 H 0.43517 0.3746 0.83303 0.0
H452 H 0.42709 0.29841 0.67624 0.0
H453 H 0.45839 0.465 0.76053 0.0
H454 H 0.4365 0.34427 0.77884 0.0
H455 H 0.42978 0.42113 0.66373 0.0
C456 C 0.41932 0.38002 0.63354 0.0
C457 C 0.41803 0.34536 0.63657 0.0
C458 C 0.44241 0.37051 0.77522 0.0
C459 C 0.43888 0.37348 0.70297 0.0
C460 C 0.44212 0.38767 0.80628 0.0
C461 C 0.4468 0.42224 0.80105 0.0
C462 C 0.44667 0.3884 0.73877 0.0
C463 C 0.45489 0.43828 0.76563 0.0
C464 C 0.42984 0.39419 0.66658 0.0
C465 C 0.42778 0.32534 0.67311 0.0
N466 N 0.4538 0.42142 0.73555 0.0
N467 N 0.43758 0.33971 0.70513 0.0
H468 H 0.54314 0.64926 0.42875 0.0
H469 H 0.61898 0.61658 0.24262 0.0
H470 H 0.64281 0.67602 0.40563 0.0
H471 H 0.53097 0.5667 0.27664 0.0
H472 H 0.61946 0.65029 0.29364 0.0
H473 H 0.53128 0.62826 0.36657 0.0
C474 C 0.56246 0.65058 0.41054 0.0
C475 C 0.59394 0.66434 0.42199 0.0
C476 C 0.59946 0.6326 0.2894 0.0
C477 C 0.5807 0.64075 0.35135 0.0
C478 C 0.59888 0.6138 0.25984 0.0
C479 C 0.57484 0.58904 0.25543 0.0
C480 C 0.57597 0.6264 0.31497 0.0
C481 C 0.54977 0.58578 0.27908 0.0
C482 C 0.55568 0.63881 0.37512 0.0
C483 C 0.61813 0.66585 0.3975 0.0
N484 N 0.55125 0.6039 0.30832 0.0
N485 N 0.61107 0.65408 0.36348 0.0
H486 H 0.82863 0.03117 0.89944 0.0
H487 H 0.88238 0.111 0.69644 0.0
H488 H 0.81232 0.13423 0.84523 0.0
H489 H 0.92347 0.01718 0.76307 0.0
H490 H 0.84382 0.11327 0.74278 0.0
H491 H 0.85234 0.01998 0.8429 0.0
C492 C 0.82993 0.0513 0.87543 0.0
C493 C 0.81856 0.08359 0.87654 0.0
C494 C 0.8607 0.09178 0.74686 0.0
C495 C 0.84552 0.07123 0.81246 0.0
C496 C 0.88236 0.09033 0.72019 0.0
C497 C 0.90593 0.06388 0.72618 0.0
C498 C 0.8629 0.06671 0.77985 0.0
C499 C 0.90546 0.0379 0.75761 0.0
C500 C 0.84334 0.04496 0.8433 0.0
C501 C 0.82056 0.10895 0.84501 0.0
N502 N 0.88456 0.04013 0.7837 0.0
N503 N 0.83402 0.10229 0.81435 0.0
H504 H 0.44448 0.39374 0.32001 0.0
H505 H 0.45274 0.40894 0.0938 0.0
H506 H 0.39405 0.32656 0.24818 0.0
H507 H 0.48848 0.48493 0.16087 0.0
H508 H 0.43359 0.37708 0.15032 0.0
H509 H 0.46387 0.42548 0.26303 0.0
C510 C 0.4377 0.38551 0.29225 0.0
C511 C 0.41767 0.35739 0.28888 0.0
C512 C 0.4455 0.40077 0.15274 0.0
C513 C 0.43969 0.39381 0.22332 0.0
C514 C 0.45616 0.41926 0.12015 0.0
C515 C 0.47121 0.45036 0.1218 0.0
C516 C 0.45076 0.41291 0.18798 0.0
C517 C 0.47639 0.46145 0.15777 0.0
C518 C 0.44862 0.40378 0.25967 0.0
C519 C 0.40922 0.34822 0.25204 0.0
N520 N 0.46625 0.44274 0.18939 0.0
N521 N 0.42036 0.3663 0.22074 0.0
H522 H 0.13491 0.88554 0.82345 0.0
H523 H 0.07284 0.03065 0.64394 0.0
H524 H 0.17317 0.98549 0.81675 0.0
H525 H 0.0596 0.92598 0.63859 0.0
H526 H 0.10548 0.01556 0.7093 0.0
H527 H 0.10293 0.90106 0.75806 0.0
C528 C 0.13688 0.91072 0.80821 0.0
C529 C 0.15735 0.93405 0.82568 0.0
C530 C 0.09556 0.99591 0.69376 0.0
C531 C 0.11983 0.95221 0.75071 0.0
C532 C 0.07682 0.00446 0.65643 0.0
C533 C 0.06337 0.97952 0.63567 0.0
C534 C 0.10066 0.96217 0.71073 0.0
C535 C 0.06955 0.94604 0.65339 0.0
C536 C 0.11839 0.91958 0.77085 0.0
C537 C 0.15771 0.96664 0.80472 0.0
N538 N 0.08759 0.93836 0.68998 0.0
N539 N 0.13926 0.97473 0.76834 0.0
loop_
_geom_bond_atom_site_label_1
_geom_bond_atom_site_label_2
_geom_bond_distance
_geom_bond_site_symmetry_2
_ccdc_geom_bond_type
C0 C1 1.386 . S
C0 C2 1.397 . S
C0 H24 0.931 . S
C1 C0 1.386 . S
C1 C5 1.397 . S
C2 C0 1.397 . S
C2 C3 1.384 . S
C2 H25 0.930 . S
C3 C2 1.384 . S
C3 C4 1.377 . S
C3 C6 1.481 . S
C4 C3 1.377 . S
C4 C5 1.389 . S
C4 H26 0.929 . S
C5 C1 1.397 . S
C5 C4 1.389 . S
C5 H27 0.931 . S
C6 C3 1.481 . S
C6 C7 1.387 . S
C6 C11 1.390 1_556 S
C7 C6 1.387 . S
C7 C8 1.401 1_556 S
C7 H28 0.930 . S
C8 C7 1.401 1_554 S
C8 C9 1.376 . S
C8 C17 1.511 . S
C9 C8 1.376 . S
C9 C10 1.392 . S
C9 H30 0.931 . S
C10 C9 1.392 . S
C10 C11 1.361 . S
C10 C12 1.500 . S
C11 C6 1.390 1_554 S
C11 C10 1.361 . S
C11 H29 0.931 . S
C12 C10 1.500 . S
C12 C13 1.371 . S
C12 C14 1.365 . S
C13 C12 1.371 . S
C13 C23 1.386 . S
C13 H31 0.931 . S
C14 C12 1.365 . S
C14 C15 1.409 . S
C14 H32 0.929 . S
C15 C14 1.409 . S
C15 C16 1.380 . S
C15 H33 0.930 . S
C16 C15 1.380 . S
C16 C23 1.357 . S
C17 C8 1.511 . S
C17 C18 1.341 1_554 S
C17 C19 1.371 . S
C18 C17 1.341 1_556 S
C18 C22 1.394 1_556 S
C18 H34 0.930 . S
C19 C17 1.371 . S
C19 C20 1.392 . S
C19 H35 0.931 . S
C20 C19 1.392 . S
C20 C21 1.331 . S
C20 H38 0.932 . S
C21 C20 1.331 . S
C21 C22 1.336 . S
C22 C18 1.394 1_554 S
C22 C21 1.336 . S
C22 H37 0.929 1_554 S
C23 C13 1.386 . S
C23 C16 1.357 . S
C23 H36 0.928 . S
H24 C0 0.931 . S
H25 C2 0.930 . S
H26 C4 0.929 . S
H27 C5 0.931 . S
H28 C7 0.930 . S
H29 C11 0.931 . S
H30 C9 0.931 . S
H31 C13 0.931 . S
H32 C14 0.929 . S
H33 C15 0.930 . S
H34 C18 0.930 . S
H35 C19 0.931 . S
H36 C23 0.928 . S
H37 C22 0.929 1_556 S
H38 C20 0.932 . S
C39 C40 1.386 . S
C39 C41 1.397 . S
C39 H63 0.931 . S
C40 C39 1.386 . S
C40 C44 1.397 . S
C41 C39 1.397 . S
C41 C42 1.384 . S
C41 H64 0.930 . S
C42 C41 1.384 . S
C42 C43 1.377 . S
C42 C45 1.481 . S
C43 C42 1.377 . S
C43 C44 1.389 . S
C43 H65 0.929 . S
C44 C40 1.397 . S
C44 C43 1.389 . S
C44 H66 0.931 . S
C45 C42 1.481 . S
C45 C46 1.387 . S
C45 C50 1.390 . S
C46 C45 1.387 . S
C46 C47 1.401 . S
C46 H67 0.930 . S
C47 C46 1.401 . S
C47 C48 1.376 . S
C47 C56 1.511 . S
C48 C47 1.376 . S
C48 C49 1.392 . S
C48 H69 0.931 . S
C49 C48 1.392 . S
C49 C50 1.361 . S
C49 C51 1.500 . S
C50 C45 1.390 . S
C50 C49 1.361 . S
C50 H68 0.931 . S
C51 C49 1.500 . S
C51 C52 1.371 . S
C51 C53 1.365 . S
C52 C51 1.371 . S
C52 C62 1.386 . S
C52 H70 0.931 . S
C53 C51 1.365 . S
C53 C54 1.409 . S
C53 H71 0.929 . S
C54 C53 1.409 . S
C54 C55 1.380 . S
C54 H72 0.930 . S
C55 C54 1.380 . S
C55 C62 1.357 . S
C56 C47 1.511 . S
C56 C57 1.341 . S
C56 C58 1.371 . S
C57 C56 1.341 . S
C57 C61 1.394 . S
C57 H73 0.930 . S
C58 C56 1.371 . S
C58 C59 1.392 . S
C58 H74 0.931 . S
C59 C58 1.392 . S
C59 C60 1.331 . S
C59 H77 0.932 . S
C60 C59 1.331 . S
C60 C61 1.336 . S
C61 C57 1.394 . S
C61 C60 1.336 . S
C61 H76 0.929 . S
C62 C52 1.386 . S
C62 C55 1.357 . S
C62 H75 0.928 . S
H63 C39 0.931 . S
H64 C41 0.930 . S
H65 C43 0.929 . S
H66 C44 0.931 . S
H67 C46 0.930 . S
H68 C50 0.931 . S
H69 C48 0.931 . S
H70 C52 0.931 . S
H71 C53 0.929 . S
H72 C54 0.930 . S
H73 C57 0.930 . S
H74 C58 0.931 . S
H75 C62 0.928 . S
H76 C61 0.929 . S
H77 C59 0.932 . S
C78 C79 1.386 . S
C78 C80 1.397 . S
C78 H102 0.931 . S
C79 C78 1.386 . S
C79 C83 1.397 . S
C80 C78 1.397 . S
C80 C81 1.384 . S
C80 H103 0.930 . S
C81 C80 1.384 . S
C81 C82 1.377 . S
C81 C84 1.481 . S
C82 C81 1.377 . S
C82 C83 1.389 . S
C82 H104 0.929 . S
C83 C79 1.397 . S
C83 C82 1.389 . S
C83 H105 0.931 . S
C84 C81 1.481 . S
C84 C85 1.387 . S
C84 C89 1.390 . S
C85 C84 1.387 . S
C85 C86 1.401 . S
C85 H106 0.930 . S
C86 C85 1.401 . S
C86 C87 1.376 . S
C86 C95 1.511 . S
C87 C86 1.376 . S
C87 C88 1.392 . S
C87 H108 0.931 1_554 S
C88 C87 1.392 . S
C88 C89 1.361 . S
C88 C90 1.500 1_554 S
C89 C84 1.390 . S
C89 C88 1.361 . S
C89 H107 0.931 . S
C90 C88 1.500 1_556 S
C90 C91 1.371 . S
C90 C92 1.365 . S
C91 C90 1.371 . S
C91 C101 1.386 . S
C91 H109 0.931 . S
C92 C90 1.365 . S
C92 C93 1.409 . S
C92 H110 0.929 . S
C93 C92 1.409 . S
C93 C94 1.380 . S
C93 H111 0.930 . S
C94 C93 1.380 . S
C94 C101 1.357 . S
C95 C86 1.511 . S
C95 C96 1.341 . S
C95 C97 1.371 1_554 S
C96 C95 1.341 . S
C96 C100 1.394 . S
C96 H112 0.930 . S
C97 C95 1.371 1_556 S
C97 C98 1.392 . S
C97 H113 0.931 . S
C98 C97 1.392 . S
C98 C99 1.331 1_556 S
C98 H116 0.932 . S
C99 C98 1.331 1_554 S
C99 C100 1.336 . S
C100 C96 1.394 . S
C100 C99 1.336 . S
C100 H115 0.929 . S
C101 C91 1.386 . S
C101 C94 1.357 . S
C101 H114 0.928 . S
H102 C78 0.931 . S
H103 C80 0.930 . S
H104 C82 0.929 . S
H105 C83 0.931 . S
H106 C85 0.930 . S
H107 C89 0.931 . S
H108 C87 0.931 1_556 S
H109 C91 0.931 . S
H110 C92 0.929 . S
H111 C93 0.930 . S
H112 C96 0.930 . S
H113 C97 0.931 . S
H114 C101 0.928 . S
H115 C100 0.929 . S
H116 C98 0.932 . S
C117 C118 1.386 . S
C117 C119 1.397 . S
C117 H141 0.931 . S
C118 C117 1.386 . S
C118 C122 1.397 . S
C119 C117 1.397 . S
C119 C120 1.384 . S
C119 H142 0.930 . S
C120 C119 1.384 . S
C120 C121 1.377 . S
C120 C123 1.481 . S
C121 C120 1.377 . S
C121 C122 1.389 . S
C121 H143 0.929 . S
C122 C118 1.397 . S
C122 C121 1.389 . S
C122 H144 0.931 . S
C123 C120 1.481 . S
C123 C124 1.387 . S
C123 C128 1.390 . S
C124 C123 1.387 . S
C124 C125 1.401 . S
C124 H145 0.930 . S
C125 C124 1.401 . S
C125 C126 1.376 . S
C125 C134 1.511 . S
C126 C125 1.376 . S
C126 C127 1.392 . S
C126 H147 0.931 . S
C127 C126 1.392 . S
C127 C128 1.361 . S
C127 C129 1.500 . S
C128 C123 1.390 . S
C128 C127 1.361 . S
C128 H146 0.931 . S
C129 C127 1.500 . S
C129 C130 1.371 . S
C129 C131 1.365 . S
C130 C129 1.371 . S
C130 C140 1.386 . S
C130 H148 0.931 . S
C131 C129 1.365 . S
C131 C132 1.409 . S
C131 H149 0.929 . S
C132 C131 1.409 . S
C132 C133 1.380 . S
C132 H150 0.930 . S
C133 C132 1.380 . S
C133 C140 1.357 . S
C134 C125 1.511 . S
C134 C135 1.341 . S
C134 C136 1.371 . S
C135 C134 1.341 . S
C135 C139 1.394 . S
C135 H151 0.930 . S
C136 C134 1.371 . S
C136 C137 1.392 . S
C136 H152 0.931 . S
C137 C136 1.392 . S
C137 C138 1.331 . S
C137 H155 0.932 . S
C138 C137 1.331 . S
C138 C139 1.336 . S
C139 C135 1.394 . S
C139 C138 1.336 . S
C139 H154 0.929 . S
C140 C130 1.386 . S
C140 C133 1.357 . S
C140 H153 0.928 . S
H141 C117 0.931 . S
H142 C119 0.930 . S
H143 C121 0.929 . S
H144 C122 0.931 . S
H145 C124 0.930 . S
H146 C128 0.931 . S
H147 C126 0.931 . S
H148 C130 0.931 . S
H149 C131 0.929 . S
H150 C132 0.930 . S
H151 C135 0.930 . S
H152 C136 0.931 . S
H153 C140 0.928 . S
H154 C139 0.929 . S
H155 C137 0.932 . S
C156 C158 1.422 . S
C156 C160 1.415 . S
C156 N162 1.369 . S
C157 C158 1.421 . S
C157 C159 1.417 . S
C157 C169 1.422 . S
C158 C156 1.422 . S
C158 C157 1.421 . S
C158 N168 1.359 . S
C159 C157 1.417 . S
C159 C161 1.329 . S
C159 H178 0.930 . S
C160 C156 1.415 . S
C160 C161 1.437 . S
C160 C164 1.413 . S
C161 C159 1.329 . S
C161 C160 1.437 . S
C161 H183 0.929 . S
N162 C156 1.369 . S
N162 C163 1.315 1_655 S
N162 Gd167 2.622 . S
C163 N162 1.315 1_455 S
C163 C165 1.378 1_455 S
C163 H175 0.953 . S
C164 C160 1.413 . S
C164 C165 1.348 . S
C164 H180 0.931 . S
C165 C163 1.378 1_655 S
C165 C164 1.348 . S
C165 H181 0.930 1_655 S
Gd166 N186 2.622 . S
Gd166 N193 2.570 . S
Gd166 O200 2.371 1_455 S
Gd166 O201 2.468 . S
Gd166 O202 2.427 . S
Gd166 O204 2.388 1_455 S
Gd166 O205 2.386 . S
Gd166 O209 2.307 1_565 S
Gd166 C219 2.805 . S
Gd167 N162 2.622 . S
Gd167 N168 2.570 . S
Gd167 O199 2.386 . S
Gd167 O203 2.307 1_545 S
Gd167 O206 2.353 1_655 S
Gd167 O207 2.468 . S
Gd167 O208 2.427 . S
Gd167 O210 2.388 1_655 S
Gd167 C231 2.805 . S
N168 C158 1.359 . S
N168 Gd167 2.570 . S
N168 C170 1.343 . S
C169 C157 1.422 . S
C169 C171 1.321 . S
C169 H177 0.931 . S
C170 N168 1.343 . S
C170 C171 1.390 . S
C170 H172 0.931 . S
C171 C169 1.321 . S
C171 C170 1.390 . S
C171 H173 0.930 . S
H172 C170 0.931 . S
H173 C171 0.930 . S
H174 C197 0.931 . S
H175 C163 0.953 . S
H176 C198 0.930 . S
H177 C169 0.931 . S
H178 C159 0.930 . S
H179 C188 0.929 1_655 S
H180 C164 0.931 . S
H181 C165 0.930 1_455 S
H182 C220 0.930 . S
H183 C161 0.929 . S
H184 C189 0.931 . S
H185 C190 0.930 1_655 S
N186 Gd166 2.622 . S
N186 C187 1.369 . S
N186 C188 1.338 . S
C187 N186 1.369 . S
C187 C191 1.415 . S
C187 C194 1.422 . S
C188 H179 0.929 1_455 S
C188 N186 1.338 . S
C188 C190 1.378 . S
C189 H184 0.931 . S
C189 C190 1.348 . S
C189 C191 1.413 . S
C190 H185 0.930 1_455 S
C190 C188 1.378 . S
C190 C189 1.348 . S
C191 C187 1.415 . S
C191 C189 1.413 . S
C191 C221 1.437 . S
H192 C221 0.929 . S
N193 Gd166 2.570 . S
N193 C194 1.359 . S
N193 C197 1.343 . S
C194 C187 1.422 . S
C194 N193 1.359 . S
C194 C196 1.421 . S
C195 C196 1.422 . S
C195 C198 1.321 . S
C195 H222 0.931 . S
C196 C194 1.421 . S
C196 C195 1.422 . S
C196 C220 1.417 . S
C197 H174 0.931 . S
C197 N193 1.343 . S
C197 C198 1.390 . S
C198 H176 0.930 . S
C198 C195 1.321 . S
C198 C197 1.390 . S
O199 Gd167 2.386 . S
O199 C211 1.265 . S
O200 Gd166 2.371 1_655 S
O200 C211 1.214 1_565 S
O201 Gd166 2.468 . S
O201 C219 1.263 . S
O202 Gd166 2.427 . S
O202 C219 1.252 . S
O203 Gd167 2.307 1_565 S
O203 C212 1.261 . S
O204 Gd166 2.388 1_655 S
O204 C212 1.252 . S
O205 Gd166 2.386 . S
O205 C223 1.265 . S
O206 Gd167 2.353 1_455 S
O206 C223 1.242 1_545 S
O207 Gd167 2.468 . S
O207 C231 1.263 . S
O208 Gd167 2.427 . S
O208 C231 1.252 . S
O209 Gd166 2.307 1_545 S
O209 C224 1.261 . S
O210 Gd167 2.388 1_455 S
O210 C224 1.252 . S
C211 O199 1.265 . S
C211 O200 1.214 1_545 S
C212 O203 1.261 . S
C212 O204 1.252 . S
C213 C216 1.394 . S
C213 C218 1.370 . S
C213 C219 1.500 . S
C214 C217 1.383 . S
C214 C218 1.395 . S
C215 C216 1.396 . S
C215 C217 1.365 . S
C215 H232 0.929 . S
C216 C213 1.394 . S
C216 C215 1.396 . S
C216 H233 0.930 . S
C217 C214 1.383 . S
C217 C215 1.365 . S
C217 H234 0.931 . S
C218 C213 1.370 . S
C218 C214 1.395 . S
C218 H235 0.930 . S
C219 Gd166 2.805 . S
C219 O201 1.263 . S
C219 O202 1.252 . S
C219 C213 1.500 . S
C220 H182 0.930 . S
C220 C196 1.417 . S
C220 C221 1.329 . S
C221 C191 1.437 . S
C221 H192 0.929 . S
C221 C220 1.329 . S
H222 C195 0.931 . S
C223 O205 1.265 . S
C223 O206 1.242 1_565 S
C224 O209 1.261 . S
C224 O210 1.252 . S
C225 C228 1.394 . S
C225 C230 1.370 . S
C225 C231 1.500 . S
C226 C229 1.383 . S
C226 C230 1.395 . S
C227 C228 1.396 . S
C227 C229 1.365 . S
C227 H236 0.929 . S
C228 C225 1.394 . S
C228 C227 1.396 . S
C228 H237 0.930 . S
C229 C226 1.383 . S
C229 C227 1.365 . S
C229 H238 0.931 . S
C230 C225 1.370 . S
C230 C226 1.395 . S
C230 H239 0.930 . S
C231 Gd167 2.805 . S
C231 O207 1.263 . S
C231 O208 1.252 . S
C231 C225 1.500 . S
H232 C215 0.929 . S
H233 C216 0.930 . S
H234 C217 0.931 . S
H235 C218 0.930 . S
H236 C227 0.929 . S
H237 C228 0.930 . S
H238 C229 0.931 . S
H239 C230 0.930 . S
C240 C242 1.422 . S
C240 C244 1.415 . S
C240 N246 1.369 . S
C241 C242 1.421 . S
C241 C243 1.417 . S
C241 C253 1.422 . S
C242 C240 1.422 . S
C242 C241 1.421 . S
C242 N252 1.359 . S
C243 C241 1.417 . S
C243 C245 1.329 . S
C243 H262 0.930 . S
C244 C240 1.415 . S
C244 C245 1.437 . S
C244 C248 1.413 . S
C245 C243 1.329 . S
C245 C244 1.437 . S
C245 H267 0.929 . S
N246 C240 1.369 . S
N246 C247 1.338 . S
N246 Gd251 2.622 . S
C247 N246 1.338 . S
C247 C249 1.378 . S
C247 H259 0.929 . S
C248 C244 1.413 . S
C248 C249 1.348 . S
C248 H264 0.931 . S
C249 C247 1.378 . S
C249 C248 1.348 . S
C249 H265 0.930 . S
Gd250 N270 2.622 . S
Gd250 N277 2.570 1_556 S
Gd250 O284 2.353 . S
Gd250 O285 2.468 . S
Gd250 O286 2.427 . S
Gd250 O288 2.388 . S
Gd250 O289 2.386 1_556 S
Gd250 O293 2.307 1_556 S
Gd250 C303 2.805 . S
Gd251 N246 2.622 . S
Gd251 N252 2.570 . S
Gd251 O283 2.386 1_554 S
Gd251 O287 2.307 . S
Gd251 O290 2.353 . S
Gd251 O291 2.468 . S
Gd251 O292 2.427 . S
Gd251 O294 2.388 . S
Gd251 C315 2.805 . S
N252 C242 1.359 . S
N252 Gd251 2.570 . S
N252 C254 1.343 . S
C253 C241 1.422 . S
C253 C255 1.321 . S
C253 H261 0.931 . S
C254 N252 1.343 . S
C254 C255 1.390 . S
C254 H256 0.931 . S
C255 C253 1.321 . S
C255 C254 1.390 . S
C255 H257 0.930 . S
H256 C254 0.931 . S
H257 C255 0.930 . S
H258 C281 0.931 . S
H259 C247 0.929 . S
H260 C282 0.930 . S
H261 C253 0.931 . S
H262 C243 0.930 . S
H263 C272 0.929 . S
H264 C248 0.931 . S
H265 C249 0.930 . S
H266 C304 0.930 . S
H267 C245 0.929 . S
H268 C273 0.931 . S
H269 C274 0.930 . S
N270 Gd250 2.622 . S
N270 C271 1.369 1_556 S
N270 C272 1.338 . S
C271 N270 1.369 1_554 S
C271 C275 1.415 . S
C271 C278 1.422 . S
C272 H263 0.929 . S
C272 N270 1.338 . S
C272 C274 1.378 . S
C273 H268 0.931 . S
C273 C274 1.348 1_554 S
C273 C275 1.413 . S
C274 H269 0.930 . S
C274 C272 1.378 . S
C274 C273 1.348 1_556 S
C275 C271 1.415 . S
C275 C273 1.413 . S
C275 C305 1.437 . S
H276 C305 0.929 . S
N277 Gd250 2.570 1_554 S
N277 C278 1.359 . S
N277 C281 1.343 . S
C278 C271 1.422 . S
C278 N277 1.359 . S
C278 C280 1.421 . S
C279 C280 1.422 . S
C279 C282 1.321 . S
C279 H306 0.931 . S
C280 C278 1.421 . S
C280 C279 1.422 . S
C280 C304 1.417 . S
C281 H258 0.931 . S
C281 N277 1.343 . S
C281 C282 1.390 . S
C282 H260 0.930 . S
C282 C279 1.321 . S
C282 C281 1.390 . S
O283 Gd251 2.386 1_556 S
O283 C295 1.265 . S
O284 Gd250 2.353 . S
O284 C295 1.242 . S
O285 Gd250 2.468 . S
O285 C303 1.263 . S
O286 Gd250 2.427 . S
O286 C303 1.252 . S
O287 Gd251 2.307 . S
O287 C296 1.261 . S
O288 Gd250 2.388 . S
O288 C296 1.252 1_556 S
O289 Gd250 2.386 1_554 S
O289 C307 1.265 . S
O290 Gd251 2.353 . S
O290 C307 1.242 . S
O291 Gd251 2.468 . S
O291 C315 1.263 . S
O292 Gd251 2.427 . S
O292 C315 1.252 . S
O293 Gd250 2.307 1_554 S
O293 C308 1.261 . S
O294 Gd251 2.388 . S
O294 C308 1.252 . S
C295 O283 1.265 . S
C295 O284 1.242 . S
C296 O287 1.261 . S
C296 O288 1.252 1_554 S
C297 C300 1.394 . S
C297 C302 1.370 . S
C297 C303 1.500 . S
C298 C301 1.383 . S
C298 C302 1.395 . S
C299 C300 1.396 . S
C299 C301 1.365 . S
C299 H316 0.929 . S
C300 C297 1.394 . S
C300 C299 1.396 . S
C300 H317 0.930 . S
C301 C298 1.383 . S
C301 C299 1.365 . S
C301 H318 0.931 . S
C302 C297 1.370 . S
C302 C298 1.395 . S
C302 H319 0.930 . S
C303 Gd250 2.805 . S
C303 O285 1.263 . S
C303 O286 1.252 . S
C303 C297 1.500 . S
C304 H266 0.930 . S
C304 C280 1.417 . S
C304 C305 1.329 . S
C305 C275 1.437 . S
C305 H276 0.929 . S
C305 C304 1.329 . S
H306 C279 0.931 . S
C307 O289 1.265 . S
C307 O290 1.242 . S
C308 O293 1.261 . S
C308 O294 1.252 . S
C309 C312 1.394 . S
C309 C314 1.370 . S
C309 C315 1.500 . S
C310 C313 1.383 . S
C310 C314 1.395 . S
C311 C312 1.396 . S
C311 C313 1.365 . S
C311 H320 0.929 . S
C312 C309 1.394 . S
C312 C311 1.396 . S
C312 H321 0.930 . S
C313 C310 1.383 . S
C313 C311 1.365 . S
C313 H322 0.931 . S
C314 C309 1.370 . S
C314 C310 1.395 . S
C314 H323 0.930 . S
C315 Gd251 2.805 . S
C315 O291 1.263 . S
C315 O292 1.252 . S
C315 C309 1.500 . S
H316 C299 0.929 . S
H317 C300 0.930 . S
H318 C301 0.931 . S
H319 C302 0.930 . S
H320 C311 0.929 . S
H321 C312 0.930 . S
H322 C313 0.931 . S
H323 C314 0.930 . S
H324 C330 0.930 . S
H325 C334 0.930 . S
H326 C339 0.929 . S
H327 C337 0.929 . S
H328 C332 0.929 . S
H329 C338 0.929 . S
C330 H324 0.930 . S
C330 C331 1.367 . S
C330 C338 1.378 . S
C331 C330 1.367 . S
C331 C339 1.433 . S
C332 H328 0.929 . S
C332 C334 1.378 . S
C332 C336 1.350 . S
C333 C336 1.463 . S
C333 C338 1.350 . S
C333 N341 1.427 . S
C334 H325 0.930 . S
C334 C332 1.378 . S
C334 C335 1.367 . S
C335 C334 1.367 . S
C335 C337 1.433 . S
C336 C332 1.350 . S
C336 C333 1.463 . S
C336 N340 1.427 . S
C337 H327 0.929 . S
C337 C335 1.433 . S
C337 N340 1.384 . S
C338 H329 0.929 . S
C338 C330 1.378 . S
C338 C333 1.350 . S
C339 H326 0.929 . S
C339 C331 1.433 . S
C339 N341 1.384 . S
N340 C336 1.427 . S
N340 C337 1.384 . S
N341 C333 1.427 . S
N341 C339 1.384 . S
H342 C348 0.930 . S
H343 C352 0.930 . S
H344 C357 0.929 . S
H345 C355 0.929 . S
H346 C350 0.929 . S
H347 C356 0.929 . S
C348 H342 0.930 . S
C348 C349 1.367 . S
C348 C356 1.378 . S
C349 C348 1.367 . S
C349 C357 1.433 . S
C350 H346 0.929 . S
C350 C352 1.378 . S
C350 C354 1.350 . S
C351 C354 1.463 . S
C351 C356 1.350 . S
C351 N359 1.427 . S
C352 H343 0.930 . S
C352 C350 1.378 . S
C352 C353 1.367 . S
C353 C352 1.367 . S
C353 C355 1.433 . S
C354 C350 1.350 . S
C354 C351 1.463 . S
C354 N358 1.427 . S
C355 H345 0.929 . S
C355 C353 1.433 . S
C355 N358 1.384 . S
C356 H347 0.929 . S
C356 C348 1.378 . S
C356 C351 1.350 . S
C357 H344 0.929 . S
C357 C349 1.433 . S
C357 N359 1.384 . S
N358 C354 1.427 . S
N358 C355 1.384 . S
N359 C351 1.427 . S
N359 C357 1.384 . S
H360 C366 0.930 . S
H361 C370 0.930 . S
H362 C375 0.929 . S
H363 C373 0.929 . S
H364 C368 0.929 . S
H365 C374 0.929 . S
C366 H360 0.930 . S
C366 C367 1.367 . S
C366 C374 1.378 . S
C367 C366 1.367 . S
C367 C375 1.433 . S
C368 H364 0.929 . S
C368 C370 1.378 . S
C368 C372 1.350 . S
C369 C372 1.463 . S
C369 C374 1.350 . S
C369 N377 1.427 . S
C370 H361 0.930 . S
C370 C368 1.378 . S
C370 C371 1.367 . S
C371 C370 1.367 . S
C371 C373 1.433 . S
C372 C368 1.350 . S
C372 C369 1.463 . S
C372 N376 1.427 . S
C373 H363 0.929 . S
C373 C371 1.433 . S
C373 N376 1.384 . S
C374 H365 0.929 . S
C374 C366 1.378 . S
C374 C369 1.350 . S
C375 H362 0.929 . S
C375 C367 1.433 . S
C375 N377 1.384 . S
N376 C372 1.427 . S
N376 C373 1.384 . S
N377 C369 1.427 . S
N377 C375 1.384 . S
H378 C384 0.930 . S
H379 C388 0.930 . S
H380 C393 0.929 . S
H381 C391 0.929 . S
H382 C386 0.929 . S
H383 C392 0.929 . S
C384 H378 0.930 . S
C384 C385 1.367 . S
C384 C392 1.378 . S
C385 C384 1.367 . S
C385 C393 1.433 1_554 S
C386 H382 0.929 . S
C386 C388 1.378 . S
C386 C390 1.350 1_556 S
C387 C390 1.463 . S
C387 C392 1.350 . S
C387 N395 1.427 1_554 S
C388 H379 0.930 . S
C388 C386 1.378 . S
C388 C389 1.367 1_556 S
C389 C388 1.367 1_554 S
C389 C391 1.433 . S
C390 C386 1.350 1_554 S
C390 C387 1.463 . S
C390 N394 1.427 . S
C391 H381 0.929 . S
C391 C389 1.433 . S
C391 N394 1.384 . S
C392 H383 0.929 . S
C392 C384 1.378 . S
C392 C387 1.350 . S
C393 H380 0.929 . S
C393 C385 1.433 1_556 S
C393 N395 1.384 . S
N394 C390 1.427 . S
N394 C391 1.384 . S
N395 C387 1.427 1_556 S
N395 C393 1.384 . S
H396 C402 0.930 . S
H397 C406 0.930 . S
H398 C411 0.929 . S
H399 C409 0.929 . S
H400 C404 0.929 . S
H401 C410 0.929 . S
C402 H396 0.930 . S
C402 C403 1.367 . S
C402 C410 1.378 . S
C403 C402 1.367 . S
C403 C411 1.433 . S
C404 H400 0.929 . S
C404 C406 1.378 . S
C404 C408 1.350 . S
C405 C408 1.463 . S
C405 C410 1.350 . S
C405 N413 1.427 . S
C406 H397 0.930 . S
C406 C404 1.378 . S
C406 C407 1.367 . S
C407 C406 1.367 . S
C407 C409 1.433 . S
C408 C404 1.350 . S
C408 C405 1.463 . S
C408 N412 1.427 . S
C409 H399 0.929 . S
C409 C407 1.433 . S
C409 N412 1.384 . S
C410 H401 0.929 . S
C410 C402 1.378 . S
C410 C405 1.350 . S
C411 H398 0.929 . S
C411 C403 1.433 . S
C411 N413 1.384 . S
N412 C408 1.427 . S
N412 C409 1.384 . S
N413 C405 1.427 . S
N413 C411 1.384 . S
H414 C420 0.930 . S
H415 C424 0.930 . S
H416 C429 0.929 . S
H417 C427 0.929 . S
H418 C422 0.929 . S
H419 C428 0.929 . S
C420 H414 0.930 . S
C420 C421 1.367 . S
C420 C428 1.378 . S
C421 C420 1.367 . S
C421 C429 1.433 . S
C422 H418 0.929 . S
C422 C424 1.378 . S
C422 C426 1.350 . S
C423 C426 1.463 . S
C423 C428 1.350 . S
C423 N431 1.427 . S
C424 H415 0.930 . S
C424 C422 1.378 . S
C424 C425 1.367 . S
C425 C424 1.367 . S
C425 C427 1.433 . S
C426 C422 1.350 . S
C426 C423 1.463 . S
C426 N430 1.427 . S
C427 H417 0.929 . S
C427 C425 1.433 . S
C427 N430 1.384 . S
C428 H419 0.929 . S
C428 C420 1.378 . S
C428 C423 1.350 . S
C429 H416 0.929 . S
C429 C421 1.433 . S
C429 N431 1.384 . S
N430 C426 1.427 . S
N430 C427 1.384 . S
N431 C423 1.427 . S
N431 C429 1.384 . S
H432 C438 0.930 . S
H433 C442 0.930 1_565 S
H434 C447 0.929 . S
H435 C445 0.929 . S
H436 C440 0.929 . S
H437 C446 0.929 . S
C438 H432 0.930 . S
C438 C439 1.367 . S
C438 C446 1.378 . S
C439 C438 1.367 . S
C439 C447 1.433 . S
C440 H436 0.929 . S
C440 C442 1.378 . S
C440 C444 1.350 . S
C441 C444 1.463 . S
C441 C446 1.350 . S
C441 N449 1.427 . S
C442 H433 0.930 1_545 S
C442 C440 1.378 . S
C442 C443 1.367 . S
C443 C442 1.367 . S
C443 C445 1.433 . S
C444 C440 1.350 . S
C444 C441 1.463 . S
C444 N448 1.427 . S
C445 H435 0.929 . S
C445 C443 1.433 . S
C445 N448 1.384 . S
C446 H437 0.929 . S
C446 C438 1.378 . S
C446 C441 1.350 . S
C447 H434 0.929 . S
C447 C439 1.433 . S
C447 N449 1.384 . S
N448 C444 1.427 . S
N448 C445 1.384 . S
N449 C441 1.427 . S
N449 C447 1.384 . S
H450 C456 0.930 . S
H451 C460 0.930 . S
H452 C465 0.929 . S
H453 C463 0.929 . S
H454 C458 0.929 . S
H455 C464 0.929 . S
C456 H450 0.930 . S
C456 C457 1.367 . S
C456 C464 1.378 . S
C457 C456 1.367 . S
C457 C465 1.433 . S
C458 H454 0.929 . S
C458 C460 1.378 . S
C458 C462 1.350 . S
C459 C462 1.463 . S
C459 C464 1.350 . S
C459 N467 1.427 . S
C460 H451 0.930 . S
C460 C458 1.378 . S
C460 C461 1.367 . S
C461 C460 1.367 . S
C461 C463 1.433 . S
C462 C458 1.350 . S
C462 C459 1.463 . S
C462 N466 1.427 . S
C463 H453 0.929 . S
C463 C461 1.433 . S
C463 N466 1.384 . S
C464 H455 0.929 . S
C464 C456 1.378 . S
C464 C459 1.350 . S
C465 H452 0.929 . S
C465 C457 1.433 . S
C465 N467 1.384 . S
N466 C462 1.427 . S
N466 C463 1.384 . S
N467 C459 1.427 . S
N467 C465 1.384 . S
H468 C474 0.930 . S
H469 C478 0.930 . S
H470 C483 0.929 . S
H471 C481 0.929 . S
H472 C476 0.929 . S
H473 C482 0.929 . S
C474 H468 0.930 . S
C474 C475 1.367 . S
C474 C482 1.378 . S
C475 C474 1.367 . S
C475 C483 1.433 . S
C476 H472 0.929 . S
C476 C478 1.378 . S
C476 C480 1.350 . S
C477 C480 1.463 . S
C477 C482 1.350 . S
C477 N485 1.427 . S
C478 H469 0.930 . S
C478 C476 1.378 . S
C478 C479 1.367 . S
C479 C478 1.367 . S
C479 C481 1.433 . S
C480 C476 1.350 . S
C480 C477 1.463 . S
C480 N484 1.427 . S
C481 H471 0.929 . S
C481 C479 1.433 . S
C481 N484 1.384 . S
C482 H473 0.929 . S
C482 C474 1.378 . S
C482 C477 1.350 . S
C483 H470 0.929 . S
C483 C475 1.433 . S
C483 N485 1.384 . S
N484 C480 1.427 . S
N484 C481 1.384 . S
N485 C477 1.427 . S
N485 C483 1.384 . S
H486 C492 0.930 . S
H487 C496 0.930 . S
H488 C501 0.929 . S
H489 C499 0.904 1_565 S
H490 C494 0.929 . S
H491 C500 0.929 . S
C492 H486 0.930 . S
C492 C493 1.367 . S
C492 C500 1.378 . S
C493 C492 1.367 . S
C493 C501 1.433 . S
C494 H490 0.929 . S
C494 C496 1.378 . S
C494 C498 1.350 . S
C495 C498 1.463 . S
C495 C500 1.350 . S
C495 N503 1.427 . S
C496 H487 0.930 . S
C496 C494 1.378 . S
C496 C497 1.367 . S
C497 C496 1.367 . S
C497 C499 1.433 . S
C498 C494 1.350 . S
C498 C495 1.463 . S
C498 N502 1.427 . S
C499 H489 0.904 1_545 S
C499 C497 1.433 . S
C499 N502 1.384 . S
C500 H491 0.929 . S
C500 C492 1.378 . S
C500 C495 1.350 . S
C501 H488 0.929 . S
C501 C493 1.433 . S
C501 N503 1.384 . S
N502 C498 1.427 . S
N502 C499 1.384 . S
N503 C495 1.427 . S
N503 C501 1.384 . S
H504 C510 0.930 . S
H505 C514 0.930 . S
H506 C519 0.929 . S
H507 C517 0.929 . S
H508 C512 0.929 . S
H509 C518 0.929 . S
C510 H504 0.930 . S
C510 C511 1.367 . S
C510 C518 1.378 . S
C511 C510 1.367 . S
C511 C519 1.433 . S
C512 H508 0.929 . S
C512 C514 1.378 . S
C512 C516 1.350 . S
C513 C516 1.463 . S
C513 C518 1.350 . S
C513 N521 1.427 . S
C514 H505 0.930 . S
C514 C512 1.378 . S
C514 C515 1.367 . S
C515 C514 1.367 . S
C515 C517 1.433 . S
C516 C512 1.350 . S
C516 C513 1.463 . S
C516 N520 1.427 . S
C517 H507 0.929 . S
C517 C515 1.433 . S
C517 N520 1.384 . S
C518 H509 0.929 . S
C518 C510 1.378 . S
C518 C513 1.350 . S
C519 H506 0.929 . S
C519 C511 1.433 . S
C519 N521 1.384 . S
N520 C516 1.427 . S
N520 C517 1.384 . S
N521 C513 1.427 . S
N521 C519 1.384 . S
H522 C528 0.930 . S
H523 C532 0.930 1_545 S
H524 C537 0.929 . S
H525 C535 0.929 . S
H526 C530 0.929 1_545 S
H527 C536 0.929 . S
C528 H522 0.930 . S
C528 C529 1.367 . S
C528 C536 1.378 . S
C529 C528 1.367 . S
C529 C537 1.433 . S
C530 H526 0.929 1_565 S
C530 C532 1.378 . S
C530 C534 1.350 . S
C531 C534 1.463 . S
C531 C536 1.350 . S
C531 N539 1.427 . S
C532 H523 0.930 1_565 S
C532 C530 1.378 . S
C532 C533 1.367 . S
C533 C532 1.367 . S
C533 C535 1.433 . S
C534 C530 1.350 . S
C534 C531 1.463 . S
C534 N538 1.427 . S
C535 H525 0.929 . S
C535 C533 1.433 . S
C535 N538 1.384 . S
C536 H527 0.929 . S
C536 C528 1.378 . S
C536 C531 1.350 . S
C537 H524 0.929 . S
C537 C529 1.433 . S
C537 N539 1.384 . S
N538 C534 1.427 . S
N538 C535 1.384 . S
N539 C531 1.427 . S
N539 C537 1.384 . S
C335 C224 1.632 . S
C331 C138 1.631 . S
C349 C21 1.613 . S
C353 C296 1.620 . S
C367 C60 1.637 . S
C371 C212 1.632 . S
C385 C99 1.623 . S
C389 C308 1.626 . S
C407 C214 1.408 . S
C403 C16 1.554 . S
C425 C295 1.613 . S
C421 C40 1.604 . S
C439 C79 1.600 . S
C443 C211 1.619 . S
C457 C133 1.539 . S
C461 C298 1.410 . S
C479 C310 1.393 . S
C475 C55 1.541 . S
C497 C226 1.403 . S
C493 C94 1.554 . S
C515 C307 1.614 . S
C511 C118 1.598 . S
C529 C1 1.593 . S
C533 C223 1.619 . S
