# Generated by pormake.
# Topology nom, (4,4)-cn, num edge types: 1
# Building blocks:
#     Node 0, Type 0, BuildingBlock: MUDLON_clean_linker_0, # of connection points: 4
#     Node 1, Type 0, BuildingBlock: MUDLON_clean_linker_0, # of connection points: 4
#     Node 2, Type 0, BuildingBlock: MUDLON_clean_linker_0, # of connection points: 4
#     Node 3, Type 0, BuildingBlock: MUDLON_clean_linker_0, # of connection points: 4
#     Node 4, Type 0, BuildingBlock: MUDLON_clean_linker_0, # of connection points: 4
#     Node 5, Type 0, BuildingBlock: MUDLON_clean_linker_0, # of connection points: 4
#     Node 6, Type 1, BuildingBlock: CEKHIL_clean_sbu_0, # of connection points: 4
#     Node 7, Type 1, BuildingBlock: CEKHIL_clean_sbu_0, # of connection points: 4
#     Node 8, Type 1, BuildingBlock: CEKHIL_clean_sbu_0, # of connection points: 4
#     Node 9, Type 1, BuildingBlock: CEKHIL_clean_sbu_0, # of connection points: 4
#     Node 10, Type 1, BuildingBlock: CEKHIL_clean_sbu_0, # of connection points: 4
#     Node 11, Type 1, BuildingBlock: CEKHIL_clean_sbu_0, # of connection points: 4
#     Edge 12, Type (0, 1), BuildingBlock: MIFKUJ_clean_linker_0, # of connection points: 2
#     Edge 13, Type (0, 1), BuildingBlock: MIFKUJ_clean_linker_0, # of connection points: 2
#     Edge 14, Type (0, 1), BuildingBlock: MIFKUJ_clean_linker_0, # of connection points: 2
#     Edge 15, Type (0, 1), BuildingBlock: MIFKUJ_clean_linker_0, # of connection points: 2
#     Edge 16, Type (0, 1), BuildingBlock: MIFKUJ_clean_linker_0, # of connection points: 2
#     Edge 17, Type (0, 1), BuildingBlock: MIFKUJ_clean_linker_0, # of connection points: 2
#     Edge 18, Type (0, 1), BuildingBlock: MIFKUJ_clean_linker_0, # of connection points: 2
#     Edge 19, Type (0, 1), BuildingBlock: MIFKUJ_clean_linker_0, # of connection points: 2
#     Edge 20, Type (0, 1), BuildingBlock: MIFKUJ_clean_linker_0, # of connection points: 2
#     Edge 21, Type (0, 1), BuildingBlock: MIFKUJ_clean_linker_0, # of connection points: 2
#     Edge 22, Type (0, 1), BuildingBlock: MIFKUJ_clean_linker_0, # of connection points: 2
#     Edge 23, Type (0, 1), BuildingBlock: MIFKUJ_clean_linker_0, # of connection points: 2
#     Edge 24, Type (0, 1), BuildingBlock: MIFKUJ_clean_linker_0, # of connection points: 2
#     Edge 25, Type (0, 1), BuildingBlock: MIFKUJ_clean_linker_0, # of connection points: 2
#     Edge 26, Type (0, 1), BuildingBlock: MIFKUJ_clean_linker_0, # of connection points: 2
#     Edge 27, Type (0, 1), BuildingBlock: MIFKUJ_clean_linker_0, # of connection points: 2
#     Edge 28, Type (0, 1), BuildingBlock: MIFKUJ_clean_linker_0, # of connection points: 2
#     Edge 29, Type (0, 1), BuildingBlock: MIFKUJ_clean_linker_0, # of connection points: 2
#     Edge 30, Type (0, 1), BuildingBlock: MIFKUJ_clean_linker_0, # of connection points: 2
#     Edge 31, Type (0, 1), BuildingBlock: MIFKUJ_clean_linker_0, # of connection points: 2
#     Edge 32, Type (0, 1), BuildingBlock: MIFKUJ_clean_linker_0, # of connection points: 2
#     Edge 33, Type (0, 1), BuildingBlock: MIFKUJ_clean_linker_0, # of connection points: 2
#     Edge 34, Type (0, 1), BuildingBlock: MIFKUJ_clean_linker_0, # of connection points: 2
#     Edge 35, Type (0, 1), BuildingBlock: MIFKUJ_clean_linker_0, # of connection points: 2
# Relax obj value: 0.007
# Max RMSD: 0.104
# Mean RMSD: 0.066
data_MOF--net-nom--node1-CEKHIL_clean_sbu_0--node2-MUDLON_clean_linker_0--edge1-MIFKUJ_clean_linker_0
_symmetry_space_group_name_H-M    P1
_symmetry_Int_Tables_number       1
_symmetry_cell_setting            triclinic
loop_
_symmetry_equiv_pos_as_xyz
'x, y, z'
_cell_length_a     74.457392
_cell_length_b     74.799768
_cell_length_c     74.333846
_cell_angle_alpha  90.320821
_cell_angle_beta   89.827722
_cell_angle_gamma 121.43305
loop_
_atom_site_label
_atom_site_type_symbol
_atom_site_fract_x
_atom_site_fract_y
_atom_site_fract_z
_atom_type_partial_charge
H0 H 0.10443 0.55759 0.33237 0.0
N1 N 0.084 0.57741 0.34362 0.0
H2 H 0.13576 0.57257 0.31365 0.0
H3 H 0.10124 0.61305 0.32537 0.0
H4 H 0.13311 0.62849 0.30684 0.0
H5 H 0.09907 0.60699 0.3687 0.0
H6 H 0.11607 0.60746 0.39697 0.0
H7 H 0.08353 0.54374 0.35848 0.0
H8 H 0.10107 0.54426 0.38657 0.0
H9 H 0.06911 0.5407 0.32439 0.0
H10 H 0.05059 0.57983 0.35122 0.0
H11 H 0.0331 0.51726 0.31451 0.0
H12 H 0.01408 0.55569 0.34235 0.0
H13 H 0.91561 0.44296 0.28628 0.0
H14 H 0.90189 0.43695 0.25557 0.0
H15 H 0.92984 0.50364 0.24879 0.0
H16 H 0.94334 0.50948 0.27945 0.0
H17 H 0.9182 0.50388 0.30323 0.0
H18 H 0.88671 0.49759 0.31885 0.0
H19 H 0.88342 0.44532 0.34661 0.0
H20 H 0.91467 0.45132 0.33025 0.0
H21 H 0.96297 0.46861 0.31292 0.0
H22 H 0.99912 0.49172 0.32332 0.0
H23 H 0.9915 0.54494 0.31768 0.0
N24 N 0.93503 0.47887 0.30426 0.0
H25 H 0.95515 0.52155 0.30849 0.0
C26 C 0.10038 0.58423 0.33027 0.0
C27 C 0.11017 0.57283 0.32654 0.0
C28 C 0.12828 0.58152 0.31593 0.0
C29 C 0.13709 0.60182 0.30893 0.0
C30 C 0.12665 0.61274 0.3119 0.0
C31 C 0.10847 0.60399 0.32249 0.0
C32 C 0.09027 0.5755 0.36146 0.0
C33 C 0.09895 0.59306 0.3728 0.0
C34 C 0.10864 0.59328 0.38891 0.0
C35 C 0.11003 0.57595 0.39387 0.0
C36 C 0.10039 0.5579 0.38294 0.0
C37 C 0.09036 0.55758 0.36693 0.0
C38 C 0.06268 0.56235 0.33833 0.0
C39 C 0.05733 0.54425 0.32829 0.0
C40 C 0.03653 0.53064 0.32277 0.0
C41 C 0.02054 0.53457 0.32747 0.0
C42 C 0.02594 0.55236 0.33803 0.0
C43 C 0.04677 0.5661 0.34329 0.0
C44 C 0.93048 0.47656 0.28525 0.0
C45 C 0.91918 0.45629 0.27799 0.0
C46 C 0.91137 0.45291 0.26045 0.0
C47 C 0.91466 0.46983 0.24978 0.0
C48 C 0.92681 0.49027 0.25677 0.0
C49 C 0.9347 0.49363 0.27432 0.0
C50 C 0.91868 0.47786 0.31544 0.0
C51 C 0.91097 0.49128 0.31286 0.0
C52 C 0.89293 0.48771 0.32193 0.0
C53 C 0.88234 0.47078 0.33387 0.0
C54 C 0.89091 0.45823 0.33724 0.0
C55 C 0.90886 0.46172 0.32806 0.0
C56 C 0.95642 0.49328 0.30974 0.0
C57 C 0.96921 0.48529 0.31396 0.0
C58 C 0.98991 0.49858 0.31978 0.0
C59 C 0.9984 0.52031 0.32132 0.0
C60 C 0.9855 0.5283 0.31696 0.0
C61 C 0.96469 0.51492 0.31141 0.0
H62 H 0.48843 0.91779 0.47775 0.0
N63 N 0.47537 0.93705 0.45635 0.0
H64 H 0.46667 0.88567 0.49493 0.0
H65 H 0.43262 0.91727 0.46155 0.0
H66 H 0.41108 0.88629 0.47941 0.0
H67 H 0.44477 0.93331 0.4334 0.0
H68 H 0.43642 0.91643 0.404 0.0
H69 H 0.49885 0.92687 0.43721 0.0
H70 H 0.49118 0.91072 0.4073 0.0
H71 H 0.5134 0.96951 0.46349 0.0
H72 H 0.44837 0.95174 0.45983 0.0
H73 H 0.52302 0.00492 0.47263 0.0
H74 H 0.45755 0.98642 0.46963 0.0
H75 H 0.54854 0.09335 0.51219 0.0
H76 H 0.56197 0.10948 0.54138 0.0
H77 H 0.50019 0.09701 0.55593 0.0
H78 H 0.48661 0.07963 0.52689 0.0
H79 H 0.49238 0.10151 0.49078 0.0
H80 H 0.50952 0.13473 0.47451 0.0
H81 H 0.56322 0.12857 0.46441 0.0
H82 H 0.5457 0.09507 0.48052 0.0
H83 H 0.52809 0.05673 0.50918 0.0
H84 H 0.52013 0.02312 0.49766 0.0
H85 H 0.4744 0.02204 0.46129 0.0
N86 N 0.50875 0.07859 0.49925 0.0
H87 H 0.48187 0.05562 0.47347 0.0
C88 C 0.46236 0.92021 0.46852 0.0
C89 C 0.47157 0.91113 0.47836 0.0
C90 C 0.45909 0.89281 0.48821 0.0
C91 C 0.43705 0.88324 0.48847 0.0
C92 C 0.42795 0.89297 0.47926 0.0
C93 C 0.44041 0.91108 0.46923 0.0
C94 C 0.47241 0.9312 0.43762 0.0
C95 C 0.45518 0.92875 0.42776 0.0
C96 C 0.45048 0.91915 0.41081 0.0
C97 C 0.46297 0.91194 0.40333 0.0
C98 C 0.48096 0.91566 0.41279 0.0
C99 C 0.48553 0.92511 0.42977 0.0
C100 C 0.48023 0.95783 0.46109 0.0
C101 C 0.50121 0.97323 0.4647 0.0
C102 C 0.50662 0.99339 0.47005 0.0
C103 C 0.49106 0.99857 0.472 0.0
C104 C 0.47003 0.98315 0.46807 0.0
C105 C 0.46468 0.96306 0.46259 0.0
C106 C 0.51637 0.08491 0.51742 0.0
C107 C 0.53769 0.09345 0.52183 0.0
C108 C 0.54546 0.10302 0.53851 0.0
C109 C 0.53229 0.10492 0.55099 0.0
C110 C 0.51079 0.09567 0.5468 0.0
C111 C 0.50296 0.08572 0.53021 0.0
C112 C 0.51779 0.09597 0.48695 0.0
C113 C 0.50761 0.1071 0.48464 0.0
C114 C 0.51743 0.12604 0.47536 0.0
C115 C 0.53778 0.13432 0.46831 0.0
C116 C 0.54763 0.12266 0.4699 0.0
C117 C 0.53764 0.10353 0.47904 0.0
C118 C 0.50554 0.05903 0.49223 0.0
C119 C 0.51645 0.04961 0.49868 0.0
C120 C 0.51193 0.03019 0.49195 0.0
C121 C 0.49657 0.01973 0.47853 0.0
C122 C 0.48606 0.02939 0.47184 0.0
C123 C 0.49043 0.04869 0.47868 0.0
H124 H 0.48132 0.58028 0.65452 0.0
N125 N 0.47393 0.54459 0.66859 0.0
H126 H 0.45757 0.58566 0.63574 0.0
H127 H 0.43747 0.51361 0.65318 0.0
H128 H 0.41333 0.51887 0.63474 0.0
H129 H 0.43603 0.51833 0.68491 0.0
H130 H 0.42537 0.52328 0.71455 0.0
H131 H 0.49885 0.57063 0.69409 0.0
H132 H 0.48887 0.57479 0.72445 0.0
H133 H 0.51158 0.55991 0.65412 0.0
H134 H 0.45746 0.5025 0.67254 0.0
H135 H 0.52957 0.54124 0.64694 0.0
H136 H 0.47549 0.48355 0.66569 0.0
H137 H 0.58095 0.4984 0.61492 0.0
H138 H 0.58649 0.48985 0.58428 0.0
H139 H 0.52992 0.42881 0.58881 0.0
H140 H 0.52447 0.43747 0.61925 0.0
H141 H 0.52006 0.4356 0.65186 0.0
H142 H 0.52464 0.4092 0.6669 0.0
H143 H 0.59203 0.45194 0.66658 0.0
H144 H 0.58728 0.47797 0.65114 0.0
H145 H 0.56521 0.50851 0.65561 0.0
H146 H 0.54518 0.52493 0.66354 0.0
H147 H 0.48925 0.4722 0.64046 0.0
N148 N 0.5518 0.47283 0.63825 0.0
H149 H 0.50939 0.45571 0.63294 0.0
C150 C 0.46109 0.54666 0.65534 0.0
C151 C 0.46673 0.5668 0.64985 0.0
C152 C 0.45317 0.56982 0.63914 0.0
C153 C 0.43356 0.55267 0.6339 0.0
C154 C 0.42829 0.53235 0.63874 0.0
C155 C 0.44206 0.52933 0.64924 0.0
C156 C 0.46816 0.54455 0.68711 0.0
C157 C 0.44767 0.53066 0.69343 0.0
C158 C 0.44163 0.5334 0.71057 0.0
C159 C 0.4561 0.54976 0.72188 0.0
C160 C 0.47706 0.56248 0.71596 0.0
C161 C 0.48292 0.56 0.6987 0.0
C162 C 0.48334 0.53263 0.66388 0.0
C163 C 0.50362 0.54322 0.65657 0.0
C164 C 0.51389 0.53254 0.65262 0.0
C165 C 0.50408 0.51093 0.65596 0.0
C166 C 0.48344 0.50017 0.6629 0.0
C167 C 0.47314 0.51095 0.66687 0.0
C168 C 0.55244 0.46862 0.6194 0.0
C169 C 0.5695 0.4834 0.60908 0.0
C170 C 0.57262 0.47849 0.59162 0.0
C171 C 0.55874 0.45858 0.58426 0.0
C172 C 0.541 0.44418 0.59426 0.0
C173 C 0.53781 0.44917 0.61164 0.0
C174 C 0.55342 0.45872 0.65027 0.0
C175 C 0.53577 0.43943 0.65535 0.0
C176 C 0.53841 0.42436 0.66399 0.0
C177 C 0.55872 0.42836 0.66765 0.0
C178 C 0.57621 0.44822 0.66362 0.0
C179 C 0.57354 0.46318 0.65499 0.0
C180 C 0.53891 0.48106 0.64361 0.0
C181 C 0.54859 0.50046 0.65242 0.0
C182 C 0.53714 0.50985 0.6568 0.0
C183 C 0.51567 0.50001 0.6524 0.0
C184 C 0.50574 0.48016 0.64408 0.0
C185 C 0.51728 0.47074 0.6397 0.0
H186 H 0.12448 0.58306 0.80117 0.0
N187 N 0.08999 0.54587 0.79617 0.0
H188 H 0.15589 0.59119 0.81798 0.0
H189 H 0.09349 0.51915 0.81966 0.0
H190 H 0.1242 0.52739 0.83726 0.0
H191 H 0.10879 0.52524 0.78303 0.0
H192 H 0.12332 0.52884 0.75303 0.0
H193 H 0.08292 0.56275 0.76775 0.0
H194 H 0.09583 0.56502 0.73711 0.0
H195 H 0.06212 0.55478 0.80866 0.0
H196 H 0.06961 0.50312 0.79467 0.0
H197 H 0.0255 0.53035 0.81699 0.0
H198 H 0.03371 0.47845 0.80434 0.0
H199 H 0.92352 0.4625 0.84651 0.0
H200 H 0.90724 0.46012 0.87539 0.0
H201 H 0.93405 0.42519 0.89635 0.0
H202 H 0.94863 0.42604 0.86666 0.0
H203 H 0.91629 0.40078 0.83023 0.0
H204 H 0.88406 0.38479 0.81223 0.0
H205 H 0.89837 0.44634 0.79629 0.0
H206 H 0.93073 0.46219 0.81431 0.0
H207 H 0.96817 0.48223 0.84833 0.0
H208 H 0.00357 0.50715 0.83832 0.0
H209 H 0.99869 0.46288 0.79799 0.0
N210 N 0.9429 0.44127 0.8364 0.0
H211 H 0.96386 0.43727 0.8092 0.0
C212 C 0.10649 0.5506 0.80901 0.0
C213 C 0.12421 0.57095 0.80931 0.0
C214 C 0.14216 0.57556 0.81902 0.0
C215 C 0.14276 0.55991 0.82896 0.0
C216 C 0.12455 0.53975 0.82947 0.0
C217 C 0.10671 0.53506 0.81948 0.0
C218 C 0.09527 0.5443 0.77776 0.0
C219 C 0.10582 0.53388 0.77307 0.0
C220 C 0.11397 0.53579 0.75574 0.0
C221 C 0.11122 0.54764 0.74258 0.0
C222 C 0.09899 0.55642 0.74698 0.0
C223 C 0.09132 0.55494 0.76443 0.0
C224 C 0.06863 0.53081 0.80135 0.0
C225 C 0.05587 0.5381 0.80767 0.0
C226 C 0.03496 0.52404 0.81256 0.0
C227 C 0.02644 0.50225 0.81153 0.0
C228 C 0.03939 0.49502 0.80507 0.0
C229 C 0.06012 0.50913 0.79976 0.0
C230 C 0.93672 0.44376 0.85424 0.0
C231 C 0.92585 0.45426 0.85727 0.0
C232 C 0.91676 0.45314 0.87401 0.0
C233 C 0.91883 0.44204 0.88829 0.0
C234 C 0.93138 0.43322 0.88558 0.0
C235 C 0.94 0.4339 0.86868 0.0
C236 C 0.92578 0.43256 0.82365 0.0
C237 C 0.91266 0.41075 0.82253 0.0
C238 C 0.89432 0.40169 0.81222 0.0
C239 C 0.88866 0.41434 0.80291 0.0
C240 C 0.90225 0.43623 0.80347 0.0
C241 C 0.92075 0.44529 0.81367 0.0
C242 C 0.96315 0.45755 0.82961 0.0
C243 C 0.97458 0.47772 0.83736 0.0
C244 C 0.99497 0.4922 0.83144 0.0
C245 C 0.00431 0.48715 0.81736 0.0
C246 C 0.99246 0.46729 0.80918 0.0
C247 C 0.97233 0.45265 0.81541 0.0
H248 H 0.53466 0.09947 0.98611 0.0
N249 N 0.5471 0.08209 0.96165 0.0
H250 H 0.5569 0.13189 0.00333 0.0
H251 H 0.59037 0.10473 0.96287 0.0
H252 H 0.61235 0.13635 0.98029 0.0
H253 H 0.57519 0.0822 0.93771 0.0
H254 H 0.58389 0.09885 0.90823 0.0
H255 H 0.52528 0.09484 0.94347 0.0
H256 H 0.53293 0.11042 0.91351 0.0
H257 H 0.5099 0.04671 0.96164 0.0
H258 H 0.57579 0.07091 0.97122 0.0
H259 H 0.50184 0.01155 0.96941 0.0
H260 H 0.56787 0.03651 0.98002 0.0
H261 H 0.47719 0.91969 0.01124 0.0
H262 H 0.46369 0.9042 0.04038 0.0
H263 H 0.52725 0.93496 0.06115 0.0
H264 H 0.54074 0.94941 0.03125 0.0
H265 H 0.53444 0.9174 0.99565 0.0
H266 H 0.51803 0.88405 0.97937 0.0
H267 H 0.46783 0.89305 0.96246 0.0
H268 H 0.48441 0.92645 0.9788 0.0
H269 H 0.4923 0.95705 0.00428 0.0
H270 H 0.49938 0.99087 0.99389 0.0
H271 H 0.55783 0.00302 0.97019 0.0
N272 N 0.5187 0.94163 0.00102 0.0
H273 H 0.55116 0.96959 0.98173 0.0
C274 C 0.56069 0.09933 0.97344 0.0
C275 C 0.55162 0.10724 0.9851 0.0
C276 C 0.56429 0.12575 0.99482 0.0
C277 C 0.58631 0.13649 0.99319 0.0
C278 C 0.59543 0.12818 0.98202 0.0
C279 C 0.58278 0.10995 0.97208 0.0
C280 C 0.54975 0.08761 0.94289 0.0
C281 C 0.56577 0.08812 0.93243 0.0
C282 C 0.57062 0.09754 0.91547 0.0
C283 C 0.55935 0.10635 0.90856 0.0
C284 C 0.54233 0.10435 0.91857 0.0
C285 C 0.53772 0.09521 0.93559 0.0
C286 C 0.54332 0.06163 0.96604 0.0
C287 C 0.5226 0.04447 0.96554 0.0
C288 C 0.51803 0.02442 0.97014 0.0
C289 C 0.53416 0.02108 0.97552 0.0
C290 C 0.55501 0.03829 0.97572 0.0
C291 C 0.55958 0.05826 0.97086 0.0
C292 C 0.51012 0.93552 0.01893 0.0
C293 C 0.4883 0.9233 0.02202 0.0
C294 C 0.48053 0.91456 0.03889 0.0
C295 C 0.49434 0.91809 0.05322 0.0
C296 C 0.51613 0.93146 0.05037 0.0
C297 C 0.5239 0.93996 0.03337 0.0
C298 C 0.51068 0.92434 0.9885 0.0
C299 C 0.52021 0.91242 0.98802 0.0
C300 C 0.5108 0.89339 0.97871 0.0
C301 C 0.49154 0.88585 0.96976 0.0
C302 C 0.48254 0.89836 0.96942 0.0
C303 C 0.49208 0.91751 0.97864 0.0
C304 C 0.5215 0.96093 0.99413 0.0
C305 C 0.50671 0.96698 0.99698 0.0
C306 C 0.5107 0.98635 0.9908 0.0
C307 C 0.52932 0.99993 0.9813 0.0
C308 C 0.5436 0.99335 0.97785 0.0
C309 C 0.53976 0.97415 0.9843 0.0
H310 H 0.55055 0.43932 0.15111 0.0
N311 N 0.55537 0.47507 0.16258 0.0
H312 H 0.57579 0.43424 0.13445 0.0
H313 H 0.59156 0.50621 0.14712 0.0
H314 H 0.61694 0.50143 0.12985 0.0
H315 H 0.59216 0.49963 0.18084 0.0
H316 H 0.59991 0.49357 0.21127 0.0
H317 H 0.5278 0.44914 0.18668 0.0
H318 H 0.53492 0.44377 0.21762 0.0
H319 H 0.52059 0.46106 0.14348 0.0
H320 H 0.56997 0.51631 0.1698 0.0
H321 H 0.50233 0.47943 0.13648 0.0
H322 H 0.55144 0.53478 0.16345 0.0
H323 H 0.43685 0.52435 0.12354 0.0
H324 H 0.42573 0.52869 0.09371 0.0
H325 H 0.49058 0.57356 0.08029 0.0
H326 H 0.50147 0.56876 0.10989 0.0
H327 H 0.5046 0.58752 0.13751 0.0
H328 H 0.50057 0.6145 0.15229 0.0
H329 H 0.44337 0.56637 0.17753 0.0
H330 H 0.44743 0.53947 0.16248 0.0
H331 H 0.4619 0.50685 0.14781 0.0
H332 H 0.48273 0.49082 0.15336 0.0
H333 H 0.53946 0.54942 0.14042 0.0
N334 N 0.47532 0.5455 0.13736 0.0
H335 H 0.51841 0.56545 0.13548 0.0
C336 C 0.56915 0.47303 0.15026 0.0
C337 C 0.56483 0.4529 0.14615 0.0
C338 C 0.57929 0.45008 0.13656 0.0
C339 C 0.59848 0.46744 0.13075 0.0
C340 C 0.60244 0.48772 0.13428 0.0
C341 C 0.58789 0.4905 0.14399 0.0
C342 C 0.55946 0.47446 0.18141 0.0
C343 C 0.57958 0.48751 0.18884 0.0
C344 C 0.58393 0.48412 0.20635 0.0
C345 C 0.56815 0.46787 0.21687 0.0
C346 C 0.54765 0.45598 0.20977 0.0
C347 C 0.54343 0.45915 0.19218 0.0
C348 C 0.54642 0.48723 0.15725 0.0
C349 C 0.52751 0.47725 0.14763 0.0
C350 C 0.51703 0.48773 0.14383 0.0
C351 C 0.52519 0.50848 0.14971 0.0
C352 C 0.54472 0.51883 0.1587 0.0
C353 C 0.5553 0.50829 0.16241 0.0
C354 C 0.4699 0.54616 0.11892 0.0
C355 C 0.44864 0.53474 0.11396 0.0
C356 C 0.44234 0.5374 0.09701 0.0
C357 C 0.45726 0.55161 0.08468 0.0
C358 C 0.47871 0.56234 0.08939 0.0
C359 C 0.48498 0.55967 0.10638 0.0
C360 C 0.47623 0.56143 0.14891 0.0
C361 C 0.49156 0.58274 0.14665 0.0
C362 C 0.48923 0.59819 0.15511 0.0
C363 C 0.47149 0.59255 0.16587 0.0
C364 C 0.45703 0.5712 0.1691 0.0
C365 C 0.45941 0.55582 0.16068 0.0
C366 C 0.48851 0.53721 0.14116 0.0
C367 C 0.47884 0.51622 0.14628 0.0
C368 C 0.49079 0.50707 0.14927 0.0
C369 C 0.51279 0.51874 0.14708 0.0
C370 C 0.52257 0.54 0.14228 0.0
C371 C 0.51053 0.54918 0.13934 0.0
Co372 Co 0.63681 0.37892 0.39992 0.0
O373 O 0.65588 0.37768 0.38321 0.0
O374 O 0.66379 0.40495 0.40062 0.0
C375 C 0.62499 0.34691 0.41173 0.0
O376 O 0.6219 0.38567 0.41942 0.0
Co377 Co 0.58869 0.34749 0.39799 0.0
O378 O 0.58806 0.35967 0.42156 0.0
C379 C 0.60917 0.38179 0.37154 0.0
C380 C 0.66984 0.39638 0.3887 0.0
C381 C 0.6038 0.37682 0.42721 0.0
O382 O 0.62644 0.39022 0.38059 0.0
O383 O 0.59303 0.36393 0.37544 0.0
O384 O 0.64252 0.36303 0.41736 0.0
O385 O 0.61606 0.35037 0.39847 0.0
Co386 Co 0.28412 0.6424 0.5671 0.0
O387 O 0.30333 0.64198 0.58411 0.0
O388 O 0.28375 0.61647 0.5648 0.0
C389 C 0.30653 0.67503 0.55716 0.0
O390 O 0.26328 0.63725 0.54709 0.0
Co391 Co 0.26908 0.67382 0.56988 0.0
O392 O 0.25818 0.66423 0.54518 0.0
C393 C 0.25085 0.63704 0.59403 0.0
C394 C 0.29797 0.6238 0.57738 0.0
C395 C 0.25568 0.64711 0.53912 0.0
O396 O 0.26077 0.62973 0.58551 0.0
O397 O 0.25325 0.65492 0.59059 0.0
O398 O 0.30732 0.65932 0.55065 0.0
O399 O 0.29345 0.67094 0.57018 0.0
Co400 Co 0.64215 0.2734 0.73011 0.0
O401 O 0.64178 0.29324 0.71402 0.0
O402 O 0.61634 0.2734 0.73322 0.0
C403 C 0.67538 0.2948 0.74 0.0
O404 O 0.63728 0.25193 0.74926 0.0
Co405 Co 0.67308 0.25782 0.72411 0.0
O406 O 0.66184 0.24308 0.74729 0.0
C407 C 0.63664 0.2434 0.70011 0.0
C408 C 0.62362 0.28785 0.72093 0.0
C409 C 0.64595 0.24197 0.75495 0.0
O410 O 0.62869 0.25084 0.71103 0.0
O411 O 0.65516 0.24653 0.70195 0.0
O412 O 0.65997 0.29597 0.74691 0.0
O413 O 0.6705 0.28217 0.72649 0.0
Co414 Co 0.38262 0.63858 0.9035 0.0
O415 O 0.36476 0.64182 0.88696 0.0
O416 O 0.3547 0.61367 0.90363 0.0
C417 C 0.3964 0.67065 0.9161 0.0
O418 O 0.39615 0.63001 0.92275 0.0
Co419 Co 0.43125 0.66766 0.90165 0.0
O420 O 0.43118 0.65276 0.92359 0.0
C421 C 0.40899 0.63427 0.87451 0.0
C422 C 0.34981 0.62339 0.89201 0.0
C423 C 0.41451 0.63673 0.92952 0.0
O424 O 0.39187 0.62641 0.88375 0.0
O425 O 0.42566 0.65169 0.87855 0.0
O426 O 0.37826 0.65521 0.92141 0.0
O427 O 0.40475 0.6666 0.90267 0.0
Co428 Co 0.75068 0.37811 0.0678 0.0
O429 O 0.72976 0.37743 0.08346 0.0
O430 O 0.75131 0.4043 0.06619 0.0
C431 C 0.72911 0.34589 0.05604 0.0
O432 O 0.77322 0.38402 0.04905 0.0
Co433 Co 0.76504 0.34613 0.0717 0.0
O434 O 0.77824 0.3569 0.04793 0.0
C435 C 0.7816 0.3822 0.09673 0.0
C436 C 0.7357 0.39598 0.07751 0.0
C437 C 0.78136 0.37417 0.04179 0.0
O438 O 0.77232 0.38979 0.08775 0.0
O439 O 0.77942 0.3644 0.09316 0.0
O440 O 0.72891 0.36199 0.04986 0.0
O441 O 0.74108 0.34949 0.06982 0.0
Co442 Co 0.37882 0.74234 0.22489 0.0
O443 O 0.37897 0.7224 0.20855 0.0
O444 O 0.40496 0.74283 0.22716 0.0
C445 C 0.34599 0.72072 0.23546 0.0
O446 O 0.38401 0.76394 0.24426 0.0
Co447 Co 0.34713 0.75718 0.2204 0.0
O448 O 0.35855 0.77162 0.24374 0.0
C449 C 0.38384 0.77352 0.19619 0.0
C450 C 0.3974 0.72811 0.215 0.0
C451 C 0.37501 0.77334 0.25069 0.0
O452 O 0.39148 0.76476 0.20581 0.0
O453 O 0.3656 0.77081 0.19893 0.0
O454 O 0.36177 0.71995 0.24191 0.0
O455 O 0.35026 0.73313 0.22199 0.0
H456 H 0.14978 0.62674 0.27891 0.0
H457 H 0.1851 0.64591 0.26573 0.0
H458 H 0.20678 0.61951 0.30538 0.0
H459 H 0.17179 0.60084 0.3189 0.0
H460 H 0.23309 0.66103 0.30273 0.0
H461 H 0.19924 0.60268 0.26203 0.0
H462 H 0.17187 0.57821 0.24086 0.0
H463 H 0.1861 0.62927 0.20565 0.0
H464 H 0.21338 0.65412 0.22675 0.0
H465 H 0.33266 0.69333 0.2636 0.0
H466 H 0.29683 0.67225 0.27546 0.0
H467 H 0.2751 0.69893 0.23612 0.0
H468 H 0.31078 0.71985 0.22407 0.0
H469 H 0.24879 0.65696 0.23845 0.0
H470 H 0.28236 0.71529 0.27938 0.0
H471 H 0.30989 0.73968 0.3005 0.0
H472 H 0.29612 0.68842 0.33529 0.0
H473 H 0.2687 0.66367 0.31424 0.0
C474 C 0.16207 0.625 0.28478 0.0
C475 C 0.15795 0.61221 0.29991 0.0
C476 C 0.18219 0.63582 0.27716 0.0
C477 C 0.19853 0.63402 0.28451 0.0
C478 C 0.1944 0.62109 0.29947 0.0
C479 C 0.17432 0.61026 0.30707 0.0
C480 C 0.22018 0.64628 0.27713 0.0
C481 C 0.23657 0.65991 0.28872 0.0
C482 C 0.22462 0.64519 0.25877 0.0
C483 C 0.20821 0.63029 0.24607 0.0
C484 C 0.19641 0.60872 0.24985 0.0
C485 C 0.18094 0.59478 0.23785 0.0
C486 C 0.17721 0.60219 0.22194 0.0
C487 C 0.18898 0.62356 0.21799 0.0
C488 C 0.20447 0.63758 0.22996 0.0
C489 C 0.32025 0.69474 0.25751 0.0
C490 C 0.32452 0.70828 0.24295 0.0
C491 C 0.29981 0.68272 0.26432 0.0
C492 C 0.28334 0.68415 0.25676 0.0
C493 C 0.28757 0.69758 0.24215 0.0
C494 C 0.30798 0.70958 0.23533 0.0
C495 C 0.26167 0.67166 0.26406 0.0
C496 C 0.24529 0.65802 0.25245 0.0
C497 C 0.25722 0.67273 0.28241 0.0
C498 C 0.27362 0.6876 0.29514 0.0
C499 C 0.28531 0.7092 0.29147 0.0
C500 C 0.30088 0.72309 0.30343 0.0
C501 C 0.30479 0.7156 0.3192 0.0
C502 C 0.2931 0.6942 0.32306 0.0
C503 C 0.27753 0.68023 0.31112 0.0
H504 H 0.31685 0.72638 0.32845 0.0
H505 H 0.16523 0.59136 0.21266 0.0
H506 H 0.52286 0.15125 0.44451 0.0
H507 H 0.54023 0.18771 0.43465 0.0
H508 H 0.59552 0.20232 0.46512 0.0
H509 H 0.5781 0.16589 0.47522 0.0
H510 H 0.58267 0.23011 0.47167 0.0
H511 H 0.59728 0.20099 0.42043 0.0
H512 H 0.58916 0.17605 0.39547 0.0
H513 H 0.54779 0.19354 0.37226 0.0
H514 H 0.55543 0.21838 0.39722 0.0
H515 H 0.64353 0.33392 0.43581 0.0
H516 H 0.63065 0.29797 0.4455 0.0
H517 H 0.57457 0.27598 0.41358 0.0
H518 H 0.58754 0.31173 0.40358 0.0
H519 H 0.5907 0.25223 0.4079 0.0
H520 H 0.57428 0.27963 0.46002 0.0
H521 H 0.582 0.30436 0.48508 0.0
H522 H 0.62639 0.28996 0.50673 0.0
H523 H 0.61913 0.26534 0.48165 0.0
C524 C 0.53878 0.1622 0.44897 0.0
C525 C 0.54913 0.15572 0.46061 0.0
C526 C 0.54873 0.18298 0.44326 0.0
C527 C 0.5692 0.1977 0.4491 0.0
C528 C 0.57974 0.1912 0.46044 0.0
C529 C 0.56984 0.17036 0.46606 0.0
C530 C 0.57911 0.22004 0.44402 0.0
C531 C 0.58479 0.23504 0.45773 0.0
C532 C 0.58144 0.22634 0.42584 0.0
C533 C 0.5768 0.21142 0.41079 0.0
C534 C 0.58632 0.19939 0.41008 0.0
C535 C 0.58182 0.1853 0.39592 0.0
C536 C 0.56793 0.18318 0.38231 0.0
C537 C 0.55853 0.19518 0.38282 0.0
C538 C 0.56296 0.20929 0.39696 0.0
C539 C 0.62836 0.32143 0.43102 0.0
C540 C 0.61654 0.32562 0.41893 0.0
C541 C 0.621 0.3009 0.43658 0.0
C542 C 0.60159 0.28427 0.43032 0.0
C543 C 0.58963 0.28854 0.41853 0.0
C544 C 0.59702 0.309 0.41288 0.0
C545 C 0.59395 0.2623 0.43555 0.0
C546 C 0.58872 0.24736 0.42185 0.0
C547 C 0.59199 0.25605 0.45375 0.0
C548 C 0.59633 0.27082 0.46885 0.0
C549 C 0.58581 0.28187 0.47005 0.0
C550 C 0.59008 0.29584 0.48427 0.0
C551 C 0.60472 0.29878 0.49746 0.0
C552 C 0.61508 0.2877 0.49649 0.0
C553 C 0.61089 0.27372 0.48228 0.0
H554 H 0.608 0.3096 0.50846 0.0
H555 H 0.56448 0.17226 0.37135 0.0
H556 H 0.39256 0.53674 0.64305 0.0
H557 H 0.36824 0.54613 0.63069 0.0
H558 H 0.41524 0.58629 0.59193 0.0
H559 H 0.43987 0.57742 0.60474 0.0
H560 H 0.3999 0.60642 0.60587 0.0
H561 H 0.36902 0.53862 0.57997 0.0
H562 H 0.35436 0.5005 0.57896 0.0
H563 H 0.30477 0.49065 0.61489 0.0
H564 H 0.3193 0.52875 0.61632 0.0
H565 H 0.29934 0.59251 0.5595 0.0
H566 H 0.32134 0.57804 0.56666 0.0
H567 H 0.34273 0.61572 0.615 0.0
H568 H 0.32147 0.6308 0.60752 0.0
H569 H 0.32461 0.55626 0.59202 0.0
H570 H 0.39316 0.63327 0.6232 0.0
H571 H 0.40901 0.67144 0.62017 0.0
H572 H 0.38565 0.66286 0.56611 0.0
H573 H 0.36992 0.62468 0.56873 0.0
C574 C 0.39753 0.54724 0.63165 0.0
C575 C 0.41806 0.55631 0.62481 0.0
C576 C 0.3836 0.55258 0.62456 0.0
C577 C 0.38977 0.56678 0.61022 0.0
C578 C 0.4101 0.57535 0.60301 0.0
C579 C 0.42414 0.57024 0.61029 0.0
C580 C 0.37558 0.5738 0.60366 0.0
C581 C 0.38347 0.5954 0.60276 0.0
C582 C 0.35422 0.55951 0.5992 0.0
C583 C 0.34535 0.53657 0.59835 0.0
C584 C 0.35507 0.52834 0.58776 0.0
C585 C 0.34677 0.50673 0.5871 0.0
C586 C 0.32867 0.49317 0.59689 0.0
C587 C 0.3188 0.50118 0.60733 0.0
C588 C 0.32704 0.52278 0.60805 0.0
C589 C 0.30859 0.59753 0.57174 0.0
C590 C 0.30888 0.61294 0.58286 0.0
C591 C 0.32115 0.58925 0.57582 0.0
C592 C 0.33408 0.59613 0.59116 0.0
C593 C 0.33336 0.61059 0.60282 0.0
C594 C 0.32109 0.6191 0.5986 0.0
C595 C 0.34886 0.58881 0.59468 0.0
C596 C 0.34108 0.56721 0.59503 0.0
C597 C 0.37052 0.60309 0.59803 0.0
C598 C 0.3802 0.62609 0.59624 0.0
C599 C 0.3915 0.63954 0.61064 0.0
C600 C 0.40044 0.66118 0.609 0.0
C601 C 0.39829 0.66956 0.59298 0.0
C602 C 0.38725 0.65634 0.57853 0.0
C603 C 0.3783 0.6347 0.5801 0.0
H604 H 0.4052 0.68632 0.59174 0.0
H605 H 0.32226 0.47644 0.59636 0.0
H606 H 0.85999 0.42657 0.80489 0.0
H607 H 0.82411 0.40819 0.79287 0.0
H608 H 0.8343 0.36151 0.769 0.0
H609 H 0.8703 0.37994 0.78083 0.0
H610 H 0.81214 0.3736 0.74656 0.0
H611 H 0.81013 0.35146 0.80799 0.0
H612 H 0.81723 0.3574 0.84054 0.0
H613 H 0.78089 0.38686 0.84352 0.0
H614 H 0.77384 0.38137 0.81091 0.0
H615 H 0.70843 0.29011 0.732 0.0
H616 H 0.74488 0.31203 0.74196 0.0
H617 H 0.72834 0.35074 0.77236 0.0
H618 H 0.69161 0.3283 0.76296 0.0
H619 H 0.75402 0.34483 0.79117 0.0
H620 H 0.75438 0.36625 0.73074 0.0
H621 H 0.74751 0.36175 0.6981 0.0
H622 H 0.78692 0.33585 0.6928 0.0
H623 H 0.79381 0.33993 0.72546 0.0
C624 C 0.85473 0.41263 0.79677 0.0
C625 C 0.86791 0.40462 0.79385 0.0
C626 C 0.8342 0.40208 0.79003 0.0
C627 C 0.82651 0.38338 0.78025 0.0
C628 C 0.83994 0.37589 0.77658 0.0
C629 C 0.86043 0.38635 0.78341 0.0
C630 C 0.80415 0.37099 0.77465 0.0
C631 C 0.7994 0.36712 0.75628 0.0
C632 C 0.78758 0.36308 0.78736 0.0
C633 C 0.79164 0.3662 0.80698 0.0
C634 C 0.80379 0.35935 0.81556 0.0
C635 C 0.80779 0.36261 0.83403 0.0
C636 C 0.79956 0.37255 0.84408 0.0
C637 C 0.78728 0.37919 0.8357 0.0
C638 C 0.78327 0.376 0.81724 0.0
C639 C 0.71254 0.30325 0.74087 0.0
C640 C 0.69721 0.30757 0.74664 0.0
C641 C 0.73342 0.31587 0.74645 0.0
C642 C 0.73949 0.33334 0.75759 0.0
C643 C 0.72408 0.33741 0.76369 0.0
C644 C 0.7031 0.32459 0.75831 0.0
C645 C 0.76187 0.34723 0.76299 0.0
C646 C 0.76667 0.35138 0.78136 0.0
C647 C 0.77847 0.35561 0.75025 0.0
C648 C 0.77446 0.35323 0.73058 0.0
C649 C 0.76147 0.35946 0.72264 0.0
C650 C 0.75758 0.357 0.70413 0.0
C651 C 0.76673 0.34848 0.69339 0.0
C652 C 0.77983 0.34243 0.70114 0.0
C653 C 0.78375 0.34484 0.71964 0.0
H654 H 0.76371 0.34658 0.67906 0.0
H655 H 0.80268 0.37507 0.85837 0.0
H656 H 0.50762 0.8667 0.94958 0.0
H657 H 0.48959 0.82993 0.94021 0.0
H658 H 0.43184 0.81943 0.9637 0.0
H659 H 0.44987 0.85611 0.9734 0.0
H660 H 0.44069 0.78991 0.97405 0.0
H661 H 0.43676 0.82026 0.91886 0.0
H662 H 0.4503 0.84493 0.89345 0.0
H663 H 0.4909 0.82262 0.87816 0.0
H664 H 0.47782 0.798 0.90364 0.0
H665 H 0.37794 0.68626 0.93771 0.0
H666 H 0.39271 0.72279 0.94693 0.0
H667 H 0.45115 0.73975 0.92046 0.0
H668 H 0.43623 0.70347 0.91075 0.0
H669 H 0.43972 0.76602 0.91149 0.0
H670 H 0.44511 0.73698 0.96749 0.0
H671 H 0.43189 0.71245 0.99303 0.0
H672 H 0.38897 0.73239 0.00694 0.0
H673 H 0.40175 0.75685 0.98133 0.0
C674 C 0.49104 0.85658 0.95262 0.0
C675 C 0.48016 0.86429 0.9622 0.0
C676 C 0.48074 0.83562 0.94718 0.0
C677 C 0.45935 0.82198 0.9512 0.0
C678 C 0.44833 0.82971 0.96045 0.0
C679 C 0.45861 0.85071 0.96582 0.0
C680 C 0.44881 0.79943 0.94645 0.0
C681 C 0.44016 0.78462 0.96033 0.0
C682 C 0.44854 0.79263 0.92862 0.0
C683 C 0.45643 0.80741 0.91327 0.0
C684 C 0.4487 0.82073 0.91017 0.0
C685 C 0.45627 0.83468 0.89574 0.0
C686 C 0.47149 0.83538 0.88422 0.0
C687 C 0.47913 0.82208 0.8871 0.0
C688 C 0.47163 0.8081 0.90153 0.0
C689 C 0.39403 0.69776 0.93408 0.0
C690 C 0.40594 0.69205 0.9235 0.0
C691 C 0.40247 0.71862 0.93938 0.0
C692 C 0.4231 0.73404 0.93446 0.0
C693 C 0.43517 0.72818 0.92433 0.0
C694 C 0.42667 0.70741 0.91886 0.0
C695 C 0.4319 0.75643 0.93913 0.0
C696 C 0.44017 0.77125 0.92522 0.0
C697 C 0.43188 0.76323 0.95695 0.0
C698 C 0.42424 0.74858 0.97238 0.0
C699 C 0.43274 0.73602 0.97591 0.0
C700 C 0.42535 0.72215 0.99042 0.0
C701 C 0.40956 0.72082 0.00157 0.0
C702 C 0.40117 0.73341 0.99827 0.0
C703 C 0.4085 0.74729 0.98378 0.0
H704 H 0.40386 0.71008 0.01279 0.0
H705 H 0.47733 0.84619 0.87305 0.0
H706 H 0.64138 0.49032 0.13572 0.0
H707 H 0.66716 0.48179 0.12496 0.0
H708 H 0.6181 0.42798 0.09671 0.0
H709 H 0.59237 0.43679 0.10672 0.0
H710 H 0.64254 0.42009 0.12246 0.0
H711 H 0.65173 0.46598 0.07272 0.0
H712 H 0.65986 0.49964 0.05968 0.0
H713 H 0.72107 0.5304 0.08415 0.0
H714 H 0.71319 0.49695 0.09754 0.0
H715 H 0.69357 0.37712 0.07834 0.0
H716 H 0.6726 0.39251 0.08576 0.0
H717 H 0.72946 0.45226 0.09544 0.0
H718 H 0.75055 0.43704 0.08641 0.0
H719 H 0.7033 0.45977 0.08139 0.0
H720 H 0.69665 0.41653 0.1308 0.0
H721 H 0.69006 0.38458 0.14628 0.0
H722 H 0.62649 0.35119 0.12667 0.0
H723 H 0.63277 0.38287 0.11088 0.0
C724 C 0.63613 0.47702 0.12679 0.0
C725 C 0.61469 0.46411 0.12226 0.0
C726 C 0.6509 0.47212 0.12074 0.0
C727 C 0.64447 0.45419 0.11015 0.0
C728 C 0.62332 0.4418 0.10498 0.0
C729 C 0.60862 0.44681 0.11081 0.0
C730 C 0.65931 0.44726 0.10566 0.0
C731 C 0.65571 0.4286 0.11332 0.0
C732 C 0.67702 0.45896 0.09445 0.0
C733 C 0.68178 0.47901 0.08628 0.0
C734 C 0.66685 0.47995 0.07545 0.0
C735 C 0.67143 0.49899 0.06797 0.0
C736 C 0.69094 0.51716 0.07113 0.0
C737 C 0.70595 0.51632 0.08173 0.0
C738 C 0.70144 0.49733 0.08925 0.0
C739 C 0.70157 0.39356 0.08204 0.0
C740 C 0.72361 0.40588 0.08207 0.0
C741 C 0.68958 0.40234 0.08643 0.0
C742 C 0.69935 0.42342 0.09184 0.0
C743 C 0.72149 0.43591 0.09149 0.0
C744 C 0.73354 0.42725 0.08641 0.0
C745 C 0.6863 0.43215 0.09784 0.0
C746 C 0.69025 0.45121 0.09061 0.0
C747 C 0.66916 0.4211 0.10989 0.0
C748 C 0.66524 0.40206 0.11956 0.0
C749 C 0.6813 0.40235 0.12972 0.0
C750 C 0.67761 0.38428 0.13855 0.0
C751 C 0.65788 0.36586 0.13743 0.0
C752 C 0.64177 0.36548 0.12752 0.0
C753 C 0.64537 0.38349 0.11865 0.0
H754 H 0.65507 0.35189 0.14427 0.0
H755 H 0.69445 0.53189 0.06533 0.0
H756 H 0.3993 0.85051 0.47657 0.0
H757 H 0.3774 0.81625 0.49028 0.0
H758 H 0.42234 0.83393 0.53333 0.0
H759 H 0.44418 0.86872 0.52 0.0
H760 H 0.40987 0.79489 0.51854 0.0
H761 H 0.37776 0.83071 0.54236 0.0
H762 H 0.36197 0.8526 0.54172 0.0
H763 H 0.31223 0.80738 0.50773 0.0
H764 H 0.32791 0.78535 0.50793 0.0
H765 H 0.34131 0.7063 0.57326 0.0
H766 H 0.3641 0.74237 0.56248 0.0
H767 H 0.32452 0.72782 0.51573 0.0
H768 H 0.30198 0.69155 0.52636 0.0
H769 H 0.33483 0.76598 0.53421 0.0
H770 H 0.36834 0.73106 0.50959 0.0
H771 H 0.3843 0.70933 0.51072 0.0
H772 H 0.43166 0.7533 0.54712 0.0
H773 H 0.41577 0.77515 0.54644 0.0
C774 C 0.40439 0.84739 0.48916 0.0
C775 C 0.42348 0.86254 0.49724 0.0
C776 C 0.39188 0.82769 0.49692 0.0
C777 C 0.39817 0.82262 0.51288 0.0
C778 C 0.41722 0.83757 0.52099 0.0
C779 C 0.42971 0.8574 0.51331 0.0
C780 C 0.385 0.80145 0.52071 0.0
C781 C 0.39357 0.78869 0.52228 0.0
C782 C 0.36362 0.79326 0.52523 0.0
C783 C 0.35414 0.80647 0.52502 0.0
C784 C 0.36356 0.82552 0.53461 0.0
C785 C 0.35461 0.83794 0.53435 0.0
C786 C 0.33614 0.83141 0.52465 0.0
C787 C 0.32656 0.81243 0.51522 0.0
C788 C 0.33546 0.79996 0.51541 0.0
C789 C 0.33763 0.71088 0.56065 0.0
C790 C 0.32014 0.69639 0.55051 0.0
C791 C 0.35058 0.73138 0.55452 0.0
C792 C 0.34599 0.73768 0.5383 0.0
C793 C 0.32829 0.7232 0.52827 0.0
C794 C 0.31553 0.70258 0.53427 0.0
C795 C 0.35966 0.75942 0.53185 0.0
C796 C 0.35117 0.77226 0.53057 0.0
C797 C 0.38113 0.76772 0.52768 0.0
C798 C 0.39071 0.75461 0.52814 0.0
C799 C 0.38203 0.73599 0.51799 0.0
C800 C 0.39108 0.72368 0.51851 0.0
C801 C 0.40894 0.7299 0.52903 0.0
C802 C 0.4178 0.74848 0.53901 0.0
C803 C 0.40878 0.76084 0.53855 0.0
H804 H 0.41594 0.72034 0.52942 0.0
H805 H 0.32922 0.84104 0.52448 0.0
H806 H 0.53702 0.39926 0.69413 0.0
H807 H 0.54242 0.37114 0.70411 0.0
H808 H 0.5929 0.3913 0.66574 0.0
H809 H 0.58734 0.41893 0.65552 0.0
H810 H 0.5668 0.34916 0.66524 0.0
H811 H 0.60295 0.4041 0.70997 0.0
H812 H 0.60517 0.42861 0.73345 0.0
H813 H 0.55873 0.37697 0.76484 0.0
H814 H 0.55604 0.35216 0.74141 0.0
H815 H 0.63385 0.3156 0.69364 0.0
H816 H 0.61692 0.33487 0.68557 0.0
H817 H 0.57114 0.30366 0.72773 0.0
H818 H 0.58819 0.28426 0.73601 0.0
H819 H 0.58773 0.34615 0.72793 0.0
H820 H 0.55605 0.29093 0.68508 0.0
H821 H 0.55471 0.2667 0.66182 0.0
H822 H 0.5926 0.3185 0.62677 0.0
H823 H 0.59452 0.34314 0.64997 0.0
C824 C 0.54921 0.39761 0.68781 0.0
C825 C 0.56191 0.41146 0.67418 0.0
C826 C 0.55233 0.38162 0.69357 0.0
C827 C 0.56815 0.37921 0.68573 0.0
C828 C 0.58062 0.39286 0.67199 0.0
C829 C 0.57757 0.40882 0.6663 0.0
C830 C 0.5721 0.36268 0.69178 0.0
C831 C 0.57144 0.34853 0.67893 0.0
C832 C 0.57746 0.36141 0.70978 0.0
C833 C 0.57909 0.37631 0.72385 0.0
C834 C 0.59308 0.39799 0.72181 0.0
C835 C 0.59445 0.41193 0.73512 0.0
C836 C 0.58205 0.40436 0.7506 0.0
C837 C 0.56829 0.38282 0.75282 0.0
C838 C 0.56684 0.36881 0.73954 0.0
C839 C 0.62008 0.31266 0.70113 0.0
C840 C 0.61234 0.29838 0.71545 0.0
C841 C 0.61036 0.32365 0.69645 0.0
C842 C 0.59264 0.32056 0.70594 0.0
C843 C 0.58475 0.30622 0.7202 0.0
C844 C 0.59445 0.2951 0.72486 0.0
C845 C 0.58309 0.33307 0.70124 0.0
C846 C 0.58267 0.34646 0.71432 0.0
C847 C 0.57674 0.33366 0.68343 0.0
C848 C 0.57553 0.3189 0.66934 0.0
C849 C 0.56423 0.29718 0.67247 0.0
C850 C 0.56335 0.28336 0.65928 0.0
C851 C 0.57357 0.29104 0.64282 0.0
C852 C 0.58468 0.31257 0.63952 0.0
C853 C 0.58566 0.32648 0.65269 0.0
H854 H 0.57285 0.2803 0.63262 0.0
H855 H 0.58314 0.41517 0.76089 0.0
H856 H 0.15791 0.5335 0.83227 0.0
H857 H 0.19183 0.54166 0.84439 0.0
H858 H 0.20752 0.60462 0.85637 0.0
H859 H 0.17317 0.5964 0.84526 0.0
H860 H 0.23758 0.59856 0.83355 0.0
H861 H 0.19811 0.57708 0.88973 0.0
H862 H 0.16869 0.55198 0.90893 0.0
H863 H 0.18724 0.50686 0.90154 0.0
H864 H 0.21661 0.5316 0.88208 0.0
H865 H 0.33285 0.64521 0.87938 0.0
H866 H 0.29691 0.63177 0.86948 0.0
H867 H 0.28167 0.56854 0.8795 0.0
H868 H 0.31764 0.58221 0.89054 0.0
H869 H 0.25041 0.57123 0.88963 0.0
H870 H 0.28956 0.59008 0.83542 0.0
H871 H 0.31827 0.61212 0.81432 0.0
H872 H 0.29975 0.65772 0.81467 0.0
H873 H 0.2711 0.63609 0.83597 0.0
C874 C 0.16824 0.54893 0.83793 0.0
C875 C 0.16269 0.5643 0.83769 0.0
C876 C 0.18772 0.55358 0.84471 0.0
C877 C 0.20212 0.57373 0.85117 0.0
C878 C 0.19659 0.589 0.85132 0.0
C879 C 0.17699 0.58428 0.84484 0.0
C880 C 0.22345 0.57929 0.85686 0.0
C881 C 0.2405 0.59282 0.84591 0.0
C882 C 0.22697 0.57089 0.87249 0.0
C883 C 0.2094 0.5561 0.88429 0.0
C884 C 0.19579 0.56174 0.89206 0.0
C885 C 0.17915 0.54759 0.90302 0.0
C886 C 0.17606 0.52782 0.90641 0.0
C887 C 0.18964 0.52217 0.89888 0.0
C888 C 0.20629 0.53625 0.8879 0.0
C889 C 0.32189 0.62842 0.8794 0.0
C890 C 0.32807 0.61472 0.88555 0.0
C891 C 0.30133 0.62072 0.87362 0.0
C892 C 0.28662 0.59907 0.87324 0.0
C893 C 0.29272 0.58531 0.87955 0.0
C894 C 0.31327 0.59309 0.88578 0.0
C895 C 0.26488 0.59108 0.86654 0.0
C896 C 0.24766 0.57697 0.8772 0.0
C897 C 0.26111 0.59847 0.85031 0.0
C898 C 0.27826 0.61151 0.8374 0.0
C899 C 0.29169 0.60487 0.83108 0.0
C900 C 0.30794 0.61728 0.81908 0.0
C901 C 0.31085 0.63633 0.81319 0.0
C902 C 0.29748 0.64297 0.81925 0.0
C903 C 0.28121 0.63062 0.83127 0.0
H904 H 0.32345 0.64592 0.8039 0.0
H905 H 0.16317 0.51689 0.9149 0.0
H906 H 0.58183 0.17029 0.99179 0.0
H907 H 0.60638 0.20577 0.00307 0.0
H908 H 0.64588 0.18491 0.02505 0.0
H909 H 0.62149 0.1494 0.01357 0.0
H910 H 0.63844 0.21231 0.04837 0.0
H911 H 0.66112 0.20811 0.9885 0.0
H912 H 0.65607 0.20041 0.95599 0.0
H913 H 0.63761 0.24563 0.94943 0.0
H914 H 0.64223 0.25335 0.98198 0.0
H915 H 0.72993 0.31085 0.06425 0.0
H916 H 0.7059 0.27508 0.0537 0.0
H917 H 0.67327 0.2968 0.02107 0.0
H918 H 0.69769 0.33276 0.0312 0.0
H919 H 0.67699 0.26843 0.00324 0.0
H920 H 0.65376 0.27298 0.06227 0.0
H921 H 0.65722 0.2805 0.09484 0.0
H922 H 0.67475 0.23484 0.10324 0.0
H923 H 0.67167 0.22724 0.07067 0.0
C924 C 0.59557 0.17321 0.9993 0.0
C925 C 0.59981 0.15717 0.00185 0.0
C926 C 0.6096 0.19346 0.00563 0.0
C927 C 0.62795 0.1979 0.01476 0.0
C928 C 0.63178 0.18173 0.018 0.0
C929 C 0.61792 0.16154 0.01143 0.0
C930 C 0.64361 0.21966 0.02019 0.0
C931 C 0.6471 0.22457 0.03855 0.0
C932 C 0.65443 0.23564 0.00731 0.0
C933 C 0.6518 0.23114 0.98771 0.0
C934 C 0.65579 0.21627 0.98016 0.0
C935 C 0.65304 0.21192 0.96172 0.0
C936 C 0.64646 0.22248 0.95066 0.0
C937 C 0.64268 0.23744 0.95801 0.0
C938 C 0.64537 0.24182 0.97646 0.0
C939 C 0.71774 0.30803 0.05472 0.0
C940 C 0.71558 0.32457 0.04863 0.0
C941 C 0.70393 0.28755 0.04878 0.0
C942 C 0.6875 0.28317 0.03688 0.0
C943 C 0.68577 0.29979 0.03032 0.0
C944 C 0.69971 0.32032 0.03612 0.0
C945 C 0.67192 0.26124 0.03152 0.0
C946 C 0.66839 0.25625 0.01313 0.0
C947 C 0.66089 0.24522 0.04441 0.0
C948 C 0.66269 0.24969 0.06401 0.0
C949 C 0.65851 0.26465 0.07105 0.0
C950 C 0.66037 0.26891 0.08951 0.0
C951 C 0.66625 0.2582 0.1011 0.0
C952 C 0.67022 0.24315 0.09425 0.0
C953 C 0.66841 0.23885 0.07579 0.0
H954 H 0.66769 0.26151 0.11539 0.0
H955 H 0.64435 0.2191 0.93638 0.0
H956 H 0.49836 0.63103 0.18133 0.0
H957 H 0.49035 0.65798 0.18976 0.0
H958 H 0.42622 0.61734 0.17221 0.0
H959 H 0.43407 0.59059 0.16372 0.0
H960 H 0.44512 0.65818 0.15875 0.0
H961 H 0.43707 0.62284 0.21573 0.0
H962 H 0.44978 0.61078 0.24073 0.0
H963 H 0.49895 0.67422 0.25169 0.0
H964 H 0.48668 0.68663 0.22658 0.0
H965 H 0.3822 0.69331 0.19401 0.0
H966 H 0.39948 0.67441 0.18573 0.0
H967 H 0.45528 0.71981 0.2145 0.0
H968 H 0.43766 0.73856 0.2234 0.0
H969 H 0.44719 0.682 0.22155 0.0
H970 H 0.45364 0.71849 0.16781 0.0
H971 H 0.44226 0.73185 0.14287 0.0
H972 H 0.39908 0.66891 0.12499 0.0
H973 H 0.40996 0.65513 0.15002 0.0
C974 C 0.48256 0.62787 0.17935 0.0
C975 C 0.4668 0.60862 0.17202 0.0
C976 C 0.478 0.64323 0.1842 0.0
C977 C 0.45768 0.63962 0.18162 0.0
C978 C 0.44199 0.62044 0.17431 0.0
C979 C 0.44646 0.60508 0.16964 0.0
C980 C 0.45252 0.65575 0.18625 0.0
C981 C 0.44547 0.66335 0.17248 0.0
C982 C 0.45383 0.66311 0.20405 0.0
C983 C 0.46112 0.65563 0.21915 0.0
C984 C 0.4507 0.6342 0.22337 0.0
C985 C 0.4578 0.6273 0.23758 0.0
C986 C 0.4752 0.64171 0.24775 0.0
C987 C 0.4855 0.66307 0.24378 0.0
C988 C 0.47847 0.67004 0.22957 0.0
C989 C 0.39821 0.69942 0.19848 0.0
C990 C 0.4086 0.7175 0.20928 0.0
C991 C 0.40814 0.68862 0.19365 0.0
C992 C 0.42886 0.69587 0.1992 0.0
C993 C 0.43933 0.71397 0.20999 0.0
C994 C 0.42928 0.7247 0.21501 0.0
C995 C 0.43907 0.68397 0.19411 0.0
C996 C 0.44715 0.67719 0.20775 0.0
C997 C 0.43901 0.67759 0.17612 0.0
C998 C 0.43255 0.68577 0.16088 0.0
C999 C 0.44163 0.70748 0.15863 0.0
C1000 C 0.43527 0.71513 0.14446 0.0
C1001 C 0.41993 0.70124 0.13235 0.0
C1002 C 0.41096 0.67965 0.13437 0.0
C1003 C 0.41724 0.67191 0.14854 0.0
H1004 H 0.41503 0.70721 0.1214 0.0
H1005 H 0.48067 0.63635 0.25875 0.0
H1006 H 0.84769 0.4316 0.33827 0.0
H1007 H 0.81268 0.42227 0.34822 0.0
H1008 H 0.83409 0.48764 0.35562 0.0
H1009 H 0.86962 0.49717 0.34639 0.0
H1010 H 0.80742 0.46342 0.38255 0.0
H1011 H 0.80748 0.46239 0.31793 0.0
H1012 H 0.81386 0.45236 0.28801 0.0
H1013 H 0.77086 0.38744 0.3 0.0
H1014 H 0.76445 0.39707 0.3301 0.0
H1015 H 0.70072 0.43802 0.39068 0.0
H1016 H 0.73751 0.4542 0.38106 0.0
H1017 H 0.72546 0.39355 0.36419 0.0
H1018 H 0.68872 0.37769 0.37285 0.0
H1019 H 0.74851 0.41998 0.34063 0.0
H1020 H 0.75115 0.41989 0.4059 0.0
H1021 H 0.74535 0.42892 0.43648 0.0
H1022 H 0.78322 0.49442 0.424 0.0
H1023 H 0.78905 0.48576 0.39328 0.0
C1024 C 0.84517 0.44403 0.3424 0.0
C1025 C 0.86152 0.46517 0.34146 0.0
C1026 C 0.82503 0.43866 0.34787 0.0
C1027 C 0.82068 0.45428 0.3523 0.0
C1028 C 0.83709 0.47535 0.3521 0.0
C1029 C 0.85733 0.48076 0.3467 0.0
C1030 C 0.79881 0.44849 0.35654 0.0
C1031 C 0.79454 0.45418 0.37331 0.0
C1032 C 0.78201 0.43625 0.34454 0.0
C1033 C 0.78559 0.43046 0.32632 0.0
C1034 C 0.79947 0.44597 0.31422 0.0
C1035 C 0.80308 0.44035 0.29723 0.0
C1036 C 0.79279 0.41927 0.29212 0.0
C1037 C 0.77882 0.40377 0.30398 0.0
C1038 C 0.77517 0.4093 0.321 0.0
C1039 C 0.70597 0.42824 0.38481 0.0
C1040 C 0.69188 0.40661 0.3825 0.0
C1041 C 0.72702 0.43745 0.37943 0.0
C1042 C 0.73443 0.42507 0.37214 0.0
C1043 C 0.72021 0.4035 0.36971 0.0
C1044 C 0.69917 0.39442 0.3747 0.0
C1045 C 0.75688 0.43423 0.36697 0.0
C1046 C 0.76133 0.42932 0.34991 0.0
C1047 C 0.77379 0.447 0.37879 0.0
C1048 C 0.77033 0.45218 0.39725 0.0
C1049 C 0.75812 0.43621 0.40965 0.0
C1050 C 0.75485 0.44126 0.42701 0.0
C1051 C 0.76386 0.46222 0.43216 0.0
C1052 C 0.77622 0.47819 0.41998 0.0
C1053 C 0.77952 0.47322 0.4026 0.0
H1054 H 0.7613 0.4661 0.4456 0.0
H1055 H 0.79562 0.41496 0.27896 0.0
H1056 H 0.14046 0.56609 0.39504 0.0
H1057 H 0.1654 0.57332 0.4195 0.0
H1058 H 0.13469 0.5975 0.45211 0.0
H1059 H 0.10973 0.59032 0.42769 0.0
H1060 H 0.19307 0.6128 0.43366 0.0
H1061 H 0.13862 0.58616 0.49632 0.0
H1062 H 0.10253 0.55858 0.50468 0.0
H1063 H 0.1024 0.5187 0.46284 0.0
H1064 H 0.13858 0.5459 0.4544 0.0
H1065 H 0.24389 0.66602 0.5144 0.0
H1066 H 0.21997 0.64967 0.48894 0.0
H1067 H 0.21307 0.59027 0.50185 0.0
H1068 H 0.23711 0.6065 0.52734 0.0
H1069 H 0.17469 0.58777 0.49656 0.0
H1070 H 0.24046 0.6144 0.46631 0.0
H1071 H 0.2768 0.64105 0.45775 0.0
H1072 H 0.25495 0.67857 0.43415 0.0
H1073 H 0.21849 0.65228 0.4428 0.0
C1074 C 0.13875 0.57251 0.40758 0.0
C1075 C 0.12315 0.57763 0.4095 0.0
C1076 C 0.15309 0.57678 0.42147 0.0
C1077 C 0.15186 0.58591 0.4376 0.0
C1078 C 0.13581 0.59029 0.43981 0.0
C1079 C 0.12162 0.58626 0.42586 0.0
C1080 C 0.16815 0.5922 0.45169 0.0
C1081 C 0.18909 0.60723 0.44739 0.0
C1082 C 0.16296 0.58472 0.46953 0.0
C1083 C 0.14126 0.56816 0.47463 0.0
C1084 C 0.13093 0.57147 0.48895 0.0
C1085 C 0.11044 0.55591 0.4937 0.0
C1086 C 0.10016 0.53692 0.48426 0.0
C1087 C 0.11035 0.53344 0.47009 0.0
C1088 C 0.13083 0.54894 0.4653 0.0
C1089 C 0.23742 0.64951 0.51177 0.0
C1090 C 0.24239 0.63757 0.52294 0.0
C1091 C 0.22381 0.64021 0.49717 0.0
C1092 C 0.21481 0.61878 0.49351 0.0
C1093 C 0.21987 0.60684 0.50448 0.0
C1094 C 0.23369 0.61618 0.51897 0.0
C1095 C 0.19948 0.60878 0.47861 0.0
C1096 C 0.17871 0.59314 0.48278 0.0
C1097 C 0.20485 0.6156 0.46062 0.0
C1098 C 0.22675 0.63143 0.45533 0.0
C1099 C 0.24342 0.62841 0.45942 0.0
C1100 C 0.26404 0.64344 0.45453 0.0
C1101 C 0.26819 0.66151 0.44545 0.0
C1102 C 0.25171 0.66457 0.4412 0.0
C1103 C 0.23106 0.64959 0.44607 0.0
H1104 H 0.28417 0.67313 0.44167 0.0
H1105 H 0.0843 0.5249 0.48795 0.0
H1106 H 0.57059 0.14113 0.55497 0.0
H1107 H 0.58545 0.16244 0.58194 0.0
H1108 H 0.52911 0.12047 0.61152 0.0
H1109 H 0.5143 0.0983 0.58469 0.0
H1110 H 0.54506 0.16568 0.61535 0.0
H1111 H 0.56778 0.11642 0.62058 0.0
H1112 H 0.58366 0.09655 0.60969 0.0
H1113 H 0.64216 0.15403 0.60022 0.0
H1114 H 0.62653 0.17427 0.6108 0.0
H1115 H 0.59387 0.21685 0.69885 0.0
H1116 H 0.57338 0.19185 0.67487 0.0
H1117 H 0.62995 0.21522 0.64319 0.0
H1118 H 0.65049 0.23931 0.66743 0.0
H1119 H 0.61049 0.17568 0.64247 0.0
H1120 H 0.58846 0.22543 0.63448 0.0
H1121 H 0.57315 0.24649 0.64344 0.0
H1122 H 0.51466 0.19036 0.65615 0.0
H1123 H 0.52973 0.16897 0.64753 0.0
C1124 C 0.56143 0.13607 0.56724 0.0
C1125 C 0.54129 0.11776 0.56763 0.0
C1126 C 0.56991 0.14844 0.58262 0.0
C1127 C 0.5584 0.14295 0.59868 0.0
C1128 C 0.53819 0.12495 0.59918 0.0
C1129 C 0.52975 0.11235 0.58382 0.0
C1130 C 0.56778 0.15616 0.6149 0.0
C1131 C 0.55917 0.16767 0.62155 0.0
C1132 C 0.58642 0.159 0.6226 0.0
C1133 C 0.59592 0.14686 0.61635 0.0
C1134 C 0.58398 0.12483 0.61604 0.0
C1135 C 0.59295 0.1135 0.60995 0.0
C1136 C 0.6139 0.12402 0.60423 0.0
C1137 C 0.62593 0.1459 0.60464 0.0
C1138 C 0.61703 0.15731 0.6107 0.0
C1139 C 0.60183 0.21675 0.68666 0.0
C1140 C 0.62376 0.22992 0.68501 0.0
C1141 C 0.59011 0.20252 0.67293 0.0
C1142 C 0.60007 0.20166 0.65711 0.0
C1143 C 0.62189 0.21539 0.65528 0.0
C1144 C 0.63362 0.22923 0.66912 0.0
C1145 C 0.58821 0.18588 0.64277 0.0
C1146 C 0.59631 0.17373 0.63646 0.0
C1147 C 0.56929 0.18272 0.63523 0.0
C1148 C 0.5603 0.19561 0.64055 0.0
C1149 C 0.5724 0.21759 0.63934 0.0
C1150 C 0.56375 0.22959 0.64433 0.0
C1151 C 0.54295 0.21976 0.65039 0.0
C1152 C 0.53077 0.19794 0.65148 0.0
C1153 C 0.53935 0.18587 0.64654 0.0
H1154 H 0.53623 0.22904 0.65419 0.0
H1155 H 0.62081 0.11522 0.59952 0.0
H1156 H 0.46984 0.58833 0.73683 0.0
H1157 H 0.45827 0.59655 0.7646 0.0
H1158 H 0.41377 0.53092 0.77338 0.0
H1159 H 0.42606 0.52223 0.74593 0.0
H1160 H 0.39816 0.56117 0.77688 0.0
H1161 H 0.45003 0.54755 0.79931 0.0
H1162 H 0.48439 0.55008 0.79975 0.0
H1163 H 0.51575 0.61672 0.8071 0.0
H1164 H 0.48158 0.61464 0.80643 0.0
H1165 H 0.381 0.5933 0.86457 0.0
H1166 H 0.38515 0.57357 0.84009 0.0
H1167 H 0.44363 0.62891 0.8248 0.0
H1168 H 0.43982 0.64851 0.84911 0.0
H1169 H 0.4483 0.59614 0.8273 0.0
H1170 H 0.39811 0.6109 0.80067 0.0
H1171 H 0.36447 0.60982 0.7992 0.0
H1172 H 0.33055 0.54256 0.79898 0.0
H1173 H 0.36402 0.54325 0.8007 0.0
C1174 C 0.45795 0.57549 0.74478 0.0
C1175 C 0.44912 0.55455 0.73913 0.0
C1176 C 0.45118 0.58029 0.76057 0.0
C1177 C 0.43522 0.56434 0.77099 0.0
C1178 C 0.42607 0.54343 0.76542 0.0
C1179 C 0.4331 0.53854 0.7497 0.0
C1180 C 0.42847 0.56993 0.78773 0.0
C1181 C 0.40886 0.56837 0.78815 0.0
C1182 C 0.44263 0.5796 0.8022 0.0
C1183 C 0.46324 0.58094 0.80269 0.0
C1184 C 0.46426 0.56277 0.80087 0.0
C1185 C 0.4837 0.56412 0.80119 0.0
C1186 C 0.50224 0.58355 0.80342 0.0
C1187 C 0.50137 0.60168 0.80537 0.0
C1188 C 0.48197 0.60042 0.80504 0.0
C1189 C 0.39463 0.60129 0.85588 0.0
C1190 C 0.41015 0.62246 0.85891 0.0
C1191 C 0.39698 0.58999 0.8419 0.0
C1192 C 0.41476 0.59976 0.83067 0.0
C1193 C 0.4299 0.62099 0.83341 0.0
C1194 C 0.42764 0.6322 0.84733 0.0
C1195 C 0.41823 0.58807 0.81627 0.0
C1196 C 0.43732 0.58851 0.81628 0.0
C1197 C 0.40363 0.57755 0.80217 0.0
C1198 C 0.38354 0.57713 0.80105 0.0
C1199 C 0.38347 0.59588 0.80047 0.0
C1200 C 0.36444 0.59534 0.79956 0.0
C1201 C 0.34538 0.57613 0.79907 0.0
C1202 C 0.34532 0.55742 0.79941 0.0
C1203 C 0.36432 0.55788 0.80035 0.0
H1204 H 0.33066 0.57575 0.79837 0.0
H1205 H 0.51728 0.58457 0.80367 0.0
H1206 H 0.90738 0.46762 0.90537 0.0
H1207 H 0.88353 0.45882 0.93084 0.0
H1208 H 0.87956 0.39943 0.93602 0.0
H1209 H 0.90162 0.40715 0.90969 0.0
H1210 H 0.84261 0.39297 0.93793 0.0
H1211 H 0.90886 0.44433 0.96576 0.0
H1212 H 0.94126 0.47907 0.96891 0.0
H1213 H 0.90435 0.50773 0.97426 0.0
H1214 H 0.87173 0.47317 0.97092 0.0
H1215 H 0.80292 0.35894 0.02425 0.0
H1216 H 0.82585 0.37354 0.99823 0.0
H1217 H 0.81471 0.42461 0.99696 0.0
H1218 H 0.79176 0.4102 0.02338 0.0
H1219 H 0.8566 0.4379 0.99174 0.0
H1220 H 0.79035 0.38558 0.9669 0.0
H1221 H 0.75822 0.35055 0.96447 0.0
H1222 H 0.79573 0.32339 0.95389 0.0
H1223 H 0.82811 0.35822 0.95651 0.0
C1224 C 0.90134 0.4526 0.9118 0.0
C1225 C 0.90653 0.43812 0.90527 0.0
C1226 C 0.88791 0.44772 0.9266 0.0
C1227 C 0.87982 0.4285 0.93551 0.0
C1228 C 0.88553 0.41436 0.92939 0.0
C1229 C 0.89852 0.41899 0.91441 0.0
C1230 C 0.86459 0.42242 0.95064 0.0
C1231 C 0.84586 0.40275 0.94977 0.0
C1232 C 0.86828 0.43547 0.96581 0.0
C1233 C 0.88788 0.4562 0.9679 0.0
C1234 C 0.90767 0.45806 0.96748 0.0
C1235 C 0.92607 0.47771 0.96932 0.0
C1236 C 0.92486 0.49561 0.97173 0.0
C1237 C 0.90526 0.49387 0.97236 0.0
C1238 C 0.88681 0.47425 0.97051 0.0
C1239 C 0.80524 0.37327 0.0185 0.0
C1240 C 0.79532 0.3833 0.0259 0.0
C1241 C 0.81836 0.38157 0.00356 0.0
C1242 C 0.82174 0.39999 0.99549 0.0
C1243 C 0.81222 0.41032 0.00295 0.0
C1244 C 0.79906 0.40202 0.018 0.0
C1245 C 0.83521 0.40818 0.97923 0.0
C1246 C 0.85341 0.42825 0.97983 0.0
C1247 C 0.83115 0.39547 0.96381 0.0
C1248 C 0.81167 0.37451 0.96201 0.0
C1249 C 0.79176 0.37213 0.96416 0.0
C1250 C 0.7735 0.3523 0.96274 0.0
C1251 C 0.77494 0.33475 0.95906 0.0
C1252 C 0.79464 0.33699 0.95674 0.0
C1253 C 0.81295 0.35678 0.95817 0.0
H1254 H 0.76078 0.31942 0.95797 0.0
H1255 H 0.93912 0.51081 0.97315 0.0
H1256 H 0.4572 0.90726 0.07032 0.0
H1257 H 0.44154 0.88429 0.09606 0.0
H1258 H 0.49727 0.88079 0.10196 0.0
H1259 H 0.51234 0.9023 0.07524 0.0
H1260 H 0.46531 0.84391 0.10469 0.0
H1261 H 0.48313 0.90897 0.13227 0.0
H1262 H 0.48468 0.94257 0.13557 0.0
H1263 H 0.4172 0.90997 0.13767 0.0
H1264 H 0.41522 0.87618 0.13414 0.0
H1265 H 0.4253 0.78802 0.18805 0.0
H1266 H 0.44717 0.81422 0.16548 0.0
H1267 H 0.39398 0.81848 0.14919 0.0
H1268 H 0.37216 0.79266 0.1717 0.0
H1269 H 0.42846 0.85669 0.15413 0.0
H1270 H 0.41134 0.79204 0.1239 0.0
H1271 H 0.41022 0.75863 0.12068 0.0
H1272 H 0.4776 0.7913 0.12442 0.0
H1273 H 0.4791 0.82489 0.1279 0.0
C1274 C 0.46616 0.90158 0.077 0.0
C1275 C 0.48603 0.90661 0.07051 0.0
C1276 C 0.45728 0.88866 0.09197 0.0
C1277 C 0.4683 0.88097 0.10118 0.0
C1278 C 0.48844 0.88654 0.09513 0.0
C1279 C 0.49718 0.89913 0.07994 0.0
C1280 C 0.45823 0.86603 0.11633 0.0
C1281 C 0.45764 0.84694 0.11569 0.0
C1282 C 0.44789 0.86973 0.13059 0.0
C1283 C 0.44903 0.89004 0.13282 0.0
C1284 C 0.46861 0.90897 0.13333 0.0
C1285 C 0.46957 0.92805 0.13525 0.0
C1286 C 0.45105 0.92841 0.1368 0.0
C1287 C 0.43153 0.90967 0.13647 0.0
C1288 C 0.43048 0.89055 0.13453 0.0
C1289 C 0.41822 0.79441 0.17958 0.0
C1290 C 0.39696 0.78824 0.18176 0.0
C1291 C 0.43074 0.80937 0.16667 0.0
C1292 C 0.42219 0.81829 0.15565 0.0
C1293 C 0.40094 0.81191 0.15763 0.0
C1294 C 0.38846 0.79705 0.17049 0.0
C1295 C 0.43527 0.83457 0.14222 0.0
C1296 C 0.43642 0.85388 0.14323 0.0
C1297 C 0.44624 0.83114 0.1284 0.0
C1298 C 0.44531 0.81094 0.12635 0.0
C1299 C 0.4259 0.79207 0.12419 0.0
C1300 C 0.4252 0.77311 0.12229 0.0
C1301 C 0.44382 0.77284 0.12238 0.0
C1302 C 0.46319 0.79153 0.12438 0.0
C1303 C 0.46398 0.81054 0.1263 0.0
H1304 H 0.44325 0.75816 0.12083 0.0
H1305 H 0.45182 0.9432 0.13828 0.0
H1306 H 0.55228 0.42869 0.23088 0.0
H1307 H 0.56123 0.4191 0.25918 0.0
H1308 H 0.60572 0.48417 0.27089 0.0
H1309 H 0.59621 0.49417 0.24276 0.0
H1310 H 0.62142 0.45622 0.27553 0.0
H1311 H 0.56398 0.46324 0.2943 0.0
H1312 H 0.52846 0.45795 0.29244 0.0
H1313 H 0.50093 0.39145 0.29699 0.0
H1314 H 0.5363 0.39632 0.29861 0.0
H1315 H 0.63504 0.42339 0.36292 0.0
H1316 H 0.63039 0.44242 0.33844 0.0
H1317 H 0.57492 0.38519 0.32085 0.0
H1318 H 0.57911 0.36629 0.34537 0.0
H1319 H 0.56718 0.41546 0.32177 0.0
H1320 H 0.62349 0.40745 0.29878 0.0
H1321 H 0.65857 0.41155 0.29946 0.0
H1322 H 0.68774 0.47844 0.30188 0.0
H1323 H 0.6528 0.47471 0.30144 0.0
C1324 C 0.56361 0.4411 0.23958 0.0
C1325 C 0.57332 0.46228 0.23453 0.0
C1326 C 0.56884 0.43553 0.25572 0.0
C1327 C 0.58403 0.45093 0.26714 0.0
C1328 C 0.59396 0.47207 0.2622 0.0
C1329 C 0.58854 0.47772 0.24609 0.0
C1330 C 0.58954 0.44457 0.28407 0.0
C1331 C 0.60974 0.4477 0.28588 0.0
C1332 C 0.57415 0.43316 0.29734 0.0
C1333 C 0.55282 0.43015 0.29646 0.0
C1334 C 0.55036 0.44748 0.29477 0.0
C1335 C 0.53025 0.44455 0.29378 0.0
C1336 C 0.51245 0.42437 0.29456 0.0
C1337 C 0.51473 0.40707 0.29638 0.0
C1338 C 0.53481 0.40991 0.29736 0.0
C1339 C 0.62193 0.41486 0.35376 0.0
C1340 C 0.6074 0.39332 0.35617 0.0
C1341 C 0.61931 0.42575 0.33975 0.0
C1342 C 0.60232 0.41523 0.32776 0.0
C1343 C 0.58806 0.39369 0.33 0.0
C1344 C 0.59053 0.38288 0.34403 0.0
C1345 C 0.59888 0.42645 0.31301 0.0
C1346 C 0.57903 0.42427 0.31163 0.0
C1347 C 0.61455 0.43855 0.30008 0.0
C1348 C 0.63554 0.44079 0.30031 0.0
C1349 C 0.63738 0.42302 0.29961 0.0
C1350 C 0.65724 0.42528 0.29992 0.0
C1351 C 0.67537 0.44524 0.30078 0.0
C1352 C 0.67368 0.46299 0.30126 0.0
C1353 C 0.65386 0.46081 0.30097 0.0
H1354 H 0.69073 0.44695 0.30102 0.0
H1355 H 0.4969 0.42214 0.2938 0.0
H1356 H 0.44545 0.91739 0.37291 0.0
H1357 H 0.43171 0.89432 0.34658 0.0
H1358 H 0.45178 0.85462 0.36924 0.0
H1359 H 0.46513 0.87725 0.39574 0.0
H1360 H 0.46034 0.86139 0.33274 0.0
H1361 H 0.40177 0.84064 0.37297 0.0
H1362 H 0.37808 0.84663 0.39183 0.0
H1363 H 0.35981 0.86762 0.3456 0.0
H1364 H 0.38364 0.86204 0.3265 0.0
H1365 H 0.40059 0.77232 0.27656 0.0
H1366 H 0.41641 0.79599 0.30233 0.0
H1367 H 0.38765 0.83049 0.28544 0.0
H1368 H 0.37103 0.80632 0.26027 0.0
H1369 H 0.38405 0.82654 0.31935 0.0
H1370 H 0.44224 0.84791 0.27885 0.0
H1371 H 0.46638 0.84301 0.25957 0.0
H1372 H 0.48598 0.82242 0.3052 0.0
H1373 H 0.46175 0.82695 0.32471 0.0
C1374 C 0.44694 0.90375 0.37231 0.0
C1375 C 0.45635 0.89917 0.38651 0.0
C1376 C 0.43914 0.89063 0.35723 0.0
C1377 C 0.44055 0.87266 0.35605 0.0
C1378 C 0.45058 0.86844 0.36986 0.0
C1379 C 0.45831 0.88149 0.38497 0.0
C1380 C 0.43084 0.85778 0.3408 0.0
C1381 C 0.44363 0.85359 0.32987 0.0
C1382 C 0.40912 0.84794 0.3369 0.0
C1383 C 0.39464 0.85111 0.34835 0.0
C1384 C 0.39282 0.84668 0.36685 0.0
C1385 C 0.37935 0.84998 0.37758 0.0
C1386 C 0.36749 0.85755 0.36993 0.0
C1387 C 0.36903 0.86178 0.35152 0.0
C1388 C 0.3825 0.85854 0.34073 0.0
C1389 C 0.39765 0.78495 0.27838 0.0
C1390 C 0.38458 0.78746 0.26638 0.0
C1391 C 0.40681 0.79857 0.29305 0.0
C1392 C 0.40357 0.81532 0.2957 0.0
C1393 C 0.39041 0.81772 0.28374 0.0
C1394 C 0.38092 0.80388 0.26933 0.0
C1395 C 0.41356 0.83022 0.31101 0.0
C1396 C 0.4008 0.83436 0.32206 0.0
C1397 C 0.43536 0.84017 0.31489 0.0
C1398 C 0.45004 0.83758 0.3032 0.0
C1399 C 0.4516 0.84221 0.28474 0.0
C1400 C 0.46531 0.83952 0.27378 0.0
C1401 C 0.47766 0.83236 0.28115 0.0
C1402 C 0.47638 0.82794 0.29951 0.0
C1403 C 0.46268 0.83058 0.31053 0.0
H1404 H 0.48826 0.83028 0.27264 0.0
H1405 H 0.35707 0.8601 0.37826 0.0
H1406 H 0.55799 0.42252 0.57706 0.0
H1407 H 0.56804 0.41251 0.54918 0.0
H1408 H 0.5813 0.47023 0.52456 0.0
H1409 H 0.57122 0.4804 0.55256 0.0
H1410 H 0.55807 0.43446 0.50234 0.0
H1411 H 0.62122 0.46806 0.53682 0.0
H1412 H 0.6432 0.47531 0.5638 0.0
H1413 H 0.62992 0.41213 0.56296 0.0
H1414 H 0.60757 0.4044 0.53612 0.0
H1415 H 0.633 0.41379 0.44352 0.0
H1416 H 0.62743 0.43141 0.46885 0.0
H1417 H 0.5625 0.38121 0.47199 0.0
H1418 H 0.56777 0.3636 0.44668 0.0
H1419 H 0.61565 0.41949 0.5032 0.0
H1420 H 0.53218 0.40087 0.4835 0.0
H1421 H 0.51145 0.39556 0.45601 0.0
H1422 H 0.56838 0.43317 0.42599 0.0
H1423 H 0.58943 0.43894 0.45334 0.0
C1424 C 0.5628 0.43297 0.56564 0.0
C1425 C 0.56374 0.4522 0.56694 0.0
C1426 C 0.56869 0.42731 0.54979 0.0
C1427 C 0.57557 0.44072 0.53489 0.0
C1428 C 0.57609 0.45972 0.53595 0.0
C1429 C 0.57041 0.46552 0.55193 0.0
C1430 C 0.58228 0.43474 0.51831 0.0
C1431 C 0.57071 0.43127 0.50247 0.0
C1432 C 0.59907 0.43103 0.51844 0.0
C1433 C 0.61258 0.43561 0.53453 0.0
C1434 C 0.62284 0.45566 0.54247 0.0
C1435 C 0.6354 0.45987 0.55772 0.0
C1436 C 0.63793 0.44418 0.56511 0.0
C1437 C 0.62794 0.42427 0.55723 0.0
C1438 C 0.61534 0.41997 0.54198 0.0
C1439 C 0.61753 0.40647 0.44959 0.0
C1440 C 0.60082 0.3873 0.44296 0.0
C1441 C 0.61439 0.41657 0.46408 0.0
C1442 C 0.59448 0.40777 0.47213 0.0
C1443 C 0.5779 0.38848 0.46576 0.0
C1444 C 0.581 0.37838 0.45132 0.0
C1445 C 0.59098 0.4185 0.48736 0.0
C1446 C 0.60314 0.42285 0.50298 0.0
C1447 C 0.57492 0.4233 0.48694 0.0
C1448 C 0.56238 0.42019 0.47046 0.0
C1449 C 0.54027 0.40809 0.47106 0.0
C1450 C 0.52846 0.40499 0.45549 0.0
C1451 C 0.5386 0.41398 0.43926 0.0
C1452 C 0.56055 0.42615 0.43856 0.0
C1453 C 0.57243 0.42933 0.45409 0.0
H1454 H 0.52943 0.41153 0.42722 0.0
H1455 H 0.64765 0.44747 0.57692 0.0
H1456 H 0.12079 0.52248 0.7224 0.0
H1457 H 0.14248 0.5321 0.69522 0.0
H1458 H 0.14814 0.59243 0.69516 0.0
H1459 H 0.12775 0.58369 0.72275 0.0
H1460 H 0.1384 0.57061 0.66036 0.0
H1461 H 0.18629 0.59148 0.71151 0.0
H1462 H 0.19938 0.58452 0.73943 0.0
H1463 H 0.2088 0.53963 0.7115 0.0
H1464 H 0.19544 0.54612 0.68346 0.0
H1465 H 0.22536 0.64618 0.61332 0.0
H1466 H 0.19942 0.62494 0.63595 0.0
H1467 H 0.21485 0.57712 0.62963 0.0
H1468 H 0.24125 0.5985 0.60684 0.0
H1469 H 0.21123 0.58485 0.66504 0.0
H1470 H 0.16952 0.56827 0.6127 0.0
H1471 H 0.15639 0.57461 0.58452 0.0
H1472 H 0.13445 0.60933 0.61363 0.0
H1473 H 0.14775 0.60348 0.64196 0.0
C1474 C 0.12671 0.53786 0.71672 0.0
C1475 C 0.12243 0.55228 0.72495 0.0
C1476 C 0.13897 0.54322 0.70109 0.0
C1477 C 0.14686 0.56295 0.69324 0.0
C1478 C 0.14202 0.57705 0.70096 0.0
C1479 C 0.13016 0.5719 0.71672 0.0
C1480 C 0.16106 0.56957 0.67749 0.0
C1481 C 0.15433 0.57374 0.66132 0.0
C1482 C 0.18156 0.57292 0.67865 0.0
C1483 C 0.18959 0.56906 0.69547 0.0
C1484 C 0.19094 0.57996 0.71138 0.0
C1485 C 0.19845 0.57614 0.72721 0.0
C1486 C 0.20484 0.56158 0.72726 0.0
C1487 C 0.20379 0.55086 0.71145 0.0
C1488 C 0.19625 0.55461 0.69559 0.0
C1489 C 0.22335 0.63118 0.61666 0.0
C1490 C 0.23541 0.62406 0.60814 0.0
C1491 C 0.20836 0.61896 0.62957 0.0
C1492 C 0.20493 0.59929 0.63425 0.0
C1493 C 0.21715 0.59221 0.6261 0.0
C1494 C 0.23221 0.60445 0.61308 0.0
C1495 C 0.18882 0.58657 0.648 0.0
C1496 C 0.19516 0.58126 0.66382 0.0
C1497 C 0.16786 0.58196 0.64646 0.0
C1498 C 0.15976 0.58553 0.62946 0.0
C1499 C 0.16204 0.57739 0.61308 0.0
C1500 C 0.15454 0.58088 0.59708 0.0
C1501 C 0.14461 0.59239 0.59728 0.0
C1502 C 0.14214 0.60041 0.6135 0.0
C1503 C 0.14963 0.59699 0.62954 0.0
H1504 H 0.13881 0.59507 0.58488 0.0
H1505 H 0.21067 0.55865 0.73953 0.0
H1506 H 0.57519 0.09919 0.87763 0.0
H1507 H 0.58907 0.12167 0.85112 0.0
H1508 H 0.57283 0.16421 0.87463 0.0
H1509 H 0.55964 0.14238 0.90139 0.0
H1510 H 0.56201 0.15555 0.83794 0.0
H1511 H 0.62159 0.17668 0.87701 0.0
H1512 H 0.64542 0.17068 0.89545 0.0
H1513 H 0.66154 0.14749 0.84902 0.0
H1514 H 0.63756 0.15308 0.83035 0.0
H1515 H 0.62125 0.24355 0.78154 0.0
H1516 H 0.60583 0.22012 0.8073 0.0
H1517 H 0.63347 0.18483 0.78914 0.0
H1518 H 0.64969 0.20874 0.7639 0.0
H1519 H 0.63785 0.18905 0.82313 0.0
H1520 H 0.5791 0.16775 0.78366 0.0
H1521 H 0.5547 0.17246 0.76477 0.0
H1522 H 0.53616 0.19406 0.81076 0.0
H1523 H 0.56066 0.18973 0.82988 0.0
C1524 C 0.57463 0.11336 0.87722 0.0
C1525 C 0.56628 0.11892 0.89172 0.0
C1526 C 0.58248 0.12613 0.86202 0.0
C1527 C 0.58205 0.14463 0.86099 0.0
C1528 C 0.57319 0.14993 0.87514 0.0
C1529 C 0.56553 0.13731 0.89039 0.0
C1530 C 0.59152 0.15893 0.84546 0.0
C1531 C 0.57863 0.16305 0.83475 0.0
C1532 C 0.61308 0.16831 0.84114 0.0
C1533 C 0.62762 0.1651 0.85233 0.0
C1534 C 0.63009 0.17014 0.87076 0.0
C1535 C 0.64364 0.16684 0.88126 0.0
C1536 C 0.65494 0.15865 0.87343 0.0
C1537 C 0.65275 0.1538 0.85508 0.0
C1538 C 0.6392 0.15705 0.84453 0.0
C1539 C 0.62404 0.2308 0.78307 0.0
C1540 C 0.63667 0.22799 0.77068 0.0
C1541 C 0.6151 0.21732 0.79774 0.0
C1542 C 0.61813 0.20042 0.80004 0.0
C1543 C 0.63087 0.19772 0.78771 0.0
C1544 C 0.64013 0.21141 0.77326 0.0
C1545 C 0.60834 0.18569 0.81537 0.0
C1546 C 0.62119 0.18151 0.82615 0.0
C1547 C 0.58666 0.17607 0.81962 0.0
C1548 C 0.57186 0.1786 0.80816 0.0
C1549 C 0.56992 0.17364 0.78972 0.0
C1550 C 0.55606 0.17622 0.77898 0.0
C1551 C 0.54393 0.18361 0.78655 0.0
C1552 C 0.54559 0.18837 0.80491 0.0
C1553 C 0.55944 0.18583 0.8157 0.0
H1554 H 0.53321 0.1856 0.77822 0.0
H1555 H 0.66543 0.15611 0.88157 0.0
H1556 H 0.47501 0.55728 0.05121 0.0
H1557 H 0.46558 0.56854 0.02381 0.0
H1558 H 0.41476 0.56825 0.05209 0.0
H1559 H 0.42411 0.55709 0.0795 0.0
H1560 H 0.40336 0.5527 0.01775 0.0
H1561 H 0.46124 0.61341 0.04693 0.0
H1562 H 0.49677 0.63369 0.0602 0.0
H1563 H 0.524 0.63151 0.00985 0.0
H1564 H 0.4886 0.61095 0.99636 0.0
H1565 H 0.38788 0.61794 0.95798 0.0
H1566 H 0.39318 0.60086 0.98373 0.0
H1567 H 0.45082 0.61135 0.95976 0.0
H1568 H 0.44621 0.62959 0.93478 0.0
H1569 H 0.4582 0.62077 0.99216 0.0
H1570 H 0.4012 0.56076 0.96224 0.0
H1571 H 0.36594 0.53953 0.94864 0.0
H1572 H 0.33734 0.53904 0.99902 0.0
H1573 H 0.37243 0.56049 0.01288 0.0
C1574 C 0.46178 0.55953 0.05156 0.0
C1575 C 0.4504 0.55641 0.06756 0.0
C1576 C 0.45637 0.56591 0.0359 0.0
C1577 C 0.43963 0.56949 0.03599 0.0
C1578 C 0.4277 0.56554 0.05172 0.0
C1579 C 0.43306 0.55911 0.06736 0.0
C1580 C 0.43532 0.57854 0.02006 0.0
C1581 C 0.41526 0.56765 0.01218 0.0
C1582 C 0.45098 0.59786 0.01265 0.0
C1583 C 0.47227 0.61049 0.02069 0.0
C1584 C 0.4748 0.61715 0.03873 0.0
C1585 C 0.49491 0.62871 0.04628 0.0
C1586 C 0.51263 0.63384 0.03589 0.0
C1587 C 0.51027 0.62749 0.0179 0.0
C1588 C 0.49019 0.61591 0.01028 0.0
C1589 C 0.40159 0.61645 0.95824 0.0
C1590 C 0.41669 0.62514 0.94449 0.0
C1591 C 0.40455 0.60655 0.97288 0.0
C1592 C 0.42229 0.6045 0.97366 0.0
C1593 C 0.43706 0.61277 0.95961 0.0
C1594 C 0.43442 0.62317 0.9453 0.0
C1595 C 0.42622 0.5948 0.98945 0.0
C1596 C 0.44624 0.60569 0.99749 0.0
C1597 C 0.41056 0.57537 0.99684 0.0
C1598 C 0.38945 0.56239 0.98855 0.0
C1599 C 0.38739 0.55624 0.97039 0.0
C1600 C 0.36744 0.54415 0.96264 0.0
C1601 C 0.34942 0.53798 0.97295 0.0
C1602 C 0.35131 0.54385 0.99105 0.0
C1603 C 0.37122 0.55595 0.99886 0.0
H1604 H 0.33399 0.52863 0.96692 0.0
H1605 H 0.52818 0.64278 0.04177 0.0
H1606 H 0.91101 0.44228 0.22356 0.0
H1607 H 0.89056 0.43325 0.19579 0.0
H1608 H 0.87416 0.47948 0.20789 0.0
H1609 H 0.89416 0.48819 0.23597 0.0
H1610 H 0.84007 0.443 0.1988 0.0
H1611 H 0.90763 0.48739 0.1735 0.0
H1612 H 0.94535 0.50161 0.16786 0.0
H1613 H 0.93106 0.44263 0.14533 0.0
H1614 H 0.89326 0.42793 0.15108 0.0
H1615 H 0.787 0.41795 0.11286 0.0
H1616 H 0.81153 0.4384 0.13721 0.0
H1617 H 0.83364 0.39538 0.13819 0.0
H1618 H 0.80942 0.37499 0.11408 0.0
H1619 H 0.86616 0.43674 0.13903 0.0
H1620 H 0.79917 0.39165 0.16889 0.0
H1621 H 0.7615 0.37783 0.17452 0.0
H1622 H 0.77537 0.43964 0.18812 0.0
H1623 H 0.81312 0.45387 0.18233 0.0
C1624 C 0.90316 0.45061 0.22026 0.0
C1625 C 0.9042 0.46594 0.23198 0.0
C1626 C 0.89162 0.44558 0.2043 0.0
C1627 C 0.88096 0.45582 0.19967 0.0
C1628 C 0.88233 0.47144 0.21116 0.0
C1629 C 0.89391 0.47652 0.22712 0.0
C1630 C 0.86733 0.44916 0.18346 0.0
C1631 C 0.84589 0.44209 0.18564 0.0
C1632 C 0.87485 0.44777 0.16632 0.0
C1633 C 0.89759 0.45651 0.16284 0.0
C1634 C 0.91253 0.47739 0.16747 0.0
C1635 C 0.93393 0.48555 0.16424 0.0
C1636 C 0.9406 0.47302 0.15627 0.0
C1637 C 0.92587 0.45231 0.15151 0.0
C1638 C 0.90445 0.44406 0.15473 0.0
C1639 C 0.7971 0.41287 0.11826 0.0
C1640 C 0.79613 0.39475 0.11155 0.0
C1641 C 0.81108 0.42456 0.13217 0.0
C1642 C 0.82438 0.41837 0.1395 0.0
C1643 C 0.82358 0.40047 0.13268 0.0
C1644 C 0.80958 0.38874 0.11895 0.0
C1645 C 0.83891 0.43007 0.15455 0.0
C1646 C 0.8605 0.43808 0.15213 0.0
C1647 C 0.83156 0.43242 0.17143 0.0
C1648 C 0.8089 0.42386 0.17496 0.0
C1649 C 0.79416 0.40232 0.17293 0.0
C1650 C 0.7728 0.3944 0.17617 0.0
C1651 C 0.76603 0.40786 0.18161 0.0
C1652 C 0.78062 0.42925 0.18386 0.0
C1653 C 0.802 0.43724 0.18061 0.0
H1654 H 0.7495 0.4017 0.18412 0.0
H1655 H 0.95717 0.47937 0.15377 0.0
loop_
_geom_bond_atom_site_label_1
_geom_bond_atom_site_label_2
_geom_bond_distance
_geom_bond_site_symmetry_2
_ccdc_geom_bond_type
H0 C27 0.929 . S
N1 C26 1.433 . S
N1 C32 1.435 . S
N1 C38 1.423 . S
H2 C28 0.930 . S
H3 C31 0.931 . S
H4 C30 0.929 . S
H5 C33 0.930 . S
H6 C34 0.932 . S
H7 C37 0.929 . S
H8 C36 0.931 . S
H9 C39 0.929 . S
H10 C43 0.932 . S
H11 C40 0.931 . S
H12 C42 0.929 . S
H13 C45 0.929 . S
H14 C46 0.930 . S
H15 C48 0.929 . S
H16 C49 0.931 . S
H17 C51 0.930 . S
H18 C52 0.932 . S
H19 C54 0.931 . S
H20 C55 0.929 . S
H21 C57 0.929 . S
H22 C58 0.931 1_455 S
H23 C60 0.929 . S
N24 C44 1.433 . S
N24 C50 1.435 . S
N24 C56 1.423 . S
H25 C61 0.932 . S
C26 N1 1.433 . S
C26 C27 1.363 . S
C26 C31 1.370 . S
C27 H0 0.929 . S
C27 C26 1.363 . S
C27 C28 1.385 . S
C28 H2 0.930 . S
C28 C27 1.385 . S
C28 C29 1.357 . S
C29 C28 1.357 . S
C29 C30 1.406 . S
C30 H4 0.929 . S
C30 C29 1.406 . S
C30 C31 1.391 . S
C31 H3 0.931 . S
C31 C26 1.370 . S
C31 C30 1.391 . S
C32 N1 1.435 . S
C32 C33 1.358 . S
C32 C37 1.371 . S
C33 H5 0.930 . S
C33 C32 1.358 . S
C33 C34 1.405 . S
C34 H6 0.932 . S
C34 C33 1.405 . S
C34 C35 1.383 . S
C35 C34 1.383 . S
C35 C36 1.393 . S
C36 H8 0.931 . S
C36 C35 1.393 . S
C36 C37 1.382 . S
C37 H7 0.929 . S
C37 C32 1.371 . S
C37 C36 1.382 . S
C38 N1 1.423 . S
C38 C39 1.362 . S
C38 C43 1.388 . S
C39 H9 0.929 . S
C39 C38 1.362 . S
C39 C40 1.376 . S
C40 H11 0.931 . S
C40 C39 1.376 . S
C40 C41 1.396 . S
C41 C40 1.396 . S
C41 C42 1.348 . S
C41 C59 1.471 1_455 S
C42 H12 0.929 . S
C42 C41 1.348 . S
C42 C43 1.443 . S
C43 H10 0.932 . S
C43 C38 1.388 . S
C43 C42 1.443 . S
C44 N24 1.433 . S
C44 C45 1.363 . S
C44 C49 1.370 . S
C45 H13 0.929 . S
C45 C44 1.363 . S
C45 C46 1.385 . S
C46 H14 0.930 . S
C46 C45 1.385 . S
C46 C47 1.357 . S
C47 C46 1.357 . S
C47 C48 1.406 . S
C48 H15 0.929 . S
C48 C47 1.406 . S
C48 C49 1.391 . S
C49 H16 0.931 . S
C49 C44 1.370 . S
C49 C48 1.391 . S
C50 N24 1.435 . S
C50 C51 1.358 . S
C50 C55 1.371 . S
C51 H17 0.930 . S
C51 C50 1.358 . S
C51 C52 1.405 . S
C52 H18 0.932 . S
C52 C51 1.405 . S
C52 C53 1.383 . S
C53 C52 1.383 . S
C53 C54 1.393 . S
C54 H19 0.931 . S
C54 C53 1.393 . S
C54 C55 1.382 . S
C55 H20 0.929 . S
C55 C50 1.371 . S
C55 C54 1.382 . S
C56 N24 1.423 . S
C56 C57 1.362 . S
C56 C61 1.388 . S
C57 H21 0.929 . S
C57 C56 1.362 . S
C57 C58 1.376 . S
C58 H22 0.931 1_655 S
C58 C57 1.376 . S
C58 C59 1.396 . S
C59 C41 1.471 1_655 S
C59 C58 1.396 . S
C59 C60 1.349 . S
C60 H23 0.929 . S
C60 C59 1.349 . S
C60 C61 1.443 . S
C61 H25 0.932 . S
C61 C56 1.388 . S
C61 C60 1.443 . S
H62 C89 0.929 . S
N63 C88 1.433 . S
N63 C94 1.435 . S
N63 C100 1.423 . S
H64 C90 0.930 . S
H65 C93 0.931 . S
H66 C92 0.929 . S
H67 C95 0.930 . S
H68 C96 0.932 . S
H69 C99 0.929 . S
H70 C98 0.931 . S
H71 C101 0.929 . S
H72 C105 0.932 . S
H73 C102 0.931 . S
H74 C104 0.929 1_545 S
H75 C107 0.929 . S
H76 C108 0.930 . S
H77 C110 0.929 . S
H78 C111 0.931 . S
H79 C113 0.930 . S
H80 C114 0.932 . S
H81 C116 0.931 . S
H82 C117 0.929 . S
H83 C119 0.929 . S
H84 C120 0.931 . S
H85 C122 0.929 . S
N86 C106 1.433 . S
N86 C112 1.435 . S
N86 C118 1.423 . S
H87 C123 0.932 . S
C88 N63 1.433 . S
C88 C89 1.363 . S
C88 C93 1.370 . S
C89 H62 0.929 . S
C89 C88 1.363 . S
C89 C90 1.385 . S
C90 H64 0.930 . S
C90 C89 1.385 . S
C90 C91 1.357 . S
C91 C90 1.357 . S
C91 C92 1.406 . S
C92 H66 0.929 . S
C92 C91 1.406 . S
C92 C93 1.391 . S
C93 H65 0.931 . S
C93 C88 1.370 . S
C93 C92 1.391 . S
C94 N63 1.435 . S
C94 C95 1.358 . S
C94 C99 1.371 . S
C95 H67 0.930 . S
C95 C94 1.358 . S
C95 C96 1.405 . S
C96 H68 0.932 . S
C96 C95 1.405 . S
C96 C97 1.383 . S
C97 C96 1.383 . S
C97 C98 1.393 . S
C98 H70 0.931 . S
C98 C97 1.393 . S
C98 C99 1.382 . S
C99 H69 0.929 . S
C99 C94 1.371 . S
C99 C98 1.382 . S
C100 N63 1.423 . S
C100 C101 1.362 . S
C100 C105 1.388 . S
C101 H71 0.929 . S
C101 C100 1.362 . S
C101 C102 1.376 . S
C102 H73 0.931 . S
C102 C101 1.376 . S
C102 C103 1.396 1_565 S
C103 C102 1.396 1_545 S
C103 C104 1.348 1_545 S
C103 C121 1.472 . S
C104 H74 0.929 1_565 S
C104 C103 1.348 1_565 S
C104 C105 1.443 . S
C105 H72 0.932 . S
C105 C100 1.388 . S
C105 C104 1.443 . S
C106 N86 1.433 . S
C106 C107 1.363 . S
C106 C111 1.370 . S
C107 H75 0.929 . S
C107 C106 1.363 . S
C107 C108 1.385 . S
C108 H76 0.930 . S
C108 C107 1.385 . S
C108 C109 1.357 . S
C109 C108 1.357 . S
C109 C110 1.406 . S
C110 H77 0.929 . S
C110 C109 1.406 . S
C110 C111 1.391 . S
C111 H78 0.931 . S
C111 C106 1.370 . S
C111 C110 1.391 . S
C112 N86 1.435 . S
C112 C113 1.358 . S
C112 C117 1.371 . S
C113 H79 0.930 . S
C113 C112 1.358 . S
C113 C114 1.405 . S
C114 H80 0.932 . S
C114 C113 1.405 . S
C114 C115 1.383 . S
C115 C114 1.383 . S
C115 C116 1.393 . S
C116 H81 0.931 . S
C116 C115 1.393 . S
C116 C117 1.382 . S
C117 H82 0.929 . S
C117 C112 1.371 . S
C117 C116 1.382 . S
C118 N86 1.423 . S
C118 C119 1.362 . S
C118 C123 1.388 . S
C119 H83 0.929 . S
C119 C118 1.362 . S
C119 C120 1.376 . S
C120 H84 0.931 . S
C120 C119 1.376 . S
C120 C121 1.396 . S
C121 C103 1.472 . S
C121 C120 1.396 . S
C121 C122 1.348 . S
C122 H85 0.929 . S
C122 C121 1.348 . S
C122 C123 1.443 . S
C123 H87 0.932 . S
C123 C118 1.388 . S
C123 C122 1.443 . S
H124 C151 0.929 . S
N125 C150 1.433 . S
N125 C156 1.435 . S
N125 C162 1.423 . S
H126 C152 0.930 . S
H127 C155 0.931 . S
H128 C154 0.929 . S
H129 C157 0.930 . S
H130 C158 0.932 . S
H131 C161 0.929 . S
H132 C160 0.931 . S
H133 C163 0.929 . S
H134 C167 0.932 . S
H135 C164 0.931 . S
H136 C166 0.929 . S
H137 C169 0.929 . S
H138 C170 0.930 . S
H139 C172 0.929 . S
H140 C173 0.931 . S
H141 C175 0.930 . S
H142 C176 0.932 . S
H143 C178 0.931 . S
H144 C179 0.929 . S
H145 C181 0.929 . S
H146 C182 0.931 . S
H147 C184 0.929 . S
N148 C168 1.433 . S
N148 C174 1.435 . S
N148 C180 1.423 . S
H149 C185 0.932 . S
C150 N125 1.433 . S
C150 C151 1.363 . S
C150 C155 1.370 . S
C151 H124 0.929 . S
C151 C150 1.363 . S
C151 C152 1.385 . S
C152 H126 0.930 . S
C152 C151 1.385 . S
C152 C153 1.357 . S
C153 C152 1.357 . S
C153 C154 1.406 . S
C154 H128 0.929 . S
C154 C153 1.406 . S
C154 C155 1.391 . S
C155 H127 0.931 . S
C155 C150 1.370 . S
C155 C154 1.391 . S
C156 N125 1.435 . S
C156 C157 1.358 . S
C156 C161 1.371 . S
C157 H129 0.930 . S
C157 C156 1.358 . S
C157 C158 1.405 . S
C158 H130 0.932 . S
C158 C157 1.405 . S
C158 C159 1.383 . S
C159 C158 1.383 . S
C159 C160 1.393 . S
C160 H132 0.931 . S
C160 C159 1.393 . S
C160 C161 1.382 . S
C161 H131 0.929 . S
C161 C156 1.371 . S
C161 C160 1.382 . S
C162 N125 1.423 . S
C162 C163 1.362 . S
C162 C167 1.388 . S
C163 H133 0.929 . S
C163 C162 1.362 . S
C163 C164 1.376 . S
C164 H135 0.931 . S
C164 C163 1.376 . S
C164 C165 1.396 . S
C165 C164 1.396 . S
C165 C166 1.348 . S
C165 C183 1.472 . S
C166 H136 0.929 . S
C166 C165 1.348 . S
C166 C167 1.443 . S
C167 H134 0.932 . S
C167 C162 1.388 . S
C167 C166 1.443 . S
C168 N148 1.433 . S
C168 C169 1.363 . S
C168 C173 1.370 . S
C169 H137 0.929 . S
C169 C168 1.363 . S
C169 C170 1.385 . S
C170 H138 0.930 . S
C170 C169 1.385 . S
C170 C171 1.357 . S
C171 C170 1.357 . S
C171 C172 1.406 . S
C172 H139 0.929 . S
C172 C171 1.406 . S
C172 C173 1.391 . S
C173 H140 0.931 . S
C173 C168 1.370 . S
C173 C172 1.391 . S
C174 N148 1.435 . S
C174 C175 1.358 . S
C174 C179 1.371 . S
C175 H141 0.930 . S
C175 C174 1.358 . S
C175 C176 1.405 . S
C176 H142 0.932 . S
C176 C175 1.405 . S
C176 C177 1.383 . S
C177 C176 1.383 . S
C177 C178 1.393 . S
C178 H143 0.931 . S
C178 C177 1.393 . S
C178 C179 1.382 . S
C179 H144 0.929 . S
C179 C174 1.371 . S
C179 C178 1.382 . S
C180 N148 1.423 . S
C180 C181 1.362 . S
C180 C185 1.388 . S
C181 H145 0.929 . S
C181 C180 1.362 . S
C181 C182 1.376 . S
C182 H146 0.931 . S
C182 C181 1.376 . S
C182 C183 1.396 . S
C183 C165 1.472 . S
C183 C182 1.396 . S
C183 C184 1.348 . S
C184 H147 0.929 . S
C184 C183 1.348 . S
C184 C185 1.443 . S
C185 H149 0.932 . S
C185 C180 1.388 . S
C185 C184 1.443 . S
H186 C213 0.929 . S
N187 C212 1.433 . S
N187 C218 1.435 . S
N187 C224 1.423 . S
H188 C214 0.930 . S
H189 C217 0.931 . S
H190 C216 0.929 . S
H191 C219 0.930 . S
H192 C220 0.932 . S
H193 C223 0.929 . S
H194 C222 0.931 . S
H195 C225 0.929 . S
H196 C229 0.932 . S
H197 C226 0.931 . S
H198 C228 0.929 . S
H199 C231 0.929 . S
H200 C232 0.930 . S
H201 C234 0.929 . S
H202 C235 0.931 . S
H203 C237 0.930 . S
H204 C238 0.932 . S
H205 C240 0.931 . S
H206 C241 0.929 . S
H207 C243 0.929 . S
H208 C244 0.931 1_455 S
H209 C246 0.929 . S
N210 C230 1.433 . S
N210 C236 1.435 . S
N210 C242 1.423 . S
H211 C247 0.932 . S
C212 N187 1.433 . S
C212 C213 1.363 . S
C212 C217 1.370 . S
C213 H186 0.929 . S
C213 C212 1.363 . S
C213 C214 1.385 . S
C214 H188 0.930 . S
C214 C213 1.385 . S
C214 C215 1.357 . S
C215 C214 1.357 . S
C215 C216 1.406 . S
C216 H190 0.929 . S
C216 C215 1.406 . S
C216 C217 1.391 . S
C217 H189 0.931 . S
C217 C212 1.370 . S
C217 C216 1.391 . S
C218 N187 1.435 . S
C218 C219 1.358 . S
C218 C223 1.371 . S
C219 H191 0.930 . S
C219 C218 1.358 . S
C219 C220 1.405 . S
C220 H192 0.932 . S
C220 C219 1.405 . S
C220 C221 1.383 . S
C221 C220 1.383 . S
C221 C222 1.393 . S
C222 H194 0.931 . S
C222 C221 1.393 . S
C222 C223 1.382 . S
C223 H193 0.929 . S
C223 C218 1.371 . S
C223 C222 1.382 . S
C224 N187 1.423 . S
C224 C225 1.362 . S
C224 C229 1.388 . S
C225 H195 0.929 . S
C225 C224 1.362 . S
C225 C226 1.376 . S
C226 H197 0.931 . S
C226 C225 1.376 . S
C226 C227 1.396 . S
C227 C226 1.396 . S
C227 C228 1.348 . S
C227 C245 1.425 1_455 S
C228 H198 0.929 . S
C228 C227 1.348 . S
C228 C229 1.443 . S
C229 H196 0.932 . S
C229 C224 1.388 . S
C229 C228 1.443 . S
C230 N210 1.433 . S
C230 C231 1.363 . S
C230 C235 1.370 . S
C231 H199 0.929 . S
C231 C230 1.363 . S
C231 C232 1.385 . S
C232 H200 0.930 . S
C232 C231 1.385 . S
C232 C233 1.357 . S
C233 C232 1.357 . S
C233 C234 1.406 . S
C234 H201 0.929 . S
C234 C233 1.406 . S
C234 C235 1.391 . S
C235 H202 0.931 . S
C235 C230 1.370 . S
C235 C234 1.391 . S
C236 N210 1.435 . S
C236 C237 1.358 . S
C236 C241 1.371 . S
C237 H203 0.930 . S
C237 C236 1.358 . S
C237 C238 1.405 . S
C238 H204 0.932 . S
C238 C237 1.405 . S
C238 C239 1.383 . S
C239 C238 1.383 . S
C239 C240 1.393 . S
C240 H205 0.931 . S
C240 C239 1.393 . S
C240 C241 1.382 . S
C241 H206 0.929 . S
C241 C236 1.371 . S
C241 C240 1.382 . S
C242 N210 1.423 . S
C242 C243 1.362 . S
C242 C247 1.388 . S
C243 H207 0.929 . S
C243 C242 1.362 . S
C243 C244 1.376 . S
C244 H208 0.931 1_655 S
C244 C243 1.376 . S
C244 C245 1.428 . S
C245 C227 1.425 1_655 S
C245 C244 1.428 . S
C245 C246 1.367 . S
C246 H209 0.929 . S
C246 C245 1.367 . S
C246 C247 1.443 . S
C247 H211 0.932 . S
C247 C242 1.388 . S
C247 C246 1.443 . S
H248 C275 0.929 . S
N249 C274 1.433 . S
N249 C280 1.435 . S
N249 C286 1.423 . S
H250 C276 0.930 . S
H251 C279 0.931 . S
H252 C278 0.929 . S
H253 C281 0.930 . S
H254 C282 0.932 . S
H255 C285 0.929 . S
H256 C284 0.931 . S
H257 C287 0.929 . S
H258 C291 0.932 . S
H259 C288 0.931 . S
H260 C290 0.929 . S
H261 C293 0.929 . S
H262 C294 0.930 . S
H263 C296 0.929 . S
H264 C297 0.931 . S
H265 C299 0.930 1_554 S
H266 C300 0.932 . S
H267 C302 0.931 . S
H268 C303 0.929 . S
H269 C305 0.929 . S
H270 C306 0.931 1_554 S
H271 C308 0.929 . S
N272 C292 1.433 . S
N272 C298 1.435 1_554 S
N272 C304 1.423 1_554 S
H273 C309 0.932 . S
C274 N249 1.433 . S
C274 C275 1.363 . S
C274 C279 1.370 . S
C275 H248 0.929 . S
C275 C274 1.363 . S
C275 C276 1.385 . S
C276 H250 0.930 . S
C276 C275 1.385 . S
C276 C277 1.357 1_556 S
C277 C276 1.357 1_554 S
C277 C278 1.406 . S
C278 H252 0.929 . S
C278 C277 1.406 . S
C278 C279 1.391 1_554 S
C279 H251 0.931 . S
C279 C274 1.370 . S
C279 C278 1.391 1_556 S
C280 N249 1.435 . S
C280 C281 1.358 . S
C280 C285 1.371 . S
C281 H253 0.930 . S
C281 C280 1.358 . S
C281 C282 1.405 . S
C282 H254 0.932 . S
C282 C281 1.405 . S
C282 C283 1.383 . S
C283 C282 1.383 . S
C283 C284 1.393 . S
C284 H256 0.931 . S
C284 C283 1.393 . S
C284 C285 1.382 . S
C285 H255 0.929 . S
C285 C280 1.371 . S
C285 C284 1.382 . S
C286 N249 1.423 . S
C286 C287 1.362 . S
C286 C291 1.388 . S
C287 H257 0.929 . S
C287 C286 1.362 . S
C287 C288 1.376 . S
C288 H259 0.931 . S
C288 C287 1.376 . S
C288 C289 1.396 . S
C289 C288 1.396 . S
C289 C290 1.348 . S
C289 C307 1.472 1_545 S
C290 H260 0.929 . S
C290 C289 1.348 . S
C290 C291 1.443 . S
C291 H258 0.932 . S
C291 C286 1.388 . S
C291 C290 1.443 . S
C292 N272 1.433 . S
C292 C293 1.363 . S
C292 C297 1.370 . S
C293 H261 0.929 . S
C293 C292 1.363 . S
C293 C294 1.385 . S
C294 H262 0.930 . S
C294 C293 1.385 . S
C294 C295 1.357 . S
C295 C294 1.357 . S
C295 C296 1.406 . S
C296 H263 0.929 . S
C296 C295 1.406 . S
C296 C297 1.391 . S
C297 H264 0.931 . S
C297 C292 1.370 . S
C297 C296 1.391 . S
C298 N272 1.435 1_556 S
C298 C299 1.358 . S
C298 C303 1.371 . S
C299 H265 0.930 1_556 S
C299 C298 1.358 . S
C299 C300 1.405 . S
C300 H266 0.932 . S
C300 C299 1.405 . S
C300 C301 1.383 . S
C301 C300 1.383 . S
C301 C302 1.393 . S
C302 H267 0.931 . S
C302 C301 1.393 . S
C302 C303 1.382 . S
C303 H268 0.929 . S
C303 C298 1.371 . S
C303 C302 1.382 . S
C304 N272 1.423 1_556 S
C304 C305 1.362 1_556 S
C304 C309 1.388 . S
C305 H269 0.929 . S
C305 C304 1.362 1_554 S
C305 C306 1.376 1_554 S
C306 H270 0.931 1_556 S
C306 C305 1.376 1_556 S
C306 C307 1.396 . S
C307 C289 1.472 1_565 S
C307 C306 1.396 . S
C307 C308 1.348 . S
C308 H271 0.929 . S
C308 C307 1.348 . S
C308 C309 1.443 . S
C309 H273 0.932 . S
C309 C304 1.388 . S
C309 C308 1.443 . S
H310 C337 0.929 . S
N311 C336 1.433 . S
N311 C342 1.435 . S
N311 C348 1.423 . S
H312 C338 0.930 . S
H313 C341 0.931 . S
H314 C340 0.929 . S
H315 C343 0.930 . S
H316 C344 0.932 . S
H317 C347 0.929 . S
H318 C346 0.931 . S
H319 C349 0.929 . S
H320 C353 0.932 . S
H321 C350 0.931 . S
H322 C352 0.929 . S
H323 C355 0.929 . S
H324 C356 0.930 . S
H325 C358 0.929 . S
H326 C359 0.931 . S
H327 C361 0.930 . S
H328 C362 0.932 . S
H329 C364 0.931 . S
H330 C365 0.929 . S
H331 C367 0.929 . S
H332 C368 0.931 . S
H333 C370 0.929 . S
N334 C354 1.433 . S
N334 C360 1.435 . S
N334 C366 1.423 . S
H335 C371 0.932 . S
C336 N311 1.433 . S
C336 C337 1.363 . S
C336 C341 1.370 . S
C337 H310 0.929 . S
C337 C336 1.363 . S
C337 C338 1.385 . S
C338 H312 0.930 . S
C338 C337 1.385 . S
C338 C339 1.357 . S
C339 C338 1.357 . S
C339 C340 1.406 . S
C340 H314 0.929 . S
C340 C339 1.406 . S
C340 C341 1.391 . S
C341 H313 0.931 . S
C341 C336 1.370 . S
C341 C340 1.391 . S
C342 N311 1.435 . S
C342 C343 1.358 . S
C342 C347 1.371 . S
C343 H315 0.930 . S
C343 C342 1.358 . S
C343 C344 1.405 . S
C344 H316 0.932 . S
C344 C343 1.405 . S
C344 C345 1.383 . S
C345 C344 1.383 . S
C345 C346 1.393 . S
C346 H318 0.931 . S
C346 C345 1.393 . S
C346 C347 1.382 . S
C347 H317 0.929 . S
C347 C342 1.371 . S
C347 C346 1.382 . S
C348 N311 1.423 . S
C348 C349 1.362 . S
C348 C353 1.388 . S
C349 H319 0.929 . S
C349 C348 1.362 . S
C349 C350 1.376 . S
C350 H321 0.931 . S
C350 C349 1.376 . S
C350 C351 1.396 . S
C351 C350 1.396 . S
C351 C352 1.348 . S
C351 C369 1.472 . S
C352 H322 0.929 . S
C352 C351 1.348 . S
C352 C353 1.443 . S
C353 H320 0.932 . S
C353 C348 1.388 . S
C353 C352 1.443 . S
C354 N334 1.433 . S
C354 C355 1.363 . S
C354 C359 1.370 . S
C355 H323 0.929 . S
C355 C354 1.363 . S
C355 C356 1.385 . S
C356 H324 0.930 . S
C356 C355 1.385 . S
C356 C357 1.357 . S
C357 C356 1.357 . S
C357 C358 1.406 . S
C358 H325 0.929 . S
C358 C357 1.406 . S
C358 C359 1.391 . S
C359 H326 0.931 . S
C359 C354 1.370 . S
C359 C358 1.391 . S
C360 N334 1.435 . S
C360 C361 1.358 . S
C360 C365 1.371 . S
C361 H327 0.930 . S
C361 C360 1.358 . S
C361 C362 1.405 . S
C362 H328 0.932 . S
C362 C361 1.405 . S
C362 C363 1.383 . S
C363 C362 1.383 . S
C363 C364 1.393 . S
C364 H329 0.931 . S
C364 C363 1.393 . S
C364 C365 1.382 . S
C365 H330 0.929 . S
C365 C360 1.371 . S
C365 C364 1.382 . S
C366 N334 1.423 . S
C366 C367 1.362 . S
C366 C371 1.388 . S
C367 H331 0.929 . S
C367 C366 1.362 . S
C367 C368 1.376 . S
C368 H332 0.931 . S
C368 C367 1.376 . S
C368 C369 1.396 . S
C369 C351 1.472 . S
C369 C368 1.396 . S
C369 C370 1.348 . S
C370 H333 0.929 . S
C370 C369 1.348 . S
C370 C371 1.443 . S
C371 H335 0.932 . S
C371 C366 1.388 . S
C371 C370 1.443 . S
Co372 O373 2.216 . S
Co372 O374 2.091 . S
Co372 O376 2.004 . S
Co372 O382 2.021 . S
Co372 O384 2.137 . S
Co372 O385 2.244 . S
O373 Co372 2.216 . S
O373 C380 1.247 . S
O374 Co372 2.091 . S
O374 C380 1.261 . S
C375 O384 1.247 . S
C375 O385 1.272 . S
O376 Co372 2.004 . S
O376 C381 1.259 . S
Co377 O378 2.061 . S
Co377 O383 2.052 . S
Co377 O385 2.135 . S
O378 Co377 2.061 . S
O378 C381 1.235 . S
C379 O382 1.238 . S
C379 O383 1.241 . S
C380 O373 1.247 . S
C380 O374 1.261 . S
C381 O376 1.259 . S
C381 O378 1.235 . S
O382 Co372 2.021 . S
O382 C379 1.238 . S
O383 Co377 2.052 . S
O383 C379 1.241 . S
O384 Co372 2.137 . S
O384 C375 1.247 . S
O385 Co372 2.244 . S
O385 C375 1.272 . S
O385 Co377 2.135 . S
Co386 O387 2.216 . S
Co386 O388 2.091 . S
Co386 O390 2.004 . S
Co386 O396 2.021 . S
Co386 O398 2.137 . S
Co386 O399 2.244 . S
O387 Co386 2.216 . S
O387 C394 1.247 . S
O388 Co386 2.091 . S
O388 C394 1.261 . S
C389 O398 1.247 . S
C389 O399 1.272 . S
O390 Co386 2.004 . S
O390 C395 1.259 . S
Co391 O392 2.061 . S
Co391 O397 2.052 . S
Co391 O399 2.135 . S
O392 Co391 2.061 . S
O392 C395 1.235 . S
C393 O396 1.238 . S
C393 O397 1.241 . S
C394 O387 1.247 . S
C394 O388 1.261 . S
C395 O390 1.259 . S
C395 O392 1.235 . S
O396 Co386 2.021 . S
O396 C393 1.238 . S
O397 Co391 2.052 . S
O397 C393 1.241 . S
O398 Co386 2.137 . S
O398 C389 1.247 . S
O399 Co386 2.244 . S
O399 C389 1.272 . S
O399 Co391 2.135 . S
Co400 O401 2.216 . S
Co400 O402 2.091 . S
Co400 O404 2.004 . S
Co400 O410 2.021 . S
Co400 O412 2.137 . S
Co400 O413 2.244 . S
O401 Co400 2.216 . S
O401 C408 1.247 . S
O402 Co400 2.091 . S
O402 C408 1.261 . S
C403 O412 1.247 . S
C403 O413 1.272 . S
O404 Co400 2.004 . S
O404 C409 1.259 . S
Co405 O406 2.061 . S
Co405 O411 2.052 . S
Co405 O413 2.135 . S
O406 Co405 2.061 . S
O406 C409 1.235 . S
C407 O410 1.238 . S
C407 O411 1.241 . S
C408 O401 1.247 . S
C408 O402 1.261 . S
C409 O404 1.259 . S
C409 O406 1.235 . S
O410 Co400 2.021 . S
O410 C407 1.238 . S
O411 Co405 2.052 . S
O411 C407 1.241 . S
O412 Co400 2.137 . S
O412 C403 1.247 . S
O413 Co400 2.244 . S
O413 C403 1.272 . S
O413 Co405 2.135 . S
Co414 O415 2.216 . S
Co414 O416 2.091 . S
Co414 O418 2.004 . S
Co414 O424 2.021 . S
Co414 O426 2.137 . S
Co414 O427 2.244 . S
O415 Co414 2.216 . S
O415 C422 1.247 . S
O416 Co414 2.091 . S
O416 C422 1.261 . S
C417 O426 1.247 . S
C417 O427 1.272 . S
O418 Co414 2.004 . S
O418 C423 1.259 . S
Co419 O420 2.061 . S
Co419 O425 2.052 . S
Co419 O427 2.135 . S
O420 Co419 2.061 . S
O420 C423 1.235 . S
C421 O424 1.238 . S
C421 O425 1.241 . S
C422 O415 1.247 . S
C422 O416 1.261 . S
C423 O418 1.259 . S
C423 O420 1.235 . S
O424 Co414 2.021 . S
O424 C421 1.238 . S
O425 Co419 2.052 . S
O425 C421 1.241 . S
O426 Co414 2.137 . S
O426 C417 1.247 . S
O427 Co414 2.244 . S
O427 C417 1.272 . S
O427 Co419 2.135 . S
Co428 O429 2.216 . S
Co428 O430 2.091 . S
Co428 O432 2.004 . S
Co428 O438 2.021 . S
Co428 O440 2.137 . S
Co428 O441 2.244 . S
O429 Co428 2.216 . S
O429 C436 1.247 . S
O430 Co428 2.091 . S
O430 C436 1.261 . S
C431 O440 1.247 . S
C431 O441 1.272 . S
O432 Co428 2.004 . S
O432 C437 1.259 . S
Co433 O434 2.061 . S
Co433 O439 2.052 . S
Co433 O441 2.135 . S
O434 Co433 2.061 . S
O434 C437 1.235 . S
C435 O438 1.238 . S
C435 O439 1.241 . S
C436 O429 1.247 . S
C436 O430 1.261 . S
C437 O432 1.259 . S
C437 O434 1.235 . S
O438 Co428 2.021 . S
O438 C435 1.238 . S
O439 Co433 2.052 . S
O439 C435 1.241 . S
O440 Co428 2.137 . S
O440 C431 1.247 . S
O441 Co428 2.244 . S
O441 C431 1.272 . S
O441 Co433 2.135 . S
Co442 O443 2.216 . S
Co442 O444 2.091 . S
Co442 O446 2.004 . S
Co442 O452 2.021 . S
Co442 O454 2.137 . S
Co442 O455 2.244 . S
O443 Co442 2.216 . S
O443 C450 1.247 . S
O444 Co442 2.091 . S
O444 C450 1.261 . S
C445 O454 1.247 . S
C445 O455 1.272 . S
O446 Co442 2.004 . S
O446 C451 1.259 . S
Co447 O448 2.061 . S
Co447 O453 2.052 . S
Co447 O455 2.135 . S
O448 Co447 2.061 . S
O448 C451 1.235 . S
C449 O452 1.238 . S
C449 O453 1.241 . S
C450 O443 1.247 . S
C450 O444 1.261 . S
C451 O446 1.259 . S
C451 O448 1.235 . S
O452 Co442 2.021 . S
O452 C449 1.238 . S
O453 Co447 2.052 . S
O453 C449 1.241 . S
O454 Co442 2.137 . S
O454 C445 1.247 . S
O455 Co442 2.244 . S
O455 C445 1.272 . S
O455 Co447 2.135 . S
H456 C474 0.951 . S
H457 C476 0.951 . S
H458 C478 0.950 . S
H459 C479 0.950 . S
H460 C481 0.950 . S
H461 C484 0.950 . S
H462 C485 0.950 . S
H463 C487 0.950 . S
H464 C488 0.950 . S
H465 C489 0.951 . S
H466 C491 0.951 . S
H467 C493 0.950 . S
H468 C494 0.950 . S
H469 C496 0.950 . S
H470 C499 0.950 . S
H471 C500 0.950 . S
H472 C502 0.950 . S
H473 C503 0.950 . S
C474 H456 0.951 . S
C474 C475 1.366 . S
C474 C476 1.388 . S
C475 C474 1.366 . S
C475 C479 1.385 . S
C476 H457 0.951 . S
C476 C474 1.388 . S
C476 C477 1.366 . S
C477 C476 1.366 . S
C477 C478 1.414 . S
C477 C480 1.499 . S
C478 H458 0.950 . S
C478 C477 1.414 . S
C478 C479 1.374 . S
C479 H459 0.950 . S
C479 C475 1.385 . S
C479 C478 1.374 . S
C480 C477 1.499 . S
C480 C481 1.373 . S
C480 C482 1.389 . S
C481 H460 0.950 . S
C481 C480 1.373 . S
C481 C497 1.377 . S
C482 C480 1.389 . S
C482 C483 1.524 . S
C482 C496 1.377 . S
C483 C482 1.524 . S
C483 C484 1.397 . S
C483 C488 1.363 . S
C484 H461 0.950 . S
C484 C483 1.397 . S
C484 C485 1.334 . S
C485 H462 0.950 . S
C485 C484 1.334 . S
C485 C486 1.287 . S
C486 C485 1.287 . S
C486 C487 1.524 . S
C486 H505 0.913 . S
C487 H463 0.950 . S
C487 C486 1.524 . S
C487 C488 1.415 . S
C488 H464 0.950 . S
C488 C483 1.363 . S
C488 C487 1.415 . S
C489 H465 0.951 . S
C489 C490 1.366 . S
C489 C491 1.388 . S
C490 C489 1.366 . S
C490 C494 1.385 . S
C491 H466 0.951 . S
C491 C489 1.388 . S
C491 C492 1.366 . S
C492 C491 1.366 . S
C492 C493 1.414 . S
C492 C495 1.499 . S
C493 H467 0.950 . S
C493 C492 1.414 . S
C493 C494 1.374 . S
C494 H468 0.950 . S
C494 C490 1.385 . S
C494 C493 1.374 . S
C495 C492 1.499 . S
C495 C496 1.373 . S
C495 C497 1.389 . S
C496 H469 0.950 . S
C496 C482 1.377 . S
C496 C495 1.373 . S
C497 C481 1.377 . S
C497 C495 1.389 . S
C497 C498 1.524 . S
C498 C497 1.524 . S
C498 C499 1.397 . S
C498 C503 1.363 . S
C499 H470 0.950 . S
C499 C498 1.397 . S
C499 C500 1.334 . S
C500 H471 0.950 . S
C500 C499 1.334 . S
C500 C501 1.287 . S
C501 C500 1.287 . S
C501 C502 1.524 . S
C501 H504 0.999 . S
C502 H472 0.950 . S
C502 C501 1.524 . S
C502 C503 1.415 . S
C503 H473 0.950 . S
C503 C498 1.363 . S
C503 C502 1.415 . S
H504 C501 0.999 . S
H505 C486 0.913 . S
H506 C524 0.951 . S
H507 C526 0.951 . S
H508 C528 0.950 . S
H509 C529 0.950 . S
H510 C531 0.950 . S
H511 C534 0.950 . S
H512 C535 0.950 . S
H513 C537 0.950 . S
H514 C538 0.950 . S
H515 C539 0.951 . S
H516 C541 0.951 . S
H517 C543 0.950 . S
H518 C544 0.950 . S
H519 C546 0.950 . S
H520 C549 0.950 . S
H521 C550 0.950 . S
H522 C552 0.950 . S
H523 C553 0.950 . S
C524 H506 0.951 . S
C524 C525 1.366 . S
C524 C526 1.388 . S
C525 C524 1.366 . S
C525 C529 1.385 . S
C526 H507 0.951 . S
C526 C524 1.388 . S
C526 C527 1.366 . S
C527 C526 1.366 . S
C527 C528 1.414 . S
C527 C530 1.499 . S
C528 H508 0.950 . S
C528 C527 1.414 . S
C528 C529 1.374 . S
C529 H509 0.950 . S
C529 C525 1.385 . S
C529 C528 1.374 . S
C530 C527 1.499 . S
C530 C531 1.373 . S
C530 C532 1.389 . S
C531 H510 0.950 . S
C531 C530 1.373 . S
C531 C547 1.377 . S
C532 C530 1.389 . S
C532 C533 1.524 . S
C532 C546 1.377 . S
C533 C532 1.524 . S
C533 C534 1.397 . S
C533 C538 1.363 . S
C534 H511 0.950 . S
C534 C533 1.397 . S
C534 C535 1.334 . S
C535 H512 0.950 . S
C535 C534 1.334 . S
C535 C536 1.287 . S
C536 C535 1.287 . S
C536 C537 1.524 . S
C536 H555 0.913 . S
C537 H513 0.950 . S
C537 C536 1.524 . S
C537 C538 1.415 . S
C538 H514 0.950 . S
C538 C533 1.363 . S
C538 C537 1.415 . S
C539 H515 0.951 . S
C539 C540 1.366 . S
C539 C541 1.388 . S
C540 C539 1.366 . S
C540 C544 1.385 . S
C541 H516 0.951 . S
C541 C539 1.388 . S
C541 C542 1.366 . S
C542 C541 1.366 . S
C542 C543 1.414 . S
C542 C545 1.499 . S
C543 H517 0.950 . S
C543 C542 1.414 . S
C543 C544 1.374 . S
C544 H518 0.950 . S
C544 C540 1.385 . S
C544 C543 1.374 . S
C545 C542 1.499 . S
C545 C546 1.373 . S
C545 C547 1.389 . S
C546 H519 0.950 . S
C546 C532 1.377 . S
C546 C545 1.373 . S
C547 C531 1.377 . S
C547 C545 1.389 . S
C547 C548 1.524 . S
C548 C547 1.524 . S
C548 C549 1.397 . S
C548 C553 1.363 . S
C549 H520 0.950 . S
C549 C548 1.397 . S
C549 C550 1.334 . S
C550 H521 0.950 . S
C550 C549 1.334 . S
C550 C551 1.287 . S
C551 C550 1.287 . S
C551 C552 1.524 . S
C551 H554 0.999 . S
C552 H522 0.950 . S
C552 C551 1.524 . S
C552 C553 1.415 . S
C553 H523 0.950 . S
C553 C548 1.363 . S
C553 C552 1.415 . S
H554 C551 0.999 . S
H555 C536 0.913 . S
H556 C574 0.951 . S
H557 C576 0.951 . S
H558 C578 0.950 . S
H559 C579 0.950 . S
H560 C581 0.950 . S
H561 C584 0.950 . S
H562 C585 0.950 . S
H563 C587 0.950 . S
H564 C588 0.950 . S
H565 C589 0.951 . S
H566 C591 0.951 . S
H567 C593 0.950 . S
H568 C594 0.950 . S
H569 C596 0.950 . S
H570 C599 0.950 . S
H571 C600 0.950 . S
H572 C602 0.950 . S
H573 C603 0.950 . S
C574 H556 0.951 . S
C574 C575 1.366 . S
C574 C576 1.388 . S
C575 C574 1.366 . S
C575 C579 1.385 . S
C576 H557 0.951 . S
C576 C574 1.388 . S
C576 C577 1.366 . S
C577 C576 1.366 . S
C577 C578 1.414 . S
C577 C580 1.499 . S
C578 H558 0.950 . S
C578 C577 1.414 . S
C578 C579 1.374 . S
C579 H559 0.950 . S
C579 C575 1.385 . S
C579 C578 1.374 . S
C580 C577 1.499 . S
C580 C581 1.373 . S
C580 C582 1.389 . S
C581 H560 0.950 . S
C581 C580 1.373 . S
C581 C597 1.377 . S
C582 C580 1.389 . S
C582 C583 1.524 . S
C582 C596 1.377 . S
C583 C582 1.524 . S
C583 C584 1.397 . S
C583 C588 1.363 . S
C584 H561 0.950 . S
C584 C583 1.397 . S
C584 C585 1.334 . S
C585 H562 0.950 . S
C585 C584 1.334 . S
C585 C586 1.287 . S
C586 C585 1.287 . S
C586 C587 1.524 . S
C586 H605 0.913 . S
C587 H563 0.950 . S
C587 C586 1.524 . S
C587 C588 1.415 . S
C588 H564 0.950 . S
C588 C583 1.363 . S
C588 C587 1.415 . S
C589 H565 0.951 . S
C589 C590 1.366 . S
C589 C591 1.388 . S
C590 C589 1.366 . S
C590 C594 1.385 . S
C591 H566 0.951 . S
C591 C589 1.388 . S
C591 C592 1.366 . S
C592 C591 1.366 . S
C592 C593 1.414 . S
C592 C595 1.499 . S
C593 H567 0.950 . S
C593 C592 1.414 . S
C593 C594 1.374 . S
C594 H568 0.950 . S
C594 C590 1.385 . S
C594 C593 1.374 . S
C595 C592 1.499 . S
C595 C596 1.373 . S
C595 C597 1.389 . S
C596 H569 0.950 . S
C596 C582 1.377 . S
C596 C595 1.373 . S
C597 C581 1.377 . S
C597 C595 1.389 . S
C597 C598 1.524 . S
C598 C597 1.524 . S
C598 C599 1.397 . S
C598 C603 1.363 . S
C599 H570 0.950 . S
C599 C598 1.397 . S
C599 C600 1.334 . S
C600 H571 0.950 . S
C600 C599 1.334 . S
C600 C601 1.287 . S
C601 C600 1.287 . S
C601 C602 1.524 . S
C601 H604 0.999 . S
C602 H572 0.950 . S
C602 C601 1.524 . S
C602 C603 1.415 . S
C603 H573 0.950 . S
C603 C598 1.363 . S
C603 C602 1.415 . S
H604 C601 0.999 . S
H605 C586 0.913 . S
H606 C624 0.951 . S
H607 C626 0.951 . S
H608 C628 0.950 . S
H609 C629 0.950 . S
H610 C631 0.950 . S
H611 C634 0.950 . S
H612 C635 0.950 . S
H613 C637 0.950 . S
H614 C638 0.950 . S
H615 C639 0.951 . S
H616 C641 0.951 . S
H617 C643 0.950 . S
H618 C644 0.950 . S
H619 C646 0.950 . S
H620 C649 0.950 . S
H621 C650 0.950 . S
H622 C652 0.950 . S
H623 C653 0.950 . S
C624 H606 0.951 . S
C624 C625 1.366 . S
C624 C626 1.388 . S
C625 C624 1.366 . S
C625 C629 1.385 . S
C626 H607 0.951 . S
C626 C624 1.388 . S
C626 C627 1.366 . S
C627 C626 1.366 . S
C627 C628 1.414 . S
C627 C630 1.499 . S
C628 H608 0.950 . S
C628 C627 1.414 . S
C628 C629 1.374 . S
C629 H609 0.950 . S
C629 C625 1.385 . S
C629 C628 1.374 . S
C630 C627 1.499 . S
C630 C631 1.373 . S
C630 C632 1.389 . S
C631 H610 0.950 . S
C631 C630 1.373 . S
C631 C647 1.377 . S
C632 C630 1.389 . S
C632 C633 1.524 . S
C632 C646 1.377 . S
C633 C632 1.524 . S
C633 C634 1.397 . S
C633 C638 1.363 . S
C634 H611 0.950 . S
C634 C633 1.397 . S
C634 C635 1.334 . S
C635 H612 0.950 . S
C635 C634 1.334 . S
C635 C636 1.287 . S
C636 C635 1.287 . S
C636 C637 1.524 . S
C636 H655 0.913 . S
C637 H613 0.950 . S
C637 C636 1.524 . S
C637 C638 1.415 . S
C638 H614 0.950 . S
C638 C633 1.363 . S
C638 C637 1.415 . S
C639 H615 0.951 . S
C639 C640 1.366 . S
C639 C641 1.388 . S
C640 C639 1.366 . S
C640 C644 1.385 . S
C641 H616 0.951 . S
C641 C639 1.388 . S
C641 C642 1.366 . S
C642 C641 1.366 . S
C642 C643 1.414 . S
C642 C645 1.499 . S
C643 H617 0.950 . S
C643 C642 1.414 . S
C643 C644 1.374 . S
C644 H618 0.950 . S
C644 C640 1.385 . S
C644 C643 1.374 . S
C645 C642 1.499 . S
C645 C646 1.373 . S
C645 C647 1.389 . S
C646 H619 0.950 . S
C646 C632 1.377 . S
C646 C645 1.373 . S
C647 C631 1.377 . S
C647 C645 1.389 . S
C647 C648 1.524 . S
C648 C647 1.524 . S
C648 C649 1.397 . S
C648 C653 1.363 . S
C649 H620 0.950 . S
C649 C648 1.397 . S
C649 C650 1.334 . S
C650 H621 0.950 . S
C650 C649 1.334 . S
C650 C651 1.287 . S
C651 C650 1.287 . S
C651 C652 1.524 . S
C651 H654 0.999 . S
C652 H622 0.950 . S
C652 C651 1.524 . S
C652 C653 1.415 . S
C653 H623 0.950 . S
C653 C648 1.363 . S
C653 C652 1.415 . S
H654 C651 0.999 . S
H655 C636 0.913 . S
H656 C674 0.951 . S
H657 C676 0.951 . S
H658 C678 0.950 . S
H659 C679 0.950 . S
H660 C681 0.950 . S
H661 C684 0.950 . S
H662 C685 0.950 . S
H663 C687 0.950 . S
H664 C688 0.950 . S
H665 C689 0.951 . S
H666 C691 0.951 . S
H667 C693 0.950 . S
H668 C694 0.950 . S
H669 C696 0.950 . S
H670 C699 0.950 . S
H671 C700 0.950 . S
H672 C702 0.950 . S
H673 C703 0.950 . S
C674 H656 0.951 . S
C674 C675 1.366 . S
C674 C676 1.388 . S
C675 C674 1.366 . S
C675 C679 1.385 . S
C676 H657 0.951 . S
C676 C674 1.388 . S
C676 C677 1.366 . S
C677 C676 1.366 . S
C677 C678 1.414 . S
C677 C680 1.499 . S
C678 H658 0.950 . S
C678 C677 1.414 . S
C678 C679 1.374 . S
C679 H659 0.950 . S
C679 C675 1.385 . S
C679 C678 1.374 . S
C680 C677 1.499 . S
C680 C681 1.373 . S
C680 C682 1.389 . S
C681 H660 0.950 . S
C681 C680 1.373 . S
C681 C697 1.377 . S
C682 C680 1.389 . S
C682 C683 1.524 . S
C682 C696 1.377 . S
C683 C682 1.524 . S
C683 C684 1.397 . S
C683 C688 1.363 . S
C684 H661 0.950 . S
C684 C683 1.397 . S
C684 C685 1.334 . S
C685 H662 0.950 . S
C685 C684 1.334 . S
C685 C686 1.287 . S
C686 C685 1.287 . S
C686 C687 1.524 . S
C686 H705 0.913 . S
C687 H663 0.950 . S
C687 C686 1.524 . S
C687 C688 1.415 . S
C688 H664 0.950 . S
C688 C683 1.363 . S
C688 C687 1.415 . S
C689 H665 0.951 . S
C689 C690 1.366 . S
C689 C691 1.388 . S
C690 C689 1.366 . S
C690 C694 1.385 . S
C691 H666 0.951 . S
C691 C689 1.388 . S
C691 C692 1.366 . S
C692 C691 1.366 . S
C692 C693 1.414 . S
C692 C695 1.499 . S
C693 H667 0.950 . S
C693 C692 1.414 . S
C693 C694 1.374 . S
C694 H668 0.950 . S
C694 C690 1.385 . S
C694 C693 1.374 . S
C695 C692 1.499 . S
C695 C696 1.373 . S
C695 C697 1.389 . S
C696 H669 0.950 . S
C696 C682 1.377 . S
C696 C695 1.373 . S
C697 C681 1.377 . S
C697 C695 1.389 . S
C697 C698 1.524 . S
C698 C697 1.524 . S
C698 C699 1.397 . S
C698 C703 1.363 . S
C699 H670 0.950 . S
C699 C698 1.397 . S
C699 C700 1.334 . S
C700 H671 0.950 . S
C700 C699 1.334 . S
C700 C701 1.287 . S
C701 C700 1.287 . S
C701 C702 1.524 . S
C701 H704 0.999 1_556 S
C702 H672 0.950 . S
C702 C701 1.524 . S
C702 C703 1.415 . S
C703 H673 0.950 . S
C703 C698 1.363 . S
C703 C702 1.415 . S
H704 C701 0.999 1_554 S
H705 C686 0.913 . S
H706 C724 0.951 . S
H707 C726 0.951 . S
H708 C728 0.950 . S
H709 C729 0.950 . S
H710 C731 0.950 . S
H711 C734 0.950 . S
H712 C735 0.950 . S
H713 C737 0.950 . S
H714 C738 0.950 . S
H715 C739 0.951 . S
H716 C741 0.951 . S
H717 C743 0.950 . S
H718 C744 0.950 . S
H719 C746 0.950 . S
H720 C749 0.950 . S
H721 C750 0.950 . S
H722 C752 0.950 . S
H723 C753 0.950 . S
C724 H706 0.951 . S
C724 C725 1.366 . S
C724 C726 1.388 . S
C725 C724 1.366 . S
C725 C729 1.385 . S
C726 H707 0.951 . S
C726 C724 1.388 . S
C726 C727 1.366 . S
C727 C726 1.366 . S
C727 C728 1.414 . S
C727 C730 1.499 . S
C728 H708 0.950 . S
C728 C727 1.414 . S
C728 C729 1.374 . S
C729 H709 0.950 . S
C729 C725 1.385 . S
C729 C728 1.374 . S
C730 C727 1.499 . S
C730 C731 1.373 . S
C730 C732 1.389 . S
C731 H710 0.950 . S
C731 C730 1.373 . S
C731 C747 1.377 . S
C732 C730 1.389 . S
C732 C733 1.524 . S
C732 C746 1.377 . S
C733 C732 1.524 . S
C733 C734 1.397 . S
C733 C738 1.363 . S
C734 H711 0.950 . S
C734 C733 1.397 . S
C734 C735 1.334 . S
C735 H712 0.950 . S
C735 C734 1.334 . S
C735 C736 1.287 . S
C736 C735 1.287 . S
C736 C737 1.524 . S
C736 H755 0.913 . S
C737 H713 0.950 . S
C737 C736 1.524 . S
C737 C738 1.415 . S
C738 H714 0.950 . S
C738 C733 1.363 . S
C738 C737 1.415 . S
C739 H715 0.951 . S
C739 C740 1.366 . S
C739 C741 1.388 . S
C740 C739 1.366 . S
C740 C744 1.385 . S
C741 H716 0.951 . S
C741 C739 1.388 . S
C741 C742 1.366 . S
C742 C741 1.366 . S
C742 C743 1.414 . S
C742 C745 1.499 . S
C743 H717 0.950 . S
C743 C742 1.414 . S
C743 C744 1.374 . S
C744 H718 0.950 . S
C744 C740 1.385 . S
C744 C743 1.374 . S
C745 C742 1.499 . S
C745 C746 1.373 . S
C745 C747 1.389 . S
C746 H719 0.950 . S
C746 C732 1.377 . S
C746 C745 1.373 . S
C747 C731 1.377 . S
C747 C745 1.389 . S
C747 C748 1.524 . S
C748 C747 1.524 . S
C748 C749 1.397 . S
C748 C753 1.363 . S
C749 H720 0.950 . S
C749 C748 1.397 . S
C749 C750 1.334 . S
C750 H721 0.950 . S
C750 C749 1.334 . S
C750 C751 1.287 . S
C751 C750 1.287 . S
C751 C752 1.524 . S
C751 H754 0.999 . S
C752 H722 0.950 . S
C752 C751 1.524 . S
C752 C753 1.415 . S
C753 H723 0.950 . S
C753 C748 1.363 . S
C753 C752 1.415 . S
H754 C751 0.999 . S
H755 C736 0.913 . S
H756 C774 0.951 . S
H757 C776 0.951 . S
H758 C778 0.950 . S
H759 C779 0.950 . S
H760 C781 0.950 . S
H761 C784 0.950 . S
H762 C785 0.950 . S
H763 C787 0.950 . S
H764 C788 0.950 . S
H765 C789 0.951 . S
H766 C791 0.951 . S
H767 C793 0.950 . S
H768 C794 0.950 . S
H769 C796 0.950 . S
H770 C799 0.950 . S
H771 C800 0.950 . S
H772 C802 0.950 . S
H773 C803 0.950 . S
C774 H756 0.951 . S
C774 C775 1.366 . S
C774 C776 1.388 . S
C775 C774 1.366 . S
C775 C779 1.385 . S
C776 H757 0.951 . S
C776 C774 1.388 . S
C776 C777 1.366 . S
C777 C776 1.366 . S
C777 C778 1.414 . S
C777 C780 1.499 . S
C778 H758 0.950 . S
C778 C777 1.414 . S
C778 C779 1.374 . S
C779 H759 0.950 . S
C779 C775 1.385 . S
C779 C778 1.374 . S
C780 C777 1.499 . S
C780 C781 1.373 . S
C780 C782 1.389 . S
C781 H760 0.950 . S
C781 C780 1.373 . S
C781 C797 1.377 . S
C782 C780 1.389 . S
C782 C783 1.524 . S
C782 C796 1.377 . S
C783 C782 1.524 . S
C783 C784 1.397 . S
C783 C788 1.363 . S
C784 H761 0.950 . S
C784 C783 1.397 . S
C784 C785 1.334 . S
C785 H762 0.950 . S
C785 C784 1.334 . S
C785 C786 1.287 . S
C786 C785 1.287 . S
C786 C787 1.524 . S
C786 H805 0.913 . S
C787 H763 0.950 . S
C787 C786 1.524 . S
C787 C788 1.415 . S
C788 H764 0.950 . S
C788 C783 1.363 . S
C788 C787 1.415 . S
C789 H765 0.951 . S
C789 C790 1.366 . S
C789 C791 1.388 . S
C790 C789 1.366 . S
C790 C794 1.385 . S
C791 H766 0.951 . S
C791 C789 1.388 . S
C791 C792 1.366 . S
C792 C791 1.366 . S
C792 C793 1.414 . S
C792 C795 1.499 . S
C793 H767 0.950 . S
C793 C792 1.414 . S
C793 C794 1.374 . S
C794 H768 0.950 . S
C794 C790 1.385 . S
C794 C793 1.374 . S
C795 C792 1.499 . S
C795 C796 1.373 . S
C795 C797 1.389 . S
C796 H769 0.950 . S
C796 C782 1.377 . S
C796 C795 1.373 . S
C797 C781 1.377 . S
C797 C795 1.389 . S
C797 C798 1.524 . S
C798 C797 1.524 . S
C798 C799 1.397 . S
C798 C803 1.363 . S
C799 H770 0.950 . S
C799 C798 1.397 . S
C799 C800 1.334 . S
C800 H771 0.950 . S
C800 C799 1.334 . S
C800 C801 1.287 . S
C801 C800 1.287 . S
C801 C802 1.524 . S
C801 H804 0.999 . S
C802 H772 0.950 . S
C802 C801 1.524 . S
C802 C803 1.415 . S
C803 H773 0.950 . S
C803 C798 1.363 . S
C803 C802 1.415 . S
H804 C801 0.999 . S
H805 C786 0.913 . S
H806 C824 0.951 . S
H807 C826 0.951 . S
H808 C828 0.950 . S
H809 C829 0.950 . S
H810 C831 0.950 . S
H811 C834 0.950 . S
H812 C835 0.950 . S
H813 C837 0.950 . S
H814 C838 0.950 . S
H815 C839 0.951 . S
H816 C841 0.951 . S
H817 C843 0.950 . S
H818 C844 0.950 . S
H819 C846 0.950 . S
H820 C849 0.950 . S
H821 C850 0.950 . S
H822 C852 0.950 . S
H823 C853 0.950 . S
C824 H806 0.951 . S
C824 C825 1.366 . S
C824 C826 1.388 . S
C825 C824 1.366 . S
C825 C829 1.385 . S
C826 H807 0.951 . S
C826 C824 1.388 . S
C826 C827 1.366 . S
C827 C826 1.366 . S
C827 C828 1.414 . S
C827 C830 1.499 . S
C828 H808 0.950 . S
C828 C827 1.414 . S
C828 C829 1.374 . S
C829 H809 0.950 . S
C829 C825 1.385 . S
C829 C828 1.374 . S
C830 C827 1.499 . S
C830 C831 1.373 . S
C830 C832 1.389 . S
C831 H810 0.950 . S
C831 C830 1.373 . S
C831 C847 1.377 . S
C832 C830 1.389 . S
C832 C833 1.524 . S
C832 C846 1.377 . S
C833 C832 1.524 . S
C833 C834 1.397 . S
C833 C838 1.363 . S
C834 H811 0.950 . S
C834 C833 1.397 . S
C834 C835 1.334 . S
C835 H812 0.950 . S
C835 C834 1.334 . S
C835 C836 1.287 . S
C836 C835 1.287 . S
C836 C837 1.524 . S
C836 H855 0.913 . S
C837 H813 0.950 . S
C837 C836 1.524 . S
C837 C838 1.415 . S
C838 H814 0.950 . S
C838 C833 1.363 . S
C838 C837 1.415 . S
C839 H815 0.951 . S
C839 C840 1.366 . S
C839 C841 1.388 . S
C840 C839 1.366 . S
C840 C844 1.385 . S
C841 H816 0.951 . S
C841 C839 1.388 . S
C841 C842 1.366 . S
C842 C841 1.366 . S
C842 C843 1.414 . S
C842 C845 1.499 . S
C843 H817 0.950 . S
C843 C842 1.414 . S
C843 C844 1.374 . S
C844 H818 0.950 . S
C844 C840 1.385 . S
C844 C843 1.374 . S
C845 C842 1.499 . S
C845 C846 1.373 . S
C845 C847 1.389 . S
C846 H819 0.950 . S
C846 C832 1.377 . S
C846 C845 1.373 . S
C847 C831 1.377 . S
C847 C845 1.389 . S
C847 C848 1.524 . S
C848 C847 1.524 . S
C848 C849 1.397 . S
C848 C853 1.363 . S
C849 H820 0.950 . S
C849 C848 1.397 . S
C849 C850 1.334 . S
C850 H821 0.950 . S
C850 C849 1.334 . S
C850 C851 1.287 . S
C851 C850 1.287 . S
C851 C852 1.524 . S
C851 H854 0.999 . S
C852 H822 0.950 . S
C852 C851 1.524 . S
C852 C853 1.415 . S
C853 H823 0.950 . S
C853 C848 1.363 . S
C853 C852 1.415 . S
H854 C851 0.999 . S
H855 C836 0.913 . S
H856 C874 0.951 . S
H857 C876 0.951 . S
H858 C878 0.950 . S
H859 C879 0.950 . S
H860 C881 0.950 . S
H861 C884 0.950 . S
H862 C885 0.950 . S
H863 C887 0.950 . S
H864 C888 0.950 . S
H865 C889 0.951 . S
H866 C891 0.951 . S
H867 C893 0.950 . S
H868 C894 0.950 . S
H869 C896 0.950 . S
H870 C899 0.950 . S
H871 C900 0.950 . S
H872 C902 0.950 . S
H873 C903 0.950 . S
C874 H856 0.951 . S
C874 C875 1.366 . S
C874 C876 1.388 . S
C875 C874 1.366 . S
C875 C879 1.385 . S
C876 H857 0.951 . S
C876 C874 1.388 . S
C876 C877 1.366 . S
C877 C876 1.366 . S
C877 C878 1.414 . S
C877 C880 1.499 . S
C878 H858 0.950 . S
C878 C877 1.414 . S
C878 C879 1.374 . S
C879 H859 0.950 . S
C879 C875 1.385 . S
C879 C878 1.374 . S
C880 C877 1.499 . S
C880 C881 1.373 . S
C880 C882 1.389 . S
C881 H860 0.950 . S
C881 C880 1.373 . S
C881 C897 1.377 . S
C882 C880 1.389 . S
C882 C883 1.524 . S
C882 C896 1.377 . S
C883 C882 1.524 . S
C883 C884 1.397 . S
C883 C888 1.363 . S
C884 H861 0.950 . S
C884 C883 1.397 . S
C884 C885 1.334 . S
C885 H862 0.950 . S
C885 C884 1.334 . S
C885 C886 1.287 . S
C886 C885 1.287 . S
C886 C887 1.524 . S
C886 H905 0.913 . S
C887 H863 0.950 . S
C887 C886 1.524 . S
C887 C888 1.415 . S
C888 H864 0.950 . S
C888 C883 1.363 . S
C888 C887 1.415 . S
C889 H865 0.951 . S
C889 C890 1.366 . S
C889 C891 1.388 . S
C890 C889 1.366 . S
C890 C894 1.385 . S
C891 H866 0.951 . S
C891 C889 1.388 . S
C891 C892 1.366 . S
C892 C891 1.366 . S
C892 C893 1.414 . S
C892 C895 1.499 . S
C893 H867 0.950 . S
C893 C892 1.414 . S
C893 C894 1.374 . S
C894 H868 0.950 . S
C894 C890 1.385 . S
C894 C893 1.374 . S
C895 C892 1.499 . S
C895 C896 1.373 . S
C895 C897 1.389 . S
C896 H869 0.950 . S
C896 C882 1.377 . S
C896 C895 1.373 . S
C897 C881 1.377 . S
C897 C895 1.389 . S
C897 C898 1.524 . S
C898 C897 1.524 . S
C898 C899 1.397 . S
C898 C903 1.363 . S
C899 H870 0.950 . S
C899 C898 1.397 . S
C899 C900 1.334 . S
C900 H871 0.950 . S
C900 C899 1.334 . S
C900 C901 1.287 . S
C901 C900 1.287 . S
C901 C902 1.524 . S
C901 H904 0.999 . S
C902 H872 0.950 . S
C902 C901 1.524 . S
C902 C903 1.415 . S
C903 H873 0.950 . S
C903 C898 1.363 . S
C903 C902 1.415 . S
H904 C901 0.999 . S
H905 C886 0.913 . S
H906 C924 0.979 . S
H907 C926 0.951 . S
H908 C928 0.950 . S
H909 C929 0.950 . S
H910 C931 0.950 . S
H911 C934 0.950 1_554 S
H912 C935 0.950 . S
H913 C937 0.950 . S
H914 C938 0.950 . S
H915 C939 0.951 . S
H916 C941 0.951 . S
H917 C943 0.950 . S
H918 C944 0.950 . S
H919 C946 0.950 . S
H920 C949 0.950 . S
H921 C950 0.950 . S
H922 C952 0.950 . S
H923 C953 0.950 . S
C924 H906 0.979 . S
C924 C925 1.366 . S
C924 C926 1.388 . S
C925 C924 1.366 . S
C925 C929 1.385 . S
C926 H907 0.951 . S
C926 C924 1.388 . S
C926 C927 1.366 . S
C927 C926 1.366 . S
C927 C928 1.414 . S
C927 C930 1.499 . S
C928 H908 0.950 . S
C928 C927 1.414 . S
C928 C929 1.374 . S
C929 H909 0.950 . S
C929 C925 1.385 . S
C929 C928 1.374 . S
C930 C927 1.499 . S
C930 C931 1.373 . S
C930 C932 1.389 . S
C931 H910 0.950 . S
C931 C930 1.373 . S
C931 C947 1.377 . S
C932 C930 1.389 . S
C932 C933 1.524 1_554 S
C932 C946 1.377 . S
C933 C932 1.524 1_556 S
C933 C934 1.397 . S
C933 C938 1.363 . S
C934 H911 0.950 1_556 S
C934 C933 1.397 . S
C934 C935 1.334 . S
C935 H912 0.950 . S
C935 C934 1.334 . S
C935 C936 1.287 . S
C936 C935 1.287 . S
C936 C937 1.524 . S
C936 H955 0.913 . S
C937 H913 0.950 . S
C937 C936 1.524 . S
C937 C938 1.415 . S
C938 H914 0.950 . S
C938 C933 1.363 . S
C938 C937 1.415 . S
C939 H915 0.951 . S
C939 C940 1.366 . S
C939 C941 1.388 . S
C940 C939 1.366 . S
C940 C944 1.385 . S
C941 H916 0.951 . S
C941 C939 1.388 . S
C941 C942 1.366 . S
C942 C941 1.366 . S
C942 C943 1.414 . S
C942 C945 1.499 . S
C943 H917 0.950 . S
C943 C942 1.414 . S
C943 C944 1.374 . S
C944 H918 0.950 . S
C944 C940 1.385 . S
C944 C943 1.374 . S
C945 C942 1.499 . S
C945 C946 1.373 . S
C945 C947 1.389 . S
C946 H919 0.950 . S
C946 C932 1.377 . S
C946 C945 1.373 . S
C947 C931 1.377 . S
C947 C945 1.389 . S
C947 C948 1.524 . S
C948 C947 1.524 . S
C948 C949 1.397 . S
C948 C953 1.363 . S
C949 H920 0.950 . S
C949 C948 1.397 . S
C949 C950 1.334 . S
C950 H921 0.950 . S
C950 C949 1.334 . S
C950 C951 1.287 . S
C951 C950 1.287 . S
C951 C952 1.524 . S
C951 H954 0.999 . S
C952 H922 0.950 . S
C952 C951 1.524 . S
C952 C953 1.415 . S
C953 H923 0.950 . S
C953 C948 1.363 . S
C953 C952 1.415 . S
H954 C951 0.999 . S
H955 C936 0.913 . S
H956 C974 0.951 . S
H957 C976 0.951 . S
H958 C978 0.950 . S
H959 C979 0.950 . S
H960 C981 0.950 . S
H961 C984 0.950 . S
H962 C985 0.950 . S
H963 C987 0.950 . S
H964 C988 0.950 . S
H965 C989 0.951 . S
H966 C991 0.951 . S
H967 C993 0.950 . S
H968 C994 0.950 . S
H969 C996 0.950 . S
H970 C999 0.950 . S
H971 C1000 0.950 . S
H972 C1002 0.950 . S
H973 C1003 0.950 . S
C974 H956 0.951 . S
C974 C975 1.366 . S
C974 C976 1.388 . S
C975 C974 1.366 . S
C975 C979 1.385 . S
C976 H957 0.951 . S
C976 C974 1.388 . S
C976 C977 1.366 . S
C977 C976 1.366 . S
C977 C978 1.414 . S
C977 C980 1.499 . S
C978 H958 0.950 . S
C978 C977 1.414 . S
C978 C979 1.374 . S
C979 H959 0.950 . S
C979 C975 1.385 . S
C979 C978 1.374 . S
C980 C977 1.499 . S
C980 C981 1.373 . S
C980 C982 1.389 . S
C981 H960 0.950 . S
C981 C980 1.373 . S
C981 C997 1.377 . S
C982 C980 1.389 . S
C982 C983 1.524 . S
C982 C996 1.377 . S
C983 C982 1.524 . S
C983 C984 1.397 . S
C983 C988 1.363 . S
C984 H961 0.950 . S
C984 C983 1.397 . S
C984 C985 1.334 . S
C985 H962 0.950 . S
C985 C984 1.334 . S
C985 C986 1.287 . S
C986 C985 1.287 . S
C986 C987 1.524 . S
C986 H1005 0.913 . S
C987 H963 0.950 . S
C987 C986 1.524 . S
C987 C988 1.415 . S
C988 H964 0.950 . S
C988 C983 1.363 . S
C988 C987 1.415 . S
C989 H965 0.951 . S
C989 C990 1.366 . S
C989 C991 1.388 . S
C990 C989 1.366 . S
C990 C994 1.385 . S
C991 H966 0.951 . S
C991 C989 1.388 . S
C991 C992 1.366 . S
C992 C991 1.366 . S
C992 C993 1.414 . S
C992 C995 1.499 . S
C993 H967 0.950 . S
C993 C992 1.414 . S
C993 C994 1.374 . S
C994 H968 0.950 . S
C994 C990 1.385 . S
C994 C993 1.374 . S
C995 C992 1.499 . S
C995 C996 1.373 . S
C995 C997 1.389 . S
C996 H969 0.950 . S
C996 C982 1.377 . S
C996 C995 1.373 . S
C997 C981 1.377 . S
C997 C995 1.389 . S
C997 C998 1.524 . S
C998 C997 1.524 . S
C998 C999 1.397 . S
C998 C1003 1.363 . S
C999 H970 0.950 . S
C999 C998 1.397 . S
C999 C1000 1.334 . S
C1000 H971 0.950 . S
C1000 C999 1.334 . S
C1000 C1001 1.287 . S
C1001 C1000 1.287 . S
C1001 C1002 1.524 . S
C1001 H1004 0.999 . S
C1002 H972 0.950 . S
C1002 C1001 1.524 . S
C1002 C1003 1.415 . S
C1003 H973 0.950 . S
C1003 C998 1.363 . S
C1003 C1002 1.415 . S
H1004 C1001 0.999 . S
H1005 C986 0.913 . S
H1006 C1024 0.951 . S
H1007 C1026 0.951 . S
H1008 C1028 0.950 . S
H1009 C1029 0.950 . S
H1010 C1031 0.950 . S
H1011 C1034 0.950 . S
H1012 C1035 0.950 . S
H1013 C1037 0.950 . S
H1014 C1038 0.950 . S
H1015 C1039 0.951 . S
H1016 C1041 0.951 . S
H1017 C1043 0.950 . S
H1018 C1044 0.950 . S
H1019 C1046 0.950 . S
H1020 C1049 0.950 . S
H1021 C1050 0.950 . S
H1022 C1052 0.950 . S
H1023 C1053 0.950 . S
C1024 H1006 0.951 . S
C1024 C1025 1.366 . S
C1024 C1026 1.388 . S
C1025 C1024 1.366 . S
C1025 C1029 1.385 . S
C1026 H1007 0.951 . S
C1026 C1024 1.388 . S
C1026 C1027 1.366 . S
C1027 C1026 1.366 . S
C1027 C1028 1.414 . S
C1027 C1030 1.499 . S
C1028 H1008 0.950 . S
C1028 C1027 1.414 . S
C1028 C1029 1.374 . S
C1029 H1009 0.950 . S
C1029 C1025 1.385 . S
C1029 C1028 1.374 . S
C1030 C1027 1.499 . S
C1030 C1031 1.373 . S
C1030 C1032 1.389 . S
C1031 H1010 0.950 . S
C1031 C1030 1.373 . S
C1031 C1047 1.377 . S
C1032 C1030 1.389 . S
C1032 C1033 1.524 . S
C1032 C1046 1.377 . S
C1033 C1032 1.524 . S
C1033 C1034 1.397 . S
C1033 C1038 1.363 . S
C1034 H1011 0.950 . S
C1034 C1033 1.397 . S
C1034 C1035 1.334 . S
C1035 H1012 0.950 . S
C1035 C1034 1.334 . S
C1035 C1036 1.287 . S
C1036 C1035 1.287 . S
C1036 C1037 1.524 . S
C1036 H1055 0.913 . S
C1037 H1013 0.950 . S
C1037 C1036 1.524 . S
C1037 C1038 1.415 . S
C1038 H1014 0.950 . S
C1038 C1033 1.363 . S
C1038 C1037 1.415 . S
C1039 H1015 0.951 . S
C1039 C1040 1.366 . S
C1039 C1041 1.388 . S
C1040 C1039 1.366 . S
C1040 C1044 1.385 . S
C1041 H1016 0.951 . S
C1041 C1039 1.388 . S
C1041 C1042 1.366 . S
C1042 C1041 1.366 . S
C1042 C1043 1.414 . S
C1042 C1045 1.499 . S
C1043 H1017 0.950 . S
C1043 C1042 1.414 . S
C1043 C1044 1.374 . S
C1044 H1018 0.950 . S
C1044 C1040 1.385 . S
C1044 C1043 1.374 . S
C1045 C1042 1.499 . S
C1045 C1046 1.373 . S
C1045 C1047 1.389 . S
C1046 H1019 0.950 . S
C1046 C1032 1.377 . S
C1046 C1045 1.373 . S
C1047 C1031 1.377 . S
C1047 C1045 1.389 . S
C1047 C1048 1.524 . S
C1048 C1047 1.524 . S
C1048 C1049 1.397 . S
C1048 C1053 1.363 . S
C1049 H1020 0.950 . S
C1049 C1048 1.397 . S
C1049 C1050 1.334 . S
C1050 H1021 0.950 . S
C1050 C1049 1.334 . S
C1050 C1051 1.287 . S
C1051 C1050 1.287 . S
C1051 C1052 1.524 . S
C1051 H1054 0.999 . S
C1052 H1022 0.950 . S
C1052 C1051 1.524 . S
C1052 C1053 1.415 . S
C1053 H1023 0.950 . S
C1053 C1048 1.363 . S
C1053 C1052 1.415 . S
H1054 C1051 0.999 . S
H1055 C1036 0.913 . S
H1056 C1074 0.951 . S
H1057 C1076 0.951 . S
H1058 C1078 0.950 . S
H1059 C1079 0.950 . S
H1060 C1081 0.950 . S
H1061 C1084 0.950 . S
H1062 C1085 0.950 . S
H1063 C1087 0.950 . S
H1064 C1088 0.950 . S
H1065 C1089 0.951 . S
H1066 C1091 0.951 . S
H1067 C1093 0.950 . S
H1068 C1094 0.950 . S
H1069 C1096 0.950 . S
H1070 C1099 0.950 . S
H1071 C1100 0.950 . S
H1072 C1102 0.950 . S
H1073 C1103 0.950 . S
C1074 H1056 0.951 . S
C1074 C1075 1.366 . S
C1074 C1076 1.388 . S
C1075 C1074 1.366 . S
C1075 C1079 1.385 . S
C1076 H1057 0.951 . S
C1076 C1074 1.388 . S
C1076 C1077 1.366 . S
C1077 C1076 1.366 . S
C1077 C1078 1.414 . S
C1077 C1080 1.499 . S
C1078 H1058 0.950 . S
C1078 C1077 1.414 . S
C1078 C1079 1.374 . S
C1079 H1059 0.950 . S
C1079 C1075 1.385 . S
C1079 C1078 1.374 . S
C1080 C1077 1.499 . S
C1080 C1081 1.373 . S
C1080 C1082 1.389 . S
C1081 H1060 0.950 . S
C1081 C1080 1.373 . S
C1081 C1097 1.377 . S
C1082 C1080 1.389 . S
C1082 C1083 1.524 . S
C1082 C1096 1.377 . S
C1083 C1082 1.524 . S
C1083 C1084 1.397 . S
C1083 C1088 1.363 . S
C1084 H1061 0.950 . S
C1084 C1083 1.397 . S
C1084 C1085 1.334 . S
C1085 H1062 0.950 . S
C1085 C1084 1.334 . S
C1085 C1086 1.287 . S
C1086 C1085 1.287 . S
C1086 C1087 1.524 . S
C1086 H1105 0.913 . S
C1087 H1063 0.950 . S
C1087 C1086 1.524 . S
C1087 C1088 1.415 . S
C1088 H1064 0.950 . S
C1088 C1083 1.363 . S
C1088 C1087 1.415 . S
C1089 H1065 0.951 . S
C1089 C1090 1.366 . S
C1089 C1091 1.388 . S
C1090 C1089 1.366 . S
C1090 C1094 1.385 . S
C1091 H1066 0.951 . S
C1091 C1089 1.388 . S
C1091 C1092 1.366 . S
C1092 C1091 1.366 . S
C1092 C1093 1.414 . S
C1092 C1095 1.499 . S
C1093 H1067 0.950 . S
C1093 C1092 1.414 . S
C1093 C1094 1.374 . S
C1094 H1068 0.950 . S
C1094 C1090 1.385 . S
C1094 C1093 1.374 . S
C1095 C1092 1.499 . S
C1095 C1096 1.373 . S
C1095 C1097 1.389 . S
C1096 H1069 0.950 . S
C1096 C1082 1.377 . S
C1096 C1095 1.373 . S
C1097 C1081 1.377 . S
C1097 C1095 1.389 . S
C1097 C1098 1.524 . S
C1098 C1097 1.524 . S
C1098 C1099 1.397 . S
C1098 C1103 1.363 . S
C1099 H1070 0.950 . S
C1099 C1098 1.397 . S
C1099 C1100 1.334 . S
C1100 H1071 0.950 . S
C1100 C1099 1.334 . S
C1100 C1101 1.287 . S
C1101 C1100 1.287 . S
C1101 C1102 1.524 . S
C1101 H1104 0.999 . S
C1102 H1072 0.950 . S
C1102 C1101 1.524 . S
C1102 C1103 1.415 . S
C1103 H1073 0.950 . S
C1103 C1098 1.363 . S
C1103 C1102 1.415 . S
H1104 C1101 0.999 . S
H1105 C1086 0.913 . S
H1106 C1124 0.951 . S
H1107 C1126 0.951 . S
H1108 C1128 0.950 . S
H1109 C1129 0.950 . S
H1110 C1131 0.950 . S
H1111 C1134 0.950 . S
H1112 C1135 0.950 . S
H1113 C1137 0.950 . S
H1114 C1138 0.950 . S
H1115 C1139 0.951 . S
H1116 C1141 0.951 . S
H1117 C1143 0.950 . S
H1118 C1144 0.950 . S
H1119 C1146 0.950 . S
H1120 C1149 0.950 . S
H1121 C1150 0.950 . S
H1122 C1152 0.950 . S
H1123 C1153 0.950 . S
C1124 H1106 0.951 . S
C1124 C1125 1.366 . S
C1124 C1126 1.388 . S
C1125 C1124 1.366 . S
C1125 C1129 1.385 . S
C1126 H1107 0.951 . S
C1126 C1124 1.388 . S
C1126 C1127 1.366 . S
C1127 C1126 1.366 . S
C1127 C1128 1.414 . S
C1127 C1130 1.499 . S
C1128 H1108 0.950 . S
C1128 C1127 1.414 . S
C1128 C1129 1.374 . S
C1129 H1109 0.950 . S
C1129 C1125 1.385 . S
C1129 C1128 1.374 . S
C1130 C1127 1.499 . S
C1130 C1131 1.373 . S
C1130 C1132 1.389 . S
C1131 H1110 0.950 . S
C1131 C1130 1.373 . S
C1131 C1147 1.377 . S
C1132 C1130 1.389 . S
C1132 C1133 1.524 . S
C1132 C1146 1.377 . S
C1133 C1132 1.524 . S
C1133 C1134 1.397 . S
C1133 C1138 1.363 . S
C1134 H1111 0.950 . S
C1134 C1133 1.397 . S
C1134 C1135 1.334 . S
C1135 H1112 0.950 . S
C1135 C1134 1.334 . S
C1135 C1136 1.287 . S
C1136 C1135 1.287 . S
C1136 C1137 1.524 . S
C1136 H1155 0.913 . S
C1137 H1113 0.950 . S
C1137 C1136 1.524 . S
C1137 C1138 1.415 . S
C1138 H1114 0.950 . S
C1138 C1133 1.363 . S
C1138 C1137 1.415 . S
C1139 H1115 0.951 . S
C1139 C1140 1.366 . S
C1139 C1141 1.388 . S
C1140 C1139 1.366 . S
C1140 C1144 1.385 . S
C1141 H1116 0.951 . S
C1141 C1139 1.388 . S
C1141 C1142 1.366 . S
C1142 C1141 1.366 . S
C1142 C1143 1.414 . S
C1142 C1145 1.499 . S
C1143 H1117 0.950 . S
C1143 C1142 1.414 . S
C1143 C1144 1.374 . S
C1144 H1118 0.950 . S
C1144 C1140 1.385 . S
C1144 C1143 1.374 . S
C1145 C1142 1.499 . S
C1145 C1146 1.373 . S
C1145 C1147 1.389 . S
C1146 H1119 0.950 . S
C1146 C1132 1.377 . S
C1146 C1145 1.373 . S
C1147 C1131 1.377 . S
C1147 C1145 1.389 . S
C1147 C1148 1.524 . S
C1148 C1147 1.524 . S
C1148 C1149 1.397 . S
C1148 C1153 1.363 . S
C1149 H1120 0.950 . S
C1149 C1148 1.397 . S
C1149 C1150 1.334 . S
C1150 H1121 0.950 . S
C1150 C1149 1.334 . S
C1150 C1151 1.287 . S
C1151 C1150 1.287 . S
C1151 C1152 1.524 . S
C1151 H1154 0.999 . S
C1152 H1122 0.950 . S
C1152 C1151 1.524 . S
C1152 C1153 1.415 . S
C1153 H1123 0.950 . S
C1153 C1148 1.363 . S
C1153 C1152 1.415 . S
H1154 C1151 0.999 . S
H1155 C1136 0.913 . S
H1156 C1174 0.951 . S
H1157 C1176 0.951 . S
H1158 C1178 0.950 . S
H1159 C1179 0.950 . S
H1160 C1181 0.950 . S
H1161 C1184 0.950 . S
H1162 C1185 0.950 . S
H1163 C1187 0.950 . S
H1164 C1188 0.950 . S
H1165 C1189 0.951 . S
H1166 C1191 0.951 . S
H1167 C1193 0.950 . S
H1168 C1194 0.950 . S
H1169 C1196 0.950 . S
H1170 C1199 0.950 . S
H1171 C1200 0.950 . S
H1172 C1202 0.950 . S
H1173 C1203 0.950 . S
C1174 H1156 0.951 . S
C1174 C1175 1.366 . S
C1174 C1176 1.388 . S
C1175 C1174 1.366 . S
C1175 C1179 1.385 . S
C1176 H1157 0.951 . S
C1176 C1174 1.388 . S
C1176 C1177 1.366 . S
C1177 C1176 1.366 . S
C1177 C1178 1.414 . S
C1177 C1180 1.499 . S
C1178 H1158 0.950 . S
C1178 C1177 1.414 . S
C1178 C1179 1.374 . S
C1179 H1159 0.950 . S
C1179 C1175 1.385 . S
C1179 C1178 1.374 . S
C1180 C1177 1.499 . S
C1180 C1181 1.373 . S
C1180 C1182 1.389 . S
C1181 H1160 0.950 . S
C1181 C1180 1.373 . S
C1181 C1197 1.377 . S
C1182 C1180 1.389 . S
C1182 C1183 1.524 . S
C1182 C1196 1.377 . S
C1183 C1182 1.524 . S
C1183 C1184 1.397 . S
C1183 C1188 1.363 . S
C1184 H1161 0.950 . S
C1184 C1183 1.397 . S
C1184 C1185 1.334 . S
C1185 H1162 0.950 . S
C1185 C1184 1.334 . S
C1185 C1186 1.287 . S
C1186 C1185 1.287 . S
C1186 C1187 1.524 . S
C1186 H1205 0.913 . S
C1187 H1163 0.950 . S
C1187 C1186 1.524 . S
C1187 C1188 1.415 . S
C1188 H1164 0.950 . S
C1188 C1183 1.363 . S
C1188 C1187 1.415 . S
C1189 H1165 0.951 . S
C1189 C1190 1.366 . S
C1189 C1191 1.388 . S
C1190 C1189 1.366 . S
C1190 C1194 1.385 . S
C1191 H1166 0.951 . S
C1191 C1189 1.388 . S
C1191 C1192 1.366 . S
C1192 C1191 1.366 . S
C1192 C1193 1.414 . S
C1192 C1195 1.499 . S
C1193 H1167 0.950 . S
C1193 C1192 1.414 . S
C1193 C1194 1.374 . S
C1194 H1168 0.950 . S
C1194 C1190 1.385 . S
C1194 C1193 1.374 . S
C1195 C1192 1.499 . S
C1195 C1196 1.373 . S
C1195 C1197 1.389 . S
C1196 H1169 0.950 . S
C1196 C1182 1.377 . S
C1196 C1195 1.373 . S
C1197 C1181 1.377 . S
C1197 C1195 1.389 . S
C1197 C1198 1.524 . S
C1198 C1197 1.524 . S
C1198 C1199 1.397 . S
C1198 C1203 1.363 . S
C1199 H1170 0.950 . S
C1199 C1198 1.397 . S
C1199 C1200 1.334 . S
C1200 H1171 0.950 . S
C1200 C1199 1.334 . S
C1200 C1201 1.287 . S
C1201 C1200 1.287 . S
C1201 C1202 1.524 . S
C1201 H1204 0.999 . S
C1202 H1172 0.950 . S
C1202 C1201 1.524 . S
C1202 C1203 1.415 . S
C1203 H1173 0.950 . S
C1203 C1198 1.363 . S
C1203 C1202 1.415 . S
H1204 C1201 0.999 . S
H1205 C1186 0.913 . S
H1206 C1224 0.951 . S
H1207 C1226 0.951 . S
H1208 C1228 0.950 . S
H1209 C1229 0.950 . S
H1210 C1231 0.950 . S
H1211 C1234 0.950 . S
H1212 C1235 0.950 . S
H1213 C1237 0.950 . S
H1214 C1238 0.950 . S
H1215 C1239 0.951 . S
H1216 C1241 0.951 . S
H1217 C1243 0.950 . S
H1218 C1244 0.950 . S
H1219 C1246 0.950 . S
H1220 C1249 0.950 . S
H1221 C1250 0.950 . S
H1222 C1252 0.950 . S
H1223 C1253 0.950 . S
C1224 H1206 0.951 . S
C1224 C1225 1.366 . S
C1224 C1226 1.388 . S
C1225 C1224 1.366 . S
C1225 C1229 1.385 . S
C1226 H1207 0.951 . S
C1226 C1224 1.388 . S
C1226 C1227 1.366 . S
C1227 C1226 1.366 . S
C1227 C1228 1.414 . S
C1227 C1230 1.499 . S
C1228 H1208 0.950 . S
C1228 C1227 1.414 . S
C1228 C1229 1.374 . S
C1229 H1209 0.950 . S
C1229 C1225 1.385 . S
C1229 C1228 1.374 . S
C1230 C1227 1.499 . S
C1230 C1231 1.373 . S
C1230 C1232 1.389 . S
C1231 H1210 0.950 . S
C1231 C1230 1.373 . S
C1231 C1247 1.377 . S
C1232 C1230 1.389 . S
C1232 C1233 1.524 . S
C1232 C1246 1.377 . S
C1233 C1232 1.524 . S
C1233 C1234 1.397 . S
C1233 C1238 1.363 . S
C1234 H1211 0.950 . S
C1234 C1233 1.397 . S
C1234 C1235 1.334 . S
C1235 H1212 0.950 . S
C1235 C1234 1.334 . S
C1235 C1236 1.287 . S
C1236 C1235 1.287 . S
C1236 C1237 1.524 . S
C1236 H1255 0.913 . S
C1237 H1213 0.950 . S
C1237 C1236 1.524 . S
C1237 C1238 1.415 . S
C1238 H1214 0.950 . S
C1238 C1233 1.363 . S
C1238 C1237 1.415 . S
C1239 H1215 0.951 . S
C1239 C1240 1.366 . S
C1239 C1241 1.388 . S
C1240 C1239 1.366 . S
C1240 C1244 1.385 . S
C1241 H1216 0.951 . S
C1241 C1239 1.388 . S
C1241 C1242 1.366 1_554 S
C1242 C1241 1.366 1_556 S
C1242 C1243 1.414 . S
C1242 C1245 1.499 . S
C1243 H1217 0.950 . S
C1243 C1242 1.414 . S
C1243 C1244 1.374 1_556 S
C1244 H1218 0.950 . S
C1244 C1240 1.385 . S
C1244 C1243 1.374 1_554 S
C1245 C1242 1.499 . S
C1245 C1246 1.373 . S
C1245 C1247 1.389 . S
C1246 H1219 0.950 . S
C1246 C1232 1.377 . S
C1246 C1245 1.373 . S
C1247 C1231 1.377 . S
C1247 C1245 1.389 . S
C1247 C1248 1.524 . S
C1248 C1247 1.524 . S
C1248 C1249 1.397 . S
C1248 C1253 1.363 . S
C1249 H1220 0.950 . S
C1249 C1248 1.397 . S
C1249 C1250 1.334 . S
C1250 H1221 0.950 . S
C1250 C1249 1.334 . S
C1250 C1251 1.287 . S
C1251 C1250 1.287 . S
C1251 C1252 1.524 . S
C1251 H1254 0.999 . S
C1252 H1222 0.950 . S
C1252 C1251 1.524 . S
C1252 C1253 1.415 . S
C1253 H1223 0.950 . S
C1253 C1248 1.363 . S
C1253 C1252 1.415 . S
H1254 C1251 0.999 . S
H1255 C1236 0.913 . S
H1256 C1274 0.951 . S
H1257 C1276 0.951 . S
H1258 C1278 0.950 . S
H1259 C1279 0.950 . S
H1260 C1281 0.950 . S
H1261 C1284 0.950 . S
H1262 C1285 0.950 . S
H1263 C1287 0.950 . S
H1264 C1288 0.950 . S
H1265 C1289 0.951 . S
H1266 C1291 0.951 . S
H1267 C1293 0.950 . S
H1268 C1294 0.950 . S
H1269 C1296 0.950 . S
H1270 C1299 0.950 . S
H1271 C1300 0.950 . S
H1272 C1302 0.950 . S
H1273 C1303 0.950 . S
C1274 H1256 0.951 . S
C1274 C1275 1.366 . S
C1274 C1276 1.388 . S
C1275 C1274 1.366 . S
C1275 C1279 1.385 . S
C1276 H1257 0.951 . S
C1276 C1274 1.388 . S
C1276 C1277 1.366 . S
C1277 C1276 1.366 . S
C1277 C1278 1.414 . S
C1277 C1280 1.499 . S
C1278 H1258 0.950 . S
C1278 C1277 1.414 . S
C1278 C1279 1.374 . S
C1279 H1259 0.950 . S
C1279 C1275 1.385 . S
C1279 C1278 1.374 . S
C1280 C1277 1.499 . S
C1280 C1281 1.373 . S
C1280 C1282 1.389 . S
C1281 H1260 0.950 . S
C1281 C1280 1.373 . S
C1281 C1297 1.377 . S
C1282 C1280 1.389 . S
C1282 C1283 1.524 . S
C1282 C1296 1.377 . S
C1283 C1282 1.524 . S
C1283 C1284 1.397 . S
C1283 C1288 1.363 . S
C1284 H1261 0.950 . S
C1284 C1283 1.397 . S
C1284 C1285 1.334 . S
C1285 H1262 0.950 . S
C1285 C1284 1.334 . S
C1285 C1286 1.287 . S
C1286 C1285 1.287 . S
C1286 C1287 1.524 . S
C1286 H1305 0.913 . S
C1287 H1263 0.950 . S
C1287 C1286 1.524 . S
C1287 C1288 1.415 . S
C1288 H1264 0.950 . S
C1288 C1283 1.363 . S
C1288 C1287 1.415 . S
C1289 H1265 0.951 . S
C1289 C1290 1.366 . S
C1289 C1291 1.388 . S
C1290 C1289 1.366 . S
C1290 C1294 1.385 . S
C1291 H1266 0.951 . S
C1291 C1289 1.388 . S
C1291 C1292 1.366 . S
C1292 C1291 1.366 . S
C1292 C1293 1.414 . S
C1292 C1295 1.499 . S
C1293 H1267 0.950 . S
C1293 C1292 1.414 . S
C1293 C1294 1.374 . S
C1294 H1268 0.950 . S
C1294 C1290 1.385 . S
C1294 C1293 1.374 . S
C1295 C1292 1.499 . S
C1295 C1296 1.373 . S
C1295 C1297 1.389 . S
C1296 H1269 0.950 . S
C1296 C1282 1.377 . S
C1296 C1295 1.373 . S
C1297 C1281 1.377 . S
C1297 C1295 1.389 . S
C1297 C1298 1.524 . S
C1298 C1297 1.524 . S
C1298 C1299 1.397 . S
C1298 C1303 1.363 . S
C1299 H1270 0.950 . S
C1299 C1298 1.397 . S
C1299 C1300 1.334 . S
C1300 H1271 0.950 . S
C1300 C1299 1.334 . S
C1300 C1301 1.287 . S
C1301 C1300 1.287 . S
C1301 C1302 1.524 . S
C1301 H1304 0.999 . S
C1302 H1272 0.950 . S
C1302 C1301 1.524 . S
C1302 C1303 1.415 . S
C1303 H1273 0.950 . S
C1303 C1298 1.363 . S
C1303 C1302 1.415 . S
H1304 C1301 0.999 . S
H1305 C1286 0.913 . S
H1306 C1324 0.951 . S
H1307 C1326 0.951 . S
H1308 C1328 0.950 . S
H1309 C1329 0.950 . S
H1310 C1331 0.950 . S
H1311 C1334 0.950 . S
H1312 C1335 0.950 . S
H1313 C1337 0.950 . S
H1314 C1338 0.950 . S
H1315 C1339 0.951 . S
H1316 C1341 0.951 . S
H1317 C1343 0.950 . S
H1318 C1344 0.950 . S
H1319 C1346 0.950 . S
H1320 C1349 0.950 . S
H1321 C1350 0.950 . S
H1322 C1352 0.950 . S
H1323 C1353 0.950 . S
C1324 H1306 0.951 . S
C1324 C1325 1.366 . S
C1324 C1326 1.388 . S
C1325 C1324 1.366 . S
C1325 C1329 1.385 . S
C1326 H1307 0.951 . S
C1326 C1324 1.388 . S
C1326 C1327 1.366 . S
C1327 C1326 1.366 . S
C1327 C1328 1.414 . S
C1327 C1330 1.499 . S
C1328 H1308 0.950 . S
C1328 C1327 1.414 . S
C1328 C1329 1.374 . S
C1329 H1309 0.950 . S
C1329 C1325 1.385 . S
C1329 C1328 1.374 . S
C1330 C1327 1.499 . S
C1330 C1331 1.373 . S
C1330 C1332 1.389 . S
C1331 H1310 0.950 . S
C1331 C1330 1.373 . S
C1331 C1347 1.377 . S
C1332 C1330 1.389 . S
C1332 C1333 1.524 . S
C1332 C1346 1.377 . S
C1333 C1332 1.524 . S
C1333 C1334 1.397 . S
C1333 C1338 1.363 . S
C1334 H1311 0.950 . S
C1334 C1333 1.397 . S
C1334 C1335 1.334 . S
C1335 H1312 0.950 . S
C1335 C1334 1.334 . S
C1335 C1336 1.287 . S
C1336 C1335 1.287 . S
C1336 C1337 1.524 . S
C1336 H1355 0.913 . S
C1337 H1313 0.950 . S
C1337 C1336 1.524 . S
C1337 C1338 1.415 . S
C1338 H1314 0.950 . S
C1338 C1333 1.363 . S
C1338 C1337 1.415 . S
C1339 H1315 0.951 . S
C1339 C1340 1.366 . S
C1339 C1341 1.388 . S
C1340 C1339 1.366 . S
C1340 C1344 1.385 . S
C1341 H1316 0.951 . S
C1341 C1339 1.388 . S
C1341 C1342 1.366 . S
C1342 C1341 1.366 . S
C1342 C1343 1.414 . S
C1342 C1345 1.499 . S
C1343 H1317 0.950 . S
C1343 C1342 1.414 . S
C1343 C1344 1.374 . S
C1344 H1318 0.950 . S
C1344 C1340 1.385 . S
C1344 C1343 1.374 . S
C1345 C1342 1.499 . S
C1345 C1346 1.373 . S
C1345 C1347 1.389 . S
C1346 H1319 0.950 . S
C1346 C1332 1.377 . S
C1346 C1345 1.373 . S
C1347 C1331 1.377 . S
C1347 C1345 1.389 . S
C1347 C1348 1.524 . S
C1348 C1347 1.524 . S
C1348 C1349 1.397 . S
C1348 C1353 1.363 . S
C1349 H1320 0.950 . S
C1349 C1348 1.397 . S
C1349 C1350 1.334 . S
C1350 H1321 0.950 . S
C1350 C1349 1.334 . S
C1350 C1351 1.287 . S
C1351 C1350 1.287 . S
C1351 C1352 1.524 . S
C1351 H1354 0.999 . S
C1352 H1322 0.950 . S
C1352 C1351 1.524 . S
C1352 C1353 1.415 . S
C1353 H1323 0.950 . S
C1353 C1348 1.363 . S
C1353 C1352 1.415 . S
H1354 C1351 0.999 . S
H1355 C1336 0.913 . S
H1356 C1374 0.951 . S
H1357 C1376 0.951 . S
H1358 C1378 0.950 . S
H1359 C1379 0.950 . S
H1360 C1381 0.950 . S
H1361 C1384 0.950 . S
H1362 C1385 0.950 . S
H1363 C1387 0.950 . S
H1364 C1388 0.950 . S
H1365 C1389 0.951 . S
H1366 C1391 0.951 . S
H1367 C1393 0.950 . S
H1368 C1394 0.950 . S
H1369 C1396 0.950 . S
H1370 C1399 0.950 . S
H1371 C1400 0.950 . S
H1372 C1402 0.950 . S
H1373 C1403 0.950 . S
C1374 H1356 0.951 . S
C1374 C1375 1.366 . S
C1374 C1376 1.388 . S
C1375 C1374 1.366 . S
C1375 C1379 1.385 . S
C1376 H1357 0.951 . S
C1376 C1374 1.388 . S
C1376 C1377 1.366 . S
C1377 C1376 1.366 . S
C1377 C1378 1.414 . S
C1377 C1380 1.499 . S
C1378 H1358 0.950 . S
C1378 C1377 1.414 . S
C1378 C1379 1.374 . S
C1379 H1359 0.950 . S
C1379 C1375 1.385 . S
C1379 C1378 1.374 . S
C1380 C1377 1.499 . S
C1380 C1381 1.373 . S
C1380 C1382 1.389 . S
C1381 H1360 0.950 . S
C1381 C1380 1.373 . S
C1381 C1397 1.377 . S
C1382 C1380 1.389 . S
C1382 C1383 1.524 . S
C1382 C1396 1.377 . S
C1383 C1382 1.524 . S
C1383 C1384 1.397 . S
C1383 C1388 1.363 . S
C1384 H1361 0.950 . S
C1384 C1383 1.397 . S
C1384 C1385 1.334 . S
C1385 H1362 0.950 . S
C1385 C1384 1.334 . S
C1385 C1386 1.287 . S
C1386 C1385 1.287 . S
C1386 C1387 1.524 . S
C1386 H1405 0.913 . S
C1387 H1363 0.950 . S
C1387 C1386 1.524 . S
C1387 C1388 1.415 . S
C1388 H1364 0.950 . S
C1388 C1383 1.363 . S
C1388 C1387 1.415 . S
C1389 H1365 0.951 . S
C1389 C1390 1.366 . S
C1389 C1391 1.388 . S
C1390 C1389 1.366 . S
C1390 C1394 1.385 . S
C1391 H1366 0.951 . S
C1391 C1389 1.388 . S
C1391 C1392 1.366 . S
C1392 C1391 1.366 . S
C1392 C1393 1.414 . S
C1392 C1395 1.499 . S
C1393 H1367 0.950 . S
C1393 C1392 1.414 . S
C1393 C1394 1.374 . S
C1394 H1368 0.950 . S
C1394 C1390 1.385 . S
C1394 C1393 1.374 . S
C1395 C1392 1.499 . S
C1395 C1396 1.373 . S
C1395 C1397 1.389 . S
C1396 H1369 0.950 . S
C1396 C1382 1.377 . S
C1396 C1395 1.373 . S
C1397 C1381 1.377 . S
C1397 C1395 1.389 . S
C1397 C1398 1.524 . S
C1398 C1397 1.524 . S
C1398 C1399 1.397 . S
C1398 C1403 1.363 . S
C1399 H1370 0.950 . S
C1399 C1398 1.397 . S
C1399 C1400 1.334 . S
C1400 H1371 0.950 . S
C1400 C1399 1.334 . S
C1400 C1401 1.287 . S
C1401 C1400 1.287 . S
C1401 C1402 1.524 . S
C1401 H1404 0.999 . S
C1402 H1372 0.950 . S
C1402 C1401 1.524 . S
C1402 C1403 1.415 . S
C1403 H1373 0.950 . S
C1403 C1398 1.363 . S
C1403 C1402 1.415 . S
H1404 C1401 0.999 . S
H1405 C1386 0.913 . S
H1406 C1424 0.951 . S
H1407 C1426 0.951 . S
H1408 C1428 0.950 . S
H1409 C1429 0.950 . S
H1410 C1431 0.950 . S
H1411 C1434 0.950 . S
H1412 C1435 0.950 . S
H1413 C1437 0.950 . S
H1414 C1438 0.950 . S
H1415 C1439 0.951 . S
H1416 C1441 0.951 . S
H1417 C1443 0.950 . S
H1418 C1444 0.950 . S
H1419 C1446 0.950 . S
H1420 C1449 0.950 . S
H1421 C1450 0.950 . S
H1422 C1452 0.950 . S
H1423 C1453 0.950 . S
C1424 H1406 0.951 . S
C1424 C1425 1.366 . S
C1424 C1426 1.388 . S
C1425 C1424 1.366 . S
C1425 C1429 1.385 . S
C1426 H1407 0.951 . S
C1426 C1424 1.388 . S
C1426 C1427 1.366 . S
C1427 C1426 1.366 . S
C1427 C1428 1.414 . S
C1427 C1430 1.499 . S
C1428 H1408 0.950 . S
C1428 C1427 1.414 . S
C1428 C1429 1.374 . S
C1429 H1409 0.950 . S
C1429 C1425 1.385 . S
C1429 C1428 1.374 . S
C1430 C1427 1.499 . S
C1430 C1431 1.373 . S
C1430 C1432 1.389 . S
C1431 H1410 0.950 . S
C1431 C1430 1.373 . S
C1431 C1447 1.377 . S
C1432 C1430 1.389 . S
C1432 C1433 1.524 . S
C1432 C1446 1.377 . S
C1433 C1432 1.524 . S
C1433 C1434 1.397 . S
C1433 C1438 1.363 . S
C1434 H1411 0.950 . S
C1434 C1433 1.397 . S
C1434 C1435 1.334 . S
C1435 H1412 0.950 . S
C1435 C1434 1.334 . S
C1435 C1436 1.287 . S
C1436 C1435 1.287 . S
C1436 C1437 1.524 . S
C1436 H1455 0.913 . S
C1437 H1413 0.950 . S
C1437 C1436 1.524 . S
C1437 C1438 1.415 . S
C1438 H1414 0.950 . S
C1438 C1433 1.363 . S
C1438 C1437 1.415 . S
C1439 H1415 0.951 . S
C1439 C1440 1.366 . S
C1439 C1441 1.388 . S
C1440 C1439 1.366 . S
C1440 C1444 1.385 . S
C1441 H1416 0.951 . S
C1441 C1439 1.388 . S
C1441 C1442 1.366 . S
C1442 C1441 1.366 . S
C1442 C1443 1.414 . S
C1442 C1445 1.499 . S
C1443 H1417 0.950 . S
C1443 C1442 1.414 . S
C1443 C1444 1.374 . S
C1444 H1418 0.950 . S
C1444 C1440 1.385 . S
C1444 C1443 1.374 . S
C1445 C1442 1.499 . S
C1445 C1446 1.373 . S
C1445 C1447 1.389 . S
C1446 H1419 0.950 . S
C1446 C1432 1.377 . S
C1446 C1445 1.373 . S
C1447 C1431 1.377 . S
C1447 C1445 1.389 . S
C1447 C1448 1.524 . S
C1448 C1447 1.524 . S
C1448 C1449 1.397 . S
C1448 C1453 1.363 . S
C1449 H1420 0.950 . S
C1449 C1448 1.397 . S
C1449 C1450 1.334 . S
C1450 H1421 0.950 . S
C1450 C1449 1.334 . S
C1450 C1451 1.287 . S
C1451 C1450 1.287 . S
C1451 C1452 1.524 . S
C1451 H1454 0.999 . S
C1452 H1422 0.950 . S
C1452 C1451 1.524 . S
C1452 C1453 1.415 . S
C1453 H1423 0.950 . S
C1453 C1448 1.363 . S
C1453 C1452 1.415 . S
H1454 C1451 0.999 . S
H1455 C1436 0.913 . S
H1456 C1474 0.951 . S
H1457 C1476 0.951 . S
H1458 C1478 0.950 . S
H1459 C1479 0.950 . S
H1460 C1481 0.950 . S
H1461 C1484 0.950 . S
H1462 C1485 0.950 . S
H1463 C1487 0.950 . S
H1464 C1488 0.950 . S
H1465 C1489 0.951 . S
H1466 C1491 0.951 . S
H1467 C1493 0.950 . S
H1468 C1494 0.950 . S
H1469 C1496 0.950 . S
H1470 C1499 0.950 . S
H1471 C1500 0.950 . S
H1472 C1502 0.950 . S
H1473 C1503 0.950 . S
C1474 H1456 0.951 . S
C1474 C1475 1.366 . S
C1474 C1476 1.388 . S
C1475 C1474 1.366 . S
C1475 C1479 1.385 . S
C1476 H1457 0.951 . S
C1476 C1474 1.388 . S
C1476 C1477 1.366 . S
C1477 C1476 1.366 . S
C1477 C1478 1.414 . S
C1477 C1480 1.499 . S
C1478 H1458 0.950 . S
C1478 C1477 1.414 . S
C1478 C1479 1.374 . S
C1479 H1459 0.950 . S
C1479 C1475 1.385 . S
C1479 C1478 1.374 . S
C1480 C1477 1.499 . S
C1480 C1481 1.373 . S
C1480 C1482 1.389 . S
C1481 H1460 0.950 . S
C1481 C1480 1.373 . S
C1481 C1497 1.377 . S
C1482 C1480 1.389 . S
C1482 C1483 1.524 . S
C1482 C1496 1.377 . S
C1483 C1482 1.524 . S
C1483 C1484 1.397 . S
C1483 C1488 1.363 . S
C1484 H1461 0.950 . S
C1484 C1483 1.397 . S
C1484 C1485 1.334 . S
C1485 H1462 0.950 . S
C1485 C1484 1.334 . S
C1485 C1486 1.287 . S
C1486 C1485 1.287 . S
C1486 C1487 1.524 . S
C1486 H1505 0.913 . S
C1487 H1463 0.950 . S
C1487 C1486 1.524 . S
C1487 C1488 1.415 . S
C1488 H1464 0.950 . S
C1488 C1483 1.363 . S
C1488 C1487 1.415 . S
C1489 H1465 0.951 . S
C1489 C1490 1.366 . S
C1489 C1491 1.388 . S
C1490 C1489 1.366 . S
C1490 C1494 1.385 . S
C1491 H1466 0.951 . S
C1491 C1489 1.388 . S
C1491 C1492 1.366 . S
C1492 C1491 1.366 . S
C1492 C1493 1.414 . S
C1492 C1495 1.499 . S
C1493 H1467 0.950 . S
C1493 C1492 1.414 . S
C1493 C1494 1.374 . S
C1494 H1468 0.950 . S
C1494 C1490 1.385 . S
C1494 C1493 1.374 . S
C1495 C1492 1.499 . S
C1495 C1496 1.373 . S
C1495 C1497 1.389 . S
C1496 H1469 0.950 . S
C1496 C1482 1.377 . S
C1496 C1495 1.373 . S
C1497 C1481 1.377 . S
C1497 C1495 1.389 . S
C1497 C1498 1.524 . S
C1498 C1497 1.524 . S
C1498 C1499 1.397 . S
C1498 C1503 1.363 . S
C1499 H1470 0.950 . S
C1499 C1498 1.397 . S
C1499 C1500 1.334 . S
C1500 H1471 0.950 . S
C1500 C1499 1.334 . S
C1500 C1501 1.287 . S
C1501 C1500 1.287 . S
C1501 C1502 1.524 . S
C1501 H1504 0.999 . S
C1502 H1472 0.950 . S
C1502 C1501 1.524 . S
C1502 C1503 1.415 . S
C1503 H1473 0.950 . S
C1503 C1498 1.363 . S
C1503 C1502 1.415 . S
H1504 C1501 0.999 . S
H1505 C1486 0.913 . S
H1506 C1524 0.951 . S
H1507 C1526 0.951 . S
H1508 C1528 0.950 . S
H1509 C1529 0.950 . S
H1510 C1531 0.950 . S
H1511 C1534 0.950 . S
H1512 C1535 0.950 . S
H1513 C1537 0.950 . S
H1514 C1538 0.950 . S
H1515 C1539 0.951 . S
H1516 C1541 0.951 . S
H1517 C1543 0.950 . S
H1518 C1544 0.950 . S
H1519 C1546 0.950 . S
H1520 C1549 0.950 . S
H1521 C1550 0.950 . S
H1522 C1552 0.950 . S
H1523 C1553 0.950 . S
C1524 H1506 0.951 . S
C1524 C1525 1.366 . S
C1524 C1526 1.388 . S
C1525 C1524 1.366 . S
C1525 C1529 1.385 . S
C1526 H1507 0.951 . S
C1526 C1524 1.388 . S
C1526 C1527 1.366 . S
C1527 C1526 1.366 . S
C1527 C1528 1.414 . S
C1527 C1530 1.499 . S
C1528 H1508 0.950 . S
C1528 C1527 1.414 . S
C1528 C1529 1.374 . S
C1529 H1509 0.950 . S
C1529 C1525 1.385 . S
C1529 C1528 1.374 . S
C1530 C1527 1.499 . S
C1530 C1531 1.373 . S
C1530 C1532 1.389 . S
C1531 H1510 0.950 . S
C1531 C1530 1.373 . S
C1531 C1547 1.377 . S
C1532 C1530 1.389 . S
C1532 C1533 1.524 . S
C1532 C1546 1.377 . S
C1533 C1532 1.524 . S
C1533 C1534 1.397 . S
C1533 C1538 1.363 . S
C1534 H1511 0.950 . S
C1534 C1533 1.397 . S
C1534 C1535 1.334 . S
C1535 H1512 0.950 . S
C1535 C1534 1.334 . S
C1535 C1536 1.287 . S
C1536 C1535 1.287 . S
C1536 C1537 1.524 . S
C1536 H1555 0.913 . S
C1537 H1513 0.950 . S
C1537 C1536 1.524 . S
C1537 C1538 1.415 . S
C1538 H1514 0.950 . S
C1538 C1533 1.363 . S
C1538 C1537 1.415 . S
C1539 H1515 0.951 . S
C1539 C1540 1.366 . S
C1539 C1541 1.388 . S
C1540 C1539 1.366 . S
C1540 C1544 1.385 . S
C1541 H1516 0.951 . S
C1541 C1539 1.388 . S
C1541 C1542 1.366 . S
C1542 C1541 1.366 . S
C1542 C1543 1.414 . S
C1542 C1545 1.499 . S
C1543 H1517 0.950 . S
C1543 C1542 1.414 . S
C1543 C1544 1.374 . S
C1544 H1518 0.950 . S
C1544 C1540 1.385 . S
C1544 C1543 1.374 . S
C1545 C1542 1.499 . S
C1545 C1546 1.373 . S
C1545 C1547 1.389 . S
C1546 H1519 0.950 . S
C1546 C1532 1.377 . S
C1546 C1545 1.373 . S
C1547 C1531 1.377 . S
C1547 C1545 1.389 . S
C1547 C1548 1.524 . S
C1548 C1547 1.524 . S
C1548 C1549 1.397 . S
C1548 C1553 1.363 . S
C1549 H1520 0.950 . S
C1549 C1548 1.397 . S
C1549 C1550 1.334 . S
C1550 H1521 0.950 . S
C1550 C1549 1.334 . S
C1550 C1551 1.287 . S
C1551 C1550 1.287 . S
C1551 C1552 1.524 . S
C1551 H1554 0.999 . S
C1552 H1522 0.950 . S
C1552 C1551 1.524 . S
C1552 C1553 1.415 . S
C1553 H1523 0.950 . S
C1553 C1548 1.363 . S
C1553 C1552 1.415 . S
H1554 C1551 0.999 . S
H1555 C1536 0.913 . S
H1556 C1574 0.951 . S
H1557 C1576 0.951 . S
H1558 C1578 0.950 . S
H1559 C1579 0.950 . S
H1560 C1581 0.950 . S
H1561 C1584 0.950 . S
H1562 C1585 0.950 . S
H1563 C1587 0.950 . S
H1564 C1588 0.950 . S
H1565 C1589 0.951 . S
H1566 C1591 0.951 . S
H1567 C1593 0.950 . S
H1568 C1594 0.950 . S
H1569 C1596 0.950 . S
H1570 C1599 0.950 . S
H1571 C1600 0.950 . S
H1572 C1602 0.950 . S
H1573 C1603 0.950 . S
C1574 H1556 0.951 . S
C1574 C1575 1.366 . S
C1574 C1576 1.388 . S
C1575 C1574 1.366 . S
C1575 C1579 1.385 . S
C1576 H1557 0.951 . S
C1576 C1574 1.388 . S
C1576 C1577 1.366 . S
C1577 C1576 1.366 . S
C1577 C1578 1.414 . S
C1577 C1580 1.499 . S
C1578 H1558 0.950 . S
C1578 C1577 1.414 . S
C1578 C1579 1.374 . S
C1579 H1559 0.950 . S
C1579 C1575 1.385 . S
C1579 C1578 1.374 . S
C1580 C1577 1.499 . S
C1580 C1581 1.373 . S
C1580 C1582 1.389 . S
C1581 H1560 0.950 . S
C1581 C1580 1.373 . S
C1581 C1597 1.377 . S
C1582 C1580 1.389 . S
C1582 C1583 1.528 . S
C1582 C1596 1.377 1_554 S
C1583 C1582 1.528 . S
C1583 C1584 1.417 . S
C1583 C1588 1.339 1_554 S
C1584 H1561 0.950 . S
C1584 C1583 1.417 . S
C1584 C1585 1.334 . S
C1585 H1562 0.950 . S
C1585 C1584 1.334 . S
C1585 C1586 1.287 1_554 S
C1586 C1585 1.287 1_556 S
C1586 C1587 1.524 . S
C1586 H1605 0.913 . S
C1587 H1563 0.950 . S
C1587 C1586 1.524 . S
C1587 C1588 1.415 . S
C1588 H1564 0.950 . S
C1588 C1583 1.339 1_556 S
C1588 C1587 1.415 . S
C1589 H1565 0.951 . S
C1589 C1590 1.366 . S
C1589 C1591 1.388 . S
C1590 C1589 1.366 . S
C1590 C1594 1.385 . S
C1591 H1566 0.951 . S
C1591 C1589 1.388 . S
C1591 C1592 1.366 . S
C1592 C1591 1.366 . S
C1592 C1593 1.414 . S
C1592 C1595 1.499 . S
C1593 H1567 0.950 . S
C1593 C1592 1.414 . S
C1593 C1594 1.374 . S
C1594 H1568 0.950 . S
C1594 C1590 1.385 . S
C1594 C1593 1.374 . S
C1595 C1592 1.499 . S
C1595 C1596 1.373 . S
C1595 C1597 1.389 1_556 S
C1596 H1569 0.950 . S
C1596 C1582 1.377 1_556 S
C1596 C1595 1.373 . S
C1597 C1581 1.377 . S
C1597 C1595 1.389 1_554 S
C1597 C1598 1.524 . S
C1598 C1597 1.524 . S
C1598 C1599 1.397 1_554 S
C1598 C1603 1.363 . S
C1599 H1570 0.950 . S
C1599 C1598 1.397 1_556 S
C1599 C1600 1.334 . S
C1600 H1571 0.950 . S
C1600 C1599 1.334 . S
C1600 C1601 1.287 1_556 S
C1601 C1600 1.287 1_554 S
C1601 C1602 1.524 . S
C1601 H1604 0.999 . S
C1602 H1572 0.950 . S
C1602 C1601 1.524 . S
C1602 C1603 1.415 . S
C1603 H1573 0.950 . S
C1603 C1598 1.363 . S
C1603 C1602 1.415 . S
H1604 C1601 0.999 . S
H1605 C1586 0.913 . S
H1606 C1624 0.951 . S
H1607 C1626 0.951 . S
H1608 C1628 0.950 . S
H1609 C1629 0.950 . S
H1610 C1631 0.950 . S
H1611 C1634 0.950 . S
H1612 C1635 0.950 . S
H1613 C1637 0.950 . S
H1614 C1638 0.950 . S
H1615 C1639 0.951 . S
H1616 C1641 0.951 . S
H1617 C1643 0.950 . S
H1618 C1644 0.950 . S
H1619 C1646 0.950 . S
H1620 C1649 0.950 . S
H1621 C1650 0.950 . S
H1622 C1652 0.950 . S
H1623 C1653 0.950 . S
C1624 H1606 0.951 . S
C1624 C1625 1.366 . S
C1624 C1626 1.388 . S
C1625 C1624 1.366 . S
C1625 C1629 1.385 . S
C1626 H1607 0.951 . S
C1626 C1624 1.388 . S
C1626 C1627 1.366 . S
C1627 C1626 1.366 . S
C1627 C1628 1.414 . S
C1627 C1630 1.499 . S
C1628 H1608 0.950 . S
C1628 C1627 1.414 . S
C1628 C1629 1.374 . S
C1629 H1609 0.950 . S
C1629 C1625 1.385 . S
C1629 C1628 1.374 . S
C1630 C1627 1.499 . S
C1630 C1631 1.373 . S
C1630 C1632 1.389 . S
C1631 H1610 0.950 . S
C1631 C1630 1.373 . S
C1631 C1647 1.377 . S
C1632 C1630 1.389 . S
C1632 C1633 1.524 . S
C1632 C1646 1.377 . S
C1633 C1632 1.524 . S
C1633 C1634 1.397 . S
C1633 C1638 1.363 . S
C1634 H1611 0.950 . S
C1634 C1633 1.397 . S
C1634 C1635 1.334 . S
C1635 H1612 0.950 . S
C1635 C1634 1.334 . S
C1635 C1636 1.287 . S
C1636 C1635 1.287 . S
C1636 C1637 1.524 . S
C1636 H1655 0.913 . S
C1637 H1613 0.950 . S
C1637 C1636 1.524 . S
C1637 C1638 1.415 . S
C1638 H1614 0.950 . S
C1638 C1633 1.363 . S
C1638 C1637 1.415 . S
C1639 H1615 0.951 . S
C1639 C1640 1.366 . S
C1639 C1641 1.388 . S
C1640 C1639 1.366 . S
C1640 C1644 1.385 . S
C1641 H1616 0.951 . S
C1641 C1639 1.388 . S
C1641 C1642 1.366 . S
C1642 C1641 1.366 . S
C1642 C1643 1.414 . S
C1642 C1645 1.499 . S
C1643 H1617 0.950 . S
C1643 C1642 1.414 . S
C1643 C1644 1.374 . S
C1644 H1618 0.950 . S
C1644 C1640 1.385 . S
C1644 C1643 1.374 . S
C1645 C1642 1.499 . S
C1645 C1646 1.373 . S
C1645 C1647 1.389 . S
C1646 H1619 0.950 . S
C1646 C1632 1.377 . S
C1646 C1645 1.373 . S
C1647 C1631 1.377 . S
C1647 C1645 1.389 . S
C1647 C1648 1.524 . S
C1648 C1647 1.524 . S
C1648 C1649 1.397 . S
C1648 C1653 1.363 . S
C1649 H1620 0.950 . S
C1649 C1648 1.397 . S
C1649 C1650 1.334 . S
C1650 H1621 0.950 . S
C1650 C1649 1.334 . S
C1650 C1651 1.287 . S
C1651 C1650 1.287 . S
C1651 C1652 1.524 . S
C1651 H1654 0.999 . S
C1652 H1622 0.950 . S
C1652 C1651 1.524 . S
C1652 C1653 1.415 . S
C1653 H1623 0.950 . S
C1653 C1648 1.363 . S
C1653 C1652 1.415 . S
H1654 C1651 0.999 . S
H1655 C1636 0.913 . S
C490 C445 1.692 . S
C475 C29 1.589 . S
C525 C115 1.550 . S
C540 C375 1.569 . S
C575 C153 1.631 . S
C590 C394 1.732 . S
C625 C239 1.546 . S
C640 C403 1.569 . S
C690 C417 1.625 . S
C675 C301 1.599 . S
C725 C339 1.882 . S
C740 C436 1.998 . S
C775 C91 1.587 . S
C790 C389 1.692 . S
C825 C177 1.551 . S
C840 C408 1.577 . S
C875 C215 1.598 . S
C890 C422 1.693 . S
C940 C431 1.953 . S
C925 C277 1.835 . S
C990 C450 1.630 . S
C975 C363 1.600 . S
C1040 C380 1.582 . S
C1025 C53 1.559 . S
C1075 C35 1.551 . S
C1090 C395 1.566 . S
C1125 C109 1.409 . S
C1140 C407 1.487 . S
C1190 C421 1.434 . S
C1175 C159 1.442 . S
C1225 C233 1.621 . S
C1240 C437 1.722 . S
C1290 C449 1.513 . S
C1275 C295 1.416 . S
C1340 C379 1.379 . S
C1325 C345 1.380 . S
C1390 C451 1.462 . S
C1375 C97 1.447 . S
C1425 C171 1.441 . S
C1440 C381 1.538 . S
C1490 C393 1.569 . S
C1475 C221 1.567 . S
C1525 C283 1.391 . S
C1540 C409 1.402 . S
C1575 C357 1.444 . S
C1590 C423 1.554 . S
C1625 C47 1.629 . S
C1640 C435 1.716 . S
