# Generated by pormake.
# Topology anh, (6,3)-cn, num edge types: 1
# Building blocks:
#     Node 0, Type 0, BuildingBlock: VOLQOD_clean_sbu_1, # of connection points: 6
#     Node 1, Type 0, BuildingBlock: VOLQOD_clean_sbu_1, # of connection points: 6
#     Node 2, Type 0, BuildingBlock: VOLQOD_clean_sbu_1, # of connection points: 6
#     Node 3, Type 1, BuildingBlock: VETTIZ_charged_linker_0, # of connection points: 3
#     Node 4, Type 1, BuildingBlock: VETTIZ_charged_linker_0, # of connection points: 3
#     Node 5, Type 1, BuildingBlock: VETTIZ_charged_linker_0, # of connection points: 3
#     Node 6, Type 1, BuildingBlock: VETTIZ_charged_linker_0, # of connection points: 3
#     Node 7, Type 1, BuildingBlock: VETTIZ_charged_linker_0, # of connection points: 3
#     Node 8, Type 1, BuildingBlock: VETTIZ_charged_linker_0, # of connection points: 3
#     Edge 9, Type (0, 1), BuildingBlock: KIFKEQ_clean_linker_1, # of connection points: 2
#     Edge 10, Type (0, 1), BuildingBlock: KIFKEQ_clean_linker_1, # of connection points: 2
#     Edge 11, Type (0, 1), BuildingBlock: KIFKEQ_clean_linker_1, # of connection points: 2
#     Edge 12, Type (0, 1), BuildingBlock: KIFKEQ_clean_linker_1, # of connection points: 2
#     Edge 13, Type (0, 1), BuildingBlock: KIFKEQ_clean_linker_1, # of connection points: 2
#     Edge 14, Type (0, 1), BuildingBlock: KIFKEQ_clean_linker_1, # of connection points: 2
#     Edge 15, Type (0, 1), BuildingBlock: KIFKEQ_clean_linker_1, # of connection points: 2
#     Edge 16, Type (0, 1), BuildingBlock: KIFKEQ_clean_linker_1, # of connection points: 2
#     Edge 17, Type (0, 1), BuildingBlock: KIFKEQ_clean_linker_1, # of connection points: 2
#     Edge 18, Type (0, 1), BuildingBlock: KIFKEQ_clean_linker_1, # of connection points: 2
#     Edge 19, Type (0, 1), BuildingBlock: KIFKEQ_clean_linker_1, # of connection points: 2
#     Edge 20, Type (0, 1), BuildingBlock: KIFKEQ_clean_linker_1, # of connection points: 2
#     Edge 21, Type (0, 1), BuildingBlock: KIFKEQ_clean_linker_1, # of connection points: 2
#     Edge 22, Type (0, 1), BuildingBlock: KIFKEQ_clean_linker_1, # of connection points: 2
#     Edge 23, Type (0, 1), BuildingBlock: KIFKEQ_clean_linker_1, # of connection points: 2
#     Edge 24, Type (0, 1), BuildingBlock: KIFKEQ_clean_linker_1, # of connection points: 2
#     Edge 25, Type (0, 1), BuildingBlock: KIFKEQ_clean_linker_1, # of connection points: 2
#     Edge 26, Type (0, 1), BuildingBlock: KIFKEQ_clean_linker_1, # of connection points: 2
# Relax obj value: 0.169
# Max RMSD: 0.231
# Mean RMSD: 0.117
data_MOF--net-anh--node1-VOLQOD_clean_sbu_1--node2-VETTIZ_charged_linker_0--edge1-KIFKEQ_clean_linker_1
_symmetry_space_group_name_H-M    P1
_symmetry_Int_Tables_number       1
_symmetry_cell_setting            triclinic
loop_
_symmetry_equiv_pos_as_xyz
'x, y, z'
_cell_length_a     34.927525
_cell_length_b     34.828917
_cell_length_c     75.501635
_cell_angle_alpha  90.055201
_cell_angle_beta   89.780657
_cell_angle_gamma 120.0936
loop_
_atom_site_label
_atom_site_type_symbol
_atom_site_fract_x
_atom_site_fract_y
_atom_site_fract_z
_atom_type_partial_charge
O0 O 0.00466 0.53636 0.20793 0.0
Zn1 Zn 0.00154 0.54594 0.18185 0.0
O2 O 0.00536 0.50008 0.16832 0.0
Zn3 Zn 0.95122 0.46506 0.15494 0.0
Zn4 Zn 0.01446 0.46099 0.18419 0.0
Zn5 Zn 0.05438 0.52835 0.15178 0.0
O6 O 0.96132 0.47328 0.12863 0.0
O7 O 0.03354 0.52049 0.12682 0.0
O8 O 0.94478 0.54616 0.17677 0.0
O9 O 0.90845 0.48533 0.16041 0.0
O10 O 0.92156 0.40037 0.16109 0.0
O11 O 0.96253 0.39882 0.18317 0.0
O12 O 0.06854 0.4572 0.1772 0.0
O13 O 0.05293 0.6064 0.17643 0.0
O14 O 0.09202 0.5006 0.15338 0.0
O15 O 0.0917 0.59387 0.15623 0.0
C16 C 0.01267 0.51026 0.21691 0.0
C17 C -0.00397 0.49728 0.11954 0.0
C18 C 0.92903 0.37931 0.17307 0.0
C19 C 0.91022 0.51824 0.16848 0.0
C20 C 0.09473 0.47378 0.16402 0.0
C21 C 0.08635 0.62031 0.1662 0.0
O22 O 0.01862 0.48076 0.20951 0.0
O23 O 0.43348 0.98707 0.45603 0.0
Zn24 Zn 0.42148 0.98934 0.48195 0.0
O25 O 0.46494 0.98409 0.49659 0.0
Zn26 Zn 0.49539 0.03532 0.51185 0.0
Zn27 Zn 0.50844 0.9809 0.48132 0.0
Zn28 Zn 0.4353 0.93166 0.51164 0.0
O29 O 0.49281 0.01913 0.53746 0.0
O30 O 0.44467 0.94693 0.53763 0.0
O31 O 0.42101 0.04615 0.48699 0.0
O32 O 0.46677 0.07189 0.50998 0.0
O33 O 0.55898 0.0739 0.50481 0.0
O34 O 0.56898 0.03378 0.48442 0.0
O35 O 0.51284 0.92723 0.48691 0.0
O36 O 0.36024 0.93845 0.48678 0.0
O37 O 0.45956 0.89119 0.50685 0.0
O38 O 0.36997 0.89864 0.50737 0.0
C39 C 0.46258 0.98254 0.44757 0.0
C40 C 0.46973 0.9829 0.54581 0.0
C41 C 0.58379 0.06837 0.49398 0.0
C42 C 0.43953 0.07396 0.49947 0.0
C43 C 0.49083 0.89421 0.49711 0.0
C44 C 0.34486 0.90527 0.49722 0.0
O45 O 0.4928 0.97923 0.4556 0.0
O46 O 0.47113 0.48451 0.78821 0.0
Zn47 Zn 0.45791 0.46864 0.81416 0.0
O48 O 0.50916 0.50864 0.82882 0.0
Zn49 Zn 0.49545 0.54414 0.84461 0.0
Zn50 Zn 0.55837 0.54949 0.81374 0.0
Zn51 Zn 0.52583 0.4732 0.8432 0.0
O52 O 0.50448 0.53536 0.87029 0.0
O53 O 0.52042 0.48126 0.86937 0.0
O54 O 0.40371 0.47193 0.82139 0.0
O55 O 0.43221 0.52563 0.8416 0.0
O56 O 0.5293 0.60911 0.83883 0.0
O57 O 0.57173 0.61263 0.8163 0.0
O58 O 0.61335 0.54684 0.81884 0.0
O59 O 0.44382 0.40482 0.81643 0.0
O60 O 0.58865 0.49092 0.83803 0.0
O61 O 0.48941 0.40849 0.83761 0.0
C62 C 0.50721 0.50959 0.78001 0.0
C63 C 0.51292 0.50809 0.87811 0.0
C64 C 0.55779 0.63131 0.82695 0.0
C65 C 0.39977 0.4975 0.8324 0.0
C66 C 0.61944 0.52044 0.82847 0.0
C67 C 0.45882 0.38616 0.82653 0.0
O68 O 0.54302 0.53408 0.7883 0.0
C69 C 0.62388 0.08103 0.20579 0.0
C70 C 0.66367 0.10526 0.21516 0.0
C71 C 0.6633 0.10119 0.23374 0.0
C72 C 0.5838 0.05248 0.23342 0.0
C73 C 0.5845 0.05501 0.21514 0.0
C74 C 0.53913 0.02841 0.20725 0.0
H75 H 0.319 0.89553 0.21941 0.0
C76 C 0.53721 0.02547 0.23911 0.0
C77 C 0.51089 0.01131 0.22385 0.0
H78 H 0.39222 0.93009 0.17016 0.0
H79 H 0.45995 0.97805 0.18587 0.0
H80 H 0.38629 0.87935 0.24048 0.0
H81 H 0.37144 0.99457 0.23727 0.0
H82 H 0.38614 0.9915 0.25922 0.0
H83 H 0.33497 0.9471 0.25039 0.0
H84 H 0.34036 0.88155 0.25013 0.0
H85 H 0.39125 0.90045 0.26202 0.0
C86 C 0.53785 0.99034 0.19609 0.0
C87 C 0.52895 0.0603 0.19665 0.0
C88 C 0.49909 0.00261 0.30465 0.0
C89 C 0.45872 0.98233 0.31393 0.0
C90 C 0.41876 0.96332 0.3044 0.0
C91 C 0.419 0.9638 0.28585 0.0
C92 C 0.45964 0.98373 0.27672 0.0
C93 C 0.49878 0.00329 0.28613 0.0
C94 C 0.53875 0.02522 0.27424 0.0
C95 C 0.51714 0.01453 0.25613 0.0
C96 C 0.47088 0.98991 0.25768 0.0
C97 C 0.5666 0.00248 0.27724 0.0
C98 C 0.56356 0.07575 0.27813 0.0
C99 C 0.34949 0.91439 0.21199 0.0
C100 C 0.35045 0.90944 0.19355 0.0
C101 C 0.39087 0.93351 0.18438 0.0
C102 C 0.43009 0.96105 0.19354 0.0
C103 C 0.42893 0.96405 0.21208 0.0
C104 C 0.389 0.94133 0.22098 0.0
C105 C 0.39438 0.94634 0.24074 0.0
C106 C 0.44424 0.97495 0.24226 0.0
C107 C 0.4642 0.9855 0.22544 0.0
C108 C 0.37701 0.89964 0.24893 0.0
C109 C 0.37033 0.97084 0.24741 0.0
H110 H 0.62532 0.07391 0.25707 0.0
H111 H 0.62328 0.08304 0.19149 0.0
H112 H 0.54011 0.09174 0.20408 0.0
H113 H 0.49327 0.04674 0.19434 0.0
H114 H 0.54632 0.06889 0.18366 0.0
H115 H 0.56239 0.98129 0.20088 0.0
H116 H 0.54549 -1e-05 0.18194 0.0
H117 H 0.50566 0.95917 0.19704 0.0
H118 H 0.53028 0.01827 0.31168 0.0
H119 H 0.38731 0.94753 0.31134 0.0
H120 H 0.38753 0.94846 0.27933 0.0
H121 H 0.54477 0.96606 0.27905 0.0
H122 H 0.58741 0.01566 0.28927 0.0
H123 H 0.588 0.006 0.26583 0.0
H124 H 0.54014 0.08702 0.28223 0.0
H125 H 0.58065 0.09611 0.26638 0.0
H126 H 0.58788 0.08427 0.28899 0.0
H127 H 0.69349 0.11982 0.24126 0.0
C128 C 0.62359 0.07492 0.24291 0.0
C129 C 0.57082 0.64044 0.5322 0.0
C130 C 0.57675 0.67992 0.53969 0.0
C131 C 0.58202 0.68594 0.55817 0.0
C132 C 0.56869 0.61111 0.56152 0.0
C133 C 0.5666 0.60651 0.54331 0.0
C134 C 0.55519 0.56078 0.53751 0.0
H135 H 0.49182 0.34953 0.55917 0.0
C136 C 0.55744 0.56786 0.56929 0.0
C137 C 0.54982 0.53839 0.55526 0.0
H138 H 0.51247 0.40668 0.50677 0.0
H139 H 0.53426 0.47847 0.51956 0.0
H140 H 0.57764 0.42618 0.57629 0.0
H141 H 0.44362 0.40001 0.57519 0.0
H142 H 0.46318 0.41635 0.59685 0.0
H143 H 0.46053 0.36731 0.58771 0.0
H144 H 0.53561 0.38564 0.59053 0.0
H145 H 0.56828 0.4432 0.59694 0.0
C146 C 0.59498 0.56453 0.5269 0.0
C147 C 0.51107 0.54016 0.52706 0.0
C148 C 0.53731 0.54409 0.6359 0.0
C149 C 0.52539 0.50686 0.64674 0.0
C150 C 0.51865 0.46721 0.63887 0.0
C151 C 0.52257 0.46429 0.62055 0.0
C152 C 0.5334 0.50137 0.60988 0.0
C153 C 0.54135 0.54066 0.61759 0.0
C154 C 0.55349 0.57684 0.60412 0.0
C155 C 0.55096 0.55249 0.58707 0.0
C156 C 0.53862 0.50821 0.59057 0.0
C157 C 0.60121 0.61474 0.60796 0.0
C158 C 0.51796 0.591 0.6049 0.0
C159 C 0.50134 0.37762 0.55045 0.0
C160 C 0.50072 0.37275 0.53197 0.0
C161 C 0.51252 0.40978 0.52105 0.0
C162 C 0.52539 0.45137 0.52852 0.0
C163 C 0.52592 0.45568 0.54708 0.0
C164 C 0.51402 0.41911 0.55767 0.0
C165 C 0.51603 0.4295 0.57707 0.0
C166 C 0.53134 0.47858 0.57641 0.0
C167 C 0.53693 0.49363 0.55885 0.0
C168 C 0.55089 0.42047 0.58581 0.0
C169 C 0.4686 0.40182 0.58478 0.0
H170 H 0.58091 0.65763 0.58314 0.0
H171 H 0.56708 0.6351 0.51802 0.0
H172 H 0.48897 0.55198 0.53233 0.0
H173 H 0.49134 0.50369 0.52823 0.0
H174 H 0.51707 0.54933 0.51282 0.0
H175 H 0.62686 0.59067 0.53258 0.0
H176 H 0.5939 0.57342 0.51286 0.0
H177 H 0.59694 0.53387 0.52737 0.0
H178 H 0.54267 0.57506 0.64146 0.0
H179 H 0.51063 0.43838 0.64691 0.0
H180 H 0.51678 0.43311 0.61542 0.0
H181 H 0.6217 0.60144 0.61353 0.0
H182 H 0.60126 0.6387 0.61769 0.0
H183 H 0.61907 0.6328 0.59587 0.0
H184 H 0.48435 0.56152 0.60655 0.0
H185 H 0.51615 0.60729 0.59268 0.0
H186 H 0.52385 0.61357 0.61626 0.0
H187 H 0.58641 0.71604 0.56427 0.0
C188 C 0.57819 0.65175 0.56913 0.0
C189 C 0.10706 0.49461 0.87887 0.0
C190 C 0.13484 0.48321 0.88807 0.0
C191 C 0.13178 0.47957 0.90668 0.0
C192 C 0.07677 0.50228 0.90674 0.0
C193 C 0.07841 0.50402 0.88845 0.0
C194 C 0.04751 0.51788 0.88081 0.0
H195 H 0.88954 0.57212 0.89456 0.0
C196 C 0.04536 0.51619 0.91267 0.0
C197 C 0.02798 0.52525 0.89757 0.0
H198 H 0.93456 0.54775 0.84464 0.0
H199 H 0.9913 0.54028 0.85981 0.0
H200 H 0.88404 0.49569 0.91319 0.0
H201 H 0.99122 0.63087 0.91377 0.0
H202 H 0.98147 0.61082 0.93569 0.0
H203 H 0.93811 0.61307 0.9237 0.0
H204 H 0.88241 0.53692 0.92691 0.0
H205 H 0.90662 0.50469 0.93449 0.0
C206 C 0.01229 0.47877 0.86963 0.0
C207 C 0.07529 0.56158 0.87032 0.0
C208 C 0.0203 0.52538 0.97834 0.0
C209 C 0.9913 0.53468 0.98781 0.0
C210 C 0.96334 0.54593 0.97863 0.0
C211 C 0.96454 0.54822 0.9601 0.0
C212 C -0.0066 0.53829 0.95072 0.0
C213 C 0.02047 0.5269 0.95986 0.0
C214 C 0.04734 0.51525 0.94775 0.0
C215 C 0.03226 0.52196 0.9298 0.0
C216 C 0.00108 0.53583 0.93164 0.0
C217 C 0.03378 0.46603 0.95105 0.0
C218 C 0.0969 0.54888 0.95104 0.0
C219 C 0.91213 0.56589 0.88687 0.0
C220 C 0.90738 0.55995 0.86845 0.0
C221 C 0.93767 0.55247 0.85886 0.0
C222 C 0.97011 0.5475 0.86773 0.0
C223 C 0.97188 0.54972 0.88633 0.0
C224 C 0.9439 0.55991 0.89554 0.0
C225 C 0.94835 0.55825 0.91526 0.0
C226 C 0.98308 0.54452 0.9164 0.0
C227 C -0.00319 0.5397 0.89946 0.0
C228 C 0.90313 0.52235 0.92301 0.0
C229 C 0.96542 0.60555 0.92265 0.0
H230 H 0.10279 0.48655 0.93021 0.0
H231 H 0.10886 0.49802 0.86459 0.0
H232 H 0.10665 0.58391 0.87738 0.0
H233 H 0.05844 0.58105 0.86887 0.0
H234 H 0.08409 0.55493 0.85697 0.0
H235 H 0.00565 0.44625 0.87502 0.0
H236 H 0.02344 0.48087 0.85569 0.0
H237 H 0.9797 0.47675 0.86982 0.0
H238 H 0.04156 0.51595 0.98519 0.0
H239 H 0.94077 0.55312 0.98583 0.0
H240 H 0.9426 0.55711 0.9538 0.0
H241 H -0.00096 0.44642 0.9559 0.0
H242 H 0.05532 0.46321 0.96113 0.0
H243 H 0.03433 0.4488 0.93883 0.0
H244 H 0.10228 0.58297 0.95278 0.0
H245 H 0.11844 0.55138 0.93985 0.0
H246 H 0.10875 0.54028 0.96321 0.0
H247 H 0.1524 0.47018 0.91403 0.0
C248 C 0.10297 0.48911 0.91606 0.0
C249 C 0.89422 0.36385 0.45921 0.0
C250 C 0.86554 0.3242 0.45026 0.0
C251 C 0.86619 0.32425 0.43153 0.0
C252 C 0.92005 0.40272 0.43122 0.0
C253 C 0.92014 0.40265 0.4495 0.0
C254 C 0.94746 0.44846 0.45706 0.0
H255 H 0.07668 0.66892 0.44349 0.0
C256 C 0.94763 0.44899 0.42519 0.0
C257 C 0.96308 0.47604 0.44027 0.0
H258 H 0.0403 0.59828 0.49333 0.0
H259 H -0.00451 0.52911 0.47794 0.0
H260 H 0.09604 0.60137 0.42407 0.0
H261 H 0.97934 0.61355 0.42467 0.0
H262 H 0.98637 0.60046 0.40286 0.0
H263 H 0.0285 0.65146 0.41273 0.0
H264 H 0.09335 0.64525 0.41275 0.0
H265 H 0.07569 0.59243 0.40234 0.0
C266 C 0.98637 0.44999 0.46745 0.0
C267 C 0.91666 0.45914 0.46829 0.0
C268 C 0.97491 0.4832 0.35952 0.0
C269 C -0.00258 0.52306 0.34984 0.0
C270 C 0.01688 0.5637 0.35912 0.0
C271 C 0.01468 0.56458 0.37763 0.0
C272 C 0.99259 0.52444 0.38706 0.0
C273 C 0.97259 0.48469 0.37798 0.0
C274 C 0.94847 0.44541 0.39012 0.0
C275 C 0.95904 0.46814 0.40804 0.0
C276 C 0.98497 0.51435 0.40616 0.0
C277 C 0.96906 0.41533 0.38795 0.0
C278 C 0.8983 0.42218 0.38583 0.0
C279 C 0.05803 0.63867 0.45109 0.0
C280 C 0.06151 0.6389 0.46963 0.0
C281 C 0.03793 0.59874 0.47904 0.0
C282 C 0.01214 0.55868 0.47006 0.0
C283 C 0.01019 0.55877 0.45146 0.0
C284 C 0.03262 0.59837 0.44231 0.0
C285 C 0.02872 0.59189 0.42257 0.0
C286 C 0.00013 0.54183 0.42139 0.0
C287 C 0.98932 0.52271 0.43834 0.0
C288 C 0.07575 0.60878 0.41487 0.0
C289 C 0.0048 0.61573 0.41516 0.0
H290 H 0.89197 0.361 0.40785 0.0
H291 H 0.89547 0.36534 0.47353 0.0
H292 H 0.88287 0.4434 0.46251 0.0
H293 H 0.92771 0.49489 0.46869 0.0
H294 H 0.91339 0.4466 0.48206 0.0
H295 H -0.00151 0.42957 0.46078 0.0
H296 H 0.97602 0.43682 0.48109 0.0
H297 H 0.0156 0.48364 0.46816 0.0
H298 H 0.95969 0.45131 0.35295 0.0
H299 H 0.0335 0.59499 0.35207 0.0
H300 H 0.03027 0.59653 0.38388 0.0
H301 H 0.00582 0.43561 0.38788 0.0
H302 H 0.95861 0.39667 0.37528 0.0
H303 H 0.96041 0.39133 0.39888 0.0
H304 H 0.88938 0.44508 0.37916 0.0
H305 H 0.87742 0.41116 0.39792 0.0
H306 H 0.88817 0.39327 0.37694 0.0
H307 H 0.84411 0.29481 0.42409 0.0
C308 C 0.89354 0.36308 0.42202 0.0
C309 C 0.5377 0.92203 0.792 0.0
C310 C 0.5547 0.89738 0.7838 0.0
C311 C 0.55859 0.89832 0.76521 0.0
C312 C 0.52621 0.94544 0.76319 0.0
C313 C 0.52398 0.94602 0.78146 0.0
C314 C 0.50547 0.9744 0.78791 0.0
H315 H 0.42392 0.10943 0.76818 0.0
C316 C 0.50707 0.97155 0.75608 0.0
C317 C 0.49507 0.98889 0.77046 0.0
H318 H 0.45648 0.0804 0.81978 0.0
H319 H 0.47597 0.02922 0.80656 0.0
H320 H 0.50732 0.11859 0.74833 0.0
H321 H 0.37497 0.00792 0.75374 0.0
H322 H 0.39279 0.00466 0.73232 0.0
H323 H 0.38815 0.05232 0.73848 0.0
H324 H 0.4601 0.11657 0.73801 0.0
H325 H 0.49025 0.09348 0.72742 0.0
C326 C 0.54222 0.01405 0.79836 0.0
C327 C 0.46302 0.94483 0.79879 0.0
C328 C 0.49052 0.97913 0.68958 0.0
C329 C 0.47119 -0.00196 0.67905 0.0
C330 C 0.45202 0.02072 0.6873 0.0
C331 C 0.45257 0.02496 0.70577 0.0
C332 C 0.47234 0.00615 0.71613 0.0
C333 C 0.49042 0.98328 0.70801 0.0
C334 C 0.50823 0.96382 0.72114 0.0
C335 C 0.49833 0.97923 0.73849 0.0
C336 C 0.47768 0.0043 0.73546 0.0
C337 C 0.55868 0.98489 0.71787 0.0
C338 C 0.48144 0.91261 0.71921 0.0
C339 C 0.43434 0.09135 0.77668 0.0
C340 C 0.43875 0.09902 0.79504 0.0
C341 C 0.45324 0.07538 0.80558 0.0
C342 C 0.46466 0.0458 0.79788 0.0
C343 C 0.46191 0.04001 0.77941 0.0
C344 C 0.44633 0.06212 0.76918 0.0
C345 C 0.44679 0.05297 0.74974 0.0
C346 C 0.46658 0.02291 0.74994 0.0
C347 C 0.47516 0.01521 0.76735 0.0
C348 C 0.47742 0.09757 0.74023 0.0
C349 C 0.39833 0.02847 0.74306 0.0
H350 H 0.5476 0.92084 0.74079 0.0
H351 H 0.53485 0.92232 0.80629 0.0
H352 H 0.44248 0.91232 0.79211 0.0
H353 H 0.44142 0.95935 0.80019 0.0
H354 H 0.47131 0.93817 0.81221 0.0
H355 H 0.57574 0.02286 0.79346 0.0
H356 H 0.54073 0.00617 0.81268 0.0
H357 H 0.54075 0.04482 0.79674 0.0
H358 H 0.50486 0.96089 0.68362 0.0
H359 H 0.43714 0.03574 0.67941 0.0
H360 H 0.43778 0.0429 0.71125 0.0
H361 H 0.57343 0.01986 0.71329 0.0
H362 H 0.56564 0.9664 0.70757 0.0
H363 H 0.57715 0.98693 0.73002 0.0
H364 H 0.44616 0.90104 0.71615 0.0
H365 H 0.48031 0.89491 0.73149 0.0
H366 H 0.49485 0.90128 0.70832 0.0
H367 H 0.57119 0.87928 0.75858 0.0
C368 C 0.54443 0.92213 0.75488 0.0
C369 C 0.61956 0.52929 0.1267 0.0
C370 C 0.66145 0.54231 0.11948 0.0
C371 C 0.66722 0.54714 0.10093 0.0
C372 C 0.58937 0.52258 0.09723 0.0
C373 C 0.58416 0.51909 0.11541 0.0
C374 C 0.53697 0.50099 0.12106 0.0
H375 H 0.32631 0.43608 0.09978 0.0
C376 C 0.5453 0.50677 0.08933 0.0
C377 C 0.51454 0.49385 0.10325 0.0
H378 H 0.38166 0.44387 0.15178 0.0
H379 H 0.45216 0.46472 0.13861 0.0
H380 H 0.40809 0.52228 0.08289 0.0
H381 H 0.37193 0.38462 0.08221 0.0
H382 H 0.3972 0.40677 0.06171 0.0
H383 H 0.34661 0.40596 0.06762 0.0
H384 H 0.36053 0.48001 0.07146 0.0
H385 H 0.41418 0.50796 0.06109 0.0
C386 C 0.53455 0.53728 0.13208 0.0
C387 C 0.52143 0.45659 0.13105 0.0
C388 C 0.52813 0.50598 0.02246 0.0
C389 C 0.49109 0.49158 0.01142 0.0
C390 C 0.44882 0.47434 0.01916 0.0
C391 C 0.4435 0.4716 0.0376 0.0
C392 C 0.48079 0.48601 0.04847 0.0
C393 C 0.5222 0.50261 0.04087 0.0
C394 C 0.55777 0.51466 0.0545 0.0
C395 C 0.53088 0.50283 0.07151 0.0
C396 C 0.48587 0.48633 0.06789 0.0
C397 C 0.59083 0.5651 0.05308 0.0
C398 C 0.5787 0.48505 0.0515 0.0
C399 C 0.35331 0.4414 0.10836 0.0
C400 C 0.34837 0.43899 0.12693 0.0
C401 C 0.38469 0.44654 0.13749 0.0
C402 C 0.42569 0.45855 0.1298 0.0
C403 C 0.43056 0.46283 0.11131 0.0
C404 C 0.39446 0.45309 0.10087 0.0
C405 C 0.40568 0.45797 0.08142 0.0
C406 C 0.45487 0.47386 0.08201 0.0
C407 C 0.46916 0.47703 0.09955 0.0
C408 C 0.3965 0.4937 0.07365 0.0
C409 C 0.37891 0.41167 0.07264 0.0
H410 H 0.63775 0.54099 0.07579 0.0
H411 H 0.61396 0.5257 0.14087 0.0
H412 H 0.54006 0.4401 0.12662 0.0
H413 H 0.48638 0.4318 0.12844 0.0
H414 H 0.52637 0.46199 0.14556 0.0
H415 H 0.556 0.57066 0.12614 0.0
H416 H 0.54602 0.53812 0.14585 0.0
H417 H 0.50115 0.53321 0.13252 0.0
H418 H 0.56093 0.51876 0.01687 0.0
H419 H 0.41987 0.46337 0.01091 0.0
H420 H 0.41053 0.45839 0.04268 0.0
H421 H 0.57299 0.58363 0.05081 0.0
H422 H 0.61417 0.57253 0.04185 0.0
H423 H 0.61001 0.57931 0.0653 0.0
H424 H 0.55371 0.45169 0.0465 0.0
H425 H 0.59123 0.47831 0.06382 0.0
H426 H 0.60597 0.5001 0.04161 0.0
H427 H 0.69895 0.55654 0.09494 0.0
C428 C 0.63146 0.53752 0.08979 0.0
H429 H 0.13482 0.4446 0.18734 0.0
H430 H 0.1286 0.47213 0.13195 0.0
H431 H 0.19249 0.42601 0.18042 0.0
H432 H 0.18504 0.45299 0.12513 0.0
H433 H 0.26285 0.38502 0.11579 0.0
H434 H 0.19675 0.38487 0.12654 0.0
H435 H 0.27347 0.47698 0.16782 0.0
H436 H 0.33985 0.47877 0.1568 0.0
C437 C 0.14539 0.44617 0.17373 0.0
C438 C 0.12769 0.46026 0.16021 0.0
C439 C 0.1782 0.43554 0.16979 0.0
C440 C 0.19277 0.43777 0.15224 0.0
C441 C 0.17392 0.45041 0.13872 0.0
C442 C 0.14199 0.46185 0.14268 0.0
C443 C 0.26564 0.40503 0.12722 0.0
C444 C 0.30687 0.43244 0.13523 0.0
C445 C 0.22774 0.4046 0.13345 0.0
C446 C 0.23025 0.43106 0.14793 0.0
C447 C 0.27065 0.45592 0.15675 0.0
C448 C 0.30866 0.45683 0.1504 0.0
H449 H 0.61662 0.15658 0.49882 0.0
H450 H 0.65444 0.06091 0.4832 0.0
H451 H 0.68946 0.21655 0.49088 0.0
H452 H 0.72891 0.12099 0.47637 0.0
H453 H 0.82978 0.23583 0.44162 0.0
H454 H 0.76537 0.17332 0.45468 0.0
H455 H 0.76366 0.25872 0.49594 0.0
H456 H 0.82426 0.32195 0.48167 0.0
C457 C 0.64107 0.14845 0.49414 0.0
C458 C 0.62985 0.10421 0.49146 0.0
C459 C 0.68316 0.18291 0.4897 0.0
C460 C 0.71546 0.17391 0.48288 0.0
C461 C 0.70476 0.12936 0.48116 0.0
C462 C 0.6622 0.09487 0.48519 0.0
C463 C 0.81546 0.24149 0.45337 0.0
C464 C 0.83193 0.2845 0.46021 0.0
C465 C 0.77884 0.20524 0.46113 0.0
C466 C 0.75847 0.21084 0.47626 0.0
C467 C 0.7774 0.25318 0.48398 0.0
C468 C 0.81311 0.28958 0.47593 0.0
H469 H 0.54329 0.6853 0.84896 0.0
H470 H 0.60024 0.6834 0.79828 0.0
H471 H 0.5523 0.75763 0.84188 0.0
H472 H 0.60762 0.75458 0.79092 0.0
H473 H 0.62822 0.88888 0.78146 0.0
H474 H 0.63947 0.83188 0.79522 0.0
H475 H 0.51434 0.78084 0.82268 0.0
H476 H 0.50409 0.83856 0.80936 0.0
C477 C 0.55827 0.70057 0.8364 0.0
C478 C 0.57051 0.6783 0.82408 0.0
C479 C 0.56317 0.74193 0.83229 0.0
C480 C 0.58001 0.76173 0.81571 0.0
C481 C 0.59492 0.74071 0.80389 0.0
C482 C 0.59045 0.6996 0.80807 0.0
C483 C 0.60361 0.86587 0.7907 0.0
C484 C 0.56513 0.86785 0.79425 0.0
C485 C 0.60991 0.83312 0.79853 0.0
C486 C 0.57758 0.8013 0.8099 0.0
C487 C 0.54029 0.80501 0.8142 0.0
C488 C 0.53427 0.83806 0.80652 0.0
H489 H 0.90945 0.5965 0.17052 0.0
H490 H 0.82517 0.45559 0.16217 0.0
H491 H 0.84799 0.60814 0.16254 0.0
H492 H 0.76457 0.46711 0.15413 0.0
H493 H 0.65406 0.4903 0.14779 0.0
H494 H 0.71313 0.49026 0.16454 0.0
H495 H 0.80998 0.60096 0.13357 0.0
H496 H 0.75054 0.60265 0.11729 0.0
C497 C 0.87759 0.568 0.16739 0.0
C498 C 0.8721 0.52519 0.16681 0.0
C499 C 0.84261 0.57469 0.1627 0.0
C500 C 0.80157 0.53857 0.15766 0.0
C501 C 0.79557 0.49559 0.15815 0.0
C502 C 0.83044 0.489 0.16263 0.0
C503 C 0.68782 0.51567 0.14488 0.0
C504 C 0.69754 0.54629 0.13106 0.0
C505 C 0.7217 0.51531 0.15441 0.0
C506 C 0.76614 0.54521 0.15022 0.0
C507 C 0.77599 0.57763 0.13716 0.0
C508 C 0.74198 0.57817 0.12766 0.0
H509 H 0.28609 0.89221 0.47101 0.0
H510 H 0.29614 0.84339 0.52236 0.0
H511 H 0.21098 0.8307 0.46812 0.0
H512 H 0.22003 0.78275 0.51988 0.0
H513 H 0.12406 0.64822 0.49312 0.0
H514 H 0.18716 0.71694 0.50314 0.0
H515 H 0.13569 0.79152 0.47659 0.0
H516 H 0.07303 0.72214 0.46602 0.0
C517 C 0.27181 0.86894 0.48189 0.0
C518 C 0.29724 0.8721 0.49676 0.0
C519 C 0.2285 0.83377 0.48032 0.0
C520 C 0.2095 0.80138 0.4937 0.0
C521 C 0.23398 0.80651 0.50915 0.0
C522 C 0.27754 0.84131 0.5106 0.0
C523 C 0.12559 0.67925 0.48986 0.0
C524 C 0.094 0.68 0.47868 0.0
C525 C 0.16176 0.71879 0.49565 0.0
C526 C 0.16687 0.75993 0.4905 0.0
C527 C 0.13329 0.76046 0.48046 0.0
C528 C 0.09733 0.72083 0.47449 0.0
H529 H 0.46607 0.33127 0.8503 0.0
H530 H 0.41816 0.33335 0.79785 0.0
H531 H 0.45204 0.2563 0.8452 0.0
H532 H 0.40578 0.25902 0.79244 0.0
H533 H 0.37198 0.11685 0.78856 0.0
H534 H 0.36743 0.1813 0.79846 0.0
H535 H 0.48826 0.22697 0.82814 0.0
H536 H 0.49209 0.16246 0.81858 0.0
C537 C 0.45215 0.31552 0.83772 0.0
C538 C 0.44373 0.33843 0.82439 0.0
C539 C 0.44435 0.27262 0.83475 0.0
C540 C 0.42854 0.25181 0.81829 0.0
C541 C 0.41764 0.27377 0.80533 0.0
C542 C 0.42492 0.31654 0.8084 0.0
C543 C 0.39718 0.14047 0.7974 0.0
C544 C 0.43243 0.13464 0.80278 0.0
C545 C 0.39468 0.17745 0.80302 0.0
C546 C 0.42757 0.20955 0.81404 0.0
C547 C 0.46184 0.20265 0.81994 0.0
C548 C 0.46413 0.1656 0.81443 0.0
H549 H 0.57054 0.9024 0.48844 0.0
H550 H 0.44154 0.8102 0.50997 0.0
H551 H 0.59561 0.84977 0.49496 0.0
H552 H 0.46658 0.75776 0.5163 0.0
H553 H 0.51297 0.66013 0.51514 0.0
H554 H 0.49457 0.71115 0.50064 0.0
H555 H 0.60677 0.82192 0.52548 0.0
H556 H 0.62575 0.77077 0.53991 0.0
C557 C 0.54731 0.87059 0.49423 0.0
C558 C 0.50415 0.86042 0.49882 0.0
C559 C 0.56176 0.8407 0.49802 0.0
C560 C 0.533 0.79992 0.50611 0.0
C561 C 0.48925 0.78888 0.50988 0.0
C562 C 0.47501 0.81897 0.50637 0.0
C563 C 0.53457 0.69544 0.51709 0.0
C564 C 0.57074 0.71157 0.52871 0.0
C565 C 0.52378 0.72452 0.50889 0.0
C566 C 0.54907 0.77024 0.51208 0.0
C567 C 0.58693 0.78673 0.52276 0.0
C568 C 0.59757 0.75755 0.5311 0.0
H569 H 0.63809 0.45563 0.83602 0.0
H570 H 0.69986 0.59481 0.82269 0.0
H571 H 0.71035 0.46428 0.84201 0.0
H572 H 0.77252 0.60385 0.82931 0.0
H573 H 0.89999 0.59478 0.83675 0.0
H574 H 0.83136 0.58341 0.82296 0.0
H575 H 0.7565 0.50232 0.86753 0.0
H576 H 0.82374 0.51232 0.88079 0.0
C577 C 0.66724 0.488 0.83422 0.0
C578 C 0.66347 0.52477 0.82929 0.0
C579 C 0.70855 0.49296 0.83764 0.0
C580 C 0.74684 0.53494 0.83652 0.0
C581 C 0.74349 0.57112 0.83027 0.0
C582 C 0.70198 0.566 0.82658 0.0
C583 C 0.86869 0.57441 0.84345 0.0
C584 C 0.86715 0.5549 0.85992 0.0
C585 C 0.82962 0.56804 0.83563 0.0
C586 C 0.78866 0.5416 0.84409 0.0
C587 C 0.78745 0.52217 0.86051 0.0
C588 C 0.82611 0.52855 0.86827 0.0
H589 H 0.0982 0.68122 0.19146 0.0
H590 H 0.15266 0.66644 0.14214 0.0
H591 H 0.15987 0.75624 0.19437 0.0
H592 H 0.21366 0.74258 0.14461 0.0
H593 H 0.34463 0.84465 0.17187 0.0
H594 H 0.27769 0.77897 0.16208 0.0
H595 H 0.19886 0.83059 0.18496 0.0
H596 H 0.26634 0.89567 0.1954 0.0
C597 C 0.12287 0.69438 0.18102 0.0
C598 C 0.1209 0.66767 0.16671 0.0
C599 C 0.15816 0.73768 0.1826 0.0
C600 C 0.19205 0.75557 0.16977 0.0
C601 C 0.18866 0.72962 0.15492 0.0
C602 C 0.15363 0.68602 0.15347 0.0
C603 C 0.31303 0.84246 0.17438 0.0
C604 C 0.31052 0.87494 0.1845 0.0
C605 C 0.27452 0.8048 0.16873 0.0
C606 C 0.23268 0.79907 0.17292 0.0
C607 C 0.23046 0.83337 0.18188 0.0
C608 C 0.26901 0.87077 0.18775 0.0
H609 H 0.44186 0.13146 0.47434 0.0
H610 H 0.42127 0.10051 0.53012 0.0
H611 H 0.4511 0.20504 0.4804 0.0
H612 H 0.42925 0.17286 0.5361 0.0
H613 H 0.53078 0.31832 0.54222 0.0
H614 H 0.5052 0.24279 0.53256 0.0
H615 H 0.41779 0.25242 0.49481 0.0
H616 H 0.44341 0.32888 0.5047 0.0
C617 C 0.43744 0.13976 0.48774 0.0
C618 C 0.43151 0.11103 0.50184 0.0
C619 C 0.44278 0.18169 0.4912 0.0
C620 C 0.4419 0.19469 0.50875 0.0
C621 C 0.43098 0.16381 0.5225 0.0
C622 C 0.42621 0.12246 0.5191 0.0
C623 C 0.50606 0.30438 0.53188 0.0
C624 C 0.48844 0.329 0.52442 0.0
C625 C 0.49135 0.26118 0.52639 0.0
C626 C 0.45873 0.24161 0.51329 0.0
C627 C 0.44269 0.26685 0.50506 0.0
C628 C 0.45743 0.31041 0.51064 0.0
H629 H 0.3854 0.56398 0.84162 0.0
H630 H 0.31725 0.42338 0.83053 0.0
H631 H 0.31717 0.55731 0.85301 0.0
H632 H 0.24839 0.41656 0.84232 0.0
H633 H 0.12911 0.44176 0.85635 0.0
H634 H 0.19034 0.44358 0.83951 0.0
H635 H 0.28036 0.51856 0.88164 0.0
H636 H 0.22027 0.51785 0.89809 0.0
C637 C 0.35555 0.53173 0.84137 0.0
C638 C 0.3566 0.49403 0.83554 0.0
C639 C 0.3166 0.52792 0.84792 0.0
C640 C 0.278 0.48626 0.84893 0.0
C641 C 0.27791 0.449 0.84172 0.0
C642 C 0.31714 0.4529 0.83499 0.0
C643 C 0.16204 0.45846 0.86197 0.0
C644 C 0.16999 0.47971 0.87852 0.0
C645 C 0.19683 0.45927 0.8524 0.0
C646 C 0.23997 0.48179 0.85919 0.0
C647 C 0.24746 0.50162 0.87597 0.0
C648 C 0.21293 0.50068 0.88551 0.0
H649 H 0.92022 0.33034 0.2026 0.0
H650 H 0.86237 0.3222 0.15125 0.0
H651 H 0.85827 0.258 0.21031 0.0
H652 H 0.80113 0.24882 0.15868 0.0
H653 H 0.74785 0.11987 0.21942 0.0
H654 H 0.81596 0.17976 0.20646 0.0
H655 H 0.73916 0.22503 0.17764 0.0
H656 H 0.67167 0.16493 0.19021 0.0
C657 C 0.89485 0.31257 0.19277 0.0
C658 C 0.89579 0.33233 0.17643 0.0
C659 C 0.85937 0.27085 0.19715 0.0
C660 C 0.82431 0.24777 0.18521 0.0
C661 C 0.82702 0.26617 0.16835 0.0
C662 C 0.86223 0.30813 0.16406 0.0
C663 C 0.74571 0.14238 0.21012 0.0
C664 C 0.70455 0.13787 0.20585 0.0
C665 C 0.78464 0.1767 0.20272 0.0
C666 C 0.78314 0.2074 0.19106 0.0
C667 C 0.74168 0.20162 0.18629 0.0
C668 C 0.70287 0.16718 0.19355 0.0
H669 H 0.06021 0.51497 0.09524 0.0
H670 H 0.92507 0.48588 0.10033 0.0
H671 H 0.05717 0.52353 0.06344 0.0
H672 H 0.92258 0.49698 0.06856 0.0
H673 H 0.92096 0.47952 0.00829 0.0
H674 H 0.92047 0.46835 0.04025 0.0
H675 H 0.05754 0.573 0.0427 0.0
H676 H 0.05822 0.58183 0.01067 0.0
C677 C 0.0299 0.51066 0.08951 0.0
C678 C -0.00709 0.49985 0.1002 0.0
C679 C 0.02823 0.516 0.0713 0.0
C680 C 0.98984 0.51166 0.0634 0.0
C681 C 0.95254 0.50012 0.07412 0.0
C682 C 0.95394 0.49387 0.09233 0.0
C683 C 0.95072 0.50019 0.01581 0.0
C684 C 0.98966 0.53135 0.00722 0.0
C685 C 0.95051 0.494 0.03409 0.0
C686 C 0.98911 0.51945 0.04409 0.0
C687 C 0.02755 0.55191 0.03541 0.0
C688 C 0.02794 0.5574 0.01712 0.0
H689 H 0.52996 -0.00134 0.42484 0.0
H690 H 0.39266 0.96406 0.42612 0.0
H691 H 0.52877 -0.00116 0.39264 0.0
H692 H 0.39067 0.96203 0.39391 0.0
H693 H 0.41394 0.00726 0.33639 0.0
H694 H 0.41499 0.00746 0.36868 0.0
H695 H 0.50239 0.95302 0.36768 0.0
H696 H 0.50272 0.95493 0.3354 0.0
C697 C 0.49935 0.99058 0.41822 0.0
C698 C 0.46144 0.98145 0.42801 0.0
C699 C 0.49855 0.9904 0.39973 0.0
C700 C 0.45959 0.98037 0.39058 0.0
C701 C 0.42151 0.97074 0.40044 0.0
C702 C 0.42254 0.97162 0.41894 0.0
C703 C 0.43322 0.99527 0.34315 0.0
C704 C 0.45834 0.98121 0.33349 0.0
C705 C 0.4337 0.99513 0.36165 0.0
C706 C 0.45879 0.98025 0.37087 0.0
C707 C 0.48342 0.96558 0.36109 0.0
C708 C 0.48347 0.96641 0.3426 0.0
H709 H 0.57981 0.54671 0.75853 0.0
H710 H 0.4368 0.47418 0.75718 0.0
H711 H 0.58221 0.54714 0.72643 0.0
H712 H 0.43921 0.47599 0.72487 0.0
H713 H 0.46311 0.44289 0.66842 0.0
H714 H 0.45773 0.44448 0.70049 0.0
H715 H 0.56857 0.57867 0.70106 0.0
H716 H 0.57578 0.57601 0.66909 0.0
C717 C 0.54881 0.53123 0.75138 0.0
C718 C 0.50809 0.51033 0.76043 0.0
C719 C 0.5502 0.53178 0.73293 0.0
C720 C 0.51092 0.51183 0.72304 0.0
C721 C 0.47011 0.4912 0.73208 0.0
C722 C 0.46871 0.49031 0.7506 0.0
C723 C 0.48664 0.47259 0.6754 0.0
C724 C 0.52023 0.50913 0.66618 0.0
C725 C 0.4831 0.47375 0.69378 0.0
C726 C 0.51284 0.51162 0.70338 0.0
C727 C 0.54557 0.54867 0.69411 0.0
C728 C 0.54935 0.54737 0.67573 0.0
H729 H 0.53052 0.04775 0.56732 0.0
H730 H 0.41194 0.9187 0.56859 0.0
H731 H 0.53101 0.04975 0.59961 0.0
H732 H 0.41253 0.92097 0.60095 0.0
H733 H 0.40178 0.97375 0.65657 0.0
H734 H 0.40202 0.96828 0.62426 0.0
H735 H 0.54065 0.00804 0.62529 0.0
H736 H 0.54046 0.01368 0.65758 0.0
C737 C 0.50467 0.01974 0.57448 0.0
C738 C 0.47114 0.98309 0.56539 0.0
C739 C 0.50511 0.02083 0.59296 0.0
C740 C 0.47176 0.98556 0.60274 0.0
C741 C 0.43843 0.94875 0.5937 0.0
C742 C 0.43828 0.94737 0.5752 0.0
C743 C 0.43227 0.9814 0.64986 0.0
C744 C 0.47112 0.99422 0.65953 0.0
C745 C 0.43232 0.9779 0.63142 0.0
C746 C 0.47135 0.98771 0.62232 0.0
C747 C 0.51019 0.00053 0.63199 0.0
C748 C 0.51001 0.00348 0.65044 0.0
H749 H 0.51058 0.44348 0.89944 0.0
H750 H 0.51465 0.56955 0.90119 0.0
H751 H 0.50717 0.43986 0.93175 0.0
H752 H 0.51142 0.56582 0.9335 0.0
H753 H 0.55098 0.56194 0.99163 0.0
H754 H 0.55865 0.56655 0.95933 0.0
H755 H 0.45053 0.43171 0.95497 0.0
H756 H 0.44297 0.42707 0.98723 0.0
C757 C 0.51104 0.47054 0.9067 0.0
C758 C 0.51278 0.50676 0.89773 0.0
C759 C 0.50885 0.46831 0.92518 0.0
C760 C 0.50895 0.50251 0.9351 0.0
C761 C 0.51161 0.53915 0.92618 0.0
C762 C 0.51323 0.54113 0.90768 0.0
C763 C 0.52909 0.53325 0.98374 0.0
C764 C 0.49631 0.49419 0.99189 0.0
C765 C 0.53327 0.53598 0.9653 0.0
C766 C 0.50518 0.49949 0.95467 0.0
C767 C 0.47284 0.46023 0.96285 0.0
C768 C 0.46827 0.4577 0.98127 0.0
H769 H -0.00185 0.44548 0.24074 0.0
H770 H 0.02867 0.58182 0.23709 0.0
H771 H -0.00464 0.44931 0.27303 0.0
H772 H 0.02663 0.58567 0.26942 0.0
H773 H 0.06711 0.57923 0.32849 0.0
H774 H 0.07217 0.57738 0.29628 0.0
H775 H 0.94153 0.46202 0.29448 0.0
H776 H 0.93505 0.46494 0.32653 0.0
C777 C 0.00471 0.47635 0.24683 0.0
C778 C 0.01351 0.51333 0.23641 0.0
C779 C 0.00287 0.47842 0.26526 0.0
C780 C 0.01069 0.51773 0.27359 0.0
C781 C 0.02066 0.55507 0.26324 0.0
C782 C 0.02163 0.55276 0.24479 0.0
C783 C 0.03907 0.5539 0.32126 0.0
C784 C 0.00066 0.5222 0.3302 0.0
C785 C 0.0422 0.55274 0.30284 0.0
C786 C 0.00735 0.51941 0.29303 0.0
C787 C 0.96905 0.48768 0.30184 0.0
C788 C 0.96554 0.4893 0.32021 0.0
loop_
_geom_bond_atom_site_label_1
_geom_bond_atom_site_label_2
_geom_bond_distance
_geom_bond_site_symmetry_2
_ccdc_geom_bond_type
O0 Zn1 1.953 . S
O0 C16 1.225 1_655 S
Zn1 O0 1.953 . S
Zn1 O2 1.949 1_655 S
Zn1 O8 1.919 . S
Zn1 O13 1.924 1_655 S
O2 Zn1 1.949 1_455 S
O2 Zn3 1.923 1_455 S
O2 Zn4 1.950 . S
O2 Zn5 1.945 . S
Zn3 O2 1.923 1_655 S
Zn3 O6 1.933 . S
Zn3 O9 1.941 . S
Zn3 O10 1.965 . S
Zn4 O2 1.950 . S
Zn4 O11 1.938 1_455 S
Zn4 O12 1.906 . S
Zn4 O22 1.953 . S
Zn5 O2 1.945 . S
Zn5 O7 1.932 . S
Zn5 O14 1.977 . S
Zn5 O15 1.910 . S
O6 Zn3 1.933 . S
O6 C17 1.226 1_655 S
O7 Zn5 1.932 . S
O7 C17 1.307 . S
O8 Zn1 1.919 . S
O8 C19 1.253 . S
O9 Zn3 1.941 . S
O9 C19 1.283 . S
O10 Zn3 1.965 . S
O10 C18 1.303 . S
O11 Zn4 1.938 1_655 S
O11 C18 1.247 . S
O12 Zn4 1.906 . S
O12 C20 1.304 . S
O13 Zn1 1.924 1_455 S
O13 C21 1.311 . S
O14 Zn5 1.977 . S
O14 C20 1.272 . S
O15 Zn5 1.910 . S
O15 C21 1.231 . S
C16 O0 1.225 1_455 S
C16 O22 1.298 . S
C17 O6 1.226 1_455 S
C17 O7 1.307 . S
C18 O10 1.303 . S
C18 O11 1.247 . S
C19 O8 1.253 . S
C19 O9 1.283 . S
C20 O12 1.304 . S
C20 O14 1.272 . S
C21 O13 1.311 . S
C21 O15 1.231 . S
O22 Zn4 1.953 . S
O22 C16 1.298 . S
O23 Zn24 1.953 . S
O23 C39 1.225 . S
Zn24 O23 1.953 . S
Zn24 O25 1.949 . S
Zn24 O31 1.919 . S
Zn24 O36 1.924 1_545 S
O25 Zn24 1.949 . S
O25 Zn26 1.923 . S
O25 Zn27 1.950 1_545 S
O25 Zn28 1.945 1_545 S
Zn26 O25 1.923 . S
Zn26 O29 1.933 . S
Zn26 O32 1.941 . S
Zn26 O33 1.965 . S
Zn27 O25 1.950 1_565 S
Zn27 O34 1.938 1_565 S
Zn27 O35 1.906 . S
Zn27 O45 1.953 . S
Zn28 O25 1.945 1_565 S
Zn28 O30 1.932 . S
Zn28 O37 1.977 . S
Zn28 O38 1.910 . S
O29 Zn26 1.933 . S
O29 C40 1.226 . S
O30 Zn28 1.932 . S
O30 C40 1.307 1_565 S
O31 Zn24 1.919 . S
O31 C42 1.253 . S
O32 Zn26 1.941 . S
O32 C42 1.283 . S
O33 Zn26 1.965 . S
O33 C41 1.303 . S
O34 Zn27 1.938 1_545 S
O34 C41 1.247 . S
O35 Zn27 1.906 . S
O35 C43 1.304 . S
O36 Zn24 1.924 1_565 S
O36 C44 1.311 . S
O37 Zn28 1.977 . S
O37 C43 1.272 . S
O38 Zn28 1.910 . S
O38 C44 1.231 . S
C39 O23 1.225 . S
C39 O45 1.298 1_545 S
C40 O29 1.226 . S
C40 O30 1.307 1_545 S
C41 O33 1.303 . S
C41 O34 1.247 . S
C42 O31 1.253 . S
C42 O32 1.283 . S
C43 O35 1.304 . S
C43 O37 1.272 . S
C44 O36 1.311 . S
C44 O38 1.231 . S
O45 Zn27 1.953 . S
O45 C39 1.298 1_565 S
O46 Zn47 1.953 . S
O46 C62 1.225 . S
Zn47 O46 1.953 . S
Zn47 O48 1.949 . S
Zn47 O54 1.919 . S
Zn47 O59 1.924 . S
O48 Zn47 1.949 . S
O48 Zn49 1.923 . S
O48 Zn50 1.950 . S
O48 Zn51 1.945 . S
Zn49 O48 1.923 . S
Zn49 O52 1.933 . S
Zn49 O55 1.941 . S
Zn49 O56 1.965 . S
Zn50 O48 1.950 . S
Zn50 O57 1.938 . S
Zn50 O58 1.906 . S
Zn50 O68 1.953 . S
Zn51 O48 1.945 . S
Zn51 O53 1.932 . S
Zn51 O60 1.977 . S
Zn51 O61 1.910 . S
O52 Zn49 1.933 . S
O52 C63 1.226 . S
O53 Zn51 1.932 . S
O53 C63 1.307 . S
O54 Zn47 1.919 . S
O54 C65 1.253 . S
O55 Zn49 1.941 . S
O55 C65 1.283 . S
O56 Zn49 1.965 . S
O56 C64 1.303 . S
O57 Zn50 1.938 . S
O57 C64 1.247 . S
O58 Zn50 1.906 . S
O58 C66 1.304 . S
O59 Zn47 1.924 . S
O59 C67 1.311 . S
O60 Zn51 1.977 . S
O60 C66 1.272 . S
O61 Zn51 1.910 . S
O61 C67 1.231 . S
C62 O46 1.225 . S
C62 O68 1.298 . S
C63 O52 1.226 . S
C63 O53 1.307 . S
C64 O56 1.303 . S
C64 O57 1.247 . S
C65 O54 1.253 . S
C65 O55 1.283 . S
C66 O58 1.304 . S
C66 O60 1.272 . S
C67 O59 1.311 . S
C67 O61 1.231 . S
O68 Zn50 1.953 . S
O68 C62 1.298 . S
C69 C70 1.391 . S
C69 C73 1.391 . S
C69 H111 0.948 . S
C70 C69 1.391 . S
C70 C71 1.391 . S
C71 C70 1.391 . S
C71 H127 0.947 . S
C71 C128 1.392 . S
C72 C73 1.391 . S
C72 C76 1.397 . S
C72 C128 1.419 . S
C73 C69 1.391 . S
C73 C72 1.391 . S
C73 C74 1.399 . S
C74 C73 1.399 . S
C74 C77 1.396 . S
C74 C86 1.453 . S
C74 C87 1.684 . S
H75 C99 0.948 . S
C76 C72 1.397 . S
C76 C77 1.394 . S
C76 C95 1.723 . S
C77 C74 1.396 . S
C77 C76 1.394 . S
C77 C107 1.723 1_545 S
H78 C101 0.947 . S
H79 C102 0.948 . S
H80 C108 0.982 . S
H81 C109 0.979 . S
H82 C109 0.980 . S
H83 C109 0.983 . S
H84 C108 0.979 . S
H85 C108 0.977 . S
C86 C74 1.453 . S
C86 H115 0.982 . S
C86 H116 0.979 . S
C86 H117 0.977 1_545 S
C87 C74 1.684 . S
C87 H112 0.979 . S
C87 H113 0.980 . S
C87 H114 0.983 . S
C88 C89 1.391 . S
C88 C93 1.391 . S
C88 H118 0.948 . S
C89 C88 1.391 . S
C89 C90 1.391 1_545 S
C90 C89 1.391 1_565 S
C90 C91 1.392 . S
C90 H119 0.947 . S
C91 C90 1.392 . S
C91 C92 1.419 . S
C91 H120 0.948 . S
C92 C91 1.419 . S
C92 C93 1.391 1_565 S
C92 C96 1.397 1_565 S
C93 C88 1.391 . S
C93 C92 1.391 1_545 S
C93 C94 1.399 . S
C94 C93 1.399 . S
C94 C95 1.396 . S
C94 C97 1.453 . S
C94 C98 1.684 . S
C95 C76 1.723 . S
C95 C94 1.396 . S
C95 C96 1.394 . S
C96 C92 1.397 1_545 S
C96 C95 1.394 . S
C96 C106 1.723 1_545 S
C97 C94 1.453 . S
C97 H121 0.982 . S
C97 H122 0.979 . S
C97 H123 0.977 . S
C98 C94 1.684 . S
C98 H124 0.979 . S
C98 H125 0.980 . S
C98 H126 0.983 . S
C99 H75 0.948 . S
C99 C100 1.391 . S
C99 C104 1.391 . S
C100 C99 1.391 . S
C100 C101 1.391 . S
C101 H78 0.947 . S
C101 C100 1.391 . S
C101 C102 1.392 . S
C102 H79 0.948 . S
C102 C101 1.392 . S
C102 C103 1.419 . S
C103 C102 1.419 . S
C103 C104 1.391 . S
C103 C107 1.397 . S
C104 C99 1.391 . S
C104 C103 1.391 . S
C104 C105 1.399 . S
C105 C104 1.399 . S
C105 C106 1.396 . S
C105 C108 1.453 . S
C105 C109 1.684 . S
C106 C96 1.723 1_565 S
C106 C105 1.396 . S
C106 C107 1.394 . S
C107 C77 1.723 1_565 S
C107 C103 1.397 . S
C107 C106 1.394 . S
C108 H80 0.982 . S
C108 H84 0.979 . S
C108 H85 0.977 . S
C108 C105 1.453 . S
C109 H81 0.979 . S
C109 H82 0.980 . S
C109 H83 0.983 . S
C109 C105 1.684 . S
H110 C128 0.948 . S
H111 C69 0.948 . S
H112 C87 0.979 . S
H113 C87 0.980 . S
H114 C87 0.983 . S
H115 C86 0.982 . S
H116 C86 0.979 . S
H117 C86 0.977 1_565 S
H118 C88 0.948 . S
H119 C90 0.947 . S
H120 C91 0.948 . S
H121 C97 0.982 . S
H122 C97 0.979 . S
H123 C97 0.977 . S
H124 C98 0.979 . S
H125 C98 0.980 . S
H126 C98 0.983 . S
H127 C71 0.947 . S
C128 C71 1.392 . S
C128 C72 1.419 . S
C128 H110 0.948 . S
C129 C130 1.391 . S
C129 C133 1.391 . S
C129 H171 0.948 . S
C130 C129 1.391 . S
C130 C131 1.391 . S
C131 C130 1.391 . S
C131 H187 0.947 . S
C131 C188 1.392 . S
C132 C133 1.391 . S
C132 C136 1.397 . S
C132 C188 1.419 . S
C133 C129 1.391 . S
C133 C132 1.391 . S
C133 C134 1.399 . S
C134 C133 1.399 . S
C134 C137 1.396 . S
C134 C146 1.453 . S
C134 C147 1.684 . S
H135 C159 0.948 . S
C136 C132 1.397 . S
C136 C137 1.394 . S
C136 C155 1.723 . S
C137 C134 1.396 . S
C137 C136 1.394 . S
C137 C167 1.723 . S
H138 C161 0.947 . S
H139 C162 0.948 . S
H140 C168 0.982 . S
H141 C169 0.979 . S
H142 C169 0.980 . S
H143 C169 0.983 . S
H144 C168 0.979 . S
H145 C168 0.977 . S
C146 C134 1.453 . S
C146 H175 0.982 . S
C146 H176 0.979 . S
C146 H177 0.977 . S
C147 C134 1.684 . S
C147 H172 0.979 . S
C147 H173 0.980 . S
C147 H174 0.983 . S
C148 C149 1.391 . S
C148 C153 1.391 . S
C148 H178 0.948 . S
C149 C148 1.391 . S
C149 C150 1.391 . S
C150 C149 1.391 . S
C150 C151 1.392 . S
C150 H179 0.947 . S
C151 C150 1.392 . S
C151 C152 1.419 . S
C151 H180 0.948 . S
C152 C151 1.419 . S
C152 C153 1.391 . S
C152 C156 1.397 . S
C153 C148 1.391 . S
C153 C152 1.391 . S
C153 C154 1.399 . S
C154 C153 1.399 . S
C154 C155 1.396 . S
C154 C157 1.453 . S
C154 C158 1.684 . S
C155 C136 1.723 . S
C155 C154 1.396 . S
C155 C156 1.394 . S
C156 C152 1.397 . S
C156 C155 1.394 . S
C156 C166 1.723 . S
C157 C154 1.453 . S
C157 H181 0.982 . S
C157 H182 0.979 . S
C157 H183 0.977 . S
C158 C154 1.684 . S
C158 H184 0.979 . S
C158 H185 0.980 . S
C158 H186 0.983 . S
C159 H135 0.948 . S
C159 C160 1.391 . S
C159 C164 1.391 . S
C160 C159 1.391 . S
C160 C161 1.391 . S
C161 H138 0.947 . S
C161 C160 1.391 . S
C161 C162 1.392 . S
C162 H139 0.948 . S
C162 C161 1.392 . S
C162 C163 1.419 . S
C163 C162 1.419 . S
C163 C164 1.391 . S
C163 C167 1.397 . S
C164 C159 1.391 . S
C164 C163 1.391 . S
C164 C165 1.399 . S
C165 C164 1.399 . S
C165 C166 1.396 . S
C165 C168 1.453 . S
C165 C169 1.684 . S
C166 C156 1.723 . S
C166 C165 1.396 . S
C166 C167 1.394 . S
C167 C137 1.723 . S
C167 C163 1.397 . S
C167 C166 1.394 . S
C168 H140 0.982 . S
C168 H144 0.979 . S
C168 H145 0.977 . S
C168 C165 1.453 . S
C169 H141 0.979 . S
C169 H142 0.980 . S
C169 H143 0.983 . S
C169 C165 1.684 . S
H170 C188 0.948 . S
H171 C129 0.948 . S
H172 C147 0.979 . S
H173 C147 0.980 . S
H174 C147 0.983 . S
H175 C146 0.982 . S
H176 C146 0.979 . S
H177 C146 0.977 . S
H178 C148 0.948 . S
H179 C150 0.947 . S
H180 C151 0.948 . S
H181 C157 0.982 . S
H182 C157 0.979 . S
H183 C157 0.977 . S
H184 C158 0.979 . S
H185 C158 0.980 . S
H186 C158 0.983 . S
H187 C131 0.947 . S
C188 C131 1.392 . S
C188 C132 1.419 . S
C188 H170 0.948 . S
C189 C190 1.391 . S
C189 C193 1.391 . S
C189 H231 0.948 . S
C190 C189 1.391 . S
C190 C191 1.391 . S
C191 C190 1.391 . S
C191 H247 0.947 . S
C191 C248 1.392 . S
C192 C193 1.391 . S
C192 C196 1.397 . S
C192 C248 1.419 . S
C193 C189 1.391 . S
C193 C192 1.391 . S
C193 C194 1.399 . S
C194 C193 1.399 . S
C194 C197 1.396 . S
C194 C206 1.453 . S
C194 C207 1.684 . S
H195 C219 0.948 . S
C196 C192 1.397 . S
C196 C197 1.394 . S
C196 C215 1.723 . S
C197 C194 1.396 . S
C197 C196 1.394 . S
C197 C227 1.723 1_455 S
H198 C221 0.947 . S
H199 C222 0.948 . S
H200 C228 0.982 . S
H201 C229 0.979 . S
H202 C229 0.980 . S
H203 C229 0.983 . S
H204 C228 0.979 . S
H205 C228 0.977 . S
C206 C194 1.453 . S
C206 H235 0.982 . S
C206 H236 0.979 . S
C206 H237 0.977 1_455 S
C207 C194 1.684 . S
C207 H232 0.979 . S
C207 H233 0.980 . S
C207 H234 0.983 . S
C208 C209 1.391 . S
C208 C213 1.391 . S
C208 H238 0.948 . S
C209 C208 1.391 . S
C209 C210 1.391 1_455 S
C210 C209 1.391 1_655 S
C210 C211 1.392 . S
C210 H239 0.947 . S
C211 C210 1.392 . S
C211 C212 1.419 1_655 S
C211 H240 0.948 . S
C212 C211 1.419 1_455 S
C212 C213 1.391 . S
C212 C216 1.397 . S
C213 C208 1.391 . S
C213 C212 1.391 . S
C213 C214 1.399 . S
C214 C213 1.399 . S
C214 C215 1.396 . S
C214 C217 1.453 . S
C214 C218 1.684 . S
C215 C196 1.723 . S
C215 C214 1.396 . S
C215 C216 1.394 . S
C216 C212 1.397 . S
C216 C215 1.394 . S
C216 C226 1.723 1_455 S
C217 C214 1.453 . S
C217 H241 0.982 . S
C217 H242 0.979 . S
C217 H243 0.977 . S
C218 C214 1.684 . S
C218 H244 0.979 . S
C218 H245 0.980 . S
C218 H246 0.983 . S
C219 H195 0.948 . S
C219 C220 1.391 . S
C219 C224 1.391 . S
C220 C219 1.391 . S
C220 C221 1.391 . S
C221 H198 0.947 . S
C221 C220 1.391 . S
C221 C222 1.392 . S
C222 H199 0.948 . S
C222 C221 1.392 . S
C222 C223 1.419 . S
C223 C222 1.419 . S
C223 C224 1.391 . S
C223 C227 1.397 . S
C224 C219 1.391 . S
C224 C223 1.391 . S
C224 C225 1.399 . S
C225 C224 1.399 . S
C225 C226 1.396 . S
C225 C228 1.453 . S
C225 C229 1.684 . S
C226 C216 1.723 1_655 S
C226 C225 1.396 . S
C226 C227 1.394 . S
C227 C197 1.723 1_655 S
C227 C223 1.397 . S
C227 C226 1.394 . S
C228 H200 0.982 . S
C228 H204 0.979 . S
C228 H205 0.977 . S
C228 C225 1.453 . S
C229 H201 0.979 . S
C229 H202 0.980 . S
C229 H203 0.983 . S
C229 C225 1.684 . S
H230 C248 0.948 . S
H231 C189 0.948 . S
H232 C207 0.979 . S
H233 C207 0.980 . S
H234 C207 0.983 . S
H235 C206 0.982 . S
H236 C206 0.979 . S
H237 C206 0.977 1_655 S
H238 C208 0.948 . S
H239 C210 0.947 . S
H240 C211 0.948 . S
H241 C217 0.982 . S
H242 C217 0.979 . S
H243 C217 0.977 . S
H244 C218 0.979 . S
H245 C218 0.980 . S
H246 C218 0.983 . S
H247 C191 0.947 . S
C248 C191 1.392 . S
C248 C192 1.419 . S
C248 H230 0.948 . S
C249 C250 1.391 . S
C249 C253 1.391 . S
C249 H291 0.948 . S
C250 C249 1.391 . S
C250 C251 1.391 . S
C251 C250 1.391 . S
C251 H307 0.947 . S
C251 C308 1.392 . S
C252 C253 1.391 . S
C252 C256 1.397 . S
C252 C308 1.419 . S
C253 C249 1.391 . S
C253 C252 1.391 . S
C253 C254 1.399 . S
C254 C253 1.399 . S
C254 C257 1.396 . S
C254 C266 1.453 . S
C254 C267 1.684 . S
H255 C279 0.948 . S
C256 C252 1.397 . S
C256 C257 1.394 . S
C256 C275 1.723 . S
C257 C254 1.396 . S
C257 C256 1.394 . S
C257 C287 1.723 1_655 S
H258 C281 0.947 . S
H259 C282 0.948 . S
H260 C288 0.982 . S
H261 C289 0.979 . S
H262 C289 0.980 . S
H263 C289 0.983 . S
H264 C288 0.979 . S
H265 C288 0.977 . S
C266 C254 1.453 . S
C266 H295 0.982 1_655 S
C266 H296 0.979 . S
C266 H297 0.977 1_655 S
C267 C254 1.684 . S
C267 H292 0.979 . S
C267 H293 0.980 . S
C267 H294 0.983 . S
C268 C269 1.391 1_655 S
C268 C273 1.391 . S
C268 H298 0.948 . S
C269 C268 1.391 1_455 S
C269 C270 1.391 . S
C270 C269 1.391 . S
C270 C271 1.392 . S
C270 H299 0.947 . S
C271 C270 1.392 . S
C271 C272 1.419 . S
C271 H300 0.948 . S
C272 C271 1.419 . S
C272 C273 1.391 1_455 S
C272 C276 1.397 . S
C273 C268 1.391 . S
C273 C272 1.391 1_655 S
C273 C274 1.399 . S
C274 C273 1.399 . S
C274 C275 1.396 . S
C274 C277 1.453 . S
C274 C278 1.684 . S
C275 C256 1.723 . S
C275 C274 1.396 . S
C275 C276 1.394 1_655 S
C276 C272 1.397 . S
C276 C275 1.394 1_455 S
C276 C286 1.723 . S
C277 C274 1.453 . S
C277 H301 0.982 . S
C277 H302 0.979 . S
C277 H303 0.977 . S
C278 C274 1.684 . S
C278 H304 0.979 . S
C278 H305 0.980 . S
C278 H306 0.983 . S
C279 H255 0.948 . S
C279 C280 1.391 . S
C279 C284 1.391 . S
C280 C279 1.391 . S
C280 C281 1.391 . S
C281 H258 0.947 . S
C281 C280 1.391 . S
C281 C282 1.392 . S
C282 H259 0.948 . S
C282 C281 1.392 . S
C282 C283 1.419 . S
C283 C282 1.419 . S
C283 C284 1.391 . S
C283 C287 1.397 . S
C284 C279 1.391 . S
C284 C283 1.391 . S
C284 C285 1.399 . S
C285 C284 1.399 . S
C285 C286 1.396 . S
C285 C288 1.453 . S
C285 C289 1.684 . S
C286 C276 1.723 . S
C286 C285 1.396 . S
C286 C287 1.394 . S
C287 C257 1.723 1_455 S
C287 C283 1.397 . S
C287 C286 1.394 . S
C288 H260 0.982 . S
C288 H264 0.979 . S
C288 H265 0.977 . S
C288 C285 1.453 . S
C289 H261 0.979 . S
C289 H262 0.980 . S
C289 H263 0.983 . S
C289 C285 1.684 . S
H290 C308 0.948 . S
H291 C249 0.948 . S
H292 C267 0.979 . S
H293 C267 0.980 . S
H294 C267 0.983 . S
H295 C266 0.982 1_455 S
H296 C266 0.979 . S
H297 C266 0.977 1_455 S
H298 C268 0.948 . S
H299 C270 0.947 . S
H300 C271 0.948 . S
H301 C277 0.982 . S
H302 C277 0.979 . S
H303 C277 0.977 . S
H304 C278 0.979 . S
H305 C278 0.980 . S
H306 C278 0.983 . S
H307 C251 0.947 . S
C308 C251 1.392 . S
C308 C252 1.419 . S
C308 H290 0.948 . S
C309 C310 1.391 . S
C309 C313 1.391 . S
C309 H351 0.948 . S
C310 C309 1.391 . S
C310 C311 1.391 . S
C311 C310 1.391 . S
C311 H367 0.947 . S
C311 C368 1.392 . S
C312 C313 1.391 . S
C312 C316 1.397 . S
C312 C368 1.419 . S
C313 C309 1.391 . S
C313 C312 1.391 . S
C313 C314 1.399 . S
C314 C313 1.399 . S
C314 C317 1.396 . S
C314 C326 1.453 . S
C314 C327 1.684 . S
H315 C339 0.948 . S
C316 C312 1.397 . S
C316 C317 1.394 . S
C316 C335 1.723 . S
C317 C314 1.396 . S
C317 C316 1.394 . S
C317 C347 1.723 1_565 S
H318 C341 0.947 . S
H319 C342 0.948 . S
H320 C348 0.982 . S
H321 C349 0.979 . S
H322 C349 0.980 . S
H323 C349 0.983 . S
H324 C348 0.979 . S
H325 C348 0.977 . S
C326 C314 1.453 . S
C326 H355 0.982 1_565 S
C326 H356 0.979 . S
C326 H357 0.977 1_565 S
C327 C314 1.684 . S
C327 H352 0.979 . S
C327 H353 0.980 . S
C327 H354 0.983 . S
C328 C329 1.391 1_565 S
C328 C333 1.391 . S
C328 H358 0.948 . S
C329 C328 1.391 1_545 S
C329 C330 1.391 . S
C330 C329 1.391 . S
C330 C331 1.392 . S
C330 H359 0.947 . S
C331 C330 1.392 . S
C331 C332 1.419 . S
C331 H360 0.948 . S
C332 C331 1.419 . S
C332 C333 1.391 1_545 S
C332 C336 1.397 . S
C333 C328 1.391 . S
C333 C332 1.391 1_565 S
C333 C334 1.399 . S
C334 C333 1.399 . S
C334 C335 1.396 . S
C334 C337 1.453 . S
C334 C338 1.684 . S
C335 C316 1.723 . S
C335 C334 1.396 . S
C335 C336 1.394 1_565 S
C336 C332 1.397 . S
C336 C335 1.394 1_545 S
C336 C346 1.723 . S
C337 C334 1.453 . S
C337 H361 0.982 . S
C337 H362 0.979 . S
C337 H363 0.977 . S
C338 C334 1.684 . S
C338 H364 0.979 . S
C338 H365 0.980 . S
C338 H366 0.983 . S
C339 H315 0.948 . S
C339 C340 1.391 . S
C339 C344 1.391 . S
C340 C339 1.391 . S
C340 C341 1.391 . S
C341 H318 0.947 . S
C341 C340 1.391 . S
C341 C342 1.392 . S
C342 H319 0.948 . S
C342 C341 1.392 . S
C342 C343 1.419 . S
C343 C342 1.419 . S
C343 C344 1.391 . S
C343 C347 1.397 . S
C344 C339 1.391 . S
C344 C343 1.391 . S
C344 C345 1.399 . S
C345 C344 1.399 . S
C345 C346 1.396 . S
C345 C348 1.453 . S
C345 C349 1.684 . S
C346 C336 1.723 . S
C346 C345 1.396 . S
C346 C347 1.394 . S
C347 C317 1.723 1_545 S
C347 C343 1.397 . S
C347 C346 1.394 . S
C348 H320 0.982 . S
C348 H324 0.979 . S
C348 H325 0.977 . S
C348 C345 1.453 . S
C349 H321 0.979 . S
C349 H322 0.980 . S
C349 H323 0.983 . S
C349 C345 1.684 . S
H350 C368 0.948 . S
H351 C309 0.948 . S
H352 C327 0.979 . S
H353 C327 0.980 . S
H354 C327 0.983 . S
H355 C326 0.982 1_545 S
H356 C326 0.979 . S
H357 C326 0.977 1_545 S
H358 C328 0.948 . S
H359 C330 0.947 . S
H360 C331 0.948 . S
H361 C337 0.982 . S
H362 C337 0.979 . S
H363 C337 0.977 . S
H364 C338 0.979 . S
H365 C338 0.980 . S
H366 C338 0.983 . S
H367 C311 0.947 . S
C368 C311 1.392 . S
C368 C312 1.419 . S
C368 H350 0.948 . S
C369 C370 1.391 . S
C369 C373 1.391 . S
C369 H411 0.948 . S
C370 C369 1.391 . S
C370 C371 1.391 . S
C371 C370 1.391 . S
C371 H427 0.947 . S
C371 C428 1.392 . S
C372 C373 1.391 . S
C372 C376 1.397 . S
C372 C428 1.419 . S
C373 C369 1.391 . S
C373 C372 1.391 . S
C373 C374 1.399 . S
C374 C373 1.399 . S
C374 C377 1.396 . S
C374 C386 1.453 . S
C374 C387 1.684 . S
H375 C399 0.948 . S
C376 C372 1.397 . S
C376 C377 1.394 . S
C376 C395 1.723 . S
C377 C374 1.396 . S
C377 C376 1.394 . S
C377 C407 1.723 . S
H378 C401 0.947 . S
H379 C402 0.948 . S
H380 C408 0.982 . S
H381 C409 0.979 . S
H382 C409 0.980 . S
H383 C409 0.983 . S
H384 C408 0.979 . S
H385 C408 0.977 . S
C386 C374 1.453 . S
C386 H415 0.982 . S
C386 H416 0.979 . S
C386 H417 0.977 . S
C387 C374 1.684 . S
C387 H412 0.979 . S
C387 H413 0.980 . S
C387 H414 0.983 . S
C388 C389 1.391 . S
C388 C393 1.391 . S
C388 H418 0.948 . S
C389 C388 1.391 . S
C389 C390 1.391 . S
C390 C389 1.391 . S
C390 C391 1.392 . S
C390 H419 0.947 . S
C391 C390 1.392 . S
C391 C392 1.419 . S
C391 H420 0.948 . S
C392 C391 1.419 . S
C392 C393 1.391 . S
C392 C396 1.397 . S
C393 C388 1.391 . S
C393 C392 1.391 . S
C393 C394 1.399 . S
C394 C393 1.399 . S
C394 C395 1.396 . S
C394 C397 1.453 . S
C394 C398 1.684 . S
C395 C376 1.723 . S
C395 C394 1.396 . S
C395 C396 1.394 . S
C396 C392 1.397 . S
C396 C395 1.394 . S
C396 C406 1.723 . S
C397 C394 1.453 . S
C397 H421 0.982 . S
C397 H422 0.979 . S
C397 H423 0.977 . S
C398 C394 1.684 . S
C398 H424 0.979 . S
C398 H425 0.980 . S
C398 H426 0.983 . S
C399 H375 0.948 . S
C399 C400 1.391 . S
C399 C404 1.391 . S
C400 C399 1.391 . S
C400 C401 1.391 . S
C401 H378 0.947 . S
C401 C400 1.391 . S
C401 C402 1.392 . S
C402 H379 0.948 . S
C402 C401 1.392 . S
C402 C403 1.419 . S
C403 C402 1.419 . S
C403 C404 1.391 . S
C403 C407 1.397 . S
C404 C399 1.391 . S
C404 C403 1.391 . S
C404 C405 1.399 . S
C405 C404 1.399 . S
C405 C406 1.396 . S
C405 C408 1.453 . S
C405 C409 1.684 . S
C406 C396 1.723 . S
C406 C405 1.396 . S
C406 C407 1.394 . S
C407 C377 1.723 . S
C407 C403 1.397 . S
C407 C406 1.394 . S
C408 H380 0.982 . S
C408 H384 0.979 . S
C408 H385 0.977 . S
C408 C405 1.453 . S
C409 H381 0.979 . S
C409 H382 0.980 . S
C409 H383 0.983 . S
C409 C405 1.684 . S
H410 C428 0.948 . S
H411 C369 0.948 . S
H412 C387 0.979 . S
H413 C387 0.980 . S
H414 C387 0.983 . S
H415 C386 0.982 . S
H416 C386 0.979 . S
H417 C386 0.977 . S
H418 C388 0.948 . S
H419 C390 0.947 . S
H420 C391 0.948 . S
H421 C397 0.982 . S
H422 C397 0.979 . S
H423 C397 0.977 . S
H424 C398 0.979 . S
H425 C398 0.980 . S
H426 C398 0.983 . S
H427 C371 0.947 . S
C428 C371 1.392 . S
C428 C372 1.419 . S
C428 H410 0.948 . S
H429 C437 0.950 . S
H430 C442 0.950 . S
H431 C439 0.950 . S
H432 C441 0.950 . S
H433 C443 0.950 . S
H434 C445 0.950 . S
H435 C447 0.950 . S
H436 C448 0.950 . S
C437 H429 0.950 . S
C437 C438 1.386 . S
C437 C439 1.391 . S
C438 C437 1.386 . S
C438 C442 1.393 . S
C439 H431 0.950 . S
C439 C437 1.391 . S
C439 C440 1.400 . S
C440 C439 1.400 . S
C440 C441 1.398 . S
C440 C446 1.491 . S
C441 H432 0.950 . S
C441 C440 1.398 . S
C441 C442 1.391 . S
C442 H430 0.950 . S
C442 C438 1.393 . S
C442 C441 1.391 . S
C443 H433 0.950 . S
C443 C444 1.386 . S
C443 C445 1.391 . S
C444 C443 1.386 . S
C444 C448 1.393 . S
C445 H434 0.950 . S
C445 C443 1.391 . S
C445 C446 1.400 . S
C446 C440 1.491 . S
C446 C445 1.400 . S
C446 C447 1.398 . S
C447 H435 0.950 . S
C447 C446 1.398 . S
C447 C448 1.391 . S
C448 H436 0.950 . S
C448 C444 1.393 . S
C448 C447 1.391 . S
H449 C457 0.950 . S
H450 C462 0.950 . S
H451 C459 0.950 . S
H452 C461 0.950 . S
H453 C463 0.950 . S
H454 C465 0.950 . S
H455 C467 0.950 . S
H456 C468 0.950 . S
C457 H449 0.950 . S
C457 C458 1.386 . S
C457 C459 1.391 . S
C458 C457 1.386 . S
C458 C462 1.393 . S
C459 H451 0.950 . S
C459 C457 1.391 . S
C459 C460 1.400 . S
C460 C459 1.400 . S
C460 C461 1.398 . S
C460 C466 1.491 . S
C461 H452 0.950 . S
C461 C460 1.398 . S
C461 C462 1.391 . S
C462 H450 0.950 . S
C462 C458 1.393 . S
C462 C461 1.391 . S
C463 H453 0.950 . S
C463 C464 1.386 . S
C463 C465 1.391 . S
C464 C463 1.386 . S
C464 C468 1.393 . S
C465 H454 0.950 . S
C465 C463 1.391 . S
C465 C466 1.400 . S
C466 C460 1.491 . S
C466 C465 1.400 . S
C466 C467 1.398 . S
C467 H455 0.950 . S
C467 C466 1.398 . S
C467 C468 1.391 . S
C468 H456 0.950 . S
C468 C464 1.393 . S
C468 C467 1.391 . S
H469 C477 0.950 . S
H470 C482 0.950 . S
H471 C479 0.950 . S
H472 C481 0.950 . S
H473 C483 0.950 . S
H474 C485 0.950 . S
H475 C487 0.950 . S
H476 C488 0.950 . S
C477 H469 0.950 . S
C477 C478 1.386 . S
C477 C479 1.391 . S
C478 C477 1.386 . S
C478 C482 1.393 . S
C479 H471 0.950 . S
C479 C477 1.391 . S
C479 C480 1.400 . S
C480 C479 1.400 . S
C480 C481 1.398 . S
C480 C486 1.491 . S
C481 H472 0.950 . S
C481 C480 1.398 . S
C481 C482 1.391 . S
C482 H470 0.950 . S
C482 C478 1.393 . S
C482 C481 1.391 . S
C483 H473 0.950 . S
C483 C484 1.386 . S
C483 C485 1.391 . S
C484 C483 1.386 . S
C484 C488 1.393 . S
C485 H474 0.950 . S
C485 C483 1.391 . S
C485 C486 1.400 . S
C486 C480 1.491 . S
C486 C485 1.400 . S
C486 C487 1.398 . S
C487 H475 0.950 . S
C487 C486 1.398 . S
C487 C488 1.391 . S
C488 H476 0.950 . S
C488 C484 1.393 . S
C488 C487 1.391 . S
H489 C497 0.950 . S
H490 C502 0.950 . S
H491 C499 0.950 . S
H492 C501 0.950 . S
H493 C503 0.950 . S
H494 C505 0.950 . S
H495 C507 0.950 . S
H496 C508 0.950 . S
C497 H489 0.950 . S
C497 C498 1.386 . S
C497 C499 1.391 . S
C498 C497 1.386 . S
C498 C502 1.393 . S
C499 H491 0.950 . S
C499 C497 1.391 . S
C499 C500 1.400 . S
C500 C499 1.400 . S
C500 C501 1.398 . S
C500 C506 1.491 . S
C501 H492 0.950 . S
C501 C500 1.398 . S
C501 C502 1.391 . S
C502 H490 0.950 . S
C502 C498 1.393 . S
C502 C501 1.391 . S
C503 H493 0.950 . S
C503 C504 1.386 . S
C503 C505 1.391 . S
C504 C503 1.386 . S
C504 C508 1.393 . S
C505 H494 0.950 . S
C505 C503 1.391 . S
C505 C506 1.400 . S
C506 C500 1.491 . S
C506 C505 1.400 . S
C506 C507 1.398 . S
C507 H495 0.950 . S
C507 C506 1.398 . S
C507 C508 1.391 . S
C508 H496 0.950 . S
C508 C504 1.393 . S
C508 C507 1.391 . S
H509 C517 0.950 . S
H510 C522 0.950 . S
H511 C519 0.950 . S
H512 C521 0.950 . S
H513 C523 0.950 . S
H514 C525 0.950 . S
H515 C527 0.950 . S
H516 C528 0.950 . S
C517 H509 0.950 . S
C517 C518 1.386 . S
C517 C519 1.391 . S
C518 C517 1.386 . S
C518 C522 1.393 . S
C519 H511 0.950 . S
C519 C517 1.391 . S
C519 C520 1.400 . S
C520 C519 1.400 . S
C520 C521 1.398 . S
C520 C526 1.491 . S
C521 H512 0.950 . S
C521 C520 1.398 . S
C521 C522 1.391 . S
C522 H510 0.950 . S
C522 C518 1.393 . S
C522 C521 1.391 . S
C523 H513 0.950 . S
C523 C524 1.386 . S
C523 C525 1.391 . S
C524 C523 1.386 . S
C524 C528 1.393 . S
C525 H514 0.950 . S
C525 C523 1.391 . S
C525 C526 1.400 . S
C526 C520 1.491 . S
C526 C525 1.400 . S
C526 C527 1.398 . S
C527 H515 0.950 . S
C527 C526 1.398 . S
C527 C528 1.391 . S
C528 H516 0.950 . S
C528 C524 1.393 . S
C528 C527 1.391 . S
H529 C537 0.950 . S
H530 C542 0.950 . S
H531 C539 0.950 . S
H532 C541 0.950 . S
H533 C543 0.950 . S
H534 C545 0.950 . S
H535 C547 0.950 . S
H536 C548 0.950 . S
C537 H529 0.950 . S
C537 C538 1.386 . S
C537 C539 1.391 . S
C538 C537 1.386 . S
C538 C542 1.393 . S
C539 H531 0.950 . S
C539 C537 1.391 . S
C539 C540 1.400 . S
C540 C539 1.400 . S
C540 C541 1.398 . S
C540 C546 1.491 . S
C541 H532 0.950 . S
C541 C540 1.398 . S
C541 C542 1.391 . S
C542 H530 0.950 . S
C542 C538 1.393 . S
C542 C541 1.391 . S
C543 H533 0.950 . S
C543 C544 1.386 . S
C543 C545 1.391 . S
C544 C543 1.386 . S
C544 C548 1.393 . S
C545 H534 0.950 . S
C545 C543 1.391 . S
C545 C546 1.400 . S
C546 C540 1.491 . S
C546 C545 1.400 . S
C546 C547 1.398 . S
C547 H535 0.950 . S
C547 C546 1.398 . S
C547 C548 1.391 . S
C548 H536 0.950 . S
C548 C544 1.393 . S
C548 C547 1.391 . S
H549 C557 0.950 . S
H550 C562 0.950 . S
H551 C559 0.950 . S
H552 C561 0.950 . S
H553 C563 0.950 . S
H554 C565 0.950 . S
H555 C567 0.950 . S
H556 C568 0.950 . S
C557 H549 0.950 . S
C557 C558 1.386 . S
C557 C559 1.391 . S
C558 C557 1.386 . S
C558 C562 1.393 . S
C559 H551 0.950 . S
C559 C557 1.391 . S
C559 C560 1.400 . S
C560 C559 1.400 . S
C560 C561 1.398 . S
C560 C566 1.491 . S
C561 H552 0.950 . S
C561 C560 1.398 . S
C561 C562 1.391 . S
C562 H550 0.950 . S
C562 C558 1.393 . S
C562 C561 1.391 . S
C563 H553 0.950 . S
C563 C564 1.386 . S
C563 C565 1.391 . S
C564 C563 1.386 . S
C564 C568 1.393 . S
C565 H554 0.950 . S
C565 C563 1.391 . S
C565 C566 1.400 . S
C566 C560 1.491 . S
C566 C565 1.400 . S
C566 C567 1.398 . S
C567 H555 0.950 . S
C567 C566 1.398 . S
C567 C568 1.391 . S
C568 H556 0.950 . S
C568 C564 1.393 . S
C568 C567 1.391 . S
H569 C577 0.950 . S
H570 C582 0.950 . S
H571 C579 0.950 . S
H572 C581 0.950 . S
H573 C583 0.950 . S
H574 C585 0.950 . S
H575 C587 0.950 . S
H576 C588 0.950 . S
C577 H569 0.950 . S
C577 C578 1.386 . S
C577 C579 1.391 . S
C578 C577 1.386 . S
C578 C582 1.393 . S
C579 H571 0.950 . S
C579 C577 1.391 . S
C579 C580 1.400 . S
C580 C579 1.400 . S
C580 C581 1.398 . S
C580 C586 1.491 . S
C581 H572 0.950 . S
C581 C580 1.398 . S
C581 C582 1.391 . S
C582 H570 0.950 . S
C582 C578 1.393 . S
C582 C581 1.391 . S
C583 H573 0.950 . S
C583 C584 1.386 . S
C583 C585 1.391 . S
C584 C583 1.386 . S
C584 C588 1.393 . S
C585 H574 0.950 . S
C585 C583 1.391 . S
C585 C586 1.400 . S
C586 C580 1.491 . S
C586 C585 1.400 . S
C586 C587 1.398 . S
C587 H575 0.950 . S
C587 C586 1.398 . S
C587 C588 1.391 . S
C588 H576 0.950 . S
C588 C584 1.393 . S
C588 C587 1.391 . S
H589 C597 0.950 . S
H590 C602 0.950 . S
H591 C599 0.950 . S
H592 C601 0.950 . S
H593 C603 0.950 . S
H594 C605 0.950 . S
H595 C607 0.950 . S
H596 C608 0.950 . S
C597 H589 0.950 . S
C597 C598 1.386 . S
C597 C599 1.391 . S
C598 C597 1.386 . S
C598 C602 1.393 . S
C599 H591 0.950 . S
C599 C597 1.391 . S
C599 C600 1.400 . S
C600 C599 1.400 . S
C600 C601 1.398 . S
C600 C606 1.491 . S
C601 H592 0.950 . S
C601 C600 1.398 . S
C601 C602 1.391 . S
C602 H590 0.950 . S
C602 C598 1.393 . S
C602 C601 1.391 . S
C603 H593 0.950 . S
C603 C604 1.386 . S
C603 C605 1.391 . S
C604 C603 1.386 . S
C604 C608 1.393 . S
C605 H594 0.950 . S
C605 C603 1.391 . S
C605 C606 1.400 . S
C606 C600 1.491 . S
C606 C605 1.400 . S
C606 C607 1.398 . S
C607 H595 0.950 . S
C607 C606 1.398 . S
C607 C608 1.391 . S
C608 H596 0.950 . S
C608 C604 1.393 . S
C608 C607 1.391 . S
H609 C617 0.950 . S
H610 C622 0.950 . S
H611 C619 0.950 . S
H612 C621 0.950 . S
H613 C623 0.950 . S
H614 C625 0.950 . S
H615 C627 0.950 . S
H616 C628 0.950 . S
C617 H609 0.950 . S
C617 C618 1.386 . S
C617 C619 1.391 . S
C618 C617 1.386 . S
C618 C622 1.393 . S
C619 H611 0.950 . S
C619 C617 1.391 . S
C619 C620 1.400 . S
C620 C619 1.400 . S
C620 C621 1.398 . S
C620 C626 1.491 . S
C621 H612 0.950 . S
C621 C620 1.398 . S
C621 C622 1.391 . S
C622 H610 0.950 . S
C622 C618 1.393 . S
C622 C621 1.391 . S
C623 H613 0.950 . S
C623 C624 1.386 . S
C623 C625 1.391 . S
C624 C623 1.386 . S
C624 C628 1.393 . S
C625 H614 0.950 . S
C625 C623 1.391 . S
C625 C626 1.400 . S
C626 C620 1.491 . S
C626 C625 1.400 . S
C626 C627 1.398 . S
C627 H615 0.950 . S
C627 C626 1.398 . S
C627 C628 1.391 . S
C628 H616 0.950 . S
C628 C624 1.393 . S
C628 C627 1.391 . S
H629 C637 0.950 . S
H630 C642 0.950 . S
H631 C639 0.950 . S
H632 C641 0.950 . S
H633 C643 0.950 . S
H634 C645 0.950 . S
H635 C647 0.950 . S
H636 C648 0.950 . S
C637 H629 0.950 . S
C637 C638 1.386 . S
C637 C639 1.391 . S
C638 C637 1.386 . S
C638 C642 1.393 . S
C639 H631 0.950 . S
C639 C637 1.391 . S
C639 C640 1.400 . S
C640 C639 1.400 . S
C640 C641 1.398 . S
C640 C646 1.491 . S
C641 H632 0.950 . S
C641 C640 1.398 . S
C641 C642 1.391 . S
C642 H630 0.950 . S
C642 C638 1.393 . S
C642 C641 1.391 . S
C643 H633 0.950 . S
C643 C644 1.386 . S
C643 C645 1.391 . S
C644 C643 1.386 . S
C644 C648 1.393 . S
C645 H634 0.950 . S
C645 C643 1.391 . S
C645 C646 1.400 . S
C646 C640 1.491 . S
C646 C645 1.400 . S
C646 C647 1.398 . S
C647 H635 0.950 . S
C647 C646 1.398 . S
C647 C648 1.391 . S
C648 H636 0.950 . S
C648 C644 1.393 . S
C648 C647 1.391 . S
H649 C657 0.950 . S
H650 C662 0.950 . S
H651 C659 0.950 . S
H652 C661 0.950 . S
H653 C663 0.950 . S
H654 C665 0.950 . S
H655 C667 0.950 . S
H656 C668 0.950 . S
C657 H649 0.950 . S
C657 C658 1.386 . S
C657 C659 1.391 . S
C658 C657 1.386 . S
C658 C662 1.393 . S
C659 H651 0.950 . S
C659 C657 1.391 . S
C659 C660 1.400 . S
C660 C659 1.400 . S
C660 C661 1.398 . S
C660 C666 1.491 . S
C661 H652 0.950 . S
C661 C660 1.398 . S
C661 C662 1.391 . S
C662 H650 0.950 . S
C662 C658 1.393 . S
C662 C661 1.391 . S
C663 H653 0.950 . S
C663 C664 1.386 . S
C663 C665 1.391 . S
C664 C663 1.386 . S
C664 C668 1.393 . S
C665 H654 0.950 . S
C665 C663 1.391 . S
C665 C666 1.400 . S
C666 C660 1.491 . S
C666 C665 1.400 . S
C666 C667 1.398 . S
C667 H655 0.950 . S
C667 C666 1.398 . S
C667 C668 1.391 . S
C668 H656 0.950 . S
C668 C664 1.393 . S
C668 C667 1.391 . S
H669 C677 0.950 . S
H670 C682 0.950 . S
H671 C679 0.950 . S
H672 C681 0.950 . S
H673 C683 0.950 . S
H674 C685 0.950 . S
H675 C687 0.950 . S
H676 C688 0.950 . S
C677 H669 0.950 . S
C677 C678 1.386 . S
C677 C679 1.391 . S
C678 C677 1.386 . S
C678 C682 1.393 1_455 S
C679 H671 0.950 . S
C679 C677 1.391 . S
C679 C680 1.400 . S
C680 C679 1.400 . S
C680 C681 1.398 1_455 S
C680 C686 1.491 . S
C681 H672 0.950 . S
C681 C680 1.398 1_655 S
C681 C682 1.391 . S
C682 H670 0.950 . S
C682 C678 1.393 1_655 S
C682 C681 1.391 . S
C683 H673 0.950 . S
C683 C684 1.386 1_655 S
C683 C685 1.391 . S
C684 C683 1.386 1_455 S
C684 C688 1.393 . S
C685 H674 0.950 . S
C685 C683 1.391 . S
C685 C686 1.400 1_655 S
C686 C680 1.491 . S
C686 C685 1.400 1_455 S
C686 C687 1.398 . S
C687 H675 0.950 . S
C687 C686 1.398 . S
C687 C688 1.391 . S
C688 H676 0.950 . S
C688 C684 1.393 . S
C688 C687 1.391 . S
H689 C697 0.950 . S
H690 C702 0.950 . S
H691 C699 0.950 . S
H692 C701 0.950 . S
H693 C703 0.950 . S
H694 C705 0.950 . S
H695 C707 0.950 . S
H696 C708 0.950 . S
C697 H689 0.950 . S
C697 C698 1.386 . S
C697 C699 1.391 . S
C698 C697 1.386 . S
C698 C702 1.393 1_545 S
C699 H691 0.950 . S
C699 C697 1.391 . S
C699 C700 1.400 . S
C700 C699 1.400 . S
C700 C701 1.398 1_545 S
C700 C706 1.491 . S
C701 H692 0.950 . S
C701 C700 1.398 1_565 S
C701 C702 1.391 . S
C702 H690 0.950 . S
C702 C698 1.393 1_565 S
C702 C701 1.391 . S
C703 H693 0.950 . S
C703 C704 1.386 1_565 S
C703 C705 1.391 . S
C704 C703 1.386 1_545 S
C704 C708 1.393 . S
C705 H694 0.950 . S
C705 C703 1.391 . S
C705 C706 1.400 1_565 S
C706 C700 1.491 . S
C706 C705 1.400 1_545 S
C706 C707 1.398 . S
C707 H695 0.950 . S
C707 C706 1.398 . S
C707 C708 1.391 . S
C708 H696 0.950 . S
C708 C704 1.393 . S
C708 C707 1.391 . S
H709 C717 0.950 . S
H710 C722 0.950 . S
H711 C719 0.950 . S
H712 C721 0.950 . S
H713 C723 0.950 . S
H714 C725 0.950 . S
H715 C727 0.950 . S
H716 C728 0.950 . S
C717 H709 0.950 . S
C717 C718 1.386 . S
C717 C719 1.391 . S
C718 C717 1.386 . S
C718 C722 1.393 . S
C719 H711 0.950 . S
C719 C717 1.391 . S
C719 C720 1.400 . S
C720 C719 1.400 . S
C720 C721 1.398 . S
C720 C726 1.491 . S
C721 H712 0.950 . S
C721 C720 1.398 . S
C721 C722 1.391 . S
C722 H710 0.950 . S
C722 C718 1.393 . S
C722 C721 1.391 . S
C723 H713 0.950 . S
C723 C724 1.386 . S
C723 C725 1.391 . S
C724 C723 1.386 . S
C724 C728 1.393 . S
C725 H714 0.950 . S
C725 C723 1.391 . S
C725 C726 1.400 . S
C726 C720 1.491 . S
C726 C725 1.400 . S
C726 C727 1.398 . S
C727 H715 0.950 . S
C727 C726 1.398 . S
C727 C728 1.391 . S
C728 H716 0.950 . S
C728 C724 1.393 . S
C728 C727 1.391 . S
H729 C737 0.950 . S
H730 C742 0.950 . S
H731 C739 0.950 . S
H732 C741 0.950 . S
H733 C743 0.950 . S
H734 C745 0.950 . S
H735 C747 0.950 . S
H736 C748 0.950 . S
C737 H729 0.950 . S
C737 C738 1.386 . S
C737 C739 1.391 . S
C738 C737 1.386 . S
C738 C742 1.393 1_545 S
C739 H731 0.950 . S
C739 C737 1.391 . S
C739 C740 1.400 . S
C740 C739 1.400 . S
C740 C741 1.398 1_545 S
C740 C746 1.492 . S
C741 H732 0.950 . S
C741 C740 1.398 1_565 S
C741 C742 1.391 . S
C742 H730 0.950 . S
C742 C738 1.393 1_565 S
C742 C741 1.391 . S
C743 H733 0.950 . S
C743 C744 1.386 . S
C743 C745 1.391 . S
C744 C743 1.386 . S
C744 C748 1.393 1_565 S
C745 H734 0.950 . S
C745 C743 1.391 . S
C745 C746 1.402 1_565 S
C746 C740 1.492 . S
C746 C745 1.402 1_545 S
C746 C747 1.395 . S
C747 H735 0.950 . S
C747 C746 1.395 . S
C747 C748 1.391 . S
C748 H736 0.950 . S
C748 C744 1.393 1_545 S
C748 C747 1.391 . S
H749 C757 0.950 . S
H750 C762 0.950 . S
H751 C759 0.950 . S
H752 C761 0.950 . S
H753 C763 0.950 . S
H754 C765 0.950 . S
H755 C767 0.950 . S
H756 C768 0.950 . S
C757 H749 0.950 . S
C757 C758 1.386 . S
C757 C759 1.391 . S
C758 C757 1.386 . S
C758 C762 1.393 . S
C759 H751 0.950 . S
C759 C757 1.391 . S
C759 C760 1.400 . S
C760 C759 1.400 . S
C760 C761 1.398 . S
C760 C766 1.491 . S
C761 H752 0.950 . S
C761 C760 1.398 . S
C761 C762 1.391 . S
C762 H750 0.950 . S
C762 C758 1.393 . S
C762 C761 1.391 . S
C763 H753 0.950 . S
C763 C764 1.386 . S
C763 C765 1.391 . S
C764 C763 1.386 . S
C764 C768 1.393 . S
C765 H754 0.950 . S
C765 C763 1.391 . S
C765 C766 1.400 . S
C766 C760 1.491 . S
C766 C765 1.400 . S
C766 C767 1.398 . S
C767 H755 0.950 . S
C767 C766 1.398 . S
C767 C768 1.391 . S
C768 H756 0.950 . S
C768 C764 1.393 . S
C768 C767 1.391 . S
H769 C777 0.950 . S
H770 C782 0.950 . S
H771 C779 0.950 . S
H772 C781 0.950 . S
H773 C783 0.950 . S
H774 C785 0.950 . S
H775 C787 0.950 . S
H776 C788 0.950 . S
C777 H769 0.950 . S
C777 C778 1.386 1_655 S
C777 C779 1.391 . S
C778 C777 1.386 1_455 S
C778 C782 1.393 . S
C779 H771 0.950 . S
C779 C777 1.391 . S
C779 C780 1.400 1_655 S
C780 C779 1.400 1_455 S
C780 C781 1.398 . S
C780 C786 1.491 . S
C781 H772 0.950 . S
C781 C780 1.398 . S
C781 C782 1.391 . S
C782 H770 0.950 . S
C782 C778 1.393 . S
C782 C781 1.391 . S
C783 H773 0.950 . S
C783 C784 1.386 . S
C783 C785 1.391 . S
C784 C783 1.386 . S
C784 C788 1.393 1_455 S
C785 H774 0.950 . S
C785 C783 1.391 . S
C785 C786 1.400 . S
C786 C780 1.491 . S
C786 C785 1.400 . S
C786 C787 1.398 1_455 S
C787 H775 0.950 . S
C787 C786 1.398 1_655 S
C787 C788 1.391 . S
C788 H776 0.950 . S
C788 C784 1.393 1_655 S
C788 C787 1.391 . S
C438 C20 1.169 . S
C444 C400 1.198 . S
C458 C41 1.228 . S
C464 C250 1.169 . S
C478 C64 1.257 . S
C484 C310 1.203 . S
C498 C19 1.221 . S
C504 C370 1.234 . S
C524 C280 1.211 . S
C518 C44 1.216 . S
C544 C340 1.216 . S
C538 C67 1.208 . S
C558 C43 1.161 . S
C564 C130 1.173 . S
C578 C66 1.167 . S
C584 C220 1.197 . S
C598 C21 1.225 . S
C604 C100 1.217 . S
C624 C160 1.244 . S
C618 C42 1.219 . S
C644 C190 1.201 . S
C638 C65 1.208 . S
C658 C18 1.230 . S
C664 C70 1.172 . S
C684 C209 1.435 1_554 S
C678 C17 1.459 . S
C698 C39 1.457 . S
C704 C89 1.430 . S
C718 C62 1.473 . S
C724 C149 1.453 . S
C744 C329 1.427 1_565 S
C738 C40 1.442 . S
C764 C389 1.432 1_556 S
C758 C63 1.459 . S
C778 C16 1.457 . S
C784 C269 1.427 . S
