# Generated by pormake.
# Topology eea, (3,6)-cn, num edge types: 1
# Building blocks:
#     Node 0, Type 0, BuildingBlock: BETDIP_clean_linker_0, # of connection points: 3
#     Node 1, Type 0, BuildingBlock: BETDIP_clean_linker_0, # of connection points: 3
#     Node 2, Type 0, BuildingBlock: BETDIP_clean_linker_0, # of connection points: 3
#     Node 3, Type 0, BuildingBlock: BETDIP_clean_linker_0, # of connection points: 3
#     Node 4, Type 0, BuildingBlock: BETDIP_clean_linker_0, # of connection points: 3
#     Node 5, Type 0, BuildingBlock: BETDIP_clean_linker_0, # of connection points: 3
#     Node 6, Type 0, BuildingBlock: BETDIP_clean_linker_0, # of connection points: 3
#     Node 7, Type 0, BuildingBlock: BETDIP_clean_linker_0, # of connection points: 3
#     Node 8, Type 0, BuildingBlock: BETDIP_clean_linker_0, # of connection points: 3
#     Node 9, Type 0, BuildingBlock: BETDIP_clean_linker_0, # of connection points: 3
#     Node 10, Type 0, BuildingBlock: BETDIP_clean_linker_0, # of connection points: 3
#     Node 11, Type 0, BuildingBlock: BETDIP_clean_linker_0, # of connection points: 3
#     Node 12, Type 0, BuildingBlock: BETDIP_clean_linker_0, # of connection points: 3
#     Node 13, Type 0, BuildingBlock: BETDIP_clean_linker_0, # of connection points: 3
#     Node 14, Type 0, BuildingBlock: BETDIP_clean_linker_0, # of connection points: 3
#     Node 15, Type 0, BuildingBlock: BETDIP_clean_linker_0, # of connection points: 3
#     Node 16, Type 0, BuildingBlock: BETDIP_clean_linker_0, # of connection points: 3
#     Node 17, Type 0, BuildingBlock: BETDIP_clean_linker_0, # of connection points: 3
#     Node 18, Type 1, BuildingBlock: CIFDUS_clean_sbu_1, # of connection points: 6
#     Node 19, Type 1, BuildingBlock: CIFDUS_clean_sbu_1, # of connection points: 6
#     Node 20, Type 1, BuildingBlock: CIFDUS_clean_sbu_1, # of connection points: 6
#     Node 21, Type 1, BuildingBlock: CIFDUS_clean_sbu_1, # of connection points: 6
#     Node 22, Type 1, BuildingBlock: CIFDUS_clean_sbu_1, # of connection points: 6
#     Node 23, Type 1, BuildingBlock: CIFDUS_clean_sbu_1, # of connection points: 6
#     Node 24, Type 1, BuildingBlock: CIFDUS_clean_sbu_1, # of connection points: 6
#     Node 25, Type 1, BuildingBlock: CIFDUS_clean_sbu_1, # of connection points: 6
#     Node 26, Type 1, BuildingBlock: CIFDUS_clean_sbu_1, # of connection points: 6
#     Edge 27, Type (0, 1), BuildingBlock: MIFKUJ_clean_linker_0, # of connection points: 2
#     Edge 28, Type (0, 1), BuildingBlock: MIFKUJ_clean_linker_0, # of connection points: 2
#     Edge 29, Type (0, 1), BuildingBlock: MIFKUJ_clean_linker_0, # of connection points: 2
#     Edge 30, Type (0, 1), BuildingBlock: MIFKUJ_clean_linker_0, # of connection points: 2
#     Edge 31, Type (0, 1), BuildingBlock: MIFKUJ_clean_linker_0, # of connection points: 2
#     Edge 32, Type (0, 1), BuildingBlock: MIFKUJ_clean_linker_0, # of connection points: 2
#     Edge 33, Type (0, 1), BuildingBlock: MIFKUJ_clean_linker_0, # of connection points: 2
#     Edge 34, Type (0, 1), BuildingBlock: MIFKUJ_clean_linker_0, # of connection points: 2
#     Edge 35, Type (0, 1), BuildingBlock: MIFKUJ_clean_linker_0, # of connection points: 2
#     Edge 36, Type (0, 1), BuildingBlock: MIFKUJ_clean_linker_0, # of connection points: 2
#     Edge 37, Type (0, 1), BuildingBlock: MIFKUJ_clean_linker_0, # of connection points: 2
#     Edge 38, Type (0, 1), BuildingBlock: MIFKUJ_clean_linker_0, # of connection points: 2
#     Edge 39, Type (0, 1), BuildingBlock: MIFKUJ_clean_linker_0, # of connection points: 2
#     Edge 40, Type (0, 1), BuildingBlock: MIFKUJ_clean_linker_0, # of connection points: 2
#     Edge 41, Type (0, 1), BuildingBlock: MIFKUJ_clean_linker_0, # of connection points: 2
#     Edge 42, Type (0, 1), BuildingBlock: MIFKUJ_clean_linker_0, # of connection points: 2
#     Edge 43, Type (0, 1), BuildingBlock: MIFKUJ_clean_linker_0, # of connection points: 2
#     Edge 44, Type (0, 1), BuildingBlock: MIFKUJ_clean_linker_0, # of connection points: 2
#     Edge 45, Type (0, 1), BuildingBlock: MIFKUJ_clean_linker_0, # of connection points: 2
#     Edge 46, Type (0, 1), BuildingBlock: MIFKUJ_clean_linker_0, # of connection points: 2
#     Edge 47, Type (0, 1), BuildingBlock: MIFKUJ_clean_linker_0, # of connection points: 2
#     Edge 48, Type (0, 1), BuildingBlock: MIFKUJ_clean_linker_0, # of connection points: 2
#     Edge 49, Type (0, 1), BuildingBlock: MIFKUJ_clean_linker_0, # of connection points: 2
#     Edge 50, Type (0, 1), BuildingBlock: MIFKUJ_clean_linker_0, # of connection points: 2
#     Edge 51, Type (0, 1), BuildingBlock: MIFKUJ_clean_linker_0, # of connection points: 2
#     Edge 52, Type (0, 1), BuildingBlock: MIFKUJ_clean_linker_0, # of connection points: 2
#     Edge 53, Type (0, 1), BuildingBlock: MIFKUJ_clean_linker_0, # of connection points: 2
#     Edge 54, Type (0, 1), BuildingBlock: MIFKUJ_clean_linker_0, # of connection points: 2
#     Edge 55, Type (0, 1), BuildingBlock: MIFKUJ_clean_linker_0, # of connection points: 2
#     Edge 56, Type (0, 1), BuildingBlock: MIFKUJ_clean_linker_0, # of connection points: 2
#     Edge 57, Type (0, 1), BuildingBlock: MIFKUJ_clean_linker_0, # of connection points: 2
#     Edge 58, Type (0, 1), BuildingBlock: MIFKUJ_clean_linker_0, # of connection points: 2
#     Edge 59, Type (0, 1), BuildingBlock: MIFKUJ_clean_linker_0, # of connection points: 2
#     Edge 60, Type (0, 1), BuildingBlock: MIFKUJ_clean_linker_0, # of connection points: 2
#     Edge 61, Type (0, 1), BuildingBlock: MIFKUJ_clean_linker_0, # of connection points: 2
#     Edge 62, Type (0, 1), BuildingBlock: MIFKUJ_clean_linker_0, # of connection points: 2
#     Edge 63, Type (0, 1), BuildingBlock: MIFKUJ_clean_linker_0, # of connection points: 2
#     Edge 64, Type (0, 1), BuildingBlock: MIFKUJ_clean_linker_0, # of connection points: 2
#     Edge 65, Type (0, 1), BuildingBlock: MIFKUJ_clean_linker_0, # of connection points: 2
#     Edge 66, Type (0, 1), BuildingBlock: MIFKUJ_clean_linker_0, # of connection points: 2
#     Edge 67, Type (0, 1), BuildingBlock: MIFKUJ_clean_linker_0, # of connection points: 2
#     Edge 68, Type (0, 1), BuildingBlock: MIFKUJ_clean_linker_0, # of connection points: 2
#     Edge 69, Type (0, 1), BuildingBlock: MIFKUJ_clean_linker_0, # of connection points: 2
#     Edge 70, Type (0, 1), BuildingBlock: MIFKUJ_clean_linker_0, # of connection points: 2
#     Edge 71, Type (0, 1), BuildingBlock: MIFKUJ_clean_linker_0, # of connection points: 2
#     Edge 72, Type (0, 1), BuildingBlock: MIFKUJ_clean_linker_0, # of connection points: 2
#     Edge 73, Type (0, 1), BuildingBlock: MIFKUJ_clean_linker_0, # of connection points: 2
#     Edge 74, Type (0, 1), BuildingBlock: MIFKUJ_clean_linker_0, # of connection points: 2
#     Edge 75, Type (0, 1), BuildingBlock: MIFKUJ_clean_linker_0, # of connection points: 2
#     Edge 76, Type (0, 1), BuildingBlock: MIFKUJ_clean_linker_0, # of connection points: 2
#     Edge 77, Type (0, 1), BuildingBlock: MIFKUJ_clean_linker_0, # of connection points: 2
#     Edge 78, Type (0, 1), BuildingBlock: MIFKUJ_clean_linker_0, # of connection points: 2
#     Edge 79, Type (0, 1), BuildingBlock: MIFKUJ_clean_linker_0, # of connection points: 2
#     Edge 80, Type (0, 1), BuildingBlock: MIFKUJ_clean_linker_0, # of connection points: 2
# Relax obj value: 0.088
# Max RMSD: 0.118
# Mean RMSD: 0.105
data_MOF--net-eea--node1-CIFDUS_clean_sbu_1--node2-BETDIP_clean_linker_0--edge1-MIFKUJ_clean_linker_0
_symmetry_space_group_name_H-M    P1
_symmetry_Int_Tables_number       1
_symmetry_cell_setting            triclinic
loop_
_symmetry_equiv_pos_as_xyz
'x, y, z'
_cell_length_a     75.2927
_cell_length_b     74.657986
_cell_length_c     58.38219
_cell_angle_alpha  90.207696
_cell_angle_beta   90.262585
_cell_angle_gamma 119.99813
loop_
_atom_site_label
_atom_site_type_symbol
_atom_site_fract_x
_atom_site_fract_y
_atom_site_fract_z
_atom_type_partial_charge
H0 H 0.2245 0.11167 0.3404 0.0
H1 H 0.25135 0.15096 0.39981 0.0
H2 H 0.25362 0.09498 0.39294 0.0
H3 H 0.25581 0.17619 0.3726 0.0
C4 C 0.24045 0.16823 0.36524 0.0
C5 C 0.23313 0.11527 0.3563 0.0
C6 C 0.23924 0.10161 0.36488 0.0
C7 C 0.23817 0.13362 0.36829 0.0
C8 C 0.24852 0.13765 0.38959 0.0
C9 C 0.25383 0.12352 0.39855 0.0
C10 C 0.24967 0.10598 0.38582 0.0
N11 N 0.23122 0.14686 0.35955 0.0
H12 H 0.89932 0.11727 0.33555 0.0
H13 H 0.85889 0.09945 0.39323 0.0
H14 H 0.91259 0.1599 0.39165 0.0
H15 H 0.87777 0.07219 0.37621 0.0
C16 C 0.8653 0.06923 0.3645 0.0
C17 C 0.8952 0.12115 0.35183 0.0
C18 C 0.908 0.1406 0.36207 0.0
C19 C 0.87739 0.10642 0.36304 0.0
C20 C 0.87233 0.11114 0.38442 0.0
C21 C 0.88495 0.13042 0.39485 0.0
C22 C 0.90262 0.1451 0.38347 0.0
N23 N 0.86529 0.08625 0.35376 0.0
H24 H 0.89409 0.7847 0.34131 0.0
H25 H 0.91053 0.7624 0.40122 0.0
H26 H 0.85207 0.75923 0.39737 0.0
H27 H 0.92843 0.7553 0.37282 0.0
C28 C 0.93541 0.77007 0.36405 0.0
C29 C 0.89025 0.77749 0.35801 0.0
C30 C 0.87122 0.77195 0.3678 0.0
C31 C 0.90424 0.77343 0.36954 0.0
C32 C 0.89944 0.7646 0.3916 0.0
C33 C 0.88076 0.75983 0.40188 0.0
C34 C 0.8666 0.76307 0.38959 0.0
N35 N 0.92345 0.77947 0.35916 0.0
H36 H 0.11342 0.22799 0.68393 0.0
H37 H 0.15807 0.25291 0.63004 0.0
H38 H 0.1017 0.2537 0.62364 0.0
H39 H 0.17965 0.26003 0.6624 0.0
C40 C 0.17158 0.24462 0.66971 0.0
C41 C 0.11818 0.23545 0.66743 0.0
C42 C 0.10535 0.24072 0.6551 0.0
C43 C 0.13743 0.24023 0.65883 0.0
C44 C 0.14362 0.24987 0.63733 0.0
C45 C 0.13067 0.25455 0.62452 0.0
C46 C 0.11169 0.25008 0.63358 0.0
N47 N 0.14985 0.2343 0.67149 0.0
H48 H 0.78379 0.88955 0.68364 0.0
H49 H 0.76301 0.91161 0.62711 0.0
H50 H 0.76021 0.85328 0.62175 0.0
H51 H 0.75881 0.93 0.65421 0.0
C52 C 0.77255 0.93522 0.66458 0.0
C53 C 0.77706 0.8873 0.66668 0.0
C54 C 0.77192 0.86915 0.65411 0.0
C55 C 0.77345 0.90259 0.65741 0.0
C56 C 0.76502 0.89972 0.63518 0.0
C57 C 0.76021 0.88194 0.62248 0.0
C58 C 0.76364 0.8668 0.63197 0.0
N59 N 0.77963 0.92125 0.66994 0.0
H60 H 0.12735 0.89578 0.67733 0.0
H61 H 0.10311 0.85509 0.61895 0.0
H62 H 0.16403 0.90675 0.61676 0.0
H63 H 0.07661 0.86805 0.63382 0.0
C64 C 0.07558 0.85933 0.64914 0.0
C65 C 0.12955 0.8915 0.66028 0.0
C66 C 0.14818 0.90366 0.64867 0.0
C67 C 0.11317 0.87426 0.64944 0.0
C68 C 0.11568 0.86843 0.6273 0.0
C69 C 0.13445 0.8797 0.61608 0.0
C70 C 0.15032 0.89735 0.62661 0.0
N71 N 0.09393 0.86332 0.66052 0.0
H72 H 0.89551 0.44712 0.67673 0.0
H73 H 0.9217 0.49106 0.73216 0.0
H74 H 0.92156 0.43369 0.73555 0.0
H75 H 0.86912 0.46394 0.69709 0.0
C76 C 0.88129 0.47946 0.69295 0.0
C77 C 0.90319 0.4514 0.69324 0.0
C78 C 0.90895 0.43828 0.70434 0.0
C79 C 0.90769 0.47038 0.70351 0.0
C80 C 0.91809 0.47634 0.72457 0.0
C81 C 0.92352 0.46328 0.73593 0.0
C82 C 0.91849 0.44425 0.72594 0.0
N83 N 0.90192 0.48381 0.69302 0.0
H84 H 0.56711 0.45209 0.67138 0.0
H85 H 0.52319 0.43084 0.72563 0.0
H86 H 0.57946 0.48863 0.73305 0.0
H87 H 0.5504 0.40709 0.69081 0.0
C88 C 0.53507 0.40401 0.68637 0.0
C89 C 0.56275 0.45456 0.68825 0.0
C90 C 0.57556 0.47284 0.70071 0.0
C91 C 0.54401 0.43944 0.69749 0.0
C92 C 0.53784 0.44254 0.71896 0.0
C93 C 0.55045 0.46038 0.73184 0.0
C94 C 0.56932 0.4753 0.72267 0.0
N95 N 0.53118 0.42072 0.68564 0.0
H96 H 0.56001 0.11654 0.67708 0.0
H97 H 0.57807 0.09298 0.73451 0.0
H98 H 0.51841 0.08726 0.73285 0.0
H99 H 0.60807 0.13006 0.72451 0.0
C100 C 0.60901 0.12437 0.70764 0.0
C101 C 0.55628 0.10818 0.6931 0.0
C102 C 0.53742 0.10214 0.70367 0.0
C103 C 0.57109 0.10509 0.70428 0.0
C104 C 0.56663 0.09522 0.72571 0.0
C105 C 0.54738 0.08821 0.73574 0.0
C106 C 0.53291 0.09169 0.72458 0.0
N107 N 0.59079 0.11298 0.69443 0.0
H108 H 0.78407 0.5628 0.01556 0.0
H109 H 0.82581 0.58774 0.95896 0.0
H110 H 0.77155 0.59281 0.95993 0.0
H111 H 0.82281 0.5543 0.96586 0.0
C112 C 0.82731 0.55741 0.98381 0.0
C113 C 0.78847 0.57113 0.99952 0.0
C114 C 0.77587 0.57791 0.9894 0.0
C115 C 0.80637 0.57438 0.98848 0.0
C116 C 0.81199 0.58507 0.96759 0.0
C117 C 0.79945 0.59169 0.95733 0.0
C118 C 0.78148 0.58813 0.96826 0.0
N119 N 0.81808 0.566 0.99796 0.0
H120 H 0.45105 0.22277 0.01402 0.0
H121 H 0.42656 0.24406 0.96112 0.0
H122 H 0.42262 0.18476 0.95443 0.0
H123 H 0.47491 0.26929 0.97828 0.0
C124 C 0.46535 0.27216 0.98992 0.0
C125 C 0.44288 0.21996 0.99788 0.0
C126 C 0.43643 0.20135 0.98573 0.0
C127 C 0.43945 0.23535 0.98875 0.0
C128 C 0.42915 0.23202 0.96776 0.0
C129 C 0.42265 0.21363 0.9553 0.0
C130 C 0.42645 0.19847 0.96447 0.0
N131 N 0.44786 0.25498 0.99952 0.0
H132 H 0.78635 0.22991 0.01101 0.0
H133 H 0.77815 0.19023 0.9533 0.0
H134 H 0.83603 0.24538 0.96501 0.0
H135 H 0.74603 0.17572 0.96097 0.0
C136 C 0.74364 0.17804 0.97877 0.0
C137 C 0.79247 0.22604 0.99624 0.0
C138 C 0.8126 0.23961 0.98922 0.0
C139 C 0.77998 0.20777 0.98384 0.0
C140 C 0.78772 0.2037 0.96363 0.0
C141 C 0.80778 0.21756 0.95616 0.0
C142 C 0.82035 0.23477 0.96998 0.0
N143 N 0.75961 0.19441 0.99173 0.0
H144 H 0.56319 0.78129 0.00985 0.0
H145 H 0.58083 0.82135 0.06926 0.0
H146 H 0.58344 0.76556 0.07184 0.0
H147 H 0.58972 0.84568 0.03915 0.0
C148 C 0.57477 0.83754 0.03083 0.0
C149 C 0.56894 0.78485 0.02729 0.0
C150 C 0.57375 0.77139 0.03921 0.0
C151 C 0.57181 0.80315 0.03781 0.0
C152 C 0.57918 0.80774 0.06059 0.0
C153 C 0.58321 0.79404 0.07276 0.0
C154 C 0.58055 0.77614 0.06199 0.0
N155 N 0.566 0.81607 0.02588 0.0
H156 H 0.23239 0.78458 0.00468 0.0
H157 H 0.19381 0.77018 0.0641 0.0
H158 H 0.25008 0.82772 0.06108 0.0
H159 H 0.1693 0.74933 0.04039 0.0
C160 C 0.17654 0.74285 0.02982 0.0
C161 C 0.22919 0.78884 0.02128 0.0
C162 C 0.24324 0.80802 0.03129 0.0
C163 C 0.21089 0.77522 0.03258 0.0
C164 C 0.20714 0.78077 0.05439 0.0
C165 C 0.22121 0.79965 0.06461 0.0
C166 C 0.23912 0.8132 0.05299 0.0
N167 N 0.19712 0.75563 0.02241 0.0
H168 H 0.22614 0.4458 0.00847 0.0
H169 H 0.24665 0.43071 0.07078 0.0
H170 H 0.18822 0.42683 0.06881 0.0
H171 H 0.26569 0.42455 0.04566 0.0
C172 C 0.27129 0.4377 0.03423 0.0
C173 C 0.22342 0.44077 0.02612 0.0
C174 C 0.20472 0.43593 0.03674 0.0
C175 C 0.23867 0.43886 0.03809 0.0
C176 C 0.23507 0.43193 0.06097 0.0
C177 C 0.21675 0.42742 0.07178 0.0
C178 C 0.20195 0.42975 0.0598 0.0
N179 N 0.25772 0.44476 0.02711 0.0
H180 H 0.44893 0.89594 0.34989 0.0
H181 H 0.49315 0.92228 0.29561 0.0
H182 H 0.43561 0.9209 0.29021 0.0
H183 H 0.51529 0.92811 0.32744 0.0
C184 C 0.50687 0.91242 0.33394 0.0
C185 C 0.45365 0.90385 0.33361 0.0
C186 C 0.44039 0.90845 0.3214 0.0
C187 C 0.47288 0.90907 0.32467 0.0
C188 C 0.4787 0.91888 0.30321 0.0
C189 C 0.46525 0.92307 0.29074 0.0
C190 C 0.44615 0.91789 0.29994 0.0
N191 N 0.4853 0.90276 0.3366 0.0
H192 H 0.12375 0.55847 0.34847 0.0
H193 H 0.09804 0.57999 0.2968 0.0
H194 H 0.09277 0.52043 0.2895 0.0
H195 H 0.09189 0.59323 0.33348 0.0
C196 C 0.10838 0.60154 0.33647 0.0
C197 C 0.11531 0.55584 0.33255 0.0
C198 C 0.10809 0.53707 0.32041 0.0
C199 C 0.11133 0.57119 0.32438 0.0
C200 C 0.10063 0.56799 0.30357 0.0
C201 C 0.09376 0.54961 0.29108 0.0
C202 C 0.09742 0.53426 0.29968 0.0
N203 N 0.11897 0.59023 0.33651 0.0
H204 H 0.45649 0.56688 0.34127 0.0
H205 H 0.43873 0.52171 0.28699 0.0
H206 H 0.49734 0.57738 0.28537 0.0
H207 H 0.42128 0.5001 0.31798 0.0
C208 C 0.4143 0.50874 0.32465 0.0
C209 C 0.46001 0.56171 0.32545 0.0
C210 C 0.47902 0.574 0.31485 0.0
C211 C 0.44558 0.54257 0.31585 0.0
C212 C 0.45001 0.53609 0.29495 0.0
C213 C 0.46882 0.54848 0.28394 0.0
C214 C 0.48316 0.56728 0.29417 0.0
N215 N 0.42637 0.5306 0.32689 0.0
O216 O 0.45889 0.98197 0.01021 0.0
Mn217 Mn 0.48929 0.00637 0.01185 0.0
O218 O 0.44106 0.98986 0.03511 0.0
Mn219 Mn 0.46328 0.01376 0.04676 0.0
O220 O 0.5198 0.03056 0.01319 0.0
O221 O 0.49851 0.98666 0.0003 0.0
Mn222 Mn 0.51335 0.99789 0.97572 0.0
O223 O 0.48628 0.01561 0.9785 0.0
O224 O 0.53549 0.02298 0.98504 0.0
O225 O 0.49258 0.99762 0.04522 0.0
O226 O 0.47847 0.01044 0.0693 0.0
O227 O 0.51361 0.97377 0.97939 0.0
O228 O 0.49637 0.99934 0.95415 0.0
C229 C 0.47603 0.04088 0.0267 0.0
C230 C 0.44203 0.97806 0.01992 0.0
C231 C 0.53568 0.03475 0.00111 0.0
C232 C 0.50246 0.97179 0.99705 0.0
C233 C 0.48797 0.01009 0.95809 0.0
C234 C 0.48897 0.00174 0.06551 0.0
O235 O 0.47988 0.02593 0.02353 0.0
O236 O 0.46409 0.03849 0.04371 0.0
O237 O 0.03523 0.48377 0.0095 0.0
Mn238 Mn 0.00884 0.48646 0.01347 0.0
O239 O 0.03239 0.46344 0.03905 0.0
Mn240 Mn 0.00584 0.45606 0.04672 0.0
O241 O 0.98214 0.48861 0.01855 0.0
O242 O 0.02603 0.51669 0.00337 0.0
Mn243 Mn 0.00932 0.52097 0.98584 0.0
O244 O 0.99973 0.47626 0.97956 0.0
O245 O 0.98846 0.51887 0.00373 0.0
O246 O 0.018 0.4981 0.04723 0.0
O247 O 0.00257 0.4708 0.06955 0.0
O248 O 0.03297 0.54541 0.98512 0.0
O249 O 0.00149 0.50346 0.96096 0.0
C250 C 0.98092 0.43568 0.02746 0.0
C251 C 0.04237 0.4747 0.0222 0.0
C252 C 0.97754 0.50288 0.01551 0.0
C253 C 0.03919 0.536 0.99879 0.0
C254 C 0.99762 0.48485 0.96149 0.0
C255 C 0.01172 0.49011 0.06704 0.0
O256 O 0.99172 0.45536 0.022 0.0
O257 O 0.98679 0.42941 0.04511 0.0
O258 O 0.55937 0.53429 0.01055 0.0
Mn259 Mn 0.52867 0.52738 0.00811 0.0
O260 O 0.57842 0.56307 0.99016 0.0
Mn261 Mn 0.55633 0.56301 0.9762 0.0
O262 O 0.49796 0.51956 0.00695 0.0
O263 O 0.51948 0.49757 0.0184 0.0
Mn264 Mn 0.50949 0.4982 0.04555 0.0
O265 O 0.53075 0.54005 0.04114 0.0
O266 O 0.48664 0.50099 0.03936 0.0
O267 O 0.52649 0.51636 0.97421 0.0
O268 O 0.54414 0.54463 0.95246 0.0
O269 O 0.50628 0.47277 0.04462 0.0
O270 O 0.52952 0.51687 0.06483 0.0
C271 C 0.54003 0.57476 0.99421 0.0
C272 C 0.5768 0.54892 0.00355 0.0
C273 C 0.4837 0.50916 0.02153 0.0
C274 C 0.51372 0.47851 0.02427 0.0
C275 C 0.53352 0.53507 0.06122 0.0
C276 C 0.53259 0.52519 0.95458 0.0
O277 O 0.53735 0.55635 0.99721 0.0
O278 O 0.5532 0.58564 0.97865 0.0
O279 O 0.12577 0.31384 0.34379 0.0
Mn280 Mn 0.15629 0.33814 0.34554 0.0
O281 O 0.10809 0.3224 0.36815 0.0
Mn282 Mn 0.13035 0.34653 0.37922 0.0
O283 O 0.18688 0.36247 0.3475 0.0
O284 O 0.16534 0.31788 0.33555 0.0
Mn285 Mn 0.18285 0.32924 0.31306 0.0
O286 O 0.1538 0.34609 0.31132 0.0
O287 O 0.20498 0.35268 0.32531 0.0
O288 O 0.15906 0.33011 0.37942 0.0
O289 O 0.14528 0.34381 0.40258 0.0
O290 O 0.18101 0.30418 0.31713 0.0
O291 O 0.16901 0.33293 0.2894 0.0
C292 C 0.14295 0.37314 0.35853 0.0
C293 C 0.10893 0.31026 0.35332 0.0
C294 C 0.20392 0.36524 0.33934 0.0
C295 C 0.16873 0.30253 0.33349 0.0
C296 C 0.1584 0.34172 0.29162 0.0
C297 C 0.15555 0.33479 0.39945 0.0
O298 O 0.14693 0.35821 0.35577 0.0
O299 O 0.13096 0.37102 0.3754 0.0
O300 O 0.69723 0.81261 0.34389 0.0
Mn301 Mn 0.67346 0.81932 0.34506 0.0
O302 O 0.68899 0.78683 0.36907 0.0
Mn303 Mn 0.66527 0.78547 0.38013 0.0
O304 O 0.64969 0.82616 0.34663 0.0
O305 O 0.69332 0.84829 0.33433 0.0
Mn306 Mn 0.68223 0.85409 0.31114 0.0
O307 O 0.66482 0.80777 0.31122 0.0
O308 O 0.65895 0.85309 0.32284 0.0
O309 O 0.68226 0.83107 0.3784 0.0
O310 O 0.66873 0.80431 0.40262 0.0
O311 O 0.7071 0.87741 0.31565 0.0
O312 O 0.67862 0.83563 0.28845 0.0
C313 C 0.63892 0.77167 0.3586 0.0
C314 C 0.7008 0.79942 0.35395 0.0
C315 C 0.64688 0.84024 0.33759 0.0
C316 C 0.70844 0.8671 0.3327 0.0
C317 C 0.66943 0.81618 0.29127 0.0
C318 C 0.67799 0.82359 0.39867 0.0
O319 O 0.65391 0.79045 0.3563 0.0
O320 O 0.6406 0.76179 0.37588 0.0
O321 O 0.22337 0.86501 0.34398 0.0
Mn322 Mn 0.19304 0.8583 0.34273 0.0
O323 O 0.23949 0.88681 0.31475 0.0
Mn324 Mn 0.21716 0.88862 0.30376 0.0
O325 O 0.16245 0.85109 0.34196 0.0
O326 O 0.1845 0.83061 0.35752 0.0
Mn327 Mn 0.17212 0.83006 0.38311 0.0
O328 O 0.19701 0.87387 0.37439 0.0
O329 O 0.14933 0.83167 0.37368 0.0
O330 O 0.18897 0.84327 0.31062 0.0
O331 O 0.2 0.868 0.28379 0.0
O332 O 0.17101 0.80515 0.38209 0.0
O333 O 0.19102 0.85074 0.40154 0.0
C334 C 0.20619 0.90462 0.32457 0.0
C335 C 0.23933 0.87619 0.33191 0.0
C336 C 0.14751 0.84036 0.35565 0.0
C337 C 0.17988 0.81185 0.36254 0.0
C338 C 0.19773 0.86923 0.39542 0.0
C339 C 0.1908 0.84909 0.28956 0.0
O340 O 0.20206 0.88582 0.32789 0.0
O341 O 0.21701 0.9131 0.30651 0.0
O342 O 0.79287 0.6484 0.67707 0.0
Mn343 Mn 0.82332 0.67316 0.67838 0.0
O344 O 0.77615 0.65653 0.70329 0.0
Mn345 Mn 0.79808 0.68152 0.71288 0.0
O346 O 0.8536 0.69798 0.68047 0.0
O347 O 0.83322 0.65344 0.66835 0.0
Mn348 Mn 0.85066 0.66579 0.64595 0.0
O349 O 0.82023 0.68091 0.64412 0.0
O350 O 0.87256 0.68917 0.65854 0.0
O351 O 0.82662 0.66533 0.71221 0.0
O352 O 0.81445 0.68043 0.73555 0.0
O353 O 0.84997 0.64131 0.64897 0.0
O354 O 0.8369 0.66934 0.62229 0.0
C355 C 0.80912 0.70744 0.6914 0.0
C356 C 0.77644 0.64441 0.688 0.0
C357 C 0.8709 0.70125 0.67268 0.0
C358 C 0.83788 0.63895 0.66584 0.0
C359 C 0.82543 0.67717 0.62442 0.0
C360 C 0.82425 0.67095 0.73226 0.0
O361 O 0.81351 0.69281 0.68862 0.0
O362 O 0.79748 0.70535 0.70864 0.0
O363 O 0.36491 0.14916 0.67249 0.0
Mn364 Mn 0.3392 0.15295 0.6762 0.0
O365 O 0.35859 0.1209 0.69261 0.0
Mn366 Mn 0.33469 0.11701 0.70575 0.0
O367 O 0.31395 0.15748 0.68053 0.0
O368 O 0.3574 0.18337 0.66754 0.0
Mn369 Mn 0.34412 0.18695 0.6446 0.0
O370 O 0.33057 0.14267 0.64181 0.0
O371 O 0.32008 0.18361 0.65675 0.0
O372 O 0.34742 0.16229 0.71069 0.0
O373 O 0.338 0.13333 0.73076 0.0
O374 O 0.36686 0.21195 0.64785 0.0
O375 O 0.3425 0.17088 0.62019 0.0
C376 C 0.30716 0.10359 0.68657 0.0
C377 C 0.36981 0.13587 0.67949 0.0
C378 C 0.30954 0.17078 0.67229 0.0
C379 C 0.37043 0.20303 0.66482 0.0
C380 C 0.33451 0.15151 0.62214 0.0
C381 C 0.34491 0.15272 0.7298 0.0
O382 O 0.32138 0.12283 0.6849 0.0
O383 O 0.3107 0.09281 0.70131 0.0
O384 O 0.88755 0.19609 0.67876 0.0
Mn385 Mn 0.85722 0.18999 0.67312 0.0
O386 O 0.90753 0.22445 0.65799 0.0
Mn387 Mn 0.88662 0.22638 0.64402 0.0
O388 O 0.82758 0.18567 0.66644 0.0
O389 O 0.84794 0.15957 0.68144 0.0
Mn390 Mn 0.82343 0.15296 0.69208 0.0
O391 O 0.85521 0.19709 0.70763 0.0
O392 O 0.8066 0.15216 0.66906 0.0
O393 O 0.85803 0.1814 0.63903 0.0
O394 O 0.87561 0.21014 0.61839 0.0
O395 O 0.82381 0.12965 0.69669 0.0
O396 O 0.82598 0.16874 0.7175 0.0
C397 C 0.87185 0.23928 0.66233 0.0
C398 C 0.9053 0.21036 0.67185 0.0
C399 C 0.81011 0.16961 0.66238 0.0
C400 C 0.84154 0.14024 0.68699 0.0
C401 C 0.84098 0.1866 0.72222 0.0
C402 C 0.86462 0.19067 0.61987 0.0
O403 O 0.86745 0.22015 0.66487 0.0
O404 O 0.88566 0.25 0.64723 0.0
H405 H 0.27304 0.80059 0.0152 0.0
H406 H 0.30805 0.82664 0.00418 0.0
H407 H 0.29244 0.8746 0.01211 0.0
H408 H 0.2576 0.84869 0.02289 0.0
H409 H 0.31837 0.88327 0.97701 0.0
H410 H 0.31344 0.86282 0.05556 0.0
H411 H 0.30523 0.83833 0.08737 0.0
H412 H 0.34806 0.82127 0.06149 0.0
H413 H 0.35626 0.84544 0.02926 0.0
H414 H 0.40343 0.97193 0.02298 0.0
H415 H 0.3711 0.94011 0.016 0.0
H416 H 0.404 0.90897 0.99657 0.0
H417 H 0.43677 0.94114 0.0033 0.0
H418 H 0.37177 0.88839 0.03113 0.0
H419 H 0.3807 0.91716 0.95583 0.0
H420 H 0.38862 0.94517 0.9284 0.0
H421 H 0.33762 0.9502 0.953 0.0
H422 H 0.32957 0.92243 0.98082 0.0
C423 C 0.27698 0.81662 0.0139 0.0
C424 C 0.26274 0.82271 0.02003 0.0
C425 C 0.29698 0.8315 0.00777 0.0
C426 C 0.30295 0.85261 0.00765 0.0
C427 C 0.28823 0.85844 0.0121 0.0
C428 C 0.26836 0.84365 0.01833 0.0
C429 C 0.32481 0.86889 0.00528 0.0
C430 C 0.33007 0.88431 0.98874 0.0
C431 C 0.34014 0.87024 0.02053 0.0
C432 C 0.33522 0.85567 0.03981 0.0
C433 C 0.32095 0.85368 0.05652 0.0
C434 C 0.31632 0.83989 0.07464 0.0
C435 C 0.32606 0.82819 0.0764 0.0
C436 C 0.34048 0.83029 0.06006 0.0
C437 C 0.34511 0.84402 0.04185 0.0
C438 C 0.40387 0.95839 0.01702 0.0
C439 C 0.42267 0.95903 0.01373 0.0
C440 C 0.38535 0.94023 0.01295 0.0
C441 C 0.38517 0.92224 0.00566 0.0
C442 C 0.40387 0.92276 0.0021 0.0
C443 C 0.42253 0.94113 0.00584 0.0
C444 C 0.36524 0.90281 0.00301 0.0
C445 C 0.36027 0.88692 0.01882 0.0
C446 C 0.35005 0.90133 0.98752 0.0
C447 C 0.35458 0.91774 0.97046 0.0
C448 C 0.37123 0.9243 0.95546 0.0
C449 C 0.37574 0.94014 0.93984 0.0
C450 C 0.36364 0.94947 0.93897 0.0
C451 C 0.34697 0.94295 0.95368 0.0
C452 C 0.3424 0.92713 0.96935 0.0
H453 H 0.36718 0.96175 0.92688 0.0
H454 H 0.32248 0.81754 0.09046 0.0
H455 H 0.16301 0.41244 0.04261 0.0
H456 H 0.13731 0.42072 0.0308 0.0
H457 H 0.18167 0.46989 0.98834 0.0
H458 H 0.20847 0.46371 0.00313 0.0
H459 H 0.16427 0.48462 0.00937 0.0
H460 H 0.13356 0.4195 0.96869 0.0
H461 H 0.12055 0.38207 0.96425 0.0
H462 H 0.07686 0.36927 0.01768 0.0
H463 H 0.08971 0.40655 0.02262 0.0
H464 H 0.06476 0.48517 0.98189 0.0
H465 H 0.09504 0.48152 0.97409 0.0
H466 H 0.0947 0.46294 0.04393 0.0
H467 H 0.0653 0.46692 0.052 0.0
H468 H 0.0904 0.4347 0.99736 0.0
H469 H 0.12903 0.49766 0.04557 0.0
H470 H 0.14684 0.53465 0.05607 0.0
H471 H 0.1766 0.55019 0.9907 0.0
H472 H 0.15864 0.51327 0.97969 0.0
C473 C 0.16753 0.42524 0.03097 0.0
C474 C 0.18819 0.43792 0.02467 0.0
C475 C 0.15246 0.42956 0.02354 0.0
C476 C 0.1572 0.44581 0.00827 0.0
C477 C 0.17747 0.4573 0.00022 0.0
C478 C 0.19283 0.45358 0.00852 0.0
C479 C 0.14185 0.45251 0.00337 0.0
C480 C 0.14824 0.47362 0.00592 0.0
C481 C 0.12069 0.43835 0.99942 0.0
C482 C 0.1126 0.41586 0.99597 0.0
C483 C 0.12118 0.4087 0.97949 0.0
C484 C 0.11384 0.3875 0.97691 0.0
C485 C 0.09789 0.3733 0.99067 0.0
C486 C 0.08918 0.38026 0.00699 0.0
C487 C 0.09644 0.40142 0.00963 0.0
C488 C 0.07151 0.48086 0.99567 0.0
C489 C 0.06243 0.47613 0.01748 0.0
C490 C 0.08875 0.47874 0.9912 0.0
C491 C 0.0971 0.47205 0.0085 0.0
C492 C 0.08859 0.46827 0.03041 0.0
C493 C 0.07165 0.47047 0.0349 0.0
C494 C 0.11304 0.46647 0.00375 0.0
C495 C 0.10665 0.44559 -0.0004 0.0
C496 C 0.13414 0.48069 0.00645 0.0
C497 C 0.14214 0.5028 0.01161 0.0
C498 C 0.13883 0.50901 0.03316 0.0
C499 C 0.14914 0.52994 0.0393 0.0
C500 C 0.16294 0.54472 0.02411 0.0
C501 C 0.16594 0.53871 0.00246 0.0
C502 C 0.15563 0.51781 0.99622 0.0
H503 H 0.17149 0.56083 0.02918 0.0
H504 H 0.09228 0.35691 0.98869 0.0
H505 H 0.59831 0.75448 0.04483 0.0
H506 H 0.58895 0.71884 0.03875 0.0
H507 H 0.53431 0.70794 0.00233 0.0
H508 H 0.54239 0.74331 0.01124 0.0
H509 H 0.5232 0.67875 0.02849 0.0
H510 H 0.5803 0.70753 0.97748 0.0
H511 H 0.61574 0.73064 0.96462 0.0
H512 H 0.63865 0.70784 0.0178 0.0
H513 H 0.60338 0.68476 0.03114 0.0
H514 H 0.51024 0.58298 0.98251 0.0
H515 H 0.51222 0.6156 0.99314 0.0
H516 H 0.55589 0.62474 0.0464 0.0
H517 H 0.55366 0.5919 0.03587 0.0
H518 H 0.57161 0.65387 0.01114 0.0
H519 H 0.51261 0.6241 0.06037 0.0
H520 H 0.47649 0.59973 0.06977 0.0
H521 H 0.45666 0.62352 0.01451 0.0
H522 H 0.49267 0.64785 0.00459 0.0
C523 C 0.58426 0.74455 0.03549 0.0
C524 C 0.57077 0.75165 0.02921 0.0
C525 C 0.5791 0.7241 0.03155 0.0
C526 C 0.56091 0.71041 0.01987 0.0
C527 C 0.54834 0.71803 0.01161 0.0
C528 C 0.55312 0.7384 0.01639 0.0
C529 C 0.55415 0.68789 0.01842 0.0
C530 C 0.53379 0.6734 0.0242 0.0
C531 C 0.56792 0.68062 0.01344 0.0
C532 C 0.58917 0.6945 0.00539 0.0
C533 C 0.5929 0.70753 0.98651 0.0
C534 C 0.61296 0.72061 0.97913 0.0
C535 C 0.62943 0.72074 0.99041 0.0
C536 C 0.62588 0.70774 0.00907 0.0
C537 C 0.60585 0.69462 0.01653 0.0
C538 C 0.51907 0.5912 0.99757 0.0
C539 C 0.53167 0.5849 0.0085 0.0
C540 C 0.52045 0.61003 0.00344 0.0
C541 C 0.53448 0.62277 0.02031 0.0
C542 C 0.54503 0.61517 0.03325 0.0
C543 C 0.54346 0.59621 0.02752 0.0
C544 C 0.5409 0.64509 0.0213 0.0
C545 C 0.56116 0.65942 0.01533 0.0
C546 C 0.52697 0.65214 0.02552 0.0
C547 C 0.50533 0.63769 0.03164 0.0
C548 C 0.50055 0.62404 0.05013 0.0
C549 C 0.48009 0.61025 0.05557 0.0
C550 C 0.46429 0.61005 0.04272 0.0
C551 C 0.46891 0.62369 0.02444 0.0
C552 C 0.48934 0.6375 0.01893 0.0
H553 H 0.44846 0.59935 0.04694 0.0
H554 H 0.64495 0.73089 0.98467 0.0
H555 H 0.84748 0.25476 0.01488 0.0
H556 H 0.87299 0.29149 0.0204 0.0
H557 H 0.83215 0.30855 0.98772 0.0
H558 H 0.80643 0.27183 0.9828 0.0
H559 H 0.87335 0.32494 0.96741 0.0
H560 H 0.8404 0.32064 0.03933 0.0
H561 H 0.82591 0.30471 0.07658 0.0
H562 H 0.88476 0.3148 0.09847 0.0
H563 H 0.89954 0.33051 0.06119 0.0
H564 H 0.94648 0.43571 0.01088 0.0
H565 H 0.91378 0.40417 0.00103 0.0
H566 H 0.94351 0.3678 0.00681 0.0
H567 H 0.97585 0.39884 0.0157 0.0
H568 H 0.90416 0.36384 0.0395 0.0
H569 H 0.93346 0.35703 0.96664 0.0
H570 H 0.94946 0.37008 0.92908 0.0
H571 H 0.89909 0.37839 0.90911 0.0
H572 H 0.88304 0.36581 0.94688 0.0
C573 C 0.84366 0.26639 0.00988 0.0
C574 C 0.82491 0.26061 0.99891 0.0
C575 C 0.85826 0.28731 0.01278 0.0
C576 C 0.85444 0.30267 0.00434 0.0
C577 C 0.83533 0.2969 0.99436 0.0
C578 C 0.82058 0.27599 0.99186 0.0
C579 C 0.87108 0.32456 0.00423 0.0
C580 C 0.87979 0.33364 0.98315 0.0
C581 C 0.87976 0.33565 0.02477 0.0
C582 C 0.87105 0.32667 0.04742 0.0
C583 C 0.85023 0.31936 0.05204 0.0
C584 C 0.84196 0.31038 0.07317 0.0
C585 C 0.8544 0.30872 0.08987 0.0
C586 C 0.87514 0.3161 0.08551 0.0
C587 C 0.88349 0.32508 0.0644 0.0
C588 C 0.94617 0.42113 0.00882 0.0
C589 C 0.96365 0.41967 0.01392 0.0
C590 C 0.9275 0.40312 0.00347 0.0
C591 C 0.92633 0.38371 0.00318 0.0
C592 C 0.94415 0.38262 0.00662 0.0
C593 C 0.96263 0.40042 0.01166 0.0
C594 C 0.90641 0.36417 0.00272 0.0
C595 C 0.89726 0.3554 0.02374 0.0
C596 C 0.89761 0.35314 0.9822 0.0
C597 C 0.90735 0.36103 0.95974 0.0
C598 C 0.92602 0.36205 0.95442 0.0
C599 C 0.93504 0.36925 0.93306 0.0
C600 C 0.92537 0.37521 0.91677 0.0
C601 C 0.90663 0.37391 0.9218 0.0
C602 C 0.89759 0.36679 0.9432 0.0
H603 H 0.93235 0.38073 0.90021 0.0
H604 H 0.84796 0.30173 0.10621 0.0
H605 H 0.7618 0.6045 0.99798 0.0
H606 H 0.72697 0.59567 0.0087 0.0
H607 H 0.70986 0.53137 0.01339 0.0
H608 H 0.74483 0.54021 0.00277 0.0
H609 H 0.68433 0.53856 0.98469 0.0
H610 H 0.71093 0.55589 0.06097 0.0
H611 H 0.73512 0.57723 0.09148 0.0
H612 H 0.72219 0.62605 0.07775 0.0
H613 H 0.69814 0.60513 0.04692 0.0
H614 H 0.58251 0.51599 0.0122 0.0
H615 H 0.61554 0.51709 0.01698 0.0
H616 H 0.64721 0.5837 0.01374 0.0
H617 H 0.61454 0.58269 0.00878 0.0
H618 H 0.6638 0.57013 0.04653 0.0
H619 H 0.64327 0.55722 0.96734 0.0
H620 H 0.62102 0.53871 0.93428 0.0
H621 H 0.62438 0.48452 0.95101 0.0
H622 H 0.64641 0.50264 0.98443 0.0
C623 C 0.7507 0.58855 0.00178 0.0
C624 C 0.75596 0.57303 -0.00041 0.0
C625 C 0.73085 0.58352 0.00798 0.0
C626 C 0.71584 0.56286 0.01192 0.0
C627 C 0.72124 0.54741 0.01051 0.0
C628 C 0.74122 0.55248 0.0046 0.0
C629 C 0.69417 0.55737 0.01527 0.0
C630 C 0.67967 0.54498 0.99858 0.0
C631 C 0.68831 0.56629 0.03299 0.0
C632 C 0.70281 0.57896 0.05151 0.0
C633 C 0.71336 0.57124 0.06432 0.0
C634 C 0.72703 0.58325 0.0817 0.0
C635 C 0.73021 0.60299 0.08653 0.0
C636 C 0.71971 0.61075 0.074 0.0
C637 C 0.70604 0.59881 0.05658 0.0
C638 C 0.59652 0.53084 0.01299 0.0
C639 C 0.59598 0.54925 0.01002 0.0
C640 C 0.61535 0.53145 0.01557 0.0
C641 C 0.63384 0.55048 0.01554 0.0
C642 C 0.63316 0.56886 0.01383 0.0
C643 C 0.61448 0.56825 0.01092 0.0
C644 C 0.65405 0.55151 0.01582 0.0
C645 C 0.6683 0.5632 0.03304 0.0
C646 C 0.65982 0.54224 0.99837 0.0
C647 C 0.64617 0.53116 0.97863 0.0
C648 C 0.63902 0.54126 0.96417 0.0
C649 C 0.62651 0.53087 0.94531 0.0
C650 C 0.6212 0.51042 0.94061 0.0
C651 C 0.62843 0.50034 0.95473 0.0
C652 C 0.64092 0.51065 0.97364 0.0
H653 H 0.61156 0.50242 0.92597 0.0
H654 H 0.7408 0.61226 0.1 0.0
H655 H 0.47251 0.20738 0.00467 0.0
H656 H 0.48246 0.1812 0.01116 0.0
H657 H 0.42214 0.1334 0.98986 0.0
H658 H 0.41182 0.15931 0.98454 0.0
H659 H 0.43512 0.11902 0.02207 0.0
H660 H 0.46363 0.15581 0.95238 0.0
H661 H 0.48357 0.18701 0.92906 0.0
H662 H 0.53808 0.20152 0.96726 0.0
H663 H 0.51836 0.17054 0.99106 0.0
H664 H 0.45423 0.04089 0.99024 0.0
H665 H 0.45079 0.07085 0.98049 0.0
H666 H 0.50468 0.1101 0.02083 0.0
H667 H 0.5078 0.07998 0.03106 0.0
H668 H 0.49645 0.12945 0.97937 0.0
H669 H 0.46559 0.09064 0.04887 0.0
H670 H 0.44402 0.05876 0.07054 0.0
H671 H 0.39171 0.04698 0.02959 0.0
H672 H 0.41309 0.07862 0.00738 0.0
C673 C 0.46119 0.19124 0.00201 0.0
C674 C 0.44147 0.18547 0.9937 0.0
C675 C 0.46698 0.17629 0.00543 0.0
C676 C 0.45326 0.15536 0.00031 0.0
C677 C 0.43311 0.14944 0.99366 0.0
C678 C 0.42727 0.16431 0.99047 0.0
C679 C 0.46006 0.13973 0.00048 0.0
C680 C 0.44843 0.12129 0.01257 0.0
C681 C 0.47753 0.14263 0.98821 0.0
C682 C 0.4895 0.16098 0.97362 0.0
C683 C 0.47986 0.16571 0.95587 0.0
C684 C 0.49111 0.18335 0.94257 0.0
C685 C 0.51207 0.19627 0.94671 0.0
C686 C 0.52184 0.19152 0.9641 0.0
C687 C 0.51063 0.17391 0.97749 0.0
C688 C 0.46613 0.05612 0.99574 0.0
C689 C 0.48143 0.0582 0.01116 0.0
C690 C 0.46397 0.07319 0.99046 0.0
C691 C 0.47727 0.09259 0.0003 0.0
C692 C 0.49426 0.09524 0.01308 0.0
C693 C 0.49622 0.07807 0.01865 0.0
C694 C 0.47139 0.10883 0.00078 0.0
C695 C 0.48319 0.12731 0.98888 0.0
C696 C 0.45386 0.10585 0.0129 0.0
C697 C 0.44101 0.08683 0.02625 0.0
C698 C 0.44955 0.08112 0.0443 0.0
C699 C 0.43735 0.06312 0.05672 0.0
C700 C 0.41653 0.0508 0.05138 0.0
C701 C 0.40785 0.0565 0.03365 0.0
C702 C 0.42001 0.07446 0.02115 0.0
H703 H 0.4071 0.03688 0.06102 0.0
H704 H 0.52076 0.20993 0.93641 0.0
H705 H 0.71018 0.15061 0.9551 0.0
H706 H 0.67482 0.13073 0.96832 0.0
H707 H 0.69393 0.15674 0.03608 0.0
H708 H 0.72963 0.17699 0.02281 0.0
H709 H 0.66366 0.11058 0.03238 0.0
H710 H 0.67244 0.17616 0.01038 0.0
H711 H 0.68463 0.20651 0.98531 0.0
H712 H 0.6466 0.16755 0.93044 0.0
H713 H 0.63444 0.13691 0.95507 0.0
H714 H 0.55272 0.05488 0.04204 0.0
H715 H 0.58781 0.08428 0.0478 0.0
H716 H 0.59762 0.08689 0.97483 0.0
H717 H 0.56312 0.058 0.96911 0.0
H718 H 0.61375 0.12507 0.99282 0.0
H719 H 0.61224 0.06022 0.01041 0.0
H720 H 0.60098 0.02848 0.03293 0.0
H721 H 0.6255 0.06492 0.09418 0.0
H722 H 0.63665 0.09687 0.07202 0.0
C723 C 0.7069 0.15205 0.97285 0.0
C724 C 0.7226 0.16549 0.98784 0.0
C725 C 0.68671 0.14068 0.98038 0.0
C726 C 0.68176 0.1424 0.00311 0.0
C727 C 0.69747 0.15525 0.01845 0.0
C728 C 0.71779 0.16685 0.01083 0.0
C729 C 0.65991 0.13132 0.00999 0.0
C730 C 0.65273 0.11405 0.02431 0.0
C731 C 0.64569 0.13579 0.99931 0.0
C732 C 0.65258 0.15423 0.98457 0.0
C733 C 0.66675 0.17405 0.99294 0.0
C734 C 0.67365 0.19131 0.9788 0.0
C735 C 0.6664 0.18896 0.95629 0.0
C736 C 0.65219 0.16935 0.94789 0.0
C737 C 0.64526 0.15204 0.96195 0.0
C738 C 0.56232 0.06208 0.02729 0.0
C739 C 0.55532 0.05408 0.00515 0.0
C740 C 0.58234 0.07874 0.03059 0.0
C741 C 0.59541 0.08767 0.01174 0.0
C742 C 0.58789 0.08031 0.98963 0.0
C743 C 0.56816 0.06369 0.98639 0.0
C744 C 0.61736 0.10376 0.01438 0.0
C745 C 0.62463 0.12201 0.00172 0.0
C746 C 0.63158 0.10004 0.02642 0.0
C747 C 0.625 0.08088 0.03965 0.0
C748 C 0.61507 0.06144 0.02871 0.0
C749 C 0.60874 0.04342 0.0414 0.0
C750 C 0.61245 0.04468 0.06498 0.0
C751 C 0.62258 0.06396 0.07592 0.0
C752 C 0.6289 0.08203 0.06332 0.0
H753 H 0.60754 0.03071 0.07478 0.0
H754 H 0.67178 0.20234 0.94536 0.0
H755 H 0.83737 0.53144 0.96328 0.0
H756 H 0.86074 0.51994 0.97708 0.0
H757 H 0.87268 0.55684 0.03829 0.0
H758 H 0.84877 0.56808 0.02474 0.0
H759 H 0.90902 0.5606 0.01137 0.0
H760 H 0.84667 0.5108 0.04811 0.0
H761 H 0.80961 0.4856 0.0487 0.0
H762 H 0.81774 0.4485 0.99806 0.0
H763 H 0.85484 0.47364 0.99694 0.0
H764 H 0.97265 0.52428 0.04984 0.0
H765 H 0.94403 0.53091 0.05308 0.0
H766 H 0.91133 0.4855 0.00011 0.0
H767 H 0.93972 0.47842 0.99751 0.0
H768 H 0.88467 0.48688 0.02879 0.0
H769 H 0.94362 0.53619 0.98708 0.0
H770 H 0.98019 0.56147 0.98115 0.0
H771 H 0.97835 0.59962 0.03525 0.0
H772 H 0.94181 0.57437 0.04173 0.0
C773 C 0.84486 0.53698 0.97976 0.0
C774 C 0.84118 0.55049 0.99302 0.0
C775 C 0.85817 0.53041 0.98761 0.0
C776 C 0.8683 0.53746 0.00873 0.0
C777 C 0.8649 0.55118 0.02198 0.0
C778 C 0.85122 0.5575 0.01428 0.0
C779 C 0.88265 0.53054 0.01646 0.0
C780 C 0.90375 0.54463 0.01583 0.0
C781 C 0.87569 0.50953 0.02138 0.0
C782 C 0.8535 0.49415 0.02237 0.0
C783 C 0.84053 0.49732 0.03701 0.0
C784 C 0.81953 0.48304 0.03746 0.0
C785 C 0.81132 0.46547 0.02341 0.0
C786 C 0.82412 0.46211 0.00894 0.0
C787 C 0.84515 0.47635 0.00843 0.0
C788 C 0.95885 0.51495 0.03983 0.0
C789 C 0.95815 0.50061 0.02371 0.0
C790 C 0.94264 0.51895 0.04141 0.0
C791 C 0.92576 0.5091 0.02641 0.0
C792 C 0.92421 0.49334 0.01183 0.0
C793 C 0.94033 0.48913 0.01048 0.0
C794 C 0.91118 0.51696 0.02379 0.0
C795 C 0.89003 0.503 0.02504 0.0
C796 C 0.91811 0.53806 0.01894 0.0
C797 C 0.94007 0.55326 0.0151 0.0
C798 C 0.95106 0.54988 0.99784 0.0
C799 C 0.97178 0.56421 0.99436 0.0
C800 C 0.98161 0.5821 0.00787 0.0
C801 C 0.97073 0.58572 0.02485 0.0
C802 C 0.95002 0.57141 0.02844 0.0
H803 H 0.99764 0.59319 0.00514 0.0
H804 H 0.79505 0.45445 0.02375 0.0
H805 H 0.49976 0.30661 0.97731 0.0
H806 H 0.50757 0.34252 0.98015 0.0
H807 H 0.44926 0.32246 0.01248 0.0
H808 H 0.44144 0.28633 0.0099 0.0
H809 H 0.45808 0.35064 0.97562 0.0
H810 H 0.48926 0.34573 0.04489 0.0
H811 H 0.51101 0.33722 0.06892 0.0
H812 H 0.56404 0.3794 0.03055 0.0
H813 H 0.54255 0.38798 0.00609 0.0
H814 H 0.47672 0.44878 0.01195 0.0
H815 H 0.468 0.41384 0.00262 0.0
H816 H 0.53195 0.43439 0.99058 0.0
H817 H 0.54085 0.46944 0.00294 0.0
H818 H 0.51942 0.40488 0.01663 0.0
H819 H 0.48689 0.41018 0.947 0.0
H820 H 0.46407 0.41856 0.92474 0.0
H821 H 0.41259 0.37554 0.96459 0.0
H822 H 0.4351 0.36703 0.98718 0.0
C823 C 0.48871 0.30988 0.98527 0.0
C824 C 0.47008 0.29374 0.99348 0.0
C825 C 0.49318 0.33038 0.98687 0.0
C826 C 0.47903 0.33515 0.99657 0.0
C827 C 0.46038 0.31907 0.00493 0.0
C828 C 0.45599 0.29849 0.00357 0.0
C829 C 0.48373 0.35697 0.99733 0.0
C830 C 0.47138 0.36256 0.98472 0.0
C831 C 0.50129 0.37248 0.00885 0.0
C832 C 0.51426 0.36735 0.02351 0.0
C833 C 0.50553 0.35306 0.04144 0.0
C834 C 0.51782 0.34825 0.05517 0.0
C835 C 0.53889 0.35772 0.05122 0.0
C836 C 0.54772 0.37206 0.03357 0.0
C837 C 0.53549 0.37692 0.01979 0.0
C838 C 0.48886 0.44604 0.00625 0.0
C839 C 0.50943 0.46181 0.00793 0.0
C840 C 0.48382 0.42588 0.00077 0.0
C841 C 0.49918 0.42113 0.99548 0.0
C842 C 0.51972 0.43749 0.99466 0.0
C843 C 0.52486 0.45766 0.0012 0.0
C844 C 0.49412 0.39903 0.99426 0.0
C845 C 0.5063 0.39323 0.00706 0.0
C846 C 0.47634 0.38333 0.98289 0.0
C847 C 0.46271 0.38801 0.9688 0.0
C848 C 0.47071 0.40252 0.95101 0.0
C849 C 0.45782 0.4073 0.93834 0.0
C850 C 0.4369 0.3976 0.94325 0.0
C851 C 0.42879 0.38302 0.96077 0.0
C852 C 0.44159 0.37817 0.97346 0.0
H853 H 0.42697 0.40137 0.93347 0.0
H854 H 0.54838 0.35398 0.06187 0.0
H855 H 0.17714 0.71993 0.99313 0.0
H856 H 0.15727 0.68194 0.9889 0.0
H857 H 0.13262 0.67703 0.05657 0.0
H858 H 0.15151 0.71482 0.06036 0.0
H859 H 0.15217 0.64894 0.04009 0.0
H860 H 0.10127 0.67047 0.0276 0.0
H861 H 0.08763 0.69057 0.00863 0.0
H862 H 0.0905 0.66543 0.94339 0.0
H863 H 0.10462 0.64552 0.96197 0.0
H864 H 0.05046 0.55155 0.04177 0.0
H865 H 0.08034 0.58587 0.04885 0.0
H866 H 0.10326 0.5846 0.98174 0.0
H867 H 0.07394 0.55009 0.97507 0.0
H868 H 0.08655 0.61567 0.99648 0.0
H869 H 0.1348 0.5929 0.00719 0.0
H870 H 0.14715 0.57126 0.02431 0.0
H871 H 0.15025 0.59819 0.09043 0.0
H872 H 0.13687 0.61949 0.07363 0.0
C873 C 0.16751 0.71066 0.00705 0.0
C874 C 0.16575 0.72015 0.02706 0.0
C875 C 0.15621 0.68907 0.00464 0.0
C876 C 0.14354 0.67679 0.02246 0.0
C877 C 0.14231 0.68628 0.04266 0.0
C878 C 0.15303 0.70779 0.04477 0.0
C879 C 0.13107 0.65405 0.01997 0.0
C880 C 0.13777 0.64164 0.03067 0.0
C881 C 0.1125 0.6446 0.00734 0.0
C882 C 0.10442 0.65687 0.99611 0.0
C883 C 0.09937 0.66953 0.00916 0.0
C884 C 0.09146 0.68081 0.9985 0.0
C885 C 0.08831 0.67937 0.9748 0.0
C886 C 0.09304 0.66661 0.96173 0.0
C887 C 0.10103 0.65535 0.97232 0.0
C888 C 0.06272 0.55787 0.02934 0.0
C889 C 0.06008 0.54805 0.00803 0.0
C890 C 0.07958 0.57768 0.03319 0.0
C891 C 0.09386 0.58781 0.0157 0.0
C892 C 0.09247 0.577 0.99549 0.0
C893 C 0.07587 0.55712 0.99185 0.0
C894 C 0.10758 0.61053 0.01668 0.0
C895 C 0.10102 0.62296 0.00579 0.0
C896 C 0.12631 0.61996 0.02893 0.0
C897 C 0.13448 0.60747 0.03924 0.0
C898 C 0.13778 0.59397 0.02545 0.0
C899 C 0.14507 0.58181 0.0351 0.0
C900 C 0.14957 0.58331 0.05851 0.0
C901 C 0.14672 0.597 0.0723 0.0
C902 C 0.1392 0.60908 0.06273 0.0
H903 H 0.1553 0.5739 0.06594 0.0
H904 H 0.08212 0.68807 0.96658 0.0
H905 H 0.29223 0.46917 0.00274 0.0
H906 H 0.3291 0.48616 0.9937 0.0
H907 H 0.33613 0.44616 0.04146 0.0
H908 H 0.29971 0.42926 0.05034 0.0
H909 H 0.36333 0.48753 0.04916 0.0
H910 H 0.33631 0.43895 0.98508 0.0
H911 H 0.31699 0.42415 0.94917 0.0
H912 H 0.35249 0.48264 0.91584 0.0
H913 H 0.37182 0.49788 0.95167 0.0
H914 H 0.44885 0.47907 0.0407 0.0
H915 H 0.41407 0.47232 0.03584 0.0
H916 H 0.43492 0.52284 0.98828 0.0
H917 H 0.47038 0.52961 0.99275 0.0
H918 H 0.3958 0.48586 0.97603 0.0
H919 H 0.42626 0.53258 0.03936 0.0
H920 H 0.44719 0.54523 0.07463 0.0
H921 H 0.40547 0.48906 0.10905 0.0
H922 H 0.38447 0.47593 0.0739 0.0
C923 C 0.30168 0.46396 0.01114 0.0
C924 C 0.29314 0.44793 0.02733 0.0
C925 C 0.32269 0.47361 0.00589 0.0
C926 C 0.33538 0.46743 0.01692 0.0
C927 C 0.32667 0.45121 0.03275 0.0
C928 C 0.30584 0.44155 0.03781 0.0
C929 C 0.35798 0.47839 0.01363 0.0
C930 C 0.37039 0.48726 0.0331 0.0
C931 C 0.36734 0.47873 0.99249 0.0
C932 C 0.35524 0.46967 0.97121 0.0
C933 C 0.33978 0.44875 0.97022 0.0
C934 C 0.32888 0.44026 0.94984 0.0
C935 C 0.33343 0.45247 0.93027 0.0
C936 C 0.34891 0.47321 0.93103 0.0
C937 C 0.35983 0.48179 0.95138 0.0
C938 C 0.44623 0.48886 0.02917 0.0
C939 C 0.46255 0.50519 0.01746 0.0
C940 C 0.42623 0.48487 0.02632 0.0
C941 C 0.42193 0.49728 0.01202 0.0
C942 C 0.43795 0.51313 0.9995 0.0
C943 C 0.45817 0.51705 0.00217 0.0
C944 C 0.40079 0.49405 0.01181 0.0
C945 C 0.38874 0.48674 0.99184 0.0
C946 C 0.39161 0.49508 0.03249 0.0
C947 C 0.40377 0.50328 0.05396 0.0
C948 C 0.42156 0.52292 0.05444 0.0
C949 C 0.43345 0.53016 0.07441 0.0
C950 C 0.42766 0.51795 0.09407 0.0
C951 C 0.40992 0.49851 0.09382 0.0
C952 C 0.39798 0.49119 0.07389 0.0
H953 H 0.43693 0.52356 0.10949 0.0
H954 H 0.32503 0.44585 0.9145 0.0
H955 H 0.58728 0.87695 0.04301 0.0
H956 H 0.56823 0.89549 0.04056 0.0
H957 H 0.51743 0.84219 0.00866 0.0
H958 H 0.53651 0.82344 0.01112 0.0
H959 H 0.528 0.88148 0.98804 0.0
H960 H 0.51245 0.8497 0.06266 0.0
H961 H 0.52186 0.84119 0.09991 0.0
H962 H 0.55818 0.90584 0.11638 0.0
H963 H 0.54938 0.91473 0.07897 0.0
H964 H 0.47267 0.9321 0.99114 0.0
H965 H 0.47757 0.90321 0.00176 0.0
H966 H 0.52824 0.94403 0.04558 0.0
H967 H 0.52277 0.97264 0.03555 0.0
H968 H 0.51295 0.90618 0.06049 0.0
H969 H 0.53428 0.93921 0.9872 0.0
H970 H 0.52965 0.95092 0.94934 0.0
H971 H 0.48792 0.88805 0.9294 0.0
H972 H 0.49211 0.87599 0.9673 0.0
C973 C 0.5721 0.86922 0.03533 0.0
C974 C 0.56334 0.84873 0.02741 0.0
C975 C 0.56121 0.87979 0.03402 0.0
C976 C 0.5413 0.87011 0.02475 0.0
C977 C 0.53274 0.84989 0.016 0.0
C978 C 0.54363 0.8392 0.01744 0.0
C979 C 0.52946 0.88115 0.02481 0.0
C980 C 0.52424 0.88647 0.00386 0.0
C981 C 0.52516 0.8882 0.04546 0.0
C982 C 0.53021 0.88287 0.06807 0.0
C983 C 0.5225 0.86209 0.0742 0.0
C984 C 0.52776 0.8572 0.09532 0.0
C985 C 0.5406 0.87296 0.11052 0.0
C986 C 0.54822 0.89364 0.10461 0.0
C987 C 0.5431 0.89861 0.08346 0.0
C988 C 0.48389 0.93452 0.00427 0.0
C989 C 0.4973 0.95454 0.01261 0.0
C990 C 0.487 0.9181 0.00997 0.0
C991 C 0.50385 0.92163 0.02369 0.0
C992 C 0.51531 0.94093 0.03469 0.0
C993 C 0.51199 0.95727 0.02922 0.0
C994 C 0.51156 0.90671 0.02368 0.0
C995 C 0.51619 0.90079 0.04464 0.0
C996 C 0.51581 0.89953 0.00298 0.0
C997 C 0.51328 0.90673 0.98018 0.0
C998 C 0.524 0.9279 0.9748 0.0
C999 C 0.52147 0.9346 0.95334 0.0
C1000 C 0.50844 0.92025 0.93701 0.0
C1001 C 0.49796 0.89916 0.94209 0.0
C1002 C 0.5004 0.89238 0.96356 0.0
H1003 H 0.50651 0.92546 0.9204 0.0
H1004 H 0.54464 0.86914 0.12687 0.0
H1005 H 0.93848 0.13392 0.34678 0.0
H1006 H 0.97373 0.16026 0.3372 0.0
H1007 H 0.9579 0.20798 0.34594 0.0
H1008 H 0.92273 0.18174 0.3553 0.0
H1009 H 0.98436 0.2171 0.31094 0.0
H1010 H 0.97866 0.19583 0.38916 0.0
H1011 H 0.97023 0.17123 0.42088 0.0
H1012 H 0.01321 0.15423 0.39532 0.0
H1013 H 0.02163 0.17851 0.36317 0.0
H1014 H 0.07069 0.30507 0.35583 0.0
H1015 H 0.038 0.27365 0.34912 0.0
H1016 H 0.06965 0.24094 0.33095 0.0
H1017 H 0.10284 0.27274 0.33749 0.0
H1018 H 0.03734 0.22112 0.36497 0.0
H1019 H 0.04673 0.24978 0.28969 0.0
H1020 H 0.05514 0.27772 0.26199 0.0
H1021 H 0.00486 0.28413 0.28635 0.0
H1022 H 0.99633 0.25644 0.31444 0.0
C1023 C 0.94241 0.14998 0.34599 0.0
C1024 C 0.92793 0.15582 0.35189 0.0
C1025 C 0.96258 0.16502 0.34071 0.0
C1026 C 0.96853 0.18612 0.34118 0.0
C1027 C 0.95369 0.19182 0.34551 0.0
C1028 C 0.93362 0.17683 0.35093 0.0
C1029 C 0.99045 0.20242 0.33917 0.0
C1030 C 0.99596 0.21793 0.32269 0.0
C1031 C 0.00566 0.20345 0.35439 0.0
C1032 C 0.00053 0.18873 0.37356 0.0
C1033 C 0.98614 0.18667 0.39015 0.0
C1034 C 0.9814 0.17282 0.40823 0.0
C1035 C 0.99112 0.16111 0.41006 0.0
C1036 C 0.00564 0.16326 0.39383 0.0
C1037 C 0.01039 0.17705 0.37567 0.0
C1038 C 0.07079 0.29127 0.35021 0.0
C1039 C 0.08937 0.29138 0.34724 0.0
C1040 C 0.05205 0.27334 0.34628 0.0
C1041 C 0.05139 0.25501 0.33941 0.0
C1042 C 0.06987 0.25499 0.33616 0.0
C1043 C 0.08877 0.27315 0.33978 0.0
C1044 C 0.03119 0.23584 0.33687 0.0
C1045 C 0.02592 0.2199 0.35269 0.0
C1046 C 0.0161 0.23468 0.32142 0.0
C1047 C 0.02094 0.25107 0.30424 0.0
C1048 C 0.03753 0.25722 0.28922 0.0
C1049 C 0.04231 0.273 0.27344 0.0
C1050 C 0.03055 0.2827 0.27242 0.0
C1051 C 0.01395 0.27659 0.28714 0.0
C1052 C 0.00911 0.26082 0.30297 0.0
H1053 H 0.0343 0.29494 0.26021 0.0
H1054 H 0.98746 0.15042 0.4241 0.0
H1055 H 0.83112 0.7448 0.35888 0.0
H1056 H 0.80473 0.75305 0.3477 0.0
H1057 H 0.85096 0.81731 0.3408 0.0
H1058 H 0.8775 0.80903 0.35215 0.0
H1059 H 0.81985 0.81142 0.36961 0.0
H1060 H 0.82502 0.78985 0.29389 0.0
H1061 H 0.82654 0.76672 0.2647 0.0
H1062 H 0.76634 0.71862 0.28343 0.0
H1063 H 0.76456 0.74134 0.31297 0.0
H1064 H 0.73839 0.83147 0.3417 0.0
H1065 H 0.77012 0.83016 0.33646 0.0
H1066 H 0.73678 0.76437 0.3482 0.0
H1067 H 0.70531 0.76563 0.35385 0.0
H1068 H 0.76452 0.77604 0.31158 0.0
H1069 H 0.76128 0.79285 0.39034 0.0
H1070 H 0.75866 0.81291 0.42246 0.0
H1071 H 0.81401 0.86673 0.4009 0.0
H1072 H 0.81676 0.84704 0.36836 0.0
C1073 C 0.83567 0.76058 0.35437 0.0
C1074 C 0.85626 0.7763 0.35633 0.0
C1075 C 0.82063 0.76528 0.34792 0.0
C1076 C 0.8259 0.78579 0.34332 0.0
C1077 C 0.84661 0.80138 0.34419 0.0
C1078 C 0.86174 0.79664 0.35049 0.0
C1079 C 0.80948 0.79103 0.34024 0.0
C1080 C 0.80807 0.80418 0.35648 0.0
C1081 C 0.79376 0.78099 0.32362 0.0
C1082 C 0.79471 0.7673 0.30573 0.0
C1083 C 0.81215 0.7743 0.29189 0.0
C1084 C 0.81305 0.76126 0.27526 0.0
C1085 C 0.79656 0.74121 0.27223 0.0
C1086 C 0.77911 0.73416 0.28579 0.0
C1087 C 0.77813 0.74713 0.30246 0.0
C1088 C 0.73784 0.81673 0.34281 0.0
C1089 C 0.71947 0.79867 0.34828 0.0
C1090 C 0.75593 0.81601 0.33991 0.0
C1091 C 0.75573 0.79717 0.34201 0.0
C1092 C 0.73721 0.77903 0.34645 0.0
C1093 C 0.7193 0.7798 0.34979 0.0
C1094 C 0.77491 0.79629 0.34099 0.0
C1095 C 0.77669 0.78381 0.32419 0.0
C1096 C 0.79079 0.80662 0.35735 0.0
C1097 C 0.78902 0.81859 0.37667 0.0
C1098 C 0.77273 0.80904 0.39225 0.0
C1099 C 0.77126 0.82032 0.41057 0.0
C1100 C 0.7861 0.84111 0.41365 0.0
C1101 C 0.80247 0.85064 0.39843 0.0
C1102 C 0.80399 0.83944 0.38003 0.0
H1103 H 0.78495 0.84981 0.42788 0.0
H1104 H 0.79729 0.73114 0.25935 0.0
H1105 H 0.20065 0.06931 0.35835 0.0
H1106 H 0.1915 0.03306 0.35297 0.0
H1107 H 0.2554 0.05215 0.34406 0.0
H1108 H 0.26446 0.08827 0.34922 0.0
H1109 H 0.23234 0.01949 0.31786 0.0
H1110 H 0.23493 0.03902 0.39526 0.0
H1111 H 0.22711 0.05384 0.42889 0.0
H1112 H 0.16376 0.00645 0.42444 0.0
H1113 H 0.17113 0.99161 0.39041 0.0
H1114 H 0.23503 0.93236 0.35268 0.0
H1115 H 0.23718 0.96505 0.36337 0.0
H1116 H 0.1743 0.94082 0.34235 0.0
H1117 H 0.1723 0.90814 0.33103 0.0
H1118 H 0.19587 0.97537 0.38454 0.0
H1119 H 0.19862 0.95808 0.30252 0.0
H1120 H 0.21246 0.9455 0.2722 0.0
H1121 H 0.27377 0.99214 0.29059 0.0
H1122 H 0.26028 0.00466 0.32139 0.0
C1123 C 0.21257 0.06576 0.35421 0.0
C1124 C 0.23322 0.08147 0.35405 0.0
C1125 C 0.2074 0.04508 0.35149 0.0
C1126 C 0.22282 0.03989 0.34864 0.0
C1127 C 0.24326 0.05577 0.34633 0.0
C1128 C 0.24842 0.07639 0.34913 0.0
C1129 C 0.21802 0.01808 0.35016 0.0
C1130 C 0.22432 0.00988 0.33242 0.0
C1131 C 0.20803 0.00565 0.36946 0.0
C1132 C 0.20352 0.01435 0.39009 0.0
C1133 C 0.21929 0.03186 0.40131 0.0
C1134 C 0.21495 0.04026 0.42046 0.0
C1135 C 0.19494 0.03112 0.42876 0.0
C1136 C 0.17925 0.01354 0.41795 0.0
C1137 C 0.18349 0.00513 0.39871 0.0
C1138 C 0.22127 0.93354 0.35173 0.0
C1139 C 0.20344 0.91774 0.34125 0.0
C1140 C 0.22258 0.9523 0.35765 0.0
C1141 C 0.20598 0.95538 0.35337 0.0
C1142 C 0.18723 0.93865 0.34584 0.0
C1143 C 0.18602 0.91991 0.33959 0.0
C1144 C 0.20962 0.97675 0.3519 0.0
C1145 C 0.20345 0.98492 0.3698 0.0
C1146 C 0.22044 0.98949 0.33316 0.0
C1147 C 0.22846 0.98209 0.31445 0.0
C1148 C 0.21506 0.96548 0.30028 0.0
C1149 C 0.22284 0.95839 0.28298 0.0
C1150 C 0.24399 0.96797 0.27952 0.0
C1151 C 0.2574 0.98469 0.29333 0.0
C1152 C 0.24969 0.99177 0.31071 0.0
H1153 H 0.24998 0.96247 0.26611 0.0
H1154 H 0.1916 0.03763 0.44361 0.0
H1155 H 0.51995 0.58904 0.32062 0.0
H1156 H 0.54636 0.62504 0.32678 0.0
H1157 H 0.49955 0.6417 0.33548 0.0
H1158 H 0.47297 0.6056 0.32861 0.0
H1159 H 0.52689 0.66543 0.304 0.0
H1160 H 0.53108 0.64395 0.38047 0.0
H1161 H 0.53466 0.6223 0.40987 0.0
H1162 H 0.59369 0.63775 0.38332 0.0
H1163 H 0.59036 0.65929 0.35357 0.0
H1164 H 0.60029 0.76543 0.35846 0.0
H1165 H 0.57079 0.73243 0.34625 0.0
H1166 H 0.61149 0.71621 0.31218 0.0
H1167 H 0.64084 0.74946 0.32362 0.0
H1168 H 0.58706 0.6929 0.35625 0.0
H1169 H 0.58322 0.71244 0.27963 0.0
H1170 H 0.58016 0.73271 0.24821 0.0
H1171 H 0.52154 0.71996 0.27347 0.0
H1172 H 0.52445 0.69998 0.30539 0.0
C1173 C 0.51529 0.60033 0.32433 0.0
C1174 C 0.49443 0.59459 0.32397 0.0
C1175 C 0.5304 0.62089 0.32796 0.0
C1176 C 0.52496 0.63611 0.33158 0.0
C1177 C 0.50409 0.63021 0.33265 0.0
C1178 C 0.48892 0.60957 0.32897 0.0
C1179 C 0.54103 0.65831 0.33203 0.0
C1180 C 0.53983 0.67153 0.31577 0.0
C1181 C 0.55836 0.66607 0.34674 0.0
C1182 C 0.56039 0.65312 0.36466 0.0
C1183 C 0.54476 0.64261 0.38079 0.0
C1184 C 0.54676 0.63038 0.39754 0.0
C1185 C 0.56437 0.62862 0.39843 0.0
C1186 C 0.58005 0.63912 0.3826 0.0
C1187 C 0.57812 0.65136 0.36581 0.0
C1188 C 0.60275 0.75549 0.3469 0.0
C1189 C 0.62274 0.76004 0.34168 0.0
C1190 C 0.58593 0.73651 0.34023 0.0
C1191 C 0.58906 0.72187 0.32855 0.0
C1192 C 0.6088 0.72738 0.3211 0.0
C1193 C 0.62552 0.74651 0.32734 0.0
C1194 C 0.57275 0.69988 0.32837 0.0
C1195 C 0.57398 0.68677 0.34468 0.0
C1196 C 0.55559 0.69217 0.3136 0.0
C1197 C 0.5542 0.70497 0.29511 0.0
C1198 C 0.56986 0.71429 0.27877 0.0
C1199 C 0.5681 0.72564 0.26079 0.0
C1200 C 0.55066 0.7276 0.25885 0.0
C1201 C 0.53504 0.71842 0.27501 0.0
C1202 C 0.53674 0.7071 0.29306 0.0
H1203 H 0.54917 0.73609 0.24472 0.0
H1204 H 0.56589 0.61914 0.41142 0.0
H1205 H 0.40522 0.87366 0.31052 0.0
H1206 H 0.37024 0.86602 0.31888 0.0
H1207 H 0.39443 0.92224 0.35882 0.0
H1208 H 0.42955 0.92981 0.35053 0.0
H1209 H 0.35704 0.88751 0.37687 0.0
H1210 H 0.38413 0.92615 0.3078 0.0
H1211 H 0.40172 0.93352 0.2706 0.0
H1212 H 0.35426 0.87529 0.24403 0.0
H1213 H 0.33658 0.8674 0.28125 0.0
H1214 H 0.26944 0.90128 0.36172 0.0
H1215 H 0.30345 0.90457 0.36589 0.0
H1216 H 0.28581 0.85458 0.31738 0.0
H1217 H 0.25204 0.85163 0.31298 0.0
H1218 H 0.3208 0.88735 0.30556 0.0
H1219 H 0.29311 0.84924 0.37518 0.0
H1220 H 0.27638 0.84214 0.41289 0.0
H1221 H 0.32497 0.90004 0.43875 0.0
H1222 H 0.34187 0.90761 0.40109 0.0
C1223 C 0.40297 0.88403 0.3216 0.0
C1224 C 0.41981 0.90223 0.32999 0.0
C1225 C 0.38309 0.8797 0.32634 0.0
C1226 C 0.37983 0.89366 0.33931 0.0
C1227 C 0.39668 0.91126 0.34889 0.0
C1228 C 0.41664 0.91558 0.34414 0.0
C1229 C 0.35906 0.8911 0.34026 0.0
C1230 C 0.34912 0.88768 0.36138 0.0
C1231 C 0.34881 0.89121 0.31996 0.0
C1232 C 0.35913 0.89611 0.29737 0.0
C1233 C 0.37751 0.91486 0.29407 0.0
C1234 C 0.3875 0.91913 0.27298 0.0
C1235 C 0.37913 0.90487 0.25498 0.0
C1236 C 0.36073 0.88632 0.258 0.0
C1237 C 0.35071 0.88194 0.27909 0.0
C1238 C 0.27281 0.89077 0.3524 0.0
C1239 C 0.25833 0.87614 0.33717 0.0
C1240 C 0.29214 0.89259 0.3548 0.0
C1241 C 0.29714 0.87974 0.34203 0.0
C1242 C 0.28229 0.86463 0.3274 0.0
C1243 C 0.26303 0.86288 0.32496 0.0
C1244 C 0.31834 0.8832 0.34218 0.0
C1245 C 0.32854 0.88705 0.32115 0.0
C1246 C 0.32878 0.8836 0.3626 0.0
C1247 C 0.31864 0.87908 0.38525 0.0
C1248 C 0.30014 0.86054 0.38885 0.0
C1249 C 0.29065 0.85641 0.41023 0.0
C1250 C 0.29957 0.87066 0.42818 0.0
C1251 C 0.31805 0.88903 0.42482 0.0
C1252 C 0.32761 0.89324 0.40347 0.0
H1253 H 0.2922 0.86743 0.44472 0.0
H1254 H 0.38689 0.9082 0.23866 0.0
H1255 H 0.14357 0.54159 0.33974 0.0
H1256 H 0.15229 0.51449 0.34583 0.0
H1257 H 0.09175 0.46845 0.32291 0.0
H1258 H 0.08249 0.49515 0.31852 0.0
H1259 H 0.10295 0.452 0.35332 0.0
H1260 H 0.13528 0.49168 0.28626 0.0
H1261 H 0.1568 0.52396 0.26519 0.0
H1262 H 0.20904 0.53543 0.30612 0.0
H1263 H 0.18773 0.50333 0.32766 0.0
H1264 H 0.12162 0.37351 0.32173 0.0
H1265 H 0.11861 0.40372 0.31206 0.0
H1266 H 0.17227 0.44232 0.35305 0.0
H1267 H 0.17506 0.41199 0.36302 0.0
H1268 H 0.16561 0.46282 0.31336 0.0
H1269 H 0.1305 0.42064 0.37971 0.0
H1270 H 0.1071 0.38789 0.39899 0.0
H1271 H 0.05752 0.37999 0.35548 0.0
H1272 H 0.08073 0.41256 0.33569 0.0
C1273 C 0.13192 0.52564 0.33665 0.0
C1274 C 0.11248 0.52063 0.32808 0.0
C1275 C 0.13703 0.51015 0.33981 0.0
C1276 C 0.12295 0.48946 0.33399 0.0
C1277 C 0.10304 0.48429 0.32718 0.0
C1278 C 0.09782 0.49965 0.32445 0.0
C1279 C 0.12913 0.47334 0.33361 0.0
C1280 C 0.11655 0.45436 0.34437 0.0
C1281 C 0.14693 0.47629 0.32203 0.0
C1282 C 0.15991 0.49522 0.30866 0.0
C1283 C 0.15136 0.50112 0.29079 0.0
C1284 C 0.1635 0.51938 0.27878 0.0
C1285 C 0.18427 0.53176 0.28434 0.0
C1286 C 0.19295 0.52584 0.30185 0.0
C1287 C 0.18085 0.5076 0.31395 0.0
C1288 C 0.13359 0.38865 0.32738 0.0
C1289 C 0.14871 0.39048 0.34292 0.0
C1290 C 0.13164 0.40587 0.32217 0.0
C1291 C 0.14495 0.42515 0.33228 0.0
C1292 C 0.16181 0.42756 0.34513 0.0
C1293 C 0.1636 0.41026 0.35055 0.0
C1294 C 0.13932 0.44158 0.33285 0.0
C1295 C 0.15202 0.46055 0.32223 0.0
C1296 C 0.12136 0.43847 0.34411 0.0
C1297 C 0.10742 0.41889 0.35602 0.0
C1298 C 0.11467 0.41182 0.37409 0.0
C1299 C 0.10142 0.3933 0.38514 0.0
C1300 C 0.08086 0.38182 0.37839 0.0
C1301 C 0.07347 0.38887 0.36064 0.0
C1302 C 0.08666 0.40735 0.3495 0.0
H1303 H 0.07063 0.3675 0.38698 0.0
H1304 H 0.19364 0.54592 0.27505 0.0
H1305 H 0.38985 0.52408 0.34027 0.0
H1306 H 0.3528 0.50427 0.34748 0.0
H1307 H 0.35239 0.44781 0.33027 0.0
H1308 H 0.38916 0.46748 0.32283 0.0
H1309 H 0.32327 0.45078 0.30725 0.0
H1310 H 0.34774 0.4604 0.3858 0.0
H1311 H 0.36632 0.48078 0.42001 0.0
H1312 H 0.32977 0.5102 0.41998 0.0
H1313 H 0.31113 0.49015 0.38559 0.0
H1314 H 0.23923 0.36571 0.34814 0.0
H1315 H 0.27352 0.39574 0.35087 0.0
H1316 H 0.2481 0.43617 0.34776 0.0
H1317 H 0.21323 0.40575 0.34511 0.0
H1318 H 0.28787 0.44721 0.38004 0.0
H1319 H 0.26162 0.4348 0.30214 0.0
H1320 H 0.24249 0.41215 0.26948 0.0
H1321 H 0.28281 0.387 0.26933 0.0
H1322 H 0.30199 0.40931 0.30221 0.0
C1323 C 0.38185 0.50742 0.33824 0.0
C1324 C 0.39233 0.49727 0.33087 0.0
C1325 C 0.3607 0.49613 0.34244 0.0
C1326 C 0.34979 0.47454 0.3394 0.0
C1327 C 0.36044 0.46445 0.33262 0.0
C1328 C 0.38145 0.47568 0.32842 0.0
C1329 C 0.32713 0.46232 0.34188 0.0
C1330 C 0.3156 0.45013 0.32317 0.0
C1331 C 0.31693 0.46185 0.36241 0.0
C1332 C 0.32824 0.47399 0.38296 0.0
C1333 C 0.34381 0.47137 0.39295 0.0
C1334 C 0.35431 0.48282 0.41241 0.0
C1335 C 0.34928 0.49683 0.42212 0.0
C1336 C 0.33369 0.49938 0.41242 0.0
C1337 C 0.32314 0.48797 0.39296 0.0
C1338 C 0.24084 0.38097 0.34861 0.0
C1339 C 0.22363 0.38345 0.34613 0.0
C1340 C 0.26044 0.3981 0.35028 0.0
C1341 C 0.26332 0.41812 0.34932 0.0
C1342 C 0.24612 0.42079 0.34863 0.0
C1343 C 0.22627 0.40346 0.34712 0.0
C1344 C 0.28436 0.43552 0.34558 0.0
C1345 C 0.29557 0.44849 0.36396 0.0
C1346 C 0.29441 0.43681 0.32475 0.0
C1347 C 0.28316 0.42364 0.3047 0.0
C1348 C 0.26631 0.42434 0.29523 0.0
C1349 C 0.25548 0.41158 0.27667 0.0
C1350 C 0.26142 0.39812 0.26736 0.0
C1351 C 0.27823 0.39744 0.27655 0.0
C1352 C 0.28911 0.41016 0.29513 0.0
H1353 H 0.253 0.38825 0.25299 0.0
H1354 H 0.35742 0.50566 0.43719 0.0
H1355 H 0.5478 0.92828 0.33306 0.0
H1356 H 0.56692 0.91002 0.33786 0.0
H1357 H 0.51045 0.85312 0.35002 0.0
H1358 H 0.49121 0.8715 0.34567 0.0
H1359 H 0.54212 0.85716 0.37824 0.0
H1360 H 0.53085 0.86046 0.29838 0.0
H1361 H 0.53004 0.87669 0.26197 0.0
H1362 H 0.59519 0.91744 0.26618 0.0
H1363 H 0.59635 0.90166 0.30278 0.0
H1364 H 0.60679 0.81017 0.34567 0.0
H1365 H 0.57748 0.81607 0.35028 0.0
H1366 H 0.61912 0.88195 0.35005 0.0
H1367 H 0.648 0.87623 0.34533 0.0
H1368 H 0.58794 0.86458 0.31374 0.0
H1369 H 0.59758 0.86336 0.39656 0.0
H1370 H 0.59777 0.8465 0.43274 0.0
H1371 H 0.53479 0.80003 0.42175 0.0
H1372 H 0.53432 0.81648 0.38532 0.0
C1373 C 0.53949 0.91193 0.33701 0.0
C1374 C 0.51808 0.9013 0.33884 0.0
C1375 C 0.55039 0.90149 0.33968 0.0
C1376 C 0.54005 0.88013 0.3439 0.0
C1377 C 0.5187 0.86958 0.34669 0.0
C1378 C 0.50775 0.88009 0.34414 0.0
C1379 C 0.55171 0.86895 0.34414 0.0
C1380 C 0.55187 0.85842 0.36399 0.0
C1381 C 0.56427 0.87042 0.32547 0.0
C1382 C 0.56366 0.87993 0.3034 0.0
C1383 C 0.54498 0.87297 0.29162 0.0
C1384 C 0.54446 0.88208 0.27093 0.0
C1385 C 0.56255 0.8981 0.26178 0.0
C1386 C 0.58119 0.90502 0.27328 0.0
C1387 C 0.58179 0.89598 0.29398 0.0
C1388 C 0.60959 0.82584 0.34723 0.0
C1389 C 0.62953 0.84278 0.34477 0.0
C1390 C 0.59292 0.82918 0.34986 0.0
C1391 C 0.59622 0.84945 0.35031 0.0
C1392 C 0.61629 0.86621 0.3496 0.0
C1393 C 0.63274 0.86292 0.34682 0.0
C1394 C 0.57918 0.85381 0.34823 0.0
C1395 C 0.57788 0.86293 0.32783 0.0
C1396 C 0.5656 0.8509 0.36631 0.0
C1397 C 0.56601 0.84096 0.38806 0.0
C1398 C 0.58386 0.84939 0.4017 0.0
C1399 C 0.58399 0.83996 0.4223 0.0
C1400 C 0.56633 0.82216 0.42949 0.0
C1401 C 0.54848 0.81379 0.41613 0.0
C1402 C 0.54827 0.82316 0.39552 0.0
H1403 H 0.56645 0.81489 0.44545 0.0
H1404 H 0.56211 0.90513 0.24577 0.0
H1405 H 0.15003 0.62914 0.33923 0.0
H1406 H 0.16704 0.66703 0.33772 0.0
H1407 H 0.10799 0.66323 0.33412 0.0
H1408 H 0.09104 0.62552 0.3353 0.0
H1409 H 0.13282 0.68931 0.30297 0.0
H1410 H 0.13689 0.67769 0.38339 0.0
H1411 H 0.14626 0.66504 0.41776 0.0
H1412 H 0.20994 0.7008 0.40014 0.0
H1413 H 0.20091 0.71347 0.36548 0.0
H1414 H 0.1464 0.78468 0.34032 0.0
H1415 H 0.13863 0.74991 0.33087 0.0
H1416 H 0.2025 0.76819 0.33964 0.0
H1417 H 0.2098 0.80285 0.3516 0.0
H1418 H 0.18074 0.73566 0.36297 0.0
H1419 H 0.17298 0.75442 0.28684 0.0
H1420 H 0.15932 0.77031 0.26049 0.0
H1421 H 0.09806 0.72076 0.27236 0.0
H1422 H 0.1111 0.70555 0.30044 0.0
C1423 C 0.14072 0.63643 0.33829 0.0
C1424 C 0.1192 0.62443 0.33739 0.0
C1425 C 0.15045 0.65807 0.33743 0.0
C1426 C 0.1388 0.66801 0.33575 0.0
C1427 C 0.11732 0.65595 0.33521 0.0
C1428 C 0.10764 0.63442 0.33604 0.0
C1429 C 0.14875 0.69092 0.33431 0.0
C1430 C 0.14331 0.6995 0.31607 0.0
C1431 C 0.16279 0.70423 0.35112 0.0
C1432 C 0.1682 0.69625 0.37165 0.0
C1433 C 0.15287 0.68265 0.38669 0.0
C1434 C 0.15812 0.67553 0.40626 0.0
C1435 C 0.17867 0.68204 0.41107 0.0
C1436 C 0.19402 0.69571 0.39634 0.0
C1437 C 0.18884 0.70286 0.37673 0.0
C1438 C 0.15898 0.78159 0.33903 0.0
C1439 C 0.17877 0.79651 0.34612 0.0
C1440 C 0.15451 0.76157 0.33375 0.0
C1441 C 0.17 0.75629 0.33412 0.0
C1442 C 0.19028 0.77184 0.33912 0.0
C1443 C 0.19458 0.79178 0.34539 0.0
C1444 C 0.16445 0.73418 0.3319 0.0
C1445 C 0.17074 0.72566 0.34943 0.0
C1446 C 0.15077 0.7209 0.31467 0.0
C1447 C 0.1431 0.72884 0.29594 0.0
C1448 C 0.15658 0.74692 0.28398 0.0
C1449 C 0.1489 0.75596 0.26893 0.0
C1450 C 0.12785 0.74647 0.26461 0.0
C1451 C 0.11439 0.72806 0.27564 0.0
C1452 C 0.12191 0.71933 0.29135 0.0
H1453 H 0.12198 0.75339 0.25274 0.0
H1454 H 0.18271 0.67654 0.42626 0.0
H1455 H 0.82553 0.05436 0.34939 0.0
H1456 H 0.79825 0.0178 0.34692 0.0
H1457 H 0.84147 0.99901 0.36783 0.0
H1458 H 0.86845 0.03529 0.37099 0.0
H1459 H 0.812 0.97639 0.32703 0.0
H1460 H 0.81508 0.00254 0.4068 0.0
H1461 H 0.81143 0.02659 0.43284 0.0
H1462 H 0.75021 0.00461 0.40776 0.0
H1463 H 0.75366 0.98073 0.38127 0.0
H1464 H 0.74677 0.87229 0.33882 0.0
H1465 H 0.77553 0.90591 0.3505 0.0
H1466 H 0.73249 0.92438 0.37341 0.0
H1467 H 0.70441 0.89013 0.36485 0.0
H1468 H 0.76239 0.94891 0.39091 0.0
H1469 H 0.7532 0.92786 0.31268 0.0
H1470 H 0.75081 0.9071 0.27861 0.0
H1471 H 0.81334 0.92219 0.28858 0.0
H1472 H 0.816 0.94278 0.32293 0.0
C1473 C 0.82921 0.04238 0.35312 0.0
C1474 C 0.84907 0.04755 0.36034 0.0
C1475 C 0.81365 0.02157 0.35176 0.0
C1476 C 0.81791 0.00577 0.35722 0.0
C1477 C 0.83792 0.01098 0.3635 0.0
C1478 C 0.85328 0.03167 0.36533 0.0
C1479 C 0.80152 0.98378 0.35786 0.0
C1480 C 0.80114 0.97021 0.34099 0.0
C1481 C 0.78678 0.97604 0.37544 0.0
C1482 C 0.7847 0.98998 0.39195 0.0
C1483 C 0.8009 0.00294 0.40674 0.0
C1484 C 0.79886 0.01653 0.42159 0.0
C1485 C 0.78061 0.01716 0.42193 0.0
C1486 C 0.76434 0.00413 0.40748 0.0
C1487 C 0.76633 0.99057 0.39256 0.0
C1488 C 0.74365 0.88304 0.34802 0.0
C1489 C 0.72342 0.87876 0.35075 0.0
C1490 C 0.76007 0.9026 0.35395 0.0
C1491 C 0.75632 0.91844 0.36123 0.0
C1492 C 0.73616 0.9129 0.36732 0.0
C1493 C 0.71993 0.89306 0.36265 0.0
C1494 C 0.77248 0.94086 0.35989 0.0
C1495 C 0.77299 0.95469 0.37671 0.0
C1496 C 0.78627 0.94908 0.34114 0.0
C1497 C 0.7847 0.93662 0.32056 0.0
C1498 C 0.76639 0.92663 0.30769 0.0
C1499 C 0.765 0.9149 0.28833 0.0
C1500 C 0.78189 0.91327 0.28148 0.0
C1501 C 0.80024 0.92341 0.29395 0.0
C1502 C 0.8017 0.9351 0.31338 0.0
H1503 H 0.78079 0.9042 0.26647 0.0
H1504 H 0.77907 0.0277 0.43341 0.0
H1505 H 0.96051 0.75441 0.36993 0.0
H1506 H 0.99736 0.7713 0.36292 0.0
H1507 H 0.99675 0.82506 0.33714 0.0
H1508 H 0.95965 0.80807 0.34391 0.0
H1509 H 0.02327 0.81449 0.31212 0.0
H1510 H 0.01159 0.82784 0.38932 0.0
H1511 H 0.99581 0.81888 0.42756 0.0
H1512 H 0.02062 0.77881 0.43845 0.0
H1513 H 0.03627 0.78726 0.40013 0.0
H1514 H 0.13561 0.86569 0.334 0.0
H1515 H 0.1001 0.85891 0.32953 0.0
H1516 H 0.07744 0.79879 0.35987 0.0
H1517 H 0.11224 0.80552 0.36471 0.0
H1518 H 0.06417 0.82174 0.38196 0.0
H1519 H 0.07198 0.80477 0.30313 0.0
H1520 H 0.08732 0.81289 0.26465 0.0
H1521 H 0.07035 0.85955 0.25682 0.0
H1522 H 0.05515 0.8519 0.29542 0.0
C1523 C 0.96818 0.76973 0.36252 0.0
C1524 C 0.95729 0.77999 0.3577 0.0
C1525 C 0.9892 0.77936 0.35851 0.0
C1526 C 0.99981 0.79953 0.34979 0.0
C1527 C 0.98883 0.8095 0.34391 0.0
C1528 C 0.96768 0.79981 0.34789 0.0
C1529 C 0.02251 0.81048 0.34871 0.0
C1530 C 0.03233 0.81644 0.3274 0.0
C1531 C 0.0343 0.81312 0.36866 0.0
C1532 C 0.025 0.80811 0.3918 0.0
C1533 C 0.01356 0.81701 0.39981 0.0
C1534 C 0.00465 0.81203 0.4215 0.0
C1535 C 0.00719 0.79826 0.43541 0.0
C1536 C 0.01866 0.78947 0.42766 0.0
C1537 C 0.02758 0.79436 0.40597 0.0
C1538 C 0.12294 0.85098 0.3394 0.0
C1539 C 0.12665 0.8363 0.35013 0.0
C1540 C 0.10273 0.8471 0.3368 0.0
C1541 C 0.08616 0.82841 0.3446 0.0
C1542 C 0.08998 0.81341 0.35401 0.0
C1543 C 0.10991 0.81733 0.35684 0.0
C1544 C 0.06485 0.82458 0.34524 0.0
C1545 C 0.05526 0.82017 0.36665 0.0
C1546 C 0.05343 0.82333 0.32538 0.0
C1547 C 0.06271 0.82798 0.30229 0.0
C1548 C 0.07173 0.81693 0.29332 0.0
C1549 C 0.08034 0.8214 0.27146 0.0
C1550 C 0.07988 0.83678 0.25834 0.0
C1551 C 0.07075 0.84769 0.26703 0.0
C1552 C 0.06213 0.84328 0.28889 0.0
H1553 H 0.08654 0.84021 0.24141 0.0
H1554 H 0.00028 0.79444 0.4522 0.0
H1555 H 0.25543 0.20897 0.37323 0.0
H1556 H 0.23726 0.22844 0.37102 0.0
H1557 H 0.1826 0.1735 0.348 0.0
H1558 H 0.20083 0.15396 0.3499 0.0
H1559 H 0.19044 0.21004 0.32454 0.0
H1560 H 0.18711 0.18737 0.40334 0.0
H1561 H 0.20355 0.18435 0.43863 0.0
H1562 H 0.2399 0.25052 0.44356 0.0
H1563 H 0.22388 0.25392 0.40814 0.0
H1564 H 0.13752 0.2629 0.33002 0.0
H1565 H 0.14262 0.23419 0.341 0.0
H1566 H 0.19553 0.27641 0.38127 0.0
H1567 H 0.18929 0.30447 0.37179 0.0
H1568 H 0.18452 0.2418 0.39684 0.0
H1569 H 0.19585 0.26719 0.31954 0.0
H1570 H 0.18638 0.27498 0.2819 0.0
H1571 H 0.14315 0.21053 0.2712 0.0
H1572 H 0.15219 0.20239 0.30894 0.0
C1573 C 0.23959 0.20109 0.36752 0.0
C1574 C 0.22951 0.17994 0.36196 0.0
C1575 C 0.22921 0.2122 0.36632 0.0
C1576 C 0.20845 0.20233 0.35976 0.0
C1577 C 0.19856 0.18138 0.35325 0.0
C1578 C 0.20899 0.17024 0.35439 0.0
C1579 C 0.19697 0.21374 0.36069 0.0
C1580 C 0.18875 0.21666 0.3404 0.0
C1581 C 0.1954 0.22295 0.38124 0.0
C1582 C 0.20432 0.22088 0.40308 0.0
C1583 C 0.19861 0.20127 0.41196 0.0
C1584 C 0.20788 0.19949 0.43196 0.0
C1585 C 0.22276 0.21723 0.44332 0.0
C1586 C 0.22835 0.23679 0.43476 0.0
C1587 C 0.21915 0.23865 0.41475 0.0
C1588 C 0.14924 0.26564 0.34263 0.0
C1589 C 0.16307 0.28587 0.35001 0.0
C1590 C 0.15256 0.24934 0.34838 0.0
C1591 C 0.17019 0.2533 0.36089 0.0
C1592 C 0.18202 0.27287 0.37123 0.0
C1593 C 0.17826 0.28895 0.36608 0.0
C1594 C 0.1781 0.23848 0.36056 0.0
C1595 C 0.18575 0.2349 0.38097 0.0
C1596 C 0.17992 0.22938 0.33989 0.0
C1597 C 0.17448 0.23422 0.31718 0.0
C1598 C 0.18423 0.2547 0.30921 0.0
C1599 C 0.17895 0.25918 0.28787 0.0
C1600 C 0.16411 0.24327 0.27421 0.0
C1601 C 0.15458 0.22284 0.28184 0.0
C1602 C 0.15977 0.21828 0.30321 0.0
H1603 H 0.16004 0.24676 0.25768 0.0
H1604 H 0.22996 0.21582 0.45877 0.0
H1605 H 0.59325 0.51479 0.70638 0.0
H1606 H 0.6275 0.54138 0.6961 0.0
H1607 H 0.63744 0.49583 0.6619 0.0
H1608 H 0.60353 0.46858 0.67407 0.0
H1609 H 0.66948 0.51912 0.68528 0.0
H1610 H 0.63134 0.53537 0.63218 0.0
H1611 H 0.60433 0.54248 0.6189 0.0
H1612 H 0.62759 0.59517 0.66389 0.0
H1613 H 0.65457 0.58826 0.67765 0.0
H1614 H 0.76863 0.61072 0.66051 0.0
H1615 H 0.73516 0.57926 0.65379 0.0
H1616 H 0.70635 0.60349 0.69805 0.0
H1617 H 0.73899 0.63444 0.70465 0.0
H1618 H 0.68506 0.58838 0.65845 0.0
H1619 H 0.71814 0.56737 0.71638 0.0
H1620 H 0.74492 0.56018 0.73035 0.0
H1621 H 0.73095 0.51656 0.67548 0.0
H1622 H 0.70426 0.5237 0.66103 0.0
C1623 C 0.60268 0.51026 0.69682 0.0
C1624 C 0.59559 0.48934 0.69145 0.0
C1625 C 0.62225 0.52567 0.69048 0.0
C1626 C 0.63511 0.52083 0.67777 0.0
C1627 C 0.62785 0.50006 0.67161 0.0
C1628 C 0.60832 0.48448 0.6784 0.0
C1629 C 0.65656 0.53731 0.67262 0.0
C1630 C 0.67283 0.53409 0.67882 0.0
C1631 C 0.66116 0.55699 0.66431 0.0
C1632 C 0.64497 0.56124 0.65598 0.0
C1633 C 0.63064 0.54842 0.63932 0.0
C1634 C 0.61533 0.55242 0.6317 0.0
C1635 C 0.61424 0.56925 0.64055 0.0
C1636 C 0.62846 0.58215 0.65702 0.0
C1637 C 0.64379 0.57822 0.6647 0.0
C1638 C 0.75512 0.60932 0.6687 0.0
C1639 C 0.75662 0.62521 0.6831 0.0
C1640 C 0.73604 0.59132 0.66492 0.0
C1641 C 0.71823 0.58905 0.6754 0.0
C1642 C 0.7198 0.60492 0.68963 0.0
C1643 C 0.73864 0.62266 0.69345 0.0
C1644 C 0.69768 0.57036 0.67209 0.0
C1645 C 0.68161 0.57318 0.66423 0.0
C1646 C 0.69329 0.55039 0.67883 0.0
C1647 C 0.70945 0.5463 0.68743 0.0
C1648 C 0.72094 0.55641 0.70716 0.0
C1649 C 0.73606 0.55231 0.7152 0.0
C1650 C 0.73969 0.53799 0.70375 0.0
C1651 C 0.72817 0.5277 0.68428 0.0
C1652 C 0.71305 0.53177 0.67617 0.0
H1653 H 0.75139 0.53482 0.71001 0.0
H1654 H 0.60237 0.57232 0.63464 0.0
H1655 H 0.51375 0.09032 0.66452 0.0
H1656 H 0.4867 0.09853 0.65479 0.0
H1657 H 0.50289 0.1378 0.71471 0.0
H1658 H 0.52943 0.12939 0.72449 0.0
H1659 H 0.46294 0.10996 0.71366 0.0
H1660 H 0.51332 0.15741 0.66037 0.0
H1661 H 0.53715 0.16703 0.62792 0.0
H1662 H 0.4873 0.12702 0.5833 0.0
H1663 H 0.4632 0.11689 0.61559 0.0
H1664 H 0.40417 0.15795 0.70445 0.0
H1665 H 0.43477 0.15433 0.70368 0.0
H1666 H 0.41075 0.11455 0.64426 0.0
H1667 H 0.38003 0.11813 0.64516 0.0
H1668 H 0.45309 0.14012 0.64247 0.0
H1669 H 0.40253 0.09398 0.69467 0.0
H1670 H 0.37835 0.0827 0.72689 0.0
H1671 H 0.4281 0.11797 0.77371 0.0
H1672 H 0.45253 0.13007 0.74168 0.0
C1673 C 0.51171 0.10104 0.67522 0.0
C1674 C 0.5235 0.10924 0.69523 0.0
C1675 C 0.49631 0.1057 0.66971 0.0
C1676 C 0.49275 0.11874 0.68409 0.0
C1677 C 0.50527 0.12763 0.70346 0.0
C1678 C 0.52045 0.1229 0.70898 0.0
C1679 C 0.47506 0.12202 0.68035 0.0
C1680 C 0.46096 0.11684 0.69822 0.0
C1681 C 0.47201 0.13017 0.65982 0.0
C1682 C 0.4865 0.13621 0.64045 0.0
C1683 C 0.50747 0.1505 0.64369 0.0
C1684 C 0.52102 0.15608 0.62532 0.0
C1685 C 0.51376 0.14759 0.60358 0.0
C1686 C 0.49291 0.13354 0.60016 0.0
C1687 C 0.4793 0.12789 0.61849 0.0
C1688 C 0.40588 0.14914 0.69069 0.0
C1689 C 0.3901 0.13866 0.67456 0.0
C1690 C 0.4232 0.14687 0.69042 0.0
C1691 C 0.42488 0.13395 0.67409 0.0
C1692 C 0.40974 0.12461 0.65698 0.0
C1693 C 0.39232 0.12676 0.65737 0.0
C1694 C 0.44147 0.1288 0.67617 0.0
C1695 C 0.45515 0.13334 0.65795 0.0
C1696 C 0.44413 0.11995 0.69639 0.0
C1697 C 0.42935 0.1132 0.71565 0.0
C1698 C 0.4083 0.09964 0.71177 0.0
C1699 C 0.39454 0.09307 0.73002 0.0
C1700 C 0.40167 0.09972 0.75232 0.0
C1701 C 0.42258 0.11293 0.75641 0.0
C1702 C 0.43638 0.11971 0.7382 0.0
H1703 H 0.39101 0.09456 0.76644 0.0
H1704 H 0.52427 0.15195 0.58937 0.0
H1705 H 0.93315 0.42069 0.70749 0.0
H1706 H 0.92288 0.38481 0.702 0.0
H1707 H 0.86617 0.37377 0.67063 0.0
H1708 H 0.87523 0.40946 0.67942 0.0
H1709 H 0.85635 0.34461 0.69583 0.0
H1710 H 0.91041 0.37257 0.64148 0.0
H1711 H 0.94493 0.39547 0.62601 0.0
H1712 H 0.97114 0.37366 0.6765 0.0
H1713 H 0.93682 0.35079 0.69245 0.0
H1714 H 0.84191 0.24731 0.65056 0.0
H1715 H 0.84453 0.28054 0.65969 0.0
H1716 H 0.88951 0.29141 0.71197 0.0
H1717 H 0.88672 0.25807 0.70293 0.0
H1718 H 0.90396 0.31958 0.67496 0.0
H1719 H 0.84495 0.28753 0.72457 0.0
H1720 H 0.80868 0.26204 0.73184 0.0
H1721 H 0.78972 0.2907 0.68128 0.0
H1722 H 0.82582 0.31562 0.67264 0.0
C1723 C 0.91837 0.41067 0.69955 0.0
C1724 C 0.9047 0.41791 0.69472 0.0
C1725 C 0.91269 0.39006 0.69585 0.0
C1726 C 0.89374 0.37626 0.68564 0.0
C1727 C 0.8808 0.38391 0.6788 0.0
C1728 C 0.88613 0.40448 0.68348 0.0
C1729 C 0.88685 0.35368 0.68407 0.0
C1730 C 0.86674 0.33923 0.69079 0.0
C1731 C 0.90031 0.34633 0.67786 0.0
C1732 C 0.92102 0.36006 0.66826 0.0
C1733 C 0.92354 0.37274 0.64937 0.0
C1734 C 0.94308 0.38571 0.6405 0.0
C1735 C 0.96022 0.38605 0.65029 0.0
C1736 C 0.95785 0.37338 0.66894 0.0
C1737 C 0.93835 0.36039 0.67787 0.0
C1738 C 0.85122 0.25611 0.66511 0.0
C1739 C 0.86394 0.25006 0.67622 0.0
C1740 C 0.85299 0.27529 0.67006 0.0
C1741 C 0.86748 0.2886 0.68624 0.0
C1742 C 0.87831 0.28141 0.69934 0.0
C1743 C 0.87638 0.26215 0.69451 0.0
C1744 C 0.87371 0.31088 0.6868 0.0
C1745 C 0.89369 0.32517 0.67988 0.0
C1746 C 0.85989 0.31792 0.69185 0.0
C1747 C 0.83817 0.30339 0.69781 0.0
C1748 C 0.83308 0.28832 0.71483 0.0
C1749 C 0.81254 0.27396 0.71921 0.0
C1750 C 0.79694 0.27485 0.70718 0.0
C1751 C 0.80182 0.29004 0.69062 0.0
C1752 C 0.82233 0.30423 0.68589 0.0
H1753 H 0.78105 0.26374 0.71065 0.0
H1754 H 0.97532 0.39611 0.64341 0.0
H1755 H 0.14462 0.93147 0.67721 0.0
H1756 H 0.17075 0.96708 0.68541 0.0
H1757 H 0.21463 0.95858 0.64643 0.0
H1758 H 0.18985 0.92235 0.64172 0.0
H1759 H 0.2348 0.98455 0.67399 0.0
H1760 H 0.17887 0.97968 0.62555 0.0
H1761 H 0.14273 0.96966 0.61825 0.0
H1762 H 0.14377 0.00539 0.6766 0.0
H1763 H 0.17984 0.01544 0.68434 0.0
H1764 H 0.30347 0.08528 0.64558 0.0
H1765 H 0.27342 0.05173 0.63658 0.0
H1766 H 0.23935 0.06198 0.68915 0.0
H1767 H 0.2693 0.09557 0.69785 0.0
H1768 H 0.21388 0.0363 0.65614 0.0
H1769 H 0.27061 0.04257 0.70224 0.0
H1770 H 0.30653 0.05199 0.70975 0.0
H1771 H 0.3039 0.01289 0.65419 0.0
H1772 H 0.26805 0.00345 0.64614 0.0
C1773 C 0.16002 0.93689 0.67111 0.0
C1774 C 0.16471 0.92401 0.65785 0.0
C1775 C 0.1749 0.95757 0.67531 0.0
C1776 C 0.19443 0.96612 0.6653 0.0
C1777 C 0.19961 0.95278 0.65393 0.0
C1778 C 0.18515 0.93194 0.65082 0.0
C1779 C 0.20929 0.9889 0.66556 0.0
C1780 C 0.23013 0.99571 0.66965 0.0
C1781 C 0.20342 0.00386 0.66064 0.0
C1782 C 0.18195 0.99818 0.65559 0.0
C1783 C 0.17136 0.98537 0.6368 0.0
C1784 C 0.15089 0.97967 0.63262 0.0
C1785 C 0.14095 0.98686 0.64697 0.0
C1786 C 0.15148 0.99983 0.6655 0.0
C1787 C 0.17192 0.00554 0.66978 0.0
C1788 C 0.28911 0.08101 0.65404 0.0
C1789 C 0.28863 0.09295 0.67241 0.0
C1790 C 0.27206 0.06162 0.64924 0.0
C1791 C 0.25443 0.05403 0.66284 0.0
C1792 C 0.25289 0.0674 0.67864 0.0
C1793 C 0.26993 0.08678 0.68338 0.0
C1794 C 0.23922 0.03155 0.66344 0.0
C1795 C 0.21841 0.02494 0.65996 0.0
C1796 C 0.24512 0.0167 0.66859 0.0
C1797 C 0.26673 0.02251 0.67341 0.0
C1798 C 0.27775 0.03612 0.6915 0.0
C1799 C 0.29809 0.04145 0.69587 0.0
C1800 C 0.30752 0.03312 0.6824 0.0
C1801 C 0.29661 0.01939 0.66456 0.0
C1802 C 0.27628 0.01405 0.66009 0.0
H1803 H 0.32326 0.03725 0.68582 0.0
H1804 H 0.1251 0.9824 0.64373 0.0
H1805 H 0.08932 0.26636 0.65554 0.0
H1806 H 0.05475 0.25803 0.66633 0.0
H1807 H 0.041 0.1968 0.68606 0.0
H1808 H 0.07561 0.20496 0.67477 0.0
H1809 H 0.01176 0.19633 0.6575 0.0
H1810 H 0.04659 0.23269 0.72685 0.0
H1811 H 0.0734 0.26201 0.74908 0.0
H1812 H 0.05427 0.30248 0.72007 0.0
H1813 H 0.02752 0.27348 0.69748 0.0
H1814 H 0.91109 0.17801 0.68515 0.0
H1815 H 0.94435 0.1795 0.69018 0.0
H1816 H 0.97572 0.24526 0.67798 0.0
H1817 H 0.94315 0.244 0.67385 0.0
H1818 H 0.99517 0.23862 0.70926 0.0
H1819 H 0.96596 0.2077 0.63613 0.0
H1820 H 0.94139 0.1818 0.60879 0.0
H1821 H 0.95237 0.13553 0.63808 0.0
H1822 H 0.97636 0.1609 0.66612 0.0
C1823 C 0.07899 0.25116 0.66232 0.0
C1824 C 0.08514 0.23627 0.66417 0.0
C1825 C 0.05928 0.24647 0.66868 0.0
C1826 C 0.04532 0.22684 0.6772 0.0
C1827 C 0.05156 0.21208 0.67963 0.0
C1828 C 0.07136 0.2168 0.67332 0.0
C1829 C 0.02382 0.2214 0.68192 0.0
C1830 C 0.00801 0.20522 0.66925 0.0
C1831 C 0.01907 0.23347 0.69667 0.0
C1832 C 0.03508 0.25089 0.71042 0.0
C1833 C 0.04817 0.24786 0.72513 0.0
C1834 C 0.06335 0.26443 0.73781 0.0
C1835 C 0.06554 0.28409 0.73598 0.0
C1836 C 0.05254 0.28723 0.7215 0.0
C1837 C 0.03735 0.27073 0.70879 0.0
C1838 C 0.92512 0.19281 0.68417 0.0
C1839 C 0.92447 0.21085 0.67896 0.0
C1840 C 0.94411 0.19363 0.68678 0.0
C1841 C 0.96262 0.21248 0.68414 0.0
C1842 C 0.96178 0.23053 0.68014 0.0
C1843 C 0.94303 0.22975 0.67766 0.0
C1844 C 0.98305 0.21383 0.68439 0.0
C1845 C 0.99874 0.2293 0.69795 0.0
C1846 C 0.98779 0.20158 0.66983 0.0
C1847 C 0.97264 0.18611 0.65357 0.0
C1848 C 0.96281 0.19189 0.63705 0.0
C1849 C 0.94898 0.17729 0.62139 0.0
C1850 C 0.94511 0.15694 0.62185 0.0
C1851 C 0.95509 0.15118 0.63793 0.0
C1852 C 0.96877 0.16565 0.65376 0.0
H1853 H 0.93449 0.14567 0.60965 0.0
H1854 H 0.07731 0.29689 0.7458 0.0
H1855 H 0.74685 0.82738 0.65117 0.0
H1856 H 0.75629 0.801 0.65669 0.0
H1857 H 0.81536 0.84716 0.68327 0.0
H1858 H 0.80638 0.87404 0.67621 0.0
H1859 H 0.82102 0.82574 0.65286 0.0
H1860 H 0.77628 0.80635 0.71712 0.0
H1861 H 0.74462 0.79715 0.73834 0.0
H1862 H 0.71061 0.74437 0.69442 0.0
H1863 H 0.742 0.75339 0.67275 0.0
H1864 H 0.84098 0.74635 0.69567 0.0
H1865 H 0.83762 0.77644 0.68626 0.0
H1866 H 0.78366 0.73749 0.64582 0.0
H1867 H 0.78726 0.7075 0.65495 0.0
H1868 H 0.77666 0.75578 0.6847 0.0
H1869 H 0.82118 0.77622 0.61994 0.0
H1870 H 0.85287 0.78487 0.59944 0.0
H1871 H 0.88761 0.83528 0.64614 0.0
H1872 H 0.85596 0.82677 0.66709 0.0
C1873 C 0.76179 0.83192 0.65845 0.0
C1874 C 0.776 0.85287 0.66288 0.0
C1875 C 0.7671 0.81672 0.66187 0.0
C1876 C 0.78655 0.82197 0.6705 0.0
C1877 C 0.80029 0.84271 0.67649 0.0
C1878 C 0.79507 0.85804 0.67271 0.0
C1879 C 0.79308 0.80614 0.67113 0.0
C1880 C 0.81148 0.81059 0.66028 0.0
C1881 C 0.78043 0.78611 0.6802 0.0
C1882 C 0.76149 0.78065 0.69321 0.0
C1883 C 0.76202 0.79287 0.71188 0.0
C1884 C 0.74413 0.78766 0.72401 0.0
C1885 C 0.72561 0.77021 0.7177 0.0
C1886 C 0.72496 0.75789 0.69928 0.0
C1887 C 0.74281 0.76302 0.6871 0.0
C1888 C 0.82931 0.74452 0.68342 0.0
C1889 C 0.81451 0.7247 0.67581 0.0
C1890 C 0.82718 0.76166 0.67835 0.0
C1891 C 0.81016 0.7591 0.6657 0.0
C1892 C 0.79684 0.73976 0.65573 0.0
C1893 C 0.79913 0.72269 0.66058 0.0
C1894 C 0.80437 0.7754 0.66625 0.0
C1895 C 0.78617 0.771 0.67743 0.0
C1896 C 0.81724 0.79547 0.65772 0.0
C1897 C 0.83626 0.80073 0.6452 0.0
C1898 C 0.8356 0.78905 0.62595 0.0
C1899 C 0.85357 0.79395 0.61422 0.0
C1900 C 0.87232 0.81057 0.62152 0.0
C1901 C 0.87309 0.82239 0.64052 0.0
C1902 C 0.85513 0.81755 0.65231 0.0
H1903 H 0.88624 0.81434 0.61243 0.0
H1904 H 0.71178 0.76621 0.72712 0.0
H1905 H 0.06477 0.82656 0.67814 0.0
H1906 H 0.02985 0.80058 0.68961 0.0
H1907 H 0.0055 0.83319 0.65191 0.0
H1908 H 0.0402 0.85877 0.63991 0.0
H1909 H 0.98747 0.81862 0.6969 0.0
H1910 H 0.00389 0.79552 0.62667 0.0
H1911 H 0.02377 0.78536 0.60176 0.0
H1912 H 0.01454 0.73745 0.64884 0.0
H1913 H 0.99489 0.74758 0.67425 0.0
H1914 H 0.88337 0.74242 0.669 0.0
H1915 H 0.91878 0.77111 0.67357 0.0
H1916 H 0.9371 0.72839 0.69872 0.0
H1917 H 0.90207 0.69985 0.69337 0.0
H1918 H 0.95939 0.74811 0.66419 0.0
H1919 H 0.93978 0.76819 0.7327 0.0
H1920 H 0.91928 0.77757 0.75759 0.0
H1921 H 0.93382 0.82999 0.71524 0.0
H1922 H 0.95418 0.82076 0.6899 0.0
C1923 C 0.05197 0.82829 0.67258 0.0
C1924 C 0.05508 0.84462 0.65815 0.0
C1925 C 0.03207 0.81347 0.67911 0.0
C1926 C 0.01514 0.81503 0.67161 0.0
C1927 C 0.01837 0.8318 0.65797 0.0
C1928 C 0.03815 0.84632 0.65106 0.0
C1929 C 0.9939 0.79849 0.67649 0.0
C1930 C 0.98122 0.80318 0.68974 0.0
C1931 C 0.98598 0.7783 0.66752 0.0
C1932 C 0.99824 0.77255 0.65255 0.0
C1933 C 0.00637 0.78303 0.63189 0.0
C1934 C 0.01753 0.77723 0.61763 0.0
C1935 C 0.0205 0.76083 0.62377 0.0
C1936 C 0.0123 0.7502 0.64416 0.0
C1937 C 0.00116 0.75597 0.6585 0.0
C1938 C 0.89489 0.7394 0.67621 0.0
C1939 C 0.89017 0.71907 0.68081 0.0
C1940 C 0.9151 0.75574 0.67884 0.0
C1941 C 0.93068 0.75191 0.68642 0.0
C1942 C 0.92544 0.73174 0.69271 0.0
C1943 C 0.90543 0.71547 0.68976 0.0
C1944 C 0.95269 0.76806 0.68475 0.0
C1945 C 0.96557 0.76337 0.67185 0.0
C1946 C 0.96073 0.78815 0.6942 0.0
C1947 C 0.94835 0.79366 0.70927 0.0
C1948 C 0.93845 0.7816 0.72856 0.0
C1949 C 0.92689 0.78692 0.74278 0.0
C1950 C 0.92521 0.80433 0.73797 0.0
C1951 C 0.93512 0.81649 0.71894 0.0
C1952 C 0.94669 0.81123 0.70465 0.0
H1953 H 0.91627 0.80844 0.74901 0.0
H1954 H 0.0291 0.75632 0.61268 0.0
H1955 H 0.15775 0.20551 0.68725 0.0
H1956 H 0.1783 0.18892 0.69488 0.0
H1957 H 0.23296 0.24485 0.67501 0.0
H1958 H 0.21256 0.26134 0.66726 0.0
H1959 H 0.22943 0.21223 0.65249 0.0
H1960 H 0.22476 0.23003 0.73 0.0
H1961 H 0.20816 0.23094 0.76593 0.0
H1962 H 0.179 0.16484 0.7708 0.0
H1963 H 0.19519 0.1635 0.73466 0.0
H1964 H 0.31317 0.20693 0.68488 0.0
H1965 H 0.28579 0.21429 0.69295 0.0
H1966 H 0.24155 0.14909 0.69043 0.0
H1967 H 0.26934 0.14152 0.68229 0.0
H1968 H 0.23558 0.1806 0.72456 0.0
H1969 H 0.24671 0.16647 0.64631 0.0
H1970 H 0.27163 0.1711 0.61678 0.0
H1971 H 0.2924 0.23611 0.61432 0.0
H1972 H 0.2691 0.23221 0.6459 0.0
C1973 C 0.17418 0.21431 0.68478 0.0
C1974 C 0.18359 0.23469 0.67651 0.0
C1975 C 0.18591 0.20484 0.68924 0.0
C1976 C 0.20717 0.21562 0.68548 0.0
C1977 C 0.21657 0.23619 0.67794 0.0
C1978 C 0.20492 0.24561 0.67354 0.0
C1979 C 0.21959 0.20525 0.68753 0.0
C1980 C 0.23066 0.20528 0.66827 0.0
C1981 C 0.22106 0.19592 0.70801 0.0
C1982 C 0.21091 0.19663 0.72941 0.0
C1983 C 0.21457 0.21565 0.73854 0.0
C1984 C 0.2053 0.21626 0.75899 0.0
C1985 C 0.19246 0.19795 0.77058 0.0
C1986 C 0.18889 0.179 0.76176 0.0
C1987 C 0.19811 0.17831 0.74129 0.0
C1988 C 0.29768 0.19406 0.68668 0.0
C1989 C 0.29324 0.17368 0.68248 0.0
C1990 C 0.28209 0.19831 0.69151 0.0
C1991 C 0.26165 0.18229 0.69202 0.0
C1992 C 0.25728 0.16166 0.69018 0.0
C1993 C 0.27309 0.15734 0.6854 0.0
C1994 C 0.24535 0.18781 0.6896 0.0
C1995 C 0.23373 0.187 0.70867 0.0
C1996 C 0.24363 0.19691 0.66907 0.0
C1997 C 0.25634 0.19905 0.64875 0.0
C1998 C 0.25677 0.18181 0.63973 0.0
C1999 C 0.27066 0.18432 0.62259 0.0
C2000 C 0.28344 0.20385 0.61334 0.0
C2001 C 0.28248 0.22097 0.62147 0.0
C2002 C 0.26911 0.21865 0.63922 0.0
H2003 H 0.29413 0.20573 0.59996 0.0
H2004 H 0.18533 0.19845 0.78645 0.0
H2005 H 0.78847 0.95769 0.70393 0.0
H2006 H 0.80814 0.99571 0.70746 0.0
H2007 H 0.80696 0.00093 0.63399 0.0
H2008 H 0.78653 0.9631 0.63057 0.0
H2009 H 0.84747 0.02835 0.6584 0.0
H2010 H 0.77653 0.0088 0.65446 0.0
H2011 H 0.73999 0.98941 0.66484 0.0
H2012 H 0.75513 0.01341 0.73348 0.0
H2013 H 0.79188 0.03265 0.72361 0.0
H2014 H 0.8485 0.12766 0.646 0.0
H2015 H 0.84584 0.0937 0.6419 0.0
H2016 H 0.85353 0.09174 0.71485 0.0
H2017 H 0.85674 0.12577 0.71887 0.0
H2018 H 0.81151 0.06282 0.69124 0.0
H2019 H 0.88358 0.08452 0.6926 0.0
H2020 H 0.91941 0.10419 0.67953 0.0
H2021 H 0.90076 0.07725 0.61241 0.0
H2022 H 0.86476 0.05763 0.62501 0.0
C2023 C 0.79268 0.96704 0.68861 0.0
C2024 C 0.78615 0.95771 0.66699 0.0
C2025 C 0.80384 0.98865 0.6906 0.0
C2026 C 0.80903 0.00105 0.67095 0.0
C2027 C 0.8032 0.99161 0.64931 0.0
C2028 C 0.79152 0.97009 0.64738 0.0
C2029 C 0.81931 0.02385 0.67299 0.0
C2030 C 0.83962 0.03592 0.66551 0.0
C2031 C 0.80901 0.03366 0.68223 0.0
C2032 C 0.787 0.02184 0.68841 0.0
C2033 C 0.77212 0.00968 0.67187 0.0
C2034 C 0.75135 0.99878 0.67763 0.0
C2035 C 0.74525 9e-05 0.69984 0.0
C2036 C 0.7599 0.01234 0.71632 0.0
C2037 C 0.7807 0.02323 0.71065 0.0
C2038 C 0.85125 0.12071 0.66087 0.0
C2039 C 0.85285 0.1293 0.68274 0.0
C2040 C 0.84937 0.10113 0.65858 0.0
C2041 C 0.84913 0.09012 0.67815 0.0
C2042 C 0.85367 0.1 0.69957 0.0
C2043 C 0.85583 0.11962 0.70178 0.0
C2044 C 0.83982 0.06736 0.67703 0.0
C2045 C 0.8195 0.05526 0.68447 0.0
C2046 C 0.85 0.05762 0.66744 0.0
C2047 C 0.8715 0.06973 0.6597 0.0
C2048 C 0.88709 0.08298 0.67498 0.0
C2049 C 0.90743 0.09407 0.66768 0.0
C2050 C 0.91234 0.09192 0.64517 0.0
C2051 C 0.89692 0.07884 0.62986 0.0
C2052 C 0.87656 0.06772 0.63707 0.0
H2053 H 0.9281 0.10024 0.63959 0.0
H2054 H 0.72916 0.99168 0.70426 0.0
H2055 H 0.53806 0.36947 0.68978 0.0
H2056 H 0.5102 0.33345 0.69122 0.0
H2057 H 0.46582 0.35347 0.6833 0.0
H2058 H 0.49363 0.38954 0.68179 0.0
H2059 H 0.45622 0.32489 0.71857 0.0
H2060 H 0.47439 0.33154 0.63923 0.0
H2061 H 0.49799 0.34048 0.60662 0.0
H2062 H 0.51515 0.29651 0.62922 0.0
H2063 H 0.49182 0.2875 0.66214 0.0
H2064 H 0.36777 0.23096 0.69018 0.0
H2065 H 0.39672 0.26445 0.6986 0.0
H2066 H 0.4377 0.24066 0.68617 0.0
H2067 H 0.40816 0.20745 0.67436 0.0
H2068 H 0.45055 0.27171 0.66325 0.0
H2069 H 0.42964 0.26363 0.74278 0.0
H2070 H 0.40426 0.2546 0.77357 0.0
H2071 H 0.39111 0.30125 0.75021 0.0
H2072 H 0.41625 0.31043 0.71919 0.0
C2073 C 0.52236 0.36615 0.68812 0.0
C2074 C 0.51804 0.38228 0.68559 0.0
C2075 C 0.50648 0.3456 0.68896 0.0
C2076 C 0.48594 0.34078 0.68733 0.0
C2077 C 0.48156 0.35686 0.68467 0.0
C2078 C 0.49748 0.37745 0.68368 0.0
C2079 C 0.4691 0.31894 0.68869 0.0
C2080 C 0.45486 0.3132 0.70647 0.0
C2081 C 0.46759 0.30369 0.67314 0.0
C2082 C 0.48153 0.30901 0.65328 0.0
C2083 C 0.48332 0.3239 0.63735 0.0
C2084 C 0.49662 0.32895 0.61879 0.0
C2085 C 0.50811 0.31911 0.61589 0.0
C2086 C 0.50626 0.30415 0.63151 0.0
C2087 C 0.49299 0.29904 0.65011 0.0
C2088 C 0.38289 0.23254 0.69042 0.0
C2089 C 0.38573 0.21661 0.68175 0.0
C2090 C 0.39966 0.25191 0.69536 0.0
C2091 C 0.41976 0.25546 0.69338 0.0
C2092 C 0.42244 0.23855 0.6877 0.0
C2093 C 0.40554 0.21934 0.68152 0.0
C2094 C 0.43757 0.27713 0.69364 0.0
C2095 C 0.45201 0.28306 0.67589 0.0
C2096 C 0.43921 0.29255 0.70928 0.0
C2097 C 0.42485 0.2877 0.72866 0.0
C2098 C 0.42137 0.27199 0.74426 0.0
C2099 C 0.407 0.26682 0.76172 0.0
C2100 C 0.39608 0.27734 0.76384 0.0
C2101 C 0.3996 0.29314 0.74859 0.0
C2102 C 0.41397 0.29839 0.73112 0.0
H2103 H 0.38489 0.27325 0.77731 0.0
H2104 H 0.5184 0.32305 0.60151 0.0
H2105 H 0.64506 0.15717 0.72093 0.0
H2106 H 0.67946 0.16761 0.70666 0.0
H2107 H 0.6536 0.11598 0.65955 0.0
H2108 H 0.61898 0.10587 0.67321 0.0
H2109 H 0.6889 0.12282 0.69307 0.0
H2110 H 0.66907 0.15432 0.63378 0.0
H2111 H 0.65547 0.17603 0.61905 0.0
H2112 H 0.70352 0.22892 0.65404 0.0
H2113 H 0.71723 0.20742 0.66927 0.0
H2114 H 0.77728 0.14202 0.63765 0.0
H2115 H 0.74287 0.13737 0.63963 0.0
H2116 H 0.76669 0.19504 0.67662 0.0
H2117 H 0.80138 0.19981 0.67465 0.0
H2118 H 0.7321 0.18555 0.64704 0.0
H2119 H 0.75172 0.15558 0.70713 0.0
H2120 H 0.7657 0.13497 0.72407 0.0
H2121 H 0.71833 0.08028 0.69098 0.0
H2122 H 0.7043 0.10068 0.67345 0.0
C2123 C 0.64672 0.14821 0.70734 0.0
C2124 C 0.62945 0.13082 0.69807 0.0
C2125 C 0.66632 0.15419 0.6992 0.0
C2126 C 0.66898 0.14261 0.68202 0.0
C2127 C 0.65176 0.12516 0.67273 0.0
C2128 C 0.63206 0.11945 0.68049 0.0
C2129 C 0.68992 0.14825 0.67472 0.0
C2130 C 0.69823 0.13629 0.68263 0.0
C2131 C 0.70226 0.16628 0.66189 0.0
C2132 C 0.69403 0.17922 0.65287 0.0
C2133 C 0.6766 0.17053 0.63855 0.0
C2134 C 0.66891 0.1828 0.63005 0.0
C2135 C 0.67859 0.20383 0.63566 0.0
C2136 C 0.69602 0.21262 0.64974 0.0
C2137 C 0.70377 0.20041 0.65829 0.0
C2138 C 0.77533 0.15414 0.64536 0.0
C2139 C 0.79194 0.17118 0.65615 0.0
C2140 C 0.75564 0.1514 0.64661 0.0
C2141 C 0.75221 0.16561 0.65873 0.0
C2142 C 0.76906 0.18385 0.66727 0.0
C2143 C 0.78889 0.18665 0.66599 0.0
C2144 C 0.73098 0.1599 0.66505 0.0
C2145 C 0.7227 0.17194 0.65723 0.0
C2146 C 0.7187 0.14205 0.67829 0.0
C2147 C 0.72713 0.12972 0.68872 0.0
C2148 C 0.74442 0.13921 0.70324 0.0
C2149 C 0.75233 0.12755 0.71299 0.0
C2150 C 0.74295 0.10634 0.70854 0.0
C2151 C 0.72562 0.09673 0.69436 0.0
C2152 C 0.71768 0.10833 0.6845 0.0
H2153 H 0.74907 0.09733 0.71614 0.0
H2154 H 0.67262 0.21332 0.62905 0.0
H2155 H 0.84363 0.47569 0.69456 0.0
H2156 H 0.83493 0.50324 0.6938 0.0
H2157 H 0.89896 0.54885 0.68745 0.0
H2158 H 0.90777 0.52133 0.68787 0.0
H2159 H 0.87657 0.5571 0.72291 0.0
H2160 H 0.87304 0.54144 0.64276 0.0
H2161 H 0.86223 0.51894 0.60849 0.0
H2162 H 0.79913 0.49856 0.62316 0.0
H2163 H 0.80956 0.52077 0.65769 0.0
H2164 H 0.86608 0.64365 0.6962 0.0
H2165 H 0.8728 0.61602 0.70441 0.0
H2166 H 0.81118 0.57126 0.68284 0.0
H2167 H 0.80577 0.59968 0.67124 0.0
H2168 H 0.83322 0.5622 0.66204 0.0
H2169 H 0.83698 0.57838 0.74329 0.0
H2170 H 0.84874 0.60235 0.77639 0.0
H2171 H 0.91141 0.62218 0.75994 0.0
H2172 H 0.90003 0.59843 0.72671 0.0
C2173 C 0.85583 0.49157 0.69275 0.0
C2174 C 0.87633 0.49631 0.69119 0.0
C2175 C 0.85085 0.50728 0.69235 0.0
C2176 C 0.8663 0.52806 0.69057 0.0
C2177 C 0.88682 0.5329 0.68892 0.0
C2178 C 0.8918 0.51714 0.68907 0.0
C2179 C 0.86088 0.54465 0.69089 0.0
C2180 C 0.86717 0.55836 0.70959 0.0
C2181 C 0.84838 0.54602 0.67369 0.0
C2182 C 0.84207 0.53259 0.65297 0.0
C2183 C 0.85685 0.53201 0.63881 0.0
C2184 C 0.85079 0.51935 0.6193 0.0
C2185 C 0.83 0.50728 0.61369 0.0
C2186 C 0.81523 0.50789 0.62754 0.0
C2187 C 0.8212 0.52053 0.64707 0.0
C2188 C 0.85353 0.62786 0.69446 0.0
C2189 C 0.83537 0.6238 0.68323 0.0
C2190 C 0.85741 0.61184 0.69917 0.0
C2191 C 0.84253 0.59116 0.69449 0.0
C2192 C 0.82312 0.587 0.68641 0.0
C2193 C 0.81971 0.60322 0.68039 0.0
C2194 C 0.84816 0.57451 0.69469 0.0
C2195 C 0.84218 0.56084 0.67581 0.0
C2196 C 0.86086 0.57312 0.71187 0.0
C2197 C 0.86763 0.58663 0.73252 0.0
C2198 C 0.85326 0.58781 0.74679 0.0
C2199 C 0.85986 0.60138 0.76555 0.0
C2200 C 0.8808 0.61377 0.77026 0.0
C2201 C 0.89519 0.61253 0.75631 0.0
C2202 C 0.88867 0.59896 0.73757 0.0
H2203 H 0.88588 0.62434 0.78472 0.0
H2204 H 0.82534 0.49749 0.59858 0.0
H2205 H 0.49356 0.96212 0.27786 0.0
H2206 H 0.50084 0.97594 0.23866 0.0
H2207 H 0.4556 0.91617 0.21211 0.0
H2208 H 0.44804 0.90255 0.25125 0.0
H2209 H 0.49323 0.93473 0.18792 0.0
H2210 H 0.4425 0.95016 0.21496 0.0
H2211 H 0.427 0.96438 0.24117 0.0
H2212 H 0.47784 0.02559 0.23097 0.0
H2213 H 0.49385 0.01167 0.20499 0.0
H2214 H 0.47723 0.96194 0.07545 0.0
H2215 H 0.47652 0.94849 0.11378 0.0
H2216 H 0.51188 0.01093 0.13996 0.0
H2217 H 0.5114 0.02425 0.10188 0.0
H2218 H 0.48024 0.99107 0.16495 0.0
H2219 H 0.53034 0.9746 0.13593 0.0
H2220 H 0.54339 0.95926 0.10788 0.0
H2221 H 0.49191 0.899 0.12062 0.0
H2222 H 0.47837 0.91401 0.14851 0.0
C2223 C 0.4853 0.95202 0.26357 0.0
C2224 C 0.47031 0.93134 0.26733 0.0
C2225 C 0.4894 0.95987 0.24129 0.0
C2226 C 0.47874 0.94704 0.22254 0.0
C2227 C 0.46402 0.92627 0.22635 0.0
C2228 C 0.45968 0.91854 0.24861 0.0
C2229 C 0.48265 0.95532 0.19895 0.0
C2230 C 0.49033 0.94699 0.1828 0.0
C2231 C 0.479 0.97142 0.19244 0.0
C2232 C 0.46954 0.97982 0.20828 0.0
C2233 C 0.45052 0.96662 0.21853 0.0
C2234 C 0.44161 0.97463 0.2333 0.0
C2235 C 0.45147 0.99586 0.23781 0.0
C2236 C 0.47025 0.00913 0.22751 0.0
C2237 C 0.47925 0.00119 0.21277 0.0
C2238 C 0.48553 0.97271 0.08925 0.0
C2239 C 0.49463 0.99408 0.08579 0.0
C2240 C 0.48507 0.96505 0.11121 0.0
C2241 C 0.49423 0.97868 0.12989 0.0
C2242 C 0.50463 9e-05 0.12593 0.0
C2243 C 0.50462 0.00771 0.10414 0.0
C2244 C 0.49128 0.97082 0.15379 0.0
C2245 C 0.48355 0.97908 0.17004 0.0
C2246 C 0.49479 0.95459 0.16033 0.0
C2247 C 0.50329 0.94545 0.14421 0.0
C2248 C 0.52178 0.95809 0.13271 0.0
C2249 C 0.52925 0.94946 0.11683 0.0
C2250 C 0.51845 0.92819 0.11246 0.0
C2251 C 0.50024 0.91548 0.12404 0.0
C2252 C 0.49268 0.92403 0.13991 0.0
H2253 H 0.52421 0.92157 0.1001 0.0
H2254 H 0.44453 0.00205 0.24921 0.0
H2255 H 0.10639 0.57697 0.25569 0.0
H2256 H 0.09236 0.57077 0.21674 0.0
H2257 H 0.0451 0.50956 0.23606 0.0
H2258 H 0.05924 0.51564 0.27496 0.0
H2259 H 0.06251 0.50779 0.19801 0.0
H2260 H 0.03435 0.54864 0.22552 0.0
H2261 H 0.03454 0.57871 0.24339 0.0
H2262 H 0.07479 0.61822 0.19103 0.0
H2263 H 0.07504 0.5884 0.173 0.0
H2264 H 0.99263 0.48007 0.10789 0.0
H2265 H 0.00788 0.49471 0.14508 0.0
H2266 H 0.06167 0.54265 0.11194 0.0
H2267 H 0.04663 0.52765 0.07429 0.0
H2268 H 0.04371 0.55319 0.15496 0.0
H2269 H 0.06868 0.509 0.12645 0.0
H2270 H 0.06537 0.47715 0.10956 0.0
H2271 H 0.02753 0.44177 0.16564 0.0
H2272 H 0.03023 0.47335 0.18261 0.0
C2273 C 0.09277 0.56236 0.25172 0.0
C2274 C 0.0839 0.54677 0.26831 0.0
C2275 C 0.08478 0.55882 0.22946 0.0
C2276 C 0.06764 0.53972 0.22349 0.0
C2277 C 0.0584 0.52437 0.24025 0.0
C2278 C 0.06646 0.52785 0.26244 0.0
C2279 C 0.05997 0.53527 0.19951 0.0
C2280 C 0.05824 0.51764 0.18871 0.0
C2281 C 0.05484 0.54837 0.18716 0.0
C2282 C 0.05491 0.56635 0.19808 0.0
C2283 C 0.04341 0.56378 0.21795 0.0
C2284 C 0.04339 0.58077 0.22807 0.0
C2285 C 0.05472 0.60038 0.21839 0.0
C2286 C 0.06605 0.60303 0.19853 0.0
C2287 C 0.06613 0.58609 0.18835 0.0
C2288 C 0.0075 0.49405 0.10843 0.0
C2289 C 0.01854 0.50265 0.08821 0.0
C2290 C 0.01618 0.50232 0.12969 0.0
C2291 C 0.03597 0.51947 0.13114 0.0
C2292 C 0.04637 0.52932 0.11102 0.0
C2293 C 0.03771 0.52088 0.08957 0.0
C2294 C 0.04612 0.52571 0.15376 0.0
C2295 C 0.04826 0.54357 0.16428 0.0
C2296 C 0.0513 0.51263 0.16602 0.0
C2297 C 0.04945 0.49354 0.15565 0.0
C2298 C 0.05941 0.4944 0.13502 0.0
C2299 C 0.0577 0.47639 0.12547 0.0
C2300 C 0.0462 0.45744 0.13649 0.0
C2301 C 0.0364 0.45645 0.15709 0.0
C2302 C 0.03801 0.47441 0.16668 0.0
H2303 H 0.04494 0.44352 0.12909 0.0
H2304 H 0.05467 0.61351 0.22624 0.0
H2305 H 0.5052 0.5531 0.26894 0.0
H2306 H 0.51483 0.55164 0.22941 0.0
H2307 H 0.45255 0.52947 0.2073 0.0
H2308 H 0.44289 0.53194 0.24679 0.0
H2309 H 0.48092 0.51032 0.18802 0.0
H2310 H 0.47137 0.56968 0.1943 0.0
H2311 H 0.47512 0.6007 0.21391 0.0
H2312 H 0.54068 0.62859 0.21203 0.0
H2313 H 0.53727 0.5975 0.1928 0.0
H2314 H 0.50321 0.54345 0.06906 0.0
H2315 H 0.49143 0.54667 0.10708 0.0
H2316 H 0.54638 0.55246 0.13737 0.0
H2317 H 0.55767 0.54798 0.09943 0.0
H2318 H 0.51882 0.57928 0.15125 0.0
H2319 H 0.52666 0.51612 0.15058 0.0
H2320 H 0.52177 0.48442 0.13152 0.0
H2321 H 0.45759 0.46323 0.1228 0.0
H2322 H 0.46229 0.49517 0.14124 0.0
C2323 C 0.49347 0.54778 0.25574 0.0
C2324 C 0.47336 0.54306 0.26098 0.0
C2325 C 0.499 0.54686 0.2332 0.0
C2326 C 0.48445 0.54073 0.21553 0.0
C2327 C 0.46398 0.53431 0.22081 0.0
C2328 C 0.45847 0.5356 0.24339 0.0
C2329 C 0.49128 0.54279 0.19152 0.0
C2330 C 0.48899 0.52533 0.17988 0.0
C2331 C 0.50192 0.56242 0.18102 0.0
C2332 C 0.50406 0.58117 0.19241 0.0
C2333 C 0.48658 0.58232 0.19833 0.0
C2334 C 0.48864 0.59993 0.20932 0.0
C2335 C 0.50813 0.61658 0.21429 0.0
C2336 C 0.52559 0.61566 0.20822 0.0
C2337 C 0.5236 0.59805 0.19728 0.0
C2338 C 0.51323 0.5464 0.0837 0.0
C2339 C 0.53149 0.54575 0.08136 0.0
C2340 C 0.50635 0.54795 0.10542 0.0
C2341 C 0.51788 0.54937 0.12495 0.0
C2342 C 0.53718 0.55107 0.12243 0.0
C2343 C 0.54378 0.54886 0.10078 0.0
C2344 C 0.5088 0.54687 0.14793 0.0
C2345 C 0.51065 0.56425 0.15935 0.0
C2346 C 0.49768 0.52716 0.1582 0.0
C2347 C 0.49493 0.50822 0.14674 0.0
C2348 C 0.51161 0.5049 0.14417 0.0
C2349 C 0.50885 0.48685 0.13357 0.0
C2350 C 0.48941 0.47187 0.12581 0.0
C2351 C 0.47267 0.47491 0.12867 0.0
C2352 C 0.47539 0.493 0.13913 0.0
H2353 H 0.48728 0.45787 0.1177 0.0
H2354 H 0.5097 0.63022 0.22278 0.0
H2355 H 0.95547 0.45863 0.74995 0.0
H2356 H 0.96768 0.46041 0.78916 0.0
H2357 H 0.92748 0.4821 0.81261 0.0
H2358 H 0.91445 0.47954 0.77335 0.0
H2359 H 0.97216 0.50255 0.83151 0.0
H2360 H 0.90874 0.43852 0.82249 0.0
H2361 H 0.88446 0.40614 0.8026 0.0
H2362 H 0.92779 0.38484 0.80755 0.0
H2363 H 0.95251 0.41732 0.82709 0.0
H2364 H 0.95878 0.47056 0.94857 0.0
H2365 H 0.94645 0.46439 0.90892 0.0
H2366 H 0.00268 0.46772 0.88726 0.0
H2367 H 0.01543 0.4747 0.92707 0.0
H2368 H 0.94954 0.43435 0.86758 0.0
H2369 H 0.01509 0.50291 0.87119 0.0
H2370 H 0.038 0.53586 0.89102 0.0
H2371 H 0.98844 0.54847 0.8966 0.0
H2372 H 0.96513 0.51531 0.87725 0.0
C2373 C 0.94932 0.46394 0.76341 0.0
C2374 C 0.93374 0.46859 0.75868 0.0
C2375 C 0.95636 0.465 0.78574 0.0
C2376 C 0.94822 0.47108 0.80366 0.0
C2377 C 0.93383 0.4773 0.79887 0.0
C2378 C 0.92651 0.47595 0.77648 0.0
C2379 C 0.9539 0.46952 0.82745 0.0
C2380 C 0.96717 0.48766 0.83943 0.0
C2381 C 0.94741 0.45005 0.83763 0.0
C2382 C 0.93258 0.43047 0.82598 0.0
C2383 C 0.91319 0.42705 0.81909 0.0
C2384 C 0.89932 0.40865 0.80793 0.0
C2385 C 0.9046 0.39347 0.80374 0.0
C2386 C 0.92374 0.39664 0.81076 0.0
C2387 C 0.93768 0.41503 0.82188 0.0
C2388 C 0.96807 0.46895 0.93549 0.0
C2389 C 0.98788 0.47275 0.94076 0.0
C2390 C 0.96111 0.46564 0.91287 0.0
C2391 C 0.97382 0.46596 0.89527 0.0
C2392 C 0.99277 0.46761 0.90072 0.0
C2393 C 0.99991 0.47125 0.92342 0.0
C2394 C 0.96828 0.46737 0.87135 0.0
C2395 C 0.95477 0.4492 0.85949 0.0
C2396 C 0.97448 0.48681 0.86126 0.0
C2397 C 0.98831 0.50648 0.87327 0.0
C2398 C 0.00901 0.51254 0.87702 0.0
C2399 C 0.02208 0.53129 0.88809 0.0
C2400 C 0.01465 0.5442 0.89519 0.0
C2401 C 0.99414 0.5384 0.89121 0.0
C2402 C 0.98099 0.51962 0.88025 0.0
H2403 H 0.02481 0.55874 0.90368 0.0
H2404 H 0.89384 0.37922 0.79512 0.0
H2405 H 0.55499 0.49599 0.75082 0.0
H2406 H 0.54759 0.50148 0.79008 0.0
H2407 H 0.52409 0.43696 0.80469 0.0
H2408 H 0.5319 0.43136 0.76552 0.0
H2409 H 0.50021 0.45471 0.82363 0.0
H2410 H 0.56965 0.4673 0.8212 0.0
H2411 H 0.60445 0.48297 0.80513 0.0
H2412 H 0.61385 0.54365 0.81895 0.0
H2413 H 0.57896 0.52834 0.83474 0.0
H2414 H 0.52023 0.48372 0.9484 0.0
H2415 H 0.51845 0.46659 0.91149 0.0
H2416 H 0.53268 0.52257 0.87574 0.0
H2417 H 0.53383 0.53938 0.91174 0.0
H2418 H 0.56068 0.50368 0.87018 0.0
H2419 H 0.49177 0.4934 0.86365 0.0
H2420 H 0.45678 0.48075 0.87809 0.0
H2421 H 0.4468 0.4189 0.88058 0.0
H2422 H 0.48189 0.43129 0.86634 0.0
C2423 C 0.54828 0.48295 0.76236 0.0
C2424 C 0.54429 0.46329 0.7551 0.0
C2425 C 0.54392 0.48609 0.78473 0.0
C2426 C 0.53546 0.46965 0.80028 0.0
C2427 C 0.53057 0.44981 0.79288 0.0
C2428 C 0.53503 0.44666 0.77049 0.0
C2429 C 0.53317 0.47366 0.82462 0.0
C2430 C 0.51345 0.46504 0.834 0.0
C2431 C 0.55044 0.48741 0.83798 0.0
C2432 C 0.57164 0.49666 0.82904 0.0
C2433 C 0.5791 0.48398 0.82071 0.0
C2434 C 0.59884 0.4928 0.81164 0.0
C2435 C 0.61134 0.51429 0.81099 0.0
C2436 C 0.60415 0.52701 0.81946 0.0
C2437 C 0.5844 0.51826 0.8285 0.0
C2438 C 0.52242 0.49212 0.9326 0.0
C2439 C 0.52748 0.51299 0.93305 0.0
C2440 C 0.52152 0.48239 0.91162 0.0
C2441 C 0.52572 0.4935 0.89106 0.0
C2442 C 0.52958 0.51385 0.89147 0.0
C2443 C 0.53024 0.52341 0.91214 0.0
C2444 C 0.52777 0.48493 0.86905 0.0
C2445 C 0.5475 0.49284 0.86005 0.0
C2446 C 0.51056 0.47085 0.85597 0.0
C2447 C 0.48946 0.46328 0.86423 0.0
C2448 C 0.48216 0.47714 0.86747 0.0
C2449 C 0.46231 0.47001 0.87555 0.0
C2450 C 0.44959 0.44904 0.88032 0.0
C2451 C 0.45668 0.43514 0.8769 0.0
C2452 C 0.47654 0.4422 0.86881 0.0
H2453 H 0.43423 0.44355 0.8866 0.0
H2454 H 0.62662 0.52109 0.80394 0.0
H2455 H 0.56806 0.10543 0.77542 0.0
H2456 H 0.55641 0.09336 0.81436 0.0
H2457 H 0.50419 0.03832 0.78688 0.0
H2458 H 0.5154 0.05095 0.74798 0.0
H2459 H 0.49138 0.05333 0.81747 0.0
H2460 H 0.5461 0.03845 0.81572 0.0
H2461 H 0.58142 0.04549 0.80976 0.0
H2462 H 0.60351 0.09281 0.86168 0.0
H2463 H 0.56834 0.08623 0.86776 0.0
H2464 H 0.46654 0.99198 0.91931 0.0
H2465 H 0.47484 0.00803 0.8815 0.0
H2466 H 0.51512 0.06727 0.91289 0.0
H2467 H 0.50637 0.05128 0.95086 0.0
H2468 H 0.53422 0.05213 0.88153 0.0
H2469 H 0.4769 0.06362 0.88396 0.0
H2470 H 0.44064 0.05344 0.88974 0.0
H2471 H 0.42255 0.00819 0.83588 0.0
H2472 H 0.45869 0.01791 0.82998 0.0
C2473 C 0.55438 0.09054 0.77779 0.0
C2474 C 0.54265 0.07903 0.75884 0.0
C2475 C 0.5477 0.08362 0.80003 0.0
C2476 C 0.52942 0.06485 0.80366 0.0
C2477 C 0.51825 0.05291 0.78459 0.0
C2478 C 0.52472 0.06001 0.7624 0.0
C2479 C 0.5212 0.05829 0.82718 0.0
C2480 C 0.50073 0.05284 0.83136 0.0
C2481 C 0.53344 0.05805 0.84554 0.0
C2482 C 0.55461 0.06198 0.84203 0.0
C2483 C 0.55851 0.05046 0.82575 0.0
C2484 C 0.5785 0.05435 0.82237 0.0
C2485 C 0.59471 0.06963 0.83528 0.0
C2486 C 0.59094 0.081 0.85166 0.0
C2487 C 0.57098 0.07718 0.8551 0.0
C2488 C 0.47621 0.00862 0.91819 0.0
C2489 C 0.48559 0.02046 0.93795 0.0
C2490 C 0.48114 0.01775 0.89658 0.0
C2491 C 0.49576 0.03878 0.89442 0.0
C2492 C 0.50381 0.051 0.91424 0.0
C2493 C 0.49854 0.04193 0.93592 0.0
C2494 C 0.50449 0.04714 0.87161 0.0
C2495 C 0.52502 0.05284 0.86758 0.0
C2496 C 0.4922 0.04715 0.85329 0.0
C2497 C 0.47048 0.0414 0.85665 0.0
C2498 C 0.46517 0.0514 0.87346 0.0
C2499 C 0.44465 0.04573 0.87673 0.0
C2500 C 0.4293 0.03015 0.86321 0.0
C2501 C 0.43445 0.02025 0.84634 0.0
C2502 C 0.45496 0.02585 0.84301 0.0
H2503 H 0.41341 0.02578 0.86578 0.0
H2504 H 0.61017 0.07262 0.83263 0.0
H2505 H 0.10838 0.2396 0.58528 0.0
H2506 H 0.11731 0.2543 0.54675 0.0
H2507 H 0.1745 0.30422 0.57275 0.0
H2508 H 0.16579 0.28929 0.61139 0.0
H2509 H 0.14643 0.31403 0.54278 0.0
H2510 H 0.1803 0.27279 0.54538 0.0
H2511 H 0.18019 0.24014 0.55218 0.0
H2512 H 0.13285 0.20953 0.50135 0.0
H2513 H 0.13249 0.24194 0.49449 0.0
H2514 H 0.17996 0.35747 0.43484 0.0
H2515 H 0.18097 0.34469 0.47311 0.0
H2516 H 0.14084 0.28207 0.44956 0.0
H2517 H 0.14128 0.29487 0.41093 0.0
H2518 H 0.16257 0.27969 0.47987 0.0
H2519 H 0.124 0.31433 0.4776 0.0
H2520 H 0.11668 0.34263 0.47101 0.0
H2521 H 0.16295 0.38058 0.52034 0.0
H2522 H 0.17076 0.3526 0.52698 0.0
C2523 C 0.12287 0.25368 0.58274 0.0
C2524 C 0.13642 0.26334 0.60123 0.0
C2525 C 0.12796 0.26202 0.56078 0.0
C2526 C 0.14656 0.28028 0.55698 0.0
C2527 C 0.16009 0.29008 0.57541 0.0
C2528 C 0.15516 0.28153 0.59737 0.0
C2529 C 0.15165 0.28914 0.5337 0.0
C2530 C 0.1504 0.30686 0.52905 0.0
C2531 C 0.15577 0.27908 0.5157 0.0
C2532 C 0.15629 0.25974 0.51954 0.0
C2533 C 0.16979 0.25906 0.53577 0.0
C2534 C 0.16982 0.24061 0.53961 0.0
C2535 C 0.15649 0.22276 0.52723 0.0
C2536 C 0.14316 0.22336 0.51093 0.0
C2537 C 0.14306 0.24177 0.50703 0.0
C2538 C 0.17208 0.34094 0.43774 0.0
C2539 C 0.16073 0.32709 0.42005 0.0
C2540 C 0.17233 0.33364 0.45968 0.0
C2541 C 0.16037 0.31243 0.46456 0.0
C2542 C 0.15012 0.2985 0.4464 0.0
C2543 C 0.15045 0.30578 0.42427 0.0
C2544 C 0.15748 0.30487 0.48863 0.0
C2545 C 0.15896 0.28723 0.4935 0.0
C2546 C 0.15264 0.31452 0.50667 0.0
C2547 C 0.14816 0.33147 0.50255 0.0
C2548 C 0.13274 0.32878 0.48688 0.0
C2549 C 0.12849 0.34475 0.48317 0.0
C2550 C 0.13939 0.36342 0.49519 0.0
C2551 C 0.15456 0.36613 0.51099 0.0
C2552 C 0.15891 0.35023 0.51474 0.0
H2553 H 0.13606 0.37575 0.49231 0.0
H2554 H 0.15653 0.20849 0.53025 0.0
H2555 H 0.72588 0.88209 0.60781 0.0
H2556 H 0.71197 0.87599 0.56856 0.0
H2557 H 0.76313 0.87025 0.54494 0.0
H2558 H 0.77682 0.87595 0.58414 0.0
H2559 H 0.75327 0.89557 0.5168 0.0
H2560 H 0.7223 0.82888 0.5519 0.0
H2561 H 0.70288 0.80263 0.58114 0.0
H2562 H 0.64996 0.80859 0.56772 0.0
H2563 H 0.66921 0.8352 0.53867 0.0
H2564 H 0.71792 0.84405 0.4099 0.0
H2565 H 0.73237 0.85806 0.44761 0.0
H2566 H 0.67321 0.84732 0.46998 0.0
H2567 H 0.65847 0.83168 0.43261 0.0
H2568 H 0.68686 0.83242 0.49943 0.0
H2569 H 0.71876 0.89832 0.46086 0.0
H2570 H 0.73886 0.92197 0.42972 0.0
H2571 H 0.79085 0.91594 0.44831 0.0
H2572 H 0.77099 0.892 0.47931 0.0
C2573 C 0.73416 0.87967 0.59414 0.0
C2574 C 0.75233 0.87941 0.59881 0.0
C2575 C 0.72623 0.87616 0.57185 0.0
C2576 C 0.73657 0.87268 0.55396 0.0
C2577 C 0.75501 0.87298 0.55854 0.0
C2578 C 0.76273 0.87612 0.58086 0.0
C2579 C 0.72783 0.86802 0.53056 0.0
C2580 C 0.73876 0.88178 0.51289 0.0
C2581 C 0.70885 0.8501 0.52568 0.0
C2582 C 0.69731 0.83429 0.54337 0.0
C2583 C 0.70661 0.82482 0.5554 0.0
C2584 C 0.69562 0.80982 0.57189 0.0
C2585 C 0.67523 0.80401 0.57635 0.0
C2586 C 0.66578 0.81316 0.5643 0.0
C2587 C 0.67673 0.82821 0.54783 0.0
C2588 C 0.70824 0.84539 0.42268 0.0
C2589 C 0.68726 0.83725 0.41845 0.0
C2590 C 0.71648 0.85342 0.44425 0.0
C2591 C 0.70399 0.85411 0.46166 0.0
C2592 C 0.68318 0.84702 0.45686 0.0
C2593 C 0.67481 0.83834 0.4355 0.0
C2594 C 0.71207 0.86018 0.4854 0.0
C2595 C 0.70112 0.84654 0.50324 0.0
C2596 C 0.73111 0.87815 0.49035 0.0
C2597 C 0.74335 0.89331 0.47238 0.0
C2598 C 0.73448 0.90203 0.4583 0.0
C2599 C 0.74582 0.91546 0.44065 0.0
C2600 C 0.76611 0.92044 0.43703 0.0
C2601 C 0.77514 0.91209 0.45114 0.0
C2602 C 0.76386 0.89862 0.46878 0.0
H2603 H 0.77483 0.93078 0.4233 0.0
H2604 H 0.66672 0.79236 0.58909 0.0
H2605 H 0.16414 0.87183 0.60215 0.0
H2606 H 0.17502 0.87184 0.56273 0.0
H2607 H 0.12391 0.87731 0.53778 0.0
H2608 H 0.11271 0.87679 0.57736 0.0
H2609 H 0.13311 0.85367 0.50901 0.0
H2610 H 0.16953 0.91978 0.54745 0.0
H2611 H 0.18985 0.94282 0.57932 0.0
H2612 H 0.23819 0.92957 0.5662 0.0
H2613 H 0.21796 0.90607 0.53458 0.0
H2614 H 0.1751 0.8878 0.40091 0.0
H2615 H 0.16445 0.89334 0.43859 0.0
H2616 H 0.21172 0.8853 0.47056 0.0
H2617 H 0.22212 0.87943 0.433 0.0
H2618 H 0.20344 0.912 0.49514 0.0
H2619 H 0.16748 0.84482 0.45946 0.0
H2620 H 0.14728 0.81949 0.42926 0.0
H2621 H 0.09837 0.83263 0.43836 0.0
H2622 H 0.11852 0.85847 0.46825 0.0
C2623 C 0.15491 0.87239 0.58818 0.0
C2624 C 0.1377 0.87444 0.59265 0.0
C2625 C 0.16118 0.87254 0.56572 0.0
C2626 C 0.1506 0.87518 0.54738 0.0
C2627 C 0.13239 0.87544 0.55171 0.0
C2628 C 0.12595 0.87506 0.57426 0.0
C2629 C 0.15963 0.87964 0.52413 0.0
C2630 C 0.14832 0.86662 0.50586 0.0
C2631 C 0.17968 0.89637 0.52018 0.0
C2632 C 0.19216 0.91105 0.53872 0.0
C2633 C 0.18445 0.92171 0.55142 0.0
C2634 C 0.19595 0.93483 0.56946 0.0
C2635 C 0.21529 0.93764 0.5748 0.0
C2636 C 0.2232 0.92737 0.56206 0.0
C2637 C 0.21173 0.91414 0.54407 0.0
C2638 C 0.18405 0.88854 0.41586 0.0
C2639 C 0.19946 0.88323 0.41412 0.0
C2640 C 0.1777 0.89133 0.43742 0.0
C2641 C 0.18694 0.88914 0.45737 0.0
C2642 C 0.20428 0.88688 0.45539 0.0
C2643 C 0.21042 0.88381 0.4339 0.0
C2644 C 0.17691 0.88605 0.47996 0.0
C2645 C 0.18808 0.89926 0.49818 0.0
C2646 C 0.1568 0.86937 0.48389 0.0
C2647 C 0.1447 0.85389 0.46582 0.0
C2648 C 0.15254 0.84253 0.45482 0.0
C2649 C 0.14108 0.82804 0.43778 0.0
C2650 C 0.1216 0.82452 0.43181 0.0
C2651 C 0.11351 0.83545 0.44293 0.0
C2652 C 0.12497 0.85005 0.45989 0.0
H2653 H 0.11273 0.81329 0.41863 0.0
H2654 H 0.22415 0.9478 0.58879 0.0
H2655 H 0.61735 0.8268 0.09175 0.0
H2656 H 0.63137 0.8281 0.13028 0.0
H2657 H 0.57795 0.76956 0.14616 0.0
H2658 H 0.56389 0.76845 0.10806 0.0
H2659 H 0.59122 0.79654 0.18285 0.0
H2660 H 0.62225 0.77286 0.12413 0.0
H2661 H 0.64258 0.77874 0.08904 0.0
H2662 H 0.69304 0.83271 0.11965 0.0
H2663 H 0.67293 0.82729 0.15478 0.0
H2664 H 0.63221 0.78091 0.28295 0.0
H2665 H 0.61581 0.7711 0.24498 0.0
H2666 H 0.67263 0.81683 0.21419 0.0
H2667 H 0.6892 0.82468 0.25119 0.0
H2668 H 0.65558 0.79365 0.18398 0.0
H2669 H 0.63 0.82456 0.2376 0.0
H2670 H 0.61292 0.82718 0.27239 0.0
H2671 H 0.55739 0.77224 0.25255 0.0
H2672 H 0.57433 0.76893 0.21794 0.0
C2673 C 0.60841 0.81459 0.10379 0.0
C2674 C 0.58964 0.79748 0.09706 0.0
C2675 C 0.61647 0.81521 0.12564 0.0
C2676 C 0.60586 0.79868 0.14086 0.0
C2677 C 0.58643 0.78239 0.13465 0.0
C2678 C 0.57842 0.78177 0.11293 0.0
C2679 C 0.61536 0.79732 0.16259 0.0
C2680 C 0.60526 0.7958 0.1832 0.0
C2681 C 0.63392 0.79691 0.163 0.0
C2682 C 0.64605 0.79971 0.14202 0.0
C2683 C 0.63766 0.786 0.12334 0.0
C2684 C 0.64915 0.78926 0.10344 0.0
C2685 C 0.66908 0.8061 0.10211 0.0
C2686 C 0.67761 0.81968 0.12069 0.0
C2687 C 0.66619 0.8165 0.1406 0.0
C2688 C 0.64138 0.7879 0.26786 0.0
C2689 C 0.66183 0.80391 0.26998 0.0
C2690 C 0.6319 0.7827 0.24617 0.0
C2691 C 0.64258 0.79405 0.22668 0.0
C2692 C 0.66373 0.80796 0.22872 0.0
C2693 C 0.67329 0.81251 0.25005 0.0
C2694 C 0.6319 0.79357 0.20484 0.0
C2695 C 0.64159 0.79445 0.18396 0.0
C2696 C 0.61359 0.79466 0.20435 0.0
C2697 C 0.60353 0.79632 0.2254 0.0
C2698 C 0.61422 0.8129 0.2408 0.0
C2699 C 0.60457 0.81449 0.26049 0.0
C2700 C 0.58413 0.79978 0.26474 0.0
C2701 C 0.57328 0.78348 0.24931 0.0
C2702 C 0.58291 0.78171 0.2297 0.0
H2703 H 0.57666 0.80108 0.27994 0.0
H2704 H 0.67793 0.80861 0.08669 0.0
H2705 H 0.18856 0.80248 0.07992 0.0
H2706 H 0.18217 0.80945 0.11934 0.0
H2707 H 0.23917 0.81425 0.14135 0.0
H2708 H 0.24586 0.80788 0.10188 0.0
H2709 H 0.20197 0.78575 0.16699 0.0
H2710 H 0.2403 0.85545 0.14071 0.0
H2711 H 0.24861 0.88411 0.11415 0.0
H2712 H 0.19002 0.87878 0.12668 0.0
H2713 H 0.18117 0.84977 0.15303 0.0
H2714 H 0.20819 0.82573 0.28077 0.0
H2715 H 0.21124 0.81393 0.24278 0.0
H2716 H 0.16625 0.82846 0.2166 0.0
H2717 H 0.16437 0.84165 0.25439 0.0
H2718 H 0.19837 0.84727 0.19245 0.0
H2719 H 0.15704 0.76835 0.20201 0.0
H2720 H 0.14732 0.73559 0.2219 0.0
H2721 H 0.2104 0.758 0.23982 0.0
H2722 H 0.22052 0.79041 0.21896 0.0
C2723 C 0.19975 0.80522 0.0932 0.0
C2724 C 0.21768 0.80469 0.08803 0.0
C2725 C 0.19615 0.80923 0.1156 0.0
C2726 C 0.21024 0.81238 0.13315 0.0
C2727 C 0.22817 0.8119 0.12798 0.0
C2728 C 0.23199 0.80834 0.10552 0.0
C2729 C 0.20575 0.81517 0.15712 0.0
C2730 C 0.2014 0.79931 0.17269 0.0
C2731 C 0.20463 0.83265 0.16428 0.0
C2732 C 0.20997 0.85025 0.14865 0.0
C2733 C 0.22909 0.86023 0.13764 0.0
C2734 C 0.23392 0.87657 0.12264 0.0
C2735 C 0.21982 0.88322 0.11867 0.0
C2736 C 0.2009 0.87358 0.12975 0.0
C2737 C 0.19597 0.85719 0.14472 0.0
C2738 C 0.19816 0.82535 0.26717 0.0
C2739 C 0.18579 0.83426 0.27056 0.0
C2740 C 0.19989 0.81856 0.24532 0.0
C2741 C 0.18885 0.82006 0.2266 0.0
C2742 C 0.17498 0.82714 0.23063 0.0
C2743 C 0.17366 0.8344 0.25232 0.0
C2744 C 0.19408 0.81754 0.20259 0.0
C2745 C 0.19877 0.8336 0.18689 0.0
C2746 C 0.19548 0.80021 0.1952 0.0
C2747 C 0.18941 0.78194 0.20963 0.0
C2748 C 0.16876 0.76633 0.21044 0.0
C2749 C 0.16324 0.7477 0.2215 0.0
C2750 C 0.17821 0.74479 0.23229 0.0
C2751 C 0.19879 0.76033 0.23163 0.0
C2752 C 0.20445 0.77874 0.22001 0.0
H2753 H 0.17386 0.73046 0.24111 0.0
H2754 H 0.22359 0.89588 0.10706 0.0
H2755 H 0.21194 0.44714 0.10827 0.0
H2756 H 0.19972 0.43299 0.14656 0.0
H2757 H 0.19826 0.37654 0.12677 0.0
H2758 H 0.21092 0.3909 0.08852 0.0
H2759 H 0.16097 0.37117 0.14601 0.0
H2760 H 0.23272 0.40494 0.16286 0.0
H2761 H 0.26834 0.43394 0.16403 0.0
H2762 H 0.24986 0.46908 0.20592 0.0
H2763 H 0.21403 0.44037 0.20472 0.0
H2764 H 0.14726 0.32115 0.25148 0.0
H2765 H 0.15391 0.33682 0.214 0.0
H2766 H 0.16716 0.39498 0.24468 0.0
H2767 H 0.16161 0.37933 0.28284 0.0
H2768 H 0.19741 0.40099 0.21947 0.0
H2769 H 0.12494 0.36493 0.20431 0.0
H2770 H 0.08989 0.33485 0.20309 0.0
H2771 H 0.10984 0.30298 0.15792 0.0
H2772 H 0.14505 0.33275 0.15907 0.0
C2773 C 0.20946 0.43191 0.11236 0.0
C2774 C 0.21254 0.42014 0.0957 0.0
C2775 C 0.20244 0.42383 0.13412 0.0
C2776 C 0.19809 0.40374 0.13945 0.0
C2777 C 0.20156 0.3921 0.12296 0.0
C2778 C 0.20893 0.40033 0.10127 0.0
C2779 C 0.18889 0.39457 0.16184 0.0
C2780 C 0.16895 0.37752 0.16212 0.0
C2781 C 0.19915 0.40328 0.18276 0.0
C2782 C 0.22065 0.42061 0.18346 0.0
C2783 C 0.2362 0.41893 0.17211 0.0
C2784 C 0.25644 0.4353 0.17283 0.0
C2785 C 0.26135 0.45337 0.18497 0.0
C2786 C 0.24603 0.45509 0.19648 0.0
C2787 C 0.22575 0.43877 0.1958 0.0
C2788 C 0.15077 0.33707 0.25021 0.0
C2789 C 0.15401 0.34905 0.27006 0.0
C2790 C 0.15452 0.34606 0.22863 0.0
C2791 C 0.16101 0.36715 0.22629 0.0
C2792 C 0.16223 0.37868 0.24601 0.0
C2793 C 0.15873 0.36968 0.2678 0.0
C2794 C 0.16923 0.37747 0.20389 0.0
C2795 C 0.18914 0.39475 0.20349 0.0
C2796 C 0.15892 0.36889 0.18283 0.0
C2797 C 0.13766 0.35107 0.18186 0.0
C2798 C 0.12187 0.35147 0.1942 0.0
C2799 C 0.10197 0.33448 0.1935 0.0
C2800 C 0.09765 0.31701 0.18045 0.0
C2801 C 0.1132 0.31652 0.16801 0.0
C2802 C 0.13313 0.33348 0.16863 0.0
H2803 H 0.08223 0.30386 0.17997 0.0
H2804 H 0.27703 0.46602 0.18552 0.0
H2805 H 0.77867 0.57405 0.91812 0.0
H2806 H 0.78691 0.58831 0.87925 0.0
H2807 H 0.83879 0.64391 0.90594 0.0
H2808 H 0.83089 0.62937 0.94483 0.0
H2809 H 0.80781 0.64694 0.87335 0.0
H2810 H 0.85145 0.61627 0.882 0.0
H2811 H 0.85695 0.58714 0.89093 0.0
H2812 H 0.81465 0.55078 0.83751 0.0
H2813 H 0.80865 0.57959 0.82852 0.0
H2814 H 0.84569 0.69399 0.76888 0.0
H2815 H 0.84583 0.68106 0.80724 0.0
H2816 H 0.81296 0.6184 0.78125 0.0
H2817 H 0.81398 0.6315 0.74257 0.0
H2818 H 0.83497 0.61897 0.81446 0.0
H2819 H 0.78841 0.6438 0.80546 0.0
H2820 H 0.776 0.66795 0.79653 0.0
H2821 H 0.81491 0.70945 0.84927 0.0
H2822 H 0.8278 0.68569 0.85829 0.0
C2823 C 0.79181 0.58931 0.91559 0.0
C2824 C 0.80419 0.6007 0.93423 0.0
C2825 C 0.79651 0.59738 0.8935 0.0
C2826 C 0.81348 0.61707 0.88983 0.0
C2827 C 0.82567 0.62866 0.90852 0.0
C2828 C 0.8212 0.62039 0.9306 0.0
C2829 C 0.81837 0.62555 0.86642 0.0
C2830 C 0.81414 0.64119 0.86053 0.0
C2831 C 0.8256 0.61718 0.84956 0.0
C2832 C 0.82947 0.60001 0.85474 0.0
C2833 C 0.84319 0.602 0.8723 0.0
C2834 C 0.84642 0.58556 0.87734 0.0
C2835 C 0.83612 0.5671 0.86483 0.0
C2836 C 0.82261 0.56507 0.8472 0.0
C2837 C 0.8193 0.58146 0.84211 0.0
C2838 C 0.83927 0.67751 0.77128 0.0
C2839 C 0.82989 0.6637 0.7529 0.0
C2840 C 0.83904 0.6701 0.79323 0.0
C2841 C 0.8287 0.64872 0.79734 0.0
C2842 C 0.82086 0.63496 0.7786 0.0
C2843 C 0.82157 0.64243 0.75646 0.0
C2844 C 0.82476 0.6408 0.82121 0.0
C2845 C 0.82893 0.62507 0.82723 0.0
C2846 C 0.81668 0.64854 0.83801 0.0
C2847 C 0.80928 0.66309 0.83234 0.0
C2848 C 0.79449 0.65818 0.81499 0.0
C2849 C 0.78734 0.67178 0.80994 0.0
C2850 C 0.79472 0.69025 0.82227 0.0
C2851 C 0.80925 0.69516 0.83969 0.0
C2852 C 0.81649 0.68164 0.84477 0.0
H2853 H 0.78913 0.70074 0.81837 0.0
H2854 H 0.83863 0.55438 0.86877 0.0
H2855 H 0.43135 0.24293 0.92207 0.0
H2856 H 0.4177 0.23741 0.88303 0.0
H2857 H 0.38025 0.17218 0.89594 0.0
H2858 H 0.39262 0.17758 0.93551 0.0
H2859 H 0.41117 0.18835 0.85486 0.0
H2860 H 0.35328 0.18743 0.89096 0.0
H2861 H 0.33608 0.20105 0.91542 0.0
H2862 H 0.35958 0.25539 0.87374 0.0
H2863 H 0.37721 0.24219 0.84922 0.0
H2864 H 0.33591 0.13614 0.7723 0.0
H2865 H 0.35104 0.15291 0.80848 0.0
H2866 H 0.38399 0.21182 0.77476 0.0
H2867 H 0.36922 0.1949 0.7376 0.0
H2868 H 0.35947 0.20477 0.82388 0.0
H2869 H 0.41334 0.20079 0.7839 0.0
H2870 H 0.42764 0.18384 0.75997 0.0
H2871 H 0.40966 0.13581 0.80984 0.0
H2872 H 0.3948 0.15221 0.83386 0.0
C2873 C 0.41977 0.22747 0.91694 0.0
C2874 C 0.41321 0.21068 0.93206 0.0
C2875 C 0.41214 0.22436 0.89452 0.0
C2876 C 0.39809 0.20441 0.88671 0.0
C2877 C 0.39118 0.18768 0.90173 0.0
C2878 C 0.39842 0.19082 0.92428 0.0
C2879 C 0.3915 0.20077 0.86247 0.0
C2880 C 0.39993 0.19199 0.84803 0.0
C2881 C 0.3771 0.20586 0.85363 0.0
C2882 C 0.36687 0.21402 0.86854 0.0
C2883 C 0.35505 0.20243 0.88723 0.0
C2884 C 0.34514 0.21003 0.90104 0.0
C2885 C 0.34682 0.22912 0.89621 0.0
C2886 C 0.35836 0.24064 0.87752 0.0
C2887 C 0.36832 0.23311 0.86366 0.0
C2888 C 0.34622 0.15272 0.77236 0.0
C2889 C 0.35158 0.16413 0.75188 0.0
C2890 C 0.35482 0.16225 0.79316 0.0
C2891 C 0.36877 0.18346 0.79416 0.0
C2892 C 0.37327 0.19534 0.77416 0.0
C2893 C 0.36479 0.18569 0.75303 0.0
C2894 C 0.37917 0.19236 0.81622 0.0
C2895 C 0.37126 0.20182 0.83047 0.0
C2896 C 0.39391 0.18766 0.82498 0.0
C2897 C 0.40274 0.17764 0.81056 0.0
C2898 C 0.41217 0.18647 0.78964 0.0
C2899 C 0.42043 0.17699 0.77609 0.0
C2900 C 0.41952 0.15875 0.78337 0.0
C2901 C 0.41033 0.14993 0.80422 0.0
C2902 C 0.40199 0.15932 0.81781 0.0
H2903 H 0.42602 0.15153 0.77288 0.0
H2904 H 0.3391 0.23496 0.90689 0.0
H2905 H 0.79841 0.18206 0.93131 0.0
H2906 H 0.80864 0.17999 0.89222 0.0
H2907 H 0.84528 0.24657 0.89005 0.0
H2908 H 0.83325 0.2489 0.9275 0.0
H2909 H 0.82677 0.23557 0.85345 0.0
H2910 H 0.86522 0.21054 0.89498 0.0
H2911 H 0.87035 0.18804 0.9218 0.0
H2912 H 0.83002 0.13475 0.88126 0.0
H2913 H 0.82442 0.15688 0.85438 0.0
H2914 H 0.86638 0.22551 0.74183 0.0
H2915 H 0.86653 0.23536 0.7824 0.0
H2916 H 0.81741 0.17366 0.79651 0.0
H2917 H 0.81702 0.16385 0.7572 0.0
H2918 H 0.84916 0.18681 0.82743 0.0
H2919 H 0.80777 0.21195 0.78944 0.0
H2920 H 0.80074 0.23444 0.76468 0.0
H2921 H 0.84735 0.28817 0.79994 0.0
H2922 H 0.85484 0.26602 0.82467 0.0
C2923 C 0.80848 0.19628 0.92248 0.0
C2924 C 0.81511 0.21563 0.93299 0.0
C2925 C 0.81468 0.19506 0.90019 0.0
C2926 C 0.82815 0.21313 0.88821 0.0
C2927 C 0.835 0.23236 0.89884 0.0
C2928 C 0.82833 0.23362 0.92066 0.0
C2929 C 0.83409 0.21234 0.86408 0.0
C2930 C 0.83215 0.22522 0.84795 0.0
C2931 C 0.84085 0.19869 0.85664 0.0
C2932 C 0.84431 0.18538 0.87274 0.0
C2933 C 0.85736 0.19402 0.89186 0.0
C2934 C 0.86035 0.18132 0.90706 0.0
C2935 C 0.85049 0.15998 0.90325 0.0
C2936 C 0.83764 0.15128 0.8842 0.0
C2937 C 0.83457 0.1639 0.86896 0.0
C2938 C 0.85566 0.21415 0.75366 0.0
C2939 C 0.84174 0.19391 0.74612 0.0
C2940 C 0.85573 0.21977 0.77675 0.0
C2941 C 0.84205 0.20513 0.79245 0.0
C2942 C 0.82821 0.18513 0.7848 0.0
C2943 C 0.82799 0.17963 0.76208 0.0
C2944 C 0.84157 0.20984 0.81703 0.0
C2945 C 0.84442 0.1976 0.83323 0.0
C2946 C 0.83575 0.22413 0.82458 0.0
C2947 C 0.83212 0.23736 0.80861 0.0
C2948 C 0.81679 0.22858 0.79161 0.0
C2949 C 0.81265 0.24126 0.77766 0.0
C2950 C 0.82364 0.26273 0.78072 0.0
C2951 C 0.8389 0.27156 0.79756 0.0
C2952 C 0.84312 0.25895 0.8115 0.0
H2953 H 0.82026 0.27256 0.77021 0.0
H2954 H 0.85283 0.15018 0.91505 0.0
H2955 H 0.29014 0.15358 0.41728 0.0
H2956 H 0.30397 0.15296 0.45547 0.0
H2957 H 0.24848 0.09591 0.47043 0.0
H2958 H 0.23478 0.09655 0.43262 0.0
H2959 H 0.2607 0.12436 0.50534 0.0
H2960 H 0.29127 0.0955 0.45538 0.0
H2961 H 0.31184 0.09632 0.42223 0.0
H2962 H 0.36447 0.15003 0.45012 0.0
H2963 H 0.34413 0.14975 0.48324 0.0
H2964 H 0.29807 0.11592 0.61271 0.0
H2965 H 0.28323 0.10433 0.57421 0.0
H2966 H 0.34017 0.15069 0.54443 0.0
H2967 H 0.35508 0.16135 0.5824 0.0
H2968 H 0.32502 0.12233 0.51611 0.0
H2969 H 0.29498 0.1615 0.55004 0.0
H2970 H 0.2759 0.1706 0.57723 0.0
H2971 H 0.22721 0.10727 0.57841 0.0
H2972 H 0.24572 0.09809 0.55008 0.0
C2973 C 0.28089 0.14115 0.42896 0.0
C2974 C 0.26144 0.12516 0.42223 0.0
C2975 C 0.28884 0.14064 0.45056 0.0
C2976 C 0.27735 0.12418 0.46558 0.0
C2977 C 0.25764 0.10865 0.45905 0.0
C2978 C 0.24981 0.10908 0.43755 0.0
C2979 C 0.28543 0.12322 0.48846 0.0
C2980 C 0.27455 0.12347 0.50769 0.0
C2981 C 0.30383 0.12275 0.49149 0.0
C2982 C 0.31612 0.12267 0.47173 0.0
C2983 C 0.30719 0.10756 0.45438 0.0
C2984 C 0.31882 0.10793 0.43559 0.0
C2985 C 0.33944 0.12324 0.43406 0.0
C2986 C 0.34849 0.13819 0.45133 0.0
C2987 C 0.33692 0.13792 0.47012 0.0
C2988 C 0.30761 0.12293 0.59786 0.0
C2989 C 0.32765 0.13964 0.60048 0.0
C2990 C 0.29901 0.11663 0.57586 0.0
C2991 C 0.31029 0.12714 0.55629 0.0
C2992 C 0.33097 0.14237 0.55905 0.0
C2993 C 0.33955 0.14847 0.58086 0.0
C2994 C 0.30049 0.12393 0.53321 0.0
C2995 C 0.31094 0.12276 0.51383 0.0
C2996 C 0.28208 0.12438 0.52988 0.0
C2997 C 0.27189 0.12906 0.54852 0.0
C2998 C 0.28036 0.14949 0.55643 0.0
C2999 C 0.26956 0.15468 0.5719 0.0
C3000 C 0.25047 0.13945 0.57996 0.0
C3001 C 0.24206 0.11902 0.57232 0.0
C3002 C 0.25262 0.11384 0.55641 0.0
H3003 H 0.2421 0.14352 0.59193 0.0
H3004 H 0.34841 0.1235 0.4195 0.0
H3005 H 0.84824 0.12356 0.41179 0.0
H3006 H 0.84099 0.13006 0.45093 0.0
H3007 H 0.90433 0.15341 0.46972 0.0
H3008 H 0.91159 0.14678 0.43082 0.0
H3009 H 0.87856 0.12681 0.5015 0.0
H3010 H 0.88796 0.18625 0.46108 0.0
H3011 H 0.8824 0.20599 0.43093 0.0
H3012 H 0.81955 0.1799 0.45117 0.0
H3013 H 0.82466 0.15973 0.48126 0.0
H3014 H 0.8952 0.18958 0.59821 0.0
H3015 H 0.89407 0.17444 0.56073 0.0
H3016 H 0.8288 0.15075 0.55667 0.0
H3017 H 0.82998 0.16604 0.59463 0.0
H3018 H 0.85079 0.17336 0.51794 0.0
H3019 H 0.84553 0.11726 0.56334 0.0
H3020 H 0.85585 0.10295 0.59543 0.0
H3021 H 0.91605 0.12793 0.56691 0.0
H3022 H 0.90618 0.14261 0.5348 0.0
C3023 C 0.86057 0.13004 0.42432 0.0
C3024 C 0.88049 0.13475 0.41828 0.0
C3025 C 0.85644 0.13382 0.4466 0.0
C3026 C 0.87214 0.14225 0.46319 0.0
C3027 C 0.892 0.14686 0.45718 0.0
C3028 C 0.89616 0.14324 0.43492 0.0
C3029 C 0.86797 0.14629 0.48686 0.0
C3030 C 0.8725 0.13699 0.5051 0.0
C3031 C 0.85985 0.1594 0.49151 0.0
C3032 C 0.8566 0.17122 0.47319 0.0
C3033 C 0.87288 0.1845 0.45892 0.0
C3034 C 0.86983 0.19582 0.44188 0.0
C3035 C 0.85061 0.19413 0.43907 0.0
C3036 C 0.83441 0.18114 0.45332 0.0
C3037 C 0.83737 0.16975 0.47037 0.0
C3038 C 0.88056 0.18075 0.58949 0.0
C3039 C 0.86264 0.17872 0.59915 0.0
C3040 C 0.87991 0.17211 0.56814 0.0
C3041 C 0.86133 0.16133 0.55604 0.0
C3042 C 0.84325 0.15892 0.56587 0.0
C3043 C 0.84388 0.16746 0.58749 0.0
C3044 C 0.8614 0.1539 0.53253 0.0
C3045 C 0.85627 0.16269 0.51429 0.0
C3046 C 0.86941 0.14069 0.5279 0.0
C3047 C 0.87511 0.13107 0.54666 0.0
C3048 C 0.86097 0.11971 0.56391 0.0
C3049 C 0.86675 0.11155 0.58212 0.0
C3050 C 0.88659 0.11454 0.58321 0.0
C3051 C 0.90067 0.12559 0.56602 0.0
C3052 C 0.89497 0.1338 0.54778 0.0
H3053 H 0.89106 0.10829 0.59737 0.0
H3054 H 0.84829 0.20294 0.4259 0.0
H3055 H 0.88306 0.72789 0.42222 0.0
H3056 H 0.8713 0.71398 0.46084 0.0
H3057 H 0.85582 0.76147 0.47371 0.0
H3058 H 0.86775 0.77549 0.43557 0.0
H3059 H 0.87484 0.75464 0.51081 0.0
H3060 H 0.81962 0.71263 0.45491 0.0
H3061 H 0.80682 0.68935 0.42124 0.0
H3062 H 0.82095 0.64681 0.4547 0.0
H3063 H 0.83403 0.66993 0.48843 0.0
H3064 H 0.8241 0.71277 0.61447 0.0
H3065 H 0.82876 0.72756 0.5759 0.0
H3066 H 0.82353 0.67155 0.54738 0.0
H3067 H 0.8163 0.65625 0.58475 0.0
H3068 H 0.81418 0.68444 0.51673 0.0
H3069 H 0.87114 0.7211 0.56912 0.0
H3070 H 0.89089 0.74296 0.60202 0.0
H3071 H 0.88393 0.79286 0.57608 0.0
H3072 H 0.86327 0.77098 0.5437 0.0
C3073 C 0.87745 0.73549 0.43349 0.0
C3074 C 0.87605 0.75258 0.42586 0.0
C3075 C 0.87062 0.72749 0.45543 0.0
C3076 C 0.86237 0.73652 0.46997 0.0
C3077 C 0.86199 0.75419 0.46273 0.0
C3078 C 0.86871 0.76211 0.44091 0.0
C3079 C 0.85329 0.72731 0.4924 0.0
C3080 C 0.86152 0.7393 0.51228 0.0
C3081 C 0.83634 0.70711 0.49422 0.0
C3082 C 0.82786 0.69304 0.47413 0.0
C3083 C 0.82002 0.69833 0.45505 0.0
C3084 C 0.81273 0.68516 0.43596 0.0
C3085 C 0.81309 0.66662 0.43583 0.0
C3086 C 0.82067 0.66116 0.45482 0.0
C3087 C 0.82799 0.67427 0.47393 0.0
C3088 C 0.8228 0.70333 0.59971 0.0
C3089 C 0.82023 0.68351 0.60261 0.0
C3090 C 0.82604 0.71197 0.57767 0.0
C3091 C 0.82768 0.70121 0.55855 0.0
C3092 C 0.82268 0.68055 0.56147 0.0
C3093 C 0.81854 0.67171 0.58307 0.0
C3094 C 0.83614 0.71138 0.53598 0.0
C3095 C 0.82763 0.69972 0.51576 0.0
C3096 C 0.8537 0.73144 0.53408 0.0
C3097 C 0.8653 0.74423 0.55421 0.0
C3098 C 0.8735 0.7366 0.57067 0.0
C3099 C 0.88482 0.74899 0.58927 0.0
C3100 C 0.88848 0.76922 0.59129 0.0
C3101 C 0.88085 0.7771 0.5747 0.0
C3102 C 0.8692 0.76466 0.55632 0.0
H3103 H 0.89734 0.77883 0.60561 0.0
H3104 H 0.80747 0.65647 0.42102 0.0
loop_
_geom_bond_atom_site_label_1
_geom_bond_atom_site_label_2
_geom_bond_distance
_geom_bond_site_symmetry_2
_ccdc_geom_bond_type
H0 C5 0.930 . S
H1 C8 0.930 . S
H2 C10 0.930 . S
H3 C4 1.016 . S
C4 H3 1.016 . S
C4 N11 1.286 . S
C5 H0 0.930 . S
C5 C6 1.397 . S
C5 C7 1.361 . S
C6 C5 1.397 . S
C6 C10 1.390 . S
C7 C5 1.361 . S
C7 C8 1.393 . S
C7 N11 1.413 . S
C8 H1 0.930 . S
C8 C7 1.393 . S
C8 C9 1.399 . S
C9 C8 1.399 . S
C9 C10 1.381 . S
C10 H2 0.930 . S
C10 C6 1.390 . S
C10 C9 1.381 . S
N11 C4 1.286 . S
N11 C7 1.413 . S
H12 C17 0.930 . S
H13 C20 0.930 . S
H14 C22 0.930 . S
H15 C16 1.016 . S
C16 H15 1.016 . S
C16 N23 1.286 . S
C17 H12 0.930 . S
C17 C18 1.397 . S
C17 C19 1.361 . S
C18 C17 1.397 . S
C18 C22 1.390 . S
C19 C17 1.361 . S
C19 C20 1.393 . S
C19 N23 1.413 . S
C20 H13 0.930 . S
C20 C19 1.393 . S
C20 C21 1.399 . S
C21 C20 1.399 . S
C21 C22 1.381 . S
C22 H14 0.930 . S
C22 C18 1.390 . S
C22 C21 1.381 . S
N23 C16 1.286 . S
N23 C19 1.413 . S
H24 C29 0.930 . S
H25 C32 0.930 . S
H26 C34 0.930 . S
H27 C28 1.016 . S
C28 H27 1.016 . S
C28 N35 1.286 . S
C29 H24 0.930 . S
C29 C30 1.397 . S
C29 C31 1.361 . S
C30 C29 1.397 . S
C30 C34 1.390 . S
C31 C29 1.361 . S
C31 C32 1.393 . S
C31 N35 1.413 . S
C32 H25 0.930 . S
C32 C31 1.393 . S
C32 C33 1.399 . S
C33 C32 1.399 . S
C33 C34 1.381 . S
C34 H26 0.930 . S
C34 C30 1.390 . S
C34 C33 1.381 . S
N35 C28 1.286 . S
N35 C31 1.413 . S
H36 C41 0.930 . S
H37 C44 0.930 . S
H38 C46 0.930 . S
H39 C40 1.016 . S
C40 H39 1.016 . S
C40 N47 1.286 . S
C41 H36 0.930 . S
C41 C42 1.397 . S
C41 C43 1.361 . S
C42 C41 1.397 . S
C42 C46 1.390 . S
C43 C41 1.361 . S
C43 C44 1.393 . S
C43 N47 1.413 . S
C44 H37 0.930 . S
C44 C43 1.393 . S
C44 C45 1.399 . S
C45 C44 1.399 . S
C45 C46 1.381 . S
C46 H38 0.930 . S
C46 C42 1.390 . S
C46 C45 1.381 . S
N47 C40 1.286 . S
N47 C43 1.413 . S
H48 C53 0.930 . S
H49 C56 0.930 . S
H50 C58 0.930 . S
H51 C52 1.016 . S
C52 H51 1.016 . S
C52 N59 1.286 . S
C53 H48 0.930 . S
C53 C54 1.397 . S
C53 C55 1.361 . S
C54 C53 1.397 . S
C54 C58 1.390 . S
C55 C53 1.361 . S
C55 C56 1.393 . S
C55 N59 1.413 . S
C56 H49 0.930 . S
C56 C55 1.393 . S
C56 C57 1.399 . S
C57 C56 1.399 . S
C57 C58 1.381 . S
C58 H50 0.930 . S
C58 C54 1.390 . S
C58 C57 1.381 . S
N59 C52 1.286 . S
N59 C55 1.413 . S
H60 C65 0.930 . S
H61 C68 0.930 . S
H62 C70 0.930 . S
H63 C64 1.016 . S
C64 H63 1.016 . S
C64 N71 1.286 . S
C65 H60 0.930 . S
C65 C66 1.397 . S
C65 C67 1.361 . S
C66 C65 1.397 . S
C66 C70 1.390 . S
C67 C65 1.361 . S
C67 C68 1.393 . S
C67 N71 1.413 . S
C68 H61 0.930 . S
C68 C67 1.393 . S
C68 C69 1.399 . S
C69 C68 1.399 . S
C69 C70 1.381 . S
C70 H62 0.930 . S
C70 C66 1.390 . S
C70 C69 1.381 . S
N71 C64 1.286 . S
N71 C67 1.413 . S
H72 C77 0.930 . S
H73 C80 0.930 . S
H74 C82 0.930 . S
H75 C76 1.016 . S
C76 H75 1.016 . S
C76 N83 1.286 . S
C77 H72 0.930 . S
C77 C78 1.397 . S
C77 C79 1.361 . S
C78 C77 1.397 . S
C78 C82 1.390 . S
C79 C77 1.361 . S
C79 C80 1.393 . S
C79 N83 1.413 . S
C80 H73 0.930 . S
C80 C79 1.393 . S
C80 C81 1.399 . S
C81 C80 1.399 . S
C81 C82 1.381 . S
C82 H74 0.930 . S
C82 C78 1.390 . S
C82 C81 1.381 . S
N83 C76 1.286 . S
N83 C79 1.413 . S
H84 C89 0.930 . S
H85 C92 0.930 . S
H86 C94 0.930 . S
H87 C88 1.016 . S
C88 H87 1.016 . S
C88 N95 1.286 . S
C89 H84 0.930 . S
C89 C90 1.397 . S
C89 C91 1.361 . S
C90 C89 1.397 . S
C90 C94 1.390 . S
C91 C89 1.361 . S
C91 C92 1.393 . S
C91 N95 1.413 . S
C92 H85 0.930 . S
C92 C91 1.393 . S
C92 C93 1.399 . S
C93 C92 1.399 . S
C93 C94 1.381 . S
C94 H86 0.930 . S
C94 C90 1.390 . S
C94 C93 1.381 . S
N95 C88 1.286 . S
N95 C91 1.413 . S
H96 C101 0.930 . S
H97 C104 0.930 . S
H98 C106 0.930 . S
H99 C100 1.016 . S
C100 H99 1.016 . S
C100 N107 1.286 . S
C101 H96 0.930 . S
C101 C102 1.397 . S
C101 C103 1.361 . S
C102 C101 1.397 . S
C102 C106 1.390 . S
C103 C101 1.361 . S
C103 C104 1.393 . S
C103 N107 1.413 . S
C104 H97 0.930 . S
C104 C103 1.393 . S
C104 C105 1.399 . S
C105 C104 1.399 . S
C105 C106 1.381 . S
C106 H98 0.930 . S
C106 C102 1.390 . S
C106 C105 1.381 . S
N107 C100 1.286 . S
N107 C103 1.413 . S
H108 C113 0.930 . S
H109 C116 0.930 . S
H110 C118 0.930 . S
H111 C112 1.016 1_556 S
C112 H111 1.016 1_554 S
C112 N119 1.286 . S
C113 H108 0.930 . S
C113 C114 1.397 1_554 S
C113 C115 1.361 1_554 S
C114 C113 1.397 1_556 S
C114 C118 1.390 . S
C115 C113 1.361 1_556 S
C115 C116 1.393 . S
C115 N119 1.413 1_556 S
C116 H109 0.930 . S
C116 C115 1.393 . S
C116 C117 1.399 . S
C117 C116 1.399 . S
C117 C118 1.381 . S
C118 H110 0.930 . S
C118 C114 1.390 . S
C118 C117 1.381 . S
N119 C112 1.286 . S
N119 C115 1.413 1_554 S
H120 C125 0.930 . S
H121 C128 0.930 . S
H122 C130 0.930 . S
H123 C124 1.016 1_556 S
C124 H123 1.016 1_554 S
C124 N131 1.286 . S
C125 H120 0.930 . S
C125 C126 1.397 1_554 S
C125 C127 1.364 . S
C126 C125 1.397 1_556 S
C126 C130 1.390 . S
C127 C125 1.364 . S
C127 C128 1.388 1_554 S
C127 N131 1.416 . S
C128 H121 0.930 . S
C128 C127 1.388 1_556 S
C128 C129 1.399 . S
C129 C128 1.399 . S
C129 C130 1.381 . S
C130 H122 0.930 . S
C130 C126 1.390 . S
C130 C129 1.381 . S
N131 C124 1.286 . S
N131 C127 1.416 . S
H132 C137 0.930 . S
H133 C140 0.930 . S
H134 C142 0.930 . S
H135 C136 1.016 . S
C136 H135 1.016 . S
C136 N143 1.286 1_556 S
C137 H132 0.930 . S
C137 C138 1.397 1_554 S
C137 C139 1.361 1_554 S
C138 C137 1.397 1_556 S
C138 C142 1.390 . S
C139 C137 1.361 1_556 S
C139 C140 1.393 . S
C139 N143 1.413 1_556 S
C140 H133 0.930 . S
C140 C139 1.393 . S
C140 C141 1.399 . S
C141 C140 1.399 . S
C141 C142 1.381 . S
C142 H134 0.930 . S
C142 C138 1.390 . S
C142 C141 1.381 . S
N143 C136 1.286 1_554 S
N143 C139 1.413 1_554 S
H144 C149 0.930 . S
H145 C152 0.930 . S
H146 C154 0.930 . S
H147 C148 1.016 . S
C148 H147 1.016 . S
C148 N155 1.286 . S
C149 H144 0.930 . S
C149 C150 1.397 . S
C149 C151 1.361 . S
C150 C149 1.397 . S
C150 C154 1.390 . S
C151 C149 1.361 . S
C151 C152 1.393 . S
C151 N155 1.413 . S
C152 H145 0.930 . S
C152 C151 1.393 . S
C152 C153 1.399 . S
C153 C152 1.399 . S
C153 C154 1.381 . S
C154 H146 0.930 . S
C154 C150 1.390 . S
C154 C153 1.381 . S
N155 C148 1.286 . S
N155 C151 1.413 . S
H156 C161 0.930 1_556 S
H157 C164 0.930 . S
H158 C166 0.930 . S
H159 C160 1.016 . S
C160 H159 1.016 . S
C160 N167 1.286 . S
C161 H156 0.930 1_554 S
C161 C162 1.397 . S
C161 C163 1.361 . S
C162 C161 1.397 . S
C162 C166 1.390 . S
C163 C161 1.361 . S
C163 C164 1.393 . S
C163 N167 1.413 . S
C164 H157 0.930 . S
C164 C163 1.393 . S
C164 C165 1.399 . S
C165 C164 1.399 . S
C165 C166 1.381 . S
C166 H158 0.930 . S
C166 C162 1.390 . S
C166 C165 1.381 . S
N167 C160 1.286 . S
N167 C163 1.413 . S
H168 C173 0.930 . S
H169 C176 0.930 . S
H170 C178 0.930 . S
H171 C172 1.016 . S
C172 H171 1.016 . S
C172 N179 1.286 . S
C173 H168 0.930 . S
C173 C174 1.397 . S
C173 C175 1.361 . S
C174 C173 1.397 . S
C174 C178 1.390 . S
C175 C173 1.361 . S
C175 C176 1.393 . S
C175 N179 1.413 . S
C176 H169 0.930 . S
C176 C175 1.393 . S
C176 C177 1.399 . S
C177 C176 1.399 . S
C177 C178 1.381 . S
C178 H170 0.930 . S
C178 C174 1.390 . S
C178 C177 1.381 . S
N179 C172 1.286 . S
N179 C175 1.413 . S
H180 C185 0.930 . S
H181 C188 0.930 . S
H182 C190 0.930 . S
H183 C184 1.016 . S
C184 H183 1.016 . S
C184 N191 1.286 . S
C185 H180 0.930 . S
C185 C186 1.397 . S
C185 C187 1.361 . S
C186 C185 1.397 . S
C186 C190 1.390 . S
C187 C185 1.361 . S
C187 C188 1.393 . S
C187 N191 1.413 . S
C188 H181 0.930 . S
C188 C187 1.393 . S
C188 C189 1.399 . S
C189 C188 1.399 . S
C189 C190 1.381 . S
C190 H182 0.930 . S
C190 C186 1.390 . S
C190 C189 1.381 . S
N191 C184 1.286 . S
N191 C187 1.413 . S
H192 C197 0.930 . S
H193 C200 0.930 . S
H194 C202 0.930 . S
H195 C196 1.016 . S
C196 H195 1.016 . S
C196 N203 1.286 . S
C197 H192 0.930 . S
C197 C198 1.397 . S
C197 C199 1.361 . S
C198 C197 1.397 . S
C198 C202 1.390 . S
C199 C197 1.361 . S
C199 C200 1.393 . S
C199 N203 1.413 . S
C200 H193 0.930 . S
C200 C199 1.393 . S
C200 C201 1.399 . S
C201 C200 1.399 . S
C201 C202 1.381 . S
C202 H194 0.930 . S
C202 C198 1.390 . S
C202 C201 1.381 . S
N203 C196 1.286 . S
N203 C199 1.413 . S
H204 C209 0.930 . S
H205 C212 0.930 . S
H206 C214 0.930 . S
H207 C208 1.016 . S
C208 H207 1.016 . S
C208 N215 1.286 . S
C209 H204 0.930 . S
C209 C210 1.397 . S
C209 C211 1.361 . S
C210 C209 1.397 . S
C210 C214 1.390 . S
C211 C209 1.361 . S
C211 C212 1.393 . S
C211 N215 1.413 . S
C212 H205 0.930 . S
C212 C211 1.393 . S
C212 C213 1.399 . S
C213 C212 1.399 . S
C213 C214 1.381 . S
C214 H206 0.930 . S
C214 C210 1.390 . S
C214 C213 1.381 . S
N215 C208 1.286 . S
N215 C211 1.413 . S
O216 Mn217 2.163 1_565 S
O216 C230 1.244 . S
Mn217 O216 2.163 1_545 S
Mn217 O220 2.160 . S
Mn217 O221 2.221 1_545 S
Mn217 O223 2.163 1_554 S
Mn217 O225 2.160 . S
Mn217 O235 2.221 . S
O218 Mn219 2.087 1_565 S
O218 C230 1.256 . S
Mn219 O218 2.087 1_545 S
Mn219 O226 2.089 1_545 S
Mn219 O235 2.290 . S
Mn219 O236 2.251 . S
O220 Mn217 2.160 . S
O220 C231 1.239 . S
O221 Mn217 2.221 1_565 S
O221 Mn222 2.290 1_564 S
O221 C232 1.278 . S
Mn222 O221 2.290 1_546 S
Mn222 O224 2.089 . S
Mn222 O227 2.251 1_545 S
Mn222 O228 2.087 . S
O223 Mn217 2.163 1_556 S
O223 C233 1.244 . S
O224 Mn222 2.089 . S
O224 C231 1.256 1_556 S
O225 Mn217 2.160 . S
O225 C234 1.239 1_545 S
O226 Mn219 2.089 1_565 S
O226 C234 1.256 . S
O227 Mn222 2.251 1_565 S
O227 C232 1.241 1_556 S
O228 Mn222 2.087 . S
O228 C233 1.256 . S
C229 O235 1.278 . S
C229 O236 1.241 . S
C230 O216 1.244 . S
C230 O218 1.256 . S
C231 O220 1.239 . S
C231 O224 1.256 1_554 S
C232 O221 1.278 . S
C232 O227 1.241 1_554 S
C233 O223 1.244 . S
C233 O228 1.256 . S
C234 O225 1.239 1_565 S
C234 O226 1.256 . S
O235 Mn217 2.221 . S
O235 Mn219 2.290 . S
O235 C229 1.278 . S
O236 Mn219 2.251 . S
O236 C229 1.241 . S
O237 Mn238 2.163 . S
O237 C251 1.244 . S
Mn238 O237 2.163 . S
Mn238 O241 2.160 1_455 S
Mn238 O242 2.221 . S
Mn238 O244 2.163 1_454 S
Mn238 O246 2.160 . S
Mn238 O256 2.221 1_455 S
O239 Mn240 2.087 . S
O239 C251 1.256 . S
Mn240 O239 2.087 . S
Mn240 O247 2.089 . S
Mn240 O256 2.290 1_455 S
Mn240 O257 2.251 1_455 S
O241 Mn238 2.160 1_655 S
O241 C252 1.239 . S
O242 Mn238 2.221 . S
O242 Mn243 2.290 1_554 S
O242 C253 1.278 . S
Mn243 O242 2.290 1_556 S
Mn243 O245 2.089 1_455 S
Mn243 O248 2.251 . S
Mn243 O249 2.087 . S
O244 Mn238 2.163 1_656 S
O244 C254 1.244 . S
O245 Mn243 2.089 1_655 S
O245 C252 1.256 1_556 S
O246 Mn238 2.160 . S
O246 C255 1.239 . S
O247 Mn240 2.089 . S
O247 C255 1.256 . S
O248 Mn243 2.251 . S
O248 C253 1.241 1_556 S
O249 Mn243 2.087 . S
O249 C254 1.256 1_455 S
C250 O256 1.278 . S
C250 O257 1.241 . S
C251 O237 1.244 . S
C251 O239 1.256 . S
C252 O241 1.239 . S
C252 O245 1.256 1_554 S
C253 O242 1.278 . S
C253 O248 1.241 1_554 S
C254 O244 1.244 . S
C254 O249 1.256 1_655 S
C255 O246 1.239 . S
C255 O247 1.256 . S
O256 Mn238 2.221 1_655 S
O256 Mn240 2.290 1_655 S
O256 C250 1.278 . S
O257 Mn240 2.251 1_655 S
O257 C250 1.241 . S
O258 Mn259 2.163 . S
O258 C272 1.244 . S
Mn259 O258 2.163 . S
Mn259 O262 2.160 . S
Mn259 O263 2.221 . S
Mn259 O265 2.163 . S
Mn259 O267 2.160 1_554 S
Mn259 O277 2.221 1_554 S
O260 Mn261 2.087 . S
O260 C272 1.256 1_556 S
Mn261 O260 2.087 . S
Mn261 O268 2.089 . S
Mn261 O277 2.290 . S
Mn261 O278 2.251 1_556 S
O262 Mn259 2.160 . S
O262 C273 1.239 . S
O263 Mn259 2.221 . S
O263 Mn264 2.290 . S
O263 C274 1.278 . S
Mn264 O263 2.290 . S
Mn264 O266 2.089 . S
Mn264 O269 2.251 . S
Mn264 O270 2.087 . S
O265 Mn259 2.163 . S
O265 C275 1.244 . S
O266 Mn264 2.089 . S
O266 C273 1.256 . S
O267 Mn259 2.160 1_556 S
O267 C276 1.239 . S
O268 Mn261 2.089 . S
O268 C276 1.256 . S
O269 Mn264 2.251 . S
O269 C274 1.241 . S
O270 Mn264 2.087 . S
O270 C275 1.256 . S
C271 O277 1.278 1_554 S
C271 O278 1.241 . S
C272 O258 1.244 . S
C272 O260 1.256 1_554 S
C273 O262 1.239 . S
C273 O266 1.256 . S
C274 O263 1.278 . S
C274 O269 1.241 . S
C275 O265 1.244 . S
C275 O270 1.256 . S
C276 O267 1.239 . S
C276 O268 1.256 . S
O277 Mn259 2.221 1_556 S
O277 Mn261 2.290 . S
O277 C271 1.278 1_556 S
O278 Mn261 2.251 1_554 S
O278 C271 1.241 . S
O279 Mn280 2.163 . S
O279 C293 1.244 . S
Mn280 O279 2.163 . S
Mn280 O283 2.160 . S
Mn280 O284 2.221 . S
Mn280 O286 2.163 . S
Mn280 O288 2.160 . S
Mn280 O298 2.221 . S
O281 Mn282 2.087 . S
O281 C293 1.256 . S
Mn282 O281 2.087 . S
Mn282 O289 2.089 . S
Mn282 O298 2.290 . S
Mn282 O299 2.251 . S
O283 Mn280 2.160 . S
O283 C294 1.239 . S
O284 Mn280 2.221 . S
O284 Mn285 2.290 . S
O284 C295 1.278 . S
Mn285 O284 2.290 . S
Mn285 O287 2.089 . S
Mn285 O290 2.251 . S
Mn285 O291 2.087 . S
O286 Mn280 2.163 . S
O286 C296 1.244 . S
O287 Mn285 2.089 . S
O287 C294 1.256 . S
O288 Mn280 2.160 . S
O288 C297 1.239 . S
O289 Mn282 2.089 . S
O289 C297 1.256 . S
O290 Mn285 2.251 . S
O290 C295 1.241 . S
O291 Mn285 2.087 . S
O291 C296 1.256 . S
C292 O298 1.278 . S
C292 O299 1.241 . S
C293 O279 1.244 . S
C293 O281 1.256 . S
C294 O283 1.239 . S
C294 O287 1.256 . S
C295 O284 1.278 . S
C295 O290 1.241 . S
C296 O286 1.244 . S
C296 O291 1.256 . S
C297 O288 1.239 . S
C297 O289 1.256 . S
O298 Mn280 2.221 . S
O298 Mn282 2.290 . S
O298 C292 1.278 . S
O299 Mn282 2.251 . S
O299 C292 1.241 . S
O300 Mn301 2.163 . S
O300 C314 1.244 . S
Mn301 O300 2.163 . S
Mn301 O304 2.160 . S
Mn301 O305 2.221 . S
Mn301 O307 2.163 . S
Mn301 O309 2.160 . S
Mn301 O319 2.221 . S
O302 Mn303 2.087 . S
O302 C314 1.256 . S
Mn303 O302 2.087 . S
Mn303 O310 2.089 . S
Mn303 O319 2.290 . S
Mn303 O320 2.251 . S
O304 Mn301 2.160 . S
O304 C315 1.239 . S
O305 Mn301 2.221 . S
O305 Mn306 2.290 . S
O305 C316 1.278 . S
Mn306 O305 2.290 . S
Mn306 O308 2.089 . S
Mn306 O311 2.251 . S
Mn306 O312 2.087 . S
O307 Mn301 2.163 . S
O307 C317 1.244 . S
O308 Mn306 2.089 . S
O308 C315 1.256 . S
O309 Mn301 2.160 . S
O309 C318 1.239 . S
O310 Mn303 2.089 . S
O310 C318 1.256 . S
O311 Mn306 2.251 . S
O311 C316 1.241 . S
O312 Mn306 2.087 . S
O312 C317 1.256 . S
C313 O319 1.278 . S
C313 O320 1.241 . S
C314 O300 1.244 . S
C314 O302 1.256 . S
C315 O304 1.239 . S
C315 O308 1.256 . S
C316 O305 1.278 . S
C316 O311 1.241 . S
C317 O307 1.244 . S
C317 O312 1.256 . S
C318 O309 1.239 . S
C318 O310 1.256 . S
O319 Mn301 2.221 . S
O319 Mn303 2.290 . S
O319 C313 1.278 . S
O320 Mn303 2.251 . S
O320 C313 1.241 . S
O321 Mn322 2.163 . S
O321 C335 1.244 . S
Mn322 O321 2.163 . S
Mn322 O325 2.160 . S
Mn322 O326 2.221 . S
Mn322 O328 2.163 . S
Mn322 O330 2.160 . S
Mn322 O340 2.221 . S
O323 Mn324 2.087 . S
O323 C335 1.256 . S
Mn324 O323 2.087 . S
Mn324 O331 2.089 . S
Mn324 O340 2.290 . S
Mn324 O341 2.251 . S
O325 Mn322 2.160 . S
O325 C336 1.239 . S
O326 Mn322 2.221 . S
O326 Mn327 2.290 . S
O326 C337 1.278 . S
Mn327 O326 2.290 . S
Mn327 O329 2.089 . S
Mn327 O332 2.251 . S
Mn327 O333 2.087 . S
O328 Mn322 2.163 . S
O328 C338 1.244 . S
O329 Mn327 2.089 . S
O329 C336 1.256 . S
O330 Mn322 2.160 . S
O330 C339 1.239 . S
O331 Mn324 2.089 . S
O331 C339 1.256 . S
O332 Mn327 2.251 . S
O332 C337 1.241 . S
O333 Mn327 2.087 . S
O333 C338 1.256 . S
C334 O340 1.278 . S
C334 O341 1.241 . S
C335 O321 1.244 . S
C335 O323 1.256 . S
C336 O325 1.239 . S
C336 O329 1.256 . S
C337 O326 1.278 . S
C337 O332 1.241 . S
C338 O328 1.244 . S
C338 O333 1.256 . S
C339 O330 1.239 . S
C339 O331 1.256 . S
O340 Mn322 2.221 . S
O340 Mn324 2.290 . S
O340 C334 1.278 . S
O341 Mn324 2.251 . S
O341 C334 1.241 . S
O342 Mn343 2.163 . S
O342 C356 1.244 . S
Mn343 O342 2.163 . S
Mn343 O346 2.160 . S
Mn343 O347 2.221 . S
Mn343 O349 2.163 . S
Mn343 O351 2.160 . S
Mn343 O361 2.221 . S
O344 Mn345 2.087 . S
O344 C356 1.256 . S
Mn345 O344 2.087 . S
Mn345 O352 2.089 . S
Mn345 O361 2.290 . S
Mn345 O362 2.251 . S
O346 Mn343 2.160 . S
O346 C357 1.239 . S
O347 Mn343 2.221 . S
O347 Mn348 2.290 . S
O347 C358 1.278 . S
Mn348 O347 2.290 . S
Mn348 O350 2.089 . S
Mn348 O353 2.251 . S
Mn348 O354 2.087 . S
O349 Mn343 2.163 . S
O349 C359 1.244 . S
O350 Mn348 2.089 . S
O350 C357 1.256 . S
O351 Mn343 2.160 . S
O351 C360 1.239 . S
O352 Mn345 2.089 . S
O352 C360 1.256 . S
O353 Mn348 2.251 . S
O353 C358 1.241 . S
O354 Mn348 2.087 . S
O354 C359 1.256 . S
C355 O361 1.278 . S
C355 O362 1.241 . S
C356 O342 1.244 . S
C356 O344 1.256 . S
C357 O346 1.239 . S
C357 O350 1.256 . S
C358 O347 1.278 . S
C358 O353 1.241 . S
C359 O349 1.244 . S
C359 O354 1.256 . S
C360 O351 1.239 . S
C360 O352 1.256 . S
O361 Mn343 2.221 . S
O361 Mn345 2.290 . S
O361 C355 1.278 . S
O362 Mn345 2.251 . S
O362 C355 1.241 . S
O363 Mn364 2.163 . S
O363 C377 1.244 . S
Mn364 O363 2.163 . S
Mn364 O367 2.160 . S
Mn364 O368 2.221 . S
Mn364 O370 2.163 . S
Mn364 O372 2.160 . S
Mn364 O382 2.221 . S
O365 Mn366 2.087 . S
O365 C377 1.256 . S
Mn366 O365 2.087 . S
Mn366 O373 2.089 . S
Mn366 O382 2.290 . S
Mn366 O383 2.251 . S
O367 Mn364 2.160 . S
O367 C378 1.239 . S
O368 Mn364 2.221 . S
O368 Mn369 2.290 . S
O368 C379 1.278 . S
Mn369 O368 2.290 . S
Mn369 O371 2.089 . S
Mn369 O374 2.251 . S
Mn369 O375 2.087 . S
O370 Mn364 2.163 . S
O370 C380 1.244 . S
O371 Mn369 2.089 . S
O371 C378 1.256 . S
O372 Mn364 2.160 . S
O372 C381 1.239 . S
O373 Mn366 2.089 . S
O373 C381 1.256 . S
O374 Mn369 2.251 . S
O374 C379 1.241 . S
O375 Mn369 2.087 . S
O375 C380 1.256 . S
C376 O382 1.278 . S
C376 O383 1.241 . S
C377 O363 1.244 . S
C377 O365 1.256 . S
C378 O367 1.239 . S
C378 O371 1.256 . S
C379 O368 1.278 . S
C379 O374 1.241 . S
C380 O370 1.244 . S
C380 O375 1.256 . S
C381 O372 1.239 . S
C381 O373 1.256 . S
O382 Mn364 2.221 . S
O382 Mn366 2.290 . S
O382 C376 1.278 . S
O383 Mn366 2.251 . S
O383 C376 1.241 . S
O384 Mn385 2.163 . S
O384 C398 1.244 . S
Mn385 O384 2.163 . S
Mn385 O388 2.160 . S
Mn385 O389 2.221 . S
Mn385 O391 2.163 . S
Mn385 O393 2.160 . S
Mn385 O403 2.221 . S
O386 Mn387 2.087 . S
O386 C398 1.256 . S
Mn387 O386 2.087 . S
Mn387 O394 2.089 . S
Mn387 O403 2.290 . S
Mn387 O404 2.251 . S
O388 Mn385 2.160 . S
O388 C399 1.239 . S
O389 Mn385 2.221 . S
O389 Mn390 2.290 . S
O389 C400 1.278 . S
Mn390 O389 2.290 . S
Mn390 O392 2.089 . S
Mn390 O395 2.251 . S
Mn390 O396 2.087 . S
O391 Mn385 2.163 . S
O391 C401 1.244 . S
O392 Mn390 2.089 . S
O392 C399 1.256 . S
O393 Mn385 2.160 . S
O393 C402 1.239 . S
O394 Mn387 2.089 . S
O394 C402 1.256 . S
O395 Mn390 2.251 . S
O395 C400 1.241 . S
O396 Mn390 2.087 . S
O396 C401 1.256 . S
C397 O403 1.278 . S
C397 O404 1.241 . S
C398 O384 1.244 . S
C398 O386 1.256 . S
C399 O388 1.239 . S
C399 O392 1.256 . S
C400 O389 1.278 . S
C400 O395 1.241 . S
C401 O391 1.244 . S
C401 O396 1.256 . S
C402 O393 1.239 . S
C402 O394 1.256 . S
O403 Mn385 2.221 . S
O403 Mn387 2.290 . S
O403 C397 1.278 . S
O404 Mn387 2.251 . S
O404 C397 1.241 . S
H405 C423 0.951 . S
H406 C425 0.951 . S
H407 C427 0.950 . S
H408 C428 0.950 . S
H409 C430 0.950 1_556 S
H410 C433 0.950 . S
H411 C434 0.950 . S
H412 C436 0.950 . S
H413 C437 0.950 . S
H414 C438 0.951 . S
H415 C440 0.951 . S
H416 C442 0.950 . S
H417 C443 0.950 . S
H418 C445 0.950 . S
H419 C448 0.950 . S
H420 C449 0.950 . S
H421 C451 0.950 . S
H422 C452 0.950 . S
C423 H405 0.951 . S
C423 C424 1.366 . S
C423 C425 1.388 . S
C424 C423 1.366 . S
C424 C428 1.385 . S
C425 H406 0.951 . S
C425 C423 1.388 . S
C425 C426 1.366 . S
C426 C425 1.366 . S
C426 C427 1.414 . S
C426 C429 1.499 . S
C427 H407 0.950 . S
C427 C426 1.414 . S
C427 C428 1.374 . S
C428 H408 0.950 . S
C428 C424 1.385 . S
C428 C427 1.374 . S
C429 C426 1.499 . S
C429 C430 1.373 . S
C429 C431 1.389 . S
C430 H409 0.950 1_554 S
C430 C429 1.373 . S
C430 C446 1.377 . S
C431 C429 1.389 . S
C431 C432 1.524 . S
C431 C445 1.377 . S
C432 C431 1.524 . S
C432 C433 1.397 . S
C432 C437 1.363 . S
C433 H410 0.950 . S
C433 C432 1.397 . S
C433 C434 1.334 . S
C434 H411 0.950 . S
C434 C433 1.334 . S
C434 C435 1.287 . S
C435 C434 1.287 . S
C435 C436 1.524 . S
C435 H454 0.913 . S
C436 H412 0.950 . S
C436 C435 1.524 . S
C436 C437 1.415 . S
C437 H413 0.950 . S
C437 C432 1.363 . S
C437 C436 1.415 . S
C438 H414 0.951 . S
C438 C439 1.366 . S
C438 C440 1.388 . S
C439 C438 1.366 . S
C439 C443 1.385 . S
C440 H415 0.951 . S
C440 C438 1.388 . S
C440 C441 1.366 . S
C441 C440 1.366 . S
C441 C442 1.414 . S
C441 C444 1.499 . S
C442 H416 0.950 . S
C442 C441 1.414 . S
C442 C443 1.374 . S
C443 H417 0.950 . S
C443 C439 1.385 . S
C443 C442 1.374 . S
C444 C441 1.499 . S
C444 C445 1.373 . S
C444 C446 1.389 . S
C445 H418 0.950 . S
C445 C431 1.377 . S
C445 C444 1.373 . S
C446 C430 1.377 . S
C446 C444 1.389 . S
C446 C447 1.524 1_554 S
C447 C446 1.524 1_556 S
C447 C448 1.397 . S
C447 C452 1.363 . S
C448 H419 0.950 . S
C448 C447 1.397 . S
C448 C449 1.334 . S
C449 H420 0.950 . S
C449 C448 1.334 . S
C449 C450 1.287 . S
C450 C449 1.287 . S
C450 C451 1.524 . S
C450 H453 0.999 . S
C451 H421 0.950 . S
C451 C450 1.524 . S
C451 C452 1.415 . S
C452 H422 0.950 . S
C452 C447 1.363 . S
C452 C451 1.415 . S
H453 C450 0.999 . S
H454 C435 0.913 . S
H455 C473 0.951 . S
H456 C475 0.951 . S
H457 C477 0.950 1_556 S
H458 C478 0.950 1_556 S
H459 C480 0.950 . S
H460 C483 0.950 1_556 S
H461 C484 0.962 . S
H462 C486 0.950 . S
H463 C487 0.950 . S
H464 C488 0.931 1_556 S
H465 C490 0.951 1_556 S
H466 C492 0.950 . S
H467 C493 0.950 . S
H468 C495 0.950 . S
H469 C498 0.950 . S
H470 C499 0.950 . S
H471 C501 0.950 1_556 S
H472 C502 0.950 1_556 S
C473 H455 0.951 . S
C473 C474 1.366 . S
C473 C475 1.388 . S
C474 C473 1.366 . S
C474 C478 1.385 . S
C475 H456 0.951 . S
C475 C473 1.388 . S
C475 C476 1.366 . S
C476 C475 1.366 . S
C476 C477 1.414 . S
C476 C479 1.499 . S
C477 H457 0.950 1_554 S
C477 C476 1.414 . S
C477 C478 1.374 . S
C478 H458 0.950 1_554 S
C478 C474 1.385 . S
C478 C477 1.374 . S
C479 C476 1.499 . S
C479 C480 1.373 . S
C479 C481 1.389 . S
C480 H459 0.950 . S
C480 C479 1.373 . S
C480 C496 1.377 . S
C481 C479 1.389 . S
C481 C482 1.524 . S
C481 C495 1.377 . S
C482 C481 1.524 . S
C482 C483 1.397 . S
C482 C487 1.363 . S
C483 H460 0.950 1_554 S
C483 C482 1.397 . S
C483 C484 1.332 1_554 S
C484 H461 0.962 . S
C484 C483 1.332 1_556 S
C484 C485 1.276 1_556 S
C485 C484 1.276 1_554 S
C485 C486 1.524 . S
C485 H504 0.913 . S
C486 H462 0.950 . S
C486 C485 1.524 . S
C486 C487 1.415 . S
C487 H463 0.950 . S
C487 C482 1.363 . S
C487 C486 1.415 . S
C488 H464 0.931 1_554 S
C488 C489 1.384 . S
C488 C490 1.390 . S
C489 C488 1.384 . S
C489 C493 1.385 . S
C490 H465 0.951 1_554 S
C490 C488 1.390 . S
C490 C491 1.366 . S
C491 C490 1.366 . S
C491 C492 1.414 . S
C491 C494 1.499 . S
C492 H466 0.950 . S
C492 C491 1.414 . S
C492 C493 1.374 . S
C493 H467 0.950 . S
C493 C489 1.385 . S
C493 C492 1.374 . S
C494 C491 1.499 . S
C494 C495 1.373 . S
C494 C496 1.389 . S
C495 H468 0.950 . S
C495 C481 1.377 . S
C495 C494 1.373 . S
C496 C480 1.377 . S
C496 C494 1.389 . S
C496 C497 1.524 . S
C497 C496 1.524 . S
C497 C498 1.397 . S
C497 C502 1.363 . S
C498 H469 0.950 . S
C498 C497 1.397 . S
C498 C499 1.334 . S
C499 H470 0.950 . S
C499 C498 1.334 . S
C499 C500 1.287 . S
C500 C499 1.287 . S
C500 C501 1.524 . S
C500 H503 0.999 . S
C501 H471 0.950 1_554 S
C501 C500 1.524 . S
C501 C502 1.415 . S
C502 H472 0.950 1_554 S
C502 C497 1.363 . S
C502 C501 1.415 . S
H503 C500 0.999 . S
H504 C485 0.913 . S
H505 C523 0.951 . S
H506 C525 0.951 . S
H507 C527 0.950 1_556 S
H508 C528 0.950 1_556 S
H509 C530 0.950 . S
H510 C533 0.950 . S
H511 C534 0.950 . S
H512 C536 0.950 . S
H513 C537 0.950 . S
H514 C538 0.942 1_556 S
H515 C540 0.951 1_556 S
H516 C542 0.950 . S
H517 C543 0.950 . S
H518 C545 0.950 . S
H519 C548 0.950 . S
H520 C549 0.950 . S
H521 C551 0.950 . S
H522 C552 0.950 1_556 S
C523 H505 0.951 . S
C523 C524 1.366 . S
C523 C525 1.388 . S
C524 C523 1.366 . S
C524 C528 1.385 . S
C525 H506 0.951 . S
C525 C523 1.388 . S
C525 C526 1.366 . S
C526 C525 1.366 . S
C526 C527 1.414 . S
C526 C529 1.499 . S
C527 H507 0.950 1_554 S
C527 C526 1.414 . S
C527 C528 1.374 . S
C528 H508 0.950 1_554 S
C528 C524 1.385 . S
C528 C527 1.374 . S
C529 C526 1.499 . S
C529 C530 1.373 . S
C529 C531 1.389 . S
C530 H509 0.950 . S
C530 C529 1.373 . S
C530 C546 1.377 . S
C531 C529 1.389 . S
C531 C532 1.524 . S
C531 C545 1.377 . S
C532 C531 1.524 . S
C532 C533 1.397 1_554 S
C532 C537 1.363 . S
C533 H510 0.950 . S
C533 C532 1.397 1_556 S
C533 C534 1.334 . S
C534 H511 0.950 . S
C534 C533 1.334 . S
C534 C535 1.287 1_556 S
C535 C534 1.287 1_554 S
C535 C536 1.524 . S
C535 H554 0.913 . S
C536 H512 0.950 . S
C536 C535 1.524 . S
C536 C537 1.415 . S
C537 H513 0.950 . S
C537 C532 1.363 . S
C537 C536 1.415 . S
C538 H514 0.942 1_554 S
C538 C539 1.374 . S
C538 C540 1.389 . S
C539 C538 1.374 . S
C539 C543 1.385 . S
C540 H515 0.951 1_554 S
C540 C538 1.389 . S
C540 C541 1.366 . S
C541 C540 1.366 . S
C541 C542 1.414 . S
C541 C544 1.499 . S
C542 H516 0.950 . S
C542 C541 1.414 . S
C542 C543 1.374 . S
C543 H517 0.950 . S
C543 C539 1.385 . S
C543 C542 1.374 . S
C544 C541 1.499 . S
C544 C545 1.373 . S
C544 C546 1.389 . S
C545 H518 0.950 . S
C545 C531 1.377 . S
C545 C544 1.373 . S
C546 C530 1.377 . S
C546 C544 1.389 . S
C546 C547 1.524 . S
C547 C546 1.524 . S
C547 C548 1.397 . S
C547 C552 1.363 . S
C548 H519 0.950 . S
C548 C547 1.397 . S
C548 C549 1.334 . S
C549 H520 0.950 . S
C549 C548 1.334 . S
C549 C550 1.287 . S
C550 C549 1.287 . S
C550 C551 1.524 . S
C550 H553 0.999 . S
C551 H521 0.950 . S
C551 C550 1.524 . S
C551 C552 1.415 . S
C552 H522 0.950 1_554 S
C552 C547 1.363 . S
C552 C551 1.415 . S
H553 C550 0.999 . S
H554 C535 0.913 . S
H555 C573 0.951 . S
H556 C575 0.951 . S
H557 C577 0.950 . S
H558 C578 0.950 . S
H559 C580 0.950 . S
H560 C583 0.950 . S
H561 C584 0.950 . S
H562 C586 0.950 . S
H563 C587 0.950 . S
H564 C588 0.951 . S
H565 C590 0.951 . S
H566 C592 0.950 . S
H567 C593 0.950 . S
H568 C595 0.950 . S
H569 C598 0.950 . S
H570 C599 0.950 . S
H571 C601 0.950 . S
H572 C602 0.950 . S
C573 H555 0.951 . S
C573 C574 1.366 1_554 S
C573 C575 1.388 . S
C574 C573 1.366 1_556 S
C574 C578 1.385 . S
C575 H556 0.951 . S
C575 C573 1.388 . S
C575 C576 1.368 1_554 S
C576 C575 1.368 1_556 S
C576 C577 1.411 . S
C576 C579 1.498 1_556 S
C577 H557 0.950 . S
C577 C576 1.411 . S
C577 C578 1.374 . S
C578 H558 0.950 . S
C578 C574 1.385 . S
C578 C577 1.374 . S
C579 C576 1.498 1_554 S
C579 C580 1.330 1_554 S
C579 C581 1.434 . S
C580 H559 0.950 . S
C580 C579 1.330 1_556 S
C580 C596 1.377 . S
C581 C579 1.434 . S
C581 C582 1.524 . S
C581 C595 1.377 . S
C582 C581 1.524 . S
C582 C583 1.397 . S
C582 C587 1.363 . S
C583 H560 0.950 . S
C583 C582 1.397 . S
C583 C584 1.334 . S
C584 H561 0.950 . S
C584 C583 1.334 . S
C584 C585 1.287 . S
C585 C584 1.287 . S
C585 C586 1.524 . S
C585 H604 0.913 . S
C586 H562 0.950 . S
C586 C585 1.524 . S
C586 C587 1.415 . S
C587 H563 0.950 . S
C587 C582 1.363 . S
C587 C586 1.415 . S
C588 H564 0.951 . S
C588 C589 1.366 1_556 S
C588 C590 1.388 . S
C589 C588 1.366 1_554 S
C589 C593 1.385 . S
C590 H565 0.951 . S
C590 C588 1.388 . S
C590 C591 1.366 1_556 S
C591 C590 1.366 1_554 S
C591 C592 1.414 . S
C591 C594 1.499 . S
C592 H566 0.950 . S
C592 C591 1.414 . S
C592 C593 1.374 . S
C593 H567 0.950 . S
C593 C589 1.385 . S
C593 C592 1.374 . S
C594 C591 1.499 . S
C594 C595 1.373 . S
C594 C596 1.389 1_554 S
C595 H568 0.950 . S
C595 C581 1.377 . S
C595 C594 1.373 . S
C596 C580 1.377 . S
C596 C594 1.389 1_556 S
C596 C597 1.524 . S
C597 C596 1.524 . S
C597 C598 1.397 . S
C597 C602 1.363 . S
C598 H569 0.950 . S
C598 C597 1.397 . S
C598 C599 1.334 . S
C599 H570 0.950 . S
C599 C598 1.334 . S
C599 C600 1.287 . S
C600 C599 1.287 . S
C600 C601 1.524 . S
C600 H603 0.999 . S
C601 H571 0.950 . S
C601 C600 1.524 . S
C601 C602 1.415 . S
C602 H572 0.950 . S
C602 C597 1.363 . S
C602 C601 1.415 . S
H603 C600 0.999 . S
H604 C585 0.913 . S
H605 C623 0.951 . S
H606 C625 0.951 . S
H607 C627 0.952 . S
H608 C628 0.950 . S
H609 C630 0.950 . S
H610 C633 0.950 . S
H611 C634 0.950 . S
H612 C636 0.950 . S
H613 C637 0.950 . S
H614 C638 0.951 . S
H615 C640 0.951 . S
H616 C642 0.950 . S
H617 C643 0.950 . S
H618 C645 0.950 . S
H619 C648 0.950 . S
H620 C649 0.950 . S
H621 C651 0.950 . S
H622 C652 0.950 . S
C623 H605 0.951 . S
C623 C624 1.364 1_554 S
C623 C625 1.388 . S
C624 C623 1.364 1_556 S
C624 C628 1.385 . S
C625 H606 0.951 . S
C625 C623 1.388 . S
C625 C626 1.366 . S
C626 C625 1.366 . S
C626 C627 1.412 1_554 S
C626 C629 1.499 . S
C627 H607 0.952 . S
C627 C626 1.412 1_556 S
C627 C628 1.375 . S
C628 H608 0.950 . S
C628 C624 1.385 . S
C628 C627 1.375 . S
C629 C626 1.499 . S
C629 C630 1.373 1_554 S
C629 C631 1.389 . S
C630 H609 0.950 . S
C630 C629 1.373 1_556 S
C630 C646 1.377 . S
C631 C629 1.389 . S
C631 C632 1.524 . S
C631 C645 1.377 . S
C632 C631 1.524 . S
C632 C633 1.397 . S
C632 C637 1.363 . S
C633 H610 0.950 . S
C633 C632 1.397 . S
C633 C634 1.334 . S
C634 H611 0.950 . S
C634 C633 1.334 . S
C634 C635 1.287 . S
C635 C634 1.287 . S
C635 C636 1.524 . S
C635 H654 0.913 . S
C636 H612 0.950 . S
C636 C635 1.524 . S
C636 C637 1.415 . S
C637 H613 0.950 . S
C637 C632 1.363 . S
C637 C636 1.415 . S
C638 H614 0.951 . S
C638 C639 1.366 . S
C638 C640 1.388 . S
C639 C638 1.366 . S
C639 C643 1.385 . S
C640 H615 0.951 . S
C640 C638 1.388 . S
C640 C641 1.366 . S
C641 C640 1.366 . S
C641 C642 1.414 . S
C641 C644 1.499 . S
C642 H616 0.950 . S
C642 C641 1.414 . S
C642 C643 1.374 . S
C643 H617 0.950 . S
C643 C639 1.385 . S
C643 C642 1.374 . S
C644 C641 1.499 . S
C644 C645 1.373 . S
C644 C646 1.389 1_554 S
C645 H618 0.950 . S
C645 C631 1.377 . S
C645 C644 1.373 . S
C646 C630 1.377 . S
C646 C644 1.389 1_556 S
C646 C647 1.524 . S
C647 C646 1.524 . S
C647 C648 1.397 . S
C647 C652 1.363 . S
C648 H619 0.950 . S
C648 C647 1.397 . S
C648 C649 1.334 . S
C649 H620 0.950 . S
C649 C648 1.334 . S
C649 C650 1.287 . S
C650 C649 1.287 . S
C650 C651 1.524 . S
C650 H653 0.999 . S
C651 H621 0.950 . S
C651 C650 1.524 . S
C651 C652 1.415 . S
C652 H622 0.950 . S
C652 C647 1.363 . S
C652 C651 1.415 . S
H653 C650 0.999 . S
H654 C635 0.913 . S
H655 C673 0.951 . S
H656 C675 0.951 . S
H657 C677 0.950 . S
H658 C678 0.950 . S
H659 C680 0.950 . S
H660 C683 0.950 . S
H661 C684 0.950 . S
H662 C686 0.950 . S
H663 C687 0.950 . S
H664 C688 0.951 1_556 S
H665 C690 0.938 1_556 S
H666 C692 0.950 . S
H667 C693 0.950 . S
H668 C695 0.950 . S
H669 C698 0.950 . S
H670 C699 0.950 . S
H671 C701 0.950 . S
H672 C702 0.950 . S
C673 H655 0.951 . S
C673 C674 1.366 . S
C673 C675 1.388 . S
C674 C673 1.366 . S
C674 C678 1.385 1_554 S
C675 H656 0.951 . S
C675 C673 1.388 . S
C675 C676 1.366 . S
C676 C675 1.366 . S
C676 C677 1.414 1_554 S
C676 C679 1.499 . S
C677 H657 0.950 . S
C677 C676 1.414 1_556 S
C677 C678 1.374 . S
C678 H658 0.950 . S
C678 C674 1.385 1_556 S
C678 C677 1.374 . S
C679 C676 1.499 . S
C679 C680 1.373 . S
C679 C681 1.389 1_554 S
C680 H659 0.950 . S
C680 C679 1.373 . S
C680 C696 1.377 . S
C681 C679 1.389 1_556 S
C681 C682 1.524 . S
C681 C695 1.377 . S
C682 C681 1.524 . S
C682 C683 1.397 . S
C682 C687 1.363 . S
C683 H660 0.950 . S
C683 C682 1.397 . S
C683 C684 1.334 . S
C684 H661 0.950 . S
C684 C683 1.334 . S
C684 C685 1.287 . S
C685 C684 1.287 . S
C685 C686 1.524 . S
C685 H704 0.913 . S
C686 H662 0.950 . S
C686 C685 1.524 . S
C686 C687 1.415 . S
C687 H663 0.950 . S
C687 C682 1.363 . S
C687 C686 1.415 . S
C688 H664 0.951 1_554 S
C688 C689 1.366 . S
C688 C690 1.389 . S
C689 C688 1.366 . S
C689 C693 1.385 . S
C690 H665 0.938 1_554 S
C690 C688 1.389 . S
C690 C691 1.379 . S
C691 C690 1.379 . S
C691 C692 1.414 . S
C691 C694 1.499 . S
C692 H666 0.950 . S
C692 C691 1.414 . S
C692 C693 1.374 . S
C693 H667 0.950 . S
C693 C689 1.385 . S
C693 C692 1.374 . S
C694 C691 1.499 . S
C694 C695 1.373 1_554 S
C694 C696 1.389 . S
C695 H668 0.950 . S
C695 C681 1.377 . S
C695 C694 1.373 1_556 S
C696 C680 1.377 . S
C696 C694 1.389 . S
C696 C697 1.524 . S
C697 C696 1.524 . S
C697 C698 1.397 . S
C697 C702 1.363 . S
C698 H669 0.950 . S
C698 C697 1.397 . S
C698 C699 1.334 . S
C699 H670 0.950 . S
C699 C698 1.334 . S
C699 C700 1.287 . S
C700 C699 1.287 . S
C700 C701 1.524 . S
C700 H703 0.999 . S
C701 H671 0.950 . S
C701 C700 1.524 . S
C701 C702 1.415 . S
C702 H672 0.950 . S
C702 C697 1.363 . S
C702 C701 1.415 . S
H703 C700 0.999 . S
H704 C685 0.913 . S
H705 C723 0.951 . S
H706 C725 0.951 . S
H707 C727 0.950 . S
H708 C728 0.950 . S
H709 C730 0.950 . S
H710 C733 0.950 1_554 S
H711 C734 0.950 . S
H712 C736 0.950 . S
H713 C737 0.950 . S
H714 C738 0.951 . S
H715 C740 0.951 . S
H716 C742 0.950 . S
H717 C743 0.950 . S
H718 C745 0.950 . S
H719 C748 0.950 . S
H720 C749 0.950 . S
H721 C751 0.950 . S
H722 C752 0.950 . S
C723 H705 0.951 . S
C723 C724 1.366 1_556 S
C723 C725 1.388 . S
C724 C723 1.366 1_554 S
C724 C728 1.385 . S
C725 H706 0.951 . S
C725 C723 1.388 . S
C725 C726 1.366 1_556 S
C726 C725 1.366 1_554 S
C726 C727 1.414 . S
C726 C729 1.499 . S
C727 H707 0.950 . S
C727 C726 1.414 . S
C727 C728 1.374 . S
C728 H708 0.950 . S
C728 C724 1.385 . S
C728 C727 1.374 . S
C729 C726 1.499 . S
C729 C730 1.373 . S
C729 C731 1.389 1_554 S
C730 H709 0.950 . S
C730 C729 1.373 . S
C730 C746 1.377 . S
C731 C729 1.389 1_556 S
C731 C732 1.524 . S
C731 C745 1.377 . S
C732 C731 1.524 . S
C732 C733 1.397 . S
C732 C737 1.363 . S
C733 H710 0.950 1_556 S
C733 C732 1.397 . S
C733 C734 1.334 . S
C734 H711 0.950 . S
C734 C733 1.334 . S
C734 C735 1.287 . S
C735 C734 1.287 . S
C735 C736 1.524 . S
C735 H754 0.913 . S
C736 H712 0.950 . S
C736 C735 1.524 . S
C736 C737 1.415 . S
C737 H713 0.950 . S
C737 C732 1.363 . S
C737 C736 1.415 . S
C738 H714 0.951 . S
C738 C739 1.366 . S
C738 C740 1.388 . S
C739 C738 1.366 . S
C739 C743 1.385 1_554 S
C740 H715 0.951 . S
C740 C738 1.388 . S
C740 C741 1.366 . S
C741 C740 1.366 . S
C741 C742 1.414 1_554 S
C741 C744 1.499 . S
C742 H716 0.950 . S
C742 C741 1.414 1_556 S
C742 C743 1.374 . S
C743 H717 0.950 . S
C743 C739 1.385 1_556 S
C743 C742 1.374 . S
C744 C741 1.499 . S
C744 C745 1.373 1_554 S
C744 C746 1.389 . S
C745 H718 0.950 . S
C745 C731 1.377 . S
C745 C744 1.373 1_556 S
C746 C730 1.377 . S
C746 C744 1.389 . S
C746 C747 1.524 . S
C747 C746 1.524 . S
C747 C748 1.397 . S
C747 C752 1.363 . S
C748 H719 0.950 . S
C748 C747 1.397 . S
C748 C749 1.334 . S
C749 H720 0.950 . S
C749 C748 1.334 . S
C749 C750 1.287 . S
C750 C749 1.287 . S
C750 C751 1.524 . S
C750 H753 0.999 . S
C751 H721 0.950 . S
C751 C750 1.524 . S
C751 C752 1.415 . S
C752 H722 0.950 . S
C752 C747 1.363 . S
C752 C751 1.415 . S
H753 C750 0.999 . S
H754 C735 0.913 . S
H755 C773 0.951 . S
H756 C775 0.951 . S
H757 C777 0.950 . S
H758 C778 0.950 . S
H759 C780 0.950 . S
H760 C783 0.950 . S
H761 C784 0.950 . S
H762 C786 0.950 1_556 S
H763 C787 0.979 . S
H764 C788 0.951 . S
H765 C790 0.951 . S
H766 C792 0.950 . S
H767 C793 0.950 . S
H768 C795 0.950 . S
H769 C798 0.950 . S
H770 C799 0.950 . S
H771 C801 0.950 . S
H772 C802 0.950 . S
C773 H755 0.951 . S
C773 C774 1.366 1_556 S
C773 C775 1.388 . S
C774 C773 1.366 1_554 S
C774 C778 1.385 . S
C775 H756 0.951 . S
C775 C773 1.388 . S
C775 C776 1.366 1_556 S
C776 C775 1.366 1_554 S
C776 C777 1.414 . S
C776 C779 1.499 . S
C777 H757 0.950 . S
C777 C776 1.414 . S
C777 C778 1.374 . S
C778 H758 0.950 . S
C778 C774 1.385 . S
C778 C777 1.374 . S
C779 C776 1.499 . S
C779 C780 1.373 . S
C779 C781 1.389 . S
C780 H759 0.950 . S
C780 C779 1.373 . S
C780 C796 1.377 . S
C781 C779 1.389 . S
C781 C782 1.524 . S
C781 C795 1.377 . S
C782 C781 1.524 . S
C782 C783 1.397 . S
C782 C787 1.340 1_554 S
C783 H760 0.950 . S
C783 C782 1.397 . S
C783 C784 1.334 . S
C784 H761 0.950 . S
C784 C783 1.334 . S
C784 C785 1.287 . S
C785 C784 1.287 . S
C785 C786 1.524 . S
C785 H804 0.913 . S
C786 H762 0.950 1_554 S
C786 C785 1.524 . S
C786 C787 1.411 1_554 S
C787 H763 0.979 . S
C787 C782 1.340 1_556 S
C787 C786 1.411 1_556 S
C788 H764 0.951 . S
C788 C789 1.366 . S
C788 C790 1.388 . S
C789 C788 1.366 . S
C789 C793 1.385 1_554 S
C790 H765 0.951 . S
C790 C788 1.388 . S
C790 C791 1.366 . S
C791 C790 1.366 . S
C791 C792 1.414 1_554 S
C791 C794 1.499 . S
C792 H766 0.950 . S
C792 C791 1.414 1_556 S
C792 C793 1.374 . S
C793 H767 0.950 . S
C793 C789 1.385 1_556 S
C793 C792 1.374 . S
C794 C791 1.499 . S
C794 C795 1.373 . S
C794 C796 1.389 . S
C795 H768 0.950 . S
C795 C781 1.377 . S
C795 C794 1.373 . S
C796 C780 1.377 . S
C796 C794 1.389 . S
C796 C797 1.524 . S
C797 C796 1.524 . S
C797 C798 1.397 1_554 S
C797 C802 1.363 . S
C798 H769 0.950 . S
C798 C797 1.397 1_556 S
C798 C799 1.334 . S
C799 H770 0.950 . S
C799 C798 1.334 . S
C799 C800 1.287 . S
C800 C799 1.287 . S
C800 C801 1.524 1_556 S
C800 H803 0.999 . S
C801 H771 0.950 . S
C801 C800 1.524 1_554 S
C801 C802 1.415 . S
C802 H772 0.950 . S
C802 C797 1.363 . S
C802 C801 1.415 . S
H803 C800 0.999 . S
H804 C785 0.913 . S
H805 C823 0.951 1_556 S
H806 C825 0.951 1_556 S
H807 C827 0.950 . S
H808 C828 0.950 . S
H809 C830 0.950 . S
H810 C833 0.950 . S
H811 C834 0.950 . S
H812 C836 0.950 . S
H813 C837 0.950 . S
H814 C838 0.951 . S
H815 C840 0.951 . S
H816 C842 0.950 1_556 S
H817 C843 0.950 1_556 S
H818 C845 0.950 . S
H819 C848 0.950 . S
H820 C849 0.950 . S
H821 C851 0.950 . S
H822 C852 0.950 . S
C823 H805 0.951 1_554 S
C823 C824 1.366 . S
C823 C825 1.388 . S
C824 C823 1.366 . S
C824 C828 1.385 . S
C825 H806 0.951 1_554 S
C825 C823 1.388 . S
C825 C826 1.366 . S
C826 C825 1.366 . S
C826 C827 1.414 . S
C826 C829 1.499 . S
C827 H807 0.950 . S
C827 C826 1.414 . S
C827 C828 1.374 . S
C828 H808 0.950 . S
C828 C824 1.385 . S
C828 C827 1.374 . S
C829 C826 1.499 . S
C829 C830 1.373 . S
C829 C831 1.389 . S
C830 H809 0.950 . S
C830 C829 1.373 . S
C830 C846 1.377 . S
C831 C829 1.389 . S
C831 C832 1.524 . S
C831 C845 1.377 . S
C832 C831 1.524 . S
C832 C833 1.397 . S
C832 C837 1.363 . S
C833 H810 0.950 . S
C833 C832 1.397 . S
C833 C834 1.334 . S
C834 H811 0.950 . S
C834 C833 1.334 . S
C834 C835 1.287 . S
C835 C834 1.287 . S
C835 C836 1.524 . S
C835 H854 0.913 . S
C836 H812 0.950 . S
C836 C835 1.524 . S
C836 C837 1.415 . S
C837 H813 0.950 . S
C837 C832 1.363 . S
C837 C836 1.415 . S
C838 H814 0.951 . S
C838 C839 1.366 . S
C838 C840 1.388 . S
C839 C838 1.366 . S
C839 C843 1.385 . S
C840 H815 0.951 . S
C840 C838 1.388 . S
C840 C841 1.366 . S
C841 C840 1.366 . S
C841 C842 1.414 . S
C841 C844 1.499 . S
C842 H816 0.950 1_554 S
C842 C841 1.414 . S
C842 C843 1.374 . S
C843 H817 0.950 1_554 S
C843 C839 1.385 . S
C843 C842 1.374 . S
C844 C841 1.499 . S
C844 C845 1.373 . S
C844 C846 1.389 . S
C845 H818 0.950 . S
C845 C831 1.377 . S
C845 C844 1.373 . S
C846 C830 1.377 . S
C846 C844 1.389 . S
C846 C847 1.524 1_554 S
C847 C846 1.524 1_556 S
C847 C848 1.397 . S
C847 C852 1.363 1_556 S
C848 H819 0.950 . S
C848 C847 1.397 . S
C848 C849 1.334 . S
C849 H820 0.950 . S
C849 C848 1.334 . S
C849 C850 1.287 . S
C850 C849 1.287 . S
C850 C851 1.524 . S
C850 H853 0.999 . S
C851 H821 0.950 . S
C851 C850 1.524 . S
C851 C852 1.415 1_556 S
C852 H822 0.950 . S
C852 C847 1.363 1_554 S
C852 C851 1.415 1_554 S
H853 C850 0.999 . S
H854 C835 0.913 . S
H855 C873 0.951 . S
H856 C875 0.951 . S
H857 C877 0.950 . S
H858 C878 0.950 . S
H859 C880 0.950 . S
H860 C883 0.950 . S
H861 C884 0.949 . S
H862 C886 0.950 . S
H863 C887 0.950 . S
H864 C888 0.951 . S
H865 C890 0.951 . S
H866 C892 0.950 . S
H867 C893 0.950 . S
H868 C895 0.969 . S
H869 C898 0.950 1_556 S
H870 C899 0.950 . S
H871 C901 0.950 . S
H872 C902 0.950 . S
C873 H855 0.951 . S
C873 C874 1.366 1_556 S
C873 C875 1.388 . S
C874 C873 1.366 1_554 S
C874 C878 1.385 . S
C875 H856 0.951 . S
C875 C873 1.388 . S
C875 C876 1.366 1_556 S
C876 C875 1.366 1_554 S
C876 C877 1.414 . S
C876 C879 1.499 . S
C877 H857 0.950 . S
C877 C876 1.414 . S
C877 C878 1.374 . S
C878 H858 0.950 . S
C878 C874 1.385 . S
C878 C877 1.374 . S
C879 C876 1.499 . S
C879 C880 1.373 . S
C879 C881 1.405 . S
C880 H859 0.950 . S
C880 C879 1.373 . S
C880 C896 1.377 . S
C881 C879 1.405 . S
C881 C882 1.512 1_554 S
C881 C895 1.375 1_554 S
C882 C881 1.512 1_556 S
C882 C883 1.397 1_556 S
C882 C887 1.363 . S
C883 H860 0.950 . S
C883 C882 1.397 1_554 S
C883 C884 1.333 . S
C884 H861 0.949 . S
C884 C883 1.333 . S
C884 C885 1.289 1_554 S
C885 C884 1.289 1_556 S
C885 C886 1.524 . S
C885 H904 0.913 . S
C886 H862 0.950 . S
C886 C885 1.524 . S
C886 C887 1.415 . S
C887 H863 0.950 . S
C887 C882 1.363 . S
C887 C886 1.415 . S
C888 H864 0.951 . S
C888 C889 1.366 . S
C888 C890 1.388 . S
C889 C888 1.366 . S
C889 C893 1.385 1_554 S
C890 H865 0.951 . S
C890 C888 1.388 . S
C890 C891 1.366 . S
C891 C890 1.366 . S
C891 C892 1.414 1_554 S
C891 C894 1.499 . S
C892 H866 0.950 . S
C892 C891 1.414 1_556 S
C892 C893 1.374 . S
C893 H867 0.950 . S
C893 C889 1.385 1_556 S
C893 C892 1.374 . S
C894 C891 1.499 . S
C894 C895 1.358 1_554 S
C894 C896 1.389 . S
C895 H868 0.969 . S
C895 C881 1.375 1_556 S
C895 C894 1.358 1_556 S
C896 C880 1.377 . S
C896 C894 1.389 . S
C896 C897 1.524 . S
C897 C896 1.524 . S
C897 C898 1.397 . S
C897 C902 1.363 . S
C898 H869 0.950 1_554 S
C898 C897 1.397 . S
C898 C899 1.334 . S
C899 H870 0.950 . S
C899 C898 1.334 . S
C899 C900 1.287 . S
C900 C899 1.287 . S
C900 C901 1.524 . S
C900 H903 0.999 . S
C901 H871 0.950 . S
C901 C900 1.524 . S
C901 C902 1.415 . S
C902 H872 0.950 . S
C902 C897 1.363 . S
C902 C901 1.415 . S
H903 C900 0.999 . S
H904 C885 0.913 . S
H905 C923 0.951 1_556 S
H906 C925 0.951 1_556 S
H907 C927 0.950 . S
H908 C928 0.950 . S
H909 C930 0.950 . S
H910 C933 0.950 . S
H911 C934 0.950 . S
H912 C936 0.950 . S
H913 C937 0.950 . S
H914 C938 0.951 . S
H915 C940 0.951 . S
H916 C942 0.950 . S
H917 C943 0.950 . S
H918 C945 0.950 . S
H919 C948 0.950 . S
H920 C949 0.950 . S
H921 C951 0.950 . S
H922 C952 0.950 . S
C923 H905 0.951 1_554 S
C923 C924 1.366 . S
C923 C925 1.388 . S
C924 C923 1.366 . S
C924 C928 1.385 . S
C925 H906 0.951 1_554 S
C925 C923 1.388 . S
C925 C926 1.366 . S
C926 C925 1.366 . S
C926 C927 1.414 . S
C926 C929 1.499 . S
C927 H907 0.950 . S
C927 C926 1.414 . S
C927 C928 1.374 . S
C928 H908 0.950 . S
C928 C924 1.385 . S
C928 C927 1.374 . S
C929 C926 1.499 . S
C929 C930 1.373 . S
C929 C931 1.389 1_554 S
C930 H909 0.950 . S
C930 C929 1.373 . S
C930 C946 1.377 . S
C931 C929 1.389 1_556 S
C931 C932 1.524 . S
C931 C945 1.377 . S
C932 C931 1.524 . S
C932 C933 1.397 . S
C932 C937 1.363 . S
C933 H910 0.950 . S
C933 C932 1.397 . S
C933 C934 1.334 . S
C934 H911 0.950 . S
C934 C933 1.334 . S
C934 C935 1.287 . S
C935 C934 1.287 . S
C935 C936 1.524 . S
C935 H954 0.913 . S
C936 H912 0.950 . S
C936 C935 1.524 . S
C936 C937 1.415 . S
C937 H913 0.950 . S
C937 C932 1.363 . S
C937 C936 1.415 . S
C938 H914 0.951 . S
C938 C939 1.366 . S
C938 C940 1.388 . S
C939 C938 1.366 . S
C939 C943 1.385 1_554 S
C940 H915 0.951 . S
C940 C938 1.388 . S
C940 C941 1.366 . S
C941 C940 1.366 . S
C941 C942 1.414 1_554 S
C941 C944 1.499 . S
C942 H916 0.950 . S
C942 C941 1.414 1_556 S
C942 C943 1.374 . S
C943 H917 0.950 . S
C943 C939 1.385 1_556 S
C943 C942 1.374 . S
C944 C941 1.499 . S
C944 C945 1.373 1_554 S
C944 C946 1.389 . S
C945 H918 0.950 . S
C945 C931 1.377 . S
C945 C944 1.373 1_556 S
C946 C930 1.377 . S
C946 C944 1.389 . S
C946 C947 1.524 . S
C947 C946 1.524 . S
C947 C948 1.397 . S
C947 C952 1.363 . S
C948 H919 0.950 . S
C948 C947 1.397 . S
C948 C949 1.334 . S
C949 H920 0.950 . S
C949 C948 1.334 . S
C949 C950 1.287 . S
C950 C949 1.287 . S
C950 C951 1.524 . S
C950 H953 0.999 . S
C951 H921 0.950 . S
C951 C950 1.524 . S
C951 C952 1.415 . S
C952 H922 0.950 . S
C952 C947 1.363 . S
C952 C951 1.415 . S
H953 C950 0.999 . S
H954 C935 0.913 . S
H955 C973 0.951 . S
H956 C975 0.951 . S
H957 C977 0.950 1_556 S
H958 C978 0.950 1_556 S
H959 C980 0.950 . S
H960 C983 0.950 . S
H961 C984 0.950 . S
H962 C986 0.950 . S
H963 C987 0.950 . S
H964 C988 0.951 . S
H965 C990 0.951 . S
H966 C992 0.950 . S
H967 C993 0.950 . S
H968 C995 0.950 . S
H969 C998 0.950 . S
H970 C999 0.950 . S
H971 C1001 0.950 . S
H972 C1002 0.950 . S
C973 H955 0.951 . S
C973 C974 1.366 . S
C973 C975 1.388 . S
C974 C973 1.366 . S
C974 C978 1.385 . S
C975 H956 0.951 . S
C975 C973 1.388 . S
C975 C976 1.366 . S
C976 C975 1.366 . S
C976 C977 1.414 . S
C976 C979 1.499 . S
C977 H957 0.950 1_554 S
C977 C976 1.414 . S
C977 C978 1.374 . S
C978 H958 0.950 1_554 S
C978 C974 1.385 . S
C978 C977 1.374 . S
C979 C976 1.499 . S
C979 C980 1.373 1_554 S
C979 C981 1.389 . S
C980 H959 0.950 . S
C980 C979 1.373 1_556 S
C980 C996 1.377 . S
C981 C979 1.389 . S
C981 C982 1.524 . S
C981 C995 1.377 . S
C982 C981 1.524 . S
C982 C983 1.397 . S
C982 C987 1.363 . S
C983 H960 0.950 . S
C983 C982 1.397 . S
C983 C984 1.334 . S
C984 H961 0.950 . S
C984 C983 1.334 . S
C984 C985 1.287 . S
C985 C984 1.287 . S
C985 C986 1.524 . S
C985 H1004 0.913 . S
C986 H962 0.950 . S
C986 C985 1.524 . S
C986 C987 1.415 . S
C987 H963 0.950 . S
C987 C982 1.363 . S
C987 C986 1.415 . S
C988 H964 0.951 . S
C988 C989 1.366 1_556 S
C988 C990 1.388 . S
C989 C988 1.366 1_554 S
C989 C993 1.385 . S
C990 H965 0.951 . S
C990 C988 1.388 . S
C990 C991 1.366 1_556 S
C991 C990 1.366 1_554 S
C991 C992 1.414 . S
C991 C994 1.499 . S
C992 H966 0.950 . S
C992 C991 1.414 . S
C992 C993 1.374 . S
C993 H967 0.950 . S
C993 C989 1.385 . S
C993 C992 1.374 . S
C994 C991 1.499 . S
C994 C995 1.373 . S
C994 C996 1.389 1_554 S
C995 H968 0.950 . S
C995 C981 1.377 . S
C995 C994 1.373 . S
C996 C980 1.377 . S
C996 C994 1.389 1_556 S
C996 C997 1.524 . S
C997 C996 1.524 . S
C997 C998 1.397 . S
C997 C1002 1.363 . S
C998 H969 0.950 . S
C998 C997 1.397 . S
C998 C999 1.334 . S
C999 H970 0.950 . S
C999 C998 1.334 . S
C999 C1000 1.287 . S
C1000 C999 1.287 . S
C1000 C1001 1.524 . S
C1000 H1003 0.999 . S
C1001 H971 0.950 . S
C1001 C1000 1.524 . S
C1001 C1002 1.415 . S
C1002 H972 0.950 . S
C1002 C997 1.363 . S
C1002 C1001 1.415 . S
H1003 C1000 0.999 . S
H1004 C985 0.913 . S
H1005 C1023 0.951 . S
H1006 C1025 0.951 . S
H1007 C1027 0.950 . S
H1008 C1028 0.950 . S
H1009 C1030 0.950 . S
H1010 C1033 0.950 . S
H1011 C1034 0.950 . S
H1012 C1036 0.950 . S
H1013 C1037 0.950 . S
H1014 C1038 0.951 . S
H1015 C1040 0.951 . S
H1016 C1042 0.950 . S
H1017 C1043 0.950 . S
H1018 C1045 0.950 . S
H1019 C1048 0.950 . S
H1020 C1049 0.950 . S
H1021 C1051 0.950 . S
H1022 C1052 0.950 1_655 S
C1023 H1005 0.951 . S
C1023 C1024 1.366 . S
C1023 C1025 1.388 . S
C1024 C1023 1.366 . S
C1024 C1028 1.385 . S
C1025 H1006 0.951 . S
C1025 C1023 1.388 . S
C1025 C1026 1.366 . S
C1026 C1025 1.366 . S
C1026 C1027 1.414 . S
C1026 C1029 1.499 . S
C1027 H1007 0.950 . S
C1027 C1026 1.414 . S
C1027 C1028 1.374 . S
C1028 H1008 0.950 . S
C1028 C1024 1.385 . S
C1028 C1027 1.374 . S
C1029 C1026 1.499 . S
C1029 C1030 1.373 . S
C1029 C1031 1.389 1_655 S
C1030 H1009 0.950 . S
C1030 C1029 1.373 . S
C1030 C1046 1.377 1_655 S
C1031 C1029 1.389 1_455 S
C1031 C1032 1.520 . S
C1031 C1045 1.377 . S
C1032 C1031 1.520 . S
C1032 C1033 1.380 1_455 S
C1032 C1037 1.385 . S
C1033 H1010 0.950 . S
C1033 C1032 1.380 1_655 S
C1033 C1034 1.334 . S
C1034 H1011 0.950 . S
C1034 C1033 1.334 . S
C1034 C1035 1.287 . S
C1035 C1034 1.287 . S
C1035 C1036 1.524 1_655 S
C1035 H1054 0.913 . S
C1036 H1012 0.950 . S
C1036 C1035 1.524 1_455 S
C1036 C1037 1.415 . S
C1037 H1013 0.950 . S
C1037 C1032 1.385 . S
C1037 C1036 1.415 . S
C1038 H1014 0.951 . S
C1038 C1039 1.366 . S
C1038 C1040 1.388 . S
C1039 C1038 1.366 . S
C1039 C1043 1.385 . S
C1040 H1015 0.951 . S
C1040 C1038 1.388 . S
C1040 C1041 1.366 . S
C1041 C1040 1.366 . S
C1041 C1042 1.414 . S
C1041 C1044 1.499 . S
C1042 H1016 0.950 . S
C1042 C1041 1.414 . S
C1042 C1043 1.374 . S
C1043 H1017 0.950 . S
C1043 C1039 1.385 . S
C1043 C1042 1.374 . S
C1044 C1041 1.499 . S
C1044 C1045 1.373 . S
C1044 C1046 1.389 . S
C1045 H1018 0.950 . S
C1045 C1031 1.377 . S
C1045 C1044 1.373 . S
C1046 C1030 1.377 1_455 S
C1046 C1044 1.389 . S
C1046 C1047 1.524 . S
C1047 C1046 1.524 . S
C1047 C1048 1.397 . S
C1047 C1052 1.363 . S
C1048 H1019 0.950 . S
C1048 C1047 1.397 . S
C1048 C1049 1.334 . S
C1049 H1020 0.950 . S
C1049 C1048 1.334 . S
C1049 C1050 1.287 . S
C1050 C1049 1.287 . S
C1050 C1051 1.524 . S
C1050 H1053 0.999 . S
C1051 H1021 0.950 . S
C1051 C1050 1.524 . S
C1051 C1052 1.415 . S
C1052 H1022 0.950 1_455 S
C1052 C1047 1.363 . S
C1052 C1051 1.415 . S
H1053 C1050 0.999 . S
H1054 C1035 0.913 . S
H1055 C1073 0.951 . S
H1056 C1075 0.951 . S
H1057 C1077 0.950 . S
H1058 C1078 0.950 . S
H1059 C1080 0.950 . S
H1060 C1083 0.950 . S
H1061 C1084 0.950 . S
H1062 C1086 0.950 . S
H1063 C1087 0.950 . S
H1064 C1088 0.951 . S
H1065 C1090 0.951 . S
H1066 C1092 0.950 . S
H1067 C1093 0.950 . S
H1068 C1095 0.950 . S
H1069 C1098 0.950 . S
H1070 C1099 0.950 . S
H1071 C1101 0.950 . S
H1072 C1102 0.950 . S
C1073 H1055 0.951 . S
C1073 C1074 1.366 . S
C1073 C1075 1.388 . S
C1074 C1073 1.366 . S
C1074 C1078 1.385 . S
C1075 H1056 0.951 . S
C1075 C1073 1.388 . S
C1075 C1076 1.366 . S
C1076 C1075 1.366 . S
C1076 C1077 1.414 . S
C1076 C1079 1.499 . S
C1077 H1057 0.950 . S
C1077 C1076 1.414 . S
C1077 C1078 1.374 . S
C1078 H1058 0.950 . S
C1078 C1074 1.385 . S
C1078 C1077 1.374 . S
C1079 C1076 1.499 . S
C1079 C1080 1.373 . S
C1079 C1081 1.389 . S
C1080 H1059 0.950 . S
C1080 C1079 1.373 . S
C1080 C1096 1.377 . S
C1081 C1079 1.389 . S
C1081 C1082 1.524 . S
C1081 C1095 1.377 . S
C1082 C1081 1.524 . S
C1082 C1083 1.397 . S
C1082 C1087 1.363 . S
C1083 H1060 0.950 . S
C1083 C1082 1.397 . S
C1083 C1084 1.334 . S
C1084 H1061 0.950 . S
C1084 C1083 1.334 . S
C1084 C1085 1.287 . S
C1085 C1084 1.287 . S
C1085 C1086 1.524 . S
C1085 H1104 0.913 . S
C1086 H1062 0.950 . S
C1086 C1085 1.524 . S
C1086 C1087 1.415 . S
C1087 H1063 0.950 . S
C1087 C1082 1.363 . S
C1087 C1086 1.415 . S
C1088 H1064 0.951 . S
C1088 C1089 1.366 . S
C1088 C1090 1.388 . S
C1089 C1088 1.366 . S
C1089 C1093 1.385 . S
C1090 H1065 0.951 . S
C1090 C1088 1.388 . S
C1090 C1091 1.366 . S
C1091 C1090 1.366 . S
C1091 C1092 1.414 . S
C1091 C1094 1.499 . S
C1092 H1066 0.950 . S
C1092 C1091 1.414 . S
C1092 C1093 1.374 . S
C1093 H1067 0.950 . S
C1093 C1089 1.385 . S
C1093 C1092 1.374 . S
C1094 C1091 1.499 . S
C1094 C1095 1.373 . S
C1094 C1096 1.389 . S
C1095 H1068 0.950 . S
C1095 C1081 1.377 . S
C1095 C1094 1.373 . S
C1096 C1080 1.377 . S
C1096 C1094 1.389 . S
C1096 C1097 1.524 . S
C1097 C1096 1.524 . S
C1097 C1098 1.397 . S
C1097 C1102 1.363 . S
C1098 H1069 0.950 . S
C1098 C1097 1.397 . S
C1098 C1099 1.334 . S
C1099 H1070 0.950 . S
C1099 C1098 1.334 . S
C1099 C1100 1.287 . S
C1100 C1099 1.287 . S
C1100 C1101 1.524 . S
C1100 H1103 0.999 . S
C1101 H1071 0.950 . S
C1101 C1100 1.524 . S
C1101 C1102 1.415 . S
C1102 H1072 0.950 . S
C1102 C1097 1.363 . S
C1102 C1101 1.415 . S
H1103 C1100 0.999 . S
H1104 C1085 0.913 . S
H1105 C1123 0.951 . S
H1106 C1125 0.951 . S
H1107 C1127 0.950 . S
H1108 C1128 0.950 . S
H1109 C1130 0.950 . S
H1110 C1133 0.950 . S
H1111 C1134 0.950 . S
H1112 C1136 0.950 . S
H1113 C1137 0.950 1_565 S
H1114 C1138 0.951 . S
H1115 C1140 0.951 . S
H1116 C1142 0.950 . S
H1117 C1143 0.950 . S
H1118 C1145 0.950 . S
H1119 C1148 0.950 . S
H1120 C1149 0.950 . S
H1121 C1151 0.950 . S
H1122 C1152 0.950 . S
C1123 H1105 0.951 . S
C1123 C1124 1.366 . S
C1123 C1125 1.388 . S
C1124 C1123 1.366 . S
C1124 C1128 1.385 . S
C1125 H1106 0.951 . S
C1125 C1123 1.388 . S
C1125 C1126 1.366 . S
C1126 C1125 1.366 . S
C1126 C1127 1.414 . S
C1126 C1129 1.499 . S
C1127 H1107 0.950 . S
C1127 C1126 1.414 . S
C1127 C1128 1.374 . S
C1128 H1108 0.950 . S
C1128 C1124 1.385 . S
C1128 C1127 1.374 . S
C1129 C1126 1.499 . S
C1129 C1130 1.373 . S
C1129 C1131 1.389 . S
C1130 H1109 0.950 . S
C1130 C1129 1.373 . S
C1130 C1146 1.401 . S
C1131 C1129 1.389 . S
C1131 C1132 1.524 . S
C1131 C1145 1.377 1_545 S
C1132 C1131 1.524 . S
C1132 C1133 1.397 . S
C1132 C1137 1.363 . S
C1133 H1110 0.950 . S
C1133 C1132 1.397 . S
C1133 C1134 1.334 . S
C1134 H1111 0.950 . S
C1134 C1133 1.334 . S
C1134 C1135 1.287 . S
C1135 C1134 1.287 . S
C1135 C1136 1.524 . S
C1135 H1154 0.913 . S
C1136 H1112 0.950 . S
C1136 C1135 1.524 . S
C1136 C1137 1.415 . S
C1137 H1113 0.950 1_545 S
C1137 C1132 1.363 . S
C1137 C1136 1.415 . S
C1138 H1114 0.951 . S
C1138 C1139 1.366 . S
C1138 C1140 1.388 . S
C1139 C1138 1.366 . S
C1139 C1143 1.385 . S
C1140 H1115 0.951 . S
C1140 C1138 1.388 . S
C1140 C1141 1.366 . S
C1141 C1140 1.366 . S
C1141 C1142 1.414 . S
C1141 C1144 1.499 . S
C1142 H1116 0.950 . S
C1142 C1141 1.414 . S
C1142 C1143 1.374 . S
C1143 H1117 0.950 . S
C1143 C1139 1.385 . S
C1143 C1142 1.374 . S
C1144 C1141 1.499 . S
C1144 C1145 1.373 . S
C1144 C1146 1.377 1_565 S
C1145 H1118 0.950 . S
C1145 C1131 1.377 1_565 S
C1145 C1144 1.373 . S
C1146 C1130 1.401 . S
C1146 C1144 1.377 1_545 S
C1146 C1147 1.514 1_545 S
C1147 C1146 1.514 1_565 S
C1147 C1148 1.397 . S
C1147 C1152 1.363 1_565 S
C1148 H1119 0.950 . S
C1148 C1147 1.397 . S
C1148 C1149 1.334 . S
C1149 H1120 0.950 . S
C1149 C1148 1.334 . S
C1149 C1150 1.287 . S
C1150 C1149 1.287 . S
C1150 C1151 1.524 1_565 S
C1150 H1153 0.999 . S
C1151 H1121 0.950 . S
C1151 C1150 1.524 1_545 S
C1151 C1152 1.415 . S
C1152 H1122 0.950 . S
C1152 C1147 1.363 1_545 S
C1152 C1151 1.415 . S
H1153 C1150 0.999 . S
H1154 C1135 0.913 . S
H1155 C1173 0.951 . S
H1156 C1175 0.951 . S
H1157 C1177 0.950 . S
H1158 C1178 0.950 . S
H1159 C1180 0.950 . S
H1160 C1183 0.950 . S
H1161 C1184 0.950 . S
H1162 C1186 0.950 . S
H1163 C1187 0.950 . S
H1164 C1188 0.951 . S
H1165 C1190 0.951 . S
H1166 C1192 0.950 . S
H1167 C1193 0.950 . S
H1168 C1195 0.950 . S
H1169 C1198 0.950 . S
H1170 C1199 0.950 . S
H1171 C1201 0.950 . S
H1172 C1202 0.950 . S
C1173 H1155 0.951 . S
C1173 C1174 1.366 . S
C1173 C1175 1.388 . S
C1174 C1173 1.366 . S
C1174 C1178 1.385 . S
C1175 H1156 0.951 . S
C1175 C1173 1.388 . S
C1175 C1176 1.366 . S
C1176 C1175 1.366 . S
C1176 C1177 1.414 . S
C1176 C1179 1.499 . S
C1177 H1157 0.950 . S
C1177 C1176 1.414 . S
C1177 C1178 1.374 . S
C1178 H1158 0.950 . S
C1178 C1174 1.385 . S
C1178 C1177 1.374 . S
C1179 C1176 1.499 . S
C1179 C1180 1.373 . S
C1179 C1181 1.389 . S
C1180 H1159 0.950 . S
C1180 C1179 1.373 . S
C1180 C1196 1.377 . S
C1181 C1179 1.389 . S
C1181 C1182 1.524 . S
C1181 C1195 1.377 . S
C1182 C1181 1.524 . S
C1182 C1183 1.397 . S
C1182 C1187 1.363 . S
C1183 H1160 0.950 . S
C1183 C1182 1.397 . S
C1183 C1184 1.334 . S
C1184 H1161 0.950 . S
C1184 C1183 1.334 . S
C1184 C1185 1.287 . S
C1185 C1184 1.287 . S
C1185 C1186 1.524 . S
C1185 H1204 0.913 . S
C1186 H1162 0.950 . S
C1186 C1185 1.524 . S
C1186 C1187 1.415 . S
C1187 H1163 0.950 . S
C1187 C1182 1.363 . S
C1187 C1186 1.415 . S
C1188 H1164 0.951 . S
C1188 C1189 1.366 . S
C1188 C1190 1.388 . S
C1189 C1188 1.366 . S
C1189 C1193 1.385 . S
C1190 H1165 0.951 . S
C1190 C1188 1.388 . S
C1190 C1191 1.366 . S
C1191 C1190 1.366 . S
C1191 C1192 1.414 . S
C1191 C1194 1.499 . S
C1192 H1166 0.950 . S
C1192 C1191 1.414 . S
C1192 C1193 1.374 . S
C1193 H1167 0.950 . S
C1193 C1189 1.385 . S
C1193 C1192 1.374 . S
C1194 C1191 1.499 . S
C1194 C1195 1.373 . S
C1194 C1196 1.389 . S
C1195 H1168 0.950 . S
C1195 C1181 1.377 . S
C1195 C1194 1.373 . S
C1196 C1180 1.377 . S
C1196 C1194 1.389 . S
C1196 C1197 1.524 . S
C1197 C1196 1.524 . S
C1197 C1198 1.397 . S
C1197 C1202 1.363 . S
C1198 H1169 0.950 . S
C1198 C1197 1.397 . S
C1198 C1199 1.334 . S
C1199 H1170 0.950 . S
C1199 C1198 1.334 . S
C1199 C1200 1.287 . S
C1200 C1199 1.287 . S
C1200 C1201 1.524 . S
C1200 H1203 0.999 . S
C1201 H1171 0.950 . S
C1201 C1200 1.524 . S
C1201 C1202 1.415 . S
C1202 H1172 0.950 . S
C1202 C1197 1.363 . S
C1202 C1201 1.415 . S
H1203 C1200 0.999 . S
H1204 C1185 0.913 . S
H1205 C1223 0.951 . S
H1206 C1225 0.951 . S
H1207 C1227 0.950 . S
H1208 C1228 0.950 . S
H1209 C1230 0.950 . S
H1210 C1233 0.950 . S
H1211 C1234 0.950 . S
H1212 C1236 0.950 . S
H1213 C1237 0.950 . S
H1214 C1238 0.951 . S
H1215 C1240 0.951 . S
H1216 C1242 0.950 . S
H1217 C1243 0.950 . S
H1218 C1245 0.950 . S
H1219 C1248 0.950 . S
H1220 C1249 0.950 . S
H1221 C1251 0.950 . S
H1222 C1252 0.950 . S
C1223 H1205 0.951 . S
C1223 C1224 1.366 . S
C1223 C1225 1.388 . S
C1224 C1223 1.366 . S
C1224 C1228 1.385 . S
C1225 H1206 0.951 . S
C1225 C1223 1.388 . S
C1225 C1226 1.366 . S
C1226 C1225 1.366 . S
C1226 C1227 1.414 . S
C1226 C1229 1.499 . S
C1227 H1207 0.950 . S
C1227 C1226 1.414 . S
C1227 C1228 1.374 . S
C1228 H1208 0.950 . S
C1228 C1224 1.385 . S
C1228 C1227 1.374 . S
C1229 C1226 1.499 . S
C1229 C1230 1.373 . S
C1229 C1231 1.389 . S
C1230 H1209 0.950 . S
C1230 C1229 1.373 . S
C1230 C1246 1.377 . S
C1231 C1229 1.389 . S
C1231 C1232 1.524 . S
C1231 C1245 1.377 . S
C1232 C1231 1.524 . S
C1232 C1233 1.397 . S
C1232 C1237 1.363 . S
C1233 H1210 0.950 . S
C1233 C1232 1.397 . S
C1233 C1234 1.334 . S
C1234 H1211 0.950 . S
C1234 C1233 1.334 . S
C1234 C1235 1.287 . S
C1235 C1234 1.287 . S
C1235 C1236 1.524 . S
C1235 H1254 0.913 . S
C1236 H1212 0.950 . S
C1236 C1235 1.524 . S
C1236 C1237 1.415 . S
C1237 H1213 0.950 . S
C1237 C1232 1.363 . S
C1237 C1236 1.415 . S
C1238 H1214 0.951 . S
C1238 C1239 1.366 . S
C1238 C1240 1.388 . S
C1239 C1238 1.366 . S
C1239 C1243 1.385 . S
C1240 H1215 0.951 . S
C1240 C1238 1.388 . S
C1240 C1241 1.366 . S
C1241 C1240 1.366 . S
C1241 C1242 1.414 . S
C1241 C1244 1.499 . S
C1242 H1216 0.950 . S
C1242 C1241 1.414 . S
C1242 C1243 1.374 . S
C1243 H1217 0.950 . S
C1243 C1239 1.385 . S
C1243 C1242 1.374 . S
C1244 C1241 1.499 . S
C1244 C1245 1.373 . S
C1244 C1246 1.389 . S
C1245 H1218 0.950 . S
C1245 C1231 1.377 . S
C1245 C1244 1.373 . S
C1246 C1230 1.377 . S
C1246 C1244 1.389 . S
C1246 C1247 1.524 . S
C1247 C1246 1.524 . S
C1247 C1248 1.397 . S
C1247 C1252 1.363 . S
C1248 H1219 0.950 . S
C1248 C1247 1.397 . S
C1248 C1249 1.334 . S
C1249 H1220 0.950 . S
C1249 C1248 1.334 . S
C1249 C1250 1.287 . S
C1250 C1249 1.287 . S
C1250 C1251 1.524 . S
C1250 H1253 0.999 . S
C1251 H1221 0.950 . S
C1251 C1250 1.524 . S
C1251 C1252 1.415 . S
C1252 H1222 0.950 . S
C1252 C1247 1.363 . S
C1252 C1251 1.415 . S
H1253 C1250 0.999 . S
H1254 C1235 0.913 . S
H1255 C1273 0.951 . S
H1256 C1275 0.951 . S
H1257 C1277 0.950 . S
H1258 C1278 0.950 . S
H1259 C1280 0.950 . S
H1260 C1283 0.950 . S
H1261 C1284 0.950 . S
H1262 C1286 0.950 . S
H1263 C1287 0.950 . S
H1264 C1288 0.951 . S
H1265 C1290 0.951 . S
H1266 C1292 0.950 . S
H1267 C1293 0.950 . S
H1268 C1295 0.950 . S
H1269 C1298 0.950 . S
H1270 C1299 0.950 . S
H1271 C1301 0.950 . S
H1272 C1302 0.950 . S
C1273 H1255 0.951 . S
C1273 C1274 1.366 . S
C1273 C1275 1.388 . S
C1274 C1273 1.366 . S
C1274 C1278 1.385 . S
C1275 H1256 0.951 . S
C1275 C1273 1.388 . S
C1275 C1276 1.366 . S
C1276 C1275 1.366 . S
C1276 C1277 1.414 . S
C1276 C1279 1.499 . S
C1277 H1257 0.950 . S
C1277 C1276 1.414 . S
C1277 C1278 1.374 . S
C1278 H1258 0.950 . S
C1278 C1274 1.385 . S
C1278 C1277 1.374 . S
C1279 C1276 1.499 . S
C1279 C1280 1.373 . S
C1279 C1281 1.389 . S
C1280 H1259 0.950 . S
C1280 C1279 1.373 . S
C1280 C1296 1.377 . S
C1281 C1279 1.389 . S
C1281 C1282 1.524 . S
C1281 C1295 1.377 . S
C1282 C1281 1.524 . S
C1282 C1283 1.397 . S
C1282 C1287 1.363 . S
C1283 H1260 0.950 . S
C1283 C1282 1.397 . S
C1283 C1284 1.334 . S
C1284 H1261 0.950 . S
C1284 C1283 1.334 . S
C1284 C1285 1.287 . S
C1285 C1284 1.287 . S
C1285 C1286 1.524 . S
C1285 H1304 0.913 . S
C1286 H1262 0.950 . S
C1286 C1285 1.524 . S
C1286 C1287 1.415 . S
C1287 H1263 0.950 . S
C1287 C1282 1.363 . S
C1287 C1286 1.415 . S
C1288 H1264 0.951 . S
C1288 C1289 1.366 . S
C1288 C1290 1.388 . S
C1289 C1288 1.366 . S
C1289 C1293 1.385 . S
C1290 H1265 0.951 . S
C1290 C1288 1.388 . S
C1290 C1291 1.366 . S
C1291 C1290 1.366 . S
C1291 C1292 1.414 . S
C1291 C1294 1.499 . S
C1292 H1266 0.950 . S
C1292 C1291 1.414 . S
C1292 C1293 1.374 . S
C1293 H1267 0.950 . S
C1293 C1289 1.385 . S
C1293 C1292 1.374 . S
C1294 C1291 1.499 . S
C1294 C1295 1.373 . S
C1294 C1296 1.389 . S
C1295 H1268 0.950 . S
C1295 C1281 1.377 . S
C1295 C1294 1.373 . S
C1296 C1280 1.377 . S
C1296 C1294 1.389 . S
C1296 C1297 1.524 . S
C1297 C1296 1.524 . S
C1297 C1298 1.397 . S
C1297 C1302 1.363 . S
C1298 H1269 0.950 . S
C1298 C1297 1.397 . S
C1298 C1299 1.334 . S
C1299 H1270 0.950 . S
C1299 C1298 1.334 . S
C1299 C1300 1.287 . S
C1300 C1299 1.287 . S
C1300 C1301 1.524 . S
C1300 H1303 0.999 . S
C1301 H1271 0.950 . S
C1301 C1300 1.524 . S
C1301 C1302 1.415 . S
C1302 H1272 0.950 . S
C1302 C1297 1.363 . S
C1302 C1301 1.415 . S
H1303 C1300 0.999 . S
H1304 C1285 0.913 . S
H1305 C1323 0.951 . S
H1306 C1325 0.951 . S
H1307 C1327 0.950 . S
H1308 C1328 0.950 . S
H1309 C1330 0.950 . S
H1310 C1333 0.950 . S
H1311 C1334 0.950 . S
H1312 C1336 0.950 . S
H1313 C1337 0.950 . S
H1314 C1338 0.951 . S
H1315 C1340 0.951 . S
H1316 C1342 0.950 . S
H1317 C1343 0.950 . S
H1318 C1345 0.950 . S
H1319 C1348 0.950 . S
H1320 C1349 0.950 . S
H1321 C1351 0.950 . S
H1322 C1352 0.950 . S
C1323 H1305 0.951 . S
C1323 C1324 1.366 . S
C1323 C1325 1.388 . S
C1324 C1323 1.366 . S
C1324 C1328 1.385 . S
C1325 H1306 0.951 . S
C1325 C1323 1.388 . S
C1325 C1326 1.366 . S
C1326 C1325 1.366 . S
C1326 C1327 1.414 . S
C1326 C1329 1.499 . S
C1327 H1307 0.950 . S
C1327 C1326 1.414 . S
C1327 C1328 1.374 . S
C1328 H1308 0.950 . S
C1328 C1324 1.385 . S
C1328 C1327 1.374 . S
C1329 C1326 1.499 . S
C1329 C1330 1.373 . S
C1329 C1331 1.389 . S
C1330 H1309 0.950 . S
C1330 C1329 1.373 . S
C1330 C1346 1.377 . S
C1331 C1329 1.389 . S
C1331 C1332 1.524 . S
C1331 C1345 1.377 . S
C1332 C1331 1.524 . S
C1332 C1333 1.397 . S
C1332 C1337 1.363 . S
C1333 H1310 0.950 . S
C1333 C1332 1.397 . S
C1333 C1334 1.334 . S
C1334 H1311 0.950 . S
C1334 C1333 1.334 . S
C1334 C1335 1.287 . S
C1335 C1334 1.287 . S
C1335 C1336 1.524 . S
C1335 H1354 0.913 . S
C1336 H1312 0.950 . S
C1336 C1335 1.524 . S
C1336 C1337 1.415 . S
C1337 H1313 0.950 . S
C1337 C1332 1.363 . S
C1337 C1336 1.415 . S
C1338 H1314 0.951 . S
C1338 C1339 1.366 . S
C1338 C1340 1.388 . S
C1339 C1338 1.366 . S
C1339 C1343 1.385 . S
C1340 H1315 0.951 . S
C1340 C1338 1.388 . S
C1340 C1341 1.366 . S
C1341 C1340 1.366 . S
C1341 C1342 1.414 . S
C1341 C1344 1.499 . S
C1342 H1316 0.950 . S
C1342 C1341 1.414 . S
C1342 C1343 1.374 . S
C1343 H1317 0.950 . S
C1343 C1339 1.385 . S
C1343 C1342 1.374 . S
C1344 C1341 1.499 . S
C1344 C1345 1.373 . S
C1344 C1346 1.389 . S
C1345 H1318 0.950 . S
C1345 C1331 1.377 . S
C1345 C1344 1.373 . S
C1346 C1330 1.377 . S
C1346 C1344 1.389 . S
C1346 C1347 1.524 . S
C1347 C1346 1.524 . S
C1347 C1348 1.397 . S
C1347 C1352 1.363 . S
C1348 H1319 0.950 . S
C1348 C1347 1.397 . S
C1348 C1349 1.334 . S
C1349 H1320 0.950 . S
C1349 C1348 1.334 . S
C1349 C1350 1.287 . S
C1350 C1349 1.287 . S
C1350 C1351 1.524 . S
C1350 H1353 0.999 . S
C1351 H1321 0.950 . S
C1351 C1350 1.524 . S
C1351 C1352 1.415 . S
C1352 H1322 0.950 . S
C1352 C1347 1.363 . S
C1352 C1351 1.415 . S
H1353 C1350 0.999 . S
H1354 C1335 0.913 . S
H1355 C1373 0.951 . S
H1356 C1375 0.951 . S
H1357 C1377 0.950 . S
H1358 C1378 0.950 . S
H1359 C1380 0.950 . S
H1360 C1383 0.950 . S
H1361 C1384 0.950 . S
H1362 C1386 0.950 . S
H1363 C1387 0.950 . S
H1364 C1388 0.951 . S
H1365 C1390 0.951 . S
H1366 C1392 0.950 . S
H1367 C1393 0.950 . S
H1368 C1395 0.950 . S
H1369 C1398 0.950 . S
H1370 C1399 0.950 . S
H1371 C1401 0.950 . S
H1372 C1402 0.950 . S
C1373 H1355 0.951 . S
C1373 C1374 1.366 . S
C1373 C1375 1.388 . S
C1374 C1373 1.366 . S
C1374 C1378 1.385 . S
C1375 H1356 0.951 . S
C1375 C1373 1.388 . S
C1375 C1376 1.366 . S
C1376 C1375 1.366 . S
C1376 C1377 1.414 . S
C1376 C1379 1.499 . S
C1377 H1357 0.950 . S
C1377 C1376 1.414 . S
C1377 C1378 1.374 . S
C1378 H1358 0.950 . S
C1378 C1374 1.385 . S
C1378 C1377 1.374 . S
C1379 C1376 1.499 . S
C1379 C1380 1.373 . S
C1379 C1381 1.389 . S
C1380 H1359 0.950 . S
C1380 C1379 1.373 . S
C1380 C1396 1.377 . S
C1381 C1379 1.389 . S
C1381 C1382 1.524 . S
C1381 C1395 1.377 . S
C1382 C1381 1.524 . S
C1382 C1383 1.397 . S
C1382 C1387 1.363 . S
C1383 H1360 0.950 . S
C1383 C1382 1.397 . S
C1383 C1384 1.334 . S
C1384 H1361 0.950 . S
C1384 C1383 1.334 . S
C1384 C1385 1.287 . S
C1385 C1384 1.287 . S
C1385 C1386 1.524 . S
C1385 H1404 0.913 . S
C1386 H1362 0.950 . S
C1386 C1385 1.524 . S
C1386 C1387 1.415 . S
C1387 H1363 0.950 . S
C1387 C1382 1.363 . S
C1387 C1386 1.415 . S
C1388 H1364 0.951 . S
C1388 C1389 1.366 . S
C1388 C1390 1.388 . S
C1389 C1388 1.366 . S
C1389 C1393 1.385 . S
C1390 H1365 0.951 . S
C1390 C1388 1.388 . S
C1390 C1391 1.366 . S
C1391 C1390 1.366 . S
C1391 C1392 1.414 . S
C1391 C1394 1.499 . S
C1392 H1366 0.950 . S
C1392 C1391 1.414 . S
C1392 C1393 1.374 . S
C1393 H1367 0.950 . S
C1393 C1389 1.385 . S
C1393 C1392 1.374 . S
C1394 C1391 1.499 . S
C1394 C1395 1.373 . S
C1394 C1396 1.389 . S
C1395 H1368 0.950 . S
C1395 C1381 1.377 . S
C1395 C1394 1.373 . S
C1396 C1380 1.377 . S
C1396 C1394 1.389 . S
C1396 C1397 1.524 . S
C1397 C1396 1.524 . S
C1397 C1398 1.397 . S
C1397 C1402 1.363 . S
C1398 H1369 0.950 . S
C1398 C1397 1.397 . S
C1398 C1399 1.334 . S
C1399 H1370 0.950 . S
C1399 C1398 1.334 . S
C1399 C1400 1.287 . S
C1400 C1399 1.287 . S
C1400 C1401 1.524 . S
C1400 H1403 0.999 . S
C1401 H1371 0.950 . S
C1401 C1400 1.524 . S
C1401 C1402 1.415 . S
C1402 H1372 0.950 . S
C1402 C1397 1.363 . S
C1402 C1401 1.415 . S
H1403 C1400 0.999 . S
H1404 C1385 0.913 . S
H1405 C1423 0.951 . S
H1406 C1425 0.951 . S
H1407 C1427 0.950 . S
H1408 C1428 0.950 . S
H1409 C1430 0.950 . S
H1410 C1433 0.950 . S
H1411 C1434 0.950 . S
H1412 C1436 0.950 . S
H1413 C1437 0.950 . S
H1414 C1438 0.951 . S
H1415 C1440 0.951 . S
H1416 C1442 0.950 . S
H1417 C1443 0.950 . S
H1418 C1445 0.950 . S
H1419 C1448 0.950 . S
H1420 C1449 0.950 . S
H1421 C1451 0.950 . S
H1422 C1452 0.950 . S
C1423 H1405 0.951 . S
C1423 C1424 1.366 . S
C1423 C1425 1.388 . S
C1424 C1423 1.366 . S
C1424 C1428 1.385 . S
C1425 H1406 0.951 . S
C1425 C1423 1.388 . S
C1425 C1426 1.366 . S
C1426 C1425 1.366 . S
C1426 C1427 1.414 . S
C1426 C1429 1.499 . S
C1427 H1407 0.950 . S
C1427 C1426 1.414 . S
C1427 C1428 1.374 . S
C1428 H1408 0.950 . S
C1428 C1424 1.385 . S
C1428 C1427 1.374 . S
C1429 C1426 1.499 . S
C1429 C1430 1.373 . S
C1429 C1431 1.389 . S
C1430 H1409 0.950 . S
C1430 C1429 1.373 . S
C1430 C1446 1.377 . S
C1431 C1429 1.389 . S
C1431 C1432 1.524 . S
C1431 C1445 1.377 . S
C1432 C1431 1.524 . S
C1432 C1433 1.397 . S
C1432 C1437 1.363 . S
C1433 H1410 0.950 . S
C1433 C1432 1.397 . S
C1433 C1434 1.334 . S
C1434 H1411 0.950 . S
C1434 C1433 1.334 . S
C1434 C1435 1.287 . S
C1435 C1434 1.287 . S
C1435 C1436 1.524 . S
C1435 H1454 0.913 . S
C1436 H1412 0.950 . S
C1436 C1435 1.524 . S
C1436 C1437 1.415 . S
C1437 H1413 0.950 . S
C1437 C1432 1.363 . S
C1437 C1436 1.415 . S
C1438 H1414 0.951 . S
C1438 C1439 1.366 . S
C1438 C1440 1.388 . S
C1439 C1438 1.366 . S
C1439 C1443 1.385 . S
C1440 H1415 0.951 . S
C1440 C1438 1.388 . S
C1440 C1441 1.366 . S
C1441 C1440 1.366 . S
C1441 C1442 1.414 . S
C1441 C1444 1.499 . S
C1442 H1416 0.950 . S
C1442 C1441 1.414 . S
C1442 C1443 1.374 . S
C1443 H1417 0.950 . S
C1443 C1439 1.385 . S
C1443 C1442 1.374 . S
C1444 C1441 1.499 . S
C1444 C1445 1.373 . S
C1444 C1446 1.389 . S
C1445 H1418 0.950 . S
C1445 C1431 1.377 . S
C1445 C1444 1.373 . S
C1446 C1430 1.377 . S
C1446 C1444 1.389 . S
C1446 C1447 1.524 . S
C1447 C1446 1.524 . S
C1447 C1448 1.397 . S
C1447 C1452 1.363 . S
C1448 H1419 0.950 . S
C1448 C1447 1.397 . S
C1448 C1449 1.334 . S
C1449 H1420 0.950 . S
C1449 C1448 1.334 . S
C1449 C1450 1.287 . S
C1450 C1449 1.287 . S
C1450 C1451 1.524 . S
C1450 H1453 0.999 . S
C1451 H1421 0.950 . S
C1451 C1450 1.524 . S
C1451 C1452 1.415 . S
C1452 H1422 0.950 . S
C1452 C1447 1.363 . S
C1452 C1451 1.415 . S
H1453 C1450 0.999 . S
H1454 C1435 0.913 . S
H1455 C1473 0.951 . S
H1456 C1475 0.951 . S
H1457 C1477 0.950 . S
H1458 C1478 0.950 . S
H1459 C1480 0.950 . S
H1460 C1483 0.951 1_565 S
H1461 C1484 0.950 . S
H1462 C1486 0.950 . S
H1463 C1487 0.950 . S
H1464 C1488 0.951 . S
H1465 C1490 0.951 . S
H1466 C1492 0.950 . S
H1467 C1493 0.950 . S
H1468 C1495 0.950 . S
H1469 C1498 0.950 . S
H1470 C1499 0.950 . S
H1471 C1501 0.950 . S
H1472 C1502 0.950 . S
C1473 H1455 0.951 . S
C1473 C1474 1.366 . S
C1473 C1475 1.388 . S
C1474 C1473 1.366 . S
C1474 C1478 1.385 . S
C1475 H1456 0.951 . S
C1475 C1473 1.388 . S
C1475 C1476 1.366 . S
C1476 C1475 1.366 . S
C1476 C1477 1.414 . S
C1476 C1479 1.499 1_545 S
C1477 H1457 0.950 . S
C1477 C1476 1.414 . S
C1477 C1478 1.374 . S
C1478 H1458 0.950 . S
C1478 C1474 1.385 . S
C1478 C1477 1.374 . S
C1479 C1476 1.499 1_565 S
C1479 C1480 1.373 . S
C1479 C1481 1.389 . S
C1480 H1459 0.950 . S
C1480 C1479 1.373 . S
C1480 C1496 1.377 . S
C1481 C1479 1.389 . S
C1481 C1482 1.524 . S
C1481 C1495 1.377 . S
C1482 C1481 1.524 . S
C1482 C1483 1.396 1_565 S
C1482 C1487 1.363 . S
C1483 H1460 0.951 1_545 S
C1483 C1482 1.396 1_545 S
C1483 C1484 1.337 . S
C1484 H1461 0.950 . S
C1484 C1483 1.337 . S
C1484 C1485 1.287 . S
C1485 C1484 1.287 . S
C1485 C1486 1.524 1_545 S
C1485 H1504 0.913 . S
C1486 H1462 0.950 . S
C1486 C1485 1.524 1_565 S
C1486 C1487 1.415 . S
C1487 H1463 0.950 . S
C1487 C1482 1.363 . S
C1487 C1486 1.415 . S
C1488 H1464 0.951 . S
C1488 C1489 1.366 . S
C1488 C1490 1.388 . S
C1489 C1488 1.366 . S
C1489 C1493 1.385 . S
C1490 H1465 0.951 . S
C1490 C1488 1.388 . S
C1490 C1491 1.366 . S
C1491 C1490 1.366 . S
C1491 C1492 1.414 . S
C1491 C1494 1.499 . S
C1492 H1466 0.950 . S
C1492 C1491 1.414 . S
C1492 C1493 1.374 . S
C1493 H1467 0.950 . S
C1493 C1489 1.385 . S
C1493 C1492 1.374 . S
C1494 C1491 1.499 . S
C1494 C1495 1.373 . S
C1494 C1496 1.389 . S
C1495 H1468 0.950 . S
C1495 C1481 1.377 . S
C1495 C1494 1.373 . S
C1496 C1480 1.377 . S
C1496 C1494 1.389 . S
C1496 C1497 1.524 . S
C1497 C1496 1.524 . S
C1497 C1498 1.397 . S
C1497 C1502 1.363 . S
C1498 H1469 0.950 . S
C1498 C1497 1.397 . S
C1498 C1499 1.334 . S
C1499 H1470 0.950 . S
C1499 C1498 1.334 . S
C1499 C1500 1.287 . S
C1500 C1499 1.287 . S
C1500 C1501 1.524 . S
C1500 H1503 0.999 . S
C1501 H1471 0.950 . S
C1501 C1500 1.524 . S
C1501 C1502 1.415 . S
C1502 H1472 0.950 . S
C1502 C1497 1.363 . S
C1502 C1501 1.415 . S
H1503 C1500 0.999 . S
H1504 C1485 0.913 . S
H1505 C1523 0.951 . S
H1506 C1525 0.951 . S
H1507 C1527 0.950 . S
H1508 C1528 0.950 . S
H1509 C1530 0.950 . S
H1510 C1533 0.950 . S
H1511 C1534 0.952 1_655 S
H1512 C1536 0.950 . S
H1513 C1537 0.950 . S
H1514 C1538 0.951 . S
H1515 C1540 0.951 . S
H1516 C1542 0.950 . S
H1517 C1543 0.950 . S
H1518 C1545 0.950 . S
H1519 C1548 0.950 . S
H1520 C1549 0.950 . S
H1521 C1551 0.950 . S
H1522 C1552 0.950 . S
C1523 H1505 0.951 . S
C1523 C1524 1.366 . S
C1523 C1525 1.388 . S
C1524 C1523 1.366 . S
C1524 C1528 1.385 . S
C1525 H1506 0.951 . S
C1525 C1523 1.388 . S
C1525 C1526 1.366 . S
C1526 C1525 1.366 . S
C1526 C1527 1.414 . S
C1526 C1529 1.499 1_655 S
C1527 H1507 0.950 . S
C1527 C1526 1.414 . S
C1527 C1528 1.374 . S
C1528 H1508 0.950 . S
C1528 C1524 1.385 . S
C1528 C1527 1.374 . S
C1529 C1526 1.499 1_455 S
C1529 C1530 1.373 . S
C1529 C1531 1.389 . S
C1530 H1509 0.950 . S
C1530 C1529 1.373 . S
C1530 C1546 1.377 . S
C1531 C1529 1.389 . S
C1531 C1532 1.524 . S
C1531 C1545 1.377 . S
C1532 C1531 1.524 . S
C1532 C1533 1.397 . S
C1532 C1537 1.363 . S
C1533 H1510 0.950 . S
C1533 C1532 1.397 . S
C1533 C1534 1.334 . S
C1534 H1511 0.952 1_455 S
C1534 C1533 1.334 . S
C1534 C1535 1.287 . S
C1535 C1534 1.287 . S
C1535 C1536 1.524 . S
C1535 H1554 0.913 . S
C1536 H1512 0.950 . S
C1536 C1535 1.524 . S
C1536 C1537 1.415 . S
C1537 H1513 0.950 . S
C1537 C1532 1.363 . S
C1537 C1536 1.415 . S
C1538 H1514 0.951 . S
C1538 C1539 1.366 . S
C1538 C1540 1.388 . S
C1539 C1538 1.366 . S
C1539 C1543 1.385 . S
C1540 H1515 0.951 . S
C1540 C1538 1.388 . S
C1540 C1541 1.366 . S
C1541 C1540 1.366 . S
C1541 C1542 1.414 . S
C1541 C1544 1.499 . S
C1542 H1516 0.950 . S
C1542 C1541 1.414 . S
C1542 C1543 1.374 . S
C1543 H1517 0.950 . S
C1543 C1539 1.385 . S
C1543 C1542 1.374 . S
C1544 C1541 1.499 . S
C1544 C1545 1.373 . S
C1544 C1546 1.389 . S
C1545 H1518 0.950 . S
C1545 C1531 1.377 . S
C1545 C1544 1.373 . S
C1546 C1530 1.377 . S
C1546 C1544 1.389 . S
C1546 C1547 1.524 . S
C1547 C1546 1.524 . S
C1547 C1548 1.397 . S
C1547 C1552 1.363 . S
C1548 H1519 0.950 . S
C1548 C1547 1.397 . S
C1548 C1549 1.334 . S
C1549 H1520 0.950 . S
C1549 C1548 1.334 . S
C1549 C1550 1.287 . S
C1550 C1549 1.287 . S
C1550 C1551 1.524 . S
C1550 H1553 0.999 . S
C1551 H1521 0.950 . S
C1551 C1550 1.524 . S
C1551 C1552 1.415 . S
C1552 H1522 0.950 . S
C1552 C1547 1.363 . S
C1552 C1551 1.415 . S
H1553 C1550 0.999 . S
H1554 C1535 0.913 . S
H1555 C1573 0.951 . S
H1556 C1575 0.951 . S
H1557 C1577 0.950 . S
H1558 C1578 0.950 . S
H1559 C1580 0.950 . S
H1560 C1583 0.950 . S
H1561 C1584 0.950 . S
H1562 C1586 0.950 . S
H1563 C1587 0.950 . S
H1564 C1588 0.951 . S
H1565 C1590 0.951 . S
H1566 C1592 0.950 . S
H1567 C1593 0.950 . S
H1568 C1595 0.950 . S
H1569 C1598 0.950 . S
H1570 C1599 0.950 . S
H1571 C1601 0.950 . S
H1572 C1602 0.950 . S
C1573 H1555 0.951 . S
C1573 C1574 1.366 . S
C1573 C1575 1.388 . S
C1574 C1573 1.366 . S
C1574 C1578 1.385 . S
C1575 H1556 0.951 . S
C1575 C1573 1.388 . S
C1575 C1576 1.366 . S
C1576 C1575 1.366 . S
C1576 C1577 1.414 . S
C1576 C1579 1.499 . S
C1577 H1557 0.950 . S
C1577 C1576 1.414 . S
C1577 C1578 1.374 . S
C1578 H1558 0.950 . S
C1578 C1574 1.385 . S
C1578 C1577 1.374 . S
C1579 C1576 1.499 . S
C1579 C1580 1.373 . S
C1579 C1581 1.389 . S
C1580 H1559 0.950 . S
C1580 C1579 1.373 . S
C1580 C1596 1.377 . S
C1581 C1579 1.389 . S
C1581 C1582 1.524 . S
C1581 C1595 1.377 . S
C1582 C1581 1.524 . S
C1582 C1583 1.397 . S
C1582 C1587 1.363 . S
C1583 H1560 0.950 . S
C1583 C1582 1.397 . S
C1583 C1584 1.334 . S
C1584 H1561 0.950 . S
C1584 C1583 1.334 . S
C1584 C1585 1.287 . S
C1585 C1584 1.287 . S
C1585 C1586 1.524 . S
C1585 H1604 0.913 . S
C1586 H1562 0.950 . S
C1586 C1585 1.524 . S
C1586 C1587 1.415 . S
C1587 H1563 0.950 . S
C1587 C1582 1.363 . S
C1587 C1586 1.415 . S
C1588 H1564 0.951 . S
C1588 C1589 1.366 . S
C1588 C1590 1.388 . S
C1589 C1588 1.366 . S
C1589 C1593 1.385 . S
C1590 H1565 0.951 . S
C1590 C1588 1.388 . S
C1590 C1591 1.366 . S
C1591 C1590 1.366 . S
C1591 C1592 1.414 . S
C1591 C1594 1.499 . S
C1592 H1566 0.950 . S
C1592 C1591 1.414 . S
C1592 C1593 1.374 . S
C1593 H1567 0.950 . S
C1593 C1589 1.385 . S
C1593 C1592 1.374 . S
C1594 C1591 1.499 . S
C1594 C1595 1.373 . S
C1594 C1596 1.389 . S
C1595 H1568 0.950 . S
C1595 C1581 1.377 . S
C1595 C1594 1.373 . S
C1596 C1580 1.377 . S
C1596 C1594 1.389 . S
C1596 C1597 1.524 . S
C1597 C1596 1.524 . S
C1597 C1598 1.397 . S
C1597 C1602 1.363 . S
C1598 H1569 0.950 . S
C1598 C1597 1.397 . S
C1598 C1599 1.334 . S
C1599 H1570 0.950 . S
C1599 C1598 1.334 . S
C1599 C1600 1.287 . S
C1600 C1599 1.287 . S
C1600 C1601 1.524 . S
C1600 H1603 0.999 . S
C1601 H1571 0.950 . S
C1601 C1600 1.524 . S
C1601 C1602 1.415 . S
C1602 H1572 0.950 . S
C1602 C1597 1.363 . S
C1602 C1601 1.415 . S
H1603 C1600 0.999 . S
H1604 C1585 0.913 . S
H1605 C1623 0.951 . S
H1606 C1625 0.951 . S
H1607 C1627 0.950 . S
H1608 C1628 0.950 . S
H1609 C1630 0.950 . S
H1610 C1633 0.950 . S
H1611 C1634 0.950 . S
H1612 C1636 0.950 . S
H1613 C1637 0.950 . S
H1614 C1638 0.951 . S
H1615 C1640 0.951 . S
H1616 C1642 0.950 . S
H1617 C1643 0.950 . S
H1618 C1645 0.950 . S
H1619 C1648 0.950 . S
H1620 C1649 0.950 . S
H1621 C1651 0.950 . S
H1622 C1652 0.950 . S
C1623 H1605 0.951 . S
C1623 C1624 1.366 . S
C1623 C1625 1.388 . S
C1624 C1623 1.366 . S
C1624 C1628 1.385 . S
C1625 H1606 0.951 . S
C1625 C1623 1.388 . S
C1625 C1626 1.366 . S
C1626 C1625 1.366 . S
C1626 C1627 1.414 . S
C1626 C1629 1.499 . S
C1627 H1607 0.950 . S
C1627 C1626 1.414 . S
C1627 C1628 1.374 . S
C1628 H1608 0.950 . S
C1628 C1624 1.385 . S
C1628 C1627 1.374 . S
C1629 C1626 1.499 . S
C1629 C1630 1.373 . S
C1629 C1631 1.389 . S
C1630 H1609 0.950 . S
C1630 C1629 1.373 . S
C1630 C1646 1.377 . S
C1631 C1629 1.389 . S
C1631 C1632 1.524 . S
C1631 C1645 1.377 . S
C1632 C1631 1.524 . S
C1632 C1633 1.397 . S
C1632 C1637 1.363 . S
C1633 H1610 0.950 . S
C1633 C1632 1.397 . S
C1633 C1634 1.334 . S
C1634 H1611 0.950 . S
C1634 C1633 1.334 . S
C1634 C1635 1.287 . S
C1635 C1634 1.287 . S
C1635 C1636 1.524 . S
C1635 H1654 0.913 . S
C1636 H1612 0.950 . S
C1636 C1635 1.524 . S
C1636 C1637 1.415 . S
C1637 H1613 0.950 . S
C1637 C1632 1.363 . S
C1637 C1636 1.415 . S
C1638 H1614 0.951 . S
C1638 C1639 1.366 . S
C1638 C1640 1.388 . S
C1639 C1638 1.366 . S
C1639 C1643 1.385 . S
C1640 H1615 0.951 . S
C1640 C1638 1.388 . S
C1640 C1641 1.366 . S
C1641 C1640 1.366 . S
C1641 C1642 1.414 . S
C1641 C1644 1.499 . S
C1642 H1616 0.950 . S
C1642 C1641 1.414 . S
C1642 C1643 1.374 . S
C1643 H1617 0.950 . S
C1643 C1639 1.385 . S
C1643 C1642 1.374 . S
C1644 C1641 1.499 . S
C1644 C1645 1.373 . S
C1644 C1646 1.389 . S
C1645 H1618 0.950 . S
C1645 C1631 1.377 . S
C1645 C1644 1.373 . S
C1646 C1630 1.377 . S
C1646 C1644 1.389 . S
C1646 C1647 1.524 . S
C1647 C1646 1.524 . S
C1647 C1648 1.397 . S
C1647 C1652 1.363 . S
C1648 H1619 0.950 . S
C1648 C1647 1.397 . S
C1648 C1649 1.334 . S
C1649 H1620 0.950 . S
C1649 C1648 1.334 . S
C1649 C1650 1.287 . S
C1650 C1649 1.287 . S
C1650 C1651 1.524 . S
C1650 H1653 0.999 . S
C1651 H1621 0.950 . S
C1651 C1650 1.524 . S
C1651 C1652 1.415 . S
C1652 H1622 0.950 . S
C1652 C1647 1.363 . S
C1652 C1651 1.415 . S
H1653 C1650 0.999 . S
H1654 C1635 0.913 . S
H1655 C1673 0.951 . S
H1656 C1675 0.951 . S
H1657 C1677 0.950 . S
H1658 C1678 0.950 . S
H1659 C1680 0.950 . S
H1660 C1683 0.950 . S
H1661 C1684 0.950 . S
H1662 C1686 0.950 . S
H1663 C1687 0.950 . S
H1664 C1688 0.951 . S
H1665 C1690 0.951 . S
H1666 C1692 0.950 . S
H1667 C1693 0.950 . S
H1668 C1695 0.950 . S
H1669 C1698 0.950 . S
H1670 C1699 0.950 . S
H1671 C1701 0.950 . S
H1672 C1702 0.950 . S
C1673 H1655 0.951 . S
C1673 C1674 1.366 . S
C1673 C1675 1.388 . S
C1674 C1673 1.366 . S
C1674 C1678 1.385 . S
C1675 H1656 0.951 . S
C1675 C1673 1.388 . S
C1675 C1676 1.366 . S
C1676 C1675 1.366 . S
C1676 C1677 1.414 . S
C1676 C1679 1.499 . S
C1677 H1657 0.950 . S
C1677 C1676 1.414 . S
C1677 C1678 1.374 . S
C1678 H1658 0.950 . S
C1678 C1674 1.385 . S
C1678 C1677 1.374 . S
C1679 C1676 1.499 . S
C1679 C1680 1.373 . S
C1679 C1681 1.389 . S
C1680 H1659 0.950 . S
C1680 C1679 1.373 . S
C1680 C1696 1.377 . S
C1681 C1679 1.389 . S
C1681 C1682 1.524 . S
C1681 C1695 1.377 . S
C1682 C1681 1.524 . S
C1682 C1683 1.397 . S
C1682 C1687 1.363 . S
C1683 H1660 0.950 . S
C1683 C1682 1.397 . S
C1683 C1684 1.334 . S
C1684 H1661 0.950 . S
C1684 C1683 1.334 . S
C1684 C1685 1.287 . S
C1685 C1684 1.287 . S
C1685 C1686 1.524 . S
C1685 H1704 0.913 . S
C1686 H1662 0.950 . S
C1686 C1685 1.524 . S
C1686 C1687 1.415 . S
C1687 H1663 0.950 . S
C1687 C1682 1.363 . S
C1687 C1686 1.415 . S
C1688 H1664 0.951 . S
C1688 C1689 1.366 . S
C1688 C1690 1.388 . S
C1689 C1688 1.366 . S
C1689 C1693 1.385 . S
C1690 H1665 0.951 . S
C1690 C1688 1.388 . S
C1690 C1691 1.366 . S
C1691 C1690 1.366 . S
C1691 C1692 1.414 . S
C1691 C1694 1.499 . S
C1692 H1666 0.950 . S
C1692 C1691 1.414 . S
C1692 C1693 1.374 . S
C1693 H1667 0.950 . S
C1693 C1689 1.385 . S
C1693 C1692 1.374 . S
C1694 C1691 1.499 . S
C1694 C1695 1.373 . S
C1694 C1696 1.389 . S
C1695 H1668 0.950 . S
C1695 C1681 1.377 . S
C1695 C1694 1.373 . S
C1696 C1680 1.377 . S
C1696 C1694 1.389 . S
C1696 C1697 1.524 . S
C1697 C1696 1.524 . S
C1697 C1698 1.397 . S
C1697 C1702 1.363 . S
C1698 H1669 0.950 . S
C1698 C1697 1.397 . S
C1698 C1699 1.334 . S
C1699 H1670 0.950 . S
C1699 C1698 1.334 . S
C1699 C1700 1.287 . S
C1700 C1699 1.287 . S
C1700 C1701 1.524 . S
C1700 H1703 0.999 . S
C1701 H1671 0.950 . S
C1701 C1700 1.524 . S
C1701 C1702 1.415 . S
C1702 H1672 0.950 . S
C1702 C1697 1.363 . S
C1702 C1701 1.415 . S
H1703 C1700 0.999 . S
H1704 C1685 0.913 . S
H1705 C1723 0.951 . S
H1706 C1725 0.951 . S
H1707 C1727 0.950 . S
H1708 C1728 0.950 . S
H1709 C1730 0.950 . S
H1710 C1733 0.950 . S
H1711 C1734 0.950 . S
H1712 C1736 0.950 . S
H1713 C1737 0.950 . S
H1714 C1738 0.951 . S
H1715 C1740 0.951 . S
H1716 C1742 0.950 . S
H1717 C1743 0.950 . S
H1718 C1745 0.950 . S
H1719 C1748 0.950 . S
H1720 C1749 0.950 . S
H1721 C1751 0.950 . S
H1722 C1752 0.950 . S
C1723 H1705 0.951 . S
C1723 C1724 1.366 . S
C1723 C1725 1.388 . S
C1724 C1723 1.366 . S
C1724 C1728 1.385 . S
C1725 H1706 0.951 . S
C1725 C1723 1.388 . S
C1725 C1726 1.366 . S
C1726 C1725 1.366 . S
C1726 C1727 1.414 . S
C1726 C1729 1.499 . S
C1727 H1707 0.950 . S
C1727 C1726 1.414 . S
C1727 C1728 1.374 . S
C1728 H1708 0.950 . S
C1728 C1724 1.385 . S
C1728 C1727 1.374 . S
C1729 C1726 1.499 . S
C1729 C1730 1.373 . S
C1729 C1731 1.389 . S
C1730 H1709 0.950 . S
C1730 C1729 1.373 . S
C1730 C1746 1.377 . S
C1731 C1729 1.389 . S
C1731 C1732 1.524 . S
C1731 C1745 1.377 . S
C1732 C1731 1.524 . S
C1732 C1733 1.397 . S
C1732 C1737 1.363 . S
C1733 H1710 0.950 . S
C1733 C1732 1.397 . S
C1733 C1734 1.334 . S
C1734 H1711 0.950 . S
C1734 C1733 1.334 . S
C1734 C1735 1.287 . S
C1735 C1734 1.287 . S
C1735 C1736 1.524 . S
C1735 H1754 0.913 . S
C1736 H1712 0.950 . S
C1736 C1735 1.524 . S
C1736 C1737 1.415 . S
C1737 H1713 0.950 . S
C1737 C1732 1.363 . S
C1737 C1736 1.415 . S
C1738 H1714 0.951 . S
C1738 C1739 1.366 . S
C1738 C1740 1.388 . S
C1739 C1738 1.366 . S
C1739 C1743 1.385 . S
C1740 H1715 0.951 . S
C1740 C1738 1.388 . S
C1740 C1741 1.366 . S
C1741 C1740 1.366 . S
C1741 C1742 1.414 . S
C1741 C1744 1.499 . S
C1742 H1716 0.950 . S
C1742 C1741 1.414 . S
C1742 C1743 1.374 . S
C1743 H1717 0.950 . S
C1743 C1739 1.385 . S
C1743 C1742 1.374 . S
C1744 C1741 1.499 . S
C1744 C1745 1.373 . S
C1744 C1746 1.389 . S
C1745 H1718 0.950 . S
C1745 C1731 1.377 . S
C1745 C1744 1.373 . S
C1746 C1730 1.377 . S
C1746 C1744 1.389 . S
C1746 C1747 1.524 . S
C1747 C1746 1.524 . S
C1747 C1748 1.397 . S
C1747 C1752 1.363 . S
C1748 H1719 0.950 . S
C1748 C1747 1.397 . S
C1748 C1749 1.334 . S
C1749 H1720 0.950 . S
C1749 C1748 1.334 . S
C1749 C1750 1.287 . S
C1750 C1749 1.287 . S
C1750 C1751 1.524 . S
C1750 H1753 0.999 . S
C1751 H1721 0.950 . S
C1751 C1750 1.524 . S
C1751 C1752 1.415 . S
C1752 H1722 0.950 . S
C1752 C1747 1.363 . S
C1752 C1751 1.415 . S
H1753 C1750 0.999 . S
H1754 C1735 0.913 . S
H1755 C1773 0.951 . S
H1756 C1775 0.951 . S
H1757 C1777 0.950 . S
H1758 C1778 0.950 . S
H1759 C1780 0.950 . S
H1760 C1783 0.950 . S
H1761 C1784 0.950 . S
H1762 C1786 0.950 . S
H1763 C1787 0.950 . S
H1764 C1788 0.951 . S
H1765 C1790 0.951 . S
H1766 C1792 0.950 . S
H1767 C1793 0.950 . S
H1768 C1795 0.950 . S
H1769 C1798 0.950 . S
H1770 C1799 0.950 . S
H1771 C1801 0.950 1_565 S
H1772 C1802 0.950 1_565 S
C1773 H1755 0.951 . S
C1773 C1774 1.366 . S
C1773 C1775 1.388 . S
C1774 C1773 1.366 . S
C1774 C1778 1.385 . S
C1775 H1756 0.951 . S
C1775 C1773 1.388 . S
C1775 C1776 1.366 . S
C1776 C1775 1.366 . S
C1776 C1777 1.414 . S
C1776 C1779 1.499 . S
C1777 H1757 0.950 . S
C1777 C1776 1.414 . S
C1777 C1778 1.374 . S
C1778 H1758 0.950 . S
C1778 C1774 1.385 . S
C1778 C1777 1.374 . S
C1779 C1776 1.499 . S
C1779 C1780 1.373 . S
C1779 C1781 1.389 1_565 S
C1780 H1759 0.950 . S
C1780 C1779 1.373 . S
C1780 C1796 1.377 1_565 S
C1781 C1779 1.389 1_545 S
C1781 C1782 1.540 1_545 S
C1781 C1795 1.377 . S
C1782 C1781 1.540 1_565 S
C1782 C1783 1.404 . S
C1782 C1787 1.340 1_565 S
C1783 H1760 0.950 . S
C1783 C1782 1.404 . S
C1783 C1784 1.334 . S
C1784 H1761 0.950 . S
C1784 C1783 1.334 . S
C1784 C1785 1.287 . S
C1785 C1784 1.287 . S
C1785 C1786 1.524 1_565 S
C1785 H1804 0.913 . S
C1786 H1762 0.950 . S
C1786 C1785 1.524 1_545 S
C1786 C1787 1.415 . S
C1787 H1763 0.950 . S
C1787 C1782 1.340 1_545 S
C1787 C1786 1.415 . S
C1788 H1764 0.951 . S
C1788 C1789 1.366 . S
C1788 C1790 1.388 . S
C1789 C1788 1.366 . S
C1789 C1793 1.385 . S
C1790 H1765 0.951 . S
C1790 C1788 1.388 . S
C1790 C1791 1.366 . S
C1791 C1790 1.366 . S
C1791 C1792 1.414 . S
C1791 C1794 1.499 . S
C1792 H1766 0.950 . S
C1792 C1791 1.414 . S
C1792 C1793 1.374 . S
C1793 H1767 0.950 . S
C1793 C1789 1.385 . S
C1793 C1792 1.374 . S
C1794 C1791 1.499 . S
C1794 C1795 1.373 . S
C1794 C1796 1.389 . S
C1795 H1768 0.950 . S
C1795 C1781 1.377 . S
C1795 C1794 1.373 . S
C1796 C1780 1.377 1_545 S
C1796 C1794 1.389 . S
C1796 C1797 1.524 . S
C1797 C1796 1.524 . S
C1797 C1798 1.397 . S
C1797 C1802 1.363 . S
C1798 H1769 0.950 . S
C1798 C1797 1.397 . S
C1798 C1799 1.334 . S
C1799 H1770 0.950 . S
C1799 C1798 1.334 . S
C1799 C1800 1.287 . S
C1800 C1799 1.287 . S
C1800 C1801 1.524 . S
C1800 H1803 0.999 . S
C1801 H1771 0.950 1_545 S
C1801 C1800 1.524 . S
C1801 C1802 1.415 . S
C1802 H1772 0.950 1_545 S
C1802 C1797 1.363 . S
C1802 C1801 1.415 . S
H1803 C1800 0.999 . S
H1804 C1785 0.913 . S
H1805 C1823 0.951 . S
H1806 C1825 0.951 . S
H1807 C1827 0.950 . S
H1808 C1828 0.950 . S
H1809 C1830 0.950 . S
H1810 C1833 0.950 . S
H1811 C1834 0.950 . S
H1812 C1836 0.950 . S
H1813 C1837 0.950 . S
H1814 C1838 0.951 . S
H1815 C1840 0.951 . S
H1816 C1842 0.950 . S
H1817 C1843 0.950 . S
H1818 C1845 0.950 1_655 S
H1819 C1848 0.950 . S
H1820 C1849 0.950 . S
H1821 C1851 0.950 . S
H1822 C1852 0.950 . S
C1823 H1805 0.951 . S
C1823 C1824 1.366 . S
C1823 C1825 1.388 . S
C1824 C1823 1.366 . S
C1824 C1828 1.385 . S
C1825 H1806 0.951 . S
C1825 C1823 1.388 . S
C1825 C1826 1.366 . S
C1826 C1825 1.366 . S
C1826 C1827 1.414 . S
C1826 C1829 1.499 . S
C1827 H1807 0.950 . S
C1827 C1826 1.414 . S
C1827 C1828 1.374 . S
C1828 H1808 0.950 . S
C1828 C1824 1.385 . S
C1828 C1827 1.374 . S
C1829 C1826 1.499 . S
C1829 C1830 1.373 . S
C1829 C1831 1.389 . S
C1830 H1809 0.950 . S
C1830 C1829 1.373 . S
C1830 C1846 1.377 1_455 S
C1831 C1829 1.389 . S
C1831 C1832 1.524 . S
C1831 C1845 1.377 . S
C1832 C1831 1.524 . S
C1832 C1833 1.397 . S
C1832 C1837 1.363 . S
C1833 H1810 0.950 . S
C1833 C1832 1.397 . S
C1833 C1834 1.334 . S
C1834 H1811 0.950 . S
C1834 C1833 1.334 . S
C1834 C1835 1.287 . S
C1835 C1834 1.287 . S
C1835 C1836 1.524 . S
C1835 H1854 0.913 . S
C1836 H1812 0.950 . S
C1836 C1835 1.524 . S
C1836 C1837 1.415 . S
C1837 H1813 0.950 . S
C1837 C1832 1.363 . S
C1837 C1836 1.415 . S
C1838 H1814 0.951 . S
C1838 C1839 1.366 . S
C1838 C1840 1.388 . S
C1839 C1838 1.366 . S
C1839 C1843 1.385 . S
C1840 H1815 0.951 . S
C1840 C1838 1.388 . S
C1840 C1841 1.366 . S
C1841 C1840 1.366 . S
C1841 C1842 1.414 . S
C1841 C1844 1.499 . S
C1842 H1816 0.950 . S
C1842 C1841 1.414 . S
C1842 C1843 1.374 . S
C1843 H1817 0.950 . S
C1843 C1839 1.385 . S
C1843 C1842 1.374 . S
C1844 C1841 1.499 . S
C1844 C1845 1.373 1_655 S
C1844 C1846 1.389 . S
C1845 H1818 0.950 1_455 S
C1845 C1831 1.377 . S
C1845 C1844 1.373 1_455 S
C1846 C1830 1.377 1_655 S
C1846 C1844 1.389 . S
C1846 C1847 1.524 . S
C1847 C1846 1.524 . S
C1847 C1848 1.397 . S
C1847 C1852 1.363 . S
C1848 H1819 0.950 . S
C1848 C1847 1.397 . S
C1848 C1849 1.334 . S
C1849 H1820 0.950 . S
C1849 C1848 1.334 . S
C1849 C1850 1.287 . S
C1850 C1849 1.287 . S
C1850 C1851 1.524 . S
C1850 H1853 0.999 . S
C1851 H1821 0.950 . S
C1851 C1850 1.524 . S
C1851 C1852 1.415 . S
C1852 H1822 0.950 . S
C1852 C1847 1.363 . S
C1852 C1851 1.415 . S
H1853 C1850 0.999 . S
H1854 C1835 0.913 . S
H1855 C1873 0.951 . S
H1856 C1875 0.951 . S
H1857 C1877 0.950 . S
H1858 C1878 0.950 . S
H1859 C1880 0.950 . S
H1860 C1883 0.950 . S
H1861 C1884 0.950 . S
H1862 C1886 0.950 . S
H1863 C1887 0.950 . S
H1864 C1888 0.951 . S
H1865 C1890 0.951 . S
H1866 C1892 0.950 . S
H1867 C1893 0.950 . S
H1868 C1895 0.950 . S
H1869 C1898 0.950 . S
H1870 C1899 0.950 . S
H1871 C1901 0.950 . S
H1872 C1902 0.950 . S
C1873 H1855 0.951 . S
C1873 C1874 1.366 . S
C1873 C1875 1.388 . S
C1874 C1873 1.366 . S
C1874 C1878 1.385 . S
C1875 H1856 0.951 . S
C1875 C1873 1.388 . S
C1875 C1876 1.366 . S
C1876 C1875 1.366 . S
C1876 C1877 1.414 . S
C1876 C1879 1.499 . S
C1877 H1857 0.950 . S
C1877 C1876 1.414 . S
C1877 C1878 1.374 . S
C1878 H1858 0.950 . S
C1878 C1874 1.385 . S
C1878 C1877 1.374 . S
C1879 C1876 1.499 . S
C1879 C1880 1.373 . S
C1879 C1881 1.389 . S
C1880 H1859 0.950 . S
C1880 C1879 1.373 . S
C1880 C1896 1.377 . S
C1881 C1879 1.389 . S
C1881 C1882 1.524 . S
C1881 C1895 1.377 . S
C1882 C1881 1.524 . S
C1882 C1883 1.397 . S
C1882 C1887 1.363 . S
C1883 H1860 0.950 . S
C1883 C1882 1.397 . S
C1883 C1884 1.334 . S
C1884 H1861 0.950 . S
C1884 C1883 1.334 . S
C1884 C1885 1.287 . S
C1885 C1884 1.287 . S
C1885 C1886 1.524 . S
C1885 H1904 0.913 . S
C1886 H1862 0.950 . S
C1886 C1885 1.524 . S
C1886 C1887 1.415 . S
C1887 H1863 0.950 . S
C1887 C1882 1.363 . S
C1887 C1886 1.415 . S
C1888 H1864 0.951 . S
C1888 C1889 1.366 . S
C1888 C1890 1.388 . S
C1889 C1888 1.366 . S
C1889 C1893 1.385 . S
C1890 H1865 0.951 . S
C1890 C1888 1.388 . S
C1890 C1891 1.366 . S
C1891 C1890 1.366 . S
C1891 C1892 1.414 . S
C1891 C1894 1.499 . S
C1892 H1866 0.950 . S
C1892 C1891 1.414 . S
C1892 C1893 1.374 . S
C1893 H1867 0.950 . S
C1893 C1889 1.385 . S
C1893 C1892 1.374 . S
C1894 C1891 1.499 . S
C1894 C1895 1.373 . S
C1894 C1896 1.389 . S
C1895 H1868 0.950 . S
C1895 C1881 1.377 . S
C1895 C1894 1.373 . S
C1896 C1880 1.377 . S
C1896 C1894 1.389 . S
C1896 C1897 1.524 . S
C1897 C1896 1.524 . S
C1897 C1898 1.397 . S
C1897 C1902 1.363 . S
C1898 H1869 0.950 . S
C1898 C1897 1.397 . S
C1898 C1899 1.334 . S
C1899 H1870 0.950 . S
C1899 C1898 1.334 . S
C1899 C1900 1.287 . S
C1900 C1899 1.287 . S
C1900 C1901 1.524 . S
C1900 H1903 0.999 . S
C1901 H1871 0.950 . S
C1901 C1900 1.524 . S
C1901 C1902 1.415 . S
C1902 H1872 0.950 . S
C1902 C1897 1.363 . S
C1902 C1901 1.415 . S
H1903 C1900 0.999 . S
H1904 C1885 0.913 . S
H1905 C1923 0.951 . S
H1906 C1925 0.951 . S
H1907 C1927 0.950 . S
H1908 C1928 0.950 . S
H1909 C1930 0.950 . S
H1910 C1933 0.950 . S
H1911 C1934 0.950 . S
H1912 C1936 0.950 . S
H1913 C1937 0.950 . S
H1914 C1938 0.951 . S
H1915 C1940 0.951 . S
H1916 C1942 0.950 . S
H1917 C1943 0.950 . S
H1918 C1945 0.950 . S
H1919 C1948 0.950 . S
H1920 C1949 0.950 . S
H1921 C1951 0.950 . S
H1922 C1952 0.950 . S
C1923 H1905 0.951 . S
C1923 C1924 1.366 . S
C1923 C1925 1.388 . S
C1924 C1923 1.366 . S
C1924 C1928 1.385 . S
C1925 H1906 0.951 . S
C1925 C1923 1.388 . S
C1925 C1926 1.366 . S
C1926 C1925 1.366 . S
C1926 C1927 1.414 . S
C1926 C1929 1.499 1_455 S
C1927 H1907 0.950 . S
C1927 C1926 1.414 . S
C1927 C1928 1.374 . S
C1928 H1908 0.950 . S
C1928 C1924 1.385 . S
C1928 C1927 1.374 . S
C1929 C1926 1.499 1_655 S
C1929 C1930 1.373 . S
C1929 C1931 1.389 . S
C1930 H1909 0.950 . S
C1930 C1929 1.373 . S
C1930 C1946 1.377 . S
C1931 C1929 1.389 . S
C1931 C1932 1.524 . S
C1931 C1945 1.377 . S
C1932 C1931 1.524 . S
C1932 C1933 1.397 1_655 S
C1932 C1937 1.363 . S
C1933 H1910 0.950 . S
C1933 C1932 1.397 1_455 S
C1933 C1934 1.334 . S
C1934 H1911 0.950 . S
C1934 C1933 1.334 . S
C1934 C1935 1.287 . S
C1935 C1934 1.287 . S
C1935 C1936 1.524 . S
C1935 H1954 0.913 . S
C1936 H1912 0.950 . S
C1936 C1935 1.524 . S
C1936 C1937 1.415 1_455 S
C1937 H1913 0.950 . S
C1937 C1932 1.363 . S
C1937 C1936 1.415 1_655 S
C1938 H1914 0.951 . S
C1938 C1939 1.366 . S
C1938 C1940 1.388 . S
C1939 C1938 1.366 . S
C1939 C1943 1.385 . S
C1940 H1915 0.951 . S
C1940 C1938 1.388 . S
C1940 C1941 1.366 . S
C1941 C1940 1.366 . S
C1941 C1942 1.414 . S
C1941 C1944 1.499 . S
C1942 H1916 0.950 . S
C1942 C1941 1.414 . S
C1942 C1943 1.374 . S
C1943 H1917 0.950 . S
C1943 C1939 1.385 . S
C1943 C1942 1.374 . S
C1944 C1941 1.499 . S
C1944 C1945 1.373 . S
C1944 C1946 1.389 . S
C1945 H1918 0.950 . S
C1945 C1931 1.377 . S
C1945 C1944 1.373 . S
C1946 C1930 1.377 . S
C1946 C1944 1.389 . S
C1946 C1947 1.524 . S
C1947 C1946 1.524 . S
C1947 C1948 1.397 . S
C1947 C1952 1.363 . S
C1948 H1919 0.950 . S
C1948 C1947 1.397 . S
C1948 C1949 1.334 . S
C1949 H1920 0.950 . S
C1949 C1948 1.334 . S
C1949 C1950 1.287 . S
C1950 C1949 1.287 . S
C1950 C1951 1.524 . S
C1950 H1953 0.999 . S
C1951 H1921 0.950 . S
C1951 C1950 1.524 . S
C1951 C1952 1.415 . S
C1952 H1922 0.950 . S
C1952 C1947 1.363 . S
C1952 C1951 1.415 . S
H1953 C1950 0.999 . S
H1954 C1935 0.913 . S
H1955 C1973 0.951 . S
H1956 C1975 0.951 . S
H1957 C1977 0.950 . S
H1958 C1978 0.950 . S
H1959 C1980 0.950 . S
H1960 C1983 0.950 . S
H1961 C1984 0.950 . S
H1962 C1986 0.950 . S
H1963 C1987 0.950 . S
H1964 C1988 0.951 . S
H1965 C1990 0.951 . S
H1966 C1992 0.950 . S
H1967 C1993 0.950 . S
H1968 C1995 0.950 . S
H1969 C1998 0.950 . S
H1970 C1999 0.950 . S
H1971 C2001 0.950 . S
H1972 C2002 0.950 . S
C1973 H1955 0.951 . S
C1973 C1974 1.366 . S
C1973 C1975 1.388 . S
C1974 C1973 1.366 . S
C1974 C1978 1.385 . S
C1975 H1956 0.951 . S
C1975 C1973 1.388 . S
C1975 C1976 1.366 . S
C1976 C1975 1.366 . S
C1976 C1977 1.414 . S
C1976 C1979 1.499 . S
C1977 H1957 0.950 . S
C1977 C1976 1.414 . S
C1977 C1978 1.374 . S
C1978 H1958 0.950 . S
C1978 C1974 1.385 . S
C1978 C1977 1.374 . S
C1979 C1976 1.499 . S
C1979 C1980 1.373 . S
C1979 C1981 1.389 . S
C1980 H1959 0.950 . S
C1980 C1979 1.373 . S
C1980 C1996 1.377 . S
C1981 C1979 1.389 . S
C1981 C1982 1.524 . S
C1981 C1995 1.377 . S
C1982 C1981 1.524 . S
C1982 C1983 1.397 . S
C1982 C1987 1.363 . S
C1983 H1960 0.950 . S
C1983 C1982 1.397 . S
C1983 C1984 1.334 . S
C1984 H1961 0.950 . S
C1984 C1983 1.334 . S
C1984 C1985 1.287 . S
C1985 C1984 1.287 . S
C1985 C1986 1.524 . S
C1985 H2004 0.913 . S
C1986 H1962 0.950 . S
C1986 C1985 1.524 . S
C1986 C1987 1.415 . S
C1987 H1963 0.950 . S
C1987 C1982 1.363 . S
C1987 C1986 1.415 . S
C1988 H1964 0.951 . S
C1988 C1989 1.366 . S
C1988 C1990 1.388 . S
C1989 C1988 1.366 . S
C1989 C1993 1.385 . S
C1990 H1965 0.951 . S
C1990 C1988 1.388 . S
C1990 C1991 1.366 . S
C1991 C1990 1.366 . S
C1991 C1992 1.414 . S
C1991 C1994 1.499 . S
C1992 H1966 0.950 . S
C1992 C1991 1.414 . S
C1992 C1993 1.374 . S
C1993 H1967 0.950 . S
C1993 C1989 1.385 . S
C1993 C1992 1.374 . S
C1994 C1991 1.499 . S
C1994 C1995 1.373 . S
C1994 C1996 1.389 . S
C1995 H1968 0.950 . S
C1995 C1981 1.377 . S
C1995 C1994 1.373 . S
C1996 C1980 1.377 . S
C1996 C1994 1.389 . S
C1996 C1997 1.524 . S
C1997 C1996 1.524 . S
C1997 C1998 1.397 . S
C1997 C2002 1.363 . S
C1998 H1969 0.950 . S
C1998 C1997 1.397 . S
C1998 C1999 1.334 . S
C1999 H1970 0.950 . S
C1999 C1998 1.334 . S
C1999 C2000 1.287 . S
C2000 C1999 1.287 . S
C2000 C2001 1.524 . S
C2000 H2003 0.999 . S
C2001 H1971 0.950 . S
C2001 C2000 1.524 . S
C2001 C2002 1.415 . S
C2002 H1972 0.950 . S
C2002 C1997 1.363 . S
C2002 C2001 1.415 . S
H2003 C2000 0.999 . S
H2004 C1985 0.913 . S
H2005 C2023 0.951 . S
H2006 C2025 0.951 . S
H2007 C2027 0.950 . S
H2008 C2028 0.950 . S
H2009 C2030 0.950 . S
H2010 C2033 0.950 . S
H2011 C2034 0.950 . S
H2012 C2036 0.950 . S
H2013 C2037 0.950 . S
H2014 C2038 0.951 . S
H2015 C2040 0.951 . S
H2016 C2042 0.950 . S
H2017 C2043 0.950 . S
H2018 C2045 0.950 . S
H2019 C2048 0.950 . S
H2020 C2049 0.950 . S
H2021 C2051 0.950 . S
H2022 C2052 0.950 . S
C2023 H2005 0.951 . S
C2023 C2024 1.366 . S
C2023 C2025 1.388 . S
C2024 C2023 1.366 . S
C2024 C2028 1.385 . S
C2025 H2006 0.951 . S
C2025 C2023 1.388 . S
C2025 C2026 1.352 1_565 S
C2026 C2025 1.352 1_545 S
C2026 C2027 1.392 1_545 S
C2026 C2029 1.533 . S
C2027 H2007 0.950 . S
C2027 C2026 1.392 1_565 S
C2027 C2028 1.374 . S
C2028 H2008 0.950 . S
C2028 C2024 1.385 . S
C2028 C2027 1.374 . S
C2029 C2026 1.533 . S
C2029 C2030 1.373 . S
C2029 C2031 1.389 . S
C2030 H2009 0.950 . S
C2030 C2029 1.373 . S
C2030 C2046 1.377 . S
C2031 C2029 1.389 . S
C2031 C2032 1.524 . S
C2031 C2045 1.377 . S
C2032 C2031 1.524 . S
C2032 C2033 1.397 . S
C2032 C2037 1.363 . S
C2033 H2010 0.950 . S
C2033 C2032 1.397 . S
C2033 C2034 1.334 1_545 S
C2034 H2011 0.950 . S
C2034 C2033 1.334 1_565 S
C2034 C2035 1.287 . S
C2035 C2034 1.287 . S
C2035 C2036 1.524 1_565 S
C2035 H2054 0.913 . S
C2036 H2012 0.950 . S
C2036 C2035 1.524 1_545 S
C2036 C2037 1.415 . S
C2037 H2013 0.950 . S
C2037 C2032 1.363 . S
C2037 C2036 1.415 . S
C2038 H2014 0.951 . S
C2038 C2039 1.366 . S
C2038 C2040 1.388 . S
C2039 C2038 1.366 . S
C2039 C2043 1.385 . S
C2040 H2015 0.951 . S
C2040 C2038 1.388 . S
C2040 C2041 1.366 . S
C2041 C2040 1.366 . S
C2041 C2042 1.414 . S
C2041 C2044 1.499 . S
C2042 H2016 0.950 . S
C2042 C2041 1.414 . S
C2042 C2043 1.374 . S
C2043 H2017 0.950 . S
C2043 C2039 1.385 . S
C2043 C2042 1.374 . S
C2044 C2041 1.499 . S
C2044 C2045 1.373 . S
C2044 C2046 1.389 . S
C2045 H2018 0.950 . S
C2045 C2031 1.377 . S
C2045 C2044 1.373 . S
C2046 C2030 1.377 . S
C2046 C2044 1.389 . S
C2046 C2047 1.524 . S
C2047 C2046 1.524 . S
C2047 C2048 1.397 . S
C2047 C2052 1.363 . S
C2048 H2019 0.950 . S
C2048 C2047 1.397 . S
C2048 C2049 1.334 . S
C2049 H2020 0.950 . S
C2049 C2048 1.334 . S
C2049 C2050 1.287 . S
C2050 C2049 1.287 . S
C2050 C2051 1.524 . S
C2050 H2053 0.999 . S
C2051 H2021 0.950 . S
C2051 C2050 1.524 . S
C2051 C2052 1.415 . S
C2052 H2022 0.950 . S
C2052 C2047 1.363 . S
C2052 C2051 1.415 . S
H2053 C2050 0.999 . S
H2054 C2035 0.913 . S
H2055 C2073 0.951 . S
H2056 C2075 0.951 . S
H2057 C2077 0.950 . S
H2058 C2078 0.950 . S
H2059 C2080 0.950 . S
H2060 C2083 0.950 . S
H2061 C2084 0.950 . S
H2062 C2086 0.950 . S
H2063 C2087 0.950 . S
H2064 C2088 0.951 . S
H2065 C2090 0.951 . S
H2066 C2092 0.950 . S
H2067 C2093 0.950 . S
H2068 C2095 0.950 . S
H2069 C2098 0.950 . S
H2070 C2099 0.950 . S
H2071 C2101 0.950 . S
H2072 C2102 0.950 . S
C2073 H2055 0.951 . S
C2073 C2074 1.366 . S
C2073 C2075 1.388 . S
C2074 C2073 1.366 . S
C2074 C2078 1.385 . S
C2075 H2056 0.951 . S
C2075 C2073 1.388 . S
C2075 C2076 1.366 . S
C2076 C2075 1.366 . S
C2076 C2077 1.414 . S
C2076 C2079 1.499 . S
C2077 H2057 0.950 . S
C2077 C2076 1.414 . S
C2077 C2078 1.374 . S
C2078 H2058 0.950 . S
C2078 C2074 1.385 . S
C2078 C2077 1.374 . S
C2079 C2076 1.499 . S
C2079 C2080 1.373 . S
C2079 C2081 1.389 . S
C2080 H2059 0.950 . S
C2080 C2079 1.373 . S
C2080 C2096 1.377 . S
C2081 C2079 1.389 . S
C2081 C2082 1.524 . S
C2081 C2095 1.377 . S
C2082 C2081 1.524 . S
C2082 C2083 1.397 . S
C2082 C2087 1.363 . S
C2083 H2060 0.950 . S
C2083 C2082 1.397 . S
C2083 C2084 1.334 . S
C2084 H2061 0.950 . S
C2084 C2083 1.334 . S
C2084 C2085 1.287 . S
C2085 C2084 1.287 . S
C2085 C2086 1.524 . S
C2085 H2104 0.913 . S
C2086 H2062 0.950 . S
C2086 C2085 1.524 . S
C2086 C2087 1.415 . S
C2087 H2063 0.950 . S
C2087 C2082 1.363 . S
C2087 C2086 1.415 . S
C2088 H2064 0.951 . S
C2088 C2089 1.366 . S
C2088 C2090 1.388 . S
C2089 C2088 1.366 . S
C2089 C2093 1.385 . S
C2090 H2065 0.951 . S
C2090 C2088 1.388 . S
C2090 C2091 1.366 . S
C2091 C2090 1.366 . S
C2091 C2092 1.414 . S
C2091 C2094 1.499 . S
C2092 H2066 0.950 . S
C2092 C2091 1.414 . S
C2092 C2093 1.374 . S
C2093 H2067 0.950 . S
C2093 C2089 1.385 . S
C2093 C2092 1.374 . S
C2094 C2091 1.499 . S
C2094 C2095 1.373 . S
C2094 C2096 1.389 . S
C2095 H2068 0.950 . S
C2095 C2081 1.377 . S
C2095 C2094 1.373 . S
C2096 C2080 1.377 . S
C2096 C2094 1.389 . S
C2096 C2097 1.524 . S
C2097 C2096 1.524 . S
C2097 C2098 1.397 . S
C2097 C2102 1.363 . S
C2098 H2069 0.950 . S
C2098 C2097 1.397 . S
C2098 C2099 1.334 . S
C2099 H2070 0.950 . S
C2099 C2098 1.334 . S
C2099 C2100 1.287 . S
C2100 C2099 1.287 . S
C2100 C2101 1.524 . S
C2100 H2103 0.999 . S
C2101 H2071 0.950 . S
C2101 C2100 1.524 . S
C2101 C2102 1.415 . S
C2102 H2072 0.950 . S
C2102 C2097 1.363 . S
C2102 C2101 1.415 . S
H2103 C2100 0.999 . S
H2104 C2085 0.913 . S
H2105 C2123 0.951 . S
H2106 C2125 0.951 . S
H2107 C2127 0.950 . S
H2108 C2128 0.950 . S
H2109 C2130 0.950 . S
H2110 C2133 0.950 . S
H2111 C2134 0.950 . S
H2112 C2136 0.950 . S
H2113 C2137 0.950 . S
H2114 C2138 0.951 . S
H2115 C2140 0.951 . S
H2116 C2142 0.950 . S
H2117 C2143 0.950 . S
H2118 C2145 0.950 . S
H2119 C2148 0.950 . S
H2120 C2149 0.950 . S
H2121 C2151 0.950 . S
H2122 C2152 0.950 . S
C2123 H2105 0.951 . S
C2123 C2124 1.366 . S
C2123 C2125 1.388 . S
C2124 C2123 1.366 . S
C2124 C2128 1.385 . S
C2125 H2106 0.951 . S
C2125 C2123 1.388 . S
C2125 C2126 1.366 . S
C2126 C2125 1.366 . S
C2126 C2127 1.414 . S
C2126 C2129 1.499 . S
C2127 H2107 0.950 . S
C2127 C2126 1.414 . S
C2127 C2128 1.374 . S
C2128 H2108 0.950 . S
C2128 C2124 1.385 . S
C2128 C2127 1.374 . S
C2129 C2126 1.499 . S
C2129 C2130 1.373 . S
C2129 C2131 1.389 . S
C2130 H2109 0.950 . S
C2130 C2129 1.373 . S
C2130 C2146 1.377 . S
C2131 C2129 1.389 . S
C2131 C2132 1.524 . S
C2131 C2145 1.377 . S
C2132 C2131 1.524 . S
C2132 C2133 1.397 . S
C2132 C2137 1.363 . S
C2133 H2110 0.950 . S
C2133 C2132 1.397 . S
C2133 C2134 1.334 . S
C2134 H2111 0.950 . S
C2134 C2133 1.334 . S
C2134 C2135 1.287 . S
C2135 C2134 1.287 . S
C2135 C2136 1.524 . S
C2135 H2154 0.913 . S
C2136 H2112 0.950 . S
C2136 C2135 1.524 . S
C2136 C2137 1.415 . S
C2137 H2113 0.950 . S
C2137 C2132 1.363 . S
C2137 C2136 1.415 . S
C2138 H2114 0.951 . S
C2138 C2139 1.366 . S
C2138 C2140 1.388 . S
C2139 C2138 1.366 . S
C2139 C2143 1.385 . S
C2140 H2115 0.951 . S
C2140 C2138 1.388 . S
C2140 C2141 1.366 . S
C2141 C2140 1.366 . S
C2141 C2142 1.414 . S
C2141 C2144 1.499 . S
C2142 H2116 0.950 . S
C2142 C2141 1.414 . S
C2142 C2143 1.374 . S
C2143 H2117 0.950 . S
C2143 C2139 1.385 . S
C2143 C2142 1.374 . S
C2144 C2141 1.499 . S
C2144 C2145 1.373 . S
C2144 C2146 1.389 . S
C2145 H2118 0.950 . S
C2145 C2131 1.377 . S
C2145 C2144 1.373 . S
C2146 C2130 1.377 . S
C2146 C2144 1.389 . S
C2146 C2147 1.524 . S
C2147 C2146 1.524 . S
C2147 C2148 1.397 . S
C2147 C2152 1.363 . S
C2148 H2119 0.950 . S
C2148 C2147 1.397 . S
C2148 C2149 1.334 . S
C2149 H2120 0.950 . S
C2149 C2148 1.334 . S
C2149 C2150 1.287 . S
C2150 C2149 1.287 . S
C2150 C2151 1.524 . S
C2150 H2153 0.999 . S
C2151 H2121 0.950 . S
C2151 C2150 1.524 . S
C2151 C2152 1.415 . S
C2152 H2122 0.950 . S
C2152 C2147 1.363 . S
C2152 C2151 1.415 . S
H2153 C2150 0.999 . S
H2154 C2135 0.913 . S
H2155 C2173 0.951 . S
H2156 C2175 0.951 . S
H2157 C2177 0.950 . S
H2158 C2178 0.950 . S
H2159 C2180 0.950 . S
H2160 C2183 0.950 . S
H2161 C2184 0.950 . S
H2162 C2186 0.950 . S
H2163 C2187 0.950 . S
H2164 C2188 0.951 . S
H2165 C2190 0.951 . S
H2166 C2192 0.950 . S
H2167 C2193 0.950 . S
H2168 C2195 0.950 . S
H2169 C2198 0.950 . S
H2170 C2199 0.950 . S
H2171 C2201 0.950 . S
H2172 C2202 0.950 . S
C2173 H2155 0.951 . S
C2173 C2174 1.366 . S
C2173 C2175 1.388 . S
C2174 C2173 1.366 . S
C2174 C2178 1.385 . S
C2175 H2156 0.951 . S
C2175 C2173 1.388 . S
C2175 C2176 1.366 . S
C2176 C2175 1.366 . S
C2176 C2177 1.414 . S
C2176 C2179 1.499 . S
C2177 H2157 0.950 . S
C2177 C2176 1.414 . S
C2177 C2178 1.374 . S
C2178 H2158 0.950 . S
C2178 C2174 1.385 . S
C2178 C2177 1.374 . S
C2179 C2176 1.499 . S
C2179 C2180 1.373 . S
C2179 C2181 1.389 . S
C2180 H2159 0.950 . S
C2180 C2179 1.373 . S
C2180 C2196 1.377 . S
C2181 C2179 1.389 . S
C2181 C2182 1.524 . S
C2181 C2195 1.377 . S
C2182 C2181 1.524 . S
C2182 C2183 1.397 . S
C2182 C2187 1.363 . S
C2183 H2160 0.950 . S
C2183 C2182 1.397 . S
C2183 C2184 1.334 . S
C2184 H2161 0.950 . S
C2184 C2183 1.334 . S
C2184 C2185 1.287 . S
C2185 C2184 1.287 . S
C2185 C2186 1.524 . S
C2185 H2204 0.913 . S
C2186 H2162 0.950 . S
C2186 C2185 1.524 . S
C2186 C2187 1.415 . S
C2187 H2163 0.950 . S
C2187 C2182 1.363 . S
C2187 C2186 1.415 . S
C2188 H2164 0.951 . S
C2188 C2189 1.366 . S
C2188 C2190 1.388 . S
C2189 C2188 1.366 . S
C2189 C2193 1.385 . S
C2190 H2165 0.951 . S
C2190 C2188 1.388 . S
C2190 C2191 1.366 . S
C2191 C2190 1.366 . S
C2191 C2192 1.414 . S
C2191 C2194 1.499 . S
C2192 H2166 0.950 . S
C2192 C2191 1.414 . S
C2192 C2193 1.374 . S
C2193 H2167 0.950 . S
C2193 C2189 1.385 . S
C2193 C2192 1.374 . S
C2194 C2191 1.499 . S
C2194 C2195 1.373 . S
C2194 C2196 1.389 . S
C2195 H2168 0.950 . S
C2195 C2181 1.377 . S
C2195 C2194 1.373 . S
C2196 C2180 1.377 . S
C2196 C2194 1.389 . S
C2196 C2197 1.524 . S
C2197 C2196 1.524 . S
C2197 C2198 1.397 . S
C2197 C2202 1.363 . S
C2198 H2169 0.950 . S
C2198 C2197 1.397 . S
C2198 C2199 1.334 . S
C2199 H2170 0.950 . S
C2199 C2198 1.334 . S
C2199 C2200 1.287 . S
C2200 C2199 1.287 . S
C2200 C2201 1.524 . S
C2200 H2203 0.999 . S
C2201 H2171 0.950 . S
C2201 C2200 1.524 . S
C2201 C2202 1.415 . S
C2202 H2172 0.950 . S
C2202 C2197 1.363 . S
C2202 C2201 1.415 . S
H2203 C2200 0.999 . S
H2204 C2185 0.913 . S
H2205 C2223 0.951 . S
H2206 C2225 0.951 . S
H2207 C2227 0.950 . S
H2208 C2228 0.950 . S
H2209 C2230 0.950 . S
H2210 C2233 0.950 . S
H2211 C2234 0.950 . S
H2212 C2236 0.950 . S
H2213 C2237 0.950 . S
H2214 C2238 0.951 . S
H2215 C2240 0.951 . S
H2216 C2242 0.924 1_545 S
H2217 C2243 0.950 . S
H2218 C2245 0.950 . S
H2219 C2248 0.950 . S
H2220 C2249 0.950 . S
H2221 C2251 0.950 . S
H2222 C2252 0.950 . S
C2223 H2205 0.951 . S
C2223 C2224 1.366 . S
C2223 C2225 1.388 . S
C2224 C2223 1.366 . S
C2224 C2228 1.385 . S
C2225 H2206 0.951 . S
C2225 C2223 1.388 . S
C2225 C2226 1.366 . S
C2226 C2225 1.366 . S
C2226 C2227 1.414 . S
C2226 C2229 1.499 . S
C2227 H2207 0.950 . S
C2227 C2226 1.414 . S
C2227 C2228 1.374 . S
C2228 H2208 0.950 . S
C2228 C2224 1.385 . S
C2228 C2227 1.374 . S
C2229 C2226 1.499 . S
C2229 C2230 1.373 . S
C2229 C2231 1.389 . S
C2230 H2209 0.950 . S
C2230 C2229 1.373 . S
C2230 C2246 1.377 . S
C2231 C2229 1.389 . S
C2231 C2232 1.524 . S
C2231 C2245 1.377 . S
C2232 C2231 1.524 . S
C2232 C2233 1.397 . S
C2232 C2237 1.363 1_565 S
C2233 H2210 0.950 . S
C2233 C2232 1.397 . S
C2233 C2234 1.334 . S
C2234 H2211 0.950 . S
C2234 C2233 1.334 . S
C2234 C2235 1.287 . S
C2235 C2234 1.287 . S
C2235 C2236 1.524 1_565 S
C2235 H2254 0.952 . S
C2236 H2212 0.950 . S
C2236 C2235 1.524 1_545 S
C2236 C2237 1.415 . S
C2237 H2213 0.950 . S
C2237 C2232 1.363 1_545 S
C2237 C2236 1.415 . S
C2238 H2214 0.951 . S
C2238 C2239 1.366 . S
C2238 C2240 1.388 . S
C2239 C2238 1.366 . S
C2239 C2243 1.385 1_565 S
C2240 H2215 0.951 . S
C2240 C2238 1.388 . S
C2240 C2241 1.366 . S
C2241 C2240 1.366 . S
C2241 C2242 1.459 . S
C2241 C2244 1.499 . S
C2242 H2216 0.924 1_565 S
C2242 C2241 1.459 . S
C2242 C2243 1.357 1_565 S
C2243 H2217 0.950 . S
C2243 C2239 1.385 1_545 S
C2243 C2242 1.357 1_545 S
C2244 C2241 1.499 . S
C2244 C2245 1.373 . S
C2244 C2246 1.389 . S
C2245 H2218 0.950 . S
C2245 C2231 1.377 . S
C2245 C2244 1.373 . S
C2246 C2230 1.377 . S
C2246 C2244 1.389 . S
C2246 C2247 1.524 . S
C2247 C2246 1.524 . S
C2247 C2248 1.397 . S
C2247 C2252 1.363 . S
C2248 H2219 0.950 . S
C2248 C2247 1.397 . S
C2248 C2249 1.334 . S
C2249 H2220 0.950 . S
C2249 C2248 1.334 . S
C2249 C2250 1.287 . S
C2250 C2249 1.287 . S
C2250 C2251 1.524 . S
C2250 H2253 0.999 . S
C2251 H2221 0.950 . S
C2251 C2250 1.524 . S
C2251 C2252 1.415 . S
C2252 H2222 0.950 . S
C2252 C2247 1.363 . S
C2252 C2251 1.415 . S
H2253 C2250 0.999 . S
H2254 C2235 0.952 . S
H2255 C2273 0.951 . S
H2256 C2275 0.951 . S
H2257 C2277 0.950 . S
H2258 C2278 0.950 . S
H2259 C2280 0.950 . S
H2260 C2283 0.950 . S
H2261 C2284 0.950 . S
H2262 C2286 0.950 . S
H2263 C2287 0.950 . S
H2264 C2288 0.951 . S
H2265 C2290 0.951 . S
H2266 C2292 0.950 . S
H2267 C2293 0.950 . S
H2268 C2295 0.950 . S
H2269 C2298 0.950 . S
H2270 C2299 0.950 . S
H2271 C2301 0.950 . S
H2272 C2302 0.950 . S
C2273 H2255 0.951 . S
C2273 C2274 1.366 . S
C2273 C2275 1.388 . S
C2274 C2273 1.366 . S
C2274 C2278 1.385 . S
C2275 H2256 0.951 . S
C2275 C2273 1.388 . S
C2275 C2276 1.366 . S
C2276 C2275 1.366 . S
C2276 C2277 1.414 . S
C2276 C2279 1.499 . S
C2277 H2257 0.950 . S
C2277 C2276 1.414 . S
C2277 C2278 1.374 . S
C2278 H2258 0.950 . S
C2278 C2274 1.385 . S
C2278 C2277 1.374 . S
C2279 C2276 1.499 . S
C2279 C2280 1.373 . S
C2279 C2281 1.389 . S
C2280 H2259 0.950 . S
C2280 C2279 1.373 . S
C2280 C2296 1.377 . S
C2281 C2279 1.389 . S
C2281 C2282 1.524 . S
C2281 C2295 1.377 . S
C2282 C2281 1.524 . S
C2282 C2283 1.397 . S
C2282 C2287 1.363 . S
C2283 H2260 0.950 . S
C2283 C2282 1.397 . S
C2283 C2284 1.334 . S
C2284 H2261 0.950 . S
C2284 C2283 1.334 . S
C2284 C2285 1.287 . S
C2285 C2284 1.287 . S
C2285 C2286 1.524 . S
C2285 H2304 0.913 . S
C2286 H2262 0.950 . S
C2286 C2285 1.524 . S
C2286 C2287 1.415 . S
C2287 H2263 0.950 . S
C2287 C2282 1.363 . S
C2287 C2286 1.415 . S
C2288 H2264 0.951 . S
C2288 C2289 1.366 . S
C2288 C2290 1.388 . S
C2289 C2288 1.366 . S
C2289 C2293 1.385 . S
C2290 H2265 0.951 . S
C2290 C2288 1.388 . S
C2290 C2291 1.366 . S
C2291 C2290 1.366 . S
C2291 C2292 1.414 . S
C2291 C2294 1.499 . S
C2292 H2266 0.950 . S
C2292 C2291 1.414 . S
C2292 C2293 1.374 . S
C2293 H2267 0.950 . S
C2293 C2289 1.385 . S
C2293 C2292 1.374 . S
C2294 C2291 1.499 . S
C2294 C2295 1.373 . S
C2294 C2296 1.389 . S
C2295 H2268 0.950 . S
C2295 C2281 1.377 . S
C2295 C2294 1.373 . S
C2296 C2280 1.377 . S
C2296 C2294 1.389 . S
C2296 C2297 1.524 . S
C2297 C2296 1.524 . S
C2297 C2298 1.397 . S
C2297 C2302 1.363 . S
C2298 H2269 0.950 . S
C2298 C2297 1.397 . S
C2298 C2299 1.334 . S
C2299 H2270 0.950 . S
C2299 C2298 1.334 . S
C2299 C2300 1.287 . S
C2300 C2299 1.287 . S
C2300 C2301 1.524 . S
C2300 H2303 0.999 . S
C2301 H2271 0.950 . S
C2301 C2300 1.524 . S
C2301 C2302 1.415 . S
C2302 H2272 0.950 . S
C2302 C2297 1.363 . S
C2302 C2301 1.415 . S
H2303 C2300 0.999 . S
H2304 C2285 0.913 . S
H2305 C2323 0.951 . S
H2306 C2325 0.951 . S
H2307 C2327 0.950 . S
H2308 C2328 0.950 . S
H2309 C2330 0.950 . S
H2310 C2333 0.950 . S
H2311 C2334 0.950 . S
H2312 C2336 0.950 . S
H2313 C2337 0.950 . S
H2314 C2338 0.951 . S
H2315 C2340 0.951 . S
H2316 C2342 0.950 . S
H2317 C2343 0.950 . S
H2318 C2345 0.950 . S
H2319 C2348 0.950 . S
H2320 C2349 0.950 . S
H2321 C2351 0.950 . S
H2322 C2352 0.950 . S
C2323 H2305 0.951 . S
C2323 C2324 1.366 . S
C2323 C2325 1.388 . S
C2324 C2323 1.366 . S
C2324 C2328 1.385 . S
C2325 H2306 0.951 . S
C2325 C2323 1.388 . S
C2325 C2326 1.366 . S
C2326 C2325 1.366 . S
C2326 C2327 1.414 . S
C2326 C2329 1.499 . S
C2327 H2307 0.950 . S
C2327 C2326 1.414 . S
C2327 C2328 1.374 . S
C2328 H2308 0.950 . S
C2328 C2324 1.385 . S
C2328 C2327 1.374 . S
C2329 C2326 1.499 . S
C2329 C2330 1.373 . S
C2329 C2331 1.389 . S
C2330 H2309 0.950 . S
C2330 C2329 1.373 . S
C2330 C2346 1.377 . S
C2331 C2329 1.389 . S
C2331 C2332 1.524 . S
C2331 C2345 1.377 . S
C2332 C2331 1.524 . S
C2332 C2333 1.397 . S
C2332 C2337 1.363 . S
C2333 H2310 0.950 . S
C2333 C2332 1.397 . S
C2333 C2334 1.334 . S
C2334 H2311 0.950 . S
C2334 C2333 1.334 . S
C2334 C2335 1.287 . S
C2335 C2334 1.287 . S
C2335 C2336 1.524 . S
C2335 H2354 0.913 . S
C2336 H2312 0.950 . S
C2336 C2335 1.524 . S
C2336 C2337 1.415 . S
C2337 H2313 0.950 . S
C2337 C2332 1.363 . S
C2337 C2336 1.415 . S
C2338 H2314 0.951 . S
C2338 C2339 1.366 . S
C2338 C2340 1.388 . S
C2339 C2338 1.366 . S
C2339 C2343 1.385 . S
C2340 H2315 0.951 . S
C2340 C2338 1.388 . S
C2340 C2341 1.366 . S
C2341 C2340 1.366 . S
C2341 C2342 1.414 . S
C2341 C2344 1.499 . S
C2342 H2316 0.950 . S
C2342 C2341 1.414 . S
C2342 C2343 1.374 . S
C2343 H2317 0.950 . S
C2343 C2339 1.385 . S
C2343 C2342 1.374 . S
C2344 C2341 1.499 . S
C2344 C2345 1.373 . S
C2344 C2346 1.389 . S
C2345 H2318 0.950 . S
C2345 C2331 1.377 . S
C2345 C2344 1.373 . S
C2346 C2330 1.377 . S
C2346 C2344 1.389 . S
C2346 C2347 1.524 . S
C2347 C2346 1.524 . S
C2347 C2348 1.397 . S
C2347 C2352 1.363 . S
C2348 H2319 0.950 . S
C2348 C2347 1.397 . S
C2348 C2349 1.334 . S
C2349 H2320 0.950 . S
C2349 C2348 1.334 . S
C2349 C2350 1.287 . S
C2350 C2349 1.287 . S
C2350 C2351 1.524 . S
C2350 H2353 0.999 . S
C2351 H2321 0.950 . S
C2351 C2350 1.524 . S
C2351 C2352 1.415 . S
C2352 H2322 0.950 . S
C2352 C2347 1.363 . S
C2352 C2351 1.415 . S
H2353 C2350 0.999 . S
H2354 C2335 0.913 . S
H2355 C2373 0.951 . S
H2356 C2375 0.951 . S
H2357 C2377 0.950 . S
H2358 C2378 0.950 . S
H2359 C2380 0.950 . S
H2360 C2383 0.950 . S
H2361 C2384 0.950 . S
H2362 C2386 0.950 . S
H2363 C2387 0.950 . S
H2364 C2388 0.951 . S
H2365 C2390 0.951 . S
H2366 C2392 0.950 . S
H2367 C2393 0.950 . S
H2368 C2395 0.950 . S
H2369 C2398 0.950 . S
H2370 C2399 0.950 . S
H2371 C2401 0.971 . S
H2372 C2402 0.950 . S
C2373 H2355 0.951 . S
C2373 C2374 1.366 . S
C2373 C2375 1.388 . S
C2374 C2373 1.366 . S
C2374 C2378 1.385 . S
C2375 H2356 0.951 . S
C2375 C2373 1.388 . S
C2375 C2376 1.366 . S
C2376 C2375 1.366 . S
C2376 C2377 1.414 . S
C2376 C2379 1.499 . S
C2377 H2357 0.950 . S
C2377 C2376 1.414 . S
C2377 C2378 1.374 . S
C2378 H2358 0.950 . S
C2378 C2374 1.385 . S
C2378 C2377 1.374 . S
C2379 C2376 1.499 . S
C2379 C2380 1.373 . S
C2379 C2381 1.389 . S
C2380 H2359 0.950 . S
C2380 C2379 1.373 . S
C2380 C2396 1.377 . S
C2381 C2379 1.389 . S
C2381 C2382 1.524 . S
C2381 C2395 1.377 . S
C2382 C2381 1.524 . S
C2382 C2383 1.397 . S
C2382 C2387 1.363 . S
C2383 H2360 0.950 . S
C2383 C2382 1.397 . S
C2383 C2384 1.334 . S
C2384 H2361 0.950 . S
C2384 C2383 1.334 . S
C2384 C2385 1.287 . S
C2385 C2384 1.287 . S
C2385 C2386 1.524 . S
C2385 H2404 0.913 . S
C2386 H2362 0.950 . S
C2386 C2385 1.524 . S
C2386 C2387 1.415 . S
C2387 H2363 0.950 . S
C2387 C2382 1.363 . S
C2387 C2386 1.415 . S
C2388 H2364 0.951 . S
C2388 C2389 1.366 . S
C2388 C2390 1.388 . S
C2389 C2388 1.366 . S
C2389 C2393 1.385 . S
C2390 H2365 0.951 . S
C2390 C2388 1.388 . S
C2390 C2391 1.366 . S
C2391 C2390 1.366 . S
C2391 C2392 1.414 . S
C2391 C2394 1.499 . S
C2392 H2366 0.950 . S
C2392 C2391 1.414 . S
C2392 C2393 1.374 . S
C2393 H2367 0.950 . S
C2393 C2389 1.385 . S
C2393 C2392 1.374 . S
C2394 C2391 1.499 . S
C2394 C2395 1.373 . S
C2394 C2396 1.389 . S
C2395 H2368 0.950 . S
C2395 C2381 1.377 . S
C2395 C2394 1.373 . S
C2396 C2380 1.377 . S
C2396 C2394 1.389 . S
C2396 C2397 1.524 . S
C2397 C2396 1.524 . S
C2397 C2398 1.397 1_655 S
C2397 C2402 1.363 . S
C2398 H2369 0.950 . S
C2398 C2397 1.397 1_455 S
C2398 C2399 1.334 . S
C2399 H2370 0.950 . S
C2399 C2398 1.334 . S
C2399 C2400 1.287 . S
C2400 C2399 1.287 . S
C2400 C2401 1.491 1_455 S
C2400 H2403 0.999 . S
C2401 H2371 0.971 . S
C2401 C2400 1.491 1_655 S
C2401 C2402 1.424 . S
C2402 H2372 0.950 . S
C2402 C2397 1.363 . S
C2402 C2401 1.424 . S
H2403 C2400 0.999 . S
H2404 C2385 0.913 . S
H2405 C2423 0.951 . S
H2406 C2425 0.951 . S
H2407 C2427 0.950 . S
H2408 C2428 0.950 . S
H2409 C2430 0.950 . S
H2410 C2433 0.950 . S
H2411 C2434 0.950 . S
H2412 C2436 0.950 . S
H2413 C2437 0.950 . S
H2414 C2438 0.951 . S
H2415 C2440 0.951 . S
H2416 C2442 0.950 . S
H2417 C2443 0.950 . S
H2418 C2445 0.950 . S
H2419 C2448 0.950 . S
H2420 C2449 0.950 . S
H2421 C2451 0.950 . S
H2422 C2452 0.950 . S
C2423 H2405 0.951 . S
C2423 C2424 1.366 . S
C2423 C2425 1.388 . S
C2424 C2423 1.366 . S
C2424 C2428 1.385 . S
C2425 H2406 0.951 . S
C2425 C2423 1.388 . S
C2425 C2426 1.366 . S
C2426 C2425 1.366 . S
C2426 C2427 1.414 . S
C2426 C2429 1.499 . S
C2427 H2407 0.950 . S
C2427 C2426 1.414 . S
C2427 C2428 1.374 . S
C2428 H2408 0.950 . S
C2428 C2424 1.385 . S
C2428 C2427 1.374 . S
C2429 C2426 1.499 . S
C2429 C2430 1.373 . S
C2429 C2431 1.389 . S
C2430 H2409 0.950 . S
C2430 C2429 1.373 . S
C2430 C2446 1.377 . S
C2431 C2429 1.389 . S
C2431 C2432 1.524 . S
C2431 C2445 1.377 . S
C2432 C2431 1.524 . S
C2432 C2433 1.397 . S
C2432 C2437 1.363 . S
C2433 H2410 0.950 . S
C2433 C2432 1.397 . S
C2433 C2434 1.334 . S
C2434 H2411 0.950 . S
C2434 C2433 1.334 . S
C2434 C2435 1.287 . S
C2435 C2434 1.287 . S
C2435 C2436 1.524 . S
C2435 H2454 0.913 . S
C2436 H2412 0.950 . S
C2436 C2435 1.524 . S
C2436 C2437 1.415 . S
C2437 H2413 0.950 . S
C2437 C2432 1.363 . S
C2437 C2436 1.415 . S
C2438 H2414 0.951 . S
C2438 C2439 1.366 . S
C2438 C2440 1.388 . S
C2439 C2438 1.366 . S
C2439 C2443 1.385 . S
C2440 H2415 0.951 . S
C2440 C2438 1.388 . S
C2440 C2441 1.366 . S
C2441 C2440 1.366 . S
C2441 C2442 1.414 . S
C2441 C2444 1.499 . S
C2442 H2416 0.950 . S
C2442 C2441 1.414 . S
C2442 C2443 1.374 . S
C2443 H2417 0.950 . S
C2443 C2439 1.385 . S
C2443 C2442 1.374 . S
C2444 C2441 1.499 . S
C2444 C2445 1.373 . S
C2444 C2446 1.389 . S
C2445 H2418 0.950 . S
C2445 C2431 1.377 . S
C2445 C2444 1.373 . S
C2446 C2430 1.377 . S
C2446 C2444 1.389 . S
C2446 C2447 1.524 . S
C2447 C2446 1.524 . S
C2447 C2448 1.397 . S
C2447 C2452 1.363 . S
C2448 H2419 0.950 . S
C2448 C2447 1.397 . S
C2448 C2449 1.334 . S
C2449 H2420 0.950 . S
C2449 C2448 1.334 . S
C2449 C2450 1.287 . S
C2450 C2449 1.287 . S
C2450 C2451 1.524 . S
C2450 H2453 0.999 . S
C2451 H2421 0.950 . S
C2451 C2450 1.524 . S
C2451 C2452 1.415 . S
C2452 H2422 0.950 . S
C2452 C2447 1.363 . S
C2452 C2451 1.415 . S
H2453 C2450 0.999 . S
H2454 C2435 0.913 . S
H2455 C2473 0.951 . S
H2456 C2475 0.951 . S
H2457 C2477 0.950 . S
H2458 C2478 0.950 . S
H2459 C2480 0.950 . S
H2460 C2483 0.950 . S
H2461 C2484 0.950 . S
H2462 C2486 0.950 . S
H2463 C2487 0.950 . S
H2464 C2488 0.951 1_565 S
H2465 C2490 0.951 . S
H2466 C2492 0.950 . S
H2467 C2493 0.950 . S
H2468 C2495 0.950 . S
H2469 C2498 0.950 . S
H2470 C2499 0.950 . S
H2471 C2501 0.950 . S
H2472 C2502 0.950 . S
C2473 H2455 0.951 . S
C2473 C2474 1.366 . S
C2473 C2475 1.388 . S
C2474 C2473 1.366 . S
C2474 C2478 1.385 . S
C2475 H2456 0.951 . S
C2475 C2473 1.388 . S
C2475 C2476 1.366 . S
C2476 C2475 1.366 . S
C2476 C2477 1.414 . S
C2476 C2479 1.499 . S
C2477 H2457 0.950 . S
C2477 C2476 1.414 . S
C2477 C2478 1.374 . S
C2478 H2458 0.950 . S
C2478 C2474 1.385 . S
C2478 C2477 1.374 . S
C2479 C2476 1.499 . S
C2479 C2480 1.373 . S
C2479 C2481 1.389 . S
C2480 H2459 0.950 . S
C2480 C2479 1.373 . S
C2480 C2496 1.377 . S
C2481 C2479 1.389 . S
C2481 C2482 1.524 . S
C2481 C2495 1.377 . S
C2482 C2481 1.524 . S
C2482 C2483 1.397 . S
C2482 C2487 1.363 . S
C2483 H2460 0.950 . S
C2483 C2482 1.397 . S
C2483 C2484 1.334 . S
C2484 H2461 0.950 . S
C2484 C2483 1.334 . S
C2484 C2485 1.287 . S
C2485 C2484 1.287 . S
C2485 C2486 1.524 . S
C2485 H2504 0.913 . S
C2486 H2462 0.950 . S
C2486 C2485 1.524 . S
C2486 C2487 1.415 . S
C2487 H2463 0.950 . S
C2487 C2482 1.363 . S
C2487 C2486 1.415 . S
C2488 H2464 0.951 1_545 S
C2488 C2489 1.366 . S
C2488 C2490 1.388 . S
C2489 C2488 1.366 . S
C2489 C2493 1.385 . S
C2490 H2465 0.951 . S
C2490 C2488 1.388 . S
C2490 C2491 1.366 . S
C2491 C2490 1.366 . S
C2491 C2492 1.414 . S
C2491 C2494 1.499 . S
C2492 H2466 0.950 . S
C2492 C2491 1.414 . S
C2492 C2493 1.374 . S
C2493 H2467 0.950 . S
C2493 C2489 1.385 . S
C2493 C2492 1.374 . S
C2494 C2491 1.499 . S
C2494 C2495 1.373 . S
C2494 C2496 1.389 . S
C2495 H2468 0.950 . S
C2495 C2481 1.377 . S
C2495 C2494 1.373 . S
C2496 C2480 1.377 . S
C2496 C2494 1.389 . S
C2496 C2497 1.524 . S
C2497 C2496 1.524 . S
C2497 C2498 1.397 . S
C2497 C2502 1.363 . S
C2498 H2469 0.950 . S
C2498 C2497 1.397 . S
C2498 C2499 1.334 . S
C2499 H2470 0.950 . S
C2499 C2498 1.334 . S
C2499 C2500 1.287 . S
C2500 C2499 1.287 . S
C2500 C2501 1.524 . S
C2500 H2503 0.999 . S
C2501 H2471 0.950 . S
C2501 C2500 1.524 . S
C2501 C2502 1.415 . S
C2502 H2472 0.950 . S
C2502 C2497 1.363 . S
C2502 C2501 1.415 . S
H2503 C2500 0.999 . S
H2504 C2485 0.913 . S
H2505 C2523 0.951 . S
H2506 C2525 0.951 . S
H2507 C2527 0.950 . S
H2508 C2528 0.950 . S
H2509 C2530 0.950 . S
H2510 C2533 0.950 . S
H2511 C2534 0.950 . S
H2512 C2536 0.950 . S
H2513 C2537 0.950 . S
H2514 C2538 0.951 . S
H2515 C2540 0.951 . S
H2516 C2542 0.950 . S
H2517 C2543 0.950 . S
H2518 C2545 0.950 . S
H2519 C2548 0.950 . S
H2520 C2549 0.950 . S
H2521 C2551 0.950 . S
H2522 C2552 0.950 . S
C2523 H2505 0.951 . S
C2523 C2524 1.366 . S
C2523 C2525 1.388 . S
C2524 C2523 1.366 . S
C2524 C2528 1.385 . S
C2525 H2506 0.951 . S
C2525 C2523 1.388 . S
C2525 C2526 1.366 . S
C2526 C2525 1.366 . S
C2526 C2527 1.414 . S
C2526 C2529 1.499 . S
C2527 H2507 0.950 . S
C2527 C2526 1.414 . S
C2527 C2528 1.374 . S
C2528 H2508 0.950 . S
C2528 C2524 1.385 . S
C2528 C2527 1.374 . S
C2529 C2526 1.499 . S
C2529 C2530 1.373 . S
C2529 C2531 1.389 . S
C2530 H2509 0.950 . S
C2530 C2529 1.373 . S
C2530 C2546 1.377 . S
C2531 C2529 1.389 . S
C2531 C2532 1.524 . S
C2531 C2545 1.377 . S
C2532 C2531 1.524 . S
C2532 C2533 1.397 . S
C2532 C2537 1.363 . S
C2533 H2510 0.950 . S
C2533 C2532 1.397 . S
C2533 C2534 1.334 . S
C2534 H2511 0.950 . S
C2534 C2533 1.334 . S
C2534 C2535 1.287 . S
C2535 C2534 1.287 . S
C2535 C2536 1.524 . S
C2535 H2554 0.913 . S
C2536 H2512 0.950 . S
C2536 C2535 1.524 . S
C2536 C2537 1.415 . S
C2537 H2513 0.950 . S
C2537 C2532 1.363 . S
C2537 C2536 1.415 . S
C2538 H2514 0.951 . S
C2538 C2539 1.366 . S
C2538 C2540 1.388 . S
C2539 C2538 1.366 . S
C2539 C2543 1.385 . S
C2540 H2515 0.951 . S
C2540 C2538 1.388 . S
C2540 C2541 1.366 . S
C2541 C2540 1.366 . S
C2541 C2542 1.414 . S
C2541 C2544 1.499 . S
C2542 H2516 0.950 . S
C2542 C2541 1.414 . S
C2542 C2543 1.374 . S
C2543 H2517 0.950 . S
C2543 C2539 1.385 . S
C2543 C2542 1.374 . S
C2544 C2541 1.499 . S
C2544 C2545 1.373 . S
C2544 C2546 1.389 . S
C2545 H2518 0.950 . S
C2545 C2531 1.377 . S
C2545 C2544 1.373 . S
C2546 C2530 1.377 . S
C2546 C2544 1.389 . S
C2546 C2547 1.524 . S
C2547 C2546 1.524 . S
C2547 C2548 1.397 . S
C2547 C2552 1.363 . S
C2548 H2519 0.950 . S
C2548 C2547 1.397 . S
C2548 C2549 1.334 . S
C2549 H2520 0.950 . S
C2549 C2548 1.334 . S
C2549 C2550 1.287 . S
C2550 C2549 1.287 . S
C2550 C2551 1.524 . S
C2550 H2553 0.999 . S
C2551 H2521 0.950 . S
C2551 C2550 1.524 . S
C2551 C2552 1.415 . S
C2552 H2522 0.950 . S
C2552 C2547 1.363 . S
C2552 C2551 1.415 . S
H2553 C2550 0.999 . S
H2554 C2535 0.913 . S
H2555 C2573 0.951 . S
H2556 C2575 0.951 . S
H2557 C2577 0.950 . S
H2558 C2578 0.950 . S
H2559 C2580 0.950 . S
H2560 C2583 0.950 . S
H2561 C2584 0.950 . S
H2562 C2586 0.950 . S
H2563 C2587 0.950 . S
H2564 C2588 0.951 . S
H2565 C2590 0.951 . S
H2566 C2592 0.950 . S
H2567 C2593 0.950 . S
H2568 C2595 0.950 . S
H2569 C2598 0.950 . S
H2570 C2599 0.950 . S
H2571 C2601 0.950 . S
H2572 C2602 0.950 . S
C2573 H2555 0.951 . S
C2573 C2574 1.366 . S
C2573 C2575 1.388 . S
C2574 C2573 1.366 . S
C2574 C2578 1.385 . S
C2575 H2556 0.951 . S
C2575 C2573 1.388 . S
C2575 C2576 1.366 . S
C2576 C2575 1.366 . S
C2576 C2577 1.414 . S
C2576 C2579 1.499 . S
C2577 H2557 0.950 . S
C2577 C2576 1.414 . S
C2577 C2578 1.374 . S
C2578 H2558 0.950 . S
C2578 C2574 1.385 . S
C2578 C2577 1.374 . S
C2579 C2576 1.499 . S
C2579 C2580 1.373 . S
C2579 C2581 1.389 . S
C2580 H2559 0.950 . S
C2580 C2579 1.373 . S
C2580 C2596 1.377 . S
C2581 C2579 1.389 . S
C2581 C2582 1.524 . S
C2581 C2595 1.377 . S
C2582 C2581 1.524 . S
C2582 C2583 1.397 . S
C2582 C2587 1.363 . S
C2583 H2560 0.950 . S
C2583 C2582 1.397 . S
C2583 C2584 1.334 . S
C2584 H2561 0.950 . S
C2584 C2583 1.334 . S
C2584 C2585 1.287 . S
C2585 C2584 1.287 . S
C2585 C2586 1.524 . S
C2585 H2604 0.913 . S
C2586 H2562 0.950 . S
C2586 C2585 1.524 . S
C2586 C2587 1.415 . S
C2587 H2563 0.950 . S
C2587 C2582 1.363 . S
C2587 C2586 1.415 . S
C2588 H2564 0.951 . S
C2588 C2589 1.366 . S
C2588 C2590 1.388 . S
C2589 C2588 1.366 . S
C2589 C2593 1.385 . S
C2590 H2565 0.951 . S
C2590 C2588 1.388 . S
C2590 C2591 1.366 . S
C2591 C2590 1.366 . S
C2591 C2592 1.414 . S
C2591 C2594 1.499 . S
C2592 H2566 0.950 . S
C2592 C2591 1.414 . S
C2592 C2593 1.374 . S
C2593 H2567 0.950 . S
C2593 C2589 1.385 . S
C2593 C2592 1.374 . S
C2594 C2591 1.499 . S
C2594 C2595 1.373 . S
C2594 C2596 1.389 . S
C2595 H2568 0.950 . S
C2595 C2581 1.377 . S
C2595 C2594 1.373 . S
C2596 C2580 1.377 . S
C2596 C2594 1.389 . S
C2596 C2597 1.524 . S
C2597 C2596 1.524 . S
C2597 C2598 1.397 . S
C2597 C2602 1.363 . S
C2598 H2569 0.950 . S
C2598 C2597 1.397 . S
C2598 C2599 1.334 . S
C2599 H2570 0.950 . S
C2599 C2598 1.334 . S
C2599 C2600 1.287 . S
C2600 C2599 1.287 . S
C2600 C2601 1.524 . S
C2600 H2603 0.999 . S
C2601 H2571 0.950 . S
C2601 C2600 1.524 . S
C2601 C2602 1.415 . S
C2602 H2572 0.950 . S
C2602 C2597 1.363 . S
C2602 C2601 1.415 . S
H2603 C2600 0.999 . S
H2604 C2585 0.913 . S
H2605 C2623 0.951 . S
H2606 C2625 0.951 . S
H2607 C2627 0.950 . S
H2608 C2628 0.950 . S
H2609 C2630 0.950 . S
H2610 C2633 0.950 . S
H2611 C2634 0.950 . S
H2612 C2636 0.950 . S
H2613 C2637 0.950 . S
H2614 C2638 0.951 . S
H2615 C2640 0.951 . S
H2616 C2642 0.950 . S
H2617 C2643 0.950 . S
H2618 C2645 0.950 . S
H2619 C2648 0.950 . S
H2620 C2649 0.950 . S
H2621 C2651 0.950 . S
H2622 C2652 0.950 . S
C2623 H2605 0.951 . S
C2623 C2624 1.366 . S
C2623 C2625 1.388 . S
C2624 C2623 1.366 . S
C2624 C2628 1.385 . S
C2625 H2606 0.951 . S
C2625 C2623 1.388 . S
C2625 C2626 1.366 . S
C2626 C2625 1.366 . S
C2626 C2627 1.414 . S
C2626 C2629 1.499 . S
C2627 H2607 0.950 . S
C2627 C2626 1.414 . S
C2627 C2628 1.374 . S
C2628 H2608 0.950 . S
C2628 C2624 1.385 . S
C2628 C2627 1.374 . S
C2629 C2626 1.499 . S
C2629 C2630 1.373 . S
C2629 C2631 1.389 . S
C2630 H2609 0.950 . S
C2630 C2629 1.373 . S
C2630 C2646 1.377 . S
C2631 C2629 1.389 . S
C2631 C2632 1.524 . S
C2631 C2645 1.377 . S
C2632 C2631 1.524 . S
C2632 C2633 1.397 . S
C2632 C2637 1.363 . S
C2633 H2610 0.950 . S
C2633 C2632 1.397 . S
C2633 C2634 1.334 . S
C2634 H2611 0.950 . S
C2634 C2633 1.334 . S
C2634 C2635 1.287 . S
C2635 C2634 1.287 . S
C2635 C2636 1.524 . S
C2635 H2654 0.913 . S
C2636 H2612 0.950 . S
C2636 C2635 1.524 . S
C2636 C2637 1.415 . S
C2637 H2613 0.950 . S
C2637 C2632 1.363 . S
C2637 C2636 1.415 . S
C2638 H2614 0.951 . S
C2638 C2639 1.366 . S
C2638 C2640 1.388 . S
C2639 C2638 1.366 . S
C2639 C2643 1.385 . S
C2640 H2615 0.951 . S
C2640 C2638 1.388 . S
C2640 C2641 1.366 . S
C2641 C2640 1.366 . S
C2641 C2642 1.414 . S
C2641 C2644 1.499 . S
C2642 H2616 0.950 . S
C2642 C2641 1.414 . S
C2642 C2643 1.374 . S
C2643 H2617 0.950 . S
C2643 C2639 1.385 . S
C2643 C2642 1.374 . S
C2644 C2641 1.499 . S
C2644 C2645 1.373 . S
C2644 C2646 1.389 . S
C2645 H2618 0.950 . S
C2645 C2631 1.377 . S
C2645 C2644 1.373 . S
C2646 C2630 1.377 . S
C2646 C2644 1.389 . S
C2646 C2647 1.524 . S
C2647 C2646 1.524 . S
C2647 C2648 1.397 . S
C2647 C2652 1.363 . S
C2648 H2619 0.950 . S
C2648 C2647 1.397 . S
C2648 C2649 1.334 . S
C2649 H2620 0.950 . S
C2649 C2648 1.334 . S
C2649 C2650 1.287 . S
C2650 C2649 1.287 . S
C2650 C2651 1.524 . S
C2650 H2653 0.999 . S
C2651 H2621 0.950 . S
C2651 C2650 1.524 . S
C2651 C2652 1.415 . S
C2652 H2622 0.950 . S
C2652 C2647 1.363 . S
C2652 C2651 1.415 . S
H2653 C2650 0.999 . S
H2654 C2635 0.913 . S
H2655 C2673 0.951 . S
H2656 C2675 0.951 . S
H2657 C2677 0.950 . S
H2658 C2678 0.950 . S
H2659 C2680 0.950 . S
H2660 C2683 0.950 . S
H2661 C2684 0.950 . S
H2662 C2686 0.950 . S
H2663 C2687 0.950 . S
H2664 C2688 0.951 . S
H2665 C2690 0.951 . S
H2666 C2692 0.950 . S
H2667 C2693 0.950 . S
H2668 C2695 0.950 . S
H2669 C2698 0.950 . S
H2670 C2699 0.950 . S
H2671 C2701 0.950 . S
H2672 C2702 0.950 . S
C2673 H2655 0.951 . S
C2673 C2674 1.366 . S
C2673 C2675 1.388 . S
C2674 C2673 1.366 . S
C2674 C2678 1.385 . S
C2675 H2656 0.951 . S
C2675 C2673 1.388 . S
C2675 C2676 1.366 . S
C2676 C2675 1.366 . S
C2676 C2677 1.414 . S
C2676 C2679 1.499 . S
C2677 H2657 0.950 . S
C2677 C2676 1.414 . S
C2677 C2678 1.374 . S
C2678 H2658 0.950 . S
C2678 C2674 1.385 . S
C2678 C2677 1.374 . S
C2679 C2676 1.499 . S
C2679 C2680 1.373 . S
C2679 C2681 1.389 . S
C2680 H2659 0.950 . S
C2680 C2679 1.373 . S
C2680 C2696 1.377 . S
C2681 C2679 1.389 . S
C2681 C2682 1.524 . S
C2681 C2695 1.377 . S
C2682 C2681 1.524 . S
C2682 C2683 1.397 . S
C2682 C2687 1.363 . S
C2683 H2660 0.950 . S
C2683 C2682 1.397 . S
C2683 C2684 1.334 . S
C2684 H2661 0.950 . S
C2684 C2683 1.334 . S
C2684 C2685 1.287 . S
C2685 C2684 1.287 . S
C2685 C2686 1.524 . S
C2685 H2704 0.913 . S
C2686 H2662 0.950 . S
C2686 C2685 1.524 . S
C2686 C2687 1.415 . S
C2687 H2663 0.950 . S
C2687 C2682 1.363 . S
C2687 C2686 1.415 . S
C2688 H2664 0.951 . S
C2688 C2689 1.366 . S
C2688 C2690 1.388 . S
C2689 C2688 1.366 . S
C2689 C2693 1.385 . S
C2690 H2665 0.951 . S
C2690 C2688 1.388 . S
C2690 C2691 1.366 . S
C2691 C2690 1.366 . S
C2691 C2692 1.414 . S
C2691 C2694 1.499 . S
C2692 H2666 0.950 . S
C2692 C2691 1.414 . S
C2692 C2693 1.374 . S
C2693 H2667 0.950 . S
C2693 C2689 1.385 . S
C2693 C2692 1.374 . S
C2694 C2691 1.499 . S
C2694 C2695 1.373 . S
C2694 C2696 1.389 . S
C2695 H2668 0.950 . S
C2695 C2681 1.377 . S
C2695 C2694 1.373 . S
C2696 C2680 1.377 . S
C2696 C2694 1.389 . S
C2696 C2697 1.524 . S
C2697 C2696 1.524 . S
C2697 C2698 1.397 . S
C2697 C2702 1.363 . S
C2698 H2669 0.950 . S
C2698 C2697 1.397 . S
C2698 C2699 1.334 . S
C2699 H2670 0.950 . S
C2699 C2698 1.334 . S
C2699 C2700 1.287 . S
C2700 C2699 1.287 . S
C2700 C2701 1.524 . S
C2700 H2703 0.999 . S
C2701 H2671 0.950 . S
C2701 C2700 1.524 . S
C2701 C2702 1.415 . S
C2702 H2672 0.950 . S
C2702 C2697 1.363 . S
C2702 C2701 1.415 . S
H2703 C2700 0.999 . S
H2704 C2685 0.913 . S
H2705 C2723 0.951 . S
H2706 C2725 0.951 . S
H2707 C2727 0.950 . S
H2708 C2728 0.950 . S
H2709 C2730 0.950 . S
H2710 C2733 0.950 . S
H2711 C2734 0.950 . S
H2712 C2736 0.950 . S
H2713 C2737 0.950 . S
H2714 C2738 0.951 . S
H2715 C2740 0.951 . S
H2716 C2742 0.950 . S
H2717 C2743 0.950 . S
H2718 C2745 0.950 . S
H2719 C2748 0.950 . S
H2720 C2749 0.950 . S
H2721 C2751 0.950 . S
H2722 C2752 0.950 . S
C2723 H2705 0.951 . S
C2723 C2724 1.366 . S
C2723 C2725 1.388 . S
C2724 C2723 1.366 . S
C2724 C2728 1.385 . S
C2725 H2706 0.951 . S
C2725 C2723 1.388 . S
C2725 C2726 1.366 . S
C2726 C2725 1.366 . S
C2726 C2727 1.414 . S
C2726 C2729 1.499 . S
C2727 H2707 0.950 . S
C2727 C2726 1.414 . S
C2727 C2728 1.374 . S
C2728 H2708 0.950 . S
C2728 C2724 1.385 . S
C2728 C2727 1.374 . S
C2729 C2726 1.499 . S
C2729 C2730 1.373 . S
C2729 C2731 1.389 . S
C2730 H2709 0.950 . S
C2730 C2729 1.373 . S
C2730 C2746 1.377 . S
C2731 C2729 1.389 . S
C2731 C2732 1.524 . S
C2731 C2745 1.377 . S
C2732 C2731 1.524 . S
C2732 C2733 1.397 . S
C2732 C2737 1.363 . S
C2733 H2710 0.950 . S
C2733 C2732 1.397 . S
C2733 C2734 1.334 . S
C2734 H2711 0.950 . S
C2734 C2733 1.334 . S
C2734 C2735 1.287 . S
C2735 C2734 1.287 . S
C2735 C2736 1.524 . S
C2735 H2754 0.913 . S
C2736 H2712 0.950 . S
C2736 C2735 1.524 . S
C2736 C2737 1.415 . S
C2737 H2713 0.950 . S
C2737 C2732 1.363 . S
C2737 C2736 1.415 . S
C2738 H2714 0.951 . S
C2738 C2739 1.366 . S
C2738 C2740 1.388 . S
C2739 C2738 1.366 . S
C2739 C2743 1.385 . S
C2740 H2715 0.951 . S
C2740 C2738 1.388 . S
C2740 C2741 1.366 . S
C2741 C2740 1.366 . S
C2741 C2742 1.414 . S
C2741 C2744 1.499 . S
C2742 H2716 0.950 . S
C2742 C2741 1.414 . S
C2742 C2743 1.374 . S
C2743 H2717 0.950 . S
C2743 C2739 1.385 . S
C2743 C2742 1.374 . S
C2744 C2741 1.499 . S
C2744 C2745 1.373 . S
C2744 C2746 1.389 . S
C2745 H2718 0.950 . S
C2745 C2731 1.377 . S
C2745 C2744 1.373 . S
C2746 C2730 1.377 . S
C2746 C2744 1.389 . S
C2746 C2747 1.524 . S
C2747 C2746 1.524 . S
C2747 C2748 1.397 . S
C2747 C2752 1.363 . S
C2748 H2719 0.950 . S
C2748 C2747 1.397 . S
C2748 C2749 1.334 . S
C2749 H2720 0.950 . S
C2749 C2748 1.334 . S
C2749 C2750 1.287 . S
C2750 C2749 1.287 . S
C2750 C2751 1.524 . S
C2750 H2753 0.999 . S
C2751 H2721 0.950 . S
C2751 C2750 1.524 . S
C2751 C2752 1.415 . S
C2752 H2722 0.950 . S
C2752 C2747 1.363 . S
C2752 C2751 1.415 . S
H2753 C2750 0.999 . S
H2754 C2735 0.913 . S
H2755 C2773 0.951 . S
H2756 C2775 0.951 . S
H2757 C2777 0.950 . S
H2758 C2778 0.950 . S
H2759 C2780 0.950 . S
H2760 C2783 0.950 . S
H2761 C2784 0.950 . S
H2762 C2786 0.950 . S
H2763 C2787 0.950 . S
H2764 C2788 0.951 . S
H2765 C2790 0.951 . S
H2766 C2792 0.950 . S
H2767 C2793 0.950 . S
H2768 C2795 0.950 . S
H2769 C2798 0.950 . S
H2770 C2799 0.950 . S
H2771 C2801 0.950 . S
H2772 C2802 0.950 . S
C2773 H2755 0.951 . S
C2773 C2774 1.366 . S
C2773 C2775 1.388 . S
C2774 C2773 1.366 . S
C2774 C2778 1.385 . S
C2775 H2756 0.951 . S
C2775 C2773 1.388 . S
C2775 C2776 1.366 . S
C2776 C2775 1.366 . S
C2776 C2777 1.414 . S
C2776 C2779 1.499 . S
C2777 H2757 0.950 . S
C2777 C2776 1.414 . S
C2777 C2778 1.374 . S
C2778 H2758 0.950 . S
C2778 C2774 1.385 . S
C2778 C2777 1.374 . S
C2779 C2776 1.499 . S
C2779 C2780 1.373 . S
C2779 C2781 1.389 . S
C2780 H2759 0.950 . S
C2780 C2779 1.373 . S
C2780 C2796 1.377 . S
C2781 C2779 1.389 . S
C2781 C2782 1.524 . S
C2781 C2795 1.377 . S
C2782 C2781 1.524 . S
C2782 C2783 1.397 . S
C2782 C2787 1.363 . S
C2783 H2760 0.950 . S
C2783 C2782 1.397 . S
C2783 C2784 1.334 . S
C2784 H2761 0.950 . S
C2784 C2783 1.334 . S
C2784 C2785 1.287 . S
C2785 C2784 1.287 . S
C2785 C2786 1.524 . S
C2785 H2804 0.913 . S
C2786 H2762 0.950 . S
C2786 C2785 1.524 . S
C2786 C2787 1.415 . S
C2787 H2763 0.950 . S
C2787 C2782 1.363 . S
C2787 C2786 1.415 . S
C2788 H2764 0.951 . S
C2788 C2789 1.366 . S
C2788 C2790 1.388 . S
C2789 C2788 1.366 . S
C2789 C2793 1.385 . S
C2790 H2765 0.951 . S
C2790 C2788 1.388 . S
C2790 C2791 1.366 . S
C2791 C2790 1.366 . S
C2791 C2792 1.414 . S
C2791 C2794 1.499 . S
C2792 H2766 0.950 . S
C2792 C2791 1.414 . S
C2792 C2793 1.374 . S
C2793 H2767 0.950 . S
C2793 C2789 1.385 . S
C2793 C2792 1.374 . S
C2794 C2791 1.499 . S
C2794 C2795 1.373 . S
C2794 C2796 1.389 . S
C2795 H2768 0.950 . S
C2795 C2781 1.377 . S
C2795 C2794 1.373 . S
C2796 C2780 1.377 . S
C2796 C2794 1.389 . S
C2796 C2797 1.524 . S
C2797 C2796 1.524 . S
C2797 C2798 1.397 . S
C2797 C2802 1.363 . S
C2798 H2769 0.950 . S
C2798 C2797 1.397 . S
C2798 C2799 1.334 . S
C2799 H2770 0.950 . S
C2799 C2798 1.334 . S
C2799 C2800 1.287 . S
C2800 C2799 1.287 . S
C2800 C2801 1.524 . S
C2800 H2803 0.999 . S
C2801 H2771 0.950 . S
C2801 C2800 1.524 . S
C2801 C2802 1.415 . S
C2802 H2772 0.950 . S
C2802 C2797 1.363 . S
C2802 C2801 1.415 . S
H2803 C2800 0.999 . S
H2804 C2785 0.913 . S
H2805 C2823 0.951 . S
H2806 C2825 0.951 . S
H2807 C2827 0.950 . S
H2808 C2828 0.950 . S
H2809 C2830 0.950 . S
H2810 C2833 0.950 . S
H2811 C2834 0.950 . S
H2812 C2836 0.950 . S
H2813 C2837 0.950 . S
H2814 C2838 0.951 . S
H2815 C2840 0.951 . S
H2816 C2842 0.950 . S
H2817 C2843 0.950 . S
H2818 C2845 0.950 . S
H2819 C2848 0.950 . S
H2820 C2849 0.950 . S
H2821 C2851 0.950 . S
H2822 C2852 0.950 . S
C2823 H2805 0.951 . S
C2823 C2824 1.366 . S
C2823 C2825 1.388 . S
C2824 C2823 1.366 . S
C2824 C2828 1.385 . S
C2825 H2806 0.951 . S
C2825 C2823 1.388 . S
C2825 C2826 1.366 . S
C2826 C2825 1.366 . S
C2826 C2827 1.414 . S
C2826 C2829 1.499 . S
C2827 H2807 0.950 . S
C2827 C2826 1.414 . S
C2827 C2828 1.374 . S
C2828 H2808 0.950 . S
C2828 C2824 1.385 . S
C2828 C2827 1.374 . S
C2829 C2826 1.499 . S
C2829 C2830 1.373 . S
C2829 C2831 1.389 . S
C2830 H2809 0.950 . S
C2830 C2829 1.373 . S
C2830 C2846 1.377 . S
C2831 C2829 1.389 . S
C2831 C2832 1.524 . S
C2831 C2845 1.377 . S
C2832 C2831 1.524 . S
C2832 C2833 1.397 . S
C2832 C2837 1.363 . S
C2833 H2810 0.950 . S
C2833 C2832 1.397 . S
C2833 C2834 1.334 . S
C2834 H2811 0.950 . S
C2834 C2833 1.334 . S
C2834 C2835 1.287 . S
C2835 C2834 1.287 . S
C2835 C2836 1.524 . S
C2835 H2854 0.913 . S
C2836 H2812 0.950 . S
C2836 C2835 1.524 . S
C2836 C2837 1.415 . S
C2837 H2813 0.950 . S
C2837 C2832 1.363 . S
C2837 C2836 1.415 . S
C2838 H2814 0.951 . S
C2838 C2839 1.366 . S
C2838 C2840 1.388 . S
C2839 C2838 1.366 . S
C2839 C2843 1.385 . S
C2840 H2815 0.951 . S
C2840 C2838 1.388 . S
C2840 C2841 1.366 . S
C2841 C2840 1.366 . S
C2841 C2842 1.414 . S
C2841 C2844 1.499 . S
C2842 H2816 0.950 . S
C2842 C2841 1.414 . S
C2842 C2843 1.374 . S
C2843 H2817 0.950 . S
C2843 C2839 1.385 . S
C2843 C2842 1.374 . S
C2844 C2841 1.499 . S
C2844 C2845 1.373 . S
C2844 C2846 1.389 . S
C2845 H2818 0.950 . S
C2845 C2831 1.377 . S
C2845 C2844 1.373 . S
C2846 C2830 1.377 . S
C2846 C2844 1.389 . S
C2846 C2847 1.524 . S
C2847 C2846 1.524 . S
C2847 C2848 1.397 . S
C2847 C2852 1.363 . S
C2848 H2819 0.950 . S
C2848 C2847 1.397 . S
C2848 C2849 1.334 . S
C2849 H2820 0.950 . S
C2849 C2848 1.334 . S
C2849 C2850 1.287 . S
C2850 C2849 1.287 . S
C2850 C2851 1.524 . S
C2850 H2853 0.999 . S
C2851 H2821 0.950 . S
C2851 C2850 1.524 . S
C2851 C2852 1.415 . S
C2852 H2822 0.950 . S
C2852 C2847 1.363 . S
C2852 C2851 1.415 . S
H2853 C2850 0.999 . S
H2854 C2835 0.913 . S
H2855 C2873 0.951 . S
H2856 C2875 0.951 . S
H2857 C2877 0.950 . S
H2858 C2878 0.950 . S
H2859 C2880 0.950 . S
H2860 C2883 0.950 . S
H2861 C2884 0.950 . S
H2862 C2886 0.950 . S
H2863 C2887 0.950 . S
H2864 C2888 0.951 . S
H2865 C2890 0.951 . S
H2866 C2892 0.950 . S
H2867 C2893 0.950 . S
H2868 C2895 0.950 . S
H2869 C2898 0.950 . S
H2870 C2899 0.950 . S
H2871 C2901 0.950 . S
H2872 C2902 0.950 . S
C2873 H2855 0.951 . S
C2873 C2874 1.366 . S
C2873 C2875 1.388 . S
C2874 C2873 1.366 . S
C2874 C2878 1.385 . S
C2875 H2856 0.951 . S
C2875 C2873 1.388 . S
C2875 C2876 1.366 . S
C2876 C2875 1.366 . S
C2876 C2877 1.414 . S
C2876 C2879 1.499 . S
C2877 H2857 0.950 . S
C2877 C2876 1.414 . S
C2877 C2878 1.374 . S
C2878 H2858 0.950 . S
C2878 C2874 1.385 . S
C2878 C2877 1.374 . S
C2879 C2876 1.499 . S
C2879 C2880 1.373 . S
C2879 C2881 1.389 . S
C2880 H2859 0.950 . S
C2880 C2879 1.373 . S
C2880 C2896 1.377 . S
C2881 C2879 1.389 . S
C2881 C2882 1.524 . S
C2881 C2895 1.377 . S
C2882 C2881 1.524 . S
C2882 C2883 1.397 . S
C2882 C2887 1.363 . S
C2883 H2860 0.950 . S
C2883 C2882 1.397 . S
C2883 C2884 1.334 . S
C2884 H2861 0.950 . S
C2884 C2883 1.334 . S
C2884 C2885 1.287 . S
C2885 C2884 1.287 . S
C2885 C2886 1.524 . S
C2885 H2904 0.913 . S
C2886 H2862 0.950 . S
C2886 C2885 1.524 . S
C2886 C2887 1.415 . S
C2887 H2863 0.950 . S
C2887 C2882 1.363 . S
C2887 C2886 1.415 . S
C2888 H2864 0.951 . S
C2888 C2889 1.366 . S
C2888 C2890 1.388 . S
C2889 C2888 1.366 . S
C2889 C2893 1.385 . S
C2890 H2865 0.951 . S
C2890 C2888 1.388 . S
C2890 C2891 1.366 . S
C2891 C2890 1.366 . S
C2891 C2892 1.414 . S
C2891 C2894 1.499 . S
C2892 H2866 0.950 . S
C2892 C2891 1.414 . S
C2892 C2893 1.374 . S
C2893 H2867 0.950 . S
C2893 C2889 1.385 . S
C2893 C2892 1.374 . S
C2894 C2891 1.499 . S
C2894 C2895 1.373 . S
C2894 C2896 1.389 . S
C2895 H2868 0.950 . S
C2895 C2881 1.377 . S
C2895 C2894 1.373 . S
C2896 C2880 1.377 . S
C2896 C2894 1.389 . S
C2896 C2897 1.524 . S
C2897 C2896 1.524 . S
C2897 C2898 1.397 . S
C2897 C2902 1.363 . S
C2898 H2869 0.950 . S
C2898 C2897 1.397 . S
C2898 C2899 1.334 . S
C2899 H2870 0.950 . S
C2899 C2898 1.334 . S
C2899 C2900 1.287 . S
C2900 C2899 1.287 . S
C2900 C2901 1.524 . S
C2900 H2903 0.999 . S
C2901 H2871 0.950 . S
C2901 C2900 1.524 . S
C2901 C2902 1.415 . S
C2902 H2872 0.950 . S
C2902 C2897 1.363 . S
C2902 C2901 1.415 . S
H2903 C2900 0.999 . S
H2904 C2885 0.913 . S
H2905 C2923 0.951 . S
H2906 C2925 0.951 . S
H2907 C2927 0.950 . S
H2908 C2928 0.950 . S
H2909 C2930 0.950 . S
H2910 C2933 0.950 . S
H2911 C2934 0.950 . S
H2912 C2936 0.950 . S
H2913 C2937 0.950 . S
H2914 C2938 0.951 . S
H2915 C2940 0.951 . S
H2916 C2942 0.950 . S
H2917 C2943 0.950 . S
H2918 C2945 0.950 . S
H2919 C2948 0.950 . S
H2920 C2949 0.950 . S
H2921 C2951 0.950 . S
H2922 C2952 0.950 . S
C2923 H2905 0.951 . S
C2923 C2924 1.366 . S
C2923 C2925 1.388 . S
C2924 C2923 1.366 . S
C2924 C2928 1.385 . S
C2925 H2906 0.951 . S
C2925 C2923 1.388 . S
C2925 C2926 1.366 . S
C2926 C2925 1.366 . S
C2926 C2927 1.414 . S
C2926 C2929 1.499 . S
C2927 H2907 0.950 . S
C2927 C2926 1.414 . S
C2927 C2928 1.374 . S
C2928 H2908 0.950 . S
C2928 C2924 1.385 . S
C2928 C2927 1.374 . S
C2929 C2926 1.499 . S
C2929 C2930 1.373 . S
C2929 C2931 1.389 . S
C2930 H2909 0.950 . S
C2930 C2929 1.373 . S
C2930 C2946 1.377 . S
C2931 C2929 1.389 . S
C2931 C2932 1.524 . S
C2931 C2945 1.377 . S
C2932 C2931 1.524 . S
C2932 C2933 1.397 . S
C2932 C2937 1.363 . S
C2933 H2910 0.950 . S
C2933 C2932 1.397 . S
C2933 C2934 1.334 . S
C2934 H2911 0.950 . S
C2934 C2933 1.334 . S
C2934 C2935 1.287 . S
C2935 C2934 1.287 . S
C2935 C2936 1.524 . S
C2935 H2954 0.913 . S
C2936 H2912 0.950 . S
C2936 C2935 1.524 . S
C2936 C2937 1.415 . S
C2937 H2913 0.950 . S
C2937 C2932 1.363 . S
C2937 C2936 1.415 . S
C2938 H2914 0.951 . S
C2938 C2939 1.366 . S
C2938 C2940 1.388 . S
C2939 C2938 1.366 . S
C2939 C2943 1.385 . S
C2940 H2915 0.951 . S
C2940 C2938 1.388 . S
C2940 C2941 1.366 . S
C2941 C2940 1.366 . S
C2941 C2942 1.414 . S
C2941 C2944 1.499 . S
C2942 H2916 0.950 . S
C2942 C2941 1.414 . S
C2942 C2943 1.374 . S
C2943 H2917 0.950 . S
C2943 C2939 1.385 . S
C2943 C2942 1.374 . S
C2944 C2941 1.499 . S
C2944 C2945 1.373 . S
C2944 C2946 1.389 . S
C2945 H2918 0.950 . S
C2945 C2931 1.377 . S
C2945 C2944 1.373 . S
C2946 C2930 1.377 . S
C2946 C2944 1.389 . S
C2946 C2947 1.524 . S
C2947 C2946 1.524 . S
C2947 C2948 1.397 . S
C2947 C2952 1.363 . S
C2948 H2919 0.950 . S
C2948 C2947 1.397 . S
C2948 C2949 1.334 . S
C2949 H2920 0.950 . S
C2949 C2948 1.334 . S
C2949 C2950 1.287 . S
C2950 C2949 1.287 . S
C2950 C2951 1.524 . S
C2950 H2953 0.999 . S
C2951 H2921 0.950 . S
C2951 C2950 1.524 . S
C2951 C2952 1.415 . S
C2952 H2922 0.950 . S
C2952 C2947 1.363 . S
C2952 C2951 1.415 . S
H2953 C2950 0.999 . S
H2954 C2935 0.913 . S
H2955 C2973 0.951 . S
H2956 C2975 0.951 . S
H2957 C2977 0.950 . S
H2958 C2978 0.950 . S
H2959 C2980 0.950 . S
H2960 C2983 0.950 . S
H2961 C2984 0.950 . S
H2962 C2986 0.950 . S
H2963 C2987 0.950 . S
H2964 C2988 0.951 . S
H2965 C2990 0.951 . S
H2966 C2992 0.950 . S
H2967 C2993 0.950 . S
H2968 C2995 0.950 . S
H2969 C2998 0.950 . S
H2970 C2999 0.950 . S
H2971 C3001 0.950 . S
H2972 C3002 0.950 . S
C2973 H2955 0.951 . S
C2973 C2974 1.366 . S
C2973 C2975 1.388 . S
C2974 C2973 1.366 . S
C2974 C2978 1.385 . S
C2975 H2956 0.951 . S
C2975 C2973 1.388 . S
C2975 C2976 1.366 . S
C2976 C2975 1.366 . S
C2976 C2977 1.414 . S
C2976 C2979 1.499 . S
C2977 H2957 0.950 . S
C2977 C2976 1.414 . S
C2977 C2978 1.374 . S
C2978 H2958 0.950 . S
C2978 C2974 1.385 . S
C2978 C2977 1.374 . S
C2979 C2976 1.499 . S
C2979 C2980 1.373 . S
C2979 C2981 1.389 . S
C2980 H2959 0.950 . S
C2980 C2979 1.373 . S
C2980 C2996 1.377 . S
C2981 C2979 1.389 . S
C2981 C2982 1.524 . S
C2981 C2995 1.377 . S
C2982 C2981 1.524 . S
C2982 C2983 1.397 . S
C2982 C2987 1.363 . S
C2983 H2960 0.950 . S
C2983 C2982 1.397 . S
C2983 C2984 1.334 . S
C2984 H2961 0.950 . S
C2984 C2983 1.334 . S
C2984 C2985 1.287 . S
C2985 C2984 1.287 . S
C2985 C2986 1.524 . S
C2985 H3004 0.913 . S
C2986 H2962 0.950 . S
C2986 C2985 1.524 . S
C2986 C2987 1.415 . S
C2987 H2963 0.950 . S
C2987 C2982 1.363 . S
C2987 C2986 1.415 . S
C2988 H2964 0.951 . S
C2988 C2989 1.366 . S
C2988 C2990 1.388 . S
C2989 C2988 1.366 . S
C2989 C2993 1.385 . S
C2990 H2965 0.951 . S
C2990 C2988 1.388 . S
C2990 C2991 1.366 . S
C2991 C2990 1.366 . S
C2991 C2992 1.414 . S
C2991 C2994 1.499 . S
C2992 H2966 0.950 . S
C2992 C2991 1.414 . S
C2992 C2993 1.374 . S
C2993 H2967 0.950 . S
C2993 C2989 1.385 . S
C2993 C2992 1.374 . S
C2994 C2991 1.499 . S
C2994 C2995 1.373 . S
C2994 C2996 1.389 . S
C2995 H2968 0.950 . S
C2995 C2981 1.377 . S
C2995 C2994 1.373 . S
C2996 C2980 1.377 . S
C2996 C2994 1.389 . S
C2996 C2997 1.524 . S
C2997 C2996 1.524 . S
C2997 C2998 1.397 . S
C2997 C3002 1.363 . S
C2998 H2969 0.950 . S
C2998 C2997 1.397 . S
C2998 C2999 1.334 . S
C2999 H2970 0.950 . S
C2999 C2998 1.334 . S
C2999 C3000 1.287 . S
C3000 C2999 1.287 . S
C3000 C3001 1.524 . S
C3000 H3003 0.999 . S
C3001 H2971 0.950 . S
C3001 C3000 1.524 . S
C3001 C3002 1.415 . S
C3002 H2972 0.950 . S
C3002 C2997 1.363 . S
C3002 C3001 1.415 . S
H3003 C3000 0.999 . S
H3004 C2985 0.913 . S
H3005 C3023 0.951 . S
H3006 C3025 0.951 . S
H3007 C3027 0.950 . S
H3008 C3028 0.950 . S
H3009 C3030 0.950 . S
H3010 C3033 0.950 . S
H3011 C3034 0.950 . S
H3012 C3036 0.950 . S
H3013 C3037 0.950 . S
H3014 C3038 0.951 . S
H3015 C3040 0.951 . S
H3016 C3042 0.950 . S
H3017 C3043 0.950 . S
H3018 C3045 0.950 . S
H3019 C3048 0.950 . S
H3020 C3049 0.950 . S
H3021 C3051 0.950 . S
H3022 C3052 0.950 . S
C3023 H3005 0.951 . S
C3023 C3024 1.366 . S
C3023 C3025 1.388 . S
C3024 C3023 1.366 . S
C3024 C3028 1.385 . S
C3025 H3006 0.951 . S
C3025 C3023 1.388 . S
C3025 C3026 1.366 . S
C3026 C3025 1.366 . S
C3026 C3027 1.414 . S
C3026 C3029 1.499 . S
C3027 H3007 0.950 . S
C3027 C3026 1.414 . S
C3027 C3028 1.374 . S
C3028 H3008 0.950 . S
C3028 C3024 1.385 . S
C3028 C3027 1.374 . S
C3029 C3026 1.499 . S
C3029 C3030 1.373 . S
C3029 C3031 1.389 . S
C3030 H3009 0.950 . S
C3030 C3029 1.373 . S
C3030 C3046 1.377 . S
C3031 C3029 1.389 . S
C3031 C3032 1.524 . S
C3031 C3045 1.377 . S
C3032 C3031 1.524 . S
C3032 C3033 1.397 . S
C3032 C3037 1.363 . S
C3033 H3010 0.950 . S
C3033 C3032 1.397 . S
C3033 C3034 1.334 . S
C3034 H3011 0.950 . S
C3034 C3033 1.334 . S
C3034 C3035 1.287 . S
C3035 C3034 1.287 . S
C3035 C3036 1.524 . S
C3035 H3054 0.913 . S
C3036 H3012 0.950 . S
C3036 C3035 1.524 . S
C3036 C3037 1.415 . S
C3037 H3013 0.950 . S
C3037 C3032 1.363 . S
C3037 C3036 1.415 . S
C3038 H3014 0.951 . S
C3038 C3039 1.366 . S
C3038 C3040 1.388 . S
C3039 C3038 1.366 . S
C3039 C3043 1.385 . S
C3040 H3015 0.951 . S
C3040 C3038 1.388 . S
C3040 C3041 1.366 . S
C3041 C3040 1.366 . S
C3041 C3042 1.414 . S
C3041 C3044 1.499 . S
C3042 H3016 0.950 . S
C3042 C3041 1.414 . S
C3042 C3043 1.374 . S
C3043 H3017 0.950 . S
C3043 C3039 1.385 . S
C3043 C3042 1.374 . S
C3044 C3041 1.499 . S
C3044 C3045 1.373 . S
C3044 C3046 1.389 . S
C3045 H3018 0.950 . S
C3045 C3031 1.377 . S
C3045 C3044 1.373 . S
C3046 C3030 1.377 . S
C3046 C3044 1.389 . S
C3046 C3047 1.524 . S
C3047 C3046 1.524 . S
C3047 C3048 1.397 . S
C3047 C3052 1.363 . S
C3048 H3019 0.950 . S
C3048 C3047 1.397 . S
C3048 C3049 1.334 . S
C3049 H3020 0.950 . S
C3049 C3048 1.334 . S
C3049 C3050 1.287 . S
C3050 C3049 1.287 . S
C3050 C3051 1.524 . S
C3050 H3053 0.999 . S
C3051 H3021 0.950 . S
C3051 C3050 1.524 . S
C3051 C3052 1.415 . S
C3052 H3022 0.950 . S
C3052 C3047 1.363 . S
C3052 C3051 1.415 . S
H3053 C3050 0.999 . S
H3054 C3035 0.913 . S
H3055 C3073 0.951 . S
H3056 C3075 0.951 . S
H3057 C3077 0.950 . S
H3058 C3078 0.950 . S
H3059 C3080 0.950 . S
H3060 C3083 0.950 . S
H3061 C3084 0.950 . S
H3062 C3086 0.950 . S
H3063 C3087 0.950 . S
H3064 C3088 0.951 . S
H3065 C3090 0.951 . S
H3066 C3092 0.950 . S
H3067 C3093 0.950 . S
H3068 C3095 0.950 . S
H3069 C3098 0.950 . S
H3070 C3099 0.950 . S
H3071 C3101 0.950 . S
H3072 C3102 0.950 . S
C3073 H3055 0.951 . S
C3073 C3074 1.366 . S
C3073 C3075 1.388 . S
C3074 C3073 1.366 . S
C3074 C3078 1.385 . S
C3075 H3056 0.951 . S
C3075 C3073 1.388 . S
C3075 C3076 1.366 . S
C3076 C3075 1.366 . S
C3076 C3077 1.414 . S
C3076 C3079 1.499 . S
C3077 H3057 0.950 . S
C3077 C3076 1.414 . S
C3077 C3078 1.374 . S
C3078 H3058 0.950 . S
C3078 C3074 1.385 . S
C3078 C3077 1.374 . S
C3079 C3076 1.499 . S
C3079 C3080 1.373 . S
C3079 C3081 1.389 . S
C3080 H3059 0.950 . S
C3080 C3079 1.373 . S
C3080 C3096 1.377 . S
C3081 C3079 1.389 . S
C3081 C3082 1.524 . S
C3081 C3095 1.377 . S
C3082 C3081 1.524 . S
C3082 C3083 1.397 . S
C3082 C3087 1.363 . S
C3083 H3060 0.950 . S
C3083 C3082 1.397 . S
C3083 C3084 1.334 . S
C3084 H3061 0.950 . S
C3084 C3083 1.334 . S
C3084 C3085 1.287 . S
C3085 C3084 1.287 . S
C3085 C3086 1.524 . S
C3085 H3104 0.913 . S
C3086 H3062 0.950 . S
C3086 C3085 1.524 . S
C3086 C3087 1.415 . S
C3087 H3063 0.950 . S
C3087 C3082 1.363 . S
C3087 C3086 1.415 . S
C3088 H3064 0.951 . S
C3088 C3089 1.366 . S
C3088 C3090 1.388 . S
C3089 C3088 1.366 . S
C3089 C3093 1.385 . S
C3090 H3065 0.951 . S
C3090 C3088 1.388 . S
C3090 C3091 1.366 . S
C3091 C3090 1.366 . S
C3091 C3092 1.414 . S
C3091 C3094 1.499 . S
C3092 H3066 0.950 . S
C3092 C3091 1.414 . S
C3092 C3093 1.374 . S
C3093 H3067 0.950 . S
C3093 C3089 1.385 . S
C3093 C3092 1.374 . S
C3094 C3091 1.499 . S
C3094 C3095 1.373 . S
C3094 C3096 1.389 . S
C3095 H3068 0.950 . S
C3095 C3081 1.377 . S
C3095 C3094 1.373 . S
C3096 C3080 1.377 . S
C3096 C3094 1.389 . S
C3096 C3097 1.524 . S
C3097 C3096 1.524 . S
C3097 C3098 1.397 . S
C3097 C3102 1.363 . S
C3098 H3069 0.950 . S
C3098 C3097 1.397 . S
C3098 C3099 1.334 . S
C3099 H3070 0.950 . S
C3099 C3098 1.334 . S
C3099 C3100 1.287 . S
C3100 C3099 1.287 . S
C3100 C3101 1.524 . S
C3100 H3103 0.999 . S
C3101 H3071 0.950 . S
C3101 C3100 1.524 . S
C3101 C3102 1.415 . S
C3102 H3072 0.950 . S
C3102 C3097 1.363 . S
C3102 C3101 1.415 . S
H3103 C3100 0.999 . S
H3104 C3085 0.913 . S
C424 C162 1.404 . S
C439 C230 1.379 . S
C474 C174 1.386 . S
C489 C251 1.356 . S
C524 C150 1.335 . S
C539 C271 1.195 . S
C574 C138 1.333 . S
C589 C250 1.187 . S
C639 C272 1.373 . S
C624 C114 1.407 . S
C674 C126 1.354 1_554 S
C689 C229 1.207 . S
C739 C231 1.369 . S
C724 C136 1.401 1_554 S
C789 C252 1.369 . S
C774 C112 1.389 . S
C824 C124 1.452 . S
C839 C274 1.259 . S
C874 C160 1.422 . S
C889 C253 1.239 . S
C924 C172 1.370 . S
C939 C273 1.344 . S
C989 C232 1.251 . S
C974 C148 1.438 . S
C1039 C293 1.379 . S
C1024 C18 1.404 . S
C1074 C30 1.386 . S
C1089 C314 1.357 . S
C1124 C6 1.335 . S
C1139 C334 1.197 . S
C1174 C210 1.333 . S
C1189 C313 1.187 . S
C1224 C186 1.403 . S
C1239 C335 1.372 . S
C1274 C198 1.354 . S
C1289 C292 1.207 . S
C1324 C208 1.400 . S
C1339 C294 1.369 . S
C1374 C184 1.390 . S
C1389 C315 1.368 . S
C1439 C337 1.258 . S
C1424 C196 1.452 . S
C1474 C16 1.423 . S
C1489 C316 1.241 . S
C1539 C336 1.344 . S
C1524 C28 1.371 . S
C1574 C4 1.438 . S
C1589 C295 1.251 . S
C1639 C356 1.379 . S
C1624 C90 1.403 . S
C1674 C102 1.386 . S
C1689 C377 1.357 . S
C1739 C397 1.195 . S
C1724 C78 1.335 . S
C1789 C376 1.189 . S
C1774 C66 1.333 . S
C1839 C398 1.372 . S
C1824 C42 1.403 . S
C1874 C54 1.353 . S
C1889 C355 1.204 . S
C1924 C64 1.401 . S
C1939 C357 1.368 . S
C1974 C40 1.388 . S
C1989 C378 1.368 . S
C2039 C400 1.258 . S
C2024 C52 1.453 . S
C2074 C88 1.421 . S
C2089 C379 1.240 . S
C2124 C100 1.370 . S
C2139 C399 1.345 . S
C2174 C76 1.437 . S
C2189 C358 1.250 . S
C2224 C189 1.492 . S
C2239 C234 1.476 . S
C2289 C255 1.515 . S
C2274 C201 1.530 . S
C2324 C213 1.563 . S
C2339 C275 1.507 . S
C2374 C81 1.637 . S
C2389 C254 1.579 . S
C2424 C93 1.567 . S
C2439 C276 1.549 . S
C2489 C233 1.541 . S
C2474 C105 1.596 . S
C2524 C45 1.492 . S
C2539 C297 1.477 . S
C2574 C57 1.530 . S
C2589 C318 1.515 . S
C2624 C69 1.563 . S
C2639 C338 1.508 . S
C2674 C153 1.637 . S
C2689 C317 1.579 . S
C2739 C339 1.549 . S
C2724 C165 1.567 . S
C2774 C177 1.597 . S
C2789 C296 1.541 . S
C2824 C117 1.492 . S
C2839 C360 1.477 . S
C2874 C129 1.530 . S
C2889 C381 1.515 . S
C2939 C401 1.507 . S
C2924 C141 1.563 . S
C2974 C9 1.637 . S
C2989 C380 1.579 . S
C3024 C21 1.567 . S
C3039 C402 1.549 . S
C3074 C33 1.597 . S
C3089 C359 1.542 . S
