# Generated by pormake.
# Topology eea, (3,6)-cn, num edge types: 1
# Building blocks:
#     Node 0, Type 0, BuildingBlock: KAKCAD_clean_linker_0, # of connection points: 3
#     Node 1, Type 0, BuildingBlock: KAKCAD_clean_linker_0, # of connection points: 3
#     Node 2, Type 0, BuildingBlock: KAKCAD_clean_linker_0, # of connection points: 3
#     Node 3, Type 0, BuildingBlock: KAKCAD_clean_linker_0, # of connection points: 3
#     Node 4, Type 0, BuildingBlock: KAKCAD_clean_linker_0, # of connection points: 3
#     Node 5, Type 0, BuildingBlock: KAKCAD_clean_linker_0, # of connection points: 3
#     Node 6, Type 0, BuildingBlock: KAKCAD_clean_linker_0, # of connection points: 3
#     Node 7, Type 0, BuildingBlock: KAKCAD_clean_linker_0, # of connection points: 3
#     Node 8, Type 0, BuildingBlock: KAKCAD_clean_linker_0, # of connection points: 3
#     Node 9, Type 0, BuildingBlock: KAKCAD_clean_linker_0, # of connection points: 3
#     Node 10, Type 0, BuildingBlock: KAKCAD_clean_linker_0, # of connection points: 3
#     Node 11, Type 0, BuildingBlock: KAKCAD_clean_linker_0, # of connection points: 3
#     Node 12, Type 0, BuildingBlock: KAKCAD_clean_linker_0, # of connection points: 3
#     Node 13, Type 0, BuildingBlock: KAKCAD_clean_linker_0, # of connection points: 3
#     Node 14, Type 0, BuildingBlock: KAKCAD_clean_linker_0, # of connection points: 3
#     Node 15, Type 0, BuildingBlock: KAKCAD_clean_linker_0, # of connection points: 3
#     Node 16, Type 0, BuildingBlock: KAKCAD_clean_linker_0, # of connection points: 3
#     Node 17, Type 0, BuildingBlock: KAKCAD_clean_linker_0, # of connection points: 3
#     Node 18, Type 1, BuildingBlock: KUMBOL_clean_sbu_0, # of connection points: 6
#     Node 19, Type 1, BuildingBlock: KUMBOL_clean_sbu_0, # of connection points: 6
#     Node 20, Type 1, BuildingBlock: KUMBOL_clean_sbu_0, # of connection points: 6
#     Node 21, Type 1, BuildingBlock: KUMBOL_clean_sbu_0, # of connection points: 6
#     Node 22, Type 1, BuildingBlock: KUMBOL_clean_sbu_0, # of connection points: 6
#     Node 23, Type 1, BuildingBlock: KUMBOL_clean_sbu_0, # of connection points: 6
#     Node 24, Type 1, BuildingBlock: KUMBOL_clean_sbu_0, # of connection points: 6
#     Node 25, Type 1, BuildingBlock: KUMBOL_clean_sbu_0, # of connection points: 6
#     Node 26, Type 1, BuildingBlock: KUMBOL_clean_sbu_0, # of connection points: 6
#     Edge 27, Type (0, 1), BuildingBlock: TEMPAE_clean_linker_10, # of connection points: 2
#     Edge 28, Type (0, 1), BuildingBlock: TEMPAE_clean_linker_10, # of connection points: 2
#     Edge 29, Type (0, 1), BuildingBlock: TEMPAE_clean_linker_10, # of connection points: 2
#     Edge 30, Type (0, 1), BuildingBlock: TEMPAE_clean_linker_10, # of connection points: 2
#     Edge 31, Type (0, 1), BuildingBlock: TEMPAE_clean_linker_10, # of connection points: 2
#     Edge 32, Type (0, 1), BuildingBlock: TEMPAE_clean_linker_10, # of connection points: 2
#     Edge 33, Type (0, 1), BuildingBlock: TEMPAE_clean_linker_10, # of connection points: 2
#     Edge 34, Type (0, 1), BuildingBlock: TEMPAE_clean_linker_10, # of connection points: 2
#     Edge 35, Type (0, 1), BuildingBlock: TEMPAE_clean_linker_10, # of connection points: 2
#     Edge 36, Type (0, 1), BuildingBlock: TEMPAE_clean_linker_10, # of connection points: 2
#     Edge 37, Type (0, 1), BuildingBlock: TEMPAE_clean_linker_10, # of connection points: 2
#     Edge 38, Type (0, 1), BuildingBlock: TEMPAE_clean_linker_10, # of connection points: 2
#     Edge 39, Type (0, 1), BuildingBlock: TEMPAE_clean_linker_10, # of connection points: 2
#     Edge 40, Type (0, 1), BuildingBlock: TEMPAE_clean_linker_10, # of connection points: 2
#     Edge 41, Type (0, 1), BuildingBlock: TEMPAE_clean_linker_10, # of connection points: 2
#     Edge 42, Type (0, 1), BuildingBlock: TEMPAE_clean_linker_10, # of connection points: 2
#     Edge 43, Type (0, 1), BuildingBlock: TEMPAE_clean_linker_10, # of connection points: 2
#     Edge 44, Type (0, 1), BuildingBlock: TEMPAE_clean_linker_10, # of connection points: 2
#     Edge 45, Type (0, 1), BuildingBlock: TEMPAE_clean_linker_10, # of connection points: 2
#     Edge 46, Type (0, 1), BuildingBlock: TEMPAE_clean_linker_10, # of connection points: 2
#     Edge 47, Type (0, 1), BuildingBlock: TEMPAE_clean_linker_10, # of connection points: 2
#     Edge 48, Type (0, 1), BuildingBlock: TEMPAE_clean_linker_10, # of connection points: 2
#     Edge 49, Type (0, 1), BuildingBlock: TEMPAE_clean_linker_10, # of connection points: 2
#     Edge 50, Type (0, 1), BuildingBlock: TEMPAE_clean_linker_10, # of connection points: 2
#     Edge 51, Type (0, 1), BuildingBlock: TEMPAE_clean_linker_10, # of connection points: 2
#     Edge 52, Type (0, 1), BuildingBlock: TEMPAE_clean_linker_10, # of connection points: 2
#     Edge 53, Type (0, 1), BuildingBlock: TEMPAE_clean_linker_10, # of connection points: 2
#     Edge 54, Type (0, 1), BuildingBlock: TEMPAE_clean_linker_10, # of connection points: 2
#     Edge 55, Type (0, 1), BuildingBlock: TEMPAE_clean_linker_10, # of connection points: 2
#     Edge 56, Type (0, 1), BuildingBlock: TEMPAE_clean_linker_10, # of connection points: 2
#     Edge 57, Type (0, 1), BuildingBlock: TEMPAE_clean_linker_10, # of connection points: 2
#     Edge 58, Type (0, 1), BuildingBlock: TEMPAE_clean_linker_10, # of connection points: 2
#     Edge 59, Type (0, 1), BuildingBlock: TEMPAE_clean_linker_10, # of connection points: 2
#     Edge 60, Type (0, 1), BuildingBlock: TEMPAE_clean_linker_10, # of connection points: 2
#     Edge 61, Type (0, 1), BuildingBlock: TEMPAE_clean_linker_10, # of connection points: 2
#     Edge 62, Type (0, 1), BuildingBlock: TEMPAE_clean_linker_10, # of connection points: 2
#     Edge 63, Type (0, 1), BuildingBlock: TEMPAE_clean_linker_10, # of connection points: 2
#     Edge 64, Type (0, 1), BuildingBlock: TEMPAE_clean_linker_10, # of connection points: 2
#     Edge 65, Type (0, 1), BuildingBlock: TEMPAE_clean_linker_10, # of connection points: 2
#     Edge 66, Type (0, 1), BuildingBlock: TEMPAE_clean_linker_10, # of connection points: 2
#     Edge 67, Type (0, 1), BuildingBlock: TEMPAE_clean_linker_10, # of connection points: 2
#     Edge 68, Type (0, 1), BuildingBlock: TEMPAE_clean_linker_10, # of connection points: 2
#     Edge 69, Type (0, 1), BuildingBlock: TEMPAE_clean_linker_10, # of connection points: 2
#     Edge 70, Type (0, 1), BuildingBlock: TEMPAE_clean_linker_10, # of connection points: 2
#     Edge 71, Type (0, 1), BuildingBlock: TEMPAE_clean_linker_10, # of connection points: 2
#     Edge 72, Type (0, 1), BuildingBlock: TEMPAE_clean_linker_10, # of connection points: 2
#     Edge 73, Type (0, 1), BuildingBlock: TEMPAE_clean_linker_10, # of connection points: 2
#     Edge 74, Type (0, 1), BuildingBlock: TEMPAE_clean_linker_10, # of connection points: 2
#     Edge 75, Type (0, 1), BuildingBlock: TEMPAE_clean_linker_10, # of connection points: 2
#     Edge 76, Type (0, 1), BuildingBlock: TEMPAE_clean_linker_10, # of connection points: 2
#     Edge 77, Type (0, 1), BuildingBlock: TEMPAE_clean_linker_10, # of connection points: 2
#     Edge 78, Type (0, 1), BuildingBlock: TEMPAE_clean_linker_10, # of connection points: 2
#     Edge 79, Type (0, 1), BuildingBlock: TEMPAE_clean_linker_10, # of connection points: 2
#     Edge 80, Type (0, 1), BuildingBlock: TEMPAE_clean_linker_10, # of connection points: 2
# Relax obj value: 0.009
# Max RMSD: 0.094
# Mean RMSD: 0.061
data_MOF--net-eea--node1-KUMBOL_clean_sbu_0--node2-KAKCAD_clean_linker_0--edge1-TEMPAE_clean_linker_10
_symmetry_space_group_name_H-M    P1
_symmetry_Int_Tables_number       1
_symmetry_cell_setting            triclinic
loop_
_symmetry_equiv_pos_as_xyz
'x, y, z'
_cell_length_a     63.368384
_cell_length_b     64.534958
_cell_length_c     89.654542
_cell_angle_alpha  90.381758
_cell_angle_beta   90.168658
_cell_angle_gamma 120.01786
loop_
_atom_site_label
_atom_site_type_symbol
_atom_site_fract_x
_atom_site_fract_y
_atom_site_fract_z
_atom_type_partial_charge
C0 C 0.27476 0.1553 0.48087 0.0
C1 C 0.29176 0.14813 0.48453 0.0
C2 C 0.26261 0.14903 0.4671 0.0
C3 C 0.26746 0.1358 0.45651 0.0
C4 C 0.28484 0.12909 0.46006 0.0
C5 C 0.29659 0.13491 0.47392 0.0
C6 C 0.25431 0.12875 0.44188 0.0
C7 C 0.24759 0.14388 0.43459 0.0
C8 C 0.23546 0.13722 0.42077 0.0
C9 C 0.22993 0.11537 0.41414 0.0
C10 C 0.23637 0.10005 0.42124 0.0
C11 C 0.24842 0.10675 0.43509 0.0
C12 C 0.23059 0.07704 0.41418 0.0
C13 C 0.20679 0.06098 0.40924 0.0
C14 C 0.24891 0.07108 0.41227 0.0
C15 C 0.24356 0.04949 0.4054 0.0
C16 C 0.21971 0.03335 0.40057 0.0
C17 C 0.22872 0.15317 0.41309 0.0
C18 C 0.20975 0.15623 0.41851 0.0
C19 C 0.24078 0.16482 0.40004 0.0
C20 C 0.23407 0.17955 0.39252 0.0
C21 C 0.21478 0.1825 0.39774 0.0
C22 C 0.20267 0.17058 0.41084 0.0
C23 C 0.20134 0.0392 0.40261 0.0
H24 H 0.2708 0.16584 0.48861 0.0
H25 H 0.24916 0.15431 0.46491 0.0
H26 H 0.28951 0.11933 0.45213 0.0
H27 H 0.30923 0.12869 0.47635 0.0
H28 H 0.25226 0.16112 0.43939 0.0
H29 H 0.25269 0.09444 0.44067 0.0
H30 H 0.22073 0.11038 0.40339 0.0
H31 H 0.19236 0.06519 0.41066 0.0
H32 H 0.26743 0.08327 0.41593 0.0
H33 H 0.25798 0.04527 0.40399 0.0
H34 H 0.20011 0.14714 0.42852 0.0
H35 H 0.25554 0.16266 0.39574 0.0
H36 H 0.18285 0.02704 0.3989 0.0
H37 H 0.18747 0.17201 0.41509 0.0
H38 H 0.24421 0.1888 0.38269 0.0
C39 C 0.87882 0.15918 0.47524 0.0
C40 C 0.87598 0.14415 0.48734 0.0
C41 C 0.88465 0.15451 0.46104 0.0
C42 C 0.88724 0.13444 0.45852 0.0
C43 C 0.88456 0.11944 0.47048 0.0
C44 C 0.87928 0.12439 0.48476 0.0
C45 C 0.8918 0.12862 0.4433 0.0
C46 C 0.91239 0.14506 0.43535 0.0
C47 C 0.91662 0.13977 0.42076 0.0
C48 C 0.89968 0.11756 0.41429 0.0
C49 C 0.87884 0.10085 0.4221 0.0
C50 C 0.87517 0.10668 0.43665 0.0
C51 C 0.86072 0.07751 0.41507 0.0
C52 C 0.85562 0.07577 0.39967 0.0
C53 C 0.84808 0.05677 0.42373 0.0
C54 C 0.83058 0.0351 0.41727 0.0
C55 C 0.82556 0.03333 0.40187 0.0
C56 C 0.93856 0.15743 0.4123 0.0
C57 C 0.94793 0.18223 0.41418 0.0
C58 C 0.95036 0.14974 0.40223 0.0
C59 C 0.97071 0.16632 0.39421 0.0
C60 C 0.98008 0.19096 0.39631 0.0
C61 C 0.96858 0.19876 0.4064 0.0
C62 C 0.8385 0.05397 0.39315 0.0
H63 H 0.87596 0.17427 0.4766 0.0
H64 H 0.88641 0.16618 0.45192 0.0
H65 H 0.88665 0.10393 0.46878 0.0
H66 H 0.87785 0.11268 0.49377 0.0
H67 H 0.92534 0.16175 0.44074 0.0
H68 H 0.85895 0.09449 0.44274 0.0
H69 H 0.90267 0.11329 0.40308 0.0
H70 H 0.86458 0.09132 0.3926 0.0
H71 H 0.85171 0.05714 0.43557 0.0
H72 H 0.82083 0.01982 0.42446 0.0
H73 H 0.93917 0.18897 0.42152 0.0
H74 H 0.94415 0.13091 0.40065 0.0
H75 H 0.83558 0.05337 0.38122 0.0
H76 H 0.97539 0.21771 0.4081 0.0
H77 H 0.97944 0.15991 0.38657 0.0
C78 C 0.89288 0.75725 0.48119 0.0
C79 C 0.86989 0.73746 0.4845 0.0
C80 C 0.89817 0.76682 0.46677 0.0
C81 C 0.88051 0.75704 0.45534 0.0
C82 C 0.85761 0.73728 0.45862 0.0
C83 C 0.85242 0.72754 0.47294 0.0
C84 C 0.88574 0.76724 0.44002 0.0
C85 C 0.90749 0.77252 0.43274 0.0
C86 C 0.91163 0.78057 0.41791 0.0
C87 C 0.89385 0.7837 0.41045 0.0
C88 C 0.87226 0.77931 0.41766 0.0
C89 C 0.86848 0.77103 0.43246 0.0
C90 C 0.85371 0.78337 0.4098 0.0
C91 C 0.86086 0.80212 0.39951 0.0
C92 C 0.82861 0.76869 0.41263 0.0
C93 C 0.81133 0.77283 0.40559 0.0
C94 C 0.81857 0.79147 0.39531 0.0
C95 C 0.93433 0.78532 0.41009 0.0
C96 C 0.95728 0.79947 0.41683 0.0
C97 C 0.93319 0.77575 0.39578 0.0
C98 C 0.95448 0.78003 0.38845 0.0
C99 C 0.97759 0.79434 0.39511 0.0
C100 C 0.97863 0.80409 0.4094 0.0
C101 C 0.84351 0.80597 0.39227 0.0
H102 H 0.90674 0.76564 0.48978 0.0
H103 H 0.91593 0.78216 0.46462 0.0
H104 H 0.84374 0.72906 0.45001 0.0
H105 H 0.83474 0.71197 0.47486 0.0
H106 H 0.92082 0.76948 0.43842 0.0
H107 H 0.85223 0.7679 0.43831 0.0
H108 H 0.89694 0.7896 0.39897 0.0
H109 H 0.87994 0.81415 0.39719 0.0
H110 H 0.82218 0.75374 0.42018 0.0
H111 H 0.79219 0.76116 0.40799 0.0
H112 H 0.95875 0.8073 0.42778 0.0
H113 H 0.91574 0.76454 0.39037 0.0
H114 H 0.84963 0.82061 0.38449 0.0
H115 H 0.99596 0.81558 0.41484 0.0
H116 H 0.9527 0.77172 0.37764 0.0
C117 C 0.13961 0.24782 0.53112 0.0
C118 C 0.13211 0.26389 0.52638 0.0
C119 C 0.13418 0.23813 0.54546 0.0
C120 C 0.12126 0.24435 0.55557 0.0
C121 C 0.11355 0.26026 0.5508 0.0
C122 C 0.11885 0.26984 0.53641 0.0
C123 C 0.11617 0.23445 0.57104 0.0
C124 C 0.13371 0.23138 0.57882 0.0
C125 C 0.12901 0.22091 0.59308 0.0
C126 C 0.10654 0.2148 0.59985 0.0
C127 C 0.08906 0.21876 0.59262 0.0
C128 C 0.09392 0.22804 0.57804 0.0
C129 C 0.06596 0.2137 0.60033 0.0
C130 C 0.05433 0.19475 0.61052 0.0
C131 C 0.05558 0.22827 0.59781 0.0
C132 C 0.03431 0.22399 0.60514 0.0
C133 C 0.02303 0.20532 0.61543 0.0
C134 C 0.14761 0.21647 0.60073 0.0
C135 C 0.16452 0.21314 0.59238 0.0
C136 C 0.14882 0.2155 0.6164 0.0
C137 C 0.16608 0.21119 0.62338 0.0
C138 C 0.18348 0.20863 0.61501 0.0
C139 C 0.1824 0.20987 0.59936 0.0
C140 C 0.03329 0.19078 0.61808 0.0
H141 H 0.15011 0.24299 0.52385 0.0
H142 H 0.14012 0.22566 0.54859 0.0
H143 H 0.10375 0.26567 0.55827 0.0
H144 H 0.11247 0.2819 0.53314 0.0
H145 H 0.15133 0.23771 0.57376 0.0
H146 H 0.08016 0.2299 0.572 0.0
H147 H 0.10262 0.20708 0.61085 0.0
H148 H 0.0613 0.18277 0.61261 0.0
H149 H 0.06412 0.24338 0.59037 0.0
H150 H 0.02696 0.23567 0.60301 0.0
H151 H 0.16411 0.21294 0.58032 0.0
H152 H 0.13667 0.21832 0.62347 0.0
H153 H 0.02484 0.17611 0.62586 0.0
H154 H 0.19551 0.20862 0.59229 0.0
H155 H 0.16553 0.20983 0.6354 0.0
C156 C 0.70629 0.84524 0.53928 0.0
C157 C 0.71764 0.85984 0.52685 0.0
C158 C 0.718 0.85067 0.55318 0.0
C159 C 0.74103 0.87108 0.55504 0.0
C160 C 0.75238 0.88578 0.54276 0.0
C161 C 0.74096 0.88009 0.52879 0.0
C162 C 0.75331 0.87721 0.56976 0.0
C163 C 0.75845 0.86106 0.57703 0.0
C164 C 0.77133 0.86742 0.59062 0.0
C165 C 0.77849 0.88989 0.59707 0.0
C166 C 0.77265 0.90595 0.5902 0.0
C167 C 0.76028 0.89949 0.5764 0.0
C168 C 0.77889 0.9291 0.59759 0.0
C169 C 0.77743 0.93056 0.61319 0.0
C170 C 0.78583 0.94981 0.58915 0.0
C171 C 0.79077 0.97125 0.59608 0.0
C172 C 0.78924 0.97267 0.61167 0.0
C173 C 0.77745 0.85068 0.59809 0.0
C174 C 0.75937 0.82679 0.60048 0.0
C175 C 0.80138 0.85857 0.60302 0.0
C176 C 0.80715 0.84285 0.61016 0.0
C177 C 0.78902 0.81904 0.61271 0.0
C178 C 0.76507 0.81116 0.60783 0.0
C179 C 0.78272 0.95208 0.62013 0.0
H180 H 0.68819 0.82977 0.53836 0.0
H181 H 0.70887 0.83919 0.56257 0.0
H182 H 0.77029 0.9015 0.54394 0.0
H183 H 0.75062 0.89148 0.51948 0.0
H184 H 0.75314 0.84388 0.57187 0.0
H185 H 0.75541 0.91145 0.57093 0.0
H186 H 0.7885 0.89475 0.60753 0.0
H187 H 0.7718 0.91497 0.62008 0.0
H188 H 0.78752 0.94952 0.57714 0.0
H189 H 0.79545 0.98662 0.58916 0.0
H190 H 0.74077 0.82032 0.59685 0.0
H191 H 0.81566 0.87687 0.60122 0.0
H192 H 0.78173 0.95253 0.63218 0.0
H193 H 0.75081 0.79284 0.60958 0.0
H194 H 0.82573 0.84937 0.61387 0.0
C195 C 0.11335 0.85252 0.53062 0.0
C196 C 0.1361 0.85446 0.52789 0.0
C197 C 0.10777 0.85749 0.54481 0.0
C198 C 0.12499 0.86492 0.55647 0.0
C199 C 0.14763 0.86662 0.55377 0.0
C200 C 0.15305 0.86123 0.53965 0.0
C201 C 0.11977 0.87211 0.57114 0.0
C202 C 0.09789 0.85717 0.5786 0.0
C203 C 0.09205 0.86453 0.5921 0.0
C204 C 0.10868 0.88749 0.59782 0.0
C205 C 0.13106 0.90213 0.5908 0.0
C206 C 0.13648 0.8943 0.5775 0.0
C207 C 0.14899 0.92554 0.59746 0.0
C208 C 0.14202 0.9423 0.60159 0.0
C209 C 0.17322 0.93117 0.59984 0.0
C210 C 0.19011 0.95302 0.60638 0.0
C211 C 0.1832 0.96983 0.61043 0.0
C212 C 0.06905 0.84818 0.60033 0.0
C213 C 0.04834 0.83029 0.59277 0.0
C214 C 0.06768 0.84991 0.61595 0.0
C215 C 0.04642 0.83449 0.62366 0.0
C216 C 0.02602 0.81606 0.61615 0.0
C217 C 0.02744 0.81425 0.60055 0.0
C218 C 0.15904 0.96435 0.60789 0.0
H219 H 0.09993 0.84722 0.52175 0.0
H220 H 0.09025 0.85621 0.54657 0.0
H221 H 0.16119 0.87224 0.56258 0.0
H222 H 0.17076 0.86299 0.53782 0.0
H223 H 0.08585 0.83959 0.57393 0.0
H224 H 0.15345 0.90587 0.57184 0.0
H225 H 0.10454 0.89409 0.60788 0.0
H226 H 0.12347 0.93841 0.59981 0.0
H227 H 0.17899 0.91849 0.59682 0.0
H228 H 0.20866 0.95689 0.60816 0.0
H229 H 0.04806 0.82845 0.58076 0.0
H230 H 0.08313 0.86293 0.62243 0.0
H231 H 0.15325 0.97698 0.611 0.0
H232 H 0.0126 0.80017 0.5942 0.0
H233 H 0.0462 0.83715 0.63557 0.0
C234 C 0.94237 0.49138 0.81891 0.0
C235 C 0.95832 0.48343 0.82361 0.0
C236 C 0.93103 0.48487 0.80491 0.0
C237 C 0.9356 0.47054 0.79503 0.0
C238 C 0.95171 0.46275 0.79967 0.0
C239 C 0.96274 0.46893 0.81379 0.0
C240 C 0.92336 0.46358 0.78007 0.0
C241 C 0.91832 0.4794 0.77209 0.0
C242 C 0.90584 0.47264 0.75832 0.0
C243 C 0.89868 0.44982 0.75243 0.0
C244 C 0.90419 0.4341 0.75993 0.0
C245 C 0.91637 0.44098 0.77374 0.0
C246 C 0.89752 0.41062 0.75309 0.0
C247 C 0.87365 0.39529 0.7479 0.0
C248 C 0.91528 0.40393 0.75107 0.0
C249 C 0.90942 0.38256 0.74365 0.0
C250 C 0.8856 0.36732 0.73837 0.0
C251 C 0.90017 0.48929 0.75006 0.0
C252 C 0.89317 0.50395 0.75773 0.0
C253 C 0.90125 0.49032 0.73439 0.0
C254 C 0.89509 0.50525 0.72659 0.0
C255 C 0.88795 0.51981 0.73426 0.0
C256 C 0.88725 0.51908 0.74994 0.0
C257 C 0.8677 0.37372 0.74072 0.0
H258 H 0.93877 0.50291 0.82598 0.0
H259 H 0.91846 0.49094 0.80192 0.0
H260 H 0.95604 0.45199 0.79236 0.0
H261 H 0.97461 0.46214 0.81701 0.0
H262 H 0.92457 0.49723 0.77646 0.0
H263 H 0.91977 0.42837 0.77968 0.0
H264 H 0.88887 0.44421 0.7419 0.0
H265 H 0.85964 0.40005 0.74937 0.0
H266 H 0.93384 0.41553 0.75488 0.0
H267 H 0.9235 0.37792 0.74204 0.0
H268 H 0.89187 0.50349 0.76978 0.0
H269 H 0.90693 0.47961 0.72808 0.0
H270 H 0.84923 0.3623 0.7367 0.0
H271 H 0.88223 0.53031 0.75626 0.0
H272 H 0.89562 0.50511 0.71452 0.0
C273 C 0.55546 0.49352 0.81036 0.0
C274 C 0.54285 0.47454 0.82031 0.0
C275 C 0.56098 0.48921 0.79596 0.0
C276 C 0.55425 0.46583 0.79123 0.0
C277 C 0.54249 0.44703 0.80147 0.0
C278 C 0.5367 0.4513 0.81577 0.0
C279 C 0.55827 0.46088 0.7755 0.0
C280 C 0.57926 0.47716 0.76763 0.0
C281 C 0.58241 0.47308 0.75252 0.0
C282 C 0.56413 0.45228 0.74537 0.0
C283 C 0.54356 0.43555 0.75319 0.0
C284 C 0.54068 0.43996 0.76815 0.0
C285 C 0.52513 0.41314 0.7458 0.0
C286 C 0.51242 0.41374 0.73314 0.0
C287 C 0.5202 0.39097 0.75146 0.0
C288 C 0.50297 0.36969 0.7445 0.0
C289 C 0.48981 0.37007 0.7319 0.0
C290 C 0.60473 0.49035 0.74422 0.0
C291 C 0.61592 0.51515 0.74699 0.0
C292 C 0.61502 0.48219 0.73338 0.0
C293 C 0.63567 0.49834 0.72543 0.0
C294 C 0.64682 0.52301 0.72831 0.0
C295 C 0.63681 0.53125 0.7392 0.0
C296 C 0.49475 0.39244 0.72636 0.0
H297 H 0.56027 0.51159 0.81353 0.0
H298 H 0.56976 0.50412 0.78838 0.0
H299 H 0.53754 0.42889 0.79841 0.0
H300 H 0.52729 0.43639 0.82329 0.0
H301 H 0.59339 0.49279 0.7734 0.0
H302 H 0.52426 0.42725 0.77388 0.0
H303 H 0.56586 0.44889 0.73372 0.0
H304 H 0.51587 0.4307 0.72867 0.0
H305 H 0.53 0.39014 0.76115 0.0
H306 H 0.50025 0.35297 0.74893 0.0
H307 H 0.60837 0.52223 0.75501 0.0
H308 H 0.60734 0.46326 0.73112 0.0
H309 H 0.48477 0.39359 0.71688 0.0
H310 H 0.64493 0.55023 0.74153 0.0
H311 H 0.6432 0.49151 0.71721 0.0
C312 C 0.55866 0.08474 0.81402 0.0
C313 C 0.53456 0.07124 0.81905 0.0
C314 C 0.56359 0.09474 0.79973 0.0
C315 C 0.54451 0.09107 0.78995 0.0
C316 C 0.52035 0.07721 0.79503 0.0
C317 C 0.51548 0.06766 0.80942 0.0
C318 C 0.54975 0.10177 0.77463 0.0
C319 C 0.57003 0.1046 0.76651 0.0
C320 C 0.57583 0.11557 0.75236 0.0
C321 C 0.55974 0.12235 0.74603 0.0
C322 C 0.53865 0.11866 0.75357 0.0
C323 C 0.53441 0.10914 0.76805 0.0
C324 C 0.52061 0.12406 0.74622 0.0
C325 C 0.52811 0.14316 0.73617 0.0
C326 C 0.49544 0.10955 0.74891 0.0
C327 C 0.47839 0.11396 0.7418 0.0
C328 C 0.48593 0.13271 0.73159 0.0
C329 C 0.59861 0.11995 0.74432 0.0
C330 C 0.61911 0.12272 0.75228 0.0
C331 C 0.60038 0.12174 0.72864 0.0
C332 C 0.62189 0.12662 0.7213 0.0
C333 C 0.64222 0.12895 0.72926 0.0
C334 C 0.64021 0.12661 0.7449 0.0
C335 C 0.51097 0.14727 0.72884 0.0
H336 H 0.57372 0.0879 0.82125 0.0
H337 H 0.58245 0.10564 0.79647 0.0
H338 H 0.50505 0.07339 0.78784 0.0
H339 H 0.49671 0.05705 0.81295 0.0
H340 H 0.58104 0.09772 0.77116 0.0
H341 H 0.5192 0.10778 0.77431 0.0
H342 H 0.56346 0.1304 0.73514 0.0
H343 H 0.54724 0.15509 0.73397 0.0
H344 H 0.48872 0.09433 0.75626 0.0
H345 H 0.45919 0.10225 0.744 0.0
H346 H 0.61918 0.12213 0.76433 0.0
H347 H 0.58517 0.11925 0.72184 0.0
H348 H 0.51731 0.16199 0.72111 0.0
H349 H 0.65485 0.12756 0.75164 0.0
H350 H 0.62238 0.12869 0.70933 0.0
C351 C 0.79436 0.57258 0.8616 0.0
C352 C 0.79593 0.59482 0.85894 0.0
C353 C 0.78899 0.56243 0.87582 0.0
C354 C 0.78448 0.57393 0.88769 0.0
C355 C 0.7855 0.59582 0.8851 0.0
C356 C 0.79142 0.60628 0.87096 0.0
C357 C 0.77917 0.56324 0.90281 0.0
C358 C 0.79567 0.55785 0.9098 0.0
C359 C 0.79087 0.54716 0.92399 0.0
C360 C 0.76899 0.54221 0.93112 0.0
C361 C 0.75239 0.54801 0.92447 0.0
C362 C 0.75774 0.55846 0.91022 0.0
C363 C 0.72968 0.54339 0.93247 0.0
C364 C 0.71726 0.52354 0.94194 0.0
C365 C 0.72036 0.55905 0.93089 0.0
C366 C 0.69933 0.55494 0.93846 0.0
C367 C 0.68729 0.53535 0.94804 0.0
C368 C 0.80878 0.54147 0.93136 0.0
C369 C 0.82483 0.53711 0.92282 0.0
C370 C 0.81025 0.54053 0.94702 0.0
C371 C 0.82686 0.53517 0.95382 0.0
C372 C 0.84342 0.53155 0.94529 0.0
C373 C 0.84213 0.53278 0.92964 0.0
C374 C 0.69651 0.51974 0.94974 0.0
H375 H 0.79708 0.5628 0.85268 0.0
H376 H 0.7881 0.5454 0.87751 0.0
H377 H 0.78229 0.60514 0.89412 0.0
H378 H 0.79291 0.62361 0.86959 0.0
H379 H 0.81257 0.56268 0.90416 0.0
H380 H 0.74498 0.56241 0.90465 0.0
H381 H 0.76481 0.53393 0.94195 0.0
H382 H 0.72337 0.5107 0.94325 0.0
H383 H 0.72952 0.5748 0.924 0.0
H384 H 0.69274 0.5674 0.93706 0.0
H385 H 0.8242 0.53695 0.91077 0.0
H386 H 0.79884 0.5442 0.95422 0.0
H387 H 0.68742 0.50435 0.95695 0.0
H388 H 0.85465 0.53071 0.92247 0.0
H389 H 0.82648 0.53387 0.96584 0.0
C390 C 0.38194 0.17226 0.86742 0.0
C391 C 0.38623 0.19066 0.85747 0.0
C392 C 0.39356 0.17766 0.88135 0.0
C393 C 0.40987 0.20155 0.88551 0.0
C394 C 0.41462 0.21983 0.87532 0.0
C395 C 0.40282 0.21445 0.8615 0.0
C396 C 0.42149 0.20758 0.90054 0.0
C397 C 0.42976 0.19329 0.90721 0.0
C398 C 0.44067 0.19899 0.92145 0.0
C399 C 0.44383 0.21967 0.92882 0.0
C400 C 0.43592 0.23434 0.92226 0.0
C401 C 0.42435 0.22784 0.90826 0.0
C402 C 0.44009 0.25667 0.92985 0.0
C403 C 0.43831 0.25774 0.94544 0.0
C404 C 0.44626 0.27729 0.9215 0.0
C405 C 0.45048 0.29838 0.92853 0.0
C406 C 0.44911 0.29959 0.94413 0.0
C407 C 0.44844 0.18321 0.92874 0.0
C408 C 0.43422 0.15816 0.92722 0.0
C409 C 0.46968 0.19296 0.93765 0.0
C410 C 0.47617 0.17802 0.94513 0.0
C411 C 0.46179 0.15314 0.94362 0.0
C412 C 0.44094 0.14328 0.93452 0.0
C413 C 0.44293 0.27899 0.9525 0.0
H414 H 0.36911 0.15377 0.86458 0.0
H415 H 0.38929 0.16317 0.88899 0.0
H416 H 0.42749 0.23837 0.87801 0.0
H417 H 0.40675 0.22893 0.85391 0.0
H418 H 0.42813 0.17796 0.90116 0.0
H419 H 0.41718 0.23842 0.90343 0.0
H420 H 0.45247 0.22437 0.93971 0.0
H421 H 0.43326 0.24215 0.95222 0.0
H422 H 0.44816 0.27729 0.9095 0.0
H423 H 0.45478 0.31374 0.92168 0.0
H424 H 0.41756 0.14999 0.92067 0.0
H425 H 0.48134 0.21214 0.93886 0.0
H426 H 0.44198 0.2793 0.96454 0.0
H427 H 0.4296 0.12404 0.93334 0.0
H428 H 0.4924 0.18586 0.95208 0.0
C429 C 0.77568 0.18487 0.86456 0.0
C430 C 0.79764 0.18531 0.86148 0.0
C431 C 0.77073 0.18953 0.87903 0.0
C432 C 0.78789 0.19517 0.89055 0.0
C433 C 0.80977 0.1955 0.88745 0.0
C434 C 0.81452 0.19047 0.87309 0.0
C435 C 0.78348 0.20128 0.90575 0.0
C436 C 0.76186 0.1861 0.91334 0.0
C437 C 0.75863 0.19122 0.92814 0.0
C438 C 0.77701 0.21198 0.9352 0.0
C439 C 0.7984 0.22784 0.92758 0.0
C440 C 0.80145 0.22219 0.91286 0.0
C441 C 0.81736 0.25044 0.93482 0.0
C442 C 0.8107 0.26363 0.94432 0.0
C443 C 0.84226 0.2594 0.93198 0.0
C444 C 0.85994 0.28124 0.93813 0.0
C445 C 0.85327 0.29456 0.94749 0.0
C446 C 0.73626 0.17472 0.93639 0.0
C447 C 0.71316 0.16728 0.93022 0.0
C448 C 0.73793 0.16646 0.95054 0.0
C449 C 0.71688 0.15081 0.95833 0.0
C450 C 0.69363 0.14334 0.95224 0.0
C451 C 0.69208 0.15195 0.93811 0.0
C452 C 0.82842 0.28529 0.95065 0.0
H453 H 0.76235 0.18086 0.85579 0.0
H454 H 0.75377 0.18925 0.88114 0.0
H455 H 0.82322 0.19966 0.89616 0.0
H456 H 0.83167 0.19111 0.87099 0.0
H457 H 0.74796 0.16987 0.90794 0.0
H458 H 0.81765 0.2343 0.90672 0.0
H459 H 0.77453 0.21574 0.94665 0.0
H460 H 0.79173 0.2575 0.94666 0.0
H461 H 0.84817 0.24959 0.92494 0.0
H462 H 0.87884 0.28786 0.93529 0.0
H463 H 0.71141 0.17364 0.91939 0.0
H464 H 0.75557 0.17178 0.95547 0.0
H465 H 0.82257 0.29479 0.95801 0.0
H466 H 0.67457 0.14702 0.93315 0.0
H467 H 0.7189 0.14424 0.96901 0.0
C468 C 0.6046 0.81392 0.14896 0.0
C469 C 0.62599 0.81296 0.1514 0.0
C470 C 0.59343 0.80849 0.13491 0.0
C471 C 0.60326 0.80164 0.12312 0.0
C472 C 0.62475 0.80084 0.12553 0.0
C473 C 0.63614 0.80665 0.13952 0.0
C474 C 0.59056 0.79453 0.10851 0.0
C475 C 0.58288 0.80907 0.10152 0.0
C476 C 0.56983 0.80193 0.08797 0.0
C477 C 0.56415 0.77974 0.08163 0.0
C478 C 0.572 0.76521 0.0884 0.0
C479 C 0.58541 0.77281 0.10176 0.0
C480 C 0.56585 0.74193 0.08157 0.0
C481 C 0.5417 0.72557 0.07739 0.0
C482 C 0.5841 0.73605 0.07903 0.0
C483 C 0.57833 0.7143 0.07221 0.0
C484 C 0.55416 0.69793 0.06805 0.0
C485 C 0.56234 0.81766 0.08033 0.0
C486 C 0.55451 0.83116 0.08857 0.0
C487 C 0.56312 0.8194 0.06469 0.0
C488 C 0.5562 0.83419 0.05747 0.0
C489 C 0.54861 0.84788 0.06571 0.0
C490 C 0.54785 0.84618 0.08136 0.0
C491 C 0.53587 0.70368 0.07078 0.0
H492 H 0.59651 0.81886 0.15793 0.0
H493 H 0.57677 0.80907 0.13335 0.0
H494 H 0.63272 0.7957 0.11659 0.0
H495 H 0.65255 0.80566 0.14117 0.0
H496 H 0.58759 0.82619 0.10653 0.0
H497 H 0.59106 0.76138 0.10717 0.0
H498 H 0.55364 0.77369 0.07137 0.0
H499 H 0.52731 0.72967 0.07932 0.0
H500 H 0.60287 0.74845 0.08211 0.0
H501 H 0.5927 0.71017 0.07028 0.0
H502 H 0.55337 0.83005 0.10061 0.0
H503 H 0.56939 0.80956 0.05797 0.0
H504 H 0.51713 0.69138 0.0676 0.0
H505 H 0.54242 0.8567 0.08808 0.0
H506 H 0.55671 0.83479 0.0454 0.0
C507 C 0.20862 0.82563 0.13969 0.0
C508 C 0.20473 0.80956 0.15135 0.0
C509 C 0.21403 0.82131 0.12528 0.0
C510 C 0.21513 0.80058 0.12209 0.0
C511 C 0.21124 0.78445 0.1336 0.0
C512 C 0.20639 0.78902 0.1481 0.0
C513 C 0.21969 0.79551 0.10666 0.0
C514 C 0.24068 0.81214 0.09906 0.0
C515 C 0.24489 0.8077 0.08427 0.0
C516 C 0.22741 0.78644 0.07714 0.0
C517 C 0.20634 0.76959 0.0846 0.0
C518 C 0.20275 0.77421 0.09944 0.0
C519 C 0.18812 0.74723 0.07682 0.0
C520 C 0.18187 0.74771 0.06181 0.0
C521 C 0.17715 0.72519 0.08425 0.0
C522 C 0.16055 0.70411 0.0768 0.0
C523 C 0.15456 0.70455 0.06173 0.0
C524 C 0.26745 0.82507 0.07624 0.0
C525 C 0.27781 0.8499 0.07853 0.0
C526 C 0.27875 0.81696 0.06608 0.0
C527 C 0.29953 0.83319 0.05829 0.0
C528 C 0.30981 0.85789 0.06069 0.0
C529 C 0.29887 0.8661 0.07094 0.0
C530 C 0.16534 0.72664 0.05435 0.0
H531 H 0.207 0.84136 0.14155 0.0
H532 H 0.21672 0.83388 0.11653 0.0
H533 H 0.21218 0.76841 0.13139 0.0
H534 H 0.20408 0.77644 0.15675 0.0
H535 H 0.25396 0.82825 0.10485 0.0
H536 H 0.18638 0.76159 0.10526 0.0
H537 H 0.2302 0.78293 0.0657 0.0
H538 H 0.1897 0.76442 0.05581 0.0
H539 H 0.18169 0.72414 0.09577 0.0
H540 H 0.15234 0.68745 0.08288 0.0
H541 H 0.26948 0.85691 0.08603 0.0
H542 H 0.27174 0.79803 0.06424 0.0
H543 H 0.16131 0.72763 0.04272 0.0
H544 H 0.30639 0.88511 0.07288 0.0
H545 H 0.30783 0.82643 0.05058 0.0
C546 C 0.22156 0.41458 0.14544 0.0
C547 C 0.19739 0.39914 0.15 0.0
C548 C 0.22662 0.42416 0.13103 0.0
C549 C 0.20773 0.41828 0.1206 0.0
C550 C 0.18361 0.40269 0.12514 0.0
C551 C 0.17852 0.39354 0.13962 0.0
C552 C 0.213 0.4282 0.10508 0.0
C553 C 0.2346 0.43296 0.0977 0.0
C554 C 0.23922 0.44164 0.083 0.0
C555 C 0.22189 0.44545 0.07558 0.0
C556 C 0.20029 0.44103 0.0827 0.0
C557 C 0.19618 0.43265 0.09745 0.0
C558 C 0.18193 0.44508 0.07476 0.0
C559 C 0.18928 0.46565 0.06612 0.0
C560 C 0.15688 0.42839 0.07578 0.0
C561 C 0.13963 0.4321 0.06829 0.0
C562 C 0.14695 0.45268 0.05962 0.0
C563 C 0.2621 0.44658 0.07534 0.0
C564 C 0.28487 0.46058 0.08232 0.0
C565 C 0.26135 0.43747 0.06095 0.0
C566 C 0.28285 0.44204 0.05376 0.0
C567 C 0.30579 0.45623 0.06066 0.0
C568 C 0.30643 0.46553 0.07504 0.0
C569 C 0.17203 0.46944 0.0587 0.0
H570 H 0.23672 0.41915 0.15292 0.0
H571 H 0.24542 0.43635 0.12817 0.0
H572 H 0.16846 0.39722 0.11749 0.0
H573 H 0.15963 0.38214 0.14263 0.0
H574 H 0.24761 0.42925 0.10315 0.0
H575 H 0.17996 0.43008 0.10307 0.0
H576 H 0.22525 0.45188 0.06421 0.0
H577 H 0.20838 0.47905 0.06527 0.0
H578 H 0.1506 0.41219 0.08218 0.0
H579 H 0.12056 0.4186 0.06909 0.0
H580 H 0.28604 0.46807 0.09335 0.0
H581 H 0.24404 0.42642 0.05534 0.0
H582 H 0.17839 0.48572 0.05238 0.0
H583 H 0.32361 0.47692 0.08067 0.0
H584 H 0.28137 0.43406 0.04287 0.0
C585 C 0.46663 0.90821 0.19751 0.0
C586 C 0.46761 0.9301 0.19445 0.0
C587 C 0.46197 0.89879 0.21196 0.0
C588 C 0.45759 0.91069 0.22366 0.0
C589 C 0.45817 0.93228 0.22067 0.0
C590 C 0.46338 0.942 0.20633 0.0
C591 C 0.45293 0.90099 0.23906 0.0
C592 C 0.46967 0.89603 0.24618 0.0
C593 C 0.46635 0.88851 0.26111 0.0
C594 C 0.4456 0.88539 0.26878 0.0
C595 C 0.42804 0.8894 0.2617 0.0
C596 C 0.43215 0.89746 0.24683 0.0
C597 C 0.40546 0.88506 0.26977 0.0
C598 C 0.39419 0.86648 0.28023 0.0
C599 C 0.39472 0.89923 0.26696 0.0
C600 C 0.37328 0.89474 0.27419 0.0
C601 C 0.36217 0.87624 0.28462 0.0
C602 C 0.48486 0.88446 0.26879 0.0
C603 C 0.49374 0.87069 0.26198 0.0
C604 C 0.49398 0.89457 0.28293 0.0
C605 C 0.51175 0.89121 0.29003 0.0
C606 C 0.52064 0.8773 0.2833 0.0
C607 C 0.51124 0.86699 0.26918 0.0
C608 C 0.37297 0.86227 0.28765 0.0
H609 H 0.46925 0.89814 0.18873 0.0
H610 H 0.46148 0.88202 0.21396 0.0
H611 H 0.45516 0.94198 0.22954 0.0
H612 H 0.46454 0.95913 0.20469 0.0
H613 H 0.48583 0.89895 0.24028 0.0
H614 H 0.41895 0.90056 0.24107 0.0
H615 H 0.44322 0.87982 0.28032 0.0
H616 H 0.40146 0.8548 0.28255 0.0
H617 H 0.40298 0.91404 0.25929 0.0
H618 H 0.36555 0.90602 0.27178 0.0
H619 H 0.48688 0.86247 0.25115 0.0
H620 H 0.48773 0.90554 0.28838 0.0
H621 H 0.3647 0.84775 0.29554 0.0
H622 H 0.51716 0.8558 0.2637 0.0
H623 H 0.51879 0.89991 0.30072 0.0
C624 C 0.0614 0.5085 0.1977 0.0
C625 C 0.06664 0.52692 0.18756 0.0
C626 C 0.06912 0.51385 0.21254 0.0
C627 C 0.08259 0.53776 0.21754 0.0
C628 C 0.08774 0.55617 0.20733 0.0
C629 C 0.07968 0.55078 0.19253 0.0
C630 C 0.09148 0.54347 0.23327 0.0
C631 C 0.09958 0.5296 0.24072 0.0
C632 C 0.10787 0.53467 0.25559 0.0
C633 C 0.10888 0.55457 0.26279 0.0
C634 C 0.10145 0.56907 0.25546 0.0
C635 C 0.09225 0.563 0.24081 0.0
C636 C 0.10424 0.59106 0.26287 0.0
C637 C 0.10092 0.59175 0.27834 0.0
C638 C 0.11137 0.61195 0.2546 0.0
C639 C 0.11552 0.63305 0.26162 0.0
C640 C 0.11311 0.634 0.27717 0.0
C641 C 0.11537 0.51915 0.26359 0.0
C642 C 0.10306 0.49427 0.26092 0.0
C643 C 0.13454 0.52891 0.27414 0.0
C644 C 0.14086 0.51414 0.282 0.0
C645 C 0.12856 0.48942 0.27921 0.0
C646 C 0.10977 0.47962 0.26854 0.0
C647 C 0.10551 0.61298 0.28541 0.0
H648 H 0.0511 0.48993 0.19416 0.0
H649 H 0.06435 0.49918 0.22012 0.0
H650 H 0.09841 0.57479 0.21066 0.0
H651 H 0.08413 0.5653 0.18487 0.0
H652 H 0.09994 0.5151 0.23481 0.0
H653 H 0.08543 0.57339 0.23532 0.0
H654 H 0.11566 0.5589 0.27414 0.0
H655 H 0.09497 0.57594 0.28507 0.0
H656 H 0.11441 0.61228 0.2427 0.0
H657 H 0.12082 0.64868 0.25483 0.0
H658 H 0.08791 0.48596 0.25314 0.0
H659 H 0.14484 0.54799 0.2763 0.0
H660 H 0.10364 0.613 0.29741 0.0
H661 H 0.09992 0.46052 0.26634 0.0
H662 H 0.15556 0.52204 0.29012 0.0
C663 C 0.44387 0.51213 0.1993 0.0
C664 C 0.46799 0.52262 0.19429 0.0
C665 C 0.43882 0.51757 0.21352 0.0
C666 C 0.45785 0.5333 0.22314 0.0
C667 C 0.48204 0.54331 0.21813 0.0
C668 C 0.48701 0.53822 0.20383 0.0
C669 C 0.45256 0.53962 0.23821 0.0
C670 C 0.43292 0.52267 0.24669 0.0
C671 C 0.42719 0.52877 0.26065 0.0
C672 C 0.44264 0.55198 0.26644 0.0
C673 C 0.46304 0.56893 0.25844 0.0
C674 C 0.46722 0.56275 0.24414 0.0
C675 C 0.48043 0.59286 0.2651 0.0
C676 C 0.47235 0.60479 0.27473 0.0
C677 C 0.50557 0.60376 0.26211 0.0
C678 C 0.52206 0.62594 0.26843 0.0
C679 C 0.51391 0.63748 0.27816 0.0
C680 C 0.405 0.51104 0.26902 0.0
C681 C 0.38434 0.4933 0.26134 0.0
C682 C 0.4039 0.51187 0.28471 0.0
C683 C 0.38272 0.496 0.29235 0.0
C684 C 0.36216 0.47812 0.28466 0.0
C685 C 0.36355 0.47686 0.26902 0.0
C686 C 0.48899 0.62676 0.28132 0.0
H687 H 0.42889 0.50012 0.19208 0.0
H688 H 0.41996 0.50979 0.21682 0.0
H689 H 0.49725 0.555 0.22529 0.0
H690 H 0.5058 0.54627 0.20027 0.0
H691 H 0.42232 0.50454 0.24247 0.0
H692 H 0.48185 0.57619 0.2375 0.0
H693 H 0.4389 0.55695 0.27722 0.0
H694 H 0.45318 0.59732 0.27712 0.0
H695 H 0.51269 0.59501 0.25508 0.0
H696 H 0.54128 0.63387 0.26596 0.0
H697 H 0.38391 0.49209 0.24929 0.0
H698 H 0.41939 0.52472 0.29124 0.0
H699 H 0.48238 0.63552 0.28876 0.0
H700 H 0.34863 0.4631 0.26255 0.0
H701 H 0.38257 0.49807 0.30433 0.0
Gd702 Gd 0.51211 0.0175 0.02443 0.0
Gd703 Gd 0.49156 0.98296 0.98869 0.0
C704 C 0.41734 0.91503 0.98399 0.0
C705 C 0.42863 0.88439 0.98088 0.0
C706 C 0.45992 0.92622 0.98356 0.0
C707 C 0.44222 0.93258 0.985 0.0
C708 C 0.45338 0.90213 0.98113 0.0
C709 C 0.41063 0.89084 0.98231 0.0
C710 C 0.40001 0.92241 0.98423 0.0
C711 C 0.4077 0.94678 0.98509 0.0
N712 N 0.44938 0.95611 0.98654 0.0
C713 C 0.43261 0.9635 0.98604 0.0
H714 H 0.43827 0.98226 0.98675 0.0
C715 C 0.50167 0.93886 0.98048 0.0
N716 N 0.4836 0.94384 0.98373 0.0
C717 C 0.49612 0.91522 0.97806 0.0
C718 C 0.47189 0.89672 0.97859 0.0
H719 H 0.52044 0.95306 0.98017 0.0
H720 H 0.3916 0.87706 0.98171 0.0
H721 H 0.56483 0.01709 0.02701 0.0
H722 H 0.38073 0.90952 0.98333 0.0
H723 H 0.39446 0.9527 0.98505 0.0
H724 H 0.42322 0.86574 0.97919 0.0
H725 H 0.4841 0.04875 0.03156 0.0
H726 H 0.6233 0.08947 0.02976 0.0
H727 H 0.60878 0.04608 0.02872 0.0
H728 H 0.58227 0.13484 0.03192 0.0
H729 H 0.51053 0.91127 0.97584 0.0
H730 H 0.46763 0.87843 0.97669 0.0
H731 H 0.61328 0.12257 0.0304 0.0
H732 H 0.49484 0.09104 0.0346 0.0
N733 N 0.55439 0.04374 0.02671 0.0
C734 C 0.60395 0.07682 0.02891 0.0
C735 C 0.59582 0.05234 0.02842 0.0
C736 C 0.58698 0.08466 0.02876 0.0
C737 C 0.56198 0.06742 0.02785 0.0
C738 C 0.57082 0.03594 0.02748 0.0
N739 N 0.5208 0.05704 0.02864 0.0
C740 C 0.54462 0.07431 0.0288 0.0
C741 C 0.50902 0.08659 0.03293 0.0
C742 C 0.53342 0.10469 0.03237 0.0
C743 C 0.50301 0.06268 0.03127 0.0
C744 C 0.55162 0.09864 0.03054 0.0
H745 H 0.53804 0.12319 0.0337 0.0
O746 O 0.49205 0.01104 0.04507 0.0
O747 O 0.48262 0.98685 0.01205 0.0
O748 O 0.48124 0.01201 0.99061 0.0
O749 O 0.50945 0.04095 0.00703 0.0
O750 O 0.47196 0.00542 0.02593 0.0
O751 O 0.52446 0.00789 0.04456 0.0
O752 O 0.51166 0.99057 0.96797 0.0
O753 O 0.521 0.01335 1.00117 0.0
O754 O 0.5219 0.9881 0.02279 0.0
O755 O 0.49496 0.95936 0.00574 0.0
O756 O 0.53183 0.99534 0.98703 0.0
O757 O 0.47867 0.99262 0.96881 0.0
C758 C 0.46427 0.98727 0.01702 0.0
C759 C 0.5765 0.11602 0.03074 0.0
C760 C 0.59415 0.10903 0.02988 0.0
C761 C 0.50717 0.00715 0.05278 0.0
C762 C 0.51426 0.01892 0.06754 0.0
C763 C 0.52573 0.04388 0.06879 0.0
C764 C 0.50852 0.005 0.08054 0.0
C765 C 0.51369 0.01588 0.09485 0.0
C766 C 0.53096 0.05483 0.08282 0.0
C767 C 0.52483 0.04104 0.09572 0.0
C768 C 0.49346 0.03423 0.99595 0.0
C769 C 0.53946 0.01322 0.99616 0.0
C770 C 0.49612 0.99404 0.96043 0.0
C771 C 0.48907 0.98238 0.94563 0.0
C772 C 0.47722 0.95741 0.94435 0.0
C773 C 0.4951 0.99636 0.93264 0.0
C774 C 0.48971 0.98547 0.91833 0.0
C775 C 0.47184 0.94647 0.93032 0.0
C776 C 0.47817 0.9603 0.91743 0.0
C777 C 0.51037 0.96603 0.01717 0.0
H778 H 0.53031 0.05486 0.05895 0.0
H779 H 0.50004 0.98574 0.07942 0.0
H780 H 0.53952 0.07411 0.08372 0.0
H781 H 0.52848 0.05019 0.10639 0.0
H782 H 0.4724 0.94638 0.95417 0.0
H783 H 0.50391 0.01565 0.93376 0.0
H784 H 0.46296 0.92717 0.92941 0.0
H785 H 0.47433 0.95115 0.90675 0.0
Gd786 Gd 0.98861 0.49641 0.01603 0.0
Gd787 Gd 0.02398 0.51152 0.98183 0.0
C788 C 0.04318 0.46469 0.95287 0.0
C789 C 0.07959 0.46949 0.96515 0.0
C790 C 0.0589 0.48983 0.9749 0.0
C791 C 0.04159 0.47971 0.96377 0.0
C792 C 0.07871 0.48565 0.97535 0.0
C793 C 0.06177 0.45893 0.95395 0.0
C794 C 0.02685 0.45698 0.94082 0.0
C795 C 0.01045 0.46534 0.93945 0.0
N796 N 0.02448 0.48637 0.96282 0.0
C797 C 0.00992 0.48058 0.95042 0.0
H798 H 0.99733 0.48712 0.94919 0.0
C799 C 0.07678 0.51947 0.9937 0.0
N800 N 0.0577 0.5057 0.98433 0.0
C801 C 0.09691 0.51611 0.99451 0.0
C802 C 0.09774 0.49892 0.98542 0.0
H803 H 0.07654 0.53296 1.00072 0.0
H804 H 0.06315 0.44721 0.94579 0.0
H805 H 0.99051 0.5503 0.00961 0.0
H806 H 0.02744 0.44541 0.93221 0.0
H807 H 0.99826 0.46013 0.92992 0.0
H808 H 0.09449 0.4658 0.96546 0.0
H809 H 0.9545 0.43938 0.02555 0.0
H810 H 0.91982 0.5397 0.01763 0.0
H811 H 0.96311 0.56621 0.01159 0.0
H812 H 0.87089 0.45572 0.026 0.0
H813 H 0.11182 0.52694 1.00208 0.0
H814 H 0.11362 0.49677 0.98576 0.0
H815 H 0.88533 0.49834 0.02193 0.0
H816 H 0.91125 0.41001 0.03028 0.0
N817 N 0.96363 0.51426 0.01515 0.0
C818 C 0.9318 0.53231 0.01674 0.0
C819 C 0.95628 0.54737 0.01351 0.0
C820 C 0.92301 0.50791 0.01872 0.0
C821 C 0.93956 0.49929 0.018 0.0
C822 C 0.97197 0.53809 0.01269 0.0
N823 N 0.94774 0.46755 0.02023 0.0
C824 C 0.93134 0.47521 0.02031 0.0
C825 C 0.91657 0.42821 0.02733 0.0
C826 C 0.89918 0.43541 0.02659 0.0
C827 C 0.94097 0.44478 0.02448 0.0
C828 C 0.90653 0.45927 0.02341 0.0
H829 H 0.8803 0.42262 0.02898 0.0
O830 O 0.01457 0.50811 0.03456 0.0
O831 O 0.02223 0.50044 0.00546 0.0
O832 O 0.99729 0.47152 0.98035 0.0
O833 O 0.97005 0.46434 1.00013 0.0
O834 O 0.99969 0.46832 0.01602 0.0
O835 O 0.97638 0.49103 0.03909 0.0
O836 O 0.05657 0.54247 0.97338 0.0
O837 O 0.99443 0.51388 0.99412 0.0
O838 O 0.01487 0.53572 0.01706 0.0
O839 O 0.04346 0.54103 0.9991 0.0
O840 O 0.98796 0.5029 0.9719 0.0
O841 O 0.02145 0.53418 0.96484 0.0
C842 C 0.02032 0.48071 0.00938 0.0
C843 C 0.89 0.46773 0.02372 0.0
C844 C 0.89825 0.49201 0.02146 0.0
C845 C 0.99798 0.49915 0.04473 0.0
C846 C 1.00067 0.48401 0.05591 0.0
C847 C 0.99479 0.46048 0.05238 0.0
C848 C 0.00882 0.49299 0.07038 0.0
C849 C 0.0106 0.47838 0.08132 0.0
C850 C 0.99693 0.4461 0.06312 0.0
C851 C 0.00466 0.4549 0.07754 0.0
C852 C 0.97683 0.45772 0.98776 0.0
C853 C 0.97873 0.50664 0.98364 0.0
C854 C 0.04487 0.54728 0.96336 0.0
C855 C 0.05493 0.55173 0.9481 0.0
C856 C 0.0799 0.56783 0.94621 0.0
C857 C 0.0401 0.54092 0.9354 0.0
C858 C 0.05017 0.54651 0.92101 0.0
C859 C 0.08996 0.57315 0.93197 0.0
C860 C 0.07521 0.56268 0.91943 0.0
C861 C 0.03622 0.5486 0.01068 0.0
H862 H 0.98833 0.45306 0.04141 0.0
H863 H 0.01324 0.51109 0.07322 0.0
H864 H 0.99241 0.428 0.06028 0.0
H865 H 0.00612 0.44343 0.08575 0.0
H866 H 0.09164 0.57643 0.95577 0.0
H867 H 0.02074 0.52867 0.93663 0.0
H868 H 0.10924 0.58558 0.93064 0.0
H869 H 0.08338 0.56713 0.90847 0.0
Gd870 Gd 0.48881 0.50633 0.98917 0.0
Gd871 Gd 0.50929 0.48957 0.02342 0.0
C872 C 0.58186 0.49071 0.02526 0.0
C873 C 0.56875 0.44842 0.02717 0.0
C874 C 0.53883 0.46145 0.0261 0.0
C875 C 0.55726 0.48496 0.02491 0.0
C876 C 0.54434 0.44295 0.02763 0.0
C877 C 0.58749 0.47227 0.026 0.0
C878 C 0.60002 0.51484 0.02539 0.0
C879 C 0.59346 0.53251 0.02545 0.0
N880 N 0.55117 0.50231 0.02433 0.0
C881 C 0.56881 0.52589 0.02511 0.0
H882 H 0.56402 0.53975 0.02514 0.0
C883 C 0.49689 0.43442 0.02986 0.0
N884 N 0.5155 0.45687 0.02668 0.0
C885 C 0.50142 0.41543 0.03138 0.0
C886 C 0.52521 0.41964 0.03006 0.0
H887 H 0.47846 0.43105 0.03081 0.0
H888 H 0.60627 0.47633 0.02608 0.0
H889 H 0.4347 0.4552 0.98695 0.0
H890 H 0.61912 0.52002 0.02587 0.0
H891 H 0.60737 0.55123 0.02577 0.0
H892 H 0.57336 0.43442 0.02816 0.0
H893 H 0.51851 0.56484 0.98214 0.0
H894 H 0.37834 0.473 0.98451 0.0
H895 H 0.39121 0.44265 0.98538 0.0
H896 H 0.4222 0.55864 0.98253 0.0
H897 H 0.48656 0.39755 0.03353 0.0
H898 H 0.52868 0.40491 0.03127 0.0
H899 H 0.39 0.51637 0.98419 0.0
H900 H 0.50942 0.59764 0.97903 0.0
N901 N 0.44668 0.49249 0.9876 0.0
C902 C 0.39752 0.47867 0.98545 0.0
C903 C 0.40473 0.46149 0.98582 0.0
C904 C 0.41519 0.50296 0.98575 0.0
C905 C 0.43995 0.50936 0.98663 0.0
C906 C 0.42952 0.46875 0.9867 0.0
N907 N 0.48148 0.53822 0.98544 0.0
C908 C 0.45797 0.53303 0.98556 0.0
C909 C 0.49477 0.57955 0.9809 0.0
C910 C 0.47069 0.57467 0.98168 0.0
C911 C 0.49985 0.56095 0.98262 0.0
C912 C 0.45188 0.55111 0.98379 0.0
H913 H 0.46679 0.58909 0.98031 0.0
O914 O 0.50636 0.52041 0.96788 0.0
O915 O 0.518 0.50263 1.00023 0.0
O916 O 0.52142 0.52924 0.02286 0.0
O917 O 0.4943 0.53318 0.00708 0.0
O918 O 0.52937 0.53221 0.98713 0.0
O919 O 0.47695 0.48367 0.96943 0.0
O920 O 0.49042 0.47697 0.04445 0.0
O921 O 0.48022 0.49371 0.01245 0.0
O922 O 0.47672 0.46663 0.98988 0.0
O923 O 0.50398 0.46284 0.00559 0.0
O924 O 0.46867 0.46397 0.02552 0.0
O925 O 0.52447 0.51063 0.04371 0.0
C926 C 0.53671 0.52063 0.99525 0.0
C927 C 0.42726 0.54499 0.98373 0.0
C928 C 0.40894 0.52093 0.98468 0.0
C929 C 0.49213 0.50059 0.96067 0.0
C930 C 0.48219 0.50282 0.94634 0.0
C931 C 0.46213 0.50636 0.94578 0.0
C932 C 0.49259 0.50069 0.93301 0.0
C933 C 0.48279 0.50162 0.91905 0.0
C934 C 0.45236 0.50747 0.93204 0.0
C935 C 0.46246 0.50499 0.91878 0.0
C936 C 0.51056 0.54101 0.01806 0.0
C937 C 0.46147 0.47568 0.01739 0.0
C938 C 0.50726 0.49484 0.05212 0.0
C939 C 0.51491 0.48856 0.06605 0.0
C940 C 0.52775 0.47611 0.06579 0.0
C941 C 0.50839 0.49427 0.07978 0.0
C942 C 0.51416 0.48714 0.09332 0.0
C943 C 0.53362 0.46903 0.0791 0.0
C944 C 0.52675 0.4743 0.09275 0.0
C945 C 0.48777 0.455 0.99461 0.0
H946 H 0.4539 0.50803 0.95594 0.0
H947 H 0.50836 0.49834 0.93358 0.0
H948 H 0.43672 0.51001 0.93167 0.0
H949 H 0.45404 0.50531 0.90832 0.0
H950 H 0.53302 0.47167 0.05535 0.0
H951 H 0.49889 0.50432 0.07985 0.0
H952 H 0.54331 0.45919 0.07882 0.0
H953 H 0.53102 0.46798 0.10284 0.0
Gd954 Gd 0.18142 0.35158 0.357 0.0
Gd955 Gd 0.15648 0.31804 0.32134 0.0
C956 C 0.08071 0.25182 0.31826 0.0
C957 C 0.09017 0.22004 0.31435 0.0
C958 C 0.12275 0.26144 0.3165 0.0
C959 C 0.10585 0.26869 0.31868 0.0
C960 C 0.11513 0.23709 0.31403 0.0
C961 C 0.07298 0.2274 0.31643 0.0
C962 C 0.06413 0.26007 0.31927 0.0
C963 C 0.07274 0.28459 0.32048 0.0
N964 N 0.11397 0.2924 0.32043 0.0
C965 C 0.09786 0.30061 0.32089 0.0
H966 H 0.10423 0.3195 0.32186 0.0
C967 C 0.16385 0.27249 0.31218 0.0
N968 N 0.14667 0.27842 0.31607 0.0
C969 C 0.15723 0.24855 0.3098 0.0
C970 C 0.13279 0.23072 0.31091 0.0
H971 H 0.18279 0.28619 0.3114 0.0
H972 H 0.05374 0.21414 0.31627 0.0
H973 H 0.23341 0.34938 0.3562 0.0
H974 H 0.04468 0.24773 0.31875 0.0
H975 H 0.06006 0.29118 0.32109 0.0
H976 H 0.08394 0.20121 0.31262 0.0
H977 H 0.15551 0.38392 0.36619 0.0
H978 H 0.2935 0.42033 0.36174 0.0
H979 H 0.27755 0.37703 0.35787 0.0
H980 H 0.25521 0.46754 0.36895 0.0
H981 H 0.17096 0.24385 0.30712 0.0
H982 H 0.12769 0.21219 0.30899 0.0
H983 H 0.28503 0.4541 0.36544 0.0
H984 H 0.1678 0.42616 0.37142 0.0
N985 N 0.22406 0.37666 0.3586 0.0
C986 C 0.27402 0.40828 0.36086 0.0
C987 C 0.26508 0.38383 0.35876 0.0
C988 C 0.25769 0.41679 0.36217 0.0
C989 C 0.23249 0.40029 0.36111 0.0
C990 C 0.23992 0.36817 0.35783 0.0
N991 N 0.19177 0.3912 0.36275 0.0
C992 C 0.2158 0.40782 0.36317 0.0
C993 C 0.1815 0.42126 0.36908 0.0
C994 C 0.20615 0.43875 0.36896 0.0
C995 C 0.1746 0.39737 0.36616 0.0
C996 C 0.22369 0.43209 0.36622 0.0
H997 H 0.21146 0.45723 0.3713 0.0
O998 O 0.165 0.34725 0.37886 0.0
O999 O 0.15019 0.32181 0.34519 0.0
O1000 O 0.14754 0.34783 0.32485 0.0
O1001 O 0.17788 0.37597 0.34065 0.0
O1002 O 0.14159 0.34009 0.36051 0.0
O1003 O 0.19258 0.3373 0.37532 0.0
O1004 O 0.17483 0.32532 0.3 0.0
O1005 O 0.18776 0.34821 0.33302 0.0
O1006 O 0.19064 0.32205 0.35331 0.0
O1007 O 0.16034 0.29373 0.33758 0.0
O1008 O 0.19611 0.32929 0.3179 0.0
O1009 O 0.1422 0.32783 0.30217 0.0
C1010 C 0.13258 0.3223 0.35127 0.0
C1011 C 0.24877 0.44878 0.36674 0.0
C1012 C 0.26574 0.44113 0.36475 0.0
C1013 C 0.17844 0.33951 0.38496 0.0
C1014 C 0.18941 0.34994 0.39957 0.0
C1015 C 0.20975 0.37302 0.40059 0.0
C1016 C 0.17968 0.33655 0.41264 0.0
C1017 C 0.19042 0.34603 0.42668 0.0
C1018 C 0.22038 0.38258 0.41445 0.0
C1019 C 0.21088 0.36922 0.4274 0.0
C1020 C 0.16071 0.36986 0.33035 0.0
C1021 C 0.20524 0.34739 0.32693 0.0
C1022 C 0.15888 0.32902 0.29316 0.0
C1023 C 0.15072 0.31738 0.27844 0.0
C1024 C 0.13618 0.29243 0.27723 0.0
C1025 C 0.15878 0.33122 0.2654 0.0
C1026 C 0.15287 0.32007 0.25125 0.0
C1027 C 0.13011 0.28135 0.26321 0.0
C1028 C 0.13856 0.29503 0.25029 0.0
C1029 C 0.17759 0.30001 0.34783 0.0
H1030 H 0.21745 0.38358 0.39069 0.0
H1031 H 0.16405 0.31863 0.41183 0.0
H1032 H 0.23607 0.40042 0.41516 0.0
H1033 H 0.21938 0.37715 0.43802 0.0
H1034 H 0.12981 0.28152 0.28711 0.0
H1035 H 0.17015 0.35051 0.26627 0.0
H1036 H 0.119 0.26207 0.26235 0.0
H1037 H 0.13379 0.28609 0.23951 0.0
Gd1038 Gd 0.65041 0.82645 0.35555 0.0
Gd1039 Gd 0.69028 0.8436 0.32255 0.0
C1040 C 0.75959 0.8385 0.32132 0.0
C1041 C 0.79121 0.88034 0.32023 0.0
C1042 C 0.74851 0.86934 0.32107 0.0
C1043 C 0.74176 0.84546 0.32197 0.0
C1044 C 0.77327 0.88704 0.31987 0.0
C1045 C 0.78437 0.85608 0.32088 0.0
C1046 C 0.75192 0.8141 0.32044 0.0
C1047 C 0.72707 0.79735 0.32019 0.0
N1048 N 0.71765 0.82895 0.32218 0.0
C1049 C 0.7101 0.80513 0.32088 0.0
H1050 H 0.69098 0.79194 0.32055 0.0
C1051 C 0.73623 0.89803 0.3174 0.0
N1052 N 0.73069 0.87508 0.32029 0.0
C1053 C 0.76054 0.91628 0.31631 0.0
C1054 C 0.77917 0.91082 0.31774 0.0
H1055 H 0.72187 0.90234 0.31636 0.0
H1056 H 0.79833 0.85108 0.32059 0.0
H1057 H 0.64962 0.87796 0.35834 0.0
H1058 H 0.76501 0.80805 0.31945 0.0
H1059 H 0.72097 0.77844 0.31932 0.0
H1060 H 0.81035 0.89369 0.31947 0.0
H1061 H 0.61857 0.76688 0.3593 0.0
H1062 H 0.57543 0.86151 0.35927 0.0
H1063 H 0.61943 0.89126 0.35984 0.0
H1064 H 0.53026 0.77587 0.35654 0.0
H1065 H 0.76488 0.93453 0.31439 0.0
H1066 H 0.79798 0.92496 0.3168 0.0
H1067 H 0.54224 0.81851 0.35707 0.0
H1068 H 0.57546 0.7345 0.35951 0.0
N1069 N 0.62303 0.84098 0.35639 0.0
C1070 C 0.58859 0.85556 0.35828 0.0
C1071 C 0.61342 0.8724 0.35875 0.0
C1072 C 0.58104 0.83122 0.35695 0.0
C1073 C 0.59894 0.82437 0.35626 0.0
C1074 C 0.63049 0.86475 0.3579 0.0
N1075 N 0.60997 0.79457 0.35663 0.0
C1076 C 0.59218 0.80041 0.35621 0.0
C1077 C 0.57991 0.75295 0.35853 0.0
C1078 C 0.56137 0.75859 0.35738 0.0
C1079 C 0.60427 0.7713 0.35846 0.0
C1080 C 0.56737 0.78258 0.35652 0.0
H1081 H 0.54251 0.74436 0.35755 0.0
O1082 O 0.6526 0.81082 0.37639 0.0
O1083 O 0.68412 0.83005 0.34567 0.0
O1084 O 0.66077 0.80405 0.32232 0.0
O1085 O 0.62919 0.80219 0.33652 0.0
O1086 O 0.66355 0.79972 0.35791 0.0
O1087 O 0.65595 0.84597 0.37642 0.0
O1088 O 0.69029 0.8587 0.30094 0.0
O1089 O 0.65724 0.84086 0.3327 0.0
O1090 O 0.68014 0.86582 0.35642 0.0
O1091 O 0.71152 0.86952 0.34105 0.0
O1092 O 0.67689 0.87015 0.31966 0.0
O1093 O 0.68041 0.82141 0.30263 0.0
C1094 C 0.6835 0.81149 0.35055 0.0
C1095 C 0.54943 0.7893 0.35642 0.0
C1096 C 0.55626 0.81357 0.35673 0.0
C1097 C 0.65461 0.8286 0.38447 0.0
C1098 C 0.63925 0.82204 0.3978 0.0
C1099 C 0.6138 0.80851 0.39666 0.0
C1100 C 0.65037 0.82839 0.41192 0.0
C1101 C 0.63628 0.82071 0.425 0.0
C1102 C 0.59964 0.80106 0.4095 0.0
C1103 C 0.61073 0.80689 0.42358 0.0
C1104 C 0.63746 0.79355 0.32614 0.0
C1105 C 0.65751 0.85912 0.32759 0.0
C1106 C 0.68481 0.839 0.29373 0.0
C1107 C 0.69952 0.84136 0.28055 0.0
C1108 C 0.72323 0.84513 0.28202 0.0
C1109 C 0.68939 0.83897 0.26628 0.0
C1110 C 0.70267 0.83986 0.25353 0.0
C1111 C 0.73657 0.8462 0.2694 0.0
C1112 C 0.72632 0.84344 0.25521 0.0
C1113 C 0.70323 0.87724 0.35204 0.0
H1114 H 0.60491 0.80343 0.3859 0.0
H1115 H 0.67004 0.83926 0.41263 0.0
H1116 H 0.57999 0.79039 0.40855 0.0
H1117 H 0.59924 0.80016 0.4333 0.0
H1118 H 0.73135 0.84701 0.29288 0.0
H1119 H 0.67098 0.83584 0.26512 0.0
H1120 H 0.75482 0.84903 0.27063 0.0
H1121 H 0.73691 0.84426 0.24553 0.0
Gd1122 Gd 0.15905 0.84253 0.32228 0.0
Gd1123 Gd 0.17974 0.82613 0.35657 0.0
C1124 C 0.25387 0.8305 0.35932 0.0
C1125 C 0.24236 0.78861 0.36132 0.0
C1126 C 0.21124 0.80004 0.35975 0.0
C1127 C 0.22902 0.82379 0.35857 0.0
C1128 C 0.21766 0.7822 0.36147 0.0
C1129 C 0.26045 0.81274 0.36029 0.0
C1130 C 0.2713 0.85486 0.35968 0.0
C1131 C 0.26378 0.87181 0.35951 0.0
N1132 N 0.22199 0.84045 0.35778 0.0
C1133 C 0.23892 0.86426 0.35875 0.0
H1134 H 0.23349 0.87763 0.35867 0.0
C1135 C 0.16957 0.77184 0.36324 0.0
N1136 N 0.18764 0.79458 0.36014 0.0
C1137 C 0.17498 0.75345 0.36492 0.0
C1138 C 0.19912 0.75859 0.36382 0.0
H1139 H 0.15086 0.76778 0.36396 0.0
H1140 H 0.27945 0.81754 0.36067 0.0
H1141 H 0.10411 0.7926 0.32076 0.0
H1142 H 0.29054 0.86076 0.36057 0.0
H1143 H 0.27712 0.89071 0.36001 0.0
H1144 H 0.24768 0.77514 0.36248 0.0
H1145 H 0.19049 0.90108 0.31487 0.0
H1146 H 0.04951 0.8129 0.31858 0.0
H1147 H 0.06088 0.78145 0.31955 0.0
H1148 H 0.09588 0.89841 0.31591 0.0
H1149 H 0.16055 0.73535 0.367 0.0
H1150 H 0.20329 0.74435 0.36517 0.0
H1151 H 0.06269 0.85663 0.31797 0.0
H1152 H 0.18277 0.93471 0.31165 0.0
N1153 N 0.11727 0.83011 0.3211 0.0
C1154 C 0.06855 0.81793 0.31937 0.0
C1155 C 0.0749 0.80013 0.31979 0.0
C1156 C 0.08685 0.842 0.31944 0.0
C1157 C 0.11138 0.84758 0.32013 0.0
C1158 C 0.09949 0.80656 0.32047 0.0
N1159 N 0.15326 0.87542 0.31866 0.0
C1160 C 0.12997 0.87101 0.3189 0.0
C1161 C 0.16776 0.9169 0.31375 0.0
C1162 C 0.14399 0.91285 0.3147 0.0
C1163 C 0.17207 0.89781 0.31556 0.0
C1164 C 0.12468 0.88962 0.31706 0.0
H1165 H 0.1407 0.92765 0.31325 0.0
O1166 O 0.1783 0.85442 0.30132 0.0
O1167 O 0.18826 0.83847 0.33323 0.0
O1168 O 0.19128 0.86572 0.35587 0.0
O1169 O 0.16401 0.86928 0.34003 0.0
O1170 O 0.1996 0.86831 0.32027 0.0
O1171 O 0.14373 0.82134 0.30203 0.0
O1172 O 0.16339 0.81188 0.37813 0.0
O1173 O 0.15039 0.82956 0.34552 0.0
O1174 O 0.14651 0.80281 0.32312 0.0
O1175 O 0.17377 0.79891 0.33877 0.0
O1176 O 0.13917 0.80038 0.35898 0.0
O1177 O 0.19156 0.84906 0.37619 0.0
C1178 C 0.20693 0.85662 0.32831 0.0
C1179 C 0.10032 0.88433 0.31716 0.0
C1180 C 0.08143 0.86055 0.31833 0.0
C1181 C 0.16135 0.83666 0.29364 0.0
C1182 C 0.15439 0.84302 0.27948 0.0
C1183 C 0.14277 0.85663 0.27933 0.0
C1184 C 0.16059 0.8364 0.26594 0.0
C1185 C 0.15581 0.84383 0.25218 0.0
C1186 C 0.13783 0.86398 0.26582 0.0
C1187 C 0.14447 0.85787 0.25236 0.0
C1188 C 0.18012 0.87721 0.35108 0.0
C1189 C 0.13173 0.8117 0.35069 0.0
C1190 C 0.17745 0.83192 0.38519 0.0
C1191 C 0.18884 0.83034 0.39911 0.0
C1192 C 0.20935 0.82746 0.39881 0.0
C1193 C 0.17968 0.83272 0.41287 0.0
C1194 C 0.19126 0.83275 0.4263 0.0
C1195 C 0.22078 0.82728 0.4121 0.0
C1196 C 0.21193 0.83006 0.42578 0.0
C1197 C 0.15733 0.791 0.32788 0.0
H1198 H 0.1378 0.86182 0.28961 0.0
H1199 H 0.16915 0.82548 0.26621 0.0
H1200 H 0.12912 0.87475 0.26578 0.0
H1201 H 0.14105 0.86454 0.24213 0.0
H1202 H 0.21665 0.8256 0.38834 0.0
H1203 H 0.16394 0.83515 0.41311 0.0
H1204 H 0.23666 0.82513 0.4118 0.0
H1205 H 0.2211 0.82992 0.43596 0.0
Gd1206 Gd 0.84739 0.68475 0.68985 0.0
Gd1207 Gd 0.82607 0.64999 0.65438 0.0
C1208 C 0.75069 0.58316 0.65067 0.0
C1209 C 0.76079 0.55167 0.64761 0.0
C1210 C 0.79292 0.59327 0.6497 0.0
C1211 C 0.77575 0.60027 0.65133 0.0
C1212 C 0.78569 0.56896 0.64747 0.0
C1213 C 0.7433 0.55877 0.64919 0.0
C1214 C 0.73385 0.59115 0.65104 0.0
C1215 C 0.74218 0.61565 0.65167 0.0
N1216 N 0.78358 0.62397 0.65268 0.0
C1217 C 0.76724 0.63192 0.65229 0.0
H1218 H 0.77328 0.65076 0.65282 0.0
C1219 C 0.83427 0.6048 0.64604 0.0
N1220 N 0.81674 0.61045 0.64948 0.0
C1221 C 0.82805 0.58092 0.64381 0.0
C1222 C 0.80367 0.56287 0.64475 0.0
H1223 H 0.85317 0.6187 0.64549 0.0
H1224 H 0.72413 0.54534 0.64887 0.0
H1225 H 0.90146 0.68675 0.6899 0.0
H1226 H 0.71445 0.57861 0.65042 0.0
H1227 H 0.72932 0.62205 0.6517 0.0
H1228 H 0.75485 0.53287 0.64608 0.0
H1229 H 0.81758 0.71352 0.69897 0.0
H1230 H 0.9579 0.75972 0.6946 0.0
H1231 H 0.94505 0.71691 0.69144 0.0
H1232 H 0.91399 0.80173 0.70113 0.0
H1233 H 0.84205 0.57645 0.64146 0.0
H1234 H 0.79887 0.54439 0.64301 0.0
H1235 H 0.94616 0.79135 0.69782 0.0
H1236 H 0.82675 0.75486 0.70414 0.0
N1237 N 0.88949 0.71218 0.69163 0.0
C1238 C 0.93868 0.74656 0.69379 0.0
C1239 C 0.93149 0.7224 0.69208 0.0
C1240 C 0.92097 0.75337 0.69485 0.0
C1241 C 0.89619 0.7355 0.69384 0.0
C1242 C 0.90669 0.70533 0.69122 0.0
N1243 N 0.8546 0.72349 0.69524 0.0
C1244 C 0.87817 0.74136 0.69564 0.0
C1245 C 0.84138 0.75133 0.7017 0.0
C1246 C 0.86549 0.77012 0.7014 0.0
C1247 C 0.83625 0.72794 0.69878 0.0
C1248 C 0.88428 0.76522 0.69858 0.0
H1249 H 0.86942 0.78822 0.70369 0.0
O1250 O 0.82732 0.676 0.71062 0.0
O1251 O 0.81788 0.65337 0.67793 0.0
O1252 O 0.8157 0.67901 0.65634 0.0
O1253 O 0.84273 0.70808 0.67318 0.0
O1254 O 0.8071 0.67181 0.69182 0.0
O1255 O 0.86169 0.6766 0.70971 0.0
O1256 O 0.84323 0.65328 0.63283 0.0
O1257 O 0.85579 0.68117 0.66626 0.0
O1258 O 0.85879 0.65661 0.68769 0.0
O1259 O 0.83121 0.62713 0.67133 0.0
O1260 O 0.86623 0.66278 0.65214 0.0
O1261 O 0.81548 0.66322 0.63526 0.0
C1262 C 0.79947 0.65347 0.68308 0.0
C1263 C 0.90891 0.78325 0.69903 0.0
C1264 C 0.92723 0.77734 0.69717 0.0
C1265 C 0.84375 0.67389 0.71813 0.0
C1266 C 0.85013 0.68564 0.7329 0.0
C1267 C 0.86188 0.71062 0.73414 0.0
C1268 C 0.84331 0.6717 0.74591 0.0
C1269 C 0.84773 0.68261 0.76019 0.0
C1270 C 0.86634 0.72158 0.74814 0.0
C1271 C 0.85916 0.70778 0.76104 0.0
C1272 C 0.82697 0.70111 0.66193 0.0
C1273 C 0.87413 0.68123 0.6608 0.0
C1274 C 0.83001 0.66072 0.62611 0.0
C1275 C 0.81956 0.64981 0.6115 0.0
C1276 C 0.79941 0.62664 0.61056 0.0
C1277 C 0.82943 0.66298 0.59836 0.0
C1278 C 0.81909 0.65316 0.58426 0.0
C1279 C 0.78905 0.61677 0.59671 0.0
C1280 C 0.79866 0.62988 0.58369 0.0
C1281 C 0.84739 0.63438 0.68237 0.0
H1282 H 0.86732 0.72162 0.7243 0.0
H1283 H 0.8346 0.65242 0.74484 0.0
H1284 H 0.87513 0.74088 0.74899 0.0
H1285 H 0.86226 0.71694 0.77167 0.0
H1286 H 0.79158 0.61629 0.62054 0.0
H1287 H 0.84522 0.68078 0.59917 0.0
H1288 H 0.77334 0.59893 0.59607 0.0
H1289 H 0.78977 0.62186 0.57318 0.0
Gd1290 Gd 0.31639 0.16285 0.68756 0.0
Gd1291 Gd 0.35642 0.17781 0.6548 0.0
C1292 C 0.42586 0.17311 0.65531 0.0
C1293 C 0.45742 0.21504 0.65488 0.0
C1294 C 0.41465 0.20388 0.65459 0.0
C1295 C 0.40793 0.17996 0.65535 0.0
C1296 C 0.43946 0.22168 0.6541 0.0
C1297 C 0.45063 0.19079 0.65539 0.0
C1298 C 0.41834 0.14872 0.6547 0.0
C1299 C 0.39353 0.13184 0.65428 0.0
N1300 N 0.38384 0.16332 0.65526 0.0
C1301 C 0.37643 0.1395 0.65445 0.0
H1302 H 0.35731 0.12625 0.65404 0.0
C1303 C 0.40254 0.23265 0.65062 0.0
N1304 N 0.39685 0.20961 0.6534 0.0
C1305 C 0.42688 0.25101 0.65036 0.0
C1306 C 0.44544 0.24554 0.65229 0.0
H1307 H 0.38821 0.23693 0.64916 0.0
H1308 H 0.46466 0.18587 0.65552 0.0
H1309 H 0.31373 0.21356 0.68669 0.0
H1310 H 0.43153 0.14275 0.65419 0.0
H1311 H 0.38755 0.11294 0.65373 0.0
H1312 H 0.47659 0.22846 0.65463 0.0
H1313 H 0.2867 0.1044 0.69503 0.0
H1314 H 0.2391 0.1953 0.68924 0.0
H1315 H 0.28274 0.22583 0.6874 0.0
H1316 H 0.19643 0.11 0.69384 0.0
H1317 H 0.43132 0.26933 0.64863 0.0
H1318 H 0.46429 0.25976 0.65194 0.0
H1319 H 0.20694 0.15201 0.69107 0.0
H1320 H 0.24436 0.07164 0.69846 0.0
N1321 N 0.28798 0.17624 0.68746 0.0
C1322 C 0.25262 0.18975 0.68866 0.0
C1323 C 0.27724 0.20703 0.68772 0.0
C1324 C 0.24578 0.16555 0.6893 0.0
C1325 C 0.26414 0.15929 0.68879 0.0
C1326 C 0.29479 0.19995 0.68732 0.0
N1327 N 0.2766 0.13073 0.69095 0.0
C1328 C 0.25825 0.13576 0.69051 0.0
C1329 C 0.248 0.08958 0.69619 0.0
C1330 C 0.22881 0.0943 0.69518 0.0
C1331 C 0.27196 0.10818 0.69426 0.0
C1332 C 0.23382 0.11768 0.69256 0.0
H1333 H 0.21027 0.07989 0.69676 0.0
O1334 O 0.31895 0.15037 0.70957 0.0
O1335 O 0.34986 0.16551 0.67809 0.0
O1336 O 0.32667 0.13839 0.6549 0.0
O1337 O 0.2951 0.1356 0.66971 0.0
O1338 O 0.3302 0.13689 0.69164 0.0
O1339 O 0.32509 0.18637 0.70676 0.0
O1340 O 0.35466 0.19194 0.63327 0.0
O1341 O 0.32244 0.17458 0.66398 0.0
O1342 O 0.34493 0.20258 0.68651 0.0
O1343 O 0.37709 0.20394 0.67324 0.0
O1344 O 0.34291 0.20386 0.65084 0.0
O1345 O 0.35119 0.1568 0.63465 0.0
C1346 C 0.34972 0.14769 0.68382 0.0
C1347 C 0.21533 0.12365 0.69239 0.0
C1348 C 0.22131 0.14756 0.69082 0.0
C1349 C 0.32286 0.17006 0.71616 0.0
C1350 C 0.30851 0.16726 0.72958 0.0
C1351 C 0.28498 0.16409 0.72864 0.0
C1352 C 0.31875 0.1681 0.74358 0.0
C1353 C 0.30583 0.1662 0.75673 0.0
C1354 C 0.27189 0.16187 0.74159 0.0
C1355 C 0.28222 0.163 0.75557 0.0
C1356 C 0.30354 0.12717 0.65922 0.0
C1357 C 0.32287 0.19254 0.65818 0.0
C1358 C 0.35277 0.17359 0.62591 0.0
C1359 C 0.36849 0.17921 0.61282 0.0
C1360 C 0.39392 0.19056 0.61432 0.0
C1361 C 0.3579 0.17432 0.59856 0.0
C1362 C 0.37263 0.18128 0.58583 0.0
C1363 C 0.40862 0.19735 0.60166 0.0
C1364 C 0.39807 0.19295 0.58745 0.0
C1365 C 0.36832 0.21317 0.68292 0.0
H1366 H 0.27682 0.16351 0.71797 0.0
H1367 H 0.33682 0.17022 0.7442 0.0
H1368 H 0.25377 0.15954 0.7408 0.0
H1369 H 0.27191 0.16184 0.76545 0.0
H1370 H 0.4024 0.19442 0.6252 0.0
H1371 H 0.33825 0.16567 0.59735 0.0
H1372 H 0.42824 0.20625 0.60288 0.0
H1373 H 0.40968 0.1985 0.57773 0.0
Gd1374 Gd 0.82422 0.17777 0.65654 0.0
Gd1375 Gd 0.84644 0.16303 0.69075 0.0
C1376 C 0.92095 0.16814 0.69264 0.0
C1377 C 0.90989 0.12644 0.69521 0.0
C1378 C 0.87845 0.13749 0.69392 0.0
C1379 C 0.89603 0.16123 0.69231 0.0
C1380 C 0.88515 0.11985 0.6957 0.0
C1381 C 0.92777 0.15057 0.69372 0.0
C1382 C 0.93825 0.19254 0.6924 0.0
C1383 C 0.93053 0.20934 0.6921 0.0
N1384 N 0.88877 0.17771 0.69139 0.0
C1385 C 0.9056 0.20159 0.69178 0.0
H1386 H 0.9 0.21484 0.69156 0.0
C1387 C 0.83699 0.10912 0.69796 0.0
N1388 N 0.85481 0.13184 0.69457 0.0
C1389 C 0.84269 0.09095 0.69972 0.0
C1390 C 0.86685 0.09627 0.69839 0.0
H1391 H 0.81826 0.1049 0.69887 0.0
H1392 H 0.94682 0.15551 0.6938 0.0
H1393 H 0.76981 0.1271 0.65646 0.0
H1394 H 0.95755 0.19861 0.69289 0.0
H1395 H 0.94377 0.22828 0.69214 0.0
H1396 H 0.91541 0.11313 0.69641 0.0
H1397 H 0.85462 0.23605 0.6485 0.0
H1398 H 0.71405 0.14565 0.65276 0.0
H1399 H 0.72634 0.11499 0.65517 0.0
H1400 H 0.75884 0.23093 0.64774 0.0
H1401 H 0.82845 0.07285 0.70204 0.0
H1402 H 0.87123 0.08218 0.69979 0.0
H1403 H 0.7263 0.18901 0.65049 0.0
H1404 H 0.84595 0.26887 0.64429 0.0
N1405 N 0.78223 0.16442 0.6554 0.0
C1406 C 0.7332 0.15112 0.65353 0.0
C1407 C 0.74007 0.13376 0.6548 0.0
C1408 C 0.75114 0.17529 0.65284 0.0
C1409 C 0.77582 0.18143 0.65369 0.0
C1410 C 0.7648 0.14073 0.65553 0.0
N1411 N 0.81754 0.20994 0.65226 0.0
C1412 C 0.79406 0.20497 0.65217 0.0
C1413 C 0.83119 0.251 0.64656 0.0
C1414 C 0.80721 0.24641 0.64714 0.0
C1415 C 0.83604 0.23238 0.64893 0.0
C1416 C 0.78823 0.22309 0.64972 0.0
H1417 H 0.80349 0.26084 0.64524 0.0
O1418 O 0.84298 0.18927 0.63541 0.0
O1419 O 0.85393 0.17451 0.66729 0.0
O1420 O 0.8575 0.20245 0.6896 0.0
O1421 O 0.82967 0.20539 0.67392 0.0
O1422 O 0.86471 0.20371 0.6539 0.0
O1423 O 0.80885 0.15575 0.6366 0.0
O1424 O 0.83021 0.14959 0.71243 0.0
O1425 O 0.81633 0.1658 0.68007 0.0
O1426 O 0.81248 0.13818 0.65777 0.0
O1427 O 0.84068 0.13557 0.67324 0.0
O1428 O 0.80625 0.13678 0.69356 0.0
O1429 O 0.85943 0.18631 0.71018 0.0
C1430 C 0.87241 0.19237 0.66199 0.0
C1431 C 0.76369 0.21723 0.64948 0.0
C1432 C 0.74517 0.19336 0.65101 0.0
C1433 C 0.82617 0.17099 0.628 0.0
C1434 C 0.81881 0.17646 0.61368 0.0
C1435 C 0.80576 0.18869 0.61318 0.0
C1436 C 0.82608 0.17044 0.60033 0.0
C1437 C 0.82095 0.1771 0.58642 0.0
C1438 C 0.80043 0.19524 0.59951 0.0
C1439 C 0.80811 0.18973 0.58623 0.0
C1440 C 0.84607 0.21371 0.68483 0.0
C1441 C 0.7981 0.14777 0.68553 0.0
C1442 C 0.84498 0.16958 0.7193 0.0
C1443 C 0.85609 0.16764 0.73322 0.0
C1444 C 0.87682 0.16512 0.73305 0.0
C1445 C 0.84618 0.16907 0.7469 0.0
C1446 C 0.85714 0.16842 0.76042 0.0
C1447 C 0.88768 0.16429 0.74643 0.0
C1448 C 0.87802 0.16606 0.76006 0.0
C1449 C 0.82411 0.12708 0.66244 0.0
H1450 H 0.79997 0.19341 0.62333 0.0
H1451 H 0.83576 0.16058 0.60087 0.0
H1452 H 0.79059 0.20494 0.5992 0.0
H1453 H 0.80431 0.19575 0.57586 0.0
H1454 H 0.8847 0.164 0.72261 0.0
H1455 H 0.83028 0.17124 0.74702 0.0
H1456 H 0.90372 0.16239 0.74624 0.0
H1457 H 0.88672 0.16538 0.77031 0.0
C1458 C 0.33296 0.87419 0.037 0.0
C1459 C 0.33205 0.87509 0.0526 0.0
C1460 C 0.35366 0.89098 0.02922 0.0
C1461 C 0.37407 0.90867 0.03727 0.0
C1462 C 0.37343 0.90918 0.05307 0.0
C1463 C 0.35231 0.89254 0.06053 0.0
C1464 C 0.35355 0.89004 0.0124 0.0
C1465 C 0.39498 0.92746 0.06211 0.0
C1466 C 0.43772 0.94341 0.02119 0.0
C1467 C 0.44013 0.96603 0.01933 0.0
C1468 C 0.41573 0.92401 0.02613 0.0
C1469 C 0.39581 0.92745 0.02935 0.0
C1470 C 0.39777 0.94993 0.02658 0.0
C1471 C 0.42004 0.96905 0.0218 0.0
C1472 C 0.41453 0.90041 0.02893 0.0
C1473 C 0.37677 0.95417 0.02946 0.0
H1474 H 0.31721 0.8607 0.03088 0.0
H1475 H 0.35168 0.89304 0.0726 0.0
H1476 H 0.3573 0.90749 0.00783 0.0
H1477 H 0.36822 0.88678 0.00847 0.0
H1478 H 0.33589 0.87575 0.00778 0.0
H1479 H 0.39205 0.92457 0.0743 0.0
H1480 H 0.41159 0.92679 0.05907 0.0
H1481 H 0.39848 0.94571 0.05956 0.0
H1482 H 0.45335 0.94113 0.01955 0.0
H1483 H 0.422 0.98661 0.02039 0.0
H1484 H 0.39713 0.88529 0.02468 0.0
H1485 H 0.4153 0.898 0.04112 0.0
H1486 H 0.42988 0.89953 0.02361 0.0
H1487 H 0.35974 0.93961 0.02439 0.0
H1488 H 0.38017 0.97156 0.02494 0.0
H1489 H 0.37377 0.95411 0.04165 0.0
C1490 C 0.13362 0.46649 0.03714 0.0
C1491 C 0.12859 0.45657 0.05147 0.0
C1492 C 0.1168 0.47064 0.02938 0.0
C1493 C 0.09418 0.46459 0.03598 0.0
C1494 C 0.08879 0.45427 0.05036 0.0
C1495 C 0.10605 0.45047 0.05793 0.0
C1496 C 0.12337 0.48169 0.01414 0.0
C1497 C 0.06484 0.4474 0.05781 0.0
C1498 C 0.05878 0.49517 0.02395 0.0
C1499 C 0.04099 0.47796 0.01442 0.0
C1500 C 0.07669 0.49141 0.03059 0.0
C1501 C 0.07636 0.46955 0.02803 0.0
C1502 C 0.05837 0.45211 0.01837 0.0
C1503 C 0.04084 0.4565 0.01173 0.0
C1504 C 0.09564 0.51064 0.04062 0.0
C1505 C 0.05711 0.42845 0.01548 0.0
H1506 H 0.15072 0.47088 0.03188 0.0
H1507 H 0.10201 0.44305 0.06905 0.0
H1508 H 0.10932 0.46987 0.0059 0.0
H1509 H 0.12381 0.49908 0.01433 0.0
H1510 H 0.14139 0.48479 0.01036 0.0
H1511 H 0.063 0.43867 0.06874 0.0
H1512 H 0.06317 0.46355 0.0596 0.0
H1513 H 0.04944 0.435 0.05049 0.0
H1514 H 0.05847 0.5115 0.02638 0.0
H1515 H 0.02663 0.44294 0.0047 0.0
H1516 H 0.11418 0.5152 0.03697 0.0
H1517 H 0.09338 0.50398 0.05221 0.0
H1518 H 0.09438 0.5272 0.04066 0.0
H1519 H 0.0749 0.43142 0.01139 0.0
H1520 H 0.04276 0.41728 0.00717 0.0
H1521 H 0.05322 0.41837 0.02605 0.0
C1522 C 0.52893 0.65342 0.06624 0.0
C1523 C 0.548 0.67494 0.06078 0.0
C1524 C 0.52281 0.63149 0.05941 0.0
C1525 C 0.53583 0.63119 0.04668 0.0
C1526 C 0.55501 0.65292 0.04106 0.0
C1527 C 0.56101 0.67456 0.04827 0.0
C1528 C 0.50253 0.60863 0.06587 0.0
C1529 C 0.56901 0.65331 0.02737 0.0
C1530 C 0.53523 0.57378 0.03644 0.0
C1531 C 0.5171 0.56414 0.02533 0.0
C1532 C 0.54141 0.59553 0.04354 0.0
C1533 C 0.52943 0.60812 0.03928 0.0
C1534 C 0.5112 0.59857 0.02804 0.0
C1535 C 0.50502 0.57654 0.02135 0.0
C1536 C 0.56064 0.60496 0.05568 0.0
C1537 C 0.49821 0.61162 0.02306 0.0
H1538 H 0.51902 0.65376 0.07599 0.0
H1539 H 0.57561 0.69126 0.04398 0.0
H1540 H 0.48789 0.59914 0.05742 0.0
H1541 H 0.50953 0.59651 0.06887 0.0
H1542 H 0.49446 0.61195 0.07595 0.0
H1543 H 0.58314 0.67176 0.02429 0.0
H1544 H 0.57802 0.64259 0.0293 0.0
H1545 H 0.55631 0.64501 0.01779 0.0
H1546 H 0.54458 0.5643 0.03969 0.0
H1547 H 0.49059 0.56902 0.01307 0.0
H1548 H 0.55292 0.60743 0.06619 0.0
H1549 H 0.57599 0.62273 0.05254 0.0
H1550 H 0.56794 0.59279 0.05785 0.0
H1551 H 0.48824 0.6137 0.03257 0.0
H1552 H 0.48503 0.6021 0.01384 0.0
H1553 H 0.51168 0.62985 0.01926 0.0
C1554 C 0.8951 0.32218 0.95806 0.0
C1555 C 0.87207 0.31823 0.95366 0.0
C1556 C 0.91314 0.34459 0.96352 0.0
C1557 C 0.9079 0.3634 0.96491 0.0
C1558 C 0.88465 0.35952 0.96068 0.0
C1559 C 0.86713 0.33709 0.95498 0.0
C1560 C 0.93783 0.34816 0.96776 0.0
C1561 C 0.87828 0.37908 0.96218 0.0
C1562 C 0.9454 0.4148 0.9917 0.0
C1563 C 0.96033 0.43321 0.98196 0.0
C1564 C 0.92836 0.39195 0.98634 0.0
C1565 C 0.92665 0.38718 0.97083 0.0
C1566 C 0.94229 0.40541 0.96095 0.0
C1567 C 0.95872 0.42825 0.96664 0.0
C1568 C 0.91185 0.3731 0.99726 0.0
C1569 C 0.94129 0.40097 0.94434 0.0
H1570 H 0.89904 0.30769 0.95733 0.0
H1571 H 0.84962 0.33447 0.95137 0.0
H1572 H 0.95226 0.3632 0.96134 0.0
H1573 H 0.94158 0.35303 0.97975 0.0
H1574 H 0.93921 0.3319 0.96566 0.0
H1575 H 0.85916 0.37296 0.95879 0.0
H1576 H 0.88093 0.38557 0.9739 0.0
H1577 H 0.89061 0.39453 0.95518 0.0
H1578 H 0.94702 0.41816 0.00355 0.0
H1579 H 0.96973 0.44237 0.95901 0.0
H1580 H 0.9139 0.35706 0.99624 0.0
H1581 H 0.89255 0.36736 0.99464 0.0
H1582 H 0.91572 0.37964 0.009 0.0
H1583 H 0.94293 0.38494 0.94197 0.0
H1584 H 0.95598 0.41646 0.93833 0.0
H1585 H 0.92344 0.39735 0.93981 0.0
C1586 C 0.66394 0.52867 0.9718 0.0
C1587 C 0.66522 0.53134 0.95626 0.0
C1588 C 0.64365 0.52606 0.97977 0.0
C1589 C 0.62389 0.52551 0.97196 0.0
C1590 C 0.62484 0.52748 0.95621 0.0
C1591 C 0.64559 0.53067 0.94858 0.0
C1592 C 0.64359 0.52443 0.99654 0.0
C1593 C 0.604 0.52649 0.94739 0.0
C1594 C 0.56077 0.50058 0.98893 0.0
C1595 C 0.56 0.52158 0.99178 0.0
C1596 C 0.58185 0.50152 0.98317 0.0
C1597 C 0.60266 0.52402 0.98018 0.0
C1598 C 0.60232 0.54527 0.9838 0.0
C1599 C 0.58088 0.54377 0.98934 0.0
C1600 C 0.58125 0.4784 0.97944 0.0
C1601 C 0.62426 0.56963 0.98122 0.0
H1602 H 0.67917 0.52932 0.97777 0.0
H1603 H 0.64645 0.5325 0.93655 0.0
H1604 H 0.6416 0.53911 1.00157 0.0
H1605 H 0.6278 0.50729 1.00015 0.0
H1606 H 0.66053 0.52556 1.00097 0.0
H1607 H 0.60689 0.52676 0.93516 0.0
H1608 H 0.58671 0.51 0.95014 0.0
H1609 H 0.60178 0.54197 0.95043 0.0
H1610 H 0.54453 0.48338 0.99052 0.0
H1611 H 0.58025 0.56001 0.99147 0.0
H1612 H 0.59791 0.47877 0.98362 0.0
H1613 H 0.58074 0.47611 0.96714 0.0
H1614 H 0.56506 0.46263 0.98423 0.0
H1615 H 0.64086 0.57055 0.98604 0.0
H1616 H 0.62202 0.58423 0.98618 0.0
H1617 H 0.62726 0.57278 0.96906 0.0
C1618 C 0.47871 0.12578 0.9444 0.0
C1619 C 0.46809 0.13735 0.95184 0.0
C1620 C 0.48391 0.10992 0.952 0.0
C1621 C 0.47784 0.10528 0.96728 0.0
C1622 C 0.46728 0.11717 0.97484 0.0
C1623 C 0.46269 0.13327 0.96702 0.0
C1624 C 0.49555 0.09786 0.94364 0.0
C1625 C 0.4602 0.11237 0.99105 0.0
C1626 C 0.4673 0.04565 0.98141 0.0
C1627 C 0.48906 0.05247 0.98916 0.0
C1628 C 0.46321 0.06277 0.97452 0.0
C1629 C 0.48156 0.08719 0.97515 0.0
C1630 C 0.50354 0.0942 0.98303 0.0
C1631 C 0.50693 0.07674 0.99008 0.0
C1632 C 0.43931 0.05469 0.9665 0.0
C1633 C 0.52369 0.12001 0.98373 0.0
H1634 H 0.48283 0.12912 0.93263 0.0
H1635 H 0.45435 0.14227 0.97264 0.0
H1636 H 0.51223 0.10085 0.94959 0.0
H1637 H 0.48284 0.07826 0.94315 0.0
H1638 H 0.5005 0.10455 0.93206 0.0
H1639 H 0.45283 0.12363 0.99539 0.0
H1640 H 0.44618 0.09326 0.99245 0.0
H1641 H 0.47619 0.11576 0.99796 0.0
H1642 H 0.45337 0.02692 0.9808 0.0
H1643 H 0.52387 0.08206 0.99599 0.0
H1644 H 0.44264 0.05884 0.95446 0.0
H1645 H 0.43045 0.06453 0.97092 0.0
H1646 H 0.42651 0.03518 0.96766 0.0
H1647 H 0.53013 0.12654 0.9723 0.0
H1648 H 0.53947 0.1225 0.99056 0.0
H1649 H 0.51676 0.13135 0.98851 0.0
C1650 C 0.65075 0.10856 0.95261 0.0
C1651 C 0.67115 0.12622 0.96043 0.0
C1652 C 0.62974 0.09187 0.96013 0.0
C1653 C 0.62918 0.09242 0.97591 0.0
C1654 C 0.64953 0.11027 0.9839 0.0
C1655 C 0.67016 0.12709 0.97607 0.0
C1656 C 0.60826 0.07331 0.95116 0.0
C1657 C 0.64965 0.11137 1.00072 0.0
C1658 C 0.5656 0.05711 0.99196 0.0
C1659 C 0.56351 0.03464 0.99394 0.0
C1660 C 0.58747 0.07667 0.98704 0.0
C1661 C 0.6076 0.07354 0.9839 0.0
C1662 C 0.60597 0.05122 0.98675 0.0
C1663 C 0.5838 0.03194 0.99155 0.0
C1664 C 0.5883 0.10008 0.98416 0.0
C1665 C 0.62717 0.04728 0.98391 0.0
H1666 H 0.65134 0.10736 0.94058 0.0
H1667 H 0.68556 0.14091 0.98225 0.0
H1668 H 0.60517 0.0552 0.95369 0.0
H1669 H 0.59148 0.0736 0.95428 0.0
H1670 H 0.61101 0.07622 0.93895 0.0
H1671 H 0.66696 0.12629 0.0053 0.0
H1672 H 0.63435 0.11365 0.00465 0.0
H1673 H 0.64692 0.09429 0.00533 0.0
H1674 H 0.54982 0.05916 0.99344 0.0
H1675 H 0.58209 0.01449 0.99301 0.0
H1676 H 0.58696 0.10214 0.97197 0.0
H1677 H 0.60578 0.11544 0.98812 0.0
H1678 H 0.57307 0.10091 0.98969 0.0
H1679 H 0.62401 0.03 0.98849 0.0
H1680 H 0.64412 0.06202 0.98895 0.0
H1681 H 0.63017 0.04729 0.97172 0.0
C1682 C 0.87187 0.51448 0.94502 0.0
C1683 C 0.86212 0.52693 0.95262 0.0
C1684 C 0.89042 0.51137 0.95137 0.0
C1685 C 0.89869 0.5197 0.96607 0.0
C1686 C 0.88829 0.53132 0.97408 0.0
C1687 C 0.87067 0.53528 0.96718 0.0
C1688 C 0.90157 0.49965 0.94217 0.0
C1689 C 0.89556 0.53936 0.99002 0.0
C1690 C 0.93419 0.49239 0.98334 0.0
C1691 C 0.95823 0.51114 0.98204 0.0
C1692 C 0.91449 0.49552 0.97928 0.0
C1693 C 0.91907 0.51729 0.97267 0.0
C1694 C 0.94346 0.5362 0.97125 0.0
C1695 C 0.9627 0.53296 0.97612 0.0
C1696 C 0.88883 0.47532 0.98172 0.0
C1697 C 0.94935 0.55936 0.96378 0.0
H1698 H 0.86519 0.5071 0.93401 0.0
H1699 H 0.86396 0.54531 0.97327 0.0
H1700 H 0.92161 0.51168 0.94152 0.0
H1701 H 0.89833 0.48289 0.94754 0.0
H1702 H 0.89403 0.4953 0.93064 0.0
H1703 H 0.88673 0.54921 0.99451 0.0
H1704 H 0.89019 0.5234 0.99702 0.0
H1705 H 0.9156 0.55101 0.99101 0.0
H1706 H 0.93082 0.47521 0.98739 0.0
H1707 H 0.9814 0.54712 0.9746 0.0
H1708 H 0.87999 0.46747 0.97083 0.0
H1709 H 0.87786 0.48216 0.98727 0.0
H1710 H 0.88839 0.4609 0.98864 0.0
H1711 H 0.94266 0.55568 0.95206 0.0
H1712 H 0.96922 0.57241 0.96375 0.0
H1713 H 0.93993 0.56772 0.96949 0.0
C1714 C 0.44104 0.32214 0.96414 0.0
C1715 C 0.45438 0.32235 0.95161 0.0
C1716 C 0.44609 0.34349 0.97138 0.0
C1717 C 0.46457 0.3656 0.96577 0.0
C1718 C 0.47791 0.36601 0.95304 0.0
C1719 C 0.47284 0.34439 0.94623 0.0
C1720 C 0.43173 0.3424 0.98506 0.0
C1721 C 0.49759 0.3893 0.94666 0.0
C1722 C 0.46328 0.42197 0.97632 0.0
C1723 C 0.48156 0.43199 0.98732 0.0
C1724 C 0.45757 0.40037 0.96918 0.0
C1725 C 0.4702 0.38834 0.97331 0.0
C1726 C 0.48856 0.39827 0.98444 0.0
C1727 C 0.49425 0.42013 0.99115 0.0
C1728 C 0.43824 0.39055 0.9571 0.0
C1729 C 0.50223 0.38582 0.98928 0.0
H1730 H 0.42648 0.30528 0.96826 0.0
H1731 H 0.4836 0.34478 0.93675 0.0
H1732 H 0.4443 0.35119 0.99464 0.0
H1733 H 0.42187 0.3523 0.98309 0.0
H1734 H 0.41827 0.32373 0.98817 0.0
H1735 H 0.50564 0.38656 0.93636 0.0
H1736 H 0.49004 0.4011 0.94401 0.0
H1737 H 0.51236 0.39887 0.95501 0.0
H1738 H 0.45348 0.43106 0.97318 0.0
H1739 H 0.50883 0.42797 0.99933 0.0
H1740 H 0.4234 0.37245 0.96015 0.0
H1741 H 0.44616 0.3887 0.9465 0.0
H1742 H 0.43022 0.40218 0.95515 0.0
H1743 H 0.4892 0.36756 0.99326 0.0
H1744 H 0.51563 0.39571 0.99833 0.0
H1745 H 0.51207 0.38383 0.97966 0.0
C1746 C 0.13827 0.66104 0.05592 0.0
C1747 C 0.1373 0.68205 0.05369 0.0
C1748 C 0.12203 0.63964 0.0485 0.0
C1749 C 0.10445 0.63924 0.03854 0.0
C1750 C 0.10351 0.66041 0.03611 0.0
C1751 C 0.11988 0.68153 0.04374 0.0
C1752 C 0.12356 0.6174 0.05142 0.0
C1753 C 0.08501 0.66067 0.02557 0.0
C1754 C 0.07553 0.58781 0.0105 0.0
C1755 C 0.05334 0.57227 0.01741 0.0
C1756 C 0.09218 0.60987 0.01711 0.0
C1757 C 0.0866 0.61645 0.03102 0.0
C1758 C 0.06415 0.60097 0.03797 0.0
C1759 C 0.04778 0.57914 0.03107 0.0
C1760 C 0.11586 0.62603 0.0093 0.0
C1761 C 0.05759 0.60726 0.05285 0.0
H1762 H 0.15192 0.66136 0.06338 0.0
H1763 H 0.11879 0.69759 0.04209 0.0
H1764 H 0.10606 0.60322 0.05605 0.0
H1765 H 0.12662 0.61038 0.04082 0.0
H1766 H 0.13846 0.62078 0.05936 0.0
H1767 H 0.08728 0.67881 0.02448 0.0
H1768 H 0.0866 0.65423 0.01436 0.0
H1769 H 0.06632 0.6483 0.0296 0.0
H1770 H 0.07997 0.58273 0.99993 0.0
H1771 H 0.03074 0.56728 0.03656 0.0
H1772 H 0.13142 0.6286 0.01635 0.0
H1773 H 0.11784 0.64394 0.00762 0.0
H1774 H 0.11706 0.61871 0.99829 0.0
H1775 H 0.07113 0.60922 0.06144 0.0
H1776 H 0.03918 0.59349 0.05662 0.0
H1777 H 0.05816 0.62469 0.05216 0.0
C1778 C 0.34868 0.46294 0.06122 0.0
C1779 C 0.32883 0.46098 0.05299 0.0
C1780 C 0.37018 0.46688 0.05417 0.0
C1781 C 0.37187 0.46837 0.03842 0.0
C1782 C 0.35205 0.46659 0.03002 0.0
C1783 C 0.33097 0.46322 0.03738 0.0
C1784 C 0.39095 0.46899 0.06361 0.0
C1785 C 0.35296 0.46788 0.01323 0.0
C1786 C 0.43605 0.49474 0.02262 0.0
C1787 C 0.43771 0.4741 0.0203 0.0
C1788 C 0.41436 0.4932 0.02783 0.0
C1789 C 0.39387 0.47045 0.03083 0.0
C1790 C 0.39518 0.44955 0.02775 0.0
C1791 C 0.41715 0.45165 0.02273 0.0
C1792 C 0.41394 0.51598 0.03095 0.0
C1793 C 0.37366 0.42492 0.03036 0.0
H1794 H 0.34733 0.46089 0.07321 0.0
H1795 H 0.31614 0.46233 0.03084 0.0
H1796 H 0.39385 0.45372 0.06117 0.0
H1797 H 0.40808 0.48563 0.06084 0.0
H1798 H 0.38752 0.46917 0.07574 0.0
H1799 H 0.33584 0.46562 0.00827 0.0
H1800 H 0.3683 0.48539 0.00973 0.0
H1801 H 0.35625 0.45375 0.00864 0.0
H1802 H 0.45201 0.51216 0.02102 0.0
H1803 H 0.41845 0.43568 0.02099 0.0
H1804 H 0.41394 0.51866 0.04319 0.0
H1805 H 0.39711 0.51483 0.02635 0.0
H1806 H 0.42997 0.53188 0.02615 0.0
H1807 H 0.37007 0.42215 0.04249 0.0
H1808 H 0.37677 0.41054 0.02596 0.0
H1809 H 0.35705 0.42319 0.02498 0.0
C1810 C 0.55508 0.87731 0.04559 0.0
C1811 C 0.54188 0.86415 0.05803 0.0
C1812 C 0.54927 0.89307 0.03841 0.0
C1813 C 0.53007 0.89607 0.04395 0.0
C1814 C 0.51655 0.88276 0.0564 0.0
C1815 C 0.5225 0.86683 0.06323 0.0
C1816 C 0.56395 0.90682 0.02505 0.0
C1817 C 0.49608 0.88567 0.06269 0.0
C1818 C 0.53262 0.95474 0.0355 0.0
C1819 C 0.51535 0.94805 0.02396 0.0
C1820 C 0.53739 0.93793 0.04218 0.0
C1821 C 0.52483 0.91389 0.03707 0.0
C1822 C 0.50739 0.90698 0.02544 0.0
C1823 C 0.50264 0.92409 0.01915 0.0
C1824 C 0.55586 0.94589 0.05473 0.0
C1825 C 0.49382 0.88156 0.01959 0.0
H1826 H 0.57032 0.87569 0.04162 0.0
H1827 H 0.5119 0.85644 0.07265 0.0
H1828 H 0.55165 0.9041 0.01549 0.0
H1829 H 0.57403 0.92625 0.02769 0.0
H1830 H 0.57728 0.90134 0.02158 0.0
H1831 H 0.48707 0.87368 0.07228 0.0
H1832 H 0.50325 0.90445 0.06643 0.0
H1833 H 0.48217 0.88183 0.05393 0.0
H1834 H 0.54244 0.97314 0.0394 0.0
H1835 H 0.48887 0.91859 0.0105 0.0
H1836 H 0.57098 0.94279 0.05158 0.0
H1837 H 0.54726 0.93517 0.06484 0.0
H1838 H 0.56366 0.96514 0.0576 0.0
H1839 H 0.50697 0.87629 0.01546 0.0
H1840 H 0.48101 0.87918 0.01038 0.0
H1841 H 0.48336 0.86916 0.02871 0.0
C1842 C 0.0224 0.22588 0.39597 0.0
C1843 C 0.00195 0.20858 0.38811 0.0
C1844 C 0.04316 0.243 0.38841 0.0
C1845 C 0.04319 0.2432 0.3726 0.0
C1846 C 0.02253 0.22569 0.36462 0.0
C1847 C 0.00224 0.20836 0.37249 0.0
C1848 C 0.06501 0.26098 0.39737 0.0
C1849 C 0.02166 0.22554 0.34781 0.0
C1850 C 0.0887 0.30421 0.35745 0.0
C1851 C 0.1085 0.30113 0.35405 0.0
C1852 C 0.06664 0.28498 0.36247 0.0
C1853 C 0.06465 0.26233 0.3646 0.0
C1854 C 0.08431 0.25891 0.36056 0.0
C1855 C 0.10602 0.27839 0.35535 0.0
C1856 C 0.0459 0.28923 0.3662 0.0
C1857 C 0.08317 0.2352 0.36272 0.0
H1858 H 0.0222 0.22588 0.40807 0.0
H1859 H 0.98632 0.195 0.36644 0.0
H1860 H 0.08154 0.26055 0.3938 0.0
H1861 H 0.06831 0.27929 0.39531 0.0
H1862 H 0.06257 0.25754 0.40955 0.0
H1863 H 0.00414 0.2109 0.34327 0.0
H1864 H 0.02427 0.2429 0.34382 0.0
H1865 H 0.03673 0.22342 0.34326 0.0
H1866 H 0.09069 0.32184 0.3565 0.0
H1867 H 0.12144 0.27604 0.35307 0.0
H1868 H 0.04352 0.28875 0.37847 0.0
H1869 H 0.02859 0.27488 0.36127 0.0
H1870 H 0.04916 0.3068 0.36211 0.0
H1871 H 0.0846 0.23243 0.3748 0.0
H1872 H 0.09818 0.23441 0.35685 0.0
H1873 H 0.06553 0.22021 0.35864 0.0
C1874 C 0.80016 0.79777 0.37217 0.0
C1875 C 0.8001 0.79564 0.38772 0.0
C1876 C 0.78228 0.80083 0.3648 0.0
C1877 C 0.7642 0.8024 0.37319 0.0
C1878 C 0.76443 0.8008 0.38895 0.0
C1879 C 0.78218 0.79719 0.396 0.0
C1880 C 0.78259 0.80206 0.34803 0.0
C1881 C 0.74581 0.80278 0.39839 0.0
C1882 C 0.72785 0.82977 0.35716 0.0
C1883 C 0.70513 0.80937 0.35435 0.0
C1884 C 0.74758 0.8278 0.36269 0.0
C1885 C 0.74449 0.80487 0.36559 0.0
C1886 C 0.7218 0.78421 0.36221 0.0
C1887 C 0.70235 0.78673 0.35682 0.0
C1888 C 0.77136 0.85033 0.36609 0.0
C1889 C 0.71781 0.75941 0.36475 0.0
H1890 H 0.81388 0.79643 0.36572 0.0
H1891 H 0.78222 0.79579 0.40804 0.0
H1892 H 0.76459 0.78848 0.34343 0.0
H1893 H 0.786 0.81993 0.34457 0.0
H1894 H 0.79686 0.79901 0.34307 0.0
H1895 H 0.74915 0.8023 0.41052 0.0
H1896 H 0.74603 0.81972 0.39592 0.0
H1897 H 0.72728 0.78785 0.39564 0.0
H1898 H 0.73001 0.84733 0.35556 0.0
H1899 H 0.68475 0.77094 0.35472 0.0
H1900 H 0.78677 0.8494 0.36096 0.0
H1901 H 0.77454 0.85214 0.37833 0.0
H1902 H 0.7715 0.86661 0.36197 0.0
H1903 H 0.73247 0.75746 0.35937 0.0
H1904 H 0.69993 0.74524 0.36031 0.0
H1905 H 0.71858 0.75651 0.37688 0.0
C1906 C 0.22758 0.01026 0.38113 0.0
C1907 C 0.21402 0.01046 0.39338 0.0
C1908 C 0.22218 0.98868 0.37407 0.0
C1909 C 0.20311 0.96684 0.37963 0.0
C1910 C 0.18955 0.96695 0.39212 0.0
C1911 C 0.19503 0.98883 0.39877 0.0
C1912 C 0.23669 0.98927 0.36059 0.0
C1913 C 0.16937 0.94397 0.39851 0.0
C1914 C 0.17371 0.91221 0.35425 0.0
C1915 C 0.18611 0.90018 0.35837 0.0
C1916 C 0.17931 0.93409 0.36092 0.0
C1917 C 0.19725 0.94385 0.37231 0.0
C1918 C 0.20949 0.9316 0.37677 0.0
C1919 C 0.20393 0.91001 0.36966 0.0
C1920 C 0.16607 0.94678 0.35572 0.0
C1921 C 0.22838 0.94123 0.38911 0.0
H1922 H 0.24214 0.02706 0.37692 0.0
H1923 H 0.18471 0.98906 0.40833 0.0
H1924 H 0.24595 0.97885 0.36277 0.0
H1925 H 0.22429 0.98075 0.3509 0.0
H1926 H 0.25067 0.00779 0.35754 0.0
H1927 H 0.16096 0.94715 0.40848 0.0
H1928 H 0.15496 0.93427 0.38997 0.0
H1929 H 0.1766 0.9321 0.4017 0.0
H1930 H 0.15949 0.90454 0.34584 0.0
H1931 H 0.2135 0.9008 0.37303 0.0
H1932 H 0.17941 0.96493 0.35173 0.0
H1933 H 0.15609 0.94905 0.36515 0.0
H1934 H 0.15287 0.93693 0.34657 0.0
H1935 H 0.24368 0.95908 0.38604 0.0
H1936 H 0.23583 0.92924 0.39148 0.0
H1937 H 0.22028 0.94361 0.39948 0.0
C1938 C 0.54469 0.68083 0.27628 0.0
C1939 C 0.53158 0.66057 0.28512 0.0
C1940 C 0.56189 0.70282 0.2827 0.0
C1941 C 0.5665 0.7043 0.29826 0.0
C1942 C 0.55339 0.68373 0.30719 0.0
C1943 C 0.53583 0.66214 0.30052 0.0
C1944 C 0.57501 0.72448 0.27287 0.0
C1945 C 0.55817 0.68447 0.32376 0.0
C1946 C 0.62693 0.75562 0.31244 0.0
C1947 C 0.61965 0.77099 0.31867 0.0
C1948 C 0.60978 0.73372 0.30587 0.0
C1949 C 0.58491 0.7274 0.3052 0.0
C1950 C 0.57759 0.74311 0.31125 0.0
C1951 C 0.595 0.76458 0.31804 0.0
C1952 C 0.61819 0.71716 0.29986 0.0
C1953 C 0.55137 0.73732 0.31051 0.0
H1954 H 0.54126 0.67947 0.26435 0.0
H1955 H 0.52574 0.64631 0.30727 0.0
H1956 H 0.57199 0.73903 0.27702 0.0
H1957 H 0.59492 0.73133 0.2733 0.0
H1958 H 0.56881 0.72046 0.26106 0.0
H1959 H 0.54676 0.6668 0.32906 0.0
H1960 H 0.57764 0.69031 0.3258 0.0
H1961 H 0.55447 0.69774 0.3293 0.0
H1962 H 0.64594 0.76044 0.31301 0.0
H1963 H 0.58929 0.77649 0.32277 0.0
H1964 H 0.61392 0.71384 0.28778 0.0
H1965 H 0.60828 0.6996 0.3055 0.0
H1966 H 0.63808 0.72453 0.30148 0.0
H1967 H 0.5449 0.73409 0.29875 0.0
H1968 H 0.54888 0.7519 0.31525 0.0
H1969 H 0.53964 0.72067 0.31673 0.0
C1970 C 0.33745 0.86941 0.30786 0.0
C1971 C 0.33936 0.87155 0.29229 0.0
C1972 C 0.31638 0.866 0.31525 0.0
C1973 C 0.29649 0.86416 0.30688 0.0
C1974 C 0.29811 0.86563 0.29111 0.0
C1975 C 0.31958 0.86955 0.28404 0.0
C1976 C 0.31564 0.86491 0.33204 0.0
C1977 C 0.27724 0.86333 0.28169 0.0
C1978 C 0.23238 0.83766 0.32283 0.0
C1979 C 0.23067 0.85826 0.3252 0.0
C1980 C 0.25406 0.83927 0.31755 0.0
C1981 C 0.27449 0.86204 0.3145 0.0
C1982 C 0.27311 0.8829 0.31758 0.0
C1983 C 0.25116 0.88074 0.32268 0.0
C1984 C 0.25458 0.81652 0.31445 0.0
C1985 C 0.29454 0.90755 0.31489 0.0
H1986 H 0.35274 0.87107 0.31429 0.0
H1987 H 0.32086 0.8709 0.27199 0.0
H1988 H 0.31269 0.87929 0.33659 0.0
H1989 H 0.30014 0.84755 0.33564 0.0
H1990 H 0.33269 0.86694 0.33696 0.0
H1991 H 0.28076 0.86338 0.26956 0.0
H1992 H 0.26025 0.84651 0.28439 0.0
H1993 H 0.27404 0.87839 0.28423 0.0
H1994 H 0.21647 0.82022 0.32449 0.0
H1995 H 0.24982 0.89668 0.32445 0.0
H1996 H 0.27135 0.8177 0.31916 0.0
H1997 H 0.2548 0.81392 0.30222 0.0
H1998 H 0.23849 0.80058 0.31916 0.0
H1999 H 0.31123 0.90939 0.32021 0.0
H2000 H 0.2914 0.92191 0.31928 0.0
H2001 H 0.29802 0.91026 0.30274 0.0
C2002 C 0.14269 0.45971 0.27981 0.0
C2003 C 0.13507 0.47373 0.28751 0.0
C2004 C 0.14807 0.44403 0.28748 0.0
C2005 C 0.1451 0.44191 0.30315 0.0
C2006 C 0.13756 0.4562 0.31098 0.0
C2007 C 0.13291 0.4722 0.30306 0.0
C2008 C 0.15659 0.42948 0.27878 0.0
C2009 C 0.13363 0.45401 0.32763 0.0
C2010 C 0.13343 0.38251 0.31845 0.0
C2011 C 0.15628 0.3886 0.32443 0.0
C2012 C 0.12932 0.39991 0.31201 0.0
C2013 C 0.14873 0.42385 0.31118 0.0
C2014 C 0.17176 0.43017 0.31742 0.0
C2015 C 0.17518 0.41249 0.32416 0.0
C2016 C 0.10432 0.39259 0.30584 0.0
C2017 C 0.19303 0.45539 0.31649 0.0
H2018 H 0.14446 0.46109 0.26778 0.0
H2019 H 0.12684 0.483 0.30894 0.0
H2020 H 0.17379 0.43189 0.28367 0.0
H2021 H 0.14281 0.41018 0.27948 0.0
H2022 H 0.15967 0.43452 0.26683 0.0
H2023 H 0.12855 0.467 0.3321 0.0
H2024 H 0.11891 0.43564 0.33032 0.0
H2025 H 0.15037 0.4569 0.33345 0.0
H2026 H 0.11872 0.36409 0.31881 0.0
H2027 H 0.19291 0.41722 0.32872 0.0
H2028 H 0.10524 0.39473 0.29355 0.0
H2029 H 0.09776 0.40433 0.31048 0.0
H2030 H 0.09076 0.3737 0.30842 0.0
H2031 H 0.19771 0.46022 0.30461 0.0
H2032 H 0.20944 0.45755 0.32242 0.0
H2033 H 0.18808 0.46824 0.3213 0.0
C2034 C 0.34054 0.45411 0.30757 0.0
C2035 C 0.33948 0.46078 0.29278 0.0
C2036 C 0.31944 0.43738 0.31508 0.0
C2037 C 0.29673 0.42627 0.3075 0.0
C2038 C 0.29539 0.43294 0.29268 0.0
C2039 C 0.31656 0.45047 0.28568 0.0
C2040 C 0.32146 0.43186 0.33118 0.0
C2041 C 0.27168 0.421 0.28399 0.0
C2042 C 0.24776 0.36379 0.31837 0.0
C2043 C 0.22982 0.368 0.32431 0.0
C2044 C 0.26995 0.38269 0.31331 0.0
C2045 C 0.27459 0.40651 0.31457 0.0
C2046 C 0.25706 0.41097 0.32131 0.0
C2047 C 0.23456 0.3916 0.32567 0.0
C2048 C 0.2879 0.37705 0.30592 0.0
C2049 C 0.26177 0.43614 0.32357 0.0
H2050 H 0.35791 0.46157 0.31331 0.0
H2051 H 0.31499 0.4559 0.27453 0.0
H2052 H 0.31328 0.4401 0.33828 0.0
H2053 H 0.31128 0.41231 0.3332 0.0
H2054 H 0.3407 0.4391 0.33477 0.0
H2055 H 0.27383 0.42777 0.27241 0.0
H2056 H 0.26436 0.40138 0.28349 0.0
H2057 H 0.25791 0.424 0.28968 0.0
H2058 H 0.24399 0.34552 0.31712 0.0
H2059 H 0.22056 0.39497 0.32983 0.0
H2060 H 0.30583 0.38677 0.31168 0.0
H2061 H 0.2907 0.38319 0.29419 0.0
H2062 H 0.28165 0.35761 0.30598 0.0
H2063 H 0.27958 0.44722 0.32928 0.0
H2064 H 0.2473 0.43662 0.33029 0.0
H2065 H 0.26275 0.44446 0.31262 0.0
C2066 C 0.54011 0.87202 0.30653 0.0
C2067 C 0.53972 0.87376 0.29092 0.0
C2068 C 0.55831 0.86942 0.31387 0.0
C2069 C 0.57638 0.86793 0.30545 0.0
C2070 C 0.57586 0.86919 0.28969 0.0
C2071 C 0.55777 0.87232 0.28265 0.0
C2072 C 0.55814 0.86827 0.33064 0.0
C2073 C 0.5946 0.86746 0.28022 0.0
C2074 C 0.63839 0.8838 0.32175 0.0
C2075 C 0.63572 0.86118 0.32413 0.0
C2076 C 0.61886 0.88626 0.3164 0.0
C2077 C 0.5962 0.86557 0.31302 0.0
C2078 C 0.5932 0.84267 0.31587 0.0
C2079 C 0.61303 0.84077 0.32129 0.0
C2080 C 0.62276 0.91103 0.31387 0.0
C2081 C 0.56945 0.82008 0.3125 0.0
H2082 H 0.52606 0.87253 0.3131 0.0
H2083 H 0.55807 0.87402 0.27063 0.0
H2084 H 0.55432 0.85027 0.3341 0.0
H2085 H 0.57629 0.88157 0.33521 0.0
H2086 H 0.54418 0.87174 0.33565 0.0
H2087 H 0.59114 0.86777 0.26809 0.0
H2088 H 0.61305 0.88258 0.28291 0.0
H2089 H 0.59467 0.85067 0.28273 0.0
H2090 H 0.65598 0.89961 0.32381 0.0
H2091 H 0.61095 0.82324 0.32269 0.0
H2092 H 0.60812 0.91294 0.31931 0.0
H2093 H 0.62186 0.91389 0.30175 0.0
H2094 H 0.64066 0.92523 0.31826 0.0
H2095 H 0.55395 0.82115 0.31735 0.0
H2096 H 0.5692 0.8039 0.31691 0.0
H2097 H 0.56654 0.81796 0.30025 0.0
C2098 C 0.13861 0.6787 0.2797 0.0
C2099 C 0.11917 0.65696 0.28476 0.0
C2100 C 0.14461 0.70048 0.28669 0.0
C2101 C 0.13127 0.70054 0.2993 0.0
C2102 C 0.11186 0.67872 0.30461 0.0
C2103 C 0.10586 0.65723 0.29718 0.0
C2104 C 0.16524 0.72344 0.28057 0.0
C2105 C 0.09746 0.67809 0.31817 0.0
C2106 C 0.16221 0.75502 0.32478 0.0
C2107 C 0.15046 0.76769 0.32072 0.0
C2108 C 0.15573 0.73286 0.31817 0.0
C2109 C 0.13761 0.7235 0.30686 0.0
C2110 C 0.12595 0.73635 0.30251 0.0
C2111 C 0.13235 0.75818 0.30959 0.0
C2112 C 0.16835 0.71951 0.32326 0.0
C2113 C 0.10693 0.7272 0.29025 0.0
H2114 H 0.1494 0.67873 0.27034 0.0
H2115 H 0.09059 0.64065 0.30107 0.0
H2116 H 0.1586 0.73596 0.27783 0.0
H2117 H 0.17981 0.73238 0.28912 0.0
H2118 H 0.17329 0.72038 0.27039 0.0
H2119 H 0.08343 0.65956 0.32118 0.0
H2120 H 0.10992 0.68647 0.32785 0.0
H2121 H 0.08828 0.68861 0.3161 0.0
H2122 H 0.17666 0.76245 0.33305 0.0
H2123 H 0.12326 0.76787 0.30626 0.0
H2124 H 0.17865 0.71761 0.31388 0.0
H2125 H 0.15464 0.7012 0.32681 0.0
H2126 H 0.18119 0.72872 0.33269 0.0
H2127 H 0.11487 0.72498 0.27976 0.0
H2128 H 0.09969 0.73944 0.28813 0.0
H2129 H 0.09152 0.70936 0.29319 0.0
C2130 C 0.80342 0.98823 0.40037 0.0
C2131 C 0.80692 0.01011 0.39494 0.0
C2132 C 0.7859 0.96632 0.39401 0.0
C2133 C 0.77197 0.96619 0.38161 0.0
C2134 C 0.77543 0.9881 0.37599 0.0
C2135 C 0.79256 0.00973 0.38284 0.0
C2136 C 0.78245 0.94329 0.4005 0.0
C2137 C 0.76124 0.98873 0.3626 0.0
C2138 C 0.74552 0.91166 0.35605 0.0
C2139 C 0.72074 0.89983 0.35981 0.0
C2140 C 0.76228 0.93338 0.36291 0.0
C2141 C 0.75428 0.94316 0.37424 0.0
C2142 C 0.72946 0.93097 0.37846 0.0
C2143 C 0.71293 0.90958 0.37109 0.0
C2144 C 0.7885 0.94598 0.35788 0.0
C2145 C 0.72038 0.94048 0.3908 0.0
H2146 H 0.8146 0.98815 0.4095 0.0
H2147 H 0.79458 0.02635 0.3787 0.0
H2148 H 0.76298 0.93122 0.40324 0.0
H2149 H 0.78758 0.93383 0.39216 0.0
H2150 H 0.79358 0.94638 0.41075 0.0
H2151 H 0.76634 0.00727 0.35945 0.0
H2152 H 0.76448 0.9799 0.35292 0.0
H2153 H 0.74143 0.97861 0.36494 0.0
H2154 H 0.75198 0.90398 0.34773 0.0
H2155 H 0.6939 0.90049 0.37424 0.0
H2156 H 0.80072 0.94835 0.36741 0.0
H2157 H 0.7937 0.96409 0.35376 0.0
H2158 H 0.79173 0.93603 0.34886 0.0
H2159 H 0.73094 0.94282 0.40119 0.0
H2160 H 0.70072 0.92843 0.39312 0.0
H2161 H 0.72321 0.95833 0.38777 0.0
C2162 C 0.02031 0.80064 0.39539 0.0
C2163 C 1.00038 0.79873 0.38728 0.0
C2164 C 0.04156 0.8042 0.38819 0.0
C2165 C 0.04292 0.80539 0.37242 0.0
C2166 C 0.02301 0.80365 0.36415 0.0
C2167 C 0.00218 0.80065 0.37166 0.0
C2168 C 0.06244 0.80623 0.39749 0.0
C2169 C 0.02358 0.80473 0.34735 0.0
C2170 C 0.10671 0.83112 0.35614 0.0
C2171 C 0.10812 0.81034 0.35379 0.0
C2172 C 0.08522 0.82982 0.36152 0.0
C2173 C 0.06469 0.80719 0.36469 0.0
C2174 C 0.06574 0.78615 0.36161 0.0
C2175 C 0.08751 0.78801 0.35639 0.0
C2176 C 0.08506 0.85274 0.36461 0.0
C2177 C 0.04415 0.76164 0.3644 0.0
H2178 H 0.0192 0.79883 0.4074 0.0
H2179 H 0.98728 0.79981 0.36522 0.0
H2180 H 0.06515 0.79085 0.39504 0.0
H2181 H 0.07958 0.82276 0.3946 0.0
H2182 H 0.05924 0.80656 0.40964 0.0
H2183 H 0.00603 0.80149 0.34249 0.0
H2184 H 0.03821 0.82261 0.34378 0.0
H2185 H 0.0278 0.79124 0.34272 0.0
H2186 H 0.12271 0.84845 0.35443 0.0
H2187 H 0.08862 0.77193 0.35465 0.0
H2188 H 0.08504 0.85545 0.37684 0.0
H2189 H 0.06832 0.85174 0.35998 0.0
H2190 H 0.10119 0.86855 0.35982 0.0
H2191 H 0.04071 0.75909 0.37656 0.0
H2192 H 0.04707 0.7471 0.36006 0.0
H2193 H 0.02752 0.75995 0.35907 0.0
C2194 C 0.2087 0.19953 0.37401 0.0
C2195 C 0.20754 0.19811 0.38965 0.0
C2196 C 0.20314 0.21508 0.36631 0.0
C2197 C 0.19564 0.22914 0.3744 0.0
C2198 C 0.19359 0.22723 0.39011 0.0
C2199 C 0.19985 0.212 0.39755 0.0
C2200 C 0.20594 0.21695 0.34957 0.0
C2201 C 0.18527 0.24169 0.3991 0.0
C2202 C 0.20574 0.28797 0.3591 0.0
C2203 C 0.18253 0.28153 0.35359 0.0
C2204 C 0.21043 0.27087 0.36541 0.0
C2205 C 0.19126 0.24688 0.36658 0.0
C2206 C 0.16785 0.24019 0.36082 0.0
C2207 C 0.16385 0.25758 0.35419 0.0
C2208 C 0.23582 0.27857 0.37104 0.0
C2209 C 0.14682 0.21492 0.36216 0.0
H2210 H 0.21406 0.18853 0.36773 0.0
H2211 H 0.19922 0.21142 0.40962 0.0
H2212 H 0.18861 0.2133 0.34421 0.0
H2213 H 0.21998 0.23544 0.34656 0.0
H2214 H 0.21134 0.20431 0.34489 0.0
H2215 H 0.18264 0.23664 0.41106 0.0
H2216 H 0.19895 0.261 0.39834 0.0
H2217 H 0.16786 0.23921 0.39451 0.0
H2218 H 0.22029 0.30642 0.35847 0.0
H2219 H 0.14585 0.2526 0.34997 0.0
H2220 H 0.24235 0.26698 0.36613 0.0
H2221 H 0.23558 0.27654 0.38332 0.0
H2222 H 0.24904 0.29749 0.36831 0.0
H2223 H 0.15171 0.20206 0.35727 0.0
H2224 H 0.13006 0.21244 0.35653 0.0
H2225 H 0.14276 0.21039 0.37411 0.0
C2226 C 0.6694 0.53944 0.7044 0.0
C2227 C 0.66893 0.54017 0.72003 0.0
C2228 C 0.6899 0.55627 0.69645 0.0
C2229 C 0.71055 0.57394 0.70436 0.0
C2230 C 0.71039 0.57426 0.72017 0.0
C2231 C 0.6895 0.55753 0.72779 0.0
C2232 C 0.68925 0.55551 0.67963 0.0
C2233 C 0.73218 0.59251 0.72904 0.0
C2234 C 0.77359 0.6095 0.6874 0.0
C2235 C 0.77558 0.63198 0.68572 0.0
C2236 C 0.75194 0.5899 0.69259 0.0
C2237 C 0.73193 0.59298 0.69627 0.0
C2238 C 0.73347 0.61534 0.69373 0.0
C2239 C 0.7554 0.63465 0.68867 0.0
C2240 C 0.75116 0.56643 0.69508 0.0
C2241 C 0.7124 0.61926 0.69713 0.0
H2242 H 0.65344 0.52608 0.69837 0.0
H2243 H 0.68928 0.55792 0.73988 0.0
H2244 H 0.69141 0.57253 0.6753 0.0
H2245 H 0.70466 0.55374 0.67532 0.0
H2246 H 0.67196 0.54044 0.67515 0.0
H2247 H 0.72968 0.58944 0.74125 0.0
H2248 H 0.74875 0.592 0.72566 0.0
H2249 H 0.73547 0.61075 0.72671 0.0
H2250 H 0.7893 0.60747 0.68538 0.0
H2251 H 0.75702 0.65209 0.68741 0.0
H2252 H 0.73372 0.55121 0.69097 0.0
H2253 H 0.75239 0.56392 0.70723 0.0
H2254 H 0.76644 0.56582 0.68945 0.0
H2255 H 0.69527 0.60464 0.6922 0.0
H2256 H 0.71543 0.63663 0.69282 0.0
H2257 H 0.70985 0.61902 0.70938 0.0
C2258 C 0.44923 0.13797 0.73144 0.0
C2259 C 0.46759 0.13659 0.72357 0.0
C2260 C 0.43132 0.14082 0.72395 0.0
C2261 C 0.43135 0.14176 0.70815 0.0
C2262 C 0.44992 0.14042 0.70017 0.0
C2263 C 0.46795 0.13814 0.70797 0.0
C2264 C 0.41219 0.14263 0.73295 0.0
C2265 C 0.45051 0.14093 0.68339 0.0
C2266 C 0.36941 0.124 0.69095 0.0
C2267 C 0.37167 0.14629 0.68794 0.0
C2268 C 0.38909 0.12224 0.69678 0.0
C2269 C 0.41146 0.14334 0.70007 0.0
C2270 C 0.41403 0.16591 0.69664 0.0
C2271 C 0.39409 0.16709 0.69068 0.0
C2272 C 0.38565 0.0978 0.69991 0.0
C2273 C 0.43741 0.1889 0.69994 0.0
H2274 H 0.449 0.13695 0.74351 0.0
H2275 H 0.48199 0.13687 0.70184 0.0
H2276 H 0.41195 0.15919 0.73002 0.0
H2277 H 0.3939 0.12727 0.73025 0.0
H2278 H 0.41538 0.1428 0.74516 0.0
H2279 H 0.46566 0.13891 0.67881 0.0
H2280 H 0.43303 0.1263 0.67884 0.0
H2281 H 0.45264 0.15812 0.67948 0.0
H2282 H 0.35203 0.1079 0.68895 0.0
H2283 H 0.39582 0.18439 0.68876 0.0
H2284 H 0.38616 0.09542 0.71212 0.0
H2285 H 0.40071 0.09606 0.69494 0.0
H2286 H 0.36805 0.08318 0.69543 0.0
H2287 H 0.44008 0.19144 0.7122 0.0
H2288 H 0.43734 0.20473 0.6952 0.0
H2289 H 0.45324 0.18809 0.69539 0.0
C2290 C 0.8596 0.3231 0.7345 0.0
C2291 C 0.87953 0.34496 0.73019 0.0
C2292 C 0.85386 0.30175 0.72696 0.0
C2293 C 0.86814 0.30241 0.71464 0.0
C2294 C 0.88803 0.32455 0.71009 0.0
C2295 C 0.89364 0.34554 0.71802 0.0
C2296 C 0.8328 0.27844 0.73233 0.0
C2297 C 0.90338 0.32605 0.69684 0.0
C2298 C 0.86909 0.24586 0.70393 0.0
C2299 C 0.85204 0.23669 0.69218 0.0
C2300 C 0.87436 0.26713 0.71137 0.0
C2301 C 0.86268 0.27986 0.70679 0.0
C2302 C 0.84568 0.27091 0.69484 0.0
C2303 C 0.8403 0.24927 0.68783 0.0
C2304 C 0.89227 0.27584 0.72424 0.0
C2305 C 0.8331 0.28414 0.68947 0.0
H2306 H 0.84878 0.32266 0.74397 0.0
H2307 H 0.9089 0.36251 0.71459 0.0
H2308 H 0.81928 0.26958 0.72321 0.0
H2309 H 0.83944 0.26611 0.73557 0.0
H2310 H 0.82348 0.28101 0.74205 0.0
H2311 H 0.91755 0.34476 0.69436 0.0
H2312 H 0.91249 0.31548 0.69896 0.0
H2313 H 0.89162 0.3182 0.68682 0.0
H2314 H 0.87821 0.23631 0.70748 0.0
H2315 H 0.82675 0.24217 0.67901 0.0
H2316 H 0.88338 0.27754 0.73446 0.0
H2317 H 0.90785 0.29385 0.7218 0.0
H2318 H 0.89945 0.26361 0.7266 0.0
H2319 H 0.82179 0.28521 0.69852 0.0
H2320 H 0.82123 0.27535 0.67959 0.0
H2321 H 0.84685 0.30276 0.6865 0.0
C2322 C 0.20452 0.01456 0.61163 0.0
C2323 C 0.20114 0.99298 0.61739 0.0
C2324 C 0.22158 0.03661 0.61807 0.0
C2325 C 0.23519 0.03701 0.63074 0.0
C2326 C 0.23169 0.01522 0.63665 0.0
C2327 C 0.21487 0.99347 0.6298 0.0
C2328 C 0.22509 0.05947 0.61128 0.0
C2329 C 0.24548 0.01488 0.65032 0.0
C2330 C 0.29405 0.094 0.64088 0.0
C2331 C 0.28615 0.1041 0.6519 0.0
C2332 C 0.27762 0.07231 0.63378 0.0
C2333 C 0.25279 0.0602 0.63797 0.0
C2334 C 0.24471 0.07025 0.64909 0.0
C2335 C 0.26139 0.09221 0.65573 0.0
C2336 C 0.28682 0.0624 0.62175 0.0
C2337 C 0.21846 0.05777 0.65404 0.0
H2338 H 0.19404 0.01417 0.60194 0.0
H2339 H 0.21209 0.97675 0.63433 0.0
H2340 H 0.22047 0.06943 0.61954 0.0
H2341 H 0.2445 0.07119 0.60826 0.0
H2342 H 0.21365 0.0561 0.60115 0.0
H2343 H 0.24053 0.99642 0.65358 0.0
H2344 H 0.26538 0.02524 0.64827 0.0
H2345 H 0.24169 0.0236 0.65983 0.0
H2346 H 0.31307 0.10309 0.63771 0.0
H2347 H 0.25488 0.10005 0.66392 0.0
H2348 H 0.27648 0.05988 0.61124 0.0
H2349 H 0.28381 0.04459 0.62505 0.0
H2350 H 0.30654 0.0743 0.61952 0.0
H2351 H 0.20639 0.05567 0.64447 0.0
H2352 H 0.21527 0.0677 0.6631 0.0
H2353 H 0.21302 0.03956 0.65806 0.0
C2354 C 0.98086 0.19964 0.61556 0.0
C2355 C 1.00079 0.20134 0.62348 0.0
C2356 C 0.9601 0.19682 0.62302 0.0
C2357 C 0.95941 0.19624 0.63882 0.0
C2358 C 0.97942 0.19772 0.64686 0.0
C2359 C 0.99975 0.19998 0.63909 0.0
C2360 C 0.939 0.19478 0.61396 0.0
C2361 C 0.97967 0.19757 0.66367 0.0
C2362 C 0.91631 0.21532 0.65518 0.0
C2363 C 0.89566 0.19328 0.65833 0.0
C2364 C 0.93766 0.21658 0.64966 0.0
C2365 C 0.93819 0.19521 0.64681 0.0
C2366 C 0.9176 0.1729 0.65046 0.0
C2367 C 0.89659 0.17222 0.65615 0.0
C2368 C 0.95934 0.24078 0.64632 0.0
C2369 C 0.91719 0.14963 0.64759 0.0
H2370 H 0.98151 0.20045 0.60349 0.0
H2371 H 0.01519 0.20146 0.64525 0.0
H2372 H 0.92187 0.17845 0.61715 0.0
H2373 H 0.9366 0.21036 0.61633 0.0
H2374 H 0.94172 0.19403 0.60177 0.0
H2375 H 0.99643 0.19853 0.66828 0.0
H2376 H 0.9784 0.21304 0.66803 0.0
H2377 H 0.96361 0.18108 0.6678 0.0
H2378 H 0.91557 0.23162 0.65679 0.0
H2379 H 0.88056 0.15509 0.65827 0.0
H2380 H 0.96208 0.2428 0.63409 0.0
H2381 H 0.97613 0.24238 0.65133 0.0
H2382 H 0.95697 0.25567 0.65061 0.0
H2383 H 0.9168 0.14649 0.63539 0.0
H2384 H 0.90105 0.13415 0.65264 0.0
H2385 H 0.93391 0.15046 0.65211 0.0
C2386 C 0.78108 0.78887 0.63247 0.0
C2387 C 0.7951 0.80244 0.62041 0.0
C2388 C 0.78653 0.77296 0.63981 0.0
C2389 C 0.8062 0.77028 0.63478 0.0
C2390 C 0.82045 0.78399 0.62262 0.0
C2391 C 0.81483 0.80007 0.61565 0.0
C2392 C 0.77119 0.75894 0.65289 0.0
C2393 C 0.84129 0.78131 0.61677 0.0
C2394 C 0.83342 0.74268 0.6602 0.0
C2395 C 0.82142 0.7188 0.65521 0.0
C2396 C 0.82838 0.75956 0.65383 0.0
C2397 C 0.81138 0.75255 0.64192 0.0
C2398 C 0.79943 0.72858 0.6367 0.0
C2399 C 0.80443 0.71197 0.64348 0.0
C2400 C 0.84128 0.7849 0.65984 0.0
C2401 C 0.78149 0.72049 0.62385 0.0
H2402 H 0.76597 0.79091 0.63624 0.0
H2403 H 0.82556 0.81043 0.60625 0.0
H2404 H 0.7618 0.73951 0.65028 0.0
H2405 H 0.78299 0.76204 0.66279 0.0
H2406 H 0.75724 0.76389 0.65582 0.0
H2407 H 0.85078 0.79353 0.60735 0.0
H2408 H 0.85475 0.78501 0.62581 0.0
H2409 H 0.83439 0.76261 0.61293 0.0
H2410 H 0.84693 0.74832 0.66902 0.0
H2411 H 0.79512 0.69363 0.63944 0.0
H2412 H 0.82774 0.79007 0.66329 0.0
H2413 H 0.85257 0.79742 0.65097 0.0
H2414 H 0.85324 0.78721 0.66954 0.0
H2415 H 0.76611 0.72338 0.62665 0.0
H2416 H 0.77403 0.70129 0.62098 0.0
H2417 H 0.79047 0.73131 0.61384 0.0
C2418 C 0.00531 0.79273 0.63945 0.0
C2419 C 0.0037 0.79851 0.62452 0.0
C2420 C 0.9847 0.77563 0.64717 0.0
C2421 C 0.96199 0.76314 0.63967 0.0
C2422 C 0.96005 0.76892 0.62471 0.0
C2423 C 0.98068 0.78689 0.61749 0.0
C2424 C 0.98723 0.771 0.66338 0.0
C2425 C 0.93633 0.75551 0.61612 0.0
C2426 C 0.91662 0.69998 0.65172 0.0
C2427 C 0.89779 0.70282 0.65764 0.0
C2428 C 0.93784 0.71956 0.64615 0.0
C2429 C 0.94067 0.74274 0.64696 0.0
C2430 C 0.92227 0.74592 0.65367 0.0
C2431 C 0.9007 0.72581 0.65848 0.0
C2432 C 0.95668 0.71523 0.63874 0.0
C2433 C 0.9251 0.77046 0.65549 0.0
H2434 H 0.02276 0.80112 0.64514 0.0
H2435 H 0.97864 0.79156 0.60622 0.0
H2436 H 0.97688 0.77717 0.67026 0.0
H2437 H 0.97938 0.75159 0.66542 0.0
H2438 H 0.00651 0.78055 0.66724 0.0
H2439 H 0.93793 0.76188 0.60448 0.0
H2440 H 0.93027 0.73612 0.61581 0.0
H2441 H 0.92188 0.75748 0.62177 0.0
H2442 H 0.91428 0.68217 0.65085 0.0
H2443 H 0.88597 0.72809 0.6626 0.0
H2444 H 0.97465 0.72608 0.6443 0.0
H2445 H 0.95881 0.72092 0.62692 0.0
H2446 H 0.95172 0.69611 0.63904 0.0
H2447 H 0.94274 0.78271 0.66106 0.0
H2448 H 0.91014 0.77005 0.66215 0.0
H2449 H 0.92531 0.77805 0.6444 0.0
C2450 C 0.21082 0.2134 0.63712 0.0
C2451 C 0.20283 0.20509 0.62247 0.0
C2452 C 0.22918 0.21065 0.6441 0.0
C2453 C 0.24067 0.20001 0.63614 0.0
C2454 C 0.23305 0.19186 0.62133 0.0
C2455 C 0.21387 0.19383 0.61489 0.0
C2456 C 0.2356 0.21883 0.66011 0.0
C2457 C 0.24567 0.18168 0.61206 0.0
C2458 C 0.30489 0.21622 0.64816 0.0
C2459 C 0.30131 0.19458 0.65394 0.0
C2460 C 0.28534 0.21824 0.64242 0.0
C2461 C 0.26138 0.19832 0.6429 0.0
C2462 C 0.25753 0.17662 0.64919 0.0
C2463 C 0.27763 0.17476 0.65412 0.0
C2464 C 0.2904 0.2416 0.6356 0.0
C2465 C 0.23219 0.15542 0.65081 0.0
H2466 H 0.20309 0.22249 0.64325 0.0
H2467 H 0.20771 0.18651 0.60381 0.0
H2468 H 0.22266 0.20418 0.66741 0.0
H2469 H 0.25435 0.22332 0.66323 0.0
H2470 H 0.23359 0.23469 0.66243 0.0
H2471 H 0.23873 0.17771 0.60039 0.0
H2472 H 0.26557 0.19453 0.61183 0.0
H2473 H 0.2431 0.16494 0.61709 0.0
H2474 H 0.3232 0.23151 0.64776 0.0
H2475 H 0.27476 0.15776 0.65808 0.0
H2476 H 0.28107 0.24932 0.6421 0.0
H2477 H 0.28303 0.23844 0.62404 0.0
H2478 H 0.31019 0.25493 0.63531 0.0
H2479 H 0.22051 0.161 0.65681 0.0
H2480 H 0.23215 0.14053 0.65699 0.0
H2481 H 0.22382 0.14864 0.63968 0.0
C2482 C 0.81261 0.0176 0.6138 0.0
C2483 C 0.79421 0.99544 0.61909 0.0
C2484 C 0.81732 0.03915 0.62063 0.0
C2485 C 0.80364 0.03855 0.63323 0.0
C2486 C 0.78519 0.01632 0.63871 0.0
C2487 C 0.78053 0.99507 0.63148 0.0
C2488 C 0.83697 0.06256 0.61437 0.0
C2489 C 0.77042 0.01496 0.65224 0.0
C2490 C 0.83156 0.09274 0.65905 0.0
C2491 C 0.81854 0.10423 0.65511 0.0
C2492 C 0.82666 0.0712 0.65218 0.0
C2493 C 0.80875 0.0612 0.64077 0.0
C2494 C 0.7958 0.07286 0.63654 0.0
C2495 C 0.80071 0.09414 0.64384 0.0
C2496 C 0.84066 0.05915 0.65715 0.0
C2497 C 0.77691 0.06297 0.62422 0.0
H2498 H 0.82357 0.01814 0.6044 0.0
H2499 H 0.76595 0.97815 0.63551 0.0
H2500 H 0.82926 0.07417 0.61157 0.0
H2501 H 0.85148 0.07225 0.62286 0.0
H2502 H 0.8454 0.05998 0.6042 0.0
H2503 H 0.7571 0.99623 0.65529 0.0
H2504 H 0.78273 0.02386 0.66191 0.0
H2505 H 0.76037 0.02463 0.65012 0.0
H2506 H 0.84579 0.10063 0.66745 0.0
H2507 H 0.79067 0.10294 0.6406 0.0
H2508 H 0.85116 0.05784 0.64768 0.0
H2509 H 0.8278 0.04064 0.66081 0.0
H2510 H 0.85351 0.06895 0.66647 0.0
H2511 H 0.78527 0.06133 0.61375 0.0
H2512 H 0.76874 0.07443 0.6221 0.0
H2513 H 0.76211 0.04477 0.62712 0.0
C2514 C 0.4571 0.32665 0.73312 0.0
C2515 C 0.47116 0.34724 0.72459 0.0
C2516 C 0.44017 0.30485 0.72638 0.0
C2517 C 0.43659 0.30365 0.71075 0.0
C2518 C 0.45019 0.3244 0.70208 0.0
C2519 C 0.46751 0.34582 0.70906 0.0
C2520 C 0.42635 0.283 0.73598 0.0
C2521 C 0.44655 0.32393 0.68539 0.0
C2522 C 0.41036 0.24336 0.69112 0.0
C2523 C 0.3856 0.23635 0.68998 0.0
C2524 C 0.42711 0.26513 0.69793 0.0
C2525 C 0.41899 0.28054 0.70344 0.0
C2526 C 0.39405 0.27372 0.70211 0.0
C2527 C 0.37757 0.25154 0.69556 0.0
C2528 C 0.45342 0.27145 0.69939 0.0
C2529 C 0.38481 0.28993 0.70751 0.0
H2530 H 0.45922 0.32751 0.74514 0.0
H2531 H 0.47845 0.36135 0.70226 0.0
H2532 H 0.40647 0.27605 0.73494 0.0
H2533 H 0.42978 0.26858 0.73211 0.0
H2534 H 0.4316 0.2868 0.74795 0.0
H2535 H 0.45756 0.3419 0.68036 0.0
H2536 H 0.45166 0.31153 0.68006 0.0
H2537 H 0.42704 0.31714 0.68275 0.0
H2538 H 0.41664 0.23161 0.6869 0.0
H2539 H 0.35847 0.24626 0.69459 0.0
H2540 H 0.45895 0.27426 0.71132 0.0
H2541 H 0.46537 0.28844 0.69355 0.0
H2542 H 0.45666 0.2573 0.69471 0.0
H2543 H 0.38797 0.29308 0.7197 0.0
H2544 H 0.36505 0.28235 0.70519 0.0
H2545 H 0.39503 0.30761 0.70203 0.0
C2546 C 0.68788 0.14474 0.72884 0.0
C2547 C 0.66519 0.13352 0.72138 0.0
C2548 C 0.70915 0.14767 0.722 0.0
C2549 C 0.7083 0.14042 0.70696 0.0
C2550 C 0.68587 0.13014 0.69908 0.0
C2551 C 0.66464 0.12642 0.70641 0.0
C2552 C 0.73242 0.15787 0.73106 0.0
C2553 C 0.68427 0.12342 0.68279 0.0
C2554 C 0.77076 0.1655 0.68877 0.0
C2555 C 0.77425 0.1457 0.68913 0.0
C2556 C 0.74878 0.16369 0.69365 0.0
C2557 C 0.7305 0.14201 0.69995 0.0
C2558 C 0.73407 0.12203 0.70041 0.0
C2559 C 0.75566 0.12403 0.69479 0.0
C2560 C 0.74521 0.18501 0.69215 0.0
C2561 C 0.7154 0.09873 0.70731 0.0
H2562 H 0.68924 0.15125 0.74015 0.0
H2563 H 0.64755 0.11751 0.70033 0.0
H2564 H 0.73907 0.14489 0.73126 0.0
H2565 H 0.74683 0.17446 0.72586 0.0
H2566 H 0.72996 0.16206 0.74274 0.0
H2567 H 0.66513 0.1119 0.67896 0.0
H2568 H 0.69254 0.14004 0.67613 0.0
H2569 H 0.69455 0.11404 0.6804 0.0
H2570 H 0.78529 0.18251 0.68488 0.0
H2571 H 0.7584 0.10875 0.6953 0.0
H2572 H 0.74374 0.19159 0.70333 0.0
H2573 H 0.72791 0.17966 0.68608 0.0
H2574 H 0.76042 0.19995 0.68608 0.0
H2575 H 0.71224 0.10187 0.71907 0.0
H2576 H 0.72116 0.08505 0.70709 0.0
H2577 H 0.69776 0.09143 0.70128 0.0
C2578 C 0.89402 0.54764 0.71307 0.0
C2579 C 0.88124 0.53566 0.72593 0.0
C2580 C 0.88805 0.5628 0.70524 0.0
C2581 C 0.86908 0.56642 0.71049 0.0
C2582 C 0.85597 0.55428 0.72337 0.0
C2583 C 0.86208 0.53894 0.73086 0.0
C2584 C 0.90232 0.57529 0.69148 0.0
C2585 C 0.83575 0.55783 0.7294 0.0
C2586 C 0.87116 0.62445 0.70042 0.0
C2587 C 0.85325 0.61695 0.6892 0.0
C2588 C 0.87645 0.60818 0.7074 0.0
C2589 C 0.86376 0.58381 0.70296 0.0
C2590 C 0.84584 0.57612 0.69155 0.0
C2591 C 0.8406 0.59273 0.68492 0.0
C2592 C 0.89546 0.61706 0.71967 0.0
C2593 C 0.83208 0.55034 0.68639 0.0
H2594 H 0.90906 0.54554 0.70926 0.0
H2595 H 0.85174 0.52944 0.74059 0.0
H2596 H 0.88973 0.57183 0.68195 0.0
H2597 H 0.91259 0.59491 0.69345 0.0
H2598 H 0.91544 0.56938 0.68829 0.0
H2599 H 0.827 0.5467 0.73936 0.0
H2600 H 0.8431 0.57691 0.73249 0.0
H2601 H 0.8216 0.55329 0.72069 0.0
H2602 H 0.881 0.64307 0.7039 0.0
H2603 H 0.82641 0.58662 0.6765 0.0
H2604 H 0.91025 0.61337 0.71669 0.0
H2605 H 0.88718 0.60736 0.73015 0.0
H2606 H 0.90363 0.63656 0.72184 0.0
H2607 H 0.84507 0.54446 0.68291 0.0
H2608 H 0.81954 0.54749 0.67691 0.0
H2609 H 0.82127 0.53873 0.69573 0.0
C2610 C 0.46345 0.95463 0.17395 0.0
C2611 C 0.47332 0.94069 0.17909 0.0
C2612 C 0.46971 0.96582 0.15997 0.0
C2613 C 0.48569 0.9625 0.15055 0.0
C2614 C 0.49502 0.94776 0.15535 0.0
C2615 C 0.48904 0.93736 0.16959 0.0
C2616 C 0.45964 0.9817 0.15543 0.0
C2617 C 0.51166 0.94326 0.14553 0.0
C2618 C 0.48614 0.97858 0.10956 0.0
C2619 C 0.50716 0.00134 0.10885 0.0
C2620 C 0.47936 0.9654 0.12288 0.0
C2621 C 0.49351 0.97538 0.136 0.0
C2622 C 0.51485 0.99814 0.13535 0.0
C2623 C 0.5216 0.01059 0.12181 0.0
C2624 C 0.45681 0.94093 0.12297 0.0
C2625 C 0.53033 0.00966 0.14909 0.0
H2626 H 0.45078 0.95694 0.18087 0.0
H2627 H 0.49718 0.92702 0.17335 0.0
H2628 H 0.47486 0.00014 0.15348 0.0
H2629 H 0.44931 0.97515 0.1448 0.0
H2630 H 0.44743 0.98247 0.16401 0.0
H2631 H 0.51554 0.92964 0.15027 0.0
H2632 H 0.50339 0.93715 0.13429 0.0
H2633 H 0.5292 0.96014 0.14408 0.0
H2634 H 0.47457 0.97119 0.09979 0.0
H2635 H 0.53825 0.02775 0.12144 0.0
H2636 H 0.44274 0.94124 0.13015 0.0
H2637 H 0.46111 0.92764 0.12775 0.0
H2638 H 0.44897 0.93482 0.11162 0.0
H2639 H 0.51917 0.0117 0.15787 0.0
H2640 H 0.54627 0.02755 0.14677 0.0
H2641 H 0.53704 0.99806 0.15366 0.0
C2642 C 0.04595 0.53103 0.16489 0.0
C2643 C 0.05877 0.52119 0.17178 0.0
C2644 C 0.03789 0.52522 0.15003 0.0
C2645 C 0.0432 0.50956 0.14185 0.0
C2646 C 0.05657 0.49995 0.1487 0.0
C2647 C 0.064 0.50573 0.16363 0.0
C2648 C 0.02329 0.53545 0.1432 0.0
C2649 C 0.0629 0.48347 0.14028 0.0
C2650 C 0.00403 0.47399 0.10878 0.0
C2651 C 0.01831 0.48731 0.09675 0.0
C2652 C 0.01157 0.48146 0.12353 0.0
C2653 C 0.03416 0.50253 0.12627 0.0
C2654 C 0.04849 0.51625 0.11413 0.0
C2655 C 0.04027 0.50857 0.09947 0.0
C2656 C 0.99556 0.46658 0.13616 0.0
C2657 C 0.07284 0.53861 0.11662 0.0
H2658 H 0.04176 0.54287 0.17124 0.0
H2659 H 0.07415 0.49833 0.16893 0.0
H2660 H 0.0323 0.54543 0.13294 0.0
H2661 H 0.00496 0.5207 0.13989 0.0
H2662 H 0.02106 0.54766 0.15099 0.0
H2663 H 0.07435 0.47841 0.14702 0.0
H2664 H 0.04598 0.4669 0.13692 0.0
H2665 H 0.07282 0.49221 0.12992 0.0
H2666 H 0.98693 0.45765 0.10664 0.0
H2667 H 0.05135 0.51875 0.09013 0.0
H2668 H 0.99192 0.47793 0.14387 0.0
H2669 H 0.00506 0.45909 0.14269 0.0
H2670 H 0.97786 0.45154 0.13213 0.0
H2671 H 0.07071 0.55139 0.12392 0.0
H2672 H 0.08136 0.54768 0.10601 0.0
H2673 H 0.08542 0.534 0.12242 0.0
C2674 C 0.48767 0.53616 0.16941 0.0
C2675 C 0.47343 0.51739 0.17912 0.0
C2676 C 0.49352 0.53157 0.15514 0.0
C2677 C 0.48541 0.50765 0.15062 0.0
C2678 C 0.47092 0.48863 0.16039 0.0
C2679 C 0.46487 0.49373 0.17447 0.0
C2680 C 0.50851 0.5523 0.14493 0.0
C2681 C 0.46234 0.46294 0.15611 0.0
C2682 C 0.48471 0.49263 0.10944 0.0
C2683 C 0.50686 0.49277 0.10797 0.0
C2684 C 0.47765 0.49776 0.12318 0.0
C2685 C 0.49279 0.50261 0.13589 0.0
C2686 C 0.51506 0.50266 0.13454 0.0
C2687 C 0.52195 0.49805 0.12059 0.0
C2688 C 0.45396 0.49796 0.12411 0.0
C2689 C 0.53158 0.50746 0.14786 0.0
H2690 H 0.49409 0.55446 0.17299 0.0
H2691 H 0.45399 0.47925 0.18204 0.0
H2692 H 0.52618 0.55332 0.14258 0.0
H2693 H 0.49892 0.54955 0.13409 0.0
H2694 H 0.51222 0.56969 0.14981 0.0
H2695 H 0.45095 0.45021 0.16489 0.0
H2696 H 0.4516 0.45821 0.1456 0.0
H2697 H 0.47831 0.46063 0.15405 0.0
H2698 H 0.47265 0.48818 0.09989 0.0
H2699 H 0.53933 0.49874 0.1196 0.0
H2700 H 0.45735 0.51544 0.12861 0.0
H2701 H 0.44142 0.48396 0.13191 0.0
H2702 H 0.44474 0.49478 0.11309 0.0
H2703 H 0.53775 0.52564 0.15241 0.0
H2704 H 0.5479 0.50608 0.14505 0.0
H2705 H 0.52145 0.49454 0.15683 0.0
C2706 C 0.95838 0.49323 0.85091 0.0
C2707 C 0.9705 0.49054 0.83858 0.0
C2708 C 0.97008 0.50121 0.86482 0.0
C2709 C 0.99436 0.50612 0.86662 0.0
C2710 C 0.00643 0.50263 0.85443 0.0
C2711 C 0.99449 0.49517 0.84055 0.0
C2712 C 0.95668 0.50499 0.87749 0.0
C2713 C 0.03221 0.50734 0.85594 0.0
C2714 C 0.03535 0.55096 0.89607 0.0
C2715 C 0.03472 0.536 0.90752 0.0
C2716 C 0.02184 0.54145 0.88288 0.0
C2717 C 0.00768 0.5163 0.88096 0.0
C2718 C 0.00679 0.50108 0.89257 0.0
C2719 C 0.02017 0.51114 0.90579 0.0
C2720 C 0.02294 0.55833 0.87092 0.0
C2721 C 0.99227 0.4742 0.89085 0.0
H2722 H 0.93969 0.48921 0.8497 0.0
H2723 H 0.00427 0.49354 0.83114 0.0
H2724 H 0.95631 0.4945 0.88733 0.0
H2725 H 0.96641 0.52413 0.88091 0.0
H2726 H 0.93764 0.49973 0.87441 0.0
H2727 H 0.03828 0.50183 0.84581 0.0
H2728 H 0.04483 0.5267 0.85798 0.0
H2729 H 0.03373 0.49759 0.86565 0.0
H2730 H 0.04646 0.5702 0.89747 0.0
H2731 H 0.01988 0.4996 0.9146 0.0
H2732 H 0.00427 0.55439 0.86797 0.0
H2733 H 0.03112 0.55571 0.86067 0.0
H2734 H 0.03386 0.57739 0.87445 0.0
H2735 H 0.97291 0.46834 0.88838 0.0
H2736 H 0.99311 0.46488 0.90101 0.0
H2737 H 0.9993 0.4685 0.88129 0.0
C2738 C 0.51098 0.46445 0.83974 0.0
C2739 C 0.53518 0.47874 0.83514 0.0
C2740 C 0.50312 0.4685 0.85351 0.0
C2741 C 0.51995 0.48707 0.86305 0.0
C2742 C 0.54452 0.50135 0.85855 0.0
C2743 C 0.55178 0.49716 0.84457 0.0
C2744 C 0.47668 0.45314 0.85776 0.0
C2745 C 0.56311 0.52102 0.8685 0.0
C2746 C 0.4942 0.51154 0.89208 0.0
C2747 C 0.49335 0.49865 0.90485 0.0
C2748 C 0.50301 0.50811 0.87847 0.0
C2749 C 0.51165 0.49171 0.8776 0.0
C2750 C 0.51149 0.47912 0.89051 0.0
C2751 C 0.50215 0.48256 0.90392 0.0
C2752 C 0.50265 0.52173 0.86493 0.0
C2753 C 0.52081 0.46169 0.8901 0.0
H2754 H 0.49803 0.45039 0.83239 0.0
H2755 H 0.57055 0.50811 0.84108 0.0
H2756 H 0.47526 0.44387 0.8684 0.0
H2757 H 0.46839 0.46455 0.85957 0.0
H2758 H 0.46591 0.43947 0.84908 0.0
H2759 H 0.58162 0.53004 0.86356 0.0
H2760 H 0.55763 0.53462 0.87061 0.0
H2761 H 0.56394 0.51358 0.87947 0.0
H2762 H 0.48795 0.52437 0.89269 0.0
H2763 H 0.50129 0.47219 0.91359 0.0
H2764 H 0.49107 0.50898 0.85606 0.0
H2765 H 0.52129 0.53239 0.86036 0.0
H2766 H 0.49555 0.53399 0.86748 0.0
H2767 H 0.50917 0.44645 0.88257 0.0
H2768 H 0.52098 0.45454 0.90132 0.0
H2769 H 0.53958 0.4705 0.88558 0.0
C2770 C 0.53862 0.04606 0.8388 0.0
C2771 C 0.52924 0.0606 0.83421 0.0
C2772 C 0.53272 0.03488 0.85279 0.0
C2773 C 0.51752 0.03878 0.86262 0.0
C2774 C 0.50863 0.05408 0.8582 0.0
C2775 C 0.51433 0.06454 0.84398 0.0
C2776 C 0.54215 0.01831 0.85688 0.0
C2777 C 0.49291 0.05923 0.86844 0.0
C2778 C 0.48148 0.99105 0.89151 0.0
C2779 C 0.49631 0.0 0.90433 0.0
C2780 C 0.48817 0.00346 0.87796 0.0
C2781 C 0.50993 0.02586 0.87716 0.0
C2782 C 0.52456 0.03552 0.89014 0.0
C2783 C 0.51775 0.02241 0.90349 0.0
C2784 C 0.47212 0.99233 0.86438 0.0
C2785 C 0.54763 0.05959 0.88987 0.0
H2786 H 0.55001 0.04286 0.83122 0.0
H2787 H 0.50724 0.07596 0.84052 0.0
H2788 H 0.55255 0.02422 0.86752 0.0
H2789 H 0.5266 -2e-05 0.85861 0.0
H2790 H 0.55413 0.01752 0.84814 0.0
H2791 H 0.48895 0.07286 0.86381 0.0
H2792 H 0.47537 0.04256 0.87039 0.0
H2793 H 0.50203 0.06565 0.87945 0.0
H2794 H 0.46454 0.97416 0.89201 0.0
H2795 H 0.52959 0.02953 0.91317 0.0
H2796 H 0.48273 0.98997 0.85537 0.0
H2797 H 0.46574 0.00433 0.86007 0.0
H2798 H 0.45595 0.97464 0.86679 0.0
H2799 H 0.56107 0.05879 0.88235 0.0
H2800 H 0.55604 0.06542 0.90112 0.0
H2801 H 0.54373 0.07334 0.8854 0.0
C2802 C 0.13878 0.2613 0.49884 0.0
C2803 C 0.13861 0.27475 0.51119 0.0
C2804 C 0.14608 0.27165 0.48467 0.0
C2805 C 0.15317 0.29603 0.48268 0.0
C2806 C 0.15244 0.30955 0.49498 0.0
C2807 C 0.14532 0.29882 0.50906 0.0
C2808 C 0.14665 0.25661 0.47188 0.0
C2809 C 0.15973 0.33556 0.49334 0.0
C2810 C 0.19642 0.33133 0.45129 0.0
C2811 C 0.18054 0.332 0.44061 0.0
C2812 C 0.18768 0.3193 0.46486 0.0
C2813 C 0.16241 0.30774 0.46793 0.0
C2814 C 0.14621 0.30797 0.45708 0.0
C2815 C 0.15545 0.31999 0.44352 0.0
C2816 C 0.20557 0.31922 0.47599 0.0
C2817 C 0.11918 0.29603 0.45994 0.0
H2818 H 0.13322 0.2426 0.50023 0.0
H2819 H 0.14562 0.30955 0.51849 0.0
H2820 H 0.13538 0.2568 0.46245 0.0
H2821 H 0.16558 0.26428 0.46776 0.0
H2822 H 0.13989 0.23774 0.47513 0.0
H2823 H 0.1568 0.34321 0.50374 0.0
H2824 H 0.17927 0.34616 0.49035 0.0
H2825 H 0.14914 0.33762 0.48418 0.0
H2826 H 0.21579 0.34027 0.44903 0.0
H2827 H 0.1431 0.32058 0.43537 0.0
H2828 H 0.20022 0.30055 0.47892 0.0
H2829 H 0.2053 0.32841 0.48643 0.0
H2830 H 0.2245 0.32826 0.47168 0.0
H2831 H 0.11189 0.27696 0.4628 0.0
H2832 H 0.1089 0.297 0.45017 0.0
H2833 H 0.1158 0.30473 0.46964 0.0
C2834 C 0.70852 0.87241 0.50225 0.0
C2835 C 0.7053 0.85404 0.51194 0.0
C2836 C 0.69757 0.86727 0.48806 0.0
C2837 C 0.68239 0.84315 0.48356 0.0
C2838 C 0.67861 0.8245 0.49335 0.0
C2839 C 0.69035 0.83015 0.50731 0.0
C2840 C 0.7024 0.88766 0.47782 0.0
C2841 C 0.66217 0.79855 0.48905 0.0
C2842 C 0.63699 0.83095 0.45223 0.0
C2843 C 0.6482 0.82665 0.44003 0.0
C2844 C 0.64773 0.83598 0.46649 0.0
C2845 C 0.67058 0.83744 0.46857 0.0
C2846 C 0.68221 0.83351 0.45631 0.0
C2847 C 0.67073 0.82783 0.44227 0.0
C2848 C 0.63455 0.83962 0.47935 0.0
C2849 C 0.70682 0.83536 0.45802 0.0
H2850 H 0.71954 0.89093 0.50575 0.0
H2851 H 0.688 0.81575 0.51452 0.0
H2852 H 0.7101 0.88573 0.46715 0.0
H2853 H 0.68507 0.88719 0.47512 0.0
H2854 H 0.71525 0.90541 0.48282 0.0
H2855 H 0.66027 0.78621 0.4982 0.0
H2856 H 0.6438 0.79538 0.48601 0.0
H2857 H 0.66951 0.79404 0.47911 0.0
H2858 H 0.61984 0.83056 0.45066 0.0
H2859 H 0.67939 0.82404 0.43309 0.0
H2860 H 0.64568 0.85797 0.48402 0.0
H2861 H 0.63189 0.82694 0.48842 0.0
H2862 H 0.61647 0.83699 0.47599 0.0
H2863 H 0.72021 0.8532 0.46266 0.0
H2864 H 0.71385 0.83272 0.44727 0.0
H2865 H 0.70561 0.82177 0.46601 0.0
C2866 C 0.15204 0.83496 0.51055 0.0
C2867 C 0.14248 0.85018 0.5127 0.0
C2868 C 0.15888 0.83138 0.4963 0.0
C2869 C 0.15657 0.84372 0.48396 0.0
C2870 C 0.14679 0.85903 0.48607 0.0
C2871 C 0.13965 0.8619 0.5004 0.0
C2872 C 0.1688 0.81457 0.49447 0.0
C2873 C 0.14445 0.87285 0.47326 0.0
C2874 C 0.1981 0.85332 0.45104 0.0
C2875 C 0.1821 0.83594 0.44085 0.0
C2876 C 0.18991 0.85633 0.46499 0.0
C2877 C 0.16521 0.84126 0.46895 0.0
C2878 C 0.14895 0.82369 0.45867 0.0
C2879 C 0.15756 0.82141 0.44467 0.0
C2880 C 0.20771 0.8756 0.47549 0.0
C2881 C 0.1226 0.80703 0.46257 0.0
H2882 H 0.15405 0.82575 0.52004 0.0
H2883 H 0.13247 0.87386 0.50208 0.0
H2884 H 0.15822 0.80087 0.4858 0.0
H2885 H 0.18797 0.82465 0.49067 0.0
H2886 H 0.16817 0.80535 0.50502 0.0
H2887 H 0.13602 0.88363 0.47671 0.0
H2888 H 0.16273 0.88506 0.4686 0.0
H2889 H 0.13326 0.86041 0.46417 0.0
H2890 H 0.21704 0.86474 0.44803 0.0
H2891 H 0.14522 0.80786 0.43682 0.0
H2892 H 0.20959 0.86741 0.48588 0.0
H2893 H 0.20077 0.88774 0.47868 0.0
H2894 H 0.22604 0.88642 0.47048 0.0
H2895 H 0.12152 0.79654 0.47258 0.0
H2896 H 0.1123 0.79441 0.45331 0.0
H2897 H 0.11358 0.81749 0.46537 0.0
C2898 C 0.66223 0.83406 0.1683 0.0
C2899 C 0.6373 0.81785 0.16641 0.0
C2900 C 0.67319 0.83854 0.18248 0.0
C2901 C 0.65891 0.82614 0.19496 0.0
C2902 C 0.6337 0.80972 0.19309 0.0
C2903 C 0.62315 0.80593 0.17884 0.0
C2904 C 0.70002 0.85648 0.18409 0.0
C2905 C 0.61798 0.79585 0.20609 0.0
C2906 C 0.69152 0.8196 0.22861 0.0
C2907 C 0.69168 0.83657 0.2385 0.0
C2908 C 0.68081 0.81595 0.21442 0.0
C2909 C 0.67042 0.82993 0.20995 0.0
C2910 C 0.67079 0.8473 0.21985 0.0
C2911 C 0.68124 0.85026 0.23409 0.0
C2912 C 0.68035 0.79695 0.20427 0.0
C2913 C 0.66025 0.8628 0.21538 0.0
H2914 H 0.6731 0.8434 0.15869 0.0
H2915 H 0.6039 0.79321 0.17733 0.0
H2916 H 0.70281 0.87047 0.1924 0.0
H2917 H 0.70985 0.84748 0.18829 0.0
H2918 H 0.70832 0.86529 0.17337 0.0
H2919 H 0.59867 0.78381 0.20274 0.0
H2920 H 0.62511 0.7849 0.21114 0.0
H2921 H 0.6186 0.80835 0.21486 0.0
H2922 H 0.6994 0.80887 0.2321 0.0
H2923 H 0.68155 0.8635 0.24173 0.0
H2924 H 0.68999 0.80512 0.19374 0.0
H2925 H 0.66124 0.78361 0.20128 0.0
H2926 H 0.68901 0.78746 0.2095 0.0
H2927 H 0.66917 0.87272 0.20508 0.0
H2928 H 0.66257 0.8759 0.22425 0.0
H2929 H 0.64053 0.85145 0.21285 0.0
C2930 C 0.20815 0.83748 0.17225 0.0
C2931 C 0.19854 0.81402 0.1667 0.0
C2932 C 0.20149 0.84199 0.18632 0.0
C2933 C 0.18537 0.82258 0.19533 0.0
C2934 C 0.17622 0.79885 0.19007 0.0
C2935 C 0.18261 0.79487 0.17578 0.0
C2936 C 0.21134 0.86757 0.19141 0.0
C2937 C 0.15941 0.77764 0.19947 0.0
C2938 C 0.18428 0.83585 0.23668 0.0
C2939 C 0.163 0.83747 0.23772 0.0
C2940 C 0.19144 0.8304 0.22307 0.0
C2941 C 0.17742 0.82715 0.21003 0.0
C2942 C 0.15597 0.82872 0.21095 0.0
C2943 C 0.14884 0.83346 0.22478 0.0
C2944 C 0.21413 0.82834 0.22262 0.0
C2945 C 0.1407 0.82574 0.19726 0.0
H2946 H 0.22091 0.85247 0.1656 0.0
H2947 H 0.17467 0.77667 0.17163 0.0
H2948 H 0.19602 0.87087 0.19355 0.0
H2949 H 0.22157 0.87088 0.20204 0.0
H2950 H 0.2236 0.88067 0.18305 0.0
H2951 H 0.15543 0.76037 0.19428 0.0
H2952 H 0.16762 0.77914 0.21066 0.0
H2953 H 0.14194 0.77737 0.20115 0.0
H2954 H 0.19567 0.83926 0.24646 0.0
H2955 H 0.13208 0.83404 0.2254 0.0
H2956 H 0.22806 0.84264 0.21553 0.0
H2957 H 0.20991 0.81094 0.21754 0.0
H2958 H 0.22211 0.82979 0.23389 0.0
H2959 H 0.15201 0.83911 0.18876 0.0
H2960 H 0.12479 0.82795 0.19981 0.0
H2961 H 0.13397 0.80776 0.19222 0.0
C2962 C 0.20634 0.40165 0.17773 0.0
C2963 C 0.19183 0.38873 0.16539 0.0
C2964 C 0.20138 0.39188 0.19216 0.0
C2965 C 0.18102 0.36883 0.19447 0.0
C2966 C 0.1661 0.35582 0.18216 0.0
C2967 C 0.17187 0.36572 0.16781 0.0
C2968 C 0.21805 0.40617 0.20492 0.0
C2969 C 0.144 0.33132 0.18413 0.0
C2970 C 0.17707 0.33069 0.22776 0.0
C2971 C 0.16178 0.33425 0.23739 0.0
C2972 C 0.18431 0.34263 0.21405 0.0
C2973 C 0.17547 0.35799 0.20967 0.0
C2974 C 0.16029 0.3619 0.21951 0.0
C2975 C 0.15386 0.35019 0.23335 0.0
C2976 C 0.20103 0.33842 0.20412 0.0
C2977 C 0.15003 0.37768 0.21518 0.0
H2978 H 0.22155 0.41957 0.1762 0.0
H2979 H 0.16076 0.35516 0.15846 0.0
H2980 H 0.20765 0.40963 0.21354 0.0
H2981 H 0.22556 0.39576 0.21029 0.0
H2982 H 0.23346 0.42359 0.20125 0.0
H2983 H 0.13346 0.32409 0.17359 0.0
H2984 H 0.14971 0.31864 0.18814 0.0
H2985 H 0.13179 0.33209 0.19269 0.0
H2986 H 0.18324 0.31841 0.23094 0.0
H2987 H 0.14188 0.35277 0.24078 0.0
H2988 H 0.21681 0.35576 0.20074 0.0
H2989 H 0.19117 0.3289 0.19379 0.0
H2990 H 0.20794 0.32763 0.20968 0.0
H2991 H 0.16494 0.3957 0.21206 0.0
H2992 H 0.13934 0.37968 0.22431 0.0
H2993 H 0.138 0.36994 0.20525 0.0
C2994 C 0.79322 0.62054 0.83868 0.0
C2995 C 0.80258 0.60616 0.84383 0.0
C2996 C 0.80016 0.63212 0.82484 0.0
C2997 C 0.81635 0.62881 0.81561 0.0
C2998 C 0.82527 0.61376 0.82045 0.0
C2999 C 0.8186 0.60295 0.83453 0.0
C3000 C 0.79054 0.64834 0.82024 0.0
C3001 C 0.84217 0.60934 0.81083 0.0
C3002 C 0.81884 0.64552 0.7746 0.0
C3003 C 0.84017 0.66806 0.77419 0.0
C3004 C 0.8112 0.63226 0.78787 0.0
C3005 C 0.82481 0.64197 0.80121 0.0
C3006 C 0.84639 0.66456 0.80087 0.0
C3007 C 0.85398 0.67709 0.78738 0.0
C3008 C 0.7884 0.60797 0.78766 0.0
C3009 C 0.8613 0.67577 0.81484 0.0
H3010 H 0.78041 0.62282 0.84547 0.0
H3011 H 0.8264 0.59233 0.83834 0.0
H3012 H 0.80596 0.66676 0.81854 0.0
H3013 H 0.78059 0.64214 0.80946 0.0
H3014 H 0.77809 0.64905 0.82866 0.0
H3015 H 0.84583 0.59559 0.81561 0.0
H3016 H 0.83423 0.60341 0.7995 0.0
H3017 H 0.85979 0.6262 0.80958 0.0
H3018 H 0.80775 0.63834 0.76463 0.0
H3019 H 0.87083 0.6941 0.78724 0.0
H3020 H 0.77429 0.60833 0.79477 0.0
H3021 H 0.79233 0.59438 0.79237 0.0
H3022 H 0.7808 0.60222 0.77622 0.0
H3023 H 0.84982 0.67769 0.82344 0.0
H3024 H 0.87739 0.69367 0.81277 0.0
H3025 H 0.86774 0.66402 0.81951 0.0
C3026 C 0.36186 0.19816 0.83863 0.0
C3027 C 0.3732 0.18526 0.84299 0.0
C3028 C 0.35009 0.19392 0.82477 0.0
C3029 C 0.34993 0.17654 0.81498 0.0
C3030 C 0.36109 0.16323 0.8194 0.0
C3031 C 0.37248 0.16765 0.83343 0.0
C3032 C 0.33811 0.20824 0.82052 0.0
C3033 C 0.36151 0.14478 0.80916 0.0
C3034 C 0.30343 0.15368 0.78342 0.0
C3035 C 0.31724 0.1682 0.77157 0.0
C3036 C 0.3139 0.15597 0.79758 0.0
C3037 C 0.33881 0.173 0.7999 0.0
C3038 C 0.35296 0.18738 0.78794 0.0
C3039 C 0.34197 0.18493 0.77396 0.0
C3040 C 0.29822 0.14045 0.81012 0.0
C3041 C 0.37963 0.20567 0.78998 0.0
H3042 H 0.36216 0.21156 0.84613 0.0
H3043 H 0.3814 0.15779 0.83678 0.0
H3044 H 0.34717 0.21923 0.81058 0.0
H3045 H 0.31872 0.19604 0.81749 0.0
H3046 H 0.33896 0.22033 0.82968 0.0
H3047 H 0.37023 0.13541 0.81447 0.0
H3048 H 0.34269 0.13128 0.80573 0.0
H3049 H 0.37164 0.15353 0.79886 0.0
H3050 H 0.28442 0.14046 0.78161 0.0
H3051 H 0.35269 0.19651 0.76496 0.0
H3052 H 0.29759 0.15187 0.81922 0.0
H3053 H 0.30625 0.1301 0.8149 0.0
H3054 H 0.27927 0.12773 0.8064 0.0
H3055 H 0.38169 0.21964 0.79808 0.0
H3056 H 0.38838 0.2145 0.77935 0.0
H3057 H 0.38957 0.19704 0.79462 0.0
C3058 C 0.80178 0.19393 0.83413 0.0
C3059 C 0.80345 0.18104 0.84615 0.0
C3060 C 0.80931 0.1916 0.81979 0.0
C3061 C 0.81835 0.17573 0.81742 0.0
C3062 C 0.8192 0.16202 0.82944 0.0
C3063 C 0.81193 0.165 0.84368 0.0
C3064 C 0.80842 0.20675 0.80732 0.0
C3065 C 0.82832 0.14461 0.82732 0.0
C3066 C 0.82209 0.15624 0.77783 0.0
C3067 C 0.84702 0.17055 0.77488 0.0
C3068 C 0.81243 0.15777 0.79162 0.0
C3069 C 0.82804 0.17427 0.80258 0.0
C3070 C 0.85317 0.18907 0.79952 0.0
C3071 C 0.86238 0.18689 0.78575 0.0
C3072 C 0.78562 0.14145 0.79454 0.0
C3073 C 0.87035 0.20716 0.81082 0.0
H3074 H 0.79543 0.2065 0.83606 0.0
H3075 H 0.81301 0.15486 0.85296 0.0
H3076 H 0.82718 0.21921 0.80343 0.0
H3077 H 0.79805 0.19529 0.79766 0.0
H3078 H 0.79988 0.2174 0.81082 0.0
H3079 H 0.82629 0.13416 0.83755 0.0
H3080 H 0.81824 0.13196 0.81805 0.0
H3081 H 0.84786 0.15446 0.82423 0.0
H3082 H 0.81022 0.14348 0.76946 0.0
H3083 H 0.88161 0.19817 0.78341 0.0
H3084 H 0.77693 0.15217 0.79745 0.0
H3085 H 0.78327 0.12987 0.80421 0.0
H3086 H 0.77588 0.12986 0.78477 0.0
H3087 H 0.86368 0.21948 0.81411 0.0
H3088 H 0.88918 0.21793 0.80649 0.0
H3089 H 0.87094 0.19788 0.82105 0.0
C3090 C 0.29175 0.15444 0.51227 0.0
C3091 C 0.30415 0.15406 0.4994 0.0
C3092 C 0.30307 0.15959 0.52635 0.0
C3093 C 0.32717 0.16381 0.52769 0.0
C3094 C 0.33981 0.16341 0.51482 0.0
C3095 C 0.3283 0.1589 0.50082 0.0
C3096 C 0.28918 0.16032 0.53981 0.0
C3097 C 0.3654 0.16746 0.51584 0.0
C3098 C 0.36496 0.19607 0.56202 0.0
C3099 C 0.36139 0.17684 0.57089 0.0
C3100 C 0.35368 0.19209 0.54798 0.0
C3101 C 0.33905 0.16834 0.54261 0.0
C3102 C 0.33575 0.14888 0.5515 0.0
C3103 C 0.34673 0.15338 0.56566 0.0
C3104 C 0.35713 0.21326 0.53899 0.0
C3105 C 0.32075 0.12334 0.54602 0.0
H3106 H 0.27299 0.15033 0.51142 0.0
H3107 H 0.33832 0.15921 0.49098 0.0
H3108 H 0.28634 0.14596 0.54766 0.0
H3109 H 0.29987 0.17764 0.54584 0.0
H3110 H 0.27111 0.15802 0.53676 0.0
H3111 H 0.37252 0.16603 0.5048 0.0
H3112 H 0.37785 0.18544 0.52064 0.0
H3113 H 0.3658 0.15413 0.52342 0.0
H3114 H 0.3762 0.21419 0.56623 0.0
H3115 H 0.34411 0.13859 0.5726 0.0
H3116 H 0.33915 0.21154 0.53651 0.0
H3117 H 0.36569 0.21365 0.52814 0.0
H3118 H 0.36869 0.23054 0.5449 0.0
H3119 H 0.30168 0.11893 0.54394 0.0
H3120 H 0.32062 0.11032 0.55412 0.0
H3121 H 0.32806 0.12112 0.53526 0.0
C3122 C 0.85384 0.12962 0.51175 0.0
C3123 C 0.86903 0.14874 0.50243 0.0
C3124 C 0.84672 0.13365 0.5258 0.0
C3125 C 0.85433 0.15734 0.53053 0.0
C3126 C 0.86968 0.17673 0.52126 0.0
C3127 C 0.87711 0.17223 0.50745 0.0
C3128 C 0.83076 0.1125 0.53549 0.0
C3129 C 0.87788 0.20225 0.52579 0.0
C3130 C 0.81519 0.16615 0.55908 0.0
C3131 C 0.82928 0.17137 0.57217 0.0
C3132 C 0.82322 0.16174 0.54548 0.0
C3133 C 0.84558 0.16182 0.54495 0.0
C3134 C 0.85962 0.16642 0.55815 0.0
C3135 C 0.8515 0.17146 0.57152 0.0
C3136 C 0.80787 0.15727 0.53161 0.0
C3137 C 0.88331 0.16615 0.55812 0.0
H3138 H 0.84704 0.11137 0.50799 0.0
H3139 H 0.88926 0.18722 0.50059 0.0
H3140 H 0.83902 0.11503 0.54677 0.0
H3141 H 0.81271 0.11109 0.53689 0.0
H3142 H 0.82795 0.09537 0.5307 0.0
H3143 H 0.88971 0.21533 0.51729 0.0
H3144 H 0.86175 0.2044 0.52756 0.0
H3145 H 0.88805 0.20666 0.53652 0.0
H3146 H 0.79776 0.16544 0.55942 0.0
H3147 H 0.86283 0.17585 0.58142 0.0
H3148 H 0.80225 0.13927 0.52694 0.0
H3149 H 0.81873 0.17053 0.52296 0.0
H3150 H 0.79124 0.15842 0.53382 0.0
H3151 H 0.88032 0.14887 0.55352 0.0
H3152 H 0.89141 0.16879 0.56947 0.0
H3153 H 0.89666 0.18049 0.55081 0.0
C3154 C 0.84043 0.71778 0.50564 0.0
C3155 C 0.86403 0.72705 0.49986 0.0
C3156 C 0.83421 0.70681 0.51969 0.0
C3157 C 0.85209 0.70537 0.52842 0.0
C3158 C 0.87614 0.71533 0.52291 0.0
C3159 C 0.88176 0.72586 0.50869 0.0
C3160 C 0.80831 0.69631 0.52506 0.0
C3161 C 0.89584 0.71446 0.53192 0.0
C3162 C 0.83784 0.69178 0.56976 0.0
C3163 C 0.82911 0.66703 0.57019 0.0
C3164 C 0.84605 0.70464 0.55637 0.0
C3165 C 0.84524 0.69247 0.54298 0.0
C3166 C 0.83691 0.66762 0.54337 0.0
C3167 C 0.8292 0.65531 0.55693 0.0
C3168 C 0.8551 0.73117 0.5565 0.0
C3169 C 0.8356 0.65387 0.52937 0.0
H3170 H 0.82666 0.71903 0.49917 0.0
H3171 H 0.89998 0.73266 0.50437 0.0
H3172 H 0.80022 0.67677 0.52675 0.0
H3173 H 0.80803 0.70435 0.53597 0.0
H3174 H 0.79664 0.69923 0.51706 0.0
H3175 H 0.91399 0.72452 0.52658 0.0
H3176 H 0.897 0.72201 0.54325 0.0
H3177 H 0.89128 0.6956 0.53329 0.0
H3178 H 0.83767 0.70108 0.57983 0.0
H3179 H 0.8231 0.63635 0.55711 0.0
H3180 H 0.84264 0.73488 0.5498 0.0
H3181 H 0.87336 0.741 0.5513 0.0
H3182 H 0.85631 0.73833 0.56797 0.0
H3183 H 0.82306 0.65501 0.52118 0.0
H3184 H 0.82909 0.63469 0.53157 0.0
H3185 H 0.8538 0.66187 0.52411 0.0
loop_
_geom_bond_atom_site_label_1
_geom_bond_atom_site_label_2
_geom_bond_distance
_geom_bond_site_symmetry_2
_ccdc_geom_bond_type
C0 C1 1.386 . S
C0 C2 1.397 . S
C0 H24 0.931 . S
C1 C0 1.386 . S
C1 C5 1.397 . S
C2 C0 1.397 . S
C2 C3 1.384 . S
C2 H25 0.930 . S
C3 C2 1.384 . S
C3 C4 1.377 . S
C3 C6 1.481 . S
C4 C3 1.377 . S
C4 C5 1.389 . S
C4 H26 0.929 . S
C5 C1 1.397 . S
C5 C4 1.389 . S
C5 H27 0.931 . S
C6 C3 1.481 . S
C6 C7 1.387 . S
C6 C11 1.390 . S
C7 C6 1.387 . S
C7 C8 1.401 . S
C7 H28 0.930 . S
C8 C7 1.401 . S
C8 C9 1.376 . S
C8 C17 1.511 . S
C9 C8 1.376 . S
C9 C10 1.392 . S
C9 H30 0.931 . S
C10 C9 1.392 . S
C10 C11 1.361 . S
C10 C12 1.500 . S
C11 C6 1.390 . S
C11 C10 1.361 . S
C11 H29 0.931 . S
C12 C10 1.500 . S
C12 C13 1.371 . S
C12 C14 1.365 . S
C13 C12 1.371 . S
C13 C23 1.386 . S
C13 H31 0.931 . S
C14 C12 1.365 . S
C14 C15 1.409 . S
C14 H32 0.929 . S
C15 C14 1.409 . S
C15 C16 1.380 . S
C15 H33 0.930 . S
C16 C15 1.380 . S
C16 C23 1.357 . S
C17 C8 1.511 . S
C17 C18 1.341 . S
C17 C19 1.371 . S
C18 C17 1.341 . S
C18 C22 1.394 . S
C18 H34 0.930 . S
C19 C17 1.371 . S
C19 C20 1.392 . S
C19 H35 0.931 . S
C20 C19 1.392 . S
C20 C21 1.331 . S
C20 H38 0.932 . S
C21 C20 1.331 . S
C21 C22 1.336 . S
C22 C18 1.394 . S
C22 C21 1.336 . S
C22 H37 0.929 . S
C23 C13 1.386 . S
C23 C16 1.357 . S
C23 H36 0.928 . S
H24 C0 0.931 . S
H25 C2 0.930 . S
H26 C4 0.929 . S
H27 C5 0.931 . S
H28 C7 0.930 . S
H29 C11 0.931 . S
H30 C9 0.931 . S
H31 C13 0.931 . S
H32 C14 0.929 . S
H33 C15 0.930 . S
H34 C18 0.930 . S
H35 C19 0.931 . S
H36 C23 0.928 . S
H37 C22 0.929 . S
H38 C20 0.932 . S
C39 C40 1.386 . S
C39 C41 1.397 . S
C39 H63 0.931 . S
C40 C39 1.386 . S
C40 C44 1.397 . S
C41 C39 1.397 . S
C41 C42 1.384 . S
C41 H64 0.930 . S
C42 C41 1.384 . S
C42 C43 1.377 . S
C42 C45 1.481 . S
C43 C42 1.377 . S
C43 C44 1.389 . S
C43 H65 0.929 . S
C44 C40 1.397 . S
C44 C43 1.389 . S
C44 H66 0.931 . S
C45 C42 1.481 . S
C45 C46 1.387 . S
C45 C50 1.390 . S
C46 C45 1.387 . S
C46 C47 1.401 . S
C46 H67 0.930 . S
C47 C46 1.401 . S
C47 C48 1.376 . S
C47 C56 1.511 . S
C48 C47 1.376 . S
C48 C49 1.392 . S
C48 H69 0.931 . S
C49 C48 1.392 . S
C49 C50 1.361 . S
C49 C51 1.500 . S
C50 C45 1.390 . S
C50 C49 1.361 . S
C50 H68 0.931 . S
C51 C49 1.500 . S
C51 C52 1.371 . S
C51 C53 1.365 . S
C52 C51 1.371 . S
C52 C62 1.386 . S
C52 H70 0.931 . S
C53 C51 1.365 . S
C53 C54 1.409 . S
C53 H71 0.929 . S
C54 C53 1.409 . S
C54 C55 1.380 . S
C54 H72 0.930 . S
C55 C54 1.380 . S
C55 C62 1.357 . S
C56 C47 1.511 . S
C56 C57 1.341 . S
C56 C58 1.371 . S
C57 C56 1.341 . S
C57 C61 1.394 . S
C57 H73 0.930 . S
C58 C56 1.371 . S
C58 C59 1.392 . S
C58 H74 0.931 . S
C59 C58 1.392 . S
C59 C60 1.331 . S
C59 H77 0.932 . S
C60 C59 1.331 . S
C60 C61 1.336 . S
C61 C57 1.394 . S
C61 C60 1.336 . S
C61 H76 0.929 . S
C62 C52 1.386 . S
C62 C55 1.357 . S
C62 H75 0.928 . S
H63 C39 0.931 . S
H64 C41 0.930 . S
H65 C43 0.929 . S
H66 C44 0.931 . S
H67 C46 0.930 . S
H68 C50 0.931 . S
H69 C48 0.931 . S
H70 C52 0.931 . S
H71 C53 0.929 . S
H72 C54 0.930 . S
H73 C57 0.930 . S
H74 C58 0.931 . S
H75 C62 0.928 . S
H76 C61 0.929 . S
H77 C59 0.932 . S
C78 C79 1.386 . S
C78 C80 1.397 . S
C78 H102 0.931 . S
C79 C78 1.386 . S
C79 C83 1.397 . S
C80 C78 1.397 . S
C80 C81 1.384 . S
C80 H103 0.930 . S
C81 C80 1.384 . S
C81 C82 1.377 . S
C81 C84 1.481 . S
C82 C81 1.377 . S
C82 C83 1.389 . S
C82 H104 0.929 . S
C83 C79 1.397 . S
C83 C82 1.389 . S
C83 H105 0.931 . S
C84 C81 1.481 . S
C84 C85 1.387 . S
C84 C89 1.390 . S
C85 C84 1.387 . S
C85 C86 1.401 . S
C85 H106 0.930 . S
C86 C85 1.401 . S
C86 C87 1.376 . S
C86 C95 1.511 . S
C87 C86 1.376 . S
C87 C88 1.392 . S
C87 H108 0.931 . S
C88 C87 1.392 . S
C88 C89 1.361 . S
C88 C90 1.500 . S
C89 C84 1.390 . S
C89 C88 1.361 . S
C89 H107 0.931 . S
C90 C88 1.500 . S
C90 C91 1.371 . S
C90 C92 1.365 . S
C91 C90 1.371 . S
C91 C101 1.386 . S
C91 H109 0.931 . S
C92 C90 1.365 . S
C92 C93 1.409 . S
C92 H110 0.929 . S
C93 C92 1.409 . S
C93 C94 1.380 . S
C93 H111 0.930 . S
C94 C93 1.380 . S
C94 C101 1.357 . S
C95 C86 1.511 . S
C95 C96 1.341 . S
C95 C97 1.371 . S
C96 C95 1.341 . S
C96 C100 1.394 . S
C96 H112 0.930 . S
C97 C95 1.371 . S
C97 C98 1.392 . S
C97 H113 0.931 . S
C98 C97 1.392 . S
C98 C99 1.331 . S
C98 H116 0.932 . S
C99 C98 1.331 . S
C99 C100 1.336 . S
C100 C96 1.394 . S
C100 C99 1.336 . S
C100 H115 0.929 . S
C101 C91 1.386 . S
C101 C94 1.357 . S
C101 H114 0.928 . S
H102 C78 0.931 . S
H103 C80 0.930 . S
H104 C82 0.929 . S
H105 C83 0.931 . S
H106 C85 0.930 . S
H107 C89 0.931 . S
H108 C87 0.931 . S
H109 C91 0.931 . S
H110 C92 0.929 . S
H111 C93 0.930 . S
H112 C96 0.930 . S
H113 C97 0.931 . S
H114 C101 0.928 . S
H115 C100 0.929 . S
H116 C98 0.932 . S
C117 C118 1.386 . S
C117 C119 1.397 . S
C117 H141 0.931 . S
C118 C117 1.386 . S
C118 C122 1.397 . S
C119 C117 1.397 . S
C119 C120 1.384 . S
C119 H142 0.930 . S
C120 C119 1.384 . S
C120 C121 1.377 . S
C120 C123 1.481 . S
C121 C120 1.377 . S
C121 C122 1.389 . S
C121 H143 0.929 . S
C122 C118 1.397 . S
C122 C121 1.389 . S
C122 H144 0.931 . S
C123 C120 1.481 . S
C123 C124 1.387 . S
C123 C128 1.390 . S
C124 C123 1.387 . S
C124 C125 1.401 . S
C124 H145 0.930 . S
C125 C124 1.401 . S
C125 C126 1.376 . S
C125 C134 1.511 . S
C126 C125 1.376 . S
C126 C127 1.392 . S
C126 H147 0.931 . S
C127 C126 1.392 . S
C127 C128 1.361 . S
C127 C129 1.500 . S
C128 C123 1.390 . S
C128 C127 1.361 . S
C128 H146 0.931 . S
C129 C127 1.500 . S
C129 C130 1.371 . S
C129 C131 1.365 . S
C130 C129 1.371 . S
C130 C140 1.386 . S
C130 H148 0.931 . S
C131 C129 1.365 . S
C131 C132 1.409 . S
C131 H149 0.929 . S
C132 C131 1.409 . S
C132 C133 1.380 . S
C132 H150 0.930 . S
C133 C132 1.380 . S
C133 C140 1.357 . S
C134 C125 1.511 . S
C134 C135 1.341 . S
C134 C136 1.371 . S
C135 C134 1.341 . S
C135 C139 1.394 . S
C135 H151 0.930 . S
C136 C134 1.371 . S
C136 C137 1.392 . S
C136 H152 0.931 . S
C137 C136 1.392 . S
C137 C138 1.331 . S
C137 H155 0.932 . S
C138 C137 1.331 . S
C138 C139 1.336 . S
C139 C135 1.394 . S
C139 C138 1.336 . S
C139 H154 0.929 . S
C140 C130 1.386 . S
C140 C133 1.357 . S
C140 H153 0.928 . S
H141 C117 0.931 . S
H142 C119 0.930 . S
H143 C121 0.929 . S
H144 C122 0.931 . S
H145 C124 0.930 . S
H146 C128 0.931 . S
H147 C126 0.931 . S
H148 C130 0.931 . S
H149 C131 0.929 . S
H150 C132 0.930 . S
H151 C135 0.930 . S
H152 C136 0.931 . S
H153 C140 0.928 . S
H154 C139 0.929 . S
H155 C137 0.932 . S
C156 C157 1.386 . S
C156 C158 1.397 . S
C156 H180 0.931 . S
C157 C156 1.386 . S
C157 C161 1.397 . S
C158 C156 1.397 . S
C158 C159 1.384 . S
C158 H181 0.930 . S
C159 C158 1.384 . S
C159 C160 1.377 . S
C159 C162 1.481 . S
C160 C159 1.377 . S
C160 C161 1.389 . S
C160 H182 0.929 . S
C161 C157 1.397 . S
C161 C160 1.389 . S
C161 H183 0.931 . S
C162 C159 1.481 . S
C162 C163 1.387 . S
C162 C167 1.390 . S
C163 C162 1.387 . S
C163 C164 1.401 . S
C163 H184 0.930 . S
C164 C163 1.401 . S
C164 C165 1.376 . S
C164 C173 1.511 . S
C165 C164 1.376 . S
C165 C166 1.392 . S
C165 H186 0.931 . S
C166 C165 1.392 . S
C166 C167 1.361 . S
C166 C168 1.500 . S
C167 C162 1.390 . S
C167 C166 1.361 . S
C167 H185 0.931 . S
C168 C166 1.500 . S
C168 C169 1.371 . S
C168 C170 1.365 . S
C169 C168 1.371 . S
C169 C179 1.386 . S
C169 H187 0.931 . S
C170 C168 1.365 . S
C170 C171 1.409 . S
C170 H188 0.929 . S
C171 C170 1.409 . S
C171 C172 1.380 . S
C171 H189 0.930 . S
C172 C171 1.380 . S
C172 C179 1.357 . S
C173 C164 1.511 . S
C173 C174 1.341 . S
C173 C175 1.371 . S
C174 C173 1.341 . S
C174 C178 1.394 . S
C174 H190 0.930 . S
C175 C173 1.371 . S
C175 C176 1.392 . S
C175 H191 0.931 . S
C176 C175 1.392 . S
C176 C177 1.331 . S
C176 H194 0.932 . S
C177 C176 1.331 . S
C177 C178 1.336 . S
C178 C174 1.394 . S
C178 C177 1.336 . S
C178 H193 0.929 . S
C179 C169 1.386 . S
C179 C172 1.357 . S
C179 H192 0.928 . S
H180 C156 0.931 . S
H181 C158 0.930 . S
H182 C160 0.929 . S
H183 C161 0.931 . S
H184 C163 0.930 . S
H185 C167 0.931 . S
H186 C165 0.931 . S
H187 C169 0.931 . S
H188 C170 0.929 . S
H189 C171 0.930 . S
H190 C174 0.930 . S
H191 C175 0.931 . S
H192 C179 0.928 . S
H193 C178 0.929 . S
H194 C176 0.932 . S
C195 C196 1.386 . S
C195 C197 1.397 . S
C195 H219 0.931 . S
C196 C195 1.386 . S
C196 C200 1.397 . S
C197 C195 1.397 . S
C197 C198 1.384 . S
C197 H220 0.930 . S
C198 C197 1.384 . S
C198 C199 1.377 . S
C198 C201 1.481 . S
C199 C198 1.377 . S
C199 C200 1.389 . S
C199 H221 0.929 . S
C200 C196 1.397 . S
C200 C199 1.389 . S
C200 H222 0.931 . S
C201 C198 1.481 . S
C201 C202 1.387 . S
C201 C206 1.390 . S
C202 C201 1.387 . S
C202 C203 1.401 . S
C202 H223 0.930 . S
C203 C202 1.401 . S
C203 C204 1.376 . S
C203 C212 1.511 . S
C204 C203 1.376 . S
C204 C205 1.392 . S
C204 H225 0.931 . S
C205 C204 1.392 . S
C205 C206 1.361 . S
C205 C207 1.500 . S
C206 C201 1.390 . S
C206 C205 1.361 . S
C206 H224 0.931 . S
C207 C205 1.500 . S
C207 C208 1.371 . S
C207 C209 1.365 . S
C208 C207 1.371 . S
C208 C218 1.386 . S
C208 H226 0.931 . S
C209 C207 1.365 . S
C209 C210 1.409 . S
C209 H227 0.929 . S
C210 C209 1.409 . S
C210 C211 1.380 . S
C210 H228 0.930 . S
C211 C210 1.380 . S
C211 C218 1.357 . S
C212 C203 1.511 . S
C212 C213 1.341 . S
C212 C214 1.371 . S
C213 C212 1.341 . S
C213 C217 1.394 . S
C213 H229 0.930 . S
C214 C212 1.371 . S
C214 C215 1.392 . S
C214 H230 0.931 . S
C215 C214 1.392 . S
C215 C216 1.331 . S
C215 H233 0.932 . S
C216 C215 1.331 . S
C216 C217 1.336 . S
C217 C213 1.394 . S
C217 C216 1.336 . S
C217 H232 0.929 . S
C218 C208 1.386 . S
C218 C211 1.357 . S
C218 H231 0.928 . S
H219 C195 0.931 . S
H220 C197 0.930 . S
H221 C199 0.929 . S
H222 C200 0.931 . S
H223 C202 0.930 . S
H224 C206 0.931 . S
H225 C204 0.931 . S
H226 C208 0.931 . S
H227 C209 0.929 . S
H228 C210 0.930 . S
H229 C213 0.930 . S
H230 C214 0.931 . S
H231 C218 0.928 . S
H232 C217 0.929 . S
H233 C215 0.932 . S
C234 C235 1.386 . S
C234 C236 1.397 . S
C234 H258 0.931 . S
C235 C234 1.386 . S
C235 C239 1.397 . S
C236 C234 1.397 . S
C236 C237 1.384 . S
C236 H259 0.930 . S
C237 C236 1.384 . S
C237 C238 1.377 . S
C237 C240 1.481 . S
C238 C237 1.377 . S
C238 C239 1.389 . S
C238 H260 0.929 . S
C239 C235 1.397 . S
C239 C238 1.389 . S
C239 H261 0.931 . S
C240 C237 1.481 . S
C240 C241 1.387 . S
C240 C245 1.390 . S
C241 C240 1.387 . S
C241 C242 1.401 . S
C241 H262 0.930 . S
C242 C241 1.401 . S
C242 C243 1.376 . S
C242 C251 1.511 . S
C243 C242 1.376 . S
C243 C244 1.392 . S
C243 H264 0.931 . S
C244 C243 1.392 . S
C244 C245 1.361 . S
C244 C246 1.500 . S
C245 C240 1.390 . S
C245 C244 1.361 . S
C245 H263 0.931 . S
C246 C244 1.500 . S
C246 C247 1.371 . S
C246 C248 1.365 . S
C247 C246 1.371 . S
C247 C257 1.386 . S
C247 H265 0.931 . S
C248 C246 1.365 . S
C248 C249 1.409 . S
C248 H266 0.929 . S
C249 C248 1.409 . S
C249 C250 1.380 . S
C249 H267 0.930 . S
C250 C249 1.380 . S
C250 C257 1.357 . S
C251 C242 1.511 . S
C251 C252 1.341 . S
C251 C253 1.371 . S
C252 C251 1.341 . S
C252 C256 1.394 . S
C252 H268 0.930 . S
C253 C251 1.371 . S
C253 C254 1.392 . S
C253 H269 0.931 . S
C254 C253 1.392 . S
C254 C255 1.331 . S
C254 H272 0.932 . S
C255 C254 1.331 . S
C255 C256 1.336 . S
C256 C252 1.394 . S
C256 C255 1.336 . S
C256 H271 0.929 . S
C257 C247 1.386 . S
C257 C250 1.357 . S
C257 H270 0.928 . S
H258 C234 0.931 . S
H259 C236 0.930 . S
H260 C238 0.929 . S
H261 C239 0.931 . S
H262 C241 0.930 . S
H263 C245 0.931 . S
H264 C243 0.931 . S
H265 C247 0.931 . S
H266 C248 0.929 . S
H267 C249 0.930 . S
H268 C252 0.930 . S
H269 C253 0.931 . S
H270 C257 0.928 . S
H271 C256 0.929 . S
H272 C254 0.932 . S
C273 C274 1.386 . S
C273 C275 1.397 . S
C273 H297 0.931 . S
C274 C273 1.386 . S
C274 C278 1.397 . S
C275 C273 1.397 . S
C275 C276 1.384 . S
C275 H298 0.930 . S
C276 C275 1.384 . S
C276 C277 1.377 . S
C276 C279 1.481 . S
C277 C276 1.377 . S
C277 C278 1.389 . S
C277 H299 0.929 . S
C278 C274 1.397 . S
C278 C277 1.389 . S
C278 H300 0.931 . S
C279 C276 1.481 . S
C279 C280 1.387 . S
C279 C284 1.390 . S
C280 C279 1.387 . S
C280 C281 1.401 . S
C280 H301 0.930 . S
C281 C280 1.401 . S
C281 C282 1.376 . S
C281 C290 1.511 . S
C282 C281 1.376 . S
C282 C283 1.392 . S
C282 H303 0.931 . S
C283 C282 1.392 . S
C283 C284 1.361 . S
C283 C285 1.500 . S
C284 C279 1.390 . S
C284 C283 1.361 . S
C284 H302 0.931 . S
C285 C283 1.500 . S
C285 C286 1.371 . S
C285 C287 1.365 . S
C286 C285 1.371 . S
C286 C296 1.386 . S
C286 H304 0.931 . S
C287 C285 1.365 . S
C287 C288 1.409 . S
C287 H305 0.929 . S
C288 C287 1.409 . S
C288 C289 1.380 . S
C288 H306 0.930 . S
C289 C288 1.380 . S
C289 C296 1.357 . S
C290 C281 1.511 . S
C290 C291 1.341 . S
C290 C292 1.371 . S
C291 C290 1.341 . S
C291 C295 1.394 . S
C291 H307 0.930 . S
C292 C290 1.371 . S
C292 C293 1.392 . S
C292 H308 0.931 . S
C293 C292 1.392 . S
C293 C294 1.331 . S
C293 H311 0.932 . S
C294 C293 1.331 . S
C294 C295 1.336 . S
C295 C291 1.394 . S
C295 C294 1.336 . S
C295 H310 0.929 . S
C296 C286 1.386 . S
C296 C289 1.357 . S
C296 H309 0.928 . S
H297 C273 0.931 . S
H298 C275 0.930 . S
H299 C277 0.929 . S
H300 C278 0.931 . S
H301 C280 0.930 . S
H302 C284 0.931 . S
H303 C282 0.931 . S
H304 C286 0.931 . S
H305 C287 0.929 . S
H306 C288 0.930 . S
H307 C291 0.930 . S
H308 C292 0.931 . S
H309 C296 0.928 . S
H310 C295 0.929 . S
H311 C293 0.932 . S
C312 C313 1.386 . S
C312 C314 1.397 . S
C312 H336 0.931 . S
C313 C312 1.386 . S
C313 C317 1.397 . S
C314 C312 1.397 . S
C314 C315 1.384 . S
C314 H337 0.930 . S
C315 C314 1.384 . S
C315 C316 1.377 . S
C315 C318 1.481 . S
C316 C315 1.377 . S
C316 C317 1.389 . S
C316 H338 0.929 . S
C317 C313 1.397 . S
C317 C316 1.389 . S
C317 H339 0.931 . S
C318 C315 1.481 . S
C318 C319 1.387 . S
C318 C323 1.390 . S
C319 C318 1.387 . S
C319 C320 1.401 . S
C319 H340 0.930 . S
C320 C319 1.401 . S
C320 C321 1.376 . S
C320 C329 1.511 . S
C321 C320 1.376 . S
C321 C322 1.392 . S
C321 H342 0.931 . S
C322 C321 1.392 . S
C322 C323 1.361 . S
C322 C324 1.500 . S
C323 C318 1.390 . S
C323 C322 1.361 . S
C323 H341 0.931 . S
C324 C322 1.500 . S
C324 C325 1.371 . S
C324 C326 1.365 . S
C325 C324 1.371 . S
C325 C335 1.386 . S
C325 H343 0.931 . S
C326 C324 1.365 . S
C326 C327 1.409 . S
C326 H344 0.929 . S
C327 C326 1.409 . S
C327 C328 1.380 . S
C327 H345 0.930 . S
C328 C327 1.380 . S
C328 C335 1.357 . S
C329 C320 1.511 . S
C329 C330 1.341 . S
C329 C331 1.371 . S
C330 C329 1.341 . S
C330 C334 1.394 . S
C330 H346 0.930 . S
C331 C329 1.371 . S
C331 C332 1.392 . S
C331 H347 0.931 . S
C332 C331 1.392 . S
C332 C333 1.331 . S
C332 H350 0.932 . S
C333 C332 1.331 . S
C333 C334 1.336 . S
C334 C330 1.394 . S
C334 C333 1.336 . S
C334 H349 0.929 . S
C335 C325 1.386 . S
C335 C328 1.357 . S
C335 H348 0.928 . S
H336 C312 0.931 . S
H337 C314 0.930 . S
H338 C316 0.929 . S
H339 C317 0.931 . S
H340 C319 0.930 . S
H341 C323 0.931 . S
H342 C321 0.931 . S
H343 C325 0.931 . S
H344 C326 0.929 . S
H345 C327 0.930 . S
H346 C330 0.930 . S
H347 C331 0.931 . S
H348 C335 0.928 . S
H349 C334 0.929 . S
H350 C332 0.932 . S
C351 C352 1.386 . S
C351 C353 1.397 . S
C351 H375 0.931 . S
C352 C351 1.386 . S
C352 C356 1.397 . S
C353 C351 1.397 . S
C353 C354 1.384 . S
C353 H376 0.930 . S
C354 C353 1.384 . S
C354 C355 1.377 . S
C354 C357 1.481 . S
C355 C354 1.377 . S
C355 C356 1.389 . S
C355 H377 0.929 . S
C356 C352 1.397 . S
C356 C355 1.389 . S
C356 H378 0.931 . S
C357 C354 1.481 . S
C357 C358 1.387 . S
C357 C362 1.390 . S
C358 C357 1.387 . S
C358 C359 1.401 . S
C358 H379 0.930 . S
C359 C358 1.401 . S
C359 C360 1.376 . S
C359 C368 1.511 . S
C360 C359 1.376 . S
C360 C361 1.392 . S
C360 H381 0.931 . S
C361 C360 1.392 . S
C361 C362 1.361 . S
C361 C363 1.500 . S
C362 C357 1.390 . S
C362 C361 1.361 . S
C362 H380 0.931 . S
C363 C361 1.500 . S
C363 C364 1.371 . S
C363 C365 1.365 . S
C364 C363 1.371 . S
C364 C374 1.386 . S
C364 H382 0.931 . S
C365 C363 1.365 . S
C365 C366 1.409 . S
C365 H383 0.929 . S
C366 C365 1.409 . S
C366 C367 1.380 . S
C366 H384 0.930 . S
C367 C366 1.380 . S
C367 C374 1.357 . S
C368 C359 1.511 . S
C368 C369 1.341 . S
C368 C370 1.371 . S
C369 C368 1.341 . S
C369 C373 1.394 . S
C369 H385 0.930 . S
C370 C368 1.371 . S
C370 C371 1.392 . S
C370 H386 0.931 . S
C371 C370 1.392 . S
C371 C372 1.331 . S
C371 H389 0.932 . S
C372 C371 1.331 . S
C372 C373 1.336 . S
C373 C369 1.394 . S
C373 C372 1.336 . S
C373 H388 0.929 . S
C374 C364 1.386 . S
C374 C367 1.357 . S
C374 H387 0.928 . S
H375 C351 0.931 . S
H376 C353 0.930 . S
H377 C355 0.929 . S
H378 C356 0.931 . S
H379 C358 0.930 . S
H380 C362 0.931 . S
H381 C360 0.931 . S
H382 C364 0.931 . S
H383 C365 0.929 . S
H384 C366 0.930 . S
H385 C369 0.930 . S
H386 C370 0.931 . S
H387 C374 0.928 . S
H388 C373 0.929 . S
H389 C371 0.932 . S
C390 C391 1.386 . S
C390 C392 1.397 . S
C390 H414 0.931 . S
C391 C390 1.386 . S
C391 C395 1.397 . S
C392 C390 1.397 . S
C392 C393 1.384 . S
C392 H415 0.930 . S
C393 C392 1.384 . S
C393 C394 1.377 . S
C393 C396 1.481 . S
C394 C393 1.377 . S
C394 C395 1.389 . S
C394 H416 0.929 . S
C395 C391 1.397 . S
C395 C394 1.389 . S
C395 H417 0.931 . S
C396 C393 1.481 . S
C396 C397 1.387 . S
C396 C401 1.390 . S
C397 C396 1.387 . S
C397 C398 1.401 . S
C397 H418 0.930 . S
C398 C397 1.401 . S
C398 C399 1.376 . S
C398 C407 1.511 . S
C399 C398 1.376 . S
C399 C400 1.392 . S
C399 H420 0.931 . S
C400 C399 1.392 . S
C400 C401 1.361 . S
C400 C402 1.500 . S
C401 C396 1.390 . S
C401 C400 1.361 . S
C401 H419 0.931 . S
C402 C400 1.500 . S
C402 C403 1.371 . S
C402 C404 1.365 . S
C403 C402 1.371 . S
C403 C413 1.386 . S
C403 H421 0.931 . S
C404 C402 1.365 . S
C404 C405 1.409 . S
C404 H422 0.929 . S
C405 C404 1.409 . S
C405 C406 1.380 . S
C405 H423 0.930 . S
C406 C405 1.380 . S
C406 C413 1.357 . S
C407 C398 1.511 . S
C407 C408 1.341 . S
C407 C409 1.371 . S
C408 C407 1.341 . S
C408 C412 1.394 . S
C408 H424 0.930 . S
C409 C407 1.371 . S
C409 C410 1.392 . S
C409 H425 0.931 . S
C410 C409 1.392 . S
C410 C411 1.331 . S
C410 H428 0.932 . S
C411 C410 1.331 . S
C411 C412 1.336 . S
C412 C408 1.394 . S
C412 C411 1.336 . S
C412 H427 0.929 . S
C413 C403 1.386 . S
C413 C406 1.357 . S
C413 H426 0.928 . S
H414 C390 0.931 . S
H415 C392 0.930 . S
H416 C394 0.929 . S
H417 C395 0.931 . S
H418 C397 0.930 . S
H419 C401 0.931 . S
H420 C399 0.931 . S
H421 C403 0.931 . S
H422 C404 0.929 . S
H423 C405 0.930 . S
H424 C408 0.930 . S
H425 C409 0.931 . S
H426 C413 0.928 . S
H427 C412 0.929 . S
H428 C410 0.932 . S
C429 C430 1.386 . S
C429 C431 1.397 . S
C429 H453 0.931 . S
C430 C429 1.386 . S
C430 C434 1.397 . S
C431 C429 1.397 . S
C431 C432 1.384 . S
C431 H454 0.930 . S
C432 C431 1.384 . S
C432 C433 1.377 . S
C432 C435 1.481 . S
C433 C432 1.377 . S
C433 C434 1.389 . S
C433 H455 0.929 . S
C434 C430 1.397 . S
C434 C433 1.389 . S
C434 H456 0.931 . S
C435 C432 1.481 . S
C435 C436 1.387 . S
C435 C440 1.390 . S
C436 C435 1.387 . S
C436 C437 1.401 . S
C436 H457 0.930 . S
C437 C436 1.401 . S
C437 C438 1.376 . S
C437 C446 1.511 . S
C438 C437 1.376 . S
C438 C439 1.392 . S
C438 H459 0.931 . S
C439 C438 1.392 . S
C439 C440 1.361 . S
C439 C441 1.500 . S
C440 C435 1.390 . S
C440 C439 1.361 . S
C440 H458 0.931 . S
C441 C439 1.500 . S
C441 C442 1.371 . S
C441 C443 1.365 . S
C442 C441 1.371 . S
C442 C452 1.386 . S
C442 H460 0.931 . S
C443 C441 1.365 . S
C443 C444 1.409 . S
C443 H461 0.929 . S
C444 C443 1.409 . S
C444 C445 1.380 . S
C444 H462 0.930 . S
C445 C444 1.380 . S
C445 C452 1.357 . S
C446 C437 1.511 . S
C446 C447 1.341 . S
C446 C448 1.371 . S
C447 C446 1.341 . S
C447 C451 1.394 . S
C447 H463 0.930 . S
C448 C446 1.371 . S
C448 C449 1.392 . S
C448 H464 0.931 . S
C449 C448 1.392 . S
C449 C450 1.331 . S
C449 H467 0.932 . S
C450 C449 1.331 . S
C450 C451 1.336 . S
C451 C447 1.394 . S
C451 C450 1.336 . S
C451 H466 0.929 . S
C452 C442 1.386 . S
C452 C445 1.357 . S
C452 H465 0.928 . S
H453 C429 0.931 . S
H454 C431 0.930 . S
H455 C433 0.929 . S
H456 C434 0.931 . S
H457 C436 0.930 . S
H458 C440 0.931 . S
H459 C438 0.931 . S
H460 C442 0.931 . S
H461 C443 0.929 . S
H462 C444 0.930 . S
H463 C447 0.930 . S
H464 C448 0.931 . S
H465 C452 0.928 . S
H466 C451 0.929 . S
H467 C449 0.932 . S
C468 C469 1.386 . S
C468 C470 1.397 . S
C468 H492 0.931 . S
C469 C468 1.386 . S
C469 C473 1.397 . S
C470 C468 1.397 . S
C470 C471 1.384 . S
C470 H493 0.930 . S
C471 C470 1.384 . S
C471 C472 1.377 . S
C471 C474 1.481 . S
C472 C471 1.377 . S
C472 C473 1.389 . S
C472 H494 0.929 . S
C473 C469 1.397 . S
C473 C472 1.389 . S
C473 H495 0.931 . S
C474 C471 1.481 . S
C474 C475 1.387 . S
C474 C479 1.390 . S
C475 C474 1.387 . S
C475 C476 1.401 . S
C475 H496 0.930 . S
C476 C475 1.401 . S
C476 C477 1.376 . S
C476 C485 1.511 . S
C477 C476 1.376 . S
C477 C478 1.392 . S
C477 H498 0.931 . S
C478 C477 1.392 . S
C478 C479 1.361 . S
C478 C480 1.500 . S
C479 C474 1.390 . S
C479 C478 1.361 . S
C479 H497 0.931 . S
C480 C478 1.500 . S
C480 C481 1.371 . S
C480 C482 1.365 . S
C481 C480 1.371 . S
C481 C491 1.386 . S
C481 H499 0.931 . S
C482 C480 1.365 . S
C482 C483 1.409 . S
C482 H500 0.929 . S
C483 C482 1.409 . S
C483 C484 1.380 . S
C483 H501 0.930 . S
C484 C483 1.380 . S
C484 C491 1.357 . S
C485 C476 1.511 . S
C485 C486 1.341 . S
C485 C487 1.371 . S
C486 C485 1.341 . S
C486 C490 1.394 . S
C486 H502 0.930 . S
C487 C485 1.371 . S
C487 C488 1.392 . S
C487 H503 0.931 . S
C488 C487 1.392 . S
C488 C489 1.331 . S
C488 H506 0.932 . S
C489 C488 1.331 . S
C489 C490 1.336 . S
C490 C486 1.394 . S
C490 C489 1.336 . S
C490 H505 0.929 . S
C491 C481 1.386 . S
C491 C484 1.357 . S
C491 H504 0.928 . S
H492 C468 0.931 . S
H493 C470 0.930 . S
H494 C472 0.929 . S
H495 C473 0.931 . S
H496 C475 0.930 . S
H497 C479 0.931 . S
H498 C477 0.931 . S
H499 C481 0.931 . S
H500 C482 0.929 . S
H501 C483 0.930 . S
H502 C486 0.930 . S
H503 C487 0.931 . S
H504 C491 0.928 . S
H505 C490 0.929 . S
H506 C488 0.932 . S
C507 C508 1.386 . S
C507 C509 1.397 . S
C507 H531 0.931 . S
C508 C507 1.386 . S
C508 C512 1.397 . S
C509 C507 1.397 . S
C509 C510 1.384 . S
C509 H532 0.930 . S
C510 C509 1.384 . S
C510 C511 1.377 . S
C510 C513 1.481 . S
C511 C510 1.377 . S
C511 C512 1.389 . S
C511 H533 0.929 . S
C512 C508 1.397 . S
C512 C511 1.389 . S
C512 H534 0.931 . S
C513 C510 1.481 . S
C513 C514 1.387 . S
C513 C518 1.390 . S
C514 C513 1.387 . S
C514 C515 1.401 . S
C514 H535 0.930 . S
C515 C514 1.401 . S
C515 C516 1.376 . S
C515 C524 1.511 . S
C516 C515 1.376 . S
C516 C517 1.392 . S
C516 H537 0.931 . S
C517 C516 1.392 . S
C517 C518 1.361 . S
C517 C519 1.500 . S
C518 C513 1.390 . S
C518 C517 1.361 . S
C518 H536 0.931 . S
C519 C517 1.500 . S
C519 C520 1.371 . S
C519 C521 1.365 . S
C520 C519 1.371 . S
C520 C530 1.386 . S
C520 H538 0.931 . S
C521 C519 1.365 . S
C521 C522 1.409 . S
C521 H539 0.929 . S
C522 C521 1.409 . S
C522 C523 1.380 . S
C522 H540 0.930 . S
C523 C522 1.380 . S
C523 C530 1.357 . S
C524 C515 1.511 . S
C524 C525 1.341 . S
C524 C526 1.371 . S
C525 C524 1.341 . S
C525 C529 1.394 . S
C525 H541 0.930 . S
C526 C524 1.371 . S
C526 C527 1.392 . S
C526 H542 0.931 . S
C527 C526 1.392 . S
C527 C528 1.331 . S
C527 H545 0.932 . S
C528 C527 1.331 . S
C528 C529 1.336 . S
C529 C525 1.394 . S
C529 C528 1.336 . S
C529 H544 0.929 . S
C530 C520 1.386 . S
C530 C523 1.357 . S
C530 H543 0.928 . S
H531 C507 0.931 . S
H532 C509 0.930 . S
H533 C511 0.929 . S
H534 C512 0.931 . S
H535 C514 0.930 . S
H536 C518 0.931 . S
H537 C516 0.931 . S
H538 C520 0.931 . S
H539 C521 0.929 . S
H540 C522 0.930 . S
H541 C525 0.930 . S
H542 C526 0.931 . S
H543 C530 0.928 . S
H544 C529 0.929 . S
H545 C527 0.932 . S
C546 C547 1.386 . S
C546 C548 1.397 . S
C546 H570 0.931 . S
C547 C546 1.386 . S
C547 C551 1.397 . S
C548 C546 1.397 . S
C548 C549 1.384 . S
C548 H571 0.930 . S
C549 C548 1.384 . S
C549 C550 1.377 . S
C549 C552 1.481 . S
C550 C549 1.377 . S
C550 C551 1.389 . S
C550 H572 0.929 . S
C551 C547 1.397 . S
C551 C550 1.389 . S
C551 H573 0.931 . S
C552 C549 1.481 . S
C552 C553 1.387 . S
C552 C557 1.390 . S
C553 C552 1.387 . S
C553 C554 1.401 . S
C553 H574 0.930 . S
C554 C553 1.401 . S
C554 C555 1.376 . S
C554 C563 1.511 . S
C555 C554 1.376 . S
C555 C556 1.392 . S
C555 H576 0.931 . S
C556 C555 1.392 . S
C556 C557 1.361 . S
C556 C558 1.500 . S
C557 C552 1.390 . S
C557 C556 1.361 . S
C557 H575 0.931 . S
C558 C556 1.500 . S
C558 C559 1.371 . S
C558 C560 1.365 . S
C559 C558 1.371 . S
C559 C569 1.386 . S
C559 H577 0.931 . S
C560 C558 1.365 . S
C560 C561 1.409 . S
C560 H578 0.929 . S
C561 C560 1.409 . S
C561 C562 1.380 . S
C561 H579 0.930 . S
C562 C561 1.380 . S
C562 C569 1.357 . S
C563 C554 1.511 . S
C563 C564 1.341 . S
C563 C565 1.371 . S
C564 C563 1.341 . S
C564 C568 1.394 . S
C564 H580 0.930 . S
C565 C563 1.371 . S
C565 C566 1.392 . S
C565 H581 0.931 . S
C566 C565 1.392 . S
C566 C567 1.331 . S
C566 H584 0.932 . S
C567 C566 1.331 . S
C567 C568 1.336 . S
C568 C564 1.394 . S
C568 C567 1.336 . S
C568 H583 0.929 . S
C569 C559 1.386 . S
C569 C562 1.357 . S
C569 H582 0.928 . S
H570 C546 0.931 . S
H571 C548 0.930 . S
H572 C550 0.929 . S
H573 C551 0.931 . S
H574 C553 0.930 . S
H575 C557 0.931 . S
H576 C555 0.931 . S
H577 C559 0.931 . S
H578 C560 0.929 . S
H579 C561 0.930 . S
H580 C564 0.930 . S
H581 C565 0.931 . S
H582 C569 0.928 . S
H583 C568 0.929 . S
H584 C566 0.932 . S
C585 C586 1.386 . S
C585 C587 1.397 . S
C585 H609 0.931 . S
C586 C585 1.386 . S
C586 C590 1.397 . S
C587 C585 1.397 . S
C587 C588 1.384 . S
C587 H610 0.930 . S
C588 C587 1.384 . S
C588 C589 1.377 . S
C588 C591 1.481 . S
C589 C588 1.377 . S
C589 C590 1.389 . S
C589 H611 0.929 . S
C590 C586 1.397 . S
C590 C589 1.389 . S
C590 H612 0.931 . S
C591 C588 1.481 . S
C591 C592 1.387 . S
C591 C596 1.390 . S
C592 C591 1.387 . S
C592 C593 1.401 . S
C592 H613 0.930 . S
C593 C592 1.401 . S
C593 C594 1.376 . S
C593 C602 1.511 . S
C594 C593 1.376 . S
C594 C595 1.392 . S
C594 H615 0.931 . S
C595 C594 1.392 . S
C595 C596 1.361 . S
C595 C597 1.500 . S
C596 C591 1.390 . S
C596 C595 1.361 . S
C596 H614 0.931 . S
C597 C595 1.500 . S
C597 C598 1.371 . S
C597 C599 1.365 . S
C598 C597 1.371 . S
C598 C608 1.386 . S
C598 H616 0.931 . S
C599 C597 1.365 . S
C599 C600 1.409 . S
C599 H617 0.929 . S
C600 C599 1.409 . S
C600 C601 1.380 . S
C600 H618 0.930 . S
C601 C600 1.380 . S
C601 C608 1.357 . S
C602 C593 1.511 . S
C602 C603 1.341 . S
C602 C604 1.371 . S
C603 C602 1.341 . S
C603 C607 1.394 . S
C603 H619 0.930 . S
C604 C602 1.371 . S
C604 C605 1.392 . S
C604 H620 0.931 . S
C605 C604 1.392 . S
C605 C606 1.331 . S
C605 H623 0.932 . S
C606 C605 1.331 . S
C606 C607 1.336 . S
C607 C603 1.394 . S
C607 C606 1.336 . S
C607 H622 0.929 . S
C608 C598 1.386 . S
C608 C601 1.357 . S
C608 H621 0.928 . S
H609 C585 0.931 . S
H610 C587 0.930 . S
H611 C589 0.929 . S
H612 C590 0.931 . S
H613 C592 0.930 . S
H614 C596 0.931 . S
H615 C594 0.931 . S
H616 C598 0.931 . S
H617 C599 0.929 . S
H618 C600 0.930 . S
H619 C603 0.930 . S
H620 C604 0.931 . S
H621 C608 0.928 . S
H622 C607 0.929 . S
H623 C605 0.932 . S
C624 C625 1.386 . S
C624 C626 1.397 . S
C624 H648 0.931 . S
C625 C624 1.386 . S
C625 C629 1.397 . S
C626 C624 1.397 . S
C626 C627 1.384 . S
C626 H649 0.930 . S
C627 C626 1.384 . S
C627 C628 1.377 . S
C627 C630 1.481 . S
C628 C627 1.377 . S
C628 C629 1.389 . S
C628 H650 0.929 . S
C629 C625 1.397 . S
C629 C628 1.389 . S
C629 H651 0.931 . S
C630 C627 1.481 . S
C630 C631 1.387 . S
C630 C635 1.390 . S
C631 C630 1.387 . S
C631 C632 1.401 . S
C631 H652 0.930 . S
C632 C631 1.401 . S
C632 C633 1.376 . S
C632 C641 1.511 . S
C633 C632 1.376 . S
C633 C634 1.392 . S
C633 H654 0.931 . S
C634 C633 1.392 . S
C634 C635 1.361 . S
C634 C636 1.500 . S
C635 C630 1.390 . S
C635 C634 1.361 . S
C635 H653 0.931 . S
C636 C634 1.500 . S
C636 C637 1.371 . S
C636 C638 1.365 . S
C637 C636 1.371 . S
C637 C647 1.386 . S
C637 H655 0.931 . S
C638 C636 1.365 . S
C638 C639 1.409 . S
C638 H656 0.929 . S
C639 C638 1.409 . S
C639 C640 1.380 . S
C639 H657 0.930 . S
C640 C639 1.380 . S
C640 C647 1.357 . S
C641 C632 1.511 . S
C641 C642 1.341 . S
C641 C643 1.371 . S
C642 C641 1.341 . S
C642 C646 1.394 . S
C642 H658 0.930 . S
C643 C641 1.371 . S
C643 C644 1.392 . S
C643 H659 0.931 . S
C644 C643 1.392 . S
C644 C645 1.331 . S
C644 H662 0.932 . S
C645 C644 1.331 . S
C645 C646 1.336 . S
C646 C642 1.394 . S
C646 C645 1.336 . S
C646 H661 0.929 . S
C647 C637 1.386 . S
C647 C640 1.357 . S
C647 H660 0.928 . S
H648 C624 0.931 . S
H649 C626 0.930 . S
H650 C628 0.929 . S
H651 C629 0.931 . S
H652 C631 0.930 . S
H653 C635 0.931 . S
H654 C633 0.931 . S
H655 C637 0.931 . S
H656 C638 0.929 . S
H657 C639 0.930 . S
H658 C642 0.930 . S
H659 C643 0.931 . S
H660 C647 0.928 . S
H661 C646 0.929 . S
H662 C644 0.932 . S
C663 C664 1.386 . S
C663 C665 1.397 . S
C663 H687 0.931 . S
C664 C663 1.386 . S
C664 C668 1.397 . S
C665 C663 1.397 . S
C665 C666 1.384 . S
C665 H688 0.930 . S
C666 C665 1.384 . S
C666 C667 1.377 . S
C666 C669 1.481 . S
C667 C666 1.377 . S
C667 C668 1.389 . S
C667 H689 0.929 . S
C668 C664 1.397 . S
C668 C667 1.389 . S
C668 H690 0.931 . S
C669 C666 1.481 . S
C669 C670 1.387 . S
C669 C674 1.390 . S
C670 C669 1.387 . S
C670 C671 1.401 . S
C670 H691 0.930 . S
C671 C670 1.401 . S
C671 C672 1.376 . S
C671 C680 1.511 . S
C672 C671 1.376 . S
C672 C673 1.392 . S
C672 H693 0.931 . S
C673 C672 1.392 . S
C673 C674 1.361 . S
C673 C675 1.500 . S
C674 C669 1.390 . S
C674 C673 1.361 . S
C674 H692 0.931 . S
C675 C673 1.500 . S
C675 C676 1.371 . S
C675 C677 1.365 . S
C676 C675 1.371 . S
C676 C686 1.386 . S
C676 H694 0.931 . S
C677 C675 1.365 . S
C677 C678 1.409 . S
C677 H695 0.929 . S
C678 C677 1.409 . S
C678 C679 1.380 . S
C678 H696 0.930 . S
C679 C678 1.380 . S
C679 C686 1.357 . S
C680 C671 1.511 . S
C680 C681 1.341 . S
C680 C682 1.371 . S
C681 C680 1.341 . S
C681 C685 1.394 . S
C681 H697 0.930 . S
C682 C680 1.371 . S
C682 C683 1.392 . S
C682 H698 0.931 . S
C683 C682 1.392 . S
C683 C684 1.331 . S
C683 H701 0.932 . S
C684 C683 1.331 . S
C684 C685 1.336 . S
C685 C681 1.394 . S
C685 C684 1.336 . S
C685 H700 0.929 . S
C686 C676 1.386 . S
C686 C679 1.357 . S
C686 H699 0.928 . S
H687 C663 0.931 . S
H688 C665 0.930 . S
H689 C667 0.929 . S
H690 C668 0.931 . S
H691 C670 0.930 . S
H692 C674 0.931 . S
H693 C672 0.931 . S
H694 C676 0.931 . S
H695 C677 0.929 . S
H696 C678 0.930 . S
H697 C681 0.930 . S
H698 C682 0.931 . S
H699 C686 0.928 . S
H700 C685 0.929 . S
H701 C683 0.932 . S
Gd702 N733 2.661 . S
Gd702 N739 2.601 . S
Gd702 O746 2.545 . S
Gd702 O747 2.606 1_545 S
Gd702 O749 2.429 . S
Gd702 O750 2.545 1_545 S
Gd702 O751 2.412 . S
Gd702 O753 2.362 1_554 S
Gd702 O754 2.324 1_545 S
Gd702 C761 2.828 . S
Gd703 N712 2.661 . S
Gd703 N716 2.601 . S
Gd703 O747 2.362 1_556 S
Gd703 O748 2.324 1_565 S
Gd703 O752 2.545 . S
Gd703 O753 2.606 1_565 S
Gd703 O755 2.429 . S
Gd703 O756 2.545 1_565 S
Gd703 O757 2.412 . S
Gd703 C770 2.828 . S
C704 C707 1.417 . S
C704 C709 1.431 . S
C704 C710 1.412 . S
C705 C708 1.437 . S
C705 C709 1.317 . S
C705 H724 0.929 . S
C706 C707 1.426 . S
C706 C708 1.413 . S
C706 N716 1.359 . S
C707 C704 1.417 . S
C707 C706 1.426 . S
C707 N712 1.350 . S
C708 C705 1.437 . S
C708 C706 1.413 . S
C708 C718 1.391 . S
C709 C704 1.431 . S
C709 C705 1.317 . S
C709 H720 0.930 . S
C710 C704 1.412 . S
C710 C711 1.355 . S
C710 H722 0.930 . S
C711 C710 1.355 . S
C711 C713 1.402 . S
C711 H723 0.930 . S
N712 Gd703 2.661 . S
N712 C707 1.350 . S
N712 C713 1.307 . S
C713 C711 1.402 . S
C713 N712 1.307 . S
C713 H714 0.930 . S
H714 C713 0.930 . S
C715 N716 1.334 . S
C715 C717 1.394 . S
C715 H719 0.930 . S
N716 Gd703 2.601 . S
N716 C706 1.359 . S
N716 C715 1.334 . S
C717 C715 1.394 . S
C717 C718 1.359 . S
C717 H729 0.930 . S
C718 C708 1.391 . S
C718 C717 1.359 . S
C718 H730 0.929 . S
H719 C715 0.930 . S
H720 C709 0.930 . S
H721 C738 0.930 . S
H722 C710 0.930 . S
H723 C711 0.930 . S
H724 C705 0.929 . S
H725 C743 0.930 . S
H726 C734 0.930 . S
H727 C735 0.930 . S
H728 C759 0.929 . S
H729 C717 0.930 . S
H730 C718 0.929 . S
H731 C760 0.930 . S
H732 C741 0.930 . S
N733 Gd702 2.661 . S
N733 C737 1.350 . S
N733 C738 1.307 . S
C734 H726 0.930 . S
C734 C735 1.355 . S
C734 C736 1.412 . S
C735 H727 0.930 . S
C735 C734 1.355 . S
C735 C738 1.402 . S
C736 C734 1.412 . S
C736 C737 1.417 . S
C736 C760 1.431 . S
C737 N733 1.350 . S
C737 C736 1.417 . S
C737 C740 1.426 . S
C738 H721 0.930 . S
C738 N733 1.307 . S
C738 C735 1.402 . S
N739 Gd702 2.601 . S
N739 C740 1.359 . S
N739 C743 1.334 . S
C740 C737 1.426 . S
C740 N739 1.359 . S
C740 C744 1.413 . S
C741 H732 0.930 . S
C741 C742 1.359 . S
C741 C743 1.394 . S
C742 C741 1.359 . S
C742 C744 1.391 . S
C742 H745 0.929 . S
C743 H725 0.930 . S
C743 N739 1.334 . S
C743 C741 1.394 . S
C744 C740 1.413 . S
C744 C742 1.391 . S
C744 C759 1.437 . S
H745 C742 0.929 . S
O746 Gd702 2.545 . S
O746 C761 1.258 . S
O747 Gd702 2.606 1_565 S
O747 Gd703 2.362 1_554 S
O747 C758 1.284 . S
O748 Gd703 2.324 1_545 S
O748 C768 1.254 . S
O749 Gd702 2.429 . S
O749 C768 1.268 1_554 S
O750 Gd702 2.545 1_565 S
O750 C758 1.250 . S
O751 Gd702 2.412 . S
O751 C761 1.252 . S
O752 Gd703 2.545 . S
O752 C770 1.258 . S
O753 Gd702 2.362 1_556 S
O753 Gd703 2.606 1_545 S
O753 C769 1.284 . S
O754 Gd702 2.324 1_565 S
O754 C777 1.254 . S
O755 Gd703 2.429 . S
O755 C777 1.268 1_556 S
O756 Gd703 2.545 1_545 S
O756 C769 1.250 . S
O757 Gd703 2.412 . S
O757 C770 1.252 . S
C758 O747 1.284 . S
C758 O750 1.250 . S
C759 H728 0.929 . S
C759 C744 1.437 . S
C759 C760 1.317 . S
C760 H731 0.930 . S
C760 C736 1.431 . S
C760 C759 1.317 . S
C761 Gd702 2.828 . S
C761 O746 1.258 . S
C761 O751 1.252 . S
C761 C762 1.497 . S
C762 C761 1.497 . S
C762 C763 1.395 . S
C762 C764 1.380 1_545 S
C763 C762 1.395 . S
C763 C766 1.398 . S
C763 H778 0.930 . S
C764 C762 1.380 1_565 S
C764 C765 1.391 . S
C764 H779 0.930 . S
C765 C764 1.391 . S
C765 C767 1.387 1_565 S
C766 C763 1.398 . S
C766 C767 1.380 . S
C766 H780 0.930 . S
C767 C765 1.387 1_545 S
C767 C766 1.380 . S
C767 H781 0.930 . S
C768 O748 1.254 . S
C768 O749 1.268 1_556 S
C769 O753 1.284 . S
C769 O756 1.250 . S
C770 Gd703 2.828 . S
C770 O752 1.258 . S
C770 O757 1.252 . S
C770 C771 1.497 . S
C771 C770 1.497 . S
C771 C772 1.395 . S
C771 C773 1.380 1_565 S
C772 C771 1.395 . S
C772 C775 1.398 . S
C772 H782 0.930 . S
C773 C771 1.380 1_545 S
C773 C774 1.391 . S
C773 H783 0.930 . S
C774 C773 1.391 . S
C774 C776 1.387 1_545 S
C775 C772 1.398 . S
C775 C776 1.380 . S
C775 H784 0.930 . S
C776 C774 1.387 1_565 S
C776 C775 1.380 . S
C776 H785 0.930 . S
C777 O754 1.254 . S
C777 O755 1.268 1_554 S
H778 C763 0.930 . S
H779 C764 0.930 . S
H780 C766 0.930 . S
H781 C767 0.930 . S
H782 C772 0.930 . S
H783 C773 0.930 . S
H784 C775 0.930 . S
H785 C776 0.930 . S
Gd786 N817 2.661 . S
Gd786 N823 2.601 . S
Gd786 O830 2.545 . S
Gd786 O831 2.606 1_655 S
Gd786 O833 2.429 . S
Gd786 O834 2.545 1_655 S
Gd786 O835 2.412 . S
Gd786 O837 2.362 1_554 S
Gd786 O838 2.324 1_655 S
Gd786 C845 2.828 . S
Gd787 N796 2.661 . S
Gd787 N800 2.601 . S
Gd787 O831 2.362 1_556 S
Gd787 O832 2.324 1_455 S
Gd787 O836 2.545 . S
Gd787 O837 2.606 1_455 S
Gd787 O839 2.429 . S
Gd787 O840 2.545 1_455 S
Gd787 O841 2.412 . S
Gd787 C854 2.828 . S
C788 C791 1.417 . S
C788 C793 1.431 . S
C788 C794 1.412 . S
C789 C792 1.437 . S
C789 C793 1.317 . S
C789 H808 0.929 . S
C790 C791 1.426 . S
C790 C792 1.413 . S
C790 N800 1.359 . S
C791 C788 1.417 . S
C791 C790 1.426 . S
C791 N796 1.350 . S
C792 C789 1.437 . S
C792 C790 1.413 . S
C792 C802 1.391 . S
C793 C788 1.431 . S
C793 C789 1.317 . S
C793 H804 0.930 . S
C794 C788 1.412 . S
C794 C795 1.355 . S
C794 H806 0.930 . S
C795 C794 1.355 . S
C795 C797 1.402 . S
C795 H807 0.930 . S
N796 Gd787 2.661 . S
N796 C791 1.350 . S
N796 C797 1.307 . S
C797 C795 1.402 . S
C797 N796 1.307 . S
C797 H798 0.930 . S
H798 C797 0.930 . S
C799 N800 1.334 . S
C799 C801 1.394 . S
C799 H803 0.930 . S
N800 Gd787 2.601 . S
N800 C790 1.359 . S
N800 C799 1.334 . S
C801 C799 1.394 . S
C801 C802 1.359 . S
C801 H813 0.930 . S
C802 C792 1.391 . S
C802 C801 1.359 . S
C802 H814 0.929 . S
H803 C799 0.930 . S
H804 C793 0.930 . S
H805 C822 0.930 . S
H806 C794 0.930 . S
H807 C795 0.930 . S
H808 C789 0.929 . S
H809 C827 0.930 . S
H810 C818 0.930 . S
H811 C819 0.930 . S
H812 C843 0.929 . S
H813 C801 0.930 . S
H814 C802 0.929 . S
H815 C844 0.930 . S
H816 C825 0.930 . S
N817 Gd786 2.661 . S
N817 C821 1.350 . S
N817 C822 1.307 . S
C818 H810 0.930 . S
C818 C819 1.355 . S
C818 C820 1.412 . S
C819 H811 0.930 . S
C819 C818 1.355 . S
C819 C822 1.402 . S
C820 C818 1.412 . S
C820 C821 1.417 . S
C820 C844 1.431 . S
C821 N817 1.350 . S
C821 C820 1.417 . S
C821 C824 1.426 . S
C822 H805 0.930 . S
C822 N817 1.307 . S
C822 C819 1.402 . S
N823 Gd786 2.601 . S
N823 C824 1.359 . S
N823 C827 1.334 . S
C824 C821 1.426 . S
C824 N823 1.359 . S
C824 C828 1.413 . S
C825 H816 0.930 . S
C825 C826 1.359 . S
C825 C827 1.394 . S
C826 C825 1.359 . S
C826 C828 1.391 . S
C826 H829 0.929 . S
C827 H809 0.930 . S
C827 N823 1.334 . S
C827 C825 1.394 . S
C828 C824 1.413 . S
C828 C826 1.391 . S
C828 C843 1.437 . S
H829 C826 0.929 . S
O830 Gd786 2.545 . S
O830 C845 1.258 . S
O831 Gd786 2.606 1_455 S
O831 Gd787 2.362 1_554 S
O831 C842 1.284 . S
O832 Gd787 2.324 1_655 S
O832 C852 1.254 . S
O833 Gd786 2.429 . S
O833 C852 1.268 1_554 S
O834 Gd786 2.545 1_455 S
O834 C842 1.250 . S
O835 Gd786 2.412 . S
O835 C845 1.252 . S
O836 Gd787 2.545 . S
O836 C854 1.258 . S
O837 Gd786 2.362 1_556 S
O837 Gd787 2.606 1_655 S
O837 C853 1.284 . S
O838 Gd786 2.324 1_455 S
O838 C861 1.254 . S
O839 Gd787 2.429 . S
O839 C861 1.268 1_556 S
O840 Gd787 2.545 1_655 S
O840 C853 1.250 . S
O841 Gd787 2.412 . S
O841 C854 1.252 . S
C842 O831 1.284 . S
C842 O834 1.250 . S
C843 H812 0.929 . S
C843 C828 1.437 . S
C843 C844 1.317 . S
C844 H815 0.930 . S
C844 C820 1.431 . S
C844 C843 1.317 . S
C845 Gd786 2.828 . S
C845 O830 1.258 . S
C845 O835 1.252 . S
C845 C846 1.497 . S
C846 C845 1.497 . S
C846 C847 1.395 . S
C846 C848 1.380 1_655 S
C847 C846 1.395 . S
C847 C850 1.398 . S
C847 H862 0.930 . S
C848 C846 1.380 1_455 S
C848 C849 1.391 . S
C848 H863 0.930 . S
C849 C848 1.391 . S
C849 C851 1.387 1_455 S
C850 C847 1.398 . S
C850 C851 1.380 . S
C850 H864 0.930 . S
C851 C849 1.387 1_655 S
C851 C850 1.380 . S
C851 H865 0.930 . S
C852 O832 1.254 . S
C852 O833 1.268 1_556 S
C853 O837 1.284 . S
C853 O840 1.250 . S
C854 Gd787 2.828 . S
C854 O836 1.258 . S
C854 O841 1.252 . S
C854 C855 1.497 . S
C855 C854 1.497 . S
C855 C856 1.395 . S
C855 C857 1.380 1_455 S
C856 C855 1.395 . S
C856 C859 1.398 . S
C856 H866 0.930 . S
C857 C855 1.380 1_655 S
C857 C858 1.391 . S
C857 H867 0.930 . S
C858 C857 1.391 . S
C858 C860 1.387 1_655 S
C859 C856 1.398 . S
C859 C860 1.380 . S
C859 H868 0.930 . S
C860 C858 1.387 1_455 S
C860 C859 1.380 . S
C860 H869 0.930 . S
C861 O838 1.254 . S
C861 O839 1.268 1_554 S
H862 C847 0.930 . S
H863 C848 0.930 . S
H864 C850 0.930 . S
H865 C851 0.930 . S
H866 C856 0.930 . S
H867 C857 0.930 . S
H868 C859 0.930 . S
H869 C860 0.930 . S
Gd870 N901 2.661 . S
Gd870 N907 2.601 . S
Gd870 O914 2.545 . S
Gd870 O915 2.606 . S
Gd870 O917 2.429 . S
Gd870 O918 2.545 . S
Gd870 O919 2.412 . S
Gd870 O921 2.362 1_556 S
Gd870 O922 2.324 . S
Gd870 C929 2.828 . S
Gd871 N880 2.661 . S
Gd871 N884 2.601 . S
Gd871 O915 2.362 1_554 S
Gd871 O916 2.324 . S
Gd871 O920 2.545 . S
Gd871 O921 2.606 . S
Gd871 O923 2.429 . S
Gd871 O924 2.545 . S
Gd871 O925 2.412 . S
Gd871 C938 2.828 . S
C872 C875 1.417 . S
C872 C877 1.431 . S
C872 C878 1.412 . S
C873 C876 1.437 . S
C873 C877 1.317 . S
C873 H892 0.929 . S
C874 C875 1.426 . S
C874 C876 1.413 . S
C874 N884 1.359 . S
C875 C872 1.417 . S
C875 C874 1.426 . S
C875 N880 1.350 . S
C876 C873 1.437 . S
C876 C874 1.413 . S
C876 C886 1.391 . S
C877 C872 1.431 . S
C877 C873 1.317 . S
C877 H888 0.930 . S
C878 C872 1.412 . S
C878 C879 1.355 . S
C878 H890 0.930 . S
C879 C878 1.355 . S
C879 C881 1.402 . S
C879 H891 0.930 . S
N880 Gd871 2.661 . S
N880 C875 1.350 . S
N880 C881 1.307 . S
C881 C879 1.402 . S
C881 N880 1.307 . S
C881 H882 0.930 . S
H882 C881 0.930 . S
C883 N884 1.334 . S
C883 C885 1.394 . S
C883 H887 0.930 . S
N884 Gd871 2.601 . S
N884 C874 1.359 . S
N884 C883 1.334 . S
C885 C883 1.394 . S
C885 C886 1.359 . S
C885 H897 0.930 . S
C886 C876 1.391 . S
C886 C885 1.359 . S
C886 H898 0.929 . S
H887 C883 0.930 . S
H888 C877 0.930 . S
H889 C906 0.930 . S
H890 C878 0.930 . S
H891 C879 0.930 . S
H892 C873 0.929 . S
H893 C911 0.930 . S
H894 C902 0.930 . S
H895 C903 0.930 . S
H896 C927 0.929 . S
H897 C885 0.930 . S
H898 C886 0.929 . S
H899 C928 0.930 . S
H900 C909 0.930 . S
N901 Gd870 2.661 . S
N901 C905 1.350 . S
N901 C906 1.307 . S
C902 H894 0.930 . S
C902 C903 1.355 . S
C902 C904 1.412 . S
C903 H895 0.930 . S
C903 C902 1.355 . S
C903 C906 1.402 . S
C904 C902 1.412 . S
C904 C905 1.417 . S
C904 C928 1.431 . S
C905 N901 1.350 . S
C905 C904 1.417 . S
C905 C908 1.426 . S
C906 H889 0.930 . S
C906 N901 1.307 . S
C906 C903 1.402 . S
N907 Gd870 2.601 . S
N907 C908 1.359 . S
N907 C911 1.334 . S
C908 C905 1.426 . S
C908 N907 1.359 . S
C908 C912 1.413 . S
C909 H900 0.930 . S
C909 C910 1.359 . S
C909 C911 1.394 . S
C910 C909 1.359 . S
C910 C912 1.391 . S
C910 H913 0.929 . S
C911 H893 0.930 . S
C911 N907 1.334 . S
C911 C909 1.394 . S
C912 C908 1.413 . S
C912 C910 1.391 . S
C912 C927 1.437 . S
H913 C910 0.929 . S
O914 Gd870 2.545 . S
O914 C929 1.258 . S
O915 Gd870 2.606 . S
O915 Gd871 2.362 1_556 S
O915 C926 1.284 . S
O916 Gd871 2.324 . S
O916 C936 1.254 . S
O917 Gd870 2.429 . S
O917 C936 1.268 1_556 S
O918 Gd870 2.545 . S
O918 C926 1.250 . S
O919 Gd870 2.412 . S
O919 C929 1.252 . S
O920 Gd871 2.545 . S
O920 C938 1.258 . S
O921 Gd870 2.362 1_554 S
O921 Gd871 2.606 . S
O921 C937 1.284 . S
O922 Gd870 2.324 . S
O922 C945 1.254 . S
O923 Gd871 2.429 . S
O923 C945 1.268 1_554 S
O924 Gd871 2.545 . S
O924 C937 1.250 . S
O925 Gd871 2.412 . S
O925 C938 1.252 . S
C926 O915 1.284 . S
C926 O918 1.250 . S
C927 H896 0.929 . S
C927 C912 1.437 . S
C927 C928 1.317 . S
C928 H899 0.930 . S
C928 C904 1.431 . S
C928 C927 1.317 . S
C929 Gd870 2.828 . S
C929 O914 1.258 . S
C929 O919 1.252 . S
C929 C930 1.497 . S
C930 C929 1.497 . S
C930 C931 1.395 . S
C930 C932 1.380 . S
C931 C930 1.395 . S
C931 C934 1.398 . S
C931 H946 0.930 . S
C932 C930 1.380 . S
C932 C933 1.391 . S
C932 H947 0.930 . S
C933 C932 1.391 . S
C933 C935 1.387 . S
C934 C931 1.398 . S
C934 C935 1.380 . S
C934 H948 0.930 . S
C935 C933 1.387 . S
C935 C934 1.380 . S
C935 H949 0.930 . S
C936 O916 1.254 . S
C936 O917 1.268 1_554 S
C937 O921 1.284 . S
C937 O924 1.250 . S
C938 Gd871 2.828 . S
C938 O920 1.258 . S
C938 O925 1.252 . S
C938 C939 1.497 . S
C939 C938 1.497 . S
C939 C940 1.395 . S
C939 C941 1.380 . S
C940 C939 1.395 . S
C940 C943 1.398 . S
C940 H950 0.930 . S
C941 C939 1.380 . S
C941 C942 1.391 . S
C941 H951 0.930 . S
C942 C941 1.391 . S
C942 C944 1.387 . S
C943 C940 1.398 . S
C943 C944 1.380 . S
C943 H952 0.930 . S
C944 C942 1.387 . S
C944 C943 1.380 . S
C944 H953 0.930 . S
C945 O922 1.254 . S
C945 O923 1.268 1_556 S
H946 C931 0.930 . S
H947 C932 0.930 . S
H948 C934 0.930 . S
H949 C935 0.930 . S
H950 C940 0.930 . S
H951 C941 0.930 . S
H952 C943 0.930 . S
H953 C944 0.930 . S
Gd954 N985 2.661 . S
Gd954 N991 2.601 . S
Gd954 O998 2.545 . S
Gd954 O999 2.606 . S
Gd954 O1001 2.429 . S
Gd954 O1002 2.545 . S
Gd954 O1003 2.412 . S
Gd954 O1005 2.362 . S
Gd954 O1006 2.324 . S
Gd954 C1013 2.828 . S
Gd955 N964 2.661 . S
Gd955 N968 2.601 . S
Gd955 O999 2.362 . S
Gd955 O1000 2.324 . S
Gd955 O1004 2.545 . S
Gd955 O1005 2.606 . S
Gd955 O1007 2.429 . S
Gd955 O1008 2.545 . S
Gd955 O1009 2.412 . S
Gd955 C1022 2.828 . S
C956 C959 1.417 . S
C956 C961 1.431 . S
C956 C962 1.412 . S
C957 C960 1.437 . S
C957 C961 1.317 . S
C957 H976 0.929 . S
C958 C959 1.426 . S
C958 C960 1.413 . S
C958 N968 1.359 . S
C959 C956 1.417 . S
C959 C958 1.426 . S
C959 N964 1.350 . S
C960 C957 1.437 . S
C960 C958 1.413 . S
C960 C970 1.391 . S
C961 C956 1.431 . S
C961 C957 1.317 . S
C961 H972 0.930 . S
C962 C956 1.412 . S
C962 C963 1.355 . S
C962 H974 0.930 . S
C963 C962 1.355 . S
C963 C965 1.402 . S
C963 H975 0.930 . S
N964 Gd955 2.661 . S
N964 C959 1.350 . S
N964 C965 1.307 . S
C965 C963 1.402 . S
C965 N964 1.307 . S
C965 H966 0.930 . S
H966 C965 0.930 . S
C967 N968 1.334 . S
C967 C969 1.394 . S
C967 H971 0.930 . S
N968 Gd955 2.601 . S
N968 C958 1.359 . S
N968 C967 1.334 . S
C969 C967 1.394 . S
C969 C970 1.359 . S
C969 H981 0.930 . S
C970 C960 1.391 . S
C970 C969 1.359 . S
C970 H982 0.929 . S
H971 C967 0.930 . S
H972 C961 0.930 . S
H973 C990 0.930 . S
H974 C962 0.930 . S
H975 C963 0.930 . S
H976 C957 0.929 . S
H977 C995 0.930 . S
H978 C986 0.930 . S
H979 C987 0.930 . S
H980 C1011 0.929 . S
H981 C969 0.930 . S
H982 C970 0.929 . S
H983 C1012 0.930 . S
H984 C993 0.930 . S
N985 Gd954 2.661 . S
N985 C989 1.350 . S
N985 C990 1.307 . S
C986 H978 0.930 . S
C986 C987 1.355 . S
C986 C988 1.412 . S
C987 H979 0.930 . S
C987 C986 1.355 . S
C987 C990 1.402 . S
C988 C986 1.412 . S
C988 C989 1.417 . S
C988 C1012 1.431 . S
C989 N985 1.350 . S
C989 C988 1.417 . S
C989 C992 1.426 . S
C990 H973 0.930 . S
C990 N985 1.307 . S
C990 C987 1.402 . S
N991 Gd954 2.601 . S
N991 C992 1.359 . S
N991 C995 1.334 . S
C992 C989 1.426 . S
C992 N991 1.359 . S
C992 C996 1.413 . S
C993 H984 0.930 . S
C993 C994 1.359 . S
C993 C995 1.394 . S
C994 C993 1.359 . S
C994 C996 1.391 . S
C994 H997 0.929 . S
C995 H977 0.930 . S
C995 N991 1.334 . S
C995 C993 1.394 . S
C996 C992 1.413 . S
C996 C994 1.391 . S
C996 C1011 1.437 . S
H997 C994 0.929 . S
O998 Gd954 2.545 . S
O998 C1013 1.258 . S
O999 Gd954 2.606 . S
O999 Gd955 2.362 . S
O999 C1010 1.284 . S
O1000 Gd955 2.324 . S
O1000 C1020 1.254 . S
O1001 Gd954 2.429 . S
O1001 C1020 1.268 . S
O1002 Gd954 2.545 . S
O1002 C1010 1.250 . S
O1003 Gd954 2.412 . S
O1003 C1013 1.252 . S
O1004 Gd955 2.545 . S
O1004 C1022 1.258 . S
O1005 Gd954 2.362 . S
O1005 Gd955 2.606 . S
O1005 C1021 1.284 . S
O1006 Gd954 2.324 . S
O1006 C1029 1.254 . S
O1007 Gd955 2.429 . S
O1007 C1029 1.268 . S
O1008 Gd955 2.545 . S
O1008 C1021 1.250 . S
O1009 Gd955 2.412 . S
O1009 C1022 1.252 . S
C1010 O999 1.284 . S
C1010 O1002 1.250 . S
C1011 H980 0.929 . S
C1011 C996 1.437 . S
C1011 C1012 1.317 . S
C1012 H983 0.930 . S
C1012 C988 1.431 . S
C1012 C1011 1.317 . S
C1013 Gd954 2.828 . S
C1013 O998 1.258 . S
C1013 O1003 1.252 . S
C1013 C1014 1.497 . S
C1014 C1013 1.497 . S
C1014 C1015 1.395 . S
C1014 C1016 1.380 . S
C1015 C1014 1.395 . S
C1015 C1018 1.398 . S
C1015 H1030 0.930 . S
C1016 C1014 1.380 . S
C1016 C1017 1.391 . S
C1016 H1031 0.930 . S
C1017 C1016 1.391 . S
C1017 C1019 1.387 . S
C1018 C1015 1.398 . S
C1018 C1019 1.380 . S
C1018 H1032 0.930 . S
C1019 C1017 1.387 . S
C1019 C1018 1.380 . S
C1019 H1033 0.930 . S
C1020 O1000 1.254 . S
C1020 O1001 1.268 . S
C1021 O1005 1.284 . S
C1021 O1008 1.250 . S
C1022 Gd955 2.828 . S
C1022 O1004 1.258 . S
C1022 O1009 1.252 . S
C1022 C1023 1.497 . S
C1023 C1022 1.497 . S
C1023 C1024 1.395 . S
C1023 C1025 1.380 . S
C1024 C1023 1.395 . S
C1024 C1027 1.398 . S
C1024 H1034 0.930 . S
C1025 C1023 1.380 . S
C1025 C1026 1.391 . S
C1025 H1035 0.930 . S
C1026 C1025 1.391 . S
C1026 C1028 1.387 . S
C1027 C1024 1.398 . S
C1027 C1028 1.380 . S
C1027 H1036 0.930 . S
C1028 C1026 1.387 . S
C1028 C1027 1.380 . S
C1028 H1037 0.930 . S
C1029 O1006 1.254 . S
C1029 O1007 1.268 . S
H1030 C1015 0.930 . S
H1031 C1016 0.930 . S
H1032 C1018 0.930 . S
H1033 C1019 0.930 . S
H1034 C1024 0.930 . S
H1035 C1025 0.930 . S
H1036 C1027 0.930 . S
H1037 C1028 0.930 . S
Gd1038 N1069 2.661 . S
Gd1038 N1075 2.601 . S
Gd1038 O1082 2.545 . S
Gd1038 O1083 2.606 . S
Gd1038 O1085 2.429 . S
Gd1038 O1086 2.545 . S
Gd1038 O1087 2.412 . S
Gd1038 O1089 2.362 . S
Gd1038 O1090 2.324 . S
Gd1038 C1097 2.828 . S
Gd1039 N1048 2.661 . S
Gd1039 N1052 2.601 . S
Gd1039 O1083 2.362 . S
Gd1039 O1084 2.324 . S
Gd1039 O1088 2.545 . S
Gd1039 O1089 2.606 . S
Gd1039 O1091 2.429 . S
Gd1039 O1092 2.545 . S
Gd1039 O1093 2.412 . S
Gd1039 C1106 2.828 . S
C1040 C1043 1.417 . S
C1040 C1045 1.431 . S
C1040 C1046 1.412 . S
C1041 C1044 1.437 . S
C1041 C1045 1.317 . S
C1041 H1060 0.929 . S
C1042 C1043 1.426 . S
C1042 C1044 1.413 . S
C1042 N1052 1.359 . S
C1043 C1040 1.417 . S
C1043 C1042 1.426 . S
C1043 N1048 1.350 . S
C1044 C1041 1.437 . S
C1044 C1042 1.413 . S
C1044 C1054 1.391 . S
C1045 C1040 1.431 . S
C1045 C1041 1.317 . S
C1045 H1056 0.930 . S
C1046 C1040 1.412 . S
C1046 C1047 1.355 . S
C1046 H1058 0.930 . S
C1047 C1046 1.355 . S
C1047 C1049 1.402 . S
C1047 H1059 0.930 . S
N1048 Gd1039 2.661 . S
N1048 C1043 1.350 . S
N1048 C1049 1.307 . S
C1049 C1047 1.402 . S
C1049 N1048 1.307 . S
C1049 H1050 0.930 . S
H1050 C1049 0.930 . S
C1051 N1052 1.334 . S
C1051 C1053 1.394 . S
C1051 H1055 0.930 . S
N1052 Gd1039 2.601 . S
N1052 C1042 1.359 . S
N1052 C1051 1.334 . S
C1053 C1051 1.394 . S
C1053 C1054 1.359 . S
C1053 H1065 0.930 . S
C1054 C1044 1.391 . S
C1054 C1053 1.359 . S
C1054 H1066 0.929 . S
H1055 C1051 0.930 . S
H1056 C1045 0.930 . S
H1057 C1074 0.930 . S
H1058 C1046 0.930 . S
H1059 C1047 0.930 . S
H1060 C1041 0.929 . S
H1061 C1079 0.930 . S
H1062 C1070 0.930 . S
H1063 C1071 0.930 . S
H1064 C1095 0.929 . S
H1065 C1053 0.930 . S
H1066 C1054 0.929 . S
H1067 C1096 0.930 . S
H1068 C1077 0.930 . S
N1069 Gd1038 2.661 . S
N1069 C1073 1.350 . S
N1069 C1074 1.307 . S
C1070 H1062 0.930 . S
C1070 C1071 1.355 . S
C1070 C1072 1.412 . S
C1071 H1063 0.930 . S
C1071 C1070 1.355 . S
C1071 C1074 1.402 . S
C1072 C1070 1.412 . S
C1072 C1073 1.417 . S
C1072 C1096 1.431 . S
C1073 N1069 1.350 . S
C1073 C1072 1.417 . S
C1073 C1076 1.426 . S
C1074 H1057 0.930 . S
C1074 N1069 1.307 . S
C1074 C1071 1.402 . S
N1075 Gd1038 2.601 . S
N1075 C1076 1.359 . S
N1075 C1079 1.334 . S
C1076 C1073 1.426 . S
C1076 N1075 1.359 . S
C1076 C1080 1.413 . S
C1077 H1068 0.930 . S
C1077 C1078 1.359 . S
C1077 C1079 1.394 . S
C1078 C1077 1.359 . S
C1078 C1080 1.391 . S
C1078 H1081 0.929 . S
C1079 H1061 0.930 . S
C1079 N1075 1.334 . S
C1079 C1077 1.394 . S
C1080 C1076 1.413 . S
C1080 C1078 1.391 . S
C1080 C1095 1.437 . S
H1081 C1078 0.929 . S
O1082 Gd1038 2.545 . S
O1082 C1097 1.258 . S
O1083 Gd1038 2.606 . S
O1083 Gd1039 2.362 . S
O1083 C1094 1.284 . S
O1084 Gd1039 2.324 . S
O1084 C1104 1.254 . S
O1085 Gd1038 2.429 . S
O1085 C1104 1.268 . S
O1086 Gd1038 2.545 . S
O1086 C1094 1.250 . S
O1087 Gd1038 2.412 . S
O1087 C1097 1.252 . S
O1088 Gd1039 2.545 . S
O1088 C1106 1.258 . S
O1089 Gd1038 2.362 . S
O1089 Gd1039 2.606 . S
O1089 C1105 1.284 . S
O1090 Gd1038 2.324 . S
O1090 C1113 1.254 . S
O1091 Gd1039 2.429 . S
O1091 C1113 1.268 . S
O1092 Gd1039 2.545 . S
O1092 C1105 1.250 . S
O1093 Gd1039 2.412 . S
O1093 C1106 1.252 . S
C1094 O1083 1.284 . S
C1094 O1086 1.250 . S
C1095 H1064 0.929 . S
C1095 C1080 1.437 . S
C1095 C1096 1.317 . S
C1096 H1067 0.930 . S
C1096 C1072 1.431 . S
C1096 C1095 1.317 . S
C1097 Gd1038 2.828 . S
C1097 O1082 1.258 . S
C1097 O1087 1.252 . S
C1097 C1098 1.497 . S
C1098 C1097 1.497 . S
C1098 C1099 1.395 . S
C1098 C1100 1.380 . S
C1099 C1098 1.395 . S
C1099 C1102 1.398 . S
C1099 H1114 0.930 . S
C1100 C1098 1.380 . S
C1100 C1101 1.391 . S
C1100 H1115 0.930 . S
C1101 C1100 1.391 . S
C1101 C1103 1.387 . S
C1102 C1099 1.398 . S
C1102 C1103 1.380 . S
C1102 H1116 0.930 . S
C1103 C1101 1.387 . S
C1103 C1102 1.380 . S
C1103 H1117 0.930 . S
C1104 O1084 1.254 . S
C1104 O1085 1.268 . S
C1105 O1089 1.284 . S
C1105 O1092 1.250 . S
C1106 Gd1039 2.828 . S
C1106 O1088 1.258 . S
C1106 O1093 1.252 . S
C1106 C1107 1.497 . S
C1107 C1106 1.497 . S
C1107 C1108 1.395 . S
C1107 C1109 1.380 . S
C1108 C1107 1.395 . S
C1108 C1111 1.398 . S
C1108 H1118 0.930 . S
C1109 C1107 1.380 . S
C1109 C1110 1.391 . S
C1109 H1119 0.930 . S
C1110 C1109 1.391 . S
C1110 C1112 1.387 . S
C1111 C1108 1.398 . S
C1111 C1112 1.380 . S
C1111 H1120 0.930 . S
C1112 C1110 1.387 . S
C1112 C1111 1.380 . S
C1112 H1121 0.930 . S
C1113 O1090 1.254 . S
C1113 O1091 1.268 . S
H1114 C1099 0.930 . S
H1115 C1100 0.930 . S
H1116 C1102 0.930 . S
H1117 C1103 0.930 . S
H1118 C1108 0.930 . S
H1119 C1109 0.930 . S
H1120 C1111 0.930 . S
H1121 C1112 0.930 . S
Gd1122 N1153 2.661 . S
Gd1122 N1159 2.601 . S
Gd1122 O1166 2.545 . S
Gd1122 O1167 2.606 . S
Gd1122 O1169 2.429 . S
Gd1122 O1170 2.545 . S
Gd1122 O1171 2.412 . S
Gd1122 O1173 2.362 . S
Gd1122 O1174 2.324 . S
Gd1122 C1181 2.828 . S
Gd1123 N1132 2.661 . S
Gd1123 N1136 2.601 . S
Gd1123 O1167 2.362 . S
Gd1123 O1168 2.324 . S
Gd1123 O1172 2.545 . S
Gd1123 O1173 2.606 . S
Gd1123 O1175 2.429 . S
Gd1123 O1176 2.545 . S
Gd1123 O1177 2.412 . S
Gd1123 C1190 2.828 . S
C1124 C1127 1.417 . S
C1124 C1129 1.431 . S
C1124 C1130 1.412 . S
C1125 C1128 1.437 . S
C1125 C1129 1.317 . S
C1125 H1144 0.929 . S
C1126 C1127 1.426 . S
C1126 C1128 1.413 . S
C1126 N1136 1.359 . S
C1127 C1124 1.417 . S
C1127 C1126 1.426 . S
C1127 N1132 1.350 . S
C1128 C1125 1.437 . S
C1128 C1126 1.413 . S
C1128 C1138 1.391 . S
C1129 C1124 1.431 . S
C1129 C1125 1.317 . S
C1129 H1140 0.930 . S
C1130 C1124 1.412 . S
C1130 C1131 1.355 . S
C1130 H1142 0.930 . S
C1131 C1130 1.355 . S
C1131 C1133 1.402 . S
C1131 H1143 0.930 . S
N1132 Gd1123 2.661 . S
N1132 C1127 1.350 . S
N1132 C1133 1.307 . S
C1133 C1131 1.402 . S
C1133 N1132 1.307 . S
C1133 H1134 0.930 . S
H1134 C1133 0.930 . S
C1135 N1136 1.334 . S
C1135 C1137 1.394 . S
C1135 H1139 0.930 . S
N1136 Gd1123 2.601 . S
N1136 C1126 1.359 . S
N1136 C1135 1.334 . S
C1137 C1135 1.394 . S
C1137 C1138 1.359 . S
C1137 H1149 0.930 . S
C1138 C1128 1.391 . S
C1138 C1137 1.359 . S
C1138 H1150 0.929 . S
H1139 C1135 0.930 . S
H1140 C1129 0.930 . S
H1141 C1158 0.930 . S
H1142 C1130 0.930 . S
H1143 C1131 0.930 . S
H1144 C1125 0.929 . S
H1145 C1163 0.930 . S
H1146 C1154 0.930 . S
H1147 C1155 0.930 . S
H1148 C1179 0.929 . S
H1149 C1137 0.930 . S
H1150 C1138 0.929 . S
H1151 C1180 0.930 . S
H1152 C1161 0.930 . S
N1153 Gd1122 2.661 . S
N1153 C1157 1.350 . S
N1153 C1158 1.307 . S
C1154 H1146 0.930 . S
C1154 C1155 1.355 . S
C1154 C1156 1.412 . S
C1155 H1147 0.930 . S
C1155 C1154 1.355 . S
C1155 C1158 1.402 . S
C1156 C1154 1.412 . S
C1156 C1157 1.417 . S
C1156 C1180 1.431 . S
C1157 N1153 1.350 . S
C1157 C1156 1.417 . S
C1157 C1160 1.426 . S
C1158 H1141 0.930 . S
C1158 N1153 1.307 . S
C1158 C1155 1.402 . S
N1159 Gd1122 2.601 . S
N1159 C1160 1.359 . S
N1159 C1163 1.334 . S
C1160 C1157 1.426 . S
C1160 N1159 1.359 . S
C1160 C1164 1.413 . S
C1161 H1152 0.930 . S
C1161 C1162 1.359 . S
C1161 C1163 1.394 . S
C1162 C1161 1.359 . S
C1162 C1164 1.391 . S
C1162 H1165 0.929 . S
C1163 H1145 0.930 . S
C1163 N1159 1.334 . S
C1163 C1161 1.394 . S
C1164 C1160 1.413 . S
C1164 C1162 1.391 . S
C1164 C1179 1.437 . S
H1165 C1162 0.929 . S
O1166 Gd1122 2.545 . S
O1166 C1181 1.258 . S
O1167 Gd1122 2.606 . S
O1167 Gd1123 2.362 . S
O1167 C1178 1.284 . S
O1168 Gd1123 2.324 . S
O1168 C1188 1.254 . S
O1169 Gd1122 2.429 . S
O1169 C1188 1.268 . S
O1170 Gd1122 2.545 . S
O1170 C1178 1.250 . S
O1171 Gd1122 2.412 . S
O1171 C1181 1.252 . S
O1172 Gd1123 2.545 . S
O1172 C1190 1.258 . S
O1173 Gd1122 2.362 . S
O1173 Gd1123 2.606 . S
O1173 C1189 1.284 . S
O1174 Gd1122 2.324 . S
O1174 C1197 1.254 . S
O1175 Gd1123 2.429 . S
O1175 C1197 1.268 . S
O1176 Gd1123 2.545 . S
O1176 C1189 1.250 . S
O1177 Gd1123 2.412 . S
O1177 C1190 1.252 . S
C1178 O1167 1.284 . S
C1178 O1170 1.250 . S
C1179 H1148 0.929 . S
C1179 C1164 1.437 . S
C1179 C1180 1.317 . S
C1180 H1151 0.930 . S
C1180 C1156 1.431 . S
C1180 C1179 1.317 . S
C1181 Gd1122 2.828 . S
C1181 O1166 1.258 . S
C1181 O1171 1.252 . S
C1181 C1182 1.497 . S
C1182 C1181 1.497 . S
C1182 C1183 1.395 . S
C1182 C1184 1.380 . S
C1183 C1182 1.395 . S
C1183 C1186 1.398 . S
C1183 H1198 0.930 . S
C1184 C1182 1.380 . S
C1184 C1185 1.391 . S
C1184 H1199 0.930 . S
C1185 C1184 1.391 . S
C1185 C1187 1.387 . S
C1186 C1183 1.398 . S
C1186 C1187 1.380 . S
C1186 H1200 0.930 . S
C1187 C1185 1.387 . S
C1187 C1186 1.380 . S
C1187 H1201 0.930 . S
C1188 O1168 1.254 . S
C1188 O1169 1.268 . S
C1189 O1173 1.284 . S
C1189 O1176 1.250 . S
C1190 Gd1123 2.828 . S
C1190 O1172 1.258 . S
C1190 O1177 1.252 . S
C1190 C1191 1.497 . S
C1191 C1190 1.497 . S
C1191 C1192 1.395 . S
C1191 C1193 1.380 . S
C1192 C1191 1.395 . S
C1192 C1195 1.398 . S
C1192 H1202 0.930 . S
C1193 C1191 1.380 . S
C1193 C1194 1.391 . S
C1193 H1203 0.930 . S
C1194 C1193 1.391 . S
C1194 C1196 1.387 . S
C1195 C1192 1.398 . S
C1195 C1196 1.380 . S
C1195 H1204 0.930 . S
C1196 C1194 1.387 . S
C1196 C1195 1.380 . S
C1196 H1205 0.930 . S
C1197 O1174 1.254 . S
C1197 O1175 1.268 . S
H1198 C1183 0.930 . S
H1199 C1184 0.930 . S
H1200 C1186 0.930 . S
H1201 C1187 0.930 . S
H1202 C1192 0.930 . S
H1203 C1193 0.930 . S
H1204 C1195 0.930 . S
H1205 C1196 0.930 . S
Gd1206 N1237 2.661 . S
Gd1206 N1243 2.601 . S
Gd1206 O1250 2.545 . S
Gd1206 O1251 2.606 . S
Gd1206 O1253 2.429 . S
Gd1206 O1254 2.545 . S
Gd1206 O1255 2.412 . S
Gd1206 O1257 2.362 . S
Gd1206 O1258 2.324 . S
Gd1206 C1265 2.828 . S
Gd1207 N1216 2.661 . S
Gd1207 N1220 2.601 . S
Gd1207 O1251 2.362 . S
Gd1207 O1252 2.324 . S
Gd1207 O1256 2.545 . S
Gd1207 O1257 2.606 . S
Gd1207 O1259 2.429 . S
Gd1207 O1260 2.545 . S
Gd1207 O1261 2.412 . S
Gd1207 C1274 2.828 . S
C1208 C1211 1.417 . S
C1208 C1213 1.431 . S
C1208 C1214 1.412 . S
C1209 C1212 1.437 . S
C1209 C1213 1.317 . S
C1209 H1228 0.929 . S
C1210 C1211 1.426 . S
C1210 C1212 1.413 . S
C1210 N1220 1.359 . S
C1211 C1208 1.417 . S
C1211 C1210 1.426 . S
C1211 N1216 1.350 . S
C1212 C1209 1.437 . S
C1212 C1210 1.413 . S
C1212 C1222 1.391 . S
C1213 C1208 1.431 . S
C1213 C1209 1.317 . S
C1213 H1224 0.930 . S
C1214 C1208 1.412 . S
C1214 C1215 1.355 . S
C1214 H1226 0.930 . S
C1215 C1214 1.355 . S
C1215 C1217 1.402 . S
C1215 H1227 0.930 . S
N1216 Gd1207 2.661 . S
N1216 C1211 1.350 . S
N1216 C1217 1.307 . S
C1217 C1215 1.402 . S
C1217 N1216 1.307 . S
C1217 H1218 0.930 . S
H1218 C1217 0.930 . S
C1219 N1220 1.334 . S
C1219 C1221 1.394 . S
C1219 H1223 0.930 . S
N1220 Gd1207 2.601 . S
N1220 C1210 1.359 . S
N1220 C1219 1.334 . S
C1221 C1219 1.394 . S
C1221 C1222 1.359 . S
C1221 H1233 0.930 . S
C1222 C1212 1.391 . S
C1222 C1221 1.359 . S
C1222 H1234 0.929 . S
H1223 C1219 0.930 . S
H1224 C1213 0.930 . S
H1225 C1242 0.930 . S
H1226 C1214 0.930 . S
H1227 C1215 0.930 . S
H1228 C1209 0.929 . S
H1229 C1247 0.930 . S
H1230 C1238 0.930 . S
H1231 C1239 0.930 . S
H1232 C1263 0.929 . S
H1233 C1221 0.930 . S
H1234 C1222 0.929 . S
H1235 C1264 0.930 . S
H1236 C1245 0.930 . S
N1237 Gd1206 2.661 . S
N1237 C1241 1.350 . S
N1237 C1242 1.307 . S
C1238 H1230 0.930 . S
C1238 C1239 1.355 . S
C1238 C1240 1.412 . S
C1239 H1231 0.930 . S
C1239 C1238 1.355 . S
C1239 C1242 1.402 . S
C1240 C1238 1.412 . S
C1240 C1241 1.417 . S
C1240 C1264 1.431 . S
C1241 N1237 1.350 . S
C1241 C1240 1.417 . S
C1241 C1244 1.426 . S
C1242 H1225 0.930 . S
C1242 N1237 1.307 . S
C1242 C1239 1.402 . S
N1243 Gd1206 2.601 . S
N1243 C1244 1.359 . S
N1243 C1247 1.334 . S
C1244 C1241 1.426 . S
C1244 N1243 1.359 . S
C1244 C1248 1.413 . S
C1245 H1236 0.930 . S
C1245 C1246 1.359 . S
C1245 C1247 1.394 . S
C1246 C1245 1.359 . S
C1246 C1248 1.391 . S
C1246 H1249 0.929 . S
C1247 H1229 0.930 . S
C1247 N1243 1.334 . S
C1247 C1245 1.394 . S
C1248 C1244 1.413 . S
C1248 C1246 1.391 . S
C1248 C1263 1.437 . S
H1249 C1246 0.929 . S
O1250 Gd1206 2.545 . S
O1250 C1265 1.258 . S
O1251 Gd1206 2.606 . S
O1251 Gd1207 2.362 . S
O1251 C1262 1.284 . S
O1252 Gd1207 2.324 . S
O1252 C1272 1.254 . S
O1253 Gd1206 2.429 . S
O1253 C1272 1.268 . S
O1254 Gd1206 2.545 . S
O1254 C1262 1.250 . S
O1255 Gd1206 2.412 . S
O1255 C1265 1.252 . S
O1256 Gd1207 2.545 . S
O1256 C1274 1.258 . S
O1257 Gd1206 2.362 . S
O1257 Gd1207 2.606 . S
O1257 C1273 1.284 . S
O1258 Gd1206 2.324 . S
O1258 C1281 1.254 . S
O1259 Gd1207 2.429 . S
O1259 C1281 1.268 . S
O1260 Gd1207 2.545 . S
O1260 C1273 1.250 . S
O1261 Gd1207 2.412 . S
O1261 C1274 1.252 . S
C1262 O1251 1.284 . S
C1262 O1254 1.250 . S
C1263 H1232 0.929 . S
C1263 C1248 1.437 . S
C1263 C1264 1.317 . S
C1264 H1235 0.930 . S
C1264 C1240 1.431 . S
C1264 C1263 1.317 . S
C1265 Gd1206 2.828 . S
C1265 O1250 1.258 . S
C1265 O1255 1.252 . S
C1265 C1266 1.497 . S
C1266 C1265 1.497 . S
C1266 C1267 1.395 . S
C1266 C1268 1.380 . S
C1267 C1266 1.395 . S
C1267 C1270 1.398 . S
C1267 H1282 0.930 . S
C1268 C1266 1.380 . S
C1268 C1269 1.391 . S
C1268 H1283 0.930 . S
C1269 C1268 1.391 . S
C1269 C1271 1.387 . S
C1270 C1267 1.398 . S
C1270 C1271 1.380 . S
C1270 H1284 0.930 . S
C1271 C1269 1.387 . S
C1271 C1270 1.380 . S
C1271 H1285 0.930 . S
C1272 O1252 1.254 . S
C1272 O1253 1.268 . S
C1273 O1257 1.284 . S
C1273 O1260 1.250 . S
C1274 Gd1207 2.828 . S
C1274 O1256 1.258 . S
C1274 O1261 1.252 . S
C1274 C1275 1.497 . S
C1275 C1274 1.497 . S
C1275 C1276 1.395 . S
C1275 C1277 1.380 . S
C1276 C1275 1.395 . S
C1276 C1279 1.398 . S
C1276 H1286 0.930 . S
C1277 C1275 1.380 . S
C1277 C1278 1.391 . S
C1277 H1287 0.930 . S
C1278 C1277 1.391 . S
C1278 C1280 1.387 . S
C1279 C1276 1.398 . S
C1279 C1280 1.380 . S
C1279 H1288 0.930 . S
C1280 C1278 1.387 . S
C1280 C1279 1.380 . S
C1280 H1289 0.930 . S
C1281 O1258 1.254 . S
C1281 O1259 1.268 . S
H1282 C1267 0.930 . S
H1283 C1268 0.930 . S
H1284 C1270 0.930 . S
H1285 C1271 0.930 . S
H1286 C1276 0.930 . S
H1287 C1277 0.930 . S
H1288 C1279 0.930 . S
H1289 C1280 0.930 . S
Gd1290 N1321 2.661 . S
Gd1290 N1327 2.601 . S
Gd1290 O1334 2.545 . S
Gd1290 O1335 2.606 . S
Gd1290 O1337 2.429 . S
Gd1290 O1338 2.545 . S
Gd1290 O1339 2.412 . S
Gd1290 O1341 2.362 . S
Gd1290 O1342 2.324 . S
Gd1290 C1349 2.828 . S
Gd1291 N1300 2.661 . S
Gd1291 N1304 2.601 . S
Gd1291 O1335 2.362 . S
Gd1291 O1336 2.324 . S
Gd1291 O1340 2.545 . S
Gd1291 O1341 2.606 . S
Gd1291 O1343 2.429 . S
Gd1291 O1344 2.545 . S
Gd1291 O1345 2.412 . S
Gd1291 C1358 2.828 . S
C1292 C1295 1.417 . S
C1292 C1297 1.431 . S
C1292 C1298 1.412 . S
C1293 C1296 1.437 . S
C1293 C1297 1.317 . S
C1293 H1312 0.929 . S
C1294 C1295 1.426 . S
C1294 C1296 1.413 . S
C1294 N1304 1.359 . S
C1295 C1292 1.417 . S
C1295 C1294 1.426 . S
C1295 N1300 1.350 . S
C1296 C1293 1.437 . S
C1296 C1294 1.413 . S
C1296 C1306 1.391 . S
C1297 C1292 1.431 . S
C1297 C1293 1.317 . S
C1297 H1308 0.930 . S
C1298 C1292 1.412 . S
C1298 C1299 1.355 . S
C1298 H1310 0.930 . S
C1299 C1298 1.355 . S
C1299 C1301 1.402 . S
C1299 H1311 0.930 . S
N1300 Gd1291 2.661 . S
N1300 C1295 1.350 . S
N1300 C1301 1.307 . S
C1301 C1299 1.402 . S
C1301 N1300 1.307 . S
C1301 H1302 0.930 . S
H1302 C1301 0.930 . S
C1303 N1304 1.334 . S
C1303 C1305 1.394 . S
C1303 H1307 0.930 . S
N1304 Gd1291 2.601 . S
N1304 C1294 1.359 . S
N1304 C1303 1.334 . S
C1305 C1303 1.394 . S
C1305 C1306 1.359 . S
C1305 H1317 0.930 . S
C1306 C1296 1.391 . S
C1306 C1305 1.359 . S
C1306 H1318 0.929 . S
H1307 C1303 0.930 . S
H1308 C1297 0.930 . S
H1309 C1326 0.930 . S
H1310 C1298 0.930 . S
H1311 C1299 0.930 . S
H1312 C1293 0.929 . S
H1313 C1331 0.930 . S
H1314 C1322 0.930 . S
H1315 C1323 0.930 . S
H1316 C1347 0.929 . S
H1317 C1305 0.930 . S
H1318 C1306 0.929 . S
H1319 C1348 0.930 . S
H1320 C1329 0.930 . S
N1321 Gd1290 2.661 . S
N1321 C1325 1.350 . S
N1321 C1326 1.307 . S
C1322 H1314 0.930 . S
C1322 C1323 1.355 . S
C1322 C1324 1.412 . S
C1323 H1315 0.930 . S
C1323 C1322 1.355 . S
C1323 C1326 1.402 . S
C1324 C1322 1.412 . S
C1324 C1325 1.417 . S
C1324 C1348 1.431 . S
C1325 N1321 1.350 . S
C1325 C1324 1.417 . S
C1325 C1328 1.426 . S
C1326 H1309 0.930 . S
C1326 N1321 1.307 . S
C1326 C1323 1.402 . S
N1327 Gd1290 2.601 . S
N1327 C1328 1.359 . S
N1327 C1331 1.334 . S
C1328 C1325 1.426 . S
C1328 N1327 1.359 . S
C1328 C1332 1.413 . S
C1329 H1320 0.930 . S
C1329 C1330 1.359 . S
C1329 C1331 1.394 . S
C1330 C1329 1.359 . S
C1330 C1332 1.391 . S
C1330 H1333 0.929 . S
C1331 H1313 0.930 . S
C1331 N1327 1.334 . S
C1331 C1329 1.394 . S
C1332 C1328 1.413 . S
C1332 C1330 1.391 . S
C1332 C1347 1.437 . S
H1333 C1330 0.929 . S
O1334 Gd1290 2.545 . S
O1334 C1349 1.258 . S
O1335 Gd1290 2.606 . S
O1335 Gd1291 2.362 . S
O1335 C1346 1.284 . S
O1336 Gd1291 2.324 . S
O1336 C1356 1.254 . S
O1337 Gd1290 2.429 . S
O1337 C1356 1.268 . S
O1338 Gd1290 2.545 . S
O1338 C1346 1.250 . S
O1339 Gd1290 2.412 . S
O1339 C1349 1.252 . S
O1340 Gd1291 2.545 . S
O1340 C1358 1.258 . S
O1341 Gd1290 2.362 . S
O1341 Gd1291 2.606 . S
O1341 C1357 1.284 . S
O1342 Gd1290 2.324 . S
O1342 C1365 1.254 . S
O1343 Gd1291 2.429 . S
O1343 C1365 1.268 . S
O1344 Gd1291 2.545 . S
O1344 C1357 1.250 . S
O1345 Gd1291 2.412 . S
O1345 C1358 1.252 . S
C1346 O1335 1.284 . S
C1346 O1338 1.250 . S
C1347 H1316 0.929 . S
C1347 C1332 1.437 . S
C1347 C1348 1.317 . S
C1348 H1319 0.930 . S
C1348 C1324 1.431 . S
C1348 C1347 1.317 . S
C1349 Gd1290 2.828 . S
C1349 O1334 1.258 . S
C1349 O1339 1.252 . S
C1349 C1350 1.497 . S
C1350 C1349 1.497 . S
C1350 C1351 1.395 . S
C1350 C1352 1.380 . S
C1351 C1350 1.395 . S
C1351 C1354 1.398 . S
C1351 H1366 0.930 . S
C1352 C1350 1.380 . S
C1352 C1353 1.391 . S
C1352 H1367 0.930 . S
C1353 C1352 1.391 . S
C1353 C1355 1.387 . S
C1354 C1351 1.398 . S
C1354 C1355 1.380 . S
C1354 H1368 0.930 . S
C1355 C1353 1.387 . S
C1355 C1354 1.380 . S
C1355 H1369 0.930 . S
C1356 O1336 1.254 . S
C1356 O1337 1.268 . S
C1357 O1341 1.284 . S
C1357 O1344 1.250 . S
C1358 Gd1291 2.828 . S
C1358 O1340 1.258 . S
C1358 O1345 1.252 . S
C1358 C1359 1.497 . S
C1359 C1358 1.497 . S
C1359 C1360 1.395 . S
C1359 C1361 1.380 . S
C1360 C1359 1.395 . S
C1360 C1363 1.398 . S
C1360 H1370 0.930 . S
C1361 C1359 1.380 . S
C1361 C1362 1.391 . S
C1361 H1371 0.930 . S
C1362 C1361 1.391 . S
C1362 C1364 1.387 . S
C1363 C1360 1.398 . S
C1363 C1364 1.380 . S
C1363 H1372 0.930 . S
C1364 C1362 1.387 . S
C1364 C1363 1.380 . S
C1364 H1373 0.930 . S
C1365 O1342 1.254 . S
C1365 O1343 1.268 . S
H1366 C1351 0.930 . S
H1367 C1352 0.930 . S
H1368 C1354 0.930 . S
H1369 C1355 0.930 . S
H1370 C1360 0.930 . S
H1371 C1361 0.930 . S
H1372 C1363 0.930 . S
H1373 C1364 0.930 . S
Gd1374 N1405 2.661 . S
Gd1374 N1411 2.601 . S
Gd1374 O1418 2.545 . S
Gd1374 O1419 2.606 . S
Gd1374 O1421 2.429 . S
Gd1374 O1422 2.545 . S
Gd1374 O1423 2.412 . S
Gd1374 O1425 2.362 . S
Gd1374 O1426 2.324 . S
Gd1374 C1433 2.828 . S
Gd1375 N1384 2.661 . S
Gd1375 N1388 2.601 . S
Gd1375 O1419 2.362 . S
Gd1375 O1420 2.324 . S
Gd1375 O1424 2.545 . S
Gd1375 O1425 2.606 . S
Gd1375 O1427 2.429 . S
Gd1375 O1428 2.545 . S
Gd1375 O1429 2.412 . S
Gd1375 C1442 2.828 . S
C1376 C1379 1.417 . S
C1376 C1381 1.431 . S
C1376 C1382 1.412 . S
C1377 C1380 1.437 . S
C1377 C1381 1.317 . S
C1377 H1396 0.929 . S
C1378 C1379 1.426 . S
C1378 C1380 1.413 . S
C1378 N1388 1.359 . S
C1379 C1376 1.417 . S
C1379 C1378 1.426 . S
C1379 N1384 1.350 . S
C1380 C1377 1.437 . S
C1380 C1378 1.413 . S
C1380 C1390 1.391 . S
C1381 C1376 1.431 . S
C1381 C1377 1.317 . S
C1381 H1392 0.930 . S
C1382 C1376 1.412 . S
C1382 C1383 1.355 . S
C1382 H1394 0.930 . S
C1383 C1382 1.355 . S
C1383 C1385 1.402 . S
C1383 H1395 0.930 . S
N1384 Gd1375 2.661 . S
N1384 C1379 1.350 . S
N1384 C1385 1.307 . S
C1385 C1383 1.402 . S
C1385 N1384 1.307 . S
C1385 H1386 0.930 . S
H1386 C1385 0.930 . S
C1387 N1388 1.334 . S
C1387 C1389 1.394 . S
C1387 H1391 0.930 . S
N1388 Gd1375 2.601 . S
N1388 C1378 1.359 . S
N1388 C1387 1.334 . S
C1389 C1387 1.394 . S
C1389 C1390 1.359 . S
C1389 H1401 0.930 . S
C1390 C1380 1.391 . S
C1390 C1389 1.359 . S
C1390 H1402 0.929 . S
H1391 C1387 0.930 . S
H1392 C1381 0.930 . S
H1393 C1410 0.930 . S
H1394 C1382 0.930 . S
H1395 C1383 0.930 . S
H1396 C1377 0.929 . S
H1397 C1415 0.930 . S
H1398 C1406 0.930 . S
H1399 C1407 0.930 . S
H1400 C1431 0.929 . S
H1401 C1389 0.930 . S
H1402 C1390 0.929 . S
H1403 C1432 0.930 . S
H1404 C1413 0.930 . S
N1405 Gd1374 2.661 . S
N1405 C1409 1.350 . S
N1405 C1410 1.307 . S
C1406 H1398 0.930 . S
C1406 C1407 1.355 . S
C1406 C1408 1.412 . S
C1407 H1399 0.930 . S
C1407 C1406 1.355 . S
C1407 C1410 1.402 . S
C1408 C1406 1.412 . S
C1408 C1409 1.417 . S
C1408 C1432 1.431 . S
C1409 N1405 1.350 . S
C1409 C1408 1.417 . S
C1409 C1412 1.426 . S
C1410 H1393 0.930 . S
C1410 N1405 1.307 . S
C1410 C1407 1.402 . S
N1411 Gd1374 2.601 . S
N1411 C1412 1.359 . S
N1411 C1415 1.334 . S
C1412 C1409 1.426 . S
C1412 N1411 1.359 . S
C1412 C1416 1.413 . S
C1413 H1404 0.930 . S
C1413 C1414 1.359 . S
C1413 C1415 1.394 . S
C1414 C1413 1.359 . S
C1414 C1416 1.391 . S
C1414 H1417 0.929 . S
C1415 H1397 0.930 . S
C1415 N1411 1.334 . S
C1415 C1413 1.394 . S
C1416 C1412 1.413 . S
C1416 C1414 1.391 . S
C1416 C1431 1.437 . S
H1417 C1414 0.929 . S
O1418 Gd1374 2.545 . S
O1418 C1433 1.258 . S
O1419 Gd1374 2.606 . S
O1419 Gd1375 2.362 . S
O1419 C1430 1.284 . S
O1420 Gd1375 2.324 . S
O1420 C1440 1.254 . S
O1421 Gd1374 2.429 . S
O1421 C1440 1.268 . S
O1422 Gd1374 2.545 . S
O1422 C1430 1.250 . S
O1423 Gd1374 2.412 . S
O1423 C1433 1.252 . S
O1424 Gd1375 2.545 . S
O1424 C1442 1.258 . S
O1425 Gd1374 2.362 . S
O1425 Gd1375 2.606 . S
O1425 C1441 1.284 . S
O1426 Gd1374 2.324 . S
O1426 C1449 1.254 . S
O1427 Gd1375 2.429 . S
O1427 C1449 1.268 . S
O1428 Gd1375 2.545 . S
O1428 C1441 1.250 . S
O1429 Gd1375 2.412 . S
O1429 C1442 1.252 . S
C1430 O1419 1.284 . S
C1430 O1422 1.250 . S
C1431 H1400 0.929 . S
C1431 C1416 1.437 . S
C1431 C1432 1.317 . S
C1432 H1403 0.930 . S
C1432 C1408 1.431 . S
C1432 C1431 1.317 . S
C1433 Gd1374 2.828 . S
C1433 O1418 1.258 . S
C1433 O1423 1.252 . S
C1433 C1434 1.497 . S
C1434 C1433 1.497 . S
C1434 C1435 1.395 . S
C1434 C1436 1.380 . S
C1435 C1434 1.395 . S
C1435 C1438 1.398 . S
C1435 H1450 0.930 . S
C1436 C1434 1.380 . S
C1436 C1437 1.391 . S
C1436 H1451 0.930 . S
C1437 C1436 1.391 . S
C1437 C1439 1.387 . S
C1438 C1435 1.398 . S
C1438 C1439 1.380 . S
C1438 H1452 0.930 . S
C1439 C1437 1.387 . S
C1439 C1438 1.380 . S
C1439 H1453 0.930 . S
C1440 O1420 1.254 . S
C1440 O1421 1.268 . S
C1441 O1425 1.284 . S
C1441 O1428 1.250 . S
C1442 Gd1375 2.828 . S
C1442 O1424 1.258 . S
C1442 O1429 1.252 . S
C1442 C1443 1.497 . S
C1443 C1442 1.497 . S
C1443 C1444 1.395 . S
C1443 C1445 1.380 . S
C1444 C1443 1.395 . S
C1444 C1447 1.398 . S
C1444 H1454 0.930 . S
C1445 C1443 1.380 . S
C1445 C1446 1.391 . S
C1445 H1455 0.930 . S
C1446 C1445 1.391 . S
C1446 C1448 1.387 . S
C1447 C1444 1.398 . S
C1447 C1448 1.380 . S
C1447 H1456 0.930 . S
C1448 C1446 1.387 . S
C1448 C1447 1.380 . S
C1448 H1457 0.930 . S
C1449 O1426 1.254 . S
C1449 O1427 1.268 . S
H1450 C1435 0.930 . S
H1451 C1436 0.930 . S
H1452 C1438 0.930 . S
H1453 C1439 0.930 . S
H1454 C1444 0.930 . S
H1455 C1445 0.930 . S
H1456 C1447 0.930 . S
H1457 C1448 0.930 . S
C1458 C1459 1.391 . S
C1458 C1460 1.394 . S
C1458 H1474 0.931 . S
C1459 C1458 1.391 . S
C1459 C1463 1.376 . S
C1460 C1458 1.394 . S
C1460 C1461 1.369 . S
C1460 C1464 1.531 . S
C1461 C1460 1.369 . S
C1461 C1462 1.410 . S
C1461 C1469 1.503 . S
C1462 C1461 1.410 . S
C1462 C1463 1.392 . S
C1462 C1465 1.511 . S
C1463 C1459 1.376 . S
C1463 C1462 1.392 . S
C1463 H1475 0.929 . S
C1464 C1460 1.531 . S
C1464 H1476 0.960 . S
C1464 H1477 0.962 . S
C1464 H1478 0.960 . S
C1465 C1462 1.511 . S
C1465 H1479 0.961 . S
C1465 H1480 0.961 . S
C1465 H1481 0.961 . S
C1466 C1467 1.370 . S
C1466 C1468 1.363 . S
C1466 H1482 0.973 . S
C1467 C1466 1.370 . S
C1467 C1471 1.408 . S
C1468 C1466 1.363 . S
C1468 C1469 1.370 . S
C1468 C1472 1.524 . S
C1469 C1461 1.503 . S
C1469 C1468 1.370 . S
C1469 C1470 1.403 . S
C1470 C1469 1.403 . S
C1470 C1471 1.404 . S
C1470 C1473 1.539 . S
C1471 C1467 1.408 . S
C1471 C1470 1.404 . S
C1471 H1483 0.930 . S
C1472 C1468 1.524 . S
C1472 H1484 0.956 . S
C1472 H1485 0.961 . S
C1472 H1486 0.961 1_554 S
C1473 C1470 1.539 . S
C1473 H1487 0.958 . S
C1473 H1488 0.961 . S
C1473 H1489 0.960 . S
H1474 C1458 0.931 . S
H1475 C1463 0.929 . S
H1476 C1464 0.960 . S
H1477 C1464 0.962 . S
H1478 C1464 0.960 . S
H1479 C1465 0.961 . S
H1480 C1465 0.961 . S
H1481 C1465 0.961 . S
H1482 C1466 0.973 . S
H1483 C1471 0.930 . S
H1484 C1472 0.956 . S
H1485 C1472 0.961 . S
H1486 C1472 0.961 1_556 S
H1487 C1473 0.958 . S
H1488 C1473 0.961 . S
H1489 C1473 0.960 . S
C1490 C1491 1.391 . S
C1490 C1492 1.394 . S
C1490 H1506 0.931 . S
C1491 C1490 1.391 . S
C1491 C1495 1.376 . S
C1492 C1490 1.394 . S
C1492 C1493 1.369 . S
C1492 C1496 1.531 . S
C1493 C1492 1.369 . S
C1493 C1494 1.410 . S
C1493 C1501 1.503 . S
C1494 C1493 1.410 . S
C1494 C1495 1.392 . S
C1494 C1497 1.511 . S
C1495 C1491 1.376 . S
C1495 C1494 1.392 . S
C1495 H1507 0.929 . S
C1496 C1492 1.531 . S
C1496 H1508 0.960 . S
C1496 H1509 0.962 . S
C1496 H1510 0.960 . S
C1497 C1494 1.511 . S
C1497 H1511 0.961 . S
C1497 H1512 0.961 . S
C1497 H1513 0.961 . S
C1498 C1499 1.370 . S
C1498 C1500 1.363 . S
C1498 H1514 0.931 . S
C1499 C1498 1.370 . S
C1499 C1503 1.408 . S
C1500 C1498 1.363 . S
C1500 C1501 1.370 . S
C1500 C1504 1.524 . S
C1501 C1493 1.503 . S
C1501 C1500 1.370 . S
C1501 C1502 1.403 . S
C1502 C1501 1.403 . S
C1502 C1503 1.404 . S
C1502 C1505 1.539 . S
C1503 C1499 1.408 . S
C1503 C1502 1.404 . S
C1503 H1515 0.930 . S
C1504 C1500 1.524 . S
C1504 H1516 0.956 . S
C1504 H1517 0.961 . S
C1504 H1518 0.961 . S
C1505 C1502 1.539 . S
C1505 H1519 0.958 . S
C1505 H1520 0.961 . S
C1505 H1521 0.960 . S
H1506 C1490 0.931 . S
H1507 C1495 0.929 . S
H1508 C1496 0.960 . S
H1509 C1496 0.962 . S
H1510 C1496 0.960 . S
H1511 C1497 0.961 . S
H1512 C1497 0.961 . S
H1513 C1497 0.961 . S
H1514 C1498 0.931 . S
H1515 C1503 0.930 . S
H1516 C1504 0.956 . S
H1517 C1504 0.961 . S
H1518 C1504 0.961 . S
H1519 C1505 0.958 . S
H1520 C1505 0.961 . S
H1521 C1505 0.960 . S
C1522 C1523 1.391 . S
C1522 C1524 1.394 . S
C1522 H1538 0.931 . S
C1523 C1522 1.391 . S
C1523 C1527 1.376 . S
C1524 C1522 1.394 . S
C1524 C1525 1.369 . S
C1524 C1528 1.531 . S
C1525 C1524 1.369 . S
C1525 C1526 1.410 . S
C1525 C1533 1.503 . S
C1526 C1525 1.410 . S
C1526 C1527 1.392 . S
C1526 C1529 1.511 . S
C1527 C1523 1.376 . S
C1527 C1526 1.392 . S
C1527 H1539 0.929 . S
C1528 C1524 1.531 . S
C1528 H1540 0.960 . S
C1528 H1541 0.962 . S
C1528 H1542 0.960 . S
C1529 C1526 1.511 . S
C1529 H1543 0.961 . S
C1529 H1544 0.961 . S
C1529 H1545 0.961 . S
C1530 C1531 1.370 . S
C1530 C1532 1.363 . S
C1530 H1546 0.931 . S
C1531 C1530 1.370 . S
C1531 C1535 1.408 . S
C1532 C1530 1.363 . S
C1532 C1533 1.370 . S
C1532 C1536 1.524 . S
C1533 C1525 1.503 . S
C1533 C1532 1.370 . S
C1533 C1534 1.403 . S
C1534 C1533 1.403 . S
C1534 C1535 1.404 . S
C1534 C1537 1.527 1_554 S
C1535 C1531 1.408 . S
C1535 C1534 1.404 . S
C1535 H1547 0.930 1_554 S
C1536 C1532 1.524 . S
C1536 H1548 0.956 . S
C1536 H1549 0.961 . S
C1536 H1550 0.961 . S
C1537 C1534 1.527 1_556 S
C1537 H1551 0.966 . S
C1537 H1552 0.974 . S
C1537 H1553 0.952 1_556 S
H1538 C1522 0.931 . S
H1539 C1527 0.929 . S
H1540 C1528 0.960 . S
H1541 C1528 0.962 . S
H1542 C1528 0.960 . S
H1543 C1529 0.961 . S
H1544 C1529 0.961 . S
H1545 C1529 0.961 . S
H1546 C1530 0.931 . S
H1547 C1535 0.930 1_556 S
H1548 C1536 0.956 . S
H1549 C1536 0.961 . S
H1550 C1536 0.961 . S
H1551 C1537 0.966 . S
H1552 C1537 0.974 . S
H1553 C1537 0.952 1_554 S
C1554 C1555 1.391 . S
C1554 C1556 1.394 . S
C1554 H1570 0.931 . S
C1555 C1554 1.391 . S
C1555 C1559 1.376 . S
C1556 C1554 1.394 . S
C1556 C1557 1.369 . S
C1556 C1560 1.531 . S
C1557 C1556 1.369 . S
C1557 C1558 1.410 . S
C1557 C1565 1.503 . S
C1558 C1557 1.410 . S
C1558 C1559 1.392 . S
C1558 C1561 1.511 . S
C1559 C1555 1.376 . S
C1559 C1558 1.392 . S
C1559 H1571 0.929 . S
C1560 C1556 1.531 . S
C1560 H1572 0.960 . S
C1560 H1573 0.962 . S
C1560 H1574 0.960 . S
C1561 C1558 1.511 . S
C1561 H1575 0.961 . S
C1561 H1576 0.961 . S
C1561 H1577 0.961 . S
C1562 C1563 1.370 . S
C1562 C1564 1.363 . S
C1562 H1578 0.883 1_556 S
C1563 C1562 1.370 . S
C1563 C1567 1.408 . S
C1564 C1562 1.363 . S
C1564 C1565 1.370 . S
C1564 C1568 1.524 . S
C1565 C1557 1.503 . S
C1565 C1564 1.370 . S
C1565 C1566 1.403 . S
C1566 C1565 1.403 . S
C1566 C1567 1.404 . S
C1566 C1569 1.539 . S
C1567 C1563 1.408 . S
C1567 C1566 1.404 . S
C1567 H1579 0.930 . S
C1568 C1564 1.524 . S
C1568 H1580 0.956 . S
C1568 H1581 0.961 . S
C1568 H1582 0.961 1_556 S
C1569 C1566 1.539 . S
C1569 H1583 0.958 . S
C1569 H1584 0.961 . S
C1569 H1585 0.960 . S
H1570 C1554 0.931 . S
H1571 C1559 0.929 . S
H1572 C1560 0.960 . S
H1573 C1560 0.962 . S
H1574 C1560 0.960 . S
H1575 C1561 0.961 . S
H1576 C1561 0.961 . S
H1577 C1561 0.961 . S
H1578 C1562 0.883 1_554 S
H1579 C1567 0.930 . S
H1580 C1568 0.956 . S
H1581 C1568 0.961 . S
H1582 C1568 0.961 1_554 S
H1583 C1569 0.958 . S
H1584 C1569 0.961 . S
H1585 C1569 0.960 . S
C1586 C1587 1.391 . S
C1586 C1588 1.394 . S
C1586 H1602 0.931 . S
C1587 C1586 1.391 . S
C1587 C1591 1.376 . S
C1588 C1586 1.394 . S
C1588 C1589 1.369 . S
C1588 C1592 1.531 . S
C1589 C1588 1.369 . S
C1589 C1590 1.410 . S
C1589 C1597 1.503 . S
C1590 C1589 1.410 . S
C1590 C1591 1.392 . S
C1590 C1593 1.511 . S
C1591 C1587 1.376 . S
C1591 C1590 1.392 . S
C1591 H1603 0.929 . S
C1592 C1588 1.531 . S
C1592 H1604 0.960 . S
C1592 H1605 0.962 . S
C1592 H1606 0.960 . S
C1593 C1590 1.511 . S
C1593 H1607 0.961 . S
C1593 H1608 0.961 . S
C1593 H1609 0.961 . S
C1594 C1595 1.370 . S
C1594 C1596 1.363 . S
C1594 H1610 0.931 . S
C1595 C1594 1.370 . S
C1595 C1599 1.408 . S
C1596 C1594 1.363 . S
C1596 C1597 1.370 . S
C1596 C1600 1.524 . S
C1597 C1589 1.503 . S
C1597 C1596 1.370 . S
C1597 C1598 1.403 . S
C1598 C1597 1.403 . S
C1598 C1599 1.404 . S
C1598 C1601 1.539 . S
C1599 C1595 1.408 . S
C1599 C1598 1.404 . S
C1599 H1611 0.930 . S
C1600 C1596 1.524 . S
C1600 H1612 0.956 . S
C1600 H1613 0.961 . S
C1600 H1614 0.961 . S
C1601 C1598 1.539 . S
C1601 H1615 0.958 . S
C1601 H1616 0.961 . S
C1601 H1617 0.960 . S
H1602 C1586 0.931 . S
H1603 C1591 0.929 . S
H1604 C1592 0.960 . S
H1605 C1592 0.962 . S
H1606 C1592 0.960 . S
H1607 C1593 0.961 . S
H1608 C1593 0.961 . S
H1609 C1593 0.961 . S
H1610 C1594 0.931 . S
H1611 C1599 0.930 . S
H1612 C1600 0.956 . S
H1613 C1600 0.961 . S
H1614 C1600 0.961 . S
H1615 C1601 0.958 . S
H1616 C1601 0.961 . S
H1617 C1601 0.960 . S
C1618 C1619 1.391 . S
C1618 C1620 1.394 . S
C1618 H1634 0.931 . S
C1619 C1618 1.391 . S
C1619 C1623 1.376 . S
C1620 C1618 1.394 . S
C1620 C1621 1.369 . S
C1620 C1624 1.531 . S
C1621 C1620 1.369 . S
C1621 C1622 1.410 . S
C1621 C1629 1.503 . S
C1622 C1621 1.410 . S
C1622 C1623 1.392 . S
C1622 C1625 1.511 . S
C1623 C1619 1.376 . S
C1623 C1622 1.392 . S
C1623 H1635 0.929 . S
C1624 C1620 1.531 . S
C1624 H1636 0.960 . S
C1624 H1637 0.962 . S
C1624 H1638 0.960 . S
C1625 C1622 1.511 . S
C1625 H1639 0.961 1_556 S
C1625 H1640 0.980 . S
C1625 H1641 0.961 . S
C1626 C1627 1.370 . S
C1626 C1628 1.363 . S
C1626 H1642 0.931 . S
C1627 C1626 1.370 . S
C1627 C1631 1.408 . S
C1628 C1626 1.363 . S
C1628 C1629 1.370 . S
C1628 C1632 1.524 . S
C1629 C1621 1.503 . S
C1629 C1628 1.370 . S
C1629 C1630 1.403 . S
C1630 C1629 1.403 . S
C1630 C1631 1.404 . S
C1630 C1633 1.539 . S
C1631 C1627 1.408 . S
C1631 C1630 1.404 . S
C1631 H1643 0.930 . S
C1632 C1628 1.524 . S
C1632 H1644 0.956 . S
C1632 H1645 0.961 . S
C1632 H1646 0.961 . S
C1633 C1630 1.539 . S
C1633 H1647 0.958 . S
C1633 H1648 0.961 . S
C1633 H1649 0.960 . S
H1634 C1618 0.931 . S
H1635 C1623 0.929 . S
H1636 C1624 0.960 . S
H1637 C1624 0.962 . S
H1638 C1624 0.960 . S
H1639 C1625 0.961 1_554 S
H1640 C1625 0.980 . S
H1641 C1625 0.961 . S
H1642 C1626 0.931 . S
H1643 C1631 0.930 . S
H1644 C1632 0.956 . S
H1645 C1632 0.961 . S
H1646 C1632 0.961 . S
H1647 C1633 0.958 . S
H1648 C1633 0.961 . S
H1649 C1633 0.960 . S
C1650 C1651 1.391 . S
C1650 C1652 1.394 . S
C1650 H1666 0.931 . S
C1651 C1650 1.391 . S
C1651 C1655 1.376 . S
C1652 C1650 1.394 . S
C1652 C1653 1.369 . S
C1652 C1656 1.531 . S
C1653 C1652 1.369 . S
C1653 C1654 1.410 . S
C1653 C1661 1.503 . S
C1654 C1653 1.410 . S
C1654 C1655 1.392 . S
C1654 C1657 1.511 . S
C1655 C1651 1.376 . S
C1655 C1654 1.392 . S
C1655 H1667 0.929 . S
C1656 C1652 1.531 . S
C1656 H1668 0.960 . S
C1656 H1669 0.962 . S
C1656 H1670 0.960 . S
C1657 C1654 1.511 . S
C1657 H1671 0.961 . S
C1657 H1672 0.961 . S
C1657 H1673 0.961 . S
C1658 C1659 1.370 . S
C1658 C1660 1.363 . S
C1658 H1674 0.931 . S
C1659 C1658 1.370 . S
C1659 C1663 1.408 . S
C1660 C1658 1.363 . S
C1660 C1661 1.370 . S
C1660 C1664 1.524 . S
C1661 C1653 1.503 . S
C1661 C1660 1.370 . S
C1661 C1662 1.403 . S
C1662 C1661 1.403 . S
C1662 C1663 1.404 . S
C1662 C1665 1.539 1_556 S
C1663 C1659 1.408 . S
C1663 C1662 1.404 . S
C1663 H1675 0.930 1_556 S
C1664 C1660 1.524 . S
C1664 H1676 0.956 . S
C1664 H1677 0.961 . S
C1664 H1678 0.961 . S
C1665 C1662 1.539 1_554 S
C1665 H1679 0.962 . S
C1665 H1680 0.961 . S
C1665 H1681 0.951 1_554 S
H1666 C1650 0.931 . S
H1667 C1655 0.929 . S
H1668 C1656 0.960 . S
H1669 C1656 0.962 . S
H1670 C1656 0.960 . S
H1671 C1657 0.961 . S
H1672 C1657 0.961 . S
H1673 C1657 0.961 . S
H1674 C1658 0.931 . S
H1675 C1663 0.930 1_554 S
H1676 C1664 0.956 . S
H1677 C1664 0.961 . S
H1678 C1664 0.961 . S
H1679 C1665 0.962 . S
H1680 C1665 0.961 . S
H1681 C1665 0.951 1_556 S
C1682 C1683 1.391 . S
C1682 C1684 1.394 . S
C1682 H1698 0.931 . S
C1683 C1682 1.391 . S
C1683 C1687 1.376 . S
C1684 C1682 1.394 . S
C1684 C1685 1.369 . S
C1684 C1688 1.531 . S
C1685 C1684 1.369 . S
C1685 C1686 1.410 . S
C1685 C1693 1.503 . S
C1686 C1685 1.410 . S
C1686 C1687 1.392 . S
C1686 C1689 1.511 . S
C1687 C1683 1.376 . S
C1687 C1686 1.392 . S
C1687 H1699 0.929 . S
C1688 C1684 1.531 . S
C1688 H1700 0.960 . S
C1688 H1701 0.962 . S
C1688 H1702 0.960 . S
C1689 C1686 1.511 . S
C1689 H1703 0.961 . S
C1689 H1704 0.961 . S
C1689 H1705 0.961 . S
C1690 C1691 1.370 . S
C1690 C1692 1.363 . S
C1690 H1706 0.931 . S
C1691 C1690 1.370 . S
C1691 C1695 1.408 . S
C1692 C1690 1.363 . S
C1692 C1693 1.370 . S
C1692 C1696 1.524 . S
C1693 C1685 1.503 . S
C1693 C1692 1.370 . S
C1693 C1694 1.403 . S
C1694 C1693 1.403 . S
C1694 C1695 1.404 . S
C1694 C1697 1.539 . S
C1695 C1691 1.408 . S
C1695 C1694 1.404 . S
C1695 H1707 0.930 . S
C1696 C1692 1.524 . S
C1696 H1708 0.956 . S
C1696 H1709 0.961 . S
C1696 H1710 0.961 . S
C1697 C1694 1.539 . S
C1697 H1711 0.958 . S
C1697 H1712 0.961 . S
C1697 H1713 0.960 . S
H1698 C1682 0.931 . S
H1699 C1687 0.929 . S
H1700 C1688 0.960 . S
H1701 C1688 0.962 . S
H1702 C1688 0.960 . S
H1703 C1689 0.961 . S
H1704 C1689 0.961 . S
H1705 C1689 0.961 . S
H1706 C1690 0.931 . S
H1707 C1695 0.930 . S
H1708 C1696 0.956 . S
H1709 C1696 0.961 . S
H1710 C1696 0.961 . S
H1711 C1697 0.958 . S
H1712 C1697 0.961 . S
H1713 C1697 0.960 . S
C1714 C1715 1.391 . S
C1714 C1716 1.394 . S
C1714 H1730 0.931 . S
C1715 C1714 1.391 . S
C1715 C1719 1.376 . S
C1716 C1714 1.394 . S
C1716 C1717 1.369 . S
C1716 C1720 1.531 . S
C1717 C1716 1.369 . S
C1717 C1718 1.410 . S
C1717 C1725 1.503 . S
C1718 C1717 1.410 . S
C1718 C1719 1.392 . S
C1718 C1721 1.511 . S
C1719 C1715 1.376 . S
C1719 C1718 1.392 . S
C1719 H1731 0.929 . S
C1720 C1716 1.531 . S
C1720 H1732 0.960 . S
C1720 H1733 0.962 . S
C1720 H1734 0.960 . S
C1721 C1718 1.511 . S
C1721 H1735 0.961 . S
C1721 H1736 0.961 . S
C1721 H1737 0.961 . S
C1722 C1723 1.370 . S
C1722 C1724 1.363 . S
C1722 H1738 0.931 . S
C1723 C1722 1.370 . S
C1723 C1727 1.408 . S
C1724 C1722 1.363 . S
C1724 C1725 1.370 . S
C1724 C1728 1.524 . S
C1725 C1717 1.503 . S
C1725 C1724 1.370 . S
C1725 C1726 1.403 . S
C1726 C1725 1.403 . S
C1726 C1727 1.404 . S
C1726 C1729 1.539 . S
C1727 C1723 1.408 . S
C1727 C1726 1.404 . S
C1727 H1739 0.917 1_556 S
C1728 C1724 1.524 . S
C1728 H1740 0.956 . S
C1728 H1741 0.961 . S
C1728 H1742 0.961 . S
C1729 C1726 1.539 . S
C1729 H1743 0.958 1_556 S
C1729 H1744 0.961 . S
C1729 H1745 0.960 . S
H1730 C1714 0.931 . S
H1731 C1719 0.929 . S
H1732 C1720 0.960 . S
H1733 C1720 0.962 . S
H1734 C1720 0.960 . S
H1735 C1721 0.961 . S
H1736 C1721 0.961 . S
H1737 C1721 0.961 . S
H1738 C1722 0.931 . S
H1739 C1727 0.917 1_554 S
H1740 C1728 0.956 . S
H1741 C1728 0.961 . S
H1742 C1728 0.961 . S
H1743 C1729 0.958 1_554 S
H1744 C1729 0.961 . S
H1745 C1729 0.960 . S
C1746 C1747 1.391 . S
C1746 C1748 1.394 . S
C1746 H1762 0.931 . S
C1747 C1746 1.391 . S
C1747 C1751 1.376 . S
C1748 C1746 1.394 . S
C1748 C1749 1.369 . S
C1748 C1752 1.531 . S
C1749 C1748 1.369 . S
C1749 C1750 1.410 . S
C1749 C1757 1.503 . S
C1750 C1749 1.410 . S
C1750 C1751 1.392 . S
C1750 C1753 1.511 . S
C1751 C1747 1.376 . S
C1751 C1750 1.392 . S
C1751 H1763 0.929 . S
C1752 C1748 1.531 . S
C1752 H1764 0.960 . S
C1752 H1765 0.962 . S
C1752 H1766 0.960 . S
C1753 C1750 1.511 . S
C1753 H1767 0.961 . S
C1753 H1768 0.961 . S
C1753 H1769 0.961 . S
C1754 C1755 1.370 . S
C1754 C1756 1.363 . S
C1754 H1770 0.931 . S
C1755 C1754 1.370 . S
C1755 C1759 1.408 . S
C1756 C1754 1.363 . S
C1756 C1757 1.370 . S
C1756 C1760 1.524 . S
C1757 C1749 1.503 . S
C1757 C1756 1.370 . S
C1757 C1758 1.403 . S
C1758 C1757 1.403 . S
C1758 C1759 1.404 . S
C1758 C1761 1.539 . S
C1759 C1755 1.408 . S
C1759 C1758 1.404 . S
C1759 H1771 0.930 . S
C1760 C1756 1.524 . S
C1760 H1772 0.956 . S
C1760 H1773 0.961 . S
C1760 H1774 0.961 . S
C1761 C1758 1.539 . S
C1761 H1775 0.958 . S
C1761 H1776 0.961 . S
C1761 H1777 0.960 . S
H1762 C1746 0.931 . S
H1763 C1751 0.929 . S
H1764 C1752 0.960 . S
H1765 C1752 0.962 . S
H1766 C1752 0.960 . S
H1767 C1753 0.961 . S
H1768 C1753 0.961 . S
H1769 C1753 0.961 . S
H1770 C1754 0.931 . S
H1771 C1759 0.930 . S
H1772 C1760 0.956 . S
H1773 C1760 0.961 . S
H1774 C1760 0.961 . S
H1775 C1761 0.958 . S
H1776 C1761 0.961 . S
H1777 C1761 0.960 . S
C1778 C1779 1.391 . S
C1778 C1780 1.394 . S
C1778 H1794 0.931 . S
C1779 C1778 1.391 . S
C1779 C1783 1.376 . S
C1780 C1778 1.394 . S
C1780 C1781 1.369 . S
C1780 C1784 1.531 . S
C1781 C1780 1.369 . S
C1781 C1782 1.410 . S
C1781 C1789 1.503 . S
C1782 C1781 1.410 . S
C1782 C1783 1.392 . S
C1782 C1785 1.511 . S
C1783 C1779 1.376 . S
C1783 C1782 1.392 . S
C1783 H1795 0.929 . S
C1784 C1780 1.531 . S
C1784 H1796 0.960 . S
C1784 H1797 0.962 . S
C1784 H1798 0.960 . S
C1785 C1782 1.511 . S
C1785 H1799 0.961 . S
C1785 H1800 0.961 . S
C1785 H1801 0.961 . S
C1786 C1787 1.370 . S
C1786 C1788 1.363 . S
C1786 H1802 0.931 . S
C1787 C1786 1.370 . S
C1787 C1791 1.408 . S
C1788 C1786 1.363 . S
C1788 C1789 1.370 . S
C1788 C1792 1.524 . S
C1789 C1781 1.503 . S
C1789 C1788 1.370 . S
C1789 C1790 1.403 . S
C1790 C1789 1.403 . S
C1790 C1791 1.404 . S
C1790 C1793 1.539 . S
C1791 C1787 1.408 . S
C1791 C1790 1.404 . S
C1791 H1803 0.930 . S
C1792 C1788 1.524 . S
C1792 H1804 0.956 . S
C1792 H1805 0.961 . S
C1792 H1806 0.961 . S
C1793 C1790 1.539 . S
C1793 H1807 0.958 . S
C1793 H1808 0.961 . S
C1793 H1809 0.960 . S
H1794 C1778 0.931 . S
H1795 C1783 0.929 . S
H1796 C1784 0.960 . S
H1797 C1784 0.962 . S
H1798 C1784 0.960 . S
H1799 C1785 0.961 . S
H1800 C1785 0.961 . S
H1801 C1785 0.961 . S
H1802 C1786 0.931 . S
H1803 C1791 0.930 . S
H1804 C1792 0.956 . S
H1805 C1792 0.961 . S
H1806 C1792 0.961 . S
H1807 C1793 0.958 . S
H1808 C1793 0.961 . S
H1809 C1793 0.960 . S
C1810 C1811 1.391 . S
C1810 C1812 1.394 . S
C1810 H1826 0.931 . S
C1811 C1810 1.391 . S
C1811 C1815 1.376 . S
C1812 C1810 1.394 . S
C1812 C1813 1.369 . S
C1812 C1816 1.531 . S
C1813 C1812 1.369 . S
C1813 C1814 1.410 . S
C1813 C1821 1.503 . S
C1814 C1813 1.410 . S
C1814 C1815 1.392 . S
C1814 C1817 1.511 . S
C1815 C1811 1.376 . S
C1815 C1814 1.392 . S
C1815 H1827 0.929 . S
C1816 C1812 1.531 . S
C1816 H1828 0.960 . S
C1816 H1829 0.962 . S
C1816 H1830 0.960 . S
C1817 C1814 1.511 . S
C1817 H1831 0.961 . S
C1817 H1832 0.961 . S
C1817 H1833 0.961 . S
C1818 C1819 1.370 . S
C1818 C1820 1.363 . S
C1818 H1834 0.931 . S
C1819 C1818 1.370 . S
C1819 C1823 1.408 . S
C1820 C1818 1.363 . S
C1820 C1821 1.370 . S
C1820 C1824 1.524 . S
C1821 C1813 1.503 . S
C1821 C1820 1.370 . S
C1821 C1822 1.403 . S
C1822 C1821 1.403 . S
C1822 C1823 1.404 . S
C1822 C1825 1.539 . S
C1823 C1819 1.408 . S
C1823 C1822 1.404 . S
C1823 H1835 0.913 1_554 S
C1824 C1820 1.524 . S
C1824 H1836 0.956 . S
C1824 H1837 0.961 . S
C1824 H1838 0.961 . S
C1825 C1822 1.539 . S
C1825 H1839 0.958 1_554 S
C1825 H1840 0.936 1_554 S
C1825 H1841 0.960 . S
H1826 C1810 0.931 . S
H1827 C1815 0.929 . S
H1828 C1816 0.960 . S
H1829 C1816 0.962 . S
H1830 C1816 0.960 . S
H1831 C1817 0.961 . S
H1832 C1817 0.961 . S
H1833 C1817 0.961 . S
H1834 C1818 0.931 . S
H1835 C1823 0.913 1_556 S
H1836 C1824 0.956 . S
H1837 C1824 0.961 . S
H1838 C1824 0.961 . S
H1839 C1825 0.958 1_556 S
H1840 C1825 0.936 1_556 S
H1841 C1825 0.960 . S
C1842 C1843 1.384 . S
C1842 C1844 1.370 1_655 S
C1842 H1858 0.961 . S
C1843 C1842 1.384 . S
C1843 C1847 1.376 1_655 S
C1844 C1842 1.370 1_455 S
C1844 C1845 1.369 . S
C1844 C1848 1.531 . S
C1845 C1844 1.369 . S
C1845 C1846 1.410 . S
C1845 C1853 1.503 . S
C1846 C1845 1.410 . S
C1846 C1847 1.392 . S
C1846 C1849 1.511 . S
C1847 C1843 1.376 1_455 S
C1847 C1846 1.392 . S
C1847 H1859 0.929 . S
C1848 C1844 1.531 . S
C1848 H1860 0.960 . S
C1848 H1861 0.962 . S
C1848 H1862 0.960 . S
C1849 C1846 1.511 . S
C1849 H1863 0.961 . S
C1849 H1864 0.961 . S
C1849 H1865 0.961 . S
C1850 C1851 1.370 . S
C1850 C1852 1.363 . S
C1850 H1866 0.931 . S
C1851 C1850 1.370 . S
C1851 C1855 1.408 . S
C1852 C1850 1.363 . S
C1852 C1853 1.370 . S
C1852 C1856 1.524 . S
C1853 C1845 1.503 . S
C1853 C1852 1.370 . S
C1853 C1854 1.403 . S
C1854 C1853 1.403 . S
C1854 C1855 1.404 . S
C1854 C1857 1.539 . S
C1855 C1851 1.408 . S
C1855 C1854 1.404 . S
C1855 H1867 0.930 . S
C1856 C1852 1.524 . S
C1856 H1868 0.956 . S
C1856 H1869 0.961 . S
C1856 H1870 0.961 . S
C1857 C1854 1.539 . S
C1857 H1871 0.958 . S
C1857 H1872 0.961 . S
C1857 H1873 0.960 . S
H1858 C1842 0.961 . S
H1859 C1847 0.929 . S
H1860 C1848 0.960 . S
H1861 C1848 0.962 . S
H1862 C1848 0.960 . S
H1863 C1849 0.961 . S
H1864 C1849 0.961 . S
H1865 C1849 0.961 . S
H1866 C1850 0.931 . S
H1867 C1855 0.930 . S
H1868 C1856 0.956 . S
H1869 C1856 0.961 . S
H1870 C1856 0.961 . S
H1871 C1857 0.958 . S
H1872 C1857 0.961 . S
H1873 C1857 0.960 . S
C1874 C1875 1.391 . S
C1874 C1876 1.394 . S
C1874 H1890 0.931 . S
C1875 C1874 1.391 . S
C1875 C1879 1.376 . S
C1876 C1874 1.394 . S
C1876 C1877 1.369 . S
C1876 C1880 1.531 . S
C1877 C1876 1.369 . S
C1877 C1878 1.410 . S
C1877 C1885 1.503 . S
C1878 C1877 1.410 . S
C1878 C1879 1.392 . S
C1878 C1881 1.511 . S
C1879 C1875 1.376 . S
C1879 C1878 1.392 . S
C1879 H1891 0.929 . S
C1880 C1876 1.531 . S
C1880 H1892 0.960 . S
C1880 H1893 0.962 . S
C1880 H1894 0.960 . S
C1881 C1878 1.511 . S
C1881 H1895 0.961 . S
C1881 H1896 0.961 . S
C1881 H1897 0.961 . S
C1882 C1883 1.370 . S
C1882 C1884 1.363 . S
C1882 H1898 0.931 . S
C1883 C1882 1.370 . S
C1883 C1887 1.408 . S
C1884 C1882 1.363 . S
C1884 C1885 1.370 . S
C1884 C1888 1.524 . S
C1885 C1877 1.503 . S
C1885 C1884 1.370 . S
C1885 C1886 1.403 . S
C1886 C1885 1.403 . S
C1886 C1887 1.404 . S
C1886 C1889 1.539 . S
C1887 C1883 1.408 . S
C1887 C1886 1.404 . S
C1887 H1899 0.930 . S
C1888 C1884 1.524 . S
C1888 H1900 0.956 . S
C1888 H1901 0.961 . S
C1888 H1902 0.961 . S
C1889 C1886 1.539 . S
C1889 H1903 0.958 . S
C1889 H1904 0.961 . S
C1889 H1905 0.960 . S
H1890 C1874 0.931 . S
H1891 C1879 0.929 . S
H1892 C1880 0.960 . S
H1893 C1880 0.962 . S
H1894 C1880 0.960 . S
H1895 C1881 0.961 . S
H1896 C1881 0.961 . S
H1897 C1881 0.961 . S
H1898 C1882 0.931 . S
H1899 C1887 0.930 . S
H1900 C1888 0.956 . S
H1901 C1888 0.961 . S
H1902 C1888 0.961 . S
H1903 C1889 0.958 . S
H1904 C1889 0.961 . S
H1905 C1889 0.960 . S
C1906 C1907 1.391 . S
C1906 C1908 1.394 1_545 S
C1906 H1922 0.931 . S
C1907 C1906 1.391 . S
C1907 C1911 1.382 . S
C1908 C1906 1.394 1_565 S
C1908 C1909 1.369 . S
C1908 C1912 1.531 . S
C1909 C1908 1.369 . S
C1909 C1910 1.410 . S
C1909 C1917 1.503 . S
C1910 C1909 1.410 . S
C1910 C1911 1.373 1_565 S
C1910 C1913 1.511 . S
C1911 C1907 1.382 . S
C1911 C1910 1.373 1_545 S
C1911 H1923 0.942 . S
C1912 C1908 1.531 . S
C1912 H1924 0.960 . S
C1912 H1925 0.962 . S
C1912 H1926 0.960 . S
C1913 C1910 1.511 . S
C1913 H1927 0.961 . S
C1913 H1928 0.961 . S
C1913 H1929 0.961 . S
C1914 C1915 1.370 . S
C1914 C1916 1.363 . S
C1914 H1930 0.931 . S
C1915 C1914 1.370 . S
C1915 C1919 1.408 . S
C1916 C1914 1.363 . S
C1916 C1917 1.370 . S
C1916 C1920 1.524 . S
C1917 C1909 1.503 . S
C1917 C1916 1.370 . S
C1917 C1918 1.403 . S
C1918 C1917 1.403 . S
C1918 C1919 1.404 . S
C1918 C1921 1.539 . S
C1919 C1915 1.408 . S
C1919 C1918 1.404 . S
C1919 H1931 0.930 . S
C1920 C1916 1.524 . S
C1920 H1932 0.956 . S
C1920 H1933 0.961 . S
C1920 H1934 0.961 . S
C1921 C1918 1.539 . S
C1921 H1935 0.958 . S
C1921 H1936 0.961 . S
C1921 H1937 0.960 . S
H1922 C1906 0.931 . S
H1923 C1911 0.942 . S
H1924 C1912 0.960 . S
H1925 C1912 0.962 . S
H1926 C1912 0.960 . S
H1927 C1913 0.961 . S
H1928 C1913 0.961 . S
H1929 C1913 0.961 . S
H1930 C1914 0.931 . S
H1931 C1919 0.930 . S
H1932 C1920 0.956 . S
H1933 C1920 0.961 . S
H1934 C1920 0.961 . S
H1935 C1921 0.958 . S
H1936 C1921 0.961 . S
H1937 C1921 0.960 . S
C1938 C1939 1.391 . S
C1938 C1940 1.394 . S
C1938 H1954 0.931 . S
C1939 C1938 1.391 . S
C1939 C1943 1.376 . S
C1940 C1938 1.394 . S
C1940 C1941 1.369 . S
C1940 C1944 1.531 . S
C1941 C1940 1.369 . S
C1941 C1942 1.410 . S
C1941 C1949 1.503 . S
C1942 C1941 1.410 . S
C1942 C1943 1.392 . S
C1942 C1945 1.511 . S
C1943 C1939 1.376 . S
C1943 C1942 1.392 . S
C1943 H1955 0.929 . S
C1944 C1940 1.531 . S
C1944 H1956 0.960 . S
C1944 H1957 0.962 . S
C1944 H1958 0.960 . S
C1945 C1942 1.511 . S
C1945 H1959 0.961 . S
C1945 H1960 0.961 . S
C1945 H1961 0.961 . S
C1946 C1947 1.370 . S
C1946 C1948 1.363 . S
C1946 H1962 0.931 . S
C1947 C1946 1.370 . S
C1947 C1951 1.408 . S
C1948 C1946 1.363 . S
C1948 C1949 1.370 . S
C1948 C1952 1.524 . S
C1949 C1941 1.503 . S
C1949 C1948 1.370 . S
C1949 C1950 1.403 . S
C1950 C1949 1.403 . S
C1950 C1951 1.404 . S
C1950 C1953 1.539 . S
C1951 C1947 1.408 . S
C1951 C1950 1.404 . S
C1951 H1963 0.930 . S
C1952 C1948 1.524 . S
C1952 H1964 0.956 . S
C1952 H1965 0.961 . S
C1952 H1966 0.961 . S
C1953 C1950 1.539 . S
C1953 H1967 0.958 . S
C1953 H1968 0.961 . S
C1953 H1969 0.960 . S
H1954 C1938 0.931 . S
H1955 C1943 0.929 . S
H1956 C1944 0.960 . S
H1957 C1944 0.962 . S
H1958 C1944 0.960 . S
H1959 C1945 0.961 . S
H1960 C1945 0.961 . S
H1961 C1945 0.961 . S
H1962 C1946 0.931 . S
H1963 C1951 0.930 . S
H1964 C1952 0.956 . S
H1965 C1952 0.961 . S
H1966 C1952 0.961 . S
H1967 C1953 0.958 . S
H1968 C1953 0.961 . S
H1969 C1953 0.960 . S
C1970 C1971 1.391 . S
C1970 C1972 1.394 . S
C1970 H1986 0.931 . S
C1971 C1970 1.391 . S
C1971 C1975 1.376 . S
C1972 C1970 1.394 . S
C1972 C1973 1.369 . S
C1972 C1976 1.531 . S
C1973 C1972 1.369 . S
C1973 C1974 1.410 . S
C1973 C1981 1.503 . S
C1974 C1973 1.410 . S
C1974 C1975 1.392 . S
C1974 C1977 1.511 . S
C1975 C1971 1.376 . S
C1975 C1974 1.392 . S
C1975 H1987 0.929 . S
C1976 C1972 1.531 . S
C1976 H1988 0.960 . S
C1976 H1989 0.962 . S
C1976 H1990 0.960 . S
C1977 C1974 1.511 . S
C1977 H1991 0.961 . S
C1977 H1992 0.961 . S
C1977 H1993 0.961 . S
C1978 C1979 1.370 . S
C1978 C1980 1.363 . S
C1978 H1994 0.931 . S
C1979 C1978 1.370 . S
C1979 C1983 1.408 . S
C1980 C1978 1.363 . S
C1980 C1981 1.370 . S
C1980 C1984 1.524 . S
C1981 C1973 1.503 . S
C1981 C1980 1.370 . S
C1981 C1982 1.403 . S
C1982 C1981 1.403 . S
C1982 C1983 1.404 . S
C1982 C1985 1.539 . S
C1983 C1979 1.408 . S
C1983 C1982 1.404 . S
C1983 H1995 0.930 . S
C1984 C1980 1.524 . S
C1984 H1996 0.956 . S
C1984 H1997 0.961 . S
C1984 H1998 0.961 . S
C1985 C1982 1.539 . S
C1985 H1999 0.958 . S
C1985 H2000 0.961 . S
C1985 H2001 0.960 . S
H1986 C1970 0.931 . S
H1987 C1975 0.929 . S
H1988 C1976 0.960 . S
H1989 C1976 0.962 . S
H1990 C1976 0.960 . S
H1991 C1977 0.961 . S
H1992 C1977 0.961 . S
H1993 C1977 0.961 . S
H1994 C1978 0.931 . S
H1995 C1983 0.930 . S
H1996 C1984 0.956 . S
H1997 C1984 0.961 . S
H1998 C1984 0.961 . S
H1999 C1985 0.958 . S
H2000 C1985 0.961 . S
H2001 C1985 0.960 . S
C2002 C2003 1.391 . S
C2002 C2004 1.394 . S
C2002 H2018 0.931 . S
C2003 C2002 1.391 . S
C2003 C2007 1.376 . S
C2004 C2002 1.394 . S
C2004 C2005 1.369 . S
C2004 C2008 1.531 . S
C2005 C2004 1.369 . S
C2005 C2006 1.410 . S
C2005 C2013 1.503 . S
C2006 C2005 1.410 . S
C2006 C2007 1.392 . S
C2006 C2009 1.511 . S
C2007 C2003 1.376 . S
C2007 C2006 1.392 . S
C2007 H2019 0.929 . S
C2008 C2004 1.531 . S
C2008 H2020 0.960 . S
C2008 H2021 0.962 . S
C2008 H2022 0.960 . S
C2009 C2006 1.511 . S
C2009 H2023 0.961 . S
C2009 H2024 0.961 . S
C2009 H2025 0.961 . S
C2010 C2011 1.370 . S
C2010 C2012 1.363 . S
C2010 H2026 0.931 . S
C2011 C2010 1.370 . S
C2011 C2015 1.408 . S
C2012 C2010 1.363 . S
C2012 C2013 1.370 . S
C2012 C2016 1.524 . S
C2013 C2005 1.503 . S
C2013 C2012 1.370 . S
C2013 C2014 1.403 . S
C2014 C2013 1.403 . S
C2014 C2015 1.404 . S
C2014 C2017 1.539 . S
C2015 C2011 1.408 . S
C2015 C2014 1.404 . S
C2015 H2027 0.930 . S
C2016 C2012 1.524 . S
C2016 H2028 0.956 . S
C2016 H2029 0.961 . S
C2016 H2030 0.961 . S
C2017 C2014 1.539 . S
C2017 H2031 0.958 . S
C2017 H2032 0.961 . S
C2017 H2033 0.960 . S
H2018 C2002 0.931 . S
H2019 C2007 0.929 . S
H2020 C2008 0.960 . S
H2021 C2008 0.962 . S
H2022 C2008 0.960 . S
H2023 C2009 0.961 . S
H2024 C2009 0.961 . S
H2025 C2009 0.961 . S
H2026 C2010 0.931 . S
H2027 C2015 0.930 . S
H2028 C2016 0.956 . S
H2029 C2016 0.961 . S
H2030 C2016 0.961 . S
H2031 C2017 0.958 . S
H2032 C2017 0.961 . S
H2033 C2017 0.960 . S
C2034 C2035 1.391 . S
C2034 C2036 1.394 . S
C2034 H2050 0.931 . S
C2035 C2034 1.391 . S
C2035 C2039 1.376 . S
C2036 C2034 1.394 . S
C2036 C2037 1.369 . S
C2036 C2040 1.531 . S
C2037 C2036 1.369 . S
C2037 C2038 1.410 . S
C2037 C2045 1.503 . S
C2038 C2037 1.410 . S
C2038 C2039 1.392 . S
C2038 C2041 1.511 . S
C2039 C2035 1.376 . S
C2039 C2038 1.392 . S
C2039 H2051 0.929 . S
C2040 C2036 1.531 . S
C2040 H2052 0.960 . S
C2040 H2053 0.962 . S
C2040 H2054 0.960 . S
C2041 C2038 1.511 . S
C2041 H2055 0.961 . S
C2041 H2056 0.961 . S
C2041 H2057 0.961 . S
C2042 C2043 1.370 . S
C2042 C2044 1.363 . S
C2042 H2058 0.931 . S
C2043 C2042 1.370 . S
C2043 C2047 1.408 . S
C2044 C2042 1.363 . S
C2044 C2045 1.370 . S
C2044 C2048 1.524 . S
C2045 C2037 1.503 . S
C2045 C2044 1.370 . S
C2045 C2046 1.403 . S
C2046 C2045 1.403 . S
C2046 C2047 1.404 . S
C2046 C2049 1.539 . S
C2047 C2043 1.408 . S
C2047 C2046 1.404 . S
C2047 H2059 0.930 . S
C2048 C2044 1.524 . S
C2048 H2060 0.956 . S
C2048 H2061 0.961 . S
C2048 H2062 0.961 . S
C2049 C2046 1.539 . S
C2049 H2063 0.958 . S
C2049 H2064 0.961 . S
C2049 H2065 0.960 . S
H2050 C2034 0.931 . S
H2051 C2039 0.929 . S
H2052 C2040 0.960 . S
H2053 C2040 0.962 . S
H2054 C2040 0.960 . S
H2055 C2041 0.961 . S
H2056 C2041 0.961 . S
H2057 C2041 0.961 . S
H2058 C2042 0.931 . S
H2059 C2047 0.930 . S
H2060 C2048 0.956 . S
H2061 C2048 0.961 . S
H2062 C2048 0.961 . S
H2063 C2049 0.958 . S
H2064 C2049 0.961 . S
H2065 C2049 0.960 . S
C2066 C2067 1.391 . S
C2066 C2068 1.394 . S
C2066 H2082 0.931 . S
C2067 C2066 1.391 . S
C2067 C2071 1.376 . S
C2068 C2066 1.394 . S
C2068 C2069 1.369 . S
C2068 C2072 1.531 . S
C2069 C2068 1.369 . S
C2069 C2070 1.410 . S
C2069 C2077 1.503 . S
C2070 C2069 1.410 . S
C2070 C2071 1.392 . S
C2070 C2073 1.511 . S
C2071 C2067 1.376 . S
C2071 C2070 1.392 . S
C2071 H2083 0.929 . S
C2072 C2068 1.531 . S
C2072 H2084 0.960 . S
C2072 H2085 0.962 . S
C2072 H2086 0.960 . S
C2073 C2070 1.511 . S
C2073 H2087 0.961 . S
C2073 H2088 0.961 . S
C2073 H2089 0.961 . S
C2074 C2075 1.370 . S
C2074 C2076 1.363 . S
C2074 H2090 0.931 . S
C2075 C2074 1.370 . S
C2075 C2079 1.408 . S
C2076 C2074 1.363 . S
C2076 C2077 1.370 . S
C2076 C2080 1.524 . S
C2077 C2069 1.503 . S
C2077 C2076 1.370 . S
C2077 C2078 1.403 . S
C2078 C2077 1.403 . S
C2078 C2079 1.404 . S
C2078 C2081 1.539 . S
C2079 C2075 1.408 . S
C2079 C2078 1.404 . S
C2079 H2091 0.930 . S
C2080 C2076 1.524 . S
C2080 H2092 0.956 . S
C2080 H2093 0.961 . S
C2080 H2094 0.961 . S
C2081 C2078 1.539 . S
C2081 H2095 0.958 . S
C2081 H2096 0.961 . S
C2081 H2097 0.960 . S
H2082 C2066 0.931 . S
H2083 C2071 0.929 . S
H2084 C2072 0.960 . S
H2085 C2072 0.962 . S
H2086 C2072 0.960 . S
H2087 C2073 0.961 . S
H2088 C2073 0.961 . S
H2089 C2073 0.961 . S
H2090 C2074 0.931 . S
H2091 C2079 0.930 . S
H2092 C2080 0.956 . S
H2093 C2080 0.961 . S
H2094 C2080 0.961 . S
H2095 C2081 0.958 . S
H2096 C2081 0.961 . S
H2097 C2081 0.960 . S
C2098 C2099 1.391 . S
C2098 C2100 1.394 . S
C2098 H2114 0.931 . S
C2099 C2098 1.391 . S
C2099 C2103 1.376 . S
C2100 C2098 1.394 . S
C2100 C2101 1.369 . S
C2100 C2104 1.531 . S
C2101 C2100 1.369 . S
C2101 C2102 1.410 . S
C2101 C2109 1.503 . S
C2102 C2101 1.410 . S
C2102 C2103 1.392 . S
C2102 C2105 1.511 . S
C2103 C2099 1.376 . S
C2103 C2102 1.392 . S
C2103 H2115 0.929 . S
C2104 C2100 1.531 . S
C2104 H2116 0.960 . S
C2104 H2117 0.962 . S
C2104 H2118 0.960 . S
C2105 C2102 1.511 . S
C2105 H2119 0.961 . S
C2105 H2120 0.961 . S
C2105 H2121 0.961 . S
C2106 C2107 1.370 . S
C2106 C2108 1.363 . S
C2106 H2122 0.931 . S
C2107 C2106 1.370 . S
C2107 C2111 1.408 . S
C2108 C2106 1.363 . S
C2108 C2109 1.370 . S
C2108 C2112 1.524 . S
C2109 C2101 1.503 . S
C2109 C2108 1.370 . S
C2109 C2110 1.403 . S
C2110 C2109 1.403 . S
C2110 C2111 1.404 . S
C2110 C2113 1.539 . S
C2111 C2107 1.408 . S
C2111 C2110 1.404 . S
C2111 H2123 0.930 . S
C2112 C2108 1.524 . S
C2112 H2124 0.956 . S
C2112 H2125 0.961 . S
C2112 H2126 0.961 . S
C2113 C2110 1.539 . S
C2113 H2127 0.958 . S
C2113 H2128 0.961 . S
C2113 H2129 0.960 . S
H2114 C2098 0.931 . S
H2115 C2103 0.929 . S
H2116 C2104 0.960 . S
H2117 C2104 0.962 . S
H2118 C2104 0.960 . S
H2119 C2105 0.961 . S
H2120 C2105 0.961 . S
H2121 C2105 0.961 . S
H2122 C2106 0.931 . S
H2123 C2111 0.930 . S
H2124 C2112 0.956 . S
H2125 C2112 0.961 . S
H2126 C2112 0.961 . S
H2127 C2113 0.958 . S
H2128 C2113 0.961 . S
H2129 C2113 0.960 . S
C2130 C2131 1.391 1_565 S
C2130 C2132 1.394 . S
C2130 H2146 0.931 . S
C2131 C2130 1.391 1_545 S
C2131 C2135 1.376 . S
C2132 C2130 1.394 . S
C2132 C2133 1.369 . S
C2132 C2136 1.531 . S
C2133 C2132 1.369 . S
C2133 C2134 1.410 . S
C2133 C2141 1.503 . S
C2134 C2133 1.410 . S
C2134 C2135 1.392 1_565 S
C2134 C2137 1.511 . S
C2135 C2131 1.376 . S
C2135 C2134 1.392 1_545 S
C2135 H2147 0.929 . S
C2136 C2132 1.531 . S
C2136 H2148 0.960 . S
C2136 H2149 0.962 . S
C2136 H2150 0.960 . S
C2137 C2134 1.511 . S
C2137 H2151 0.961 . S
C2137 H2152 0.961 . S
C2137 H2153 0.961 . S
C2138 C2139 1.370 . S
C2138 C2140 1.363 . S
C2138 H2154 0.931 . S
C2139 C2138 1.370 . S
C2139 C2143 1.408 . S
C2140 C2138 1.363 . S
C2140 C2141 1.370 . S
C2140 C2144 1.524 . S
C2141 C2133 1.503 . S
C2141 C2140 1.370 . S
C2141 C2142 1.403 . S
C2142 C2141 1.403 . S
C2142 C2143 1.404 . S
C2142 C2145 1.539 . S
C2143 C2139 1.408 . S
C2143 C2142 1.404 . S
C2143 H2155 0.930 . S
C2144 C2140 1.524 . S
C2144 H2156 0.956 . S
C2144 H2157 0.961 . S
C2144 H2158 0.961 . S
C2145 C2142 1.539 . S
C2145 H2159 0.958 . S
C2145 H2160 0.961 . S
C2145 H2161 0.960 . S
H2146 C2130 0.931 . S
H2147 C2135 0.929 . S
H2148 C2136 0.960 . S
H2149 C2136 0.962 . S
H2150 C2136 0.960 . S
H2151 C2137 0.961 . S
H2152 C2137 0.961 . S
H2153 C2137 0.961 . S
H2154 C2138 0.931 . S
H2155 C2143 0.930 . S
H2156 C2144 0.956 . S
H2157 C2144 0.961 . S
H2158 C2144 0.961 . S
H2159 C2145 0.958 . S
H2160 C2145 0.961 . S
H2161 C2145 0.960 . S
C2162 C2163 1.391 1_455 S
C2162 C2164 1.394 . S
C2162 H2178 0.932 . S
C2163 C2162 1.391 1_655 S
C2163 C2167 1.376 1_655 S
C2164 C2162 1.394 . S
C2164 C2165 1.369 . S
C2164 C2168 1.531 . S
C2165 C2164 1.369 . S
C2165 C2166 1.410 . S
C2165 C2173 1.503 . S
C2166 C2165 1.410 . S
C2166 C2167 1.392 . S
C2166 C2169 1.511 . S
C2167 C2163 1.376 1_455 S
C2167 C2166 1.392 . S
C2167 H2179 0.929 1_455 S
C2168 C2164 1.531 . S
C2168 H2180 0.960 . S
C2168 H2181 0.962 . S
C2168 H2182 0.960 . S
C2169 C2166 1.511 . S
C2169 H2183 0.961 . S
C2169 H2184 0.961 . S
C2169 H2185 0.961 . S
C2170 C2171 1.370 . S
C2170 C2172 1.363 . S
C2170 H2186 0.931 . S
C2171 C2170 1.370 . S
C2171 C2175 1.408 . S
C2172 C2170 1.363 . S
C2172 C2173 1.370 . S
C2172 C2176 1.524 . S
C2173 C2165 1.503 . S
C2173 C2172 1.370 . S
C2173 C2174 1.403 . S
C2174 C2173 1.403 . S
C2174 C2175 1.404 . S
C2174 C2177 1.539 . S
C2175 C2171 1.408 . S
C2175 C2174 1.404 . S
C2175 H2187 0.930 . S
C2176 C2172 1.524 . S
C2176 H2188 0.956 . S
C2176 H2189 0.961 . S
C2176 H2190 0.961 . S
C2177 C2174 1.539 . S
C2177 H2191 0.958 . S
C2177 H2192 0.961 . S
C2177 H2193 0.960 . S
H2178 C2162 0.932 . S
H2179 C2167 0.929 1_655 S
H2180 C2168 0.960 . S
H2181 C2168 0.962 . S
H2182 C2168 0.960 . S
H2183 C2169 0.961 . S
H2184 C2169 0.961 . S
H2185 C2169 0.961 . S
H2186 C2170 0.931 . S
H2187 C2175 0.930 . S
H2188 C2176 0.956 . S
H2189 C2176 0.961 . S
H2190 C2176 0.961 . S
H2191 C2177 0.958 . S
H2192 C2177 0.961 . S
H2193 C2177 0.960 . S
C2194 C2195 1.391 . S
C2194 C2196 1.394 . S
C2194 H2210 0.931 . S
C2195 C2194 1.391 . S
C2195 C2199 1.376 . S
C2196 C2194 1.394 . S
C2196 C2197 1.369 . S
C2196 C2200 1.531 . S
C2197 C2196 1.369 . S
C2197 C2198 1.410 . S
C2197 C2205 1.503 . S
C2198 C2197 1.410 . S
C2198 C2199 1.392 . S
C2198 C2201 1.511 . S
C2199 C2195 1.376 . S
C2199 C2198 1.392 . S
C2199 H2211 0.929 . S
C2200 C2196 1.531 . S
C2200 H2212 0.960 . S
C2200 H2213 0.962 . S
C2200 H2214 0.960 . S
C2201 C2198 1.511 . S
C2201 H2215 0.961 . S
C2201 H2216 0.961 . S
C2201 H2217 0.961 . S
C2202 C2203 1.370 . S
C2202 C2204 1.363 . S
C2202 H2218 0.931 . S
C2203 C2202 1.370 . S
C2203 C2207 1.408 . S
C2204 C2202 1.363 . S
C2204 C2205 1.370 . S
C2204 C2208 1.524 . S
C2205 C2197 1.503 . S
C2205 C2204 1.370 . S
C2205 C2206 1.403 . S
C2206 C2205 1.403 . S
C2206 C2207 1.404 . S
C2206 C2209 1.539 . S
C2207 C2203 1.408 . S
C2207 C2206 1.404 . S
C2207 H2219 0.930 . S
C2208 C2204 1.524 . S
C2208 H2220 0.956 . S
C2208 H2221 0.961 . S
C2208 H2222 0.961 . S
C2209 C2206 1.539 . S
C2209 H2223 0.958 . S
C2209 H2224 0.961 . S
C2209 H2225 0.960 . S
H2210 C2194 0.931 . S
H2211 C2199 0.929 . S
H2212 C2200 0.960 . S
H2213 C2200 0.962 . S
H2214 C2200 0.960 . S
H2215 C2201 0.961 . S
H2216 C2201 0.961 . S
H2217 C2201 0.961 . S
H2218 C2202 0.931 . S
H2219 C2207 0.930 . S
H2220 C2208 0.956 . S
H2221 C2208 0.961 . S
H2222 C2208 0.961 . S
H2223 C2209 0.958 . S
H2224 C2209 0.961 . S
H2225 C2209 0.960 . S
C2226 C2227 1.391 . S
C2226 C2228 1.394 . S
C2226 H2242 0.931 . S
C2227 C2226 1.391 . S
C2227 C2231 1.376 . S
C2228 C2226 1.394 . S
C2228 C2229 1.369 . S
C2228 C2232 1.531 . S
C2229 C2228 1.369 . S
C2229 C2230 1.410 . S
C2229 C2237 1.503 . S
C2230 C2229 1.410 . S
C2230 C2231 1.392 . S
C2230 C2233 1.511 . S
C2231 C2227 1.376 . S
C2231 C2230 1.392 . S
C2231 H2243 0.929 . S
C2232 C2228 1.531 . S
C2232 H2244 0.960 . S
C2232 H2245 0.962 . S
C2232 H2246 0.960 . S
C2233 C2230 1.511 . S
C2233 H2247 0.961 . S
C2233 H2248 0.961 . S
C2233 H2249 0.961 . S
C2234 C2235 1.370 . S
C2234 C2236 1.363 . S
C2234 H2250 0.931 . S
C2235 C2234 1.370 . S
C2235 C2239 1.408 . S
C2236 C2234 1.363 . S
C2236 C2237 1.370 . S
C2236 C2240 1.524 . S
C2237 C2229 1.503 . S
C2237 C2236 1.370 . S
C2237 C2238 1.403 . S
C2238 C2237 1.403 . S
C2238 C2239 1.404 . S
C2238 C2241 1.539 . S
C2239 C2235 1.408 . S
C2239 C2238 1.404 . S
C2239 H2251 0.930 . S
C2240 C2236 1.524 . S
C2240 H2252 0.956 . S
C2240 H2253 0.961 . S
C2240 H2254 0.961 . S
C2241 C2238 1.539 . S
C2241 H2255 0.958 . S
C2241 H2256 0.961 . S
C2241 H2257 0.960 . S
H2242 C2226 0.931 . S
H2243 C2231 0.929 . S
H2244 C2232 0.960 . S
H2245 C2232 0.962 . S
H2246 C2232 0.960 . S
H2247 C2233 0.961 . S
H2248 C2233 0.961 . S
H2249 C2233 0.961 . S
H2250 C2234 0.931 . S
H2251 C2239 0.930 . S
H2252 C2240 0.956 . S
H2253 C2240 0.961 . S
H2254 C2240 0.961 . S
H2255 C2241 0.958 . S
H2256 C2241 0.961 . S
H2257 C2241 0.960 . S
C2258 C2259 1.391 . S
C2258 C2260 1.394 . S
C2258 H2274 0.931 . S
C2259 C2258 1.391 . S
C2259 C2263 1.376 . S
C2260 C2258 1.394 . S
C2260 C2261 1.369 . S
C2260 C2264 1.531 . S
C2261 C2260 1.369 . S
C2261 C2262 1.410 . S
C2261 C2269 1.503 . S
C2262 C2261 1.410 . S
C2262 C2263 1.392 . S
C2262 C2265 1.511 . S
C2263 C2259 1.376 . S
C2263 C2262 1.392 . S
C2263 H2275 0.929 . S
C2264 C2260 1.531 . S
C2264 H2276 0.960 . S
C2264 H2277 0.962 . S
C2264 H2278 0.960 . S
C2265 C2262 1.511 . S
C2265 H2279 0.961 . S
C2265 H2280 0.961 . S
C2265 H2281 0.961 . S
C2266 C2267 1.370 . S
C2266 C2268 1.363 . S
C2266 H2282 0.931 . S
C2267 C2266 1.370 . S
C2267 C2271 1.408 . S
C2268 C2266 1.363 . S
C2268 C2269 1.370 . S
C2268 C2272 1.524 . S
C2269 C2261 1.503 . S
C2269 C2268 1.370 . S
C2269 C2270 1.403 . S
C2270 C2269 1.403 . S
C2270 C2271 1.404 . S
C2270 C2273 1.539 . S
C2271 C2267 1.408 . S
C2271 C2270 1.404 . S
C2271 H2283 0.930 . S
C2272 C2268 1.524 . S
C2272 H2284 0.956 . S
C2272 H2285 0.961 . S
C2272 H2286 0.961 . S
C2273 C2270 1.539 . S
C2273 H2287 0.958 . S
C2273 H2288 0.961 . S
C2273 H2289 0.960 . S
H2274 C2258 0.931 . S
H2275 C2263 0.929 . S
H2276 C2264 0.960 . S
H2277 C2264 0.962 . S
H2278 C2264 0.960 . S
H2279 C2265 0.961 . S
H2280 C2265 0.961 . S
H2281 C2265 0.961 . S
H2282 C2266 0.931 . S
H2283 C2271 0.930 . S
H2284 C2272 0.956 . S
H2285 C2272 0.961 . S
H2286 C2272 0.961 . S
H2287 C2273 0.958 . S
H2288 C2273 0.961 . S
H2289 C2273 0.960 . S
C2290 C2291 1.391 . S
C2290 C2292 1.394 . S
C2290 H2306 0.931 . S
C2291 C2290 1.391 . S
C2291 C2295 1.376 . S
C2292 C2290 1.394 . S
C2292 C2293 1.369 . S
C2292 C2296 1.531 . S
C2293 C2292 1.369 . S
C2293 C2294 1.410 . S
C2293 C2301 1.503 . S
C2294 C2293 1.410 . S
C2294 C2295 1.392 . S
C2294 C2297 1.511 . S
C2295 C2291 1.376 . S
C2295 C2294 1.392 . S
C2295 H2307 0.929 . S
C2296 C2292 1.531 . S
C2296 H2308 0.960 . S
C2296 H2309 0.962 . S
C2296 H2310 0.960 . S
C2297 C2294 1.511 . S
C2297 H2311 0.961 . S
C2297 H2312 0.961 . S
C2297 H2313 0.961 . S
C2298 C2299 1.370 . S
C2298 C2300 1.363 . S
C2298 H2314 0.931 . S
C2299 C2298 1.370 . S
C2299 C2303 1.408 . S
C2300 C2298 1.363 . S
C2300 C2301 1.370 . S
C2300 C2304 1.524 . S
C2301 C2293 1.503 . S
C2301 C2300 1.370 . S
C2301 C2302 1.403 . S
C2302 C2301 1.403 . S
C2302 C2303 1.404 . S
C2302 C2305 1.539 . S
C2303 C2299 1.408 . S
C2303 C2302 1.404 . S
C2303 H2315 0.930 . S
C2304 C2300 1.524 . S
C2304 H2316 0.956 . S
C2304 H2317 0.961 . S
C2304 H2318 0.961 . S
C2305 C2302 1.539 . S
C2305 H2319 0.958 . S
C2305 H2320 0.961 . S
C2305 H2321 0.960 . S
H2306 C2290 0.931 . S
H2307 C2295 0.929 . S
H2308 C2296 0.960 . S
H2309 C2296 0.962 . S
H2310 C2296 0.960 . S
H2311 C2297 0.961 . S
H2312 C2297 0.961 . S
H2313 C2297 0.961 . S
H2314 C2298 0.931 . S
H2315 C2303 0.930 . S
H2316 C2304 0.956 . S
H2317 C2304 0.961 . S
H2318 C2304 0.961 . S
H2319 C2305 0.958 . S
H2320 C2305 0.961 . S
H2321 C2305 0.960 . S
C2322 C2323 1.391 1_545 S
C2322 C2324 1.394 . S
C2322 H2338 0.931 . S
C2323 C2322 1.391 1_565 S
C2323 C2327 1.376 . S
C2324 C2322 1.394 . S
C2324 C2325 1.369 . S
C2324 C2328 1.531 . S
C2325 C2324 1.369 . S
C2325 C2326 1.410 . S
C2325 C2333 1.503 . S
C2326 C2325 1.410 . S
C2326 C2327 1.392 1_545 S
C2326 C2329 1.511 . S
C2327 C2323 1.376 . S
C2327 C2326 1.392 1_565 S
C2327 H2339 0.929 . S
C2328 C2324 1.531 . S
C2328 H2340 0.960 . S
C2328 H2341 0.962 . S
C2328 H2342 0.960 . S
C2329 C2326 1.511 . S
C2329 H2343 0.961 . S
C2329 H2344 0.961 . S
C2329 H2345 0.961 . S
C2330 C2331 1.370 . S
C2330 C2332 1.363 . S
C2330 H2346 0.931 . S
C2331 C2330 1.370 . S
C2331 C2335 1.408 . S
C2332 C2330 1.363 . S
C2332 C2333 1.370 . S
C2332 C2336 1.524 . S
C2333 C2325 1.503 . S
C2333 C2332 1.370 . S
C2333 C2334 1.403 . S
C2334 C2333 1.403 . S
C2334 C2335 1.404 . S
C2334 C2337 1.539 . S
C2335 C2331 1.408 . S
C2335 C2334 1.404 . S
C2335 H2347 0.930 . S
C2336 C2332 1.524 . S
C2336 H2348 0.956 . S
C2336 H2349 0.961 . S
C2336 H2350 0.961 . S
C2337 C2334 1.539 . S
C2337 H2351 0.958 . S
C2337 H2352 0.961 . S
C2337 H2353 0.960 . S
H2338 C2322 0.931 . S
H2339 C2327 0.929 . S
H2340 C2328 0.960 . S
H2341 C2328 0.962 . S
H2342 C2328 0.960 . S
H2343 C2329 0.961 . S
H2344 C2329 0.961 . S
H2345 C2329 0.961 . S
H2346 C2330 0.931 . S
H2347 C2335 0.930 . S
H2348 C2336 0.956 . S
H2349 C2336 0.961 . S
H2350 C2336 0.961 . S
H2351 C2337 0.958 . S
H2352 C2337 0.961 . S
H2353 C2337 0.960 . S
C2354 C2355 1.391 1_655 S
C2354 C2356 1.394 . S
C2354 H2370 0.931 . S
C2355 C2354 1.391 1_455 S
C2355 C2359 1.376 . S
C2356 C2354 1.394 . S
C2356 C2357 1.369 . S
C2356 C2360 1.531 . S
C2357 C2356 1.369 . S
C2357 C2358 1.410 . S
C2357 C2365 1.503 . S
C2358 C2357 1.410 . S
C2358 C2359 1.392 1_655 S
C2358 C2361 1.511 . S
C2359 C2355 1.376 . S
C2359 C2358 1.392 1_455 S
C2359 H2371 0.929 . S
C2360 C2356 1.531 . S
C2360 H2372 0.960 . S
C2360 H2373 0.962 . S
C2360 H2374 0.960 . S
C2361 C2358 1.511 . S
C2361 H2375 0.961 . S
C2361 H2376 0.961 . S
C2361 H2377 0.961 . S
C2362 C2363 1.370 . S
C2362 C2364 1.363 . S
C2362 H2378 0.931 . S
C2363 C2362 1.370 . S
C2363 C2367 1.408 . S
C2364 C2362 1.363 . S
C2364 C2365 1.370 . S
C2364 C2368 1.524 . S
C2365 C2357 1.503 . S
C2365 C2364 1.370 . S
C2365 C2366 1.403 . S
C2366 C2365 1.403 . S
C2366 C2367 1.404 . S
C2366 C2369 1.539 . S
C2367 C2363 1.408 . S
C2367 C2366 1.404 . S
C2367 H2379 0.930 . S
C2368 C2364 1.524 . S
C2368 H2380 0.956 . S
C2368 H2381 0.961 . S
C2368 H2382 0.961 . S
C2369 C2366 1.539 . S
C2369 H2383 0.958 . S
C2369 H2384 0.961 . S
C2369 H2385 0.960 . S
H2370 C2354 0.931 . S
H2371 C2359 0.929 . S
H2372 C2360 0.960 . S
H2373 C2360 0.962 . S
H2374 C2360 0.960 . S
H2375 C2361 0.961 . S
H2376 C2361 0.961 . S
H2377 C2361 0.961 . S
H2378 C2362 0.931 . S
H2379 C2367 0.930 . S
H2380 C2368 0.956 . S
H2381 C2368 0.961 . S
H2382 C2368 0.961 . S
H2383 C2369 0.958 . S
H2384 C2369 0.961 . S
H2385 C2369 0.960 . S
C2386 C2387 1.391 . S
C2386 C2388 1.394 . S
C2386 H2402 0.931 . S
C2387 C2386 1.391 . S
C2387 C2391 1.376 . S
C2388 C2386 1.394 . S
C2388 C2389 1.369 . S
C2388 C2392 1.531 . S
C2389 C2388 1.369 . S
C2389 C2390 1.410 . S
C2389 C2397 1.503 . S
C2390 C2389 1.410 . S
C2390 C2391 1.392 . S
C2390 C2393 1.511 . S
C2391 C2387 1.376 . S
C2391 C2390 1.392 . S
C2391 H2403 0.929 . S
C2392 C2388 1.531 . S
C2392 H2404 0.960 . S
C2392 H2405 0.962 . S
C2392 H2406 0.960 . S
C2393 C2390 1.511 . S
C2393 H2407 0.961 . S
C2393 H2408 0.961 . S
C2393 H2409 0.961 . S
C2394 C2395 1.370 . S
C2394 C2396 1.363 . S
C2394 H2410 0.931 . S
C2395 C2394 1.370 . S
C2395 C2399 1.408 . S
C2396 C2394 1.363 . S
C2396 C2397 1.370 . S
C2396 C2400 1.524 . S
C2397 C2389 1.503 . S
C2397 C2396 1.370 . S
C2397 C2398 1.403 . S
C2398 C2397 1.403 . S
C2398 C2399 1.404 . S
C2398 C2401 1.539 . S
C2399 C2395 1.408 . S
C2399 C2398 1.404 . S
C2399 H2411 0.930 . S
C2400 C2396 1.524 . S
C2400 H2412 0.956 . S
C2400 H2413 0.961 . S
C2400 H2414 0.961 . S
C2401 C2398 1.539 . S
C2401 H2415 0.958 . S
C2401 H2416 0.961 . S
C2401 H2417 0.960 . S
H2402 C2386 0.931 . S
H2403 C2391 0.929 . S
H2404 C2392 0.960 . S
H2405 C2392 0.962 . S
H2406 C2392 0.960 . S
H2407 C2393 0.961 . S
H2408 C2393 0.961 . S
H2409 C2393 0.961 . S
H2410 C2394 0.931 . S
H2411 C2399 0.930 . S
H2412 C2400 0.956 . S
H2413 C2400 0.961 . S
H2414 C2400 0.961 . S
H2415 C2401 0.958 . S
H2416 C2401 0.961 . S
H2417 C2401 0.960 . S
C2418 C2419 1.391 . S
C2418 C2420 1.394 1_455 S
C2418 H2434 0.931 . S
C2419 C2418 1.391 . S
C2419 C2423 1.376 1_455 S
C2420 C2418 1.394 1_655 S
C2420 C2421 1.369 . S
C2420 C2424 1.531 . S
C2421 C2420 1.369 . S
C2421 C2422 1.410 . S
C2421 C2429 1.503 . S
C2422 C2421 1.410 . S
C2422 C2423 1.392 . S
C2422 C2425 1.511 . S
C2423 C2419 1.376 1_655 S
C2423 C2422 1.392 . S
C2423 H2435 0.935 1_655 S
C2424 C2420 1.531 . S
C2424 H2436 0.960 . S
C2424 H2437 0.962 . S
C2424 H2438 0.960 . S
C2425 C2422 1.511 . S
C2425 H2439 0.961 . S
C2425 H2440 0.961 . S
C2425 H2441 0.961 . S
C2426 C2427 1.370 . S
C2426 C2428 1.363 . S
C2426 H2442 0.931 . S
C2427 C2426 1.370 . S
C2427 C2431 1.408 . S
C2428 C2426 1.363 . S
C2428 C2429 1.370 . S
C2428 C2432 1.524 . S
C2429 C2421 1.503 . S
C2429 C2428 1.370 . S
C2429 C2430 1.403 . S
C2430 C2429 1.403 . S
C2430 C2431 1.404 . S
C2430 C2433 1.539 . S
C2431 C2427 1.408 . S
C2431 C2430 1.404 . S
C2431 H2443 0.930 . S
C2432 C2428 1.524 . S
C2432 H2444 0.956 . S
C2432 H2445 0.961 . S
C2432 H2446 0.961 . S
C2433 C2430 1.539 . S
C2433 H2447 0.958 . S
C2433 H2448 0.961 . S
C2433 H2449 0.960 . S
H2434 C2418 0.931 . S
H2435 C2423 0.935 1_455 S
H2436 C2424 0.960 . S
H2437 C2424 0.962 . S
H2438 C2424 0.960 . S
H2439 C2425 0.961 . S
H2440 C2425 0.961 . S
H2441 C2425 0.961 . S
H2442 C2426 0.931 . S
H2443 C2431 0.930 . S
H2444 C2432 0.956 . S
H2445 C2432 0.961 . S
H2446 C2432 0.961 . S
H2447 C2433 0.958 . S
H2448 C2433 0.961 . S
H2449 C2433 0.960 . S
C2450 C2451 1.391 . S
C2450 C2452 1.394 . S
C2450 H2466 0.931 . S
C2451 C2450 1.391 . S
C2451 C2455 1.376 . S
C2452 C2450 1.394 . S
C2452 C2453 1.369 . S
C2452 C2456 1.531 . S
C2453 C2452 1.369 . S
C2453 C2454 1.410 . S
C2453 C2461 1.503 . S
C2454 C2453 1.410 . S
C2454 C2455 1.392 . S
C2454 C2457 1.511 . S
C2455 C2451 1.376 . S
C2455 C2454 1.392 . S
C2455 H2467 0.929 . S
C2456 C2452 1.531 . S
C2456 H2468 0.960 . S
C2456 H2469 0.962 . S
C2456 H2470 0.960 . S
C2457 C2454 1.511 . S
C2457 H2471 0.961 . S
C2457 H2472 0.961 . S
C2457 H2473 0.961 . S
C2458 C2459 1.370 . S
C2458 C2460 1.363 . S
C2458 H2474 0.931 . S
C2459 C2458 1.370 . S
C2459 C2463 1.408 . S
C2460 C2458 1.363 . S
C2460 C2461 1.370 . S
C2460 C2464 1.524 . S
C2461 C2453 1.503 . S
C2461 C2460 1.370 . S
C2461 C2462 1.403 . S
C2462 C2461 1.403 . S
C2462 C2463 1.404 . S
C2462 C2465 1.539 . S
C2463 C2459 1.408 . S
C2463 C2462 1.404 . S
C2463 H2475 0.930 . S
C2464 C2460 1.524 . S
C2464 H2476 0.956 . S
C2464 H2477 0.961 . S
C2464 H2478 0.961 . S
C2465 C2462 1.539 . S
C2465 H2479 0.958 . S
C2465 H2480 0.961 . S
C2465 H2481 0.960 . S
H2466 C2450 0.931 . S
H2467 C2455 0.929 . S
H2468 C2456 0.960 . S
H2469 C2456 0.962 . S
H2470 C2456 0.960 . S
H2471 C2457 0.961 . S
H2472 C2457 0.961 . S
H2473 C2457 0.961 . S
H2474 C2458 0.931 . S
H2475 C2463 0.930 . S
H2476 C2464 0.956 . S
H2477 C2464 0.961 . S
H2478 C2464 0.961 . S
H2479 C2465 0.958 . S
H2480 C2465 0.961 . S
H2481 C2465 0.960 . S
C2482 C2483 1.391 1_545 S
C2482 C2484 1.394 . S
C2482 H2498 0.931 1_545 S
C2483 C2482 1.391 1_565 S
C2483 C2487 1.376 . S
C2484 C2482 1.394 . S
C2484 C2485 1.369 . S
C2484 C2488 1.531 . S
C2485 C2484 1.369 . S
C2485 C2486 1.410 . S
C2485 C2493 1.503 . S
C2486 C2485 1.410 . S
C2486 C2487 1.392 1_545 S
C2486 C2489 1.511 . S
C2487 C2483 1.376 . S
C2487 C2486 1.392 1_565 S
C2487 H2499 0.929 . S
C2488 C2484 1.531 . S
C2488 H2500 0.960 . S
C2488 H2501 0.962 . S
C2488 H2502 0.960 . S
C2489 C2486 1.511 . S
C2489 H2503 0.961 . S
C2489 H2504 0.961 . S
C2489 H2505 0.961 . S
C2490 C2491 1.370 . S
C2490 C2492 1.363 . S
C2490 H2506 0.931 . S
C2491 C2490 1.370 . S
C2491 C2495 1.408 . S
C2492 C2490 1.363 . S
C2492 C2493 1.370 . S
C2492 C2496 1.524 . S
C2493 C2485 1.503 . S
C2493 C2492 1.370 . S
C2493 C2494 1.403 . S
C2494 C2493 1.403 . S
C2494 C2495 1.404 . S
C2494 C2497 1.539 . S
C2495 C2491 1.408 . S
C2495 C2494 1.404 . S
C2495 H2507 0.930 . S
C2496 C2492 1.524 . S
C2496 H2508 0.956 . S
C2496 H2509 0.961 . S
C2496 H2510 0.961 . S
C2497 C2494 1.539 . S
C2497 H2511 0.958 . S
C2497 H2512 0.961 . S
C2497 H2513 0.960 . S
H2498 C2482 0.931 1_565 S
H2499 C2487 0.929 . S
H2500 C2488 0.960 . S
H2501 C2488 0.962 . S
H2502 C2488 0.960 . S
H2503 C2489 0.961 . S
H2504 C2489 0.961 . S
H2505 C2489 0.961 . S
H2506 C2490 0.931 . S
H2507 C2495 0.930 . S
H2508 C2496 0.956 . S
H2509 C2496 0.961 . S
H2510 C2496 0.961 . S
H2511 C2497 0.958 . S
H2512 C2497 0.961 . S
H2513 C2497 0.960 . S
C2514 C2515 1.391 . S
C2514 C2516 1.394 . S
C2514 H2530 0.931 . S
C2515 C2514 1.391 . S
C2515 C2519 1.376 . S
C2516 C2514 1.394 . S
C2516 C2517 1.369 . S
C2516 C2520 1.531 . S
C2517 C2516 1.369 . S
C2517 C2518 1.410 . S
C2517 C2525 1.503 . S
C2518 C2517 1.410 . S
C2518 C2519 1.392 . S
C2518 C2521 1.511 . S
C2519 C2515 1.376 . S
C2519 C2518 1.392 . S
C2519 H2531 0.929 . S
C2520 C2516 1.531 . S
C2520 H2532 0.960 . S
C2520 H2533 0.962 . S
C2520 H2534 0.960 . S
C2521 C2518 1.511 . S
C2521 H2535 0.961 . S
C2521 H2536 0.961 . S
C2521 H2537 0.961 . S
C2522 C2523 1.370 . S
C2522 C2524 1.363 . S
C2522 H2538 0.931 . S
C2523 C2522 1.370 . S
C2523 C2527 1.408 . S
C2524 C2522 1.363 . S
C2524 C2525 1.370 . S
C2524 C2528 1.524 . S
C2525 C2517 1.503 . S
C2525 C2524 1.370 . S
C2525 C2526 1.403 . S
C2526 C2525 1.403 . S
C2526 C2527 1.404 . S
C2526 C2529 1.539 . S
C2527 C2523 1.408 . S
C2527 C2526 1.404 . S
C2527 H2539 0.930 . S
C2528 C2524 1.524 . S
C2528 H2540 0.956 . S
C2528 H2541 0.961 . S
C2528 H2542 0.961 . S
C2529 C2526 1.539 . S
C2529 H2543 0.958 . S
C2529 H2544 0.961 . S
C2529 H2545 0.960 . S
H2530 C2514 0.931 . S
H2531 C2519 0.929 . S
H2532 C2520 0.960 . S
H2533 C2520 0.962 . S
H2534 C2520 0.960 . S
H2535 C2521 0.961 . S
H2536 C2521 0.961 . S
H2537 C2521 0.961 . S
H2538 C2522 0.931 . S
H2539 C2527 0.930 . S
H2540 C2528 0.956 . S
H2541 C2528 0.961 . S
H2542 C2528 0.961 . S
H2543 C2529 0.958 . S
H2544 C2529 0.961 . S
H2545 C2529 0.960 . S
C2546 C2547 1.391 . S
C2546 C2548 1.394 . S
C2546 H2562 0.931 . S
C2547 C2546 1.391 . S
C2547 C2551 1.376 . S
C2548 C2546 1.394 . S
C2548 C2549 1.369 . S
C2548 C2552 1.531 . S
C2549 C2548 1.369 . S
C2549 C2550 1.410 . S
C2549 C2557 1.503 . S
C2550 C2549 1.410 . S
C2550 C2551 1.392 . S
C2550 C2553 1.511 . S
C2551 C2547 1.376 . S
C2551 C2550 1.392 . S
C2551 H2563 0.929 . S
C2552 C2548 1.531 . S
C2552 H2564 0.960 . S
C2552 H2565 0.962 . S
C2552 H2566 0.960 . S
C2553 C2550 1.511 . S
C2553 H2567 0.961 . S
C2553 H2568 0.961 . S
C2553 H2569 0.961 . S
C2554 C2555 1.370 . S
C2554 C2556 1.363 . S
C2554 H2570 0.931 . S
C2555 C2554 1.370 . S
C2555 C2559 1.408 . S
C2556 C2554 1.363 . S
C2556 C2557 1.370 . S
C2556 C2560 1.524 . S
C2557 C2549 1.503 . S
C2557 C2556 1.370 . S
C2557 C2558 1.403 . S
C2558 C2557 1.403 . S
C2558 C2559 1.404 . S
C2558 C2561 1.539 . S
C2559 C2555 1.408 . S
C2559 C2558 1.404 . S
C2559 H2571 0.930 . S
C2560 C2556 1.524 . S
C2560 H2572 0.956 . S
C2560 H2573 0.961 . S
C2560 H2574 0.961 . S
C2561 C2558 1.539 . S
C2561 H2575 0.958 . S
C2561 H2576 0.961 . S
C2561 H2577 0.960 . S
H2562 C2546 0.931 . S
H2563 C2551 0.929 . S
H2564 C2552 0.960 . S
H2565 C2552 0.962 . S
H2566 C2552 0.960 . S
H2567 C2553 0.961 . S
H2568 C2553 0.961 . S
H2569 C2553 0.961 . S
H2570 C2554 0.931 . S
H2571 C2559 0.930 . S
H2572 C2560 0.956 . S
H2573 C2560 0.961 . S
H2574 C2560 0.961 . S
H2575 C2561 0.958 . S
H2576 C2561 0.961 . S
H2577 C2561 0.960 . S
C2578 C2579 1.391 . S
C2578 C2580 1.394 . S
C2578 H2594 0.931 . S
C2579 C2578 1.391 . S
C2579 C2583 1.376 . S
C2580 C2578 1.394 . S
C2580 C2581 1.369 . S
C2580 C2584 1.531 . S
C2581 C2580 1.369 . S
C2581 C2582 1.410 . S
C2581 C2589 1.503 . S
C2582 C2581 1.410 . S
C2582 C2583 1.392 . S
C2582 C2585 1.511 . S
C2583 C2579 1.376 . S
C2583 C2582 1.392 . S
C2583 H2595 0.929 . S
C2584 C2580 1.531 . S
C2584 H2596 0.960 . S
C2584 H2597 0.962 . S
C2584 H2598 0.960 . S
C2585 C2582 1.511 . S
C2585 H2599 0.961 . S
C2585 H2600 0.961 . S
C2585 H2601 0.961 . S
C2586 C2587 1.370 . S
C2586 C2588 1.363 . S
C2586 H2602 0.931 . S
C2587 C2586 1.370 . S
C2587 C2591 1.408 . S
C2588 C2586 1.363 . S
C2588 C2589 1.370 . S
C2588 C2592 1.524 . S
C2589 C2581 1.503 . S
C2589 C2588 1.370 . S
C2589 C2590 1.403 . S
C2590 C2589 1.403 . S
C2590 C2591 1.404 . S
C2590 C2593 1.539 . S
C2591 C2587 1.408 . S
C2591 C2590 1.404 . S
C2591 H2603 0.930 . S
C2592 C2588 1.524 . S
C2592 H2604 0.956 . S
C2592 H2605 0.961 . S
C2592 H2606 0.961 . S
C2593 C2590 1.539 . S
C2593 H2607 0.958 . S
C2593 H2608 0.961 . S
C2593 H2609 0.960 . S
H2594 C2578 0.931 . S
H2595 C2583 0.929 . S
H2596 C2584 0.960 . S
H2597 C2584 0.962 . S
H2598 C2584 0.960 . S
H2599 C2585 0.961 . S
H2600 C2585 0.961 . S
H2601 C2585 0.961 . S
H2602 C2586 0.931 . S
H2603 C2591 0.930 . S
H2604 C2592 0.956 . S
H2605 C2592 0.961 . S
H2606 C2592 0.961 . S
H2607 C2593 0.958 . S
H2608 C2593 0.961 . S
H2609 C2593 0.960 . S
C2610 C2611 1.391 . S
C2610 C2612 1.394 . S
C2610 H2626 0.931 . S
C2611 C2610 1.391 . S
C2611 C2615 1.376 . S
C2612 C2610 1.394 . S
C2612 C2613 1.369 . S
C2612 C2616 1.531 . S
C2613 C2612 1.369 . S
C2613 C2614 1.410 . S
C2613 C2621 1.503 . S
C2614 C2613 1.410 . S
C2614 C2615 1.392 . S
C2614 C2617 1.511 . S
C2615 C2611 1.376 . S
C2615 C2614 1.392 . S
C2615 H2627 0.929 . S
C2616 C2612 1.531 . S
C2616 H2628 0.960 . S
C2616 H2629 0.962 . S
C2616 H2630 0.960 . S
C2617 C2614 1.511 . S
C2617 H2631 0.961 . S
C2617 H2632 0.961 . S
C2617 H2633 0.961 . S
C2618 C2619 1.370 . S
C2618 C2620 1.363 . S
C2618 H2634 0.931 . S
C2619 C2618 1.370 . S
C2619 C2623 1.408 . S
C2620 C2618 1.363 . S
C2620 C2621 1.370 . S
C2620 C2624 1.524 . S
C2621 C2613 1.503 . S
C2621 C2620 1.370 . S
C2621 C2622 1.403 . S
C2622 C2621 1.403 . S
C2622 C2623 1.404 . S
C2622 C2625 1.539 1_565 S
C2623 C2619 1.408 . S
C2623 C2622 1.404 . S
C2623 H2635 0.930 1_565 S
C2624 C2620 1.524 . S
C2624 H2636 0.956 . S
C2624 H2637 0.961 . S
C2624 H2638 0.961 . S
C2625 C2622 1.539 1_545 S
C2625 H2639 0.958 . S
C2625 H2640 0.961 . S
C2625 H2641 0.960 1_545 S
H2626 C2610 0.931 . S
H2627 C2615 0.929 . S
H2628 C2616 0.960 . S
H2629 C2616 0.962 . S
H2630 C2616 0.960 . S
H2631 C2617 0.961 . S
H2632 C2617 0.961 . S
H2633 C2617 0.961 . S
H2634 C2618 0.931 . S
H2635 C2623 0.930 1_545 S
H2636 C2624 0.956 . S
H2637 C2624 0.961 . S
H2638 C2624 0.961 . S
H2639 C2625 0.958 . S
H2640 C2625 0.961 . S
H2641 C2625 0.960 1_565 S
C2642 C2643 1.391 . S
C2642 C2644 1.394 . S
C2642 H2658 0.931 . S
C2643 C2642 1.391 . S
C2643 C2647 1.376 . S
C2644 C2642 1.394 . S
C2644 C2645 1.369 . S
C2644 C2648 1.531 . S
C2645 C2644 1.369 . S
C2645 C2646 1.410 . S
C2645 C2653 1.503 . S
C2646 C2645 1.410 . S
C2646 C2647 1.392 . S
C2646 C2649 1.511 . S
C2647 C2643 1.376 . S
C2647 C2646 1.392 . S
C2647 H2659 0.929 . S
C2648 C2644 1.531 . S
C2648 H2660 0.960 . S
C2648 H2661 0.962 . S
C2648 H2662 0.960 . S
C2649 C2646 1.511 . S
C2649 H2663 0.961 . S
C2649 H2664 0.961 . S
C2649 H2665 0.961 . S
C2650 C2651 1.370 . S
C2650 C2652 1.363 . S
C2650 H2666 0.931 1_455 S
C2651 C2650 1.370 . S
C2651 C2655 1.408 . S
C2652 C2650 1.363 . S
C2652 C2653 1.370 . S
C2652 C2656 1.524 1_455 S
C2653 C2645 1.503 . S
C2653 C2652 1.370 . S
C2653 C2654 1.403 . S
C2654 C2653 1.403 . S
C2654 C2655 1.404 . S
C2654 C2657 1.539 . S
C2655 C2651 1.408 . S
C2655 C2654 1.404 . S
C2655 H2667 0.930 . S
C2656 C2652 1.524 1_655 S
C2656 H2668 0.956 . S
C2656 H2669 0.961 1_655 S
C2656 H2670 0.961 . S
C2657 C2654 1.539 . S
C2657 H2671 0.958 . S
C2657 H2672 0.961 . S
C2657 H2673 0.960 . S
H2658 C2642 0.931 . S
H2659 C2647 0.929 . S
H2660 C2648 0.960 . S
H2661 C2648 0.962 . S
H2662 C2648 0.960 . S
H2663 C2649 0.961 . S
H2664 C2649 0.961 . S
H2665 C2649 0.961 . S
H2666 C2650 0.931 1_655 S
H2667 C2655 0.930 . S
H2668 C2656 0.956 . S
H2669 C2656 0.961 1_455 S
H2670 C2656 0.961 . S
H2671 C2657 0.958 . S
H2672 C2657 0.961 . S
H2673 C2657 0.960 . S
C2674 C2675 1.391 . S
C2674 C2676 1.394 . S
C2674 H2690 0.931 . S
C2675 C2674 1.391 . S
C2675 C2679 1.376 . S
C2676 C2674 1.394 . S
C2676 C2677 1.369 . S
C2676 C2680 1.531 . S
C2677 C2676 1.369 . S
C2677 C2678 1.410 . S
C2677 C2685 1.503 . S
C2678 C2677 1.410 . S
C2678 C2679 1.392 . S
C2678 C2681 1.511 . S
C2679 C2675 1.376 . S
C2679 C2678 1.392 . S
C2679 H2691 0.929 . S
C2680 C2676 1.531 . S
C2680 H2692 0.960 . S
C2680 H2693 0.962 . S
C2680 H2694 0.960 . S
C2681 C2678 1.511 . S
C2681 H2695 0.961 . S
C2681 H2696 0.961 . S
C2681 H2697 0.961 . S
C2682 C2683 1.370 . S
C2682 C2684 1.363 . S
C2682 H2698 0.931 . S
C2683 C2682 1.370 . S
C2683 C2687 1.408 . S
C2684 C2682 1.363 . S
C2684 C2685 1.370 . S
C2684 C2688 1.524 . S
C2685 C2677 1.503 . S
C2685 C2684 1.370 . S
C2685 C2686 1.403 . S
C2686 C2685 1.403 . S
C2686 C2687 1.404 . S
C2686 C2689 1.539 . S
C2687 C2683 1.408 . S
C2687 C2686 1.404 . S
C2687 H2699 0.930 . S
C2688 C2684 1.524 . S
C2688 H2700 0.956 . S
C2688 H2701 0.961 . S
C2688 H2702 0.961 . S
C2689 C2686 1.539 . S
C2689 H2703 0.958 . S
C2689 H2704 0.961 . S
C2689 H2705 0.960 . S
H2690 C2674 0.931 . S
H2691 C2679 0.929 . S
H2692 C2680 0.960 . S
H2693 C2680 0.962 . S
H2694 C2680 0.960 . S
H2695 C2681 0.961 . S
H2696 C2681 0.961 . S
H2697 C2681 0.961 . S
H2698 C2682 0.931 . S
H2699 C2687 0.930 . S
H2700 C2688 0.956 . S
H2701 C2688 0.961 . S
H2702 C2688 0.961 . S
H2703 C2689 0.958 . S
H2704 C2689 0.961 . S
H2705 C2689 0.960 . S
C2706 C2707 1.391 . S
C2706 C2708 1.394 . S
C2706 H2722 0.931 . S
C2707 C2706 1.391 . S
C2707 C2711 1.376 . S
C2708 C2706 1.394 . S
C2708 C2709 1.369 . S
C2708 C2712 1.531 . S
C2709 C2708 1.369 . S
C2709 C2710 1.410 . S
C2709 C2717 1.503 . S
C2710 C2709 1.410 . S
C2710 C2711 1.392 . S
C2710 C2713 1.511 1_655 S
C2711 C2707 1.376 . S
C2711 C2710 1.392 . S
C2711 H2723 0.929 . S
C2712 C2708 1.531 . S
C2712 H2724 0.960 . S
C2712 H2725 0.962 . S
C2712 H2726 0.960 . S
C2713 C2710 1.511 1_455 S
C2713 H2727 0.961 . S
C2713 H2728 0.961 . S
C2713 H2729 0.961 . S
C2714 C2715 1.370 . S
C2714 C2716 1.363 . S
C2714 H2730 0.931 . S
C2715 C2714 1.370 . S
C2715 C2719 1.408 . S
C2716 C2714 1.363 . S
C2716 C2717 1.370 . S
C2716 C2720 1.524 . S
C2717 C2709 1.503 . S
C2717 C2716 1.370 . S
C2717 C2718 1.403 . S
C2718 C2717 1.403 . S
C2718 C2719 1.404 . S
C2718 C2721 1.539 . S
C2719 C2715 1.408 . S
C2719 C2718 1.404 . S
C2719 H2731 0.930 . S
C2720 C2716 1.524 . S
C2720 H2732 0.956 . S
C2720 H2733 0.961 . S
C2720 H2734 0.961 . S
C2721 C2718 1.539 . S
C2721 H2735 0.958 . S
C2721 H2736 0.961 . S
C2721 H2737 0.960 . S
H2722 C2706 0.931 . S
H2723 C2711 0.929 . S
H2724 C2712 0.960 . S
H2725 C2712 0.962 . S
H2726 C2712 0.960 . S
H2727 C2713 0.961 . S
H2728 C2713 0.961 . S
H2729 C2713 0.961 . S
H2730 C2714 0.931 . S
H2731 C2719 0.930 . S
H2732 C2720 0.956 . S
H2733 C2720 0.961 . S
H2734 C2720 0.961 . S
H2735 C2721 0.958 . S
H2736 C2721 0.961 . S
H2737 C2721 0.960 . S
C2738 C2739 1.391 . S
C2738 C2740 1.394 . S
C2738 H2754 0.931 . S
C2739 C2738 1.391 . S
C2739 C2743 1.376 . S
C2740 C2738 1.394 . S
C2740 C2741 1.369 . S
C2740 C2744 1.531 . S
C2741 C2740 1.369 . S
C2741 C2742 1.410 . S
C2741 C2749 1.503 . S
C2742 C2741 1.410 . S
C2742 C2743 1.392 . S
C2742 C2745 1.511 . S
C2743 C2739 1.376 . S
C2743 C2742 1.392 . S
C2743 H2755 0.929 . S
C2744 C2740 1.531 . S
C2744 H2756 0.960 . S
C2744 H2757 0.962 . S
C2744 H2758 0.960 . S
C2745 C2742 1.511 . S
C2745 H2759 0.961 . S
C2745 H2760 0.961 . S
C2745 H2761 0.961 . S
C2746 C2747 1.370 . S
C2746 C2748 1.363 . S
C2746 H2762 0.931 . S
C2747 C2746 1.370 . S
C2747 C2751 1.408 . S
C2748 C2746 1.363 . S
C2748 C2749 1.370 . S
C2748 C2752 1.524 . S
C2749 C2741 1.503 . S
C2749 C2748 1.370 . S
C2749 C2750 1.403 . S
C2750 C2749 1.403 . S
C2750 C2751 1.404 . S
C2750 C2753 1.539 . S
C2751 C2747 1.408 . S
C2751 C2750 1.404 . S
C2751 H2763 0.930 . S
C2752 C2748 1.524 . S
C2752 H2764 0.956 . S
C2752 H2765 0.961 . S
C2752 H2766 0.961 . S
C2753 C2750 1.539 . S
C2753 H2767 0.958 . S
C2753 H2768 0.961 . S
C2753 H2769 0.960 . S
H2754 C2738 0.931 . S
H2755 C2743 0.929 . S
H2756 C2744 0.960 . S
H2757 C2744 0.962 . S
H2758 C2744 0.960 . S
H2759 C2745 0.961 . S
H2760 C2745 0.961 . S
H2761 C2745 0.961 . S
H2762 C2746 0.931 . S
H2763 C2751 0.930 . S
H2764 C2752 0.956 . S
H2765 C2752 0.961 . S
H2766 C2752 0.961 . S
H2767 C2753 0.958 . S
H2768 C2753 0.961 . S
H2769 C2753 0.960 . S
C2770 C2771 1.391 . S
C2770 C2772 1.394 . S
C2770 H2786 0.931 . S
C2771 C2770 1.391 . S
C2771 C2775 1.376 . S
C2772 C2770 1.394 . S
C2772 C2773 1.369 . S
C2772 C2776 1.531 . S
C2773 C2772 1.369 . S
C2773 C2774 1.410 . S
C2773 C2781 1.503 . S
C2774 C2773 1.410 . S
C2774 C2775 1.392 . S
C2774 C2777 1.511 . S
C2775 C2771 1.376 . S
C2775 C2774 1.392 . S
C2775 H2787 0.929 . S
C2776 C2772 1.531 . S
C2776 H2788 0.960 . S
C2776 H2789 0.962 . S
C2776 H2790 0.960 . S
C2777 C2774 1.511 . S
C2777 H2791 0.961 . S
C2777 H2792 0.961 . S
C2777 H2793 0.961 . S
C2778 C2779 1.370 . S
C2778 C2780 1.363 . S
C2778 H2794 0.931 1_545 S
C2779 C2778 1.370 . S
C2779 C2783 1.408 . S
C2780 C2778 1.363 . S
C2780 C2781 1.370 . S
C2780 C2784 1.524 . S
C2781 C2773 1.503 . S
C2781 C2780 1.370 . S
C2781 C2782 1.403 . S
C2782 C2781 1.403 . S
C2782 C2783 1.404 . S
C2782 C2785 1.539 . S
C2783 C2779 1.408 . S
C2783 C2782 1.404 . S
C2783 H2795 0.930 . S
C2784 C2780 1.524 . S
C2784 H2796 0.956 . S
C2784 H2797 0.961 . S
C2784 H2798 0.961 1_545 S
C2785 C2782 1.539 . S
C2785 H2799 0.958 . S
C2785 H2800 0.961 . S
C2785 H2801 0.960 . S
H2786 C2770 0.931 . S
H2787 C2775 0.929 . S
H2788 C2776 0.960 . S
H2789 C2776 0.962 . S
H2790 C2776 0.960 . S
H2791 C2777 0.961 . S
H2792 C2777 0.961 . S
H2793 C2777 0.961 . S
H2794 C2778 0.931 1_565 S
H2795 C2783 0.930 . S
H2796 C2784 0.956 . S
H2797 C2784 0.961 . S
H2798 C2784 0.961 1_565 S
H2799 C2785 0.958 . S
H2800 C2785 0.961 . S
H2801 C2785 0.960 . S
C2802 C2803 1.391 . S
C2802 C2804 1.394 . S
C2802 H2818 0.931 . S
C2803 C2802 1.391 . S
C2803 C2807 1.376 . S
C2804 C2802 1.394 . S
C2804 C2805 1.369 . S
C2804 C2808 1.531 . S
C2805 C2804 1.369 . S
C2805 C2806 1.410 . S
C2805 C2813 1.503 . S
C2806 C2805 1.410 . S
C2806 C2807 1.392 . S
C2806 C2809 1.511 . S
C2807 C2803 1.376 . S
C2807 C2806 1.392 . S
C2807 H2819 0.929 . S
C2808 C2804 1.531 . S
C2808 H2820 0.960 . S
C2808 H2821 0.962 . S
C2808 H2822 0.960 . S
C2809 C2806 1.511 . S
C2809 H2823 0.961 . S
C2809 H2824 0.961 . S
C2809 H2825 0.961 . S
C2810 C2811 1.370 . S
C2810 C2812 1.363 . S
C2810 H2826 0.931 . S
C2811 C2810 1.370 . S
C2811 C2815 1.408 . S
C2812 C2810 1.363 . S
C2812 C2813 1.370 . S
C2812 C2816 1.524 . S
C2813 C2805 1.503 . S
C2813 C2812 1.370 . S
C2813 C2814 1.403 . S
C2814 C2813 1.403 . S
C2814 C2815 1.404 . S
C2814 C2817 1.539 . S
C2815 C2811 1.408 . S
C2815 C2814 1.404 . S
C2815 H2827 0.930 . S
C2816 C2812 1.524 . S
C2816 H2828 0.956 . S
C2816 H2829 0.961 . S
C2816 H2830 0.961 . S
C2817 C2814 1.539 . S
C2817 H2831 0.958 . S
C2817 H2832 0.961 . S
C2817 H2833 0.960 . S
H2818 C2802 0.931 . S
H2819 C2807 0.929 . S
H2820 C2808 0.960 . S
H2821 C2808 0.962 . S
H2822 C2808 0.960 . S
H2823 C2809 0.961 . S
H2824 C2809 0.961 . S
H2825 C2809 0.961 . S
H2826 C2810 0.931 . S
H2827 C2815 0.930 . S
H2828 C2816 0.956 . S
H2829 C2816 0.961 . S
H2830 C2816 0.961 . S
H2831 C2817 0.958 . S
H2832 C2817 0.961 . S
H2833 C2817 0.960 . S
C2834 C2835 1.391 . S
C2834 C2836 1.394 . S
C2834 H2850 0.931 . S
C2835 C2834 1.391 . S
C2835 C2839 1.376 . S
C2836 C2834 1.394 . S
C2836 C2837 1.369 . S
C2836 C2840 1.531 . S
C2837 C2836 1.369 . S
C2837 C2838 1.410 . S
C2837 C2845 1.503 . S
C2838 C2837 1.410 . S
C2838 C2839 1.392 . S
C2838 C2841 1.511 . S
C2839 C2835 1.376 . S
C2839 C2838 1.392 . S
C2839 H2851 0.929 . S
C2840 C2836 1.531 . S
C2840 H2852 0.960 . S
C2840 H2853 0.962 . S
C2840 H2854 0.960 . S
C2841 C2838 1.511 . S
C2841 H2855 0.961 . S
C2841 H2856 0.961 . S
C2841 H2857 0.961 . S
C2842 C2843 1.370 . S
C2842 C2844 1.363 . S
C2842 H2858 0.931 . S
C2843 C2842 1.370 . S
C2843 C2847 1.408 . S
C2844 C2842 1.363 . S
C2844 C2845 1.370 . S
C2844 C2848 1.524 . S
C2845 C2837 1.503 . S
C2845 C2844 1.370 . S
C2845 C2846 1.403 . S
C2846 C2845 1.403 . S
C2846 C2847 1.404 . S
C2846 C2849 1.539 . S
C2847 C2843 1.408 . S
C2847 C2846 1.404 . S
C2847 H2859 0.930 . S
C2848 C2844 1.524 . S
C2848 H2860 0.956 . S
C2848 H2861 0.961 . S
C2848 H2862 0.961 . S
C2849 C2846 1.539 . S
C2849 H2863 0.958 . S
C2849 H2864 0.961 . S
C2849 H2865 0.960 . S
H2850 C2834 0.931 . S
H2851 C2839 0.929 . S
H2852 C2840 0.960 . S
H2853 C2840 0.962 . S
H2854 C2840 0.960 . S
H2855 C2841 0.961 . S
H2856 C2841 0.961 . S
H2857 C2841 0.961 . S
H2858 C2842 0.931 . S
H2859 C2847 0.930 . S
H2860 C2848 0.956 . S
H2861 C2848 0.961 . S
H2862 C2848 0.961 . S
H2863 C2849 0.958 . S
H2864 C2849 0.961 . S
H2865 C2849 0.960 . S
C2866 C2867 1.391 . S
C2866 C2868 1.394 . S
C2866 H2882 0.931 . S
C2867 C2866 1.391 . S
C2867 C2871 1.376 . S
C2868 C2866 1.394 . S
C2868 C2869 1.369 . S
C2868 C2872 1.531 . S
C2869 C2868 1.369 . S
C2869 C2870 1.410 . S
C2869 C2877 1.503 . S
C2870 C2869 1.410 . S
C2870 C2871 1.392 . S
C2870 C2873 1.511 . S
C2871 C2867 1.376 . S
C2871 C2870 1.392 . S
C2871 H2883 0.929 . S
C2872 C2868 1.531 . S
C2872 H2884 0.960 . S
C2872 H2885 0.962 . S
C2872 H2886 0.960 . S
C2873 C2870 1.511 . S
C2873 H2887 0.961 . S
C2873 H2888 0.961 . S
C2873 H2889 0.961 . S
C2874 C2875 1.370 . S
C2874 C2876 1.363 . S
C2874 H2890 0.931 . S
C2875 C2874 1.370 . S
C2875 C2879 1.408 . S
C2876 C2874 1.363 . S
C2876 C2877 1.370 . S
C2876 C2880 1.524 . S
C2877 C2869 1.503 . S
C2877 C2876 1.370 . S
C2877 C2878 1.403 . S
C2878 C2877 1.403 . S
C2878 C2879 1.404 . S
C2878 C2881 1.539 . S
C2879 C2875 1.408 . S
C2879 C2878 1.404 . S
C2879 H2891 0.930 . S
C2880 C2876 1.524 . S
C2880 H2892 0.956 . S
C2880 H2893 0.961 . S
C2880 H2894 0.961 . S
C2881 C2878 1.539 . S
C2881 H2895 0.958 . S
C2881 H2896 0.961 . S
C2881 H2897 0.960 . S
H2882 C2866 0.931 . S
H2883 C2871 0.929 . S
H2884 C2872 0.960 . S
H2885 C2872 0.962 . S
H2886 C2872 0.960 . S
H2887 C2873 0.961 . S
H2888 C2873 0.961 . S
H2889 C2873 0.961 . S
H2890 C2874 0.931 . S
H2891 C2879 0.930 . S
H2892 C2880 0.956 . S
H2893 C2880 0.961 . S
H2894 C2880 0.961 . S
H2895 C2881 0.958 . S
H2896 C2881 0.961 . S
H2897 C2881 0.960 . S
C2898 C2899 1.391 . S
C2898 C2900 1.394 . S
C2898 H2914 0.931 . S
C2899 C2898 1.391 . S
C2899 C2903 1.376 . S
C2900 C2898 1.394 . S
C2900 C2901 1.369 . S
C2900 C2904 1.531 . S
C2901 C2900 1.369 . S
C2901 C2902 1.410 . S
C2901 C2909 1.503 . S
C2902 C2901 1.410 . S
C2902 C2903 1.392 . S
C2902 C2905 1.511 . S
C2903 C2899 1.376 . S
C2903 C2902 1.392 . S
C2903 H2915 0.929 . S
C2904 C2900 1.531 . S
C2904 H2916 0.960 . S
C2904 H2917 0.962 . S
C2904 H2918 0.960 . S
C2905 C2902 1.511 . S
C2905 H2919 0.961 . S
C2905 H2920 0.961 . S
C2905 H2921 0.961 . S
C2906 C2907 1.370 . S
C2906 C2908 1.363 . S
C2906 H2922 0.931 . S
C2907 C2906 1.370 . S
C2907 C2911 1.408 . S
C2908 C2906 1.363 . S
C2908 C2909 1.370 . S
C2908 C2912 1.524 . S
C2909 C2901 1.503 . S
C2909 C2908 1.370 . S
C2909 C2910 1.403 . S
C2910 C2909 1.403 . S
C2910 C2911 1.404 . S
C2910 C2913 1.539 . S
C2911 C2907 1.408 . S
C2911 C2910 1.404 . S
C2911 H2923 0.930 . S
C2912 C2908 1.524 . S
C2912 H2924 0.956 . S
C2912 H2925 0.961 . S
C2912 H2926 0.961 . S
C2913 C2910 1.539 . S
C2913 H2927 0.958 . S
C2913 H2928 0.961 . S
C2913 H2929 0.960 . S
H2914 C2898 0.931 . S
H2915 C2903 0.929 . S
H2916 C2904 0.960 . S
H2917 C2904 0.962 . S
H2918 C2904 0.960 . S
H2919 C2905 0.961 . S
H2920 C2905 0.961 . S
H2921 C2905 0.961 . S
H2922 C2906 0.931 . S
H2923 C2911 0.930 . S
H2924 C2912 0.956 . S
H2925 C2912 0.961 . S
H2926 C2912 0.961 . S
H2927 C2913 0.958 . S
H2928 C2913 0.961 . S
H2929 C2913 0.960 . S
C2930 C2931 1.391 . S
C2930 C2932 1.394 . S
C2930 H2946 0.931 . S
C2931 C2930 1.391 . S
C2931 C2935 1.376 . S
C2932 C2930 1.394 . S
C2932 C2933 1.369 . S
C2932 C2936 1.531 . S
C2933 C2932 1.369 . S
C2933 C2934 1.410 . S
C2933 C2941 1.503 . S
C2934 C2933 1.410 . S
C2934 C2935 1.392 . S
C2934 C2937 1.511 . S
C2935 C2931 1.376 . S
C2935 C2934 1.392 . S
C2935 H2947 0.929 . S
C2936 C2932 1.531 . S
C2936 H2948 0.960 . S
C2936 H2949 0.962 . S
C2936 H2950 0.960 . S
C2937 C2934 1.511 . S
C2937 H2951 0.961 . S
C2937 H2952 0.961 . S
C2937 H2953 0.961 . S
C2938 C2939 1.370 . S
C2938 C2940 1.363 . S
C2938 H2954 0.931 . S
C2939 C2938 1.370 . S
C2939 C2943 1.408 . S
C2940 C2938 1.363 . S
C2940 C2941 1.370 . S
C2940 C2944 1.524 . S
C2941 C2933 1.503 . S
C2941 C2940 1.370 . S
C2941 C2942 1.403 . S
C2942 C2941 1.403 . S
C2942 C2943 1.404 . S
C2942 C2945 1.539 . S
C2943 C2939 1.408 . S
C2943 C2942 1.404 . S
C2943 H2955 0.930 . S
C2944 C2940 1.524 . S
C2944 H2956 0.956 . S
C2944 H2957 0.961 . S
C2944 H2958 0.961 . S
C2945 C2942 1.539 . S
C2945 H2959 0.958 . S
C2945 H2960 0.961 . S
C2945 H2961 0.960 . S
H2946 C2930 0.931 . S
H2947 C2935 0.929 . S
H2948 C2936 0.960 . S
H2949 C2936 0.962 . S
H2950 C2936 0.960 . S
H2951 C2937 0.961 . S
H2952 C2937 0.961 . S
H2953 C2937 0.961 . S
H2954 C2938 0.931 . S
H2955 C2943 0.930 . S
H2956 C2944 0.956 . S
H2957 C2944 0.961 . S
H2958 C2944 0.961 . S
H2959 C2945 0.958 . S
H2960 C2945 0.961 . S
H2961 C2945 0.960 . S
C2962 C2963 1.391 . S
C2962 C2964 1.394 . S
C2962 H2978 0.931 . S
C2963 C2962 1.391 . S
C2963 C2967 1.376 . S
C2964 C2962 1.394 . S
C2964 C2965 1.369 . S
C2964 C2968 1.531 . S
C2965 C2964 1.369 . S
C2965 C2966 1.410 . S
C2965 C2973 1.503 . S
C2966 C2965 1.410 . S
C2966 C2967 1.392 . S
C2966 C2969 1.511 . S
C2967 C2963 1.376 . S
C2967 C2966 1.392 . S
C2967 H2979 0.929 . S
C2968 C2964 1.531 . S
C2968 H2980 0.960 . S
C2968 H2981 0.962 . S
C2968 H2982 0.960 . S
C2969 C2966 1.511 . S
C2969 H2983 0.961 . S
C2969 H2984 0.961 . S
C2969 H2985 0.961 . S
C2970 C2971 1.370 . S
C2970 C2972 1.363 . S
C2970 H2986 0.931 . S
C2971 C2970 1.370 . S
C2971 C2975 1.408 . S
C2972 C2970 1.363 . S
C2972 C2973 1.370 . S
C2972 C2976 1.524 . S
C2973 C2965 1.503 . S
C2973 C2972 1.370 . S
C2973 C2974 1.403 . S
C2974 C2973 1.403 . S
C2974 C2975 1.404 . S
C2974 C2977 1.539 . S
C2975 C2971 1.408 . S
C2975 C2974 1.404 . S
C2975 H2987 0.930 . S
C2976 C2972 1.524 . S
C2976 H2988 0.956 . S
C2976 H2989 0.961 . S
C2976 H2990 0.961 . S
C2977 C2974 1.539 . S
C2977 H2991 0.958 . S
C2977 H2992 0.961 . S
C2977 H2993 0.960 . S
H2978 C2962 0.931 . S
H2979 C2967 0.929 . S
H2980 C2968 0.960 . S
H2981 C2968 0.962 . S
H2982 C2968 0.960 . S
H2983 C2969 0.961 . S
H2984 C2969 0.961 . S
H2985 C2969 0.961 . S
H2986 C2970 0.931 . S
H2987 C2975 0.930 . S
H2988 C2976 0.956 . S
H2989 C2976 0.961 . S
H2990 C2976 0.961 . S
H2991 C2977 0.958 . S
H2992 C2977 0.961 . S
H2993 C2977 0.960 . S
C2994 C2995 1.391 . S
C2994 C2996 1.394 . S
C2994 H3010 0.931 . S
C2995 C2994 1.391 . S
C2995 C2999 1.376 . S
C2996 C2994 1.394 . S
C2996 C2997 1.369 . S
C2996 C3000 1.531 . S
C2997 C2996 1.369 . S
C2997 C2998 1.410 . S
C2997 C3005 1.503 . S
C2998 C2997 1.410 . S
C2998 C2999 1.392 . S
C2998 C3001 1.511 . S
C2999 C2995 1.376 . S
C2999 C2998 1.392 . S
C2999 H3011 0.929 . S
C3000 C2996 1.531 . S
C3000 H3012 0.960 . S
C3000 H3013 0.962 . S
C3000 H3014 0.960 . S
C3001 C2998 1.511 . S
C3001 H3015 0.961 . S
C3001 H3016 0.961 . S
C3001 H3017 0.961 . S
C3002 C3003 1.370 . S
C3002 C3004 1.363 . S
C3002 H3018 0.931 . S
C3003 C3002 1.370 . S
C3003 C3007 1.408 . S
C3004 C3002 1.363 . S
C3004 C3005 1.370 . S
C3004 C3008 1.524 . S
C3005 C2997 1.503 . S
C3005 C3004 1.370 . S
C3005 C3006 1.403 . S
C3006 C3005 1.403 . S
C3006 C3007 1.404 . S
C3006 C3009 1.539 . S
C3007 C3003 1.408 . S
C3007 C3006 1.404 . S
C3007 H3019 0.930 . S
C3008 C3004 1.524 . S
C3008 H3020 0.956 . S
C3008 H3021 0.961 . S
C3008 H3022 0.961 . S
C3009 C3006 1.539 . S
C3009 H3023 0.958 . S
C3009 H3024 0.961 . S
C3009 H3025 0.960 . S
H3010 C2994 0.931 . S
H3011 C2999 0.929 . S
H3012 C3000 0.960 . S
H3013 C3000 0.962 . S
H3014 C3000 0.960 . S
H3015 C3001 0.961 . S
H3016 C3001 0.961 . S
H3017 C3001 0.961 . S
H3018 C3002 0.931 . S
H3019 C3007 0.930 . S
H3020 C3008 0.956 . S
H3021 C3008 0.961 . S
H3022 C3008 0.961 . S
H3023 C3009 0.958 . S
H3024 C3009 0.961 . S
H3025 C3009 0.960 . S
C3026 C3027 1.391 . S
C3026 C3028 1.394 . S
C3026 H3042 0.931 . S
C3027 C3026 1.391 . S
C3027 C3031 1.376 . S
C3028 C3026 1.394 . S
C3028 C3029 1.369 . S
C3028 C3032 1.531 . S
C3029 C3028 1.369 . S
C3029 C3030 1.410 . S
C3029 C3037 1.503 . S
C3030 C3029 1.410 . S
C3030 C3031 1.392 . S
C3030 C3033 1.511 . S
C3031 C3027 1.376 . S
C3031 C3030 1.392 . S
C3031 H3043 0.929 . S
C3032 C3028 1.531 . S
C3032 H3044 0.960 . S
C3032 H3045 0.962 . S
C3032 H3046 0.960 . S
C3033 C3030 1.511 . S
C3033 H3047 0.961 . S
C3033 H3048 0.961 . S
C3033 H3049 0.961 . S
C3034 C3035 1.370 . S
C3034 C3036 1.363 . S
C3034 H3050 0.931 . S
C3035 C3034 1.370 . S
C3035 C3039 1.408 . S
C3036 C3034 1.363 . S
C3036 C3037 1.370 . S
C3036 C3040 1.524 . S
C3037 C3029 1.503 . S
C3037 C3036 1.370 . S
C3037 C3038 1.403 . S
C3038 C3037 1.403 . S
C3038 C3039 1.404 . S
C3038 C3041 1.539 . S
C3039 C3035 1.408 . S
C3039 C3038 1.404 . S
C3039 H3051 0.930 . S
C3040 C3036 1.524 . S
C3040 H3052 0.956 . S
C3040 H3053 0.961 . S
C3040 H3054 0.961 . S
C3041 C3038 1.539 . S
C3041 H3055 0.958 . S
C3041 H3056 0.961 . S
C3041 H3057 0.960 . S
H3042 C3026 0.931 . S
H3043 C3031 0.929 . S
H3044 C3032 0.960 . S
H3045 C3032 0.962 . S
H3046 C3032 0.960 . S
H3047 C3033 0.961 . S
H3048 C3033 0.961 . S
H3049 C3033 0.961 . S
H3050 C3034 0.931 . S
H3051 C3039 0.930 . S
H3052 C3040 0.956 . S
H3053 C3040 0.961 . S
H3054 C3040 0.961 . S
H3055 C3041 0.958 . S
H3056 C3041 0.961 . S
H3057 C3041 0.960 . S
C3058 C3059 1.391 . S
C3058 C3060 1.394 . S
C3058 H3074 0.931 . S
C3059 C3058 1.391 . S
C3059 C3063 1.376 . S
C3060 C3058 1.394 . S
C3060 C3061 1.369 . S
C3060 C3064 1.531 . S
C3061 C3060 1.369 . S
C3061 C3062 1.410 . S
C3061 C3069 1.503 . S
C3062 C3061 1.410 . S
C3062 C3063 1.392 . S
C3062 C3065 1.511 . S
C3063 C3059 1.376 . S
C3063 C3062 1.392 . S
C3063 H3075 0.929 . S
C3064 C3060 1.531 . S
C3064 H3076 0.960 . S
C3064 H3077 0.962 . S
C3064 H3078 0.960 . S
C3065 C3062 1.511 . S
C3065 H3079 0.961 . S
C3065 H3080 0.961 . S
C3065 H3081 0.961 . S
C3066 C3067 1.370 . S
C3066 C3068 1.363 . S
C3066 H3082 0.931 . S
C3067 C3066 1.370 . S
C3067 C3071 1.408 . S
C3068 C3066 1.363 . S
C3068 C3069 1.370 . S
C3068 C3072 1.524 . S
C3069 C3061 1.503 . S
C3069 C3068 1.370 . S
C3069 C3070 1.403 . S
C3070 C3069 1.403 . S
C3070 C3071 1.404 . S
C3070 C3073 1.539 . S
C3071 C3067 1.408 . S
C3071 C3070 1.404 . S
C3071 H3083 0.930 . S
C3072 C3068 1.524 . S
C3072 H3084 0.956 . S
C3072 H3085 0.961 . S
C3072 H3086 0.961 . S
C3073 C3070 1.539 . S
C3073 H3087 0.958 . S
C3073 H3088 0.961 . S
C3073 H3089 0.960 . S
H3074 C3058 0.931 . S
H3075 C3063 0.929 . S
H3076 C3064 0.960 . S
H3077 C3064 0.962 . S
H3078 C3064 0.960 . S
H3079 C3065 0.961 . S
H3080 C3065 0.961 . S
H3081 C3065 0.961 . S
H3082 C3066 0.931 . S
H3083 C3071 0.930 . S
H3084 C3072 0.956 . S
H3085 C3072 0.961 . S
H3086 C3072 0.961 . S
H3087 C3073 0.958 . S
H3088 C3073 0.961 . S
H3089 C3073 0.960 . S
C3090 C3091 1.391 . S
C3090 C3092 1.394 . S
C3090 H3106 0.931 . S
C3091 C3090 1.391 . S
C3091 C3095 1.376 . S
C3092 C3090 1.394 . S
C3092 C3093 1.369 . S
C3092 C3096 1.531 . S
C3093 C3092 1.369 . S
C3093 C3094 1.410 . S
C3093 C3101 1.503 . S
C3094 C3093 1.410 . S
C3094 C3095 1.392 . S
C3094 C3097 1.511 . S
C3095 C3091 1.376 . S
C3095 C3094 1.392 . S
C3095 H3107 0.929 . S
C3096 C3092 1.531 . S
C3096 H3108 0.960 . S
C3096 H3109 0.962 . S
C3096 H3110 0.960 . S
C3097 C3094 1.511 . S
C3097 H3111 0.961 . S
C3097 H3112 0.961 . S
C3097 H3113 0.961 . S
C3098 C3099 1.370 . S
C3098 C3100 1.363 . S
C3098 H3114 0.931 . S
C3099 C3098 1.370 . S
C3099 C3103 1.408 . S
C3100 C3098 1.363 . S
C3100 C3101 1.370 . S
C3100 C3104 1.524 . S
C3101 C3093 1.503 . S
C3101 C3100 1.370 . S
C3101 C3102 1.403 . S
C3102 C3101 1.403 . S
C3102 C3103 1.404 . S
C3102 C3105 1.539 . S
C3103 C3099 1.408 . S
C3103 C3102 1.404 . S
C3103 H3115 0.930 . S
C3104 C3100 1.524 . S
C3104 H3116 0.956 . S
C3104 H3117 0.961 . S
C3104 H3118 0.961 . S
C3105 C3102 1.539 . S
C3105 H3119 0.958 . S
C3105 H3120 0.961 . S
C3105 H3121 0.960 . S
H3106 C3090 0.931 . S
H3107 C3095 0.929 . S
H3108 C3096 0.960 . S
H3109 C3096 0.962 . S
H3110 C3096 0.960 . S
H3111 C3097 0.961 . S
H3112 C3097 0.961 . S
H3113 C3097 0.961 . S
H3114 C3098 0.931 . S
H3115 C3103 0.930 . S
H3116 C3104 0.956 . S
H3117 C3104 0.961 . S
H3118 C3104 0.961 . S
H3119 C3105 0.958 . S
H3120 C3105 0.961 . S
H3121 C3105 0.960 . S
C3122 C3123 1.391 . S
C3122 C3124 1.394 . S
C3122 H3138 0.931 . S
C3123 C3122 1.391 . S
C3123 C3127 1.376 . S
C3124 C3122 1.394 . S
C3124 C3125 1.369 . S
C3124 C3128 1.531 . S
C3125 C3124 1.369 . S
C3125 C3126 1.410 . S
C3125 C3133 1.503 . S
C3126 C3125 1.410 . S
C3126 C3127 1.392 . S
C3126 C3129 1.511 . S
C3127 C3123 1.376 . S
C3127 C3126 1.392 . S
C3127 H3139 0.929 . S
C3128 C3124 1.531 . S
C3128 H3140 0.960 . S
C3128 H3141 0.962 . S
C3128 H3142 0.960 . S
C3129 C3126 1.511 . S
C3129 H3143 0.961 . S
C3129 H3144 0.961 . S
C3129 H3145 0.961 . S
C3130 C3131 1.370 . S
C3130 C3132 1.363 . S
C3130 H3146 0.931 . S
C3131 C3130 1.370 . S
C3131 C3135 1.408 . S
C3132 C3130 1.363 . S
C3132 C3133 1.370 . S
C3132 C3136 1.524 . S
C3133 C3125 1.503 . S
C3133 C3132 1.370 . S
C3133 C3134 1.403 . S
C3134 C3133 1.403 . S
C3134 C3135 1.404 . S
C3134 C3137 1.539 . S
C3135 C3131 1.408 . S
C3135 C3134 1.404 . S
C3135 H3147 0.930 . S
C3136 C3132 1.524 . S
C3136 H3148 0.956 . S
C3136 H3149 0.961 . S
C3136 H3150 0.961 . S
C3137 C3134 1.539 . S
C3137 H3151 0.958 . S
C3137 H3152 0.961 . S
C3137 H3153 0.960 . S
H3138 C3122 0.931 . S
H3139 C3127 0.929 . S
H3140 C3128 0.960 . S
H3141 C3128 0.962 . S
H3142 C3128 0.960 . S
H3143 C3129 0.961 . S
H3144 C3129 0.961 . S
H3145 C3129 0.961 . S
H3146 C3130 0.931 . S
H3147 C3135 0.930 . S
H3148 C3136 0.956 . S
H3149 C3136 0.961 . S
H3150 C3136 0.961 . S
H3151 C3137 0.958 . S
H3152 C3137 0.961 . S
H3153 C3137 0.960 . S
C3154 C3155 1.391 . S
C3154 C3156 1.394 . S
C3154 H3170 0.931 . S
C3155 C3154 1.391 . S
C3155 C3159 1.376 . S
C3156 C3154 1.394 . S
C3156 C3157 1.369 . S
C3156 C3160 1.531 . S
C3157 C3156 1.369 . S
C3157 C3158 1.410 . S
C3157 C3165 1.503 . S
C3158 C3157 1.410 . S
C3158 C3159 1.392 . S
C3158 C3161 1.511 . S
C3159 C3155 1.376 . S
C3159 C3158 1.392 . S
C3159 H3171 0.929 . S
C3160 C3156 1.531 . S
C3160 H3172 0.960 . S
C3160 H3173 0.962 . S
C3160 H3174 0.960 . S
C3161 C3158 1.511 . S
C3161 H3175 0.961 . S
C3161 H3176 0.961 . S
C3161 H3177 0.961 . S
C3162 C3163 1.370 . S
C3162 C3164 1.363 . S
C3162 H3178 0.931 . S
C3163 C3162 1.370 . S
C3163 C3167 1.408 . S
C3164 C3162 1.363 . S
C3164 C3165 1.370 . S
C3164 C3168 1.524 . S
C3165 C3157 1.503 . S
C3165 C3164 1.370 . S
C3165 C3166 1.403 . S
C3166 C3165 1.403 . S
C3166 C3167 1.404 . S
C3166 C3169 1.539 . S
C3167 C3163 1.408 . S
C3167 C3166 1.404 . S
C3167 H3179 0.930 . S
C3168 C3164 1.524 . S
C3168 H3180 0.956 . S
C3168 H3181 0.961 . S
C3168 H3182 0.961 . S
C3169 C3166 1.539 . S
C3169 H3183 0.958 . S
C3169 H3184 0.961 . S
C3169 H3185 0.960 . S
H3170 C3154 0.931 . S
H3171 C3159 0.929 . S
H3172 C3160 0.960 . S
H3173 C3160 0.962 . S
H3174 C3160 0.960 . S
H3175 C3161 0.961 . S
H3176 C3161 0.961 . S
H3177 C3161 0.961 . S
H3178 C3162 0.931 . S
H3179 C3167 0.930 . S
H3180 C3168 0.956 . S
H3181 C3168 0.961 . S
H3182 C3168 0.961 . S
H3183 C3169 0.958 . S
H3184 C3169 0.961 . S
H3185 C3169 0.960 . S
C1459 C528 1.413 . S
C1467 C758 1.330 . S
C1491 C562 1.490 . S
C1499 C842 1.403 . S
C1523 C484 1.478 . S
C1531 C936 1.418 . S
C1555 C445 1.416 . S
C1563 C852 1.402 . S
C1595 C926 1.343 . S
C1587 C367 1.431 . S
C1619 C411 1.380 . S
C1627 C768 1.364 . S
C1659 C769 1.372 . S
C1651 C450 1.442 . S
C1691 C853 1.383 . S
C1683 C372 1.467 . S
C1715 C406 1.464 . S
C1723 C945 1.435 . S
C1747 C523 1.424 . S
C1755 C861 1.385 . S
C1779 C567 1.415 . S
C1787 C937 1.330 . S
C1819 C777 1.375 . S
C1811 C489 1.404 . S
C1851 C1010 1.334 . S
C1843 C60 1.411 . S
C1875 C94 1.491 . S
C1883 C1094 1.412 . S
C1907 C16 1.464 . S
C1915 C1188 1.432 . S
C1939 C679 1.415 . S
C1947 C1104 1.403 . S
C1971 C601 1.431 . S
C1979 C1178 1.339 . S
C2003 C645 1.379 . S
C2011 C1020 1.365 . S
C2035 C684 1.426 . S
C2043 C1021 1.378 . S
C2067 C606 1.455 . S
C2075 C1105 1.394 . S
C2107 C1197 1.431 . S
C2099 C640 1.457 . S
C2131 C55 1.423 . S
C2139 C1113 1.385 . S
C2171 C1189 1.340 . S
C2163 C99 1.415 . S
C2195 C21 1.388 . S
C2203 C1029 1.383 . S
C2235 C1262 1.348 . S
C2227 C294 1.424 . S
C2259 C328 1.477 . S
C2267 C1346 1.408 . S
C2299 C1440 1.417 . S
C2291 C250 1.480 . S
C2331 C1356 1.392 . S
C2323 C211 1.425 . S
C2363 C1430 1.363 . S
C2355 C133 1.417 . S
C2387 C177 1.385 . S
C2395 C1272 1.357 . S
C2419 C216 1.437 . S
C2427 C1273 1.377 . S
C2451 C138 1.458 . S
C2459 C1357 1.411 . S
C2491 C1449 1.427 . S
C2483 C172 1.462 . S
C2515 C289 1.432 . S
C2523 C1365 1.377 . S
C2547 C333 1.403 . S
C2555 C1441 1.317 . S
C2579 C255 1.411 . S
C2587 C1281 1.369 . S
C2611 C586 1.459 . S
C2619 C765 1.336 . S
C2651 C849 1.371 . S
C2643 C625 1.487 . S
C2675 C664 1.475 . S
C2683 C942 1.323 . S
C2707 C235 1.505 . S
C2715 C858 1.364 . S
C2739 C274 1.459 . S
C2747 C933 1.352 . S
C2779 C774 1.363 . S
C2771 C313 1.457 . S
C2803 C118 1.460 . S
C2811 C1017 1.340 . S
C2835 C157 1.487 . S
C2843 C1101 1.371 . S
C2867 C196 1.471 . S
C2875 C1194 1.341 . S
C2899 C469 1.501 . S
C2907 C1110 1.360 . S
C2939 C1185 1.311 . S
C2931 C508 1.459 . S
C2963 C547 1.460 . S
C2971 C1026 1.356 . S
C2995 C352 1.458 . S
C3003 C1269 1.336 . S
C3027 C391 1.489 . S
C3035 C1353 1.371 . S
C3067 C1446 1.342 . S
C3059 C430 1.474 . S
C3091 C1 1.502 . S
C3099 C1362 1.374 . S
C3123 C40 1.458 . S
C3131 C1437 1.348 . S
C3155 C79 1.457 . S
C3163 C1278 1.326 . S
