# Generated by pormake.
# Topology ftw, (4,12)-cn, num edge types: 1
# Building blocks:
#     Node 0, Type 0, BuildingBlock: GIZVER_clean_linker_0, # of connection points: 4
#     Node 1, Type 0, BuildingBlock: GIZVER_clean_linker_0, # of connection points: 4
#     Node 2, Type 0, BuildingBlock: GIZVER_clean_linker_0, # of connection points: 4
#     Node 3, Type 1, BuildingBlock: EZIPEK_clean_sbu_0, # of connection points: 12
#     Edge 4, Type (0, 1), BuildingBlock: CIFDUS_clean_linker_0, # of connection points: 2
#     Edge 5, Type (0, 1), BuildingBlock: CIFDUS_clean_linker_0, # of connection points: 2
#     Edge 6, Type (0, 1), BuildingBlock: CIFDUS_clean_linker_0, # of connection points: 2
#     Edge 7, Type (0, 1), BuildingBlock: CIFDUS_clean_linker_0, # of connection points: 2
#     Edge 8, Type (0, 1), BuildingBlock: CIFDUS_clean_linker_0, # of connection points: 2
#     Edge 9, Type (0, 1), BuildingBlock: CIFDUS_clean_linker_0, # of connection points: 2
#     Edge 10, Type (0, 1), BuildingBlock: CIFDUS_clean_linker_0, # of connection points: 2
#     Edge 11, Type (0, 1), BuildingBlock: CIFDUS_clean_linker_0, # of connection points: 2
#     Edge 12, Type (0, 1), BuildingBlock: CIFDUS_clean_linker_0, # of connection points: 2
#     Edge 13, Type (0, 1), BuildingBlock: CIFDUS_clean_linker_0, # of connection points: 2
#     Edge 14, Type (0, 1), BuildingBlock: CIFDUS_clean_linker_0, # of connection points: 2
#     Edge 15, Type (0, 1), BuildingBlock: CIFDUS_clean_linker_0, # of connection points: 2
# Relax obj value: 0.085
# Max RMSD: 0.239
# Mean RMSD: 0.181
data_MOF--net-ftw--node1-EZIPEK_clean_sbu_0--node2-GIZVER_clean_linker_0--edge1-CIFDUS_clean_linker_0
_symmetry_space_group_name_H-M    P1
_symmetry_Int_Tables_number       1
_symmetry_cell_setting            triclinic
loop_
_symmetry_equiv_pos_as_xyz
'x, y, z'
_cell_length_a     22.815621
_cell_length_b     21.556776
_cell_length_c     21.020269
_cell_angle_alpha  90.094246
_cell_angle_beta   89.845966
_cell_angle_gamma 90.626058
loop_
_atom_site_label
_atom_site_type_symbol
_atom_site_fract_x
_atom_site_fract_y
_atom_site_fract_z
_atom_type_partial_charge
H0 H 0.90194 0.46064 0.38619 0.0
H1 H 0.91478 0.45238 0.58914 0.0
H2 H 1.02085 0.33282 0.47263 0.0
H3 H 0.8265 0.50652 0.45416 0.0
H4 H 0.83302 0.50449 0.53892 0.0
H5 H 0.89869 0.57383 0.39065 0.0
H6 H 0.9496 0.74222 0.48677 0.0
H7 H 0.88016 0.58902 0.594 0.0
C8 C 0.92186 0.44084 0.42811 0.0
C9 C 0.96302 0.39326 0.42175 0.0
C10 C 0.90503 0.46251 0.48827 0.0
C11 C 0.93001 0.4369 0.54299 0.0
C12 C 0.97194 0.38976 0.53831 0.0
C13 C 0.98894 0.36928 0.47715 0.0
C14 C 0.85829 0.51099 0.49401 0.0
C15 C 0.88558 0.57486 0.49227 0.0
C16 C 0.90356 0.60074 0.43388 0.0
C17 C 0.92786 0.66084 0.4313 0.0
C18 C 0.93293 0.69496 0.48798 0.0
C19 C 0.91619 0.66941 0.54659 0.0
C20 C 0.89342 0.60886 0.54878 0.0
H21 H 0.47722 0.05452 0.38651 0.0
H22 H 0.473 0.04207 0.59041 0.0
H23 H 0.34172 0.94801 0.47815 0.0
H24 H 0.52558 0.13338 0.45272 0.0
H25 H 0.52443 0.12781 0.53734 0.0
H26 H 0.59544 0.07256 0.38887 0.0
H27 H 0.74926 1.01273 0.48819 0.0
H28 H 0.59594 0.06611 0.59346 0.0
C29 C 0.4584 0.03493 0.42954 0.0
C30 C 0.40866 0.99644 0.42566 0.0
C31 C 0.48163 0.05152 0.48891 0.0
C32 C 0.45551 0.02815 0.54462 0.0
C33 C 0.40473 0.99061 0.54145 0.0
C34 C 0.38267 0.97379 0.48152 0.0
C35 C 0.52929 0.10012 0.49293 0.0
C36 C 0.58883 0.07094 0.49132 0.0
C37 C 0.61739 0.06102 0.43291 0.0
C38 C 0.67553 0.04057 0.43141 0.0
C39 C 0.70419 0.02816 0.48905 0.0
C40 C 0.67582 0.03697 0.5478 0.0
C41 C 0.61768 0.05733 0.54845 0.0
H42 H 0.60087 0.42012 0.02987 0.0
H43 H 0.61365 0.61883 0.04875 0.0
H44 H 0.75775 0.51671 0.97146 0.0
H45 H 0.54064 0.4777 0.10668 0.0
H46 H 0.54246 0.55982 0.10988 0.0
H47 H 0.4708 0.42339 0.04111 0.0
H48 H 0.33101 0.53153 0.96385 0.0
H49 H 0.4865 0.62267 0.03315 0.0
C50 C 0.62438 0.46315 0.02066 0.0
C51 C 0.68246 0.46134 -0.0019 0.0
C52 C 0.59861 0.52005 0.03782 0.0
C53 C 0.63151 0.57559 0.03135 0.0
C54 C 0.68958 0.57436 0.00891 0.0
C55 C 0.71317 0.51753 -0.01055 0.0
C56 C 0.54234 0.51989 0.07624 0.0
C57 C 0.48719 0.52239 0.03635 0.0
C58 C 0.45408 0.46764 0.02534 0.0
C59 C 0.39695 0.47073 0.00069 0.0
C60 C 0.37491 0.52884 0.98327 0.0
C61 C 0.40588 0.58402 -0.00382 0.0
C62 C 0.46297 0.5804 0.02081 0.0
C63 C 0.05055 0.1567 0.82075 0.0
C64 C 0.05455 0.18224 0.13007 0.0
C65 C 1.01949 0.86199 0.84803 0.0
C66 C 0.03338 0.88426 0.15309 0.0
C67 C 0.17488 0.86154 -5e-05 0.0
C68 C 0.19621 0.1635 0.98071 0.0
C69 C 0.89056 0.88133 -0.00081 0.0
C70 C 0.91274 0.18301 -0.01297 0.0
C71 C 0.90607 0.04498 0.14517 0.0
C72 C 0.18811 0.0252 0.13936 0.0
C73 C 0.90474 0.03147 0.8337 0.0
C74 C 0.18549 1.00443 0.83484 0.0
Eu75 Eu 0.05201 0.13899 0.97838 0.0
O76 O 0.10087 0.0776 0.03877 0.0
O77 O 0.99525 0.07521 0.92899 0.0
Eu78 Eu 0.15596 1.01418 -0.01248 0.0
Eu79 Eu 0.93129 0.02998 -0.01045 0.0
O80 O 0.10036 0.06915 0.9278 0.0
O81 O 0.99672 0.08381 0.0397 0.0
Eu82 Eu 0.04418 1.01182 0.87066 0.0
Eu83 Eu 0.0463 0.03078 0.10698 0.0
O84 O 0.09325 0.9573 0.93635 0.0
O85 O 0.09336 0.96722 0.04807 0.0
O86 O 0.98803 0.97533 0.04922 0.0
O87 O 0.98706 0.96697 0.93802 0.0
Eu88 Eu 0.03513 0.90514 -0.00228 0.0
O89 O 0.04992 0.1827 0.87874 0.0
O90 O 0.05306 0.19778 0.06861 0.0
O91 O 1.02403 0.84584 0.90904 0.0
O92 O 0.02897 0.86057 0.09471 0.0
O93 O 0.19823 0.91846 -0.00686 0.0
O94 O 0.21106 0.10361 0.9839 0.0
O95 O 0.87594 0.94098 -0.00747 0.0
O96 O 0.88923 0.12588 -0.01052 0.0
O97 O 0.96244 0.04361 0.16139 0.0
O98 O 0.13294 0.03103 0.1593 0.0
O99 O 0.96035 0.02313 0.81667 0.0
O100 O 0.1297 1.00028 0.81609 0.0
O101 O 0.94519 0.86004 0.00327 0.0
O102 O 0.11759 0.84809 0.00239 0.0
O103 O 0.96979 0.1964 0.98138 0.0
O104 O 0.14157 0.18484 0.9773 0.0
O105 O 0.05394 0.12487 0.15342 0.0
O106 O 0.04121 0.94407 0.16754 0.0
O107 O 0.05145 0.09606 0.80932 0.0
O108 O 1.02635 0.91912 0.82496 0.0
O109 O 0.20415 1.01097 0.89434 0.0
O110 O 0.20597 0.01774 0.07962 0.0
O111 O 0.88419 0.03357 0.89344 0.0
O112 O 0.88493 0.03866 0.08605 0.0
H113 H 0.06659 0.34715 0.3754 0.0
H114 H 0.88521 0.37379 0.32434 0.0
H115 H 0.90096 0.3199 0.22433 0.0
H116 H 0.96267 0.2544 0.15651 0.0
H117 H 0.13986 0.21635 0.21286 0.0
H118 H 0.12938 0.28459 0.30565 0.0
C119 C 0.03037 0.34113 0.34262 0.0
C120 C 0.97477 0.36485 0.35808 0.0
C121 C 0.03898 0.30763 0.28593 0.0
C122 C 0.92886 0.35739 0.31386 0.0
C123 C 0.93757 0.32585 0.25662 0.0
C124 C 0.99935 0.26274 0.18826 0.0
C125 C 0.05229 0.23194 0.1777 0.0
C126 C 0.99203 0.29965 0.24277 0.0
C127 C 0.09911 0.24082 0.21994 0.0
C128 C 0.0929 0.27932 0.27309 0.0
H129 H 0.78102 0.09245 0.4071 0.0
H130 H 0.64312 0.98508 0.31886 0.0
H131 H 0.70011 0.98016 0.21964 0.0
H132 H 0.7925 1.00247 0.15994 0.0
H133 H 0.92836 0.11104 0.2516 0.0
H134 H 0.86885 0.11961 0.34701 0.0
C135 C 0.76357 0.06765 0.36623 0.0
C136 C 0.70853 0.03827 0.37049 0.0
C137 C 0.79626 0.06536 0.30979 0.0
C138 C 0.68567 1.00775 0.31669 0.0
C139 C 0.71825 1.00493 0.26007 0.0
C140 C 0.80853 0.02864 0.20054 0.0
C141 C 0.86513 0.0553 0.19885 0.0
C142 C 0.774 0.03312 0.25619 0.0
C143 C 0.8854 0.08909 0.25191 0.0
C144 C 0.85139 0.09415 0.30664 0.0
H145 H 1.02141 0.73761 0.41031 0.0
H146 H 0.87601 0.64896 0.31372 0.0
H147 H 0.90084 0.70511 0.21641 0.0
H148 H 0.95745 0.78753 0.16216 0.0
H149 H 0.09399 0.8853 0.26395 0.0
H150 H 0.07806 0.81859 0.35655 0.0
C151 C 0.99463 0.73084 0.36829 0.0
C152 C 0.94632 0.68964 0.36997 0.0
C153 C 1.00722 0.76554 0.3136 0.0
C154 C 0.91368 0.67994 0.31404 0.0
C155 C 0.92746 0.71256 0.25843 0.0
C156 C 0.98413 0.79351 0.20443 0.0
C157 C 1.02679 0.84098 0.20663 0.0
C158 C 0.97323 0.75656 0.25817 0.0
C159 C 0.06068 0.84915 0.26165 0.0
C160 C 0.05164 0.81104 0.31441 0.0
H161 H 0.37459 0.08806 0.34812 0.0
H162 H 0.36862 0.8894 0.37071 0.0
H163 H 0.3009 0.88026 0.28073 0.0
H164 H 0.23741 0.93025 0.20131 0.0
H165 H 0.23993 0.12925 0.18339 0.0
H166 H 0.31525 0.13737 0.26606 0.0
C167 C 0.35962 0.0427 0.33215 0.0
C168 C 0.37674 0.98939 0.36514 0.0
C169 C 0.3195 0.03819 0.28211 0.0
C170 C 0.35604 0.9309 0.34539 0.0
C171 C 0.31718 0.92577 0.2944 0.0
C172 C 0.25498 0.97511 0.21565 0.0
C173 C 0.23374 0.02917 0.18748 0.0
C174 C 0.29756 0.97923 0.26344 0.0
C175 C 0.25606 0.08734 0.2054 0.0
C176 C 0.29899 0.09188 0.25229 0.0
H177 H 0.97165 0.64046 0.65732 0.0
H178 H 0.87397 0.78466 0.5647 0.0
H179 H 0.8957 0.85589 0.65189 0.0
H180 H 0.94866 0.87977 0.74897 0.0
H181 H 0.04652 0.73787 0.8447 0.0
H182 H 1.01821 0.66255 0.76197 0.0
C183 C 0.95434 0.68712 0.65714 0.0
C184 C 0.92192 0.70778 0.60458 0.0
C185 C 0.96766 0.7282 0.70727 0.0
C186 C 0.89966 0.76825 0.60443 0.0
C187 C 0.91213 0.80893 0.6541 0.0
C188 C 0.96398 0.83234 0.75171 0.0
C189 C 1.00071 0.81451 0.80173 0.0
C190 C 0.94736 0.7899 0.70469 0.0
C191 C 1.01867 0.75259 0.80602 0.0
C192 C 1.00253 0.70971 0.75881 0.0
H193 H 0.3854 0.06836 0.64083 0.0
H194 H 0.34109 0.88536 0.57089 0.0
H195 H 0.26734 0.87371 0.65468 0.0
H196 H 0.21116 0.91873 0.74434 0.0
H197 H 0.2619 0.09815 0.81773 0.0
H198 H 0.33798 0.10791 0.73618 0.0
C199 C 0.3611 0.02503 0.64479 0.0
C200 C 0.36864 0.97805 0.59913 0.0
C201 C 0.31923 0.01846 0.69317 0.0
C202 C 0.33558 0.92277 0.60476 0.0
C203 C 0.29335 0.91604 0.65262 0.0
C204 C 0.23909 0.95973 0.74208 0.0
C205 C 0.23093 1.00811 0.78574 0.0
C206 C 0.28381 0.96423 0.69617 0.0
C207 C 0.26762 0.06068 0.78387 0.0
C208 C 0.31105 0.06619 0.73752 0.0
H209 H 0.99998 0.26799 0.55185 0.0
H210 H 0.99182 0.43923 0.65839 0.0
H211 H 1.01689 0.38356 0.7556 0.0
H212 H 0.03668 0.28401 0.81138 0.0
H213 H 0.05368 0.11737 0.69787 0.0
H214 H 0.03205 0.17453 0.60276 0.0
C215 C 1.00544 0.29421 0.59548 0.0
C216 C 0.99357 0.35804 0.59695 0.0
C217 C 1.02162 0.26256 0.65069 0.0
C218 C 0.99931 0.38981 0.65541 0.0
C219 C 1.01417 0.35807 0.71121 0.0
C220 C 0.03653 0.26046 0.76577 0.0
C221 C 0.04586 0.19597 0.76284 0.0
C222 C 1.02465 0.29404 0.70965 0.0
C223 C 0.04591 0.16662 0.70277 0.0
C224 C 0.03344 0.19926 0.6477 0.0
H225 H 0.78294 0.0844 0.57261 0.0
H226 H 0.64223 0.97906 0.65879 0.0
H227 H 0.69849 0.97132 0.75787 0.0
H228 H 0.79063 0.99144 0.81842 0.0
H229 H 0.92984 0.09643 0.72813 0.0
H230 H 0.87133 0.10749 0.63261 0.0
C231 C 0.76478 0.05917 0.61285 0.0
C232 C 0.70905 0.03147 0.60812 0.0
C233 C 0.79711 0.0551 0.66914 0.0
C234 C 0.68531 1.00053 0.66129 0.0
C235 C 0.71744 0.9961 0.71786 0.0
C236 C 0.80754 1.01732 0.77803 0.0
C237 C 0.86461 0.04257 0.78007 0.0
C238 C 0.7737 0.02294 0.72227 0.0
C239 C 0.8863 0.07583 0.72737 0.0
C240 C 0.85292 0.08225 0.67265 0.0
H241 H 0.41488 0.34885 0.96348 0.0
H242 H 0.28624 0.47021 0.04695 0.0
H243 H 0.21454 0.38646 0.04831 0.0
H244 H 0.18639 0.28052 0.02398 0.0
H245 H 0.31218 0.15467 0.94352 0.0
H246 H 0.38689 0.23779 0.94371 0.0
C247 C 0.37124 0.35666 0.98215 0.0
C248 C 0.35571 0.41646 0.00341 0.0
C249 C 0.32957 0.30752 0.98343 0.0
C250 C 0.29905 0.42548 0.02826 0.0
C251 C 0.25794 0.37741 0.02958 0.0
C252 C 0.23007 0.27104 0.00614 0.0
C253 C 0.24337 0.21161 0.98298 0.0
C254 C 0.2724 0.31862 0.00661 0.0
C255 C 0.30069 0.20005 0.96155 0.0
C256 C 0.34335 0.24766 0.96148 0.0
H257 H 0.29871 0.60582 0.04415 0.0
H258 H 0.44133 0.69715 0.94594 0.0
H259 H 0.3839 0.79309 0.94056 0.0
H260 H 0.29001 0.84917 0.96012 0.0
H261 H 0.14907 0.75231 0.05711 0.0
H262 H 0.20878 0.66053 0.06585 0.0
C263 C 0.31722 0.64648 0.0209 0.0
C264 C 0.37374 0.6439 -0.00575 0.0
C265 C 0.28401 0.70061 0.0176 0.0
C266 C 0.39772 0.69777 0.9664 0.0
C267 C 0.36479 0.7525 0.9632 0.0
C268 C 0.27265 0.80807 0.98347 0.0
C269 C 0.21464 0.80776 0.00718 0.0
C270 C 0.30744 0.75431 -0.0119 0.0
C271 C 0.19298 0.75396 0.03739 0.0
C272 C 0.2272 0.70124 0.04272 0.0
H273 H 0.79188 0.4387 0.04003 0.0
H274 H 0.64572 0.34902 0.94671 0.0
H275 H 0.70252 0.25308 0.93733 0.0
H276 H 0.79655 0.19612 0.95243 0.0
H277 H 0.94192 0.29228 0.04145 0.0
H278 H 0.88285 0.38419 0.05477 0.0
C279 C 0.77247 0.39863 0.01657 0.0
C280 C 0.71497 0.4017 -0.00718 0.0
C281 C 0.80549 0.34457 0.01045 0.0
C282 C 0.69 0.34818 0.96509 0.0
C283 C 0.72259 0.29339 0.95955 0.0
C284 C 0.81502 0.2372 0.97485 0.0
C285 C 0.87389 0.23727 -0.00466 0.0
C286 C 0.78076 0.29117 0.98158 0.0
C287 C 0.89717 0.29095 0.02434 0.0
C288 C 0.86334 0.34369 0.03225 0.0
H289 H 0.6734 0.69582 0.97105 0.0
H290 H 0.79611 0.5755 0.06457 0.0
H291 H 0.86709 0.65997 0.07209 0.0
H292 H 0.89689 0.76576 0.04829 0.0
H293 H 0.77699 0.88934 0.9553 0.0
H294 H 0.7024 0.80647 0.95221 0.0
C295 C 0.71554 0.68847 -0.00666 0.0
C296 C 0.72982 0.62894 0.01589 0.0
C297 C 0.75682 0.73775 -0.00244 0.0
C298 C 0.78448 0.62028 0.04527 0.0
C299 C 0.82512 0.66868 0.04994 0.0
C300 C 0.85447 0.77489 0.02728 0.0
C301 C 0.84295 0.83363 0.00145 0.0
C302 C 0.8122 0.7272 0.02538 0.0
C303 C 0.78718 0.84459 0.97558 0.0
C304 C 0.74456 0.79707 0.97355 0.0
loop_
_geom_bond_atom_site_label_1
_geom_bond_atom_site_label_2
_geom_bond_distance
_geom_bond_site_symmetry_2
_ccdc_geom_bond_type
H0 C8 0.930 . S
H1 C11 0.930 . S
H2 C13 0.930 . S
H3 C14 0.970 . S
H4 C14 0.970 . S
H5 C16 0.930 . S
H6 C18 0.930 . S
H7 C20 0.930 . S
C8 H0 0.930 . S
C8 C9 1.382 . S
C8 C10 1.426 . S
C9 C8 1.382 . S
C9 C13 1.389 1_655 S
C10 C8 1.426 . S
C10 C11 1.375 . S
C10 C14 1.532 . S
C11 H1 0.930 . S
C11 C10 1.375 . S
C11 C12 1.416 . S
C12 C11 1.416 . S
C12 C13 1.371 1_655 S
C13 H2 0.930 . S
C13 C9 1.389 1_455 S
C13 C12 1.371 1_455 S
C14 H3 0.970 . S
C14 H4 0.970 . S
C14 C10 1.532 . S
C14 C15 1.499 . S
C15 C14 1.499 . S
C15 C16 1.370 . S
C15 C20 1.415 . S
C16 H5 0.930 . S
C16 C15 1.370 . S
C16 C17 1.407 . S
C17 C16 1.407 . S
C17 C18 1.365 1_655 S
C18 H6 0.930 . S
C18 C17 1.365 1_455 S
C18 C19 1.393 1_455 S
C19 C18 1.393 1_655 S
C19 C20 1.387 . S
C20 H7 0.930 . S
C20 C15 1.415 . S
C20 C19 1.387 . S
H21 C29 0.930 . S
H22 C32 0.930 . S
H23 C34 0.930 . S
H24 C35 0.970 . S
H25 C35 0.970 . S
H26 C37 0.930 . S
H27 C39 0.930 . S
H28 C41 0.930 . S
C29 H21 0.930 . S
C29 C30 1.382 . S
C29 C31 1.426 . S
C30 C29 1.382 . S
C30 C34 1.389 1_545 S
C31 C29 1.426 . S
C31 C32 1.375 . S
C31 C35 1.532 . S
C32 H22 0.930 . S
C32 C31 1.375 . S
C32 C33 1.416 . S
C33 C32 1.416 . S
C33 C34 1.371 1_545 S
C34 H23 0.930 . S
C34 C30 1.389 1_565 S
C34 C33 1.371 1_565 S
C35 H24 0.970 . S
C35 H25 0.970 . S
C35 C31 1.532 . S
C35 C36 1.499 . S
C36 C35 1.499 . S
C36 C37 1.370 . S
C36 C41 1.415 . S
C37 H26 0.930 . S
C37 C36 1.370 . S
C37 C38 1.407 . S
C38 C37 1.407 . S
C38 C39 1.365 1_545 S
C39 H27 0.930 . S
C39 C38 1.365 1_565 S
C39 C40 1.393 1_565 S
C40 C39 1.393 1_545 S
C40 C41 1.387 . S
C41 H28 0.930 . S
C41 C36 1.415 . S
C41 C40 1.387 . S
H42 C50 0.930 . S
H43 C53 0.930 . S
H44 C55 0.930 . S
H45 C56 0.970 . S
H46 C56 0.970 . S
H47 C58 0.930 . S
H48 C60 0.930 . S
H49 C62 0.930 . S
C50 H42 0.930 . S
C50 C51 1.382 . S
C50 C52 1.426 . S
C51 C50 1.382 . S
C51 C55 1.389 1_554 S
C52 C50 1.426 . S
C52 C53 1.375 . S
C52 C56 1.532 . S
C53 H43 0.930 . S
C53 C52 1.375 . S
C53 C54 1.416 . S
C54 C53 1.416 . S
C54 C55 1.371 1_554 S
C55 H44 0.930 . S
C55 C51 1.389 1_556 S
C55 C54 1.371 1_556 S
C56 H45 0.970 . S
C56 H46 0.970 . S
C56 C52 1.532 . S
C56 C57 1.499 . S
C57 C56 1.499 . S
C57 C58 1.370 . S
C57 C62 1.415 . S
C58 H47 0.930 . S
C58 C57 1.370 . S
C58 C59 1.407 . S
C59 C58 1.407 . S
C59 C60 1.365 1_554 S
C60 H48 0.930 . S
C60 C59 1.365 1_556 S
C60 C61 1.393 1_556 S
C61 C60 1.393 1_554 S
C61 C62 1.387 . S
C62 H49 0.930 . S
C62 C57 1.415 . S
C62 C61 1.387 . S
C63 O89 1.283 . S
C63 O107 1.283 . S
C64 O90 1.283 . S
C64 O105 1.283 1_455 S
C65 O91 1.283 1_455 S
C65 O108 1.283 . S
C66 O92 1.283 . S
C66 O106 1.283 . S
C67 O93 1.283 . S
C67 O102 1.283 . S
C68 O94 1.283 . S
C68 O104 1.283 . S
C69 O95 1.283 . S
C69 O101 1.283 . S
C70 O96 1.283 . S
C70 O103 1.283 . S
C71 O97 1.283 . S
C71 O112 1.283 . S
C72 O98 1.283 . S
C72 O110 1.283 . S
C73 O99 1.283 . S
C73 O111 1.283 . S
C74 O100 1.283 . S
C74 O109 1.283 . S
Eu75 O76 2.374 . S
Eu75 O77 2.366 1_454 S
Eu75 O80 2.374 1_554 S
Eu75 O81 2.366 1_455 S
Eu75 O89 2.363 1_554 S
Eu75 O90 2.363 . S
Eu75 O103 2.356 1_455 S
Eu75 O104 2.370 . S
O76 Eu75 2.374 . S
O76 Eu78 2.370 . S
O76 Eu83 2.368 1_455 S
O77 Eu75 2.366 1_656 S
O77 Eu79 2.370 1_556 S
O77 Eu82 2.365 1_655 S
Eu78 O76 2.370 . S
Eu78 O80 2.370 1_554 S
Eu78 O84 2.370 1_544 S
Eu78 O85 2.370 1_545 S
Eu78 O93 2.363 1_545 S
Eu78 O94 2.363 . S
Eu78 O109 2.363 1_554 S
Eu78 O110 2.363 . S
Eu79 O77 2.370 1_554 S
Eu79 O81 2.370 . S
Eu79 O86 2.370 1_545 S
Eu79 O87 2.370 1_544 S
Eu79 O95 2.363 1_545 S
Eu79 O96 2.363 . S
Eu79 O111 2.363 1_554 S
Eu79 O112 2.363 . S
O80 Eu75 2.374 1_556 S
O80 Eu78 2.370 1_556 S
O80 Eu82 2.375 . S
O81 Eu75 2.366 1_655 S
O81 Eu79 2.370 . S
O81 Eu83 2.372 . S
Eu82 O77 2.365 1_455 S
Eu82 O80 2.375 . S
Eu82 O84 2.375 1_545 S
Eu82 O87 2.365 1_445 S
Eu82 O99 2.354 1_455 S
Eu82 O100 2.371 . S
Eu82 O107 2.363 . S
Eu82 O108 2.363 1_545 S
Eu83 O76 2.368 1_655 S
Eu83 O81 2.372 . S
Eu83 O85 2.368 1_645 S
Eu83 O86 2.372 1_545 S
Eu83 O97 2.367 . S
Eu83 O98 2.359 1_655 S
Eu83 O105 2.363 . S
Eu83 O106 2.363 1_545 S
O84 Eu78 2.370 1_566 S
O84 Eu82 2.375 1_565 S
O84 Eu88 2.369 1_456 S
O85 Eu78 2.370 1_565 S
O85 Eu83 2.368 1_465 S
O85 Eu88 2.369 1_455 S
O86 Eu79 2.370 1_565 S
O86 Eu83 2.372 1_565 S
O86 Eu88 2.372 . S
O87 Eu79 2.370 1_566 S
O87 Eu82 2.365 1_665 S
O87 Eu88 2.372 1_556 S
Eu88 O84 2.369 1_654 S
Eu88 O85 2.369 1_655 S
Eu88 O86 2.372 . S
Eu88 O87 2.372 1_554 S
Eu88 O91 2.363 1_554 S
Eu88 O92 2.363 . S
Eu88 O101 2.365 . S
Eu88 O102 2.360 1_655 S
O89 C63 1.283 . S
O89 Eu75 2.363 1_556 S
O90 C64 1.283 . S
O90 Eu75 2.363 . S
O91 C65 1.283 1_655 S
O91 Eu88 2.363 1_556 S
O92 C66 1.283 . S
O92 Eu88 2.363 . S
O93 C67 1.283 . S
O93 Eu78 2.363 1_565 S
O94 C68 1.283 . S
O94 Eu78 2.363 . S
O95 C69 1.283 . S
O95 Eu79 2.363 1_565 S
O96 C70 1.283 . S
O96 Eu79 2.363 . S
O97 C71 1.283 . S
O97 Eu83 2.367 . S
O98 C72 1.283 . S
O98 Eu83 2.359 1_455 S
O99 C73 1.283 . S
O99 Eu82 2.354 1_655 S
O100 C74 1.283 . S
O100 Eu82 2.371 . S
O101 C69 1.283 . S
O101 Eu88 2.365 . S
O102 C67 1.283 . S
O102 Eu88 2.360 1_455 S
O103 C70 1.283 . S
O103 Eu75 2.356 1_655 S
O104 C68 1.283 . S
O104 Eu75 2.370 . S
O105 C64 1.283 1_655 S
O105 Eu83 2.363 . S
O106 C66 1.283 . S
O106 Eu83 2.363 1_565 S
O107 C63 1.283 . S
O107 Eu82 2.363 . S
O108 C65 1.283 . S
O108 Eu82 2.363 1_565 S
O109 C74 1.283 . S
O109 Eu78 2.363 1_556 S
O110 C72 1.283 . S
O110 Eu78 2.363 . S
O111 C73 1.283 . S
O111 Eu79 2.363 1_556 S
O112 C71 1.283 . S
O112 Eu79 2.363 . S
H113 C119 0.930 . S
H114 C122 0.930 . S
H115 C123 0.930 . S
H116 C124 0.930 . S
H117 C127 0.930 . S
H118 C128 0.930 . S
C119 H113 0.930 . S
C119 C120 1.355 1_455 S
C119 C121 1.415 . S
C120 C119 1.355 1_655 S
C120 C122 1.419 . S
C121 C119 1.415 . S
C121 C126 1.425 1_455 S
C121 C128 1.409 . S
C122 H114 0.930 . S
C122 C120 1.419 . S
C122 C123 1.362 . S
C123 H115 0.930 . S
C123 C122 1.362 . S
C123 C126 1.409 . S
C124 H116 0.930 . S
C124 C125 1.355 1_655 S
C124 C126 1.415 . S
C125 C124 1.355 1_455 S
C125 C127 1.419 . S
C126 C121 1.425 1_655 S
C126 C123 1.409 . S
C126 C124 1.415 . S
C127 H117 0.930 . S
C127 C125 1.419 . S
C127 C128 1.362 . S
C128 H118 0.930 . S
C128 C121 1.409 . S
C128 C127 1.362 . S
H129 C135 0.930 . S
H130 C138 0.930 . S
H131 C139 0.930 . S
H132 C140 0.930 . S
H133 C143 0.930 . S
H134 C144 0.930 . S
C135 H129 0.930 . S
C135 C136 1.355 1_565 S
C135 C137 1.415 . S
C136 C135 1.355 1_545 S
C136 C138 1.419 . S
C137 C135 1.415 . S
C137 C142 1.425 1_565 S
C137 C144 1.409 . S
C138 H130 0.930 . S
C138 C136 1.419 . S
C138 C139 1.362 . S
C139 H131 0.930 . S
C139 C138 1.362 . S
C139 C142 1.409 . S
C140 H132 0.930 . S
C140 C141 1.352 1_545 S
C140 C142 1.415 . S
C141 C140 1.352 1_565 S
C141 C143 1.422 . S
C142 C137 1.425 1_545 S
C142 C139 1.409 . S
C142 C140 1.415 . S
C143 H133 0.930 . S
C143 C141 1.422 . S
C143 C144 1.362 . S
C144 H134 0.930 . S
C144 C137 1.409 . S
C144 C143 1.362 . S
H145 C151 0.930 . S
H146 C154 0.930 . S
H147 C155 0.930 . S
H148 C156 0.930 . S
H149 C159 0.930 . S
H150 C160 0.930 . S
C151 H145 0.930 . S
C151 C152 1.355 1_455 S
C151 C153 1.415 . S
C152 C151 1.355 1_655 S
C152 C154 1.419 . S
C153 C151 1.415 . S
C153 C158 1.425 1_455 S
C153 C160 1.409 . S
C154 H146 0.930 . S
C154 C152 1.419 . S
C154 C155 1.362 . S
C155 H147 0.930 . S
C155 C154 1.362 . S
C155 C158 1.409 . S
C156 H148 0.930 . S
C156 C157 1.355 1_655 S
C156 C158 1.415 . S
C157 C156 1.355 1_455 S
C157 C159 1.419 . S
C158 C153 1.425 1_655 S
C158 C155 1.409 . S
C158 C156 1.415 . S
C159 H149 0.930 . S
C159 C157 1.419 . S
C159 C160 1.362 . S
C160 H150 0.930 . S
C160 C153 1.409 . S
C160 C159 1.362 . S
H161 C167 0.930 . S
H162 C170 0.930 . S
H163 C171 0.930 . S
H164 C172 0.930 . S
H165 C175 0.930 . S
H166 C176 0.930 . S
C167 H161 0.930 . S
C167 C168 1.355 . S
C167 C169 1.415 . S
C168 C167 1.355 . S
C168 C170 1.419 1_545 S
C169 C167 1.415 . S
C169 C174 1.425 1_545 S
C169 C176 1.409 . S
C170 H162 0.930 . S
C170 C168 1.419 1_565 S
C170 C171 1.362 . S
C171 H163 0.930 . S
C171 C170 1.362 . S
C171 C174 1.409 . S
C172 H164 0.930 . S
C172 C173 1.355 1_565 S
C172 C174 1.415 . S
C173 C172 1.355 1_545 S
C173 C175 1.419 . S
C174 C169 1.425 1_565 S
C174 C171 1.409 . S
C174 C172 1.415 . S
C175 H165 0.930 . S
C175 C173 1.419 . S
C175 C176 1.362 . S
C176 H166 0.930 . S
C176 C169 1.409 . S
C176 C175 1.362 . S
H177 C183 0.930 . S
H178 C186 0.930 . S
H179 C187 0.930 . S
H180 C188 0.930 . S
H181 C191 0.930 . S
H182 C192 0.930 . S
C183 H177 0.930 . S
C183 C184 1.355 . S
C183 C185 1.415 . S
C184 C183 1.355 . S
C184 C186 1.419 1_655 S
C185 C183 1.415 . S
C185 C190 1.425 1_655 S
C185 C192 1.409 . S
C186 H178 0.930 . S
C186 C184 1.419 1_455 S
C186 C187 1.362 . S
C187 H179 0.930 . S
C187 C186 1.362 . S
C187 C190 1.409 . S
C188 H180 0.930 . S
C188 C189 1.356 . S
C188 C190 1.415 . S
C189 C188 1.356 . S
C189 C191 1.418 1_455 S
C190 C185 1.425 1_455 S
C190 C187 1.409 . S
C190 C188 1.415 . S
C191 H181 0.930 . S
C191 C189 1.418 1_655 S
C191 C192 1.362 . S
C192 H182 0.930 . S
C192 C185 1.409 . S
C192 C191 1.362 . S
H193 C199 0.930 . S
H194 C202 0.930 . S
H195 C203 0.930 . S
H196 C204 0.930 . S
H197 C207 0.930 . S
H198 C208 0.930 . S
C199 H193 0.930 . S
C199 C200 1.355 1_545 S
C199 C201 1.415 . S
C200 C199 1.355 1_565 S
C200 C202 1.419 . S
C201 C199 1.415 . S
C201 C206 1.425 1_545 S
C201 C208 1.409 . S
C202 H194 0.930 . S
C202 C200 1.419 . S
C202 C203 1.362 . S
C203 H195 0.930 . S
C203 C202 1.362 . S
C203 C206 1.409 . S
C204 H196 0.930 . S
C204 C205 1.355 1_565 S
C204 C206 1.415 . S
C205 C204 1.355 1_545 S
C205 C207 1.419 . S
C206 C201 1.425 1_565 S
C206 C203 1.409 . S
C206 C204 1.415 . S
C207 H197 0.930 . S
C207 C205 1.419 . S
C207 C208 1.362 . S
C208 H198 0.930 . S
C208 C201 1.409 . S
C208 C207 1.362 . S
H209 C215 0.930 . S
H210 C218 0.930 . S
H211 C219 0.930 . S
H212 C220 0.930 . S
H213 C223 0.930 . S
H214 C224 0.930 . S
C215 H209 0.930 . S
C215 C216 1.355 1_655 S
C215 C217 1.415 . S
C216 C215 1.355 1_455 S
C216 C218 1.419 . S
C217 C215 1.415 . S
C217 C222 1.425 1_655 S
C217 C224 1.409 . S
C218 H210 0.930 . S
C218 C216 1.419 . S
C218 C219 1.362 . S
C219 H211 0.930 . S
C219 C218 1.362 . S
C219 C222 1.409 . S
C220 H212 0.930 . S
C220 C221 1.355 . S
C220 C222 1.415 . S
C221 C220 1.355 . S
C221 C223 1.419 1_455 S
C222 C217 1.425 1_455 S
C222 C219 1.409 . S
C222 C220 1.415 . S
C223 H213 0.930 . S
C223 C221 1.419 1_655 S
C223 C224 1.362 . S
C224 H214 0.930 . S
C224 C217 1.409 . S
C224 C223 1.362 . S
H225 C231 0.930 . S
H226 C234 0.930 . S
H227 C235 0.930 . S
H228 C236 0.930 . S
H229 C239 0.930 . S
H230 C240 0.930 . S
C231 H225 0.930 . S
C231 C232 1.355 . S
C231 C233 1.415 . S
C232 C231 1.355 . S
C232 C234 1.419 1_545 S
C233 C231 1.415 . S
C233 C238 1.425 1_545 S
C233 C240 1.409 . S
C234 H226 0.930 . S
C234 C232 1.419 1_565 S
C234 C235 1.362 . S
C235 H227 0.930 . S
C235 C234 1.362 . S
C235 C238 1.409 . S
C236 H228 0.930 . S
C236 C237 1.355 1_565 S
C236 C238 1.415 . S
C237 C236 1.355 1_545 S
C237 C239 1.419 . S
C238 C233 1.425 1_565 S
C238 C235 1.409 . S
C238 C236 1.415 . S
C239 H229 0.930 . S
C239 C237 1.419 . S
C239 C240 1.362 . S
C240 H230 0.930 . S
C240 C233 1.409 . S
C240 C239 1.362 . S
H241 C247 0.930 . S
H242 C250 0.930 . S
H243 C251 0.930 . S
H244 C252 0.930 . S
H245 C255 0.930 . S
H246 C256 0.930 . S
C247 H241 0.930 . S
C247 C248 1.355 1_554 S
C247 C249 1.415 . S
C248 C247 1.355 1_556 S
C248 C250 1.419 . S
C249 C247 1.415 . S
C249 C254 1.425 1_554 S
C249 C256 1.409 . S
C250 H242 0.930 . S
C250 C248 1.419 . S
C250 C251 1.362 . S
C251 H243 0.930 . S
C251 C250 1.362 . S
C251 C254 1.409 . S
C252 H244 0.930 . S
C252 C253 1.354 1_556 S
C252 C254 1.415 . S
C253 C252 1.354 1_554 S
C253 C255 1.419 . S
C254 C249 1.425 1_556 S
C254 C251 1.409 . S
C254 C252 1.415 . S
C255 H245 0.930 . S
C255 C253 1.419 . S
C255 C256 1.362 . S
C256 H246 0.930 . S
C256 C249 1.409 . S
C256 C255 1.362 . S
H257 C263 0.930 . S
H258 C266 0.930 . S
H259 C267 0.930 . S
H260 C268 0.930 1_556 S
H261 C271 0.930 . S
H262 C272 0.930 . S
C263 H257 0.930 . S
C263 C264 1.355 . S
C263 C265 1.415 . S
C264 C263 1.355 . S
C264 C266 1.419 1_554 S
C265 C263 1.415 . S
C265 C270 1.425 . S
C265 C272 1.409 . S
C266 H258 0.930 . S
C266 C264 1.419 1_556 S
C266 C267 1.362 . S
C267 H259 0.930 . S
C267 C266 1.362 . S
C267 C270 1.409 1_556 S
C268 H260 0.930 1_554 S
C268 C269 1.355 . S
C268 C270 1.415 . S
C269 C268 1.355 . S
C269 C271 1.419 . S
C270 C265 1.425 . S
C270 C267 1.409 1_554 S
C270 C268 1.415 . S
C271 H261 0.930 . S
C271 C269 1.419 . S
C271 C272 1.362 . S
C272 H262 0.930 . S
C272 C265 1.409 . S
C272 C271 1.362 . S
H273 C279 0.930 . S
H274 C282 0.930 . S
H275 C283 0.930 . S
H276 C284 0.930 . S
H277 C287 0.930 . S
H278 C288 0.930 . S
C279 H273 0.930 . S
C279 C280 1.355 . S
C279 C281 1.415 . S
C280 C279 1.355 . S
C280 C282 1.419 1_554 S
C281 C279 1.415 . S
C281 C286 1.425 1_554 S
C281 C288 1.409 . S
C282 H274 0.930 . S
C282 C280 1.419 1_556 S
C282 C283 1.362 . S
C283 H275 0.930 . S
C283 C282 1.362 . S
C283 C286 1.409 . S
C284 H276 0.930 . S
C284 C285 1.355 1_556 S
C284 C286 1.415 . S
C285 C284 1.355 1_554 S
C285 C287 1.419 . S
C286 C281 1.425 1_556 S
C286 C283 1.409 . S
C286 C284 1.415 . S
C287 H277 0.930 . S
C287 C285 1.419 . S
C287 C288 1.362 . S
C288 H278 0.930 . S
C288 C281 1.409 . S
C288 C287 1.362 . S
H289 C295 0.930 . S
H290 C298 0.930 . S
H291 C299 0.930 . S
H292 C300 0.930 . S
H293 C303 0.930 . S
H294 C304 0.931 . S
C295 H289 0.930 . S
C295 C296 1.355 . S
C295 C297 1.416 . S
C296 C295 1.355 . S
C296 C298 1.419 1_556 S
C297 C295 1.416 . S
C297 C302 1.424 1_556 S
C297 C304 1.409 . S
C298 H290 0.930 . S
C298 C296 1.419 1_554 S
C298 C299 1.362 . S
C299 H291 0.930 . S
C299 C298 1.362 . S
C299 C302 1.409 . S
C300 H292 0.930 . S
C300 C301 1.355 . S
C300 C302 1.415 . S
C301 C300 1.355 . S
C301 C303 1.419 . S
C302 C297 1.424 1_554 S
C302 C299 1.409 . S
C302 C300 1.415 . S
C303 H293 0.930 . S
C303 C301 1.419 . S
C303 C304 1.362 1_554 S
C304 H294 0.931 . S
C304 C297 1.409 . S
C304 C303 1.362 1_556 S
C125 C64 1.235 . S
C120 C9 1.198 . S
C141 C71 1.555 1_565 S
C136 C38 1.508 . S
C157 C66 1.247 1_455 S
C152 C17 1.185 . S
C173 C72 1.533 . S
C168 C30 1.473 . S
C184 C19 1.190 . S
C189 C65 1.233 . S
C205 C74 1.551 . S
C200 C33 1.503 1_565 S
C216 C12 1.228 1_455 S
C221 C63 1.243 . S
C232 C40 1.521 . S
C237 C73 1.527 . S
C248 C59 1.827 1_556 S
C253 C68 1.888 . S
C264 C61 1.852 . S
C269 C67 1.856 . S
C285 C70 1.866 . S
C280 C51 1.852 . S
C301 C69 1.886 . S
C296 C54 1.812 1_556 S
