# Generated by pormake.
# Topology zzz, (3,6)-cn, num edge types: 1
# Building blocks:
#     Node 0, Type 0, BuildingBlock: ESEHIV_clean_linker_0, # of connection points: 3
#     Node 1, Type 0, BuildingBlock: ESEHIV_clean_linker_0, # of connection points: 3
#     Node 2, Type 0, BuildingBlock: ESEHIV_clean_linker_0, # of connection points: 3
#     Node 3, Type 0, BuildingBlock: ESEHIV_clean_linker_0, # of connection points: 3
#     Node 4, Type 0, BuildingBlock: ESEHIV_clean_linker_0, # of connection points: 3
#     Node 5, Type 0, BuildingBlock: ESEHIV_clean_linker_0, # of connection points: 3
#     Node 6, Type 0, BuildingBlock: ESEHIV_clean_linker_0, # of connection points: 3
#     Node 7, Type 0, BuildingBlock: ESEHIV_clean_linker_0, # of connection points: 3
#     Node 8, Type 1, BuildingBlock: BETDEL_clean_sbu_0, # of connection points: 6
#     Node 9, Type 1, BuildingBlock: BETDEL_clean_sbu_0, # of connection points: 6
#     Node 10, Type 1, BuildingBlock: BETDEL_clean_sbu_0, # of connection points: 6
#     Node 11, Type 1, BuildingBlock: BETDEL_clean_sbu_0, # of connection points: 6
#     Edge 12, Type (0, 1), BuildingBlock: XIVTED_clean_linker_0, # of connection points: 2
#     Edge 13, Type (0, 1), BuildingBlock: XIVTED_clean_linker_0, # of connection points: 2
#     Edge 14, Type (0, 1), BuildingBlock: XIVTED_clean_linker_0, # of connection points: 2
#     Edge 15, Type (0, 1), BuildingBlock: XIVTED_clean_linker_0, # of connection points: 2
#     Edge 16, Type (0, 1), BuildingBlock: XIVTED_clean_linker_0, # of connection points: 2
#     Edge 17, Type (0, 1), BuildingBlock: XIVTED_clean_linker_0, # of connection points: 2
#     Edge 18, Type (0, 1), BuildingBlock: XIVTED_clean_linker_0, # of connection points: 2
#     Edge 19, Type (0, 1), BuildingBlock: XIVTED_clean_linker_0, # of connection points: 2
#     Edge 20, Type (0, 1), BuildingBlock: XIVTED_clean_linker_0, # of connection points: 2
#     Edge 21, Type (0, 1), BuildingBlock: XIVTED_clean_linker_0, # of connection points: 2
#     Edge 22, Type (0, 1), BuildingBlock: XIVTED_clean_linker_0, # of connection points: 2
#     Edge 23, Type (0, 1), BuildingBlock: XIVTED_clean_linker_0, # of connection points: 2
#     Edge 24, Type (0, 1), BuildingBlock: XIVTED_clean_linker_0, # of connection points: 2
#     Edge 25, Type (0, 1), BuildingBlock: XIVTED_clean_linker_0, # of connection points: 2
#     Edge 26, Type (0, 1), BuildingBlock: XIVTED_clean_linker_0, # of connection points: 2
#     Edge 27, Type (0, 1), BuildingBlock: XIVTED_clean_linker_0, # of connection points: 2
#     Edge 28, Type (0, 1), BuildingBlock: XIVTED_clean_linker_0, # of connection points: 2
#     Edge 29, Type (0, 1), BuildingBlock: XIVTED_clean_linker_0, # of connection points: 2
#     Edge 30, Type (0, 1), BuildingBlock: XIVTED_clean_linker_0, # of connection points: 2
#     Edge 31, Type (0, 1), BuildingBlock: XIVTED_clean_linker_0, # of connection points: 2
#     Edge 32, Type (0, 1), BuildingBlock: XIVTED_clean_linker_0, # of connection points: 2
#     Edge 33, Type (0, 1), BuildingBlock: XIVTED_clean_linker_0, # of connection points: 2
#     Edge 34, Type (0, 1), BuildingBlock: XIVTED_clean_linker_0, # of connection points: 2
#     Edge 35, Type (0, 1), BuildingBlock: XIVTED_clean_linker_0, # of connection points: 2
# Relax obj value: 0.351
# Max RMSD: 0.228
# Mean RMSD: 0.212
data_MOF--net-zzz--node1-BETDEL_clean_sbu_0--node2-ESEHIV_clean_linker_0--edge1-XIVTED_clean_linker_0
_symmetry_space_group_name_H-M    P1
_symmetry_Int_Tables_number       1
_symmetry_cell_setting            triclinic
loop_
_symmetry_equiv_pos_as_xyz
'x, y, z'
_cell_length_a     43.530574
_cell_length_b     43.554506
_cell_length_c     15.355257
_cell_angle_alpha  91.003788
_cell_angle_beta   88.7658
_cell_angle_gamma 95.415209
loop_
_atom_site_label
_atom_site_type_symbol
_atom_site_fract_x
_atom_site_fract_y
_atom_site_fract_z
_atom_type_partial_charge
H0 H 0.80462 0.45167 0.10434 0.0
H1 H 0.73589 0.44325 0.90601 0.0
H2 H 0.73424 0.51419 0.1046 0.0
C3 C 0.78338 0.45813 0.07739 0.0
C4 C 0.76987 0.48309 0.11587 0.0
C5 C 0.77189 0.44379 0.00069 0.0
C6 C 0.74531 0.45403 0.96503 0.0
C7 C 0.73161 0.47935 0.0017 0.0
C8 C 0.74397 0.49401 0.07758 0.0
H9 H 0.97193 0.79239 0.17349 0.0
H10 H 0.96912 0.72584 0.96517 0.0
H11 H 0.97002 0.69597 0.23236 0.0
C12 C 0.96998 0.76842 0.15174 0.0
C13 C 0.97052 0.74527 0.2133 0.0
C14 C 0.97015 0.76169 0.06292 0.0
C15 C 0.96873 0.73098 0.03454 0.0
C16 C 0.96755 0.70691 0.09501 0.0
C17 C 0.96943 0.71412 0.18527 0.0
H18 H 0.71714 0.0574 0.10166 0.0
H19 H 0.79726 0.06628 0.93406 0.0
H20 H 0.79406 0.00552 0.15382 0.0
C21 C 0.74062 0.05222 0.08707 0.0
C22 C 0.75402 0.03108 0.13887 0.0
C23 C 0.75576 0.06441 0.01232 0.0
C24 C 0.78558 0.05681 0.99211 0.0
C25 C 0.8 0.03607 0.04308 0.0
C26 C 0.78372 0.02237 0.11568 0.0
H27 H 0.54764 0.71271 0.16256 0.0
H28 H 0.54928 0.80764 0.24745 0.0
H29 H 0.52961 0.78123 0.97967 0.0
C30 C 0.54623 0.73686 0.14797 0.0
C31 C 0.53894 0.74472 0.06411 0.0
C32 C 0.54987 0.75895 0.21481 0.0
C33 C 0.54678 0.79023 0.19624 0.0
C34 C 0.53988 0.79843 0.11017 0.0
C35 C 0.53555 0.77534 0.04518 0.0
H36 H 0.21196 0.55423 0.00207 0.0
H37 H 0.27923 0.56185 0.20395 0.0
H38 H 0.28362 0.49305 0.99993 0.0
C39 C 0.23321 0.54783 0.02916 0.0
C40 C 0.24727 0.52336 0.98993 0.0
C41 C 0.24405 0.56163 0.10715 0.0
C42 C 0.27053 0.55148 0.14357 0.0
C43 C 0.28511 0.52697 0.10522 0.0
C44 C 0.27336 0.51277 0.028 0.0
H45 H 0.99392 0.21152 0.93128 0.0
H46 H 0.98901 0.27976 0.13444 0.0
H47 H 0.04324 0.30097 0.90119 0.0
C48 C 0.99853 0.2352 0.95426 0.0
C49 C 0.01855 0.25544 0.90514 0.0
C50 C 0.98856 0.2433 0.03783 0.0
C51 C 0.99616 0.27345 0.06895 0.0
C52 C 0.01492 0.2948 0.01878 0.0
C53 C 0.0269 0.2855 0.93732 0.0
H54 H 0.31954 0.95173 0.99986 0.0
H55 H 0.23955 0.94507 0.16971 0.0
H56 H 0.24808 0.01173 0.96436 0.0
C57 C 0.29677 0.9583 0.01737 0.0
C58 C 0.28499 0.98175 0.97042 0.0
C59 C 0.28105 0.94546 0.09076 0.0
C60 C 0.25203 0.95499 0.1135 0.0
C61 C 0.23986 0.97883 0.06881 0.0
C62 C 0.25678 0.99274 0.99784 0.0
H63 H 0.45745 0.28886 0.92396 0.0
H64 H 0.48029 0.19759 0.85512 0.0
H65 H 0.46189 0.22201 0.12345 0.0
C66 C 0.45927 0.26516 0.94262 0.0
C67 C 0.45842 0.25789 0.03078 0.0
C68 C 0.46758 0.24403 0.87884 0.0
C69 C 0.47272 0.21385 0.90333 0.0
C70 C 0.46888 0.20536 0.99179 0.0
C71 C 0.46222 0.22768 0.0549 0.0
Dy72 Dy 0.03448 0.9903 0.63234 0.0
C73 C 0.99731 0.04471 0.31606 0.0
C74 C 0.0428 0.957 0.77625 0.0
Dy75 Dy 1.00207 0.01302 0.46487 0.0
O76 O 0.05913 0.95616 0.70454 0.0
O77 O 0.02335 0.97776 0.77085 0.0
O78 O 0.08045 0.00875 0.57627 0.0
O79 O 0.04471 0.99237 0.49239 0.0
C80 C 0.07181 0.00564 0.49551 0.0
C81 C 0.96332 0.01044 0.60585 0.0
O82 O 0.99853 0.96232 0.43422 0.0
O83 O 0.01033 0.94678 0.57378 0.0
O84 O 0.97528 0.02583 0.3493 0.0
O85 O 0.02217 0.04433 0.36127 0.0
O86 O 0.95543 0.01954 0.53002 0.0
O87 O 0.99053 0.00351 0.59811 0.0
O88 O 0.03557 0.04044 0.66702 0.0
O89 O 0.02397 0.05648 0.52824 0.0
C90 C 1.0008 0.9406 0.49309 0.0
C91 C 0.03267 0.06243 0.60967 0.0
Dy92 Dy 0.49589 0.97565 0.49784 0.0
C93 C 0.58564 0.06839 0.65035 0.0
C94 C 0.44949 0.93292 0.44634 0.0
Dy95 Dy 0.53787 0.0295 0.59074 0.0
O96 O 0.47447 0.94093 0.40146 0.0
O97 O 0.45014 0.948 0.51998 0.0
O98 O 0.53308 0.96978 0.39802 0.0
O99 O 0.54565 0.98604 0.52279 0.0
C100 C 0.55565 0.98128 0.446 0.0
C101 C 0.47694 0.03362 0.62854 0.0
O102 O 0.53098 0.04876 0.45864 0.0
O103 O 0.48672 0.01736 0.42128 0.0
O104 O 0.56154 0.05813 0.69607 0.0
O105 O 0.58379 0.05731 0.57118 0.0
O106 O 0.49896 0.05265 0.65946 0.0
O107 O 0.4896 0.01524 0.57844 0.0
O108 O 0.50468 0.95337 0.62441 0.0
O109 O 0.54159 0.99016 0.68273 0.0
C110 C 0.50684 0.04187 0.40797 0.0
C111 C 0.5243 0.96327 0.68627 0.0
Dy112 Dy 0.49808 0.51142 0.62821 0.0
C113 C 0.52563 0.45873 0.30275 0.0
C114 C 0.49194 0.54242 0.78173 0.0
Dy115 Dy 0.52447 0.49105 0.45586 0.0
O116 O 0.47043 0.53731 0.7246 0.0
O117 O 0.5161 0.52915 0.7564 0.0
O118 O 0.45075 0.49258 0.58785 0.0
O119 O 0.48273 0.51182 0.49434 0.0
C120 C 0.45616 0.49793 0.50549 0.0
C121 C 0.56649 0.50379 0.57888 0.0
O122 O 0.53049 0.54154 0.42831 0.0
O123 O 0.51843 0.55645 0.57012 0.0
O124 O 0.54694 0.45996 0.36105 0.0
O125 O 0.50511 0.4772 0.32574 0.0
O126 O 0.57259 0.50793 0.49614 0.0
O127 O 0.53963 0.49061 0.58936 0.0
O128 O 0.49805 0.46161 0.65978 0.0
O129 O 0.50337 0.44632 0.51541 0.0
C130 C 0.52806 0.56316 0.4894 0.0
C131 C 0.49802 0.43972 0.59877 0.0
Dy132 Dy 0.99352 0.47658 0.60822 0.0
C133 C 0.06037 0.56941 0.41669 0.0
C134 C 0.95544 0.4353 0.70189 0.0
Dy135 Dy 0.02195 0.52824 0.5097 0.0
O136 O 0.96038 0.434 0.61856 0.0
O137 O 0.97159 0.45917 0.73462 0.0
O138 O 0.02356 0.44467 0.53997 0.0
O139 O 0.00749 0.48061 0.46973 0.0
C140 C 0.02404 0.45823 0.46536 0.0
C141 C 0.99102 0.54622 0.65236 0.0
O142 O 0.97716 0.52465 0.44132 0.0
O143 O 0.95216 0.49589 0.5506 0.0
O144 O 0.05734 0.56912 0.50071 0.0
O145 O 0.04211 0.54726 0.38299 0.0
O146 O 0.99173 0.56006 0.57819 0.0
O147 O 0.00794 0.52417 0.6482 0.0
O148 O 0.03863 0.4801 0.6753 0.0
O149 O 0.06325 0.50812 0.56411 0.0
C150 C 0.95147 0.51195 0.47824 0.0
C151 C 0.06422 0.49239 0.63686 0.0
H152 H 0.2319 0.0358 0.13893 0.0
H153 H 0.12856 0.03797 0.48872 0.0
H154 H 0.1831 0.94696 0.08649 0.0
H155 H 0.06532 0.97977 0.33161 0.0
H156 H 0.16713 0.03804 0.37062 0.0
H157 H 0.18864 0.04897 0.23342 0.0
C158 C 0.21166 0.01945 0.14537 0.0
C159 C 0.21101 0.99029 0.10487 0.0
C160 C 0.1446 0.0259 0.3607 0.0
C161 C 0.162 0.00456 0.21549 0.0
C162 C 0.12263 0.02564 0.42861 0.0
C163 C 0.09372 0.0088 0.42007 0.0
C164 C 0.13782 0.00883 0.28374 0.0
C165 C 0.08731 0.99311 0.34086 0.0
C166 C 0.18722 0.0267 0.20062 0.0
C167 C 0.18442 0.96972 0.11651 0.0
N168 N 0.10938 0.99304 0.27643 0.0
N169 N 0.1611 0.97715 0.1711 0.0
H170 H 0.42697 0.15797 0.03916 0.0
H171 H 0.54828 0.08643 0.33794 0.0
H172 H 0.52458 0.18514 0.02575 0.0
H173 H 0.45507 0.04467 0.30905 0.0
H174 H 0.54018 0.12149 0.22008 0.0
H175 H 0.43676 0.11436 0.13051 0.0
C176 C 0.45056 0.15401 0.05302 0.0
C177 C 0.47508 0.1747 0.02362 0.0
C178 C 0.52153 0.10453 0.23898 0.0
C179 C 0.48645 0.12586 0.13138 0.0
C180 C 0.52607 0.08457 0.30684 0.0
C181 C 0.50224 0.06264 0.33428 0.0
C182 C 0.49278 0.10297 0.19844 0.0
C183 C 0.4741 0.06122 0.29047 0.0
C184 C 0.45615 0.12936 0.10591 0.0
C185 C 0.50515 0.16928 0.0457 0.0
N186 N 0.47005 0.0813 0.22544 0.0
N187 N 0.50997 0.14564 0.09917 0.0
H188 H 0.34578 0.52598 0.05319 0.0
H189 H 0.39634 0.47365 0.52389 0.0
H190 H 0.2824 0.50196 0.26582 0.0
H191 H 0.46044 0.51795 0.33673 0.0
H192 H 0.35508 0.47472 0.41872 0.0
H193 H 0.38877 0.51383 0.14463 0.0
C194 C 0.34094 0.51751 0.11843 0.0
C195 C 0.31067 0.51495 0.15237 0.0
C196 C 0.37822 0.48398 0.40025 0.0
C197 C 0.35934 0.50132 0.2571 0.0
C198 C 0.40179 0.48334 0.46029 0.0
C199 C 0.43181 0.4959 0.43922 0.0
C200 C 0.38465 0.49725 0.31828 0.0
C201 C 0.4376 0.50801 0.35562 0.0
C202 C 0.36539 0.51082 0.17074 0.0
C203 C 0.30549 0.50425 0.23753 0.0
N204 N 0.4142 0.50856 0.29834 0.0
N205 N 0.32955 0.49797 0.28701 0.0
H206 H 0.98733 0.34823 0.00559 0.0
H207 H 0.06388 0.41436 0.4433 0.0
H208 H 0.06224 0.30914 0.1286 0.0
H209 H 0.9988 0.46255 0.30355 0.0
H210 H 0.06825 0.37953 0.31826 0.0
H211 H 0.9955 0.39394 0.10154 0.0
C212 C 0.00614 0.34982 0.05101 0.0
C213 C 0.02441 0.32523 0.05888 0.0
C214 C 0.05333 0.39796 0.31404 0.0
C215 C 0.03327 0.37669 0.17064 0.0
C216 C 0.05089 0.41789 0.3855 0.0
C217 C 0.03077 0.44117 0.38401 0.0
C218 C 0.03509 0.4009 0.24076 0.0
C219 C 0.01455 0.44483 0.30739 0.0
C220 C 0.01067 0.37574 0.10619 0.0
C221 C 0.04797 0.32788 0.12004 0.0
N222 N 0.01664 0.42455 0.23932 0.0
N223 N 0.05148 0.35294 0.17424 0.0
H224 H 0.85079 0.07634 0.02059 0.0
H225 H 0.95639 0.96995 0.74324 0.0
H226 H 0.8197 0.97989 0.992 0.0
H227 H 0.92728 0.05537 0.65177 0.0
H228 H 0.92096 0.97322 0.87112 0.0
H229 H 0.89559 0.06846 0.92672 0.0
C230 C 0.85404 0.05323 0.99722 0.0
C231 C 0.83139 0.02877 0.01378 0.0
C232 C 0.92272 0.99129 0.82321 0.0
C233 C 0.88259 0.01968 0.90574 0.0
C234 C 0.94294 0.98955 0.75084 0.0
C235 C 0.9446 0.01244 0.68707 0.0
C236 C 0.90513 0.01665 0.83276 0.0
C237 C 0.92655 0.03721 0.69925 0.0
C238 C 0.87945 0.04884 0.94311 0.0
C239 C 0.8367 0.99931 0.98121 0.0
N240 N 0.90782 0.03879 0.77081 0.0
N241 N 0.86159 0.99561 0.92746 0.0
H242 H 0.48677 0.82257 0.07239 0.0
H243 H 0.57168 0.96344 0.80327 0.0
H244 H 0.58515 0.84507 0.07781 0.0
H245 H 0.48219 0.9174 0.74471 0.0
H246 H 0.57486 0.92867 0.9268 0.0
H247 H 0.48229 0.86715 0.98024 0.0
C248 C 0.50729 0.83772 0.05697 0.0
C249 C 0.5363 0.83042 0.08358 0.0
C250 C 0.5545 0.92639 0.88704 0.0
C251 C 0.5316 0.88079 0.97501 0.0
C252 C 0.55265 0.94619 0.81654 0.0
C253 C 0.52677 0.94315 0.76272 0.0
C254 C 0.53003 0.9038 0.90486 0.0
C255 C 0.50279 0.9204 0.78339 0.0
C256 C 0.50482 0.86286 0.0032 0.0
C257 C 0.56232 0.85028 0.0598 0.0
N258 N 0.505 0.90173 0.85256 0.0
N259 N 0.55943 0.87438 0.00588 0.0
H260 H 0.66987 0.47664 0.04392 0.0
H261 H 0.62678 0.52741 0.56478 0.0
H262 H 0.73672 0.50806 0.84654 0.0
H263 H 0.55985 0.48574 0.74884 0.0
H264 H 0.66638 0.52783 0.67568 0.0
H265 H 0.62825 0.48766 0.94624 0.0
C266 C 0.6757 0.48664 0.9809 0.0
C267 C 0.7066 0.49168 0.95309 0.0
C268 C 0.64298 0.51881 0.69219 0.0
C269 C 0.65948 0.50369 0.84063 0.0
C270 C 0.62038 0.51858 0.62881 0.0
C271 C 0.59005 0.50636 0.64745 0.0
C272 C 0.63526 0.50669 0.77498 0.0
C273 C 0.58299 0.49536 0.73169 0.0
C274 C 0.65204 0.49265 0.92488 0.0
C275 C 0.7131 0.50407 0.87031 0.0
N276 N 0.60545 0.49559 0.79214 0.0
N277 N 0.68978 0.50945 0.81685 0.0
H278 H 0.00935 0.66354 0.10572 0.0
H279 H 0.94447 0.58264 0.67423 0.0
H280 H 0.92155 0.67871 0.9984 0.0
H281 H 0.01745 0.54633 0.81406 0.0
H282 H 0.93391 0.61517 0.80022 0.0
H283 H 0.01114 0.61749 0.01081 0.0
C284 C 0.98998 0.65652 0.06445 0.0
C285 C 0.96528 0.67488 0.05959 0.0
C286 C 0.95196 0.59981 0.80436 0.0
C287 C 0.96751 0.62305 0.94947 0.0
C288 C 0.95797 0.58123 0.73226 0.0
C289 C 0.98188 0.56191 0.73375 0.0
C290 C 0.97051 0.59974 0.8782 0.0
C291 C 0.99872 0.56092 0.81054 0.0
C292 C 0.9911 0.63043 0.00976 0.0
C293 C 0.94102 0.66516 0.00389 0.0
N294 N 0.99311 0.58004 0.87929 0.0
N295 N 0.94297 0.64028 0.95023 0.0
H296 H 0.01166 0.23255 0.1956 0.0
H297 H 0.94351 0.05834 0.24033 0.0
H298 H 0.94367 0.19524 0.01222 0.0
H299 H 0.03925 0.09174 0.27163 0.0
H300 H 0.93398 0.109 0.18216 0.0
H301 H 0.00969 0.18225 0.26358 0.0
C302 C 0.99531 0.21415 0.17193 0.0
C303 C 0.97809 0.21793 0.09746 0.0
C304 C 0.95703 0.10489 0.2012 0.0
C305 C 0.97651 0.16021 0.17321 0.0
C306 C 0.96258 0.07603 0.23317 0.0
C307 C 0.9922 0.07097 0.26093 0.0
C308 C 0.98114 0.12867 0.19962 0.0
C309 C 0.01606 0.09466 0.25124 0.0
C310 C 0.99465 0.18531 0.20972 0.0
C311 C 0.95756 0.19305 0.06904 0.0
N312 N 0.0099 0.12262 0.22279 0.0
N313 N 0.9577 0.16491 0.10605 0.0
H314 H 0.32087 0.90122 0.05077 0.0
H315 H 0.39178 0.92563 0.52002 0.0
H316 H 0.27926 0.94671 0.26944 0.0
H317 H 0.44342 0.90417 0.28757 0.0
H318 H 0.34384 0.91292 0.44163 0.0
H319 H 0.35825 0.88271 0.14933 0.0
C320 C 0.3191 0.90677 0.1196 0.0
C321 C 0.29743 0.92645 0.1511 0.0
C322 C 0.36564 0.91018 0.40844 0.0
C323 C 0.33983 0.90497 0.26409 0.0
C324 C 0.39299 0.91731 0.45324 0.0
C325 C 0.42148 0.91669 0.40927 0.0
C326 C 0.36695 0.90258 0.3192 0.0
C327 C 0.42183 0.90552 0.32313 0.0
C328 C 0.34036 0.89605 0.17583 0.0
C329 C 0.29559 0.93189 0.24149 0.0
N330 N 0.39492 0.89952 0.28017 0.0
N331 N 0.31692 0.92175 0.29442 0.0
H332 H 0.50205 0.2682 0.15424 0.0
H333 H 0.47556 0.44678 0.20015 0.0
H334 H 0.42415 0.30744 0.04616 0.0
H335 H 0.55701 0.40768 0.28585 0.0
H336 H 0.4553 0.3959 0.14642 0.0
H337 H 0.51912 0.31832 0.21837 0.0
C338 C 0.48788 0.28711 0.14678 0.0
C339 C 0.46178 0.28379 0.09428 0.0
C340 C 0.47776 0.39851 0.17604 0.0
C341 C 0.48194 0.34148 0.164 0.0
C342 C 0.48956 0.42763 0.20542 0.0
C343 C 0.51797 0.43135 0.2475 0.0
C344 C 0.4945 0.37302 0.18928 0.0
C345 C 0.53503 0.40578 0.25355 0.0
C346 C 0.49801 0.31591 0.18181 0.0
C347 C 0.44456 0.3092 0.0857 0.0
N348 N 0.52286 0.37758 0.22566 0.0
N349 N 0.45523 0.33717 0.11894 0.0
H350 H 0.20858 0.60559 0.04531 0.0
H351 H 0.06798 0.57662 0.24116 0.0
H352 H 0.23323 0.56376 0.28392 0.0
H353 H 0.11193 0.59951 0.4859 0.0
H354 H 0.11667 0.59227 0.16493 0.0
H355 H 0.1633 0.62351 0.12072 0.0
C356 C 0.20496 0.60077 0.11391 0.0
C357 C 0.22407 0.5819 0.15717 0.0
C358 C 0.11539 0.5951 0.23507 0.0
C359 C 0.17279 0.60273 0.24344 0.0
C360 C 0.08765 0.58593 0.27852 0.0
C361 C 0.08623 0.58636 0.36967 0.0
C362 C 0.14189 0.60394 0.28362 0.0
C363 C 0.11226 0.59859 0.41538 0.0
C364 C 0.17914 0.61104 0.15667 0.0
C365 C 0.21901 0.57769 0.24702 0.0
N366 N 0.13938 0.60593 0.37196 0.0
N367 N 0.19348 0.58748 0.28674 0.0
H368 H 0.93858 0.81236 0.05052 0.0
H369 H 0.07357 0.90535 0.77536 0.0
H370 H 0.01767 0.77068 0.94567 0.0
H371 H 0.99825 0.94732 0.90231 0.0
H372 H 0.05415 0.85579 0.83739 0.0
H373 H 0.95856 0.86139 0.98672 0.0
C374 C 0.95973 0.81343 0.0117 0.0
C375 C 0.97655 0.78762 0.00298 0.0
C376 C 0.04212 0.87593 0.85265 0.0
C377 C 1.00013 0.84366 0.93265 0.0
C378 C 0.05344 0.90429 0.81833 0.0
C379 C 0.03737 0.93034 0.83351 0.0
C380 C 0.01449 0.87374 0.902 0.0
C381 C 0.01132 0.92774 0.88903 0.0
C382 C 0.97139 0.84146 0.97652 0.0
C383 C 1.00394 0.79007 0.95294 0.0
N384 N 1.00044 0.8998 0.9204 0.0
N385 N 0.01513 0.8178 0.92039 0.0
H386 H 0.71847 0.11106 0.04383 0.0
H387 H 0.58915 0.09909 0.80513 0.0
H388 H 0.75325 0.05499 0.83651 0.0
H389 H 0.64478 0.07349 0.58485 0.0
H390 H 0.63558 0.11309 0.88647 0.0
H391 H 0.68081 0.12825 0.94429 0.0
C392 C 0.71837 0.10268 0.97697 0.0
C393 C 0.7384 0.08094 0.949 0.0
C394 C 0.63808 0.10562 0.81943 0.0
C395 C 0.69452 0.09924 0.8358 0.0
C396 C 0.61135 0.0974 0.77304 0.0
C397 C 0.61327 0.08463 0.68904 0.0
C398 C 0.66695 0.10059 0.78167 0.0
C399 C 0.64244 0.08302 0.65 0.0
C400 C 0.69665 0.11223 0.92026 0.0
C401 C 0.73799 0.07152 0.86116 0.0
N402 N 0.6682 0.09014 0.69754 0.0
N403 N 0.71592 0.08021 0.80823 0.0
H404 H 0.48456 0.7274 0.98527 0.0
H405 H 0.53828 0.55987 0.89205 0.0
H406 H 0.57797 0.70373 0.00699 0.0
H407 H 0.4514 0.58625 0.80223 0.0
H408 H 0.54983 0.6116 0.95276 0.0
H409 H 0.46995 0.67594 0.92262 0.0
C410 C 0.50215 0.71171 0.97368 0.0
C411 C 0.53244 0.7195 0.00075 0.0
C412 C 0.52808 0.60602 0.92057 0.0
C413 C 0.51585 0.66077 0.93385 0.0
C414 C 0.52126 0.57636 0.88729 0.0
C415 C 0.49403 0.56904 0.84151 0.0
C416 C 0.50746 0.6284 0.90792 0.0
C417 C 0.47272 0.59115 0.83701 0.0
C418 C 0.49376 0.68227 0.93956 0.0
C419 C 0.55439 0.69838 0.98646 0.0
N420 N 0.48007 0.62013 0.86887 0.0
N421 N 0.54557 0.66975 0.95511 0.0
H422 H 0.7791 0.43792 0.82276 0.0
H423 H 0.90917 0.39761 0.62911 0.0
H424 H 0.80968 0.40177 0.06323 0.0
H425 H 0.94241 0.43378 0.87655 0.0
H426 H 0.85921 0.38151 0.69873 0.0
H427 H 0.82214 0.41764 0.74682 0.0
C428 C 0.79402 0.42472 0.85962 0.0
C429 C 0.79116 0.42271 0.95077 0.0
C430 C 0.87777 0.39219 0.73803 0.0
C431 C 0.8414 0.40014 0.86334 0.0
C432 C 0.90626 0.40129 0.69865 0.0
C433 C 0.92949 0.41781 0.74702 0.0
C434 C 0.87278 0.39962 0.82612 0.0
C435 C 0.92475 0.42169 0.83684 0.0
C436 C 0.81884 0.41311 0.81568 0.0
C437 C 0.81175 0.40531 0.9937 0.0
N438 N 0.89664 0.41312 0.87344 0.0
N439 N 0.83679 0.39586 0.9503 0.0
H440 H 0.07314 0.23081 0.90561 0.0
H441 H 0.016 0.11302 0.52557 0.0
H442 H 0.99669 0.24401 0.74163 0.0
H443 H 0.06221 0.08719 0.75546 0.0
H444 H 0.02183 0.16677 0.57566 0.0
H445 H 0.08364 0.18531 0.81783 0.0
C446 C 0.05974 0.22521 0.84783 0.0
C447 C 0.03414 0.24128 0.83035 0.0
C448 C 0.03103 0.14937 0.61448 0.0
C449 C 0.04526 0.18873 0.73181 0.0
C450 C 0.02772 0.11862 0.58613 0.0
C451 C 0.03831 0.09535 0.63695 0.0
C452 C 0.04541 0.15715 0.69372 0.0
C453 C 0.05335 0.10422 0.71468 0.0
C454 C 0.0653 0.19884 0.79903 0.0
C455 C 0.01686 0.23246 0.75645 0.0
N456 N 0.05634 0.13439 0.74086 0.0
N457 N 0.02237 0.20642 0.71074 0.0
H458 H 0.29946 0.9548 0.8156 0.0
H459 H 0.45292 0.06749 0.7592 0.0
H460 H 0.31764 0.03853 0.96639 0.0
H461 H 0.42698 0.99425 0.57579 0.0
H462 H 0.40167 0.05976 0.82771 0.0
H463 H 0.34313 0.97113 0.71832 0.0
C464 C 0.31205 0.97718 0.82624 0.0
C465 C 0.30467 0.99559 0.89828 0.0
C466 C 0.40701 0.04541 0.77215 0.0
C467 C 0.3556 0.0139 0.7895 0.0
C468 C 0.43635 0.0498 0.7329 0.0
C469 C 0.44459 0.03086 0.66288 0.0
C470 C 0.38558 0.02171 0.74177 0.0
C471 C 0.42201 0.00858 0.63127 0.0
C472 C 0.33719 0.98637 0.77127 0.0
C473 C 0.32222 0.02395 0.91068 0.0
N474 N 0.3937 0.00433 0.67154 0.0
N475 N 0.34714 0.03202 0.85774 0.0
H476 H 0.43 0.25649 0.74625 0.0
H477 H 0.51889 0.41555 0.74605 0.0
H478 H 0.52455 0.26694 0.8266 0.0
H479 H 0.47082 0.38926 0.50966 0.0
H480 H 0.5159 0.36113 0.78622 0.0
H481 H 0.44001 0.30312 0.65836 0.0
C482 C 0.45334 0.26747 0.74104 0.0
C483 C 0.47656 0.25767 0.79329 0.0
C484 C 0.50614 0.36728 0.72534 0.0
C485 C 0.48751 0.31198 0.69818 0.0
C486 C 0.50748 0.39832 0.70295 0.0
C487 C 0.49489 0.40692 0.62477 0.0
C488 C 0.49132 0.34464 0.67051 0.0
C489 C 0.48074 0.38354 0.57068 0.0
C490 C 0.45887 0.29443 0.6923 0.0
C491 C 0.50614 0.27347 0.78648 0.0
N492 N 0.47882 0.35343 0.59526 0.0
N493 N 0.51049 0.3005 0.7428 0.0
H494 H 0.24634 0.54142 0.82157 0.0
H495 H 0.07686 0.45912 0.78034 0.0
H496 H 0.20778 0.47141 0.99724 0.0
H497 H 0.1211 0.51872 0.58379 0.0
H498 H 0.12659 0.45825 0.85102 0.0
H499 H 0.20409 0.52737 0.72153 0.0
C500 C 0.2297 0.52208 0.83696 0.0
C501 C 0.23073 0.5072 0.91688 0.0
C502 C 0.12551 0.4712 0.7918 0.0
C503 C 0.18131 0.49211 0.8055 0.0
C504 C 0.09704 0.47181 0.75153 0.0
C505 C 0.09461 0.48931 0.67645 0.0
C506 C 0.15178 0.48846 0.75735 0.0
C507 C 0.1217 0.50508 0.64189 0.0
C508 C 0.20528 0.51436 0.7806 0.0
C509 C 0.20805 0.48301 0.93538 0.0
N510 N 0.14899 0.50457 0.68311 0.0
N511 N 0.18391 0.47663 0.88101 0.0
H512 H 0.92736 0.75884 0.33583 0.0
H513 H 0.01567 0.91374 0.33815 0.0
H514 H 0.02531 0.76216 0.28721 0.0
H515 H 0.97399 0.89254 0.58994 0.0
H516 H 0.01046 0.85843 0.30067 0.0
H517 H 0.93557 0.8062 0.42488 0.0
C518 C 0.95077 0.76831 0.34871 0.0
C519 C 0.9757 0.7566 0.30363 0.0
C520 C 1.00246 0.86602 0.36407 0.0
C521 C 0.98492 0.81153 0.40023 0.0
C522 C 0.00504 0.89749 0.38499 0.0
C523 C 0.99506 0.90769 0.46696 0.0
C524 C 0.98903 0.84467 0.42448 0.0
C525 C 0.98189 0.88554 0.52592 0.0
C526 C 0.95535 0.79573 0.39789 0.0
C527 C 0.00549 0.77037 0.32097 0.0
N528 N 0.97878 0.855 0.50311 0.0
N529 N 0.00919 0.79794 0.36429 0.0
H530 H 0.72815 0.97161 0.14873 0.0
H531 H 0.57759 0.95993 0.2925 0.0
H532 H 0.73252 0.05897 0.28571 0.0
H533 H 0.6086 0.00774 0.52739 0.0
H534 H 0.6301 0.96588 0.23378 0.0
H535 H 0.68218 0.95402 0.23639 0.0
C536 C 0.72014 0.98663 0.19964 0.0
C537 C 0.73425 0.0167 0.21031 0.0
C538 C 0.62569 0.97465 0.29881 0.0
C539 C 0.68083 0.99737 0.30812 0.0
C540 C 0.59552 0.97156 0.33225 0.0
C541 C 0.58845 0.9837 0.41483 0.0
C542 C 0.64931 0.99047 0.34743 0.0
C543 C 0.61285 0.9985 0.46294 0.0
C544 C 0.69353 0.97686 0.24846 0.0
C545 C 0.72241 0.03551 0.27599 0.0
N546 N 0.64212 1.00202 0.42786 0.0
N547 N 0.69622 0.0257 0.32174 0.0
H548 H 0.50666 0.74807 0.34417 0.0
H549 H 0.56852 0.58802 0.36412 0.0
H550 H 0.60125 0.73647 0.27551 0.0
H551 H 0.50451 0.61367 0.56477 0.0
H552 H 0.57931 0.64265 0.32735 0.0
H553 H 0.50445 0.70122 0.43133 0.0
C554 C 0.52757 0.7368 0.35186 0.0
C555 C 0.55417 0.74622 0.30223 0.0
C556 C 0.56316 0.63633 0.38012 0.0
C557 C 0.55121 0.69153 0.39698 0.0
C558 C 0.55678 0.60513 0.40052 0.0
C559 C 0.53551 0.59621 0.46738 0.0
C560 C 0.54756 0.65879 0.42519 0.0
C561 C 0.52113 0.61949 0.51279 0.0
C562 C 0.52608 0.70959 0.4 0.0
C563 C 0.58034 0.73011 0.31301 0.0
N564 N 0.52699 0.64963 0.48992 0.0
N565 N 0.57786 0.70292 0.35617 0.0
H566 H 0.76952 0.4654 0.2847 0.0
H567 H 0.93977 0.54596 0.33554 0.0
H568 H 0.81097 0.53395 0.10886 0.0
H569 H 0.89423 0.48489 0.52653 0.0
H570 H 0.89067 0.54717 0.26195 0.0
H571 H 0.81145 0.47857 0.38645 0.0
C572 C 0.78675 0.48425 0.26954 0.0
C573 C 0.78658 0.49899 0.18914 0.0
C574 C 0.89131 0.53378 0.32053 0.0
C575 C 0.83562 0.51307 0.30269 0.0
C576 C 0.91943 0.53299 0.36252 0.0
C577 C 0.92133 0.51501 0.43696 0.0
C578 C 0.86481 0.51627 0.35259 0.0
C579 C 0.89403 0.49891 0.46905 0.0
C580 C 0.81099 0.49145 0.32691 0.0
C581 C 0.81001 0.5225 0.17104 0.0
N582 N 0.86706 0.49965 0.42622 0.0
N583 N 0.8339 0.52842 0.22654 0.0
loop_
_geom_bond_atom_site_label_1
_geom_bond_atom_site_label_2
_geom_bond_distance
_geom_bond_site_symmetry_2
_ccdc_geom_bond_type
H0 C3 0.931 . S
H1 C6 0.928 . S
H2 C8 0.930 . S
C3 H0 0.931 . S
C3 C4 1.413 . S
C3 C5 1.360 1_554 S
C4 C3 1.413 . S
C4 C8 1.429 . S
C5 C3 1.360 1_556 S
C5 C6 1.372 . S
C6 H1 0.928 . S
C6 C5 1.372 . S
C6 C7 1.404 1_556 S
C7 C6 1.404 1_554 S
C7 C8 1.391 . S
C8 H2 0.930 . S
C8 C4 1.429 . S
C8 C7 1.391 . S
H9 C12 0.931 . S
H10 C15 0.928 . S
H11 C17 0.930 . S
C12 H9 0.931 . S
C12 C13 1.413 . S
C12 C14 1.360 1_554 S
C13 C12 1.413 . S
C13 C17 1.429 . S
C14 C12 1.360 1_556 S
C14 C15 1.372 . S
C15 H10 0.928 . S
C15 C14 1.372 . S
C15 C16 1.404 1_556 S
C16 C15 1.404 1_554 S
C16 C17 1.391 . S
C17 H11 0.930 . S
C17 C13 1.429 . S
C17 C16 1.391 . S
H18 C21 0.931 . S
H19 C24 0.928 . S
H20 C26 0.932 . S
C21 H18 0.931 . S
C21 C22 1.414 . S
C21 C23 1.360 1_554 S
C22 C21 1.414 . S
C22 C26 1.430 1_565 S
C23 C21 1.360 1_556 S
C23 C24 1.374 . S
C24 H19 0.928 . S
C24 C23 1.374 . S
C24 C25 1.403 1_556 S
C25 C24 1.403 1_554 S
C25 C26 1.390 1_565 S
C26 H20 0.932 . S
C26 C22 1.430 1_545 S
C26 C25 1.390 1_545 S
H27 C30 0.931 . S
H28 C33 0.928 . S
H29 C35 0.930 . S
C30 H27 0.931 . S
C30 C31 1.413 . S
C30 C32 1.360 . S
C31 C30 1.413 . S
C31 C35 1.429 1_554 S
C32 C30 1.360 . S
C32 C33 1.372 . S
C33 H28 0.928 . S
C33 C32 1.372 . S
C33 C34 1.404 . S
C34 C33 1.404 . S
C34 C35 1.391 1_554 S
C35 H29 0.930 . S
C35 C31 1.429 1_556 S
C35 C34 1.391 1_556 S
H36 C39 0.931 . S
H37 C42 0.928 . S
H38 C44 0.930 . S
C39 H36 0.931 . S
C39 C40 1.413 1_554 S
C39 C41 1.360 . S
C40 C39 1.413 1_556 S
C40 C44 1.429 . S
C41 C39 1.360 . S
C41 C42 1.372 . S
C42 H37 0.928 . S
C42 C41 1.372 . S
C42 C43 1.404 . S
C43 C42 1.404 . S
C43 C44 1.391 1_554 S
C44 H38 0.930 . S
C44 C40 1.429 . S
C44 C43 1.391 1_556 S
H45 C48 0.931 . S
H46 C51 0.928 . S
H47 C53 0.930 1_556 S
C48 H45 0.931 . S
C48 C49 1.413 1_554 S
C48 C50 1.360 . S
C49 C48 1.413 1_556 S
C49 C53 1.429 1_556 S
C50 C48 1.360 . S
C50 C51 1.372 . S
C51 H46 0.928 . S
C51 C50 1.372 . S
C51 C52 1.404 . S
C52 C51 1.404 . S
C52 C53 1.391 . S
C53 H47 0.930 1_554 S
C53 C49 1.429 1_554 S
C53 C52 1.391 . S
H54 C57 0.930 . S
H55 C60 0.928 . S
H56 C62 0.928 . S
C57 H54 0.930 . S
C57 C58 1.413 1_554 S
C57 C59 1.360 . S
C58 C57 1.413 1_556 S
C58 C62 1.428 1_565 S
C59 C57 1.360 . S
C59 C60 1.371 . S
C60 H55 0.928 . S
C60 C59 1.371 . S
C60 C61 1.404 . S
C61 C60 1.404 . S
C61 C62 1.391 1_564 S
C62 H56 0.928 . S
C62 C58 1.428 1_545 S
C62 C61 1.391 1_546 S
H63 C66 0.931 1_556 S
H64 C69 0.928 . S
H65 C71 0.930 . S
C66 H63 0.931 1_554 S
C66 C67 1.413 . S
C66 C68 1.360 1_554 S
C67 C66 1.413 . S
C67 C71 1.429 . S
C68 C66 1.360 1_556 S
C68 C69 1.372 . S
C69 H64 0.928 . S
C69 C68 1.372 . S
C69 C70 1.404 1_556 S
C70 C69 1.404 1_554 S
C70 C71 1.391 . S
C71 H65 0.930 . S
C71 C67 1.429 . S
C71 C70 1.391 . S
Dy72 O76 2.398 . S
Dy72 O77 2.491 1_455 S
Dy72 O78 2.403 . S
Dy72 O79 2.664 1_565 S
Dy72 O83 2.326 . S
Dy72 O87 2.310 1_455 S
Dy72 O88 2.351 1_565 S
C73 O84 1.185 1_455 S
C73 O85 1.355 . S
C74 O76 1.185 . S
C74 O77 1.355 1_455 S
Dy75 O79 2.310 1_655 S
Dy75 O82 2.351 1_545 S
Dy75 O84 2.398 . S
Dy75 O85 2.491 1_655 S
Dy75 O86 2.403 . S
Dy75 O87 2.664 1_545 S
Dy75 O89 2.326 1_655 S
O76 Dy72 2.398 . S
O76 C74 1.185 . S
O77 Dy72 2.491 1_655 S
O77 C74 1.355 1_655 S
O78 Dy72 2.403 . S
O78 C80 1.254 . S
O79 Dy72 2.664 1_545 S
O79 Dy75 2.310 1_455 S
O79 C80 1.268 1_545 S
C80 O78 1.254 . S
C80 O79 1.268 1_565 S
C81 O86 1.254 . S
C81 O87 1.268 1_545 S
O82 Dy75 2.351 1_565 S
O82 C90 1.249 . S
O83 Dy72 2.326 . S
O83 C90 1.267 1_455 S
O84 C73 1.185 1_655 S
O84 Dy75 2.398 . S
O85 C73 1.355 . S
O85 Dy75 2.491 1_455 S
O86 Dy75 2.403 . S
O86 C81 1.254 . S
O87 Dy72 2.310 1_655 S
O87 Dy75 2.664 1_565 S
O87 C81 1.268 1_565 S
O88 Dy72 2.351 1_545 S
O88 C91 1.249 . S
O89 Dy75 2.326 1_455 S
O89 C91 1.267 . S
C90 O82 1.249 . S
C90 O83 1.267 1_655 S
C91 O88 1.249 . S
C91 O89 1.267 . S
Dy92 O96 2.398 . S
Dy92 O97 2.491 . S
Dy92 O98 2.403 . S
Dy92 O99 2.664 . S
Dy92 O103 2.326 1_565 S
Dy92 O107 2.310 1_565 S
Dy92 O108 2.351 . S
C93 O104 1.185 . S
C93 O105 1.355 . S
C94 O96 1.185 . S
C94 O97 1.355 . S
Dy95 O99 2.310 1_545 S
Dy95 O102 2.351 . S
Dy95 O104 2.398 . S
Dy95 O105 2.491 . S
Dy95 O106 2.403 . S
Dy95 O107 2.664 . S
Dy95 O109 2.326 1_545 S
O96 Dy92 2.398 . S
O96 C94 1.185 . S
O97 Dy92 2.491 . S
O97 C94 1.355 . S
O98 Dy92 2.403 . S
O98 C100 1.254 . S
O99 Dy92 2.664 . S
O99 Dy95 2.310 1_565 S
O99 C100 1.268 . S
C100 O98 1.254 . S
C100 O99 1.268 . S
C101 O106 1.254 . S
C101 O107 1.268 . S
O102 Dy95 2.351 . S
O102 C110 1.249 . S
O103 Dy92 2.326 1_545 S
O103 C110 1.267 . S
O104 C93 1.185 . S
O104 Dy95 2.398 . S
O105 C93 1.355 . S
O105 Dy95 2.491 . S
O106 Dy95 2.403 . S
O106 C101 1.254 . S
O107 Dy92 2.310 1_545 S
O107 Dy95 2.664 . S
O107 C101 1.268 . S
O108 Dy92 2.351 . S
O108 C111 1.249 . S
O109 Dy95 2.326 1_565 S
O109 C111 1.267 . S
C110 O102 1.249 . S
C110 O103 1.267 . S
C111 O108 1.249 . S
C111 O109 1.267 . S
Dy112 O116 2.398 . S
Dy112 O117 2.491 . S
Dy112 O118 2.403 . S
Dy112 O119 2.664 . S
Dy112 O123 2.326 . S
Dy112 O127 2.310 . S
Dy112 O128 2.351 . S
C113 O124 1.185 . S
C113 O125 1.355 . S
C114 O116 1.185 . S
C114 O117 1.355 . S
Dy115 O119 2.310 . S
Dy115 O122 2.351 . S
Dy115 O124 2.398 . S
Dy115 O125 2.491 . S
Dy115 O126 2.403 . S
Dy115 O127 2.664 . S
Dy115 O129 2.326 . S
O116 Dy112 2.398 . S
O116 C114 1.185 . S
O117 Dy112 2.491 . S
O117 C114 1.355 . S
O118 Dy112 2.403 . S
O118 C120 1.254 . S
O119 Dy112 2.664 . S
O119 Dy115 2.310 . S
O119 C120 1.268 . S
C120 O118 1.254 . S
C120 O119 1.268 . S
C121 O126 1.254 . S
C121 O127 1.268 . S
O122 Dy115 2.351 . S
O122 C130 1.249 . S
O123 Dy112 2.326 . S
O123 C130 1.267 . S
O124 C113 1.185 . S
O124 Dy115 2.398 . S
O125 C113 1.355 . S
O125 Dy115 2.491 . S
O126 Dy115 2.403 . S
O126 C121 1.254 . S
O127 Dy112 2.310 . S
O127 Dy115 2.664 . S
O127 C121 1.268 . S
O128 Dy112 2.351 . S
O128 C131 1.249 . S
O129 Dy115 2.326 . S
O129 C131 1.267 . S
C130 O122 1.249 . S
C130 O123 1.267 . S
C131 O128 1.249 . S
C131 O129 1.267 . S
Dy132 O136 2.398 . S
Dy132 O137 2.491 . S
Dy132 O138 2.403 . S
Dy132 O139 2.664 1_655 S
Dy132 O143 2.326 . S
Dy132 O147 2.310 . S
Dy132 O148 2.351 1_655 S
C133 O144 1.185 . S
C133 O145 1.355 . S
C134 O136 1.185 . S
C134 O137 1.355 . S
Dy135 O139 2.310 . S
Dy135 O142 2.351 1_455 S
Dy135 O144 2.398 . S
Dy135 O145 2.491 . S
Dy135 O146 2.403 . S
Dy135 O147 2.664 1_455 S
Dy135 O149 2.326 . S
O136 Dy132 2.398 . S
O136 C134 1.185 . S
O137 Dy132 2.491 . S
O137 C134 1.355 . S
O138 Dy132 2.403 . S
O138 C140 1.254 1_655 S
O139 Dy132 2.664 1_455 S
O139 Dy135 2.310 . S
O139 C140 1.268 . S
C140 O138 1.254 1_455 S
C140 O139 1.268 . S
C141 O146 1.254 1_655 S
C141 O147 1.268 . S
O142 Dy135 2.351 1_655 S
O142 C150 1.249 . S
O143 Dy132 2.326 . S
O143 C150 1.267 . S
O144 C133 1.185 . S
O144 Dy135 2.398 . S
O145 C133 1.355 . S
O145 Dy135 2.491 . S
O146 Dy135 2.403 . S
O146 C141 1.254 1_455 S
O147 Dy132 2.310 . S
O147 Dy135 2.664 1_655 S
O147 C141 1.268 . S
O148 Dy132 2.351 1_455 S
O148 C151 1.249 . S
O149 Dy135 2.326 . S
O149 C151 1.267 . S
C150 O142 1.249 . S
C150 O143 1.267 . S
C151 O148 1.249 . S
C151 O149 1.267 . S
H152 C158 0.930 . S
H153 C162 0.930 . S
H154 C167 0.929 . S
H155 C165 0.929 . S
H156 C160 0.929 . S
H157 C166 0.929 . S
C158 H152 0.930 . S
C158 C159 1.370 . S
C158 C166 1.378 . S
C159 C158 1.370 . S
C159 C167 1.430 1_545 S
C160 H156 0.929 . S
C160 C162 1.378 . S
C160 C164 1.350 . S
C161 C164 1.463 . S
C161 C166 1.326 1_565 S
C161 N169 1.453 . S
C162 H153 0.930 . S
C162 C160 1.378 . S
C162 C163 1.367 . S
C163 C162 1.367 . S
C163 C165 1.433 1_565 S
C164 C160 1.350 . S
C164 C161 1.463 . S
C164 N168 1.427 1_565 S
C165 H155 0.929 . S
C165 C163 1.433 1_545 S
C165 N168 1.384 . S
C166 H157 0.929 . S
C166 C158 1.378 . S
C166 C161 1.326 1_545 S
C167 H154 0.929 . S
C167 C159 1.430 1_565 S
C167 N169 1.384 . S
N168 C164 1.427 1_545 S
N168 C165 1.384 . S
N169 C161 1.453 . S
N169 C167 1.384 . S
H170 C176 0.930 . S
H171 C180 0.930 . S
H172 C185 0.929 . S
H173 C183 0.929 . S
H174 C178 0.929 . S
H175 C184 0.929 . S
C176 H170 0.930 . S
C176 C177 1.367 . S
C176 C184 1.378 . S
C177 C176 1.367 . S
C177 C185 1.433 . S
C178 H174 0.929 . S
C178 C180 1.378 . S
C178 C182 1.350 . S
C179 C182 1.463 . S
C179 C184 1.350 . S
C179 N187 1.427 . S
C180 H171 0.930 . S
C180 C178 1.378 . S
C180 C181 1.367 . S
C181 C180 1.367 . S
C181 C183 1.433 . S
C182 C178 1.350 . S
C182 C179 1.463 . S
C182 N186 1.427 . S
C183 H173 0.929 . S
C183 C181 1.433 . S
C183 N186 1.384 . S
C184 H175 0.929 . S
C184 C176 1.378 . S
C184 C179 1.350 . S
C185 H172 0.929 . S
C185 C177 1.433 . S
C185 N187 1.384 . S
N186 C182 1.427 . S
N186 C183 1.384 . S
N187 C179 1.427 . S
N187 C185 1.384 . S
H188 C194 0.930 . S
H189 C198 0.930 . S
H190 C203 0.929 . S
H191 C201 0.929 . S
H192 C196 0.929 . S
H193 C202 0.929 . S
C194 H188 0.930 . S
C194 C195 1.367 . S
C194 C202 1.378 . S
C195 C194 1.367 . S
C195 C203 1.433 . S
C196 H192 0.929 . S
C196 C198 1.378 . S
C196 C200 1.350 . S
C197 C200 1.463 . S
C197 C202 1.350 . S
C197 N205 1.427 . S
C198 H189 0.930 . S
C198 C196 1.378 . S
C198 C199 1.367 . S
C199 C198 1.367 . S
C199 C201 1.433 . S
C200 C196 1.350 . S
C200 C197 1.463 . S
C200 N204 1.427 . S
C201 H191 0.929 . S
C201 C199 1.433 . S
C201 N204 1.384 . S
C202 H193 0.929 . S
C202 C194 1.378 . S
C202 C197 1.350 . S
C203 H190 0.929 . S
C203 C195 1.433 . S
C203 N205 1.384 . S
N204 C200 1.427 . S
N204 C201 1.384 . S
N205 C197 1.427 . S
N205 C203 1.384 . S
H206 C212 0.930 . S
H207 C216 0.930 . S
H208 C221 0.929 . S
H209 C219 0.929 . S
H210 C214 0.929 . S
H211 C220 0.929 . S
C212 H206 0.930 . S
C212 C213 1.367 . S
C212 C220 1.378 . S
C213 C212 1.367 . S
C213 C221 1.433 . S
C214 H210 0.929 . S
C214 C216 1.378 . S
C214 C218 1.350 . S
C215 C218 1.463 . S
C215 C220 1.350 . S
C215 N223 1.427 . S
C216 H207 0.930 . S
C216 C214 1.378 . S
C216 C217 1.367 . S
C217 C216 1.367 . S
C217 C219 1.433 . S
C218 C214 1.350 . S
C218 C215 1.463 . S
C218 N222 1.427 . S
C219 H209 0.929 . S
C219 C217 1.433 . S
C219 N222 1.384 . S
C220 H211 0.929 . S
C220 C212 1.378 . S
C220 C215 1.350 . S
C221 H208 0.929 . S
C221 C213 1.433 . S
C221 N223 1.384 . S
N222 C218 1.427 . S
N222 C219 1.384 . S
N223 C215 1.427 . S
N223 C221 1.384 . S
H224 C230 0.930 . S
H225 C234 0.930 . S
H226 C239 0.929 . S
H227 C237 0.929 . S
H228 C232 0.929 . S
H229 C238 0.929 . S
C230 H224 0.930 . S
C230 C231 1.367 . S
C230 C238 1.378 . S
C231 C230 1.367 . S
C231 C239 1.433 1_545 S
C232 H228 0.929 . S
C232 C234 1.378 . S
C232 C236 1.350 1_565 S
C233 C236 1.463 . S
C233 C238 1.350 . S
C233 N241 1.427 1_545 S
C234 H225 0.930 . S
C234 C232 1.378 . S
C234 C235 1.367 1_565 S
C235 C234 1.367 1_545 S
C235 C237 1.433 . S
C236 C232 1.350 1_545 S
C236 C233 1.463 . S
C236 N240 1.427 . S
C237 H227 0.929 . S
C237 C235 1.433 . S
C237 N240 1.384 . S
C238 H229 0.929 . S
C238 C230 1.378 . S
C238 C233 1.350 . S
C239 H226 0.929 . S
C239 C231 1.433 1_565 S
C239 N241 1.384 . S
N240 C236 1.427 . S
N240 C237 1.384 . S
N241 C233 1.427 1_565 S
N241 C239 1.384 . S
H242 C248 0.930 . S
H243 C252 0.930 . S
H244 C257 0.929 . S
H245 C255 0.929 . S
H246 C250 0.929 . S
H247 C256 0.929 . S
C248 H242 0.930 . S
C248 C249 1.367 . S
C248 C256 1.378 . S
C249 C248 1.367 . S
C249 C257 1.433 1_556 S
C250 H246 0.929 . S
C250 C252 1.378 . S
C250 C254 1.350 . S
C251 C254 1.463 . S
C251 C256 1.350 . S
C251 N259 1.427 . S
C252 H243 0.930 . S
C252 C250 1.378 . S
C252 C253 1.367 . S
C253 C252 1.367 . S
C253 C255 1.433 . S
C254 C250 1.350 . S
C254 C251 1.463 . S
C254 N258 1.427 . S
C255 H245 0.929 . S
C255 C253 1.433 . S
C255 N258 1.384 . S
C256 H247 0.929 . S
C256 C248 1.378 . S
C256 C251 1.350 . S
C257 H244 0.929 . S
C257 C249 1.433 1_554 S
C257 N259 1.384 1_554 S
N258 C254 1.427 . S
N258 C255 1.384 . S
N259 C251 1.427 . S
N259 C257 1.384 1_556 S
H260 C266 0.930 1_554 S
H261 C270 0.930 . S
H262 C275 0.929 . S
H263 C273 0.929 . S
H264 C268 0.929 . S
H265 C274 0.929 . S
C266 H260 0.930 1_556 S
C266 C267 1.367 . S
C266 C274 1.378 . S
C267 C266 1.367 . S
C267 C275 1.433 . S
C268 H264 0.929 . S
C268 C270 1.378 . S
C268 C272 1.350 . S
C269 C272 1.463 . S
C269 C274 1.350 . S
C269 N277 1.427 . S
C270 H261 0.930 . S
C270 C268 1.378 . S
C270 C271 1.367 . S
C271 C270 1.367 . S
C271 C273 1.433 . S
C272 C268 1.350 . S
C272 C269 1.463 . S
C272 N276 1.427 . S
C273 H263 0.929 . S
C273 C271 1.433 . S
C273 N276 1.384 . S
C274 H265 0.929 . S
C274 C266 1.378 . S
C274 C269 1.350 . S
C275 H262 0.929 . S
C275 C267 1.433 . S
C275 N277 1.384 . S
N276 C272 1.427 . S
N276 C273 1.384 . S
N277 C269 1.427 . S
N277 C275 1.384 . S
H278 C284 0.930 1_554 S
H279 C288 0.930 . S
H280 C293 0.929 . S
H281 C291 0.929 . S
H282 C286 0.929 . S
H283 C292 0.929 . S
C284 H278 0.930 1_556 S
C284 C285 1.367 . S
C284 C292 1.378 . S
C285 C284 1.367 . S
C285 C293 1.433 . S
C286 H282 0.929 . S
C286 C288 1.378 . S
C286 C290 1.350 . S
C287 C290 1.463 . S
C287 C292 1.350 . S
C287 N295 1.427 . S
C288 H279 0.930 . S
C288 C286 1.378 . S
C288 C289 1.367 . S
C289 C288 1.367 . S
C289 C291 1.433 . S
C290 C286 1.350 . S
C290 C287 1.463 . S
C290 N294 1.427 . S
C291 H281 0.929 . S
C291 C289 1.433 . S
C291 N294 1.384 . S
C292 H283 0.929 . S
C292 C284 1.378 . S
C292 C287 1.350 . S
C293 H280 0.929 . S
C293 C285 1.433 . S
C293 N295 1.384 . S
N294 C290 1.427 . S
N294 C291 1.384 . S
N295 C287 1.427 . S
N295 C293 1.384 . S
H296 C302 0.930 . S
H297 C306 0.930 . S
H298 C311 0.929 . S
H299 C309 0.929 . S
H300 C304 0.929 . S
H301 C310 0.929 . S
C302 H296 0.930 . S
C302 C303 1.367 . S
C302 C310 1.378 . S
C303 C302 1.367 . S
C303 C311 1.433 . S
C304 H300 0.929 . S
C304 C306 1.378 . S
C304 C308 1.350 . S
C305 C308 1.463 . S
C305 C310 1.350 . S
C305 N313 1.427 . S
C306 H297 0.930 . S
C306 C304 1.378 . S
C306 C307 1.367 . S
C307 C306 1.367 . S
C307 C309 1.433 . S
C308 C304 1.350 . S
C308 C305 1.463 . S
C308 N312 1.427 . S
C309 H299 0.929 . S
C309 C307 1.433 . S
C309 N312 1.384 . S
C310 H301 0.929 . S
C310 C302 1.378 . S
C310 C305 1.350 . S
C311 H298 0.929 . S
C311 C303 1.433 . S
C311 N313 1.384 . S
N312 C308 1.427 . S
N312 C309 1.384 . S
N313 C305 1.427 . S
N313 C311 1.384 . S
H314 C320 0.930 . S
H315 C324 0.930 . S
H316 C329 0.929 . S
H317 C327 0.926 1_545 S
H318 C322 0.929 . S
H319 C328 0.929 . S
C320 H314 0.930 . S
C320 C321 1.367 . S
C320 C328 1.378 . S
C321 C320 1.367 . S
C321 C329 1.433 1_545 S
C322 H318 0.929 . S
C322 C324 1.378 . S
C322 C326 1.350 . S
C323 C326 1.463 . S
C323 C328 1.350 1_565 S
C323 N331 1.427 . S
C324 H315 0.930 . S
C324 C322 1.378 . S
C324 C325 1.367 . S
C325 C324 1.367 . S
C325 C327 1.439 . S
C326 C322 1.350 . S
C326 C323 1.463 . S
C326 N330 1.427 1_565 S
C327 H317 0.926 1_565 S
C327 C325 1.439 . S
C327 N330 1.381 1_565 S
C328 H319 0.929 . S
C328 C320 1.378 . S
C328 C323 1.350 1_545 S
C329 H316 0.929 . S
C329 C321 1.433 1_565 S
C329 N331 1.384 . S
N330 C326 1.427 1_545 S
N330 C327 1.381 1_545 S
N331 C323 1.427 . S
N331 C329 1.384 . S
H332 C338 0.930 . S
H333 C342 0.930 . S
H334 C347 0.929 . S
H335 C345 0.929 . S
H336 C340 0.929 . S
H337 C346 0.929 . S
C338 H332 0.930 . S
C338 C339 1.367 . S
C338 C346 1.378 . S
C339 C338 1.367 . S
C339 C347 1.433 . S
C340 H336 0.929 . S
C340 C342 1.378 . S
C340 C344 1.350 . S
C341 C344 1.463 . S
C341 C346 1.350 . S
C341 N349 1.427 . S
C342 H333 0.930 . S
C342 C340 1.378 . S
C342 C343 1.367 . S
C343 C342 1.367 . S
C343 C345 1.433 . S
C344 C340 1.350 . S
C344 C341 1.463 . S
C344 N348 1.427 . S
C345 H335 0.929 . S
C345 C343 1.433 . S
C345 N348 1.384 . S
C346 H337 0.929 . S
C346 C338 1.378 . S
C346 C341 1.350 . S
C347 H334 0.929 . S
C347 C339 1.433 . S
C347 N349 1.384 . S
N348 C344 1.427 . S
N348 C345 1.384 . S
N349 C341 1.427 . S
N349 C347 1.384 . S
H350 C356 0.930 . S
H351 C360 0.930 . S
H352 C365 0.929 . S
H353 C363 0.929 . S
H354 C358 0.929 . S
H355 C364 0.929 . S
C356 H350 0.930 . S
C356 C357 1.367 . S
C356 C364 1.378 . S
C357 C356 1.367 . S
C357 C365 1.433 . S
C358 H354 0.929 . S
C358 C360 1.378 . S
C358 C362 1.350 . S
C359 C362 1.463 . S
C359 C364 1.350 . S
C359 N367 1.427 . S
C360 H351 0.930 . S
C360 C358 1.378 . S
C360 C361 1.367 . S
C361 C360 1.367 . S
C361 C363 1.433 . S
C362 C358 1.350 . S
C362 C359 1.463 . S
C362 N366 1.427 . S
C363 H353 0.929 . S
C363 C361 1.433 . S
C363 N366 1.384 . S
C364 H355 0.929 . S
C364 C356 1.378 . S
C364 C359 1.350 . S
C365 H352 0.929 . S
C365 C357 1.433 . S
C365 N367 1.384 . S
N366 C362 1.427 . S
N366 C363 1.384 . S
N367 C359 1.427 . S
N367 C365 1.384 . S
H368 C374 0.930 . S
H369 C378 0.930 . S
H370 C383 0.929 1_554 S
H371 C381 0.929 . S
H372 C376 0.929 . S
H373 C382 0.929 . S
C374 H368 0.930 . S
C374 C375 1.367 . S
C374 C382 1.378 . S
C375 C374 1.367 . S
C375 C383 1.433 . S
C376 H372 0.929 . S
C376 C378 1.378 1_655 S
C376 C380 1.350 . S
C377 C380 1.463 . S
C377 C382 1.350 . S
C377 N385 1.427 . S
C378 H369 0.930 . S
C378 C376 1.378 1_455 S
C378 C379 1.367 . S
C379 C378 1.367 . S
C379 C381 1.433 1_455 S
C380 C376 1.350 . S
C380 C377 1.463 . S
C380 N384 1.427 . S
C381 H371 0.929 . S
C381 C379 1.433 1_655 S
C381 N384 1.384 . S
C382 H373 0.929 . S
C382 C374 1.378 . S
C382 C377 1.350 . S
C383 H370 0.929 1_556 S
C383 C375 1.433 . S
C383 N385 1.384 . S
N384 C380 1.427 . S
N384 C381 1.384 . S
N385 C377 1.427 . S
N385 C383 1.384 . S
H386 C392 0.930 . S
H387 C396 0.930 . S
H388 C401 0.929 1_554 S
H389 C399 0.929 . S
H390 C394 0.929 . S
H391 C400 0.929 . S
C392 H386 0.930 . S
C392 C393 1.358 1_545 S
C392 C400 1.378 . S
C393 C392 1.358 1_565 S
C393 C401 1.440 . S
C394 H390 0.929 . S
C394 C396 1.378 . S
C394 C398 1.350 1_565 S
C395 C398 1.463 . S
C395 C400 1.350 . S
C395 N403 1.427 1_545 S
C396 H387 0.930 . S
C396 C394 1.378 . S
C396 C397 1.367 1_565 S
C397 C396 1.367 1_545 S
C397 C399 1.433 . S
C398 C394 1.350 1_545 S
C398 C395 1.463 . S
C398 N402 1.427 . S
C399 H389 0.929 . S
C399 C397 1.433 . S
C399 N402 1.384 . S
C400 H391 0.929 . S
C400 C392 1.378 . S
C400 C395 1.350 . S
C401 H388 0.929 1_556 S
C401 C393 1.440 . S
C401 N403 1.384 . S
N402 C398 1.427 . S
N402 C399 1.384 . S
N403 C395 1.427 1_565 S
N403 C401 1.384 . S
H404 C410 0.930 . S
H405 C414 0.930 . S
H406 C419 0.929 1_554 S
H407 C417 0.929 . S
H408 C412 0.929 . S
H409 C418 0.929 . S
C410 H404 0.930 . S
C410 C411 1.367 . S
C410 C418 1.378 . S
C411 C410 1.367 . S
C411 C419 1.433 . S
C412 H408 0.929 . S
C412 C414 1.378 . S
C412 C416 1.350 . S
C413 C416 1.463 . S
C413 C418 1.350 . S
C413 N421 1.427 . S
C414 H405 0.930 . S
C414 C412 1.378 . S
C414 C415 1.367 . S
C415 C414 1.367 . S
C415 C417 1.433 . S
C416 C412 1.350 . S
C416 C413 1.463 . S
C416 N420 1.427 . S
C417 H407 0.929 . S
C417 C415 1.433 . S
C417 N420 1.384 . S
C418 H409 0.929 . S
C418 C410 1.378 . S
C418 C413 1.350 . S
C419 H406 0.929 1_556 S
C419 C411 1.433 . S
C419 N421 1.384 . S
N420 C416 1.427 . S
N420 C417 1.384 . S
N421 C413 1.427 . S
N421 C419 1.384 . S
H422 C428 0.930 . S
H423 C432 0.930 . S
H424 C437 0.929 . S
H425 C435 0.929 . S
H426 C430 0.929 . S
H427 C436 0.929 . S
C428 H422 0.930 . S
C428 C429 1.367 . S
C428 C436 1.378 . S
C429 C428 1.367 . S
C429 C437 1.433 . S
C430 H426 0.929 . S
C430 C432 1.378 . S
C430 C434 1.350 . S
C431 C434 1.463 . S
C431 C436 1.350 . S
C431 N439 1.427 . S
C432 H423 0.930 . S
C432 C430 1.378 . S
C432 C433 1.367 . S
C433 C432 1.367 . S
C433 C435 1.433 . S
C434 C430 1.350 . S
C434 C431 1.463 . S
C434 N438 1.427 . S
C435 H425 0.929 . S
C435 C433 1.433 . S
C435 N438 1.384 . S
C436 H427 0.929 . S
C436 C428 1.378 . S
C436 C431 1.350 . S
C437 H424 0.929 . S
C437 C429 1.433 . S
C437 N439 1.384 . S
N438 C434 1.427 . S
N438 C435 1.384 . S
N439 C431 1.427 . S
N439 C437 1.384 . S
H440 C446 0.930 . S
H441 C450 0.930 . S
H442 C455 0.929 . S
H443 C453 0.929 . S
H444 C448 0.929 . S
H445 C454 0.929 . S
C446 H440 0.930 . S
C446 C447 1.367 . S
C446 C454 1.378 . S
C447 C446 1.367 . S
C447 C455 1.433 . S
C448 H444 0.929 . S
C448 C450 1.378 . S
C448 C452 1.350 . S
C449 C452 1.463 . S
C449 C454 1.350 . S
C449 N457 1.427 . S
C450 H441 0.930 . S
C450 C448 1.378 . S
C450 C451 1.367 . S
C451 C450 1.367 . S
C451 C453 1.433 . S
C452 C448 1.350 . S
C452 C449 1.463 . S
C452 N456 1.427 . S
C453 H443 0.929 . S
C453 C451 1.433 . S
C453 N456 1.384 . S
C454 H445 0.929 . S
C454 C446 1.378 . S
C454 C449 1.350 . S
C455 H442 0.929 . S
C455 C447 1.433 . S
C455 N457 1.384 . S
N456 C452 1.427 . S
N456 C453 1.384 . S
N457 C449 1.427 . S
N457 C455 1.384 . S
H458 C464 0.930 . S
H459 C468 0.930 . S
H460 C473 0.929 . S
H461 C471 0.929 . S
H462 C466 0.929 . S
H463 C472 0.929 . S
C464 H458 0.930 . S
C464 C465 1.364 1_565 S
C464 C472 1.378 . S
C465 C464 1.364 1_545 S
C465 C473 1.436 . S
C466 H462 0.929 . S
C466 C468 1.378 . S
C466 C470 1.350 . S
C467 C470 1.463 . S
C467 C472 1.350 1_545 S
C467 N475 1.427 . S
C468 H459 0.930 . S
C468 C466 1.378 . S
C468 C469 1.367 . S
C469 C468 1.367 . S
C469 C471 1.433 1_545 S
C470 C466 1.350 . S
C470 C467 1.463 . S
C470 N474 1.427 1_545 S
C471 H461 0.929 . S
C471 C469 1.433 1_565 S
C471 N474 1.384 . S
C472 H463 0.929 . S
C472 C464 1.378 . S
C472 C467 1.350 1_565 S
C473 H460 0.929 . S
C473 C465 1.436 . S
C473 N475 1.384 . S
N474 C470 1.427 1_565 S
N474 C471 1.384 . S
N475 C467 1.427 . S
N475 C473 1.384 . S
H476 C482 0.930 . S
H477 C486 0.930 . S
H478 C491 0.929 . S
H479 C489 0.929 . S
H480 C484 0.929 . S
H481 C490 0.929 . S
C482 H476 0.930 . S
C482 C483 1.367 . S
C482 C490 1.378 . S
C483 C482 1.367 . S
C483 C491 1.433 . S
C484 H480 0.929 . S
C484 C486 1.378 . S
C484 C488 1.350 . S
C485 C488 1.463 . S
C485 C490 1.350 . S
C485 N493 1.427 . S
C486 H477 0.930 . S
C486 C484 1.378 . S
C486 C487 1.367 . S
C487 C486 1.367 . S
C487 C489 1.433 . S
C488 C484 1.350 . S
C488 C485 1.463 . S
C488 N492 1.427 . S
C489 H479 0.929 . S
C489 C487 1.433 . S
C489 N492 1.384 . S
C490 H481 0.929 . S
C490 C482 1.378 . S
C490 C485 1.350 . S
C491 H478 0.929 . S
C491 C483 1.433 . S
C491 N493 1.384 . S
N492 C488 1.427 . S
N492 C489 1.384 . S
N493 C485 1.427 . S
N493 C491 1.384 . S
H494 C500 0.930 . S
H495 C504 0.930 . S
H496 C509 0.929 . S
H497 C507 0.929 . S
H498 C502 0.929 . S
H499 C508 0.929 . S
C500 H494 0.930 . S
C500 C501 1.367 . S
C500 C508 1.378 . S
C501 C500 1.367 . S
C501 C509 1.433 . S
C502 H498 0.929 . S
C502 C504 1.378 . S
C502 C506 1.350 . S
C503 C506 1.463 . S
C503 C508 1.350 . S
C503 N511 1.427 . S
C504 H495 0.930 . S
C504 C502 1.378 . S
C504 C505 1.367 . S
C505 C504 1.367 . S
C505 C507 1.433 . S
C506 C502 1.350 . S
C506 C503 1.463 . S
C506 N510 1.427 . S
C507 H497 0.929 . S
C507 C505 1.433 . S
C507 N510 1.384 . S
C508 H499 0.929 . S
C508 C500 1.378 . S
C508 C503 1.350 . S
C509 H496 0.929 . S
C509 C501 1.433 . S
C509 N511 1.384 . S
N510 C506 1.427 . S
N510 C507 1.384 . S
N511 C503 1.427 . S
N511 C509 1.384 . S
H512 C518 0.930 . S
H513 C522 0.930 . S
H514 C527 0.929 . S
H515 C525 0.929 . S
H516 C520 0.929 . S
H517 C526 0.929 . S
C518 H512 0.930 . S
C518 C519 1.367 . S
C518 C526 1.378 . S
C519 C518 1.367 . S
C519 C527 1.433 . S
C520 H516 0.929 . S
C520 C522 1.378 . S
C520 C524 1.350 . S
C521 C524 1.463 . S
C521 C526 1.350 . S
C521 N529 1.427 . S
C522 H513 0.930 . S
C522 C520 1.378 . S
C522 C523 1.367 . S
C523 C522 1.367 . S
C523 C525 1.433 . S
C524 C520 1.350 . S
C524 C521 1.463 . S
C524 N528 1.427 . S
C525 H515 0.929 . S
C525 C523 1.433 . S
C525 N528 1.384 . S
C526 H517 0.929 . S
C526 C518 1.378 . S
C526 C521 1.350 . S
C527 H514 0.929 . S
C527 C519 1.433 . S
C527 N529 1.384 . S
N528 C524 1.427 . S
N528 C525 1.384 . S
N529 C521 1.427 . S
N529 C527 1.384 . S
H530 C536 0.930 . S
H531 C540 0.930 . S
H532 C545 0.929 . S
H533 C543 0.929 . S
H534 C538 0.928 1_545 S
H535 C544 0.929 . S
C536 H530 0.930 . S
C536 C537 1.369 . S
C536 C544 1.378 . S
C537 C536 1.369 . S
C537 C545 1.431 1_565 S
C538 H534 0.928 1_565 S
C538 C540 1.378 . S
C538 C542 1.350 . S
C539 C542 1.463 . S
C539 C544 1.350 . S
C539 N547 1.426 1_565 S
C540 H531 0.930 . S
C540 C538 1.378 . S
C540 C541 1.367 . S
C541 C540 1.367 . S
C541 C543 1.433 . S
C542 C538 1.350 . S
C542 C539 1.463 . S
C542 N546 1.427 . S
C543 H533 0.929 . S
C543 C541 1.433 . S
C543 N546 1.384 . S
C544 H535 0.929 . S
C544 C536 1.378 . S
C544 C539 1.350 . S
C545 H532 0.929 . S
C545 C537 1.431 1_545 S
C545 N547 1.383 . S
N546 C542 1.427 . S
N546 C543 1.384 . S
N547 C539 1.426 1_545 S
N547 C545 1.383 . S
H548 C554 0.930 . S
H549 C558 0.930 . S
H550 C563 0.929 . S
H551 C561 0.929 . S
H552 C556 0.929 . S
H553 C562 0.929 . S
C554 H548 0.930 . S
C554 C555 1.367 . S
C554 C562 1.378 . S
C555 C554 1.367 . S
C555 C563 1.433 . S
C556 H552 0.929 . S
C556 C558 1.378 . S
C556 C560 1.350 . S
C557 C560 1.463 . S
C557 C562 1.350 . S
C557 N565 1.427 . S
C558 H549 0.930 . S
C558 C556 1.378 . S
C558 C559 1.367 . S
C559 C558 1.367 . S
C559 C561 1.433 . S
C560 C556 1.350 . S
C560 C557 1.463 . S
C560 N564 1.427 . S
C561 H551 0.929 . S
C561 C559 1.433 . S
C561 N564 1.384 . S
C562 H553 0.929 . S
C562 C554 1.378 . S
C562 C557 1.350 . S
C563 H550 0.929 . S
C563 C555 1.433 . S
C563 N565 1.384 . S
N564 C560 1.427 . S
N564 C561 1.384 . S
N565 C557 1.427 . S
N565 C563 1.384 . S
H566 C572 0.930 . S
H567 C576 0.930 . S
H568 C581 0.929 . S
H569 C579 0.929 . S
H570 C574 0.929 . S
H571 C580 0.929 . S
C572 H566 0.930 . S
C572 C573 1.367 . S
C572 C580 1.378 . S
C573 C572 1.367 . S
C573 C581 1.433 . S
C574 H570 0.929 . S
C574 C576 1.378 . S
C574 C578 1.350 . S
C575 C578 1.463 . S
C575 C580 1.350 . S
C575 N583 1.427 . S
C576 H567 0.930 . S
C576 C574 1.378 . S
C576 C577 1.367 . S
C577 C576 1.367 . S
C577 C579 1.433 . S
C578 C574 1.350 . S
C578 C575 1.463 . S
C578 N582 1.427 . S
C579 H569 0.929 . S
C579 C577 1.433 . S
C579 N582 1.384 . S
C580 H571 0.929 . S
C580 C572 1.378 . S
C580 C575 1.350 . S
C581 H568 0.929 . S
C581 C573 1.433 . S
C581 N583 1.384 . S
N582 C578 1.427 . S
N582 C579 1.384 . S
N583 C575 1.427 . S
N583 C581 1.384 . S
C159 C61 1.533 1_545 S
C163 C80 1.579 . S
C181 C110 1.885 . S
C177 C70 1.828 . S
C199 C120 1.567 . S
C195 C43 1.517 . S
C217 C140 1.450 . S
C213 C52 1.371 . S
C235 C81 1.583 . S
C231 C25 1.532 1_546 S
C249 C34 1.814 1_556 S
C253 C111 1.886 . S
C267 C7 1.512 1_556 S
C271 C121 1.568 . S
C285 C16 1.391 1_556 S
C289 C141 1.447 . S
C307 C73 0.751 . S
C303 C50 0.731 . S
C325 C94 0.351 . S
C321 C59 0.380 1_545 S
C343 C113 0.910 . S
C339 C67 0.906 . S
C357 C41 0.639 . S
C361 C133 0.641 . S
C375 C14 0.751 . S
C379 C74 0.738 . S
C397 C93 0.379 . S
C393 C23 0.400 . S
C415 C114 0.910 . S
C411 C31 0.907 1_556 S
C429 C5 0.638 . S
C433 C134 0.643 . S
C447 C49 1.664 . S
C451 C91 1.762 . S
C465 C58 1.327 1_545 S
C469 C101 1.423 . S
C487 C131 1.857 . S
C483 C68 1.756 . S
C505 C151 1.842 . S
C501 C40 1.751 . S
C519 C13 1.681 . S
C523 C90 1.768 . S
C541 C100 1.425 . S
C537 C22 1.330 . S
C559 C130 1.864 . S
C555 C32 1.738 . S
C573 C4 1.740 . S
C577 C150 1.846 . S
