# Generated by pormake.
# Topology ant, (3,6)-cn, num edge types: 1
# Building blocks:
#     Node 0, Type 0, BuildingBlock: KAKCAD_clean_linker_0, # of connection points: 3
#     Node 1, Type 0, BuildingBlock: KAKCAD_clean_linker_0, # of connection points: 3
#     Node 2, Type 0, BuildingBlock: KAKCAD_clean_linker_0, # of connection points: 3
#     Node 3, Type 0, BuildingBlock: KAKCAD_clean_linker_0, # of connection points: 3
#     Node 4, Type 0, BuildingBlock: KAKCAD_clean_linker_0, # of connection points: 3
#     Node 5, Type 0, BuildingBlock: KAKCAD_clean_linker_0, # of connection points: 3
#     Node 6, Type 0, BuildingBlock: KAKCAD_clean_linker_0, # of connection points: 3
#     Node 7, Type 0, BuildingBlock: KAKCAD_clean_linker_0, # of connection points: 3
#     Node 8, Type 1, BuildingBlock: MIDCAF_clean_sbu_0, # of connection points: 6
#     Node 9, Type 1, BuildingBlock: MIDCAF_clean_sbu_0, # of connection points: 6
#     Node 10, Type 1, BuildingBlock: MIDCAF_clean_sbu_0, # of connection points: 6
#     Node 11, Type 1, BuildingBlock: MIDCAF_clean_sbu_0, # of connection points: 6
#     Edge 12, Type (0, 1), BuildingBlock: OJICUG_clean_linker_0, # of connection points: 2
#     Edge 13, Type (0, 1), BuildingBlock: OJICUG_clean_linker_0, # of connection points: 2
#     Edge 14, Type (0, 1), BuildingBlock: OJICUG_clean_linker_0, # of connection points: 2
#     Edge 15, Type (0, 1), BuildingBlock: OJICUG_clean_linker_0, # of connection points: 2
#     Edge 16, Type (0, 1), BuildingBlock: OJICUG_clean_linker_0, # of connection points: 2
#     Edge 17, Type (0, 1), BuildingBlock: OJICUG_clean_linker_0, # of connection points: 2
#     Edge 18, Type (0, 1), BuildingBlock: OJICUG_clean_linker_0, # of connection points: 2
#     Edge 19, Type (0, 1), BuildingBlock: OJICUG_clean_linker_0, # of connection points: 2
#     Edge 20, Type (0, 1), BuildingBlock: OJICUG_clean_linker_0, # of connection points: 2
#     Edge 21, Type (0, 1), BuildingBlock: OJICUG_clean_linker_0, # of connection points: 2
#     Edge 22, Type (0, 1), BuildingBlock: OJICUG_clean_linker_0, # of connection points: 2
#     Edge 23, Type (0, 1), BuildingBlock: OJICUG_clean_linker_0, # of connection points: 2
#     Edge 24, Type (0, 1), BuildingBlock: OJICUG_clean_linker_0, # of connection points: 2
#     Edge 25, Type (0, 1), BuildingBlock: OJICUG_clean_linker_0, # of connection points: 2
#     Edge 26, Type (0, 1), BuildingBlock: OJICUG_clean_linker_0, # of connection points: 2
#     Edge 27, Type (0, 1), BuildingBlock: OJICUG_clean_linker_0, # of connection points: 2
#     Edge 28, Type (0, 1), BuildingBlock: OJICUG_clean_linker_0, # of connection points: 2
#     Edge 29, Type (0, 1), BuildingBlock: OJICUG_clean_linker_0, # of connection points: 2
#     Edge 30, Type (0, 1), BuildingBlock: OJICUG_clean_linker_0, # of connection points: 2
#     Edge 31, Type (0, 1), BuildingBlock: OJICUG_clean_linker_0, # of connection points: 2
#     Edge 32, Type (0, 1), BuildingBlock: OJICUG_clean_linker_0, # of connection points: 2
#     Edge 33, Type (0, 1), BuildingBlock: OJICUG_clean_linker_0, # of connection points: 2
#     Edge 34, Type (0, 1), BuildingBlock: OJICUG_clean_linker_0, # of connection points: 2
#     Edge 35, Type (0, 1), BuildingBlock: OJICUG_clean_linker_0, # of connection points: 2
# Relax obj value: 0.103
# Max RMSD: 0.160
# Mean RMSD: 0.105
data_MOF--net-ant--node1-MIDCAF_clean_sbu_0--node2-KAKCAD_clean_linker_0--edge1-OJICUG_clean_linker_0
_symmetry_space_group_name_H-M    P1
_symmetry_Int_Tables_number       1
_symmetry_cell_setting            triclinic
loop_
_symmetry_equiv_pos_as_xyz
'x, y, z'
_cell_length_a     26.420817
_cell_length_b     26.214037
_cell_length_c     73.753459
_cell_angle_alpha  90.372694
_cell_angle_beta   94.963796
_cell_angle_gamma 89.646651
loop_
_atom_site_label
_atom_site_type_symbol
_atom_site_fract_x
_atom_site_fract_y
_atom_site_fract_z
_atom_type_partial_charge
C0 C 0.16342 0.14812 0.99033 0.0
C1 C 0.18277 0.17653 0.97646 0.0
C2 C 0.17739 0.1601 0.0086 0.0
C3 C 0.20983 0.20143 0.01321 0.0
C4 C 0.22872 0.23003 -0.00067 0.0
C5 C 0.21564 0.21746 0.98113 0.0
C6 C 0.22449 0.2144 0.03247 0.0
C7 C 0.2458 0.17693 0.04424 0.0
C8 C 0.25925 0.18806 0.06266 0.0
C9 C 0.24978 0.23717 0.06942 0.0
C10 C 0.22929 0.27557 0.05761 0.0
C11 C 0.2173 0.26396 0.03911 0.0
C12 C 0.21974 0.32771 0.06452 0.0
C13 C 0.19117 0.33493 0.07949 0.0
C14 C 0.23853 0.37061 0.05601 0.0
C15 C 0.23037 0.41976 0.06276 0.0
C16 C 0.20249 0.42721 0.078 0.0
C17 C 0.28104 0.14674 0.07457 0.0
C18 C 0.25636 0.13132 0.08968 0.0
C19 C 0.32172 0.11727 0.06912 0.0
C20 C 0.3342 0.07066 0.07747 0.0
C21 C 0.30579 0.05228 0.09128 0.0
C22 C 0.26853 0.08439 0.09795 0.0
C23 C 0.18212 0.38405 0.08602 0.0
H24 H 0.1377 0.11675 0.98703 0.0
H25 H 0.16224 0.13766 0.01914 0.0
H26 H 0.25393 0.26187 0.00257 0.0
H27 H 0.23033 0.24055 0.97066 0.0
H28 H 0.25171 0.13874 0.03905 0.0
H29 H 0.20078 0.29307 0.03 0.0
H30 H 0.25936 0.24575 0.08369 0.0
H31 H 0.17542 0.30252 0.08606 0.0
H32 H 0.26072 0.36599 0.04442 0.0
H33 H 0.24737 0.45168 0.05635 0.0
H34 H 0.22478 0.15334 0.09409 0.0
H35 H 0.34175 0.1288 0.05762 0.0
H36 H 0.15933 0.38804 0.09746 0.0
H37 H 0.24555 0.07141 0.10846 0.0
H38 H 0.36371 0.04736 0.07223 0.0
C39 C 0.13837 0.75298 0.24388 0.0
C40 C 0.1098 0.77488 0.22897 0.0
C41 C 0.12501 0.76131 0.26148 0.0
C42 C 0.08293 0.79207 0.26465 0.0
C43 C 0.05256 0.81185 0.24969 0.0
C44 C 0.06589 0.80321 0.23192 0.0
C45 C 0.07321 0.80505 0.28364 0.0
C46 C 0.11412 0.81849 0.29608 0.0
C47 C 0.10777 0.82594 0.31457 0.0
C48 C 0.05925 0.82022 0.32071 0.0
C49 C 0.01715 0.80907 0.30822 0.0
C50 C 0.02451 0.80167 0.2897 0.0
C51 C 0.96544 0.80416 0.31436 0.0
C52 C 0.95674 0.77297 0.32917 0.0
C53 C 0.92418 0.82993 0.30513 0.0
C54 C 0.8753 0.82537 0.31082 0.0
C55 C 0.8666 0.79424 0.32564 0.0
C56 C 0.15373 0.8359 0.32705 0.0
C57 C 0.16992 0.80021 0.34047 0.0
C58 C 0.18727 0.87455 0.32277 0.0
C59 C 0.23774 0.874 0.33015 0.0
C60 C 0.25563 0.83478 0.34196 0.0
C61 C 0.2206 0.79968 0.3479 0.0
C62 C 0.90767 0.76771 0.33467 0.0
H63 H 0.17171 0.72998 0.24193 0.0
H64 H 0.14831 0.74437 0.2727 0.0
H65 H 0.01983 0.83557 0.25177 0.0
H66 H 0.0432 0.82032 0.2206 0.0
H67 H 0.15177 0.82178 0.2914 0.0
H68 H 0.99269 0.79116 0.28016 0.0
H69 H 0.05416 0.82536 0.33503 0.0
H70 H 0.98782 0.75232 0.3364 0.0
H71 H 0.9299 0.85428 0.29368 0.0
H72 H 0.84426 0.84624 0.30366 0.0
H73 H 0.14488 0.76981 0.34388 0.0
H74 H 0.17557 0.90263 0.31251 0.0
H75 H 0.90201 0.74393 0.34627 0.0
H76 H 0.23339 0.76886 0.35691 0.0
H77 H 0.26378 0.90182 0.32549 0.0
C78 C 0.68529 0.66506 0.48737 0.0
C79 C 0.69546 0.70177 0.47442 0.0
C80 C 0.70507 0.67066 0.5055 0.0
C81 C 0.73534 0.71302 0.51092 0.0
C82 C 0.74774 0.74803 0.49773 0.0
C83 C 0.72817 0.74238 0.47968 0.0
C84 C 0.75106 0.72268 0.53041 0.0
C85 C 0.7704 0.68311 0.54169 0.0
C86 C 0.78193 0.6912 0.56044 0.0
C87 C 0.77319 0.73967 0.56796 0.0
C88 C 0.755 0.78014 0.55666 0.0
C89 C 0.74433 0.77128 0.53795 0.0
C90 C 0.74525 0.83155 0.5642 0.0
C91 C 0.71436 0.83751 0.5786 0.0
C92 C 0.76452 0.87524 0.55632 0.0
C93 C 0.75395 0.92395 0.56295 0.0
C94 C 0.72317 0.9302 0.57747 0.0
C95 C 0.79986 0.64731 0.57192 0.0
C96 C 0.77359 0.63297 0.58681 0.0
C97 C 0.83834 0.61505 0.56634 0.0
C98 C 0.84698 0.56722 0.57431 0.0
C99 C 0.817 0.55046 0.58792 0.0
C100 C 0.782 0.5849 0.59472 0.0
C101 C 0.703 0.88622 0.58503 0.0
H102 H 0.6601 0.6335 0.48369 0.0
H103 H 0.69473 0.64318 0.51543 0.0
H104 H 0.77175 0.78046 0.50146 0.0
H105 H 0.73758 0.77066 0.46989 0.0
H106 H 0.77555 0.64552 0.53588 0.0
H107 H 0.72857 0.8019 0.52935 0.0
H108 H 0.78122 0.74604 0.58245 0.0
H109 H 0.69814 0.8045 0.58465 0.0
H110 H 0.78842 0.87162 0.54515 0.0
H111 H 0.77098 0.95654 0.55696 0.0
H112 H 0.74362 0.65705 0.59134 0.0
H113 H 0.85968 0.62559 0.55505 0.0
H114 H 0.67822 0.88927 0.59593 0.0
H115 H 0.7579 0.5732 0.60508 0.0
H116 H 0.87484 0.54202 0.56898 0.0
C117 C 0.61846 0.26728 0.73911 0.0
C118 C 0.58835 0.28874 0.72444 0.0
C119 C 0.61196 0.28202 0.75691 0.0
C120 C 0.57525 0.31869 0.76056 0.0
C121 C 0.54424 0.33966 0.74599 0.0
C122 C 0.55106 0.3251 0.72801 0.0
C123 C 0.57046 0.3346 0.77965 0.0
C124 C 0.61433 0.34547 0.79105 0.0
C125 C 0.61216 0.3536 0.80979 0.0
C126 C 0.56492 0.35084 0.81718 0.0
C127 C 0.52016 0.34211 0.80573 0.0
C128 C 0.5233 0.33441 0.78697 0.0
C129 C 0.47003 0.33853 0.81321 0.0
C130 C 0.46266 0.30458 0.82738 0.0
C131 C 0.42845 0.36689 0.80543 0.0
C132 C 0.38039 0.36159 0.81176 0.0
C133 C 0.37282 0.32705 0.82573 0.0
C134 C 0.66064 0.36097 0.82125 0.0
C135 C 0.67513 0.32728 0.83553 0.0
C136 C 0.69654 0.39569 0.81573 0.0
C137 C 0.74708 0.39324 0.82298 0.0
C138 C 0.76285 0.35601 0.83591 0.0
C139 C 0.72594 0.32482 0.84282 0.0
C140 C 0.41435 0.29854 0.83348 0.0
H141 H 0.64811 0.23984 0.73684 0.0
H142 H 0.63592 0.26469 0.76788 0.0
H143 H 0.51562 0.36801 0.74848 0.0
H144 H 0.52732 0.34221 0.71695 0.0
H145 H 0.65085 0.34569 0.78537 0.0
H146 H 0.48931 0.32545 0.77825 0.0
H147 H 0.56291 0.35609 0.83169 0.0
H148 H 0.49402 0.2819 0.83346 0.0
H149 H 0.4332 0.39324 0.79446 0.0
H150 H 0.34896 0.38399 0.80558 0.0
H151 H 0.64829 0.29992 0.83996 0.0
H152 H 0.68621 0.4224 0.80487 0.0
H153 H 0.40952 0.27205 0.8444 0.0
H154 H 0.73703 0.29557 0.85271 0.0
H155 H 0.77457 0.41818 0.81756 0.0
C156 C 0.05123 0.72554 0.00131 0.0
C157 C 0.08394 0.68439 0.00615 0.0
C158 C 0.03733 0.73643 0.98307 0.0
C159 C 0.0553 0.70599 0.96928 0.0
C160 C 0.08779 0.66458 0.97406 0.0
C161 C 0.10251 0.65421 0.99238 0.0
C162 C 0.03906 0.71694 0.94999 0.0
C163 C 0.04373 0.76615 0.94295 0.0
C164 C 0.02807 0.77677 0.92462 0.0
C165 C 0.0073 0.73696 0.91336 0.0
C166 C 1.00158 0.68783 0.92042 0.0
C167 C 0.0179 0.67819 0.93868 0.0
C168 C 0.98073 0.64503 0.90893 0.0
C169 C 0.94205 0.61463 0.91499 0.0
C170 C 1.00494 0.62924 0.89364 0.0
C171 C 0.99452 0.58123 0.8858 0.0
C172 C 0.95951 0.54839 0.89308 0.0
C173 C 0.03362 0.82928 0.91736 0.0
C174 C 0.02421 0.87259 0.92802 0.0
C175 C 0.04864 0.83662 0.89974 0.0
C176 C 0.05316 0.88579 0.89285 0.0
C177 C 0.0429 0.92899 0.90338 0.0
C178 C 0.029 0.92185 0.92114 0.0
C179 C 0.93126 0.56695 0.90706 0.0
H180 H 0.0371 0.74998 0.01167 0.0
H181 H 0.01204 0.76833 0.97973 0.0
H182 H 0.10225 0.64068 0.96362 0.0
H183 H 0.12806 0.62257 -0.00421 0.0
H184 H 0.0608 0.79585 0.95172 0.0
H185 H 0.01417 0.6402 0.94414 0.0
H186 H 0.99452 0.74427 0.89925 0.0
H187 H 0.92245 0.62635 0.92665 0.0
H188 H 0.03502 0.65197 0.88877 0.0
H189 H 0.01731 0.56817 0.87515 0.0
H190 H 0.01198 0.86848 0.94157 0.0
H191 H 0.05728 0.80433 0.89129 0.0
H192 H 0.90339 0.54308 0.91276 0.0
H193 H 0.02026 0.95429 0.92951 0.0
H194 H 0.06471 0.89001 0.8792 0.0
C195 C 0.72781 0.80875 0.25839 0.0
C196 C 0.69583 0.76792 0.26186 0.0
C197 C 0.73218 0.82471 0.24049 0.0
C198 C 0.70405 0.80055 0.22584 0.0
C199 C 0.67268 0.75943 0.22936 0.0
C200 C 0.66859 0.74337 0.24712 0.0
C201 C 0.70746 0.81708 0.20679 0.0
C202 C 0.75493 0.82392 0.20003 0.0
C203 C 0.75864 0.83239 0.18138 0.0
C204 C 0.71389 0.83576 0.16955 0.0
C205 C 0.66622 0.82967 0.17625 0.0
C206 C 0.6633 0.82065 0.19483 0.0
C207 C 0.61967 0.82486 0.16378 0.0
C208 C 0.59497 0.86771 0.15574 0.0
C209 C 0.5975 0.77671 0.16117 0.0
C210 C 0.55087 0.77134 0.15101 0.0
C211 C 0.52498 0.81411 0.14329 0.0
C212 C 0.8094 0.83165 0.17417 0.0
C213 C 0.85059 0.8576 0.18331 0.0
C214 C 0.81786 0.80159 0.15887 0.0
C215 C 0.86657 0.79677 0.15306 0.0
C216 C 0.90792 0.82207 0.16235 0.0
C217 C 0.89933 0.85304 0.17741 0.0
C218 C 0.54768 0.86243 0.14564 0.0
H219 H 0.74924 0.82837 0.26949 0.0
H220 H 0.75676 0.85646 0.23812 0.0
H221 H 0.65122 0.73947 0.21834 0.0
H222 H 0.64287 0.71242 0.24931 0.0
H223 H 0.78916 0.81892 0.20908 0.0
H224 H 0.62642 0.81467 0.19985 0.0
H225 H 0.71616 0.84103 0.15508 0.0
H226 H 0.61143 0.90528 0.15776 0.0
H227 H 0.61579 0.74328 0.16741 0.0
H228 H 0.53413 0.73372 0.14985 0.0
H229 H 0.84516 0.8811 0.19513 0.0
H230 H 0.78708 0.78054 0.1517 0.0
H231 H 0.52863 0.89605 0.13989 0.0
H232 H 0.93047 0.87294 0.18485 0.0
H233 H 0.87185 0.77328 0.14122 0.0
C234 C 0.53762 0.2084 0.50211 0.0
C235 C 0.57323 0.1695 0.50674 0.0
C236 C 0.52105 0.21767 0.48395 0.0
C237 C 0.53914 0.18773 0.47006 0.0
C238 C 0.57398 0.14811 0.47464 0.0
C239 C 0.59139 0.13945 0.49285 0.0
C240 C 0.52197 0.19826 0.45081 0.0
C241 C 0.52645 0.24736 0.44365 0.0
C242 C 0.51207 0.25718 0.42518 0.0
C243 C 0.49227 0.21698 0.41394 0.0
C244 C 0.48634 0.16803 0.42112 0.0
C245 C 0.50165 0.159 0.43952 0.0
C246 C 0.46724 0.1248 0.40947 0.0
C247 C 0.42903 0.09305 0.41512 0.0
C248 C 0.49199 0.11081 0.39411 0.0
C249 C 0.48242 0.06344 0.3857 0.0
C250 C 0.44749 0.02932 0.39239 0.0
C251 C 0.5188 0.30907 0.41765 0.0
C252 C 0.50661 0.35304 0.42748 0.0
C253 C 0.53805 0.31506 0.40063 0.0
C254 C 0.54421 0.36368 0.39348 0.0
C255 C 0.53102 0.40767 0.40311 0.0
C256 C 0.51264 0.40176 0.4203 0.0
C257 C 0.41888 0.04604 0.40655 0.0
H258 H 0.52369 0.23276 0.51254 0.0
H259 H 0.49407 0.24828 0.48074 0.0
H260 H 0.58861 0.12468 0.46411 0.0
H261 H 0.61912 0.10954 0.49608 0.0
H262 H 0.54288 0.27751 0.45237 0.0
H263 H 0.4983 0.12105 0.44505 0.0
H264 H 0.48073 0.22384 0.3997 0.0
H265 H 0.4089 0.10343 0.42681 0.0
H266 H 0.52172 0.13458 0.38953 0.0
H267 H 0.50567 0.05203 0.37497 0.0
H268 H 0.49133 0.34977 0.44058 0.0
H269 H 0.54886 0.28212 0.39287 0.0
H270 H 0.39089 0.02141 0.41181 0.0
H271 H 0.50153 0.43471 0.42799 0.0
H272 H 0.55942 0.36677 0.38036 0.0
C273 C 0.23259 0.31956 0.75631 0.0
C274 C 0.20096 0.27868 0.76005 0.0
C275 C 0.23646 0.33494 0.73831 0.0
C276 C 0.20821 0.3101 0.72385 0.0
C277 C 0.17738 0.2688 0.72764 0.0
C278 C 0.17373 0.25335 0.74549 0.0
C279 C 0.2108 0.32612 0.70472 0.0
C280 C 0.25787 0.33331 0.6977 0.0
C281 C 0.2607 0.34053 0.67896 0.0
C282 C 0.21569 0.34236 0.66725 0.0
C283 C 0.16838 0.33663 0.67425 0.0
C284 C 0.16623 0.32874 0.69293 0.0
C285 C 0.12125 0.33167 0.66211 0.0
C286 C 0.09513 0.3747 0.65485 0.0
C287 C 0.09941 0.28338 0.65948 0.0
C288 C 0.05154 0.27807 0.65018 0.0
C289 C 0.02412 0.32105 0.64334 0.0
C290 C 0.311 0.33997 0.67158 0.0
C291 C 0.3501 0.37196 0.67896 0.0
C292 C 0.32128 0.3044 0.65805 0.0
C293 C 0.37002 0.30027 0.65221 0.0
C294 C 0.40915 0.33218 0.65958 0.0
C295 C 0.39869 0.3685 0.67285 0.0
C296 C 0.04671 0.36947 0.64558 0.0
H297 H 0.25403 0.33976 0.76726 0.0
H298 H 0.26067 0.36682 0.73573 0.0
H299 H 0.15589 0.24829 0.71677 0.0
H300 H 0.14826 0.22235 0.74788 0.0
H301 H 0.29254 0.32953 0.70661 0.0
H302 H 0.12962 0.32286 0.69818 0.0
H303 H 0.21757 0.34641 0.6527 0.0
H304 H 0.1113 0.41237 0.65693 0.0
H305 H 0.11877 0.24983 0.66521 0.0
H306 H 0.03502 0.24034 0.6491 0.0
H307 H 0.34305 0.3995 0.68948 0.0
H308 H 0.29193 0.27883 0.65234 0.0
H309 H 0.0266 0.40326 0.64047 0.0
H310 H 0.42831 0.39356 0.67869 0.0
H311 H 0.37708 0.27238 0.6418 0.0
Zn312 Zn 0.25256 0.69196 0.13743 0.0
Zn313 Zn 0.14549 0.81262 0.09892 0.0
Zn314 Zn 0.2001 0.74782 0.11771 0.0
C315 C 0.14252 0.72087 0.07917 0.0
C316 C 0.23997 0.85514 0.10234 0.0
O317 O 0.1674 0.74614 0.14433 0.0
O318 O 0.23482 0.71871 0.16127 0.0
C319 C 0.20673 0.62665 0.11261 0.0
O320 O 0.1744 0.70624 0.09234 0.0
O321 O 0.12293 0.76484 0.07929 0.0
O322 O 0.19707 0.86268 0.09392 0.0
O323 O 0.24832 0.81497 0.11218 0.0
O324 O 0.22407 0.62597 0.12909 0.0
O325 O 0.19913 0.67001 0.10457 0.0
O326 O 0.27944 0.77856 0.12125 0.0
O327 O 0.32062 0.70835 0.13 0.0
C328 C 0.32156 0.75399 0.12479 0.0
O329 O 0.13163 0.77111 0.132 0.0
O330 O 0.09469 0.83337 0.11548 0.0
C331 C 0.19063 0.73753 0.1601 0.0
C332 C 0.09595 0.80484 0.12919 0.0
Zn333 Zn 0.52318 0.67487 0.33968 0.0
Zn334 Zn 0.63736 0.82019 0.3946 0.0
Zn335 Zn 0.56963 0.72559 0.36599 0.0
C336 C 0.52938 0.83946 0.38159 0.0
C337 C 0.68109 0.7889 0.36095 0.0
O338 O 0.56077 0.64595 0.37664 0.0
O339 O 0.51951 0.60936 0.35273 0.0
C340 C 0.45843 0.75504 0.3487 0.0
O341 O 0.52509 0.79546 0.37343 0.0
O342 O 0.57073 0.85534 0.38977 0.0
O343 O 0.68287 0.82007 0.3743 0.0
O344 O 0.6445 0.75623 0.35771 0.0
O345 O 0.46174 0.71994 0.33703 0.0
O346 O 0.49515 0.76287 0.361 0.0
O347 O 0.61557 0.72963 0.34269 0.0
O348 O 0.57455 0.68097 0.3218 0.0
C349 C 0.61161 0.70946 0.3267 0.0
O350 O 0.58635 0.67627 0.39012 0.0
O351 O 0.61391 0.75174 0.39269 0.0
C352 C 0.53946 0.60631 0.36889 0.0
C353 C 0.6083 0.71014 0.40029 0.0
Zn354 Zn 0.64649 0.31478 0.59483 0.0
Zn355 Zn 0.74787 0.19452 0.63998 0.0
Zn356 Zn 0.69892 0.25169 0.61597 0.0
C357 C 0.81803 0.26396 0.62901 0.0
C358 C 0.71455 0.12955 0.61151 0.0
O359 O 0.62969 0.27966 0.62854 0.0
O360 O 0.59428 0.33923 0.6104 0.0
C361 C 0.74229 0.35524 0.59873 0.0
O362 O 0.77752 0.2821 0.62032 0.0
O363 O 0.8161 0.22399 0.63834 0.0
O364 O 0.73405 0.12914 0.62773 0.0
O365 O 0.70069 0.17236 0.60395 0.0
O366 O 0.70038 0.36209 0.58953 0.0
O367 O 0.74874 0.31689 0.60958 0.0
O368 O 0.67413 0.20611 0.59138 0.0
O369 O 0.62524 0.26338 0.57629 0.0
C370 C 0.64362 0.21891 0.57755 0.0
O371 O 0.66133 0.25407 0.64181 0.0
O372 O 0.71055 0.20857 0.66146 0.0
C373 C 0.59441 0.31324 0.62472 0.0
C374 C 0.67174 0.2362 0.65796 0.0
Zn375 Zn 0.031 0.19386 0.83953 0.0
Zn376 Zn 0.12743 0.30931 0.88691 0.0
Zn377 Zn 0.07715 0.24756 0.86556 0.0
C378 C 0.12805 0.21367 0.9039 0.0
C379 C 0.03245 0.35098 0.8831 0.0
O380 O 0.12057 0.24691 0.84106 0.0
O381 O 0.08071 0.19446 0.82111 0.0
C382 C 0.04681 0.12901 0.86986 0.0
O383 O 0.09632 0.20177 0.8903 0.0
O384 O 0.14886 0.25686 0.9048 0.0
O385 O 0.07327 0.35611 0.89309 0.0
O386 O 0.02742 0.31402 0.87147 0.0
O387 O 0.02651 0.13119 0.85375 0.0
O388 O 0.06875 0.16897 0.8772 0.0
O389 O 1.00071 0.28256 0.85879 0.0
O390 O 0.9693 0.23704 0.83513 0.0
C391 C 0.96481 0.27328 0.84623 0.0
O392 O 0.15027 0.27316 0.85486 0.0
O393 O 0.18092 0.33599 0.87262 0.0
C394 C 0.11704 0.22433 0.82542 0.0
C395 C 0.18436 0.30754 0.85894 0.0
C396 C 0.19506 0.52378 0.07576 0.0
C397 C 0.19785 0.47902 0.08635 0.0
H398 H 0.19589 0.60576 0.07566 0.0
C399 C 0.19917 0.48412 0.10536 0.0
H400 H 0.19328 0.52153 0.06105 0.0
C401 C 0.19927 0.53211 0.11357 0.0
C402 C 0.19877 0.57684 0.10311 0.0
H403 H 0.20232 0.45107 0.11411 0.0
H404 H 0.20152 0.534 0.12829 0.0
C405 C 0.1957 0.57221 0.08407 0.0
C406 C 0.79064 0.83769 0.33664 0.0
C407 C 0.8156 0.7922 0.33251 0.0
H408 H 0.72825 0.87205 0.34896 0.0
C409 C 0.79314 0.74529 0.33616 0.0
H410 H 0.80726 0.87432 0.33404 0.0
C411 C 0.74737 0.744 0.34441 0.0
C412 C 0.72401 0.7896 0.34943 0.0
H413 H 0.81157 0.70971 0.33298 0.0
H414 H 0.73159 0.70747 0.34766 0.0
C415 C 0.74559 0.83639 0.3452 0.0
C416 C 0.80599 0.47884 0.60997 0.0
C417 C 0.81472 0.49521 0.59237 0.0
H418 H 0.77772 0.41897 0.62602 0.0
C419 C 0.81187 0.45914 0.5781 0.0
H420 H 0.8084 0.50554 0.62127 0.0
C421 C 0.79451 0.4099 0.58086 0.0
C422 C 0.78044 0.39545 0.59796 0.0
H423 H 0.81783 0.47028 0.56433 0.0
H424 H 0.78728 0.38476 0.56921 0.0
C425 C 0.78917 0.42911 0.61276 0.0
C426 C 0.84025 0.33343 0.85707 0.0
C427 C 0.81777 0.34348 0.83944 0.0
H428 H 0.90607 0.30478 0.87319 0.0
C429 C 0.84678 0.33604 0.82453 0.0
H430 H 0.81872 0.33884 0.86879 0.0
C431 C 0.89582 0.31596 0.82702 0.0
C432 C 0.91752 0.30373 0.84448 0.0
H433 H 0.83045 0.34277 0.81077 0.0
H434 H 0.91614 0.30806 0.81515 0.0
C435 C 0.89017 0.31431 0.8596 0.0
C436 C 0.96849 0.47464 0.87132 0.0
C437 C 0.9607 0.49273 0.88889 0.0
H438 H 0.99577 0.41282 0.85547 0.0
C439 C 0.96389 0.45782 0.90337 0.0
H440 H 0.96567 0.50038 0.85984 0.0
C441 C 0.981 0.40809 0.90083 0.0
C442 C 0.99454 0.39201 0.88376 0.0
H443 H 0.95858 0.47018 0.91712 0.0
H444 H 0.98854 0.38385 0.91262 0.0
C445 C 0.98504 0.42437 0.86875 0.0
C446 C 0.97745 0.76872 0.15067 0.0
C447 C 0.95954 0.81666 0.15604 0.0
H448 H 0.0356 0.72747 0.13808 0.0
C449 C 0.99005 0.85981 0.15432 0.0
H450 H 0.95501 0.73473 0.152 0.0
C451 C 0.03625 0.85544 0.14651 0.0
C452 C 0.05319 0.80779 0.14063 0.0
H453 H 0.97706 0.89729 0.15817 0.0
H454 H 0.05793 0.88957 0.14447 0.0
C455 C 0.02378 0.76439 0.14295 0.0
C456 C 0.55092 0.50219 0.40504 0.0
C457 C 0.53404 0.45909 0.39474 0.0
H458 H 0.56587 0.58272 0.40507 0.0
C459 C 0.51904 0.46534 0.37616 0.0
H460 H 0.56291 0.49868 0.41939 0.0
C461 C 0.52114 0.513 0.36802 0.0
C462 C 0.53821 0.55618 0.37818 0.0
H463 H 0.50484 0.43341 0.36787 0.0
H464 H 0.50917 0.5158 0.35364 0.0
C465 C 0.55306 0.55029 0.39682 0.0
C466 C 0.95739 0.27166 0.62463 0.0
C467 C 0.97071 0.31468 0.63545 0.0
H468 H 0.89763 0.22224 0.61401 0.0
C469 C 0.93168 0.34682 0.64084 0.0
H470 H 0.98643 0.24672 0.61992 0.0
C471 C 0.88054 0.33321 0.63706 0.0
C472 C 0.86802 0.28737 0.62789 0.0
H473 H 0.94061 0.38014 0.64924 0.0
H474 H 0.85127 0.3561 0.64263 0.0
C475 C 0.9066 0.25787 0.62108 0.0
C476 C 0.48505 0.28096 0.65218 0.0
C477 C 0.46022 0.3284 0.6529 0.0
H478 H 0.5481 0.23919 0.64296 0.0
C479 C 0.48272 0.37165 0.64598 0.0
H480 H 0.46849 0.24715 0.65756 0.0
C481 C 0.52778 0.36701 0.63749 0.0
C482 C 0.55163 0.31926 0.63614 0.0
H483 H 0.46415 0.40856 0.64633 0.0
H484 H 0.54324 0.40054 0.63152 0.0
C485 C 0.53065 0.27649 0.64398 0.0
C486 C 0.46208 0.76426 0.12312 0.0
C487 C 0.47297 0.80746 0.13411 0.0
H488 H 0.4048 0.71384 0.11135 0.0
C489 C 0.43249 0.83925 0.13846 0.0
H490 H 0.49239 0.73968 0.11915 0.0
C491 C 0.38199 0.82487 0.1336 0.0
C492 C 0.37158 0.77842 0.12449 0.0
H493 H 0.43962 0.87282 0.14691 0.0
H494 H 0.35142 0.84747 0.13847 0.0
C495 C 0.41195 0.74965 0.11852 0.0
C496 C 0.29652 0.36557 0.83839 0.0
C497 C 0.3221 0.32206 0.83266 0.0
H498 H 0.23271 0.39486 0.85129 0.0
C499 C 0.29991 0.27388 0.8343 0.0
H500 H 0.31292 0.4031 0.83733 0.0
C501 C 0.25353 0.26925 0.84199 0.0
C502 C 0.22911 0.31264 0.84843 0.0
H503 H 0.3188 0.23982 0.82985 0.0
H504 H 0.23783 0.23162 0.84357 0.0
C505 C 0.25076 0.36084 0.84639 0.0
C506 C 0.3392 0.8207 0.32953 0.0
C507 C 0.31101 0.82411 0.34481 0.0
H508 H 0.40814 0.796 0.31891 0.0
C509 C 0.33464 0.81089 0.36199 0.0
H510 H 0.32193 0.82994 0.31608 0.0
C511 C 0.3848 0.79232 0.36363 0.0
C512 C 0.41121 0.78543 0.34805 0.0
H513 H 0.31372 0.81311 0.37397 0.0
H514 H 0.40157 0.78013 0.37683 0.0
C515 C 0.3885 0.80107 0.33111 0.0
C516 C 0.71317 0.98701 0.60441 0.0
C517 C 0.71501 0.98181 0.58552 0.0
H518 H 0.71008 0.03708 0.62712 0.0
C519 C 0.71193 0.02641 0.57481 0.0
H520 H 0.71628 0.95413 0.61325 0.0
C521 C 0.70933 0.0749 0.58297 0.0
C522 C 0.70948 0.07964 0.60193 0.0
H523 H 0.71251 0.024 0.56017 0.0
H524 H 0.70957 0.10848 0.57456 0.0
C525 C 0.71013 0.035 0.61244 0.0
C526 C 0.29882 0.98055 0.11357 0.0
C527 C 0.30719 0.99708 0.09596 0.0
H528 H 0.27248 0.91978 0.12965 0.0
C529 C 0.30683 0.96063 0.08184 0.0
H530 H 0.29947 1.00752 0.12478 0.0
C531 C 0.2917 0.91065 0.0847 0.0
C532 C 0.27741 0.89598 0.10174 0.0
H533 H 0.31264 0.9718 0.06807 0.0
H534 H 0.28595 0.88506 0.07311 0.0
C535 C 0.28413 0.93018 0.11645 0.0
C536 C 0.44905 0.93692 0.40087 0.0
C537 C 0.44883 0.97421 0.38719 0.0
H538 H 0.47376 0.86228 0.40935 0.0
C539 C 0.46047 0.95889 0.36967 0.0
H540 H 0.44056 0.94686 0.41455 0.0
C541 C 0.47945 0.90976 0.36675 0.0
C542 C 0.48663 0.87542 0.38125 0.0
H543 H 0.4595 0.98618 0.35869 0.0
H544 H 0.49415 0.90091 0.35382 0.0
C545 C 0.46789 0.88801 0.3979 0.0
C546 C 0.02187 0.98898 0.87764 0.0
C547 C 0.04391 0.98094 0.89538 0.0
H548 H 1.00511 0.04109 0.85599 0.0
C549 C 0.06617 0.02266 0.90515 0.0
H550 H 1.00354 0.95804 0.86985 0.0
C551 C 0.06718 0.0711 0.89711 0.0
C552 C 0.04551 0.0789 0.87926 0.0
H553 H 0.08358 0.01763 0.91887 0.0
H554 H 0.08515 0.10208 0.90479 0.0
C555 C 0.02255 0.03706 0.86975 0.0
C556 C 0.20331 0.16439 0.9444 0.0
C557 C 0.16665 0.16675 0.95706 0.0
H558 H 0.21862 0.17535 0.9167 0.0
C559 C 0.11497 0.16953 0.95075 0.0
H560 H 0.24333 0.16173 0.94896 0.0
C561 C 0.10079 0.17697 0.93221 0.0
C562 C 0.13819 0.18121 0.91991 0.0
H563 H 0.08605 0.1715 0.96028 0.0
H564 H 0.06139 0.18534 0.92788 0.0
C565 C 0.18914 0.17153 0.92594 0.0
C566 C 0.09625 0.75248 0.19568 0.0
C567 C 0.12816 0.76983 0.21066 0.0
H568 H 0.09204 0.72611 0.16799 0.0
C569 C 0.17947 0.77946 0.20844 0.0
H570 H 0.05668 0.74423 0.19713 0.0
C571 C 0.19906 0.77016 0.19181 0.0
C572 C 0.16775 0.75122 0.17699 0.0
H573 H 0.20474 0.79345 0.21971 0.0
H574 H 0.23901 0.77715 0.1906 0.0
C575 C 0.11615 0.74277 0.17899 0.0
C576 C 0.64811 0.74638 0.44859 0.0
C577 C 0.66908 0.70088 0.45586 0.0
H578 H 0.61184 0.78418 0.42549 0.0
C579 C 0.66532 0.65609 0.44517 0.0
H580 H 0.64901 0.78114 0.45664 0.0
C581 C 0.64337 0.65774 0.42713 0.0
C582 C 0.62498 0.70417 0.41972 0.0
H583 H 0.68104 0.62044 0.45052 0.0
H584 H 0.64301 0.62357 0.41881 0.0
C585 C 0.62653 0.74802 0.43077 0.0
C586 C 0.60444 0.31195 0.69242 0.0
C587 C 0.59861 0.27438 0.70561 0.0
H588 H 0.63274 0.32913 0.66672 0.0
C589 C 0.60961 0.22329 0.70151 0.0
H590 H 0.59644 0.35166 0.69523 0.0
C591 C 0.63056 0.21065 0.68537 0.0
C592 C 0.64009 0.24865 0.67285 0.0
H593 H 0.60452 0.19337 0.71124 0.0
H594 H 0.64142 0.17137 0.68303 0.0
C595 C 0.62518 0.29913 0.67613 0.0
C596 C 0.15212 0.67605 0.03177 0.0
C597 C 0.10026 0.67577 0.0256 0.0
H598 H 0.2069 0.68947 0.05451 0.0
C599 C 0.06392 0.67624 0.0384 0.0
H600 H 0.18084 0.67583 0.02213 0.0
C601 C 0.07884 0.68335 0.05683 0.0
C602 C 0.13028 0.69 0.06274 0.0
H603 H 0.02373 0.67546 0.03398 0.0
H604 H 0.04983 0.68903 0.06619 0.0
C605 C 0.16708 0.68337 0.05029 0.0
C606 C 0.67686 0.78955 0.29378 0.0
C607 C 0.68724 0.75259 0.28068 0.0
H608 H 0.64437 0.80446 0.31896 0.0
C609 C 0.68167 0.70073 0.28478 0.0
H610 H 0.6806 0.8298 0.291 0.0
C611 C 0.66086 0.68639 0.30071 0.0
C612 C 0.64611 0.72355 0.31297 0.0
H613 H 0.69039 0.67135 0.27512 0.0
H614 H 0.65345 0.64639 0.30291 0.0
C615 C 0.65626 0.77508 0.30982 0.0
C616 C 0.64626 0.16783 0.53073 0.0
C617 C 0.59373 0.16392 0.52597 0.0
H618 H 0.70423 0.18743 0.55178 0.0
C619 C 0.56043 0.16404 0.5398 0.0
H620 H 0.67269 0.16806 0.52029 0.0
C621 C 0.5786 0.17424 0.55778 0.0
C622 C 0.63027 0.18446 0.56218 0.0
H623 H 0.51983 0.16062 0.53648 0.0
H624 H 0.55152 0.17966 0.56786 0.0
C625 C 0.66441 0.1784 0.54876 0.0
C626 C 0.18643 0.21272 0.78338 0.0
C627 C 0.19244 0.26431 0.77897 0.0
H628 H 0.1578 0.15958 0.80185 0.0
C629 C 0.18248 0.302 0.79187 0.0
H630 H 0.19489 0.18277 0.7739 0.0
C631 C 0.16187 0.28854 0.808 0.0
C632 C 0.15119 0.2373 0.81145 0.0
H633 H 0.18655 0.34207 0.78885 0.0
H634 H 0.15044 0.3185 0.817 0.0
C635 C 0.16551 0.19938 0.79939 0.0
loop_
_geom_bond_atom_site_label_1
_geom_bond_atom_site_label_2
_geom_bond_distance
_geom_bond_site_symmetry_2
_ccdc_geom_bond_type
C0 C1 1.386 . S
C0 C2 1.397 1_556 S
C0 H24 0.931 . S
C1 C0 1.386 . S
C1 C5 1.367 1_556 S
C2 C0 1.397 1_554 S
C2 C3 1.384 . S
C2 H25 0.930 . S
C3 C2 1.384 . S
C3 C4 1.377 . S
C3 C6 1.481 . S
C4 C3 1.377 . S
C4 C5 1.448 . S
C4 H26 0.929 . S
C5 C1 1.367 1_554 S
C5 C4 1.448 . S
C5 H27 0.904 1_554 S
C6 C3 1.481 . S
C6 C7 1.387 . S
C6 C11 1.390 . S
C7 C6 1.387 . S
C7 C8 1.401 . S
C7 H28 0.930 . S
C8 C7 1.401 . S
C8 C9 1.376 . S
C8 C17 1.511 . S
C9 C8 1.376 . S
C9 C10 1.392 . S
C9 H30 0.931 . S
C10 C9 1.392 . S
C10 C11 1.361 . S
C10 C12 1.500 . S
C11 C6 1.390 . S
C11 C10 1.361 . S
C11 H29 0.931 . S
C12 C10 1.500 . S
C12 C13 1.371 . S
C12 C14 1.365 . S
C13 C12 1.371 . S
C13 C23 1.386 . S
C13 H31 0.931 . S
C14 C12 1.365 . S
C14 C15 1.409 . S
C14 H32 0.929 . S
C15 C14 1.409 . S
C15 C16 1.380 . S
C15 H33 0.930 . S
C16 C15 1.380 . S
C16 C23 1.357 . S
C17 C8 1.511 . S
C17 C18 1.341 . S
C17 C19 1.371 . S
C18 C17 1.341 . S
C18 C22 1.394 . S
C18 H34 0.930 . S
C19 C17 1.371 . S
C19 C20 1.392 . S
C19 H35 0.931 . S
C20 C19 1.392 . S
C20 C21 1.331 . S
C20 H38 0.932 . S
C21 C20 1.331 . S
C21 C22 1.336 . S
C22 C18 1.394 . S
C22 C21 1.336 . S
C22 H37 0.929 . S
C23 C13 1.386 . S
C23 C16 1.357 . S
C23 H36 0.928 . S
H24 C0 0.931 . S
H25 C2 0.930 . S
H26 C4 0.929 . S
H27 C5 0.904 1_556 S
H28 C7 0.930 . S
H29 C11 0.931 . S
H30 C9 0.931 . S
H31 C13 0.931 . S
H32 C14 0.929 . S
H33 C15 0.930 . S
H34 C18 0.930 . S
H35 C19 0.931 . S
H36 C23 0.928 . S
H37 C22 0.929 . S
H38 C20 0.932 . S
C39 C40 1.386 . S
C39 C41 1.397 . S
C39 H63 0.931 . S
C40 C39 1.386 . S
C40 C44 1.397 . S
C41 C39 1.397 . S
C41 C42 1.384 . S
C41 H64 0.930 . S
C42 C41 1.384 . S
C42 C43 1.377 . S
C42 C45 1.481 . S
C43 C42 1.377 . S
C43 C44 1.389 . S
C43 H65 0.929 . S
C44 C40 1.397 . S
C44 C43 1.389 . S
C44 H66 0.931 . S
C45 C42 1.481 . S
C45 C46 1.387 . S
C45 C50 1.390 . S
C46 C45 1.387 . S
C46 C47 1.401 . S
C46 H67 0.930 . S
C47 C46 1.401 . S
C47 C48 1.376 . S
C47 C56 1.511 . S
C48 C47 1.376 . S
C48 C49 1.392 . S
C48 H69 0.931 . S
C49 C48 1.392 . S
C49 C50 1.361 . S
C49 C51 1.500 . S
C50 C45 1.390 . S
C50 C49 1.361 . S
C50 H68 0.931 . S
C51 C49 1.500 . S
C51 C52 1.371 . S
C51 C53 1.365 1_455 S
C52 C51 1.371 . S
C52 C62 1.386 1_455 S
C52 H70 0.931 . S
C53 C51 1.365 1_655 S
C53 C54 1.409 . S
C53 H71 0.929 . S
C54 C53 1.409 . S
C54 C55 1.380 . S
C54 H72 0.930 . S
C55 C54 1.380 . S
C55 C62 1.357 . S
C56 C47 1.511 . S
C56 C57 1.341 . S
C56 C58 1.371 . S
C57 C56 1.341 . S
C57 C61 1.394 . S
C57 H73 0.930 . S
C58 C56 1.371 . S
C58 C59 1.392 . S
C58 H74 0.931 . S
C59 C58 1.392 . S
C59 C60 1.331 . S
C59 H77 0.932 . S
C60 C59 1.331 . S
C60 C61 1.336 . S
C61 C57 1.394 . S
C61 C60 1.336 . S
C61 H76 0.929 . S
C62 C52 1.386 1_655 S
C62 C55 1.357 . S
C62 H75 0.928 . S
H63 C39 0.931 . S
H64 C41 0.930 . S
H65 C43 0.929 . S
H66 C44 0.931 . S
H67 C46 0.930 . S
H68 C50 0.931 . S
H69 C48 0.931 . S
H70 C52 0.931 . S
H71 C53 0.929 . S
H72 C54 0.930 . S
H73 C57 0.930 . S
H74 C58 0.931 . S
H75 C62 0.928 . S
H76 C61 0.929 . S
H77 C59 0.932 . S
C78 C79 1.386 . S
C78 C80 1.397 . S
C78 H102 0.931 . S
C79 C78 1.386 . S
C79 C83 1.397 . S
C80 C78 1.397 . S
C80 C81 1.384 . S
C80 H103 0.930 . S
C81 C80 1.384 . S
C81 C82 1.377 . S
C81 C84 1.481 . S
C82 C81 1.377 . S
C82 C83 1.389 . S
C82 H104 0.929 . S
C83 C79 1.397 . S
C83 C82 1.389 . S
C83 H105 0.931 . S
C84 C81 1.481 . S
C84 C85 1.387 . S
C84 C89 1.390 . S
C85 C84 1.387 . S
C85 C86 1.401 . S
C85 H106 0.930 . S
C86 C85 1.401 . S
C86 C87 1.376 . S
C86 C95 1.511 . S
C87 C86 1.376 . S
C87 C88 1.392 . S
C87 H108 0.931 . S
C88 C87 1.392 . S
C88 C89 1.361 . S
C88 C90 1.500 . S
C89 C84 1.390 . S
C89 C88 1.361 . S
C89 H107 0.931 . S
C90 C88 1.500 . S
C90 C91 1.371 . S
C90 C92 1.365 . S
C91 C90 1.371 . S
C91 C101 1.386 . S
C91 H109 0.931 . S
C92 C90 1.365 . S
C92 C93 1.409 . S
C92 H110 0.929 . S
C93 C92 1.409 . S
C93 C94 1.380 . S
C93 H111 0.930 . S
C94 C93 1.380 . S
C94 C101 1.357 . S
C95 C86 1.511 . S
C95 C96 1.341 . S
C95 C97 1.371 . S
C96 C95 1.341 . S
C96 C100 1.394 . S
C96 H112 0.930 . S
C97 C95 1.371 . S
C97 C98 1.392 . S
C97 H113 0.931 . S
C98 C97 1.392 . S
C98 C99 1.331 . S
C98 H116 0.932 . S
C99 C98 1.331 . S
C99 C100 1.336 . S
C100 C96 1.394 . S
C100 C99 1.336 . S
C100 H115 0.929 . S
C101 C91 1.386 . S
C101 C94 1.357 . S
C101 H114 0.928 . S
H102 C78 0.931 . S
H103 C80 0.930 . S
H104 C82 0.929 . S
H105 C83 0.931 . S
H106 C85 0.930 . S
H107 C89 0.931 . S
H108 C87 0.931 . S
H109 C91 0.931 . S
H110 C92 0.929 . S
H111 C93 0.930 . S
H112 C96 0.930 . S
H113 C97 0.931 . S
H114 C101 0.928 . S
H115 C100 0.929 . S
H116 C98 0.932 . S
C117 C118 1.386 . S
C117 C119 1.397 . S
C117 H141 0.931 . S
C118 C117 1.386 . S
C118 C122 1.397 . S
C119 C117 1.397 . S
C119 C120 1.384 . S
C119 H142 0.930 . S
C120 C119 1.384 . S
C120 C121 1.377 . S
C120 C123 1.481 . S
C121 C120 1.377 . S
C121 C122 1.389 . S
C121 H143 0.929 . S
C122 C118 1.397 . S
C122 C121 1.389 . S
C122 H144 0.931 . S
C123 C120 1.481 . S
C123 C124 1.387 . S
C123 C128 1.390 . S
C124 C123 1.387 . S
C124 C125 1.401 . S
C124 H145 0.930 . S
C125 C124 1.401 . S
C125 C126 1.376 . S
C125 C134 1.511 . S
C126 C125 1.376 . S
C126 C127 1.392 . S
C126 H147 0.931 . S
C127 C126 1.392 . S
C127 C128 1.361 . S
C127 C129 1.500 . S
C128 C123 1.390 . S
C128 C127 1.361 . S
C128 H146 0.931 . S
C129 C127 1.500 . S
C129 C130 1.371 . S
C129 C131 1.365 . S
C130 C129 1.371 . S
C130 C140 1.386 . S
C130 H148 0.931 . S
C131 C129 1.365 . S
C131 C132 1.409 . S
C131 H149 0.929 . S
C132 C131 1.409 . S
C132 C133 1.380 . S
C132 H150 0.930 . S
C133 C132 1.380 . S
C133 C140 1.357 . S
C134 C125 1.511 . S
C134 C135 1.341 . S
C134 C136 1.371 . S
C135 C134 1.341 . S
C135 C139 1.394 . S
C135 H151 0.930 . S
C136 C134 1.371 . S
C136 C137 1.392 . S
C136 H152 0.931 . S
C137 C136 1.392 . S
C137 C138 1.331 . S
C137 H155 0.932 . S
C138 C137 1.331 . S
C138 C139 1.336 . S
C139 C135 1.394 . S
C139 C138 1.336 . S
C139 H154 0.929 . S
C140 C130 1.386 . S
C140 C133 1.357 . S
C140 H153 0.928 . S
H141 C117 0.931 . S
H142 C119 0.930 . S
H143 C121 0.929 . S
H144 C122 0.931 . S
H145 C124 0.930 . S
H146 C128 0.931 . S
H147 C126 0.931 . S
H148 C130 0.931 . S
H149 C131 0.929 . S
H150 C132 0.930 . S
H151 C135 0.930 . S
H152 C136 0.931 . S
H153 C140 0.928 . S
H154 C139 0.929 . S
H155 C137 0.932 . S
C156 C157 1.386 1_556 S
C156 C158 1.397 . S
C156 H180 0.931 1_456 S
C157 C156 1.386 1_554 S
C157 C161 1.397 1_554 S
C158 C156 1.397 . S
C158 C159 1.384 . S
C158 H181 0.930 1_455 S
C159 C158 1.384 . S
C159 C160 1.377 . S
C159 C162 1.481 . S
C160 C159 1.377 . S
C160 C161 1.389 . S
C160 H182 0.929 . S
C161 C157 1.397 1_556 S
C161 C160 1.389 . S
C161 H183 0.931 1_556 S
C162 C159 1.481 . S
C162 C163 1.387 . S
C162 C167 1.390 . S
C163 C162 1.387 . S
C163 C164 1.401 . S
C163 H184 0.930 . S
C164 C163 1.401 . S
C164 C165 1.376 . S
C164 C173 1.511 . S
C165 C164 1.376 . S
C165 C166 1.392 . S
C165 H186 0.931 . S
C166 C165 1.392 . S
C166 C167 1.361 . S
C166 C168 1.500 . S
C167 C162 1.390 . S
C167 C166 1.361 . S
C167 H185 0.931 . S
C168 C166 1.500 . S
C168 C169 1.371 . S
C168 C170 1.365 . S
C169 C168 1.371 . S
C169 C179 1.386 . S
C169 H187 0.931 . S
C170 C168 1.365 . S
C170 C171 1.409 . S
C170 H188 0.929 . S
C171 C170 1.409 . S
C171 C172 1.380 . S
C171 H189 0.930 . S
C172 C171 1.380 . S
C172 C179 1.357 . S
C173 C164 1.511 . S
C173 C174 1.341 . S
C173 C175 1.371 . S
C174 C173 1.341 . S
C174 C178 1.394 . S
C174 H190 0.930 . S
C175 C173 1.371 . S
C175 C176 1.392 . S
C175 H191 0.931 . S
C176 C175 1.392 . S
C176 C177 1.331 . S
C176 H194 0.932 . S
C177 C176 1.331 . S
C177 C178 1.336 . S
C178 C174 1.394 . S
C178 C177 1.336 . S
C178 H193 0.929 . S
C179 C169 1.386 . S
C179 C172 1.357 . S
C179 H192 0.928 . S
H180 C156 0.931 1_654 S
H181 C158 0.930 1_655 S
H182 C160 0.929 . S
H183 C161 0.931 1_554 S
H184 C163 0.930 . S
H185 C167 0.931 . S
H186 C165 0.931 . S
H187 C169 0.931 . S
H188 C170 0.929 . S
H189 C171 0.930 . S
H190 C174 0.930 . S
H191 C175 0.931 . S
H192 C179 0.928 . S
H193 C178 0.929 . S
H194 C176 0.932 . S
C195 C196 1.386 . S
C195 C197 1.397 . S
C195 H219 0.931 . S
C196 C195 1.386 . S
C196 C200 1.397 . S
C197 C195 1.397 . S
C197 C198 1.384 . S
C197 H220 0.930 . S
C198 C197 1.384 . S
C198 C199 1.377 . S
C198 C201 1.481 . S
C199 C198 1.377 . S
C199 C200 1.389 . S
C199 H221 0.929 . S
C200 C196 1.397 . S
C200 C199 1.389 . S
C200 H222 0.931 . S
C201 C198 1.481 . S
C201 C202 1.387 . S
C201 C206 1.390 . S
C202 C201 1.387 . S
C202 C203 1.401 . S
C202 H223 0.930 . S
C203 C202 1.401 . S
C203 C204 1.376 . S
C203 C212 1.511 . S
C204 C203 1.376 . S
C204 C205 1.392 . S
C204 H225 0.931 . S
C205 C204 1.392 . S
C205 C206 1.361 . S
C205 C207 1.500 . S
C206 C201 1.390 . S
C206 C205 1.361 . S
C206 H224 0.931 . S
C207 C205 1.500 . S
C207 C208 1.371 . S
C207 C209 1.365 . S
C208 C207 1.371 . S
C208 C218 1.386 . S
C208 H226 0.931 . S
C209 C207 1.365 . S
C209 C210 1.409 . S
C209 H227 0.929 . S
C210 C209 1.409 . S
C210 C211 1.380 . S
C210 H228 0.930 . S
C211 C210 1.380 . S
C211 C218 1.357 . S
C212 C203 1.511 . S
C212 C213 1.341 . S
C212 C214 1.371 . S
C213 C212 1.341 . S
C213 C217 1.394 . S
C213 H229 0.930 . S
C214 C212 1.371 . S
C214 C215 1.392 . S
C214 H230 0.931 . S
C215 C214 1.392 . S
C215 C216 1.331 . S
C215 H233 0.932 . S
C216 C215 1.331 . S
C216 C217 1.336 . S
C217 C213 1.394 . S
C217 C216 1.336 . S
C217 H232 0.929 . S
C218 C208 1.386 . S
C218 C211 1.357 . S
C218 H231 0.928 . S
H219 C195 0.931 . S
H220 C197 0.930 . S
H221 C199 0.929 . S
H222 C200 0.931 . S
H223 C202 0.930 . S
H224 C206 0.931 . S
H225 C204 0.931 . S
H226 C208 0.931 . S
H227 C209 0.929 . S
H228 C210 0.930 . S
H229 C213 0.930 . S
H230 C214 0.931 . S
H231 C218 0.928 . S
H232 C217 0.929 . S
H233 C215 0.932 . S
C234 C235 1.386 . S
C234 C236 1.397 . S
C234 H258 0.931 . S
C235 C234 1.386 . S
C235 C239 1.397 . S
C236 C234 1.397 . S
C236 C237 1.384 . S
C236 H259 0.930 . S
C237 C236 1.384 . S
C237 C238 1.377 . S
C237 C240 1.481 . S
C238 C237 1.377 . S
C238 C239 1.389 . S
C238 H260 0.929 . S
C239 C235 1.397 . S
C239 C238 1.389 . S
C239 H261 0.931 . S
C240 C237 1.481 . S
C240 C241 1.387 . S
C240 C245 1.390 . S
C241 C240 1.387 . S
C241 C242 1.401 . S
C241 H262 0.930 . S
C242 C241 1.401 . S
C242 C243 1.376 . S
C242 C251 1.511 . S
C243 C242 1.376 . S
C243 C244 1.392 . S
C243 H264 0.931 . S
C244 C243 1.392 . S
C244 C245 1.361 . S
C244 C246 1.500 . S
C245 C240 1.390 . S
C245 C244 1.361 . S
C245 H263 0.931 . S
C246 C244 1.500 . S
C246 C247 1.371 . S
C246 C248 1.365 . S
C247 C246 1.371 . S
C247 C257 1.386 . S
C247 H265 0.931 . S
C248 C246 1.365 . S
C248 C249 1.409 . S
C248 H266 0.929 . S
C249 C248 1.409 . S
C249 C250 1.380 . S
C249 H267 0.930 . S
C250 C249 1.380 . S
C250 C257 1.357 . S
C251 C242 1.511 . S
C251 C252 1.341 . S
C251 C253 1.371 . S
C252 C251 1.341 . S
C252 C256 1.394 . S
C252 H268 0.930 . S
C253 C251 1.371 . S
C253 C254 1.392 . S
C253 H269 0.931 . S
C254 C253 1.392 . S
C254 C255 1.331 . S
C254 H272 0.932 . S
C255 C254 1.331 . S
C255 C256 1.336 . S
C256 C252 1.394 . S
C256 C255 1.336 . S
C256 H271 0.929 . S
C257 C247 1.386 . S
C257 C250 1.357 . S
C257 H270 0.928 . S
H258 C234 0.931 . S
H259 C236 0.930 . S
H260 C238 0.929 . S
H261 C239 0.931 . S
H262 C241 0.930 . S
H263 C245 0.931 . S
H264 C243 0.931 . S
H265 C247 0.931 . S
H266 C248 0.929 . S
H267 C249 0.930 . S
H268 C252 0.930 . S
H269 C253 0.931 . S
H270 C257 0.928 . S
H271 C256 0.929 . S
H272 C254 0.932 . S
C273 C274 1.386 . S
C273 C275 1.397 . S
C273 H297 0.931 . S
C274 C273 1.386 . S
C274 C278 1.397 . S
C275 C273 1.397 . S
C275 C276 1.384 . S
C275 H298 0.930 . S
C276 C275 1.384 . S
C276 C277 1.377 . S
C276 C279 1.481 . S
C277 C276 1.377 . S
C277 C278 1.389 . S
C277 H299 0.929 . S
C278 C274 1.397 . S
C278 C277 1.389 . S
C278 H300 0.931 . S
C279 C276 1.481 . S
C279 C280 1.387 . S
C279 C284 1.390 . S
C280 C279 1.387 . S
C280 C281 1.401 . S
C280 H301 0.930 . S
C281 C280 1.401 . S
C281 C282 1.376 . S
C281 C290 1.511 . S
C282 C281 1.376 . S
C282 C283 1.392 . S
C282 H303 0.931 . S
C283 C282 1.392 . S
C283 C284 1.361 . S
C283 C285 1.500 . S
C284 C279 1.390 . S
C284 C283 1.361 . S
C284 H302 0.931 . S
C285 C283 1.500 . S
C285 C286 1.371 . S
C285 C287 1.365 . S
C286 C285 1.371 . S
C286 C296 1.386 1_455 S
C286 H304 0.931 . S
C287 C285 1.365 . S
C287 C288 1.409 1_455 S
C287 H305 0.929 . S
C288 C287 1.409 1_655 S
C288 C289 1.380 . S
C288 H306 0.930 . S
C289 C288 1.380 . S
C289 C296 1.357 . S
C290 C281 1.511 . S
C290 C291 1.341 . S
C290 C292 1.371 . S
C291 C290 1.341 . S
C291 C295 1.394 . S
C291 H307 0.930 . S
C292 C290 1.371 . S
C292 C293 1.392 . S
C292 H308 0.931 . S
C293 C292 1.392 . S
C293 C294 1.331 . S
C293 H311 0.932 . S
C294 C293 1.331 . S
C294 C295 1.336 . S
C295 C291 1.394 . S
C295 C294 1.336 . S
C295 H310 0.929 . S
C296 C286 1.386 1_655 S
C296 C289 1.357 . S
C296 H309 0.928 . S
H297 C273 0.931 . S
H298 C275 0.930 . S
H299 C277 0.929 . S
H300 C278 0.931 . S
H301 C280 0.930 . S
H302 C284 0.931 . S
H303 C282 0.931 . S
H304 C286 0.931 . S
H305 C287 0.929 . S
H306 C288 0.930 . S
H307 C291 0.930 . S
H308 C292 0.931 . S
H309 C296 0.928 . S
H310 C295 0.929 . S
H311 C293 0.932 . S
Zn312 O318 1.920 . S
Zn312 O324 1.898 . S
Zn312 O327 1.905 . S
Zn313 O321 1.905 . S
Zn313 O322 1.898 . S
Zn313 O330 1.920 . S
Zn314 O317 2.080 . S
Zn314 O320 2.114 . S
Zn314 O323 2.120 . S
Zn314 O325 2.120 . S
Zn314 O326 2.114 . S
Zn314 O329 2.080 . S
C315 O320 1.166 . S
C315 O321 1.182 . S
C316 O322 1.167 . S
C316 O323 1.299 . S
O317 Zn314 2.080 . S
O317 C331 1.305 . S
O318 Zn312 1.920 . S
O318 C331 1.234 . S
C319 O324 1.167 . S
C319 O325 1.299 . S
O320 Zn314 2.114 . S
O320 C315 1.166 . S
O321 Zn313 1.905 . S
O321 C315 1.182 . S
O322 Zn313 1.898 . S
O322 C316 1.167 . S
O323 Zn314 2.120 . S
O323 C316 1.299 . S
O324 Zn312 1.898 . S
O324 C319 1.167 . S
O325 Zn314 2.120 . S
O325 C319 1.299 . S
O326 Zn314 2.114 . S
O326 C328 1.166 . S
O327 Zn312 1.905 . S
O327 C328 1.182 . S
C328 O326 1.166 . S
C328 O327 1.182 . S
O329 Zn314 2.080 . S
O329 C332 1.305 . S
O330 Zn313 1.920 . S
O330 C332 1.234 . S
C331 O317 1.305 . S
C331 O318 1.234 . S
C332 O329 1.305 . S
C332 O330 1.234 . S
Zn333 O339 1.920 . S
Zn333 O345 1.898 . S
Zn333 O348 1.905 . S
Zn334 O342 1.905 . S
Zn334 O343 1.898 . S
Zn334 O351 1.920 . S
Zn335 O338 2.080 . S
Zn335 O341 2.114 . S
Zn335 O344 2.120 . S
Zn335 O346 2.120 . S
Zn335 O347 2.114 . S
Zn335 O350 2.080 . S
C336 O341 1.166 . S
C336 O342 1.182 . S
C337 O343 1.167 . S
C337 O344 1.299 . S
O338 Zn335 2.080 . S
O338 C352 1.305 . S
O339 Zn333 1.920 . S
O339 C352 1.234 . S
C340 O345 1.167 . S
C340 O346 1.299 . S
O341 Zn335 2.114 . S
O341 C336 1.166 . S
O342 Zn334 1.905 . S
O342 C336 1.182 . S
O343 Zn334 1.898 . S
O343 C337 1.167 . S
O344 Zn335 2.120 . S
O344 C337 1.299 . S
O345 Zn333 1.898 . S
O345 C340 1.167 . S
O346 Zn335 2.120 . S
O346 C340 1.299 . S
O347 Zn335 2.114 . S
O347 C349 1.166 . S
O348 Zn333 1.905 . S
O348 C349 1.182 . S
C349 O347 1.166 . S
C349 O348 1.182 . S
O350 Zn335 2.080 . S
O350 C353 1.305 . S
O351 Zn334 1.920 . S
O351 C353 1.234 . S
C352 O338 1.305 . S
C352 O339 1.234 . S
C353 O350 1.305 . S
C353 O351 1.234 . S
Zn354 O360 1.920 . S
Zn354 O366 1.898 . S
Zn354 O369 1.905 . S
Zn355 O363 1.905 . S
Zn355 O364 1.898 . S
Zn355 O372 1.920 . S
Zn356 O359 2.080 . S
Zn356 O362 2.114 . S
Zn356 O365 2.120 . S
Zn356 O367 2.120 . S
Zn356 O368 2.114 . S
Zn356 O371 2.080 . S
C357 O362 1.166 . S
C357 O363 1.182 . S
C358 O364 1.167 . S
C358 O365 1.299 . S
O359 Zn356 2.080 . S
O359 C373 1.305 . S
O360 Zn354 1.920 . S
O360 C373 1.234 . S
C361 O366 1.167 . S
C361 O367 1.299 . S
O362 Zn356 2.114 . S
O362 C357 1.166 . S
O363 Zn355 1.905 . S
O363 C357 1.182 . S
O364 Zn355 1.898 . S
O364 C358 1.167 . S
O365 Zn356 2.120 . S
O365 C358 1.299 . S
O366 Zn354 1.898 . S
O366 C361 1.167 . S
O367 Zn356 2.120 . S
O367 C361 1.299 . S
O368 Zn356 2.114 . S
O368 C370 1.166 . S
O369 Zn354 1.905 . S
O369 C370 1.182 . S
C370 O368 1.166 . S
C370 O369 1.182 . S
O371 Zn356 2.080 . S
O371 C374 1.305 . S
O372 Zn355 1.920 . S
O372 C374 1.234 . S
C373 O359 1.305 . S
C373 O360 1.234 . S
C374 O371 1.305 . S
C374 O372 1.234 . S
Zn375 O381 1.920 . S
Zn375 O387 1.898 . S
Zn375 O390 1.906 1_455 S
Zn376 O384 1.905 . S
Zn376 O385 1.898 . S
Zn376 O393 1.920 . S
Zn377 O380 2.080 . S
Zn377 O383 2.114 . S
Zn377 O386 2.120 . S
Zn377 O388 2.120 . S
Zn377 O389 2.114 . S
Zn377 O392 2.080 . S
C378 O383 1.166 . S
C378 O384 1.182 . S
C379 O385 1.167 . S
C379 O386 1.299 . S
O380 Zn377 2.080 . S
O380 C394 1.305 . S
O381 Zn375 1.920 . S
O381 C394 1.234 . S
C382 O387 1.167 . S
C382 O388 1.299 . S
O383 Zn377 2.114 . S
O383 C378 1.166 . S
O384 Zn376 1.905 . S
O384 C378 1.182 . S
O385 Zn376 1.898 . S
O385 C379 1.167 . S
O386 Zn377 2.120 . S
O386 C379 1.299 . S
O387 Zn375 1.898 . S
O387 C382 1.167 . S
O388 Zn377 2.120 . S
O388 C382 1.299 . S
O389 Zn377 2.114 . S
O389 C391 1.166 . S
O390 Zn375 1.906 1_655 S
O390 C391 1.183 1_655 S
C391 O389 1.166 . S
C391 O390 1.183 1_455 S
O392 Zn377 2.080 . S
O392 C395 1.305 . S
O393 Zn376 1.920 . S
O393 C395 1.234 . S
C394 O380 1.305 . S
C394 O381 1.234 . S
C395 O392 1.305 . S
C395 O393 1.234 . S
C396 C397 1.387 . S
C396 H400 0.950 . S
C396 C405 1.390 . S
C397 C396 1.387 . S
C397 C399 1.387 . S
H398 C405 0.950 . S
C399 C397 1.387 . S
C399 C401 1.390 . S
C399 H403 0.950 . S
H400 C396 0.950 . S
C401 C399 1.390 . S
C401 C402 1.387 . S
C401 H404 0.950 . S
C402 C401 1.387 . S
C402 C405 1.387 . S
H403 C399 0.950 . S
H404 C401 0.950 . S
C405 C396 1.390 . S
C405 H398 0.950 . S
C405 C402 1.387 . S
C406 C407 1.387 . S
C406 H410 0.950 . S
C406 C415 1.390 . S
C407 C406 1.387 . S
C407 C409 1.387 . S
H408 C415 0.950 . S
C409 C407 1.387 . S
C409 C411 1.390 . S
C409 H413 0.950 . S
H410 C406 0.950 . S
C411 C409 1.390 . S
C411 C412 1.387 . S
C411 H414 0.950 . S
C412 C411 1.387 . S
C412 C415 1.387 . S
H413 C409 0.950 . S
H414 C411 0.950 . S
C415 C406 1.390 . S
C415 H408 0.950 . S
C415 C412 1.387 . S
C416 C417 1.387 . S
C416 H420 0.950 . S
C416 C425 1.390 . S
C417 C416 1.387 . S
C417 C419 1.387 . S
H418 C425 0.950 . S
C419 C417 1.387 . S
C419 C421 1.390 . S
C419 H423 0.950 . S
H420 C416 0.950 . S
C421 C419 1.390 . S
C421 C422 1.387 . S
C421 H424 0.950 . S
C422 C421 1.387 . S
C422 C425 1.387 . S
H423 C419 0.950 . S
H424 C421 0.950 . S
C425 C416 1.390 . S
C425 H418 0.950 . S
C425 C422 1.387 . S
C426 C427 1.387 . S
C426 H430 0.950 . S
C426 C435 1.390 . S
C427 C426 1.387 . S
C427 C429 1.387 . S
H428 C435 0.950 . S
C429 C427 1.387 . S
C429 C431 1.390 . S
C429 H433 0.950 . S
H430 C426 0.950 . S
C431 C429 1.390 . S
C431 C432 1.387 . S
C431 H434 0.950 . S
C432 C431 1.387 . S
C432 C435 1.387 . S
H433 C429 0.950 . S
H434 C431 0.950 . S
C435 C426 1.390 . S
C435 H428 0.950 . S
C435 C432 1.387 . S
C436 C437 1.387 . S
C436 H440 0.950 . S
C436 C445 1.390 . S
C437 C436 1.387 . S
C437 C439 1.387 . S
H438 C445 0.950 . S
C439 C437 1.387 . S
C439 C441 1.390 . S
C439 H443 0.950 . S
H440 C436 0.950 . S
C441 C439 1.390 . S
C441 C442 1.387 . S
C441 H444 0.950 . S
C442 C441 1.387 . S
C442 C445 1.387 . S
H443 C439 0.950 . S
H444 C441 0.950 . S
C445 C436 1.390 . S
C445 H438 0.950 . S
C445 C442 1.387 . S
C446 C447 1.387 . S
C446 H450 0.950 . S
C446 C455 1.390 . S
C447 C446 1.387 . S
C447 C449 1.387 . S
H448 C455 0.950 . S
C449 C447 1.387 . S
C449 C451 1.390 . S
C449 H453 0.950 . S
H450 C446 0.950 . S
C451 C449 1.390 . S
C451 C452 1.387 . S
C451 H454 0.950 . S
C452 C451 1.387 . S
C452 C455 1.387 . S
H453 C449 0.950 . S
H454 C451 0.950 . S
C455 C446 1.390 . S
C455 H448 0.950 . S
C455 C452 1.387 . S
C456 C457 1.387 . S
C456 H460 0.950 . S
C456 C465 1.390 . S
C457 C456 1.387 . S
C457 C459 1.387 . S
H458 C465 0.950 . S
C459 C457 1.387 . S
C459 C461 1.390 . S
C459 H463 0.950 . S
H460 C456 0.950 . S
C461 C459 1.390 . S
C461 C462 1.387 . S
C461 H464 0.950 . S
C462 C461 1.387 . S
C462 C465 1.387 . S
H463 C459 0.950 . S
H464 C461 0.950 . S
C465 C456 1.390 . S
C465 H458 0.950 . S
C465 C462 1.387 . S
C466 C467 1.387 . S
C466 H470 0.950 . S
C466 C475 1.390 . S
C467 C466 1.387 . S
C467 C469 1.387 . S
H468 C475 0.950 . S
C469 C467 1.387 . S
C469 C471 1.390 . S
C469 H473 0.950 . S
H470 C466 0.950 . S
C471 C469 1.390 . S
C471 C472 1.387 . S
C471 H474 0.950 . S
C472 C471 1.387 . S
C472 C475 1.387 . S
H473 C469 0.950 . S
H474 C471 0.950 . S
C475 C466 1.390 . S
C475 H468 0.950 . S
C475 C472 1.387 . S
C476 C477 1.387 . S
C476 H480 0.950 . S
C476 C485 1.390 . S
C477 C476 1.387 . S
C477 C479 1.387 . S
H478 C485 0.950 . S
C479 C477 1.387 . S
C479 C481 1.390 . S
C479 H483 0.950 . S
H480 C476 0.950 . S
C481 C479 1.390 . S
C481 C482 1.387 . S
C481 H484 0.950 . S
C482 C481 1.387 . S
C482 C485 1.387 . S
H483 C479 0.950 . S
H484 C481 0.950 . S
C485 C476 1.390 . S
C485 H478 0.950 . S
C485 C482 1.387 . S
C486 C487 1.387 . S
C486 H490 0.950 . S
C486 C495 1.390 . S
C487 C486 1.387 . S
C487 C489 1.387 . S
H488 C495 0.950 . S
C489 C487 1.387 . S
C489 C491 1.390 . S
C489 H493 0.950 . S
H490 C486 0.950 . S
C491 C489 1.390 . S
C491 C492 1.387 . S
C491 H494 0.950 . S
C492 C491 1.387 . S
C492 C495 1.387 . S
H493 C489 0.950 . S
H494 C491 0.950 . S
C495 C486 1.390 . S
C495 H488 0.950 . S
C495 C492 1.387 . S
C496 C497 1.387 . S
C496 H500 0.950 . S
C496 C505 1.390 . S
C497 C496 1.387 . S
C497 C499 1.387 . S
H498 C505 0.950 . S
C499 C497 1.387 . S
C499 C501 1.390 . S
C499 H503 0.950 . S
H500 C496 0.950 . S
C501 C499 1.390 . S
C501 C502 1.387 . S
C501 H504 0.950 . S
C502 C501 1.387 . S
C502 C505 1.387 . S
H503 C499 0.950 . S
H504 C501 0.950 . S
C505 C496 1.390 . S
C505 H498 0.950 . S
C505 C502 1.387 . S
C506 C507 1.387 . S
C506 H510 0.950 . S
C506 C515 1.390 . S
C507 C506 1.387 . S
C507 C509 1.387 . S
H508 C515 0.950 . S
C509 C507 1.387 . S
C509 C511 1.390 . S
C509 H513 0.950 . S
H510 C506 0.950 . S
C511 C509 1.390 . S
C511 C512 1.387 . S
C511 H514 0.950 . S
C512 C511 1.387 . S
C512 C515 1.387 . S
H513 C509 0.950 . S
H514 C511 0.950 . S
C515 C506 1.390 . S
C515 H508 0.950 . S
C515 C512 1.387 . S
C516 C517 1.394 . S
C516 H520 0.958 . S
C516 C525 1.375 1_565 S
C517 C516 1.394 . S
C517 C519 1.387 1_565 S
H518 C525 0.950 . S
C519 C517 1.387 1_545 S
C519 C521 1.390 . S
C519 H523 0.950 1_545 S
H520 C516 0.958 . S
C521 C519 1.390 . S
C521 C522 1.387 . S
C521 H524 0.950 . S
C522 C521 1.387 . S
C522 C525 1.387 . S
H523 C519 0.950 1_565 S
H524 C521 0.950 . S
C525 C516 1.375 1_545 S
C525 H518 0.950 . S
C525 C522 1.387 . S
C526 C527 1.377 1_565 S
C526 H530 0.950 . S
C526 C535 1.390 . S
C527 C526 1.377 1_545 S
C527 C529 1.376 1_545 S
H528 C535 0.950 . S
C529 C527 1.376 1_565 S
C529 C531 1.390 . S
C529 H533 0.950 . S
H530 C526 0.950 . S
C531 C529 1.390 . S
C531 C532 1.387 . S
C531 H534 0.950 . S
C532 C531 1.387 . S
C532 C535 1.387 . S
H533 C529 0.950 . S
H534 C531 0.950 . S
C535 C526 1.390 . S
C535 H528 0.950 . S
C535 C532 1.387 . S
C536 C537 1.387 . S
C536 H540 0.950 . S
C536 C545 1.390 . S
C537 C536 1.387 . S
C537 C539 1.387 . S
H538 C545 0.950 . S
C539 C537 1.387 . S
C539 C541 1.390 . S
C539 H543 0.950 1_565 S
H540 C536 0.950 . S
C541 C539 1.390 . S
C541 C542 1.387 . S
C541 H544 0.950 . S
C542 C541 1.387 . S
C542 C545 1.387 . S
H543 C539 0.950 1_545 S
H544 C541 0.950 . S
C545 C536 1.390 . S
C545 H538 0.950 . S
C545 C542 1.387 . S
C546 C547 1.387 1_545 S
C546 H550 0.950 1_545 S
C546 C555 1.390 . S
C547 C546 1.387 1_565 S
C547 C549 1.387 1_565 S
H548 C555 0.950 . S
C549 C547 1.387 1_545 S
C549 C551 1.390 . S
C549 H553 0.950 1_545 S
H550 C546 0.950 1_565 S
C551 C549 1.390 . S
C551 C552 1.387 . S
C551 H554 0.950 . S
C552 C551 1.387 . S
C552 C555 1.387 . S
H553 C549 0.950 1_565 S
H554 C551 0.950 . S
C555 C546 1.390 . S
C555 H548 0.950 . S
C555 C552 1.387 . S
C556 C557 1.387 . S
C556 H560 0.950 . S
C556 C565 1.390 . S
C557 C556 1.387 . S
C557 C559 1.387 . S
H558 C565 0.950 . S
C559 C557 1.387 . S
C559 C561 1.390 . S
C559 H563 0.950 . S
H560 C556 0.950 . S
C561 C559 1.390 . S
C561 C562 1.387 . S
C561 H564 0.950 . S
C562 C561 1.387 . S
C562 C565 1.387 . S
H563 C559 0.950 . S
H564 C561 0.950 . S
C565 C556 1.390 . S
C565 H558 0.950 . S
C565 C562 1.387 . S
C566 C567 1.387 . S
C566 H570 0.950 . S
C566 C575 1.390 . S
C567 C566 1.387 . S
C567 C569 1.387 . S
H568 C575 0.950 . S
C569 C567 1.387 . S
C569 C571 1.390 . S
C569 H573 0.950 . S
H570 C566 0.950 . S
C571 C569 1.390 . S
C571 C572 1.387 . S
C571 H574 0.950 . S
C572 C571 1.387 . S
C572 C575 1.387 . S
H573 C569 0.950 . S
H574 C571 0.950 . S
C575 C566 1.390 . S
C575 H568 0.950 . S
C575 C572 1.387 . S
C576 C577 1.387 . S
C576 H580 0.950 . S
C576 C585 1.390 . S
C577 C576 1.387 . S
C577 C579 1.387 . S
H578 C585 0.950 . S
C579 C577 1.387 . S
C579 C581 1.390 . S
C579 H583 0.950 . S
H580 C576 0.950 . S
C581 C579 1.390 . S
C581 C582 1.387 . S
C581 H584 0.950 . S
C582 C581 1.387 . S
C582 C585 1.387 . S
H583 C579 0.950 . S
H584 C581 0.950 . S
C585 C576 1.390 . S
C585 H578 0.950 . S
C585 C582 1.387 . S
C586 C587 1.387 . S
C586 H590 0.950 . S
C586 C595 1.390 . S
C587 C586 1.387 . S
C587 C589 1.387 . S
H588 C595 0.950 . S
C589 C587 1.387 . S
C589 C591 1.390 . S
C589 H593 0.950 . S
H590 C586 0.950 . S
C591 C589 1.390 . S
C591 C592 1.387 . S
C591 H594 0.950 . S
C592 C591 1.387 . S
C592 C595 1.387 . S
H593 C589 0.950 . S
H594 C591 0.950 . S
C595 C586 1.390 . S
C595 H588 0.950 . S
C595 C592 1.387 . S
C596 C597 1.387 . S
C596 H600 0.950 . S
C596 C605 1.390 . S
C597 C596 1.387 . S
C597 C599 1.387 . S
H598 C605 0.950 . S
C599 C597 1.387 . S
C599 C601 1.390 . S
C599 H603 0.950 . S
H600 C596 0.950 . S
C601 C599 1.390 . S
C601 C602 1.387 . S
C601 H604 0.950 . S
C602 C601 1.387 . S
C602 C605 1.387 . S
H603 C599 0.950 . S
H604 C601 0.950 . S
C605 C596 1.390 . S
C605 H598 0.950 . S
C605 C602 1.387 . S
C606 C607 1.387 . S
C606 H610 0.950 . S
C606 C615 1.390 . S
C607 C606 1.387 . S
C607 C609 1.387 . S
H608 C615 0.950 . S
C609 C607 1.387 . S
C609 C611 1.390 . S
C609 H613 0.950 . S
H610 C606 0.950 . S
C611 C609 1.390 . S
C611 C612 1.387 . S
C611 H614 0.950 . S
C612 C611 1.387 . S
C612 C615 1.387 . S
H613 C609 0.950 . S
H614 C611 0.950 . S
C615 C606 1.390 . S
C615 H608 0.950 . S
C615 C612 1.387 . S
C616 C617 1.387 . S
C616 H620 0.950 . S
C616 C625 1.390 . S
C617 C616 1.387 . S
C617 C619 1.387 . S
H618 C625 0.950 . S
C619 C617 1.387 . S
C619 C621 1.390 . S
C619 H623 0.950 . S
H620 C616 0.950 . S
C621 C619 1.390 . S
C621 C622 1.387 . S
C621 H624 0.950 . S
C622 C621 1.387 . S
C622 C625 1.387 . S
H623 C619 0.950 . S
H624 C621 0.950 . S
C625 C616 1.390 . S
C625 H618 0.950 . S
C625 C622 1.387 . S
C626 C627 1.387 . S
C626 H630 0.950 . S
C626 C635 1.390 . S
C627 C626 1.387 . S
C627 C629 1.387 . S
H628 C635 0.950 . S
C629 C627 1.387 . S
C629 C631 1.390 . S
C629 H633 0.950 . S
H630 C626 0.950 . S
C631 C629 1.390 . S
C631 C632 1.387 . S
C631 H634 0.950 . S
C632 C631 1.387 . S
C632 C635 1.387 . S
H633 C629 0.950 . S
H634 C631 0.950 . S
C635 C626 1.390 . S
C635 H628 0.950 . S
C635 C632 1.387 . S
C402 C319 1.500 . S
C397 C16 1.677 . S
C412 C337 1.344 . S
C407 C55 1.456 . S
C417 C99 1.477 . S
C422 C361 1.458 . S
C432 C391 1.408 1_655 S
C427 C138 1.511 . S
C442 C379 1.453 . S
C437 C172 1.479 . S
C447 C216 1.455 . S
C452 C332 1.349 1_655 S
C457 C255 1.679 . S
C462 C352 1.506 . S
C467 C289 1.520 . S
C472 C357 1.415 . S
C477 C294 1.449 . S
C482 C373 1.341 . S
C487 C211 1.521 . S
C492 C328 1.407 . S
C502 C395 1.359 . S
C497 C133 1.461 . S
C512 C340 1.402 . S
C507 C60 1.505 . S
C517 C94 1.672 . S
C522 C358 1.492 . S
C527 C21 1.508 . S
C532 C316 1.463 . S
C542 C336 1.452 . S
C537 C250 1.471 1_565 S
C552 C382 1.502 . S
C547 C177 1.689 . S
C562 C378 1.333 . S
C557 C1 1.530 . S
C572 C331 1.424 . S
C567 C40 1.490 . S
C577 C79 1.512 . S
C582 C353 1.308 . S
C587 C118 1.504 . S
C592 C374 1.432 . S
C602 C315 1.328 . S
C597 C157 1.536 . S
C607 C196 1.523 . S
C612 C349 1.436 . S
C622 C370 1.338 . S
C617 C235 1.547 . S
C632 C394 1.417 . S
C627 C274 1.502 . S
