# Generated by pormake.
# Topology pyr, (3,6)-cn, num edge types: 1
# Building blocks:
#     Node 0, Type 0, BuildingBlock: PAMTOO_clean_linker_0, # of connection points: 3
#     Node 1, Type 0, BuildingBlock: PAMTOO_clean_linker_0, # of connection points: 3
#     Node 2, Type 0, BuildingBlock: PAMTOO_clean_linker_0, # of connection points: 3
#     Node 3, Type 0, BuildingBlock: PAMTOO_clean_linker_0, # of connection points: 3
#     Node 4, Type 0, BuildingBlock: PAMTOO_clean_linker_0, # of connection points: 3
#     Node 5, Type 0, BuildingBlock: PAMTOO_clean_linker_0, # of connection points: 3
#     Node 6, Type 0, BuildingBlock: PAMTOO_clean_linker_0, # of connection points: 3
#     Node 7, Type 0, BuildingBlock: PAMTOO_clean_linker_0, # of connection points: 3
#     Node 8, Type 1, BuildingBlock: MIDCAF_clean_sbu_0, # of connection points: 6
#     Node 9, Type 1, BuildingBlock: MIDCAF_clean_sbu_0, # of connection points: 6
#     Node 10, Type 1, BuildingBlock: MIDCAF_clean_sbu_0, # of connection points: 6
#     Node 11, Type 1, BuildingBlock: MIDCAF_clean_sbu_0, # of connection points: 6
#     Edge 12, Type (0, 1), BuildingBlock: AJUNOK_clean_linker_0, # of connection points: 2
#     Edge 13, Type (0, 1), BuildingBlock: AJUNOK_clean_linker_0, # of connection points: 2
#     Edge 14, Type (0, 1), BuildingBlock: AJUNOK_clean_linker_0, # of connection points: 2
#     Edge 15, Type (0, 1), BuildingBlock: AJUNOK_clean_linker_0, # of connection points: 2
#     Edge 16, Type (0, 1), BuildingBlock: AJUNOK_clean_linker_0, # of connection points: 2
#     Edge 17, Type (0, 1), BuildingBlock: AJUNOK_clean_linker_0, # of connection points: 2
#     Edge 18, Type (0, 1), BuildingBlock: AJUNOK_clean_linker_0, # of connection points: 2
#     Edge 19, Type (0, 1), BuildingBlock: AJUNOK_clean_linker_0, # of connection points: 2
#     Edge 20, Type (0, 1), BuildingBlock: AJUNOK_clean_linker_0, # of connection points: 2
#     Edge 21, Type (0, 1), BuildingBlock: AJUNOK_clean_linker_0, # of connection points: 2
#     Edge 22, Type (0, 1), BuildingBlock: AJUNOK_clean_linker_0, # of connection points: 2
#     Edge 23, Type (0, 1), BuildingBlock: AJUNOK_clean_linker_0, # of connection points: 2
#     Edge 24, Type (0, 1), BuildingBlock: AJUNOK_clean_linker_0, # of connection points: 2
#     Edge 25, Type (0, 1), BuildingBlock: AJUNOK_clean_linker_0, # of connection points: 2
#     Edge 26, Type (0, 1), BuildingBlock: AJUNOK_clean_linker_0, # of connection points: 2
#     Edge 27, Type (0, 1), BuildingBlock: AJUNOK_clean_linker_0, # of connection points: 2
#     Edge 28, Type (0, 1), BuildingBlock: AJUNOK_clean_linker_0, # of connection points: 2
#     Edge 29, Type (0, 1), BuildingBlock: AJUNOK_clean_linker_0, # of connection points: 2
#     Edge 30, Type (0, 1), BuildingBlock: AJUNOK_clean_linker_0, # of connection points: 2
#     Edge 31, Type (0, 1), BuildingBlock: AJUNOK_clean_linker_0, # of connection points: 2
#     Edge 32, Type (0, 1), BuildingBlock: AJUNOK_clean_linker_0, # of connection points: 2
#     Edge 33, Type (0, 1), BuildingBlock: AJUNOK_clean_linker_0, # of connection points: 2
#     Edge 34, Type (0, 1), BuildingBlock: AJUNOK_clean_linker_0, # of connection points: 2
#     Edge 35, Type (0, 1), BuildingBlock: AJUNOK_clean_linker_0, # of connection points: 2
# Relax obj value: 0.101
# Max RMSD: 0.202
# Mean RMSD: 0.140
data_MOF--net-pyr--node1-MIDCAF_clean_sbu_0--node2-PAMTOO_clean_linker_0--edge1-AJUNOK_clean_linker_0
_symmetry_space_group_name_H-M    P1
_symmetry_Int_Tables_number       1
_symmetry_cell_setting            triclinic
loop_
_symmetry_equiv_pos_as_xyz
'x, y, z'
_cell_length_a     25.174699
_cell_length_b     26.197398
_cell_length_c     25.703165
_cell_angle_alpha  90.207178
_cell_angle_beta   91.459484
_cell_angle_gamma 95.323071
loop_
_atom_site_label
_atom_site_type_symbol
_atom_site_fract_x
_atom_site_fract_y
_atom_site_fract_z
_atom_type_partial_charge
H0 H 0.17565 0.28248 0.2902 0.0
H1 H 0.29737 0.17951 0.31146 0.0
H2 H 0.30876 0.28817 0.18684 0.0
H3 H 0.31176 0.16473 0.17268 0.0
C4 C 0.34467 0.16388 0.20237 0.0
O5 O 0.35116 0.20985 0.22962 0.0
H6 H 0.33289 0.1325 0.23 0.0
C7 C 0.21396 0.27041 0.27958 0.0
C8 C 0.24104 0.29309 0.23666 0.0
C9 C 0.23441 0.22999 0.30715 0.0
C10 C 0.28226 0.21181 0.29157 0.0
C11 C 0.30839 0.23195 0.24759 0.0
C12 C 0.28806 0.27276 0.22058 0.0
H13 H 0.27965 0.91766 0.7819 0.0
H14 H 0.24754 0.79931 0.66557 0.0
H15 H 0.37616 0.7901 0.77615 0.0
H16 H 0.38277 0.78561 0.64853 0.0
C17 C 0.35384 0.75073 0.64822 0.0
O18 O 0.32628 0.74715 0.69416 0.0
H19 H 0.32477 0.75462 0.61548 0.0
C20 C 0.28784 0.88116 0.76543 0.0
C21 C 0.33074 0.85563 0.78585 0.0
C22 C 0.25679 0.861 0.7224 0.0
C23 C 0.2692 0.8146 0.70001 0.0
C24 C 0.3124 0.78951 0.71899 0.0
C25 C 0.3428 0.80983 0.76189 0.0
H26 H 0.84827 0.22113 0.88788 0.0
H27 H 0.72103 0.21351 0.77279 0.0
H28 H 0.81499 0.35466 0.79837 0.0
H29 H 0.69098 0.34331 0.78615 0.0
C30 C 0.69062 0.32127 0.749 0.0
O31 O 0.74074 0.30608 0.74022 0.0
H32 H 0.66204 0.28661 0.75279 0.0
C33 C 0.82639 0.23952 0.85758 0.0
C34 C 0.83935 0.29185 0.84626 0.0
C35 C 0.78211 0.21143 0.83354 0.0
C36 C 0.75577 0.23362 0.79177 0.0
C37 C 0.76934 0.28457 0.77815 0.0
C38 C 0.80944 0.31412 0.80649 0.0
H39 H 0.78516 0.78558 0.40568 0.0
H40 H 0.79905 0.66314 0.29643 0.0
H41 H 0.91565 0.79281 0.29923 0.0
H42 H 0.90042 0.75111 0.19347 0.0
C43 C 0.88335 0.71169 0.20293 0.0
O44 O 0.88716 0.7042 0.25606 0.0
H45 H 0.84058 0.70703 0.19021 0.0
C46 C 0.80541 0.77009 0.37333 0.0
C47 C 0.85261 0.79637 0.3548 0.0
C48 C 0.786 0.72195 0.35258 0.0
C49 C 0.81233 0.70114 0.31117 0.0
C50 C 0.85825 0.72746 0.29124 0.0
C51 C 0.87826 0.77466 0.31308 0.0
H52 H 0.89918 0.99555 0.85448 0.0
H53 H 0.88941 0.88861 0.98139 0.0
H54 H 0.99943 0.87047 0.85959 0.0
H55 H 0.90359 0.78194 0.9138 0.0
C56 C 0.92938 0.78738 0.94962 0.0
O57 O 0.96179 0.83289 0.94761 0.0
H58 H 0.90218 0.78907 0.98288 0.0
C59 C 0.91254 0.96212 0.87378 0.0
C60 C 0.95296 0.93574 0.85169 0.0
C61 C 0.88929 0.94556 0.92062 0.0
C62 C 0.90722 0.90243 0.94554 0.0
C63 C 0.94606 0.87494 0.92325 0.0
C64 C 0.96868 0.89137 0.87616 0.0
H65 H 0.70491 0.03594 0.33778 0.0
H66 H 0.60229 0.15849 0.35179 0.0
H67 H 0.73486 0.14978 0.45847 0.0
H68 H 0.66356 0.19168 0.51226 0.0
C69 C 0.63247 0.19886 0.48236 0.0
O70 O 0.65466 0.20105 0.43368 0.0
H71 H 0.60049 0.16656 0.48402 0.0
C72 C 0.69413 0.07012 0.35727 0.0
C73 C 0.72441 0.08935 0.4008 0.0
C74 C 0.64984 0.09496 0.33903 0.0
C75 C 0.63633 0.13916 0.36507 0.0
C76 C 0.66703 0.15859 0.4083 0.0
C77 C 0.71127 0.13421 0.42522 0.0
H78 H 0.3827 0.65826 0.02524 0.0
H79 H 0.43262 0.597 0.17201 0.0
H80 H 0.5301 0.71844 0.10059 0.0
H81 H 0.59871 0.65845 0.18865 0.0
C82 C 0.56083 0.63365 0.19293 0.0
O83 O 0.51877 0.66266 0.18252 0.0
H84 H 0.56057 0.60085 0.16521 0.0
C85 C 0.4124 0.65667 0.05635 0.0
C86 C 0.4583 0.69136 0.05698 0.0
C87 C 0.40359 0.62167 0.09739 0.0
C88 C 0.44044 0.62231 0.13934 0.0
C89 C 0.48643 0.65693 0.13978 0.0
C90 C 0.49557 0.69043 0.09842 0.0
H91 H 0.11716 0.33289 0.69476 0.0
H92 H 0.14194 0.49746 0.69273 0.0
H93 H 0.1704 0.41199 0.55562 0.0
H94 H 0.21339 0.54636 0.6519 0.0
C95 C 0.209 0.54163 0.60892 0.0
O96 O 0.16809 0.50432 0.59608 0.0
H97 H 0.19792 0.57895 0.59378 0.0
C98 C 0.13021 0.36804 0.6748 0.0
C99 C 0.14394 0.36629 0.62193 0.0
C100 C 0.12988 0.4152 0.701 0.0
C101 C 0.14303 0.46064 0.67364 0.0
C102 C 0.15889 0.45962 0.62205 0.0
C103 C 0.15987 0.41245 0.59623 0.0
Zn104 Zn 0.97969 0.1005 0.58794 0.0
Zn105 Zn 0.09739 0.98787 0.48132 0.0
Zn106 Zn 0.03992 0.0451 0.53642 0.0
C107 C 0.12433 0.09039 0.452 0.0
C108 C 0.99241 0.95671 0.45383 0.0
O109 O 0.04022 0.01731 0.61897 0.0
O110 O 0.98547 0.06716 0.6559 0.0
C111 C 0.06192 0.16853 0.55408 0.0
O112 O 0.09706 0.0992 0.49245 0.0
O113 O 0.12819 0.04482 0.43747 0.0
O114 O 0.03825 0.94164 0.44937 0.0
O115 O 0.98588 0.99649 0.4819 0.0
O116 O 0.02008 0.16767 0.58007 0.0
O117 O 0.07559 0.12703 0.53293 0.0
O118 O 0.95703 0.0345 0.50167 0.0
O119 O 0.91207 0.08603 0.54848 0.0
C120 C 0.91332 0.05437 0.51158 0.0
O121 O 0.08097 0.99573 0.59211 0.0
O122 O 0.13913 0.96265 0.54157 0.0
C123 C 0.01477 0.03073 0.65907 0.0
C124 C 0.12091 0.96894 0.58623 0.0
Zn125 Zn 0.51834 0.07164 0.95731 0.0
Zn126 Zn 0.61589 0.94186 0.07175 0.0
Zn127 Zn 0.56705 1.00453 0.01764 0.0
C128 C 0.69523 0.98887 0.01485 0.0
C129 C 0.54183 0.88221 0.01126 0.0
O130 O 0.52908 0.05723 0.07108 0.0
O131 O 0.4937 0.11122 0.01728 0.0
C132 C 0.62635 0.07816 0.93205 0.0
O133 O 0.65356 0.00793 0.99552 0.0
O134 O 0.69071 0.95961 0.05359 0.0
O135 O 0.58166 0.8778 0.04108 0.0
O136 O 0.52794 0.92695 0.99971 0.0
O137 O 0.58352 0.09678 0.91895 0.0
O138 O 0.62719 0.04452 0.96832 0.0
O139 O 0.50314 0.96148 0.9683 0.0
O140 O 0.46571 0.02051 0.92213 0.0
C141 C 0.46837 0.97411 0.93406 0.0
O142 O 0.56302 0.02718 0.10173 0.0
O143 O 0.59615 0.96234 0.14179 0.0
C144 C 0.50192 0.09612 0.0632 0.0
C145 C 0.5762 1.00468 0.14416 0.0
Zn146 Zn 0.60332 0.57396 0.58233 0.0
Zn147 Zn 0.47917 0.46273 0.45418 0.0
Zn148 Zn 0.54194 0.51754 0.51566 0.0
C149 C 0.54434 0.39504 0.49648 0.0
C150 C 0.53505 0.53395 0.39272 0.0
O151 O 0.48951 0.56318 0.56231 0.0
O152 O 0.54637 0.61206 0.61224 0.0
C153 C 0.61691 0.47215 0.60562 0.0
O154 O 0.56143 0.43587 0.52249 0.0
O155 O 0.50766 0.39675 0.46245 0.0
O156 O 0.49572 0.50051 0.3905 0.0
O157 O 0.56015 0.54468 0.43624 0.0
O158 O 0.63017 0.51707 0.62213 0.0
O159 O 0.58567 0.4647 0.56514 0.0
O160 O 0.59695 0.57181 0.47017 0.0
O161 O 0.65149 0.60884 0.53097 0.0
C162 C 0.638 0.60273 0.48357 0.0
O163 O 0.45659 0.52555 0.53455 0.0
O164 O 0.40946 0.46995 0.48266 0.0
C165 C 0.499 0.59916 0.59672 0.0
C166 C 0.41124 0.50302 0.51846 0.0
Zn167 Zn 0.1325 0.55062 0.97161 0.0
Zn168 Zn 0.01514 0.45265 0.09123 0.0
Zn169 Zn 0.07502 0.5026 0.02564 0.0
C170 C 0.11739 0.43073 0.11932 0.0
C171 C 0.98409 0.41642 0.98901 0.0
O172 O 0.04848 0.58185 0.01903 0.0
O173 O 0.08491 0.60037 0.94367 0.0
C174 C 0.19407 0.54243 0.05487 0.0
O175 O 0.12781 0.46411 0.08317 0.0
O176 O 0.06964 0.41709 0.13034 0.0
O177 O 0.97041 0.41406 0.03602 0.0
O178 O 0.02576 0.44566 0.97642 0.0
O179 O 0.18748 0.57735 0.02248 0.0
O180 O 0.15828 0.50417 0.05846 0.0
O181 O 0.06953 0.46724 0.94659 0.0
O182 O 0.15093 0.49524 0.92439 0.0
C183 C 0.10896 0.46611 0.91566 0.0
O184 O 0.02413 0.55776 0.062 0.0
O185 O 0.98651 0.51191 0.1257 0.0
C186 C 0.05326 0.61086 0.97853 0.0
C187 C 0.99452 0.55406 0.10232 0.0
C188 C 0.16653 0.15881 0.32836 0.0
C189 C 0.20162 0.20036 0.3459 0.0
C190 C 0.14005 0.12523 0.3635 0.0
C191 C 0.14721 0.13192 0.41773 0.0
H192 H 0.16101 0.15112 0.28702 0.0
H193 H 0.1147 0.09275 0.34795 0.0
S194 S 0.23341 0.23635 0.48354 0.0
N195 N 0.24104 0.24785 0.42082 0.0
N196 N 0.19104 0.18442 0.4872 0.0
C197 C 0.18063 0.17456 0.43591 0.0
C198 C 0.20803 0.20879 0.39988 0.0
C199 C 0.4217 0.88306 0.82489 0.0
C200 C 0.3657 0.8791 0.82914 0.0
C201 C 0.45531 0.91053 0.8618 0.0
C202 C 0.43419 0.93501 0.90423 0.0
H203 H 0.43964 0.86715 0.79135 0.0
H204 H 0.49786 0.91521 0.8554 0.0
S205 S 0.29175 0.93035 0.93787 0.0
N206 N 0.29155 0.89703 0.88315 0.0
N207 N 0.35489 0.94999 0.95133 0.0
C208 C 0.37885 0.92907 0.91068 0.0
C209 C 0.34457 0.90075 0.87347 0.0
C210 C 0.70547 0.40073 0.69496 0.0
C211 C 0.67363 0.35529 0.70559 0.0
C212 C 0.68769 0.43693 0.66028 0.0
C213 C 0.63728 0.42923 0.63498 0.0
H214 H 0.74363 0.40915 0.7151 0.0
H215 H 0.71303 0.47209 0.6545 0.0
S216 S 0.53926 0.31569 0.6482 0.0
N217 N 0.59017 0.30334 0.68644 0.0
N218 N 0.55617 0.37227 0.62229 0.0
C219 C 0.60576 0.38316 0.64383 0.0
C220 C 0.62402 0.34603 0.67901 0.0
C221 C 0.9592 0.65423 0.19813 0.0
C222 C 0.9141 0.67349 0.17443 0.0
C223 C 0.98624 0.61688 0.17342 0.0
C224 C 0.97043 0.59863 0.12345 0.0
H225 H 0.97295 0.66702 0.23669 0.0
H226 H 0.01924 0.60142 0.19396 0.0
S227 S 0.85933 0.64043 0.04188 0.0
N228 N 0.85794 0.6744 0.09608 0.0
N229 N 0.90918 0.60411 0.04975 0.0
C230 C 0.92734 0.61918 0.09812 0.0
C231 C 0.8994 0.65697 0.12342 0.0
C232 C 0.41676 0.10567 0.18207 0.0
C233 C 0.39475 0.15275 0.17447 0.0
C234 C 0.45532 0.08936 0.14863 0.0
C235 C 0.47306 0.11934 0.10602 0.0
H236 H 0.40182 0.07982 0.21225 0.0
H237 H 0.46815 0.05137 0.154 0.0
S238 S 0.43321 0.24886 0.07369 0.0
N239 N 0.39743 0.23124 0.12464 0.0
N240 N 0.47 0.20126 0.06205 0.0
C241 C 0.45428 0.16823 0.10056 0.0
C242 C 0.41511 0.18472 0.13463 0.0
C243 C 0.22839 0.94307 0.68488 0.0
C244 C 0.21571 0.89091 0.69672 0.0
C245 C 0.19486 0.96966 0.6523 0.0
C246 C 0.14723 0.94528 0.63077 0.0
H247 H 0.26615 0.96265 0.69805 0.0
H248 H 0.20784 0.00866 0.64139 0.0
S249 S 0.09259 0.81137 0.65367 0.0
N250 N 0.14909 0.81768 0.68819 0.0
N251 N 0.08733 0.8674 0.62564 0.0
C252 C 0.1325 0.89428 0.6445 0.0
C253 C 0.16637 0.8672 0.67787 0.0
C254 C 0.88445 0.31166 0.9336 0.0
C255 C 0.87941 0.32354 0.88028 0.0
C256 C 0.91969 0.34092 0.96729 0.0
C257 C 0.95086 0.38461 0.95007 0.0
H258 H 0.85988 0.28024 0.95049 0.0
H259 H 0.92159 0.32955 0.00773 0.0
S260 S 0.9493 0.43648 0.81604 0.0
N261 N 0.90925 0.3831 0.81219 0.0
N262 N 0.97087 0.44123 0.87725 0.0
C263 C 0.94562 0.39806 0.89741 0.0
C264 C 0.91093 0.36703 0.86231 0.0
C265 C 0.76372 0.65365 0.417 0.0
C266 C 0.74581 0.68901 0.38121 0.0
C267 C 0.7279 0.62456 0.4484 0.0
C268 C 0.67275 0.62916 0.44467 0.0
H269 H 0.806 0.64957 0.4218 0.0
H270 H 0.74363 0.59888 0.47664 0.0
S271 S 0.60546 0.71515 0.35563 0.0
N272 N 0.66946 0.7263 0.34254 0.0
N273 N 0.60171 0.67121 0.40175 0.0
C274 C 0.65404 0.66337 0.408 0.0
C275 C 0.69074 0.69346 0.37619 0.0
C276 C 0.2148 0.33325 0.15145 0.0
C277 C 0.21765 0.33492 0.20641 0.0
C278 C 0.18638 0.36799 0.12263 0.0
C279 C 0.15968 0.40557 0.14766 0.0
H280 H 0.23197 0.30307 0.13056 0.0
H281 H 0.18221 0.36311 0.0808 0.0
S282 S 0.16133 0.43188 0.28944 0.0
N283 N 0.19694 0.38237 0.28376 0.0
N284 N 0.14196 0.4458 0.22968 0.0
C285 C 0.16492 0.40977 0.20204 0.0
C286 C 0.19429 0.37499 0.23136 0.0
C287 C 0.74881 0.16773 0.91412 0.0
C288 C 0.75537 0.16571 0.85977 0.0
C289 C 0.70997 0.13509 0.93844 0.0
C290 C 0.67614 0.09982 0.90922 0.0
H291 H 0.77011 0.1978 0.93755 0.0
H292 H 0.70325 0.14065 0.97948 0.0
S293 S 0.6855 0.06965 0.76924 0.0
N294 N 0.73214 0.11745 0.77995 0.0
N295 N 0.65693 0.05802 0.82569 0.0
C296 C 0.68575 0.0934 0.85629 0.0
C297 C 0.72613 0.12581 0.83158 0.0
C298 C 0.90456 0.88337 0.35268 0.0
C299 C 0.87907 0.84313 0.38193 0.0
C300 C 0.93819 0.92293 0.37664 0.0
C301 C 0.94656 0.92449 0.43083 0.0
H302 H 0.90051 0.88302 0.31062 0.0
H303 H 0.95982 0.95107 0.35241 0.0
S304 S 0.88801 0.83118 0.526 0.0
N305 N 0.86408 0.80903 0.46903 0.0
N306 N 0.92532 0.8847 0.51352 0.0
C307 C 0.91896 0.88676 0.46092 0.0
C308 C 0.88553 0.84585 0.43665 0.0
C309 C 0.37939 0.67737 0.59245 0.0
C310 C 0.38478 0.70469 0.6399 0.0
C311 C 0.41444 0.6407 0.57997 0.0
C312 C 0.45614 0.62991 0.61452 0.0
H313 H 0.34945 0.68612 0.56365 0.0
H314 H 0.41066 0.62292 0.54179 0.0
S315 S 0.48435 0.68779 0.74556 0.0
N316 N 0.4329 0.71632 0.72266 0.0
N317 N 0.4982 0.64691 0.69988 0.0
C318 C 0.46014 0.65511 0.66318 0.0
C319 C 0.42461 0.69253 0.67571 0.0
C320 C 0.9998 0.00747 0.80206 0.0
C321 C 0.97895 0.95585 0.80366 0.0
C322 C 0.01695 0.03014 0.7554 0.0
C323 C 0.01412 1.00208 0.70849 0.0
H324 H 1.0006 0.03117 0.83676 0.0
H325 H 0.0294 0.07087 0.75538 0.0
S326 S 0.96468 0.86519 0.69203 0.0
N327 N 0.95887 0.87652 0.75482 0.0
N328 N 0.99067 0.91952 0.66677 0.0
C329 C 0.99646 0.94965 0.71002 0.0
C330 C 0.97894 0.92643 0.75774 0.0
C331 C 0.61477 0.10512 0.24745 0.0
C332 C 0.61871 0.07472 0.29226 0.0
C333 C 0.59482 0.08343 0.1998 0.0
C334 C 0.57818 0.03072 0.19566 0.0
H335 H 0.63065 0.14499 0.24834 0.0
H336 H 0.59676 0.10711 0.16531 0.0
S337 S 0.56946 0.93771 0.30441 0.0
N338 N 0.59635 0.99164 0.3314 0.0
N339 N 0.5587 0.95095 0.24247 0.0
C340 C 0.5768 1.00146 0.24154 0.0
C341 C 0.59727 0.02339 0.28967 0.0
C342 C 0.50767 0.6074 0.27214 0.0
C343 C 0.55719 0.61286 0.24753 0.0
C344 C 0.50223 0.58387 0.32035 0.0
C345 C 0.54582 0.56455 0.346 0.0
H346 H 0.47223 0.62054 0.25405 0.0
H347 H 0.46304 0.57964 0.33724 0.0
S348 S 0.68411 0.56941 0.29957 0.0
N349 N 0.65108 0.59783 0.25325 0.0
N350 N 0.6402 0.55247 0.34455 0.0
C351 C 0.59585 0.57045 0.32299 0.0
C352 C 0.60158 0.59471 0.27349 0.0
C353 C 0.08283 0.45654 0.77207 0.0
C354 C 0.11545 0.41861 0.75667 0.0
C355 C 0.07776 0.4689 0.82455 0.0
C356 C 0.10275 0.4422 0.86388 0.0
H357 H 0.06345 0.47902 0.74319 0.0
H358 H 0.05643 0.50159 0.83429 0.0
S359 S 0.19057 0.3382 0.84541 0.0
N360 N 0.17237 0.35354 0.78568 0.0
N361 N 0.16042 0.37562 0.88477 0.0
C362 C 0.13317 0.40243 0.84957 0.0
C363 C 0.13949 0.39043 0.79586 0.0
C364 C 0.79743 0.97564 0.91193 0.0
C365 C 0.84394 0.9706 0.9425 0.0
C366 C 0.74981 0.98744 0.93486 0.0
C367 C 0.74735 0.99439 0.98903 0.0
H368 H 0.79666 0.96654 0.87076 0.0
H369 H 0.71382 0.98658 0.91073 0.0
S370 S 0.86092 0.9969 0.08404 0.0
N371 N 0.88669 0.98244 0.02802 0.0
N372 N 0.7974 1.00378 0.07107 0.0
C373 C 0.79491 0.99469 0.01893 0.0
C374 C 0.84317 0.98295 0.99568 0.0
C375 C 0.81868 0.0662 0.39785 0.0
C376 C 0.76945 0.06327 0.42293 0.0
C377 C 0.86581 0.0566 0.42535 0.0
C378 C 0.86468 0.04437 0.4786 0.0
H379 H 0.82147 0.08029 0.35835 0.0
H380 H 0.90367 0.0638 0.40634 0.0
S381 S 0.74445 0.02248 0.55859 0.0
N382 N 0.72137 0.03963 0.50116 0.0
N383 N 0.80964 0.02233 0.55285 0.0
C384 C 0.81498 0.03611 0.50218 0.0
C385 C 0.76734 0.04546 0.4743 0.0
C386 C 0.31092 0.60459 0.12834 0.0
C387 C 0.35268 0.58898 0.09863 0.0
C388 C 0.25833 0.58294 0.11966 0.0
C389 C 0.24631 0.54462 0.08165 0.0
H390 H 0.31818 0.63678 0.15498 0.0
H391 H 0.22637 0.59986 0.13895 0.0
S392 S 0.34289 0.48551 0.99954 0.0
N393 N 0.37982 0.52933 0.03427 0.0
N394 N 0.28099 0.48794 0.01866 0.0
C395 C 0.28858 0.52509 0.05584 0.0
C396 C 0.3419 0.54764 0.06402 0.0
C397 C 0.30781 0.53176 0.61638 0.0
C398 C 0.26079 0.53049 0.58533 0.0
C399 C 0.3569 0.52394 0.5945 0.0
C400 C 0.36047 0.51493 0.54088 0.0
H401 H 0.30663 0.53884 0.65786 0.0
H402 H 0.39202 0.52415 0.61978 0.0
S403 S 0.24943 0.51088 0.4426 0.0
N404 N 0.22119 0.52172 0.49835 0.0
N405 N 0.3132 0.50685 0.45701 0.0
C406 C 0.31381 0.51427 0.50941 0.0
C407 C 0.26406 0.5223 0.53166 0.0
C408 C 0.97825 0.72733 1.00672 0.0
C409 C 0.96259 0.74268 0.95659 0.0
C410 C 0.00752 0.68458 0.01383 0.0
C411 C 0.02189 0.65565 0.9711 0.0
H412 H 0.96741 0.7483 0.04066 0.0
H413 H 0.01953 0.67454 0.05291 0.0
S414 S 0.99316 0.68216 0.83172 0.0
N415 N 0.96611 0.72759 0.86364 0.0
N416 N 0.01981 0.64681 0.87666 0.0
C417 C 0.00753 0.67158 0.92073 0.0
C418 C 0.97823 0.71519 0.91358 0.0
C419 C 0.51402 0.74241 0.99473 0.0
C420 C 0.46527 0.73449 0.0202 0.0
C421 C 0.53567 0.79201 0.98308 0.0
C422 C 0.50898 0.83486 0.99634 0.0
H423 H 0.53876 0.71102 0.99037 0.0
H424 H 0.57639 0.79719 0.96999 0.0
S425 S 0.3734 0.83291 0.04891 0.0
N426 N 0.38563 0.77202 0.04729 0.0
N427 N 0.42638 0.86556 0.02477 0.0
C428 C 0.4563 0.82671 0.01304 0.0
C429 C 0.4343 0.77612 0.02522 0.0
C430 C 0.15495 0.27229 0.61429 0.0
C431 C 0.13538 0.3166 0.59311 0.0
C432 C 0.1362 0.2232 0.5958 0.0
C433 C 0.09707 0.21672 0.55573 0.0
H434 H 0.18214 0.27545 0.64774 0.0
H435 H 0.14863 0.19007 0.61631 0.0
S436 S 0.03751 0.31991 0.48305 0.0
N437 N 0.07875 0.35062 0.52609 0.0
N438 N 0.04318 0.25825 0.49219 0.0
C439 C 0.08062 0.26059 0.53135 0.0
C440 C 0.09997 0.31061 0.54976 0.0
C441 C 0.55529 0.25281 0.4878 0.0
C442 C 0.61027 0.24896 0.49399 0.0
C443 C 0.53422 0.30006 0.49255 0.0
C444 C 0.56733 0.34547 0.50311 0.0
H445 H 0.5285 0.21929 0.47762 0.0
H446 H 0.49169 0.30131 0.48582 0.0
S447 S 0.71398 0.35535 0.52502 0.0
N448 N 0.69738 0.29369 0.51384 0.0
N449 N 0.65775 0.38318 0.52143 0.0
C450 C 0.62219 0.3419 0.51147 0.0
C451 C 0.64368 0.29349 0.50695 0.0
loop_
_geom_bond_atom_site_label_1
_geom_bond_atom_site_label_2
_geom_bond_distance
_geom_bond_site_symmetry_2
_ccdc_geom_bond_type
H0 C7 0.929 . S
H1 C10 0.930 . S
H2 C12 0.929 . S
H3 C4 0.969 . S
C4 H3 0.969 . S
C4 O5 1.550 . S
C4 H6 0.973 . S
O5 C4 1.550 . S
O5 C11 1.412 . S
H6 C4 0.973 . S
C7 H0 0.929 . S
C7 C8 1.400 . S
C7 C9 1.364 . S
C8 C7 1.400 . S
C8 C12 1.377 . S
C9 C7 1.364 . S
C9 C10 1.374 . S
C10 H1 0.930 . S
C10 C9 1.374 . S
C10 C11 1.383 . S
C11 O5 1.412 . S
C11 C10 1.383 . S
C11 C12 1.394 . S
C12 H2 0.929 . S
C12 C8 1.377 . S
C12 C11 1.394 . S
H13 C20 0.929 . S
H14 C23 0.930 . S
H15 C25 0.929 . S
H16 C17 0.969 . S
C17 H16 0.969 . S
C17 O18 1.550 . S
C17 H19 0.973 . S
O18 C17 1.550 . S
O18 C24 1.412 . S
H19 C17 0.973 . S
C20 H13 0.929 . S
C20 C21 1.400 . S
C20 C22 1.364 . S
C21 C20 1.400 . S
C21 C25 1.377 . S
C22 C20 1.364 . S
C22 C23 1.374 . S
C23 H14 0.930 . S
C23 C22 1.374 . S
C23 C24 1.383 . S
C24 O18 1.412 . S
C24 C23 1.383 . S
C24 C25 1.394 . S
C25 H15 0.929 . S
C25 C21 1.377 . S
C25 C24 1.394 . S
H26 C33 0.929 . S
H27 C36 0.930 . S
H28 C38 0.929 . S
H29 C30 0.969 . S
C30 H29 0.969 . S
C30 O31 1.550 . S
C30 H32 0.973 . S
O31 C30 1.550 . S
O31 C37 1.412 . S
H32 C30 0.973 . S
C33 H26 0.929 . S
C33 C34 1.400 . S
C33 C35 1.364 . S
C34 C33 1.400 . S
C34 C38 1.377 . S
C35 C33 1.364 . S
C35 C36 1.374 . S
C36 H27 0.930 . S
C36 C35 1.374 . S
C36 C37 1.383 . S
C37 O31 1.412 . S
C37 C36 1.383 . S
C37 C38 1.394 . S
C38 H28 0.929 . S
C38 C34 1.377 . S
C38 C37 1.394 . S
H39 C46 0.929 . S
H40 C49 0.930 . S
H41 C51 0.929 . S
H42 C43 0.969 . S
C43 H42 0.969 . S
C43 O44 1.550 . S
C43 H45 0.973 . S
O44 C43 1.550 . S
O44 C50 1.412 . S
H45 C43 0.973 . S
C46 H39 0.929 . S
C46 C47 1.400 . S
C46 C48 1.364 . S
C47 C46 1.400 . S
C47 C51 1.377 . S
C48 C46 1.364 . S
C48 C49 1.374 . S
C49 H40 0.930 . S
C49 C48 1.374 . S
C49 C50 1.383 . S
C50 O44 1.412 . S
C50 C49 1.383 . S
C50 C51 1.394 . S
C51 H41 0.929 . S
C51 C47 1.377 . S
C51 C50 1.394 . S
H52 C59 0.929 1_545 S
H53 C62 0.930 . S
H54 C64 0.929 . S
H55 C56 0.969 . S
C56 H55 0.969 . S
C56 O57 1.550 1_655 S
C56 H58 0.973 1_556 S
O57 C56 1.550 1_455 S
O57 C63 1.412 1_455 S
H58 C56 0.973 1_554 S
C59 H52 0.929 1_565 S
C59 C60 1.400 . S
C59 C61 1.364 . S
C60 C59 1.400 . S
C60 C64 1.377 1_655 S
C61 C59 1.364 . S
C61 C62 1.374 . S
C62 H53 0.930 . S
C62 C61 1.374 . S
C62 C63 1.383 . S
C63 O57 1.412 1_655 S
C63 C62 1.383 . S
C63 C64 1.394 1_655 S
C64 H54 0.929 . S
C64 C60 1.377 1_455 S
C64 C63 1.394 1_455 S
H65 C72 0.929 . S
H66 C75 0.930 . S
H67 C77 0.929 . S
H68 C69 0.969 . S
C69 H68 0.969 . S
C69 O70 1.550 . S
C69 H71 0.973 . S
O70 C69 1.550 . S
O70 C76 1.412 . S
H71 C69 0.973 . S
C72 H65 0.929 . S
C72 C73 1.400 . S
C72 C74 1.364 . S
C73 C72 1.400 . S
C73 C77 1.377 . S
C74 C72 1.364 . S
C74 C75 1.374 . S
C75 H66 0.930 . S
C75 C74 1.374 . S
C75 C76 1.383 . S
C76 O70 1.412 . S
C76 C75 1.383 . S
C76 C77 1.394 . S
C77 H67 0.929 . S
C77 C73 1.377 . S
C77 C76 1.394 . S
H78 C85 0.929 1_556 S
H79 C88 0.930 . S
H80 C90 0.929 . S
H81 C82 0.969 . S
C82 H81 0.969 . S
C82 O83 1.550 . S
C82 H84 0.973 . S
O83 C82 1.550 . S
O83 C89 1.412 . S
H84 C82 0.973 . S
C85 H78 0.929 1_554 S
C85 C86 1.400 . S
C85 C87 1.364 . S
C86 C85 1.400 . S
C86 C90 1.377 . S
C87 C85 1.364 . S
C87 C88 1.374 . S
C88 H79 0.930 . S
C88 C87 1.374 . S
C88 C89 1.383 . S
C89 O83 1.412 . S
C89 C88 1.383 . S
C89 C90 1.394 . S
C90 H80 0.929 . S
C90 C86 1.377 . S
C90 C89 1.394 . S
H91 C98 0.929 . S
H92 C101 0.930 . S
H93 C103 0.929 . S
H94 C95 0.969 . S
C95 H94 0.969 . S
C95 O96 1.550 . S
C95 H97 0.973 . S
O96 C95 1.550 . S
O96 C102 1.412 . S
H97 C95 0.973 . S
C98 H91 0.929 . S
C98 C99 1.400 . S
C98 C100 1.364 . S
C99 C98 1.400 . S
C99 C103 1.377 . S
C100 C98 1.364 . S
C100 C101 1.374 . S
C101 H92 0.930 . S
C101 C100 1.374 . S
C101 C102 1.383 . S
C102 O96 1.412 . S
C102 C101 1.383 . S
C102 C103 1.394 . S
C103 H93 0.929 . S
C103 C99 1.377 . S
C103 C102 1.394 . S
Zn104 O110 1.920 . S
Zn104 O116 1.898 . S
Zn104 O119 1.905 . S
Zn105 O113 1.905 1_565 S
Zn105 O114 1.898 . S
Zn105 O122 1.920 . S
Zn106 O109 2.080 1_455 S
Zn106 O112 2.114 . S
Zn106 O115 2.120 1_445 S
Zn106 O117 2.120 . S
Zn106 O118 2.114 1_455 S
Zn106 O121 2.080 . S
C107 O112 1.166 . S
C107 O113 1.182 . S
C108 O114 1.167 1_655 S
C108 O115 1.299 . S
O109 Zn106 2.080 1_655 S
O109 C123 1.305 . S
O110 Zn104 1.920 . S
O110 C123 1.234 . S
C111 O116 1.167 1_455 S
C111 O117 1.299 . S
O112 Zn106 2.114 . S
O112 C107 1.166 . S
O113 Zn105 1.905 1_545 S
O113 C107 1.182 . S
O114 Zn105 1.898 . S
O114 C108 1.167 1_455 S
O115 Zn106 2.120 1_665 S
O115 C108 1.299 . S
O116 Zn104 1.898 . S
O116 C111 1.167 1_655 S
O117 Zn106 2.120 . S
O117 C111 1.299 . S
O118 Zn106 2.114 1_655 S
O118 C120 1.166 . S
O119 Zn104 1.905 . S
O119 C120 1.182 . S
C120 O118 1.166 . S
C120 O119 1.182 . S
O121 Zn106 2.080 . S
O121 C124 1.305 1_545 S
O122 Zn105 1.920 . S
O122 C124 1.234 . S
C123 O109 1.305 . S
C123 O110 1.234 . S
C124 O121 1.305 1_565 S
C124 O122 1.234 . S
Zn125 O131 1.910 1_556 S
Zn125 O137 1.898 . S
Zn125 O140 1.905 . S
Zn126 O134 1.905 . S
Zn126 O135 1.898 . S
Zn126 O143 1.920 . S
Zn127 O130 2.080 . S
Zn127 O133 2.114 1_544 S
Zn127 O136 2.120 1_545 S
Zn127 O138 2.120 1_554 S
Zn127 O139 2.114 1_544 S
Zn127 O142 2.080 . S
C128 O133 1.166 1_554 S
C128 O134 1.182 . S
C129 O135 1.167 . S
C129 O136 1.299 . S
O130 Zn127 2.080 . S
O130 C144 1.305 . S
O131 Zn125 1.910 1_554 S
O131 C144 1.242 . S
C132 O137 1.167 . S
C132 O138 1.299 . S
O133 Zn127 2.114 1_566 S
O133 C128 1.166 1_556 S
O134 Zn126 1.905 . S
O134 C128 1.182 . S
O135 Zn126 1.898 . S
O135 C129 1.167 . S
O136 Zn127 2.120 1_565 S
O136 C129 1.299 . S
O137 Zn125 1.898 . S
O137 C132 1.167 . S
O138 Zn127 2.120 1_556 S
O138 C132 1.299 . S
O139 Zn127 2.114 1_566 S
O139 C141 1.166 . S
O140 Zn125 1.905 . S
O140 C141 1.182 1_545 S
C141 O139 1.166 . S
C141 O140 1.182 1_565 S
O142 Zn127 2.080 . S
O142 C145 1.305 . S
O143 Zn126 1.920 . S
O143 C145 1.234 1_565 S
C144 O130 1.305 . S
C144 O131 1.242 . S
C145 O142 1.305 . S
C145 O143 1.234 1_545 S
Zn146 O152 1.920 . S
Zn146 O158 1.898 . S
Zn146 O161 1.905 . S
Zn147 O155 1.905 . S
Zn147 O156 1.898 . S
Zn147 O164 1.920 . S
Zn148 O151 2.080 . S
Zn148 O154 2.114 . S
Zn148 O157 2.120 . S
Zn148 O159 2.120 . S
Zn148 O160 2.114 . S
Zn148 O163 2.080 . S
C149 O154 1.166 . S
C149 O155 1.182 . S
C150 O156 1.167 . S
C150 O157 1.299 . S
O151 Zn148 2.080 . S
O151 C165 1.305 . S
O152 Zn146 1.920 . S
O152 C165 1.234 . S
C153 O158 1.167 . S
C153 O159 1.299 . S
O154 Zn148 2.114 . S
O154 C149 1.166 . S
O155 Zn147 1.905 . S
O155 C149 1.182 . S
O156 Zn147 1.898 . S
O156 C150 1.167 . S
O157 Zn148 2.120 . S
O157 C150 1.299 . S
O158 Zn146 1.898 . S
O158 C153 1.167 . S
O159 Zn148 2.120 . S
O159 C153 1.299 . S
O160 Zn148 2.114 . S
O160 C162 1.166 . S
O161 Zn146 1.905 . S
O161 C162 1.182 . S
C162 O160 1.166 . S
C162 O161 1.182 . S
O163 Zn148 2.080 . S
O163 C166 1.305 . S
O164 Zn147 1.920 . S
O164 C166 1.234 . S
C165 O151 1.305 . S
C165 O152 1.234 . S
C166 O163 1.305 . S
C166 O164 1.234 . S
Zn167 O173 1.920 . S
Zn167 O179 1.898 . S
Zn167 O182 1.905 . S
Zn168 O176 1.905 1_655 S
Zn168 O177 1.898 . S
Zn168 O185 1.920 . S
Zn169 O172 2.080 1_554 S
Zn169 O175 2.114 . S
Zn169 O178 2.120 1_454 S
Zn169 O180 2.120 . S
Zn169 O181 2.114 1_554 S
Zn169 O184 2.080 . S
C170 O175 1.166 . S
C170 O176 1.182 . S
C171 O177 1.167 1_556 S
C171 O178 1.299 . S
O172 Zn169 2.080 1_556 S
O172 C186 1.305 . S
O173 Zn167 1.920 . S
O173 C186 1.234 . S
C174 O179 1.167 1_554 S
C174 O180 1.299 . S
O175 Zn169 2.114 . S
O175 C170 1.166 . S
O176 Zn168 1.905 1_455 S
O176 C170 1.182 . S
O177 Zn168 1.898 . S
O177 C171 1.167 1_554 S
O178 Zn169 2.120 1_656 S
O178 C171 1.299 . S
O179 Zn167 1.898 . S
O179 C174 1.167 1_556 S
O180 Zn169 2.120 . S
O180 C174 1.299 . S
O181 Zn169 2.114 1_556 S
O181 C183 1.166 . S
O182 Zn167 1.905 . S
O182 C183 1.182 . S
C183 O181 1.166 . S
C183 O182 1.182 . S
O184 Zn169 2.080 . S
O184 C187 1.305 1_455 S
O185 Zn168 1.920 . S
O185 C187 1.234 . S
C186 O172 1.305 . S
C186 O173 1.234 . S
C187 O184 1.305 1_655 S
C187 O185 1.234 . S
C188 C189 1.369 . S
C188 C190 1.419 . S
C188 H192 0.930 . S
C189 C188 1.369 . S
C189 C198 1.429 . S
C190 C188 1.419 . S
C190 C191 1.363 . S
C190 H193 0.929 . S
C191 C190 1.363 . S
C191 C197 1.428 . S
H192 C188 0.930 . S
H193 C190 0.929 . S
S194 N195 1.613 . S
S194 N196 1.610 . S
N195 S194 1.613 . S
N195 C198 1.350 . S
N196 S194 1.610 . S
N196 C197 1.351 . S
C197 C191 1.428 . S
C197 N196 1.351 . S
C197 C198 1.434 . S
C198 C189 1.429 . S
C198 N195 1.350 . S
C198 C197 1.434 . S
C199 C200 1.369 . S
C199 C201 1.419 . S
C199 H203 0.930 . S
C200 C199 1.369 . S
C200 C209 1.429 . S
C201 C199 1.419 . S
C201 C202 1.363 . S
C201 H204 0.929 . S
C202 C201 1.363 . S
C202 C208 1.428 . S
H203 C199 0.930 . S
H204 C201 0.929 . S
S205 N206 1.613 . S
S205 N207 1.610 . S
N206 S205 1.613 . S
N206 C209 1.350 . S
N207 S205 1.610 . S
N207 C208 1.351 . S
C208 C202 1.428 . S
C208 N207 1.351 . S
C208 C209 1.434 . S
C209 C200 1.429 . S
C209 N206 1.350 . S
C209 C208 1.434 . S
C210 C211 1.369 . S
C210 C212 1.419 . S
C210 H214 0.930 . S
C211 C210 1.369 . S
C211 C220 1.429 . S
C212 C210 1.419 . S
C212 C213 1.363 . S
C212 H215 0.929 . S
C213 C212 1.363 . S
C213 C219 1.428 . S
H214 C210 0.930 . S
H215 C212 0.929 . S
S216 N217 1.613 . S
S216 N218 1.610 . S
N217 S216 1.613 . S
N217 C220 1.350 . S
N218 S216 1.610 . S
N218 C219 1.351 . S
C219 C213 1.428 . S
C219 N218 1.351 . S
C219 C220 1.434 . S
C220 C211 1.429 . S
C220 N217 1.350 . S
C220 C219 1.434 . S
C221 C222 1.369 . S
C221 C223 1.419 . S
C221 H225 0.930 . S
C222 C221 1.369 . S
C222 C231 1.429 . S
C223 C221 1.419 . S
C223 C224 1.363 . S
C223 H226 0.929 . S
C224 C223 1.363 . S
C224 C230 1.428 . S
H225 C221 0.930 . S
H226 C223 0.929 . S
S227 N228 1.613 . S
S227 N229 1.610 . S
N228 S227 1.613 . S
N228 C231 1.350 . S
N229 S227 1.610 . S
N229 C230 1.351 . S
C230 C224 1.428 . S
C230 N229 1.351 . S
C230 C231 1.434 . S
C231 C222 1.429 . S
C231 N228 1.350 . S
C231 C230 1.434 . S
C232 C233 1.369 . S
C232 C234 1.419 . S
C232 H236 0.930 . S
C233 C232 1.369 . S
C233 C242 1.429 . S
C234 C232 1.419 . S
C234 C235 1.363 . S
C234 H237 0.929 . S
C235 C234 1.363 . S
C235 C241 1.428 . S
H236 C232 0.930 . S
H237 C234 0.929 . S
S238 N239 1.628 . S
S238 N240 1.612 . S
N239 S238 1.628 . S
N239 C242 1.350 . S
N240 S238 1.612 . S
N240 C241 1.351 . S
C241 C235 1.428 . S
C241 N240 1.351 . S
C241 C242 1.434 . S
C242 C233 1.429 . S
C242 N239 1.350 . S
C242 C241 1.434 . S
C243 C244 1.369 . S
C243 C245 1.419 . S
C243 H247 0.930 . S
C244 C243 1.369 . S
C244 C253 1.429 . S
C245 C243 1.419 . S
C245 C246 1.363 . S
C245 H248 0.933 . S
C246 C245 1.363 . S
C246 C252 1.428 . S
H247 C243 0.930 . S
H248 C245 0.933 . S
S249 N250 1.613 . S
S249 N251 1.610 . S
N250 S249 1.613 . S
N250 C253 1.350 . S
N251 S249 1.610 . S
N251 C252 1.351 . S
C252 C246 1.428 . S
C252 N251 1.351 . S
C252 C253 1.434 . S
C253 C244 1.429 . S
C253 N250 1.350 . S
C253 C252 1.434 . S
C254 C255 1.369 . S
C254 C256 1.419 . S
C254 H258 0.930 . S
C255 C254 1.369 . S
C255 C264 1.429 . S
C256 C254 1.419 . S
C256 C257 1.363 . S
C256 H259 0.929 1_556 S
C257 C256 1.363 . S
C257 C263 1.428 . S
H258 C254 0.930 . S
H259 C256 0.929 1_554 S
S260 N261 1.613 . S
S260 N262 1.610 . S
N261 S260 1.613 . S
N261 C264 1.350 . S
N262 S260 1.610 . S
N262 C263 1.351 . S
C263 C257 1.428 . S
C263 N262 1.351 . S
C263 C264 1.434 . S
C264 C255 1.429 . S
C264 N261 1.350 . S
C264 C263 1.434 . S
C265 C266 1.369 . S
C265 C267 1.419 . S
C265 H269 0.930 . S
C266 C265 1.369 . S
C266 C275 1.429 . S
C267 C265 1.419 . S
C267 C268 1.363 . S
C267 H270 0.929 . S
C268 C267 1.363 . S
C268 C274 1.428 . S
H269 C265 0.930 . S
H270 C267 0.929 . S
S271 N272 1.613 . S
S271 N273 1.610 . S
N272 S271 1.613 . S
N272 C275 1.350 . S
N273 S271 1.610 . S
N273 C274 1.351 . S
C274 C268 1.428 . S
C274 N273 1.351 . S
C274 C275 1.434 . S
C275 C266 1.429 . S
C275 N272 1.350 . S
C275 C274 1.434 . S
C276 C277 1.369 . S
C276 C278 1.419 . S
C276 H280 0.930 . S
C277 C276 1.369 . S
C277 C286 1.429 . S
C278 C276 1.419 . S
C278 C279 1.363 . S
C278 H281 0.929 . S
C279 C278 1.363 . S
C279 C285 1.428 . S
H280 C276 0.930 . S
H281 C278 0.929 . S
S282 N283 1.613 . S
S282 N284 1.610 . S
N283 S282 1.613 . S
N283 C286 1.350 . S
N284 S282 1.610 . S
N284 C285 1.351 . S
C285 C279 1.428 . S
C285 N284 1.351 . S
C285 C286 1.434 . S
C286 C277 1.429 . S
C286 N283 1.350 . S
C286 C285 1.434 . S
C287 C288 1.369 . S
C287 C289 1.419 . S
C287 H291 0.930 . S
C288 C287 1.369 . S
C288 C297 1.429 . S
C289 C287 1.419 . S
C289 C290 1.363 . S
C289 H292 0.944 . S
C290 C289 1.363 . S
C290 C296 1.428 . S
H291 C287 0.930 . S
H292 C289 0.944 . S
S293 N294 1.613 . S
S293 N295 1.610 . S
N294 S293 1.613 . S
N294 C297 1.350 . S
N295 S293 1.610 . S
N295 C296 1.351 . S
C296 C290 1.428 . S
C296 N295 1.351 . S
C296 C297 1.434 . S
C297 C288 1.429 . S
C297 N294 1.350 . S
C297 C296 1.434 . S
C298 C299 1.369 . S
C298 C300 1.419 . S
C298 H302 0.930 . S
C299 C298 1.369 . S
C299 C308 1.429 . S
C300 C298 1.419 . S
C300 C301 1.363 . S
C300 H303 0.929 . S
C301 C300 1.363 . S
C301 C307 1.428 . S
H302 C298 0.930 . S
H303 C300 0.929 . S
S304 N305 1.613 . S
S304 N306 1.610 . S
N305 S304 1.613 . S
N305 C308 1.350 . S
N306 S304 1.610 . S
N306 C307 1.351 . S
C307 C301 1.428 . S
C307 N306 1.351 . S
C307 C308 1.434 . S
C308 C299 1.429 . S
C308 N305 1.350 . S
C308 C307 1.434 . S
C309 C310 1.369 . S
C309 C311 1.419 . S
C309 H313 0.930 . S
C310 C309 1.369 . S
C310 C319 1.429 . S
C311 C309 1.419 . S
C311 C312 1.363 . S
C311 H314 0.929 . S
C312 C311 1.363 . S
C312 C318 1.428 . S
H313 C309 0.930 . S
H314 C311 0.929 . S
S315 N316 1.613 . S
S315 N317 1.610 . S
N316 S315 1.613 . S
N316 C319 1.350 . S
N317 S315 1.610 . S
N317 C318 1.351 . S
C318 C312 1.428 . S
C318 N317 1.351 . S
C318 C319 1.434 . S
C319 C310 1.429 . S
C319 N316 1.350 . S
C319 C318 1.434 . S
C320 C321 1.369 1_545 S
C320 C322 1.419 . S
C320 H324 0.930 . S
C321 C320 1.369 1_565 S
C321 C330 1.429 1_655 S
C322 C320 1.419 . S
C322 C323 1.363 . S
C322 H325 0.929 . S
C323 C322 1.363 . S
C323 C329 1.428 1_645 S
H324 C320 0.930 . S
H325 C322 0.929 . S
S326 N327 1.613 . S
S326 N328 1.610 . S
N327 S326 1.613 . S
N327 C330 1.350 . S
N328 S326 1.610 . S
N328 C329 1.351 . S
C329 C323 1.428 1_465 S
C329 N328 1.351 . S
C329 C330 1.434 . S
C330 C321 1.429 1_455 S
C330 N327 1.350 . S
C330 C329 1.434 . S
C331 C332 1.369 . S
C331 C333 1.419 . S
C331 H335 0.930 . S
C332 C331 1.369 . S
C332 C341 1.429 . S
C333 C331 1.419 . S
C333 C334 1.363 . S
C333 H336 0.929 . S
C334 C333 1.363 . S
C334 C340 1.428 . S
H335 C331 0.930 . S
H336 C333 0.929 . S
S337 N338 1.613 . S
S337 N339 1.610 . S
N338 S337 1.613 . S
N338 C341 1.350 1_565 S
N339 S337 1.610 . S
N339 C340 1.351 1_565 S
C340 C334 1.428 . S
C340 N339 1.351 1_545 S
C340 C341 1.434 . S
C341 C332 1.429 . S
C341 N338 1.350 1_545 S
C341 C340 1.434 . S
C342 C343 1.369 . S
C342 C344 1.419 . S
C342 H346 0.930 . S
C343 C342 1.369 . S
C343 C352 1.429 . S
C344 C342 1.419 . S
C344 C345 1.363 . S
C344 H347 0.929 . S
C345 C344 1.363 . S
C345 C351 1.428 . S
H346 C342 0.930 . S
H347 C344 0.929 . S
S348 N349 1.613 . S
S348 N350 1.610 . S
N349 S348 1.613 . S
N349 C352 1.350 . S
N350 S348 1.610 . S
N350 C351 1.351 . S
C351 C345 1.428 . S
C351 N350 1.351 . S
C351 C352 1.434 . S
C352 C343 1.429 . S
C352 N349 1.350 . S
C352 C351 1.434 . S
C353 C354 1.369 . S
C353 C355 1.419 . S
C353 H357 0.930 . S
C354 C353 1.369 . S
C354 C363 1.429 . S
C355 C353 1.419 . S
C355 C356 1.363 . S
C355 H358 0.929 . S
C356 C355 1.363 . S
C356 C362 1.428 . S
H357 C353 0.930 . S
H358 C355 0.929 . S
S359 N360 1.613 . S
S359 N361 1.610 . S
N360 S359 1.613 . S
N360 C363 1.350 . S
N361 S359 1.610 . S
N361 C362 1.351 . S
C362 C356 1.428 . S
C362 N361 1.351 . S
C362 C363 1.434 . S
C363 C354 1.429 . S
C363 N360 1.350 . S
C363 C362 1.434 . S
C364 C365 1.369 . S
C364 C366 1.419 . S
C364 H368 0.930 . S
C365 C364 1.369 . S
C365 C374 1.429 1_565 S
C366 C364 1.419 . S
C366 C367 1.363 . S
C366 H369 0.929 . S
C367 C366 1.363 . S
C367 C373 1.428 1_566 S
H368 C364 0.930 . S
H369 C366 0.929 . S
S370 N371 1.613 . S
S370 N372 1.610 . S
N371 S370 1.613 . S
N371 C374 1.350 1_554 S
N372 S370 1.610 . S
N372 C373 1.351 . S
C373 C367 1.428 1_544 S
C373 N372 1.351 . S
C373 C374 1.434 1_554 S
C374 C365 1.429 1_545 S
C374 N371 1.350 1_556 S
C374 C373 1.434 1_556 S
C375 C376 1.369 . S
C375 C377 1.419 . S
C375 H379 0.930 . S
C376 C375 1.369 . S
C376 C385 1.429 . S
C377 C375 1.419 . S
C377 C378 1.363 . S
C377 H380 0.929 . S
C378 C377 1.363 . S
C378 C384 1.428 . S
H379 C375 0.930 . S
H380 C377 0.929 . S
S381 N382 1.613 . S
S381 N383 1.610 . S
N382 S381 1.613 . S
N382 C385 1.350 . S
N383 S381 1.610 . S
N383 C384 1.351 . S
C384 C378 1.428 . S
C384 N383 1.351 . S
C384 C385 1.434 . S
C385 C376 1.429 . S
C385 N382 1.350 . S
C385 C384 1.434 . S
C386 C387 1.369 . S
C386 C388 1.419 . S
C386 H390 0.930 . S
C387 C386 1.369 . S
C387 C396 1.429 . S
C388 C386 1.419 . S
C388 C389 1.363 . S
C388 H391 0.929 . S
C389 C388 1.363 . S
C389 C395 1.428 . S
H390 C386 0.930 . S
H391 C388 0.929 . S
S392 N393 1.613 . S
S392 N394 1.610 . S
N393 S392 1.613 . S
N393 C396 1.350 . S
N394 S392 1.610 . S
N394 C395 1.351 . S
C395 C389 1.428 . S
C395 N394 1.351 . S
C395 C396 1.434 . S
C396 C387 1.429 . S
C396 N393 1.350 . S
C396 C395 1.434 . S
C397 C398 1.369 . S
C397 C399 1.419 . S
C397 H401 0.930 . S
C398 C397 1.369 . S
C398 C407 1.429 . S
C399 C397 1.419 . S
C399 C400 1.363 . S
C399 H402 0.929 . S
C400 C399 1.363 . S
C400 C406 1.428 . S
H401 C397 0.930 . S
H402 C399 0.929 . S
S403 N404 1.613 . S
S403 N405 1.610 . S
N404 S403 1.613 . S
N404 C407 1.350 . S
N405 S403 1.610 . S
N405 C406 1.351 . S
C406 C400 1.428 . S
C406 N405 1.351 . S
C406 C407 1.434 . S
C407 C398 1.429 . S
C407 N404 1.350 . S
C407 C406 1.434 . S
C408 C409 1.369 1_554 S
C408 C410 1.419 . S
C408 H412 0.930 . S
C409 C408 1.369 1_556 S
C409 C418 1.429 1_455 S
C410 C408 1.419 . S
C410 C411 1.363 1_554 S
C410 H413 0.929 . S
C411 C410 1.363 1_556 S
C411 C417 1.428 1_455 S
H412 C408 0.930 . S
H413 C410 0.929 . S
S414 N415 1.613 . S
S414 N416 1.610 . S
N415 S414 1.613 . S
N415 C418 1.350 . S
N416 S414 1.610 . S
N416 C417 1.351 . S
C417 C411 1.428 1_655 S
C417 N416 1.351 . S
C417 C418 1.434 . S
C418 C409 1.429 1_655 S
C418 N415 1.350 . S
C418 C417 1.434 . S
C419 C420 1.369 . S
C419 C421 1.419 . S
C419 H423 0.930 . S
C420 C419 1.369 . S
C420 C429 1.429 . S
C421 C419 1.419 . S
C421 C422 1.363 . S
C421 H424 0.929 . S
C422 C421 1.363 . S
C422 C428 1.428 . S
H423 C419 0.930 . S
H424 C421 0.929 . S
S425 N426 1.613 . S
S425 N427 1.610 . S
N426 S425 1.613 . S
N426 C429 1.350 . S
N427 S425 1.610 . S
N427 C428 1.351 . S
C428 C422 1.428 . S
C428 N427 1.351 . S
C428 C429 1.434 . S
C429 C420 1.429 . S
C429 N426 1.350 . S
C429 C428 1.434 . S
C430 C431 1.369 . S
C430 C432 1.419 . S
C430 H434 0.930 . S
C431 C430 1.369 . S
C431 C440 1.429 . S
C432 C430 1.419 . S
C432 C433 1.363 . S
C432 H435 0.939 . S
C433 C432 1.363 . S
C433 C439 1.428 . S
H434 C430 0.930 . S
H435 C432 0.939 . S
S436 N437 1.613 . S
S436 N438 1.610 . S
N437 S436 1.613 . S
N437 C440 1.350 . S
N438 S436 1.610 . S
N438 C439 1.351 . S
C439 C433 1.428 . S
C439 N438 1.351 . S
C439 C440 1.434 . S
C440 C431 1.429 . S
C440 N437 1.350 . S
C440 C439 1.434 . S
C441 C442 1.369 . S
C441 C443 1.419 . S
C441 H445 0.930 . S
C442 C441 1.369 . S
C442 C451 1.429 . S
C443 C441 1.419 . S
C443 C444 1.363 . S
C443 H446 0.929 . S
C444 C443 1.363 . S
C444 C450 1.428 . S
H445 C441 0.930 . S
H446 C443 0.929 . S
S447 N448 1.613 . S
S447 N449 1.610 . S
N448 S447 1.613 . S
N448 C451 1.350 . S
N449 S447 1.610 . S
N449 C450 1.351 . S
C450 C444 1.428 . S
C450 N449 1.351 . S
C450 C451 1.434 . S
C451 C442 1.429 . S
C451 N448 1.350 . S
C451 C450 1.434 . S
C189 C9 1.870 . S
C191 C107 1.725 . S
C200 C21 1.568 . S
C202 C141 1.413 . S
C213 C153 1.307 . S
C211 C30 1.321 . S
C222 C43 1.304 . S
C224 C187 1.314 . S
C235 C144 1.412 . S
C233 C4 1.455 . S
C246 C124 1.771 . S
C244 C22 1.914 . S
C257 C171 1.206 . S
C255 C34 1.279 . S
C268 C162 1.338 . S
C266 C48 1.426 . S
C277 C8 1.630 . S
C279 C170 1.505 . S
C290 C132 1.407 . S
C288 C35 1.528 . S
C299 C47 1.580 . S
C301 C108 1.434 . S
C310 C17 1.450 . S
C312 C165 1.416 . S
C323 C123 1.543 . S
C321 C60 1.616 . S
C332 C74 1.793 . S
C334 C145 1.696 . S
C343 C82 1.302 . S
C345 C150 1.207 . S
C354 C100 1.812 . S
C356 C183 1.740 . S
C365 C61 1.809 . S
C367 C128 1.692 1_556 S
C378 C120 1.622 . S
C376 C73 1.672 . S
C389 C174 1.495 . S
C387 C87 1.673 . S
C400 C166 1.255 . S
C398 C95 1.227 . S
C409 C56 1.544 1_455 S
C411 C186 1.575 . S
C422 C129 1.650 . S
C420 C86 1.696 . S
C433 C111 1.438 . S
C431 C99 1.557 . S
C442 C69 1.546 . S
C444 C149 1.453 . S
