# Generated by pormake.
# Topology anh, (6,3)-cn, num edge types: 1
# Building blocks:
#     Node 0, Type 0, BuildingBlock: NUHQIS_clean_sbu_0, # of connection points: 6
#     Node 1, Type 0, BuildingBlock: NUHQIS_clean_sbu_0, # of connection points: 6
#     Node 2, Type 0, BuildingBlock: NUHQIS_clean_sbu_0, # of connection points: 6
#     Node 3, Type 1, BuildingBlock: BELTOD_clean_linker_0, # of connection points: 3
#     Node 4, Type 1, BuildingBlock: BELTOD_clean_linker_0, # of connection points: 3
#     Node 5, Type 1, BuildingBlock: BELTOD_clean_linker_0, # of connection points: 3
#     Node 6, Type 1, BuildingBlock: BELTOD_clean_linker_0, # of connection points: 3
#     Node 7, Type 1, BuildingBlock: BELTOD_clean_linker_0, # of connection points: 3
#     Node 8, Type 1, BuildingBlock: BELTOD_clean_linker_0, # of connection points: 3
#     Edge 9, Type (0, 1), BuildingBlock: TEMPAE_clean_linker_10, # of connection points: 2
#     Edge 10, Type (0, 1), BuildingBlock: TEMPAE_clean_linker_10, # of connection points: 2
#     Edge 11, Type (0, 1), BuildingBlock: TEMPAE_clean_linker_10, # of connection points: 2
#     Edge 12, Type (0, 1), BuildingBlock: TEMPAE_clean_linker_10, # of connection points: 2
#     Edge 13, Type (0, 1), BuildingBlock: TEMPAE_clean_linker_10, # of connection points: 2
#     Edge 14, Type (0, 1), BuildingBlock: TEMPAE_clean_linker_10, # of connection points: 2
#     Edge 15, Type (0, 1), BuildingBlock: TEMPAE_clean_linker_10, # of connection points: 2
#     Edge 16, Type (0, 1), BuildingBlock: TEMPAE_clean_linker_10, # of connection points: 2
#     Edge 17, Type (0, 1), BuildingBlock: TEMPAE_clean_linker_10, # of connection points: 2
#     Edge 18, Type (0, 1), BuildingBlock: TEMPAE_clean_linker_10, # of connection points: 2
#     Edge 19, Type (0, 1), BuildingBlock: TEMPAE_clean_linker_10, # of connection points: 2
#     Edge 20, Type (0, 1), BuildingBlock: TEMPAE_clean_linker_10, # of connection points: 2
#     Edge 21, Type (0, 1), BuildingBlock: TEMPAE_clean_linker_10, # of connection points: 2
#     Edge 22, Type (0, 1), BuildingBlock: TEMPAE_clean_linker_10, # of connection points: 2
#     Edge 23, Type (0, 1), BuildingBlock: TEMPAE_clean_linker_10, # of connection points: 2
#     Edge 24, Type (0, 1), BuildingBlock: TEMPAE_clean_linker_10, # of connection points: 2
#     Edge 25, Type (0, 1), BuildingBlock: TEMPAE_clean_linker_10, # of connection points: 2
#     Edge 26, Type (0, 1), BuildingBlock: TEMPAE_clean_linker_10, # of connection points: 2
# Relax obj value: 0.242
# Max RMSD: 0.183
# Mean RMSD: 0.147
data_MOF--net-anh--node1-NUHQIS_clean_sbu_0--node2-BELTOD_clean_linker_0--edge1-TEMPAE_clean_linker_10
_symmetry_space_group_name_H-M    P1
_symmetry_Int_Tables_number       1
_symmetry_cell_setting            triclinic
loop_
_symmetry_equiv_pos_as_xyz
'x, y, z'
_cell_length_a     35.81748
_cell_length_b     35.854967
_cell_length_c     61.333365
_cell_angle_alpha  90.48784
_cell_angle_beta   92.883035
_cell_angle_gamma 120.03229
loop_
_atom_site_label
_atom_site_type_symbol
_atom_site_fract_x
_atom_site_fract_y
_atom_site_fract_z
_atom_type_partial_charge
Tb0 Tb 0.10195 0.562 0.15693 0.0
Eu1 Eu 1.05302 0.61369 0.16558 0.0
C2 C 0.09536 0.58439 0.20416 0.0
C3 C 0.99942 0.50827 0.16528 0.0
C4 C 0.17846 0.51834 0.15482 0.0
C5 C 0.22088 0.5009 0.18052 0.0
C6 C 0.18851 0.51129 0.17631 0.0
C7 C 0.20325 0.51796 0.13798 0.0
C8 C 0.23564 0.5078 0.14219 0.0
C9 C 0.24371 0.4976 0.16335 0.0
C10 C 0.13889 0.51981 0.14898 0.0
O11 O 0.06598 0.55759 0.12652 0.0
O12 O 0.06871 0.62172 0.12975 0.0
O13 O 0.12347 0.66825 0.16944 0.0
O14 O 0.15655 0.63114 0.15808 0.0
C15 C 0.06559 0.59015 0.11734 0.0
O16 O 1.0096 0.63613 0.15372 0.0
O17 O 1.03366 0.64834 0.18763 0.0
O18 O 1.06103 0.58663 0.19776 0.0
O19 O 0.12211 0.58617 0.19002 0.0
O20 O 1.0376 0.51059 0.16754 0.0
O21 O 0.99805 0.54341 0.16053 0.0
C22 C 0.15893 0.66794 0.16467 0.0
O23 O 0.11162 0.51056 0.16413 0.0
O24 O 0.14248 0.55146 0.13719 0.0
C25 C 0.95946 0.62245 0.1795 0.0
C26 C 0.87058 0.56251 0.17914 0.0
C27 C 0.88526 0.60356 0.17061 0.0
C28 C 0.92946 0.63328 0.17071 0.0
C29 C 0.94469 0.58306 0.18984 0.0
C30 C 0.90056 0.55336 0.18974 0.0
C31 C 1.0044 0.64637 0.17333 0.0
H32 H 0.22672 0.49358 0.19701 0.0
H33 H 0.16998 0.51157 0.18967 0.0
H34 H 0.19586 0.523 0.12128 0.0
H35 H 0.25219 0.50495 0.12852 0.0
H36 H 0.86269 0.61159 0.1626 0.0
H37 H 0.94024 0.66325 0.16246 0.0
H38 H 0.96731 0.57369 0.19643 0.0
H39 H 0.89027 0.52193 0.19628 0.0
Tb40 Tb 0.62551 0.1369 0.49424 0.0
Eu41 Eu 0.5238 0.08549 0.49906 0.0
C42 C 0.59201 0.11909 0.53996 0.0
C43 C 0.57724 1.03273 0.50005 0.0
C44 C 0.74451 0.21901 0.4974 0.0
C45 C 0.80355 0.26179 0.52436 0.0
C46 C 0.76241 0.22659 0.51905 0.0
C47 C 0.76702 0.24879 0.48161 0.0
C48 C 0.80794 0.28394 0.48693 0.0
C49 C 0.82736 0.28988 0.50814 0.0
C50 C 0.70578 0.17788 0.4903 0.0
O51 O 0.59688 0.10408 0.46282 0.0
O52 O 0.53403 0.1046 0.46348 0.0
O53 O 0.54095 0.15563 0.50587 0.0
O54 O 0.60884 0.18978 0.49293 0.0
C55 C 0.56397 0.10364 0.45234 0.0
O56 O 0.45849 1.04181 0.48528 0.0
O57 O 0.46816 0.06615 0.5187 0.0
O58 O 0.55659 0.08554 0.5316 0.0
O59 O 0.61711 0.14969 0.52743 0.0
O60 O 0.61329 0.07084 0.50237 0.0
O61 O 0.54003 1.03124 0.4955 0.0
C62 C 0.57548 0.19157 0.5005 0.0
O63 O 0.68716 0.1497 0.50517 0.0
O64 O 0.67785 0.17952 0.4764 0.0
C65 C 0.41949 0.99249 0.51116 0.0
C66 C 0.38304 0.90273 0.51473 0.0
C67 C 0.42674 0.93109 0.52128 0.0
C68 C 0.44458 0.97542 0.51968 0.0
C69 C 0.37524 0.96505 0.50625 0.0
C70 C 0.35696 0.92051 0.50835 0.0
C71 C 0.44148 1.03708 0.50409 0.0
H72 H 0.81762 0.26577 0.54087 0.0
H73 H 0.74572 0.20424 0.53164 0.0
H74 H 0.75407 0.24352 0.4648 0.0
H75 H 0.82562 0.30452 0.47394 0.0
H76 H 0.4483 0.91929 0.52613 0.0
H77 H 0.47885 0.99617 0.52369 0.0
H78 H 0.35536 0.97775 0.49972 0.0
H79 H 0.32287 0.89997 0.50388 0.0
Tb80 Tb 0.54547 0.585 0.83408 0.0
Eu81 Eu 0.49448 0.48356 0.82184 0.0
C82 C 0.51981 0.51869 0.87021 0.0
C83 C 0.60129 0.53642 0.8303 0.0
C84 C 0.57938 0.69924 0.85255 0.0
C85 C 0.60502 0.7595 0.87879 0.0
C86 C 0.60154 0.7203 0.87241 0.0
C87 C 0.55733 0.7159 0.84024 0.0
C88 C 0.56124 0.75522 0.84644 0.0
C89 C 0.58715 0.77872 0.86516 0.0
C90 C 0.58562 0.66491 0.84312 0.0
O91 O 0.5528 0.57889 0.79888 0.0
O92 O 0.49429 0.51269 0.78976 0.0
O93 O 0.43972 0.49769 0.82925 0.0
O94 O 0.47756 0.57178 0.83181 0.0
C95 C 0.52551 0.54995 0.78404 0.0
O96 O 0.47898 0.42705 0.80134 0.0
O97 O 0.45035 0.41889 0.83249 0.0
O98 O 0.52454 0.49509 0.85564 0.0
O99 O 0.51764 0.55249 0.86409 0.0
O100 O 0.59839 0.56937 0.8382 0.0
O101 O 0.56651 0.50285 0.82071 0.0
C102 C 0.44031 0.53485 0.83162 0.0
O103 O 0.58588 0.63658 0.85621 0.0
O104 O 0.56548 0.64749 0.82427 0.0
C105 C 0.47941 0.37532 0.82386 0.0
C106 C 0.52736 0.3337 0.83233 0.0
C107 C 0.54302 0.37628 0.8401 0.0
C108 C 0.51915 0.39662 0.83606 0.0
C109 C 0.46233 0.33223 0.81695 0.0
C110 C 0.48598 0.31136 0.82135 0.0
C111 C 0.45929 0.40047 0.81673 0.0
H112 H 0.62434 0.77619 0.89358 0.0
H113 H 0.61865 0.708 0.88227 0.0
H114 H 0.53972 0.70038 0.82489 0.0
H115 H 0.54717 0.76884 0.83536 0.0
H116 H 0.57494 0.39509 0.84817 0.0
H117 H 0.5329 0.4299 0.84156 0.0
H118 H 0.43161 0.3153 0.80754 0.0
H119 H 0.47253 0.27828 0.81546 0.0
P120 P 0.58948 0.0856 0.2114 0.0
H121 H 0.49909 0.04821 0.22713 0.0
H122 H 0.43127 0.98218 0.21826 0.0
H123 H 0.48547 0.95778 0.16252 0.0
H124 H 0.55441 1.02444 0.17175 0.0
H125 H 0.6472 0.11411 0.17372 0.0
H126 H 0.7116 0.1816 0.16529 0.0
H127 H 0.6896 0.24671 0.21824 0.0
H128 H 0.62662 0.17944 0.22682 0.0
H129 H 0.61188 0.05062 0.25017 0.0
H130 H 0.55567 0.13087 0.2379 0.0
O131 O 0.61642 0.05898 0.20954 0.0
H132 H 0.60292 0.05405 0.28908 0.0
H133 H 0.54694 0.13474 0.27716 0.0
C134 C 0.53361 0.04347 0.20015 0.0
C135 C 0.49704 1.02978 0.21267 0.0
C136 C 0.45744 0.99073 0.20767 0.0
C137 C 0.45161 0.96283 0.18971 0.0
C138 C 0.48747 0.9775 0.17648 0.0
C139 C 0.52745 1.01651 0.18168 0.0
C140 C 0.62983 0.13991 0.20087 0.0
C141 C 0.65527 0.14299 0.18327 0.0
C142 C 0.69306 0.18242 0.17848 0.0
C143 C 0.70793 0.22135 0.19108 0.0
C144 C 0.6813 0.21843 0.20814 0.0
C145 C 0.64372 0.17903 0.21293 0.0
C146 C 0.58541 0.0913 0.24082 0.0
C147 C 0.59803 0.06949 0.25575 0.0
C148 C 0.5925 0.07112 0.27817 0.0
C149 C 0.57413 0.09464 0.28644 0.0
C150 C 0.56171 0.11675 0.27151 0.0
C151 C 0.56692 0.11475 0.249 0.0
P152 P 0.59771 0.62234 0.54719 0.0
H153 H 0.65668 0.59478 0.52936 0.0
H154 H 0.65094 0.52546 0.52136 0.0
H155 H 0.51381 0.46172 0.52805 0.0
H156 H 0.51993 0.53199 0.53728 0.0
H157 H 0.61595 0.70254 0.56956 0.0
H158 H 0.61078 0.76558 0.56097 0.0
H159 H 0.55287 0.70899 0.49712 0.0
H160 H 0.55897 0.6449 0.50603 0.0
H161 H 0.62274 0.58046 0.58083 0.0
H162 H 0.53693 0.63195 0.57544 0.0
O163 O 0.65151 0.65129 0.5505 0.0
H164 H 0.60817 0.5667 0.61913 0.0
H165 H 0.52492 0.62184 0.61422 0.0
C166 C 0.58868 0.57054 0.5337 0.0
C167 C 0.62483 0.56649 0.5288 0.0
C168 C 0.62167 0.52598 0.52437 0.0
C169 C 0.58197 0.48673 0.52408 0.0
C170 C 0.54519 0.4906 0.52793 0.0
C171 C 0.54858 0.53139 0.53299 0.0
C172 C 0.58651 0.66681 0.53899 0.0
C173 C 0.60104 0.70262 0.55377 0.0
C174 C 0.598 0.73958 0.54873 0.0
C175 C 0.58061 0.74386 0.5283 0.0
C176 C 0.56651 0.70817 0.51313 0.0
C177 C 0.56954 0.67063 0.51831 0.0
C178 C 0.58168 0.60801 0.57511 0.0
C179 C 0.60082 0.58904 0.5879 0.0
C180 C 0.59288 0.58178 0.61008 0.0
C181 C 0.56604 0.59399 0.62039 0.0
C182 C 0.54565 0.61165 0.60722 0.0
C183 C 0.55293 0.61803 0.58486 0.0
P184 P 1.04097 0.56958 0.87369 0.0
H185 H 0.10739 0.60413 0.84032 0.0
H186 H 0.16903 0.59562 0.83265 0.0
H187 H 0.12552 0.49107 0.8768 0.0
H188 H 1.06328 0.49961 0.88427 0.0
H189 H 1.00475 0.60644 0.84092 0.0
H190 H 0.93343 0.59782 0.83301 0.0
H191 H 0.87811 0.48818 0.87403 0.0
H192 H 0.9503 0.4975 0.88209 0.0
H193 H 0.10177 0.56908 0.90865 0.0
H194 H 0.98433 0.57495 0.90567 0.0
O195 O 0.06746 0.62257 0.87 0.0
H196 H 0.10418 0.57261 0.94829 0.0
H197 H 0.9874 0.58002 0.94527 0.0
C198 C 0.07933 0.55279 0.86308 0.0
C199 C 0.11003 0.57848 0.84808 0.0
C200 C 0.14613 0.57364 0.8437 0.0
C201 C 0.15405 0.54296 0.85421 0.0
C202 C 0.12211 0.5158 0.86848 0.0
C203 C 0.08551 0.52025 0.87259 0.0
C204 C 0.98451 0.5527 0.8622 0.0
C205 C 0.97743 0.57967 0.84791 0.0
C206 C 0.93574 0.57471 0.84338 0.0
C207 C 0.89836 0.54249 0.85293 0.0
C208 C 0.90517 0.5141 0.86645 0.0
C209 C 0.94701 0.5189 0.87083 0.0
C210 C 1.0409 0.5681 0.90362 0.0
C211 C 0.07545 0.56942 0.9163 0.0
C212 C 0.07743 0.57262 0.93925 0.0
C213 C 1.04563 0.576 0.95033 0.0
C214 C 1.01179 0.57601 0.93758 0.0
C215 C 1.00978 0.57263 0.91466 0.0
P216 P 0.23092 0.49052 0.4152 0.0
H217 H 0.28041 0.51012 0.45679 0.0
H218 H 0.31883 0.57699 0.47942 0.0
H219 H 0.30757 0.64788 0.42544 0.0
H220 H 0.26806 0.58151 0.40328 0.0
H221 H 0.17582 0.40105 0.42783 0.0
H222 H 0.11648 0.3685 0.45241 0.0
H223 H 0.13523 0.49463 0.46835 0.0
H224 H 0.19411 0.52671 0.444 0.0
H225 H 0.26733 0.52256 0.37332 0.0
H226 H 0.14445 0.47688 0.40151 0.0
O227 O 0.25228 0.45943 0.41048 0.0
H228 H 0.2392 0.54019 0.34009 0.0
H229 H 0.11641 0.49395 0.36844 0.0
C230 C 0.27137 0.54069 0.42833 0.0
C231 C 0.28751 0.54029 0.4496 0.0
C232 C 0.30918 0.57831 0.46255 0.0
C233 C 0.31594 0.61729 0.45409 0.0
C234 C 0.30306 0.61818 0.4322 0.0
C235 C 0.2805 0.58008 0.41947 0.0
C236 C 0.18974 0.46626 0.43441 0.0
C237 C 0.16752 0.42163 0.43691 0.0
C238 C 0.13366 0.40315 0.45089 0.0
C239 C 0.12156 0.42914 0.46244 0.0
C240 C 0.14444 0.47391 0.46008 0.0
C241 C 0.17802 0.49224 0.44608 0.0
C242 C 0.20825 0.49865 0.38997 0.0
C243 C 0.23427 0.51593 0.37229 0.0
C244 C 0.21831 0.52629 0.35344 0.0
C245 C 0.17577 0.51876 0.35185 0.0
C246 C 0.1493 0.50006 0.36927 0.0
C247 C 0.16548 0.49035 0.38823 0.0
P248 P 0.79063 0.18019 0.76137 0.0
H249 H 0.81319 0.21737 0.80559 0.0
H250 H 0.78484 0.25504 0.82678 0.0
H251 H 0.72361 0.26971 0.76768 0.0
H252 H 0.74986 0.23072 0.74684 0.0
H253 H 0.81196 0.11371 0.77362 0.0
H254 H 0.7768 0.05124 0.7968 0.0
H255 H 0.67804 0.08307 0.8088 0.0
H256 H 0.71244 0.14451 0.78535 0.0
H257 H 0.80958 0.2286 0.72157 0.0
H258 H 0.71533 0.10176 0.74108 0.0
O259 O 0.84323 0.1973 0.76056 0.0
H260 H 0.77085 0.21368 0.68552 0.0
H261 H 0.67758 0.08657 0.70502 0.0
C262 C 0.78361 0.22102 0.77463 0.0
C263 C 0.79491 0.23002 0.79709 0.0
C264 C 0.77866 0.25132 0.8092 0.0
C265 C 0.75216 0.26507 0.79877 0.0
C266 C 0.7444 0.25973 0.776 0.0
C267 C 0.75958 0.23741 0.76403 0.0
C268 C 0.7654 0.13424 0.77823 0.0
C269 C 0.78288 0.10729 0.78132 0.0
C270 C 0.7628 0.07172 0.7945 0.0
C271 C 0.72514 0.06291 0.80477 0.0
C272 C 0.70752 0.08974 0.80141 0.0
C273 C 0.72718 0.12479 0.78801 0.0
C274 C 0.7653 0.16654 0.73409 0.0
C275 C 0.78102 0.19741 0.71802 0.0
C276 C 0.75881 0.189 0.69755 0.0
C277 C 0.72118 0.14913 0.69269 0.0
C278 C 0.70653 0.11754 0.70845 0.0
C279 C 0.7282 0.12632 0.72908 0.0
P280 P 0.45386 0.29723 0.07506 0.0
H281 H 0.48542 0.25677 0.10642 0.0
H282 H 0.55147 0.28753 0.13086 0.0
H283 H 0.60134 0.40793 0.09827 0.0
H284 H 0.5363 0.37762 0.07408 0.0
H285 H 0.36464 0.25062 0.0889 0.0
H286 H 0.32605 0.27151 0.11385 0.0
H287 H 0.44322 0.39304 0.12857 0.0
H288 H 0.48095 0.37258 0.10376 0.0
H289 H 0.50826 0.31701 0.03812 0.0
H290 H 0.40829 0.34135 0.05803 0.0
O291 O 0.42837 0.24442 0.06895 0.0
H292 H 0.51921 0.36223 0.00665 0.0
H293 H 0.41906 0.38634 0.02663 0.0
C294 C 0.50633 0.31452 0.08809 0.0
C295 C 0.51131 0.28925 0.10405 0.0
C296 C 0.5487 0.30684 0.11808 0.0
C297 C 0.58084 0.35009 0.11648 0.0
C298 C 0.57667 0.37455 0.09984 0.0
C299 C 0.53975 0.35693 0.08576 0.0
C300 C 0.42586 0.30964 0.0948 0.0
C301 C 0.38207 0.28137 0.09783 0.0
C302 C 0.36013 0.2933 0.11205 0.0
C303 C 0.38189 0.3336 0.1234 0.0
C304 C 0.42592 0.36132 0.12055 0.0
C305 C 0.44753 0.34962 0.10624 0.0
C306 C 0.45815 0.32651 0.05067 0.0
C307 C 0.48858 0.33192 0.03568 0.0
C308 C 0.49503 0.35801 0.01783 0.0
C309 C 0.47046 0.37836 0.01443 0.0
C310 C 0.43859 0.37123 0.02893 0.0
C311 C 0.43251 0.34554 0.04692 0.0
C312 C 0.30897 0.49301 0.15533 0.0
C313 C 0.27107 0.47764 0.16645 0.0
C314 C 0.32876 0.46812 0.15312 0.0
C315 C 0.31037 0.42713 0.16247 0.0
C316 C 0.27504 0.41366 0.17577 0.0
C317 C 0.25559 0.43904 0.17753 0.0
C318 C 0.36683 0.48392 0.13902 0.0
C319 C 0.25528 0.3707 0.18648 0.0
C320 C 0.32086 0.34734 0.12657 0.0
C321 C 0.35832 0.34958 0.13606 0.0
C322 C 0.3033 0.37046 0.13588 0.0
C323 C 0.32359 0.39612 0.15523 0.0
C324 C 0.35925 0.3956 0.16588 0.0
C325 C 0.37642 0.37247 0.15607 0.0
C326 C 0.26506 0.37004 0.12404 0.0
C327 C 0.38109 0.42171 0.18678 0.0
H328 H 0.32151 0.52329 0.14715 0.0
H329 H 0.22626 0.4269 0.18615 0.0
H330 H 0.39288 0.48005 0.14726 0.0
H331 H 0.35653 0.46434 0.12347 0.0
H332 H 0.38023 0.51832 0.13508 0.0
H333 H 0.23468 0.36916 0.19978 0.0
H334 H 0.23487 0.34469 0.17409 0.0
H335 H 0.28067 0.36419 0.19327 0.0
H336 H 0.30703 0.32998 0.11103 0.0
H337 H 0.40516 0.37379 0.16355 0.0
H338 H 0.27527 0.40234 0.11755 0.0
H339 H 0.23943 0.36293 0.13544 0.0
H340 H 0.25104 0.34583 0.1102 0.0
H341 H 0.4016 0.45612 0.18299 0.0
H342 H 0.40198 0.4109 0.19525 0.0
H343 H 0.35691 0.41959 0.19807 0.0
C344 C 0.89348 0.36013 0.50186 0.0
C345 C 0.87436 0.3203 0.51187 0.0
C346 C 0.9379 0.38261 0.49889 0.0
C347 C 0.96353 0.36485 0.5063 0.0
C348 C 0.94544 0.32793 0.51911 0.0
C349 C 0.90086 0.30587 0.52167 0.0
C350 C 0.95616 0.42243 0.48551 0.0
C351 C 0.97203 0.30876 0.52786 0.0
C352 C 1.04427 0.37473 0.46614 0.0
C353 C 0.08266 0.40965 0.47524 0.0
C354 C 1.00563 0.35915 0.47653 0.0
C355 C 1.00544 0.37886 0.49662 0.0
C356 C 1.04446 0.41286 0.50644 0.0
C357 C 0.08269 0.42809 0.49553 0.0
C358 C 0.96463 0.32271 0.4655 0.0
C359 C 1.04562 0.43425 0.52797 0.0
H360 H 0.87318 0.3719 0.49475 0.0
H361 H 0.88641 0.27519 0.52954 0.0
H362 H 0.98819 0.44756 0.49268 0.0
H363 H 0.96066 0.41402 0.46877 0.0
H364 H 0.93435 0.43611 0.48426 0.0
H365 H 0.9562 0.28653 0.54123 0.0
H366 H 0.97601 0.29022 0.51449 0.0
H367 H 1.00473 0.33437 0.53401 0.0
H368 H 1.04399 0.36082 0.45032 0.0
H369 H 0.11249 0.45493 0.50268 0.0
H370 H 0.94148 0.33401 0.46137 0.0
H371 H 0.94895 0.29575 0.47672 0.0
H372 H 0.97065 0.31014 0.45025 0.0
H373 H 1.03201 0.45577 0.52534 0.0
H374 H 0.0791 0.45392 0.53537 0.0
H375 H 1.02563 0.40995 0.53973 0.0
C376 C 0.64657 0.85469 0.87261 0.0
C377 C 0.60251 0.82564 0.86747 0.0
C378 C 0.66515 0.89812 0.86745 0.0
C379 C 0.63921 0.91249 0.85656 0.0
C380 C 0.59387 0.88499 0.85419 0.0
C381 C 0.57593 0.84187 0.85997 0.0
C382 C 0.71347 0.92697 0.87104 0.0
C383 C 0.56492 0.89931 0.84301 0.0
C384 C 0.69131 1.02865 0.83925 0.0
C385 C 0.70317 1.02481 0.81826 0.0
C386 C 0.67007 0.99238 0.85204 0.0
C387 C 0.66019 0.95151 0.84342 0.0
C388 C 0.67156 0.94754 0.82206 0.0
C389 C 0.69321 0.98432 0.80982 0.0
C390 C 0.65924 0.99799 0.87486 0.0
C391 C 0.66102 0.90438 0.8121 0.0
H392 H 0.66765 0.84296 0.87856 0.0
H393 H 0.54158 0.82001 0.85673 0.0
H394 H 0.72881 0.92873 0.85551 0.0
H395 H 0.7219 0.96019 0.87609 0.0
H396 H 0.72734 0.91448 0.88364 0.0
H397 H 0.53055 0.87803 0.84656 0.0
H398 H 0.57493 0.93296 0.84806 0.0
H399 H 0.56742 0.89821 0.82508 0.0
H400 H 0.69928 0.06016 0.84578 0.0
H401 H 0.70185 0.98138 0.79346 0.0
H402 H 0.681 0.99392 0.88688 0.0
H403 H 0.62565 0.9731 0.87792 0.0
H404 H 0.66309 1.03038 0.87786 0.0
H405 H 0.67818 0.89094 0.82184 0.0
H406 H 0.67039 0.90669 0.79495 0.0
H407 H 0.62586 0.88121 0.81237 0.0
C408 C 0.80177 0.49785 0.18969 0.0
C409 C 0.82556 0.52739 0.17401 0.0
C410 C 0.75999 0.46317 0.18421 0.0
C411 C 0.74214 0.45779 0.1625 0.0
C412 C 0.76648 0.48712 0.14658 0.0
C413 C 0.80772 0.52154 0.15255 0.0
C414 C 0.73515 0.43237 0.20156 0.0
C415 C 0.74885 0.48241 0.12317 0.0
C416 C 0.6485 0.35819 0.13463 0.0
C417 C 0.61781 0.37136 0.13268 0.0
C418 C 0.68828 0.38415 0.14634 0.0
C419 C 0.69699 0.42378 0.15628 0.0
C420 C 0.66403 0.4346 0.15625 0.0
C421 C 0.62487 0.40835 0.14428 0.0
C422 C 0.72225 0.3711 0.14634 0.0
C423 C 0.67155 0.476 0.16706 0.0
H424 H 0.81577 0.50201 0.20623 0.0
H425 H 0.82652 0.54347 0.14021 0.0
H426 H 0.70206 0.42757 0.20171 0.0
H427 H 0.73186 0.40048 0.19788 0.0
H428 H 0.75147 0.4439 0.21811 0.0
H429 H 0.77273 0.5069 0.11263 0.0
H430 H 0.7391 0.4499 0.11623 0.0
H431 H 0.71964 0.48574 0.12255 0.0
H432 H 0.64265 0.32931 0.12573 0.0
H433 H 0.60057 0.41796 0.14298 0.0
H434 H 0.73761 0.37525 0.163 0.0
H435 H 0.74771 0.39218 0.13542 0.0
H436 H 0.70871 0.33707 0.14052 0.0
H437 H 0.68806 0.48117 0.18352 0.0
H438 H 0.64086 0.47615 0.16866 0.0
H439 H 0.69281 0.50358 0.15712 0.0
C440 C 0.38528 0.83546 0.52419 0.0
C441 C 0.36704 0.85564 0.51157 0.0
C442 C 0.37791 0.79437 0.51811 0.0
C443 C 0.35006 0.77209 0.49959 0.0
C444 C 0.32835 0.79038 0.48804 0.0
C445 C 0.33764 0.83212 0.4939 0.0
C446 C 0.40222 0.77616 0.53057 0.0
C447 C 0.2973 0.767 0.46856 0.0
C448 C 0.36418 0.69569 0.46267 0.0
C449 C 0.33062 0.65578 0.46854 0.0
C450 C 0.37284 0.73374 0.47377 0.0
C451 C 0.34663 0.73171 0.4908 0.0
C452 C 0.31414 0.69118 0.49754 0.0
C453 C 0.30674 0.65354 0.48639 0.0
C454 C 0.40803 0.77616 0.4661 0.0
C455 C 0.28477 0.68764 0.5152 0.0
H456 H 0.40697 0.85251 0.53829 0.0
H457 H 0.32357 0.847 0.48373 0.0
H458 H 0.37962 0.74302 0.53557 0.0
H459 H 0.42514 0.77401 0.51981 0.0
H460 H 0.42077 0.79633 0.54536 0.0
H461 H 0.2786 0.78282 0.46334 0.0
H462 H 0.31554 0.76627 0.45463 0.0
H463 H 0.27427 0.73312 0.47235 0.0
H464 H 0.38249 0.69725 0.44881 0.0
H465 H 0.28029 0.62257 0.49066 0.0
H466 H 0.42506 0.7994 0.48003 0.0
H467 H 0.39343 0.79024 0.45494 0.0
H468 H 0.43202 0.7721 0.45712 0.0
H469 H 0.30349 0.70937 0.52947 0.0
H470 H 0.26588 0.65415 0.52079 0.0
H471 H 0.26178 0.6977 0.50875 0.0
C472 C 0.55731 0.29124 0.81542 0.0
C473 C 0.55666 0.31543 0.83334 0.0
C474 C 0.59013 0.28107 0.81405 0.0
C475 C 0.62369 0.29624 0.83077 0.0
C476 C 0.62179 0.31811 0.84958 0.0
C477 C 0.58792 0.32691 0.85078 0.0
C478 C 0.59046 0.25667 0.79392 0.0
C479 C 0.65706 0.33508 0.8677 0.0
C480 C 0.69673 0.24921 0.82543 0.0
C481 C 0.72671 0.27841 0.81148 0.0
C482 C 0.6644 0.25598 0.83327 0.0
C483 C 0.66266 0.29305 0.82714 0.0
C484 C 0.69539 0.3245 0.81472 0.0
C485 C 0.72682 0.31653 0.80679 0.0
C486 C 0.63005 0.22168 0.84641 0.0
C487 C 0.69538 0.36507 0.80845 0.0
H488 H 0.53378 0.28246 0.80173 0.0
H489 H 0.58713 0.34459 0.865 0.0
H490 H 0.61703 0.27876 0.7838 0.0
H491 H 0.59645 0.23019 0.79856 0.0
H492 H 0.55956 0.24273 0.78376 0.0
H493 H 0.64665 0.34335 0.88287 0.0
H494 H 0.66745 0.31131 0.87146 0.0
H495 H 0.68562 0.36469 0.86239 0.0
H496 H 0.69649 0.21945 0.82882 0.0
H497 H 0.75016 0.33903 0.79602 0.0
H498 H 0.59986 0.20322 0.83586 0.0
H499 H 0.62261 0.23636 0.86031 0.0
H500 H 0.63987 0.19877 0.85282 0.0
H501 H 0.66848 0.35698 0.79608 0.0
H502 H 0.72617 0.38893 0.80157 0.0
H503 H 0.69006 0.38012 0.82291 0.0
C504 C 0.53937 0.94968 0.50256 0.0
C505 C 0.57792 0.99019 0.50331 0.0
C506 C 0.53889 0.90999 0.50609 0.0
C507 C 0.57793 0.90907 0.51048 0.0
C508 C 0.61703 0.94983 0.51114 0.0
C509 C 0.61657 0.98918 0.50768 0.0
C510 C 0.4959 0.8689 0.50565 0.0
C511 C 0.65982 0.95202 0.51574 0.0
C512 C 0.57519 0.81096 0.54014 0.0
C513 C 0.57835 0.78543 0.5233 0.0
C514 C 0.575 0.85022 0.53626 0.0
C515 C 0.57783 0.86612 0.51482 0.0
C516 C 0.58015 0.84029 0.49765 0.0
C517 C 0.58039 0.80106 0.50199 0.0
C518 C 0.57157 0.87484 0.55537 0.0
C519 C 0.58239 0.85421 0.47441 0.0
H520 H 0.50895 0.94883 0.49933 0.0
H521 H 0.6469 1.01943 0.50847 0.0
H522 H 0.4972 0.84248 0.49683 0.0
H523 H 0.48786 0.85899 0.52264 0.0
H524 H 0.46953 0.87295 0.49786 0.0
H525 H 0.68753 0.98544 0.51538 0.0
H526 H 0.66058 0.93912 0.53204 0.0
H527 H 0.66386 0.93153 0.50351 0.0
H528 H 0.57229 0.80009 0.55669 0.0
H529 H 0.58301 0.783 0.4885 0.0
H530 H 0.54161 0.87665 0.55305 0.0
H531 H 0.5992 0.9084 0.55628 0.0
H532 H 0.57106 0.85969 0.57116 0.0
H533 H 0.55349 0.8568 0.46965 0.0
H534 H 0.58414 0.83138 0.46272 0.0
H535 H 0.61116 0.88663 0.47305 0.0
C536 C 0.6827 0.5726 0.84246 0.0
C537 C 0.64459 0.53657 0.83314 0.0
C538 C 0.72284 0.57303 0.84563 0.0
C539 C 0.72648 0.53654 0.83952 0.0
C540 C 0.68806 0.5 0.8302 0.0
C541 C 0.64834 0.50045 0.82714 0.0
C542 C 0.76167 0.61297 0.85572 0.0
C543 C 0.68875 0.45986 0.8235 0.0
C544 C 0.84138 0.55296 0.8298 0.0
C545 C 0.85352 0.53952 0.84923 0.0
C546 C 0.80087 0.5517 0.82642 0.0
C547 C 0.77011 0.53682 0.84277 0.0
C548 C 0.78185 0.52287 0.86234 0.0
C549 C 0.82252 0.52424 0.86526 0.0
C550 C 0.79095 0.5665 0.80509 0.0
C551 C 0.7514 0.50679 0.88055 0.0
H552 H 0.6813 0.60093 0.8474 0.0
H553 H 0.61987 0.47199 0.8201 0.0
H554 H 0.77398 0.60483 0.87084 0.0
H555 H 0.78803 0.62582 0.8443 0.0
H556 H 0.75421 0.63868 0.85983 0.0
H557 H 0.65663 0.43376 0.81683 0.0
H558 H 0.71259 0.46744 0.81097 0.0
H559 H 0.69919 0.4478 0.83779 0.0
H560 H 0.86351 0.56424 0.81684 0.0
H561 H 0.83034 0.51406 0.88054 0.0
H562 H 0.7857 0.59402 0.8082 0.0
H563 H 0.76064 0.54013 0.79696 0.0
H564 H 0.81731 0.57662 0.79376 0.0
H565 H 0.74495 0.53242 0.88616 0.0
H566 H 0.76446 0.49686 0.89474 0.0
H567 H 0.71997 0.47886 0.87451 0.0
C568 C 0.20462 0.75091 0.16979 0.0
C569 C 0.20275 0.71071 0.16722 0.0
C570 C 0.24446 0.79096 0.17273 0.0
C571 C 0.28504 0.79243 0.17365 0.0
C572 C 0.28347 0.75198 0.1711 0.0
C573 C 0.24306 0.71233 0.16778 0.0
C574 C 0.24297 0.83212 0.17488 0.0
C575 C 0.32478 0.75042 0.17223 0.0
C576 C 0.39183 0.90117 0.16408 0.0
C577 C 0.40917 0.9188 0.18539 0.0
C578 C 0.3523 0.86094 0.16008 0.0
C579 C 0.32848 0.83581 0.17765 0.0
C580 C 0.34616 0.85307 0.19916 0.0
C581 C 0.38529 0.89366 0.20269 0.0
C582 C 0.3356 0.84556 0.13679 0.0
C583 C 0.32366 0.82836 0.21872 0.0
H584 H 0.17453 0.75125 0.16941 0.0
H585 H 0.24316 0.68229 0.16602 0.0
H586 H 0.25731 0.84801 0.19115 0.0
H587 H 0.26256 0.85485 0.16243 0.0
H588 H 0.20951 0.82644 0.17289 0.0
H589 H 0.31886 0.71705 0.17011 0.0
H590 H 0.34588 0.77036 0.1594 0.0
H591 H 0.3427 0.76428 0.18824 0.0
H592 H 0.40874 0.91937 0.15029 0.0
H593 H 0.39761 0.90539 0.21932 0.0
H594 H 0.30299 0.84173 0.13399 0.0
H595 H 0.33226 0.81347 0.1337 0.0
H596 H 0.35716 0.86817 0.12481 0.0
H597 H 0.34174 0.84468 0.23439 0.0
H598 H 0.31954 0.79557 0.21777 0.0
H599 H 0.29091 0.82443 0.21875 0.0
C600 C 0.60402 0.27221 0.49211 0.0
C601 C 0.57658 0.2351 0.50351 0.0
C602 C 0.60433 0.31223 0.49473 0.0
C603 C 0.57761 0.31713 0.50971 0.0
C604 C 0.5504 0.27993 0.52149 0.0
C605 C 0.54974 0.24001 0.51805 0.0
C606 C 0.63323 0.34943 0.48112 0.0
C607 C 0.52212 0.28237 0.53818 0.0
C608 C 0.61008 0.43369 0.53146 0.0
C609 C 0.57996 0.44278 0.5205 0.0
C610 C 0.60926 0.39361 0.5284 0.0
C611 C 0.57849 0.36076 0.51331 0.0
C612 C 0.54833 0.36996 0.50197 0.0
C613 C 0.54892 0.40981 0.50592 0.0
C614 C 0.64137 0.38622 0.54171 0.0
C615 C 0.5155 0.33773 0.48522 0.0
H616 H 0.62498 0.26985 0.48072 0.0
H617 H 0.52842 0.21249 0.52726 0.0
H618 H 0.61394 0.36141 0.47207 0.0
H619 H 0.65791 0.37648 0.49188 0.0
H620 H 0.65 0.34039 0.46922 0.0
H621 H 0.50414 0.25175 0.54677 0.0
H622 H 0.54216 0.30875 0.55047 0.0
H623 H 0.49848 0.29005 0.53014 0.0
H624 H 0.63419 0.45792 0.54293 0.0
H625 H 0.5255 0.4156 0.49704 0.0
H626 H 0.6627 0.38188 0.53075 0.0
H627 H 0.62409 0.35621 0.55082 0.0
H628 H 0.66182 0.41341 0.55355 0.0
H629 H 0.53209 0.32955 0.47283 0.0
H630 H 0.49586 0.35 0.47677 0.0
H631 H 0.49347 0.30746 0.49317 0.0
C632 C 0.39796 0.57354 0.84093 0.0
C633 C 0.39783 0.53543 0.83458 0.0
C634 C 0.35914 0.57459 0.84422 0.0
C635 C 0.3176 0.53679 0.84088 0.0
C636 C 0.31722 0.49829 0.83428 0.0
C637 C 0.3566 0.49799 0.83143 0.0
C638 C 0.36275 0.6166 0.8515 0.0
C639 C 0.2748 0.45696 0.83007 0.0
C640 C 0.2164 0.52938 0.86751 0.0
C641 C 0.19544 0.54025 0.85064 0.0
C642 C 0.25536 0.52828 0.86465 0.0
C643 C 0.27508 0.5376 0.84422 0.0
C644 C 0.25385 0.54804 0.82706 0.0
C645 C 0.21527 0.54952 0.83045 0.0
C646 C 0.27592 0.51762 0.88381 0.0
C647 C 0.27192 0.55762 0.80481 0.0
H648 H 0.42882 0.60298 0.84365 0.0
H649 H 0.35492 0.46806 0.82654 0.0
H650 H 0.34568 0.62621 0.8392 0.0
H651 H 0.34687 0.61254 0.86708 0.0
H652 H 0.39686 0.64307 0.85389 0.0
H653 H 0.27917 0.42987 0.82455 0.0
H654 H 0.25689 0.44787 0.84516 0.0
H655 H 0.25443 0.46168 0.81742 0.0
H656 H 0.20287 0.52259 0.88336 0.0
H657 H 0.20024 0.55748 0.81693 0.0
H658 H 0.30929 0.54469 0.8876 0.0
H659 H 0.27835 0.48878 0.87964 0.0
H660 H 0.25744 0.51133 0.89866 0.0
H661 H 0.30499 0.5861 0.80607 0.0
H662 H 0.25164 0.56405 0.79288 0.0
H663 H 0.27452 0.53 0.79843 0.0
C664 C 0.95606 0.42752 0.17508 0.0
C665 C 0.95689 0.46572 0.16866 0.0
C666 C 0.91662 0.38837 0.17856 0.0
C667 C 0.87558 0.38588 0.17562 0.0
C668 C 0.87635 0.42435 0.16907 0.0
C669 C 0.91615 0.46301 0.16578 0.0
C670 C 0.91897 0.34935 0.18551 0.0
C671 C 0.83471 0.42472 0.16532 0.0
C672 C 0.76893 0.27317 0.16627 0.0
C673 C 0.7508 0.26388 0.18693 0.0
C674 C 0.80858 0.31183 0.16244 0.0
C675 C 0.83237 0.34366 0.17949 0.0
C676 C 0.81427 0.33478 0.2003 0.0
C677 C 0.77468 0.29584 0.20372 0.0
C678 C 0.82501 0.31869 0.13983 0.0
C679 C 0.83702 0.3667 0.21925 0.0
H680 H 0.98653 0.42814 0.17754 0.0
H681 H 0.91517 0.49146 0.16084 0.0
H682 H 0.90434 0.33889 0.20144 0.0
H683 H 0.90002 0.3222 0.17345 0.0
H684 H 0.9527 0.35568 0.18708 0.0
H685 H 0.83984 0.45597 0.15933 0.0
H686 H 0.81331 0.39887 0.15311 0.0
H687 H 0.8178 0.41793 0.18071 0.0
H688 H 0.75184 0.25035 0.15272 0.0
H689 H 0.76292 0.29032 0.21995 0.0
H690 H 0.85817 0.32351 0.14051 0.0
H691 H 0.82692 0.34831 0.1333 0.0
H692 H 0.80401 0.29111 0.1283 0.0
H693 H 0.81966 0.3557 0.23448 0.0
H694 H 0.84011 0.3982 0.21522 0.0
H695 H 0.8702 0.37212 0.22232 0.0
C696 C 1.05839 0.62261 0.08175 0.0
C697 C 1.06169 0.59016 0.09286 0.0
C698 C 1.05535 0.62232 0.05864 0.0
C699 C 1.05589 0.58897 0.04621 0.0
C700 C 1.05925 0.55625 0.05738 0.0
C701 C 1.06198 0.5572 0.08037 0.0
C702 C 1.0516 0.65773 0.04748 0.0
C703 C 1.06022 0.52017 0.045 0.0
C704 C 1.01059 0.56108 0.98662 0.0
C705 C 1.0482 0.5805 0.97493 0.0
C706 C 1.01253 0.56463 0.00965 0.0
C707 C 1.05309 0.58796 0.02158 0.0
C708 C 0.09114 0.60808 0.00992 0.0
C709 C 0.08825 0.60424 0.98688 0.0
C710 C 0.97107 0.54257 0.02126 0.0
C711 C 0.13512 0.63315 0.02182 0.0
H712 H 1.05815 0.64826 0.09111 0.0
H713 H 1.06469 0.53194 0.08859 0.0
H714 H 0.07911 0.67542 0.03701 0.0
H715 H 1.02158 0.64364 0.03665 0.0
H716 H 1.05116 0.68109 0.05934 0.0
H717 H 1.063 0.49717 0.05605 0.0
H718 H 1.03038 0.50211 0.03418 0.0
H719 H 0.08795 0.53367 0.03442 0.0
H720 H 0.97942 0.5422 0.9778 0.0
H721 H 0.1176 0.62021 0.97822 0.0
H722 H 0.96921 0.56592 0.0325 0.0
H723 H 0.97046 0.51674 0.03133 0.0
H724 H 0.94201 0.52804 0.0097 0.0
H725 H 0.13645 0.6588 0.03264 0.0
H726 H 0.16152 0.64826 0.01046 0.0
H727 H 0.14104 0.61142 0.03238 0.0
C728 C 0.52505 0.09535 0.41515 0.0
C729 C 0.56198 0.10239 0.42781 0.0
C730 C 0.52387 0.09393 0.39202 0.0
C731 C 0.5606 0.10015 0.38117 0.0
C732 C 0.59802 0.10775 0.39391 0.0
C733 C 0.59817 0.10857 0.41687 0.0
C734 C 0.48316 0.08539 0.37917 0.0
C735 C 0.63813 0.11495 0.38328 0.0
C736 C 0.55299 0.05814 0.32251 0.0
C737 C 0.56788 0.09568 0.31049 0.0
C738 C 0.54885 0.05883 0.34525 0.0
C739 C 0.5602 0.0981 0.35657 0.0
C740 C 0.57432 0.13595 0.34447 0.0
C741 C 0.57777 0.13425 0.32167 0.0
C742 C 0.53325 1.01755 0.35727 0.0
C743 C 0.58726 0.17866 0.35573 0.0
H744 H 0.4969 0.09052 0.42331 0.0
H745 H 0.62712 0.11438 0.4263 0.0
H746 H 0.49029 0.1123 0.3682 0.0
H747 H 0.47067 0.05569 0.36867 0.0
H748 H 0.45747 0.08151 0.3899 0.0
H749 H 0.66499 0.12155 0.39543 0.0
H750 H 0.63069 0.08611 0.37304 0.0
H751 H 0.64929 0.14254 0.37234 0.0
H752 H 0.54451 1.02797 0.3141 0.0
H753 H 0.58959 0.16354 0.31268 0.0
H754 H 0.50592 1.01184 0.36718 0.0
H755 H 0.55958 1.02028 0.36871 0.0
H756 H 0.52263 0.98914 0.346 0.0
H757 H 0.56102 0.17563 0.36576 0.0
H758 H 0.59481 0.20452 0.34396 0.0
H759 H 0.61619 0.18856 0.36699 0.0
C760 C 0.55168 0.59989 0.75241 0.0
C761 C 0.53162 0.55795 0.76021 0.0
C762 C 0.55688 0.60722 0.72985 0.0
C763 C 0.54293 0.57191 0.71468 0.0
C764 C 0.52327 0.52958 0.72258 0.0
C765 C 0.51733 0.52313 0.74507 0.0
C766 C 0.57698 0.65279 0.72222 0.0
C767 C 0.50899 0.49097 0.70727 0.0
C768 C 0.52152 0.58139 0.65357 0.0
C769 C 0.56013 0.58897 0.64468 0.0
C770 C 0.51597 0.57696 0.67624 0.0
C771 C 0.54927 0.57901 0.69062 0.0
C772 C 0.5882 0.5865 0.68185 0.0
C773 C 0.59336 0.59196 0.65923 0.0
C774 C 0.47417 0.56977 0.68479 0.0
C775 C 0.6244 0.58822 0.69637 0.0
H776 H 0.56262 0.62699 0.7639 0.0
H777 H 0.50219 0.4906 0.75089 0.0
H778 H 0.60714 0.66142 0.71416 0.0
H779 H 0.55466 0.65537 0.70991 0.0
H780 H 0.58468 0.67658 0.73587 0.0
H781 H 0.49517 0.46027 0.71599 0.0
H782 H 0.48432 0.48878 0.69484 0.0
H783 H 0.53685 0.49468 0.69841 0.0
H784 H 0.49512 0.57825 0.64282 0.0
H785 H 0.62387 0.59892 0.65303 0.0
H786 H 0.48094 0.59394 0.69808 0.0
H787 H 0.45672 0.53748 0.69184 0.0
H788 H 0.45262 0.57197 0.67182 0.0
H789 H 0.63575 0.61456 0.709 0.0
H790 H 0.65235 0.59351 0.68705 0.0
H791 H 0.61247 0.55762 0.70502 0.0
C792 C 0.65082 0.1469 0.56933 0.0
C793 C 0.60672 0.12116 0.5631 0.0
C794 C 0.66649 0.14881 0.59091 0.0
C795 C 0.63723 0.12511 0.60684 0.0
C796 C 0.59254 0.0993 0.60075 0.0
C797 C 0.57781 0.0972 0.57882 0.0
C798 C 0.7145 0.17605 0.59659 0.0
C799 C 0.56036 0.07431 0.61742 0.0
C800 C 0.68845 0.10558 0.65787 0.0
C801 C 0.69678 0.14092 0.67137 0.0
C802 C 0.66758 0.09903 0.63703 0.0
C803 C 0.65398 0.12804 0.62983 0.0
C804 C 0.66054 0.16261 0.6439 0.0
C805 C 0.68239 0.16895 0.66443 0.0
C806 C 0.662 0.06236 0.62233 0.0
C807 C 0.64577 0.19371 0.63699 0.0
H808 H 0.67346 0.16506 0.5572 0.0
H809 H 0.54371 0.0773 0.57403 0.0
H810 H 0.72088 0.20191 0.60878 0.0
H811 H 0.72688 0.15597 0.60409 0.0
H812 H 0.73302 0.19125 0.58208 0.0
H813 H 0.5267 0.05612 0.61009 0.0
H814 H 0.56845 0.05124 0.62523 0.0
H815 H 0.56203 0.09669 0.63054 0.0
H816 H 0.69968 0.08399 0.66332 0.0
H817 H 0.68839 0.19594 0.67507 0.0
H818 H 0.68221 0.07555 0.60815 0.0
H819 H 0.62795 1.04281 0.6158 0.0
H820 H 0.67143 1.04089 0.63094 0.0
H821 H 0.66536 0.21346 0.62368 0.0
H822 H 0.6489 0.21576 0.6507 0.0
H823 H 0.61156 0.17584 0.6305 0.0
C824 C 0.51397 0.46596 0.89778 0.0
C825 C 0.51479 0.50462 0.89305 0.0
C826 C 0.50713 0.44989 0.91876 0.0
C827 C 0.50134 0.47316 0.93569 0.0
C828 C 0.50296 0.51268 0.93127 0.0
C829 C 0.50947 0.52793 0.90989 0.0
C830 C 0.50545 0.40749 0.92266 0.0
C831 C 0.49743 0.53854 0.94905 0.0
C832 C 0.44316 0.40145 0.98189 0.0
C833 C 0.47797 0.40662 0.99568 0.0
C834 C 0.45016 0.42517 0.96293 0.0
C835 C 0.49297 0.45501 0.9578 0.0
C836 C 0.52804 0.46225 0.97241 0.0
C837 C 0.52013 0.43773 0.9911 0.0
C838 C 0.41191 0.41609 0.94766 0.0
C839 C 0.57411 0.49411 0.96766 0.0
H840 H 0.51803 0.44756 0.88494 0.0
H841 H 0.51013 0.55781 0.90637 0.0
H842 H 0.53062 0.41209 0.93542 0.0
H843 H 0.47367 0.38392 0.92869 0.0
H844 H 0.51045 0.39338 0.90766 0.0
H845 H 0.50143 0.56949 0.9432 0.0
H846 H 0.46484 0.51953 0.95536 0.0
H847 H 0.52132 0.54551 0.96296 0.0
H848 H 0.41053 0.37737 0.98538 0.0
H849 H 0.54705 0.44234 0.00197 0.0
H850 H 0.41212 0.39866 0.93267 0.0
H851 H 0.41394 0.44663 0.94258 0.0
H852 H 0.3807 0.39614 0.95523 0.0
H853 H 0.58394 0.48113 0.95399 0.0
H854 H 0.59693 0.50065 0.98205 0.0
H855 H 0.57702 0.52501 0.96253 0.0
C856 C 0.08423 0.58465 0.24438 0.0
C857 C 0.10307 0.57593 0.22702 0.0
C858 C 0.09279 0.57687 0.26602 0.0
C859 C 0.12005 0.55927 0.27017 0.0
C860 C 0.13831 0.54965 0.2526 0.0
C861 C 0.12987 0.55839 0.23134 0.0
C862 C 0.07326 0.588 0.28444 0.0
C863 C 0.16698 0.53019 0.2562 0.0
C864 C 0.18327 0.57161 0.32368 0.0
C865 C 0.15916 0.53055 0.33206 0.0
C866 C 0.16922 0.58248 0.30427 0.0
C867 C 0.13054 0.55123 0.29278 0.0
C868 C 0.10521 0.51025 0.30164 0.0
C869 C 0.11971 0.5005 0.32129 0.0
C870 C 0.19684 0.62671 0.29551 0.0
C871 C 1.06416 0.47582 0.28973 0.0
H872 H 1.0635 0.59819 0.24109 0.0
H873 H 0.14409 0.55094 0.218 0.0
H874 H 1.05384 0.55904 0.29395 0.0
H875 H 0.09934 0.61244 0.29581 0.0
H876 H 1.05228 0.60087 0.27847 0.0
H877 H 0.1773 0.5232 0.24064 0.0
H878 H 0.1963 0.55257 0.26656 0.0
H879 H 0.14973 0.49975 0.26498 0.0
H880 H 0.21343 0.59511 0.33223 0.0
H881 H 0.10108 0.4687 0.32777 0.0
H882 H 0.17668 0.64104 0.29052 0.0
H883 H 0.21225 0.62404 0.28078 0.0
H884 H 0.2227 0.64897 0.3077 0.0
H885 H 1.04305 0.48898 0.28458 0.0
H886 H 1.04577 0.44757 0.29991 0.0
H887 H 0.07227 0.46461 0.27471 0.0
loop_
_geom_bond_atom_site_label_1
_geom_bond_atom_site_label_2
_geom_bond_distance
_geom_bond_site_symmetry_2
_ccdc_geom_bond_type
Tb0 C10 2.825 . S
Tb0 O11 2.347 . S
Tb0 O14 2.366 . S
Tb0 O19 2.418 . S
Tb0 O20 2.384 1_455 S
Tb0 O23 2.479 . S
Tb0 O24 2.471 . S
Eu1 O12 2.420 . S
Eu1 O13 2.384 1_655 S
Eu1 O16 2.479 . S
Eu1 O17 2.471 . S
Eu1 O18 2.347 1_655 S
Eu1 O21 2.366 . S
Eu1 C31 2.825 . S
C2 O18 1.259 . S
C2 O19 1.265 . S
C3 O20 1.255 . S
C3 O21 1.265 . S
C4 C6 1.380 . S
C4 C7 1.374 . S
C4 C10 1.507 . S
C5 C6 1.384 . S
C5 C9 1.387 . S
C5 H32 0.930 . S
C6 C4 1.380 . S
C6 C5 1.384 . S
C6 H33 0.931 . S
C7 C4 1.374 . S
C7 C8 1.390 . S
C7 H34 0.930 . S
C8 C7 1.390 . S
C8 C9 1.391 . S
C8 H35 0.930 . S
C9 C5 1.387 . S
C9 C8 1.391 . S
C10 Tb0 2.825 . S
C10 C4 1.507 . S
C10 O23 1.238 . S
C10 O24 1.247 . S
O11 Tb0 2.347 . S
O11 C15 1.259 . S
O12 Eu1 2.420 . S
O12 C15 1.254 1_655 S
O13 Eu1 2.384 1_455 S
O13 C22 1.255 . S
O14 Tb0 2.366 . S
O14 C22 1.265 . S
C15 O11 1.259 . S
C15 O12 1.254 1_455 S
O16 Eu1 2.479 . S
O16 C31 1.238 . S
O17 Eu1 2.471 . S
O17 C31 1.247 . S
O18 Eu1 2.347 1_455 S
O18 C2 1.259 . S
O19 Tb0 2.418 . S
O19 C2 1.265 . S
O20 Tb0 2.384 1_655 S
O20 C3 1.255 . S
O21 Eu1 2.366 . S
O21 C3 1.265 . S
C22 O13 1.255 . S
C22 O14 1.265 . S
O23 Tb0 2.479 . S
O23 C10 1.238 . S
O24 Tb0 2.471 . S
O24 C10 1.247 . S
C25 C28 1.380 . S
C25 C29 1.374 . S
C25 C31 1.507 . S
C26 C27 1.387 . S
C26 C30 1.391 . S
C27 C26 1.387 . S
C27 C28 1.384 . S
C27 H36 0.930 . S
C28 C25 1.380 . S
C28 C27 1.384 . S
C28 H37 0.931 . S
C29 C25 1.374 . S
C29 C30 1.390 . S
C29 H38 0.930 . S
C30 C26 1.391 . S
C30 C29 1.390 . S
C30 H39 0.930 . S
C31 Eu1 2.825 . S
C31 O16 1.238 . S
C31 O17 1.247 . S
C31 C25 1.507 . S
H32 C5 0.930 . S
H33 C6 0.931 . S
H34 C7 0.930 . S
H35 C8 0.930 . S
H36 C27 0.930 . S
H37 C28 0.931 . S
H38 C29 0.930 . S
H39 C30 0.930 . S
Tb40 C50 2.825 . S
Tb40 O51 2.347 . S
Tb40 O54 2.366 . S
Tb40 O59 2.418 . S
Tb40 O60 2.384 1_545 S
Tb40 O63 2.479 . S
Tb40 O64 2.471 . S
Eu41 O52 2.418 . S
Eu41 O53 2.384 . S
Eu41 O56 2.479 1_545 S
Eu41 O57 2.471 1_545 S
Eu41 O58 2.347 . S
Eu41 O61 2.366 1_545 S
Eu41 C71 2.825 1_545 S
C42 O58 1.259 . S
C42 O59 1.265 . S
C43 O60 1.255 . S
C43 O61 1.265 . S
C44 C46 1.380 . S
C44 C47 1.374 . S
C44 C50 1.507 . S
C45 C46 1.384 . S
C45 C49 1.387 . S
C45 H72 0.930 . S
C46 C44 1.380 . S
C46 C45 1.384 . S
C46 H73 0.931 . S
C47 C44 1.374 . S
C47 C48 1.390 . S
C47 H74 0.930 . S
C48 C47 1.390 . S
C48 C49 1.391 . S
C48 H75 0.930 . S
C49 C45 1.387 . S
C49 C48 1.391 . S
C50 Tb40 2.825 . S
C50 C44 1.507 . S
C50 O63 1.238 . S
C50 O64 1.247 . S
O51 Tb40 2.347 . S
O51 C55 1.259 . S
O52 Eu41 2.418 . S
O52 C55 1.265 . S
O53 Eu41 2.384 . S
O53 C62 1.255 . S
O54 Tb40 2.366 . S
O54 C62 1.265 . S
C55 O51 1.259 . S
C55 O52 1.265 . S
O56 Eu41 2.479 1_565 S
O56 C71 1.238 . S
O57 Eu41 2.471 1_565 S
O57 C71 1.247 . S
O58 Eu41 2.347 . S
O58 C42 1.259 . S
O59 Tb40 2.418 . S
O59 C42 1.265 . S
O60 Tb40 2.384 1_565 S
O60 C43 1.255 . S
O61 Eu41 2.366 1_565 S
O61 C43 1.265 . S
C62 O53 1.255 . S
C62 O54 1.265 . S
O63 Tb40 2.479 . S
O63 C50 1.238 . S
O64 Tb40 2.471 . S
O64 C50 1.247 . S
C65 C68 1.380 . S
C65 C69 1.374 . S
C65 C71 1.507 . S
C66 C67 1.387 . S
C66 C70 1.391 . S
C67 C66 1.387 . S
C67 C68 1.384 . S
C67 H76 0.930 . S
C68 C65 1.380 . S
C68 C67 1.384 . S
C68 H77 0.931 . S
C69 C65 1.374 . S
C69 C70 1.390 . S
C69 H78 0.930 . S
C70 C66 1.391 . S
C70 C69 1.390 . S
C70 H79 0.930 . S
C71 Eu41 2.825 1_565 S
C71 O56 1.238 . S
C71 O57 1.247 . S
C71 C65 1.507 . S
H72 C45 0.930 . S
H73 C46 0.931 . S
H74 C47 0.930 . S
H75 C48 0.930 . S
H76 C67 0.930 . S
H77 C68 0.931 . S
H78 C69 0.930 . S
H79 C70 0.930 . S
Tb80 C90 2.825 . S
Tb80 O91 2.347 . S
Tb80 O94 2.366 . S
Tb80 O99 2.418 . S
Tb80 O100 2.384 . S
Tb80 O103 2.479 . S
Tb80 O104 2.471 . S
Eu81 O92 2.418 . S
Eu81 O93 2.384 . S
Eu81 O96 2.479 . S
Eu81 O97 2.471 . S
Eu81 O98 2.347 . S
Eu81 O101 2.366 . S
Eu81 C111 2.825 . S
C82 O98 1.259 . S
C82 O99 1.265 . S
C83 O100 1.255 . S
C83 O101 1.265 . S
C84 C86 1.380 . S
C84 C87 1.374 . S
C84 C90 1.507 . S
C85 C86 1.384 . S
C85 C89 1.387 . S
C85 H112 0.930 . S
C86 C84 1.380 . S
C86 C85 1.384 . S
C86 H113 0.931 . S
C87 C84 1.374 . S
C87 C88 1.390 . S
C87 H114 0.930 . S
C88 C87 1.390 . S
C88 C89 1.391 . S
C88 H115 0.930 . S
C89 C85 1.387 . S
C89 C88 1.391 . S
C90 Tb80 2.825 . S
C90 C84 1.507 . S
C90 O103 1.238 . S
C90 O104 1.247 . S
O91 Tb80 2.347 . S
O91 C95 1.259 . S
O92 Eu81 2.418 . S
O92 C95 1.265 . S
O93 Eu81 2.384 . S
O93 C102 1.255 . S
O94 Tb80 2.366 . S
O94 C102 1.265 . S
C95 O91 1.259 . S
C95 O92 1.265 . S
O96 Eu81 2.479 . S
O96 C111 1.238 . S
O97 Eu81 2.471 . S
O97 C111 1.247 . S
O98 Eu81 2.347 . S
O98 C82 1.259 . S
O99 Tb80 2.418 . S
O99 C82 1.265 . S
O100 Tb80 2.384 . S
O100 C83 1.255 . S
O101 Eu81 2.366 . S
O101 C83 1.265 . S
C102 O93 1.255 . S
C102 O94 1.265 . S
O103 Tb80 2.479 . S
O103 C90 1.238 . S
O104 Tb80 2.471 . S
O104 C90 1.247 . S
C105 C108 1.380 . S
C105 C109 1.374 . S
C105 C111 1.507 . S
C106 C107 1.387 . S
C106 C110 1.391 . S
C107 C106 1.387 . S
C107 C108 1.384 . S
C107 H116 0.930 . S
C108 C105 1.380 . S
C108 C107 1.384 . S
C108 H117 0.931 . S
C109 C105 1.374 . S
C109 C110 1.390 . S
C109 H118 0.930 . S
C110 C106 1.391 . S
C110 C109 1.390 . S
C110 H119 0.930 . S
C111 Eu81 2.825 . S
C111 O96 1.238 . S
C111 O97 1.247 . S
C111 C105 1.507 . S
H112 C85 0.930 . S
H113 C86 0.931 . S
H114 C87 0.930 . S
H115 C88 0.930 . S
H116 C107 0.930 . S
H117 C108 0.931 . S
H118 C109 0.930 . S
H119 C110 0.930 . S
P120 O131 1.490 . S
P120 C134 1.812 . S
P120 C140 1.803 1_565 S
P120 C146 1.819 1_565 S
H121 C135 0.941 . S
H122 C136 0.939 . S
H123 C138 0.940 . S
H124 C139 0.940 . S
H125 C141 0.939 . S
H126 C142 0.942 . S
H127 C144 0.940 . S
H128 C145 0.939 . S
H129 C147 0.941 . S
H130 C151 0.939 . S
O131 P120 1.490 . S
H132 C148 0.939 . S
H133 C150 0.940 . S
C134 P120 1.812 . S
C134 C135 1.389 . S
C134 C139 1.391 . S
C135 H121 0.941 . S
C135 C134 1.389 . S
C135 C136 1.397 . S
C136 H122 0.939 . S
C136 C135 1.397 . S
C136 C137 1.378 . S
C137 C136 1.378 . S
C137 C138 1.378 . S
C138 H123 0.940 . S
C138 C137 1.378 . S
C138 C139 1.396 . S
C139 H124 0.940 . S
C139 C134 1.391 . S
C139 C138 1.396 . S
C140 P120 1.803 1_545 S
C140 C141 1.378 . S
C140 C145 1.400 . S
C141 H125 0.939 . S
C141 C140 1.378 . S
C141 C142 1.361 . S
C142 H126 0.942 . S
C142 C141 1.361 . S
C142 C143 1.369 . S
C143 C142 1.369 . S
C143 C144 1.404 . S
C144 H127 0.940 . S
C144 C143 1.404 . S
C144 C145 1.389 . S
C145 H128 0.939 . S
C145 C140 1.400 . S
C145 C144 1.389 . S
C146 P120 1.819 1_545 S
C146 C147 1.391 1_545 S
C146 C151 1.391 . S
C147 H129 0.941 . S
C147 C146 1.391 1_565 S
C147 C148 1.396 . S
C148 H132 0.939 . S
C148 C147 1.396 . S
C148 C149 1.397 1_565 S
C149 C148 1.397 1_545 S
C149 C150 1.385 . S
C150 H133 0.940 . S
C150 C149 1.385 . S
C150 C151 1.388 . S
C151 H130 0.939 . S
C151 C146 1.391 . S
C151 C150 1.388 . S
P152 O163 1.490 . S
P152 C166 1.812 . S
P152 C172 1.803 . S
P152 C178 1.819 . S
H153 C167 0.941 . S
H154 C168 0.939 . S
H155 C170 0.940 . S
H156 C171 0.940 . S
H157 C173 0.939 . S
H158 C174 0.942 . S
H159 C176 0.940 . S
H160 C177 0.939 . S
H161 C179 0.941 . S
H162 C183 0.939 . S
O163 P152 1.490 . S
H164 C180 0.939 . S
H165 C182 0.940 . S
C166 P152 1.812 . S
C166 C167 1.389 . S
C166 C171 1.391 . S
C167 H153 0.941 . S
C167 C166 1.389 . S
C167 C168 1.397 . S
C168 H154 0.939 . S
C168 C167 1.397 . S
C168 C169 1.378 . S
C169 C168 1.378 . S
C169 C170 1.378 . S
C170 H155 0.940 . S
C170 C169 1.378 . S
C170 C171 1.396 . S
C171 H156 0.940 . S
C171 C166 1.391 . S
C171 C170 1.396 . S
C172 P152 1.803 . S
C172 C173 1.378 . S
C172 C177 1.400 . S
C173 H157 0.939 . S
C173 C172 1.378 . S
C173 C174 1.361 . S
C174 H158 0.942 . S
C174 C173 1.361 . S
C174 C175 1.369 . S
C175 C174 1.369 . S
C175 C176 1.404 . S
C176 H159 0.940 . S
C176 C175 1.404 . S
C176 C177 1.389 . S
C177 H160 0.939 . S
C177 C172 1.400 . S
C177 C176 1.389 . S
C178 P152 1.819 . S
C178 C179 1.391 . S
C178 C183 1.391 . S
C179 H161 0.941 . S
C179 C178 1.391 . S
C179 C180 1.396 . S
C180 H164 0.939 . S
C180 C179 1.396 . S
C180 C181 1.397 . S
C181 C180 1.397 . S
C181 C182 1.385 . S
C182 H165 0.940 . S
C182 C181 1.385 . S
C182 C183 1.388 . S
C183 H162 0.939 . S
C183 C178 1.391 . S
C183 C182 1.388 . S
P184 O195 1.490 . S
P184 C198 1.812 . S
P184 C204 1.803 1_455 S
P184 C210 1.819 . S
H185 C199 0.941 . S
H186 C200 0.939 . S
H187 C202 0.940 . S
H188 C203 0.940 . S
H189 C205 0.939 . S
H190 C206 0.942 . S
H191 C208 0.940 . S
H192 C209 0.939 . S
H193 C211 0.941 . S
H194 C215 0.939 . S
O195 P184 1.490 . S
H196 C212 0.939 . S
H197 C214 0.940 . S
C198 P184 1.812 . S
C198 C199 1.389 . S
C198 C203 1.391 . S
C199 H185 0.941 . S
C199 C198 1.389 . S
C199 C200 1.397 . S
C200 H186 0.939 . S
C200 C199 1.397 . S
C200 C201 1.378 . S
C201 C200 1.378 . S
C201 C202 1.378 . S
C202 H187 0.940 . S
C202 C201 1.378 . S
C202 C203 1.396 . S
C203 H188 0.940 . S
C203 C198 1.391 . S
C203 C202 1.396 . S
C204 P184 1.803 1_655 S
C204 C205 1.378 . S
C204 C209 1.400 . S
C205 H189 0.939 . S
C205 C204 1.378 . S
C205 C206 1.361 . S
C206 H190 0.942 . S
C206 C205 1.361 . S
C206 C207 1.369 . S
C207 C206 1.369 . S
C207 C208 1.404 . S
C208 H191 0.940 . S
C208 C207 1.404 . S
C208 C209 1.389 . S
C209 H192 0.939 . S
C209 C204 1.400 . S
C209 C208 1.389 . S
C210 P184 1.819 . S
C210 C211 1.391 . S
C210 C215 1.391 1_455 S
C211 H193 0.941 . S
C211 C210 1.391 . S
C211 C212 1.396 . S
C212 H196 0.939 . S
C212 C211 1.396 . S
C212 C213 1.397 . S
C213 C212 1.397 . S
C213 C214 1.385 1_455 S
C214 H197 0.940 . S
C214 C213 1.385 1_655 S
C214 C215 1.388 . S
C215 H194 0.939 . S
C215 C210 1.391 1_655 S
C215 C214 1.388 . S
P216 O227 1.490 . S
P216 C230 1.812 . S
P216 C236 1.803 1_455 S
P216 C242 1.819 . S
H217 C231 0.941 . S
H218 C232 0.939 . S
H219 C234 0.940 . S
H220 C235 0.940 . S
H221 C237 0.939 . S
H222 C238 0.942 . S
H223 C240 0.940 . S
H224 C241 0.939 . S
H225 C243 0.941 . S
H226 C247 0.939 . S
O227 P216 1.490 . S
H228 C244 0.939 . S
H229 C246 0.940 . S
C230 P216 1.812 . S
C230 C231 1.389 . S
C230 C235 1.391 . S
C231 H217 0.941 . S
C231 C230 1.389 . S
C231 C232 1.397 . S
C232 H218 0.939 . S
C232 C231 1.397 . S
C232 C233 1.378 . S
C233 C232 1.378 . S
C233 C234 1.378 . S
C234 H219 0.940 . S
C234 C233 1.378 . S
C234 C235 1.396 . S
C235 H220 0.940 . S
C235 C230 1.391 . S
C235 C234 1.396 . S
C236 P216 1.803 1_655 S
C236 C237 1.378 . S
C236 C241 1.400 . S
C237 H221 0.939 . S
C237 C236 1.378 . S
C237 C238 1.361 . S
C238 H222 0.942 . S
C238 C237 1.361 . S
C238 C239 1.369 . S
C239 C238 1.369 . S
C239 C240 1.404 . S
C240 H223 0.940 . S
C240 C239 1.404 . S
C240 C241 1.389 . S
C241 H224 0.939 . S
C241 C236 1.400 . S
C241 C240 1.389 . S
C242 P216 1.819 . S
C242 C243 1.391 . S
C242 C247 1.391 1_455 S
C243 H225 0.941 . S
C243 C242 1.391 . S
C243 C244 1.396 . S
C244 H228 0.939 . S
C244 C243 1.396 . S
C244 C245 1.397 . S
C245 C244 1.397 . S
C245 C246 1.385 1_455 S
C246 H229 0.940 . S
C246 C245 1.385 1_655 S
C246 C247 1.388 . S
C247 H226 0.939 . S
C247 C242 1.391 1_655 S
C247 C246 1.388 . S
P248 O259 1.490 . S
P248 C262 1.812 . S
P248 C268 1.803 1_545 S
P248 C274 1.819 . S
H249 C263 0.941 . S
H250 C264 0.939 . S
H251 C266 0.940 . S
H252 C267 0.940 . S
H253 C269 0.939 . S
H254 C270 0.942 . S
H255 C272 0.940 . S
H256 C273 0.939 . S
H257 C275 0.941 . S
H258 C279 0.939 . S
O259 P248 1.490 . S
H260 C276 0.939 . S
H261 C278 0.940 . S
C262 P248 1.812 . S
C262 C263 1.389 . S
C262 C267 1.391 . S
C263 H249 0.941 . S
C263 C262 1.389 . S
C263 C264 1.397 . S
C264 H250 0.939 . S
C264 C263 1.397 . S
C264 C265 1.378 . S
C265 C264 1.378 . S
C265 C266 1.378 . S
C266 H251 0.940 . S
C266 C265 1.378 . S
C266 C267 1.396 . S
C267 H252 0.940 . S
C267 C262 1.391 . S
C267 C266 1.396 . S
C268 P248 1.803 1_565 S
C268 C269 1.378 . S
C268 C273 1.400 . S
C269 H253 0.939 . S
C269 C268 1.378 . S
C269 C270 1.361 . S
C270 H254 0.942 . S
C270 C269 1.361 . S
C270 C271 1.369 . S
C271 C270 1.369 . S
C271 C272 1.404 . S
C272 H255 0.940 . S
C272 C271 1.404 . S
C272 C273 1.389 . S
C273 H256 0.939 . S
C273 C268 1.400 . S
C273 C272 1.389 . S
C274 P248 1.819 . S
C274 C275 1.391 . S
C274 C279 1.391 1_545 S
C275 H257 0.941 . S
C275 C274 1.391 . S
C275 C276 1.396 . S
C276 H260 0.939 . S
C276 C275 1.396 . S
C276 C277 1.397 . S
C277 C276 1.397 . S
C277 C278 1.385 1_545 S
C278 H261 0.940 . S
C278 C277 1.385 1_565 S
C278 C279 1.388 . S
C279 H258 0.939 . S
C279 C274 1.391 1_565 S
C279 C278 1.388 . S
P280 O291 1.490 . S
P280 C294 1.812 . S
P280 C300 1.803 . S
P280 C306 1.819 . S
H281 C295 0.941 . S
H282 C296 0.939 . S
H283 C298 0.940 . S
H284 C299 0.940 . S
H285 C301 0.939 . S
H286 C302 0.942 . S
H287 C304 0.940 . S
H288 C305 0.939 . S
H289 C307 0.941 . S
H290 C311 0.939 . S
O291 P280 1.490 . S
H292 C308 0.939 . S
H293 C310 0.940 . S
C294 P280 1.812 . S
C294 C295 1.389 . S
C294 C299 1.391 . S
C295 H281 0.941 . S
C295 C294 1.389 . S
C295 C296 1.397 . S
C296 H282 0.939 . S
C296 C295 1.397 . S
C296 C297 1.378 . S
C297 C296 1.378 . S
C297 C298 1.378 . S
C298 H283 0.940 . S
C298 C297 1.378 . S
C298 C299 1.396 . S
C299 H284 0.940 . S
C299 C294 1.391 . S
C299 C298 1.396 . S
C300 P280 1.803 . S
C300 C301 1.378 . S
C300 C305 1.400 . S
C301 H285 0.939 . S
C301 C300 1.378 . S
C301 C302 1.361 . S
C302 H286 0.942 . S
C302 C301 1.361 . S
C302 C303 1.369 . S
C303 C302 1.369 . S
C303 C304 1.404 . S
C304 H287 0.940 . S
C304 C303 1.404 . S
C304 C305 1.389 . S
C305 H288 0.939 . S
C305 C300 1.400 . S
C305 C304 1.389 . S
C306 P280 1.819 . S
C306 C307 1.391 . S
C306 C311 1.391 . S
C307 H289 0.941 . S
C307 C306 1.391 . S
C307 C308 1.396 . S
C308 H292 0.939 . S
C308 C307 1.396 . S
C308 C309 1.397 . S
C309 C308 1.397 . S
C309 C310 1.385 . S
C310 H293 0.940 . S
C310 C309 1.385 . S
C310 C311 1.388 . S
C311 H290 0.939 . S
C311 C306 1.391 . S
C311 C310 1.388 . S
C312 C313 1.391 . S
C312 C314 1.394 . S
C312 H328 0.931 . S
C313 C312 1.391 . S
C313 C317 1.376 . S
C314 C312 1.394 . S
C314 C315 1.369 . S
C314 C318 1.531 . S
C315 C314 1.369 . S
C315 C316 1.410 . S
C315 C323 1.503 . S
C316 C315 1.410 . S
C316 C317 1.392 . S
C316 C319 1.511 . S
C317 C313 1.376 . S
C317 C316 1.392 . S
C317 H329 0.929 . S
C318 C314 1.531 . S
C318 H330 0.960 . S
C318 H331 0.962 . S
C318 H332 0.960 . S
C319 C316 1.511 . S
C319 H333 0.961 . S
C319 H334 0.961 . S
C319 H335 0.961 . S
C320 C321 1.370 . S
C320 C322 1.363 . S
C320 H336 0.931 . S
C321 C320 1.370 . S
C321 C325 1.408 . S
C322 C320 1.363 . S
C322 C323 1.370 . S
C322 C326 1.524 . S
C323 C315 1.503 . S
C323 C322 1.370 . S
C323 C324 1.403 . S
C324 C323 1.403 . S
C324 C325 1.404 . S
C324 C327 1.539 . S
C325 C321 1.408 . S
C325 C324 1.404 . S
C325 H337 0.930 . S
C326 C322 1.524 . S
C326 H338 0.956 . S
C326 H339 0.961 . S
C326 H340 0.961 . S
C327 C324 1.539 . S
C327 H341 0.958 . S
C327 H342 0.961 . S
C327 H343 0.960 . S
H328 C312 0.931 . S
H329 C317 0.929 . S
H330 C318 0.960 . S
H331 C318 0.962 . S
H332 C318 0.960 . S
H333 C319 0.961 . S
H334 C319 0.961 . S
H335 C319 0.961 . S
H336 C320 0.931 . S
H337 C325 0.930 . S
H338 C326 0.956 . S
H339 C326 0.961 . S
H340 C326 0.961 . S
H341 C327 0.958 . S
H342 C327 0.961 . S
H343 C327 0.960 . S
C344 C345 1.391 . S
C344 C346 1.394 . S
C344 H360 0.931 . S
C345 C344 1.391 . S
C345 C349 1.376 . S
C346 C344 1.394 . S
C346 C347 1.369 . S
C346 C350 1.531 . S
C347 C346 1.369 . S
C347 C348 1.410 . S
C347 C355 1.503 . S
C348 C347 1.410 . S
C348 C349 1.392 . S
C348 C351 1.511 . S
C349 C345 1.376 . S
C349 C348 1.392 . S
C349 H361 0.929 . S
C350 C346 1.531 . S
C350 H362 0.960 . S
C350 H363 0.962 . S
C350 H364 0.960 . S
C351 C348 1.511 . S
C351 H365 0.961 . S
C351 H366 0.961 . S
C351 H367 0.961 . S
C352 C353 1.370 . S
C352 C354 1.363 . S
C352 H368 0.931 . S
C353 C352 1.370 . S
C353 C357 1.408 . S
C354 C352 1.363 . S
C354 C355 1.370 . S
C354 C358 1.524 . S
C355 C347 1.503 . S
C355 C354 1.370 . S
C355 C356 1.403 . S
C356 C355 1.403 . S
C356 C357 1.404 . S
C356 C359 1.539 . S
C357 C353 1.408 . S
C357 C356 1.404 . S
C357 H369 0.930 . S
C358 C354 1.524 . S
C358 H370 0.956 . S
C358 H371 0.961 . S
C358 H372 0.961 . S
C359 C356 1.539 . S
C359 H373 0.958 . S
C359 H374 0.961 . S
C359 H375 0.960 . S
H360 C344 0.931 . S
H361 C349 0.929 . S
H362 C350 0.960 . S
H363 C350 0.962 . S
H364 C350 0.960 . S
H365 C351 0.961 . S
H366 C351 0.961 . S
H367 C351 0.961 . S
H368 C352 0.931 . S
H369 C357 0.930 . S
H370 C358 0.956 . S
H371 C358 0.961 . S
H372 C358 0.961 . S
H373 C359 0.958 . S
H374 C359 0.961 . S
H375 C359 0.960 . S
C376 C377 1.391 . S
C376 C378 1.394 . S
C376 H392 0.931 . S
C377 C376 1.391 . S
C377 C381 1.376 . S
C378 C376 1.394 . S
C378 C379 1.369 . S
C378 C382 1.531 . S
C379 C378 1.369 . S
C379 C380 1.410 . S
C379 C387 1.503 . S
C380 C379 1.410 . S
C380 C381 1.392 . S
C380 C383 1.511 . S
C381 C377 1.376 . S
C381 C380 1.392 . S
C381 H393 0.929 . S
C382 C378 1.531 . S
C382 H394 0.960 . S
C382 H395 0.962 . S
C382 H396 0.960 . S
C383 C380 1.511 . S
C383 H397 0.961 . S
C383 H398 0.961 . S
C383 H399 0.961 . S
C384 C385 1.370 . S
C384 C386 1.363 . S
C384 H400 0.931 . S
C385 C384 1.370 . S
C385 C389 1.408 . S
C386 C384 1.363 . S
C386 C387 1.370 . S
C386 C390 1.524 . S
C387 C379 1.503 . S
C387 C386 1.370 . S
C387 C388 1.403 . S
C388 C387 1.403 . S
C388 C389 1.404 . S
C388 C391 1.539 . S
C389 C385 1.408 . S
C389 C388 1.404 . S
C389 H401 0.930 . S
C390 C386 1.524 . S
C390 H402 0.956 . S
C390 H403 0.961 . S
C390 H404 0.961 . S
C391 C388 1.539 . S
C391 H405 0.958 . S
C391 H406 0.961 . S
C391 H407 0.960 . S
H392 C376 0.931 . S
H393 C381 0.929 . S
H394 C382 0.960 . S
H395 C382 0.962 . S
H396 C382 0.960 . S
H397 C383 0.961 . S
H398 C383 0.961 . S
H399 C383 0.961 . S
H400 C384 0.931 . S
H401 C389 0.930 . S
H402 C390 0.956 . S
H403 C390 0.961 . S
H404 C390 0.961 . S
H405 C391 0.958 . S
H406 C391 0.961 . S
H407 C391 0.960 . S
C408 C409 1.391 . S
C408 C410 1.394 . S
C408 H424 0.931 . S
C409 C408 1.391 . S
C409 C413 1.376 . S
C410 C408 1.394 . S
C410 C411 1.369 . S
C410 C414 1.531 . S
C411 C410 1.369 . S
C411 C412 1.410 . S
C411 C419 1.503 . S
C412 C411 1.410 . S
C412 C413 1.392 . S
C412 C415 1.511 . S
C413 C409 1.376 . S
C413 C412 1.392 . S
C413 H425 0.929 . S
C414 C410 1.531 . S
C414 H426 0.960 . S
C414 H427 0.962 . S
C414 H428 0.960 . S
C415 C412 1.511 . S
C415 H429 0.961 . S
C415 H430 0.961 . S
C415 H431 0.961 . S
C416 C417 1.370 . S
C416 C418 1.363 . S
C416 H432 0.931 . S
C417 C416 1.370 . S
C417 C421 1.408 . S
C418 C416 1.363 . S
C418 C419 1.370 . S
C418 C422 1.524 . S
C419 C411 1.503 . S
C419 C418 1.370 . S
C419 C420 1.403 . S
C420 C419 1.403 . S
C420 C421 1.404 . S
C420 C423 1.539 . S
C421 C417 1.408 . S
C421 C420 1.404 . S
C421 H433 0.930 . S
C422 C418 1.524 . S
C422 H434 0.956 . S
C422 H435 0.961 . S
C422 H436 0.961 . S
C423 C420 1.539 . S
C423 H437 0.958 . S
C423 H438 0.961 . S
C423 H439 0.960 . S
H424 C408 0.931 . S
H425 C413 0.929 . S
H426 C414 0.960 . S
H427 C414 0.962 . S
H428 C414 0.960 . S
H429 C415 0.961 . S
H430 C415 0.961 . S
H431 C415 0.961 . S
H432 C416 0.931 . S
H433 C421 0.930 . S
H434 C422 0.956 . S
H435 C422 0.961 . S
H436 C422 0.961 . S
H437 C423 0.958 . S
H438 C423 0.961 . S
H439 C423 0.960 . S
C440 C441 1.391 . S
C440 C442 1.394 . S
C440 H456 0.931 . S
C441 C440 1.391 . S
C441 C445 1.376 . S
C442 C440 1.394 . S
C442 C443 1.369 . S
C442 C446 1.531 . S
C443 C442 1.369 . S
C443 C444 1.410 . S
C443 C451 1.503 . S
C444 C443 1.410 . S
C444 C445 1.392 . S
C444 C447 1.511 . S
C445 C441 1.376 . S
C445 C444 1.392 . S
C445 H457 0.929 . S
C446 C442 1.531 . S
C446 H458 0.960 . S
C446 H459 0.962 . S
C446 H460 0.960 . S
C447 C444 1.511 . S
C447 H461 0.961 . S
C447 H462 0.961 . S
C447 H463 0.961 . S
C448 C449 1.370 . S
C448 C450 1.363 . S
C448 H464 0.931 . S
C449 C448 1.370 . S
C449 C453 1.408 . S
C450 C448 1.363 . S
C450 C451 1.370 . S
C450 C454 1.524 . S
C451 C443 1.503 . S
C451 C450 1.370 . S
C451 C452 1.403 . S
C452 C451 1.403 . S
C452 C453 1.404 . S
C452 C455 1.539 . S
C453 C449 1.408 . S
C453 C452 1.404 . S
C453 H465 0.930 . S
C454 C450 1.524 . S
C454 H466 0.956 . S
C454 H467 0.961 . S
C454 H468 0.961 . S
C455 C452 1.539 . S
C455 H469 0.958 . S
C455 H470 0.961 . S
C455 H471 0.960 . S
H456 C440 0.931 . S
H457 C445 0.929 . S
H458 C446 0.960 . S
H459 C446 0.962 . S
H460 C446 0.960 . S
H461 C447 0.961 . S
H462 C447 0.961 . S
H463 C447 0.961 . S
H464 C448 0.931 . S
H465 C453 0.930 . S
H466 C454 0.956 . S
H467 C454 0.961 . S
H468 C454 0.961 . S
H469 C455 0.958 . S
H470 C455 0.961 . S
H471 C455 0.960 . S
C472 C473 1.391 . S
C472 C474 1.394 . S
C472 H488 0.931 . S
C473 C472 1.391 . S
C473 C477 1.376 . S
C474 C472 1.394 . S
C474 C475 1.369 . S
C474 C478 1.531 . S
C475 C474 1.369 . S
C475 C476 1.410 . S
C475 C483 1.503 . S
C476 C475 1.410 . S
C476 C477 1.392 . S
C476 C479 1.511 . S
C477 C473 1.376 . S
C477 C476 1.392 . S
C477 H489 0.929 . S
C478 C474 1.531 . S
C478 H490 0.960 . S
C478 H491 0.962 . S
C478 H492 0.960 . S
C479 C476 1.511 . S
C479 H493 0.961 . S
C479 H494 0.961 . S
C479 H495 0.961 . S
C480 C481 1.370 . S
C480 C482 1.363 . S
C480 H496 0.931 . S
C481 C480 1.370 . S
C481 C485 1.408 . S
C482 C480 1.363 . S
C482 C483 1.370 . S
C482 C486 1.524 . S
C483 C475 1.503 . S
C483 C482 1.370 . S
C483 C484 1.403 . S
C484 C483 1.403 . S
C484 C485 1.404 . S
C484 C487 1.539 . S
C485 C481 1.408 . S
C485 C484 1.404 . S
C485 H497 0.930 . S
C486 C482 1.524 . S
C486 H498 0.956 . S
C486 H499 0.961 . S
C486 H500 0.961 . S
C487 C484 1.539 . S
C487 H501 0.958 . S
C487 H502 0.961 . S
C487 H503 0.960 . S
H488 C472 0.931 . S
H489 C477 0.929 . S
H490 C478 0.960 . S
H491 C478 0.962 . S
H492 C478 0.960 . S
H493 C479 0.961 . S
H494 C479 0.961 . S
H495 C479 0.961 . S
H496 C480 0.931 . S
H497 C485 0.930 . S
H498 C486 0.956 . S
H499 C486 0.961 . S
H500 C486 0.961 . S
H501 C487 0.958 . S
H502 C487 0.961 . S
H503 C487 0.960 . S
C504 C505 1.391 . S
C504 C506 1.394 . S
C504 H520 0.931 . S
C505 C504 1.391 . S
C505 C509 1.376 . S
C506 C504 1.394 . S
C506 C507 1.369 . S
C506 C510 1.531 . S
C507 C506 1.369 . S
C507 C508 1.410 . S
C507 C515 1.503 . S
C508 C507 1.410 . S
C508 C509 1.392 . S
C508 C511 1.511 . S
C509 C505 1.376 . S
C509 C508 1.392 . S
C509 H521 0.929 . S
C510 C506 1.531 . S
C510 H522 0.960 . S
C510 H523 0.962 . S
C510 H524 0.960 . S
C511 C508 1.511 . S
C511 H525 0.961 . S
C511 H526 0.961 . S
C511 H527 0.961 . S
C512 C513 1.370 . S
C512 C514 1.363 . S
C512 H528 0.931 . S
C513 C512 1.370 . S
C513 C517 1.408 . S
C514 C512 1.363 . S
C514 C515 1.370 . S
C514 C518 1.524 . S
C515 C507 1.503 . S
C515 C514 1.370 . S
C515 C516 1.403 . S
C516 C515 1.403 . S
C516 C517 1.404 . S
C516 C519 1.539 . S
C517 C513 1.408 . S
C517 C516 1.404 . S
C517 H529 0.930 . S
C518 C514 1.524 . S
C518 H530 0.956 . S
C518 H531 0.961 . S
C518 H532 0.961 . S
C519 C516 1.539 . S
C519 H533 0.958 . S
C519 H534 0.961 . S
C519 H535 0.960 . S
H520 C504 0.931 . S
H521 C509 0.929 . S
H522 C510 0.960 . S
H523 C510 0.962 . S
H524 C510 0.960 . S
H525 C511 0.961 . S
H526 C511 0.961 . S
H527 C511 0.961 . S
H528 C512 0.931 . S
H529 C517 0.930 . S
H530 C518 0.956 . S
H531 C518 0.961 . S
H532 C518 0.961 . S
H533 C519 0.958 . S
H534 C519 0.961 . S
H535 C519 0.960 . S
C536 C537 1.391 . S
C536 C538 1.394 . S
C536 H552 0.931 . S
C537 C536 1.391 . S
C537 C541 1.376 . S
C538 C536 1.394 . S
C538 C539 1.369 . S
C538 C542 1.531 . S
C539 C538 1.369 . S
C539 C540 1.410 . S
C539 C547 1.503 . S
C540 C539 1.410 . S
C540 C541 1.392 . S
C540 C543 1.511 . S
C541 C537 1.376 . S
C541 C540 1.392 . S
C541 H553 0.929 . S
C542 C538 1.531 . S
C542 H554 0.960 . S
C542 H555 0.962 . S
C542 H556 0.960 . S
C543 C540 1.511 . S
C543 H557 0.961 . S
C543 H558 0.961 . S
C543 H559 0.961 . S
C544 C545 1.370 . S
C544 C546 1.363 . S
C544 H560 0.931 . S
C545 C544 1.370 . S
C545 C549 1.408 . S
C546 C544 1.363 . S
C546 C547 1.370 . S
C546 C550 1.524 . S
C547 C539 1.503 . S
C547 C546 1.370 . S
C547 C548 1.403 . S
C548 C547 1.403 . S
C548 C549 1.404 . S
C548 C551 1.539 . S
C549 C545 1.408 . S
C549 C548 1.404 . S
C549 H561 0.930 . S
C550 C546 1.524 . S
C550 H562 0.956 . S
C550 H563 0.961 . S
C550 H564 0.961 . S
C551 C548 1.539 . S
C551 H565 0.958 . S
C551 H566 0.961 . S
C551 H567 0.960 . S
H552 C536 0.931 . S
H553 C541 0.929 . S
H554 C542 0.960 . S
H555 C542 0.962 . S
H556 C542 0.960 . S
H557 C543 0.961 . S
H558 C543 0.961 . S
H559 C543 0.961 . S
H560 C544 0.931 . S
H561 C549 0.930 . S
H562 C550 0.956 . S
H563 C550 0.961 . S
H564 C550 0.961 . S
H565 C551 0.958 . S
H566 C551 0.961 . S
H567 C551 0.960 . S
C568 C569 1.391 . S
C568 C570 1.394 . S
C568 H584 0.931 . S
C569 C568 1.391 . S
C569 C573 1.376 . S
C570 C568 1.394 . S
C570 C571 1.369 . S
C570 C574 1.531 . S
C571 C570 1.369 . S
C571 C572 1.410 . S
C571 C579 1.503 . S
C572 C571 1.410 . S
C572 C573 1.392 . S
C572 C575 1.511 . S
C573 C569 1.376 . S
C573 C572 1.392 . S
C573 H585 0.929 . S
C574 C570 1.531 . S
C574 H586 0.960 . S
C574 H587 0.962 . S
C574 H588 0.960 . S
C575 C572 1.511 . S
C575 H589 0.961 . S
C575 H590 0.961 . S
C575 H591 0.961 . S
C576 C577 1.370 . S
C576 C578 1.363 . S
C576 H592 0.931 . S
C577 C576 1.370 . S
C577 C581 1.408 . S
C578 C576 1.363 . S
C578 C579 1.370 . S
C578 C582 1.524 . S
C579 C571 1.503 . S
C579 C578 1.370 . S
C579 C580 1.403 . S
C580 C579 1.403 . S
C580 C581 1.404 . S
C580 C583 1.539 . S
C581 C577 1.408 . S
C581 C580 1.404 . S
C581 H593 0.930 . S
C582 C578 1.524 . S
C582 H594 0.956 . S
C582 H595 0.961 . S
C582 H596 0.961 . S
C583 C580 1.539 . S
C583 H597 0.958 . S
C583 H598 0.961 . S
C583 H599 0.960 . S
H584 C568 0.931 . S
H585 C573 0.929 . S
H586 C574 0.960 . S
H587 C574 0.962 . S
H588 C574 0.960 . S
H589 C575 0.961 . S
H590 C575 0.961 . S
H591 C575 0.961 . S
H592 C576 0.931 . S
H593 C581 0.930 . S
H594 C582 0.956 . S
H595 C582 0.961 . S
H596 C582 0.961 . S
H597 C583 0.958 . S
H598 C583 0.961 . S
H599 C583 0.960 . S
C600 C601 1.391 . S
C600 C602 1.394 . S
C600 H616 0.931 . S
C601 C600 1.391 . S
C601 C605 1.376 . S
C602 C600 1.394 . S
C602 C603 1.369 . S
C602 C606 1.531 . S
C603 C602 1.369 . S
C603 C604 1.410 . S
C603 C611 1.503 . S
C604 C603 1.410 . S
C604 C605 1.392 . S
C604 C607 1.511 . S
C605 C601 1.376 . S
C605 C604 1.392 . S
C605 H617 0.929 . S
C606 C602 1.531 . S
C606 H618 0.960 . S
C606 H619 0.962 . S
C606 H620 0.960 . S
C607 C604 1.511 . S
C607 H621 0.961 . S
C607 H622 0.961 . S
C607 H623 0.961 . S
C608 C609 1.370 . S
C608 C610 1.363 . S
C608 H624 0.931 . S
C609 C608 1.370 . S
C609 C613 1.408 . S
C610 C608 1.363 . S
C610 C611 1.370 . S
C610 C614 1.524 . S
C611 C603 1.503 . S
C611 C610 1.370 . S
C611 C612 1.403 . S
C612 C611 1.403 . S
C612 C613 1.404 . S
C612 C615 1.539 . S
C613 C609 1.408 . S
C613 C612 1.404 . S
C613 H625 0.930 . S
C614 C610 1.524 . S
C614 H626 0.956 . S
C614 H627 0.961 . S
C614 H628 0.961 . S
C615 C612 1.539 . S
C615 H629 0.958 . S
C615 H630 0.961 . S
C615 H631 0.960 . S
H616 C600 0.931 . S
H617 C605 0.929 . S
H618 C606 0.960 . S
H619 C606 0.962 . S
H620 C606 0.960 . S
H621 C607 0.961 . S
H622 C607 0.961 . S
H623 C607 0.961 . S
H624 C608 0.931 . S
H625 C613 0.930 . S
H626 C614 0.956 . S
H627 C614 0.961 . S
H628 C614 0.961 . S
H629 C615 0.958 . S
H630 C615 0.961 . S
H631 C615 0.960 . S
C632 C633 1.391 . S
C632 C634 1.394 . S
C632 H648 0.931 . S
C633 C632 1.391 . S
C633 C637 1.376 . S
C634 C632 1.394 . S
C634 C635 1.369 . S
C634 C638 1.531 . S
C635 C634 1.369 . S
C635 C636 1.410 . S
C635 C643 1.503 . S
C636 C635 1.410 . S
C636 C637 1.392 . S
C636 C639 1.511 . S
C637 C633 1.376 . S
C637 C636 1.392 . S
C637 H649 0.929 . S
C638 C634 1.531 . S
C638 H650 0.960 . S
C638 H651 0.962 . S
C638 H652 0.960 . S
C639 C636 1.511 . S
C639 H653 0.961 . S
C639 H654 0.961 . S
C639 H655 0.961 . S
C640 C641 1.370 . S
C640 C642 1.363 . S
C640 H656 0.931 . S
C641 C640 1.370 . S
C641 C645 1.408 . S
C642 C640 1.363 . S
C642 C643 1.370 . S
C642 C646 1.524 . S
C643 C635 1.503 . S
C643 C642 1.370 . S
C643 C644 1.403 . S
C644 C643 1.403 . S
C644 C645 1.404 . S
C644 C647 1.539 . S
C645 C641 1.408 . S
C645 C644 1.404 . S
C645 H657 0.930 . S
C646 C642 1.524 . S
C646 H658 0.956 . S
C646 H659 0.961 . S
C646 H660 0.961 . S
C647 C644 1.539 . S
C647 H661 0.958 . S
C647 H662 0.961 . S
C647 H663 0.960 . S
H648 C632 0.931 . S
H649 C637 0.929 . S
H650 C638 0.960 . S
H651 C638 0.962 . S
H652 C638 0.960 . S
H653 C639 0.961 . S
H654 C639 0.961 . S
H655 C639 0.961 . S
H656 C640 0.931 . S
H657 C645 0.930 . S
H658 C646 0.956 . S
H659 C646 0.961 . S
H660 C646 0.961 . S
H661 C647 0.958 . S
H662 C647 0.961 . S
H663 C647 0.960 . S
C664 C665 1.391 . S
C664 C666 1.394 . S
C664 H680 0.931 . S
C665 C664 1.391 . S
C665 C669 1.376 . S
C666 C664 1.394 . S
C666 C667 1.369 . S
C666 C670 1.531 . S
C667 C666 1.369 . S
C667 C668 1.410 . S
C667 C675 1.503 . S
C668 C667 1.410 . S
C668 C669 1.392 . S
C668 C671 1.511 . S
C669 C665 1.376 . S
C669 C668 1.392 . S
C669 H681 0.929 . S
C670 C666 1.531 . S
C670 H682 0.960 . S
C670 H683 0.962 . S
C670 H684 0.960 . S
C671 C668 1.511 . S
C671 H685 0.961 . S
C671 H686 0.961 . S
C671 H687 0.961 . S
C672 C673 1.370 . S
C672 C674 1.363 . S
C672 H688 0.931 . S
C673 C672 1.370 . S
C673 C677 1.408 . S
C674 C672 1.363 . S
C674 C675 1.370 . S
C674 C678 1.524 . S
C675 C667 1.503 . S
C675 C674 1.370 . S
C675 C676 1.403 . S
C676 C675 1.403 . S
C676 C677 1.404 . S
C676 C679 1.539 . S
C677 C673 1.408 . S
C677 C676 1.404 . S
C677 H689 0.930 . S
C678 C674 1.524 . S
C678 H690 0.956 . S
C678 H691 0.961 . S
C678 H692 0.961 . S
C679 C676 1.539 . S
C679 H693 0.958 . S
C679 H694 0.961 . S
C679 H695 0.960 . S
H680 C664 0.931 . S
H681 C669 0.929 . S
H682 C670 0.960 . S
H683 C670 0.962 . S
H684 C670 0.960 . S
H685 C671 0.961 . S
H686 C671 0.961 . S
H687 C671 0.961 . S
H688 C672 0.931 . S
H689 C677 0.930 . S
H690 C678 0.956 . S
H691 C678 0.961 . S
H692 C678 0.961 . S
H693 C679 0.958 . S
H694 C679 0.961 . S
H695 C679 0.960 . S
C696 C697 1.391 . S
C696 C698 1.394 . S
C696 H712 0.931 1_455 S
C697 C696 1.391 . S
C697 C701 1.376 . S
C698 C696 1.394 . S
C698 C699 1.369 . S
C698 C702 1.531 1_455 S
C699 C698 1.369 . S
C699 C700 1.410 . S
C699 C707 1.503 . S
C700 C699 1.410 . S
C700 C701 1.392 . S
C700 C703 1.511 . S
C701 C697 1.376 . S
C701 C700 1.392 . S
C701 H713 0.929 . S
C702 C698 1.531 1_655 S
C702 H714 0.950 1_655 S
C702 H715 0.962 . S
C702 H716 0.960 . S
C703 C700 1.511 . S
C703 H717 0.961 . S
C703 H718 0.961 . S
C703 H719 0.961 . S
C704 C705 1.365 1_655 S
C704 C706 1.363 1_656 S
C704 H720 0.936 . S
C705 C704 1.365 1_455 S
C705 C709 1.408 . S
C706 C704 1.363 1_454 S
C706 C707 1.370 . S
C706 C710 1.524 1_455 S
C707 C699 1.503 . S
C707 C706 1.370 . S
C707 C708 1.403 . S
C708 C707 1.403 . S
C708 C709 1.404 1_554 S
C708 C711 1.539 . S
C709 C705 1.408 . S
C709 C708 1.404 1_556 S
C709 H721 0.930 . S
C710 C706 1.524 1_655 S
C710 H722 0.956 . S
C710 H723 0.961 . S
C710 H724 0.961 . S
C711 C708 1.539 . S
C711 H725 0.958 . S
C711 H726 0.961 . S
C711 H727 0.960 . S
H712 C696 0.931 1_655 S
H713 C701 0.929 . S
H714 C702 0.950 1_455 S
H715 C702 0.962 . S
H716 C702 0.960 . S
H717 C703 0.961 . S
H718 C703 0.961 . S
H719 C703 0.961 . S
H720 C704 0.936 . S
H721 C709 0.930 . S
H722 C710 0.956 . S
H723 C710 0.961 . S
H724 C710 0.961 . S
H725 C711 0.958 . S
H726 C711 0.961 . S
H727 C711 0.960 . S
C728 C729 1.391 . S
C728 C730 1.394 . S
C728 H744 0.931 . S
C729 C728 1.391 . S
C729 C733 1.376 . S
C730 C728 1.394 . S
C730 C731 1.369 . S
C730 C734 1.531 . S
C731 C730 1.369 . S
C731 C732 1.410 . S
C731 C739 1.503 . S
C732 C731 1.410 . S
C732 C733 1.392 . S
C732 C735 1.511 . S
C733 C729 1.376 . S
C733 C732 1.392 . S
C733 H745 0.929 . S
C734 C730 1.531 . S
C734 H746 0.960 . S
C734 H747 0.962 . S
C734 H748 0.960 . S
C735 C732 1.511 . S
C735 H749 0.961 . S
C735 H750 0.961 . S
C735 H751 0.961 . S
C736 C737 1.370 1_565 S
C736 C738 1.363 1_565 S
C736 H752 0.931 . S
C737 C736 1.370 1_545 S
C737 C741 1.408 . S
C738 C736 1.363 1_545 S
C738 C739 1.370 . S
C738 C742 1.524 1_545 S
C739 C731 1.503 . S
C739 C738 1.370 . S
C739 C740 1.403 . S
C740 C739 1.403 . S
C740 C741 1.404 . S
C740 C743 1.539 . S
C741 C737 1.408 . S
C741 C740 1.404 . S
C741 H753 0.930 . S
C742 C738 1.524 1_565 S
C742 H754 0.956 . S
C742 H755 0.961 . S
C742 H756 0.961 . S
C743 C740 1.539 . S
C743 H757 0.958 . S
C743 H758 0.961 . S
C743 H759 0.960 . S
H744 C728 0.931 . S
H745 C733 0.929 . S
H746 C734 0.960 . S
H747 C734 0.962 . S
H748 C734 0.960 . S
H749 C735 0.961 . S
H750 C735 0.961 . S
H751 C735 0.961 . S
H752 C736 0.931 . S
H753 C741 0.930 . S
H754 C742 0.956 . S
H755 C742 0.961 . S
H756 C742 0.961 . S
H757 C743 0.958 . S
H758 C743 0.961 . S
H759 C743 0.960 . S
C760 C761 1.391 . S
C760 C762 1.394 . S
C760 H776 0.931 . S
C761 C760 1.391 . S
C761 C765 1.376 . S
C762 C760 1.394 . S
C762 C763 1.369 . S
C762 C766 1.531 . S
C763 C762 1.369 . S
C763 C764 1.410 . S
C763 C771 1.503 . S
C764 C763 1.410 . S
C764 C765 1.392 . S
C764 C767 1.511 . S
C765 C761 1.376 . S
C765 C764 1.392 . S
C765 H777 0.929 . S
C766 C762 1.531 . S
C766 H778 0.960 . S
C766 H779 0.962 . S
C766 H780 0.960 . S
C767 C764 1.511 . S
C767 H781 0.961 . S
C767 H782 0.961 . S
C767 H783 0.961 . S
C768 C769 1.370 . S
C768 C770 1.363 . S
C768 H784 0.931 . S
C769 C768 1.370 . S
C769 C773 1.408 . S
C770 C768 1.363 . S
C770 C771 1.370 . S
C770 C774 1.524 . S
C771 C763 1.503 . S
C771 C770 1.370 . S
C771 C772 1.403 . S
C772 C771 1.403 . S
C772 C773 1.404 . S
C772 C775 1.539 . S
C773 C769 1.408 . S
C773 C772 1.404 . S
C773 H785 0.930 . S
C774 C770 1.524 . S
C774 H786 0.956 . S
C774 H787 0.961 . S
C774 H788 0.961 . S
C775 C772 1.539 . S
C775 H789 0.958 . S
C775 H790 0.961 . S
C775 H791 0.960 . S
H776 C760 0.931 . S
H777 C765 0.929 . S
H778 C766 0.960 . S
H779 C766 0.962 . S
H780 C766 0.960 . S
H781 C767 0.961 . S
H782 C767 0.961 . S
H783 C767 0.961 . S
H784 C768 0.931 . S
H785 C773 0.930 . S
H786 C774 0.956 . S
H787 C774 0.961 . S
H788 C774 0.961 . S
H789 C775 0.958 . S
H790 C775 0.961 . S
H791 C775 0.960 . S
C792 C793 1.391 . S
C792 C794 1.394 . S
C792 H808 0.931 . S
C793 C792 1.391 . S
C793 C797 1.376 1_545 S
C794 C792 1.394 . S
C794 C795 1.369 . S
C794 C798 1.531 . S
C795 C794 1.369 . S
C795 C796 1.410 1_545 S
C795 C803 1.503 . S
C796 C795 1.410 1_565 S
C796 C797 1.392 . S
C796 C799 1.511 . S
C797 C793 1.376 1_565 S
C797 C796 1.392 . S
C797 H809 0.929 . S
C798 C794 1.531 . S
C798 H810 0.960 . S
C798 H811 0.962 . S
C798 H812 0.960 . S
C799 C796 1.511 . S
C799 H813 0.961 . S
C799 H814 0.961 . S
C799 H815 0.961 . S
C800 C801 1.370 . S
C800 C802 1.363 . S
C800 H816 0.912 1_545 S
C801 C800 1.370 . S
C801 C805 1.408 . S
C802 C800 1.363 . S
C802 C803 1.370 . S
C802 C806 1.524 . S
C803 C795 1.503 . S
C803 C802 1.370 . S
C803 C804 1.403 . S
C804 C803 1.403 . S
C804 C805 1.404 . S
C804 C807 1.539 . S
C805 C801 1.408 . S
C805 C804 1.404 . S
C805 H817 0.930 . S
C806 C802 1.524 . S
C806 H818 0.956 . S
C806 H819 0.961 1_545 S
C806 H820 0.961 1_545 S
C807 C804 1.539 . S
C807 H821 0.958 . S
C807 H822 0.961 . S
C807 H823 0.960 . S
H808 C792 0.931 . S
H809 C797 0.929 . S
H810 C798 0.960 . S
H811 C798 0.962 . S
H812 C798 0.960 . S
H813 C799 0.961 . S
H814 C799 0.961 . S
H815 C799 0.961 . S
H816 C800 0.912 1_565 S
H817 C805 0.930 . S
H818 C806 0.956 . S
H819 C806 0.961 1_565 S
H820 C806 0.961 1_565 S
H821 C807 0.958 . S
H822 C807 0.961 . S
H823 C807 0.960 . S
C824 C825 1.391 . S
C824 C826 1.394 . S
C824 H840 0.931 . S
C825 C824 1.391 . S
C825 C829 1.376 . S
C826 C824 1.394 . S
C826 C827 1.369 . S
C826 C830 1.531 . S
C827 C826 1.369 . S
C827 C828 1.410 . S
C827 C835 1.503 . S
C828 C827 1.410 . S
C828 C829 1.392 . S
C828 C831 1.511 . S
C829 C825 1.376 . S
C829 C828 1.392 . S
C829 H841 0.929 . S
C830 C826 1.531 . S
C830 H842 0.960 . S
C830 H843 0.962 . S
C830 H844 0.960 . S
C831 C828 1.511 . S
C831 H845 0.961 . S
C831 H846 0.961 . S
C831 H847 0.961 . S
C832 C833 1.370 1_556 S
C832 C834 1.363 . S
C832 H848 0.931 1_556 S
C833 C832 1.370 1_554 S
C833 C837 1.408 1_554 S
C834 C832 1.363 . S
C834 C835 1.370 . S
C834 C838 1.524 . S
C835 C827 1.503 . S
C835 C834 1.370 . S
C835 C836 1.403 . S
C836 C835 1.403 . S
C836 C837 1.404 . S
C836 C839 1.539 . S
C837 C833 1.408 1_556 S
C837 C836 1.404 . S
C837 H849 0.930 1_556 S
C838 C834 1.524 . S
C838 H850 0.956 . S
C838 H851 0.961 . S
C838 H852 0.961 . S
C839 C836 1.539 . S
C839 H853 0.958 . S
C839 H854 0.961 . S
C839 H855 0.960 . S
H840 C824 0.931 . S
H841 C829 0.929 . S
H842 C830 0.960 . S
H843 C830 0.962 . S
H844 C830 0.960 . S
H845 C831 0.961 . S
H846 C831 0.961 . S
H847 C831 0.961 . S
H848 C832 0.931 1_554 S
H849 C837 0.930 1_554 S
H850 C838 0.956 . S
H851 C838 0.961 . S
H852 C838 0.961 . S
H853 C839 0.958 . S
H854 C839 0.961 . S
H855 C839 0.960 . S
C856 C857 1.391 1_655 S
C856 C858 1.394 . S
C856 H872 0.931 . S
C857 C856 1.391 1_455 S
C857 C861 1.376 . S
C858 C856 1.394 . S
C858 C859 1.369 1_655 S
C858 C862 1.531 . S
C859 C858 1.369 1_455 S
C859 C860 1.410 . S
C859 C867 1.503 . S
C860 C859 1.410 . S
C860 C861 1.392 . S
C860 C863 1.511 . S
C861 C857 1.376 . S
C861 C860 1.392 . S
C861 H873 0.929 . S
C862 C858 1.531 . S
C862 H874 0.960 . S
C862 H875 0.962 . S
C862 H876 0.960 . S
C863 C860 1.511 . S
C863 H877 0.961 . S
C863 H878 0.961 . S
C863 H879 0.961 . S
C864 C865 1.370 . S
C864 C866 1.363 . S
C864 H880 0.931 . S
C865 C864 1.370 . S
C865 C869 1.408 1_455 S
C866 C864 1.363 . S
C866 C867 1.370 . S
C866 C870 1.524 . S
C867 C859 1.503 . S
C867 C866 1.370 . S
C867 C868 1.402 . S
C868 C867 1.402 . S
C868 C869 1.402 1_455 S
C868 C871 1.543 1_455 S
C869 C865 1.408 1_655 S
C869 C868 1.402 1_655 S
C869 H881 0.930 . S
C870 C866 1.524 . S
C870 H882 0.956 . S
C870 H883 0.961 . S
C870 H884 0.961 . S
C871 C868 1.543 1_655 S
C871 H885 0.958 . S
C871 H886 0.961 1_655 S
C871 H887 0.960 1_655 S
H872 C856 0.931 . S
H873 C861 0.929 . S
H874 C862 0.960 . S
H875 C862 0.962 . S
H876 C862 0.960 . S
H877 C863 0.961 . S
H878 C863 0.961 . S
H879 C863 0.961 . S
H880 C864 0.931 . S
H881 C869 0.930 . S
H882 C870 0.956 . S
H883 C870 0.961 . S
H884 C870 0.961 . S
H885 C871 0.958 . S
H886 C871 0.961 1_455 S
H887 C871 0.960 1_455 S
C313 C9 0.555 . S
C321 C303 0.425 . S
C345 C49 0.392 . S
C353 C239 0.358 . S
C377 C89 0.267 . S
C385 C271 0.385 . S
C409 C26 0.454 . S
C417 C297 0.393 . S
C449 C233 0.508 . S
C441 C66 0.538 . S
C481 C265 0.487 . S
C473 C106 0.520 . S
C505 C43 2.936 . S
C513 C175 2.883 . S
C537 C83 3.030 . S
C545 C207 2.960 . S
C569 C22 3.092 . S
C577 C137 3.022 . S
C609 C169 3.034 . S
C601 C62 3.086 . S
C641 C201 2.931 . S
C633 C102 2.991 . S
C665 C3 2.929 . S
C673 C143 2.881 . S
C705 C213 1.750 . S
C697 C15 1.725 . S
C729 C55 1.759 . S
C737 C149 1.754 . S
C761 C95 1.729 . S
C769 C181 1.746 . S
C801 C277 1.064 . S
C793 C42 1.088 . S
C833 C309 1.076 . S
C825 C82 1.080 . S
C857 C2 1.039 . S
C865 C245 1.030 . S
