# Generated by pormake.
# Topology nom, (4,4)-cn, num edge types: 1
# Building blocks:
#     Node 0, Type 0, BuildingBlock: KUFVIS_clean_linker_0, # of connection points: 4
#     Node 1, Type 0, BuildingBlock: KUFVIS_clean_linker_0, # of connection points: 4
#     Node 2, Type 0, BuildingBlock: KUFVIS_clean_linker_0, # of connection points: 4
#     Node 3, Type 0, BuildingBlock: KUFVIS_clean_linker_0, # of connection points: 4
#     Node 4, Type 0, BuildingBlock: KUFVIS_clean_linker_0, # of connection points: 4
#     Node 5, Type 0, BuildingBlock: KUFVIS_clean_linker_0, # of connection points: 4
#     Node 6, Type 1, BuildingBlock: QUQFOY_clean_sbu_3, # of connection points: 4
#     Node 7, Type 1, BuildingBlock: QUQFOY_clean_sbu_3, # of connection points: 4
#     Node 8, Type 1, BuildingBlock: QUQFOY_clean_sbu_3, # of connection points: 4
#     Node 9, Type 1, BuildingBlock: QUQFOY_clean_sbu_3, # of connection points: 4
#     Node 10, Type 1, BuildingBlock: QUQFOY_clean_sbu_3, # of connection points: 4
#     Node 11, Type 1, BuildingBlock: QUQFOY_clean_sbu_3, # of connection points: 4
#     Edge 12, Type (0, 1), BuildingBlock: OJICUG_clean_linker_0, # of connection points: 2
#     Edge 13, Type (0, 1), BuildingBlock: OJICUG_clean_linker_0, # of connection points: 2
#     Edge 14, Type (0, 1), BuildingBlock: OJICUG_clean_linker_0, # of connection points: 2
#     Edge 15, Type (0, 1), BuildingBlock: OJICUG_clean_linker_0, # of connection points: 2
#     Edge 16, Type (0, 1), BuildingBlock: OJICUG_clean_linker_0, # of connection points: 2
#     Edge 17, Type (0, 1), BuildingBlock: OJICUG_clean_linker_0, # of connection points: 2
#     Edge 18, Type (0, 1), BuildingBlock: OJICUG_clean_linker_0, # of connection points: 2
#     Edge 19, Type (0, 1), BuildingBlock: OJICUG_clean_linker_0, # of connection points: 2
#     Edge 20, Type (0, 1), BuildingBlock: OJICUG_clean_linker_0, # of connection points: 2
#     Edge 21, Type (0, 1), BuildingBlock: OJICUG_clean_linker_0, # of connection points: 2
#     Edge 22, Type (0, 1), BuildingBlock: OJICUG_clean_linker_0, # of connection points: 2
#     Edge 23, Type (0, 1), BuildingBlock: OJICUG_clean_linker_0, # of connection points: 2
#     Edge 24, Type (0, 1), BuildingBlock: OJICUG_clean_linker_0, # of connection points: 2
#     Edge 25, Type (0, 1), BuildingBlock: OJICUG_clean_linker_0, # of connection points: 2
#     Edge 26, Type (0, 1), BuildingBlock: OJICUG_clean_linker_0, # of connection points: 2
#     Edge 27, Type (0, 1), BuildingBlock: OJICUG_clean_linker_0, # of connection points: 2
#     Edge 28, Type (0, 1), BuildingBlock: OJICUG_clean_linker_0, # of connection points: 2
#     Edge 29, Type (0, 1), BuildingBlock: OJICUG_clean_linker_0, # of connection points: 2
#     Edge 30, Type (0, 1), BuildingBlock: OJICUG_clean_linker_0, # of connection points: 2
#     Edge 31, Type (0, 1), BuildingBlock: OJICUG_clean_linker_0, # of connection points: 2
#     Edge 32, Type (0, 1), BuildingBlock: OJICUG_clean_linker_0, # of connection points: 2
#     Edge 33, Type (0, 1), BuildingBlock: OJICUG_clean_linker_0, # of connection points: 2
#     Edge 34, Type (0, 1), BuildingBlock: OJICUG_clean_linker_0, # of connection points: 2
#     Edge 35, Type (0, 1), BuildingBlock: OJICUG_clean_linker_0, # of connection points: 2
# Relax obj value: 0.003
# Max RMSD: 0.049
# Mean RMSD: 0.035
data_MOF--net-nom--node1-QUQFOY_clean_sbu_3--node2-KUFVIS_clean_linker_0--edge1-OJICUG_clean_linker_0
_symmetry_space_group_name_H-M    P1
_symmetry_Int_Tables_number       1
_symmetry_cell_setting            triclinic
loop_
_symmetry_equiv_pos_as_xyz
'x, y, z'
_cell_length_a     33.239955
_cell_length_b     34.395151
_cell_length_c     37.334036
_cell_angle_alpha  89.991268
_cell_angle_beta   90.009861
_cell_angle_gamma 120.1989
loop_
_atom_site_label
_atom_site_type_symbol
_atom_site_fract_x
_atom_site_fract_y
_atom_site_fract_z
_atom_type_partial_charge
H0 H 0.18219 0.62106 0.30732 0.0
H1 H 0.07618 0.59161 0.22929 0.0
H2 H 0.03966 0.53093 0.33475 0.0
H3 H 0.97284 0.53244 0.32115 0.0
H4 H 0.87183 0.46155 0.23902 0.0
H5 H 1.01679 0.52219 0.21425 0.0
C6 C 0.14578 0.60278 0.29956 0.0
C7 C 0.11226 0.57584 0.32475 0.0
C8 C 0.13301 0.60829 0.26514 0.0
C9 C 0.08575 0.5862 0.25577 0.0
C10 C 0.05125 0.55712 0.28035 0.0
C11 C 0.06508 0.55281 0.31521 0.0
C12 C 1.00136 0.53047 0.26928 0.0
C13 C 0.96501 0.52003 0.2939 0.0
C14 C 0.9182 0.49395 0.28331 0.0
C15 C 0.90784 0.47941 0.24776 0.0
C16 C 0.94322 0.49043 0.2227 0.0
C17 C 0.98978 0.51516 0.23367 0.0
H18 H 0.57159 0.16584 0.47617 0.0
H19 H 0.49671 0.06714 0.39569 0.0
H20 H 0.51301 0.02695 0.50269 0.0
H21 H 0.45274 0.96107 0.4881 0.0
H22 H 0.42955 0.86768 0.40389 0.0
H23 H 0.50013 1.00795 0.37987 0.0
C24 C 0.55187 0.13077 0.46814 0.0
C25 C 0.54237 0.09727 0.49322 0.0
C26 C 0.53629 0.11999 0.43295 0.0
C27 C 0.50964 0.07463 0.42287 0.0
C28 C 0.50129 0.03978 0.44752 0.0
C29 C 0.51761 0.05199 0.48305 0.0
C30 C 0.47917 0.99157 0.43565 0.0
C31 C 0.45704 0.95524 0.46026 0.0
C32 C 0.44091 0.91074 0.44901 0.0
C33 C 0.44409 0.90219 0.41288 0.0
C34 C 0.46417 0.93709 0.38799 0.0
C35 C 0.48241 0.98153 0.39945 0.0
H36 H 0.5821 0.41474 0.5858 0.0
H37 H 0.51496 0.44841 0.66789 0.0
H38 H 0.52127 0.49457 0.55861 0.0
H39 H 0.45665 0.49444 0.57517 0.0
H40 H 0.43595 0.57257 0.65446 0.0
H41 H 0.51979 0.51432 0.68001 0.0
C42 C 0.56348 0.4317 0.59398 0.0
C43 C 0.55189 0.4539 0.56843 0.0
C44 C 0.55091 0.43026 0.62977 0.0
C45 C 0.52551 0.4509 0.64017 0.0
C46 C 0.51466 0.47505 0.61482 0.0
C47 C 0.52794 0.47584 0.57872 0.0
C48 C 0.49167 0.50107 0.62596 0.0
C49 C 0.4639 0.50911 0.60169 0.0
C50 C 0.44523 0.53629 0.61146 0.0
C51 C 0.45254 0.55377 0.64618 0.0
C52 C 0.47827 0.54487 0.67109 0.0
C53 C 0.49843 0.51929 0.66077 0.0
H54 H 0.1874 0.57923 0.73904 0.0
H55 H 0.08642 0.50832 0.82117 0.0
H56 H 0.04242 0.51854 0.71427 0.0
H57 H 0.98307 0.44911 0.72932 0.0
H58 H 0.87706 0.41965 0.80734 0.0
H59 H 1.01959 0.50981 0.83476 0.0
C60 C 0.15139 0.56137 0.74777 0.0
C61 C 0.11599 0.55033 0.72272 0.0
C62 C 0.14104 0.54682 0.78333 0.0
C63 C 0.09424 0.52072 0.79393 0.0
C64 C 0.05788 0.51027 0.7693 0.0
C65 C 0.06945 0.52558 0.73369 0.0
C66 C 1.00799 0.48361 0.78038 0.0
C67 C 0.9735 0.45451 0.7558 0.0
C68 C 0.92623 0.43242 0.76517 0.0
C69 C 0.91347 0.43793 0.79958 0.0
C70 C 0.94699 0.46488 0.82476 0.0
C71 C 0.99417 0.48792 0.81523 0.0
H72 H 0.48757 0.87497 -0.02382 0.0
H73 H 0.56247 0.9737 0.89571 0.0
H74 H 0.54613 1.01386 0.00269 0.0
H75 H 0.60641 0.07976 -0.01189 0.0
H76 H 0.6296 0.17314 0.90387 0.0
H77 H 0.55902 0.03288 0.87987 0.0
C78 C 0.5073 0.91005 -0.03186 0.0
C79 C 0.51679 0.94354 -0.00678 0.0
C80 C 0.52288 0.92084 0.93296 0.0
C81 C 0.54953 0.9662 0.92288 0.0
C82 C 0.55787 1.00104 0.94753 0.0
C83 C 0.54155 0.98883 -0.01695 0.0
C84 C 0.57998 0.04926 0.93566 0.0
C85 C 0.60211 0.08559 -0.03973 0.0
C86 C 0.61823 0.13008 0.949 0.0
C87 C 0.61505 0.13863 0.91287 0.0
C88 C 0.59498 0.10373 0.88798 0.0
C89 C 0.57674 0.0593 0.89945 0.0
H90 H 0.47735 0.6263 0.08581 0.0
H91 H 0.54451 0.59261 0.1679 0.0
H92 H 0.53817 0.54647 0.05862 0.0
H93 H 0.60276 0.54656 0.07517 0.0
H94 H 0.62346 0.46839 0.15446 0.0
H95 H 0.53968 0.5267 0.18002 0.0
C96 C 0.49597 0.60934 0.094 0.0
C97 C 0.50755 0.58714 0.06844 0.0
C98 C 0.50855 0.61076 0.12979 0.0
C99 C 0.53396 0.59013 0.14018 0.0
C100 C 0.5448 0.56598 0.11483 0.0
C101 C 0.5315 0.56519 0.07873 0.0
C102 C 0.56778 0.53995 0.12597 0.0
C103 C 0.59552 0.53189 0.1017 0.0
C104 C 0.61417 0.50469 0.11147 0.0
C105 C 0.60688 0.48721 0.14618 0.0
C106 C 0.58117 0.49613 0.1711 0.0
C107 C 0.56103 0.52172 0.16078 0.0
C108 C 0.75247 0.46313 0.35638 0.0
O109 O 0.7509 0.49676 0.36866 0.0
Cd110 Cd 0.68072 0.49322 0.38814 0.0
O111 O 0.71558 0.42456 0.3545 0.0
Cd112 Cd 0.63098 0.3874 0.37031 0.0
C113 C 0.61436 0.45246 0.31167 0.0
O114 O 0.64467 0.42859 0.42563 0.0
O115 O 0.57297 0.3915 0.40919 0.0
O116 O 0.63908 0.32289 0.38576 0.0
C117 C 0.60264 0.41598 0.43251 0.0
O118 O 0.63564 0.48458 0.3339 0.0
C119 C 0.59969 0.29303 0.37393 0.0
O120 O 0.61039 0.41418 0.3173 0.0
O121 O 0.5746 0.30687 0.35948 0.0
C122 C 0.31239 0.56607 0.53533 0.0
O123 O 0.2752 0.53211 0.52422 0.0
Cd124 Cd 0.20837 0.53517 0.50477 0.0
O125 O 0.31643 0.60504 0.53556 0.0
Cd126 Cd 0.27015 0.64128 0.51777 0.0
C127 C 0.18887 0.58117 0.57995 0.0
O128 O 0.23695 0.59664 0.46388 0.0
O129 O 0.20467 0.63401 0.48178 0.0
O130 O 0.34279 0.70602 0.49717 0.0
C131 C 0.20769 0.6092 0.45814 0.0
O132 O 0.1749 0.54753 0.55904 0.0
C133 C 0.33522 0.73588 0.51015 0.0
O134 O 0.22482 0.61866 0.57241 0.0
O135 O 0.29763 0.72191 0.52758 0.0
C136 C 0.76441 0.29461 0.69402 0.0
O137 O 0.76336 0.25928 0.68274 0.0
Cd138 Cd 0.69179 0.19313 0.66658 0.0
O139 O 0.72698 0.2962 0.6965 0.0
Cd140 Cd 0.64213 0.25071 0.6846 0.0
C141 C 0.63023 0.17295 0.74498 0.0
O142 O 0.65091 0.21857 0.62957 0.0
O143 O 0.58071 0.18897 0.64944 0.0
O144 O 0.65011 0.32273 0.66853 0.0
C145 C 0.60812 0.19042 0.62523 0.0
O146 O 0.65061 0.16045 0.72279 0.0
C147 C 0.61259 0.31589 0.6831 0.0
O148 O 0.62546 0.20671 0.73843 0.0
O149 O 0.58822 0.27836 0.69876 0.0
C150 C 0.30685 0.5777 0.85634 0.0
O151 O 0.30846 0.54408 0.86862 0.0
Cd152 Cd 0.37867 0.54768 0.8881 0.0
O153 O 0.34373 0.61629 0.85447 0.0
Cd154 Cd 0.42834 0.65349 0.87027 0.0
C155 C 0.44503 0.58847 0.81164 0.0
O156 O 0.41468 0.6123 0.9256 0.0
O157 O 0.48637 0.64943 0.90916 0.0
O158 O 0.42018 0.71796 0.88571 0.0
C159 C 0.45671 0.62494 0.93248 0.0
O160 O 0.42377 0.55635 0.83387 0.0
C161 C 0.45957 0.74784 0.8739 0.0
O162 O 0.44896 0.62674 0.81726 0.0
O163 O 0.48467 0.73403 0.85945 0.0
C164 C 0.74687 0.47479 0.03528 0.0
O165 O 0.78407 0.50874 0.02416 0.0
Cd166 Cd 0.85087 0.50563 0.00472 0.0
O167 O 0.74281 0.43582 0.03552 0.0
Cd168 Cd 0.78906 0.39954 0.01773 0.0
C169 C 0.87034 0.45962 0.07992 0.0
O170 O 0.82228 0.44417 -0.03617 0.0
O171 O 0.85453 0.40678 -0.01822 0.0
O172 O 0.7164 0.33482 -0.00288 0.0
C173 C 0.85153 0.4316 -0.04188 0.0
O174 O 0.88433 0.49326 0.059 0.0
C175 C 0.72395 0.30495 0.01012 0.0
O176 O 0.83438 0.42214 0.07238 0.0
O177 O 0.76153 0.3189 0.02757 0.0
C178 C 0.29482 0.74615 0.19402 0.0
O179 O 0.29586 0.78147 0.18274 0.0
Cd180 Cd 0.3674 0.84765 0.16659 0.0
O181 O 0.33226 0.74458 0.19651 0.0
Cd182 Cd 0.41712 0.79012 0.18463 0.0
C183 C 0.42896 0.86786 0.245 0.0
O184 O 0.4083 0.82225 0.12959 0.0
O185 O 0.4785 0.85189 0.14948 0.0
O186 O 0.4092 0.71813 0.16857 0.0
C187 C 0.45108 0.85042 0.12526 0.0
O188 O 0.40857 0.88035 0.2228 0.0
C189 C 0.44673 0.725 0.18313 0.0
O190 O 0.43376 0.83412 0.23846 0.0
O191 O 0.47108 0.76253 0.1988 0.0
C192 C 0.16973 0.67613 0.22543 0.0
C193 C 0.1701 0.63882 0.24024 0.0
H194 H 0.20922 0.73976 0.1991 0.0
C195 C 0.20961 0.6345 0.23575 0.0
H196 H 0.13972 0.68026 0.22877 0.0
C197 C 0.24934 0.66841 0.21909 0.0
C198 C 0.25043 0.70748 0.2066 0.0
H199 H 0.21051 0.60578 0.24674 0.0
H200 H 0.27983 0.6648 0.21742 0.0
C201 C 0.20965 0.71027 0.20874 0.0
C202 C 0.51874 0.16996 0.39537 0.0
C203 C 0.55076 0.15771 0.40757 0.0
H204 H 0.50934 0.22304 0.3745 0.0
C205 C 0.59857 0.18767 0.40279 0.0
H206 H 0.48175 0.14758 0.39927 0.0
C207 C 0.61436 0.23078 0.38935 0.0
C208 C 0.58261 0.2447 0.38013 0.0
H209 H 0.62386 0.17893 0.41222 0.0
H210 H 0.65151 0.25409 0.38821 0.0
C211 C 0.5346 0.21321 0.38148 0.0
C212 C 0.42185 0.58845 0.58417 0.0
C213 C 0.41565 0.54497 0.58675 0.0
H214 H 0.3944 0.62935 0.56577 0.0
C215 C 0.37789 0.50934 0.56902 0.0
H216 H 0.45102 0.61665 0.59727 0.0
C217 C 0.3453 0.51656 0.551 0.0
C218 C 0.34997 0.5596 0.55027 0.0
H219 H 0.37212 0.47546 0.57074 0.0
H220 H 0.31552 0.48801 0.53882 0.0
C221 C 0.38941 0.59572 0.56611 0.0
C222 C 0.88949 0.36458 0.72546 0.0
C223 C 0.88914 0.4019 0.74026 0.0
H224 H 0.84999 0.30096 0.69914 0.0
C225 C 0.84965 0.40624 0.73574 0.0
H226 H 0.91949 0.36043 0.72882 0.0
C227 C 0.80992 0.37234 0.71908 0.0
C228 C 0.80881 0.33327 0.70661 0.0
H229 H 0.84876 0.43497 0.74673 0.0
H230 H 0.77944 0.37597 0.7174 0.0
C231 C 0.84957 0.33045 0.70876 0.0
C232 C 0.46062 0.85315 0.90281 0.0
C233 C 0.50843 0.88313 0.90758 0.0
H234 H 0.4077 0.78673 0.88821 0.0
C235 C 0.54047 0.87091 0.89536 0.0
H236 H 0.43532 0.86186 0.91224 0.0
C237 C 0.52463 0.82767 0.88147 0.0
C238 C 0.47662 0.79616 0.88011 0.0
H239 H 0.57746 0.89331 0.89926 0.0
H240 H 0.5499 0.81786 0.87447 0.0
C241 C 0.44486 0.81005 0.88935 0.0
C242 C 0.68147 0.5316 0.06899 0.0
C243 C 0.64371 0.49598 0.08675 0.0
H244 H 0.7438 0.55289 0.03877 0.0
C245 C 0.63749 0.45249 0.08416 0.0
H246 H 0.68727 0.56548 0.07071 0.0
C247 C 0.66989 0.4452 0.06609 0.0
C248 C 0.70933 0.48129 0.05023 0.0
H249 H 0.60833 0.42431 0.09729 0.0
H250 H 0.66488 0.41155 0.06576 0.0
C251 C 0.71402 0.52435 0.05096 0.0
C252 C 0.43713 0.84176 0.47339 0.0
C253 C 0.41994 0.87167 0.47366 0.0
H254 H 0.42382 0.77542 0.4848 0.0
C255 C 0.37783 0.85899 0.49131 0.0
H256 H 0.46961 0.85085 0.45997 0.0
C257 C 0.35142 0.81553 0.50566 0.0
C258 C 0.36672 0.78422 0.50227 0.0
H259 H 0.36368 0.8813 0.49156 0.0
H260 H 0.31765 0.80553 0.51713 0.0
C261 C 0.41076 0.79848 0.48739 0.0
C262 C 0.53359 0.36381 0.66764 0.0
C263 C 0.56581 0.40689 0.655 0.0
H264 H 0.52341 0.30072 0.68705 0.0
C265 C 0.6136 0.42222 0.65796 0.0
H266 H 0.49658 0.35112 0.66504 0.0
C267 C 0.6289 0.39336 0.66967 0.0
C268 C 0.59667 0.34876 0.67901 0.0
H269 H 0.639 0.45525 0.64807 0.0
H270 H 0.66587 0.40513 0.66923 0.0
C271 C 0.54899 0.33493 0.67986 0.0
C272 C 0.18079 0.52133 0.82646 0.0
C273 C 0.18005 0.55639 0.80783 0.0
H274 H 0.22156 0.5005 0.8564 0.0
C275 C 0.21971 0.59961 0.80864 0.0
H276 H 0.15084 0.48764 0.82604 0.0
C277 C 0.26032 0.60702 0.82575 0.0
C278 C 0.26218 0.5713 0.84235 0.0
H279 H 0.21988 0.62733 0.79471 0.0
H280 H 0.29077 0.64036 0.82468 0.0
C281 C 0.2215 0.52869 0.84353 0.0
C282 C 0.62203 0.19907 -0.02665 0.0
C283 C 0.6392 0.16916 -0.02635 0.0
H284 H 0.63536 0.26543 -0.01526 0.0
C285 C 0.68131 0.18183 -0.00868 0.0
H286 H 0.58956 0.19 -0.04008 0.0
C287 C 0.70773 0.22529 0.00566 0.0
C288 C 0.69244 0.2566 0.00224 0.0
H289 H 0.69545 0.15951 -0.00842 0.0
H290 H 0.74149 0.23528 0.01714 0.0
C291 C 0.64841 0.24236 -0.01265 0.0
C292 C 0.44584 0.61873 0.15798 0.0
C293 C 0.49364 0.63411 0.15502 0.0
H294 H 0.39352 0.63576 0.16925 0.0
C295 C 0.52582 0.6772 0.16766 0.0
H296 H 0.42046 0.5857 0.14809 0.0
C297 C 0.51039 0.70604 0.17988 0.0
C298 C 0.4627 0.69217 0.17903 0.0
H299 H 0.56285 0.68993 0.16506 0.0
H300 H 0.53594 0.74026 0.18708 0.0
C301 C 0.4305 0.64756 0.16969 0.0
C302 C 0.87851 0.51945 0.32647 0.0
C303 C 0.87921 0.48439 0.30781 0.0
H304 H 0.83779 0.5403 0.35643 0.0
C305 C 0.83954 0.44118 0.30863 0.0
H306 H 0.90848 0.55314 0.32604 0.0
C307 C 0.79894 0.43378 0.32575 0.0
C308 C 0.79713 0.46951 0.34238 0.0
H309 H 0.83934 0.41346 0.29468 0.0
H310 H 0.76849 0.40046 0.32469 0.0
C311 C 0.83782 0.51211 0.34355 0.0
C312 C 0.16123 0.56136 0.36659 0.0
C313 C 0.12806 0.5746 0.36133 0.0
H314 H 0.21231 0.56177 0.40156 0.0
C315 C 0.1176 0.59512 0.38942 0.0
H316 H 0.17002 0.54586 0.34503 0.0
C317 C 0.14239 0.60507 0.4216 0.0
C318 C 0.17767 0.59428 0.42609 0.0
H319 H 0.09258 0.60617 0.38561 0.0
H320 H 0.13521 0.62275 0.44235 0.0
C321 C 0.18564 0.57086 0.39878 0.0
C322 C 0.60715 0.13965 0.53567 0.0
C323 C 0.55929 0.1114 0.52992 0.0
H324 H 0.66015 0.18684 0.57055 0.0
C325 C 0.52774 0.10517 0.55728 0.0
H326 H 0.6319 0.14511 0.51462 0.0
C327 C 0.54373 0.12957 0.58915 0.0
C328 C 0.59144 0.16034 0.5939 0.0
H329 H 0.49063 0.08398 0.553 0.0
H330 H 0.51858 0.1259 0.60927 0.0
C331 C 0.62314 0.16382 0.56747 0.0
C332 C 0.48815 0.60251 0.71635 0.0
C333 C 0.47986 0.55912 0.70865 0.0
H334 H 0.48403 0.64603 0.75512 0.0
C335 C 0.46607 0.52737 0.73636 0.0
H336 H 0.49925 0.6277 0.69544 0.0
C337 C 0.45707 0.53769 0.77051 0.0
C338 C 0.46188 0.58001 0.77753 0.0
H339 H 0.45921 0.4936 0.73104 0.0
H340 H 0.44418 0.51175 0.79088 0.0
C341 C 0.47936 0.61292 0.7505 0.0
C342 C 0.89803 0.4794 0.86657 0.0
C343 C 0.93119 0.46614 0.86134 0.0
H344 H 0.84695 0.47903 0.90151 0.0
C345 C 0.94162 0.44562 0.88945 0.0
H346 H 0.88925 0.49491 0.845 0.0
C347 C 0.91682 0.43569 0.92162 0.0
C348 C 0.88156 0.44649 0.92607 0.0
H349 H 0.96663 0.43455 0.88565 0.0
H350 H 0.92398 0.418 0.94238 0.0
C351 C 0.87361 0.46992 0.89875 0.0
C352 C 0.53142 0.93567 0.05729 0.0
C353 C 0.49986 0.9294 0.02992 0.0
H354 H 0.5406 0.91497 0.1093 0.0
C355 C 0.45201 0.90113 0.03566 0.0
H356 H 0.56853 0.95689 0.05302 0.0
C357 C 0.43603 0.87697 0.06747 0.0
C358 C 0.46774 0.88048 0.09391 0.0
H359 H 0.42725 0.89564 0.0146 0.0
H360 H 0.39903 0.85393 0.07055 0.0
C361 C 0.51545 0.91128 0.08916 0.0
C362 C 0.59338 0.51361 0.23636 0.0
C363 C 0.57959 0.48186 0.20866 0.0
H364 H 0.61526 0.52921 0.29089 0.0
C365 C 0.57128 0.43847 0.21636 0.0
H366 H 0.60026 0.54738 0.23105 0.0
C367 C 0.58005 0.42804 0.25052 0.0
C368 C 0.59753 0.46094 0.27755 0.0
H369 H 0.56017 0.41328 0.19546 0.0
H370 H 0.57536 0.39492 0.25514 0.0
C371 C 0.60237 0.50327 0.27053 0.0
C372 C 0.44487 0.94263 0.32431 0.0
C373 C 0.46353 0.92602 0.34974 0.0
H374 H 0.4191 0.93712 0.27095 0.0
C375 C 0.47583 0.89419 0.33928 0.0
H376 H 0.43494 0.96707 0.33185 0.0
C377 C 0.46657 0.87684 0.30464 0.0
C378 C 0.44475 0.89097 0.27982 0.0
H379 H 0.49083 0.88133 0.35838 0.0
H380 H 0.47482 0.85103 0.29784 0.0
C381 C 0.4355 0.92521 0.28958 0.0
C382 C 0.61199 0.46861 0.52283 0.0
C383 C 0.56513 0.45285 0.53103 0.0
H384 H 0.66055 0.4693 0.48511 0.0
C385 C 0.53077 0.42863 0.50527 0.0
H386 H 0.63891 0.48711 0.54255 0.0
C387 C 0.54297 0.41775 0.47248 0.0
C388 C 0.58968 0.43117 0.46516 0.0
H389 H 0.49435 0.41572 0.51139 0.0
H390 H 0.51572 0.39737 0.45354 0.0
C391 C 0.62421 0.45802 0.49013 0.0
C392 C 0.10783 0.52698 0.6586 0.0
C393 C 0.12846 0.56103 0.68453 0.0
H394 H 0.11079 0.50661 0.60503 0.0
C395 C 0.16543 0.60341 0.67455 0.0
H396 H 0.07947 0.4939 0.66567 0.0
C397 C 0.18356 0.61069 0.63993 0.0
C398 C 0.16518 0.57563 0.61466 0.0
H399 H 0.18161 0.63034 0.69402 0.0
H400 H 0.21333 0.6432 0.63353 0.0
C401 C 0.12608 0.53419 0.62397 0.0
C402 C 0.58335 0.14664 0.83925 0.0
C403 C 0.59563 0.1148 0.84973 0.0
H404 H 0.58437 0.1898 0.79779 0.0
C405 C 0.61428 0.09818 0.82431 0.0
H406 H 0.56835 0.1595 0.85833 0.0
C407 C 0.62367 0.1156 0.78958 0.0
C408 C 0.61443 0.14984 0.7798 0.0
H409 H 0.62421 0.07374 0.83186 0.0
H410 H 0.64007 0.10368 0.77096 0.0
C411 C 0.59262 0.16398 0.80461 0.0
C412 C 0.52863 0.61238 0.00527 0.0
C413 C 0.49429 0.58819 0.03104 0.0
H414 H 0.54365 0.64358 0.95351 0.0
C415 C 0.44742 0.57242 0.02286 0.0
H416 H 0.56505 0.62529 0.01139 0.0
C417 C 0.43518 0.58297 -0.00986 0.0
C418 C 0.46969 0.60979 -0.03485 0.0
H419 H 0.42051 0.55393 0.04258 0.0
H420 H 0.39884 0.57168 -0.01488 0.0
C421 C 0.51641 0.62323 -0.02753 0.0
C422 C 0.95139 0.51378 0.15858 0.0
C423 C 0.93074 0.47974 0.18451 0.0
H424 H 0.94844 0.53416 0.105 0.0
C425 C 0.89375 0.43737 0.17454 0.0
H426 H 0.97976 0.54685 0.16565 0.0
C427 C 0.87562 0.43009 0.13991 0.0
C428 C 0.89403 0.46515 0.11464 0.0
H429 H 0.87756 0.41044 0.19401 0.0
H430 H 0.84584 0.39759 0.13352 0.0
C431 C 0.93314 0.50658 0.12395 0.0
loop_
_geom_bond_atom_site_label_1
_geom_bond_atom_site_label_2
_geom_bond_distance
_geom_bond_site_symmetry_2
_ccdc_geom_bond_type
H0 C6 0.930 . S
H1 C9 0.931 . S
H2 C11 0.931 . S
H3 C13 0.930 . S
H4 C15 0.930 . S
H5 C17 0.931 . S
C6 H0 0.930 . S
C6 C7 1.380 . S
C6 C8 1.394 . S
C7 C6 1.380 . S
C7 C11 1.382 . S
C8 C6 1.394 . S
C8 C9 1.400 . S
C9 H1 0.931 . S
C9 C8 1.400 . S
C9 C10 1.375 . S
C10 C9 1.375 . S
C10 C11 1.415 . S
C10 C12 1.501 1_455 S
C11 H2 0.931 . S
C11 C7 1.382 . S
C11 C10 1.415 . S
C12 C10 1.501 1_655 S
C12 C13 1.384 . S
C12 C17 1.408 . S
C13 H3 0.930 . S
C13 C12 1.384 . S
C13 C14 1.389 . S
C14 C13 1.389 . S
C14 C15 1.405 . S
C15 H4 0.930 . S
C15 C14 1.405 . S
C15 C16 1.364 . S
C16 C15 1.364 . S
C16 C17 1.400 . S
C17 H5 0.931 . S
C17 C12 1.408 . S
C17 C16 1.400 . S
H18 C24 0.930 . S
H19 C27 0.931 . S
H20 C29 0.931 . S
H21 C31 0.930 . S
H22 C33 0.930 . S
H23 C35 0.931 . S
C24 H18 0.930 . S
C24 C25 1.380 . S
C24 C26 1.394 . S
C25 C24 1.380 . S
C25 C29 1.382 . S
C26 C24 1.394 . S
C26 C27 1.400 . S
C27 H19 0.931 . S
C27 C26 1.400 . S
C27 C28 1.375 . S
C28 C27 1.375 . S
C28 C29 1.415 . S
C28 C30 1.501 1_545 S
C29 H20 0.931 . S
C29 C25 1.382 . S
C29 C28 1.415 . S
C30 C28 1.501 1_565 S
C30 C31 1.384 . S
C30 C35 1.408 . S
C31 H21 0.930 . S
C31 C30 1.384 . S
C31 C32 1.389 . S
C32 C31 1.389 . S
C32 C33 1.405 . S
C33 H22 0.930 . S
C33 C32 1.405 . S
C33 C34 1.364 . S
C34 C33 1.364 . S
C34 C35 1.400 . S
C35 H23 0.931 . S
C35 C30 1.408 . S
C35 C34 1.400 . S
H36 C42 0.930 . S
H37 C45 0.931 . S
H38 C47 0.931 . S
H39 C49 0.930 . S
H40 C51 0.930 . S
H41 C53 0.931 . S
C42 H36 0.930 . S
C42 C43 1.380 . S
C42 C44 1.394 . S
C43 C42 1.380 . S
C43 C47 1.382 . S
C44 C42 1.394 . S
C44 C45 1.400 . S
C45 H37 0.931 . S
C45 C44 1.400 . S
C45 C46 1.375 . S
C46 C45 1.375 . S
C46 C47 1.415 . S
C46 C48 1.501 . S
C47 H38 0.931 . S
C47 C43 1.382 . S
C47 C46 1.415 . S
C48 C46 1.501 . S
C48 C49 1.384 . S
C48 C53 1.408 . S
C49 H39 0.930 . S
C49 C48 1.384 . S
C49 C50 1.389 . S
C50 C49 1.389 . S
C50 C51 1.405 . S
C51 H40 0.930 . S
C51 C50 1.405 . S
C51 C52 1.364 . S
C52 C51 1.364 . S
C52 C53 1.400 . S
C53 H41 0.931 . S
C53 C48 1.408 . S
C53 C52 1.400 . S
H54 C60 0.930 . S
H55 C63 0.931 . S
H56 C65 0.931 . S
H57 C67 0.930 . S
H58 C69 0.930 . S
H59 C71 0.931 . S
C60 H54 0.930 . S
C60 C61 1.380 . S
C60 C62 1.394 . S
C61 C60 1.380 . S
C61 C65 1.382 . S
C62 C60 1.394 . S
C62 C63 1.400 . S
C63 H55 0.931 . S
C63 C62 1.400 . S
C63 C64 1.375 . S
C64 C63 1.375 . S
C64 C65 1.415 . S
C64 C66 1.501 1_455 S
C65 H56 0.931 . S
C65 C61 1.382 . S
C65 C64 1.415 . S
C66 C64 1.501 1_655 S
C66 C67 1.384 . S
C66 C71 1.408 . S
C67 H57 0.930 . S
C67 C66 1.384 . S
C67 C68 1.389 . S
C68 C67 1.389 . S
C68 C69 1.405 . S
C69 H58 0.930 . S
C69 C68 1.405 . S
C69 C70 1.364 . S
C70 C69 1.364 . S
C70 C71 1.400 . S
C71 H59 0.931 . S
C71 C66 1.408 . S
C71 C70 1.400 . S
H72 C78 0.930 . S
H73 C81 0.931 . S
H74 C83 0.931 . S
H75 C85 0.930 . S
H76 C87 0.930 . S
H77 C89 0.931 . S
C78 H72 0.930 . S
C78 C79 1.380 . S
C78 C80 1.394 1_554 S
C79 C78 1.380 . S
C79 C83 1.382 . S
C80 C78 1.394 1_556 S
C80 C81 1.400 . S
C81 H73 0.931 . S
C81 C80 1.400 . S
C81 C82 1.375 . S
C82 C81 1.375 . S
C82 C83 1.415 1_556 S
C82 C84 1.501 1_565 S
C83 H74 0.931 . S
C83 C79 1.382 . S
C83 C82 1.415 1_554 S
C84 C82 1.501 1_545 S
C84 C85 1.384 1_556 S
C84 C89 1.408 . S
C85 H75 0.930 . S
C85 C84 1.384 1_554 S
C85 C86 1.389 . S
C86 C85 1.389 . S
C86 C87 1.405 1_554 S
C87 H76 0.930 . S
C87 C86 1.405 1_556 S
C87 C88 1.364 . S
C88 C87 1.364 . S
C88 C89 1.400 . S
C89 H77 0.931 . S
C89 C84 1.408 . S
C89 C88 1.400 . S
H90 C96 0.930 . S
H91 C99 0.931 . S
H92 C101 0.931 . S
H93 C103 0.930 . S
H94 C105 0.930 . S
H95 C107 0.931 . S
C96 H90 0.930 . S
C96 C97 1.380 . S
C96 C98 1.394 . S
C97 C96 1.380 . S
C97 C101 1.382 . S
C98 C96 1.394 . S
C98 C99 1.400 . S
C99 H91 0.931 . S
C99 C98 1.400 . S
C99 C100 1.375 . S
C100 C99 1.375 . S
C100 C101 1.415 . S
C100 C102 1.501 . S
C101 H92 0.931 . S
C101 C97 1.382 . S
C101 C100 1.415 . S
C102 C100 1.501 . S
C102 C103 1.384 . S
C102 C107 1.408 . S
C103 H93 0.930 . S
C103 C102 1.384 . S
C103 C104 1.389 . S
C104 C103 1.389 . S
C104 C105 1.405 . S
C105 H94 0.930 . S
C105 C104 1.405 . S
C105 C106 1.364 . S
C106 C105 1.364 . S
C106 C107 1.400 . S
C107 H95 0.931 . S
C107 C102 1.408 . S
C107 C106 1.400 . S
C108 O109 1.306 . S
C108 O111 1.160 . S
O109 C108 1.306 . S
O109 Cd110 2.228 . S
Cd110 O109 2.228 . S
Cd110 O114 2.273 . S
Cd110 O118 2.277 . S
O111 C108 1.160 . S
O111 Cd112 2.203 . S
Cd112 O111 2.203 . S
Cd112 O114 2.411 . S
Cd112 O115 2.333 . S
Cd112 O116 2.352 . S
Cd112 O120 2.277 . S
Cd112 O121 2.356 . S
C113 O118 1.209 . S
C113 O120 1.226 . S
O114 Cd110 2.273 . S
O114 Cd112 2.411 . S
O114 C117 1.320 . S
O115 Cd112 2.333 . S
O115 C117 1.214 . S
O116 Cd112 2.352 . S
O116 C119 1.258 . S
C117 O114 1.320 . S
C117 O115 1.214 . S
O118 Cd110 2.277 . S
O118 C113 1.209 . S
C119 O116 1.258 . S
C119 O121 1.282 . S
O120 Cd112 2.277 . S
O120 C113 1.226 . S
O121 Cd112 2.356 . S
O121 C119 1.282 . S
C122 O123 1.306 . S
C122 O125 1.160 . S
O123 C122 1.306 . S
O123 Cd124 2.228 . S
Cd124 O123 2.228 . S
Cd124 O128 2.273 . S
Cd124 O132 2.277 . S
O125 C122 1.160 . S
O125 Cd126 2.203 . S
Cd126 O125 2.203 . S
Cd126 O128 2.411 . S
Cd126 O129 2.333 . S
Cd126 O130 2.352 . S
Cd126 O134 2.277 . S
Cd126 O135 2.356 . S
C127 O132 1.209 . S
C127 O134 1.226 . S
O128 Cd124 2.273 . S
O128 Cd126 2.411 . S
O128 C131 1.320 . S
O129 Cd126 2.333 . S
O129 C131 1.214 . S
O130 Cd126 2.352 . S
O130 C133 1.258 . S
C131 O128 1.320 . S
C131 O129 1.214 . S
O132 Cd124 2.277 . S
O132 C127 1.209 . S
C133 O130 1.258 . S
C133 O135 1.282 . S
O134 Cd126 2.277 . S
O134 C127 1.226 . S
O135 Cd126 2.356 . S
O135 C133 1.282 . S
C136 O137 1.306 . S
C136 O139 1.160 . S
O137 C136 1.306 . S
O137 Cd138 2.228 . S
Cd138 O137 2.228 . S
Cd138 O142 2.273 . S
Cd138 O146 2.277 . S
O139 C136 1.160 . S
O139 Cd140 2.203 . S
Cd140 O139 2.203 . S
Cd140 O142 2.411 . S
Cd140 O143 2.333 . S
Cd140 O144 2.352 . S
Cd140 O148 2.277 . S
Cd140 O149 2.356 . S
C141 O146 1.209 . S
C141 O148 1.226 . S
O142 Cd138 2.273 . S
O142 Cd140 2.411 . S
O142 C145 1.320 . S
O143 Cd140 2.333 . S
O143 C145 1.214 . S
O144 Cd140 2.352 . S
O144 C147 1.258 . S
C145 O142 1.320 . S
C145 O143 1.214 . S
O146 Cd138 2.277 . S
O146 C141 1.209 . S
C147 O144 1.258 . S
C147 O149 1.282 . S
O148 Cd140 2.277 . S
O148 C141 1.226 . S
O149 Cd140 2.356 . S
O149 C147 1.282 . S
C150 O151 1.306 . S
C150 O153 1.160 . S
O151 C150 1.306 . S
O151 Cd152 2.228 . S
Cd152 O151 2.228 . S
Cd152 O156 2.273 . S
Cd152 O160 2.277 . S
O153 C150 1.160 . S
O153 Cd154 2.203 . S
Cd154 O153 2.203 . S
Cd154 O156 2.411 . S
Cd154 O157 2.333 . S
Cd154 O158 2.352 . S
Cd154 O162 2.277 . S
Cd154 O163 2.356 . S
C155 O160 1.209 . S
C155 O162 1.226 . S
O156 Cd152 2.273 . S
O156 Cd154 2.411 . S
O156 C159 1.320 . S
O157 Cd154 2.333 . S
O157 C159 1.214 . S
O158 Cd154 2.352 . S
O158 C161 1.258 . S
C159 O156 1.320 . S
C159 O157 1.214 . S
O160 Cd152 2.277 . S
O160 C155 1.209 . S
C161 O158 1.258 . S
C161 O163 1.282 . S
O162 Cd154 2.277 . S
O162 C155 1.226 . S
O163 Cd154 2.356 . S
O163 C161 1.282 . S
C164 O165 1.306 . S
C164 O167 1.160 . S
O165 C164 1.306 . S
O165 Cd166 2.228 . S
Cd166 O165 2.228 . S
Cd166 O170 2.273 . S
Cd166 O174 2.277 . S
O167 C164 1.160 . S
O167 Cd168 2.203 . S
Cd168 O167 2.203 . S
Cd168 O170 2.411 . S
Cd168 O171 2.333 . S
Cd168 O172 2.352 . S
Cd168 O176 2.277 . S
Cd168 O177 2.356 . S
C169 O174 1.209 . S
C169 O176 1.226 . S
O170 Cd166 2.273 . S
O170 Cd168 2.411 . S
O170 C173 1.320 . S
O171 Cd168 2.333 . S
O171 C173 1.214 . S
O172 Cd168 2.352 . S
O172 C175 1.258 . S
C173 O170 1.320 . S
C173 O171 1.214 . S
O174 Cd166 2.277 . S
O174 C169 1.209 . S
C175 O172 1.258 . S
C175 O177 1.282 . S
O176 Cd168 2.277 . S
O176 C169 1.226 . S
O177 Cd168 2.356 . S
O177 C175 1.282 . S
C178 O179 1.306 . S
C178 O181 1.160 . S
O179 C178 1.306 . S
O179 Cd180 2.228 . S
Cd180 O179 2.228 . S
Cd180 O184 2.273 . S
Cd180 O188 2.277 . S
O181 C178 1.160 . S
O181 Cd182 2.203 . S
Cd182 O181 2.203 . S
Cd182 O184 2.411 . S
Cd182 O185 2.333 . S
Cd182 O186 2.352 . S
Cd182 O190 2.277 . S
Cd182 O191 2.356 . S
C183 O188 1.209 . S
C183 O190 1.226 . S
O184 Cd180 2.273 . S
O184 Cd182 2.411 . S
O184 C187 1.320 . S
O185 Cd182 2.333 . S
O185 C187 1.214 . S
O186 Cd182 2.352 . S
O186 C189 1.258 . S
C187 O184 1.320 . S
C187 O185 1.214 . S
O188 Cd180 2.277 . S
O188 C183 1.209 . S
C189 O186 1.258 . S
C189 O191 1.282 . S
O190 Cd182 2.277 . S
O190 C183 1.226 . S
O191 Cd182 2.356 . S
O191 C189 1.282 . S
C192 C193 1.387 . S
C192 H196 0.950 . S
C192 C201 1.390 . S
C193 C192 1.387 . S
C193 C195 1.387 . S
H194 C201 0.950 . S
C195 C193 1.387 . S
C195 C197 1.390 . S
C195 H199 0.950 . S
H196 C192 0.950 . S
C197 C195 1.390 . S
C197 C198 1.387 . S
C197 H200 0.950 . S
C198 C197 1.387 . S
C198 C201 1.387 . S
H199 C195 0.950 . S
H200 C197 0.950 . S
C201 C192 1.390 . S
C201 H194 0.950 . S
C201 C198 1.387 . S
C202 C203 1.387 . S
C202 H206 0.950 . S
C202 C211 1.390 . S
C203 C202 1.387 . S
C203 C205 1.387 . S
H204 C211 0.950 . S
C205 C203 1.387 . S
C205 C207 1.390 . S
C205 H209 0.950 . S
H206 C202 0.950 . S
C207 C205 1.390 . S
C207 C208 1.387 . S
C207 H210 0.950 . S
C208 C207 1.387 . S
C208 C211 1.387 . S
H209 C205 0.950 . S
H210 C207 0.950 . S
C211 C202 1.390 . S
C211 H204 0.950 . S
C211 C208 1.387 . S
C212 C213 1.387 . S
C212 H216 0.950 . S
C212 C221 1.390 . S
C213 C212 1.387 . S
C213 C215 1.387 . S
H214 C221 0.950 . S
C215 C213 1.387 . S
C215 C217 1.390 . S
C215 H219 0.950 . S
H216 C212 0.950 . S
C217 C215 1.390 . S
C217 C218 1.387 . S
C217 H220 0.950 . S
C218 C217 1.387 . S
C218 C221 1.387 . S
H219 C215 0.950 . S
H220 C217 0.950 . S
C221 C212 1.390 . S
C221 H214 0.950 . S
C221 C218 1.387 . S
C222 C223 1.387 . S
C222 H226 0.950 . S
C222 C231 1.390 . S
C223 C222 1.387 . S
C223 C225 1.387 . S
H224 C231 0.950 . S
C225 C223 1.387 . S
C225 C227 1.390 . S
C225 H229 0.950 . S
H226 C222 0.950 . S
C227 C225 1.390 . S
C227 C228 1.387 . S
C227 H230 0.950 . S
C228 C227 1.387 . S
C228 C231 1.387 . S
H229 C225 0.950 . S
H230 C227 0.950 . S
C231 C222 1.390 . S
C231 H224 0.950 . S
C231 C228 1.387 . S
C232 C233 1.387 . S
C232 H236 0.950 . S
C232 C241 1.390 . S
C233 C232 1.387 . S
C233 C235 1.387 . S
H234 C241 0.950 . S
C235 C233 1.387 . S
C235 C237 1.390 . S
C235 H239 0.950 . S
H236 C232 0.950 . S
C237 C235 1.390 . S
C237 C238 1.387 . S
C237 H240 0.950 . S
C238 C237 1.387 . S
C238 C241 1.387 . S
H239 C235 0.950 . S
H240 C237 0.950 . S
C241 C232 1.390 . S
C241 H234 0.950 . S
C241 C238 1.387 . S
C242 C243 1.387 . S
C242 H246 0.950 . S
C242 C251 1.390 . S
C243 C242 1.387 . S
C243 C245 1.387 . S
H244 C251 0.950 . S
C245 C243 1.387 . S
C245 C247 1.390 . S
C245 H249 0.950 . S
H246 C242 0.950 . S
C247 C245 1.390 . S
C247 C248 1.387 . S
C247 H250 0.950 . S
C248 C247 1.387 . S
C248 C251 1.387 . S
H249 C245 0.950 . S
H250 C247 0.950 . S
C251 C242 1.390 . S
C251 H244 0.950 . S
C251 C248 1.387 . S
C252 C253 1.387 . S
C252 H256 0.950 . S
C252 C261 1.390 . S
C253 C252 1.387 . S
C253 C255 1.387 . S
H254 C261 0.950 . S
C255 C253 1.387 . S
C255 C257 1.390 . S
C255 H259 0.950 . S
H256 C252 0.950 . S
C257 C255 1.390 . S
C257 C258 1.387 . S
C257 H260 0.950 . S
C258 C257 1.387 . S
C258 C261 1.387 . S
H259 C255 0.950 . S
H260 C257 0.950 . S
C261 C252 1.390 . S
C261 H254 0.950 . S
C261 C258 1.387 . S
C262 C263 1.387 . S
C262 H266 0.950 . S
C262 C271 1.390 . S
C263 C262 1.387 . S
C263 C265 1.387 . S
H264 C271 0.950 . S
C265 C263 1.387 . S
C265 C267 1.390 . S
C265 H269 0.950 . S
H266 C262 0.950 . S
C267 C265 1.390 . S
C267 C268 1.387 . S
C267 H270 0.950 . S
C268 C267 1.387 . S
C268 C271 1.387 . S
H269 C265 0.950 . S
H270 C267 0.950 . S
C271 C262 1.390 . S
C271 H264 0.950 . S
C271 C268 1.387 . S
C272 C273 1.387 . S
C272 H276 0.950 . S
C272 C281 1.390 . S
C273 C272 1.387 . S
C273 C275 1.387 . S
H274 C281 0.950 . S
C275 C273 1.387 . S
C275 C277 1.390 . S
C275 H279 0.950 . S
H276 C272 0.950 . S
C277 C275 1.390 . S
C277 C278 1.387 . S
C277 H280 0.950 . S
C278 C277 1.387 . S
C278 C281 1.387 . S
H279 C275 0.950 . S
H280 C277 0.950 . S
C281 C272 1.390 . S
C281 H274 0.950 . S
C281 C278 1.387 . S
C282 C283 1.387 1_556 S
C282 H286 0.950 . S
C282 C291 1.390 1_556 S
C283 C282 1.387 1_554 S
C283 C285 1.387 . S
H284 C291 0.950 1_556 S
C285 C283 1.387 . S
C285 C287 1.390 . S
C285 H289 0.950 . S
H286 C282 0.950 . S
C287 C285 1.390 . S
C287 C288 1.387 . S
C287 H290 0.950 . S
C288 C287 1.387 . S
C288 C291 1.387 . S
H289 C285 0.950 . S
H290 C287 0.950 . S
C291 C282 1.390 1_554 S
C291 H284 0.950 1_554 S
C291 C288 1.387 . S
C292 C293 1.387 . S
C292 H296 0.950 . S
C292 C301 1.390 . S
C293 C292 1.387 . S
C293 C295 1.387 . S
H294 C301 0.950 . S
C295 C293 1.387 . S
C295 C297 1.390 . S
C295 H299 0.950 . S
H296 C292 0.950 . S
C297 C295 1.390 . S
C297 C298 1.387 . S
C297 H300 0.950 . S
C298 C297 1.387 . S
C298 C301 1.387 . S
H299 C295 0.950 . S
H300 C297 0.950 . S
C301 C292 1.390 . S
C301 H294 0.950 . S
C301 C298 1.387 . S
C302 C303 1.387 . S
C302 H306 0.950 . S
C302 C311 1.390 . S
C303 C302 1.387 . S
C303 C305 1.387 . S
H304 C311 0.950 . S
C305 C303 1.387 . S
C305 C307 1.390 . S
C305 H309 0.950 . S
H306 C302 0.950 . S
C307 C305 1.390 . S
C307 C308 1.387 . S
C307 H310 0.950 . S
C308 C307 1.387 . S
C308 C311 1.387 . S
H309 C305 0.950 . S
H310 C307 0.950 . S
C311 C302 1.390 . S
C311 H304 0.950 . S
C311 C308 1.387 . S
C312 C313 1.387 . S
C312 H316 0.950 . S
C312 C321 1.390 . S
C313 C312 1.387 . S
C313 C315 1.387 . S
H314 C321 0.950 . S
C315 C313 1.387 . S
C315 C317 1.390 . S
C315 H319 0.950 . S
H316 C312 0.950 . S
C317 C315 1.390 . S
C317 C318 1.387 . S
C317 H320 0.950 . S
C318 C317 1.387 . S
C318 C321 1.387 . S
H319 C315 0.950 . S
H320 C317 0.950 . S
C321 C312 1.390 . S
C321 H314 0.950 . S
C321 C318 1.387 . S
C322 C323 1.387 . S
C322 H326 0.950 . S
C322 C331 1.390 . S
C323 C322 1.387 . S
C323 C325 1.387 . S
H324 C331 0.950 . S
C325 C323 1.387 . S
C325 C327 1.390 . S
C325 H329 0.950 . S
H326 C322 0.950 . S
C327 C325 1.390 . S
C327 C328 1.387 . S
C327 H330 0.950 . S
C328 C327 1.387 . S
C328 C331 1.387 . S
H329 C325 0.950 . S
H330 C327 0.950 . S
C331 C322 1.390 . S
C331 H324 0.950 . S
C331 C328 1.387 . S
C332 C333 1.387 . S
C332 H336 0.950 . S
C332 C341 1.390 . S
C333 C332 1.387 . S
C333 C335 1.387 . S
H334 C341 0.950 . S
C335 C333 1.387 . S
C335 C337 1.390 . S
C335 H339 0.950 . S
H336 C332 0.950 . S
C337 C335 1.390 . S
C337 C338 1.387 . S
C337 H340 0.950 . S
C338 C337 1.387 . S
C338 C341 1.387 . S
H339 C335 0.950 . S
H340 C337 0.950 . S
C341 C332 1.390 . S
C341 H334 0.950 . S
C341 C338 1.387 . S
C342 C343 1.387 . S
C342 H346 0.950 . S
C342 C351 1.390 . S
C343 C342 1.387 . S
C343 C345 1.387 . S
H344 C351 0.950 . S
C345 C343 1.387 . S
C345 C347 1.390 . S
C345 H349 0.950 . S
H346 C342 0.950 . S
C347 C345 1.390 . S
C347 C348 1.387 . S
C347 H350 0.950 . S
C348 C347 1.387 . S
C348 C351 1.387 . S
H349 C345 0.950 . S
H350 C347 0.950 . S
C351 C342 1.390 . S
C351 H344 0.950 . S
C351 C348 1.387 . S
C352 C353 1.387 . S
C352 H356 0.950 . S
C352 C361 1.390 . S
C353 C352 1.387 . S
C353 C355 1.387 . S
H354 C361 0.950 . S
C355 C353 1.387 . S
C355 C357 1.390 . S
C355 H359 0.950 . S
H356 C352 0.950 . S
C357 C355 1.390 . S
C357 C358 1.387 . S
C357 H360 0.950 . S
C358 C357 1.387 . S
C358 C361 1.387 . S
H359 C355 0.950 . S
H360 C357 0.950 . S
C361 C352 1.390 . S
C361 H354 0.950 . S
C361 C358 1.387 . S
C362 C363 1.387 . S
C362 H366 0.950 . S
C362 C371 1.390 . S
C363 C362 1.387 . S
C363 C365 1.387 . S
H364 C371 0.950 . S
C365 C363 1.387 . S
C365 C367 1.390 . S
C365 H369 0.950 . S
H366 C362 0.950 . S
C367 C365 1.390 . S
C367 C368 1.387 . S
C367 H370 0.950 . S
C368 C367 1.387 . S
C368 C371 1.387 . S
H369 C365 0.950 . S
H370 C367 0.950 . S
C371 C362 1.390 . S
C371 H364 0.950 . S
C371 C368 1.387 . S
C372 C373 1.387 . S
C372 H376 0.950 . S
C372 C381 1.390 . S
C373 C372 1.387 . S
C373 C375 1.387 . S
H374 C381 0.950 . S
C375 C373 1.387 . S
C375 C377 1.390 . S
C375 H379 0.950 . S
H376 C372 0.950 . S
C377 C375 1.390 . S
C377 C378 1.387 . S
C377 H380 0.950 . S
C378 C377 1.387 . S
C378 C381 1.387 . S
H379 C375 0.950 . S
H380 C377 0.950 . S
C381 C372 1.390 . S
C381 H374 0.950 . S
C381 C378 1.387 . S
C382 C383 1.387 . S
C382 H386 0.950 . S
C382 C391 1.390 . S
C383 C382 1.387 . S
C383 C385 1.387 . S
H384 C391 0.950 . S
C385 C383 1.387 . S
C385 C387 1.390 . S
C385 H389 0.950 . S
H386 C382 0.950 . S
C387 C385 1.390 . S
C387 C388 1.387 . S
C387 H390 0.950 . S
C388 C387 1.387 . S
C388 C391 1.387 . S
H389 C385 0.950 . S
H390 C387 0.950 . S
C391 C382 1.390 . S
C391 H384 0.950 . S
C391 C388 1.387 . S
C392 C393 1.387 . S
C392 H396 0.950 . S
C392 C401 1.390 . S
C393 C392 1.387 . S
C393 C395 1.387 . S
H394 C401 0.950 . S
C395 C393 1.387 . S
C395 C397 1.390 . S
C395 H399 0.950 . S
H396 C392 0.950 . S
C397 C395 1.390 . S
C397 C398 1.387 . S
C397 H400 0.950 . S
C398 C397 1.387 . S
C398 C401 1.387 . S
H399 C395 0.950 . S
H400 C397 0.950 . S
C401 C392 1.390 . S
C401 H394 0.950 . S
C401 C398 1.387 . S
C402 C403 1.387 . S
C402 H406 0.950 . S
C402 C411 1.390 . S
C403 C402 1.387 . S
C403 C405 1.387 . S
H404 C411 0.950 . S
C405 C403 1.387 . S
C405 C407 1.390 . S
C405 H409 0.950 . S
H406 C402 0.950 . S
C407 C405 1.390 . S
C407 C408 1.387 . S
C407 H410 0.950 . S
C408 C407 1.387 . S
C408 C411 1.387 . S
H409 C405 0.950 . S
H410 C407 0.950 . S
C411 C402 1.390 . S
C411 H404 0.950 . S
C411 C408 1.387 . S
C412 C413 1.387 . S
C412 H416 0.950 . S
C412 C421 1.390 1_554 S
C413 C412 1.387 . S
C413 C415 1.387 . S
H414 C421 0.950 . S
C415 C413 1.387 . S
C415 C417 1.390 . S
C415 H419 0.950 . S
H416 C412 0.950 . S
C417 C415 1.390 . S
C417 C418 1.387 1_554 S
C417 H420 0.950 . S
C418 C417 1.387 1_556 S
C418 C421 1.387 . S
H419 C415 0.950 . S
H420 C417 0.950 . S
C421 C412 1.390 1_556 S
C421 H414 0.950 . S
C421 C418 1.387 . S
C422 C423 1.387 . S
C422 H426 0.950 . S
C422 C431 1.390 . S
C423 C422 1.387 . S
C423 C425 1.387 . S
H424 C431 0.950 . S
C425 C423 1.387 . S
C425 C427 1.390 . S
C425 H429 0.950 . S
H426 C422 0.950 . S
C427 C425 1.390 . S
C427 C428 1.387 . S
C427 H430 0.950 . S
C428 C427 1.387 . S
C428 C431 1.387 . S
H429 C425 0.950 . S
H430 C427 0.950 . S
C431 C422 1.390 . S
C431 H424 0.950 . S
C431 C428 1.387 . S
C198 C178 1.566 . S
C193 C8 1.523 . S
C203 C26 1.515 . S
C208 C119 1.565 . S
C213 C50 1.507 . S
C218 C122 1.563 . S
C223 C68 1.521 . S
C228 C136 1.570 . S
C238 C161 1.564 . S
C233 C80 1.513 . S
C243 C104 1.505 . S
C248 C164 1.557 . S
C253 C32 1.495 . S
C258 C133 1.550 . S
C263 C44 1.509 . S
C268 C147 1.555 . S
C273 C62 1.499 . S
C278 C150 1.542 . S
C288 C175 1.546 . S
C283 C86 1.490 . S
C298 C189 1.553 . S
C293 C98 1.506 . S
C308 C108 1.546 . S
C303 C14 1.498 . S
C313 C7 1.457 . S
C318 C131 1.502 . S
C323 C25 1.459 . S
C328 C145 1.511 . S
C338 C155 1.509 . S
C333 C52 1.462 . S
C343 C70 1.459 . S
C348 C173 1.501 1_556 S
C358 C187 1.510 . S
C353 C79 1.456 . S
C368 C113 1.509 . S
C363 C106 1.460 . S
C378 C183 1.527 . S
C373 C34 1.470 . S
C383 C43 1.463 . S
C388 C117 1.516 . S
C398 C127 1.521 . S
C393 C61 1.468 . S
C403 C88 1.473 . S
C408 C141 1.528 . S
C413 C97 1.461 . S
C418 C159 1.516 . S
C423 C16 1.470 . S
C428 C169 1.520 . S
