# Generated by pormake.
# Topology eea, (3,6)-cn, num edge types: 1
# Building blocks:
#     Node 0, Type 0, BuildingBlock: MIDCAF_clean_linker_0, # of connection points: 3
#     Node 1, Type 0, BuildingBlock: MIDCAF_clean_linker_0, # of connection points: 3
#     Node 2, Type 0, BuildingBlock: MIDCAF_clean_linker_0, # of connection points: 3
#     Node 3, Type 0, BuildingBlock: MIDCAF_clean_linker_0, # of connection points: 3
#     Node 4, Type 0, BuildingBlock: MIDCAF_clean_linker_0, # of connection points: 3
#     Node 5, Type 0, BuildingBlock: MIDCAF_clean_linker_0, # of connection points: 3
#     Node 6, Type 0, BuildingBlock: MIDCAF_clean_linker_0, # of connection points: 3
#     Node 7, Type 0, BuildingBlock: MIDCAF_clean_linker_0, # of connection points: 3
#     Node 8, Type 0, BuildingBlock: MIDCAF_clean_linker_0, # of connection points: 3
#     Node 9, Type 0, BuildingBlock: MIDCAF_clean_linker_0, # of connection points: 3
#     Node 10, Type 0, BuildingBlock: MIDCAF_clean_linker_0, # of connection points: 3
#     Node 11, Type 0, BuildingBlock: MIDCAF_clean_linker_0, # of connection points: 3
#     Node 12, Type 0, BuildingBlock: MIDCAF_clean_linker_0, # of connection points: 3
#     Node 13, Type 0, BuildingBlock: MIDCAF_clean_linker_0, # of connection points: 3
#     Node 14, Type 0, BuildingBlock: MIDCAF_clean_linker_0, # of connection points: 3
#     Node 15, Type 0, BuildingBlock: MIDCAF_clean_linker_0, # of connection points: 3
#     Node 16, Type 0, BuildingBlock: MIDCAF_clean_linker_0, # of connection points: 3
#     Node 17, Type 0, BuildingBlock: MIDCAF_clean_linker_0, # of connection points: 3
#     Node 18, Type 1, BuildingBlock: CIFDUS_clean_sbu_1, # of connection points: 6
#     Node 19, Type 1, BuildingBlock: CIFDUS_clean_sbu_1, # of connection points: 6
#     Node 20, Type 1, BuildingBlock: CIFDUS_clean_sbu_1, # of connection points: 6
#     Node 21, Type 1, BuildingBlock: CIFDUS_clean_sbu_1, # of connection points: 6
#     Node 22, Type 1, BuildingBlock: CIFDUS_clean_sbu_1, # of connection points: 6
#     Node 23, Type 1, BuildingBlock: CIFDUS_clean_sbu_1, # of connection points: 6
#     Node 24, Type 1, BuildingBlock: CIFDUS_clean_sbu_1, # of connection points: 6
#     Node 25, Type 1, BuildingBlock: CIFDUS_clean_sbu_1, # of connection points: 6
#     Node 26, Type 1, BuildingBlock: CIFDUS_clean_sbu_1, # of connection points: 6
#     Edge 27, Type (0, 1), BuildingBlock: UVAHIK_clean_linker_0, # of connection points: 2
#     Edge 28, Type (0, 1), BuildingBlock: UVAHIK_clean_linker_0, # of connection points: 2
#     Edge 29, Type (0, 1), BuildingBlock: UVAHIK_clean_linker_0, # of connection points: 2
#     Edge 30, Type (0, 1), BuildingBlock: UVAHIK_clean_linker_0, # of connection points: 2
#     Edge 31, Type (0, 1), BuildingBlock: UVAHIK_clean_linker_0, # of connection points: 2
#     Edge 32, Type (0, 1), BuildingBlock: UVAHIK_clean_linker_0, # of connection points: 2
#     Edge 33, Type (0, 1), BuildingBlock: UVAHIK_clean_linker_0, # of connection points: 2
#     Edge 34, Type (0, 1), BuildingBlock: UVAHIK_clean_linker_0, # of connection points: 2
#     Edge 35, Type (0, 1), BuildingBlock: UVAHIK_clean_linker_0, # of connection points: 2
#     Edge 36, Type (0, 1), BuildingBlock: UVAHIK_clean_linker_0, # of connection points: 2
#     Edge 37, Type (0, 1), BuildingBlock: UVAHIK_clean_linker_0, # of connection points: 2
#     Edge 38, Type (0, 1), BuildingBlock: UVAHIK_clean_linker_0, # of connection points: 2
#     Edge 39, Type (0, 1), BuildingBlock: UVAHIK_clean_linker_0, # of connection points: 2
#     Edge 40, Type (0, 1), BuildingBlock: UVAHIK_clean_linker_0, # of connection points: 2
#     Edge 41, Type (0, 1), BuildingBlock: UVAHIK_clean_linker_0, # of connection points: 2
#     Edge 42, Type (0, 1), BuildingBlock: UVAHIK_clean_linker_0, # of connection points: 2
#     Edge 43, Type (0, 1), BuildingBlock: UVAHIK_clean_linker_0, # of connection points: 2
#     Edge 44, Type (0, 1), BuildingBlock: UVAHIK_clean_linker_0, # of connection points: 2
#     Edge 45, Type (0, 1), BuildingBlock: UVAHIK_clean_linker_0, # of connection points: 2
#     Edge 46, Type (0, 1), BuildingBlock: UVAHIK_clean_linker_0, # of connection points: 2
#     Edge 47, Type (0, 1), BuildingBlock: UVAHIK_clean_linker_0, # of connection points: 2
#     Edge 48, Type (0, 1), BuildingBlock: UVAHIK_clean_linker_0, # of connection points: 2
#     Edge 49, Type (0, 1), BuildingBlock: UVAHIK_clean_linker_0, # of connection points: 2
#     Edge 50, Type (0, 1), BuildingBlock: UVAHIK_clean_linker_0, # of connection points: 2
#     Edge 51, Type (0, 1), BuildingBlock: UVAHIK_clean_linker_0, # of connection points: 2
#     Edge 52, Type (0, 1), BuildingBlock: UVAHIK_clean_linker_0, # of connection points: 2
#     Edge 53, Type (0, 1), BuildingBlock: UVAHIK_clean_linker_0, # of connection points: 2
#     Edge 54, Type (0, 1), BuildingBlock: UVAHIK_clean_linker_0, # of connection points: 2
#     Edge 55, Type (0, 1), BuildingBlock: UVAHIK_clean_linker_0, # of connection points: 2
#     Edge 56, Type (0, 1), BuildingBlock: UVAHIK_clean_linker_0, # of connection points: 2
#     Edge 57, Type (0, 1), BuildingBlock: UVAHIK_clean_linker_0, # of connection points: 2
#     Edge 58, Type (0, 1), BuildingBlock: UVAHIK_clean_linker_0, # of connection points: 2
#     Edge 59, Type (0, 1), BuildingBlock: UVAHIK_clean_linker_0, # of connection points: 2
#     Edge 60, Type (0, 1), BuildingBlock: UVAHIK_clean_linker_0, # of connection points: 2
#     Edge 61, Type (0, 1), BuildingBlock: UVAHIK_clean_linker_0, # of connection points: 2
#     Edge 62, Type (0, 1), BuildingBlock: UVAHIK_clean_linker_0, # of connection points: 2
#     Edge 63, Type (0, 1), BuildingBlock: UVAHIK_clean_linker_0, # of connection points: 2
#     Edge 64, Type (0, 1), BuildingBlock: UVAHIK_clean_linker_0, # of connection points: 2
#     Edge 65, Type (0, 1), BuildingBlock: UVAHIK_clean_linker_0, # of connection points: 2
#     Edge 66, Type (0, 1), BuildingBlock: UVAHIK_clean_linker_0, # of connection points: 2
#     Edge 67, Type (0, 1), BuildingBlock: UVAHIK_clean_linker_0, # of connection points: 2
#     Edge 68, Type (0, 1), BuildingBlock: UVAHIK_clean_linker_0, # of connection points: 2
#     Edge 69, Type (0, 1), BuildingBlock: UVAHIK_clean_linker_0, # of connection points: 2
#     Edge 70, Type (0, 1), BuildingBlock: UVAHIK_clean_linker_0, # of connection points: 2
#     Edge 71, Type (0, 1), BuildingBlock: UVAHIK_clean_linker_0, # of connection points: 2
#     Edge 72, Type (0, 1), BuildingBlock: UVAHIK_clean_linker_0, # of connection points: 2
#     Edge 73, Type (0, 1), BuildingBlock: UVAHIK_clean_linker_0, # of connection points: 2
#     Edge 74, Type (0, 1), BuildingBlock: UVAHIK_clean_linker_0, # of connection points: 2
#     Edge 75, Type (0, 1), BuildingBlock: UVAHIK_clean_linker_0, # of connection points: 2
#     Edge 76, Type (0, 1), BuildingBlock: UVAHIK_clean_linker_0, # of connection points: 2
#     Edge 77, Type (0, 1), BuildingBlock: UVAHIK_clean_linker_0, # of connection points: 2
#     Edge 78, Type (0, 1), BuildingBlock: UVAHIK_clean_linker_0, # of connection points: 2
#     Edge 79, Type (0, 1), BuildingBlock: UVAHIK_clean_linker_0, # of connection points: 2
#     Edge 80, Type (0, 1), BuildingBlock: UVAHIK_clean_linker_0, # of connection points: 2
# Relax obj value: 0.100
# Max RMSD: 0.184
# Mean RMSD: 0.094
data_MOF--net-eea--node1-CIFDUS_clean_sbu_1--node2-MIDCAF_clean_linker_0--edge1-UVAHIK_clean_linker_0
_symmetry_space_group_name_H-M    P1
_symmetry_Int_Tables_number       1
_symmetry_cell_setting            triclinic
loop_
_symmetry_equiv_pos_as_xyz
'x, y, z'
_cell_length_a     81.759338
_cell_length_b     80.951642
_cell_length_c     83.217356
_cell_angle_alpha  90.140561
_cell_angle_beta   90.179911
_cell_angle_gamma 119.99857
loop_
_atom_site_label
_atom_site_type_symbol
_atom_site_fract_x
_atom_site_fract_y
_atom_site_fract_z
_atom_type_partial_charge
C0 C 0.17784 0.02935 0.41647 0.0
C1 C 0.17031 0.02613 0.40085 0.0
C2 C 0.16868 0.04069 0.39314 0.0
C3 C 0.17468 0.05822 0.40087 0.0
H4 H 0.16682 0.10654 0.40385 0.0
H5 H 0.15826 0.13003 0.39541 0.0
H6 H 0.19723 0.17008 0.43031 0.0
H7 H 0.20544 0.14653 0.43905 0.0
H8 H 0.21417 0.12504 0.47062 0.0
H9 H 0.2317 0.1285 0.49527 0.0
H10 H 0.24895 0.08972 0.47646 0.0
H11 H 0.23065 0.08559 0.45218 0.0
H12 H 0.18991 0.04879 0.43608 0.0
H13 H 0.17954 0.01855 0.42265 0.0
H14 H 0.16285 0.03855 0.38111 0.0
H15 H 0.17346 0.06926 0.39459 0.0
N16 N 0.18532 0.09332 0.41952 0.0
N17 N 0.20368 0.11406 0.44036 0.0
N18 N 0.20182 0.08444 0.4373 0.0
C19 C 0.19208 0.11029 0.42742 0.0
C20 C 0.20868 0.10121 0.44528 0.0
C21 C 0.19011 0.08029 0.42449 0.0
C22 C 0.18683 0.12457 0.42215 0.0
C23 C 0.17356 0.12033 0.40976 0.0
C24 C 0.1687 0.13386 0.40485 0.0
C25 C 0.17703 0.15198 0.41218 0.0
C26 C 0.19028 0.15619 0.42457 0.0
C27 C 0.19509 0.14267 0.42951 0.0
C28 C 0.22088 0.10492 0.45953 0.0
C29 C 0.22185 0.1174 0.47171 0.0
C30 C 0.23201 0.11944 0.48583 0.0
C31 C 0.2417 0.10929 0.48797 0.0
C32 C 0.24132 0.09741 0.47544 0.0
C33 C 0.23091 0.09514 0.46146 0.0
C34 C 0.18265 0.06155 0.41636 0.0
C35 C 0.18397 0.04683 0.4241 0.0
C36 C 0.94043 0.15975 0.41585 0.0
C37 C 0.9525 0.15786 0.40491 0.0
C38 C 0.94821 0.1394 0.4002 0.0
C39 C 0.93251 0.12328 0.40651 0.0
H40 H 0.89847 0.05998 0.40512 0.0
H41 H 0.88286 0.02781 0.3935 0.0
H42 H 0.83014 0.01673 0.41484 0.0
H43 H 0.84589 0.04809 0.42699 0.0
H44 H 0.86759 0.06696 0.46948 0.0
H45 H 0.85479 0.06881 0.49546 0.0
H46 H 0.86911 0.12679 0.48553 0.0
H47 H 0.88245 0.1252 0.45955 0.0
H48 H 0.91609 0.1457 0.43084 0.0
H49 H 0.94297 0.17369 0.41948 0.0
H50 H 0.95727 0.13733 0.39198 0.0
H51 H 0.92982 0.10929 0.40285 0.0
N52 N 0.89733 0.0908 0.4181 0.0
N53 N 0.87589 0.07728 0.43931 0.0
N54 N 0.89775 0.10999 0.43957 0.0
C55 C 0.88265 0.07531 0.42502 0.0
C56 C 0.88338 0.09447 0.4467 0.0
C57 C 0.90488 0.10826 0.4253 0.0
C58 C 0.87344 0.05643 0.41709 0.0
C59 C 0.88355 0.05055 0.40729 0.0
C60 C 0.87458 0.03214 0.40062 0.0
C61 C 0.85525 0.01943 0.40342 0.0
C62 C 0.84515 0.02572 0.41285 0.0
C63 C 0.85416 0.04385 0.41972 0.0
C64 C 0.876 0.09595 0.46249 0.0
C65 C 0.86806 0.08014 0.47282 0.0
C66 C 0.86081 0.08118 0.4877 0.0
C67 C 0.86098 0.0979 0.49238 0.0
C68 C 0.8688 0.11372 0.48208 0.0
C69 C 0.87649 0.11283 0.46731 0.0
C70 C 0.92087 0.12524 0.41784 0.0
C71 C 0.92492 0.14366 0.42232 0.0
C72 C 0.80812 0.73154 0.38462 0.0
C73 C 0.81323 0.74744 0.37472 0.0
C74 C 0.83252 0.75987 0.37158 0.0
C75 C 0.84635 0.75735 0.3793 0.0
H76 H 0.89546 0.74112 0.37784 0.0
H77 H 0.92687 0.74908 0.3684 0.0
H78 H 0.95086 0.77559 0.41408 0.0
H79 H 0.91934 0.76717 0.42379 0.0
H80 H 0.88593 0.74204 0.45392 0.0
H81 H 0.87668 0.73579 0.48215 0.0
H82 H 0.82096 0.72533 0.46969 0.0
H83 H 0.82991 0.73116 0.44168 0.0
H84 H 0.81755 0.71763 0.40097 0.0
H85 H 0.79342 0.72133 0.3869 0.0
H86 H 0.83701 0.7723 0.36409 0.0
H87 H 0.8611 0.76782 0.37751 0.0
N88 N 0.87279 0.74747 0.39649 0.0
N89 N 0.88148 0.7453 0.42307 0.0
N90 N 0.85085 0.73907 0.4173 0.0
C91 C 0.88595 0.74865 0.4072 0.0
C92 C 0.86385 0.74045 0.42819 0.0
C93 C 0.85518 0.74259 0.40152 0.0
C94 C 0.90497 0.75354 0.40155 0.0
C95 C 0.90742 0.74863 0.38588 0.0
C96 C 0.92533 0.75309 0.38049 0.0
C97 C 0.94116 0.76293 0.39054 0.0
C98 C 0.9388 0.76803 0.40614 0.0
C99 C 0.92081 0.76315 0.41168 0.0
C100 C 0.85866 0.73699 0.44544 0.0
C101 C 0.87171 0.7384 0.4572 0.0
C102 C 0.86646 0.73496 0.47339 0.0
C103 C 0.84806 0.72999 0.47814 0.0
C104 C 0.83515 0.72884 0.46641 0.0
C105 C 0.84036 0.73227 0.4503 0.0
C106 C 0.84111 0.74258 0.39045 0.0
C107 C 0.82192 0.72931 0.39259 0.0
C108 C 0.06923 0.25832 0.60492 0.0
C109 C 0.05895 0.24615 0.61765 0.0
C110 C 0.06668 0.23642 0.62582 0.0
C111 C 0.08405 0.23855 0.62122 0.0
H112 H 0.1274 0.22985 0.63719 0.0
H113 H 0.14229 0.21498 0.65238 0.0
H114 H 0.18423 0.23087 0.61526 0.0
H115 H 0.16956 0.24555 0.60009 0.0
H116 H 0.17001 0.27162 0.57067 0.0
H117 H 0.18033 0.27865 0.54275 0.0
H118 H 0.12424 0.26535 0.52846 0.0
H119 H 0.11388 0.25852 0.55638 0.0
H120 H 0.09389 0.26958 0.59022 0.0
H121 H 0.06393 0.26634 0.59855 0.0
H122 H 0.05908 0.2267 0.6355 0.0
H123 H 0.08938 0.23056 0.62761 0.0
N124 N 0.1213 0.24562 0.61237 0.0
N125 N 0.14385 0.25288 0.59226 0.0
N126 N 0.11846 0.25802 0.5877 0.0
C127 C 0.13738 0.2463 0.60723 0.0
C128 C 0.13451 0.25873 0.58241 0.0
C129 C 0.11185 0.25161 0.60271 0.0
C130 C 0.14712 0.23872 0.61729 0.0
C131 C 0.13988 0.2303 0.63232 0.0
C132 C 0.1484 0.22182 0.64106 0.0
C133 C 0.1642 0.22151 0.63486 0.0
C134 C 0.17181 0.23053 0.62016 0.0
C135 C 0.16341 0.23904 0.6115 0.0
C136 C 0.14111 0.26447 0.56574 0.0
C137 C 0.1599 0.27033 0.5616 0.0
C138 C 0.16584 0.27441 0.54565 0.0
C139 C 0.15303 0.27239 0.53349 0.0
C140 C 0.13433 0.26683 0.53762 0.0
C141 C 0.12847 0.26307 0.55361 0.0
C142 C 0.09401 0.25027 0.6082 0.0
C143 C 0.08648 0.26025 0.60019 0.0
C144 C 0.82385 0.85268 0.58478 0.0
C145 C 0.83258 0.8551 0.59984 0.0
C146 C 0.83835 0.87218 0.60838 0.0
C147 C 0.83562 0.88659 0.60192 0.0
H148 H 0.84124 0.94127 0.61169 0.0
H149 H 0.84791 0.97094 0.62536 0.0
H150 H 0.83665 0.99145 0.58123 0.0
H151 H 0.83007 0.96232 0.56765 0.0
H152 H 0.82286 0.93756 0.53473 0.0
H153 H 0.80562 0.93416 0.50976 0.0
H154 H 0.76692 0.87513 0.52083 0.0
H155 H 0.78452 0.87833 0.54573 0.0
H156 H 0.81432 0.86458 0.56667 0.0
H157 H 0.81897 0.8396 0.578 0.0
H158 H 0.84527 0.87456 0.61996 0.0
H159 H 0.8404 0.8996 0.60876 0.0
N160 N 0.83083 0.91663 0.58732 0.0
N161 N 0.82084 0.92781 0.56561 0.0
N162 N 0.81609 0.89685 0.56489 0.0
C163 C 0.82897 0.93082 0.58034 0.0
C164 C 0.81434 0.91097 0.55785 0.0
C165 C 0.82452 0.89961 0.57956 0.0
C166 C 0.83486 0.94923 0.58862 0.0
C167 C 0.84038 0.9522 0.60489 0.0
C168 C 0.84422 0.96917 0.61271 0.0
C169 C 0.84249 0.98334 0.60439 0.0
C170 C 0.8377 0.98063 0.58803 0.0
C171 C 0.83398 0.96386 0.58025 0.0
C172 C 0.80498 0.90819 0.54212 0.0
C173 C 0.81083 0.92379 0.53173 0.0
C174 C 0.80103 0.92186 0.51746 0.0
C175 C 0.78498 0.90444 0.51352 0.0
C176 C 0.77927 0.88872 0.52373 0.0
C177 C 0.78936 0.89051 0.53786 0.0
C178 C 0.82701 0.88421 0.58677 0.0
C179 C 0.82108 0.86702 0.57834 0.0
C180 C 0.16198 0.96245 0.59736 0.0
C181 C 0.16122 0.96402 0.61409 0.0
C182 C 0.14917 0.94769 0.62303 0.0
C183 C 0.13818 0.93008 0.61533 0.0
H184 H 0.09038 0.87528 0.61998 0.0
H185 H 0.06267 0.84858 0.63203 0.0
H186 H 0.05104 0.81706 0.58748 0.0
H187 H 0.07888 0.84344 0.57555 0.0
H188 H 0.10241 0.86595 0.54328 0.0
H189 H 0.11143 0.86536 0.51548 0.0
H190 H 0.16739 0.91246 0.52565 0.0
H191 H 0.15812 0.91353 0.55314 0.0
H192 H 0.15237 0.94426 0.57679 0.0
H193 H 0.17133 0.97471 0.59018 0.0
H194 H 0.14828 0.94855 0.63596 0.0
H195 H 0.12914 0.91769 0.6225 0.0
N196 N 0.11356 0.89479 0.59729 0.0
N197 N 0.1087 0.87636 0.57399 0.0
N198 N 0.13353 0.90794 0.57514 0.0
C199 C 0.10354 0.87795 0.58921 0.0
C200 C 0.12379 0.8913 0.56694 0.0
C201 C 0.12854 0.90988 0.59024 0.0
C202 C 0.08691 0.86159 0.59676 0.0
C203 C 0.08197 0.86264 0.61276 0.0
C204 C 0.06601 0.84735 0.61967 0.0
C205 C 0.05461 0.83066 0.61074 0.0
C206 C 0.05966 0.82956 0.59481 0.0
C207 C 0.07561 0.84479 0.58791 0.0
C208 C 0.12948 0.88987 0.55038 0.0
C209 C 0.11665 0.8761 0.53957 0.0
C210 C 0.12187 0.87573 0.52364 0.0
C211 C 0.14013 0.88897 0.51823 0.0
C212 C 0.15308 0.90236 0.52923 0.0
C213 C 0.14779 0.90288 0.54506 0.0
C214 C 0.13931 0.92847 0.59859 0.0
C215 C 0.15122 0.9449 0.58971 0.0
C216 C 0.8556 0.36816 0.7536 0.0
C217 C 0.84399 0.36212 0.73989 0.0
C218 C 0.83964 0.37499 0.73232 0.0
C219 C 0.84699 0.3936 0.73826 0.0
H220 H 0.84285 0.44407 0.73599 0.0
H221 H 0.83277 0.46657 0.72769 0.0
H222 H 0.87057 0.50735 0.76275 0.0
H223 H 0.88088 0.48527 0.77081 0.0
H224 H 0.90534 0.47622 0.79309 0.0
H225 H 0.92826 0.48524 0.81473 0.0
H226 H 0.93381 0.43587 0.8046 0.0
H227 H 0.91037 0.42647 0.78323 0.0
H228 H 0.87212 0.39083 0.76992 0.0
H229 H 0.85946 0.35871 0.75958 0.0
H230 H 0.83064 0.37069 0.72176 0.0
H231 H 0.84356 0.40325 0.73207 0.0
N232 N 0.86148 0.43155 0.75295 0.0
N233 N 0.88401 0.45569 0.76965 0.0
N234 N 0.88226 0.42602 0.76849 0.0
C235 C 0.86958 0.44967 0.75891 0.0
C236 C 0.89049 0.44401 0.77445 0.0
C237 C 0.86777 0.41963 0.75779 0.0
C238 C 0.8628 0.46286 0.754 0.0
C239 C 0.84899 0.45783 0.74195 0.0
C240 C 0.84312 0.47067 0.73724 0.0
C241 C 0.85096 0.4888 0.74449 0.0
C242 C 0.86449 0.49364 0.75671 0.0
C243 C 0.87036 0.48089 0.76139 0.0
C244 C 0.90581 0.45048 0.78655 0.0
C245 C 0.91156 0.46737 0.79534 0.0
C246 C 0.92485 0.47263 0.8077 0.0
C247 C 0.93283 0.46123 0.81147 0.0
C248 C 0.92769 0.44479 0.8022 0.0
C249 C 0.91429 0.43945 0.78992 0.0
C250 C 0.859 0.39973 0.75176 0.0
C251 C 0.86304 0.3867 0.75944 0.0
C252 C 0.60628 0.49075 0.74439 0.0
C253 C 0.61831 0.48966 0.73291 0.0
C254 C 0.61515 0.47153 0.72834 0.0
C255 C 0.60059 0.455 0.73527 0.0
H256 H 0.56322 0.39595 0.72655 0.0
H257 H 0.54733 0.3648 0.71332 0.0
H258 H 0.51281 0.34032 0.75544 0.0
H259 H 0.52895 0.37097 0.76876 0.0
H260 H 0.53866 0.39726 0.80041 0.0
H261 H 0.52403 0.39865 0.82551 0.0
H262 H 0.5354 0.45531 0.81374 0.0
H263 H 0.55039 0.45412 0.78863 0.0
H264 H 0.58305 0.47568 0.76038 0.0
H265 H 0.60798 0.50439 0.74798 0.0
H266 H 0.62425 0.47009 0.71972 0.0
H267 H 0.5988 0.44132 0.73166 0.0
N268 N 0.56823 0.42121 0.74859 0.0
N269 N 0.54804 0.40695 0.77043 0.0
N270 N 0.56688 0.44019 0.76939 0.0
C271 C 0.55503 0.40522 0.75616 0.0
C272 C 0.55384 0.42429 0.77712 0.0
C273 C 0.57428 0.43876 0.75517 0.0
C274 C 0.54722 0.38609 0.74865 0.0
C275 C 0.55247 0.38384 0.73307 0.0
C276 C 0.54329 0.36599 0.72546 0.0
C277 C 0.52867 0.35004 0.73325 0.0
C278 C 0.52414 0.35216 0.74911 0.0
C279 C 0.53333 0.3699 0.75672 0.0
C280 C 0.54567 0.42559 0.79255 0.0
C281 C 0.53811 0.41005 0.80317 0.0
C282 C 0.5298 0.41084 0.81755 0.0
C283 C 0.52856 0.42704 0.82146 0.0
C284 C 0.5361 0.44261 0.81089 0.0
C285 C 0.54477 0.44197 0.79662 0.0
C286 C 0.58897 0.45618 0.74709 0.0
C287 C 0.59188 0.47424 0.75146 0.0
C288 C 0.50387 0.12258 0.72664 0.0
C289 C 0.51154 0.13132 0.71185 0.0
C290 C 0.52587 0.12889 0.70495 0.0
C291 C 0.53247 0.11804 0.71279 0.0
H292 H 0.57823 0.10896 0.71606 0.0
H293 H 0.60746 0.11022 0.70845 0.0
H294 H 0.59432 0.06271 0.7398 0.0
H295 H 0.56532 0.06189 0.74788 0.0
H296 H 0.53132 0.04963 0.77395 0.0
H297 H 0.51665 0.03499 0.79951 0.0
H298 H 0.49041 0.06982 0.80159 0.0
H299 H 0.50493 0.08445 0.7761 0.0
H300 H 0.50399 0.10522 0.74576 0.0
H301 H 0.49253 0.12382 0.73212 0.0
H302 H 0.53205 0.13549 0.69357 0.0
H303 H 0.54356 0.11646 0.70719 0.0
N304 N 0.54635 0.09641 0.73046 0.0
N305 N 0.54355 0.07646 0.752 0.0
N306 N 0.52273 0.08831 0.74971 0.0
C307 C 0.5525 0.08583 0.73837 0.0
C308 C 0.52864 0.07768 0.75775 0.0
C309 C 0.5314 0.09764 0.73604 0.0
C310 C 0.56947 0.08543 0.7327 0.0
C311 C 0.58146 0.09866 0.72125 0.0
C312 C 0.59822 0.0993 0.71679 0.0
C313 C 0.60334 0.08662 0.72355 0.0
C314 C 0.59101 0.07294 0.73458 0.0
C315 C 0.57432 0.07241 0.73916 0.0
C316 C 0.51935 0.06824 0.77297 0.0
C317 C 0.52238 0.05413 0.77982 0.0
C318 C 0.51389 0.04566 0.79439 0.0
C319 C 0.50242 0.05131 0.80251 0.0
C320 C 0.49929 0.06531 0.79564 0.0
C321 C 0.50756 0.0736 0.78099 0.0
C322 C 0.52473 0.1093 0.7276 0.0
C323 C 0.51036 0.11173 0.7344 0.0
C324 C 0.72873 0.56648 0.92817 0.0
C325 C 0.72356 0.5642 0.94446 0.0
C326 C 0.73617 0.56417 0.95596 0.0
C327 C 0.75335 0.56597 0.95126 0.0
H328 H 0.78988 0.54585 0.96399 0.0
H329 H 0.80696 0.5366 0.98268 0.0
H330 H 0.85756 0.56777 0.95451 0.0
H331 H 0.84054 0.57692 0.93568 0.0
H332 H 0.83507 0.58793 0.89873 0.0
H333 H 0.8457 0.5951 0.87087 0.0
H334 H 0.78925 0.5798 0.8559 0.0
H335 H 0.77858 0.57275 0.88366 0.0
H336 H 0.74942 0.56988 0.9108 0.0
H337 H 0.71926 0.56635 0.91898 0.0
H338 H 0.7328 0.5628 0.96863 0.0
H339 H 0.76264 0.56578 0.96048 0.0
N340 N 0.78674 0.56572 0.94085 0.0
N341 N 0.80959 0.57172 0.92127 0.0
N342 N 0.7828 0.57393 0.91472 0.0
C343 C 0.80328 0.56687 0.93658 0.0
C344 C 0.79938 0.5752 0.91025 0.0
C345 C 0.77648 0.56935 0.93005 0.0
C346 C 0.81386 0.56209 0.94832 0.0
C347 C 0.80469 0.55087 0.96183 0.0
C348 C 0.8144 0.54549 0.9725 0.0
C349 C 0.83354 0.55151 0.97003 0.0
C350 C 0.84283 0.56309 0.95675 0.0
C351 C 0.83306 0.56821 0.94593 0.0
C352 C 0.80597 0.57978 0.89343 0.0
C353 C 0.82492 0.58607 0.8895 0.0
C354 C 0.83103 0.59024 0.87358 0.0
C355 C 0.81826 0.58788 0.86125 0.0
C356 C 0.79934 0.58152 0.86516 0.0
C357 C 0.79328 0.57763 0.88108 0.0
C358 C 0.75843 0.56798 0.93496 0.0
C359 C 0.746 0.5684 0.92347 0.0
C360 C 0.48559 0.18691 0.90682 0.0
C361 C 0.49185 0.18666 0.9225 0.0
C362 C 0.49694 0.20247 0.93261 0.0
C363 C 0.4959 0.21825 0.9271 0.0
H364 H 0.51133 0.27633 0.93819 0.0
H365 H 0.5238 0.30707 0.95207 0.0
H366 H 0.51434 0.33132 0.90926 0.0
H367 H 0.50258 0.30124 0.89543 0.0
H368 H 0.48055 0.27682 0.8666 0.0
H369 H 0.46037 0.2746 0.84415 0.0
H370 H 0.42644 0.21381 0.8512 0.0
H371 H 0.44675 0.21592 0.87375 0.0
H372 H 0.47937 0.20219 0.88923 0.0
H373 H 0.4814 0.17486 0.89882 0.0
H374 H 0.50191 0.2027 0.94473 0.0
H375 H 0.49996 0.23021 0.93517 0.0
N376 N 0.49729 0.25219 0.91329 0.0
N377 N 0.48615 0.26527 0.89402 0.0
N378 N 0.47781 0.23319 0.89206 0.0
C379 C 0.49638 0.26742 0.90749 0.0
C380 C 0.47679 0.24831 0.88627 0.0
C381 C 0.48815 0.23503 0.9055 0.0
C382 C 0.50577 0.28622 0.91575 0.0
C383 C 0.51224 0.28835 0.93171 0.0
C384 C 0.51926 0.30591 0.93968 0.0
C385 C 0.52006 0.32169 0.9318 0.0
C386 C 0.51425 0.31964 0.91567 0.0
C387 C 0.50726 0.30222 0.90777 0.0
C388 C 0.46522 0.24653 0.87198 0.0
C389 C 0.46885 0.26293 0.86335 0.0
C390 C 0.45736 0.26169 0.85045 0.0
C391 C 0.44183 0.24407 0.84602 0.0
C392 C 0.43825 0.2276 0.8545 0.0
C393 C 0.44995 0.22879 0.86729 0.0
C394 C 0.48948 0.21844 0.91144 0.0
C395 C 0.48431 0.20255 0.90138 0.0
C396 C 0.81029 0.31933 0.9249 0.0
C397 C 0.80784 0.32255 0.94106 0.0
C398 C 0.79478 0.30712 0.9504 0.0
C399 C 0.78483 0.28874 0.9438 0.0
H400 H 0.73166 0.23458 0.94379 0.0
H401 H 0.70402 0.2078 0.9561 0.0
H402 H 0.71618 0.16834 0.93125 0.0
H403 H 0.74367 0.19498 0.91881 0.0
H404 H 0.76101 0.21471 0.88003 0.0
H405 H 0.77291 0.211 0.8543 0.0
H406 H 0.82507 0.2639 0.86255 0.0
H407 H 0.81284 0.26797 0.88791 0.0
H408 H 0.80314 0.29903 0.90595 0.0
H409 H 0.82041 0.33085 0.91744 0.0
H410 H 0.79252 0.30922 0.96288 0.0
H411 H 0.77521 0.27707 0.95139 0.0
N412 N 0.76406 0.25102 0.92849 0.0
N413 N 0.76333 0.23004 0.90855 0.0
N414 N 0.78591 0.26253 0.90743 0.0
C415 C 0.75618 0.23306 0.92228 0.0
C416 C 0.77823 0.24475 0.90108 0.0
C417 C 0.77894 0.26584 0.92107 0.0
C418 C 0.73984 0.21692 0.93026 0.0
C419 C 0.72851 0.2202 0.94102 0.0
C420 C 0.71265 0.20489 0.94802 0.0
C421 C 0.708 0.18602 0.94463 0.0
C422 C 0.71954 0.18275 0.93417 0.0
C423 C 0.7352 0.19802 0.92697 0.0
C424 C 0.7859 0.2417 0.88597 0.0
C425 C 0.77506 0.22549 0.87639 0.0
C426 C 0.78195 0.22333 0.86164 0.0
C427 C 0.79996 0.23721 0.85625 0.0
C428 C 0.81099 0.25314 0.8661 0.0
C429 C 0.804 0.25541 0.88073 0.0
C430 C 0.78793 0.28542 0.92781 0.0
C431 C 0.80051 0.301 0.91836 0.0
C432 C 0.49509 0.68777 0.08491 0.0
C433 C 0.48972 0.68497 0.06865 0.0
C434 C 0.4891 0.69975 0.06028 0.0
C435 C 0.49408 0.71708 0.068 0.0
H436 H 0.48356 0.76543 0.07129 0.0
H437 H 0.47626 0.78977 0.06243 0.0
H438 H 0.51899 0.83054 0.09469 0.0
H439 H 0.52584 0.80626 0.10385 0.0
H440 H 0.53209 0.7868 0.13657 0.0
H441 H 0.54916 0.79167 0.16174 0.0
H442 H 0.55893 0.74535 0.14966 0.0
H443 H 0.54125 0.74001 0.1248 0.0
H444 H 0.50453 0.70666 0.10502 0.0
H445 H 0.49599 0.67682 0.09166 0.0
H446 H 0.48491 0.69796 0.04775 0.0
H447 H 0.49379 0.72833 0.0612 0.0
N448 N 0.50291 0.75203 0.08649 0.0
N449 N 0.51993 0.77247 0.10795 0.0
N450 N 0.5174 0.7425 0.10587 0.0
C451 C 0.50945 0.76903 0.09433 0.0
C452 C 0.524 0.7593 0.11376 0.0
C453 C 0.50685 0.73866 0.0923 0.0
C454 C 0.50522 0.7838 0.08836 0.0
C455 C 0.49139 0.77959 0.07648 0.0
C456 C 0.48724 0.79359 0.07137 0.0
C457 C 0.49691 0.81214 0.07793 0.0
C458 C 0.5109 0.81634 0.08963 0.0
C459 C 0.51494 0.80237 0.09481 0.0
C460 C 0.5352 0.76295 0.1287 0.0
C461 C 0.53794 0.7777 0.13925 0.0
C462 C 0.54784 0.78056 0.15367 0.0
C463 C 0.55542 0.76888 0.15778 0.0
C464 C 0.55299 0.75438 0.14705 0.0
C465 C 0.54292 0.75138 0.13273 0.0
C466 C 0.5 0.72001 0.08415 0.0
C467 C 0.50018 0.70503 0.09253 0.0
C468 C 0.28471 0.80523 0.08199 0.0
C469 C 0.29101 0.80319 0.06683 0.0
C470 C 0.28172 0.78529 0.05917 0.0
C471 C 0.26669 0.76963 0.06673 0.0
H472 H 0.23439 0.70946 0.06567 0.0
H473 H 0.21957 0.67691 0.05513 0.0
H474 H 0.18256 0.65698 0.09625 0.0
H475 H 0.19758 0.68903 0.10695 0.0
H476 H 0.20459 0.71781 0.13585 0.0
H477 H 0.18967 0.72254 0.15943 0.0
H478 H 0.2064 0.7795 0.14353 0.0
H479 H 0.22165 0.77497 0.11999 0.0
H480 H 0.26527 0.79184 0.10119 0.0
H481 H 0.29145 0.81892 0.08809 0.0
H482 H 0.28634 0.78332 0.0475 0.0
H483 H 0.25997 0.75596 0.06061 0.0
N484 N 0.23858 0.73695 0.085 0.0
N485 N 0.21707 0.72502 0.10631 0.0
N486 N 0.237 0.75796 0.10364 0.0
C487 C 0.22464 0.72182 0.09298 0.0
C488 C 0.22309 0.74298 0.11168 0.0
C489 C 0.24491 0.75508 0.09033 0.0
C490 C 0.21706 0.70198 0.08708 0.0
C491 C 0.22328 0.69807 0.07256 0.0
C492 C 0.21474 0.67941 0.06649 0.0
C493 C 0.1998 0.66428 0.0748 0.0
C494 C 0.19419 0.66814 0.08962 0.0
C495 C 0.20273 0.68668 0.09569 0.0
C496 C 0.21433 0.74604 0.12607 0.0
C497 C 0.20512 0.73136 0.13736 0.0
C498 C 0.19663 0.73405 0.15088 0.0
C499 C 0.19687 0.75134 0.15322 0.0
C500 C 0.20593 0.76599 0.14191 0.0
C501 C 0.21475 0.76343 0.12852 0.0
C502 C 0.26051 0.77164 0.082 0.0
C503 C 0.26961 0.78969 0.08944 0.0
C504 C 0.18021 0.47341 0.06753 0.0
C505 C 0.18173 0.47338 0.05072 0.0
C506 C 0.19177 0.46538 0.04369 0.0
C507 C 0.20026 0.45765 0.0533 0.0
H508 H 0.25236 0.46005 0.05728 0.0
H509 H 0.28011 0.46015 0.04673 0.0
H510 H 0.27614 0.42143 0.08408 0.0
H511 H 0.24823 0.42132 0.09484 0.0
H512 H 0.23022 0.43292 0.12964 0.0
H513 H 0.21957 0.42278 0.15693 0.0
H514 H 0.16416 0.41324 0.14415 0.0
H515 H 0.17522 0.4244 0.11704 0.0
H516 H 0.18697 0.4655 0.09007 0.0
H517 H 0.17235 0.47933 0.07319 0.0
H518 H 0.1931 0.4652 0.03075 0.0
H519 H 0.20796 0.45162 0.04752 0.0
N520 N 0.22262 0.44826 0.0744 0.0
N521 N 0.22525 0.43508 0.09863 0.0
N522 N 0.20156 0.44318 0.09535 0.0
C523 C 0.23149 0.44119 0.08349 0.0
C524 C 0.21024 0.43599 0.10462 0.0
C525 C 0.20771 0.44933 0.0802 0.0
C526 C 0.24809 0.44072 0.07697 0.0
C527 C 0.25728 0.45147 0.06326 0.0
C528 C 0.27324 0.45162 0.05723 0.0
C529 C 0.28026 0.44086 0.06463 0.0
C530 C 0.27092 0.42978 0.07812 0.0
C531 C 0.25504 0.42982 0.08432 0.0
C532 C 0.20357 0.42945 0.12116 0.0
C533 C 0.21576 0.42865 0.13265 0.0
C534 C 0.20957 0.42269 0.14832 0.0
C535 C 0.19091 0.41702 0.15284 0.0
C536 C 0.1787 0.41778 0.14126 0.0
C537 C 0.18501 0.42407 0.12566 0.0
C538 C 0.19857 0.45744 0.07012 0.0
C539 C 0.18841 0.46535 0.07715 0.0
C540 C 0.4059 0.92488 0.26707 0.0
C541 C 0.3982 0.9136 0.28081 0.0
C542 C 0.40865 0.90675 0.28897 0.0
C543 C 0.42663 0.91133 0.28361 0.0
H544 H 0.47819 0.91592 0.29909 0.0
H545 H 0.50147 0.91335 0.31586 0.0
H546 H 0.54444 0.94489 0.28048 0.0
H547 H 0.52156 0.94775 0.264 0.0
H548 H 0.51103 0.95863 0.23073 0.0
H549 H 0.51988 0.96535 0.2025 0.0
H550 H 0.46113 0.93323 0.18865 0.0
H551 H 0.45214 0.92666 0.21695 0.0
H552 H 0.42923 0.93788 0.2509 0.0
H553 H 0.39804 0.9302 0.2605 0.0
H554 H 0.403 0.89806 0.29962 0.0
H555 H 0.43443 0.90595 0.2902 0.0
N556 N 0.46619 0.92725 0.27434 0.0
N557 N 0.48842 0.93734 0.25359 0.0
N558 N 0.45812 0.93239 0.24842 0.0
C559 C 0.48384 0.93231 0.26917 0.0
C560 C 0.47567 0.93732 0.24313 0.0
C561 C 0.45332 0.92743 0.26404 0.0
C562 C 0.49796 0.9319 0.28013 0.0
C563 C 0.49267 0.92253 0.29502 0.0
C564 C 0.50597 0.92098 0.3046 0.0
C565 C 0.5248 0.92895 0.29952 0.0
C566 C 0.53014 0.93885 0.28489 0.0
C567 C 0.51691 0.9403 0.27533 0.0
C568 C 0.48087 0.94211 0.22607 0.0
C569 C 0.49997 0.95305 0.22168 0.0
C570 C 0.50506 0.95696 0.20555 0.0
C571 C 0.49119 0.94972 0.19345 0.0
C572 C 0.47209 0.93883 0.19778 0.0
C573 C 0.46696 0.93521 0.21396 0.0
C574 C 0.43431 0.92252 0.26979 0.0
C575 C 0.4237 0.92916 0.26154 0.0
C576 C 0.14547 0.51303 0.25595 0.0
C577 C 0.16087 0.51914 0.26652 0.0
C578 C 0.17024 0.53821 0.27187 0.0
C579 C 0.16437 0.55089 0.26668 0.0
H580 H 0.16689 0.6062 0.27621 0.0
H581 H 0.17886 0.63938 0.28462 0.0
H582 H 0.15888 0.65031 0.24 0.0
H583 H 0.14667 0.61744 0.23184 0.0
H584 H 0.10425 0.58226 0.22315 0.0
H585 H 0.08016 0.57214 0.20234 0.0
H586 H 0.07963 0.51871 0.19767 0.0
H587 H 0.10346 0.52861 0.21875 0.0
H588 H 0.12763 0.52026 0.24266 0.0
H589 H 0.1377 0.49836 0.25184 0.0
H590 H 0.18223 0.5434 0.27995 0.0
H591 H 0.17194 0.56549 0.27096 0.0
N592 N 0.15169 0.57669 0.25487 0.0
N593 N 0.13107 0.5818 0.23873 0.0
N594 N 0.12773 0.55146 0.2399 0.0
C595 C 0.14596 0.58868 0.24901 0.0
C596 C 0.12182 0.56326 0.23416 0.0
C597 C 0.14262 0.55798 0.25027 0.0
C598 C 0.15553 0.60911 0.25351 0.0
C599 C 0.1653 0.6158 0.26816 0.0
C600 C 0.17219 0.63479 0.27294 0.0
C601 C 0.1695 0.64737 0.26309 0.0
C602 C 0.16074 0.64087 0.24805 0.0
C603 C 0.15377 0.622 0.24336 0.0
C604 C 0.10599 0.55635 0.2225 0.0
C605 C 0.09891 0.56827 0.21781 0.0
C606 C 0.08511 0.56251 0.20584 0.0
C607 C 0.07811 0.54471 0.19825 0.0
C608 C 0.0846 0.53244 0.20339 0.0
C609 C 0.09837 0.53818 0.21542 0.0
C610 C 0.14895 0.54473 0.25606 0.0
C611 C 0.1396 0.52562 0.25079 0.0
C612 C 0.49513 0.63448 0.26369 0.0
C613 C 0.49183 0.63797 0.27953 0.0
C614 C 0.47847 0.62266 0.2888 0.0
C615 C 0.46871 0.60419 0.28232 0.0
H616 H 0.42435 0.54778 0.28992 0.0
H617 H 0.39668 0.52134 0.30233 0.0
H618 H 0.38729 0.4873 0.25955 0.0
H619 H 0.41508 0.51337 0.24735 0.0
H620 H 0.43984 0.53347 0.2153 0.0
H621 H 0.44976 0.53175 0.18806 0.0
H622 H 0.50469 0.58067 0.19788 0.0
H623 H 0.49452 0.58282 0.2248 0.0
H624 H 0.48866 0.61408 0.24504 0.0
H625 H 0.50557 0.64588 0.25633 0.0
H626 H 0.47561 0.62497 0.30105 0.0
H627 H 0.45859 0.59265 0.28975 0.0
N628 N 0.44764 0.56647 0.26684 0.0
N629 N 0.44473 0.54622 0.24536 0.0
N630 N 0.46859 0.57823 0.24519 0.0
C631 C 0.43862 0.54886 0.25983 0.0
C632 C 0.45982 0.56085 0.23805 0.0
C633 C 0.46263 0.58125 0.25949 0.0
C634 C 0.42199 0.53277 0.26761 0.0
C635 C 0.41643 0.53463 0.28319 0.0
C636 C 0.40051 0.51949 0.29028 0.0
C637 C 0.38975 0.50216 0.28196 0.0
C638 C 0.39541 0.50029 0.26645 0.0
C639 C 0.41133 0.51536 0.25939 0.0
C640 C 0.46631 0.55839 0.22214 0.0
C641 C 0.45408 0.54373 0.21167 0.0
C642 C 0.45981 0.54272 0.19606 0.0
C643 C 0.47799 0.5562 0.19069 0.0
C644 C 0.49044 0.57035 0.20145 0.0
C645 C 0.48464 0.57151 0.21694 0.0
C646 C 0.4723 0.6007 0.26652 0.0
C647 C 0.48553 0.61612 0.25728 0.0
O648 O 0.46545 0.9753 0.00312 0.0
Mn649 Mn 0.49303 0.99559 0.9967 0.0
O650 O 0.45541 0.99005 0.02019 0.0
Mn651 Mn 0.4782 0.01285 0.02242 0.0
O652 O 0.52048 0.01593 0.99035 0.0
O653 O 0.49801 0.97482 0.99016 0.0
Mn654 Mn 0.50793 0.97837 0.97093 0.0
O655 O 0.48354 0.99679 0.97347 0.0
O656 O 0.53 0.00205 0.97197 0.0
O657 O 0.50246 0.99414 0.01977 0.0
O658 O 0.49554 0.01187 0.03622 0.0
O659 O 0.50758 0.95696 0.97944 0.0
O660 O 0.4892 0.97747 0.95778 0.0
C661 C 0.48783 0.03216 0.00235 0.0
C662 C 0.45265 0.97545 0.01201 0.0
C663 C 0.53288 0.01634 0.98063 0.0
C664 C 0.50055 0.96051 0.99199 0.0
C665 C 0.48179 0.98788 0.96015 0.0
C666 C 0.50331 0.00185 0.0335 0.0
O667 O 0.48845 0.01664 0.0033 0.0
O668 O 0.48102 0.03578 0.015 0.0
O669 O 0.02865 0.50274 0.00195 0.0
Mn670 Mn 0.00495 0.50572 0.00507 0.0
O671 O 0.02033 0.47228 0.00703 0.0
Mn672 Mn 0.99763 0.46607 0.01686 0.0
O673 O 0.98145 0.5094 0.00822 0.0
O674 O 0.02211 0.53385 0.0043 0.0
Mn675 Mn 0.01315 0.54548 0.99247 0.0
O676 O 0.00164 0.50489 0.98034 0.0
O677 O 0.99153 0.54049 0.00345 0.0
O678 O 0.00791 0.50608 0.03001 0.0
O679 O -0.00047 0.47604 0.03735 0.0
O680 O 0.03749 0.56372 0.99879 0.0
O681 O 0.00931 0.53436 0.97214 0.0
C682 C 0.97368 0.46102 0.00242 0.0
C683 C 0.03228 0.48903 0.00229 0.0
C684 C 0.97903 0.52399 0.00829 0.0
C685 C 0.03784 0.54956 0.0056 0.0
C686 C 0.00416 0.51691 0.96925 0.0
C687 C 0.00455 0.49336 0.04075 0.0
O688 O 0.98808 0.47745 0.00541 0.0
O689 O 0.97464 0.44699 0.00881 0.0
O690 O 0.52674 0.51247 0.99374 0.0
Mn691 Mn 0.49892 0.49797 0.00128 0.0
O692 O 0.52775 0.52893 0.97155 0.0
Mn693 Mn 0.50193 0.52055 0.97005 0.0
O694 O 0.47097 0.48327 0.00884 0.0
O695 O 0.50392 0.47911 0.01254 0.0
Mn696 Mn 0.49603 0.47548 0.03249 0.0
O697 O 0.50608 0.51516 0.02191 0.0
O698 O 0.47018 0.46646 0.03075 0.0
O699 O 0.49157 0.48077 0.98057 0.0
O700 O 0.48748 0.49695 0.96047 0.0
O701 O 0.50632 0.45989 0.02911 0.0
O702 O 0.50975 0.49907 0.04229 0.0
C703 C 0.49003 0.53031 0.98826 0.0
C704 C 0.53573 0.52379 0.98211 0.0
C705 C 0.46207 0.47161 0.02033 0.0
C706 C 0.50927 0.46679 0.01474 0.0
C707 C 0.51086 0.51412 0.03645 0.0
C708 C 0.48634 0.48183 0.96618 0.0
O709 O 0.49421 0.51707 0.99007 0.0
O710 O 0.49278 0.53708 0.97386 0.0
O711 O 0.13927 0.31978 0.34844 0.0
Mn712 Mn 0.16728 0.3358 0.34129 0.0
O713 O 0.13614 0.33506 0.36991 0.0
Mn714 Mn 0.16095 0.35541 0.37114 0.0
O715 O 0.19534 0.35171 0.33423 0.0
O716 O 0.16545 0.31266 0.33131 0.0
Mn717 Mn 0.17396 0.31609 0.3116 0.0
O718 O 0.15908 0.34288 0.31969 0.0
O719 O 0.19905 0.33565 0.31363 0.0
O720 O 0.17561 0.32876 0.36286 0.0
O721 O 0.17748 0.34969 0.38169 0.0
O722 O 0.16732 0.29126 0.31754 0.0
O723 O 0.15843 0.32283 0.30052 0.0
C724 C 0.17049 0.37544 0.3514 0.0
C725 C 0.12944 0.32117 0.35985 0.0
C726 C 0.20554 0.34969 0.32353 0.0
C727 C 0.16337 0.2959 0.33125 0.0
C728 C 0.15542 0.33608 0.30528 0.0
C729 C 0.18014 0.33619 0.37702 0.0
O730 O 0.16895 0.3589 0.35126 0.0
O731 O 0.1665 0.37991 0.36517 0.0
O732 O 0.68333 0.82567 0.34149 0.0
Mn733 Mn 0.67017 0.84151 0.33734 0.0
O734 O 0.67062 0.80968 0.36455 0.0
Mn735 Mn 0.65311 0.81766 0.36853 0.0
O736 O 0.65676 0.85726 0.33367 0.0
O737 O 0.69294 0.86081 0.32511 0.0
Mn738 Mn 0.68621 0.86693 0.30696 0.0
O739 O 0.6578 0.82608 0.31624 0.0
O740 O 0.67157 0.87753 0.31326 0.0
O741 O 0.68229 0.857 0.35862 0.0
O742 O 0.66265 0.84085 0.37888 0.0
O743 O 0.71231 0.88094 0.30771 0.0
O744 O 0.67371 0.84452 0.29521 0.0
C745 C 0.63067 0.80832 0.35105 0.0
C746 C 0.68211 0.81424 0.35274 0.0
C747 C 0.65925 0.87102 0.32445 0.0
C748 C 0.71025 0.87276 0.32148 0.0
C749 C 0.66112 0.82875 0.30109 0.0
C750 C 0.67682 0.85573 0.3733 0.0
O751 O 0.64762 0.82217 0.34929 0.0
O752 O 0.62746 0.80091 0.36523 0.0
O753 O 0.19532 0.8499 0.32146 0.0
Mn754 Mn 0.16701 0.83602 0.3279 0.0
O755 O 0.19757 0.86671 0.29909 0.0
Mn756 Mn 0.17219 0.85995 0.29698 0.0
O757 O 0.13866 0.82236 0.33429 0.0
O758 O 0.17013 0.81588 0.33897 0.0
Mn759 Mn 0.16052 0.81096 0.35835 0.0
O760 O 0.17356 0.85213 0.34912 0.0
O761 O 0.13501 0.80293 0.35508 0.0
O762 O 0.16027 0.81974 0.30668 0.0
O763 O 0.15714 0.83681 0.28683 0.0
O764 O 0.17004 0.79468 0.35468 0.0
O765 O 0.17402 0.83385 0.36931 0.0
C766 C 0.16087 0.87009 0.3155 0.0
C767 C 0.20488 0.86111 0.30992 0.0
C768 C 0.12842 0.80987 0.34482 0.0
C769 C 0.17429 0.80265 0.34071 0.0
C770 C 0.17663 0.84969 0.36387 0.0
C771 C 0.15564 0.8214 0.29221 0.0
O772 O 0.164 0.85613 0.31682 0.0
O773 O 0.16428 0.87748 0.3013 0.0
O774 O 0.80438 0.65066 0.67874 0.0
Mn775 Mn 0.83254 0.66596 0.67194 0.0
O776 O 0.80101 0.66635 0.69979 0.0
Mn777 Mn 0.82632 0.68544 0.70193 0.0
O778 O 0.8607 0.68123 0.66509 0.0
O779 O 0.83012 0.64262 0.66179 0.0
Mn780 Mn 0.83846 0.64597 0.64206 0.0
O781 O 0.82493 0.67376 0.65038 0.0
O782 O 0.86368 0.66531 0.64398 0.0
O783 O 0.84006 0.658 0.69345 0.0
O784 O 0.84124 0.67793 0.71293 0.0
O785 O 0.83145 0.62102 0.64786 0.0
O786 O 0.82292 0.65292 0.63137 0.0
C787 C 0.83825 0.7065 0.68304 0.0
C788 C 0.79431 0.65252 0.68966 0.0
C789 C 0.87057 0.67915 0.6541 0.0
C790 C 0.82776 0.62575 0.66164 0.0
C791 C 0.8205 0.66652 0.63616 0.0
C792 C 0.84382 0.6645 0.70793 0.0
O793 O 0.83491 0.68928 0.68218 0.0
O794 O 0.83439 0.71084 0.69693 0.0
O795 O 0.35902 0.16908 0.67406 0.0
Mn796 Mn 0.33572 0.17265 0.67202 0.0
O797 O 0.35476 0.15199 0.69667 0.0
Mn798 Mn 0.33119 0.14847 0.70255 0.0
O799 O 0.31214 0.17599 0.67023 0.0
O800 O 0.35142 0.19674 0.65972 0.0
Mn801 Mn 0.33953 0.19775 0.64245 0.0
O802 O 0.32773 0.15646 0.65079 0.0
O803 O 0.31744 0.19635 0.64984 0.0
O804 O 0.34328 0.18903 0.69324 0.0
O805 O 0.33194 0.16847 0.71388 0.0
O806 O 0.36284 0.21995 0.64283 0.0
O807 O 0.33594 0.1771 0.63018 0.0
C808 C 0.3071 0.13169 0.68725 0.0
C809 C 0.36452 0.16112 0.68442 0.0
C810 C 0.30731 0.18579 0.66133 0.0
C811 C 0.36573 0.21287 0.65574 0.0
C812 C 0.32965 0.16033 0.63569 0.0
C813 C 0.3392 0.18526 0.70819 0.0
O814 O 0.32051 0.14864 0.68429 0.0
O815 O 0.30898 0.12506 0.7008 0.0
O816 O 0.85915 0.18205 0.66615 0.0
Mn817 Mn 0.83169 0.16594 0.67439 0.0
O818 O 0.85701 0.19509 0.64279 0.0
Mn819 Mn 0.83095 0.18592 0.64247 0.0
O820 O 0.80412 0.14977 0.68245 0.0
O821 O 0.83865 0.14876 0.68615 0.0
Mn822 Mn 0.83151 0.14583 0.70634 0.0
O823 O 0.83802 0.18371 0.69458 0.0
O824 O 0.80531 0.13521 0.70517 0.0
O825 O 0.82504 0.1482 0.65404 0.0
O826 O 0.81656 0.1615 0.63437 0.0
O827 O 0.84266 0.13095 0.70313 0.0
O828 O 0.8443 0.16999 0.71531 0.0
C829 C 0.82067 0.19636 0.66163 0.0
C830 C 0.86658 0.19221 0.65354 0.0
C831 C 0.79614 0.13867 0.69446 0.0
C832 C 0.84439 0.13677 0.68845 0.0
C833 C 0.84353 0.18396 0.70912 0.0
C834 C 0.81795 0.14765 0.64006 0.0
O835 O 0.82485 0.18312 0.66281 0.0
O836 O 0.82177 0.20236 0.64708 0.0
C837 C 0.32375 0.8312 0.06846 0.0
C838 C 0.30746 0.81974 0.0593 0.0
C839 C 0.33894 0.84738 0.06181 0.0
C840 C 0.36 0.87194 0.0233 0.0
H841 H 0.38519 0.91595 0.05147 0.0
C842 C 0.41988 0.95786 0.02314 0.0
C843 C 0.43415 0.95766 0.01389 0.0
C844 C 0.4034 0.94093 0.02681 0.0
C845 C 0.3782 0.90392 0.04332 0.0
H846 H 0.29443 0.81601 0.03587 0.0
H847 H 0.32089 0.84463 0.02426 0.0
H848 H 0.35869 0.8868 0.06142 0.0
H849 H 0.44137 0.93949 5e-05 0.0
H850 H 0.41297 0.90978 0.00712 0.0
H851 H 0.37934 0.88943 0.00504 0.0
C852 C 0.32204 0.84091 0.03653 0.0
C853 C 0.36315 0.88703 0.04914 0.0
C854 C 0.30686 0.82456 0.04318 0.0
C855 C 0.43094 0.94015 0.00757 0.0
C856 C 0.41451 0.92311 0.01146 0.0
C857 C 0.37506 0.88896 0.01741 0.0
C858 C 0.33817 0.85268 0.04586 0.0
C859 C 0.35394 0.87074 0.03929 0.0
C860 C 0.40078 0.92326 0.02153 0.0
C861 C 0.38438 0.90517 0.02738 0.0
H862 H 0.32475 0.82763 0.08083 0.0
H863 H 0.35131 0.85578 0.06924 0.0
H864 H 0.35332 0.85964 0.0154 0.0
H865 H 0.42159 0.97108 0.02795 0.0
H866 H 0.39287 0.9417 0.03413 0.0
C867 C 0.17466 0.49912 0.04332 0.0
C868 C 0.17212 0.48088 0.04054 0.0
C869 C 0.16448 0.50558 0.03437 0.0
C870 C 0.13096 0.49259 -0.00064 0.0
H871 H 0.11014 0.51749 0.02523 0.0
C872 C 0.0553 0.47802 0.99661 0.0
C873 C 0.05167 0.49311 0.99876 0.0
C874 C 0.0738 0.48147 0.99653 0.0
C875 C 0.11615 0.51096 0.01769 0.0
H876 H 0.15739 0.45523 0.02611 0.0
H877 H 0.13896 0.46594 0.01106 0.0
H878 H 0.13609 0.51427 0.03576 0.0
H879 H 0.06468 0.52384 0.00068 0.0
H880 H 0.09707 0.52976 0.00152 0.0
H881 H 0.10956 0.48774 0.98198 0.0
C882 C 0.14924 0.4757 0.01965 0.0
C883 C 0.1311 0.50912 0.02371 0.0
C884 C 0.15968 0.46942 0.02838 0.0
C885 C 0.06699 0.51189 -0.00056 0.0
C886 C 0.08553 0.51531 -0.00021 0.0
C887 C 0.11573 0.4941 0.9935 0.0
C888 C 0.15125 0.49375 0.02269 0.0
C889 C 0.1382 0.4992 0.01491 0.0
C890 C 0.08901 0.50003 0.99885 0.0
C891 C 0.10778 0.50267 0.00289 0.0
H892 H 0.18439 0.5083 0.05252 0.0
H893 H 0.16672 0.5197 0.03685 0.0
H894 H 0.13643 0.48541 0.99201 0.0
H895 H 0.04383 0.4634 0.99579 0.0
H896 H 0.07612 0.46942 0.99587 0.0
C897 C 0.47586 0.6494 0.06829 0.0
C898 C 0.48596 0.66706 0.06044 0.0
C899 C 0.47442 0.63289 0.06153 0.0
C900 C 0.49962 0.61826 0.03356 0.0
H901 H 0.45427 0.56858 0.03542 0.0
C902 C 0.46986 0.54151 0.00076 0.0
C903 C 0.48619 0.53999 0.00137 0.0
C904 C 0.46845 0.55505 0.0102 0.0
C905 C 0.46704 0.58236 0.03482 0.0
H906 H 0.50181 0.68106 0.03902 0.0
H907 H 0.49899 0.65218 0.02705 0.0
H908 H 0.45388 0.59656 0.04608 0.0
H909 H 0.51382 0.55117 0.0122 0.0
H910 H 0.5113 0.5746 0.02903 0.0
H911 H 0.51269 0.60429 0.02196 0.0
C912 C 0.49244 0.65117 0.03858 0.0
C913 C 0.46685 0.59837 0.041 0.0
C914 C 0.49385 0.66767 0.04533 0.0
C915 C 0.50084 0.5517 0.01194 0.0
C916 C 0.49951 0.56533 0.02133 0.0
C917 C 0.49983 0.6023 0.02743 0.0
C918 C 0.48307 0.63367 0.04677 0.0
C919 C 0.4831 0.61654 0.0403 0.0
C920 C 0.48356 0.56759 0.02017 0.0
C921 C 0.48352 0.58417 0.02789 0.0
H922 H 0.46943 0.64841 0.07987 0.0
H923 H 0.46715 0.61967 0.06817 0.0
H924 H 0.51248 0.63198 0.03306 0.0
H925 H 0.45866 0.53298 0.99228 0.0
H926 H 0.45609 0.55657 0.00884 0.0
C927 C 0.82931 0.34303 0.9631 0.0
C928 C 0.82023 0.34158 0.94839 0.0
C929 C 0.84324 0.36077 0.96887 0.0
C930 C 0.8782 0.40802 0.95374 0.0
H931 H 0.88976 0.4174 -0.00085 0.0
C932 C 0.95356 0.44974 0.97811 0.0
C933 C 0.95687 0.45773 0.99354 0.0
C934 C 0.93541 0.44101 0.97147 0.0
C935 C 0.88667 0.41543 0.98641 0.0
H936 H 0.81766 0.35768 0.92874 0.0
H937 H 0.84186 0.38877 0.93895 0.0
H938 H 0.85929 0.39149 0.99069 0.0
H939 H 0.94431 0.46329 0.0141 0.0
H940 H 0.9128 0.44931 0.00216 0.0
H941 H 0.90564 0.43197 0.94946 0.0
C942 C 0.8385 0.37615 0.94585 0.0
C943 C 0.86922 0.40028 0.98156 0.0
C944 C 0.82462 0.35836 0.94002 0.0
C945 C 0.94212 0.45786 0.0019 0.0
C946 C 0.92403 0.44946 0.99518 0.0
C947 C 0.89561 0.42334 0.95859 0.0
C948 C 0.84836 0.37751 0.96013 0.0
C949 C 0.86509 0.39586 0.96518 0.0
C950 C 0.92022 0.44003 0.98022 0.0
C951 C 0.9004 0.42674 0.97499 0.0
H952 H 0.82644 0.33036 0.96971 0.0
H953 H 0.85071 0.36116 0.97976 0.0
H954 H 0.87556 0.40506 0.941 0.0
H955 H 0.96469 0.44897 0.97172 0.0
H956 H 0.93309 0.43369 0.96006 0.0
C957 C 0.69726 0.57169 0.94215 0.0
C958 C 0.7049 0.56139 0.94946 0.0
C959 C 0.67952 0.56867 0.94668 0.0
C960 C 0.63532 0.53287 0.96604 0.0
H961 H 0.62542 0.57488 0.9693 0.0
C962 C 0.56457 0.52206 0.98954 0.0
C963 C 0.55608 0.53031 0.9803 0.0
C964 C 0.5833 0.52693 0.98684 0.0
C965 C 0.62797 0.56301 0.96835 0.0
H966 H 0.69982 0.53979 0.96725 0.0
H967 H 0.66923 0.53495 0.97544 0.0
H968 H 0.65708 0.58126 0.96242 0.0
H969 H 0.56091 0.55066 0.96138 0.0
H970 H 0.59358 0.5591 0.95671 0.0
H971 H 0.60625 0.51463 0.97193 0.0
C972 C 0.6768 0.54518 0.96606 0.0
C973 C 0.64607 0.56664 0.96437 0.0
C974 C 0.69448 0.54814 0.96149 0.0
C975 C 0.56697 0.544 0.96869 0.0
C976 C 0.58574 0.54893 0.96606 0.0
C977 C 0.61728 0.52926 0.97007 0.0
C978 C 0.66905 0.5553 0.95863 0.0
C979 C 0.64994 0.5516 0.96312 0.0
C980 C 0.59399 0.54021 0.97492 0.0
C981 C 0.61339 0.54427 0.97122 0.0
H982 H 0.70501 0.58214 0.93296 0.0
H983 H 0.67389 0.57658 0.9406 0.0
H984 H 0.63771 0.52091 0.96489 0.0
H985 H 0.55663 0.51146 0.99858 0.0
H986 H 0.58937 0.52015 0.99399 0.0
C987 C 0.48524 0.16181 0.94338 0.0
C988 C 0.49275 0.16979 0.92834 0.0
C989 C 0.48553 0.14558 0.94868 0.0
C990 C 0.51025 0.1186 0.94423 0.0
H991 H 0.46495 0.07764 0.96338 0.0
C992 C 0.47861 0.03949 0.97621 0.0
C993 C 0.49247 0.04421 0.98806 0.0
C994 C 0.47992 0.05336 0.96546 0.0
C995 C 0.47765 0.0888 0.95785 0.0
H996 H 0.50679 0.16728 0.9072 0.0
H997 H 0.50751 0.13899 0.91659 0.0
H998 H 0.46431 0.10503 0.95202 0.0
H999 H 0.5189 0.06661 0.99774 0.0
H1000 H 0.52146 0.09087 0.97882 0.0
H1001 H 0.52371 0.10254 0.95052 0.0
C1002 C 0.50131 0.14525 0.92421 0.0
C1003 C 0.47733 0.1046 0.95152 0.0
C1004 C 0.50079 0.16135 0.9188 0.0
C1005 C 0.5083 0.0626 0.98839 0.0
C1006 C 0.5097 0.07646 0.9776 0.0
C1007 C 0.51063 0.10286 0.95075 0.0
C1008 C 0.49353 0.1371 0.93915 0.0
C1009 C 0.49368 0.1198 0.94486 0.0
C1010 C 0.49508 0.07222 0.9665 0.0
C1011 C 0.49437 0.08788 0.9578 0.0
H1012 H 0.47883 0.16791 0.95093 0.0
H1013 H 0.4796 0.13972 0.96032 0.0
H1014 H 0.52308 0.13015 0.9392 0.0
H1015 H 0.46608 0.02547 0.97599 0.0
H1016 H 0.46855 0.04961 0.95692 0.0
C1017 C 0.69156 0.15436 0.95849 0.0
C1018 C 0.6908 0.16972 0.9515 0.0
C1019 C 0.67513 0.13846 0.96405 0.0
C1020 C 0.62422 0.12065 0.9734 0.0
H1021 H 0.61995 0.07145 0.96547 0.0
C1022 C 0.55691 0.04945 0.98993 0.0
C1023 C 0.5513 0.03421 0.97904 0.0
C1024 C 0.57438 0.0662 0.98823 0.0
C1025 C 0.6208 0.08505 0.96766 0.0
H1026 H 0.67232 0.18063 0.94498 0.0
H1027 H 0.64353 0.15269 0.95415 0.0
H1028 H 0.64925 0.1003 0.95939 0.0
H1029 H 0.55957 0.0249 0.95761 0.0
H1030 H 0.58949 0.05404 0.95442 0.0
H1031 H 0.59533 0.10526 0.98082 0.0
C1032 C 0.65684 0.15304 0.95581 0.0
C1033 C 0.63779 0.10168 0.96442 0.0
C1034 C 0.67333 0.16905 0.95047 0.0
C1035 C 0.56348 0.03621 0.96636 0.0
C1036 C 0.58078 0.05294 0.96458 0.0
C1037 C 0.60712 0.10397 0.97648 0.0
C1038 C 0.65747 0.13741 0.96251 0.0
C1039 C 0.6397 0.11973 0.96706 0.0
C1040 C 0.58656 0.06814 0.97553 0.0
C1041 C 0.6051 0.08594 0.97342 0.0
H1042 H 0.7049 0.15463 0.95961 0.0
H1043 H 0.67628 0.12693 0.96947 0.0
H1044 H 0.62522 0.13426 0.97586 0.0
H1045 H 0.54788 0.04839 -0.00016 0.0
H1046 H 0.57841 0.07752 0.99698 0.0
C1047 C 0.86156 0.55838 0.98693 0.0
C1048 C 0.84369 0.54516 0.98082 0.0
C1049 C 0.87203 0.55219 0.99574 0.0
C1050 C 0.88 0.51246 0.99696 0.0
H1051 H 0.9122 0.53957 0.0333 0.0
C1052 C 0.94385 0.50416 0.01125 0.0
C1053 C 0.96057 0.52173 0.01294 0.0
C1054 C 0.92626 0.50299 0.01276 0.0
C1055 C 0.90327 0.5318 0.02318 0.0
H1056 H 0.8224 0.51522 0.97953 0.0
H1057 H 0.84095 0.50431 0.99471 0.0
H1058 H 0.88685 0.54563 0.02549 0.0
H1059 H 0.97204 0.55165 0.01885 0.0
H1060 H 0.94168 0.54984 0.02102 0.0
H1061 H 0.89717 0.49975 0.99373 0.0
C1062 C 0.84673 0.51946 0.9928 0.0
C1063 C 0.88873 0.53522 0.01877 0.0
C1064 C 0.83613 0.52569 0.98419 0.0
C1065 C 0.95939 0.53788 0.01731 0.0
C1066 C 0.9419 0.53678 0.01876 0.0
C1067 C 0.89467 0.50921 0.00123 0.0
C1068 C 0.86492 0.53264 0.9984 0.0
C1069 C 0.87744 0.52612 0.00525 0.0
C1070 C 0.9251 0.51946 0.01592 0.0
C1071 C 0.907 0.51944 0.01397 0.0
H1072 H 0.86762 0.57348 0.98457 0.0
H1073 H 0.88611 0.56264 -0.00026 0.0
H1074 H 0.87159 0.50534 0.98641 0.0
H1075 H 0.94434 0.49161 0.00773 0.0
H1076 H 0.91361 0.48936 0.01071 0.0
C1077 C 0.51894 0.33955 0.95611 0.0
C1078 C 0.52548 0.33984 0.94046 0.0
C1079 C 0.52156 0.35633 0.96332 0.0
C1080 C 0.52615 0.40205 0.95245 0.0
H1081 H 0.53798 0.41396 0.99763 0.0
C1082 C 0.504 0.44755 0.99013 0.0
C1083 C 0.51632 0.4593 0.0022 0.0
C1084 C 0.50868 0.43613 0.98078 0.0
C1085 C 0.53493 0.41103 0.98493 0.0
H1086 H 0.54116 0.35827 0.92059 0.0
H1087 H 0.54539 0.38746 0.9331 0.0
H1088 H 0.54017 0.38762 0.98562 0.0
H1089 H 0.54318 0.46874 0.014 0.0
H1090 H 0.55164 0.4491 0.99744 0.0
H1091 H 0.52036 0.42513 0.95189 0.0
C1092 C 0.53803 0.3742 0.93968 0.0
C1093 C 0.53601 0.39582 0.97811 0.0
C1094 C 0.53558 0.35746 0.93253 0.0
C1095 C 0.53369 0.46007 0.00445 0.0
C1096 C 0.53841 0.4487 0.99512 0.0
C1097 C 0.5249 0.41716 0.95931 0.0
C1098 C 0.53068 0.37373 0.95499 0.0
C1099 C 0.53136 0.39099 0.96186 0.0
C1100 C 0.52568 0.43616 0.98353 0.0
C1101 C 0.52902 0.42164 0.97568 0.0
H1102 H 0.51092 0.32624 0.9625 0.0
H1103 H 0.5156 0.35551 0.9751 0.0
H1104 H 0.52233 0.39856 0.93992 0.0
H1105 H 0.49023 0.44624 0.98863 0.0
H1106 H 0.49845 0.42642 0.97212 0.0
C1107 C 0.18395 0.64302 0.05103 0.0
C1108 C 0.18867 0.64495 0.06744 0.0
C1109 C 0.17044 0.62539 0.0447 0.0
C1110 C 0.12731 0.5845 0.05795 0.0
H1111 H 0.12487 0.56906 0.01347 0.0
C1112 C 0.05588 0.54152 0.02569 0.0
C1113 C 0.05552 0.55157 0.01211 0.0
C1114 C 0.07319 0.5457 0.03266 0.0
C1115 C 0.12537 0.57299 0.02599 0.0
H1116 H 0.18433 0.62936 0.08969 0.0
H1117 H 0.16037 0.59865 0.07867 0.0
H1118 H 0.15548 0.59078 0.02573 0.0
H1119 H 0.07271 0.57284 0.9945 0.0
H1120 H 0.10263 0.58002 0.00643 0.0
H1121 H 0.09715 0.568 0.05786 0.0
C1122 C 0.16703 0.61086 0.07077 0.0
C1123 C 0.14288 0.58542 0.03299 0.0
C1124 C 0.18068 0.62848 0.07707 0.0
C1125 C 0.0726 0.56497 0.00506 0.0
C1126 C 0.08978 0.5689 0.01179 0.0
C1127 C 0.1098 0.57214 0.05092 0.0
C1128 C 0.16127 0.6093 0.05465 0.0
C1129 C 0.14392 0.59213 0.04876 0.0
C1130 C 0.09032 0.55974 0.02593 0.0
C1131 C 0.10859 0.56719 0.03459 0.0
H1132 H 0.18962 0.65536 0.04326 0.0
H1133 H 0.16617 0.62475 0.03227 0.0
H1134 H 0.12761 0.58943 0.07011 0.0
H1135 H 0.04292 0.5311 0.03129 0.0
H1136 H 0.07319 0.5384 0.04355 0.0
C1137 C 0.29832 0.42504 0.05547 0.0
C1138 C 0.29764 0.44175 0.05847 0.0
C1139 C 0.31471 0.42608 0.0493 0.0
C1140 C 0.36022 0.45984 0.02942 0.0
H1141 H 0.3759 0.42487 0.04518 0.0
C1142 C 0.43112 0.46704 0.01006 0.0
C1143 C 0.44164 0.46462 0.02228 0.0
C1144 C 0.41219 0.46168 0.01254 0.0
C1145 C 0.3718 0.43484 0.04071 0.0
H1146 H 0.31358 0.47262 0.05782 0.0
H1147 H 0.34232 0.47454 0.04765 0.0
H1148 H 0.34585 0.42116 0.0537 0.0
H1149 H 0.44036 0.45433 0.04658 0.0
H1150 H 0.40781 0.44567 0.05105 0.0
H1151 H 0.38668 0.47429 0.0173 0.0
C1152 C 0.33009 0.46057 0.04945 0.0
C1153 C 0.35439 0.43253 0.04542 0.0
C1154 C 0.31366 0.45951 0.05539 0.0
C1155 C 0.43268 0.4563 0.03684 0.0
C1156 C 0.41388 0.45118 0.03938 0.0
C1157 C 0.37773 0.46231 0.0249 0.0
C1158 C 0.33082 0.44389 0.04622 0.0
C1159 C 0.34854 0.44523 0.04009 0.0
C1160 C 0.40342 0.454 0.02735 0.0
C1161 C 0.38392 0.45006 0.03073 0.0
H1162 H 0.28607 0.41117 0.05763 0.0
H1163 H 0.31467 0.41293 0.04679 0.0
H1164 H 0.35601 0.46964 0.02476 0.0
H1165 H 0.43756 0.47328 0.99865 0.0
H1166 H 0.40449 0.46375 0.00289 0.0
C1167 C 0.49347 0.8409 0.0834 0.0
C1168 C 0.49281 0.82726 0.07247 0.0
C1169 C 0.4911 0.85596 0.07811 0.0
C1170 C 0.47363 0.87252 0.04422 0.0
H1171 H 0.51293 0.92311 0.05712 0.0
C1172 C 0.48053 0.93991 0.01445 0.0
C1173 C 0.49823 0.95023 0.0071 0.0
C1174 C 0.47758 0.92646 0.02635 0.0
C1175 C 0.50169 0.90907 0.05361 0.0
H1176 H 0.48862 0.81865 0.04739 0.0
H1177 H 0.4842 0.84473 0.03824 0.0
H1178 H 0.51125 0.89508 0.06974 0.0
H1179 H 0.52702 0.95585 0.00701 0.0
H1180 H 0.52215 0.93302 0.02809 0.0
H1181 H 0.46462 0.88654 0.02755 0.0
C1182 C 0.48646 0.84368 0.05094 0.0
C1183 C 0.50068 0.89302 0.06085 0.0
C1184 C 0.48899 0.8287 0.0562 0.0
C1185 C 0.51326 0.94808 0.01261 0.0
C1186 C 0.51047 0.93505 0.02471 0.0
C1187 C 0.47452 0.88858 0.03709 0.0
C1188 C 0.4878 0.85765 0.06179 0.0
C1189 C 0.48703 0.87456 0.05586 0.0
C1190 C 0.49244 0.92354 0.03125 0.0
C1191 C 0.48896 0.907 0.04132 0.0
H1192 H 0.49595 0.84004 0.09608 0.0
H1193 H 0.49199 0.86638 0.08679 0.0
H1194 H 0.46281 0.85848 0.04027 0.0
H1195 H 0.46876 0.94129 0.01025 0.0
H1196 H 0.46354 0.9178 0.03124 0.0
C1197 C 0.97642 0.1758 0.38323 0.0
C1198 C 0.96985 0.17505 0.39898 0.0
C1199 C 0.99314 0.1917 0.378 0.0
C1200 C 0.03691 0.23324 0.39407 0.0
H1201 H 0.04276 0.25209 0.35044 0.0
C1202 C 0.0996 0.30533 0.37588 0.0
C1203 C 0.10982 0.30533 0.3623 0.0
C1204 C 0.082 0.28959 0.37931 0.0
C1205 C 0.04132 0.24688 0.36263 0.0
H1206 H 0.97589 0.19068 0.42151 0.0
H1207 H 0.0043 0.21855 0.4122 0.0
H1208 H 0.01292 0.22435 0.35857 0.0
H1209 H 0.10903 0.28895 0.34131 0.0
H1210 H 0.07803 0.26149 0.34727 0.0
H1211 H 0.06513 0.25598 0.39821 0.0
C1212 C 0.99683 0.20669 0.40396 0.0
C1213 C 0.02427 0.23095 0.36729 0.0
C1214 C 0.98028 0.19076 0.40923 0.0
C1215 C 0.10158 0.28946 0.35187 0.0
C1216 C 0.08382 0.27375 0.35524 0.0
C1217 C 0.0538 0.24922 0.38947 0.0
C1218 C 0.00364 0.2073 0.38835 0.0
C1219 C 0.02182 0.224 0.38312 0.0
C1220 C 0.07407 0.27352 0.36919 0.0
C1221 C 0.05615 0.25628 0.37375 0.0
H1222 H 0.96866 0.16411 0.3749 0.0
H1223 H 0.99799 0.19157 0.36593 0.0
H1224 H 0.03579 0.22804 0.40622 0.0
H1225 H 0.1054 0.31727 0.38418 0.0
H1226 H 0.07467 0.28989 0.39003 0.0
C1227 C 0.78428 0.74951 0.38029 0.0
C1228 C 0.79875 0.75239 0.3696 0.0
C1229 C 0.77181 0.75594 0.37659 0.0
C1230 C 0.75279 0.77257 0.34423 0.0
H1231 H 0.74216 0.79651 0.38002 0.0
C1232 C 0.70848 0.81115 0.34018 0.0
C1233 C 0.69509 0.80642 0.3525 0.0
C1234 C 0.72144 0.80464 0.34071 0.0
C1235 C 0.74492 0.78978 0.36993 0.0
H1236 H 0.81087 0.76368 0.34624 0.0
H1237 H 0.78916 0.77537 0.33992 0.0
H1238 H 0.76424 0.78498 0.3836 0.0
H1239 H 0.68452 0.79057 0.37471 0.0
H1240 H 0.70704 0.77939 0.37558 0.0
H1241 H 0.73332 0.77755 0.33059 0.0
C1242 C 0.78749 0.76794 0.35114 0.0
C1243 C 0.75752 0.78313 0.37198 0.0
C1244 C 0.80001 0.76139 0.35482 0.0
C1245 C 0.69466 0.79464 0.36507 0.0
C1246 C 0.70764 0.78828 0.36563 0.0
C1247 C 0.74016 0.77936 0.34214 0.0
C1248 C 0.77355 0.76567 0.36219 0.0
C1249 C 0.76128 0.77403 0.35929 0.0
C1250 C 0.72134 0.79344 0.35362 0.0
C1251 C 0.73582 0.78764 0.35511 0.0
H1252 H 0.78298 0.74297 0.3919 0.0
H1253 H 0.76098 0.75362 0.38523 0.0
H1254 H 0.75542 0.76563 0.33423 0.0
H1255 H 0.70919 0.82017 0.3303 0.0
H1256 H 0.73191 0.80884 0.33131 0.0
C1257 C 0.1714 0.00815 0.37671 0.0
C1258 C 0.1653 0.00797 0.3925 0.0
C1259 C 0.16891 0.99139 0.36959 0.0
C1260 C 0.14274 0.9388 0.37224 0.0
H1261 H 0.18671 0.94352 0.35043 0.0
C1262 C 0.17287 0.8907 0.33955 0.0
C1263 C 0.15784 0.87984 0.32901 0.0
C1264 C 0.17238 0.90431 0.34958 0.0
C1265 C 0.17438 0.94188 0.35666 0.0
H1266 H 0.15082 0.98991 0.41285 0.0
H1267 H 0.14652 0.96063 0.40041 0.0
H1268 H 0.18808 0.97158 0.36248 0.0
H1269 H 0.13042 0.87417 0.32072 0.0
H1270 H 0.12928 0.8977 0.33851 0.0
H1271 H 0.12906 0.909 0.36632 0.0
C1272 C 0.15326 0.97373 0.39356 0.0
C1273 C 0.17507 0.95804 0.36334 0.0
C1274 C 0.15584 0.99051 0.40072 0.0
C1275 C 0.14192 0.88209 0.32911 0.0
C1276 C 0.14132 0.89557 0.33926 0.0
C1277 C 0.142 0.9226 0.36544 0.0
C1278 C 0.16018 0.97408 0.37807 0.0
C1279 C 0.15923 0.95673 0.37109 0.0
C1280 C 0.15686 0.90731 0.34917 0.0
C1281 C 0.15781 0.924 0.35752 0.0
H1282 H 0.17883 0.02139 0.3701 0.0
H1283 H 0.17413 0.99204 0.35752 0.0
H1284 H 0.1303 0.93737 0.37813 0.0
H1285 H 0.1855 0.88952 0.33931 0.0
H1286 H 0.18447 0.91299 0.35721 0.0
C1287 C 0.51164 0.6599 0.3017 0.0
C1288 C 0.5033 0.65738 0.28645 0.0
C1289 C 0.52469 0.67815 0.30722 0.0
C1290 C 0.54375 0.72976 0.30072 0.0
H1291 H 0.58886 0.73345 0.31964 0.0
C1292 C 0.62287 0.78756 0.32727 0.0
C1293 C 0.61784 0.79779 0.3378 0.0
C1294 C 0.60908 0.77265 0.31804 0.0
C1295 C 0.57651 0.73276 0.31415 0.0
H1296 H 0.50105 0.67206 0.26552 0.0
H1297 H 0.52405 0.70393 0.2751 0.0
H1298 H 0.56351 0.70267 0.31061 0.0
H1299 H 0.59482 0.80101 0.34682 0.0
H1300 H 0.57061 0.77505 0.33054 0.0
H1301 H 0.55694 0.76002 0.30431 0.0
C1302 C 0.52051 0.69181 0.28277 0.0
C1303 C 0.56182 0.71504 0.30924 0.0
C1304 C 0.50747 0.67356 0.27724 0.0
C1305 C 0.59903 0.79363 0.33837 0.0
C1306 C 0.58521 0.77875 0.32909 0.0
C1307 C 0.55849 0.74757 0.3057 0.0
C1308 C 0.52966 0.69424 0.29762 0.0
C1309 C 0.54519 0.71328 0.30264 0.0
C1310 C 0.58999 0.76758 0.31936 0.0
C1311 C 0.57498 0.74922 0.31257 0.0
H1312 H 0.50878 0.64773 0.30904 0.0
H1313 H 0.53127 0.67962 0.31886 0.0
H1314 H 0.53109 0.72883 0.29567 0.0
H1315 H 0.6372 0.7901 0.32708 0.0
H1316 H 0.61324 0.76446 0.31049 0.0
C1317 C 0.36526 0.88993 0.2892 0.0
C1318 C 0.37922 0.90893 0.28644 0.0
C1319 C 0.34696 0.88544 0.29345 0.0
C1320 C 0.31502 0.90571 0.29181 0.0
H1321 H 0.28313 0.86203 0.31831 0.0
C1322 C 0.23489 0.87524 0.29423 0.0
C1323 C 0.22527 0.86747 0.30868 0.0
C1324 C 0.25394 0.88078 0.29272 0.0
C1325 C 0.29189 0.87445 0.31107 0.0
H1326 H 0.38538 0.93823 0.28669 0.0
H1327 H 0.35372 0.93059 0.29473 0.0
H1328 H 0.31608 0.87117 0.3144 0.0
H1329 H 0.22823 0.8596 0.33296 0.0
H1330 H 0.26173 0.86989 0.3305 0.0
H1331 H 0.29113 0.90945 0.28893 0.0
C1332 C 0.35658 0.919 0.29306 0.0
C1333 C 0.31076 0.87953 0.30862 0.0
C1334 C 0.37476 0.92343 0.28854 0.0
C1335 C 0.23522 0.8655 0.32164 0.0
C1336 C 0.2544 0.87129 0.32019 0.0
C1337 C 0.29628 0.9008 0.29443 0.0
C1338 C 0.34231 0.89991 0.29528 0.0
C1339 C 0.32252 0.89509 0.29877 0.0
C1340 C 0.26401 0.87898 0.30569 0.0
C1341 C 0.28435 0.88491 0.30387 0.0
H1342 H 0.36834 0.87848 0.28753 0.0
H1343 H 0.33635 0.87057 0.2948 0.0
H1344 H 0.32347 0.91762 0.28397 0.0
H1345 H 0.22764 0.87674 0.28391 0.0
H1346 H 0.26066 0.88618 0.28123 0.0
C1347 C 0.17128 0.50506 0.28844 0.0
C1348 C 0.16666 0.50539 0.2722 0.0
C1349 C 0.17512 0.49107 0.29403 0.0
C1350 C 0.16441 0.44229 0.28476 0.0
H1351 H 0.20052 0.45217 0.31896 0.0
C1352 C 0.15635 0.38616 0.33066 0.0
C1353 C 0.17249 0.38672 0.33706 0.0
C1354 C 0.15805 0.39965 0.31939 0.0
C1355 C 0.19061 0.44917 0.3092 0.0
H1356 H 0.1635 0.4919 0.24896 0.0
H1357 H 0.17013 0.46746 0.25875 0.0
H1358 H 0.19994 0.4788 0.3059 0.0
H1359 H 0.20299 0.40134 0.33671 0.0
H1360 H 0.20611 0.42501 0.31671 0.0
H1361 H 0.15479 0.41264 0.28831 0.0
C1362 C 0.17047 0.47783 0.2672 0.0
C1363 C 0.19012 0.46444 0.30186 0.0
C1364 C 0.16665 0.49182 0.2616 0.0
C1365 C 0.19038 0.40048 0.33162 0.0
C1366 C 0.19212 0.41409 0.32035 0.0
C1367 C 0.16487 0.42703 0.29212 0.0
C1368 C 0.17445 0.4771 0.28353 0.0
C1369 C 0.17667 0.46115 0.28986 0.0
C1370 C 0.17597 0.41413 0.31446 0.0
C1371 C 0.17763 0.43027 0.30473 0.0
H1372 H 0.1712 0.51515 0.29696 0.0
H1373 H 0.17786 0.49077 0.30674 0.0
H1374 H 0.15381 0.43923 0.2756 0.0
H1375 H 0.14244 0.37581 0.33497 0.0
H1376 H 0.14534 0.3994 0.31529 0.0
C1377 C 0.35979 0.48979 0.29791 0.0
C1378 C 0.37238 0.4862 0.28913 0.0
C1379 C 0.34274 0.4747 0.30353 0.0
C1380 C 0.30838 0.4252 0.29377 0.0
H1381 H 0.28808 0.42385 0.33611 0.0
C1382 C 0.23822 0.36097 0.31337 0.0
C1383 C 0.22566 0.36463 0.32207 0.0
C1384 C 0.25683 0.37538 0.3109 0.0
C1385 C 0.29346 0.42411 0.32418 0.0
H1386 H 0.37734 0.46388 0.2802 0.0
H1387 H 0.34748 0.43762 0.28974 0.0
H1388 H 0.31941 0.45001 0.32907 0.0
H1389 H 0.22301 0.38621 0.33542 0.0
H1390 H 0.25535 0.41156 0.33067 0.0
H1391 H 0.2824 0.39979 0.28858 0.0
C1392 C 0.35072 0.45212 0.2921 0.0
C1393 C 0.31142 0.43906 0.32019 0.0
C1394 C 0.3678 0.46717 0.28659 0.0
C1395 C 0.23232 0.38292 0.32866 0.0
C1396 C 0.25092 0.39744 0.326 0.0
C1397 C 0.29041 0.4104 0.29769 0.0
C1398 C 0.33788 0.45572 0.30039 0.0
C1399 C 0.31906 0.43973 0.30494 0.0
C1400 C 0.26333 0.39392 0.31687 0.0
C1401 C 0.28269 0.40961 0.31295 0.0
H1402 H 0.36275 0.50425 0.29994 0.0
H1403 H 0.33304 0.47789 0.30977 0.0
H1404 H 0.31375 0.42553 0.28182 0.0
H1405 H 0.23363 0.34697 0.30832 0.0
H1406 H 0.2661 0.37199 0.30417 0.0
C1407 C 0.55766 0.94042 0.30969 0.0
C1408 C 0.53869 0.92583 0.3086 0.0
C1409 C 0.57147 0.93654 0.31533 0.0
C1410 C 0.5806 0.90178 0.33616 0.0
H1411 H 0.61999 0.91675 0.3043 0.0
C1412 C 0.62855 0.86827 0.33258 0.0
C1413 C 0.64687 0.87929 0.32642 0.0
C1414 C 0.61625 0.87557 0.33306 0.0
C1415 C 0.60943 0.9128 0.31357 0.0
H1416 H 0.51914 0.89605 0.31377 0.0
H1417 H 0.5433 0.88935 0.32385 0.0
H1418 H 0.59697 0.92707 0.30148 0.0
H1419 H 0.66712 0.90696 0.3169 0.0
H1420 H 0.64605 0.92001 0.31838 0.0
H1421 H 0.5931 0.88748 0.34827 0.0
C1422 C 0.54744 0.90378 0.32029 0.0
C1423 C 0.59616 0.9187 0.31189 0.0
C1424 C 0.53361 0.90764 0.31453 0.0
C1425 C 0.65297 0.89804 0.32148 0.0
C1426 C 0.64082 0.90546 0.32225 0.0
C1427 C 0.59409 0.89608 0.33798 0.0
C1428 C 0.56658 0.91802 0.32013 0.0
C1429 C 0.58149 0.91308 0.32304 0.0
C1430 C 0.62213 0.89416 0.32764 0.0
C1431 C 0.60854 0.90131 0.32658 0.0
H1432 H 0.56196 0.95469 0.30553 0.0
H1433 H 0.5861 0.94785 0.31534 0.0
H1434 H 0.56945 0.89732 0.34495 0.0
H1435 H 0.62344 0.85372 0.33642 0.0
H1436 H 0.60193 0.86633 0.3371 0.0
C1437 C 0.16198 0.67361 0.26596 0.0
C1438 C 0.17453 0.66678 0.26873 0.0
C1439 C 0.16627 0.69167 0.27128 0.0
C1440 C 0.19414 0.72793 0.30162 0.0
H1441 H 0.17808 0.75798 0.27699 0.0
C1442 C 0.19725 0.79458 0.329 0.0
C1443 C 0.18013 0.79453 0.32774 0.0
C1444 C 0.20071 0.7826 0.31922 0.0
C1445 C 0.18273 0.74982 0.28398 0.0
H1446 H 0.20151 0.67367 0.27923 0.0
H1447 H 0.20905 0.70543 0.28863 0.0
H1448 H 0.17663 0.72984 0.26485 0.0
H1449 H 0.15314 0.78208 0.31556 0.0
H1450 H 0.15903 0.76108 0.29844 0.0
H1451 H 0.19969 0.74757 0.32091 0.0
C1452 C 0.19583 0.69666 0.28235 0.0
C1453 C 0.18184 0.73365 0.27706 0.0
C1454 C 0.19151 0.67849 0.27701 0.0
C1455 C 0.16672 0.7828 0.3163 0.0
C1456 C 0.17009 0.77074 0.30657 0.0
C1457 C 0.19511 0.74415 0.30852 0.0
C1458 C 0.18322 0.70344 0.27956 0.0
C1459 C 0.18697 0.72218 0.28598 0.0
C1460 C 0.18691 0.77012 0.30823 0.0
C1461 C 0.18889 0.75496 0.29993 0.0
H1462 H 0.14857 0.66479 0.25996 0.0
H1463 H 0.15599 0.69619 0.26929 0.0
H1464 H 0.19803 0.71933 0.30888 0.0
H1465 H 0.20755 0.80319 0.3381 0.0
H1466 H 0.21381 0.78248 0.32074 0.0
C1467 C 0.8497 0.99618 0.38093 0.0
C1468 C 0.84527 0.99984 0.39636 0.0
C1469 C 0.83867 0.97833 0.37364 0.0
C1470 C 0.79728 0.92899 0.3811 0.0
H1471 H 0.78772 0.93244 0.33593 0.0
C1472 C 0.72638 0.88668 0.34735 0.0
C1473 C 0.72648 0.87897 0.33231 0.0
C1474 C 0.74316 0.89708 0.35606 0.0
C1475 C 0.79049 0.93115 0.34847 0.0
H1476 H 0.82677 0.98682 0.41679 0.0
H1477 H 0.80681 0.95661 0.40377 0.0
H1478 H 0.81367 0.95956 0.34929 0.0
H1479 H 0.744 0.87603 0.31439 0.0
H1480 H 0.77354 0.89454 0.32955 0.0
H1481 H 0.77267 0.90105 0.38034 0.0
C1482 C 0.81899 0.96719 0.39727 0.0
C1483 C 0.80548 0.94669 0.35618 0.0
C1484 C 0.83027 0.98482 0.40467 0.0
C1485 C 0.74354 0.8814 0.32622 0.0
C1486 C 0.76038 0.892 0.33482 0.0
C1487 C 0.78196 0.91362 0.37344 0.0
C1488 C 0.82267 0.9638 0.38146 0.0
C1489 C 0.8088 0.94608 0.37274 0.0
C1490 C 0.76036 0.90029 0.34964 0.0
C1491 C 0.77824 0.91477 0.35715 0.0
H1492 H 0.86117 0.00732 0.37414 0.0
H1493 H 0.84238 0.97618 0.36166 0.0
H1494 H 0.79964 0.92765 0.39371 0.0
H1495 H 0.71369 0.88614 0.35172 0.0
H1496 H 0.74292 0.90389 0.36721 0.0
C1497 C 0.97456 0.78699 0.38407 0.0
C1498 C 0.9601 0.76789 0.38469 0.0
C1499 C 0.99238 0.79171 0.37821 0.0
C1500 C 0.01766 0.77112 0.35548 0.0
H1501 H 0.06197 0.81487 0.37354 0.0
C1502 C 0.09503 0.78622 0.35192 0.0
C1503 C 0.10829 0.80429 0.34605 0.0
C1504 C 0.0764 0.7817 0.35476 0.0
C1505 C 0.04968 0.80272 0.36831 0.0
H1506 H 0.95275 0.73869 0.38 0.0
H1507 H 0.98407 0.74668 0.37062 0.0
H1508 H 0.03074 0.80703 0.38294 0.0
H1509 H 0.11246 0.83171 0.33835 0.0
H1510 H 0.07995 0.82393 0.34385 0.0
H1511 H 0.037 0.76636 0.34155 0.0
C1512 C 0.98165 0.7582 0.374 0.0
C1513 C 0.03173 0.79824 0.37361 0.0
C1514 C 0.96373 0.75354 0.37952 0.0
C1515 C 0.10248 0.81761 0.34273 0.0
C1516 C 0.08397 0.81324 0.34596 0.0
C1517 C 0.03566 0.77538 0.35047 0.0
C1518 C 0.99625 0.77737 0.37317 0.0
C1519 C 0.01542 0.78235 0.36729 0.0
C1520 C 0.07086 0.79532 0.35215 0.0
C1521 C 0.05178 0.79121 0.35685 0.0
H1522 H 0.97197 0.79829 0.38786 0.0
H1523 H 0.00301 0.80664 0.37746 0.0
H1524 H 0.00553 0.75905 0.35001 0.0
H1525 H 0.09914 0.77571 0.35458 0.0
H1526 H 0.06652 0.76782 0.35961 0.0
C1527 C 0.16974 0.1687 0.39027 0.0
C1528 C 0.17226 0.16659 0.40671 0.0
C1529 C 0.16585 0.18278 0.38505 0.0
C1530 C 0.17169 0.22925 0.39666 0.0
H1531 H 0.13756 0.21926 0.36079 0.0
C1532 C 0.17764 0.28677 0.35307 0.0
C1533 C 0.16131 0.28472 0.34567 0.0
C1534 C 0.17645 0.27321 0.36405 0.0
C1535 C 0.14687 0.22227 0.37102 0.0
H1536 H 0.17214 0.17741 0.43057 0.0
H1537 H 0.16555 0.20214 0.42139 0.0
H1538 H 0.13986 0.19308 0.37274 0.0
H1539 H 0.13091 0.26756 0.34417 0.0
H1540 H 0.12863 0.24382 0.36369 0.0
H1541 H 0.17897 0.25854 0.39469 0.0
C1542 C 0.16676 0.19297 0.41256 0.0
C1543 C 0.14838 0.20728 0.37772 0.0
C1544 C 0.17059 0.17882 0.4178 0.0
C1545 C 0.14363 0.2695 0.34998 0.0
C1546 C 0.14239 0.25587 0.361 0.0
C1547 C 0.17022 0.24427 0.38991 0.0
C1548 C 0.16441 0.19515 0.39611 0.0
C1549 C 0.16117 0.21067 0.39033 0.0
C1550 C 0.15886 0.25723 0.36772 0.0
C1551 C 0.15814 0.24103 0.37674 0.0
H1552 H 0.17126 0.1598 0.38136 0.0
H1553 H 0.16448 0.1843 0.37227 0.0
H1554 H 0.18171 0.23236 0.40635 0.0
H1555 H 0.19144 0.29829 0.34964 0.0
H1556 H 0.18942 0.27461 0.36883 0.0
C1557 C 0.64477 0.52354 0.73603 0.0
C1558 C 0.63449 0.50734 0.72622 0.0
C1559 C 0.66042 0.53988 0.73003 0.0
C1560 C 0.69753 0.55514 0.70004 0.0
H1561 H 0.70621 0.60581 0.70963 0.0
C1562 C 0.76579 0.62242 0.67994 0.0
C1563 C 0.77426 0.63733 0.69126 0.0
C1564 C 0.74743 0.60725 0.68227 0.0
C1565 C 0.7041 0.59177 0.70695 0.0
H1566 H 0.63247 0.49597 0.70217 0.0
H1567 H 0.66017 0.52438 0.69187 0.0
H1568 H 0.67654 0.57791 0.7175 0.0
H1569 H 0.76979 0.64809 0.71377 0.0
H1570 H 0.73816 0.62156 0.718 0.0
H1571 H 0.7253 0.56883 0.6901 0.0
C1572 C 0.65602 0.52432 0.70423 0.0
C1573 C 0.68706 0.5758 0.71141 0.0
C1574 C 0.64021 0.50802 0.71018 0.0
C1575 C 0.76373 0.63694 0.70473 0.0
C1576 C 0.74547 0.62172 0.70712 0.0
C1577 C 0.71465 0.57109 0.69572 0.0
C1578 C 0.66634 0.54037 0.71413 0.0
C1579 C 0.68371 0.55732 0.7082 0.0
C1580 C 0.73715 0.60653 0.69604 0.0
C1581 C 0.71828 0.58963 0.69933 0.0
H1582 H 0.64108 0.52347 0.74852 0.0
H1583 H 0.66827 0.55193 0.73802 0.0
H1584 H 0.69541 0.54105 0.69756 0.0
H1585 H 0.77343 0.62229 0.66937 0.0
H1586 H 0.74138 0.59598 0.67333 0.0
C1587 C 0.49955 0.15426 0.71263 0.0
C1588 C 0.50393 0.1423 0.70364 0.0
C1589 C 0.48933 0.16199 0.70575 0.0
C1590 C 0.45381 0.14986 0.67413 0.0
H1591 H 0.4536 0.19401 0.69207 0.0
C1592 C 0.39126 0.16457 0.66734 0.0
C1593 C 0.38347 0.16344 0.68261 0.0
C1594 C 0.40911 0.1663 0.66588 0.0
C1595 C 0.45369 0.18183 0.68673 0.0
H1596 H 0.50245 0.13038 0.67997 0.0
H1597 H 0.48495 0.14434 0.66774 0.0
H1598 H 0.48126 0.19037 0.69587 0.0
H1599 H 0.38851 0.16425 0.70827 0.0
H1600 H 0.41981 0.16778 0.7057 0.0
H1601 H 0.42596 0.14118 0.66539 0.0
C1602 C 0.48904 0.14736 0.68026 0.0
C1603 C 0.46942 0.17964 0.68899 0.0
C1604 C 0.49922 0.13951 0.68722 0.0
C1605 C 0.39408 0.16482 0.69636 0.0
C1606 C 0.41204 0.16705 0.6949 0.0
C1607 C 0.43822 0.15225 0.67163 0.0
C1608 C 0.48336 0.15811 0.68961 0.0
C1609 C 0.46924 0.16309 0.68349 0.0
C1610 C 0.4196 0.16757 0.67968 0.0
C1611 C 0.4377 0.16777 0.67859 0.0
H1612 H 0.50331 0.15698 0.72525 0.0
H1613 H 0.48512 0.17 0.71344 0.0
H1614 H 0.45304 0.13686 0.6698 0.0
H1615 H 0.38336 0.16362 0.65656 0.0
H1616 H 0.41469 0.16657 0.65403 0.0
C1617 C 0.83135 0.32697 0.74325 0.0
C1618 C 0.83756 0.34285 0.7331 0.0
C1619 C 0.82761 0.30933 0.7371 0.0
C1620 C 0.84186 0.28982 0.70378 0.0
H1621 H 0.79966 0.24093 0.71636 0.0
C1622 C 0.80428 0.20929 0.67798 0.0
C1623 C 0.82037 0.20779 0.67514 0.0
C1624 C 0.80547 0.22397 0.68773 0.0
C1625 C 0.81152 0.2545 0.71278 0.0
H1626 H 0.84398 0.35247 0.70844 0.0
H1627 H 0.83723 0.32163 0.69766 0.0
H1628 H 0.80244 0.27046 0.72714 0.0
H1629 H 0.8502 0.22003 0.68013 0.0
H1630 H 0.85235 0.24564 0.69725 0.0
H1631 H 0.85083 0.27408 0.68924 0.0
C1632 C 0.83547 0.32289 0.71042 0.0
C1633 C 0.81315 0.27136 0.71899 0.0
C1634 C 0.83913 0.3405 0.71655 0.0
C1635 C 0.83751 0.22069 0.68254 0.0
C1636 C 0.83878 0.23547 0.69212 0.0
C1637 C 0.8403 0.27303 0.69769 0.0
C1638 C 0.8301 0.30724 0.72068 0.0
C1639 C 0.82824 0.28921 0.71438 0.0
C1640 C 0.82291 0.23761 0.69441 0.0
C1641 C 0.82506 0.25519 0.70202 0.0
H1642 H 0.82981 0.32831 0.75603 0.0
H1643 H 0.82353 0.29755 0.7453 0.0
H1644 H 0.85381 0.30332 0.70021 0.0
H1645 H 0.79107 0.19978 0.67196 0.0
H1646 H 0.79307 0.2254 0.6891 0.0
C1647 C 0.17626 0.99961 0.61556 0.0
C1648 C 0.17384 0.98252 0.62208 0.0
C1649 C 0.18983 0.01721 0.62189 0.0
C1650 C 0.23489 0.03893 0.64349 0.0
H1651 H 0.22639 0.08143 0.65055 0.0
C1652 C 0.27308 0.11294 0.68073 0.0
C1653 C 0.29183 0.11979 0.67609 0.0
C1654 C 0.25831 0.09811 0.67215 0.0
C1655 C 0.22895 0.06969 0.64858 0.0
H1656 H 0.18327 0.97044 0.64066 0.0
H1657 H 0.20691 0.00121 0.65183 0.0
H1658 H 0.20048 0.05092 0.64077 0.0
H1659 H 0.31015 0.11698 0.65899 0.0
H1660 H 0.2843 0.091 0.64384 0.0
H1661 H 0.26317 0.05744 0.65155 0.0
C1662 C 0.19841 0.00096 0.64172 0.0
C1663 C 0.21418 0.05228 0.64294 0.0
C1664 C 0.18474 0.98336 0.63546 0.0
C1665 C 0.2957 0.11213 0.66249 0.0
C1666 C 0.28095 0.09714 0.654 0.0
C1667 C 0.24965 0.05632 0.649 0.0
C1668 C 0.20134 0.01806 0.63479 0.0
C1669 C 0.21695 0.03667 0.64053 0.0
C1670 C 0.26214 0.08965 0.65901 0.0
C1671 C 0.24682 0.07184 0.65175 0.0
H1672 H 0.16791 0.99936 0.60533 0.0
H1673 H 0.19181 0.03014 0.61629 0.0
H1674 H 0.23752 0.02723 0.64151 0.0
H1675 H 0.26992 0.11843 0.69144 0.0
H1676 H 0.244 0.09248 0.67644 0.0
C1677 C 0.03385 0.24016 0.63802 0.0
C1678 C 0.03993 0.24299 0.62195 0.0
C1679 C 0.01556 0.23603 0.64188 0.0
C1680 C 0.96827 0.21752 0.62327 0.0
H1681 H 0.95728 0.23588 0.66258 0.0
C1682 C 0.89502 0.20802 0.63582 0.0
C1683 C 0.8871 0.20028 0.65085 0.0
C1684 C 0.91401 0.21434 0.63277 0.0
C1685 C 0.96017 0.23058 0.65161 0.0
H1686 H 0.03145 0.24396 0.59738 0.0
H1687 H 3e-05 0.23769 0.60416 0.0
H1688 H 0.98994 0.24527 0.65617 0.0
H1689 H 0.8932 0.19373 0.67464 0.0
H1690 H 0.92653 0.20501 0.6693 0.0
H1691 H 0.93854 0.20309 0.61862 0.0
C1692 C 0.00922 0.23817 0.61378 0.0
C1693 C 0.97885 0.2359 0.64795 0.0
C1694 C 0.02741 0.24209 0.6099 0.0
C1695 C 0.89882 0.19957 0.66292 0.0
C1696 C 0.91791 0.2061 0.65991 0.0
C1697 C 0.94967 0.21241 0.62685 0.0
C1698 C 0.00294 0.23479 0.62979 0.0
C1699 C 0.98314 0.22942 0.63372 0.0
C1700 C 0.9256 0.21325 0.64471 0.0
C1701 C 0.94543 0.21888 0.64104 0.0
H1702 H 0.04319 0.24103 0.64766 0.0
H1703 H 0.0112 0.23337 0.65433 0.0
H1704 H 0.97092 0.21186 0.61241 0.0
H1705 H 0.88646 0.20881 0.62622 0.0
H1706 H 0.91964 0.21999 0.62101 0.0
C1707 C 0.83225 0.83499 0.62291 0.0
C1708 C 0.83561 0.83982 0.60658 0.0
C1709 C 0.83493 0.82053 0.62923 0.0
C1710 C 0.83838 0.77815 0.61773 0.0
H1711 H 0.85888 0.78451 0.66081 0.0
C1712 C 0.82943 0.7158 0.65754 0.0
C1713 C 0.84307 0.7195 0.66938 0.0
C1714 C 0.83143 0.73037 0.64728 0.0
C1715 C 0.85347 0.78256 0.64864 0.0
H1716 H 0.84468 0.83339 0.58412 0.0
H1717 H 0.84945 0.8082 0.59517 0.0
H1718 H 0.85665 0.81041 0.64845 0.0
H1719 H 0.8699 0.74069 0.6794 0.0
H1720 H 0.87395 0.76598 0.66104 0.0
H1721 H 0.83529 0.75024 0.61796 0.0
C1722 C 0.84446 0.8154 0.60304 0.0
C1723 C 0.85188 0.79735 0.64166 0.0
C1724 C 0.84173 0.82985 0.59671 0.0
C1725 C 0.85934 0.73752 0.67018 0.0
C1726 C 0.86149 0.75202 0.6598 0.0
C1727 C 0.84002 0.76332 0.62472 0.0
C1728 C 0.84112 0.81058 0.61939 0.0
C1729 C 0.84399 0.79523 0.62624 0.0
C1730 C 0.84713 0.74888 0.64875 0.0
C1731 C 0.84733 0.76524 0.64038 0.0
H1732 H 0.82723 0.84216 0.63078 0.0
H1733 H 0.83186 0.81694 0.6418 0.0
H1734 H 0.83217 0.776 0.60585 0.0
H1735 H 0.81651 0.70212 0.65705 0.0
H1736 H 0.82 0.72742 0.63904 0.0
C1737 C 0.0252 0.81817 0.62744 0.0
C1738 C 0.03721 0.81462 0.61779 0.0
C1739 C 0.00819 0.80309 0.63312 0.0
C1740 C 0.97284 0.75384 0.62292 0.0
H1741 H 0.95404 0.75233 0.66594 0.0
C1742 C 0.90301 0.68995 0.6436 0.0
C1743 C 0.89075 0.69385 0.65252 0.0
C1744 C 0.92163 0.7042 0.64088 0.0
C1745 C 0.95901 0.75263 0.65384 0.0
H1746 H 0.04117 0.79233 0.60725 0.0
H1747 H 0.01143 0.76607 0.61701 0.0
H1748 H 0.98532 0.77824 0.65845 0.0
H1749 H 0.88861 0.7157 0.66594 0.0
H1750 H 0.92105 0.74072 0.66089 0.0
H1751 H 0.94653 0.72864 0.61808 0.0
C1752 C 0.01505 0.78055 0.61998 0.0
C1753 C 0.97694 0.76745 0.64957 0.0
C1754 C 0.03207 0.7956 0.61437 0.0
C1755 C 0.89773 0.7122 0.65908 0.0
C1756 C 0.91636 0.72654 0.65623 0.0
C1757 C 0.95493 0.73914 0.62714 0.0
C1758 C 0.00279 0.78413 0.62922 0.0
C1759 C 0.98403 0.7682 0.63406 0.0
C1760 C 0.92844 0.72279 0.64685 0.0
C1761 C 0.94776 0.73832 0.64264 0.0
H1762 H 0.02859 0.83264 0.63016 0.0
H1763 H 0.99895 0.80632 0.64008 0.0
H1764 H 0.97775 0.75422 0.61078 0.0
H1765 H 0.89816 0.67591 0.63854 0.0
H1766 H 0.93066 0.70067 0.63394 0.0
C1767 C 0.17704 0.21425 0.65972 0.0
C1768 C 0.17262 0.2114 0.64324 0.0
C1769 C 0.18702 0.20633 0.66696 0.0
C1770 C 0.20448 0.17216 0.65943 0.0
H1771 H 0.24927 0.20981 0.68215 0.0
C1772 C 0.27841 0.18452 0.65048 0.0
C1773 C 0.28873 0.18415 0.66384 0.0
C1774 C 0.26095 0.18329 0.65251 0.0
C1775 C 0.23659 0.19895 0.67622 0.0
H1776 H 0.17385 0.19693 0.62174 0.0
H1777 H 0.19148 0.18356 0.6341 0.0
H1778 H 0.22317 0.21578 0.67759 0.0
H1779 H 0.28893 0.18204 0.68979 0.0
H1780 H 0.25842 0.18085 0.6934 0.0
H1781 H 0.21887 0.1563 0.6567 0.0
C1782 C 0.18721 0.1917 0.64159 0.0
C1783 C 0.22161 0.20232 0.67361 0.0
C1784 C 0.17734 0.19961 0.6344 0.0
C1785 C 0.28119 0.18235 0.67932 0.0
C1786 C 0.26383 0.18165 0.68139 0.0
C1787 C 0.21956 0.16896 0.66183 0.0
C1788 C 0.19259 0.19531 0.65786 0.0
C1789 C 0.20581 0.18941 0.66445 0.0
C1790 C 0.25363 0.18208 0.66796 0.0
C1791 C 0.23603 0.18272 0.66963 0.0
H1792 H 0.17351 0.22327 0.66681 0.0
H1793 H 0.19084 0.20926 0.67954 0.0
H1794 H 0.19231 0.16171 0.65269 0.0
H1795 H 0.28383 0.18571 0.63841 0.0
H1796 H 0.25337 0.18385 0.64201 0.0
C1797 C 0.86056 0.01169 0.62264 0.0
C1798 C 0.84492 0.0007 0.61263 0.0
C1799 C 0.86319 0.02867 0.62951 0.0
C1800 C 0.84782 0.06468 0.62509 0.0
H1801 H 0.86468 0.0772 0.6693 0.0
C1802 C 0.83505 0.11569 0.66457 0.0
C1803 C 0.84903 0.12733 0.67568 0.0
C1804 C 0.83735 0.10276 0.65506 0.0
C1805 C 0.86029 0.07411 0.65684 0.0
H1806 H 0.81936 0.99835 0.60255 0.0
H1807 H 0.82368 0.02759 0.61474 0.0
H1808 H 0.86298 0.04914 0.65681 0.0
H1809 H 0.87631 0.13479 0.68571 0.0
H1810 H 0.88067 0.11251 0.66874 0.0
H1811 H 0.84447 0.08929 0.62537 0.0
C1812 C 0.83428 0.02356 0.61689 0.0
C1813 C 0.8593 0.058 0.64967 0.0
C1814 C 0.83174 0.00673 0.60998 0.0
C1815 C 0.86559 0.12627 0.67686 0.0
C1816 C 0.86795 0.1134 0.66731 0.0
C1817 C 0.84869 0.08072 0.63229 0.0
C1818 C 0.85014 0.03488 0.62659 0.0
C1819 C 0.85273 0.05289 0.6338 0.0
C1820 C 0.85363 0.10114 0.65661 0.0
C1821 C 0.85467 0.08544 0.64832 0.0
H1822 H 0.87099 0.00742 0.6248 0.0
H1823 H 0.87562 0.0371 0.63685 0.0
H1824 H 0.84309 0.06142 0.61271 0.0
H1825 H 0.82179 0.11563 0.66402 0.0
H1826 H 0.8259 0.09326 0.64716 0.0
C1827 C 0.51124 0.33195 0.70853 0.0
C1828 C 0.51678 0.33177 0.72451 0.0
C1829 C 0.49757 0.31518 0.70112 0.0
C1830 C 0.45579 0.27072 0.71167 0.0
H1831 H 0.4552 0.25996 0.66619 0.0
C1832 C 0.38762 0.21553 0.67839 0.0
C1833 C 0.38421 0.22256 0.66412 0.0
C1834 C 0.4053 0.22527 0.68599 0.0
C1835 C 0.45517 0.26274 0.67892 0.0
H1836 H 0.51334 0.31344 0.74475 0.0
H1837 H 0.48909 0.28419 0.73185 0.0
H1838 H 0.48457 0.28376 0.67896 0.0
H1839 H 0.39685 0.24523 0.6465 0.0
H1840 H 0.42731 0.26223 0.65974 0.0
H1841 H 0.42617 0.25045 0.71146 0.0
C1842 C 0.49528 0.29741 0.72517 0.0
C1843 C 0.47198 0.27633 0.68622 0.0
C1844 C 0.50911 0.31417 0.73254 0.0
C1845 C 0.39892 0.23936 0.6575 0.0
C1846 C 0.41651 0.24904 0.665 0.0
C1847 C 0.43893 0.25717 0.70435 0.0
C1848 C 0.48901 0.29785 0.70953 0.0
C1849 C 0.47231 0.28094 0.70254 0.0
C1850 C 0.41991 0.24219 0.67937 0.0
C1851 C 0.43831 0.25358 0.68776 0.0
H1852 H 0.5166 0.34522 0.70203 0.0
H1853 H 0.49287 0.31603 0.68912 0.0
H1854 H 0.45558 0.27408 0.72425 0.0
H1855 H 0.37668 0.20273 0.68384 0.0
H1856 H 0.4075 0.21962 0.69706 0.0
C1857 C 0.62959 0.0934 0.70421 0.0
C1858 C 0.62192 0.08837 0.71973 0.0
C1859 C 0.64773 0.09664 0.70103 0.0
C1860 C 0.69245 0.10931 0.72203 0.0
H1861 H 0.70619 0.09679 0.68108 0.0
C1862 C 0.76662 0.12048 0.71065 0.0
C1863 C 0.77545 0.13012 0.69642 0.0
C1864 C 0.7474 0.11365 0.71306 0.0
C1865 C 0.70254 0.10043 0.69254 0.0
H1866 H 0.62728 0.0823 0.74397 0.0
H1867 H 0.65848 0.08715 0.73826 0.0
H1868 H 0.67327 0.08752 0.6862 0.0
H1869 H 0.77076 0.13952 0.67332 0.0
H1870 H 0.73714 0.12748 0.67756 0.0
H1871 H 0.72167 0.12215 0.72838 0.0
C1872 C 0.65066 0.08905 0.72861 0.0
C1873 C 0.68371 0.09517 0.69547 0.0
C1874 C 0.6326 0.08598 0.73183 0.0
C1875 C 0.76444 0.13221 0.68444 0.0
C1876 C 0.74516 0.12523 0.68682 0.0
C1877 C 0.71119 0.11441 0.71915 0.0
C1878 C 0.65861 0.09478 0.71326 0.0
C1879 C 0.67845 0.09964 0.71024 0.0
C1880 C 0.73653 0.11616 0.70126 0.0
C1881 C 0.71646 0.11011 0.70436 0.0
H1882 H 0.62166 0.09508 0.69453 0.0
H1883 H 0.65343 0.10116 0.68909 0.0
H1884 H 0.68904 0.11338 0.73339 0.0
H1885 H 0.77461 0.11856 0.72013 0.0
H1886 H 0.74106 0.10651 0.72423 0.0
C1887 C 0.85936 0.52221 0.73745 0.0
C1888 C 0.84551 0.5029 0.7391 0.0
C1889 C 0.85446 0.53558 0.73235 0.0
C1890 C 0.81828 0.53962 0.70937 0.0
H1891 H 0.84463 0.59137 0.72605 0.0
C1892 C 0.80885 0.59824 0.6796 0.0
C1893 C 0.82601 0.61465 0.67602 0.0
C1894 C 0.80835 0.58506 0.69073 0.0
C1895 C 0.83707 0.57697 0.72131 0.0
H1896 H 0.81557 0.48257 0.73692 0.0
H1897 H 0.807 0.50598 0.72789 0.0
H1898 H 0.84909 0.56685 0.7389 0.0
H1899 H 0.85595 0.63056 0.68116 0.0
H1900 H 0.85524 0.60756 0.70044 0.0
H1901 H 0.80675 0.54983 0.69146 0.0
C1902 C 0.82169 0.51071 0.73045 0.0
C1903 C 0.83969 0.56293 0.72863 0.0
C1904 C 0.8266 0.49729 0.73557 0.0
C1905 C 0.8425 0.61814 0.68408 0.0
C1906 C 0.84206 0.60495 0.69509 0.0
C1907 C 0.81563 0.55365 0.70207 0.0
C1908 C 0.83558 0.53001 0.72876 0.0
C1909 C 0.83076 0.54423 0.72245 0.0
C1910 C 0.82507 0.58798 0.69821 0.0
C1911 C 0.8254 0.5726 0.70768 0.0
H1912 H 0.8741 0.52697 0.73977 0.0
H1913 H 0.86559 0.55023 0.73081 0.0
H1914 H 0.81132 0.52542 0.70421 0.0
H1915 H 0.79606 0.59517 0.67322 0.0
H1916 H 0.79503 0.57219 0.69296 0.0
C1917 C 0.50881 0.97229 0.17117 0.0
C1918 C 0.49667 0.95358 0.17635 0.0
C1919 C 0.51355 0.97606 0.15496 0.0
C1920 C 0.49648 0.95484 0.11453 0.0
H1921 H 0.54353 0.99883 0.10129 0.0
C1922 C 0.50867 0.97847 0.04882 0.0
C1923 C 0.51114 0.99688 0.04747 0.0
C1924 C 0.51147 0.97204 0.0636 0.0
C1925 C 0.53043 0.98638 0.10482 0.0
H1926 H 0.48056 0.92402 0.16886 0.0
H1927 H 0.48932 0.93041 0.1406 0.0
H1928 H 0.53909 0.98901 0.12941 0.0
H1929 H 0.52028 0.02362 0.05998 0.0
H1930 H 0.52564 0.01259 0.08564 0.0
H1931 H 0.48782 0.95237 0.08994 0.0
C1932 C 0.49474 0.94232 0.14891 0.0
C1933 C 0.52777 0.98084 0.12094 0.0
C1934 C 0.48974 0.93862 0.1651 0.0
C1935 C 0.5182 0.00933 0.06071 0.0
C1936 C 0.52135 0.00304 0.07538 0.0
C1937 C 0.49928 0.96019 0.0984 0.0
C1938 C 0.50651 0.96114 0.14357 0.0
C1939 C 0.51049 0.96538 0.12612 0.0
C1940 C 0.51718 0.98408 0.07715 0.0
C1941 C 0.51604 0.97635 0.09347 0.0
H1942 H 0.51423 0.98409 0.17962 0.0
H1943 H 0.52229 0.99076 0.15134 0.0
H1944 H 0.48289 0.94304 0.11799 0.0
H1945 H 0.50313 0.96855 0.03886 0.0
H1946 H 0.50825 0.95737 0.06464 0.0
C1947 C 0.06862 0.55321 0.1723 0.0
C1948 C 0.06523 0.53956 0.18419 0.0
C1949 C 0.05797 0.54798 0.15815 0.0
C1950 C 0.03236 0.50631 0.13236 0.0
H1951 H 0.01817 0.5386 0.10885 0.0
C1952 C -0.00045 0.48459 0.06977 0.0
C1953 C 0.007 0.49884 0.05794 0.0
C1954 C 0.0032 0.48934 0.08599 0.0
C1955 C 0.02213 0.52949 0.11525 0.0
H1956 H 0.04721 0.51002 0.19101 0.0
H1957 H 0.02863 0.50085 0.1662 0.0
H1958 H 0.03038 0.54721 0.13631 0.0
H1959 H 0.02318 0.52937 0.05398 0.0
H1960 H 0.03013 0.53765 0.08236 0.0
H1961 H 0.02484 0.48896 0.11128 0.0
C1962 C 0.03972 0.51554 0.16777 0.0
C1963 C 0.02906 0.53438 0.13097 0.0
C1964 C 0.05037 0.52077 0.18195 0.0
C1965 C 0.01741 0.51804 0.06277 0.0
C1966 C 0.02126 0.52279 0.07906 0.0
C1967 C 0.02552 0.50147 0.11669 0.0
C1968 C 0.04373 0.529 0.15556 0.0
C1969 C 0.03446 0.52295 0.1396 0.0
C1970 C 0.01456 0.50843 0.09081 0.0
C1971 C 0.02051 0.51309 0.10787 0.0
H1972 H 0.08012 0.56775 0.17355 0.0
H1973 H 0.06157 0.55862 0.14889 0.0
H1974 H 0.03676 0.49742 0.13854 0.0
H1975 H 0.99113 0.46966 0.0665 0.0
H1976 H 0.99741 0.47797 0.09475 0.0
C1977 C 0.47783 0.53855 0.16574 0.0
C1978 C 0.48372 0.55593 0.17379 0.0
C1979 C 0.4826 0.53834 0.14969 0.0
C1980 C 0.51664 0.5661 0.11862 0.0
H1981 H 0.4768 0.53136 0.08978 0.0
C1982 C 0.52712 0.53388 0.06052 0.0
C1983 C 0.51386 0.52909 0.04807 0.0
C1984 C 0.52598 0.54308 0.07434 0.0
C1985 C 0.48805 0.54142 0.09756 0.0
H1986 H 0.49935 0.58676 0.17116 0.0
H1987 H 0.50808 0.58628 0.14322 0.0
H1988 H 0.46927 0.53457 0.11744 0.0
H1989 H 0.48952 0.53069 0.03998 0.0
H1990 H 0.48801 0.54749 0.06373 0.0
H1991 H 0.53554 0.57245 0.09876 0.0
C1992 C 0.49977 0.57287 0.14943 0.0
C1993 C 0.48375 0.54304 0.11346 0.0
C1994 C 0.49482 0.5731 0.16545 0.0
C1995 C 0.50041 0.53496 0.04907 0.0
C1996 C 0.49929 0.5442 0.06285 0.0
C1997 C 0.521 0.56434 0.10268 0.0
C1998 C 0.49351 0.55549 0.14136 0.0
C1999 C 0.49804 0.55509 0.12422 0.0
C2000 C 0.5114 0.54739 0.07597 0.0
C2001 C 0.50677 0.55175 0.09206 0.0
H2002 H 0.46959 0.52508 0.17186 0.0
H2003 H 0.47785 0.52473 0.14379 0.0
H2004 H 0.52791 0.57549 0.12671 0.0
H2005 H 0.53742 0.5292 0.06009 0.0
H2006 H 0.53542 0.54521 0.08429 0.0
C2007 C 0.95814 0.48471 0.83004 0.0
C2008 C 0.94525 0.4657 0.8258 0.0
C2009 C 0.96784 0.48898 0.84469 0.0
C2010 C 0.96175 0.46871 0.88504 0.0
H2011 H 0.01166 0.51223 0.89238 0.0
C2012 C 0.993 0.49071 0.94872 0.0
C2013 C 0.00062 0.51018 0.95236 0.0
C2014 C 0.98879 0.48424 0.93285 0.0
C2015 C 0.9977 0.50004 0.89049 0.0
H2016 H 0.93326 0.43622 0.83327 0.0
H2017 H 0.95064 0.44366 0.8585 0.0
H2018 H 0.00021 0.50251 0.86489 0.0
H2019 H 0.01038 0.53819 0.94207 0.0
H2020 H 0.00291 0.52686 0.91445 0.0
H2021 H 0.95905 0.46648 0.91059 0.0
C2022 C 0.95294 0.45529 0.85067 0.0
C2023 C 0.99114 0.49448 0.87477 0.0
C2024 C 0.94315 0.45102 0.83608 0.0
C2025 C 0.00445 0.52309 0.93972 0.0
C2026 C 0.00033 0.51663 0.92386 0.0
C2027 C 0.96833 0.47421 0.90073 0.0
C2028 C 0.96493 0.47433 0.85537 0.0
C2029 C 0.97294 0.47898 0.87188 0.0
C2030 C 0.99222 0.49712 0.92028 0.0
C2031 C 0.98622 0.49015 0.90362 0.0
H2032 H 0.96034 0.49634 0.82226 0.0
H2033 H 0.97689 0.50382 0.84795 0.0
H2034 H 0.94753 0.45692 0.88329 0.0
H2035 H 0.98998 0.48037 0.95814 0.0
H2036 H 0.98271 0.46914 0.93043 0.0
C2037 C 0.505 0.43225 0.83636 0.0
C2038 C 0.51941 0.42764 0.83656 0.0
C2039 C 0.49644 0.43292 0.85066 0.0
C2040 C 0.49265 0.42055 0.89441 0.0
H2041 H 0.48211 0.46205 0.89823 0.0
C2042 C 0.49481 0.45972 0.95287 0.0
C2043 C 0.4821 0.46647 0.95457 0.0
C2044 C 0.49414 0.44928 0.93925 0.0
C2045 C 0.48457 0.45012 0.89728 0.0
H2046 H 0.53619 0.42004 0.8517 0.0
H2047 H 0.52197 0.42209 0.87677 0.0
H2048 H 0.4917 0.45568 0.87252 0.0
H2049 H 0.45825 0.46704 0.94383 0.0
H2050 H 0.45713 0.44888 0.91987 0.0
H2051 H 0.48671 0.41603 0.91964 0.0
C2052 C 0.51672 0.42455 0.8656 0.0
C2053 C 0.49008 0.44643 0.88249 0.0
C2054 C 0.52502 0.42354 0.85126 0.0
C2055 C 0.46802 0.46172 0.94287 0.0
C2056 C 0.46744 0.45144 0.92917 0.0
C2057 C 0.4874 0.42446 0.9093 0.0
C2058 C 0.50238 0.42937 0.86552 0.0
C2059 C 0.49456 0.43184 0.8809 0.0
C2060 C 0.481 0.44582 0.92694 0.0
C2061 C 0.48362 0.43949 0.91092 0.0
H2062 H 0.50026 0.43519 0.82511 0.0
H2063 H 0.4852 0.43629 0.85004 0.0
H2064 H 0.49558 0.40893 0.89359 0.0
H2065 H 0.50646 0.46418 0.96119 0.0
H2066 H 0.505 0.44547 0.93772 0.0
C2067 C 0.49583 0.05497 0.83127 0.0
C2068 C 0.4942 0.04304 0.81834 0.0
C2069 C 0.48914 0.04732 0.84647 0.0
C2070 C 0.47824 0.00483 0.87049 0.0
H2071 H 0.45959 0.02757 0.90119 0.0
C2072 C 0.46382 0.97748 0.93445 0.0
C2073 C 0.4735 0.99186 0.94598 0.0
C2074 C 0.46061 0.98209 0.91906 0.0
C2075 C 0.46471 0.02103 0.89271 0.0
H2076 H 0.48346 0.01373 0.81092 0.0
H2077 H 0.47133 1.00026 0.83735 0.0
H2078 H 0.46512 0.03863 0.87335 0.0
H2079 H 0.48645 0.0221 0.9508 0.0
H2080 H 0.48076 0.03023 0.92394 0.0
H2081 H 0.47824 0.98755 0.88979 0.0
C2082 C 0.47825 0.01558 0.83591 0.0
C2083 C 0.46796 0.02741 0.87679 0.0
C2084 C 0.48516 0.02326 0.82076 0.0
C2085 C 0.47849 0.01071 0.94229 0.0
C2086 C 0.47536 0.01536 0.92683 0.0
C2087 C 0.47486 0.99838 0.8863 0.0
C2088 C 0.48049 0.02755 0.84905 0.0
C2089 C 0.47511 0.01961 0.86555 0.0
C2090 C 0.46722 0.00119 0.91484 0.0
C2091 C 0.46834 0.0066 0.89767 0.0
H2092 H 0.5029 0.07029 0.82976 0.0
H2093 H 0.49141 0.05702 0.85632 0.0
H2094 H 0.48412 0.99873 0.86233 0.0
H2095 H 0.45982 0.96283 0.93704 0.0
H2096 H 0.45398 0.97082 0.91016 0.0
C2097 C 0.14832 0.26215 0.50467 0.0
C2098 C 0.15903 0.27574 0.51648 0.0
C2099 C 0.15361 0.26548 0.48854 0.0
C2100 C 0.19282 0.29806 0.46116 0.0
H2101 H 0.15154 0.28359 0.43105 0.0
C2102 C 0.19672 0.33707 0.40246 0.0
C2103 C 0.18503 0.32653 0.38955 0.0
C2104 C 0.19709 0.32789 0.41654 0.0
C2105 C 0.16327 0.28736 0.43919 0.0
H2106 H 0.18381 0.3033 0.52082 0.0
H2107 H 0.19269 0.30958 0.49259 0.0
H2108 H 0.14469 0.27343 0.45875 0.0
H2109 H 0.1653 0.29813 0.38089 0.0
H2110 H 0.16624 0.282 0.4053 0.0
H2111 H 0.2113 0.31306 0.44157 0.0
C2112 C 0.1805 0.29606 0.49575 0.0
C2113 C 0.15934 0.28153 0.45515 0.0
C2114 C 0.17536 0.29257 0.51192 0.0
C2115 C 0.17488 0.30654 0.39045 0.0
C2116 C 0.17517 0.29735 0.40454 0.0
C2117 C 0.19674 0.3041 0.44518 0.0
C2118 C 0.16957 0.28265 0.4838 0.0
C2119 C 0.17403 0.28713 0.46645 0.0
C2120 C 0.18558 0.30802 0.41799 0.0
C2121 C 0.18197 0.29912 0.43411 0.0
H2122 H 0.13584 0.2489 0.50793 0.0
H2123 H 0.14507 0.25463 0.47977 0.0
H2124 H 0.20451 0.30231 0.46943 0.0
H2125 H 0.20456 0.35252 0.40209 0.0
H2126 H 0.20515 0.33652 0.42672 0.0
C2127 C 0.78245 0.90774 0.48395 0.0
C2128 C 0.77385 0.90301 0.49907 0.0
C2129 C 0.772 0.9068 0.47032 0.0
C2130 C 0.72243 0.88534 0.45589 0.0
H2131 H 0.74658 0.91779 0.41912 0.0
C2132 C 0.6812 0.87513 0.39785 0.0
C2133 C 0.68915 0.87004 0.3852 0.0
C2134 C 0.69196 0.88436 0.41148 0.0
C2135 C 0.73964 0.90881 0.42938 0.0
H2136 H 0.74796 0.89427 0.5121 0.0
H2137 H 0.72979 0.89336 0.48848 0.0
H2138 H 0.76431 0.92339 0.44416 0.0
H2139 H 0.71432 0.87033 0.37697 0.0
H2140 H 0.7335 0.8875 0.40023 0.0
H2141 H 0.69781 0.87081 0.44106 0.0
C2142 C 0.74439 0.89711 0.4869 0.0
C2143 C 0.74982 0.91183 0.44368 0.0
C2144 C 0.75476 0.89766 0.50046 0.0
C2145 C 0.70826 0.87525 0.386 0.0
C2146 C 0.71912 0.88476 0.39949 0.0
C2147 C 0.7122 0.88259 0.44173 0.0
C2148 C 0.75282 0.90151 0.47161 0.0
C2149 C 0.74149 0.89978 0.45698 0.0
C2150 C 0.71083 0.88865 0.41262 0.0
C2151 C 0.72083 0.89399 0.42824 0.0
H2152 H 0.7972 0.91189 0.48265 0.0
H2153 H 0.77893 0.90988 0.45876 0.0
H2154 H 0.71557 0.87553 0.46569 0.0
H2155 H 0.66635 0.87089 0.39762 0.0
H2156 H 0.68526 0.88717 0.42151 0.0
C2157 C 0.13898 0.87182 0.49264 0.0
C2158 C 0.1456 0.88903 0.50118 0.0
C2159 C 0.14396 0.87191 0.4766 0.0
C2160 C 0.18003 0.89942 0.4469 0.0
H2161 H 0.14099 0.86706 0.41643 0.0
C2162 C 0.19164 0.86757 0.38905 0.0
C2163 C 0.1795 0.8642 0.37595 0.0
C2164 C 0.19011 0.87641 0.40295 0.0
C2165 C 0.15204 0.87646 0.42468 0.0
H2166 H 0.16259 0.91988 0.49935 0.0
H2167 H 0.17171 0.91989 0.47145 0.0
H2168 H 0.13237 0.86999 0.44383 0.0
H2169 H 0.15673 0.8679 0.36683 0.0
H2170 H 0.15449 0.88397 0.39083 0.0
H2171 H 0.19978 0.90532 0.42782 0.0
C2172 C 0.16266 0.90638 0.47727 0.0
C2173 C 0.1471 0.87792 0.44042 0.0
C2174 C 0.15748 0.90632 0.49327 0.0
C2175 C 0.16677 0.87104 0.3765 0.0
C2176 C 0.16523 0.87987 0.39038 0.0
C2177 C 0.18501 0.89779 0.43114 0.0
C2178 C 0.15584 0.88919 0.46876 0.0
C2179 C 0.16106 0.8891 0.45176 0.0
C2180 C 0.17622 0.88176 0.40403 0.0
C2181 C 0.17108 0.88604 0.41995 0.0
H2182 H 0.13012 0.85822 0.49839 0.0
H2183 H 0.13874 0.85842 0.47036 0.0
H2184 H 0.19106 0.90811 0.45544 0.0
H2185 H 0.20133 0.86211 0.38897 0.0
H2186 H 0.19866 0.87751 0.41331 0.0
C2187 C 0.57714 0.79008 0.1796 0.0
C2188 C 0.56555 0.77165 0.17332 0.0
C2189 C 0.58598 0.79267 0.19451 0.0
C2190 C 0.60312 0.77108 0.22352 0.0
H2191 H 0.59961 0.806 0.25341 0.0
C2192 C 0.65519 0.81049 0.27557 0.0
C2193 C 0.64813 0.81426 0.2896 0.0
C2194 C 0.64304 0.80047 0.26283 0.0
C2195 C 0.60048 0.79596 0.24534 0.0
H2196 H 0.5544 0.74147 0.17784 0.0
H2197 H 0.57034 0.74613 0.20372 0.0
H2198 H 0.58283 0.7988 0.22784 0.0
H2199 H 0.62296 0.81036 0.30152 0.0
H2200 H 0.60159 0.79233 0.2795 0.0
H2201 H 0.62128 0.76873 0.24092 0.0
C2202 C 0.57246 0.75851 0.19703 0.0
C2203 C 0.59106 0.79204 0.23061 0.0
C2204 C 0.56342 0.75588 0.18218 0.0
C2205 C 0.62864 0.80702 0.29106 0.0
C2206 C 0.61647 0.79701 0.27834 0.0
C2207 C 0.61275 0.77518 0.23823 0.0
C2208 C 0.58361 0.77691 0.20342 0.0
C2209 C 0.59254 0.77983 0.21945 0.0
C2210 C 0.62366 0.79432 0.26386 0.0
C2211 C 0.6117 0.78786 0.24919 0.0
H2212 H 0.57946 0.80257 0.17298 0.0
H2213 H 0.59478 0.80705 0.19905 0.0
H2214 H 0.60449 0.76163 0.21509 0.0
H2215 H 0.67024 0.81623 0.27411 0.0
H2216 H 0.64902 0.7988 0.25177 0.0
C2217 C 0.17498 0.76068 0.16598 0.0
C2218 C 0.18789 0.75416 0.16757 0.0
C2219 C 0.1668 0.7637 0.17959 0.0
C2220 C 0.16102 0.755 0.22401 0.0
H2221 H 0.15524 0.7997 0.22346 0.0
C2222 C 0.16433 0.79914 0.27953 0.0
C2223 C 0.15207 0.80652 0.28027 0.0
C2224 C 0.16399 0.78834 0.26631 0.0
C2225 C 0.15641 0.78695 0.22372 0.0
H2226 H 0.20242 0.74562 0.18448 0.0
H2227 H 0.18892 0.75169 0.20827 0.0
H2228 H 0.16428 0.78991 0.19905 0.0
H2229 H 0.12971 0.80837 0.26789 0.0
H2230 H 0.12919 0.78954 0.24456 0.0
H2231 H 0.15435 0.753 0.24911 0.0
C2232 C 0.18448 0.75387 0.19658 0.0
C2233 C 0.16158 0.78128 0.20969 0.0
C2234 C 0.19237 0.75053 0.18296 0.0
C2235 C 0.13905 0.80248 0.26773 0.0
C2236 C 0.13881 0.79182 0.2544 0.0
C2237 C 0.15614 0.76089 0.23813 0.0
C2238 C 0.17167 0.76062 0.1951 0.0
C2239 C 0.16429 0.76542 0.20969 0.0
C2240 C 0.15164 0.78508 0.25339 0.0
C2241 C 0.15408 0.77709 0.23815 0.0
H2242 H 0.17112 0.76334 0.1542 0.0
H2243 H 0.15672 0.76851 0.1779 0.0
H2244 H 0.16254 0.74247 0.22443 0.0
H2245 H 0.17531 0.80312 0.28849 0.0
H2246 H 0.17442 0.78386 0.26563 0.0
C2247 C 0.19116 0.39999 0.17801 0.0
C2248 C 0.18427 0.41027 0.1695 0.0
C2249 C 0.18551 0.39417 0.19377 0.0
C2250 C 0.14785 0.38042 0.22226 0.0
H2251 H 0.1871 0.39269 0.25409 0.0
C2252 C 0.16083 0.36634 0.29294 0.0
C2253 C 0.15121 0.34632 0.29276 0.0
C2254 C 0.16142 0.37646 0.27918 0.0
C2255 C 0.17593 0.38941 0.24545 0.0
H2256 H 0.16568 0.4222 0.1711 0.0
H2257 H 0.15523 0.41121 0.1985 0.0
H2258 H 0.19568 0.4058 0.22709 0.0
H2259 H 0.13346 0.32115 0.27849 0.0
H2260 H 0.13431 0.33881 0.25443 0.0
H2261 H 0.12815 0.3632 0.24047 0.0
C2262 C 0.16521 0.40794 0.19285 0.0
C2263 C 0.18088 0.39677 0.22997 0.0
C2264 C 0.17114 0.41411 0.17713 0.0
C2265 C 0.14087 0.3366 0.27898 0.0
C2266 C 0.14132 0.34672 0.26523 0.0
C2267 C 0.14289 0.37277 0.23774 0.0
C2268 C 0.17255 0.39814 0.20135 0.0
C2269 C 0.16694 0.39204 0.21815 0.0
C2270 C 0.15236 0.36672 0.26497 0.0
C2271 C 0.15693 0.37694 0.2494 0.0
H2272 H 0.20086 0.39627 0.17248 0.0
H2273 H 0.19113 0.38634 0.20002 0.0
H2274 H 0.13687 0.37655 0.2133 0.0
H2275 H 0.1694 0.37417 0.30318 0.0
H2276 H 0.17001 0.39188 0.27932 0.0
C2277 C 0.84065 0.60981 0.84046 0.0
C2278 C 0.82461 0.59238 0.84436 0.0
C2279 C 0.84554 0.61481 0.82439 0.0
C2280 C 0.8232 0.60404 0.78426 0.0
H2281 H 0.87452 0.63716 0.76981 0.0
C2282 C 0.83648 0.63393 0.72074 0.0
C2283 C 0.84774 0.65386 0.72022 0.0
C2284 C 0.83658 0.6239 0.73433 0.0
C2285 C 0.86012 0.62785 0.77366 0.0
H2286 H 0.80184 0.56597 0.83467 0.0
H2287 H 0.81061 0.57441 0.80665 0.0
H2288 H 0.86892 0.62392 0.79693 0.0
H2289 H 0.86847 0.67893 0.73312 0.0
H2290 H 0.86873 0.66144 0.75694 0.0
H2291 H 0.81434 0.60827 0.76124 0.0
C2292 C 0.81911 0.58452 0.81591 0.0
C2293 C 0.8569 0.62032 0.78922 0.0
C2294 C 0.81409 0.57964 0.83196 0.0
C2295 C 0.85989 0.66351 0.73316 0.0
C2296 C 0.86006 0.65348 0.74675 0.0
C2297 C 0.82642 0.61143 0.76873 0.0
C2298 C 0.8346 0.60239 0.81189 0.0
C2299 C 0.83836 0.60865 0.79482 0.0
C2300 C 0.84785 0.63364 0.74773 0.0
C2301 C 0.84489 0.62374 0.76336 0.0
H2302 H 0.84893 0.61993 0.8498 0.0
H2303 H 0.85741 0.62878 0.82178 0.0
H2304 H 0.80872 0.59544 0.78819 0.0
H2305 H 0.82643 0.62626 0.71123 0.0
H2306 H 0.82703 0.60864 0.73469 0.0
C2307 C 0.40967 0.23311 0.83456 0.0
C2308 C 0.42934 0.24296 0.83265 0.0
C2309 C 0.39787 0.23177 0.82184 0.0
C2310 C 0.39766 0.25051 0.7808 0.0
H2311 H 0.35443 0.19995 0.77488 0.0
C2312 C 0.3644 0.21568 0.72006 0.0
C2313 C 0.34556 0.20079 0.72005 0.0
C2314 C 0.3725 0.22611 0.73415 0.0
C2315 C 0.36613 0.21434 0.77647 0.0
H2316 H 0.45218 0.25939 0.81612 0.0
H2317 H 0.43164 0.25646 0.79369 0.0
H2318 H 0.37289 0.20733 0.79925 0.0
H2319 H 0.31966 0.1869 0.73372 0.0
H2320 H 0.33353 0.20561 0.75808 0.0
H2321 H 0.3913 0.257 0.7574 0.0
C2322 C 0.42525 0.25023 0.80511 0.0
C2323 C 0.37679 0.21857 0.79052 0.0
C2324 C 0.43704 0.25177 0.8179 0.0
C2325 C 0.33429 0.19822 0.73353 0.0
C2326 C 0.34227 0.20882 0.74749 0.0
C2327 C 0.38701 0.2462 0.76662 0.0
C2328 C 0.40549 0.24 0.80685 0.0
C2329 C 0.39295 0.23656 0.79274 0.0
C2330 C 0.36176 0.22187 0.7483 0.0
C2331 C 0.37133 0.22792 0.76418 0.0
H2332 H 0.40341 0.2265 0.84592 0.0
H2333 H 0.38275 0.22411 0.82373 0.0
H2334 H 0.40984 0.26463 0.78224 0.0
H2335 H 0.37338 0.21787 0.70983 0.0
H2336 H 0.38756 0.23609 0.73435 0.0
C2337 C 0.80267 0.21727 0.83432 0.0
C2338 C 0.807 0.2353 0.84025 0.0
C2339 C 0.80849 0.21538 0.81901 0.0
C2340 C 0.84305 0.24028 0.78749 0.0
H2341 H 0.80509 0.20118 0.75986 0.0
C2342 C 0.85755 0.20458 0.73335 0.0
C2343 C 0.84489 0.19871 0.72032 0.0
C2344 C 0.85524 0.21407 0.74644 0.0
C2345 C 0.81581 0.21237 0.76731 0.0
H2346 H 0.82113 0.26553 0.83464 0.0
H2347 H 0.83175 0.26218 0.80808 0.0
H2348 H 0.79621 0.20685 0.78633 0.0
H2349 H 0.8203 0.19866 0.71053 0.0
H2350 H 0.81668 0.21583 0.73303 0.0
H2351 H 0.86279 0.24535 0.76855 0.0
C2352 C 0.82379 0.24956 0.81536 0.0
C2353 C 0.81076 0.21543 0.78254 0.0
C2354 C 0.81776 0.25145 0.83061 0.0
C2355 C 0.83069 0.20363 0.72011 0.0
C2356 C 0.82839 0.21314 0.73315 0.0
C2357 C 0.84819 0.23704 0.77227 0.0
C2358 C 0.81897 0.23148 0.80934 0.0
C2359 C 0.82436 0.22921 0.79286 0.0
C2360 C 0.84007 0.21761 0.74678 0.0
C2361 C 0.83463 0.22291 0.76209 0.0
H2362 H 0.7948 0.20457 0.8415 0.0
H2363 H 0.80485 0.20129 0.81473 0.0
H2364 H 0.8538 0.25099 0.79527 0.0
H2365 H 0.86844 0.20068 0.73389 0.0
H2366 H 0.86437 0.21721 0.75682 0.0
C2367 C 0.26049 0.1277 0.5122 0.0
C2368 C 0.25151 0.11052 0.50341 0.0
C2369 C 0.26845 0.12848 0.52724 0.0
C2370 C 0.28904 0.10775 0.55296 0.0
H2371 H 0.2726 0.12828 0.58745 0.0
C2372 C 0.33138 0.14609 0.60979 0.0
C2373 C 0.32136 0.14481 0.62383 0.0
C2374 C 0.32184 0.13557 0.59613 0.0
C2375 C 0.27709 0.12215 0.57806 0.0
H2376 H 0.24436 0.08078 0.50354 0.0
H2377 H 0.25899 0.08251 0.52959 0.0
H2378 H 0.25843 0.12377 0.56088 0.0
H2379 H 0.29383 0.13109 0.63492 0.0
H2380 H 0.27717 0.11221 0.61127 0.0
H2381 H 0.30841 0.10704 0.57007 0.0
C2382 C 0.25964 0.09524 0.52477 0.0
C2383 C 0.26914 0.11981 0.56281 0.0
C2384 C 0.25137 0.09434 0.50981 0.0
C2385 C 0.30196 0.13169 0.62447 0.0
C2386 C 0.29239 0.12119 0.61082 0.0
C2387 C 0.29726 0.11038 0.56823 0.0
C2388 C 0.2679 0.11222 0.53371 0.0
C2389 C 0.2753 0.11297 0.55007 0.0
C2390 C 0.30209 0.12387 0.59628 0.0
C2391 C 0.29154 0.11789 0.58087 0.0
H2392 H 0.2613 0.14056 0.50753 0.0
H2393 H 0.27501 0.14182 0.53386 0.0
H2394 H 0.29398 0.10242 0.54327 0.0
H2395 H 0.34632 0.15639 0.60898 0.0
H2396 H 0.32967 0.13805 0.58507 0.0
C2397 C 0.85953 0.09484 0.52225 0.0
C2398 C 0.8529 0.09872 0.508 0.0
C2399 C 0.85199 0.0957 0.53707 0.0
C2400 C 0.82453 0.11577 0.556 0.0
H2401 H 0.82408 0.08557 0.59231 0.0
C2402 C 0.80035 0.12636 0.61711 0.0
C2403 C 0.81492 0.13254 0.62855 0.0
C2404 C 0.80073 0.11681 0.60324 0.0
C2405 C 0.82397 0.09394 0.58222 0.0
H2406 H 0.83282 0.10579 0.49781 0.0
H2407 H 0.81897 0.10647 0.52355 0.0
H2408 H 0.83295 0.07976 0.56576 0.0
H2409 H 0.84097 0.1332 0.6347 0.0
H2410 H 0.84125 0.11583 0.61083 0.0
H2411 H 0.81552 0.12988 0.57247 0.0
C2412 C 0.83047 0.10348 0.52349 0.0
C2413 C 0.82923 0.09079 0.56703 0.0
C2414 C 0.83832 0.10303 0.50872 0.0
C2415 C 0.82908 0.12775 0.62649 0.0
C2416 C 0.82937 0.11803 0.6127 0.0
C2417 C 0.81893 0.11863 0.57107 0.0
C2418 C 0.83736 0.10007 0.53791 0.0
C2419 C 0.82999 0.10198 0.55377 0.0
C2420 C 0.8157 0.11332 0.6006 0.0
C2421 C 0.81893 0.10801 0.58438 0.0
H2422 H 0.87084 0.09154 0.52195 0.0
H2423 H 0.85798 0.09337 0.54785 0.0
H2424 H 0.82529 0.12499 0.54628 0.0
H2425 H 0.78942 0.13012 0.61834 0.0
H2426 H 0.78999 0.11325 0.5941 0.0
C2427 C 0.85394 0.7365 0.50783 0.0
C2428 C 0.84204 0.72544 0.49516 0.0
C2429 C 0.84823 0.73185 0.52381 0.0
C2430 C 0.81724 0.69061 0.5484 0.0
H2431 H 0.82688 0.728 0.58175 0.0
C2432 C 0.8011 0.6656 0.61282 0.0
C2433 C 0.81584 0.67631 0.62367 0.0
C2434 C 0.80024 0.67341 0.59812 0.0
C2435 C 0.82411 0.71739 0.57258 0.0
H2436 H 0.81479 0.70088 0.48937 0.0
H2437 H 0.80482 0.6929 0.51716 0.0
H2438 H 0.83422 0.73822 0.55375 0.0
H2439 H 0.84061 0.70378 0.62821 0.0
H2440 H 0.83944 0.71738 0.60248 0.0
H2441 H 0.80801 0.66991 0.56699 0.0
C2442 C 0.81857 0.70513 0.51476 0.0
C2443 C 0.82834 0.72325 0.55656 0.0
C2444 C 0.82423 0.7098 0.49883 0.0
C2445 C 0.82883 0.69543 0.62019 0.0
C2446 C 0.82819 0.70316 0.60535 0.0
C2447 C 0.81316 0.68479 0.56434 0.0
C2448 C 0.83056 0.71597 0.52744 0.0
C2449 C 0.82511 0.70992 0.54434 0.0
C2450 C 0.81447 0.69187 0.59378 0.0
C2451 C 0.81671 0.69809 0.5767 0.0
H2452 H 0.86766 0.74875 0.50538 0.0
H2453 H 0.85785 0.74036 0.53334 0.0
H2454 H 0.81489 0.68004 0.53931 0.0
H2455 H 0.79098 0.65079 0.61527 0.0
H2456 H 0.78914 0.6645 0.58971 0.0
loop_
_geom_bond_atom_site_label_1
_geom_bond_atom_site_label_2
_geom_bond_distance
_geom_bond_site_symmetry_2
_ccdc_geom_bond_type
C0 C1 1.384 . S
C0 H13 0.947 . S
C0 C35 1.382 . S
C1 C0 1.384 . S
C1 C2 1.378 . S
C2 C1 1.378 . S
C2 C3 1.378 . S
C2 H14 0.952 . S
C3 C2 1.378 . S
C3 H15 0.950 . S
C3 C34 1.383 . S
H4 C23 0.947 . S
H5 C24 0.946 . S
H6 C26 0.953 . S
H7 C27 0.945 . S
H8 C29 0.952 . S
H9 C30 0.949 . S
H10 C32 0.950 . S
H11 C33 0.948 . S
H12 C35 0.951 . S
H13 C0 0.947 . S
H14 C2 0.952 . S
H15 C3 0.950 . S
N16 C19 1.382 . S
N16 C21 1.363 . S
N17 C19 1.371 . S
N17 C20 1.372 . S
N18 C20 1.361 . S
N18 C21 1.377 . S
C19 N16 1.382 . S
C19 N17 1.371 . S
C19 C22 1.480 . S
C20 N17 1.372 . S
C20 N18 1.361 . S
C20 C28 1.457 . S
C21 N16 1.363 . S
C21 N18 1.377 . S
C21 C34 1.479 . S
C22 C19 1.480 . S
C22 C23 1.383 . S
C22 C27 1.385 . S
C23 H4 0.947 . S
C23 C22 1.383 . S
C23 C24 1.388 . S
C24 H5 0.946 . S
C24 C23 1.388 . S
C24 C25 1.384 . S
C25 C24 1.384 . S
C25 C26 1.377 . S
C26 H6 0.953 . S
C26 C25 1.377 . S
C26 C27 1.369 . S
C27 H7 0.945 . S
C27 C22 1.385 . S
C27 C26 1.369 . S
C28 C20 1.457 . S
C28 C29 1.372 . S
C28 C33 1.364 . S
C29 H8 0.952 . S
C29 C28 1.372 . S
C29 C30 1.389 . S
C30 H9 0.949 . S
C30 C29 1.389 . S
C30 C31 1.387 . S
C31 C30 1.387 . S
C31 C32 1.372 . S
C32 H10 0.950 . S
C32 C31 1.372 . S
C32 C33 1.379 . S
C33 H11 0.948 . S
C33 C28 1.364 . S
C33 C32 1.379 . S
C34 C3 1.383 . S
C34 C21 1.479 . S
C34 C35 1.398 . S
C35 C0 1.382 . S
C35 H12 0.951 . S
C35 C34 1.398 . S
C36 C37 1.384 . S
C36 H49 0.947 . S
C36 C71 1.382 . S
C37 C36 1.384 . S
C37 C38 1.378 . S
C38 C37 1.378 . S
C38 C39 1.378 . S
C38 H50 0.952 . S
C39 C38 1.378 . S
C39 H51 0.950 . S
C39 C70 1.383 . S
H40 C59 0.947 . S
H41 C60 0.946 . S
H42 C62 0.953 . S
H43 C63 0.945 . S
H44 C65 0.952 . S
H45 C66 0.949 . S
H46 C68 0.950 . S
H47 C69 0.948 . S
H48 C71 0.951 . S
H49 C36 0.947 . S
H50 C38 0.952 . S
H51 C39 0.950 . S
N52 C55 1.382 . S
N52 C57 1.363 . S
N53 C55 1.371 . S
N53 C56 1.372 . S
N54 C56 1.361 . S
N54 C57 1.377 . S
C55 N52 1.382 . S
C55 N53 1.371 . S
C55 C58 1.480 . S
C56 N53 1.372 . S
C56 N54 1.361 . S
C56 C64 1.457 . S
C57 N52 1.363 . S
C57 N54 1.377 . S
C57 C70 1.479 . S
C58 C55 1.480 . S
C58 C59 1.383 . S
C58 C63 1.385 . S
C59 H40 0.947 . S
C59 C58 1.383 . S
C59 C60 1.388 . S
C60 H41 0.946 . S
C60 C59 1.388 . S
C60 C61 1.384 . S
C61 C60 1.384 . S
C61 C62 1.377 . S
C62 H42 0.953 . S
C62 C61 1.377 . S
C62 C63 1.369 . S
C63 H43 0.945 . S
C63 C58 1.385 . S
C63 C62 1.369 . S
C64 C56 1.457 . S
C64 C65 1.372 . S
C64 C69 1.364 . S
C65 H44 0.952 . S
C65 C64 1.372 . S
C65 C66 1.389 . S
C66 H45 0.949 . S
C66 C65 1.389 . S
C66 C67 1.387 . S
C67 C66 1.387 . S
C67 C68 1.372 . S
C68 H46 0.950 . S
C68 C67 1.372 . S
C68 C69 1.379 . S
C69 H47 0.948 . S
C69 C64 1.364 . S
C69 C68 1.379 . S
C70 C39 1.383 . S
C70 C57 1.479 . S
C70 C71 1.398 . S
C71 C36 1.382 . S
C71 H48 0.951 . S
C71 C70 1.398 . S
C72 C73 1.384 . S
C72 H85 0.947 . S
C72 C107 1.382 . S
C73 C72 1.384 . S
C73 C74 1.378 . S
C74 C73 1.378 . S
C74 C75 1.378 . S
C74 H86 0.952 . S
C75 C74 1.378 . S
C75 H87 0.950 . S
C75 C106 1.383 . S
H76 C95 0.947 . S
H77 C96 0.946 . S
H78 C98 0.953 . S
H79 C99 0.945 . S
H80 C101 0.952 . S
H81 C102 0.949 . S
H82 C104 0.950 . S
H83 C105 0.948 . S
H84 C107 0.951 . S
H85 C72 0.947 . S
H86 C74 0.952 . S
H87 C75 0.950 . S
N88 C91 1.382 . S
N88 C93 1.363 . S
N89 C91 1.371 . S
N89 C92 1.372 . S
N90 C92 1.361 . S
N90 C93 1.377 . S
C91 N88 1.382 . S
C91 N89 1.371 . S
C91 C94 1.480 . S
C92 N89 1.372 . S
C92 N90 1.361 . S
C92 C100 1.457 . S
C93 N88 1.363 . S
C93 N90 1.377 . S
C93 C106 1.479 . S
C94 C91 1.480 . S
C94 C95 1.383 . S
C94 C99 1.385 . S
C95 H76 0.947 . S
C95 C94 1.383 . S
C95 C96 1.388 . S
C96 H77 0.946 . S
C96 C95 1.388 . S
C96 C97 1.384 . S
C97 C96 1.384 . S
C97 C98 1.377 . S
C98 H78 0.953 . S
C98 C97 1.377 . S
C98 C99 1.369 . S
C99 H79 0.945 . S
C99 C94 1.385 . S
C99 C98 1.369 . S
C100 C92 1.457 . S
C100 C101 1.372 . S
C100 C105 1.364 . S
C101 H80 0.952 . S
C101 C100 1.372 . S
C101 C102 1.389 . S
C102 H81 0.949 . S
C102 C101 1.389 . S
C102 C103 1.387 . S
C103 C102 1.387 . S
C103 C104 1.372 . S
C104 H82 0.950 . S
C104 C103 1.372 . S
C104 C105 1.379 . S
C105 H83 0.948 . S
C105 C100 1.364 . S
C105 C104 1.379 . S
C106 C75 1.383 . S
C106 C93 1.479 . S
C106 C107 1.398 . S
C107 C72 1.382 . S
C107 H84 0.951 . S
C107 C106 1.398 . S
C108 C109 1.384 . S
C108 H121 0.947 . S
C108 C143 1.382 . S
C109 C108 1.384 . S
C109 C110 1.378 . S
C110 C109 1.378 . S
C110 C111 1.378 . S
C110 H122 0.952 . S
C111 C110 1.378 . S
C111 H123 0.950 . S
C111 C142 1.383 . S
H112 C131 0.947 . S
H113 C132 0.946 . S
H114 C134 0.953 . S
H115 C135 0.945 . S
H116 C137 0.952 . S
H117 C138 0.949 . S
H118 C140 0.950 . S
H119 C141 0.948 . S
H120 C143 0.951 . S
H121 C108 0.947 . S
H122 C110 0.952 . S
H123 C111 0.950 . S
N124 C127 1.382 . S
N124 C129 1.363 . S
N125 C127 1.371 . S
N125 C128 1.372 . S
N126 C128 1.361 . S
N126 C129 1.377 . S
C127 N124 1.382 . S
C127 N125 1.371 . S
C127 C130 1.480 . S
C128 N125 1.372 . S
C128 N126 1.361 . S
C128 C136 1.457 . S
C129 N124 1.363 . S
C129 N126 1.377 . S
C129 C142 1.479 . S
C130 C127 1.480 . S
C130 C131 1.383 . S
C130 C135 1.385 . S
C131 H112 0.947 . S
C131 C130 1.383 . S
C131 C132 1.388 . S
C132 H113 0.946 . S
C132 C131 1.388 . S
C132 C133 1.384 . S
C133 C132 1.384 . S
C133 C134 1.377 . S
C134 H114 0.953 . S
C134 C133 1.377 . S
C134 C135 1.369 . S
C135 H115 0.945 . S
C135 C130 1.385 . S
C135 C134 1.369 . S
C136 C128 1.457 . S
C136 C137 1.372 . S
C136 C141 1.364 . S
C137 H116 0.952 . S
C137 C136 1.372 . S
C137 C138 1.389 . S
C138 H117 0.949 . S
C138 C137 1.389 . S
C138 C139 1.387 . S
C139 C138 1.387 . S
C139 C140 1.372 . S
C140 H118 0.950 . S
C140 C139 1.372 . S
C140 C141 1.379 . S
C141 H119 0.948 . S
C141 C136 1.364 . S
C141 C140 1.379 . S
C142 C111 1.383 . S
C142 C129 1.479 . S
C142 C143 1.398 . S
C143 C108 1.382 . S
C143 H120 0.951 . S
C143 C142 1.398 . S
C144 C145 1.384 . S
C144 H157 0.947 . S
C144 C179 1.382 . S
C145 C144 1.384 . S
C145 C146 1.378 . S
C146 C145 1.378 . S
C146 C147 1.378 . S
C146 H158 0.952 . S
C147 C146 1.378 . S
C147 H159 0.950 . S
C147 C178 1.383 . S
H148 C167 0.947 . S
H149 C168 0.946 . S
H150 C170 0.953 . S
H151 C171 0.945 . S
H152 C173 0.952 . S
H153 C174 0.949 . S
H154 C176 0.950 . S
H155 C177 0.948 . S
H156 C179 0.951 . S
H157 C144 0.947 . S
H158 C146 0.952 . S
H159 C147 0.950 . S
N160 C163 1.382 . S
N160 C165 1.363 . S
N161 C163 1.371 . S
N161 C164 1.372 . S
N162 C164 1.361 . S
N162 C165 1.377 . S
C163 N160 1.382 . S
C163 N161 1.371 . S
C163 C166 1.480 . S
C164 N161 1.372 . S
C164 N162 1.361 . S
C164 C172 1.457 . S
C165 N160 1.363 . S
C165 N162 1.377 . S
C165 C178 1.479 . S
C166 C163 1.480 . S
C166 C167 1.383 . S
C166 C171 1.385 . S
C167 H148 0.947 . S
C167 C166 1.383 . S
C167 C168 1.388 . S
C168 H149 0.946 . S
C168 C167 1.388 . S
C168 C169 1.384 . S
C169 C168 1.384 . S
C169 C170 1.377 . S
C170 H150 0.953 . S
C170 C169 1.377 . S
C170 C171 1.369 . S
C171 H151 0.945 . S
C171 C166 1.385 . S
C171 C170 1.369 . S
C172 C164 1.457 . S
C172 C173 1.372 . S
C172 C177 1.364 . S
C173 H152 0.952 . S
C173 C172 1.372 . S
C173 C174 1.389 . S
C174 H153 0.949 . S
C174 C173 1.389 . S
C174 C175 1.387 . S
C175 C174 1.387 . S
C175 C176 1.372 . S
C176 H154 0.950 . S
C176 C175 1.372 . S
C176 C177 1.379 . S
C177 H155 0.948 . S
C177 C172 1.364 . S
C177 C176 1.379 . S
C178 C147 1.383 . S
C178 C165 1.479 . S
C178 C179 1.398 . S
C179 C144 1.382 . S
C179 H156 0.951 . S
C179 C178 1.398 . S
C180 C181 1.384 . S
C180 H193 0.947 . S
C180 C215 1.382 . S
C181 C180 1.384 . S
C181 C182 1.378 . S
C182 C181 1.378 . S
C182 C183 1.378 . S
C182 H194 0.952 . S
C183 C182 1.378 . S
C183 H195 0.950 . S
C183 C214 1.383 . S
H184 C203 0.947 . S
H185 C204 0.946 . S
H186 C206 0.953 . S
H187 C207 0.945 . S
H188 C209 0.952 . S
H189 C210 0.949 . S
H190 C212 0.950 . S
H191 C213 0.948 . S
H192 C215 0.951 . S
H193 C180 0.947 . S
H194 C182 0.952 . S
H195 C183 0.950 . S
N196 C199 1.382 . S
N196 C201 1.363 . S
N197 C199 1.371 . S
N197 C200 1.372 . S
N198 C200 1.361 . S
N198 C201 1.377 . S
C199 N196 1.382 . S
C199 N197 1.371 . S
C199 C202 1.480 . S
C200 N197 1.372 . S
C200 N198 1.361 . S
C200 C208 1.457 . S
C201 N196 1.363 . S
C201 N198 1.377 . S
C201 C214 1.479 . S
C202 C199 1.480 . S
C202 C203 1.383 . S
C202 C207 1.385 . S
C203 H184 0.947 . S
C203 C202 1.383 . S
C203 C204 1.388 . S
C204 H185 0.946 . S
C204 C203 1.388 . S
C204 C205 1.384 . S
C205 C204 1.384 . S
C205 C206 1.377 . S
C206 H186 0.953 . S
C206 C205 1.377 . S
C206 C207 1.369 . S
C207 H187 0.945 . S
C207 C202 1.385 . S
C207 C206 1.369 . S
C208 C200 1.457 . S
C208 C209 1.372 . S
C208 C213 1.364 . S
C209 H188 0.952 . S
C209 C208 1.372 . S
C209 C210 1.389 . S
C210 H189 0.949 . S
C210 C209 1.389 . S
C210 C211 1.387 . S
C211 C210 1.387 . S
C211 C212 1.372 . S
C212 H190 0.950 . S
C212 C211 1.372 . S
C212 C213 1.379 . S
C213 H191 0.948 . S
C213 C208 1.364 . S
C213 C212 1.379 . S
C214 C183 1.383 . S
C214 C201 1.479 . S
C214 C215 1.398 . S
C215 C180 1.382 . S
C215 H192 0.951 . S
C215 C214 1.398 . S
C216 C217 1.384 . S
C216 H229 0.947 . S
C216 C251 1.382 . S
C217 C216 1.384 . S
C217 C218 1.378 . S
C218 C217 1.378 . S
C218 C219 1.378 . S
C218 H230 0.952 . S
C219 C218 1.378 . S
C219 H231 0.950 . S
C219 C250 1.383 . S
H220 C239 0.947 . S
H221 C240 0.946 . S
H222 C242 0.953 . S
H223 C243 0.945 . S
H224 C245 0.952 . S
H225 C246 0.949 . S
H226 C248 0.950 . S
H227 C249 0.948 . S
H228 C251 0.951 . S
H229 C216 0.947 . S
H230 C218 0.952 . S
H231 C219 0.950 . S
N232 C235 1.382 . S
N232 C237 1.363 . S
N233 C235 1.371 . S
N233 C236 1.372 . S
N234 C236 1.361 . S
N234 C237 1.377 . S
C235 N232 1.382 . S
C235 N233 1.371 . S
C235 C238 1.480 . S
C236 N233 1.372 . S
C236 N234 1.361 . S
C236 C244 1.457 . S
C237 N232 1.363 . S
C237 N234 1.377 . S
C237 C250 1.479 . S
C238 C235 1.480 . S
C238 C239 1.383 . S
C238 C243 1.385 . S
C239 H220 0.947 . S
C239 C238 1.383 . S
C239 C240 1.388 . S
C240 H221 0.946 . S
C240 C239 1.388 . S
C240 C241 1.384 . S
C241 C240 1.384 . S
C241 C242 1.377 . S
C242 H222 0.953 . S
C242 C241 1.377 . S
C242 C243 1.369 . S
C243 H223 0.945 . S
C243 C238 1.385 . S
C243 C242 1.369 . S
C244 C236 1.457 . S
C244 C245 1.372 . S
C244 C249 1.364 . S
C245 H224 0.952 . S
C245 C244 1.372 . S
C245 C246 1.389 . S
C246 H225 0.949 . S
C246 C245 1.389 . S
C246 C247 1.387 . S
C247 C246 1.387 . S
C247 C248 1.372 . S
C248 H226 0.950 . S
C248 C247 1.372 . S
C248 C249 1.379 . S
C249 H227 0.948 . S
C249 C244 1.364 . S
C249 C248 1.379 . S
C250 C219 1.383 . S
C250 C237 1.479 . S
C250 C251 1.398 . S
C251 C216 1.382 . S
C251 H228 0.951 . S
C251 C250 1.398 . S
C252 C253 1.384 . S
C252 H265 0.947 . S
C252 C287 1.382 . S
C253 C252 1.384 . S
C253 C254 1.378 . S
C254 C253 1.378 . S
C254 C255 1.378 . S
C254 H266 0.952 . S
C255 C254 1.378 . S
C255 H267 0.950 . S
C255 C286 1.383 . S
H256 C275 0.947 . S
H257 C276 0.946 . S
H258 C278 0.953 . S
H259 C279 0.945 . S
H260 C281 0.952 . S
H261 C282 0.949 . S
H262 C284 0.950 . S
H263 C285 0.948 . S
H264 C287 0.951 . S
H265 C252 0.947 . S
H266 C254 0.952 . S
H267 C255 0.950 . S
N268 C271 1.382 . S
N268 C273 1.363 . S
N269 C271 1.371 . S
N269 C272 1.372 . S
N270 C272 1.361 . S
N270 C273 1.377 . S
C271 N268 1.382 . S
C271 N269 1.371 . S
C271 C274 1.480 . S
C272 N269 1.372 . S
C272 N270 1.361 . S
C272 C280 1.457 . S
C273 N268 1.363 . S
C273 N270 1.377 . S
C273 C286 1.479 . S
C274 C271 1.480 . S
C274 C275 1.383 . S
C274 C279 1.385 . S
C275 H256 0.947 . S
C275 C274 1.383 . S
C275 C276 1.388 . S
C276 H257 0.946 . S
C276 C275 1.388 . S
C276 C277 1.384 . S
C277 C276 1.384 . S
C277 C278 1.377 . S
C278 H258 0.953 . S
C278 C277 1.377 . S
C278 C279 1.369 . S
C279 H259 0.945 . S
C279 C274 1.385 . S
C279 C278 1.369 . S
C280 C272 1.457 . S
C280 C281 1.372 . S
C280 C285 1.364 . S
C281 H260 0.952 . S
C281 C280 1.372 . S
C281 C282 1.389 . S
C282 H261 0.949 . S
C282 C281 1.389 . S
C282 C283 1.387 . S
C283 C282 1.387 . S
C283 C284 1.372 . S
C284 H262 0.950 . S
C284 C283 1.372 . S
C284 C285 1.379 . S
C285 H263 0.948 . S
C285 C280 1.364 . S
C285 C284 1.379 . S
C286 C255 1.383 . S
C286 C273 1.479 . S
C286 C287 1.398 . S
C287 C252 1.382 . S
C287 H264 0.951 . S
C287 C286 1.398 . S
C288 C289 1.384 . S
C288 H301 0.947 . S
C288 C323 1.382 . S
C289 C288 1.384 . S
C289 C290 1.378 . S
C290 C289 1.378 . S
C290 C291 1.378 . S
C290 H302 0.952 . S
C291 C290 1.378 . S
C291 H303 0.950 . S
C291 C322 1.383 . S
H292 C311 0.947 . S
H293 C312 0.946 . S
H294 C314 0.953 . S
H295 C315 0.945 . S
H296 C317 0.952 . S
H297 C318 0.949 . S
H298 C320 0.950 . S
H299 C321 0.948 . S
H300 C323 0.951 . S
H301 C288 0.947 . S
H302 C290 0.952 . S
H303 C291 0.950 . S
N304 C307 1.382 . S
N304 C309 1.363 . S
N305 C307 1.371 . S
N305 C308 1.372 . S
N306 C308 1.361 . S
N306 C309 1.377 . S
C307 N304 1.382 . S
C307 N305 1.371 . S
C307 C310 1.480 . S
C308 N305 1.372 . S
C308 N306 1.361 . S
C308 C316 1.457 . S
C309 N304 1.363 . S
C309 N306 1.377 . S
C309 C322 1.479 . S
C310 C307 1.480 . S
C310 C311 1.383 . S
C310 C315 1.385 . S
C311 H292 0.947 . S
C311 C310 1.383 . S
C311 C312 1.388 . S
C312 H293 0.946 . S
C312 C311 1.388 . S
C312 C313 1.384 . S
C313 C312 1.384 . S
C313 C314 1.377 . S
C314 H294 0.953 . S
C314 C313 1.377 . S
C314 C315 1.369 . S
C315 H295 0.945 . S
C315 C310 1.385 . S
C315 C314 1.369 . S
C316 C308 1.457 . S
C316 C317 1.372 . S
C316 C321 1.364 . S
C317 H296 0.952 . S
C317 C316 1.372 . S
C317 C318 1.389 . S
C318 H297 0.949 . S
C318 C317 1.389 . S
C318 C319 1.387 . S
C319 C318 1.387 . S
C319 C320 1.372 . S
C320 H298 0.950 . S
C320 C319 1.372 . S
C320 C321 1.379 . S
C321 H299 0.948 . S
C321 C316 1.364 . S
C321 C320 1.379 . S
C322 C291 1.383 . S
C322 C309 1.479 . S
C322 C323 1.398 . S
C323 C288 1.382 . S
C323 H300 0.951 . S
C323 C322 1.398 . S
C324 C325 1.384 . S
C324 H337 0.947 . S
C324 C359 1.382 . S
C325 C324 1.384 . S
C325 C326 1.378 . S
C326 C325 1.378 . S
C326 C327 1.378 . S
C326 H338 0.952 . S
C327 C326 1.378 . S
C327 H339 0.950 . S
C327 C358 1.383 . S
H328 C347 0.947 . S
H329 C348 0.946 . S
H330 C350 0.953 . S
H331 C351 0.945 . S
H332 C353 0.952 . S
H333 C354 0.949 . S
H334 C356 0.950 . S
H335 C357 0.948 . S
H336 C359 0.951 . S
H337 C324 0.947 . S
H338 C326 0.952 . S
H339 C327 0.950 . S
N340 C343 1.382 . S
N340 C345 1.363 . S
N341 C343 1.371 . S
N341 C344 1.372 . S
N342 C344 1.361 . S
N342 C345 1.377 . S
C343 N340 1.382 . S
C343 N341 1.371 . S
C343 C346 1.480 . S
C344 N341 1.372 . S
C344 N342 1.361 . S
C344 C352 1.457 . S
C345 N340 1.363 . S
C345 N342 1.377 . S
C345 C358 1.479 . S
C346 C343 1.480 . S
C346 C347 1.383 . S
C346 C351 1.385 . S
C347 H328 0.947 . S
C347 C346 1.383 . S
C347 C348 1.388 . S
C348 H329 0.946 . S
C348 C347 1.388 . S
C348 C349 1.384 . S
C349 C348 1.384 . S
C349 C350 1.377 . S
C350 H330 0.953 . S
C350 C349 1.377 . S
C350 C351 1.369 . S
C351 H331 0.945 . S
C351 C346 1.385 . S
C351 C350 1.369 . S
C352 C344 1.457 . S
C352 C353 1.372 . S
C352 C357 1.364 . S
C353 H332 0.952 . S
C353 C352 1.372 . S
C353 C354 1.389 . S
C354 H333 0.949 . S
C354 C353 1.389 . S
C354 C355 1.387 . S
C355 C354 1.387 . S
C355 C356 1.372 . S
C356 H334 0.950 . S
C356 C355 1.372 . S
C356 C357 1.379 . S
C357 H335 0.948 . S
C357 C352 1.364 . S
C357 C356 1.379 . S
C358 C327 1.383 . S
C358 C345 1.479 . S
C358 C359 1.398 . S
C359 C324 1.382 . S
C359 H336 0.951 . S
C359 C358 1.398 . S
C360 C361 1.384 . S
C360 H373 0.947 . S
C360 C395 1.382 . S
C361 C360 1.384 . S
C361 C362 1.378 . S
C362 C361 1.378 . S
C362 C363 1.378 . S
C362 H374 0.952 . S
C363 C362 1.378 . S
C363 H375 0.950 . S
C363 C394 1.383 . S
H364 C383 0.947 . S
H365 C384 0.946 . S
H366 C386 0.953 . S
H367 C387 0.945 . S
H368 C389 0.952 . S
H369 C390 0.949 . S
H370 C392 0.950 . S
H371 C393 0.948 . S
H372 C395 0.951 . S
H373 C360 0.947 . S
H374 C362 0.952 . S
H375 C363 0.950 . S
N376 C379 1.382 . S
N376 C381 1.363 . S
N377 C379 1.371 . S
N377 C380 1.372 . S
N378 C380 1.361 . S
N378 C381 1.377 . S
C379 N376 1.382 . S
C379 N377 1.371 . S
C379 C382 1.480 . S
C380 N377 1.372 . S
C380 N378 1.361 . S
C380 C388 1.457 . S
C381 N376 1.363 . S
C381 N378 1.377 . S
C381 C394 1.479 . S
C382 C379 1.480 . S
C382 C383 1.383 . S
C382 C387 1.385 . S
C383 H364 0.947 . S
C383 C382 1.383 . S
C383 C384 1.388 . S
C384 H365 0.946 . S
C384 C383 1.388 . S
C384 C385 1.384 . S
C385 C384 1.384 . S
C385 C386 1.377 . S
C386 H366 0.953 . S
C386 C385 1.377 . S
C386 C387 1.369 . S
C387 H367 0.945 . S
C387 C382 1.385 . S
C387 C386 1.369 . S
C388 C380 1.457 . S
C388 C389 1.372 . S
C388 C393 1.364 . S
C389 H368 0.952 . S
C389 C388 1.372 . S
C389 C390 1.389 . S
C390 H369 0.949 . S
C390 C389 1.389 . S
C390 C391 1.387 . S
C391 C390 1.387 . S
C391 C392 1.372 . S
C392 H370 0.950 . S
C392 C391 1.372 . S
C392 C393 1.379 . S
C393 H371 0.948 . S
C393 C388 1.364 . S
C393 C392 1.379 . S
C394 C363 1.383 . S
C394 C381 1.479 . S
C394 C395 1.398 . S
C395 C360 1.382 . S
C395 H372 0.951 . S
C395 C394 1.398 . S
C396 C397 1.384 . S
C396 H409 0.947 . S
C396 C431 1.382 . S
C397 C396 1.384 . S
C397 C398 1.378 . S
C398 C397 1.378 . S
C398 C399 1.378 . S
C398 H410 0.952 . S
C399 C398 1.378 . S
C399 H411 0.950 . S
C399 C430 1.383 . S
H400 C419 0.947 . S
H401 C420 0.946 . S
H402 C422 0.953 . S
H403 C423 0.945 . S
H404 C425 0.952 . S
H405 C426 0.949 . S
H406 C428 0.950 . S
H407 C429 0.948 . S
H408 C431 0.951 . S
H409 C396 0.947 . S
H410 C398 0.952 . S
H411 C399 0.950 . S
N412 C415 1.382 . S
N412 C417 1.363 . S
N413 C415 1.371 . S
N413 C416 1.372 . S
N414 C416 1.361 . S
N414 C417 1.377 . S
C415 N412 1.382 . S
C415 N413 1.371 . S
C415 C418 1.480 . S
C416 N413 1.372 . S
C416 N414 1.361 . S
C416 C424 1.457 . S
C417 N412 1.363 . S
C417 N414 1.377 . S
C417 C430 1.479 . S
C418 C415 1.480 . S
C418 C419 1.383 . S
C418 C423 1.385 . S
C419 H400 0.947 . S
C419 C418 1.383 . S
C419 C420 1.388 . S
C420 H401 0.946 . S
C420 C419 1.388 . S
C420 C421 1.384 . S
C421 C420 1.384 . S
C421 C422 1.377 . S
C422 H402 0.953 . S
C422 C421 1.377 . S
C422 C423 1.369 . S
C423 H403 0.945 . S
C423 C418 1.385 . S
C423 C422 1.369 . S
C424 C416 1.457 . S
C424 C425 1.372 . S
C424 C429 1.364 . S
C425 H404 0.952 . S
C425 C424 1.372 . S
C425 C426 1.389 . S
C426 H405 0.949 . S
C426 C425 1.389 . S
C426 C427 1.387 . S
C427 C426 1.387 . S
C427 C428 1.372 . S
C428 H406 0.950 . S
C428 C427 1.372 . S
C428 C429 1.379 . S
C429 H407 0.948 . S
C429 C424 1.364 . S
C429 C428 1.379 . S
C430 C399 1.383 . S
C430 C417 1.479 . S
C430 C431 1.398 . S
C431 C396 1.382 . S
C431 H408 0.951 . S
C431 C430 1.398 . S
C432 C433 1.384 . S
C432 H445 0.947 . S
C432 C467 1.382 . S
C433 C432 1.384 . S
C433 C434 1.378 . S
C434 C433 1.378 . S
C434 C435 1.378 . S
C434 H446 0.952 . S
C435 C434 1.378 . S
C435 H447 0.950 . S
C435 C466 1.383 . S
H436 C455 0.947 . S
H437 C456 0.946 . S
H438 C458 0.953 . S
H439 C459 0.945 . S
H440 C461 0.952 . S
H441 C462 0.949 . S
H442 C464 0.950 . S
H443 C465 0.948 . S
H444 C467 0.951 . S
H445 C432 0.947 . S
H446 C434 0.952 . S
H447 C435 0.950 . S
N448 C451 1.382 . S
N448 C453 1.363 . S
N449 C451 1.371 . S
N449 C452 1.372 . S
N450 C452 1.361 . S
N450 C453 1.377 . S
C451 N448 1.382 . S
C451 N449 1.371 . S
C451 C454 1.480 . S
C452 N449 1.372 . S
C452 N450 1.361 . S
C452 C460 1.457 . S
C453 N448 1.363 . S
C453 N450 1.377 . S
C453 C466 1.479 . S
C454 C451 1.480 . S
C454 C455 1.383 . S
C454 C459 1.385 . S
C455 H436 0.947 . S
C455 C454 1.383 . S
C455 C456 1.388 . S
C456 H437 0.946 . S
C456 C455 1.388 . S
C456 C457 1.384 . S
C457 C456 1.384 . S
C457 C458 1.377 . S
C458 H438 0.953 . S
C458 C457 1.377 . S
C458 C459 1.369 . S
C459 H439 0.945 . S
C459 C454 1.385 . S
C459 C458 1.369 . S
C460 C452 1.457 . S
C460 C461 1.372 . S
C460 C465 1.364 . S
C461 H440 0.952 . S
C461 C460 1.372 . S
C461 C462 1.389 . S
C462 H441 0.949 . S
C462 C461 1.389 . S
C462 C463 1.387 . S
C463 C462 1.387 . S
C463 C464 1.372 . S
C464 H442 0.950 . S
C464 C463 1.372 . S
C464 C465 1.379 . S
C465 H443 0.948 . S
C465 C460 1.364 . S
C465 C464 1.379 . S
C466 C435 1.383 . S
C466 C453 1.479 . S
C466 C467 1.398 . S
C467 C432 1.382 . S
C467 H444 0.951 . S
C467 C466 1.398 . S
C468 C469 1.384 . S
C468 H481 0.947 . S
C468 C503 1.382 . S
C469 C468 1.384 . S
C469 C470 1.378 . S
C470 C469 1.378 . S
C470 C471 1.378 . S
C470 H482 0.952 . S
C471 C470 1.378 . S
C471 H483 0.950 . S
C471 C502 1.383 . S
H472 C491 0.947 . S
H473 C492 0.946 . S
H474 C494 0.953 . S
H475 C495 0.945 . S
H476 C497 0.952 . S
H477 C498 0.949 . S
H478 C500 0.950 . S
H479 C501 0.948 . S
H480 C503 0.951 . S
H481 C468 0.947 . S
H482 C470 0.952 . S
H483 C471 0.950 . S
N484 C487 1.382 . S
N484 C489 1.363 . S
N485 C487 1.371 . S
N485 C488 1.372 . S
N486 C488 1.361 . S
N486 C489 1.377 . S
C487 N484 1.382 . S
C487 N485 1.371 . S
C487 C490 1.480 . S
C488 N485 1.372 . S
C488 N486 1.361 . S
C488 C496 1.457 . S
C489 N484 1.363 . S
C489 N486 1.377 . S
C489 C502 1.479 . S
C490 C487 1.480 . S
C490 C491 1.383 . S
C490 C495 1.385 . S
C491 H472 0.947 . S
C491 C490 1.383 . S
C491 C492 1.388 . S
C492 H473 0.946 . S
C492 C491 1.388 . S
C492 C493 1.384 . S
C493 C492 1.384 . S
C493 C494 1.377 . S
C494 H474 0.953 . S
C494 C493 1.377 . S
C494 C495 1.369 . S
C495 H475 0.945 . S
C495 C490 1.385 . S
C495 C494 1.369 . S
C496 C488 1.457 . S
C496 C497 1.372 . S
C496 C501 1.364 . S
C497 H476 0.952 . S
C497 C496 1.372 . S
C497 C498 1.389 . S
C498 H477 0.949 . S
C498 C497 1.389 . S
C498 C499 1.387 . S
C499 C498 1.387 . S
C499 C500 1.372 . S
C500 H478 0.950 . S
C500 C499 1.372 . S
C500 C501 1.379 . S
C501 H479 0.948 . S
C501 C496 1.364 . S
C501 C500 1.379 . S
C502 C471 1.383 . S
C502 C489 1.479 . S
C502 C503 1.398 . S
C503 C468 1.382 . S
C503 H480 0.951 . S
C503 C502 1.398 . S
C504 C505 1.384 . S
C504 H517 0.947 . S
C504 C539 1.382 . S
C505 C504 1.384 . S
C505 C506 1.378 . S
C506 C505 1.378 . S
C506 C507 1.378 . S
C506 H518 0.952 . S
C507 C506 1.378 . S
C507 H519 0.950 . S
C507 C538 1.383 . S
H508 C527 0.947 . S
H509 C528 0.946 . S
H510 C530 0.953 . S
H511 C531 0.945 . S
H512 C533 0.952 . S
H513 C534 0.949 . S
H514 C536 0.950 . S
H515 C537 0.948 . S
H516 C539 0.951 . S
H517 C504 0.947 . S
H518 C506 0.952 . S
H519 C507 0.950 . S
N520 C523 1.382 . S
N520 C525 1.363 . S
N521 C523 1.371 . S
N521 C524 1.372 . S
N522 C524 1.361 . S
N522 C525 1.377 . S
C523 N520 1.382 . S
C523 N521 1.371 . S
C523 C526 1.480 . S
C524 N521 1.372 . S
C524 N522 1.361 . S
C524 C532 1.457 . S
C525 N520 1.363 . S
C525 N522 1.377 . S
C525 C538 1.479 . S
C526 C523 1.480 . S
C526 C527 1.383 . S
C526 C531 1.385 . S
C527 H508 0.947 . S
C527 C526 1.383 . S
C527 C528 1.388 . S
C528 H509 0.946 . S
C528 C527 1.388 . S
C528 C529 1.384 . S
C529 C528 1.384 . S
C529 C530 1.377 . S
C530 H510 0.953 . S
C530 C529 1.377 . S
C530 C531 1.369 . S
C531 H511 0.945 . S
C531 C526 1.385 . S
C531 C530 1.369 . S
C532 C524 1.457 . S
C532 C533 1.372 . S
C532 C537 1.364 . S
C533 H512 0.952 . S
C533 C532 1.372 . S
C533 C534 1.389 . S
C534 H513 0.949 . S
C534 C533 1.389 . S
C534 C535 1.387 . S
C535 C534 1.387 . S
C535 C536 1.372 . S
C536 H514 0.950 . S
C536 C535 1.372 . S
C536 C537 1.379 . S
C537 H515 0.948 . S
C537 C532 1.364 . S
C537 C536 1.379 . S
C538 C507 1.383 . S
C538 C525 1.479 . S
C538 C539 1.398 . S
C539 C504 1.382 . S
C539 H516 0.951 . S
C539 C538 1.398 . S
C540 C541 1.384 . S
C540 H553 0.947 . S
C540 C575 1.382 . S
C541 C540 1.384 . S
C541 C542 1.378 . S
C542 C541 1.378 . S
C542 C543 1.378 . S
C542 H554 0.952 . S
C543 C542 1.378 . S
C543 H555 0.950 . S
C543 C574 1.383 . S
H544 C563 0.947 . S
H545 C564 0.946 . S
H546 C566 0.953 . S
H547 C567 0.945 . S
H548 C569 0.952 . S
H549 C570 0.949 . S
H550 C572 0.950 . S
H551 C573 0.948 . S
H552 C575 0.951 . S
H553 C540 0.947 . S
H554 C542 0.952 . S
H555 C543 0.950 . S
N556 C559 1.382 . S
N556 C561 1.363 . S
N557 C559 1.371 . S
N557 C560 1.372 . S
N558 C560 1.361 . S
N558 C561 1.377 . S
C559 N556 1.382 . S
C559 N557 1.371 . S
C559 C562 1.480 . S
C560 N557 1.372 . S
C560 N558 1.361 . S
C560 C568 1.457 . S
C561 N556 1.363 . S
C561 N558 1.377 . S
C561 C574 1.479 . S
C562 C559 1.480 . S
C562 C563 1.383 . S
C562 C567 1.385 . S
C563 H544 0.947 . S
C563 C562 1.383 . S
C563 C564 1.388 . S
C564 H545 0.946 . S
C564 C563 1.388 . S
C564 C565 1.384 . S
C565 C564 1.384 . S
C565 C566 1.377 . S
C566 H546 0.953 . S
C566 C565 1.377 . S
C566 C567 1.369 . S
C567 H547 0.945 . S
C567 C562 1.385 . S
C567 C566 1.369 . S
C568 C560 1.457 . S
C568 C569 1.372 . S
C568 C573 1.364 . S
C569 H548 0.952 . S
C569 C568 1.372 . S
C569 C570 1.389 . S
C570 H549 0.949 . S
C570 C569 1.389 . S
C570 C571 1.387 . S
C571 C570 1.387 . S
C571 C572 1.372 . S
C572 H550 0.950 . S
C572 C571 1.372 . S
C572 C573 1.379 . S
C573 H551 0.948 . S
C573 C568 1.364 . S
C573 C572 1.379 . S
C574 C543 1.383 . S
C574 C561 1.479 . S
C574 C575 1.398 . S
C575 C540 1.382 . S
C575 H552 0.951 . S
C575 C574 1.398 . S
C576 C577 1.384 . S
C576 H589 0.947 . S
C576 C611 1.382 . S
C577 C576 1.384 . S
C577 C578 1.378 . S
C578 C577 1.378 . S
C578 C579 1.378 . S
C578 H590 0.952 . S
C579 C578 1.378 . S
C579 H591 0.950 . S
C579 C610 1.383 . S
H580 C599 0.947 . S
H581 C600 0.946 . S
H582 C602 0.953 . S
H583 C603 0.945 . S
H584 C605 0.952 . S
H585 C606 0.949 . S
H586 C608 0.950 . S
H587 C609 0.948 . S
H588 C611 0.951 . S
H589 C576 0.947 . S
H590 C578 0.952 . S
H591 C579 0.950 . S
N592 C595 1.382 . S
N592 C597 1.363 . S
N593 C595 1.371 . S
N593 C596 1.372 . S
N594 C596 1.361 . S
N594 C597 1.377 . S
C595 N592 1.382 . S
C595 N593 1.371 . S
C595 C598 1.480 . S
C596 N593 1.372 . S
C596 N594 1.361 . S
C596 C604 1.457 . S
C597 N592 1.363 . S
C597 N594 1.377 . S
C597 C610 1.479 . S
C598 C595 1.480 . S
C598 C599 1.383 . S
C598 C603 1.385 . S
C599 H580 0.947 . S
C599 C598 1.383 . S
C599 C600 1.388 . S
C600 H581 0.946 . S
C600 C599 1.388 . S
C600 C601 1.384 . S
C601 C600 1.384 . S
C601 C602 1.377 . S
C602 H582 0.953 . S
C602 C601 1.377 . S
C602 C603 1.369 . S
C603 H583 0.945 . S
C603 C598 1.385 . S
C603 C602 1.369 . S
C604 C596 1.457 . S
C604 C605 1.372 . S
C604 C609 1.364 . S
C605 H584 0.952 . S
C605 C604 1.372 . S
C605 C606 1.389 . S
C606 H585 0.949 . S
C606 C605 1.389 . S
C606 C607 1.387 . S
C607 C606 1.387 . S
C607 C608 1.372 . S
C608 H586 0.950 . S
C608 C607 1.372 . S
C608 C609 1.379 . S
C609 H587 0.948 . S
C609 C604 1.364 . S
C609 C608 1.379 . S
C610 C579 1.383 . S
C610 C597 1.479 . S
C610 C611 1.398 . S
C611 C576 1.382 . S
C611 H588 0.951 . S
C611 C610 1.398 . S
C612 C613 1.384 . S
C612 H625 0.947 . S
C612 C647 1.382 . S
C613 C612 1.384 . S
C613 C614 1.378 . S
C614 C613 1.378 . S
C614 C615 1.378 . S
C614 H626 0.952 . S
C615 C614 1.378 . S
C615 H627 0.950 . S
C615 C646 1.383 . S
H616 C635 0.947 . S
H617 C636 0.946 . S
H618 C638 0.953 . S
H619 C639 0.945 . S
H620 C641 0.952 . S
H621 C642 0.949 . S
H622 C644 0.950 . S
H623 C645 0.948 . S
H624 C647 0.951 . S
H625 C612 0.947 . S
H626 C614 0.952 . S
H627 C615 0.950 . S
N628 C631 1.382 . S
N628 C633 1.363 . S
N629 C631 1.371 . S
N629 C632 1.372 . S
N630 C632 1.361 . S
N630 C633 1.377 . S
C631 N628 1.382 . S
C631 N629 1.371 . S
C631 C634 1.480 . S
C632 N629 1.372 . S
C632 N630 1.361 . S
C632 C640 1.457 . S
C633 N628 1.363 . S
C633 N630 1.377 . S
C633 C646 1.479 . S
C634 C631 1.480 . S
C634 C635 1.383 . S
C634 C639 1.385 . S
C635 H616 0.947 . S
C635 C634 1.383 . S
C635 C636 1.388 . S
C636 H617 0.946 . S
C636 C635 1.388 . S
C636 C637 1.384 . S
C637 C636 1.384 . S
C637 C638 1.377 . S
C638 H618 0.953 . S
C638 C637 1.377 . S
C638 C639 1.369 . S
C639 H619 0.945 . S
C639 C634 1.385 . S
C639 C638 1.369 . S
C640 C632 1.457 . S
C640 C641 1.372 . S
C640 C645 1.364 . S
C641 H620 0.952 . S
C641 C640 1.372 . S
C641 C642 1.389 . S
C642 H621 0.949 . S
C642 C641 1.389 . S
C642 C643 1.387 . S
C643 C642 1.387 . S
C643 C644 1.372 . S
C644 H622 0.950 . S
C644 C643 1.372 . S
C644 C645 1.379 . S
C645 H623 0.948 . S
C645 C640 1.364 . S
C645 C644 1.379 . S
C646 C615 1.383 . S
C646 C633 1.479 . S
C646 C647 1.398 . S
C647 C612 1.382 . S
C647 H624 0.951 . S
C647 C646 1.398 . S
O648 Mn649 2.163 1_565 S
O648 C662 1.244 . S
Mn649 O648 2.163 1_545 S
Mn649 O652 2.160 . S
Mn649 O653 2.221 1_545 S
Mn649 O655 2.163 1_554 S
Mn649 O657 2.160 . S
Mn649 O667 2.221 . S
O650 Mn651 2.087 1_565 S
O650 C662 1.256 . S
Mn651 O650 2.087 1_545 S
Mn651 O658 2.089 . S
Mn651 O667 2.290 . S
Mn651 O668 2.251 . S
O652 Mn649 2.160 . S
O652 C663 1.239 1_554 S
O653 Mn649 2.221 1_565 S
O653 Mn654 2.290 1_554 S
O653 C664 1.278 . S
Mn654 O653 2.290 1_556 S
Mn654 O656 2.089 1_565 S
Mn654 O659 2.251 . S
Mn654 O660 2.087 . S
O655 Mn649 2.163 1_556 S
O655 C665 1.244 . S
O656 Mn654 2.089 1_545 S
O656 C663 1.256 . S
O657 Mn649 2.160 . S
O657 C666 1.239 . S
O658 Mn651 2.089 . S
O658 C666 1.256 . S
O659 Mn654 2.251 . S
O659 C664 1.241 1_556 S
O660 Mn654 2.087 . S
O660 C665 1.256 1_565 S
C661 O667 1.278 . S
C661 O668 1.241 . S
C662 O648 1.244 . S
C662 O650 1.256 . S
C663 O652 1.239 1_556 S
C663 O656 1.256 . S
C664 O653 1.278 . S
C664 O659 1.241 1_554 S
C665 O655 1.244 . S
C665 O660 1.256 1_545 S
C666 O657 1.239 . S
C666 O658 1.256 . S
O667 Mn649 2.221 . S
O667 Mn651 2.290 . S
O667 C661 1.278 . S
O668 Mn651 2.251 . S
O668 C661 1.241 . S
O669 Mn670 2.162 1_455 S
O669 C683 1.244 . S
Mn670 O669 2.162 1_655 S
Mn670 O673 2.161 . S
Mn670 O674 2.221 1_655 S
Mn670 O676 2.163 1_554 S
Mn670 O678 2.156 . S
Mn670 O688 2.221 . S
O671 Mn672 2.087 1_455 S
O671 C683 1.256 . S
Mn672 O671 2.087 1_655 S
Mn672 O679 2.089 1_655 S
Mn672 O688 2.290 . S
Mn672 O689 2.251 . S
O673 Mn670 2.161 . S
O673 C684 1.239 1_554 S
O674 Mn670 2.221 1_455 S
O674 Mn675 2.290 1_554 S
O674 C685 1.278 . S
Mn675 O674 2.290 1_556 S
Mn675 O677 2.089 1_455 S
Mn675 O680 2.251 . S
Mn675 O681 2.087 . S
O676 Mn670 2.163 1_556 S
O676 C686 1.244 1_655 S
O677 Mn675 2.089 1_655 S
O677 C684 1.256 . S
O678 Mn670 2.156 . S
O678 C687 1.216 1_655 S
O679 Mn672 2.089 1_455 S
O679 C687 1.256 . S
O680 Mn675 2.251 . S
O680 C685 1.241 1_556 S
O681 Mn675 2.087 . S
O681 C686 1.256 . S
C682 O688 1.278 . S
C682 O689 1.241 . S
C683 O669 1.244 . S
C683 O671 1.256 . S
C684 O673 1.239 1_556 S
C684 O677 1.256 . S
C685 O674 1.278 . S
C685 O680 1.241 1_554 S
C686 O676 1.244 1_455 S
C686 O681 1.256 . S
C687 O678 1.216 1_455 S
C687 O679 1.256 . S
O688 Mn670 2.221 . S
O688 Mn672 2.290 . S
O688 C682 1.278 . S
O689 Mn672 2.251 . S
O689 C682 1.241 . S
O690 Mn691 2.163 . S
O690 C704 1.245 1_554 S
Mn691 O690 2.163 . S
Mn691 O694 2.160 . S
Mn691 O695 2.221 . S
Mn691 O697 2.163 . S
Mn691 O699 2.160 1_554 S
Mn691 O709 2.221 1_554 S
O692 Mn693 2.087 . S
O692 C704 1.256 . S
Mn693 O692 2.087 . S
Mn693 O700 2.089 . S
Mn693 O709 2.290 . S
Mn693 O710 2.251 1_556 S
O694 Mn691 2.160 . S
O694 C705 1.239 . S
O695 Mn691 2.221 . S
O695 Mn696 2.290 . S
O695 C706 1.278 . S
Mn696 O695 2.290 . S
Mn696 O698 2.089 . S
Mn696 O701 2.251 . S
Mn696 O702 2.087 . S
O697 Mn691 2.163 . S
O697 C707 1.244 . S
O698 Mn696 2.089 . S
O698 C705 1.256 . S
O699 Mn691 2.160 1_556 S
O699 C708 1.239 . S
O700 Mn693 2.089 . S
O700 C708 1.256 . S
O701 Mn696 2.251 . S
O701 C706 1.241 . S
O702 Mn696 2.087 . S
O702 C707 1.256 . S
C703 O709 1.278 1_554 S
C703 O710 1.241 . S
C704 O690 1.245 1_556 S
C704 O692 1.256 . S
C705 O694 1.239 . S
C705 O698 1.256 . S
C706 O695 1.278 . S
C706 O701 1.241 . S
C707 O697 1.244 . S
C707 O702 1.256 . S
C708 O699 1.239 . S
C708 O700 1.256 . S
O709 Mn691 2.221 1_556 S
O709 Mn693 2.290 . S
O709 C703 1.278 1_556 S
O710 Mn693 2.251 1_554 S
O710 C703 1.241 . S
O711 Mn712 2.163 . S
O711 C725 1.244 . S
Mn712 O711 2.163 . S
Mn712 O715 2.160 . S
Mn712 O716 2.221 . S
Mn712 O718 2.163 . S
Mn712 O720 2.160 . S
Mn712 O730 2.221 . S
O713 Mn714 2.087 . S
O713 C725 1.256 . S
Mn714 O713 2.087 . S
Mn714 O721 2.089 . S
Mn714 O730 2.290 . S
Mn714 O731 2.251 . S
O715 Mn712 2.160 . S
O715 C726 1.239 . S
O716 Mn712 2.221 . S
O716 Mn717 2.290 . S
O716 C727 1.278 . S
Mn717 O716 2.290 . S
Mn717 O719 2.089 . S
Mn717 O722 2.251 . S
Mn717 O723 2.087 . S
O718 Mn712 2.163 . S
O718 C728 1.244 . S
O719 Mn717 2.089 . S
O719 C726 1.256 . S
O720 Mn712 2.160 . S
O720 C729 1.239 . S
O721 Mn714 2.089 . S
O721 C729 1.256 . S
O722 Mn717 2.251 . S
O722 C727 1.241 . S
O723 Mn717 2.087 . S
O723 C728 1.256 . S
C724 O730 1.278 . S
C724 O731 1.241 . S
C725 O711 1.244 . S
C725 O713 1.256 . S
C726 O715 1.239 . S
C726 O719 1.256 . S
C727 O716 1.278 . S
C727 O722 1.241 . S
C728 O718 1.244 . S
C728 O723 1.256 . S
C729 O720 1.239 . S
C729 O721 1.256 . S
O730 Mn712 2.221 . S
O730 Mn714 2.290 . S
O730 C724 1.278 . S
O731 Mn714 2.251 . S
O731 C724 1.241 . S
O732 Mn733 2.163 . S
O732 C746 1.244 . S
Mn733 O732 2.163 . S
Mn733 O736 2.160 . S
Mn733 O737 2.221 . S
Mn733 O739 2.163 . S
Mn733 O741 2.160 . S
Mn733 O751 2.221 . S
O734 Mn735 2.087 . S
O734 C746 1.256 . S
Mn735 O734 2.087 . S
Mn735 O742 2.089 . S
Mn735 O751 2.290 . S
Mn735 O752 2.251 . S
O736 Mn733 2.160 . S
O736 C747 1.239 . S
O737 Mn733 2.221 . S
O737 Mn738 2.290 . S
O737 C748 1.278 . S
Mn738 O737 2.290 . S
Mn738 O740 2.089 . S
Mn738 O743 2.251 . S
Mn738 O744 2.087 . S
O739 Mn733 2.163 . S
O739 C749 1.244 . S
O740 Mn738 2.089 . S
O740 C747 1.256 . S
O741 Mn733 2.160 . S
O741 C750 1.239 . S
O742 Mn735 2.089 . S
O742 C750 1.256 . S
O743 Mn738 2.251 . S
O743 C748 1.241 . S
O744 Mn738 2.087 . S
O744 C749 1.256 . S
C745 O751 1.278 . S
C745 O752 1.241 . S
C746 O732 1.244 . S
C746 O734 1.256 . S
C747 O736 1.239 . S
C747 O740 1.256 . S
C748 O737 1.278 . S
C748 O743 1.241 . S
C749 O739 1.244 . S
C749 O744 1.256 . S
C750 O741 1.239 . S
C750 O742 1.256 . S
O751 Mn733 2.221 . S
O751 Mn735 2.290 . S
O751 C745 1.278 . S
O752 Mn735 2.251 . S
O752 C745 1.241 . S
O753 Mn754 2.163 . S
O753 C767 1.244 . S
Mn754 O753 2.163 . S
Mn754 O757 2.160 . S
Mn754 O758 2.221 . S
Mn754 O760 2.163 . S
Mn754 O762 2.160 . S
Mn754 O772 2.221 . S
O755 Mn756 2.087 . S
O755 C767 1.256 . S
Mn756 O755 2.087 . S
Mn756 O763 2.089 . S
Mn756 O772 2.290 . S
Mn756 O773 2.251 . S
O757 Mn754 2.160 . S
O757 C768 1.239 . S
O758 Mn754 2.221 . S
O758 Mn759 2.290 . S
O758 C769 1.278 . S
Mn759 O758 2.290 . S
Mn759 O761 2.089 . S
Mn759 O764 2.251 . S
Mn759 O765 2.087 . S
O760 Mn754 2.163 . S
O760 C770 1.244 . S
O761 Mn759 2.089 . S
O761 C768 1.256 . S
O762 Mn754 2.160 . S
O762 C771 1.239 . S
O763 Mn756 2.089 . S
O763 C771 1.256 . S
O764 Mn759 2.251 . S
O764 C769 1.241 . S
O765 Mn759 2.087 . S
O765 C770 1.256 . S
C766 O772 1.278 . S
C766 O773 1.241 . S
C767 O753 1.244 . S
C767 O755 1.256 . S
C768 O757 1.239 . S
C768 O761 1.256 . S
C769 O758 1.278 . S
C769 O764 1.241 . S
C770 O760 1.244 . S
C770 O765 1.256 . S
C771 O762 1.239 . S
C771 O763 1.256 . S
O772 Mn754 2.221 . S
O772 Mn756 2.290 . S
O772 C766 1.278 . S
O773 Mn756 2.251 . S
O773 C766 1.241 . S
O774 Mn775 2.163 . S
O774 C788 1.244 . S
Mn775 O774 2.163 . S
Mn775 O778 2.160 . S
Mn775 O779 2.221 . S
Mn775 O781 2.163 . S
Mn775 O783 2.160 . S
Mn775 O793 2.221 . S
O776 Mn777 2.087 . S
O776 C788 1.256 . S
Mn777 O776 2.087 . S
Mn777 O784 2.089 . S
Mn777 O793 2.290 . S
Mn777 O794 2.251 . S
O778 Mn775 2.160 . S
O778 C789 1.239 . S
O779 Mn775 2.221 . S
O779 Mn780 2.290 . S
O779 C790 1.278 . S
Mn780 O779 2.290 . S
Mn780 O782 2.089 . S
Mn780 O785 2.251 . S
Mn780 O786 2.087 . S
O781 Mn775 2.163 . S
O781 C791 1.244 . S
O782 Mn780 2.089 . S
O782 C789 1.256 . S
O783 Mn775 2.160 . S
O783 C792 1.239 . S
O784 Mn777 2.089 . S
O784 C792 1.256 . S
O785 Mn780 2.251 . S
O785 C790 1.241 . S
O786 Mn780 2.087 . S
O786 C791 1.256 . S
C787 O793 1.278 . S
C787 O794 1.241 . S
C788 O774 1.244 . S
C788 O776 1.256 . S
C789 O778 1.239 . S
C789 O782 1.256 . S
C790 O779 1.278 . S
C790 O785 1.241 . S
C791 O781 1.244 . S
C791 O786 1.256 . S
C792 O783 1.239 . S
C792 O784 1.256 . S
O793 Mn775 2.221 . S
O793 Mn777 2.290 . S
O793 C787 1.278 . S
O794 Mn777 2.251 . S
O794 C787 1.241 . S
O795 Mn796 2.163 . S
O795 C809 1.244 . S
Mn796 O795 2.163 . S
Mn796 O799 2.160 . S
Mn796 O800 2.221 . S
Mn796 O802 2.163 . S
Mn796 O804 2.160 . S
Mn796 O814 2.221 . S
O797 Mn798 2.087 . S
O797 C809 1.256 . S
Mn798 O797 2.087 . S
Mn798 O805 2.089 . S
Mn798 O814 2.290 . S
Mn798 O815 2.251 . S
O799 Mn796 2.160 . S
O799 C810 1.239 . S
O800 Mn796 2.221 . S
O800 Mn801 2.290 . S
O800 C811 1.278 . S
Mn801 O800 2.290 . S
Mn801 O803 2.089 . S
Mn801 O806 2.251 . S
Mn801 O807 2.087 . S
O802 Mn796 2.163 . S
O802 C812 1.244 . S
O803 Mn801 2.089 . S
O803 C810 1.256 . S
O804 Mn796 2.160 . S
O804 C813 1.239 . S
O805 Mn798 2.089 . S
O805 C813 1.256 . S
O806 Mn801 2.251 . S
O806 C811 1.241 . S
O807 Mn801 2.087 . S
O807 C812 1.256 . S
C808 O814 1.278 . S
C808 O815 1.241 . S
C809 O795 1.244 . S
C809 O797 1.256 . S
C810 O799 1.239 . S
C810 O803 1.256 . S
C811 O800 1.278 . S
C811 O806 1.241 . S
C812 O802 1.244 . S
C812 O807 1.256 . S
C813 O804 1.239 . S
C813 O805 1.256 . S
O814 Mn796 2.221 . S
O814 Mn798 2.290 . S
O814 C808 1.278 . S
O815 Mn798 2.251 . S
O815 C808 1.241 . S
O816 Mn817 2.163 . S
O816 C830 1.244 . S
Mn817 O816 2.163 . S
Mn817 O820 2.160 . S
Mn817 O821 2.221 . S
Mn817 O823 2.163 . S
Mn817 O825 2.160 . S
Mn817 O835 2.221 . S
O818 Mn819 2.087 . S
O818 C830 1.256 . S
Mn819 O818 2.087 . S
Mn819 O826 2.089 . S
Mn819 O835 2.290 . S
Mn819 O836 2.251 . S
O820 Mn817 2.160 . S
O820 C831 1.239 . S
O821 Mn817 2.221 . S
O821 Mn822 2.290 . S
O821 C832 1.278 . S
Mn822 O821 2.290 . S
Mn822 O824 2.089 . S
Mn822 O827 2.251 . S
Mn822 O828 2.087 . S
O823 Mn817 2.163 . S
O823 C833 1.244 . S
O824 Mn822 2.089 . S
O824 C831 1.256 . S
O825 Mn817 2.160 . S
O825 C834 1.239 . S
O826 Mn819 2.089 . S
O826 C834 1.256 . S
O827 Mn822 2.251 . S
O827 C832 1.241 . S
O828 Mn822 2.087 . S
O828 C833 1.256 . S
C829 O835 1.278 . S
C829 O836 1.241 . S
C830 O816 1.244 . S
C830 O818 1.256 . S
C831 O820 1.239 . S
C831 O824 1.256 . S
C832 O821 1.278 . S
C832 O827 1.241 . S
C833 O823 1.244 . S
C833 O828 1.256 . S
C834 O825 1.239 . S
C834 O826 1.256 . S
O835 Mn817 2.221 . S
O835 Mn819 2.290 . S
O835 C829 1.278 . S
O836 Mn819 2.251 . S
O836 C829 1.241 . S
C837 C838 1.349 . S
C837 C839 1.327 . S
C837 H862 0.950 . S
C838 C837 1.349 . S
C838 C854 1.349 . S
C839 C837 1.327 . S
C839 C858 1.429 . S
C839 H863 0.950 . S
C840 C857 1.574 . S
C840 C859 1.368 . S
C840 H864 0.949 . S
H841 C845 0.949 . S
C842 C843 1.349 . S
C842 C844 1.327 . S
C842 H865 0.950 1_554 S
C843 C842 1.349 . S
C843 C855 1.349 . S
C844 C842 1.327 . S
C844 C860 1.429 . S
C844 H866 0.950 1_554 S
C845 H841 0.949 . S
C845 C853 1.574 . S
C845 C861 1.368 . S
H846 C854 0.950 . S
H847 C852 0.950 . S
H848 C853 0.949 . S
H849 C855 0.950 . S
H850 C856 0.950 . S
H851 C857 0.949 . S
C852 H847 0.950 . S
C852 C854 1.327 . S
C852 C858 1.429 . S
C853 C845 1.574 . S
C853 H848 0.949 . S
C853 C859 1.368 . S
C854 C838 1.349 . S
C854 H846 0.950 . S
C854 C852 1.327 . S
C855 C843 1.349 . S
C855 H849 0.950 . S
C855 C856 1.327 . S
C856 H850 0.950 . S
C856 C855 1.327 . S
C856 C860 1.429 . S
C857 C840 1.574 . S
C857 H851 0.949 . S
C857 C861 1.368 . S
C858 C839 1.429 . S
C858 C852 1.429 . S
C858 C859 1.523 . S
C859 C840 1.368 . S
C859 C853 1.368 . S
C859 C858 1.523 . S
C860 C844 1.429 . S
C860 C856 1.429 . S
C860 C861 1.523 . S
C861 C845 1.368 . S
C861 C857 1.368 . S
C861 C860 1.523 . S
H862 C837 0.950 . S
H863 C839 0.950 . S
H864 C840 0.949 . S
H865 C842 0.950 1_556 S
H866 C844 0.950 1_556 S
C867 C868 1.349 . S
C867 C869 1.327 . S
C867 H892 0.950 . S
C868 C867 1.349 . S
C868 C884 1.349 . S
C869 C867 1.327 . S
C869 C888 1.429 . S
C869 H893 0.950 . S
C870 C887 1.574 . S
C870 C889 1.368 . S
C870 H894 0.949 . S
H871 C875 0.949 . S
C872 C873 1.349 . S
C872 C874 1.327 . S
C872 H895 0.950 1_554 S
C873 C872 1.349 . S
C873 C885 1.349 . S
C874 C872 1.327 . S
C874 C890 1.429 . S
C874 H896 0.950 1_554 S
C875 H871 0.949 . S
C875 C883 1.574 . S
C875 C891 1.368 . S
H876 C884 0.950 . S
H877 C882 0.950 . S
H878 C883 0.949 . S
H879 C885 0.950 . S
H880 C886 0.950 . S
H881 C887 0.949 . S
C882 H877 0.950 . S
C882 C884 1.327 . S
C882 C888 1.429 . S
C883 C875 1.574 . S
C883 H878 0.949 . S
C883 C889 1.368 . S
C884 C868 1.349 . S
C884 H876 0.950 . S
C884 C882 1.327 . S
C885 C873 1.349 . S
C885 H879 0.950 . S
C885 C886 1.327 . S
C886 H880 0.950 . S
C886 C885 1.327 . S
C886 C890 1.429 . S
C887 C870 1.574 . S
C887 H881 0.949 . S
C887 C891 1.368 . S
C888 C869 1.429 . S
C888 C882 1.429 . S
C888 C889 1.523 . S
C889 C870 1.368 . S
C889 C883 1.368 . S
C889 C888 1.523 . S
C890 C874 1.429 . S
C890 C886 1.429 . S
C890 C891 1.523 . S
C891 C875 1.368 . S
C891 C887 1.368 . S
C891 C890 1.523 . S
H892 C867 0.950 . S
H893 C869 0.950 . S
H894 C870 0.949 . S
H895 C872 0.950 1_556 S
H896 C874 0.950 1_556 S
C897 C898 1.349 . S
C897 C899 1.327 . S
C897 H922 0.950 . S
C898 C897 1.349 . S
C898 C914 1.349 . S
C899 C897 1.327 . S
C899 C918 1.429 . S
C899 H923 0.950 . S
C900 C917 1.574 . S
C900 C919 1.368 . S
C900 H924 0.949 . S
H901 C905 0.949 . S
C902 C903 1.349 . S
C902 C904 1.327 . S
C902 H925 0.950 1_554 S
C903 C902 1.349 . S
C903 C915 1.349 . S
C904 C902 1.327 . S
C904 C920 1.429 . S
C904 H926 0.950 1_554 S
C905 H901 0.949 . S
C905 C913 1.574 . S
C905 C921 1.368 . S
H906 C914 0.950 . S
H907 C912 0.950 . S
H908 C913 0.949 . S
H909 C915 0.950 . S
H910 C916 0.950 . S
H911 C917 0.949 . S
C912 H907 0.950 . S
C912 C914 1.327 . S
C912 C918 1.429 . S
C913 C905 1.574 . S
C913 H908 0.949 . S
C913 C919 1.368 . S
C914 C898 1.349 . S
C914 H906 0.950 . S
C914 C912 1.327 . S
C915 C903 1.349 . S
C915 H909 0.950 . S
C915 C916 1.327 . S
C916 H910 0.950 . S
C916 C915 1.327 . S
C916 C920 1.429 . S
C917 C900 1.574 . S
C917 H911 0.949 . S
C917 C921 1.368 . S
C918 C899 1.429 . S
C918 C912 1.429 . S
C918 C919 1.523 . S
C919 C900 1.368 . S
C919 C913 1.368 . S
C919 C918 1.523 . S
C920 C904 1.429 . S
C920 C916 1.429 . S
C920 C921 1.523 . S
C921 C905 1.368 . S
C921 C917 1.368 . S
C921 C920 1.523 . S
H922 C897 0.950 . S
H923 C899 0.950 . S
H924 C900 0.949 . S
H925 C902 0.950 1_556 S
H926 C904 0.950 1_556 S
C927 C928 1.349 . S
C927 C929 1.327 . S
C927 H952 0.950 . S
C928 C927 1.349 . S
C928 C944 1.349 . S
C929 C927 1.327 . S
C929 C948 1.429 . S
C929 H953 0.950 . S
C930 C947 1.574 . S
C930 C949 1.368 . S
C930 H954 0.949 . S
H931 C935 0.949 1_554 S
C932 C933 1.349 . S
C932 C934 1.327 . S
C932 H955 0.950 . S
C933 C932 1.349 . S
C933 C945 1.349 1_556 S
C934 C932 1.327 . S
C934 C950 1.429 . S
C934 H956 0.950 . S
C935 H931 0.949 1_556 S
C935 C943 1.574 . S
C935 C951 1.368 . S
H936 C944 0.950 . S
H937 C942 0.950 . S
H938 C943 0.949 1_554 S
H939 C945 0.950 . S
H940 C946 0.950 . S
H941 C947 0.949 . S
C942 H937 0.950 . S
C942 C944 1.327 . S
C942 C948 1.429 . S
C943 C935 1.574 . S
C943 H938 0.949 1_556 S
C943 C949 1.368 . S
C944 C928 1.349 . S
C944 H936 0.950 . S
C944 C942 1.327 . S
C945 C933 1.349 1_554 S
C945 H939 0.950 . S
C945 C946 1.327 . S
C946 H940 0.950 . S
C946 C945 1.327 . S
C946 C950 1.429 1_554 S
C947 C930 1.574 . S
C947 H941 0.949 . S
C947 C951 1.368 . S
C948 C929 1.429 . S
C948 C942 1.429 . S
C948 C949 1.523 . S
C949 C930 1.368 . S
C949 C943 1.368 . S
C949 C948 1.523 . S
C950 C934 1.429 . S
C950 C946 1.429 1_556 S
C950 C951 1.523 . S
C951 C935 1.368 . S
C951 C947 1.368 . S
C951 C950 1.523 . S
H952 C927 0.950 . S
H953 C929 0.950 . S
H954 C930 0.949 . S
H955 C932 0.950 . S
H956 C934 0.950 . S
C957 C958 1.349 . S
C957 C959 1.327 . S
C957 H982 0.950 . S
C958 C957 1.349 . S
C958 C974 1.349 . S
C959 C957 1.327 . S
C959 C978 1.429 . S
C959 H983 0.950 . S
C960 C977 1.574 . S
C960 C979 1.368 . S
C960 H984 0.949 . S
H961 C965 0.949 1_554 S
C962 C963 1.349 . S
C962 C964 1.327 . S
C962 H985 0.950 . S
C963 C962 1.349 . S
C963 C975 1.349 1_556 S
C964 C962 1.327 . S
C964 C980 1.429 . S
C964 H986 0.950 . S
C965 H961 0.949 1_556 S
C965 C973 1.574 . S
C965 C981 1.368 . S
H966 C974 0.950 . S
H967 C972 0.950 . S
H968 C973 0.974 . S
H969 C975 0.950 . S
H970 C976 0.950 . S
H971 C977 0.949 . S
C972 H967 0.950 . S
C972 C974 1.327 . S
C972 C978 1.429 . S
C973 C965 1.574 . S
C973 H968 0.974 . S
C973 C979 1.368 . S
C974 C958 1.349 . S
C974 H966 0.950 . S
C974 C972 1.327 . S
C975 C963 1.349 1_554 S
C975 H969 0.950 . S
C975 C976 1.327 . S
C976 H970 0.950 . S
C976 C975 1.327 . S
C976 C980 1.429 1_554 S
C977 C960 1.574 . S
C977 H971 0.949 . S
C977 C981 1.368 . S
C978 C959 1.429 . S
C978 C972 1.429 . S
C978 C979 1.523 . S
C979 C960 1.368 . S
C979 C973 1.368 . S
C979 C978 1.523 . S
C980 C964 1.429 . S
C980 C976 1.429 1_556 S
C980 C981 1.523 . S
C981 C965 1.368 . S
C981 C977 1.368 . S
C981 C980 1.523 . S
H982 C957 0.950 . S
H983 C959 0.950 . S
H984 C960 0.949 . S
H985 C962 0.950 . S
H986 C964 0.950 . S
C987 C988 1.349 . S
C987 C989 1.327 . S
C987 H1012 0.950 . S
C988 C987 1.349 . S
C988 C1004 1.349 . S
C989 C987 1.327 . S
C989 C1008 1.429 . S
C989 H1013 0.950 . S
C990 C1007 1.574 . S
C990 C1009 1.368 . S
C990 H1014 0.949 . S
H991 C995 0.949 1_554 S
C992 C993 1.349 . S
C992 C994 1.327 . S
C992 H1015 0.950 . S
C993 C992 1.349 . S
C993 C1005 1.349 1_556 S
C994 C992 1.327 . S
C994 C1010 1.429 . S
C994 H1016 0.950 . S
C995 H991 0.949 1_556 S
C995 C1003 1.574 . S
C995 C1011 1.368 . S
H996 C1004 0.950 . S
H997 C1002 0.950 . S
H998 C1003 0.949 . S
H999 C1005 0.950 . S
H1000 C1006 0.950 . S
H1001 C1007 0.949 . S
C1002 H997 0.950 . S
C1002 C1004 1.327 . S
C1002 C1008 1.429 . S
C1003 C995 1.574 . S
C1003 H998 0.949 . S
C1003 C1009 1.368 . S
C1004 C988 1.349 . S
C1004 H996 0.950 . S
C1004 C1002 1.327 . S
C1005 C993 1.349 1_554 S
C1005 H999 0.950 . S
C1005 C1006 1.327 . S
C1006 H1000 0.950 . S
C1006 C1005 1.327 . S
C1006 C1010 1.429 1_554 S
C1007 C990 1.574 . S
C1007 H1001 0.949 . S
C1007 C1011 1.368 . S
C1008 C989 1.429 . S
C1008 C1002 1.429 . S
C1008 C1009 1.523 . S
C1009 C990 1.368 . S
C1009 C1003 1.368 . S
C1009 C1008 1.523 . S
C1010 C994 1.429 . S
C1010 C1006 1.429 1_556 S
C1010 C1011 1.523 . S
C1011 C995 1.368 . S
C1011 C1007 1.368 . S
C1011 C1010 1.523 . S
H1012 C987 0.950 . S
H1013 C989 0.950 . S
H1014 C990 0.949 . S
H1015 C992 0.950 . S
H1016 C994 0.950 . S
C1017 C1018 1.349 . S
C1017 C1019 1.327 . S
C1017 H1042 0.950 . S
C1018 C1017 1.349 . S
C1018 C1034 1.349 . S
C1019 C1017 1.327 . S
C1019 C1038 1.429 . S
C1019 H1043 0.950 . S
C1020 C1037 1.574 . S
C1020 C1039 1.368 . S
C1020 H1044 0.949 . S
H1021 C1025 0.949 . S
C1022 C1023 1.349 1_554 S
C1022 C1024 1.327 . S
C1022 H1045 0.950 . S
C1023 C1022 1.349 1_556 S
C1023 C1035 1.349 . S
C1024 C1022 1.327 . S
C1024 C1040 1.429 1_554 S
C1024 H1046 0.950 . S
C1025 H1021 0.949 . S
C1025 C1033 1.574 . S
C1025 C1041 1.368 . S
H1026 C1034 0.950 . S
H1027 C1032 0.950 . S
H1028 C1033 0.949 . S
H1029 C1035 0.950 . S
H1030 C1036 0.950 . S
H1031 C1037 0.949 1_554 S
C1032 H1027 0.950 . S
C1032 C1034 1.327 . S
C1032 C1038 1.429 . S
C1033 C1025 1.574 . S
C1033 H1028 0.949 . S
C1033 C1039 1.368 . S
C1034 C1018 1.349 . S
C1034 H1026 0.950 . S
C1034 C1032 1.327 . S
C1035 C1023 1.349 . S
C1035 H1029 0.950 . S
C1035 C1036 1.327 . S
C1036 H1030 0.950 . S
C1036 C1035 1.327 . S
C1036 C1040 1.429 . S
C1037 C1020 1.574 . S
C1037 H1031 0.949 1_556 S
C1037 C1041 1.368 . S
C1038 C1019 1.429 . S
C1038 C1032 1.429 . S
C1038 C1039 1.523 . S
C1039 C1020 1.368 . S
C1039 C1033 1.368 . S
C1039 C1038 1.523 . S
C1040 C1024 1.429 1_556 S
C1040 C1036 1.429 . S
C1040 C1041 1.523 . S
C1041 C1025 1.368 . S
C1041 C1037 1.368 . S
C1041 C1040 1.523 . S
H1042 C1017 0.950 . S
H1043 C1019 0.950 . S
H1044 C1020 0.949 . S
H1045 C1022 0.950 . S
H1046 C1024 0.950 . S
C1047 C1048 1.349 . S
C1047 C1049 1.327 . S
C1047 H1072 0.950 . S
C1048 C1047 1.349 . S
C1048 C1064 1.349 . S
C1049 C1047 1.327 . S
C1049 C1068 1.429 . S
C1049 H1073 0.950 1_556 S
C1050 C1067 1.574 . S
C1050 C1069 1.368 . S
C1050 H1074 0.949 . S
H1051 C1055 0.949 . S
C1052 C1053 1.349 . S
C1052 C1054 1.327 . S
C1052 H1075 0.950 . S
C1053 C1052 1.349 . S
C1053 C1065 1.349 1_556 S
C1054 C1052 1.327 . S
C1054 C1070 1.429 . S
C1054 H1076 0.950 . S
C1055 H1051 0.949 . S
C1055 C1063 1.574 1_554 S
C1055 C1071 1.368 1_554 S
H1056 C1064 0.950 . S
H1057 C1062 0.950 . S
H1058 C1063 0.949 1_554 S
H1059 C1065 0.950 . S
H1060 C1066 0.950 . S
H1061 C1067 0.949 . S
C1062 H1057 0.950 . S
C1062 C1064 1.327 . S
C1062 C1068 1.429 . S
C1063 C1055 1.574 1_556 S
C1063 H1058 0.949 1_556 S
C1063 C1069 1.368 . S
C1064 C1048 1.349 . S
C1064 H1056 0.950 . S
C1064 C1062 1.327 . S
C1065 C1053 1.349 1_554 S
C1065 H1059 0.950 . S
C1065 C1066 1.327 . S
C1066 H1060 0.950 . S
C1066 C1065 1.327 . S
C1066 C1070 1.429 1_554 S
C1067 C1050 1.574 . S
C1067 H1061 0.949 . S
C1067 C1071 1.368 . S
C1068 C1049 1.429 . S
C1068 C1062 1.429 . S
C1068 C1069 1.523 . S
C1069 C1050 1.368 . S
C1069 C1063 1.368 . S
C1069 C1068 1.523 . S
C1070 C1054 1.429 . S
C1070 C1066 1.429 1_556 S
C1070 C1071 1.523 . S
C1071 C1055 1.368 1_556 S
C1071 C1067 1.368 . S
C1071 C1070 1.523 . S
H1072 C1047 0.950 . S
H1073 C1049 0.950 1_554 S
H1074 C1050 0.949 . S
H1075 C1052 0.950 . S
H1076 C1054 0.950 . S
C1077 C1078 1.349 . S
C1077 C1079 1.327 . S
C1077 H1102 0.950 . S
C1078 C1077 1.349 . S
C1078 C1094 1.349 . S
C1079 C1077 1.327 . S
C1079 C1098 1.429 . S
C1079 H1103 0.952 . S
C1080 C1097 1.574 . S
C1080 C1099 1.368 . S
C1080 H1104 0.949 . S
H1081 C1085 0.982 . S
C1082 C1083 1.349 . S
C1082 C1084 1.327 . S
C1082 H1105 0.950 . S
C1083 C1082 1.349 . S
C1083 C1095 1.349 1_556 S
C1084 C1082 1.327 . S
C1084 C1100 1.429 . S
C1084 H1106 0.950 . S
C1085 H1081 0.982 . S
C1085 C1093 1.567 1_554 S
C1085 C1101 1.340 1_554 S
H1086 C1094 0.950 . S
H1087 C1092 0.950 . S
H1088 C1093 0.949 1_554 S
H1089 C1095 0.950 . S
H1090 C1096 0.950 . S
H1091 C1097 0.949 . S
C1092 H1087 0.950 . S
C1092 C1094 1.327 . S
C1092 C1098 1.429 . S
C1093 C1085 1.567 1_556 S
C1093 H1088 0.949 1_556 S
C1093 C1099 1.368 . S
C1094 C1078 1.349 . S
C1094 H1086 0.950 . S
C1094 C1092 1.327 . S
C1095 C1083 1.349 1_554 S
C1095 H1089 0.950 . S
C1095 C1096 1.327 . S
C1096 H1090 0.950 . S
C1096 C1095 1.327 . S
C1096 C1100 1.429 1_554 S
C1097 C1080 1.574 . S
C1097 H1091 0.949 . S
C1097 C1101 1.368 . S
C1098 C1079 1.429 . S
C1098 C1092 1.429 . S
C1098 C1099 1.523 . S
C1099 C1080 1.368 . S
C1099 C1093 1.368 . S
C1099 C1098 1.523 . S
C1100 C1084 1.429 . S
C1100 C1096 1.429 1_556 S
C1100 C1101 1.523 . S
C1101 C1085 1.340 1_556 S
C1101 C1097 1.368 . S
C1101 C1100 1.523 . S
H1102 C1077 0.950 . S
H1103 C1079 0.952 . S
H1104 C1080 0.949 . S
H1105 C1082 0.950 . S
H1106 C1084 0.950 . S
C1107 C1108 1.349 . S
C1107 C1109 1.327 . S
C1107 H1132 0.950 . S
C1108 C1107 1.349 . S
C1108 C1124 1.349 . S
C1109 C1107 1.327 . S
C1109 C1128 1.429 . S
C1109 H1133 0.950 . S
C1110 C1127 1.574 . S
C1110 C1129 1.368 . S
C1110 H1134 0.949 . S
H1111 C1115 0.938 1_556 S
C1112 C1113 1.349 . S
C1112 C1114 1.327 . S
C1112 H1135 0.950 . S
C1113 C1112 1.349 . S
C1113 C1125 1.380 . S
C1114 C1112 1.327 . S
C1114 C1130 1.429 . S
C1114 H1136 0.950 . S
C1115 H1111 0.938 1_554 S
C1115 C1123 1.574 . S
C1115 C1131 1.368 . S
H1116 C1124 0.950 . S
H1117 C1122 0.950 . S
H1118 C1123 0.949 . S
H1119 C1125 0.911 1_556 S
H1120 C1126 0.950 1_556 S
H1121 C1127 0.949 . S
C1122 H1117 0.950 . S
C1122 C1124 1.327 . S
C1122 C1128 1.429 . S
C1123 C1115 1.574 . S
C1123 H1118 0.949 . S
C1123 C1129 1.368 . S
C1124 C1108 1.349 . S
C1124 H1116 0.950 . S
C1124 C1122 1.327 . S
C1125 C1113 1.380 . S
C1125 H1119 0.911 1_554 S
C1125 C1126 1.335 . S
C1126 H1120 0.950 1_554 S
C1126 C1125 1.335 . S
C1126 C1130 1.429 . S
C1127 C1110 1.574 . S
C1127 H1121 0.949 . S
C1127 C1131 1.368 . S
C1128 C1109 1.429 . S
C1128 C1122 1.429 . S
C1128 C1129 1.523 . S
C1129 C1110 1.368 . S
C1129 C1123 1.368 . S
C1129 C1128 1.523 . S
C1130 C1114 1.429 . S
C1130 C1126 1.429 . S
C1130 C1131 1.523 . S
C1131 C1115 1.368 . S
C1131 C1127 1.368 . S
C1131 C1130 1.523 . S
H1132 C1107 0.950 . S
H1133 C1109 0.950 . S
H1134 C1110 0.949 . S
H1135 C1112 0.950 . S
H1136 C1114 0.950 . S
C1137 C1138 1.349 . S
C1137 C1139 1.327 . S
C1137 H1162 0.950 . S
C1138 C1137 1.349 . S
C1138 C1154 1.349 . S
C1139 C1137 1.327 . S
C1139 C1158 1.429 . S
C1139 H1163 0.950 . S
C1140 C1157 1.574 . S
C1140 C1159 1.368 . S
C1140 H1164 0.949 . S
H1141 C1145 0.949 . S
C1142 C1143 1.349 . S
C1142 C1144 1.327 . S
C1142 H1165 0.950 1_554 S
C1143 C1142 1.349 . S
C1143 C1155 1.349 . S
C1144 C1142 1.327 . S
C1144 C1160 1.429 . S
C1144 H1166 0.950 1_554 S
C1145 H1141 0.949 . S
C1145 C1153 1.574 . S
C1145 C1161 1.368 . S
H1146 C1154 0.950 . S
H1147 C1152 0.950 . S
H1148 C1153 0.949 . S
H1149 C1155 0.950 . S
H1150 C1156 0.950 . S
H1151 C1157 0.949 . S
C1152 H1147 0.950 . S
C1152 C1154 1.327 . S
C1152 C1158 1.429 . S
C1153 C1145 1.574 . S
C1153 H1148 0.949 . S
C1153 C1159 1.368 . S
C1154 C1138 1.349 . S
C1154 H1146 0.950 . S
C1154 C1152 1.327 . S
C1155 C1143 1.349 . S
C1155 H1149 0.950 . S
C1155 C1156 1.327 . S
C1156 H1150 0.950 . S
C1156 C1155 1.327 . S
C1156 C1160 1.429 . S
C1157 C1140 1.574 . S
C1157 H1151 0.949 . S
C1157 C1161 1.368 . S
C1158 C1139 1.429 . S
C1158 C1152 1.429 . S
C1158 C1159 1.523 . S
C1159 C1140 1.368 . S
C1159 C1153 1.368 . S
C1159 C1158 1.523 . S
C1160 C1144 1.429 . S
C1160 C1156 1.429 . S
C1160 C1161 1.523 . S
C1161 C1145 1.368 . S
C1161 C1157 1.368 . S
C1161 C1160 1.523 . S
H1162 C1137 0.950 . S
H1163 C1139 0.950 . S
H1164 C1140 0.949 . S
H1165 C1142 0.950 1_556 S
H1166 C1144 0.950 1_556 S
C1167 C1168 1.349 . S
C1167 C1169 1.327 . S
C1167 H1192 0.950 . S
C1168 C1167 1.349 . S
C1168 C1184 1.349 . S
C1169 C1167 1.327 . S
C1169 C1188 1.429 . S
C1169 H1193 0.950 . S
C1170 C1187 1.574 . S
C1170 C1189 1.368 . S
C1170 H1194 0.949 . S
H1171 C1175 0.949 . S
C1172 C1173 1.349 1_556 S
C1172 C1174 1.327 1_556 S
C1172 H1195 0.950 . S
C1173 C1172 1.349 1_554 S
C1173 C1185 1.349 . S
C1174 C1172 1.327 1_554 S
C1174 C1190 1.429 . S
C1174 H1196 0.950 1_554 S
C1175 H1171 0.949 . S
C1175 C1183 1.574 . S
C1175 C1191 1.368 . S
H1176 C1184 0.950 . S
H1177 C1182 0.950 . S
H1178 C1183 0.949 . S
H1179 C1185 0.950 . S
H1180 C1186 0.950 . S
H1181 C1187 0.949 1_556 S
C1182 H1177 0.950 . S
C1182 C1184 1.327 . S
C1182 C1188 1.429 . S
C1183 C1175 1.574 . S
C1183 H1178 0.949 . S
C1183 C1189 1.368 . S
C1184 C1168 1.349 . S
C1184 H1176 0.950 . S
C1184 C1182 1.327 . S
C1185 C1173 1.349 . S
C1185 H1179 0.950 . S
C1185 C1186 1.327 . S
C1186 H1180 0.950 . S
C1186 C1185 1.327 . S
C1186 C1190 1.429 . S
C1187 C1170 1.574 . S
C1187 H1181 0.949 1_554 S
C1187 C1191 1.368 . S
C1188 C1169 1.429 . S
C1188 C1182 1.429 . S
C1188 C1189 1.523 . S
C1189 C1170 1.368 . S
C1189 C1183 1.368 . S
C1189 C1188 1.523 . S
C1190 C1174 1.429 . S
C1190 C1186 1.429 . S
C1190 C1191 1.523 . S
C1191 C1175 1.368 . S
C1191 C1187 1.368 . S
C1191 C1190 1.523 . S
H1192 C1167 0.950 . S
H1193 C1169 0.950 . S
H1194 C1170 0.949 . S
H1195 C1172 0.950 . S
H1196 C1174 0.950 1_556 S
C1197 C1198 1.349 . S
C1197 C1199 1.327 . S
C1197 H1222 0.950 . S
C1198 C1197 1.349 . S
C1198 C1214 1.349 . S
C1199 C1197 1.327 . S
C1199 C1218 1.429 . S
C1199 H1223 0.950 . S
C1200 C1217 1.574 . S
C1200 C1219 1.368 . S
C1200 H1224 0.949 . S
H1201 C1205 0.949 . S
C1202 C1203 1.349 . S
C1202 C1204 1.327 . S
C1202 H1225 0.950 . S
C1203 C1202 1.349 . S
C1203 C1215 1.349 . S
C1204 C1202 1.327 . S
C1204 C1220 1.429 . S
C1204 H1226 0.950 . S
C1205 H1201 0.949 . S
C1205 C1213 1.574 . S
C1205 C1221 1.368 . S
H1206 C1214 0.950 . S
H1207 C1212 0.950 . S
H1208 C1213 0.949 . S
H1209 C1215 0.950 . S
H1210 C1216 0.950 . S
H1211 C1217 0.949 . S
C1212 H1207 0.950 . S
C1212 C1214 1.327 . S
C1212 C1218 1.429 . S
C1213 C1205 1.574 . S
C1213 H1208 0.949 . S
C1213 C1219 1.368 . S
C1214 C1198 1.349 . S
C1214 H1206 0.950 . S
C1214 C1212 1.327 . S
C1215 C1203 1.349 . S
C1215 H1209 0.950 . S
C1215 C1216 1.327 . S
C1216 H1210 0.950 . S
C1216 C1215 1.327 . S
C1216 C1220 1.429 . S
C1217 C1200 1.574 . S
C1217 H1211 0.949 . S
C1217 C1221 1.368 . S
C1218 C1199 1.429 . S
C1218 C1212 1.429 . S
C1218 C1219 1.523 1_655 S
C1219 C1200 1.368 . S
C1219 C1213 1.368 . S
C1219 C1218 1.523 1_455 S
C1220 C1204 1.429 . S
C1220 C1216 1.429 . S
C1220 C1221 1.523 . S
C1221 C1205 1.368 . S
C1221 C1217 1.368 . S
C1221 C1220 1.523 . S
H1222 C1197 0.950 . S
H1223 C1199 0.950 . S
H1224 C1200 0.949 . S
H1225 C1202 0.950 . S
H1226 C1204 0.950 . S
C1227 C1228 1.349 . S
C1227 C1229 1.327 . S
C1227 H1252 0.950 . S
C1228 C1227 1.349 . S
C1228 C1244 1.349 . S
C1229 C1227 1.327 . S
C1229 C1248 1.429 . S
C1229 H1253 0.950 . S
C1230 C1247 1.574 . S
C1230 C1249 1.368 . S
C1230 H1254 0.949 . S
H1231 C1235 0.949 . S
C1232 C1233 1.349 . S
C1232 C1234 1.327 . S
C1232 H1255 0.950 . S
C1233 C1232 1.349 . S
C1233 C1245 1.349 . S
C1234 C1232 1.327 . S
C1234 C1250 1.429 . S
C1234 H1256 0.950 . S
C1235 H1231 0.949 . S
C1235 C1243 1.574 . S
C1235 C1251 1.368 . S
H1236 C1244 0.950 . S
H1237 C1242 0.950 . S
H1238 C1243 0.949 . S
H1239 C1245 0.950 . S
H1240 C1246 0.950 . S
H1241 C1247 0.949 . S
C1242 H1237 0.950 . S
C1242 C1244 1.327 . S
C1242 C1248 1.429 . S
C1243 C1235 1.574 . S
C1243 H1238 0.949 . S
C1243 C1249 1.368 . S
C1244 C1228 1.349 . S
C1244 H1236 0.950 . S
C1244 C1242 1.327 . S
C1245 C1233 1.349 . S
C1245 H1239 0.950 . S
C1245 C1246 1.327 . S
C1246 H1240 0.950 . S
C1246 C1245 1.327 . S
C1246 C1250 1.429 . S
C1247 C1230 1.574 . S
C1247 H1241 0.949 . S
C1247 C1251 1.368 . S
C1248 C1229 1.429 . S
C1248 C1242 1.429 . S
C1248 C1249 1.523 . S
C1249 C1230 1.368 . S
C1249 C1243 1.368 . S
C1249 C1248 1.523 . S
C1250 C1234 1.429 . S
C1250 C1246 1.429 . S
C1250 C1251 1.523 . S
C1251 C1235 1.368 . S
C1251 C1247 1.368 . S
C1251 C1250 1.523 . S
H1252 C1227 0.950 . S
H1253 C1229 0.950 . S
H1254 C1230 0.949 . S
H1255 C1232 0.950 . S
H1256 C1234 0.950 . S
C1257 C1258 1.349 . S
C1257 C1259 1.327 . S
C1257 H1282 0.950 . S
C1258 C1257 1.349 . S
C1258 C1274 1.349 . S
C1259 C1257 1.327 . S
C1259 C1278 1.429 . S
C1259 H1283 0.950 . S
C1260 C1277 1.574 . S
C1260 C1279 1.368 . S
C1260 H1284 0.949 . S
H1261 C1265 0.949 . S
C1262 C1263 1.349 . S
C1262 C1264 1.327 . S
C1262 H1285 0.950 . S
C1263 C1262 1.349 . S
C1263 C1275 1.349 . S
C1264 C1262 1.327 . S
C1264 C1280 1.429 . S
C1264 H1286 0.950 . S
C1265 H1261 0.949 . S
C1265 C1273 1.574 . S
C1265 C1281 1.368 . S
H1266 C1274 0.950 . S
H1267 C1272 0.950 . S
H1268 C1273 0.949 . S
H1269 C1275 0.950 . S
H1270 C1276 0.950 . S
H1271 C1277 0.949 . S
C1272 H1267 0.950 . S
C1272 C1274 1.327 . S
C1272 C1278 1.429 . S
C1273 C1265 1.574 . S
C1273 H1268 0.949 . S
C1273 C1279 1.368 . S
C1274 C1258 1.349 . S
C1274 H1266 0.950 . S
C1274 C1272 1.327 . S
C1275 C1263 1.349 . S
C1275 H1269 0.950 . S
C1275 C1276 1.327 . S
C1276 H1270 0.950 . S
C1276 C1275 1.327 . S
C1276 C1280 1.429 . S
C1277 C1260 1.574 . S
C1277 H1271 0.949 . S
C1277 C1281 1.368 . S
C1278 C1259 1.429 . S
C1278 C1272 1.429 . S
C1278 C1279 1.523 1_545 S
C1279 C1260 1.368 . S
C1279 C1273 1.368 . S
C1279 C1278 1.523 1_565 S
C1280 C1264 1.429 . S
C1280 C1276 1.429 . S
C1280 C1281 1.523 . S
C1281 C1265 1.368 . S
C1281 C1277 1.368 . S
C1281 C1280 1.523 . S
H1282 C1257 0.950 . S
H1283 C1259 0.950 . S
H1284 C1260 0.949 . S
H1285 C1262 0.950 . S
H1286 C1264 0.950 . S
C1287 C1288 1.349 . S
C1287 C1289 1.327 . S
C1287 H1312 0.950 . S
C1288 C1287 1.349 . S
C1288 C1304 1.349 . S
C1289 C1287 1.327 . S
C1289 C1308 1.429 . S
C1289 H1313 0.950 . S
C1290 C1307 1.574 . S
C1290 C1309 1.368 . S
C1290 H1314 0.949 . S
H1291 C1295 0.949 . S
C1292 C1293 1.349 . S
C1292 C1294 1.327 . S
C1292 H1315 0.950 . S
C1293 C1292 1.349 . S
C1293 C1305 1.349 . S
C1294 C1292 1.327 . S
C1294 C1310 1.429 . S
C1294 H1316 0.950 . S
C1295 H1291 0.949 . S
C1295 C1303 1.574 . S
C1295 C1311 1.368 . S
H1296 C1304 0.950 . S
H1297 C1302 0.950 . S
H1298 C1303 0.949 . S
H1299 C1305 0.950 . S
H1300 C1306 0.950 . S
H1301 C1307 0.949 . S
C1302 H1297 0.950 . S
C1302 C1304 1.327 . S
C1302 C1308 1.429 . S
C1303 C1295 1.574 . S
C1303 H1298 0.949 . S
C1303 C1309 1.368 . S
C1304 C1288 1.349 . S
C1304 H1296 0.950 . S
C1304 C1302 1.327 . S
C1305 C1293 1.349 . S
C1305 H1299 0.950 . S
C1305 C1306 1.327 . S
C1306 H1300 0.950 . S
C1306 C1305 1.327 . S
C1306 C1310 1.429 . S
C1307 C1290 1.574 . S
C1307 H1301 0.949 . S
C1307 C1311 1.368 . S
C1308 C1289 1.429 . S
C1308 C1302 1.429 . S
C1308 C1309 1.523 . S
C1309 C1290 1.368 . S
C1309 C1303 1.368 . S
C1309 C1308 1.523 . S
C1310 C1294 1.429 . S
C1310 C1306 1.429 . S
C1310 C1311 1.523 . S
C1311 C1295 1.368 . S
C1311 C1307 1.368 . S
C1311 C1310 1.523 . S
H1312 C1287 0.950 . S
H1313 C1289 0.950 . S
H1314 C1290 0.949 . S
H1315 C1292 0.950 . S
H1316 C1294 0.950 . S
C1317 C1318 1.349 . S
C1317 C1319 1.327 . S
C1317 H1342 0.950 . S
C1318 C1317 1.349 . S
C1318 C1334 1.349 . S
C1319 C1317 1.327 . S
C1319 C1338 1.429 . S
C1319 H1343 0.950 . S
C1320 C1337 1.574 . S
C1320 C1339 1.368 . S
C1320 H1344 0.949 . S
H1321 C1325 0.949 . S
C1322 C1323 1.349 . S
C1322 C1324 1.327 . S
C1322 H1345 0.950 . S
C1323 C1322 1.349 . S
C1323 C1335 1.349 . S
C1324 C1322 1.327 . S
C1324 C1340 1.429 . S
C1324 H1346 0.950 . S
C1325 H1321 0.949 . S
C1325 C1333 1.574 . S
C1325 C1341 1.368 . S
H1326 C1334 0.950 . S
H1327 C1332 0.950 . S
H1328 C1333 0.949 . S
H1329 C1335 0.950 . S
H1330 C1336 0.950 . S
H1331 C1337 0.949 . S
C1332 H1327 0.950 . S
C1332 C1334 1.327 . S
C1332 C1338 1.429 . S
C1333 C1325 1.574 . S
C1333 H1328 0.949 . S
C1333 C1339 1.368 . S
C1334 C1318 1.349 . S
C1334 H1326 0.950 . S
C1334 C1332 1.327 . S
C1335 C1323 1.349 . S
C1335 H1329 0.950 . S
C1335 C1336 1.327 . S
C1336 H1330 0.950 . S
C1336 C1335 1.327 . S
C1336 C1340 1.429 . S
C1337 C1320 1.574 . S
C1337 H1331 0.949 . S
C1337 C1341 1.368 . S
C1338 C1319 1.429 . S
C1338 C1332 1.429 . S
C1338 C1339 1.523 . S
C1339 C1320 1.368 . S
C1339 C1333 1.368 . S
C1339 C1338 1.523 . S
C1340 C1324 1.429 . S
C1340 C1336 1.429 . S
C1340 C1341 1.523 . S
C1341 C1325 1.368 . S
C1341 C1337 1.368 . S
C1341 C1340 1.523 . S
H1342 C1317 0.950 . S
H1343 C1319 0.950 . S
H1344 C1320 0.949 . S
H1345 C1322 0.950 . S
H1346 C1324 0.950 . S
C1347 C1348 1.349 . S
C1347 C1349 1.327 . S
C1347 H1372 0.950 . S
C1348 C1347 1.349 . S
C1348 C1364 1.349 . S
C1349 C1347 1.327 . S
C1349 C1368 1.429 . S
C1349 H1373 0.950 . S
C1350 C1367 1.574 . S
C1350 C1369 1.368 . S
C1350 H1374 0.949 . S
H1351 C1355 0.949 . S
C1352 C1353 1.349 . S
C1352 C1354 1.327 . S
C1352 H1375 0.950 . S
C1353 C1352 1.349 . S
C1353 C1365 1.349 . S
C1354 C1352 1.327 . S
C1354 C1370 1.429 . S
C1354 H1376 0.950 . S
C1355 H1351 0.949 . S
C1355 C1363 1.574 . S
C1355 C1371 1.368 . S
H1356 C1364 0.950 . S
H1357 C1362 0.950 . S
H1358 C1363 0.949 . S
H1359 C1365 0.950 . S
H1360 C1366 0.950 . S
H1361 C1367 0.949 . S
C1362 H1357 0.950 . S
C1362 C1364 1.327 . S
C1362 C1368 1.429 . S
C1363 C1355 1.574 . S
C1363 H1358 0.949 . S
C1363 C1369 1.368 . S
C1364 C1348 1.349 . S
C1364 H1356 0.950 . S
C1364 C1362 1.327 . S
C1365 C1353 1.349 . S
C1365 H1359 0.950 . S
C1365 C1366 1.327 . S
C1366 H1360 0.950 . S
C1366 C1365 1.327 . S
C1366 C1370 1.429 . S
C1367 C1350 1.574 . S
C1367 H1361 0.949 . S
C1367 C1371 1.368 . S
C1368 C1349 1.429 . S
C1368 C1362 1.429 . S
C1368 C1369 1.523 . S
C1369 C1350 1.368 . S
C1369 C1363 1.368 . S
C1369 C1368 1.523 . S
C1370 C1354 1.429 . S
C1370 C1366 1.429 . S
C1370 C1371 1.523 . S
C1371 C1355 1.368 . S
C1371 C1367 1.368 . S
C1371 C1370 1.523 . S
H1372 C1347 0.950 . S
H1373 C1349 0.950 . S
H1374 C1350 0.949 . S
H1375 C1352 0.950 . S
H1376 C1354 0.950 . S
C1377 C1378 1.349 . S
C1377 C1379 1.327 . S
C1377 H1402 0.950 . S
C1378 C1377 1.349 . S
C1378 C1394 1.349 . S
C1379 C1377 1.327 . S
C1379 C1398 1.429 . S
C1379 H1403 0.950 . S
C1380 C1397 1.574 . S
C1380 C1399 1.368 . S
C1380 H1404 0.949 . S
H1381 C1385 0.949 . S
C1382 C1383 1.349 . S
C1382 C1384 1.327 . S
C1382 H1405 0.950 . S
C1383 C1382 1.349 . S
C1383 C1395 1.349 . S
C1384 C1382 1.327 . S
C1384 C1400 1.429 . S
C1384 H1406 0.950 . S
C1385 H1381 0.949 . S
C1385 C1393 1.574 . S
C1385 C1401 1.368 . S
H1386 C1394 0.950 . S
H1387 C1392 0.950 . S
H1388 C1393 0.949 . S
H1389 C1395 0.950 . S
H1390 C1396 0.950 . S
H1391 C1397 0.949 . S
C1392 H1387 0.950 . S
C1392 C1394 1.327 . S
C1392 C1398 1.429 . S
C1393 C1385 1.574 . S
C1393 H1388 0.949 . S
C1393 C1399 1.368 . S
C1394 C1378 1.349 . S
C1394 H1386 0.950 . S
C1394 C1392 1.327 . S
C1395 C1383 1.349 . S
C1395 H1389 0.950 . S
C1395 C1396 1.327 . S
C1396 H1390 0.950 . S
C1396 C1395 1.327 . S
C1396 C1400 1.429 . S
C1397 C1380 1.574 . S
C1397 H1391 0.949 . S
C1397 C1401 1.368 . S
C1398 C1379 1.429 . S
C1398 C1392 1.429 . S
C1398 C1399 1.523 . S
C1399 C1380 1.368 . S
C1399 C1393 1.368 . S
C1399 C1398 1.523 . S
C1400 C1384 1.429 . S
C1400 C1396 1.429 . S
C1400 C1401 1.523 . S
C1401 C1385 1.368 . S
C1401 C1397 1.368 . S
C1401 C1400 1.523 . S
H1402 C1377 0.950 . S
H1403 C1379 0.950 . S
H1404 C1380 0.949 . S
H1405 C1382 0.950 . S
H1406 C1384 0.950 . S
C1407 C1408 1.349 . S
C1407 C1409 1.327 . S
C1407 H1432 0.950 . S
C1408 C1407 1.349 . S
C1408 C1424 1.349 . S
C1409 C1407 1.327 . S
C1409 C1428 1.429 . S
C1409 H1433 0.950 . S
C1410 C1427 1.574 . S
C1410 C1429 1.368 . S
C1410 H1434 0.949 . S
H1411 C1415 0.949 . S
C1412 C1413 1.349 . S
C1412 C1414 1.327 . S
C1412 H1435 0.950 . S
C1413 C1412 1.349 . S
C1413 C1425 1.349 . S
C1414 C1412 1.327 . S
C1414 C1430 1.429 . S
C1414 H1436 0.950 . S
C1415 H1411 0.949 . S
C1415 C1423 1.574 . S
C1415 C1431 1.368 . S
H1416 C1424 0.950 . S
H1417 C1422 0.950 . S
H1418 C1423 0.949 . S
H1419 C1425 0.950 . S
H1420 C1426 0.950 . S
H1421 C1427 0.949 . S
C1422 H1417 0.950 . S
C1422 C1424 1.327 . S
C1422 C1428 1.429 . S
C1423 C1415 1.574 . S
C1423 H1418 0.949 . S
C1423 C1429 1.368 . S
C1424 C1408 1.349 . S
C1424 H1416 0.950 . S
C1424 C1422 1.327 . S
C1425 C1413 1.349 . S
C1425 H1419 0.950 . S
C1425 C1426 1.327 . S
C1426 H1420 0.950 . S
C1426 C1425 1.327 . S
C1426 C1430 1.429 . S
C1427 C1410 1.574 . S
C1427 H1421 0.949 . S
C1427 C1431 1.368 . S
C1428 C1409 1.429 . S
C1428 C1422 1.429 . S
C1428 C1429 1.523 . S
C1429 C1410 1.368 . S
C1429 C1423 1.368 . S
C1429 C1428 1.523 . S
C1430 C1414 1.429 . S
C1430 C1426 1.429 . S
C1430 C1431 1.523 . S
C1431 C1415 1.368 . S
C1431 C1427 1.368 . S
C1431 C1430 1.523 . S
H1432 C1407 0.950 . S
H1433 C1409 0.950 . S
H1434 C1410 0.949 . S
H1435 C1412 0.950 . S
H1436 C1414 0.950 . S
C1437 C1438 1.349 . S
C1437 C1439 1.327 . S
C1437 H1462 0.950 . S
C1438 C1437 1.349 . S
C1438 C1454 1.349 . S
C1439 C1437 1.327 . S
C1439 C1458 1.429 . S
C1439 H1463 0.950 . S
C1440 C1457 1.574 . S
C1440 C1459 1.368 . S
C1440 H1464 0.949 . S
H1441 C1445 0.949 . S
C1442 C1443 1.349 . S
C1442 C1444 1.327 . S
C1442 H1465 0.950 . S
C1443 C1442 1.349 . S
C1443 C1455 1.349 . S
C1444 C1442 1.327 . S
C1444 C1460 1.429 . S
C1444 H1466 0.950 . S
C1445 H1441 0.949 . S
C1445 C1453 1.574 . S
C1445 C1461 1.368 . S
H1446 C1454 0.950 . S
H1447 C1452 0.950 . S
H1448 C1453 0.949 . S
H1449 C1455 0.950 . S
H1450 C1456 0.950 . S
H1451 C1457 0.949 . S
C1452 H1447 0.950 . S
C1452 C1454 1.327 . S
C1452 C1458 1.429 . S
C1453 C1445 1.574 . S
C1453 H1448 0.949 . S
C1453 C1459 1.368 . S
C1454 C1438 1.349 . S
C1454 H1446 0.950 . S
C1454 C1452 1.327 . S
C1455 C1443 1.349 . S
C1455 H1449 0.950 . S
C1455 C1456 1.327 . S
C1456 H1450 0.950 . S
C1456 C1455 1.327 . S
C1456 C1460 1.429 . S
C1457 C1440 1.574 . S
C1457 H1451 0.949 . S
C1457 C1461 1.368 . S
C1458 C1439 1.429 . S
C1458 C1452 1.429 . S
C1458 C1459 1.523 . S
C1459 C1440 1.368 . S
C1459 C1453 1.368 . S
C1459 C1458 1.523 . S
C1460 C1444 1.429 . S
C1460 C1456 1.429 . S
C1460 C1461 1.523 . S
C1461 C1445 1.368 . S
C1461 C1457 1.368 . S
C1461 C1460 1.523 . S
H1462 C1437 0.950 . S
H1463 C1439 0.950 . S
H1464 C1440 0.949 . S
H1465 C1442 0.950 . S
H1466 C1444 0.950 . S
C1467 C1468 1.349 . S
C1467 C1469 1.327 . S
C1467 H1492 0.950 . S
C1468 C1467 1.349 . S
C1468 C1484 1.349 . S
C1469 C1467 1.327 . S
C1469 C1488 1.429 . S
C1469 H1493 0.950 . S
C1470 C1487 1.574 . S
C1470 C1489 1.368 . S
C1470 H1494 0.949 . S
H1471 C1475 0.949 . S
C1472 C1473 1.349 . S
C1472 C1474 1.327 . S
C1472 H1495 0.950 . S
C1473 C1472 1.349 . S
C1473 C1485 1.349 . S
C1474 C1472 1.327 . S
C1474 C1490 1.429 . S
C1474 H1496 0.950 . S
C1475 H1471 0.949 . S
C1475 C1483 1.574 . S
C1475 C1491 1.368 . S
H1476 C1484 0.950 . S
H1477 C1482 0.950 . S
H1478 C1483 0.949 . S
H1479 C1485 0.950 . S
H1480 C1486 0.950 . S
H1481 C1487 0.949 . S
C1482 H1477 0.950 . S
C1482 C1484 1.327 . S
C1482 C1488 1.429 . S
C1483 C1475 1.574 . S
C1483 H1478 0.949 . S
C1483 C1489 1.368 . S
C1484 C1468 1.349 . S
C1484 H1476 0.950 . S
C1484 C1482 1.327 . S
C1485 C1473 1.349 . S
C1485 H1479 0.950 . S
C1485 C1486 1.327 . S
C1486 H1480 0.950 . S
C1486 C1485 1.327 . S
C1486 C1490 1.429 . S
C1487 C1470 1.574 . S
C1487 H1481 0.949 . S
C1487 C1491 1.368 . S
C1488 C1469 1.429 . S
C1488 C1482 1.429 . S
C1488 C1489 1.523 1_545 S
C1489 C1470 1.368 . S
C1489 C1483 1.368 . S
C1489 C1488 1.523 1_565 S
C1490 C1474 1.429 . S
C1490 C1486 1.429 . S
C1490 C1491 1.523 . S
C1491 C1475 1.368 . S
C1491 C1487 1.368 . S
C1491 C1490 1.523 . S
H1492 C1467 0.950 . S
H1493 C1469 0.950 . S
H1494 C1470 0.949 . S
H1495 C1472 0.950 . S
H1496 C1474 0.950 . S
C1497 C1498 1.349 . S
C1497 C1499 1.327 . S
C1497 H1522 0.950 . S
C1498 C1497 1.349 . S
C1498 C1514 1.349 . S
C1499 C1497 1.327 . S
C1499 C1518 1.429 . S
C1499 H1523 0.950 . S
C1500 C1517 1.574 . S
C1500 C1519 1.368 . S
C1500 H1524 0.949 . S
H1501 C1505 0.949 . S
C1502 C1503 1.349 . S
C1502 C1504 1.327 . S
C1502 H1525 0.950 . S
C1503 C1502 1.349 . S
C1503 C1515 1.349 . S
C1504 C1502 1.327 . S
C1504 C1520 1.429 . S
C1504 H1526 0.950 . S
C1505 H1501 0.949 . S
C1505 C1513 1.574 . S
C1505 C1521 1.368 . S
H1506 C1514 0.950 . S
H1507 C1512 0.950 . S
H1508 C1513 0.949 . S
H1509 C1515 0.950 . S
H1510 C1516 0.950 . S
H1511 C1517 0.949 . S
C1512 H1507 0.950 . S
C1512 C1514 1.327 . S
C1512 C1518 1.429 . S
C1513 C1505 1.574 . S
C1513 H1508 0.949 . S
C1513 C1519 1.368 . S
C1514 C1498 1.349 . S
C1514 H1506 0.950 . S
C1514 C1512 1.327 . S
C1515 C1503 1.349 . S
C1515 H1509 0.950 . S
C1515 C1516 1.327 . S
C1516 H1510 0.950 . S
C1516 C1515 1.327 . S
C1516 C1520 1.429 . S
C1517 C1500 1.574 . S
C1517 H1511 0.949 . S
C1517 C1521 1.368 . S
C1518 C1499 1.429 . S
C1518 C1512 1.429 . S
C1518 C1519 1.523 1_655 S
C1519 C1500 1.368 . S
C1519 C1513 1.368 . S
C1519 C1518 1.523 1_455 S
C1520 C1504 1.429 . S
C1520 C1516 1.429 . S
C1520 C1521 1.523 . S
C1521 C1505 1.368 . S
C1521 C1517 1.368 . S
C1521 C1520 1.523 . S
H1522 C1497 0.950 . S
H1523 C1499 0.950 . S
H1524 C1500 0.949 . S
H1525 C1502 0.950 . S
H1526 C1504 0.950 . S
C1527 C1528 1.349 . S
C1527 C1529 1.327 . S
C1527 H1552 0.950 . S
C1528 C1527 1.349 . S
C1528 C1544 1.349 . S
C1529 C1527 1.327 . S
C1529 C1548 1.429 . S
C1529 H1553 0.950 . S
C1530 C1547 1.574 . S
C1530 C1549 1.368 . S
C1530 H1554 0.949 . S
H1531 C1535 0.949 . S
C1532 C1533 1.349 . S
C1532 C1534 1.327 . S
C1532 H1555 0.950 . S
C1533 C1532 1.349 . S
C1533 C1545 1.349 . S
C1534 C1532 1.327 . S
C1534 C1550 1.429 . S
C1534 H1556 0.950 . S
C1535 H1531 0.949 . S
C1535 C1543 1.574 . S
C1535 C1551 1.368 . S
H1536 C1544 0.950 . S
H1537 C1542 0.950 . S
H1538 C1543 0.949 . S
H1539 C1545 0.950 . S
H1540 C1546 0.950 . S
H1541 C1547 0.949 . S
C1542 H1537 0.950 . S
C1542 C1544 1.327 . S
C1542 C1548 1.429 . S
C1543 C1535 1.574 . S
C1543 H1538 0.949 . S
C1543 C1549 1.368 . S
C1544 C1528 1.349 . S
C1544 H1536 0.950 . S
C1544 C1542 1.327 . S
C1545 C1533 1.349 . S
C1545 H1539 0.950 . S
C1545 C1546 1.327 . S
C1546 H1540 0.950 . S
C1546 C1545 1.327 . S
C1546 C1550 1.429 . S
C1547 C1530 1.574 . S
C1547 H1541 0.949 . S
C1547 C1551 1.368 . S
C1548 C1529 1.429 . S
C1548 C1542 1.429 . S
C1548 C1549 1.523 . S
C1549 C1530 1.368 . S
C1549 C1543 1.368 . S
C1549 C1548 1.523 . S
C1550 C1534 1.429 . S
C1550 C1546 1.429 . S
C1550 C1551 1.523 . S
C1551 C1535 1.368 . S
C1551 C1547 1.368 . S
C1551 C1550 1.523 . S
H1552 C1527 0.950 . S
H1553 C1529 0.950 . S
H1554 C1530 0.949 . S
H1555 C1532 0.950 . S
H1556 C1534 0.950 . S
C1557 C1558 1.349 . S
C1557 C1559 1.327 . S
C1557 H1582 0.950 . S
C1558 C1557 1.349 . S
C1558 C1574 1.349 . S
C1559 C1557 1.327 . S
C1559 C1578 1.429 . S
C1559 H1583 0.950 . S
C1560 C1577 1.574 . S
C1560 C1579 1.368 . S
C1560 H1584 0.949 . S
H1561 C1565 0.949 . S
C1562 C1563 1.349 . S
C1562 C1564 1.327 . S
C1562 H1585 0.950 . S
C1563 C1562 1.349 . S
C1563 C1575 1.349 . S
C1564 C1562 1.327 . S
C1564 C1580 1.429 . S
C1564 H1586 0.950 . S
C1565 H1561 0.949 . S
C1565 C1573 1.574 . S
C1565 C1581 1.368 . S
H1566 C1574 0.950 . S
H1567 C1572 0.950 . S
H1568 C1573 0.949 . S
H1569 C1575 0.950 . S
H1570 C1576 0.950 . S
H1571 C1577 0.949 . S
C1572 H1567 0.950 . S
C1572 C1574 1.327 . S
C1572 C1578 1.429 . S
C1573 C1565 1.574 . S
C1573 H1568 0.949 . S
C1573 C1579 1.368 . S
C1574 C1558 1.349 . S
C1574 H1566 0.950 . S
C1574 C1572 1.327 . S
C1575 C1563 1.349 . S
C1575 H1569 0.950 . S
C1575 C1576 1.327 . S
C1576 H1570 0.950 . S
C1576 C1575 1.327 . S
C1576 C1580 1.429 . S
C1577 C1560 1.574 . S
C1577 H1571 0.949 . S
C1577 C1581 1.368 . S
C1578 C1559 1.429 . S
C1578 C1572 1.429 . S
C1578 C1579 1.523 . S
C1579 C1560 1.368 . S
C1579 C1573 1.368 . S
C1579 C1578 1.523 . S
C1580 C1564 1.429 . S
C1580 C1576 1.429 . S
C1580 C1581 1.523 . S
C1581 C1565 1.368 . S
C1581 C1577 1.368 . S
C1581 C1580 1.523 . S
H1582 C1557 0.950 . S
H1583 C1559 0.950 . S
H1584 C1560 0.949 . S
H1585 C1562 0.950 . S
H1586 C1564 0.950 . S
C1587 C1588 1.349 . S
C1587 C1589 1.327 . S
C1587 H1612 0.950 . S
C1588 C1587 1.349 . S
C1588 C1604 1.349 . S
C1589 C1587 1.327 . S
C1589 C1608 1.429 . S
C1589 H1613 0.950 . S
C1590 C1607 1.574 . S
C1590 C1609 1.368 . S
C1590 H1614 0.949 . S
H1591 C1595 0.949 . S
C1592 C1593 1.349 . S
C1592 C1594 1.327 . S
C1592 H1615 0.950 . S
C1593 C1592 1.349 . S
C1593 C1605 1.349 . S
C1594 C1592 1.327 . S
C1594 C1610 1.429 . S
C1594 H1616 0.950 . S
C1595 H1591 0.949 . S
C1595 C1603 1.574 . S
C1595 C1611 1.368 . S
H1596 C1604 0.950 . S
H1597 C1602 0.950 . S
H1598 C1603 0.949 . S
H1599 C1605 0.950 . S
H1600 C1606 0.950 . S
H1601 C1607 0.949 . S
C1602 H1597 0.950 . S
C1602 C1604 1.327 . S
C1602 C1608 1.429 . S
C1603 C1595 1.574 . S
C1603 H1598 0.949 . S
C1603 C1609 1.368 . S
C1604 C1588 1.349 . S
C1604 H1596 0.950 . S
C1604 C1602 1.327 . S
C1605 C1593 1.349 . S
C1605 H1599 0.950 . S
C1605 C1606 1.327 . S
C1606 H1600 0.950 . S
C1606 C1605 1.327 . S
C1606 C1610 1.429 . S
C1607 C1590 1.574 . S
C1607 H1601 0.949 . S
C1607 C1611 1.368 . S
C1608 C1589 1.429 . S
C1608 C1602 1.429 . S
C1608 C1609 1.523 . S
C1609 C1590 1.368 . S
C1609 C1603 1.368 . S
C1609 C1608 1.523 . S
C1610 C1594 1.429 . S
C1610 C1606 1.429 . S
C1610 C1611 1.523 . S
C1611 C1595 1.368 . S
C1611 C1607 1.368 . S
C1611 C1610 1.523 . S
H1612 C1587 0.950 . S
H1613 C1589 0.950 . S
H1614 C1590 0.949 . S
H1615 C1592 0.950 . S
H1616 C1594 0.950 . S
C1617 C1618 1.349 . S
C1617 C1619 1.327 . S
C1617 H1642 0.950 . S
C1618 C1617 1.349 . S
C1618 C1634 1.349 . S
C1619 C1617 1.327 . S
C1619 C1638 1.429 . S
C1619 H1643 0.950 . S
C1620 C1637 1.574 . S
C1620 C1639 1.368 . S
C1620 H1644 0.949 . S
H1621 C1625 0.949 . S
C1622 C1623 1.349 . S
C1622 C1624 1.327 . S
C1622 H1645 0.950 . S
C1623 C1622 1.349 . S
C1623 C1635 1.349 . S
C1624 C1622 1.327 . S
C1624 C1640 1.429 . S
C1624 H1646 0.950 . S
C1625 H1621 0.949 . S
C1625 C1633 1.574 . S
C1625 C1641 1.368 . S
H1626 C1634 0.950 . S
H1627 C1632 0.950 . S
H1628 C1633 0.949 . S
H1629 C1635 0.950 . S
H1630 C1636 0.950 . S
H1631 C1637 0.949 . S
C1632 H1627 0.950 . S
C1632 C1634 1.327 . S
C1632 C1638 1.429 . S
C1633 C1625 1.574 . S
C1633 H1628 0.949 . S
C1633 C1639 1.368 . S
C1634 C1618 1.349 . S
C1634 H1626 0.950 . S
C1634 C1632 1.327 . S
C1635 C1623 1.349 . S
C1635 H1629 0.950 . S
C1635 C1636 1.327 . S
C1636 H1630 0.950 . S
C1636 C1635 1.327 . S
C1636 C1640 1.429 . S
C1637 C1620 1.574 . S
C1637 H1631 0.949 . S
C1637 C1641 1.368 . S
C1638 C1619 1.429 . S
C1638 C1632 1.429 . S
C1638 C1639 1.523 . S
C1639 C1620 1.368 . S
C1639 C1633 1.368 . S
C1639 C1638 1.523 . S
C1640 C1624 1.429 . S
C1640 C1636 1.429 . S
C1640 C1641 1.523 . S
C1641 C1625 1.368 . S
C1641 C1637 1.368 . S
C1641 C1640 1.523 . S
H1642 C1617 0.950 . S
H1643 C1619 0.950 . S
H1644 C1620 0.949 . S
H1645 C1622 0.950 . S
H1646 C1624 0.950 . S
C1647 C1648 1.349 . S
C1647 C1649 1.327 . S
C1647 H1672 0.950 . S
C1648 C1647 1.349 . S
C1648 C1664 1.349 . S
C1649 C1647 1.327 . S
C1649 C1668 1.429 . S
C1649 H1673 0.950 . S
C1650 C1667 1.574 . S
C1650 C1669 1.368 . S
C1650 H1674 0.949 . S
H1651 C1655 0.949 . S
C1652 C1653 1.349 . S
C1652 C1654 1.327 . S
C1652 H1675 0.950 . S
C1653 C1652 1.349 . S
C1653 C1665 1.349 . S
C1654 C1652 1.327 . S
C1654 C1670 1.429 . S
C1654 H1676 0.950 . S
C1655 H1651 0.949 . S
C1655 C1663 1.574 . S
C1655 C1671 1.368 . S
H1656 C1664 0.950 . S
H1657 C1662 0.950 . S
H1658 C1663 0.949 . S
H1659 C1665 0.950 . S
H1660 C1666 0.950 . S
H1661 C1667 0.949 . S
C1662 H1657 0.950 . S
C1662 C1664 1.327 . S
C1662 C1668 1.429 . S
C1663 C1655 1.574 . S
C1663 H1658 0.949 . S
C1663 C1669 1.368 . S
C1664 C1648 1.349 . S
C1664 H1656 0.950 . S
C1664 C1662 1.327 . S
C1665 C1653 1.349 . S
C1665 H1659 0.950 . S
C1665 C1666 1.327 . S
C1666 H1660 0.950 . S
C1666 C1665 1.327 . S
C1666 C1670 1.429 . S
C1667 C1650 1.574 . S
C1667 H1661 0.949 . S
C1667 C1671 1.368 . S
C1668 C1649 1.429 . S
C1668 C1662 1.429 . S
C1668 C1669 1.523 1_565 S
C1669 C1650 1.368 . S
C1669 C1663 1.368 . S
C1669 C1668 1.523 1_545 S
C1670 C1654 1.429 . S
C1670 C1666 1.429 . S
C1670 C1671 1.523 . S
C1671 C1655 1.368 . S
C1671 C1667 1.368 . S
C1671 C1670 1.523 . S
H1672 C1647 0.950 . S
H1673 C1649 0.950 . S
H1674 C1650 0.949 . S
H1675 C1652 0.950 . S
H1676 C1654 0.950 . S
C1677 C1678 1.349 . S
C1677 C1679 1.327 . S
C1677 H1702 0.950 . S
C1678 C1677 1.349 . S
C1678 C1694 1.349 . S
C1679 C1677 1.327 . S
C1679 C1698 1.429 . S
C1679 H1703 0.950 . S
C1680 C1697 1.574 . S
C1680 C1699 1.368 . S
C1680 H1704 0.949 . S
H1681 C1685 0.949 . S
C1682 C1683 1.349 . S
C1682 C1684 1.327 . S
C1682 H1705 0.950 . S
C1683 C1682 1.349 . S
C1683 C1695 1.349 . S
C1684 C1682 1.327 . S
C1684 C1700 1.429 . S
C1684 H1706 0.950 . S
C1685 H1681 0.949 . S
C1685 C1693 1.574 . S
C1685 C1701 1.368 . S
H1686 C1694 0.950 . S
H1687 C1692 0.950 . S
H1688 C1693 0.949 . S
H1689 C1695 0.950 . S
H1690 C1696 0.950 . S
H1691 C1697 0.949 . S
C1692 H1687 0.950 . S
C1692 C1694 1.327 . S
C1692 C1698 1.429 . S
C1693 C1685 1.574 . S
C1693 H1688 0.949 . S
C1693 C1699 1.368 . S
C1694 C1678 1.349 . S
C1694 H1686 0.950 . S
C1694 C1692 1.327 . S
C1695 C1683 1.349 . S
C1695 H1689 0.950 . S
C1695 C1696 1.327 . S
C1696 H1690 0.950 . S
C1696 C1695 1.327 . S
C1696 C1700 1.429 . S
C1697 C1680 1.574 . S
C1697 H1691 0.949 . S
C1697 C1701 1.368 . S
C1698 C1679 1.429 . S
C1698 C1692 1.429 . S
C1698 C1699 1.523 1_455 S
C1699 C1680 1.368 . S
C1699 C1693 1.368 . S
C1699 C1698 1.523 1_655 S
C1700 C1684 1.429 . S
C1700 C1696 1.429 . S
C1700 C1701 1.523 . S
C1701 C1685 1.368 . S
C1701 C1697 1.368 . S
C1701 C1700 1.523 . S
H1702 C1677 0.950 . S
H1703 C1679 0.950 . S
H1704 C1680 0.949 . S
H1705 C1682 0.950 . S
H1706 C1684 0.950 . S
C1707 C1708 1.349 . S
C1707 C1709 1.327 . S
C1707 H1732 0.950 . S
C1708 C1707 1.349 . S
C1708 C1724 1.349 . S
C1709 C1707 1.327 . S
C1709 C1728 1.429 . S
C1709 H1733 0.950 . S
C1710 C1727 1.574 . S
C1710 C1729 1.368 . S
C1710 H1734 0.949 . S
H1711 C1715 0.949 . S
C1712 C1713 1.349 . S
C1712 C1714 1.327 . S
C1712 H1735 0.950 . S
C1713 C1712 1.349 . S
C1713 C1725 1.349 . S
C1714 C1712 1.327 . S
C1714 C1730 1.429 . S
C1714 H1736 0.950 . S
C1715 H1711 0.949 . S
C1715 C1723 1.574 . S
C1715 C1731 1.368 . S
H1716 C1724 0.950 . S
H1717 C1722 0.950 . S
H1718 C1723 0.949 . S
H1719 C1725 0.950 . S
H1720 C1726 0.950 . S
H1721 C1727 0.949 . S
C1722 H1717 0.950 . S
C1722 C1724 1.327 . S
C1722 C1728 1.429 . S
C1723 C1715 1.574 . S
C1723 H1718 0.949 . S
C1723 C1729 1.368 . S
C1724 C1708 1.349 . S
C1724 H1716 0.950 . S
C1724 C1722 1.327 . S
C1725 C1713 1.349 . S
C1725 H1719 0.950 . S
C1725 C1726 1.327 . S
C1726 H1720 0.950 . S
C1726 C1725 1.327 . S
C1726 C1730 1.429 . S
C1727 C1710 1.574 . S
C1727 H1721 0.949 . S
C1727 C1731 1.368 . S
C1728 C1709 1.429 . S
C1728 C1722 1.429 . S
C1728 C1729 1.523 . S
C1729 C1710 1.368 . S
C1729 C1723 1.368 . S
C1729 C1728 1.523 . S
C1730 C1714 1.429 . S
C1730 C1726 1.429 . S
C1730 C1731 1.523 . S
C1731 C1715 1.368 . S
C1731 C1727 1.368 . S
C1731 C1730 1.523 . S
H1732 C1707 0.950 . S
H1733 C1709 0.950 . S
H1734 C1710 0.949 . S
H1735 C1712 0.950 . S
H1736 C1714 0.950 . S
C1737 C1738 1.349 . S
C1737 C1739 1.327 . S
C1737 H1762 0.950 . S
C1738 C1737 1.349 . S
C1738 C1754 1.349 . S
C1739 C1737 1.327 . S
C1739 C1758 1.429 . S
C1739 H1763 0.950 . S
C1740 C1757 1.574 . S
C1740 C1759 1.368 . S
C1740 H1764 0.949 . S
H1741 C1745 0.949 . S
C1742 C1743 1.349 . S
C1742 C1744 1.327 . S
C1742 H1765 0.950 . S
C1743 C1742 1.349 . S
C1743 C1755 1.349 . S
C1744 C1742 1.327 . S
C1744 C1760 1.429 . S
C1744 H1766 0.950 . S
C1745 H1741 0.949 . S
C1745 C1753 1.574 . S
C1745 C1761 1.368 . S
H1746 C1754 0.950 . S
H1747 C1752 0.950 . S
H1748 C1753 0.949 . S
H1749 C1755 0.950 . S
H1750 C1756 0.950 . S
H1751 C1757 0.949 . S
C1752 H1747 0.950 . S
C1752 C1754 1.327 . S
C1752 C1758 1.429 . S
C1753 C1745 1.574 . S
C1753 H1748 0.949 . S
C1753 C1759 1.368 . S
C1754 C1738 1.349 . S
C1754 H1746 0.950 . S
C1754 C1752 1.327 . S
C1755 C1743 1.349 . S
C1755 H1749 0.950 . S
C1755 C1756 1.327 . S
C1756 H1750 0.950 . S
C1756 C1755 1.327 . S
C1756 C1760 1.429 . S
C1757 C1740 1.574 . S
C1757 H1751 0.949 . S
C1757 C1761 1.368 . S
C1758 C1739 1.429 . S
C1758 C1752 1.429 . S
C1758 C1759 1.523 1_455 S
C1759 C1740 1.368 . S
C1759 C1753 1.368 . S
C1759 C1758 1.523 1_655 S
C1760 C1744 1.429 . S
C1760 C1756 1.429 . S
C1760 C1761 1.523 . S
C1761 C1745 1.368 . S
C1761 C1757 1.368 . S
C1761 C1760 1.523 . S
H1762 C1737 0.950 . S
H1763 C1739 0.950 . S
H1764 C1740 0.949 . S
H1765 C1742 0.950 . S
H1766 C1744 0.950 . S
C1767 C1768 1.349 . S
C1767 C1769 1.327 . S
C1767 H1792 0.950 . S
C1768 C1767 1.349 . S
C1768 C1784 1.349 . S
C1769 C1767 1.327 . S
C1769 C1788 1.429 . S
C1769 H1793 0.950 . S
C1770 C1787 1.574 . S
C1770 C1789 1.368 . S
C1770 H1794 0.949 . S
H1771 C1775 0.949 . S
C1772 C1773 1.349 . S
C1772 C1774 1.327 . S
C1772 H1795 0.950 . S
C1773 C1772 1.349 . S
C1773 C1785 1.349 . S
C1774 C1772 1.327 . S
C1774 C1790 1.429 . S
C1774 H1796 0.950 . S
C1775 H1771 0.949 . S
C1775 C1783 1.574 . S
C1775 C1791 1.368 . S
H1776 C1784 0.950 . S
H1777 C1782 0.950 . S
H1778 C1783 0.949 . S
H1779 C1785 0.950 . S
H1780 C1786 0.950 . S
H1781 C1787 0.949 . S
C1782 H1777 0.950 . S
C1782 C1784 1.327 . S
C1782 C1788 1.429 . S
C1783 C1775 1.574 . S
C1783 H1778 0.949 . S
C1783 C1789 1.368 . S
C1784 C1768 1.349 . S
C1784 H1776 0.950 . S
C1784 C1782 1.327 . S
C1785 C1773 1.349 . S
C1785 H1779 0.950 . S
C1785 C1786 1.327 . S
C1786 H1780 0.950 . S
C1786 C1785 1.327 . S
C1786 C1790 1.429 . S
C1787 C1770 1.574 . S
C1787 H1781 0.949 . S
C1787 C1791 1.368 . S
C1788 C1769 1.429 . S
C1788 C1782 1.429 . S
C1788 C1789 1.523 . S
C1789 C1770 1.368 . S
C1789 C1783 1.368 . S
C1789 C1788 1.523 . S
C1790 C1774 1.429 . S
C1790 C1786 1.429 . S
C1790 C1791 1.523 . S
C1791 C1775 1.368 . S
C1791 C1787 1.368 . S
C1791 C1790 1.523 . S
H1792 C1767 0.950 . S
H1793 C1769 0.950 . S
H1794 C1770 0.949 . S
H1795 C1772 0.950 . S
H1796 C1774 0.950 . S
C1797 C1798 1.349 . S
C1797 C1799 1.327 . S
C1797 H1822 0.950 . S
C1798 C1797 1.349 . S
C1798 C1814 1.349 . S
C1799 C1797 1.327 . S
C1799 C1818 1.429 . S
C1799 H1823 0.950 . S
C1800 C1817 1.574 . S
C1800 C1819 1.368 . S
C1800 H1824 0.949 . S
H1801 C1805 0.949 . S
C1802 C1803 1.349 . S
C1802 C1804 1.327 . S
C1802 H1825 0.950 . S
C1803 C1802 1.349 . S
C1803 C1815 1.349 . S
C1804 C1802 1.327 . S
C1804 C1820 1.429 . S
C1804 H1826 0.950 . S
C1805 H1801 0.949 . S
C1805 C1813 1.574 . S
C1805 C1821 1.368 . S
H1806 C1814 0.950 . S
H1807 C1812 0.950 . S
H1808 C1813 0.949 . S
H1809 C1815 0.950 . S
H1810 C1816 0.950 . S
H1811 C1817 0.949 . S
C1812 H1807 0.950 . S
C1812 C1814 1.327 . S
C1812 C1818 1.429 . S
C1813 C1805 1.574 . S
C1813 H1808 0.949 . S
C1813 C1819 1.368 . S
C1814 C1798 1.349 . S
C1814 H1806 0.950 . S
C1814 C1812 1.327 . S
C1815 C1803 1.349 . S
C1815 H1809 0.950 . S
C1815 C1816 1.327 . S
C1816 H1810 0.950 . S
C1816 C1815 1.327 . S
C1816 C1820 1.429 . S
C1817 C1800 1.574 . S
C1817 H1811 0.949 . S
C1817 C1821 1.368 . S
C1818 C1799 1.429 . S
C1818 C1812 1.429 . S
C1818 C1819 1.523 1_565 S
C1819 C1800 1.368 . S
C1819 C1813 1.368 . S
C1819 C1818 1.523 1_545 S
C1820 C1804 1.429 . S
C1820 C1816 1.429 . S
C1820 C1821 1.523 . S
C1821 C1805 1.368 . S
C1821 C1817 1.368 . S
C1821 C1820 1.523 . S
H1822 C1797 0.950 . S
H1823 C1799 0.950 . S
H1824 C1800 0.949 . S
H1825 C1802 0.950 . S
H1826 C1804 0.950 . S
C1827 C1828 1.349 . S
C1827 C1829 1.327 . S
C1827 H1852 0.950 . S
C1828 C1827 1.349 . S
C1828 C1844 1.349 . S
C1829 C1827 1.327 . S
C1829 C1848 1.429 . S
C1829 H1853 0.950 . S
C1830 C1847 1.574 . S
C1830 C1849 1.368 . S
C1830 H1854 0.949 . S
H1831 C1835 0.949 . S
C1832 C1833 1.349 . S
C1832 C1834 1.327 . S
C1832 H1855 0.950 . S
C1833 C1832 1.349 . S
C1833 C1845 1.349 . S
C1834 C1832 1.327 . S
C1834 C1850 1.429 . S
C1834 H1856 0.950 . S
C1835 H1831 0.949 . S
C1835 C1843 1.574 . S
C1835 C1851 1.368 . S
H1836 C1844 0.950 . S
H1837 C1842 0.950 . S
H1838 C1843 0.949 . S
H1839 C1845 0.950 . S
H1840 C1846 0.950 . S
H1841 C1847 0.949 . S
C1842 H1837 0.950 . S
C1842 C1844 1.327 . S
C1842 C1848 1.429 . S
C1843 C1835 1.574 . S
C1843 H1838 0.949 . S
C1843 C1849 1.368 . S
C1844 C1828 1.349 . S
C1844 H1836 0.950 . S
C1844 C1842 1.327 . S
C1845 C1833 1.349 . S
C1845 H1839 0.950 . S
C1845 C1846 1.327 . S
C1846 H1840 0.950 . S
C1846 C1845 1.327 . S
C1846 C1850 1.429 . S
C1847 C1830 1.574 . S
C1847 H1841 0.949 . S
C1847 C1851 1.368 . S
C1848 C1829 1.429 . S
C1848 C1842 1.429 . S
C1848 C1849 1.523 . S
C1849 C1830 1.368 . S
C1849 C1843 1.368 . S
C1849 C1848 1.523 . S
C1850 C1834 1.429 . S
C1850 C1846 1.429 . S
C1850 C1851 1.523 . S
C1851 C1835 1.368 . S
C1851 C1847 1.368 . S
C1851 C1850 1.523 . S
H1852 C1827 0.950 . S
H1853 C1829 0.950 . S
H1854 C1830 0.949 . S
H1855 C1832 0.950 . S
H1856 C1834 0.950 . S
C1857 C1858 1.349 . S
C1857 C1859 1.327 . S
C1857 H1882 0.950 . S
C1858 C1857 1.349 . S
C1858 C1874 1.349 . S
C1859 C1857 1.327 . S
C1859 C1878 1.429 . S
C1859 H1883 0.950 . S
C1860 C1877 1.574 . S
C1860 C1879 1.368 . S
C1860 H1884 0.949 . S
H1861 C1865 0.949 . S
C1862 C1863 1.349 . S
C1862 C1864 1.327 . S
C1862 H1885 0.950 . S
C1863 C1862 1.349 . S
C1863 C1875 1.349 . S
C1864 C1862 1.327 . S
C1864 C1880 1.429 . S
C1864 H1886 0.950 . S
C1865 H1861 0.949 . S
C1865 C1873 1.574 . S
C1865 C1881 1.368 . S
H1866 C1874 0.950 . S
H1867 C1872 0.950 . S
H1868 C1873 0.949 . S
H1869 C1875 0.950 . S
H1870 C1876 0.950 . S
H1871 C1877 0.949 . S
C1872 H1867 0.950 . S
C1872 C1874 1.327 . S
C1872 C1878 1.429 . S
C1873 C1865 1.574 . S
C1873 H1868 0.949 . S
C1873 C1879 1.368 . S
C1874 C1858 1.349 . S
C1874 H1866 0.950 . S
C1874 C1872 1.327 . S
C1875 C1863 1.349 . S
C1875 H1869 0.950 . S
C1875 C1876 1.327 . S
C1876 H1870 0.950 . S
C1876 C1875 1.327 . S
C1876 C1880 1.429 . S
C1877 C1860 1.574 . S
C1877 H1871 0.949 . S
C1877 C1881 1.368 . S
C1878 C1859 1.429 . S
C1878 C1872 1.429 . S
C1878 C1879 1.523 . S
C1879 C1860 1.368 . S
C1879 C1873 1.368 . S
C1879 C1878 1.523 . S
C1880 C1864 1.429 . S
C1880 C1876 1.429 . S
C1880 C1881 1.523 . S
C1881 C1865 1.368 . S
C1881 C1877 1.368 . S
C1881 C1880 1.523 . S
H1882 C1857 0.950 . S
H1883 C1859 0.950 . S
H1884 C1860 0.949 . S
H1885 C1862 0.950 . S
H1886 C1864 0.950 . S
C1887 C1888 1.349 . S
C1887 C1889 1.327 . S
C1887 H1912 0.950 . S
C1888 C1887 1.349 . S
C1888 C1904 1.349 . S
C1889 C1887 1.327 . S
C1889 C1908 1.429 . S
C1889 H1913 0.950 . S
C1890 C1907 1.574 . S
C1890 C1909 1.368 . S
C1890 H1914 0.949 . S
H1891 C1895 0.949 . S
C1892 C1893 1.349 . S
C1892 C1894 1.327 . S
C1892 H1915 0.950 . S
C1893 C1892 1.349 . S
C1893 C1905 1.349 . S
C1894 C1892 1.327 . S
C1894 C1910 1.429 . S
C1894 H1916 0.950 . S
C1895 H1891 0.949 . S
C1895 C1903 1.574 . S
C1895 C1911 1.368 . S
H1896 C1904 0.950 . S
H1897 C1902 0.950 . S
H1898 C1903 0.949 . S
H1899 C1905 0.950 . S
H1900 C1906 0.950 . S
H1901 C1907 0.949 . S
C1902 H1897 0.950 . S
C1902 C1904 1.327 . S
C1902 C1908 1.429 . S
C1903 C1895 1.574 . S
C1903 H1898 0.949 . S
C1903 C1909 1.368 . S
C1904 C1888 1.349 . S
C1904 H1896 0.950 . S
C1904 C1902 1.327 . S
C1905 C1893 1.349 . S
C1905 H1899 0.950 . S
C1905 C1906 1.327 . S
C1906 H1900 0.950 . S
C1906 C1905 1.327 . S
C1906 C1910 1.429 . S
C1907 C1890 1.574 . S
C1907 H1901 0.949 . S
C1907 C1911 1.368 . S
C1908 C1889 1.429 . S
C1908 C1902 1.429 . S
C1908 C1909 1.523 . S
C1909 C1890 1.368 . S
C1909 C1903 1.368 . S
C1909 C1908 1.523 . S
C1910 C1894 1.429 . S
C1910 C1906 1.429 . S
C1910 C1911 1.523 . S
C1911 C1895 1.368 . S
C1911 C1907 1.368 . S
C1911 C1910 1.523 . S
H1912 C1887 0.950 . S
H1913 C1889 0.950 . S
H1914 C1890 0.949 . S
H1915 C1892 0.950 . S
H1916 C1894 0.950 . S
C1917 C1918 1.349 . S
C1917 C1919 1.327 . S
C1917 H1942 0.950 . S
C1918 C1917 1.349 . S
C1918 C1934 1.349 . S
C1919 C1917 1.327 . S
C1919 C1938 1.429 . S
C1919 H1943 0.950 . S
C1920 C1937 1.574 . S
C1920 C1939 1.368 . S
C1920 H1944 0.949 . S
H1921 C1925 0.966 . S
C1922 C1923 1.346 . S
C1922 C1924 1.327 . S
C1922 H1945 0.950 . S
C1923 C1922 1.346 . S
C1923 C1935 1.351 1_565 S
C1924 C1922 1.327 . S
C1924 C1940 1.429 . S
C1924 H1946 0.950 . S
C1925 H1921 0.966 . S
C1925 C1933 1.567 1_545 S
C1925 C1941 1.358 1_545 S
H1926 C1934 0.950 . S
H1927 C1932 0.950 . S
H1928 C1933 0.949 1_545 S
H1929 C1935 0.950 . S
H1930 C1936 0.950 . S
H1931 C1937 0.949 . S
C1932 H1927 0.950 . S
C1932 C1934 1.327 . S
C1932 C1938 1.429 . S
C1933 C1925 1.567 1_565 S
C1933 H1928 0.949 1_565 S
C1933 C1939 1.368 . S
C1934 C1918 1.349 . S
C1934 H1926 0.950 . S
C1934 C1932 1.327 . S
C1935 C1923 1.351 1_545 S
C1935 H1929 0.950 . S
C1935 C1936 1.327 . S
C1936 H1930 0.950 . S
C1936 C1935 1.327 . S
C1936 C1940 1.429 1_545 S
C1937 C1920 1.574 . S
C1937 H1931 0.949 . S
C1937 C1941 1.368 . S
C1938 C1919 1.429 . S
C1938 C1932 1.429 . S
C1938 C1939 1.523 . S
C1939 C1920 1.368 . S
C1939 C1933 1.368 . S
C1939 C1938 1.523 . S
C1940 C1924 1.429 . S
C1940 C1936 1.429 1_565 S
C1940 C1941 1.523 . S
C1941 C1925 1.358 1_565 S
C1941 C1937 1.368 . S
C1941 C1940 1.523 . S
H1942 C1917 0.950 . S
H1943 C1919 0.950 . S
H1944 C1920 0.949 . S
H1945 C1922 0.950 . S
H1946 C1924 0.950 . S
C1947 C1948 1.349 . S
C1947 C1949 1.327 . S
C1947 H1972 0.950 . S
C1948 C1947 1.349 . S
C1948 C1964 1.349 . S
C1949 C1947 1.327 . S
C1949 C1968 1.429 . S
C1949 H1973 0.950 . S
C1950 C1967 1.574 . S
C1950 C1969 1.368 . S
C1950 H1974 0.949 1_455 S
H1951 C1955 0.949 . S
C1952 C1953 1.349 1_655 S
C1952 C1954 1.327 . S
C1952 H1975 0.950 . S
C1953 C1952 1.349 1_455 S
C1953 C1965 1.349 . S
C1954 C1952 1.327 . S
C1954 C1970 1.429 1_655 S
C1954 H1976 0.950 . S
C1955 H1951 0.949 . S
C1955 C1963 1.574 . S
C1955 C1971 1.368 . S
H1956 C1964 0.950 . S
H1957 C1962 0.950 . S
H1958 C1963 0.949 . S
H1959 C1965 0.950 . S
H1960 C1966 0.950 . S
H1961 C1967 0.949 1_655 S
C1962 H1957 0.950 . S
C1962 C1964 1.327 . S
C1962 C1968 1.429 . S
C1963 C1955 1.574 . S
C1963 H1958 0.949 . S
C1963 C1969 1.368 . S
C1964 C1948 1.349 . S
C1964 H1956 0.950 . S
C1964 C1962 1.327 . S
C1965 C1953 1.349 . S
C1965 H1959 0.950 . S
C1965 C1966 1.327 . S
C1966 H1960 0.950 . S
C1966 C1965 1.327 . S
C1966 C1970 1.429 . S
C1967 C1950 1.574 . S
C1967 H1961 0.949 1_455 S
C1967 C1971 1.368 . S
C1968 C1949 1.429 . S
C1968 C1962 1.429 . S
C1968 C1969 1.523 . S
C1969 C1950 1.368 . S
C1969 C1963 1.368 . S
C1969 C1968 1.523 . S
C1970 C1954 1.429 1_455 S
C1970 C1966 1.429 . S
C1970 C1971 1.523 . S
C1971 C1955 1.368 . S
C1971 C1967 1.368 . S
C1971 C1970 1.523 . S
H1972 C1947 0.950 . S
H1973 C1949 0.950 . S
H1974 C1950 0.949 1_655 S
H1975 C1952 0.950 . S
H1976 C1954 0.950 . S
C1977 C1978 1.349 . S
C1977 C1979 1.327 . S
C1977 H2002 0.950 . S
C1978 C1977 1.349 . S
C1978 C1994 1.349 . S
C1979 C1977 1.327 . S
C1979 C1998 1.429 . S
C1979 H2003 0.950 . S
C1980 C1997 1.574 . S
C1980 C1999 1.368 . S
C1980 H2004 0.949 . S
H1981 C1985 0.949 . S
C1982 C1983 1.349 . S
C1982 C1984 1.327 . S
C1982 H2005 0.950 . S
C1983 C1982 1.349 . S
C1983 C1995 1.349 . S
C1984 C1982 1.327 . S
C1984 C2000 1.429 . S
C1984 H2006 0.950 . S
C1985 H1981 0.949 . S
C1985 C1993 1.574 . S
C1985 C2001 1.368 . S
H1986 C1994 0.950 . S
H1987 C1992 0.950 . S
H1988 C1993 0.949 . S
H1989 C1995 0.950 . S
H1990 C1996 0.950 . S
H1991 C1997 0.949 . S
C1992 H1987 0.950 . S
C1992 C1994 1.327 . S
C1992 C1998 1.429 . S
C1993 C1985 1.574 . S
C1993 H1988 0.949 . S
C1993 C1999 1.368 . S
C1994 C1978 1.349 . S
C1994 H1986 0.950 . S
C1994 C1992 1.327 . S
C1995 C1983 1.349 . S
C1995 H1989 0.950 . S
C1995 C1996 1.327 . S
C1996 H1990 0.950 . S
C1996 C1995 1.327 . S
C1996 C2000 1.429 . S
C1997 C1980 1.574 . S
C1997 H1991 0.949 . S
C1997 C2001 1.368 . S
C1998 C1979 1.429 . S
C1998 C1992 1.429 . S
C1998 C1999 1.523 . S
C1999 C1980 1.368 . S
C1999 C1993 1.368 . S
C1999 C1998 1.523 . S
C2000 C1984 1.429 . S
C2000 C1996 1.429 . S
C2000 C2001 1.523 . S
C2001 C1985 1.368 . S
C2001 C1997 1.368 . S
C2001 C2000 1.523 . S
H2002 C1977 0.950 . S
H2003 C1979 0.950 . S
H2004 C1980 0.949 . S
H2005 C1982 0.950 . S
H2006 C1984 0.950 . S
C2007 C2008 1.349 . S
C2007 C2009 1.327 . S
C2007 H2032 0.950 . S
C2008 C2007 1.349 . S
C2008 C2024 1.349 . S
C2009 C2007 1.327 . S
C2009 C2028 1.429 . S
C2009 H2033 0.950 . S
C2010 C2027 1.574 . S
C2010 C2029 1.368 . S
C2010 H2034 0.949 . S
H2011 C2015 0.949 . S
C2012 C2013 1.349 . S
C2012 C2014 1.327 . S
C2012 H2035 0.950 . S
C2013 C2012 1.349 . S
C2013 C2025 1.349 . S
C2014 C2012 1.327 . S
C2014 C2030 1.429 . S
C2014 H2036 0.950 . S
C2015 H2011 0.949 . S
C2015 C2023 1.574 . S
C2015 C2031 1.368 . S
H2016 C2024 0.950 . S
H2017 C2022 0.950 . S
H2018 C2023 0.949 . S
H2019 C2025 0.950 1_455 S
H2020 C2026 0.950 . S
H2021 C2027 0.949 . S
C2022 H2017 0.950 . S
C2022 C2024 1.327 . S
C2022 C2028 1.429 . S
C2023 C2015 1.574 . S
C2023 H2018 0.949 . S
C2023 C2029 1.368 . S
C2024 C2008 1.349 . S
C2024 H2016 0.950 . S
C2024 C2022 1.327 . S
C2025 C2013 1.349 . S
C2025 H2019 0.950 1_655 S
C2025 C2026 1.327 . S
C2026 H2020 0.950 . S
C2026 C2025 1.327 . S
C2026 C2030 1.429 . S
C2027 C2010 1.574 . S
C2027 H2021 0.949 . S
C2027 C2031 1.368 . S
C2028 C2009 1.429 . S
C2028 C2022 1.429 . S
C2028 C2029 1.523 . S
C2029 C2010 1.368 . S
C2029 C2023 1.368 . S
C2029 C2028 1.523 . S
C2030 C2014 1.429 . S
C2030 C2026 1.429 . S
C2030 C2031 1.523 . S
C2031 C2015 1.368 . S
C2031 C2027 1.368 . S
C2031 C2030 1.523 . S
H2032 C2007 0.950 . S
H2033 C2009 0.950 . S
H2034 C2010 0.949 . S
H2035 C2012 0.950 . S
H2036 C2014 0.950 . S
C2037 C2038 1.349 . S
C2037 C2039 1.327 . S
C2037 H2062 0.950 . S
C2038 C2037 1.349 . S
C2038 C2054 1.349 . S
C2039 C2037 1.327 . S
C2039 C2058 1.429 . S
C2039 H2063 0.950 . S
C2040 C2057 1.574 . S
C2040 C2059 1.368 . S
C2040 H2064 0.949 . S
H2041 C2045 0.949 . S
C2042 C2043 1.349 . S
C2042 C2044 1.327 . S
C2042 H2065 0.950 . S
C2043 C2042 1.349 . S
C2043 C2055 1.349 . S
C2044 C2042 1.327 . S
C2044 C2060 1.429 . S
C2044 H2066 0.950 . S
C2045 H2041 0.949 . S
C2045 C2053 1.574 . S
C2045 C2061 1.368 . S
H2046 C2054 0.950 . S
H2047 C2052 0.950 . S
H2048 C2053 0.949 . S
H2049 C2055 0.950 . S
H2050 C2056 0.950 . S
H2051 C2057 0.949 . S
C2052 H2047 0.950 . S
C2052 C2054 1.327 . S
C2052 C2058 1.429 . S
C2053 C2045 1.574 . S
C2053 H2048 0.949 . S
C2053 C2059 1.368 . S
C2054 C2038 1.349 . S
C2054 H2046 0.950 . S
C2054 C2052 1.327 . S
C2055 C2043 1.349 . S
C2055 H2049 0.950 . S
C2055 C2056 1.327 . S
C2056 H2050 0.950 . S
C2056 C2055 1.327 . S
C2056 C2060 1.429 . S
C2057 C2040 1.574 . S
C2057 H2051 0.949 . S
C2057 C2061 1.368 . S
C2058 C2039 1.429 . S
C2058 C2052 1.429 . S
C2058 C2059 1.523 . S
C2059 C2040 1.368 . S
C2059 C2053 1.368 . S
C2059 C2058 1.523 . S
C2060 C2044 1.429 . S
C2060 C2056 1.429 . S
C2060 C2061 1.523 . S
C2061 C2045 1.368 . S
C2061 C2057 1.368 . S
C2061 C2060 1.523 . S
H2062 C2037 0.950 . S
H2063 C2039 0.950 . S
H2064 C2040 0.949 . S
H2065 C2042 0.950 . S
H2066 C2044 0.950 . S
C2067 C2068 1.349 . S
C2067 C2069 1.327 . S
C2067 H2092 0.950 . S
C2068 C2067 1.349 . S
C2068 C2084 1.349 . S
C2069 C2067 1.327 . S
C2069 C2088 1.429 . S
C2069 H2093 0.950 . S
C2070 C2087 1.574 . S
C2070 C2089 1.368 . S
C2070 H2094 0.949 . S
H2071 C2075 0.949 . S
C2072 C2073 1.349 1_565 S
C2072 C2074 1.326 . S
C2072 H2095 0.950 . S
C2073 C2072 1.349 1_545 S
C2073 C2085 1.349 . S
C2074 C2072 1.326 . S
C2074 C2090 1.436 1_565 S
C2074 H2096 0.944 . S
C2075 H2071 0.949 . S
C2075 C2083 1.574 . S
C2075 C2091 1.368 . S
H2076 C2084 0.950 . S
H2077 C2082 0.950 . S
H2078 C2083 0.949 . S
H2079 C2085 0.950 . S
H2080 C2086 0.950 . S
H2081 C2087 0.949 1_565 S
C2082 H2077 0.950 . S
C2082 C2084 1.327 . S
C2082 C2088 1.429 . S
C2083 C2075 1.574 . S
C2083 H2078 0.949 . S
C2083 C2089 1.368 . S
C2084 C2068 1.349 . S
C2084 H2076 0.950 . S
C2084 C2082 1.327 . S
C2085 C2073 1.349 . S
C2085 H2079 0.950 . S
C2085 C2086 1.327 . S
C2086 H2080 0.950 . S
C2086 C2085 1.327 . S
C2086 C2090 1.429 . S
C2087 C2070 1.574 . S
C2087 H2081 0.949 1_545 S
C2087 C2091 1.368 . S
C2088 C2069 1.429 . S
C2088 C2082 1.429 . S
C2088 C2089 1.523 . S
C2089 C2070 1.368 . S
C2089 C2083 1.368 . S
C2089 C2088 1.523 . S
C2090 C2074 1.436 1_545 S
C2090 C2086 1.429 . S
C2090 C2091 1.523 . S
C2091 C2075 1.368 . S
C2091 C2087 1.368 . S
C2091 C2090 1.523 . S
H2092 C2067 0.950 . S
H2093 C2069 0.950 . S
H2094 C2070 0.949 . S
H2095 C2072 0.950 . S
H2096 C2074 0.944 . S
C2097 C2098 1.349 . S
C2097 C2099 1.327 . S
C2097 H2122 0.950 . S
C2098 C2097 1.349 . S
C2098 C2114 1.349 . S
C2099 C2097 1.327 . S
C2099 C2118 1.429 . S
C2099 H2123 0.950 . S
C2100 C2117 1.574 . S
C2100 C2119 1.368 . S
C2100 H2124 0.949 . S
H2101 C2105 0.949 . S
C2102 C2103 1.349 . S
C2102 C2104 1.327 . S
C2102 H2125 0.950 . S
C2103 C2102 1.349 . S
C2103 C2115 1.349 . S
C2104 C2102 1.327 . S
C2104 C2120 1.429 . S
C2104 H2126 0.950 . S
C2105 H2101 0.949 . S
C2105 C2113 1.574 . S
C2105 C2121 1.368 . S
H2106 C2114 0.950 . S
H2107 C2112 0.950 . S
H2108 C2113 0.949 . S
H2109 C2115 0.950 . S
H2110 C2116 0.950 . S
H2111 C2117 0.949 . S
C2112 H2107 0.950 . S
C2112 C2114 1.327 . S
C2112 C2118 1.429 . S
C2113 C2105 1.574 . S
C2113 H2108 0.949 . S
C2113 C2119 1.368 . S
C2114 C2098 1.349 . S
C2114 H2106 0.950 . S
C2114 C2112 1.327 . S
C2115 C2103 1.349 . S
C2115 H2109 0.950 . S
C2115 C2116 1.327 . S
C2116 H2110 0.950 . S
C2116 C2115 1.327 . S
C2116 C2120 1.429 . S
C2117 C2100 1.574 . S
C2117 H2111 0.949 . S
C2117 C2121 1.368 . S
C2118 C2099 1.429 . S
C2118 C2112 1.429 . S
C2118 C2119 1.523 . S
C2119 C2100 1.368 . S
C2119 C2113 1.368 . S
C2119 C2118 1.523 . S
C2120 C2104 1.429 . S
C2120 C2116 1.429 . S
C2120 C2121 1.523 . S
C2121 C2105 1.368 . S
C2121 C2117 1.368 . S
C2121 C2120 1.523 . S
H2122 C2097 0.950 . S
H2123 C2099 0.950 . S
H2124 C2100 0.949 . S
H2125 C2102 0.950 . S
H2126 C2104 0.950 . S
C2127 C2128 1.349 . S
C2127 C2129 1.327 . S
C2127 H2152 0.950 . S
C2128 C2127 1.349 . S
C2128 C2144 1.349 . S
C2129 C2127 1.327 . S
C2129 C2148 1.429 . S
C2129 H2153 0.950 . S
C2130 C2147 1.574 . S
C2130 C2149 1.368 . S
C2130 H2154 0.949 . S
H2131 C2135 0.949 . S
C2132 C2133 1.349 . S
C2132 C2134 1.327 . S
C2132 H2155 0.950 . S
C2133 C2132 1.349 . S
C2133 C2145 1.349 . S
C2134 C2132 1.327 . S
C2134 C2150 1.429 . S
C2134 H2156 0.950 . S
C2135 H2131 0.949 . S
C2135 C2143 1.574 . S
C2135 C2151 1.368 . S
H2136 C2144 0.950 . S
H2137 C2142 0.950 . S
H2138 C2143 0.949 . S
H2139 C2145 0.950 . S
H2140 C2146 0.950 . S
H2141 C2147 0.949 . S
C2142 H2137 0.950 . S
C2142 C2144 1.327 . S
C2142 C2148 1.429 . S
C2143 C2135 1.574 . S
C2143 H2138 0.949 . S
C2143 C2149 1.368 . S
C2144 C2128 1.349 . S
C2144 H2136 0.950 . S
C2144 C2142 1.327 . S
C2145 C2133 1.349 . S
C2145 H2139 0.950 . S
C2145 C2146 1.327 . S
C2146 H2140 0.950 . S
C2146 C2145 1.327 . S
C2146 C2150 1.429 . S
C2147 C2130 1.574 . S
C2147 H2141 0.949 . S
C2147 C2151 1.368 . S
C2148 C2129 1.429 . S
C2148 C2142 1.429 . S
C2148 C2149 1.523 . S
C2149 C2130 1.368 . S
C2149 C2143 1.368 . S
C2149 C2148 1.523 . S
C2150 C2134 1.429 . S
C2150 C2146 1.429 . S
C2150 C2151 1.523 . S
C2151 C2135 1.368 . S
C2151 C2147 1.368 . S
C2151 C2150 1.523 . S
H2152 C2127 0.950 . S
H2153 C2129 0.950 . S
H2154 C2130 0.949 . S
H2155 C2132 0.950 . S
H2156 C2134 0.950 . S
C2157 C2158 1.349 . S
C2157 C2159 1.327 . S
C2157 H2182 0.950 . S
C2158 C2157 1.349 . S
C2158 C2174 1.349 . S
C2159 C2157 1.327 . S
C2159 C2178 1.429 . S
C2159 H2183 0.950 . S
C2160 C2177 1.574 . S
C2160 C2179 1.368 . S
C2160 H2184 0.949 . S
H2161 C2165 0.949 . S
C2162 C2163 1.349 . S
C2162 C2164 1.327 . S
C2162 H2185 0.950 . S
C2163 C2162 1.349 . S
C2163 C2175 1.349 . S
C2164 C2162 1.327 . S
C2164 C2180 1.429 . S
C2164 H2186 0.950 . S
C2165 H2161 0.949 . S
C2165 C2173 1.574 . S
C2165 C2181 1.368 . S
H2166 C2174 0.950 . S
H2167 C2172 0.950 . S
H2168 C2173 0.949 . S
H2169 C2175 0.950 . S
H2170 C2176 0.950 . S
H2171 C2177 0.949 . S
C2172 H2167 0.950 . S
C2172 C2174 1.327 . S
C2172 C2178 1.429 . S
C2173 C2165 1.574 . S
C2173 H2168 0.949 . S
C2173 C2179 1.368 . S
C2174 C2158 1.349 . S
C2174 H2166 0.950 . S
C2174 C2172 1.327 . S
C2175 C2163 1.349 . S
C2175 H2169 0.950 . S
C2175 C2176 1.327 . S
C2176 H2170 0.950 . S
C2176 C2175 1.327 . S
C2176 C2180 1.429 . S
C2177 C2160 1.574 . S
C2177 H2171 0.949 . S
C2177 C2181 1.368 . S
C2178 C2159 1.429 . S
C2178 C2172 1.429 . S
C2178 C2179 1.523 . S
C2179 C2160 1.368 . S
C2179 C2173 1.368 . S
C2179 C2178 1.523 . S
C2180 C2164 1.429 . S
C2180 C2176 1.429 . S
C2180 C2181 1.523 . S
C2181 C2165 1.368 . S
C2181 C2177 1.368 . S
C2181 C2180 1.523 . S
H2182 C2157 0.950 . S
H2183 C2159 0.950 . S
H2184 C2160 0.949 . S
H2185 C2162 0.950 . S
H2186 C2164 0.950 . S
C2187 C2188 1.349 . S
C2187 C2189 1.327 . S
C2187 H2212 0.950 . S
C2188 C2187 1.349 . S
C2188 C2204 1.349 . S
C2189 C2187 1.327 . S
C2189 C2208 1.429 . S
C2189 H2213 0.950 . S
C2190 C2207 1.574 . S
C2190 C2209 1.368 . S
C2190 H2214 0.949 . S
H2191 C2195 0.949 . S
C2192 C2193 1.349 . S
C2192 C2194 1.327 . S
C2192 H2215 0.950 . S
C2193 C2192 1.349 . S
C2193 C2205 1.349 . S
C2194 C2192 1.327 . S
C2194 C2210 1.429 . S
C2194 H2216 0.950 . S
C2195 H2191 0.949 . S
C2195 C2203 1.574 . S
C2195 C2211 1.368 . S
H2196 C2204 0.950 . S
H2197 C2202 0.950 . S
H2198 C2203 0.949 . S
H2199 C2205 0.950 . S
H2200 C2206 0.950 . S
H2201 C2207 0.949 . S
C2202 H2197 0.950 . S
C2202 C2204 1.327 . S
C2202 C2208 1.429 . S
C2203 C2195 1.574 . S
C2203 H2198 0.949 . S
C2203 C2209 1.368 . S
C2204 C2188 1.349 . S
C2204 H2196 0.950 . S
C2204 C2202 1.327 . S
C2205 C2193 1.349 . S
C2205 H2199 0.950 . S
C2205 C2206 1.327 . S
C2206 H2200 0.950 . S
C2206 C2205 1.327 . S
C2206 C2210 1.429 . S
C2207 C2190 1.574 . S
C2207 H2201 0.949 . S
C2207 C2211 1.368 . S
C2208 C2189 1.429 . S
C2208 C2202 1.429 . S
C2208 C2209 1.523 . S
C2209 C2190 1.368 . S
C2209 C2203 1.368 . S
C2209 C2208 1.523 . S
C2210 C2194 1.429 . S
C2210 C2206 1.429 . S
C2210 C2211 1.523 . S
C2211 C2195 1.368 . S
C2211 C2207 1.368 . S
C2211 C2210 1.523 . S
H2212 C2187 0.950 . S
H2213 C2189 0.950 . S
H2214 C2190 0.949 . S
H2215 C2192 0.950 . S
H2216 C2194 0.950 . S
C2217 C2218 1.349 . S
C2217 C2219 1.327 . S
C2217 H2242 0.950 . S
C2218 C2217 1.349 . S
C2218 C2234 1.349 . S
C2219 C2217 1.327 . S
C2219 C2238 1.429 . S
C2219 H2243 0.950 . S
C2220 C2237 1.574 . S
C2220 C2239 1.368 . S
C2220 H2244 0.949 . S
H2221 C2225 0.949 . S
C2222 C2223 1.349 . S
C2222 C2224 1.327 . S
C2222 H2245 0.950 . S
C2223 C2222 1.349 . S
C2223 C2235 1.349 . S
C2224 C2222 1.327 . S
C2224 C2240 1.429 . S
C2224 H2246 0.950 . S
C2225 H2221 0.949 . S
C2225 C2233 1.574 . S
C2225 C2241 1.368 . S
H2226 C2234 0.950 . S
H2227 C2232 0.950 . S
H2228 C2233 0.949 . S
H2229 C2235 0.950 . S
H2230 C2236 0.950 . S
H2231 C2237 0.949 . S
C2232 H2227 0.950 . S
C2232 C2234 1.327 . S
C2232 C2238 1.429 . S
C2233 C2225 1.574 . S
C2233 H2228 0.949 . S
C2233 C2239 1.368 . S
C2234 C2218 1.349 . S
C2234 H2226 0.950 . S
C2234 C2232 1.327 . S
C2235 C2223 1.349 . S
C2235 H2229 0.950 . S
C2235 C2236 1.327 . S
C2236 H2230 0.950 . S
C2236 C2235 1.327 . S
C2236 C2240 1.429 . S
C2237 C2220 1.574 . S
C2237 H2231 0.949 . S
C2237 C2241 1.368 . S
C2238 C2219 1.429 . S
C2238 C2232 1.429 . S
C2238 C2239 1.523 . S
C2239 C2220 1.368 . S
C2239 C2233 1.368 . S
C2239 C2238 1.523 . S
C2240 C2224 1.429 . S
C2240 C2236 1.429 . S
C2240 C2241 1.523 . S
C2241 C2225 1.368 . S
C2241 C2237 1.368 . S
C2241 C2240 1.523 . S
H2242 C2217 0.950 . S
H2243 C2219 0.950 . S
H2244 C2220 0.949 . S
H2245 C2222 0.950 . S
H2246 C2224 0.950 . S
C2247 C2248 1.349 . S
C2247 C2249 1.327 . S
C2247 H2272 0.950 . S
C2248 C2247 1.349 . S
C2248 C2264 1.349 . S
C2249 C2247 1.327 . S
C2249 C2268 1.429 . S
C2249 H2273 0.950 . S
C2250 C2267 1.574 . S
C2250 C2269 1.368 . S
C2250 H2274 0.949 . S
H2251 C2255 0.949 . S
C2252 C2253 1.349 . S
C2252 C2254 1.327 . S
C2252 H2275 0.950 . S
C2253 C2252 1.349 . S
C2253 C2265 1.349 . S
C2254 C2252 1.327 . S
C2254 C2270 1.429 . S
C2254 H2276 0.950 . S
C2255 H2251 0.949 . S
C2255 C2263 1.574 . S
C2255 C2271 1.368 . S
H2256 C2264 0.950 . S
H2257 C2262 0.950 . S
H2258 C2263 0.949 . S
H2259 C2265 0.950 . S
H2260 C2266 0.950 . S
H2261 C2267 0.949 . S
C2262 H2257 0.950 . S
C2262 C2264 1.327 . S
C2262 C2268 1.429 . S
C2263 C2255 1.574 . S
C2263 H2258 0.949 . S
C2263 C2269 1.368 . S
C2264 C2248 1.349 . S
C2264 H2256 0.950 . S
C2264 C2262 1.327 . S
C2265 C2253 1.349 . S
C2265 H2259 0.950 . S
C2265 C2266 1.327 . S
C2266 H2260 0.950 . S
C2266 C2265 1.327 . S
C2266 C2270 1.429 . S
C2267 C2250 1.574 . S
C2267 H2261 0.949 . S
C2267 C2271 1.368 . S
C2268 C2249 1.429 . S
C2268 C2262 1.429 . S
C2268 C2269 1.523 . S
C2269 C2250 1.368 . S
C2269 C2263 1.368 . S
C2269 C2268 1.523 . S
C2270 C2254 1.429 . S
C2270 C2266 1.429 . S
C2270 C2271 1.523 . S
C2271 C2255 1.368 . S
C2271 C2267 1.368 . S
C2271 C2270 1.523 . S
H2272 C2247 0.950 . S
H2273 C2249 0.950 . S
H2274 C2250 0.949 . S
H2275 C2252 0.950 . S
H2276 C2254 0.950 . S
C2277 C2278 1.349 . S
C2277 C2279 1.327 . S
C2277 H2302 0.950 . S
C2278 C2277 1.349 . S
C2278 C2294 1.349 . S
C2279 C2277 1.327 . S
C2279 C2298 1.429 . S
C2279 H2303 0.950 . S
C2280 C2297 1.574 . S
C2280 C2299 1.368 . S
C2280 H2304 0.949 . S
H2281 C2285 0.949 . S
C2282 C2283 1.349 . S
C2282 C2284 1.327 . S
C2282 H2305 0.950 . S
C2283 C2282 1.349 . S
C2283 C2295 1.349 . S
C2284 C2282 1.327 . S
C2284 C2300 1.429 . S
C2284 H2306 0.950 . S
C2285 H2281 0.949 . S
C2285 C2293 1.574 . S
C2285 C2301 1.368 . S
H2286 C2294 0.950 . S
H2287 C2292 0.950 . S
H2288 C2293 0.949 . S
H2289 C2295 0.950 . S
H2290 C2296 0.950 . S
H2291 C2297 0.949 . S
C2292 H2287 0.950 . S
C2292 C2294 1.327 . S
C2292 C2298 1.429 . S
C2293 C2285 1.574 . S
C2293 H2288 0.949 . S
C2293 C2299 1.368 . S
C2294 C2278 1.349 . S
C2294 H2286 0.950 . S
C2294 C2292 1.327 . S
C2295 C2283 1.349 . S
C2295 H2289 0.950 . S
C2295 C2296 1.327 . S
C2296 H2290 0.950 . S
C2296 C2295 1.327 . S
C2296 C2300 1.429 . S
C2297 C2280 1.574 . S
C2297 H2291 0.949 . S
C2297 C2301 1.368 . S
C2298 C2279 1.429 . S
C2298 C2292 1.429 . S
C2298 C2299 1.523 . S
C2299 C2280 1.368 . S
C2299 C2293 1.368 . S
C2299 C2298 1.523 . S
C2300 C2284 1.429 . S
C2300 C2296 1.429 . S
C2300 C2301 1.523 . S
C2301 C2285 1.368 . S
C2301 C2297 1.368 . S
C2301 C2300 1.523 . S
H2302 C2277 0.950 . S
H2303 C2279 0.950 . S
H2304 C2280 0.949 . S
H2305 C2282 0.950 . S
H2306 C2284 0.950 . S
C2307 C2308 1.349 . S
C2307 C2309 1.327 . S
C2307 H2332 0.950 . S
C2308 C2307 1.349 . S
C2308 C2324 1.349 . S
C2309 C2307 1.327 . S
C2309 C2328 1.429 . S
C2309 H2333 0.950 . S
C2310 C2327 1.574 . S
C2310 C2329 1.368 . S
C2310 H2334 0.949 . S
H2311 C2315 0.949 . S
C2312 C2313 1.349 . S
C2312 C2314 1.327 . S
C2312 H2335 0.950 . S
C2313 C2312 1.349 . S
C2313 C2325 1.349 . S
C2314 C2312 1.327 . S
C2314 C2330 1.429 . S
C2314 H2336 0.950 . S
C2315 H2311 0.949 . S
C2315 C2323 1.574 . S
C2315 C2331 1.368 . S
H2316 C2324 0.950 . S
H2317 C2322 0.950 . S
H2318 C2323 0.949 . S
H2319 C2325 0.950 . S
H2320 C2326 0.950 . S
H2321 C2327 0.949 . S
C2322 H2317 0.950 . S
C2322 C2324 1.327 . S
C2322 C2328 1.429 . S
C2323 C2315 1.574 . S
C2323 H2318 0.949 . S
C2323 C2329 1.368 . S
C2324 C2308 1.349 . S
C2324 H2316 0.950 . S
C2324 C2322 1.327 . S
C2325 C2313 1.349 . S
C2325 H2319 0.950 . S
C2325 C2326 1.327 . S
C2326 H2320 0.950 . S
C2326 C2325 1.327 . S
C2326 C2330 1.429 . S
C2327 C2310 1.574 . S
C2327 H2321 0.949 . S
C2327 C2331 1.368 . S
C2328 C2309 1.429 . S
C2328 C2322 1.429 . S
C2328 C2329 1.523 . S
C2329 C2310 1.368 . S
C2329 C2323 1.368 . S
C2329 C2328 1.523 . S
C2330 C2314 1.429 . S
C2330 C2326 1.429 . S
C2330 C2331 1.523 . S
C2331 C2315 1.368 . S
C2331 C2327 1.368 . S
C2331 C2330 1.523 . S
H2332 C2307 0.950 . S
H2333 C2309 0.950 . S
H2334 C2310 0.949 . S
H2335 C2312 0.950 . S
H2336 C2314 0.950 . S
C2337 C2338 1.349 . S
C2337 C2339 1.327 . S
C2337 H2362 0.950 . S
C2338 C2337 1.349 . S
C2338 C2354 1.349 . S
C2339 C2337 1.327 . S
C2339 C2358 1.429 . S
C2339 H2363 0.950 . S
C2340 C2357 1.574 . S
C2340 C2359 1.368 . S
C2340 H2364 0.949 . S
H2341 C2345 0.949 . S
C2342 C2343 1.349 . S
C2342 C2344 1.327 . S
C2342 H2365 0.950 . S
C2343 C2342 1.349 . S
C2343 C2355 1.349 . S
C2344 C2342 1.327 . S
C2344 C2360 1.429 . S
C2344 H2366 0.950 . S
C2345 H2341 0.949 . S
C2345 C2353 1.574 . S
C2345 C2361 1.368 . S
H2346 C2354 0.950 . S
H2347 C2352 0.950 . S
H2348 C2353 0.949 . S
H2349 C2355 0.950 . S
H2350 C2356 0.950 . S
H2351 C2357 0.949 . S
C2352 H2347 0.950 . S
C2352 C2354 1.327 . S
C2352 C2358 1.429 . S
C2353 C2345 1.574 . S
C2353 H2348 0.949 . S
C2353 C2359 1.368 . S
C2354 C2338 1.349 . S
C2354 H2346 0.950 . S
C2354 C2352 1.327 . S
C2355 C2343 1.349 . S
C2355 H2349 0.950 . S
C2355 C2356 1.327 . S
C2356 H2350 0.950 . S
C2356 C2355 1.327 . S
C2356 C2360 1.429 . S
C2357 C2340 1.574 . S
C2357 H2351 0.949 . S
C2357 C2361 1.368 . S
C2358 C2339 1.429 . S
C2358 C2352 1.429 . S
C2358 C2359 1.523 . S
C2359 C2340 1.368 . S
C2359 C2353 1.368 . S
C2359 C2358 1.523 . S
C2360 C2344 1.429 . S
C2360 C2356 1.429 . S
C2360 C2361 1.523 . S
C2361 C2345 1.368 . S
C2361 C2357 1.368 . S
C2361 C2360 1.523 . S
H2362 C2337 0.950 . S
H2363 C2339 0.950 . S
H2364 C2340 0.949 . S
H2365 C2342 0.950 . S
H2366 C2344 0.950 . S
C2367 C2368 1.349 . S
C2367 C2369 1.327 . S
C2367 H2392 0.950 . S
C2368 C2367 1.349 . S
C2368 C2384 1.349 . S
C2369 C2367 1.327 . S
C2369 C2388 1.429 . S
C2369 H2393 0.950 . S
C2370 C2387 1.574 . S
C2370 C2389 1.368 . S
C2370 H2394 0.949 . S
H2371 C2375 0.949 . S
C2372 C2373 1.349 . S
C2372 C2374 1.327 . S
C2372 H2395 0.950 . S
C2373 C2372 1.349 . S
C2373 C2385 1.349 . S
C2374 C2372 1.327 . S
C2374 C2390 1.429 . S
C2374 H2396 0.950 . S
C2375 H2371 0.949 . S
C2375 C2383 1.574 . S
C2375 C2391 1.368 . S
H2376 C2384 0.950 . S
H2377 C2382 0.950 . S
H2378 C2383 0.949 . S
H2379 C2385 0.950 . S
H2380 C2386 0.950 . S
H2381 C2387 0.949 . S
C2382 H2377 0.950 . S
C2382 C2384 1.327 . S
C2382 C2388 1.429 . S
C2383 C2375 1.574 . S
C2383 H2378 0.949 . S
C2383 C2389 1.368 . S
C2384 C2368 1.349 . S
C2384 H2376 0.950 . S
C2384 C2382 1.327 . S
C2385 C2373 1.349 . S
C2385 H2379 0.950 . S
C2385 C2386 1.327 . S
C2386 H2380 0.950 . S
C2386 C2385 1.327 . S
C2386 C2390 1.429 . S
C2387 C2370 1.574 . S
C2387 H2381 0.949 . S
C2387 C2391 1.368 . S
C2388 C2369 1.429 . S
C2388 C2382 1.429 . S
C2388 C2389 1.523 . S
C2389 C2370 1.368 . S
C2389 C2383 1.368 . S
C2389 C2388 1.523 . S
C2390 C2374 1.429 . S
C2390 C2386 1.429 . S
C2390 C2391 1.523 . S
C2391 C2375 1.368 . S
C2391 C2387 1.368 . S
C2391 C2390 1.523 . S
H2392 C2367 0.950 . S
H2393 C2369 0.950 . S
H2394 C2370 0.949 . S
H2395 C2372 0.950 . S
H2396 C2374 0.950 . S
C2397 C2398 1.349 . S
C2397 C2399 1.327 . S
C2397 H2422 0.950 . S
C2398 C2397 1.349 . S
C2398 C2414 1.349 . S
C2399 C2397 1.327 . S
C2399 C2418 1.429 . S
C2399 H2423 0.950 . S
C2400 C2417 1.574 . S
C2400 C2419 1.368 . S
C2400 H2424 0.949 . S
H2401 C2405 0.949 . S
C2402 C2403 1.349 . S
C2402 C2404 1.327 . S
C2402 H2425 0.950 . S
C2403 C2402 1.349 . S
C2403 C2415 1.349 . S
C2404 C2402 1.327 . S
C2404 C2420 1.429 . S
C2404 H2426 0.950 . S
C2405 H2401 0.949 . S
C2405 C2413 1.574 . S
C2405 C2421 1.368 . S
H2406 C2414 0.950 . S
H2407 C2412 0.950 . S
H2408 C2413 0.949 . S
H2409 C2415 0.950 . S
H2410 C2416 0.950 . S
H2411 C2417 0.949 . S
C2412 H2407 0.950 . S
C2412 C2414 1.327 . S
C2412 C2418 1.429 . S
C2413 C2405 1.574 . S
C2413 H2408 0.949 . S
C2413 C2419 1.368 . S
C2414 C2398 1.349 . S
C2414 H2406 0.950 . S
C2414 C2412 1.327 . S
C2415 C2403 1.349 . S
C2415 H2409 0.950 . S
C2415 C2416 1.327 . S
C2416 H2410 0.950 . S
C2416 C2415 1.327 . S
C2416 C2420 1.429 . S
C2417 C2400 1.574 . S
C2417 H2411 0.949 . S
C2417 C2421 1.368 . S
C2418 C2399 1.429 . S
C2418 C2412 1.429 . S
C2418 C2419 1.523 . S
C2419 C2400 1.368 . S
C2419 C2413 1.368 . S
C2419 C2418 1.523 . S
C2420 C2404 1.429 . S
C2420 C2416 1.429 . S
C2420 C2421 1.523 . S
C2421 C2405 1.368 . S
C2421 C2417 1.368 . S
C2421 C2420 1.523 . S
H2422 C2397 0.950 . S
H2423 C2399 0.950 . S
H2424 C2400 0.949 . S
H2425 C2402 0.950 . S
H2426 C2404 0.950 . S
C2427 C2428 1.349 . S
C2427 C2429 1.327 . S
C2427 H2452 0.950 . S
C2428 C2427 1.349 . S
C2428 C2444 1.349 . S
C2429 C2427 1.327 . S
C2429 C2448 1.429 . S
C2429 H2453 0.950 . S
C2430 C2447 1.574 . S
C2430 C2449 1.368 . S
C2430 H2454 0.949 . S
H2431 C2435 0.949 . S
C2432 C2433 1.349 . S
C2432 C2434 1.327 . S
C2432 H2455 0.950 . S
C2433 C2432 1.349 . S
C2433 C2445 1.349 . S
C2434 C2432 1.327 . S
C2434 C2450 1.429 . S
C2434 H2456 0.950 . S
C2435 H2431 0.949 . S
C2435 C2443 1.574 . S
C2435 C2451 1.368 . S
H2436 C2444 0.950 . S
H2437 C2442 0.950 . S
H2438 C2443 0.949 . S
H2439 C2445 0.950 . S
H2440 C2446 0.950 . S
H2441 C2447 0.949 . S
C2442 H2437 0.950 . S
C2442 C2444 1.327 . S
C2442 C2448 1.429 . S
C2443 C2435 1.574 . S
C2443 H2438 0.949 . S
C2443 C2449 1.368 . S
C2444 C2428 1.349 . S
C2444 H2436 0.950 . S
C2444 C2442 1.327 . S
C2445 C2433 1.349 . S
C2445 H2439 0.950 . S
C2445 C2446 1.327 . S
C2446 H2440 0.950 . S
C2446 C2445 1.327 . S
C2446 C2450 1.429 . S
C2447 C2430 1.574 . S
C2447 H2441 0.949 . S
C2447 C2451 1.368 . S
C2448 C2429 1.429 . S
C2448 C2442 1.429 . S
C2448 C2449 1.523 . S
C2449 C2430 1.368 . S
C2449 C2443 1.368 . S
C2449 C2448 1.523 . S
C2450 C2434 1.429 . S
C2450 C2446 1.429 . S
C2450 C2451 1.523 . S
C2451 C2435 1.368 . S
C2451 C2447 1.368 . S
C2451 C2450 1.523 . S
H2452 C2427 0.950 . S
H2453 C2429 0.950 . S
H2454 C2430 0.949 . S
H2455 C2432 0.950 . S
H2456 C2434 0.950 . S
C838 C469 1.389 . S
C843 C662 1.313 . S
C868 C505 1.390 . S
C873 C683 1.311 . S
C898 C433 1.318 . S
C903 C703 1.121 . S
C928 C397 1.348 . S
C933 C682 1.138 1_556 S
C963 C704 1.337 . S
C958 C325 1.422 . S
C988 C361 1.352 . S
C993 C661 1.142 1_556 S
C1023 C663 1.257 . S
C1018 C421 1.334 . S
C1053 C684 1.249 . S
C1048 C349 1.317 . S
C1078 C385 1.379 . S
C1083 C706 1.163 1_556 S
C1108 C493 1.319 . S
C1113 C685 1.125 . S
C1138 C529 1.277 . S
C1143 C705 1.210 . S
C1173 C664 1.141 . S
C1168 C457 1.342 . S
C1203 C725 1.313 . S
C1198 C37 1.389 . S
C1228 C73 1.390 . S
C1233 C746 1.311 . S
C1258 C1 1.318 . S
C1263 C766 1.121 . S
C1288 C613 1.348 . S
C1293 C745 1.138 . S
C1318 C541 1.421 . S
C1323 C767 1.336 . S
C1348 C577 1.352 . S
C1353 C724 1.142 . S
C1378 C637 1.335 . S
C1383 C726 1.257 . S
C1408 C565 1.317 . S
C1413 C747 1.249 . S
C1443 C769 1.163 . S
C1438 C601 1.379 . S
C1468 C61 1.320 . S
C1473 C748 1.125 . S
C1503 C768 1.210 . S
C1498 C97 1.277 . S
C1528 C25 1.342 . S
C1533 C727 1.141 . S
C1563 C788 1.313 . S
C1558 C253 1.389 . S
C1588 C289 1.390 . S
C1593 C809 1.311 . S
C1623 C829 1.121 . S
C1618 C217 1.318 . S
C1653 C808 1.138 . S
C1648 C181 1.348 . S
C1683 C830 1.337 . S
C1678 C109 1.422 . S
C1708 C145 1.352 . S
C1713 C787 1.142 . S
C1738 C205 1.335 . S
C1743 C789 1.257 . S
C1768 C133 1.317 . S
C1773 C810 1.249 . S
C1803 C832 1.163 . S
C1798 C169 1.379 . S
C1828 C277 1.320 . S
C1833 C811 1.125 . S
C1858 C313 1.277 . S
C1863 C831 1.210 . S
C1888 C241 1.342 . S
C1893 C790 1.141 . S
C1918 C571 1.387 . S
C1923 C666 1.346 1_565 S
C1953 C687 1.385 . S
C1948 C607 1.427 . S
C1978 C643 1.493 . S
C1983 C707 1.458 . S
C2008 C247 1.542 . S
C2013 C686 1.505 1_655 S
C2038 C283 1.441 . S
C2043 C708 1.395 . S
C2073 C665 1.466 . S
C2068 C319 1.500 . S
C2098 C139 1.387 . S
C2103 C729 1.345 . S
C2128 C175 1.427 . S
C2133 C750 1.385 . S
C2158 C211 1.493 . S
C2163 C770 1.458 . S
C2188 C463 1.542 . S
C2193 C749 1.506 . S
C2223 C771 1.395 . S
C2218 C499 1.441 . S
C2248 C535 1.500 . S
C2253 C728 1.466 . S
C2278 C355 1.387 . S
C2283 C792 1.345 . S
C2308 C391 1.427 . S
C2313 C813 1.385 . S
C2343 C833 1.458 . S
C2338 C427 1.493 . S
C2368 C31 1.542 . S
C2373 C812 1.506 . S
C2398 C67 1.441 . S
C2403 C834 1.395 . S
C2428 C103 1.500 . S
C2433 C791 1.466 . S
