# Generated by pormake.
# Topology ctn, (3,4)-cn, num edge types: 1
# Building blocks:
#     Node 0, Type 0, BuildingBlock: KAKCAD_clean_linker_0, # of connection points: 3
#     Node 1, Type 0, BuildingBlock: KAKCAD_clean_linker_0, # of connection points: 3
#     Node 2, Type 0, BuildingBlock: KAKCAD_clean_linker_0, # of connection points: 3
#     Node 3, Type 0, BuildingBlock: KAKCAD_clean_linker_0, # of connection points: 3
#     Node 4, Type 0, BuildingBlock: KAKCAD_clean_linker_0, # of connection points: 3
#     Node 5, Type 0, BuildingBlock: KAKCAD_clean_linker_0, # of connection points: 3
#     Node 6, Type 0, BuildingBlock: KAKCAD_clean_linker_0, # of connection points: 3
#     Node 7, Type 0, BuildingBlock: KAKCAD_clean_linker_0, # of connection points: 3
#     Node 8, Type 0, BuildingBlock: KAKCAD_clean_linker_0, # of connection points: 3
#     Node 9, Type 0, BuildingBlock: KAKCAD_clean_linker_0, # of connection points: 3
#     Node 10, Type 0, BuildingBlock: KAKCAD_clean_linker_0, # of connection points: 3
#     Node 11, Type 0, BuildingBlock: KAKCAD_clean_linker_0, # of connection points: 3
#     Node 12, Type 0, BuildingBlock: KAKCAD_clean_linker_0, # of connection points: 3
#     Node 13, Type 0, BuildingBlock: KAKCAD_clean_linker_0, # of connection points: 3
#     Node 14, Type 0, BuildingBlock: KAKCAD_clean_linker_0, # of connection points: 3
#     Node 15, Type 0, BuildingBlock: KAKCAD_clean_linker_0, # of connection points: 3
#     Node 16, Type 1, BuildingBlock: TATPOV_clean_sbu_0, # of connection points: 4
#     Node 17, Type 1, BuildingBlock: TATPOV_clean_sbu_0, # of connection points: 4
#     Node 18, Type 1, BuildingBlock: TATPOV_clean_sbu_0, # of connection points: 4
#     Node 19, Type 1, BuildingBlock: TATPOV_clean_sbu_0, # of connection points: 4
#     Node 20, Type 1, BuildingBlock: TATPOV_clean_sbu_0, # of connection points: 4
#     Node 21, Type 1, BuildingBlock: TATPOV_clean_sbu_0, # of connection points: 4
#     Node 22, Type 1, BuildingBlock: TATPOV_clean_sbu_0, # of connection points: 4
#     Node 23, Type 1, BuildingBlock: TATPOV_clean_sbu_0, # of connection points: 4
#     Node 24, Type 1, BuildingBlock: TATPOV_clean_sbu_0, # of connection points: 4
#     Node 25, Type 1, BuildingBlock: TATPOV_clean_sbu_0, # of connection points: 4
#     Node 26, Type 1, BuildingBlock: TATPOV_clean_sbu_0, # of connection points: 4
#     Node 27, Type 1, BuildingBlock: TATPOV_clean_sbu_0, # of connection points: 4
#     Edge 28, Type (0, 1), BuildingBlock: KIFKEQ_clean_linker_1, # of connection points: 2
#     Edge 29, Type (0, 1), BuildingBlock: KIFKEQ_clean_linker_1, # of connection points: 2
#     Edge 30, Type (0, 1), BuildingBlock: KIFKEQ_clean_linker_1, # of connection points: 2
#     Edge 31, Type (0, 1), BuildingBlock: KIFKEQ_clean_linker_1, # of connection points: 2
#     Edge 32, Type (0, 1), BuildingBlock: KIFKEQ_clean_linker_1, # of connection points: 2
#     Edge 33, Type (0, 1), BuildingBlock: KIFKEQ_clean_linker_1, # of connection points: 2
#     Edge 34, Type (0, 1), BuildingBlock: KIFKEQ_clean_linker_1, # of connection points: 2
#     Edge 35, Type (0, 1), BuildingBlock: KIFKEQ_clean_linker_1, # of connection points: 2
#     Edge 36, Type (0, 1), BuildingBlock: KIFKEQ_clean_linker_1, # of connection points: 2
#     Edge 37, Type (0, 1), BuildingBlock: KIFKEQ_clean_linker_1, # of connection points: 2
#     Edge 38, Type (0, 1), BuildingBlock: KIFKEQ_clean_linker_1, # of connection points: 2
#     Edge 39, Type (0, 1), BuildingBlock: KIFKEQ_clean_linker_1, # of connection points: 2
#     Edge 40, Type (0, 1), BuildingBlock: KIFKEQ_clean_linker_1, # of connection points: 2
#     Edge 41, Type (0, 1), BuildingBlock: KIFKEQ_clean_linker_1, # of connection points: 2
#     Edge 42, Type (0, 1), BuildingBlock: KIFKEQ_clean_linker_1, # of connection points: 2
#     Edge 43, Type (0, 1), BuildingBlock: KIFKEQ_clean_linker_1, # of connection points: 2
#     Edge 44, Type (0, 1), BuildingBlock: KIFKEQ_clean_linker_1, # of connection points: 2
#     Edge 45, Type (0, 1), BuildingBlock: KIFKEQ_clean_linker_1, # of connection points: 2
#     Edge 46, Type (0, 1), BuildingBlock: KIFKEQ_clean_linker_1, # of connection points: 2
#     Edge 47, Type (0, 1), BuildingBlock: KIFKEQ_clean_linker_1, # of connection points: 2
#     Edge 48, Type (0, 1), BuildingBlock: KIFKEQ_clean_linker_1, # of connection points: 2
#     Edge 49, Type (0, 1), BuildingBlock: KIFKEQ_clean_linker_1, # of connection points: 2
#     Edge 50, Type (0, 1), BuildingBlock: KIFKEQ_clean_linker_1, # of connection points: 2
#     Edge 51, Type (0, 1), BuildingBlock: KIFKEQ_clean_linker_1, # of connection points: 2
#     Edge 52, Type (0, 1), BuildingBlock: KIFKEQ_clean_linker_1, # of connection points: 2
#     Edge 53, Type (0, 1), BuildingBlock: KIFKEQ_clean_linker_1, # of connection points: 2
#     Edge 54, Type (0, 1), BuildingBlock: KIFKEQ_clean_linker_1, # of connection points: 2
#     Edge 55, Type (0, 1), BuildingBlock: KIFKEQ_clean_linker_1, # of connection points: 2
#     Edge 56, Type (0, 1), BuildingBlock: KIFKEQ_clean_linker_1, # of connection points: 2
#     Edge 57, Type (0, 1), BuildingBlock: KIFKEQ_clean_linker_1, # of connection points: 2
#     Edge 58, Type (0, 1), BuildingBlock: KIFKEQ_clean_linker_1, # of connection points: 2
#     Edge 59, Type (0, 1), BuildingBlock: KIFKEQ_clean_linker_1, # of connection points: 2
#     Edge 60, Type (0, 1), BuildingBlock: KIFKEQ_clean_linker_1, # of connection points: 2
#     Edge 61, Type (0, 1), BuildingBlock: KIFKEQ_clean_linker_1, # of connection points: 2
#     Edge 62, Type (0, 1), BuildingBlock: KIFKEQ_clean_linker_1, # of connection points: 2
#     Edge 63, Type (0, 1), BuildingBlock: KIFKEQ_clean_linker_1, # of connection points: 2
#     Edge 64, Type (0, 1), BuildingBlock: KIFKEQ_clean_linker_1, # of connection points: 2
#     Edge 65, Type (0, 1), BuildingBlock: KIFKEQ_clean_linker_1, # of connection points: 2
#     Edge 66, Type (0, 1), BuildingBlock: KIFKEQ_clean_linker_1, # of connection points: 2
#     Edge 67, Type (0, 1), BuildingBlock: KIFKEQ_clean_linker_1, # of connection points: 2
#     Edge 68, Type (0, 1), BuildingBlock: KIFKEQ_clean_linker_1, # of connection points: 2
#     Edge 69, Type (0, 1), BuildingBlock: KIFKEQ_clean_linker_1, # of connection points: 2
#     Edge 70, Type (0, 1), BuildingBlock: KIFKEQ_clean_linker_1, # of connection points: 2
#     Edge 71, Type (0, 1), BuildingBlock: KIFKEQ_clean_linker_1, # of connection points: 2
#     Edge 72, Type (0, 1), BuildingBlock: KIFKEQ_clean_linker_1, # of connection points: 2
#     Edge 73, Type (0, 1), BuildingBlock: KIFKEQ_clean_linker_1, # of connection points: 2
#     Edge 74, Type (0, 1), BuildingBlock: KIFKEQ_clean_linker_1, # of connection points: 2
#     Edge 75, Type (0, 1), BuildingBlock: KIFKEQ_clean_linker_1, # of connection points: 2
# Relax obj value: 0.003
# Max RMSD: 0.047
# Mean RMSD: 0.020
data_MOF--net-ctn--node1-TATPOV_clean_sbu_0--node2-KAKCAD_clean_linker_0--edge1-KIFKEQ_clean_linker_1
_symmetry_space_group_name_H-M    P1
_symmetry_Int_Tables_number       1
_symmetry_cell_setting            triclinic
loop_
_symmetry_equiv_pos_as_xyz
'x, y, z'
_cell_length_a     68.359629
_cell_length_b     68.296407
_cell_length_c     68.218104
_cell_angle_alpha  91.089079
_cell_angle_beta   91.305448
_cell_angle_gamma 91.267657
loop_
_atom_site_label
_atom_site_type_symbol
_atom_site_fract_x
_atom_site_fract_y
_atom_site_fract_z
_atom_type_partial_charge
C0 C 0.0316 0.07388 0.97166 0.0
C1 C 0.02733 0.09302 0.97795 0.0
C2 C 0.03329 0.05877 0.98515 0.0
C3 C 0.03074 0.0624 0.00529 0.0
C4 C 0.02646 0.08154 0.01158 0.0
C5 C 0.02479 0.09664 0.9981 0.0
C6 C 0.03252 0.0463 0.01968 0.0
C7 C 0.04727 0.03238 0.01788 0.0
C8 C 0.04909 0.01712 0.03134 0.0
C9 C 0.03589 0.01596 0.04684 0.0
C10 C 0.02099 0.02971 0.04895 0.0
C11 C 0.01946 0.0448 0.03525 0.0
C12 C 0.00688 0.02826 0.06528 0.0
C13 C 0.99913 0.00998 0.07082 0.0
C14 C 0.00084 0.04519 0.07531 0.0
C15 C 0.98732 0.0439 0.09036 0.0
C16 C 0.97946 0.02564 0.09582 0.0
C17 C 0.0648 0.00245 0.02915 0.0
C18 C 0.06928 0.99479 0.01054 0.0
C19 C 0.0755 0.99605 0.04559 0.0
C20 C 0.09035 0.98241 0.04346 0.0
C21 C 0.09484 0.97477 0.02484 0.0
C22 C 0.08408 0.98112 0.00841 0.0
C23 C 0.98561 0.00869 0.08588 0.0
H24 H 0.03385 0.07057 0.9563 0.0
H25 H 0.0364 0.04418 0.97975 0.0
H26 H 0.0246 0.08493 0.02699 0.0
H27 H 0.02128 0.11114 0.00347 0.0
H28 H 0.0577 0.03371 0.00623 0.0
H29 H 0.0077 0.05511 0.0364 0.0
H30 H 0.0372 0.00428 0.05729 0.0
H31 H 0.00329 0.99665 0.06331 0.0
H32 H 0.00664 0.0595 0.0716 0.0
H33 H 0.98279 0.05729 0.09752 0.0
H34 H 0.06122 0.99923 0.99758 0.0
H35 H 0.07257 0.00177 0.06012 0.0
H36 H 0.98006 0.99435 0.08981 0.0
H37 H 0.08726 0.97572 0.99383 0.0
H38 H 0.09819 0.97772 0.05645 0.0
C39 C 0.3339 0.7413 0.26541 0.0
C40 C 0.34608 0.72509 0.2678 0.0
C41 C 0.31571 0.73922 0.25571 0.0
C42 C 0.30909 0.72084 0.24843 0.0
C43 C 0.321 0.70455 0.25109 0.0
C44 C 0.33932 0.70666 0.26055 0.0
C45 C 0.28985 0.71863 0.23796 0.0
C46 C 0.28479 0.73134 0.22278 0.0
C47 C 0.26693 0.72883 0.21225 0.0
C48 C 0.25394 0.71363 0.21746 0.0
C49 C 0.25874 0.7008 0.23263 0.0
C50 C 0.27676 0.70344 0.24278 0.0
C51 C 0.2452 0.68432 0.23749 0.0
C52 C 0.22486 0.68695 0.23788 0.0
C53 C 0.25253 0.66571 0.24152 0.0
C54 C 0.23986 0.6501 0.24574 0.0
C55 C 0.21951 0.65267 0.24599 0.0
C56 C 0.26236 0.7413 0.19511 0.0
C57 C 0.26707 0.76147 0.19549 0.0
C58 C 0.25384 0.7329 0.17788 0.0
C59 C 0.25059 0.74422 0.16133 0.0
C60 C 0.25586 0.76424 0.16149 0.0
C61 C 0.26384 0.77282 0.17888 0.0
C62 C 0.21217 0.67131 0.24208 0.0
H63 H 0.33834 0.75565 0.27114 0.0
H64 H 0.30671 0.75197 0.25408 0.0
H65 H 0.31633 0.69022 0.24544 0.0
H66 H 0.34835 0.6939 0.26176 0.0
H67 H 0.29517 0.74266 0.21863 0.0
H68 H 0.28053 0.69383 0.25468 0.0
H69 H 0.24017 0.71154 0.20943 0.0
H70 H 0.21874 0.70113 0.23505 0.0
H71 H 0.26809 0.66309 0.24113 0.0
H72 H 0.24605 0.63602 0.24893 0.0
H73 H 0.27344 0.76847 0.20859 0.0
H74 H 0.25021 0.71739 0.17692 0.0
H75 H 0.19657 0.67378 0.24196 0.0
H76 H 0.2682 0.78816 0.17947 0.0
H77 H 0.24419 0.73718 0.14827 0.0
C78 C 0.01529 0.47222 0.11549 0.0
C79 C 0.0356 0.47 0.11413 0.0
C80 C 0.00285 0.46776 0.09944 0.0
C81 C 0.01041 0.46105 0.08159 0.0
C82 C 0.03079 0.45934 0.08007 0.0
C83 C 0.04325 0.4637 0.09618 0.0
C84 C 0.99694 0.45518 0.06495 0.0
C85 C 0.98008 0.46598 0.06094 0.0
C86 C 0.96661 0.45992 0.04603 0.0
C87 C 0.97022 0.44278 0.03509 0.0
C88 C 0.98723 0.43214 0.03854 0.0
C89 C 0.00054 0.4384 0.05343 0.0
C90 C 0.99118 0.41461 0.02633 0.0
C91 C 0.97749 0.39902 0.02481 0.0
C92 C 0.00838 0.41372 0.01558 0.0
C93 C 0.0116 0.39775 0.00304 0.0
C94 C 0.99785 0.38208 0.00127 0.0
C95 C 0.949 0.47165 0.04166 0.0
C96 C 0.93851 0.48049 0.05686 0.0
C97 C 0.94262 0.47422 0.02216 0.0
C98 C 0.92611 0.48518 0.01795 0.0
C99 C 0.91563 0.49397 0.03312 0.0
C100 C 0.92205 0.49161 0.05262 0.0
C101 C 0.98089 0.38283 0.01261 0.0
H102 H 0.00891 0.47671 0.1292 0.0
H103 H 0.98722 0.46894 0.10125 0.0
H104 H 0.03714 0.45454 0.06644 0.0
H105 H 0.05886 0.46205 0.09464 0.0
H106 H 0.97764 0.47938 0.0692 0.0
H107 H 0.01337 0.42979 0.05638 0.0
H108 H 0.9599 0.43773 0.02369 0.0
H109 H 0.96419 0.39936 0.03313 0.0
H110 H 0.01905 0.4257 0.0164 0.0
H111 H 0.02463 0.39804 0.99433 0.0
H112 H 0.94285 0.47861 0.07206 0.0
H113 H 0.95057 0.468 0.01006 0.0
H114 H 0.97015 0.37094 0.01207 0.0
H115 H 0.91415 0.4981 0.0646 0.0
H116 H 0.92172 0.48703 0.00275 0.0
C117 C 0.73335 0.72026 0.14862 0.0
C118 C 0.75274 0.71755 0.14285 0.0
C119 C 0.72923 0.73307 0.16413 0.0
C120 C 0.7444 0.74345 0.17433 0.0
C121 C 0.76382 0.74058 0.16871 0.0
C122 C 0.76793 0.7278 0.15315 0.0
C123 C 0.73991 0.75751 0.19048 0.0
C124 C 0.72515 0.75308 0.20381 0.0
C125 C 0.72006 0.76665 0.21848 0.0
C126 C 0.7304 0.78468 0.22006 0.0
C127 C 0.74531 0.78942 0.20692 0.0
C128 C 0.74988 0.77571 0.19216 0.0
C129 C 0.7556 0.80893 0.20807 0.0
C130 C 0.74533 0.82597 0.21266 0.0
C131 C 0.7757 0.81075 0.20425 0.0
C132 C 0.78524 0.82911 0.20492 0.0
C133 C 0.77496 0.84614 0.20956 0.0
C134 C 0.70323 0.76242 0.23139 0.0
C135 C 0.68599 0.75346 0.22353 0.0
C136 C 0.70389 0.76793 0.25138 0.0
C137 C 0.68751 0.76505 0.26305 0.0
C138 C 0.67009 0.75664 0.25499 0.0
C139 C 0.66967 0.75057 0.23517 0.0
C140 C 0.75488 0.84428 0.2135 0.0
H141 H 0.7213 0.71243 0.14119 0.0
H142 H 0.7141 0.73509 0.16789 0.0
H143 H 0.77587 0.7482 0.17636 0.0
H144 H 0.78302 0.72622 0.14899 0.0
H145 H 0.71762 0.73896 0.20281 0.0
H146 H 0.76072 0.77952 0.18145 0.0
H147 H 0.72658 0.7952 0.23134 0.0
H148 H 0.72979 0.82525 0.2154 0.0
H149 H 0.78416 0.79795 0.20086 0.0
H150 H 0.80065 0.82993 0.20162 0.0
H151 H 0.68485 0.74919 0.20816 0.0
H152 H 0.71701 0.77464 0.25798 0.0
H153 H 0.74651 0.85697 0.21747 0.0
H154 H 0.65659 0.74382 0.22854 0.0
H155 H 0.6883 0.77002 0.27823 0.0
C156 C 0.98564 0.99252 0.40471 0.0
C157 C 0.99177 0.99559 0.38545 0.0
C158 C 0.9992 0.98857 0.41965 0.0
C159 C 0.01925 0.98758 0.41571 0.0
C160 C 0.02543 0.99087 0.3965 0.0
C161 C 0.01184 0.99479 0.38152 0.0
C162 C 0.03358 0.98263 0.43147 0.0
C163 C 0.02917 0.96779 0.44474 0.0
C164 C 0.0428 0.96262 0.45929 0.0
C165 C 0.0611 0.97229 0.4605 0.0
C166 C 0.06563 0.98771 0.44783 0.0
C167 C 0.05171 0.9927 0.43331 0.0
C168 C 0.0846 0.99889 0.45008 0.0
C169 C 0.09347 0.0021 0.46872 0.0
C170 C 0.09391 0.00669 0.43368 0.0
C171 C 0.11143 0.01753 0.43589 0.0
C172 C 0.12044 0.0205 0.45451 0.0
C173 C 0.03761 0.9475 0.47364 0.0
C174 C 0.02066 0.94938 0.48463 0.0
C175 C 0.04946 0.93124 0.47646 0.0
C176 C 0.04415 0.9168 0.48975 0.0
C177 C 0.02704 0.91853 0.50073 0.0
C178 C 0.01554 0.93519 0.49816 0.0
C179 C 0.11123 0.01251 0.47087 0.0
H180 H 0.97027 0.9928 0.40821 0.0
H181 H 0.99398 0.9863 0.43433 0.0
H182 H 0.04076 0.99004 0.39296 0.0
H183 H 0.01705 0.99724 0.36688 0.0
H184 H 0.01523 0.95991 0.44355 0.0
H185 H 0.05466 0.00482 0.42373 0.0
H186 H 0.07165 0.96792 0.47158 0.0
H187 H 0.08666 0.99672 0.4818 0.0
H188 H 0.08779 0.00436 0.41903 0.0
H189 H 0.11778 0.02368 0.42292 0.0
H190 H 0.01146 0.96198 0.4829 0.0
H191 H 0.0626 0.92949 0.46807 0.0
H192 H 0.11777 0.01409 0.48543 0.0
H193 H 0.00256 0.93739 0.50667 0.0
H194 H 0.05324 0.90409 0.49106 0.0
C195 C 0.15483 0.72849 0.71126 0.0
C196 C 0.14846 0.7478 0.70927 0.0
C197 C 0.17064 0.72438 0.72373 0.0
C198 C 0.18048 0.73948 0.73453 0.0
C199 C 0.17432 0.75884 0.73233 0.0
C200 C 0.1585 0.76295 0.71981 0.0
C201 C 0.19673 0.73488 0.74847 0.0
C202 C 0.21064 0.72096 0.74336 0.0
C203 C 0.22526 0.71537 0.75686 0.0
C204 C 0.22613 0.72456 0.77556 0.0
C205 C 0.21262 0.73892 0.78082 0.0
C206 C 0.1979 0.74384 0.76717 0.0
C207 C 0.21363 0.74856 0.80065 0.0
C208 C 0.21849 0.73782 0.8174 0.0
C209 C 0.20976 0.76863 0.803 0.0
C210 C 0.21089 0.77774 0.82156 0.0
C211 C 0.2161 0.76704 0.83819 0.0
C212 C 0.23917 0.69957 0.7516 0.0
C213 C 0.23302 0.68372 0.7393 0.0
C214 C 0.25854 0.69991 0.75909 0.0
C215 C 0.27116 0.68461 0.75484 0.0
C216 C 0.26494 0.66868 0.74266 0.0
C217 C 0.24576 0.66866 0.73471 0.0
C218 C 0.21979 0.74696 0.83591 0.0
H219 H 0.14756 0.7165 0.70318 0.0
H220 H 0.17488 0.70929 0.72523 0.0
H221 H 0.1817 0.77082 0.74031 0.0
H222 H 0.15387 0.77796 0.71874 0.0
H223 H 0.21011 0.71458 0.7287 0.0
H224 H 0.18688 0.75419 0.77136 0.0
H225 H 0.23726 0.72044 0.78614 0.0
H226 H 0.22113 0.72227 0.81627 0.0
H227 H 0.20623 0.77745 0.79043 0.0
H228 H 0.20819 0.79327 0.82283 0.0
H229 H 0.21819 0.68263 0.73343 0.0
H230 H 0.26403 0.71197 0.76831 0.0
H231 H 0.22357 0.73826 0.8485 0.0
H232 H 0.24043 0.65694 0.72496 0.0
H233 H 0.28568 0.68516 0.76152 0.0
C234 C 0.95324 0.62187 0.50677 0.0
C235 C 0.95027 0.62124 0.52707 0.0
C236 C 0.95202 0.60476 0.49524 0.0
C237 C 0.94778 0.58662 0.50373 0.0
C238 C 0.94471 0.58597 0.52401 0.0
C239 C 0.94601 0.6031 0.53558 0.0
C240 C 0.94699 0.5684 0.49148 0.0
C241 C 0.96125 0.56518 0.47737 0.0
C242 C 0.96088 0.54794 0.4659 0.0
C243 C 0.94611 0.53374 0.46866 0.0
C244 C 0.93124 0.5369 0.48226 0.0
C245 C 0.93194 0.55429 0.49372 0.0
C246 C 0.9148 0.5223 0.48405 0.0
C247 C 0.9076 0.51163 0.46744 0.0
C248 C 0.90612 0.51888 0.50225 0.0
C249 C 0.89079 0.5051 0.50378 0.0
C250 C 0.8841 0.49419 0.48724 0.0
C251 C 0.97558 0.54505 0.45057 0.0
C252 C 0.97869 0.55951 0.43652 0.0
C253 C 0.98618 0.5277 0.44955 0.0
C254 C 0.9996 0.52482 0.43466 0.0
C255 C 0.00237 0.53908 0.42035 0.0
C256 C 0.99184 0.55647 0.42143 0.0
C257 C 0.8926 0.49759 0.46907 0.0
H258 H 0.95673 0.63559 0.49979 0.0
H259 H 0.95429 0.60577 0.47962 0.0
H260 H 0.94158 0.57217 0.53099 0.0
H261 H 0.94348 0.60217 0.55116 0.0
H262 H 0.97293 0.57594 0.47551 0.0
H263 H 0.92046 0.55723 0.50398 0.0
H264 H 0.9461 0.52034 0.45989 0.0
H265 H 0.91343 0.51416 0.45306 0.0
H266 H 0.91138 0.52656 0.51544 0.0
H267 H 0.88451 0.50257 0.51797 0.0
H268 H 0.97059 0.57296 0.43695 0.0
H269 H 0.98407 0.51639 0.46026 0.0
H270 H 0.88752 0.48944 0.45608 0.0
H271 H 0.99377 0.56769 0.41058 0.0
H272 H 0.00745 0.51122 0.43403 0.0
C273 C 0.83391 0.7651 0.88763 0.0
C274 C 0.81461 0.75751 0.88752 0.0
C275 C 0.83868 0.78156 0.87663 0.0
C276 C 0.82424 0.79079 0.86533 0.0
C277 C 0.80487 0.78341 0.86561 0.0
C278 C 0.80012 0.76706 0.87661 0.0
C279 C 0.82927 0.80745 0.85249 0.0
C280 C 0.84611 0.80704 0.84104 0.0
C281 C 0.8496 0.82152 0.82706 0.0
C282 C 0.83614 0.83663 0.82479 0.0
C283 C 0.81922 0.83718 0.83602 0.0
C284 C 0.81618 0.82284 0.85016 0.0
C285 C 0.80355 0.85114 0.83126 0.0
C286 C 0.80792 0.87091 0.82745 0.0
C287 C 0.78405 0.84432 0.82941 0.0
C288 C 0.76928 0.85685 0.82362 0.0
C289 C 0.77362 0.87652 0.81952 0.0
C290 C 0.86588 0.8197 0.81312 0.0
C291 C 0.87663 0.83635 0.80746 0.0
C292 C 0.8695 0.80157 0.80398 0.0
C293 C 0.88284 0.80029 0.78884 0.0
C294 C 0.89288 0.81711 0.78248 0.0
C295 C 0.89001 0.83507 0.79231 0.0
C296 C 0.79305 0.88354 0.82175 0.0
H297 H 0.84545 0.758 0.89577 0.0
H298 H 0.8537 0.78697 0.87685 0.0
H299 H 0.7934 0.78992 0.85686 0.0
H300 H 0.78506 0.76177 0.87641 0.0
H301 H 0.85608 0.795 0.84237 0.0
H302 H 0.80322 0.82337 0.85899 0.0
H303 H 0.8381 0.84716 0.81327 0.0
H304 H 0.82283 0.87656 0.8288 0.0
H305 H 0.78023 0.82912 0.83194 0.0
H306 H 0.75441 0.85109 0.82231 0.0
H307 H 0.87433 0.85048 0.81441 0.0
H308 H 0.86125 0.78852 0.80778 0.0
H309 H 0.79679 0.89865 0.81866 0.0
H310 H 0.89775 0.84824 0.78798 0.0
H311 H 0.88448 0.78628 0.78142 0.0
C312 C 0.33781 0.27509 0.39447 0.0
C313 C 0.3199 0.269 0.40221 0.0
C314 C 0.33864 0.29083 0.3817 0.0
C315 C 0.32148 0.30047 0.37602 0.0
C316 C 0.30366 0.29471 0.38443 0.0
C317 C 0.30293 0.27924 0.39753 0.0
C318 C 0.32188 0.31536 0.3603 0.0
C319 C 0.33423 0.313 0.34424 0.0
C320 C 0.33358 0.32586 0.32844 0.0
C321 C 0.32035 0.34129 0.32875 0.0
C322 C 0.30774 0.34383 0.34452 0.0
C323 C 0.30888 0.33105 0.36039 0.0
C324 C 0.29223 0.35869 0.3435 0.0
C325 C 0.29618 0.37749 0.33633 0.0
C326 C 0.27295 0.35361 0.34843 0.0
C327 C 0.25787 0.3668 0.34571 0.0
C328 C 0.26168 0.38543 0.33803 0.0
C329 C 0.34563 0.32219 0.31097 0.0
C330 C 0.36536 0.31703 0.31306 0.0
C331 C 0.3372 0.32308 0.29204 0.0
C332 C 0.34815 0.31863 0.27559 0.0
C333 C 0.36779 0.3132 0.27766 0.0
C334 C 0.37636 0.31266 0.29656 0.0
C335 C 0.28107 0.39074 0.33365 0.0
H336 H 0.35109 0.26741 0.398 0.0
H337 H 0.35269 0.29511 0.37594 0.0
H338 H 0.29007 0.30148 0.38023 0.0
H339 H 0.28893 0.2746 0.4032 0.0
H340 H 0.34366 0.30048 0.34343 0.0
H341 H 0.2994 0.33323 0.37272 0.0
H342 H 0.3194 0.35093 0.31634 0.0
H343 H 0.31093 0.3819 0.3326 0.0
H344 H 0.26935 0.33912 0.35365 0.0
H345 H 0.24307 0.36208 0.34892 0.0
H346 H 0.37227 0.31634 0.32747 0.0
H347 H 0.32198 0.32677 0.28994 0.0
H348 H 0.28456 0.40507 0.32799 0.0
H349 H 0.39144 0.30843 0.29862 0.0
H350 H 0.3412 0.31943 0.2612 0.0
C351 C 0.4996 0.94017 0.63018 0.0
C352 C 0.51985 0.9435 0.62867 0.0
C353 C 0.48791 0.93676 0.61337 0.0
C354 C 0.49632 0.93624 0.5948 0.0
C355 C 0.5166 0.93938 0.59328 0.0
C356 C 0.52826 0.94319 0.61009 0.0
C357 C 0.48386 0.93273 0.57704 0.0
C358 C 0.46765 0.94451 0.57352 0.0
C359 C 0.45584 0.94162 0.55655 0.0
C360 C 0.46021 0.92636 0.54332 0.0
C361 C 0.47639 0.91439 0.54665 0.0
C362 C 0.48823 0.9178 0.56353 0.0
C363 C 0.48116 0.89871 0.53221 0.0
C364 C 0.46625 0.88688 0.5233 0.0
C365 C 0.50062 0.89583 0.52678 0.0
C366 C 0.50501 0.88182 0.51243 0.0
C367 C 0.49004 0.87034 0.50316 0.0
C368 C 0.43957 0.95512 0.55221 0.0
C369 C 0.42762 0.96216 0.56722 0.0
C370 C 0.43626 0.96156 0.533 0.0
C371 C 0.42142 0.97466 0.52888 0.0
C372 C 0.40955 0.98176 0.54387 0.0
C373 C 0.41282 0.97541 0.5631 0.0
C374 C 0.47063 0.87286 0.50896 0.0
H375 H 0.4928 0.94044 0.64437 0.0
H376 H 0.4723 0.93434 0.61487 0.0
H377 H 0.52336 0.93915 0.57906 0.0
H378 H 0.54387 0.94564 0.60861 0.0
H379 H 0.46474 0.95642 0.58369 0.0
H380 H 0.50065 0.90859 0.56642 0.0
H381 H 0.45116 0.92398 0.53021 0.0
H382 H 0.45113 0.88854 0.52733 0.0
H383 H 0.51245 0.90478 0.53325 0.0
H384 H 0.52014 0.88011 0.50847 0.0
H385 H 0.42963 0.95733 0.58215 0.0
H386 H 0.44543 0.95683 0.52115 0.0
H387 H 0.45873 0.8644 0.50199 0.0
H388 H 0.40379 0.98052 0.57491 0.0
H389 H 0.4195 0.97957 0.51396 0.0
C390 C 0.22913 0.22268 0.65459 0.0
C391 C 0.24882 0.21965 0.65002 0.0
C392 C 0.22428 0.23574 0.66966 0.0
C393 C 0.23898 0.24609 0.68057 0.0
C394 C 0.25866 0.243 0.67606 0.0
C395 C 0.26351 0.22996 0.66098 0.0
C396 C 0.23385 0.26012 0.69653 0.0
C397 C 0.21859 0.25567 0.70929 0.0
C398 C 0.21367 0.26882 0.72436 0.0
C399 C 0.22435 0.28656 0.7268 0.0
C400 C 0.23945 0.29154 0.71396 0.0
C401 C 0.24405 0.27815 0.69889 0.0
C402 C 0.24995 0.31093 0.71575 0.0
C403 C 0.2399 0.32793 0.72101 0.0
C404 C 0.27001 0.31273 0.71172 0.0
C405 C 0.27966 0.33102 0.71263 0.0
C406 C 0.26958 0.34804 0.71783 0.0
C407 C 0.19673 0.26442 0.73692 0.0
C408 C 0.17863 0.25857 0.72827 0.0
C409 C 0.19829 0.26649 0.75745 0.0
C410 C 0.182 0.2629 0.76908 0.0
C411 C 0.1638 0.25756 0.76034 0.0
C412 C 0.16232 0.25532 0.73984 0.0
C413 C 0.2496 0.34618 0.72215 0.0
H414 H 0.21744 0.21484 0.6466 0.0
H415 H 0.20896 0.2379 0.67258 0.0
H416 H 0.27037 0.25056 0.6843 0.0
H417 H 0.27881 0.22819 0.65773 0.0
H418 H 0.21064 0.2418 0.70769 0.0
H419 H 0.25517 0.28203 0.68851 0.0
H420 H 0.22059 0.29664 0.73851 0.0
H421 H 0.22441 0.32725 0.72396 0.0
H422 H 0.27835 0.29998 0.70788 0.0
H423 H 0.29498 0.33181 0.70899 0.0
H424 H 0.17697 0.25699 0.71249 0.0
H425 H 0.2121 0.27089 0.76449 0.0
H426 H 0.24137 0.35882 0.72656 0.0
H427 H 0.14848 0.25113 0.73274 0.0
H428 H 0.18349 0.26483 0.78485 0.0
C429 C 0.8353 0.23808 0.76502 0.0
C430 C 0.84613 0.22205 0.77144 0.0
C431 C 0.81777 0.23517 0.7543 0.0
C432 C 0.81066 0.21613 0.74963 0.0
C433 C 0.82142 0.20008 0.75621 0.0
C434 C 0.83891 0.20301 0.76704 0.0
C435 C 0.79219 0.21306 0.73779 0.0
C436 C 0.78787 0.22519 0.72188 0.0
C437 C 0.77062 0.22224 0.71046 0.0
C438 C 0.75759 0.2069 0.71514 0.0
C439 C 0.76169 0.19451 0.73087 0.0
C440 C 0.77895 0.1978 0.74217 0.0
C441 C 0.7482 0.17783 0.7352 0.0
C442 C 0.7278 0.18008 0.73463 0.0
C443 C 0.75569 0.1594 0.7397 0.0
C444 C 0.7431 0.14361 0.74352 0.0
C445 C 0.7227 0.14583 0.74297 0.0
C446 C 0.76662 0.2347 0.69317 0.0
C447 C 0.77072 0.25499 0.694 0.0
C448 C 0.75912 0.22629 0.67551 0.0
C449 C 0.75618 0.23776 0.659 0.0
C450 C 0.76073 0.25795 0.65967 0.0
C451 C 0.7678 0.26648 0.67745 0.0
C452 C 0.71519 0.16427 0.73848 0.0
H453 H 0.8403 0.25294 0.76845 0.0
H454 H 0.80971 0.24786 0.74981 0.0
H455 H 0.81655 0.18522 0.75265 0.0
H456 H 0.84702 0.19036 0.77158 0.0
H457 H 0.79831 0.23653 0.71794 0.0
H458 H 0.7819 0.18862 0.75463 0.0
H459 H 0.74433 0.20442 0.70637 0.0
H460 H 0.72157 0.19415 0.73145 0.0
H461 H 0.77132 0.15708 0.73992 0.0
H462 H 0.74938 0.12954 0.74658 0.0
H463 H 0.7763 0.26199 0.70743 0.0
H464 H 0.75597 0.2107 0.67425 0.0
H465 H 0.69956 0.16657 0.7382 0.0
H466 H 0.77161 0.28195 0.67845 0.0
H467 H 0.75049 0.23074 0.64562 0.0
C468 C 0.53251 0.58128 0.46853 0.0
C469 C 0.52814 0.60008 0.47579 0.0
C470 C 0.53517 0.56569 0.4813 0.0
C471 C 0.53342 0.56847 0.50166 0.0
C472 C 0.52922 0.58727 0.50895 0.0
C473 C 0.52668 0.60287 0.4962 0.0
C474 C 0.53564 0.55176 0.51522 0.0
C475 C 0.55074 0.53832 0.51278 0.0
C476 C 0.55282 0.52238 0.52541 0.0
C477 C 0.53941 0.51999 0.54061 0.0
C478 C 0.52425 0.5333 0.54336 0.0
C479 C 0.52253 0.54914 0.5306 0.0
C480 C 0.51008 0.53063 0.55946 0.0
C481 C 0.50225 0.51197 0.56355 0.0
C482 C 0.50413 0.54679 0.57076 0.0
C483 C 0.49067 0.54436 0.58572 0.0
C484 C 0.48274 0.52572 0.58974 0.0
C485 C 0.56903 0.5083 0.52278 0.0
C486 C 0.57462 0.50232 0.5039 0.0
C487 C 0.57908 0.50074 0.5391 0.0
C488 C 0.59427 0.48756 0.53661 0.0
C489 C 0.59989 0.48161 0.51773 0.0
C490 C 0.58985 0.4892 0.50142 0.0
C491 C 0.48872 0.50955 0.57847 0.0
H492 H 0.53347 0.57846 0.45291 0.0
H493 H 0.53815 0.55134 0.47519 0.0
H494 H 0.52808 0.58997 0.52458 0.0
H495 H 0.52373 0.61718 0.5024 0.0
H496 H 0.5612 0.5406 0.5013 0.0
H497 H 0.51059 0.55916 0.53228 0.0
H498 H 0.54077 0.50773 0.55035 0.0
H499 H 0.50636 0.49924 0.55502 0.0
H500 H 0.51 0.56134 0.56813 0.0
H501 H 0.48626 0.55717 0.59397 0.0
H502 H 0.5671 0.50764 0.49098 0.0
H503 H 0.57538 0.50517 0.55385 0.0
H504 H 0.48307 0.49496 0.58128 0.0
H505 H 0.5939 0.4852 0.48665 0.0
H506 H 0.60148 0.48188 0.54954 0.0
C507 C 0.47869 0.47372 0.9025 0.0
C508 C 0.48547 0.48255 0.88538 0.0
C509 C 0.49146 0.47019 0.91824 0.0
C510 C 0.51155 0.47489 0.91718 0.0
C511 C 0.51845 0.48325 0.89987 0.0
C512 C 0.50557 0.4872 0.88427 0.0
C513 C 0.52513 0.4713 0.93416 0.0
C514 C 0.52191 0.45528 0.94644 0.0
C515 C 0.53407 0.45226 0.96293 0.0
C516 C 0.55028 0.4649 0.96655 0.0
C517 C 0.55398 0.48092 0.95441 0.0
C518 C 0.5411 0.48416 0.93847 0.0
C519 C 0.5713 0.4942 0.95836 0.0
C520 C 0.57796 0.49848 0.9777 0.0
C521 C 0.58173 0.50225 0.94274 0.0
C522 C 0.59848 0.51396 0.94637 0.0
C523 C 0.60539 0.5176 0.96564 0.0
C524 C 0.5292 0.43659 0.97699 0.0
C525 C 0.50971 0.43343 0.98246 0.0
C526 C 0.54391 0.42535 0.98572 0.0
C527 C 0.53924 0.41152 0.99987 0.0
C528 C 0.51977 0.40869 0.00561 0.0
C529 C 0.50505 0.41964 0.99655 0.0
C530 C 0.59495 0.50987 0.98128 0.0
H531 H 0.46344 0.46948 0.90386 0.0
H532 H 0.48542 0.46402 0.93135 0.0
H533 H 0.53384 0.48677 0.89827 0.0
H534 H 0.51141 0.4942 0.87149 0.0
H535 H 0.50996 0.44499 0.94317 0.0
H536 H 0.54324 0.49703 0.92969 0.0
H537 H 0.55989 0.46234 0.97902 0.0
H538 H 0.57011 0.49301 0.99014 0.0
H539 H 0.57731 0.49905 0.92766 0.0
H540 H 0.60645 0.5196 0.93406 0.0
H541 H 0.49803 0.44197 0.97621 0.0
H542 H 0.55905 0.42728 0.98169 0.0
H543 H 0.59997 0.51262 0.99628 0.0
H544 H 0.48986 0.41759 1.00036 0.0
H545 H 0.55093 0.40336 0.0066 0.0
C546 C 0.64607 0.22663 0.2166 0.0
C547 C 0.63982 0.24585 0.21363 0.0
C548 C 0.66242 0.2231 0.22859 0.0
C549 C 0.67294 0.23871 0.23791 0.0
C550 C 0.66686 0.25795 0.23475 0.0
C551 C 0.65051 0.26148 0.22275 0.0
C552 C 0.68982 0.23486 0.25133 0.0
C553 C 0.70339 0.22049 0.24651 0.0
C554 C 0.71875 0.21593 0.25959 0.0
C555 C 0.72069 0.2264 0.27753 0.0
C556 C 0.70732 0.24095 0.28263 0.0
C557 C 0.69193 0.245 0.26939 0.0
C558 C 0.70885 0.25137 0.30206 0.0
C559 C 0.7143 0.24132 0.31907 0.0
C560 C 0.70443 0.27135 0.30386 0.0
C561 C 0.70528 0.28096 0.32217 0.0
C562 C 0.71071 0.2709 0.33918 0.0
C563 C 0.73205 0.1995 0.25497 0.0
C564 C 0.72453 0.18215 0.24593 0.0
C565 C 0.75209 0.20062 0.26019 0.0
C566 C 0.76413 0.18457 0.25704 0.0
C567 C 0.75641 0.16702 0.24857 0.0
C568 C 0.73655 0.16619 0.2427 0.0
C569 C 0.71531 0.25097 0.33734 0.0
H570 H 0.63801 0.21423 0.21007 0.0
H571 H 0.66652 0.20809 0.23095 0.0
H572 H 0.6748 0.27031 0.2415 0.0
H573 H 0.64629 0.27649 0.22053 0.0
H574 H 0.702 0.21287 0.23245 0.0
H575 H 0.68106 0.25555 0.27348 0.0
H576 H 0.73244 0.22297 0.28773 0.0
H577 H 0.71754 0.22588 0.31837 0.0
H578 H 0.70038 0.27964 0.29107 0.0
H579 H 0.70146 0.29625 0.32298 0.0
H580 H 0.70916 0.18061 0.24188 0.0
H581 H 0.75846 0.21384 0.26691 0.0
H582 H 0.7199 0.24278 0.35001 0.0
H583 H 0.73016 0.15303 0.23588 0.0
H584 H 0.77932 0.18571 0.26187 0.0
C585 C 0.462 0.11486 0.00643 0.0
C586 C 0.45627 0.11421 0.02606 0.0
C587 C 0.46046 0.09817 0.99436 0.0
C588 C 0.45319 0.08038 0.00162 0.0
C589 C 0.44787 0.07958 0.02138 0.0
C590 C 0.44944 0.09633 0.03351 0.0
C591 C 0.4507 0.06299 0.98831 0.0
C592 C 0.46509 0.05869 0.97461 0.0
C593 C 0.46234 0.0433 0.96077 0.0
C594 C 0.44496 0.03186 0.96116 0.0
C595 C 0.43071 0.03548 0.97524 0.0
C596 C 0.43366 0.05116 0.98869 0.0
C597 C 0.41286 0.02272 0.97606 0.0
C598 C 0.40266 0.01668 0.95879 0.0
C599 C 0.40626 0.01597 0.99415 0.0
C600 C 0.39016 0.00306 0.99491 0.0
C601 C 0.38022 0.99662 0.97761 0.0
C602 C 0.47767 0.0392 0.94608 0.0
C603 C 0.48919 0.05454 0.93853 0.0
C604 C 0.48116 0.01993 0.93965 0.0
C605 C 0.4957 0.01611 0.92613 0.0
C606 C 0.50758 0.03138 0.91899 0.0
C607 C 0.50406 0.05066 0.92538 0.0
C608 C 0.38651 0.00382 0.95956 0.0
H609 H 0.46753 0.12837 1.00032 0.0
H610 H 0.46452 0.09934 0.97916 0.0
H611 H 0.4424 0.06604 0.02745 0.0
H612 H 0.4448 0.09541 0.04854 0.0
H613 H 0.47861 0.06727 0.97498 0.0
H614 H 0.42238 0.0545 0.99907 0.0
H615 H 0.44251 0.01999 0.95058 0.0
H616 H 0.40718 0.02189 0.94466 0.0
H617 H 0.41394 0.02019 0.0077 0.0
H618 H 0.38593 0.99759 0.00904 0.0
H619 H 0.48675 0.06964 0.94272 0.0
H620 H 0.47287 0.00765 0.94524 0.0
H621 H 0.379 0.99943 0.94598 0.0
H622 H 0.51296 0.06285 0.92049 0.0
H623 H 0.49754 0.0011 0.92129 0.0
Zn624 Zn 0.27463 0.84353 0.99696 0.0
Zn625 Zn 0.24393 0.86522 0.00197 0.0
O626 O 0.24615 0.84981 0.02824 0.0
O627 O 0.27334 0.83373 0.02422 0.0
O628 O 0.22095 0.88317 0.00605 0.0
O629 O 0.29174 0.86682 0.99123 0.0
O630 O 0.26661 0.88532 0.9974 0.0
C631 C 0.2591 0.83823 0.03479 0.0
C632 C 0.24439 0.83381 0.96883 0.0
O633 O 0.23602 0.84825 0.97706 0.0
O634 O 0.26089 0.82836 0.97517 0.0
C635 C 0.20322 0.87724 0.00699 0.0
O636 O 0.19915 0.85839 0.00529 0.0
C637 C 0.28454 0.88366 0.99294 0.0
Zn638 Zn 0.10122 0.46243 0.28717 0.0
Zn639 Zn 0.12151 0.49622 0.28285 0.0
O640 O 0.10178 0.50372 0.30395 0.0
O641 O 0.0835 0.47683 0.30561 0.0
O642 O 0.13767 0.52082 0.27899 0.0
O643 O 0.12567 0.44971 0.29763 0.0
O644 O 0.1423 0.47694 0.29217 0.0
C645 C 0.08725 0.4944 0.31096 0.0
C646 C 0.09968 0.47599 0.24769 0.0
O647 O 0.10942 0.49047 0.25529 0.0
O648 O 0.09488 0.46161 0.25814 0.0
C649 C 0.13024 0.53707 0.27445 0.0
O650 O 0.11114 0.5382 0.27249 0.0
C651 C 0.14176 0.45927 0.29783 0.0
Zn652 Zn 0.77681 0.58864 0.95627 0.0
Zn653 Zn 0.77206 0.60709 0.99093 0.0
O654 O 0.79474 0.58844 0.99709 0.0
O655 O 0.79941 0.57441 0.96829 0.0
O656 O 0.76771 0.62158 0.01644 0.0
O657 O 0.78167 0.61469 0.94353 0.0
O658 O 0.77904 0.62942 0.97228 0.0
C659 C 0.80408 0.57659 0.98629 0.0
C660 C 0.73883 0.58152 0.97184 0.0
O661 O 0.74532 0.59328 0.98532 0.0
O662 O 0.7496 0.57681 0.95772 0.0
C663 C 0.78146 0.6312 0.02536 0.0
O664 O 0.79907 0.63126 0.01802 0.0
C665 C 0.78224 0.63023 0.95398 0.0
Zn666 Zn 0.8423 0.00699 0.27281 0.0
Zn667 Zn 0.86529 0.01302 0.24301 0.0
O668 O 0.84834 0.03827 0.2435 0.0
O669 O 0.83059 0.03321 0.26951 0.0
O670 O 0.88409 0.01701 0.22066 0.0
O671 O 0.86511 0.00416 0.2914 0.0
O672 O 0.88446 0.01064 0.26693 0.0
C673 C 0.8354 0.04399 0.25545 0.0
C674 C 0.83614 0.97763 0.24314 0.0
O675 O 0.85013 0.98703 0.23517 0.0
O676 O 0.82962 0.98354 0.25936 0.0
C677 C 0.87887 0.01595 0.20264 0.0
O678 O 0.86034 0.01255 0.19798 0.0
C679 C 0.88216 0.0069 0.28501 0.0
Zn680 Zn 0.29283 0.09785 0.46385 0.0
Zn681 Zn 0.28245 0.11246 0.49887 0.0
O682 O 0.30429 0.09301 0.50629 0.0
O683 O 0.313 0.08183 0.47735 0.0
O684 O 0.27478 0.1248 0.52464 0.0
O685 O 0.30041 0.12481 0.45485 0.0
O686 O 0.29102 0.13669 0.48329 0.0
C687 C 0.31501 0.08206 0.49584 0.0
C688 C 0.25265 0.08911 0.47289 0.0
O689 O 0.25695 0.09897 0.4885 0.0
O690 O 0.2654 0.08651 0.45996 0.0
C691 C 0.28746 0.13442 0.53506 0.0
O692 O 0.30563 0.13541 0.52919 0.0
C693 C 0.29795 0.13927 0.46632 0.0
Zn694 Zn 0.34464 0.51297 0.76713 0.0
Zn695 Zn 0.36858 0.51142 0.7365 0.0
O696 O 0.35441 0.53809 0.73371 0.0
O697 O 0.33622 0.5398 0.75998 0.0
O698 O 0.38765 0.51156 0.71409 0.0
O699 O 0.36751 0.51078 0.78591 0.0
O700 O 0.38715 0.50911 0.76078 0.0
C701 C 0.34246 0.54728 0.74445 0.0
C702 C 0.33629 0.47992 0.74075 0.0
O703 O 0.35102 0.48663 0.73164 0.0
O704 O 0.33043 0.48877 0.75595 0.0
C705 C 0.38234 0.51272 0.69616 0.0
O706 O 0.36359 0.51349 0.69166 0.0
C707 C 0.38453 0.50922 0.77924 0.0
Zn708 Zn 0.77529 0.34326 0.4969 0.0
Zn709 Zn 0.74445 0.36428 0.50446 0.0
O710 O 0.74756 0.34748 0.52957 0.0
O711 O 0.77512 0.3325 0.52402 0.0
O712 O 0.72076 0.38098 0.50974 0.0
O713 O 0.79116 0.36748 0.49106 0.0
O714 O 0.76666 0.38515 0.50121 0.0
C715 C 0.76102 0.33601 0.53517 0.0
C716 C 0.74448 0.33442 0.46957 0.0
O717 O 0.73649 0.34847 0.47881 0.0
O718 O 0.76109 0.32856 0.47511 0.0
C719 C 0.71274 0.39034 0.49585 0.0
O720 O 0.71987 0.38877 0.47818 0.0
C721 C 0.7841 0.384 0.49507 0.0
Zn722 Zn 0.6102 0.9553 0.79346 0.0
Zn723 Zn 0.62807 0.98781 0.7815 0.0
O724 O 0.61193 0.9973 0.80502 0.0
O725 O 0.60106 0.96964 0.81743 0.0
O726 O 0.64314 0.01204 0.77365 0.0
O727 O 0.63558 0.94116 0.7947 0.0
O728 O 0.65052 0.96894 0.78777 0.0
C729 C 0.60282 0.98811 0.81825 0.0
C730 C 0.59768 0.96681 0.75474 0.0
O731 O 0.61116 0.9799 0.75712 0.0
O732 O 0.59387 0.9551 0.7684 0.0
C733 C 0.63533 0.02831 0.76988 0.0
O734 O 0.61622 0.02972 0.77068 0.0
C735 C 0.65125 0.95091 0.7922 0.0
Zn736 Zn 0.00872 0.27685 0.84973 0.0
Zn737 Zn 0.01041 0.24432 0.86976 0.0
O738 O 0.0355 0.24339 0.85283 0.0
O739 O 0.03114 0.26842 0.83339 0.0
O740 O 0.012 0.22039 0.88692 0.0
O741 O 0.01344 0.29368 0.874 0.0
O742 O 0.01025 0.26664 0.89078 0.0
C743 C 0.04088 0.25374 0.83844 0.0
C744 C 0.97424 0.25266 0.84384 0.0
O745 O 0.98402 0.24062 0.85403 0.0
O746 O 0.98127 0.2696 0.84079 0.0
C747 C 0.01571 0.20316 0.88089 0.0
O748 O 0.01861 0.20001 0.86213 0.0
C749 C 0.0123 0.28523 0.89029 0.0
Zn750 Zn 0.50953 0.77933 0.34092 0.0
Zn751 Zn 0.51413 0.74651 0.36025 0.0
O752 O 0.53951 0.749 0.34372 0.0
O753 O 0.53577 0.7771 0.32899 0.0
O754 O 0.51837 0.72181 0.37585 0.0
O755 O 0.50669 0.79472 0.36602 0.0
O756 O 0.51143 0.76765 0.38225 0.0
C757 C 0.5459 0.76218 0.33229 0.0
C758 C 0.47945 0.75088 0.33097 0.0
O759 O 0.48828 0.74092 0.34399 0.0
O760 O 0.48598 0.76768 0.32661 0.0
C761 C 0.50447 0.71371 0.38506 0.0
O762 O 0.48696 0.72122 0.38392 0.0
C763 C 0.50837 0.78601 0.38216 0.0
Zn764 Zn 0.9489 0.78975 0.60878 0.0
Zn765 Zn 0.98475 0.78243 0.62354 0.0
O766 O 0.99062 0.80461 0.60424 0.0
O767 O 0.9615 0.80923 0.59079 0.0
O768 O 0.01077 0.77652 0.63641 0.0
O769 O 0.93983 0.79807 0.63558 0.0
O770 O 0.96879 0.79048 0.6475 0.0
C771 C 0.97968 0.81325 0.5919 0.0
C772 C 0.96031 0.75011 0.60163 0.0
O773 O 0.9762 0.75618 0.61008 0.0
O774 O 0.94607 0.76153 0.5998 0.0
C775 C 0.02736 0.77805 0.62847 0.0
O776 O 0.02834 0.78381 0.61025 0.0
C777 C 0.95152 0.7965 0.65011 0.0
Zn778 Zn 0.43964 0.28023 0.11024 0.0
Zn779 Zn 0.47413 0.27429 0.12833 0.0
O780 O 0.48049 0.29707 0.10984 0.0
O781 O 0.45198 0.30236 0.09546 0.0
O782 O 0.49965 0.27006 0.14291 0.0
O783 O 0.42706 0.28561 0.13602 0.0
O784 O 0.4554 0.28078 0.15087 0.0
C785 C 0.47002 0.3066 0.09778 0.0
C786 C 0.45425 0.24166 0.10289 0.0
O787 O 0.4685 0.2479 0.11386 0.0
O788 O 0.44002 0.25268 0.0992 0.0
C789 C 0.51558 0.26723 0.13413 0.0
O790 O 0.51553 0.26701 0.11487 0.0
C791 C 0.43732 0.28489 0.15166 0.0
H792 H 0.24595 0.76336 0.86483 0.0
H793 H 0.19153 0.79308 0.85567 0.0
H794 H 0.25018 0.77932 0.89679 0.0
H795 H 0.19543 0.80881 0.88812 0.0
H796 H 0.2227 0.84911 0.9386 0.0
H797 H 0.21422 0.83289 0.90708 0.0
H798 H 0.23786 0.77895 0.9286 0.0
H799 H 0.24704 0.79538 0.95942 0.0
C800 C 0.23473 0.77312 0.86981 0.0
C801 C 0.21835 0.77684 0.85779 0.0
C802 C 0.23708 0.78224 0.88821 0.0
C803 C 0.223 0.7952 0.89527 0.0
C804 C 0.20663 0.79905 0.88316 0.0
C805 C 0.20437 0.79001 0.86459 0.0
C806 C 0.22573 0.83371 0.93661 0.0
C807 C 0.23573 0.82356 0.95132 0.0
C808 C 0.22089 0.82438 0.91856 0.0
C809 C 0.22576 0.80468 0.91507 0.0
C810 C 0.23447 0.79428 0.93044 0.0
C811 C 0.23957 0.80365 0.94822 0.0
H812 H 0.99399 0.54209 0.38136 0.0
H813 H 0.04036 0.52759 0.42221 0.0
H814 H 0.01491 0.53366 0.35391 0.0
H815 H 0.0614 0.51943 0.39471 0.0
H816 H 0.09733 0.52394 0.33725 0.0
H817 H 0.07719 0.5371 0.36357 0.0
H818 H 0.02908 0.49906 0.3441 0.0
H819 H 0.04919 0.48562 0.3182 0.0
C820 C 0.00876 0.5374 0.38443 0.0
C821 C 0.01558 0.53541 0.40385 0.0
C822 C 0.02067 0.53253 0.36877 0.0
C823 C 0.03972 0.52595 0.37226 0.0
C824 C 0.04681 0.52463 0.39167 0.0
C825 C 0.03476 0.52915 0.40735 0.0
C826 C 0.08239 0.51856 0.33851 0.0
C827 C 0.07483 0.50371 0.32576 0.0
C828 C 0.07095 0.52601 0.35358 0.0
C829 C 0.05164 0.51907 0.35578 0.0
C830 C 0.04389 0.50473 0.3426 0.0
C831 C 0.05543 0.49699 0.32787 0.0
H832 H 0.79074 0.72723 0.87451 0.0
H833 H 0.8273 0.74633 0.92406 0.0
H834 H 0.78241 0.69721 0.89128 0.0
H835 H 0.81955 0.71574 0.94058 0.0
H836 H 0.7847 0.66679 0.97145 0.0
H837 H 0.79236 0.69792 0.95592 0.0
H838 H 0.79847 0.66748 0.90037 0.0
H839 H 0.79048 0.63661 0.91567 0.0
C840 C 0.79694 0.72507 0.88905 0.0
C841 C 0.80964 0.73923 0.89797 0.0
C842 C 0.79234 0.70773 0.89856 0.0
C843 C 0.8004 0.70402 0.91722 0.0
C844 C 0.81299 0.71823 0.92627 0.0
C845 C 0.8176 0.73564 0.91672 0.0
C846 C 0.78764 0.66677 0.95592 0.0
C847 C 0.78688 0.64921 0.9448 0.0
C848 C 0.79214 0.68459 0.94705 0.0
C849 C 0.79594 0.68519 0.92689 0.0
C850 C 0.7953 0.66759 0.91586 0.0
C851 C 0.79081 0.64985 0.92468 0.0
H852 H 0.99063 0.98048 0.34787 0.0
H853 H 0.95978 0.01883 0.38698 0.0
H854 H 0.9651 0.9844 0.32268 0.0
H855 H 0.93429 0.02264 0.36189 0.0
H856 H 0.88134 0.00208 0.3245 0.0
H857 H 0.90871 0.00065 0.34762 0.0
H858 H 0.94907 0.00838 0.30045 0.0
H859 H 0.92144 0.00964 0.27699 0.0
C860 C 0.97857 0.98999 0.35099 0.0
C861 C 0.97713 0.99918 0.36952 0.0
C862 C 0.96395 0.99223 0.33655 0.0
C863 C 0.94758 0.00366 0.34037 0.0
C864 C 0.94653 0.01342 0.35864 0.0
C865 C 0.96112 0.01121 0.37302 0.0
C866 C 0.89601 0.0035 0.31895 0.0
C867 C 0.89916 0.006 0.29884 0.0
C868 C 0.91173 0.00282 0.33228 0.0
C869 C 0.93106 0.00457 0.3259 0.0
C870 C 0.93432 0.00691 0.30578 0.0
C871 C 0.91851 0.00771 0.29237 0.0
H872 H 0.27898 0.19385 0.64908 0.0
H873 H 0.23046 0.21453 0.61408 0.0
H874 H 0.28807 0.17225 0.62206 0.0
H875 H 0.23947 0.1928 0.58716 0.0
H876 H 0.25062 0.13842 0.54943 0.0
H877 H 0.24099 0.15794 0.57782 0.0
H878 H 0.30144 0.17511 0.58915 0.0
H879 H 0.31112 0.15544 0.56097 0.0
C880 C 0.2703 0.19387 0.6356 0.0
C881 C 0.25402 0.206 0.63376 0.0
C882 C 0.2755 0.18145 0.62013 0.0
C883 C 0.26451 0.18081 0.60245 0.0
C884 C 0.24808 0.19273 0.60068 0.0
C885 C 0.24291 0.20519 0.61614 0.0
C886 C 0.26188 0.14624 0.55806 0.0
C887 C 0.28165 0.14539 0.55289 0.0
C888 C 0.25634 0.15753 0.57425 0.0
C889 C 0.27043 0.16814 0.58571 0.0
C890 C 0.29023 0.16696 0.58076 0.0
C891 C 0.29577 0.15575 0.56453 0.0
H892 H 0.44934 0.5027 0.58891 0.0
H893 H 0.48318 0.54307 0.62633 0.0
H894 H 0.42546 0.49874 0.61467 0.0
H895 H 0.45899 0.5396 0.65185 0.0
H896 H 0.42231 0.51335 0.70054 0.0
H897 H 0.4466 0.51583 0.67501 0.0
H898 H 0.40028 0.51739 0.63098 0.0
H899 H 0.37598 0.51462 0.65646 0.0
C900 C 0.45173 0.51068 0.60266 0.0
C901 C 0.46821 0.5232 0.60553 0.0
C902 C 0.43792 0.50857 0.61736 0.0
C903 C 0.44026 0.51888 0.63534 0.0
C904 C 0.45681 0.53129 0.63826 0.0
C905 C 0.47058 0.53345 0.62354 0.0
C906 C 0.41729 0.51415 0.68542 0.0
C907 C 0.39716 0.5138 0.68059 0.0
C908 C 0.43123 0.5157 0.67077 0.0
C909 C 0.42542 0.51686 0.65092 0.0
C910 C 0.40529 0.5163 0.64608 0.0
C911 C 0.39134 0.51482 0.66073 0.0
H912 H 0.77071 0.24733 0.62251 0.0
H913 H 0.74725 0.29544 0.65588 0.0
H914 H 0.76937 0.26675 0.59307 0.0
H915 H 0.74654 0.31524 0.62631 0.0
H916 H 0.78887 0.31315 0.55142 0.0
H917 H 0.78767 0.29515 0.58161 0.0
H918 H 0.73045 0.31781 0.5929 0.0
H919 H 0.7317 0.33628 0.56241 0.0
C920 C 0.76509 0.262 0.62355 0.0
C921 C 0.7591 0.2698 0.6416 0.0
C922 C 0.76454 0.27324 0.60669 0.0
C923 C 0.75803 0.29262 0.60737 0.0
C924 C 0.75157 0.30033 0.62529 0.0
C925 C 0.75217 0.28906 0.64225 0.0
C926 C 0.77599 0.31442 0.56027 0.0
C927 C 0.76029 0.32608 0.55434 0.0
C928 C 0.77528 0.30396 0.57759 0.0
C929 C 0.75885 0.30479 0.58952 0.0
C930 C 0.74333 0.31689 0.584 0.0
C931 C 0.74402 0.32742 0.56653 0.0
H932 H 0.52205 0.92086 0.66084 0.0
H933 H 0.54519 0.97421 0.63663 0.0
H934 H 0.54151 0.92689 0.69075 0.0
H935 H 0.564 0.98099 0.66701 0.0
H936 H 0.60874 0.97792 0.71813 0.0
H937 H 0.59067 0.97223 0.68714 0.0
H938 H 0.54255 0.9467 0.71873 0.0
H939 H 0.56103 0.9514 0.74928 0.0
C940 C 0.53123 0.93399 0.66207 0.0
C941 C 0.53211 0.94711 0.64656 0.0
C942 C 0.54228 0.93757 0.67926 0.0
C943 C 0.55419 0.9546 0.68151 0.0
C944 C 0.55521 0.96763 0.66578 0.0
C945 C 0.54439 0.96382 0.64841 0.0
C946 C 0.59427 0.97114 0.71836 0.0
C947 C 0.58637 0.96492 0.73607 0.0
C948 C 0.58385 0.96795 0.70062 0.0
C949 C 0.56518 0.95875 0.70031 0.0
C950 C 0.55709 0.95324 0.71822 0.0
C951 C 0.56762 0.95609 0.73581 0.0
H952 H 0.85971 0.20321 0.80411 0.0
H953 H 0.87548 0.24806 0.76322 0.0
H954 H 0.8904 0.20965 0.82253 0.0
H955 H 0.9061 0.2543 0.78132 0.0
H956 H 0.94735 0.27716 0.82862 0.0
H957 H 0.91653 0.26887 0.81198 0.0
H958 H 0.9261 0.20744 0.82162 0.0
H959 H 0.95708 0.21588 0.83893 0.0
C960 C 0.86981 0.21431 0.79896 0.0
C961 C 0.86506 0.22529 0.78234 0.0
C962 C 0.88741 0.21797 0.80948 0.0
C963 C 0.90064 0.23266 0.80356 0.0
C964 C 0.89605 0.24323 0.78662 0.0
C965 C 0.87849 0.23964 0.7762 0.0
C966 C 0.94293 0.26186 0.8273 0.0
C967 C 0.95482 0.24716 0.83496 0.0
C968 C 0.92525 0.25709 0.81761 0.0
C969 C 0.91896 0.23746 0.81511 0.0
C970 C 0.93049 0.22272 0.82332 0.0
C971 C 0.94826 0.22754 0.8332 0.0
H972 H 0.51535 0.8763 0.47334 0.0
H973 H 0.47467 0.83335 0.49572 0.0
H974 H 0.52123 0.85487 0.44529 0.0
H975 H 0.48009 0.81213 0.46717 0.0
H976 H 0.50796 0.77253 0.41995 0.0
H977 H 0.50489 0.79196 0.45026 0.0
H978 H 0.50162 0.84463 0.4164 0.0
H979 H 0.50489 0.82549 0.3864 0.0
C980 C 0.50783 0.86218 0.47241 0.0
C981 C 0.49449 0.85658 0.48677 0.0
C982 C 0.51103 0.84999 0.4562 0.0
C983 C 0.50099 0.83188 0.45391 0.0
C984 C 0.48812 0.82595 0.46856 0.0
C985 C 0.48487 0.8382 0.4848 0.0
C986 C 0.50666 0.78826 0.41902 0.0
C987 C 0.50671 0.79744 0.40073 0.0
C988 C 0.50481 0.79936 0.43636 0.0
C989 C 0.50314 0.81984 0.43573 0.0
C990 C 0.50322 0.82893 0.41744 0.0
C991 C 0.50496 0.8179 0.4002 0.0
H992 H 0.12887 0.27487 0.7548 0.0
H993 H 0.15893 0.23527 0.793 0.0
H994 H 0.09959 0.27151 0.77399 0.0
H995 H 0.12915 0.23097 0.81191 0.0
H996 H 0.07756 0.24602 0.85291 0.0
H997 H 0.1078 0.24558 0.83432 0.0
H998 H 0.07381 0.25044 0.78041 0.0
H999 H 0.04408 0.25219 0.79916 0.0
C1000 C 0.12907 0.26519 0.7672 0.0
C1001 C 0.1461 0.25524 0.77233 0.0
C1002 C 0.1122 0.26309 0.77817 0.0
C1003 C 0.11174 0.25065 0.79441 0.0
C1004 C 0.12891 0.24077 0.79963 0.0
C1005 C 0.14596 0.24316 0.78878 0.0
C1006 C 0.07667 0.24665 0.83706 0.0
C1007 C 0.0586 0.24929 0.82742 0.0
C1008 C 0.09398 0.2464 0.82636 0.0
C1009 C 0.09341 0.24845 0.80581 0.0
C1010 C 0.07502 0.24957 0.79622 0.0
C1011 C 0.0579 0.25031 0.80692 0.0
H1012 H 0.50126 0.6292 0.47863 0.0
H1013 H 0.54751 0.60855 0.44195 0.0
H1014 H 0.49608 0.65637 0.45675 0.0
H1015 H 0.54159 0.63517 0.41944 0.0
H1016 H 0.53958 0.69718 0.39456 0.0
H1017 H 0.54542 0.66985 0.41628 0.0
H1018 H 0.48321 0.66362 0.42512 0.0
H1019 H 0.47747 0.69127 0.40392 0.0
C1020 C 0.51037 0.63044 0.46592 0.0
C1021 C 0.52486 0.61663 0.46216 0.0
C1022 C 0.50719 0.64591 0.45317 0.0
C1023 C 0.51834 0.64799 0.43621 0.0
C1024 C 0.53284 0.63419 0.43244 0.0
C1025 C 0.53607 0.61874 0.44524 0.0
C1026 C 0.52715 0.68994 0.4011 0.0
C1027 C 0.50806 0.69649 0.39754 0.0
C1028 C 0.53049 0.67417 0.4135 0.0
C1029 C 0.51481 0.6645 0.42258 0.0
C1030 C 0.4957 0.6709 0.41873 0.0
C1031 C 0.49238 0.68671 0.40643 0.0
H1032 H 0.89405 0.84331 0.75277 0.0
H1033 H 0.91833 0.78863 0.77137 0.0
H1034 H 0.91045 0.84008 0.72163 0.0
H1035 H 0.93419 0.78505 0.73983 0.0
H1036 H 0.97121 0.79181 0.68516 0.0
H1037 H 0.9594 0.79856 0.71811 0.0
H1038 H 0.90483 0.81834 0.69315 0.0
H1039 H 0.91662 0.81189 0.66037 0.0
C1040 C 0.90316 0.83076 0.75037 0.0
C1041 C 0.9048 0.81618 0.76455 0.0
C1042 C 0.91236 0.82879 0.7324 0.0
C1043 C 0.92342 0.8122 0.72816 0.0
C1044 C 0.92583 0.79805 0.74267 0.0
C1045 C 0.91659 0.8 0.76067 0.0
C1046 C 0.95675 0.79773 0.68671 0.0
C1047 C 0.94485 0.80127 0.67012 0.0
C1048 C 0.94996 0.80151 0.70559 0.0
C1049 C 0.9312 0.80903 0.70823 0.0
C1050 C 0.91947 0.81284 0.69162 0.0
C1051 C 0.92619 0.80899 0.67281 0.0
H1052 H 0.05024 0.89535 0.52394 0.0
H1053 H 0.98972 0.90599 0.50859 0.0
H1054 H 0.03984 0.86913 0.54531 0.0
H1055 H 0.97938 0.8812 0.53114 0.0
H1056 H 0.96495 0.82317 0.55633 0.0
H1057 H 0.9774 0.8476 0.53424 0.0
H1058 H 0.02511 0.86153 0.57525 0.0
H1059 H 0.01308 0.83604 0.59694 0.0
C1060 C 0.03473 0.89219 0.52512 0.0
C1061 C 0.02087 0.90288 0.51441 0.0
C1062 C 0.02874 0.87731 0.53765 0.0
C1063 C 0.00874 0.87288 0.53997 0.0
C1064 C 0.99493 0.88381 0.5295 0.0
C1065 C 0.00089 0.8984 0.51677 0.0
C1066 C 0.97814 0.83141 0.56062 0.0
C1067 C 0.98795 0.82782 0.57845 0.0
C1068 C 0.98523 0.84557 0.548 0.0
C1069 C 0.0021 0.85689 0.55304 0.0
C1070 C 0.01217 0.85303 0.57076 0.0
C1071 C 0.00524 0.8385 0.58327 0.0
H1072 H 0.11396 0.72687 0.70606 0.0
H1073 H 0.1435 0.77826 0.68411 0.0
H1074 H 0.08522 0.7338 0.68584 0.0
H1075 H 0.11442 0.78557 0.66434 0.0
H1076 H 0.06543 0.78077 0.61676 0.0
H1077 H 0.09496 0.7732 0.63574 0.0
H1078 H 0.0595 0.75787 0.68501 0.0
H1079 H 0.03007 0.7651 0.66604 0.0
C1080 C 0.11436 0.73959 0.69683 0.0
C1081 C 0.13105 0.75199 0.69669 0.0
C1082 C 0.09779 0.74369 0.68541 0.0
C1083 C 0.09748 0.76029 0.67354 0.0
C1084 C 0.11424 0.77259 0.67321 0.0
C1085 C 0.13082 0.76851 0.68469 0.0
C1086 C 0.06394 0.77575 0.63163 0.0
C1087 C 0.04537 0.7735 0.63986 0.0
C1088 C 0.08087 0.77152 0.64254 0.0
C1089 C 0.07958 0.76489 0.66187 0.0
C1090 C 0.061 0.76267 0.67006 0.0
C1091 C 0.04412 0.76693 0.6592 0.0
H1092 H 0.96817 0.62708 0.56316 0.0
H1093 H 0.93513 0.65672 0.51837 0.0
H1094 H 0.9703 0.65743 0.58283 0.0
H1095 H 0.93773 0.68703 0.53767 0.0
H1096 H 0.92784 0.73244 0.58469 0.0
H1097 H 0.92523 0.70068 0.5681 0.0
H1098 H 0.98609 0.69053 0.58192 0.0
H1099 H 0.98871 0.72239 0.59889 0.0
C1100 C 0.96131 0.64005 0.55756 0.0
C1101 C 0.95148 0.63952 0.53921 0.0
C1102 C 0.96269 0.65745 0.56873 0.0
C1103 C 0.95414 0.67461 0.56183 0.0
C1104 C 0.94426 0.67401 0.54352 0.0
C1105 C 0.94296 0.65669 0.53235 0.0
C1106 C 0.94068 0.72343 0.58435 0.0
C1107 C 0.95855 0.73006 0.59298 0.0
C1108 C 0.93918 0.70524 0.57474 0.0
C1109 C 0.95551 0.6932 0.57348 0.0
C1110 C 0.97323 0.69945 0.58272 0.0
C1111 C 0.97474 0.71773 0.59238 0.0
H1112 H 0.8123 0.85528 0.22326 0.0
H1113 H 0.76067 0.88158 0.19832 0.0
H1114 H 0.82777 0.8877 0.22736 0.0
H1115 H 0.77598 0.91395 0.20312 0.0
H1116 H 0.79896 0.96391 0.24657 0.0
H1117 H 0.78503 0.93255 0.23508 0.0
H1118 H 0.8397 0.91851 0.20826 0.0
H1119 H 0.8537 0.95035 0.21961 0.0
C1120 C 0.80434 0.86788 0.21834 0.0
C1121 C 0.78509 0.86574 0.21067 0.0
C1122 C 0.81324 0.88646 0.22071 0.0
C1123 C 0.80303 0.90332 0.21565 0.0
C1124 C 0.78411 0.90119 0.20734 0.0
C1125 C 0.77529 0.88264 0.20475 0.0
C1126 C 0.80796 0.95428 0.23799 0.0
C1127 C 0.82744 0.95954 0.23403 0.0
C1128 C 0.79993 0.93635 0.23132 0.0
C1129 C 0.81128 0.92309 0.2208 0.0
C1130 C 0.83066 0.92847 0.2164 0.0
C1131 C 0.83862 0.94669 0.22277 0.0
H1132 H 0.79507 0.16425 0.23817 0.0
H1133 H 0.74531 0.12936 0.25604 0.0
H1134 H 0.81521 0.13496 0.23846 0.0
H1135 H 0.7651 0.10032 0.25564 0.0
H1136 H 0.83811 0.07082 0.22558 0.0
H1137 H 0.81956 0.1011 0.22217 0.0
H1138 H 0.792 0.0901 0.27732 0.0
H1139 H 0.81003 0.06029 0.28068 0.0
C1140 C 0.78839 0.15036 0.24201 0.0
C1141 C 0.76856 0.14921 0.24715 0.0
C1142 C 0.79988 0.13358 0.24197 0.0
C1143 C 0.79179 0.11537 0.24723 0.0
C1144 C 0.77185 0.11417 0.25176 0.0
C1145 C 0.76042 0.13083 0.25178 0.0
C1146 C 0.82814 0.07497 0.23697 0.0
C1147 C 0.82542 0.06296 0.25327 0.0
C1148 C 0.81757 0.0923 0.23504 0.0
C1149 C 0.80408 0.0978 0.24933 0.0
C1150 C 0.80191 0.08607 0.26583 0.0
C1151 C 0.81238 0.06895 0.26777 0.0
H1152 H 0.35088 0.99373 0.00436 0.0
H1153 H 0.37322 0.96539 0.95258 0.0
H1154 H 0.32658 0.96723 0.00721 0.0
H1155 H 0.34849 0.93946 0.95496 0.0
H1156 H 0.32251 0.88433 0.98173 0.0
H1157 H 0.34393 0.91253 0.9771 0.0
H1158 H 0.29706 0.9511 0.99203 0.0
H1159 H 0.27546 0.9226 0.99703 0.0
C1160 C 0.3505 0.98195 0.99349 0.0
C1161 C 0.36412 0.98163 0.97833 0.0
C1162 C 0.33643 0.96689 0.995 0.0
C1163 C 0.3357 0.95115 0.98141 0.0
C1164 C 0.34884 0.95122 0.96585 0.0
C1165 C 0.36289 0.96624 0.96435 0.0
C1166 C 0.31666 0.89878 0.984 0.0
C1167 C 0.29722 0.90117 0.98977 0.0
C1168 C 0.32895 0.915 0.98119 0.0
C1169 C 0.32218 0.93408 0.98405 0.0
C1170 C 0.30274 0.93656 0.98981 0.0
C1171 C 0.29035 0.92025 0.9926 0.0
H1172 H 0.22947 0.39234 0.36011 0.0
H1173 H 0.25663 0.40848 0.30596 0.0
H1174 H 0.20101 0.41149 0.35129 0.0
H1175 H 0.22826 0.42784 0.29733 0.0
H1176 H 0.17957 0.47336 0.29623 0.0
H1177 H 0.20936 0.45725 0.30722 0.0
H1178 H 0.17466 0.40766 0.32578 0.0
H1179 H 0.14498 0.42367 0.31498 0.0
C1180 C 0.22941 0.40002 0.34636 0.0
C1181 C 0.24528 0.39873 0.33368 0.0
C1182 C 0.21311 0.411 0.34133 0.0
C1183 C 0.21235 0.42104 0.32355 0.0
C1184 C 0.22851 0.42041 0.31121 0.0
C1185 C 0.24478 0.40934 0.3162 0.0
C1186 C 0.17831 0.45905 0.30272 0.0
C1187 C 0.15989 0.44979 0.30469 0.0
C1188 C 0.19537 0.44981 0.30894 0.0
C1189 C 0.19433 0.43123 0.31742 0.0
C1190 C 0.17591 0.42209 0.31956 0.0
C1191 C 0.15891 0.43123 0.31322 0.0
H1192 H 0.13349 0.04405 0.4856 0.0
H1193 H 0.15077 0.0224 0.4287 0.0
H1194 H 0.16513 0.06032 0.4902 0.0
H1195 H 0.18144 0.04048 0.43236 0.0
H1196 H 0.2432 0.05595 0.45196 0.0
H1197 H 0.21138 0.03985 0.44781 0.0
H1198 H 0.18559 0.08606 0.48226 0.0
H1199 H 0.21793 0.10135 0.4875 0.0
C1200 C 0.14394 0.04278 0.47399 0.0
C1201 C 0.13945 0.03163 0.45684 0.0
C1202 C 0.16206 0.05251 0.47648 0.0
C1203 C 0.17607 0.05177 0.46171 0.0
C1204 C 0.17133 0.04111 0.44432 0.0
C1205 C 0.15342 0.03099 0.44203 0.0
C1206 C 0.23071 0.06266 0.45862 0.0
C1207 C 0.23302 0.0799 0.47003 0.0
C1208 C 0.21235 0.05351 0.45612 0.0
C1209 C 0.19568 0.06165 0.46454 0.0
C1210 C 0.19804 0.07909 0.47581 0.0
C1211 C 0.21655 0.08798 0.47872 0.0
H1212 H 0.68809 0.1353 0.72405 0.0
H1213 H 0.72707 0.11809 0.77107 0.0
H1214 H 0.66669 0.10712 0.73026 0.0
H1215 H 0.70576 0.08992 0.77719 0.0
H1216 H 0.67521 0.03036 0.76812 0.0
H1217 H 0.69585 0.05884 0.7614 0.0
H1218 H 0.64446 0.09403 0.75485 0.0
H1219 H 0.62371 0.0654 0.76129 0.0
C1220 C 0.692 0.12563 0.73583 0.0
C1221 C 0.70936 0.12893 0.747 0.0
C1222 C 0.67974 0.10946 0.73938 0.0
C1223 C 0.68457 0.0962 0.75415 0.0
C1224 C 0.7018 0.09964 0.76546 0.0
C1225 C 0.71403 0.11579 0.76194 0.0
C1226 C 0.66827 0.04414 0.7652 0.0
C1227 C 0.64779 0.04559 0.76529 0.0
C1228 C 0.68013 0.06051 0.76147 0.0
C1229 C 0.67182 0.07874 0.7577 0.0
C1230 C 0.65132 0.08016 0.75753 0.0
C1231 C 0.63943 0.06377 0.76132 0.0
H1232 H 0.40069 0.01546 0.56405 0.0
H1233 H 0.38332 0.98002 0.51324 0.0
H1234 H 0.37737 0.04038 0.55416 0.0
H1235 H 0.3601 0.00471 0.50346 0.0
H1236 H 0.31959 0.07225 0.53474 0.0
H1237 H 0.34156 0.04764 0.54824 0.0
H1238 H 0.36478 0.03771 0.49064 0.0
H1239 H 0.343 0.06177 0.47723 0.0
C1240 C 0.39167 0.01286 0.55097 0.0
C1241 C 0.39404 0.99594 0.53924 0.0
C1242 C 0.37833 0.02711 0.54532 0.0
C1243 C 0.36716 0.02465 0.52786 0.0
C1244 C 0.36886 0.00725 0.51673 0.0
C1245 C 0.38215 0.9931 0.52233 0.0
C1246 C 0.32952 0.06489 0.52505 0.0
C1247 C 0.32936 0.0688 0.50487 0.0
C1248 C 0.34208 0.05084 0.53277 0.0
C1249 C 0.35461 0.04048 0.52041 0.0
C1250 C 0.35494 0.04504 0.50045 0.0
C1251 C 0.34249 0.05896 0.49279 0.0
H1252 H 0.60233 0.4518 0.49035 0.0
H1253 H 0.63442 0.47957 0.53902 0.0
H1254 H 0.62919 0.42949 0.48544 0.0
H1255 H 0.66114 0.457 0.53425 0.0
H1256 H 0.69668 0.40039 0.53109 0.0
H1257 H 0.66916 0.42191 0.53677 0.0
H1258 H 0.66321 0.43088 0.47445 0.0
H1259 H 0.69052 0.40934 0.46875 0.0
C1260 C 0.61514 0.45326 0.49994 0.0
C1261 C 0.61616 0.46761 0.51504 0.0
C1262 C 0.63054 0.44041 0.49714 0.0
C1263 C 0.64735 0.44147 0.50942 0.0
C1264 C 0.6483 0.45562 0.52468 0.0
C1265 C 0.63294 0.46855 0.52742 0.0
C1266 C 0.68946 0.40691 0.5186 0.0
C1267 C 0.69583 0.40312 0.49946 0.0
C1268 C 0.67376 0.41933 0.52186 0.0
C1269 C 0.66396 0.42811 0.50606 0.0
C1270 C 0.67026 0.42418 0.48693 0.0
C1271 C 0.68601 0.4119 0.48369 0.0
H1272 H 0.70077 0.25634 0.37495 0.0
H1273 H 0.72321 0.30872 0.34789 0.0
H1274 H 0.70545 0.272 0.40718 0.0
H1275 H 0.72722 0.32451 0.38016 0.0
H1276 H 0.71986 0.35083 0.44237 0.0
H1277 H 0.7084 0.33605 0.41089 0.0
H1278 H 0.73687 0.28231 0.42565 0.0
H1279 H 0.74844 0.29702 0.45669 0.0
C1280 C 0.70664 0.27119 0.37581 0.0
C1281 C 0.71187 0.28112 0.35874 0.0
C1282 C 0.70915 0.2802 0.39429 0.0
C1283 C 0.71672 0.29945 0.39617 0.0
C1284 C 0.72113 0.30973 0.37913 0.0
C1285 C 0.71882 0.30065 0.36063 0.0
C1286 C 0.72333 0.33577 0.43897 0.0
C1287 C 0.73509 0.32509 0.45191 0.0
C1288 C 0.71691 0.32737 0.42095 0.0
C1289 C 0.72178 0.30805 0.41584 0.0
C1290 C 0.73274 0.29716 0.42924 0.0
C1291 C 0.73944 0.30562 0.44698 0.0
H1292 H 0.53042 0.99883 0.91715 0.0
H1293 H 0.52142 0.05433 0.88919 0.0
H1294 H 0.55476 0.99086 0.89347 0.0
H1295 H 0.54752 0.04731 0.86682 0.0
H1296 H 0.57674 0.01724 0.81433 0.0
H1297 H 0.555 0.02941 0.8394 0.0
H1298 H 0.58568 0.99538 0.88281 0.0
H1299 H 0.60607 0.98207 0.85722 0.0
C1300 C 0.53366 0.00945 0.90603 0.0
C1301 C 0.52359 0.02715 0.90508 0.0
C1302 C 0.5481 0.00506 0.89262 0.0
C1303 C 0.5534 0.01845 0.87812 0.0
C1304 C 0.54374 0.03643 0.87751 0.0
C1305 C 0.52891 0.04062 0.89064 0.0
C1306 C 0.57895 0.01272 0.82934 0.0
C1307 C 0.59291 0.99871 0.83394 0.0
C1308 C 0.56653 0.0197 0.8438 0.0
C1309 C 0.5682 0.01315 0.86324 0.0
C1310 C 0.58335 1.00026 0.86796 0.0
C1311 C 0.59529 0.99283 0.85339 0.0
H1312 H 0.32971 0.23278 0.39006 0.0
H1313 H 0.30658 0.26435 0.43935 0.0
H1314 H 0.32522 0.20211 0.40694 0.0
H1315 H 0.30328 0.23375 0.45718 0.0
H1316 H 0.27871 0.17313 0.47363 0.0
H1317 H 0.28502 0.20508 0.45935 0.0
H1318 H 0.33591 0.18207 0.431 0.0
H1319 H 0.32851 0.14996 0.44404 0.0
C1320 C 0.32408 0.2331 0.40478 0.0
C1321 C 0.31857 0.25081 0.41349 0.0
C1322 C 0.32162 0.21553 0.4146 0.0
C1323 C 0.314 0.21527 0.43362 0.0
C1324 C 0.30887 0.23321 0.44247 0.0
C1325 C 0.31091 0.25078 0.43239 0.0
C1326 C 0.29127 0.17506 0.46441 0.0
C1327 C 0.30298 0.15911 0.45969 0.0
C1328 C 0.29502 0.19341 0.45629 0.0
C1329 C 0.31087 0.19627 0.4437 0.0
C1330 C 0.32318 0.18041 0.44001 0.0
C1331 C 0.31908 0.162 0.44763 0.0
H1332 H 0.44725 0.49364 0.88795 0.0
H1333 H 0.49188 0.48228 0.84554 0.0
H1334 H 0.42419 0.50007 0.86173 0.0
H1335 H 0.46923 0.49079 0.81924 0.0
H1336 H 0.41689 0.48671 0.77537 0.0
H1337 H 0.44195 0.48061 0.80051 0.0
H1338 H 0.415 0.52257 0.8392 0.0
H1339 H 0.38939 0.52738 0.81464 0.0
C1340 C 0.45224 0.49252 0.87304 0.0
C1341 C 0.47153 0.48723 0.86903 0.0
C1342 C 0.43902 0.49668 0.85789 0.0
C1343 C 0.44477 0.49623 0.8382 0.0
C1344 C 0.46412 0.49113 0.83414 0.0
C1345 C 0.47727 0.48654 0.84933 0.0
C1346 C 0.41651 0.49466 0.78925 0.0
C1347 C 0.40114 0.50732 0.7932 0.0
C1348 C 0.43091 0.49126 0.80366 0.0
C1349 C 0.43044 0.50083 0.82215 0.0
C1350 C 0.41557 0.51435 0.8255 0.0
C1351 C 0.40096 0.51731 0.81134 0.0
H1352 H 0.78301 0.69206 0.13931 0.0
H1353 H 0.73224 0.71314 0.10803 0.0
H1354 H 0.79009 0.67065 0.11142 0.0
H1355 H 0.73921 0.69162 0.08031 0.0
H1356 H 0.74622 0.63636 0.04274 0.0
H1357 H 0.73942 0.65657 0.07152 0.0
H1358 H 0.80069 0.67301 0.07719 0.0
H1359 H 0.80758 0.65261 0.04852 0.0
C1360 C 0.77342 0.69223 0.12646 0.0
C1361 C 0.75703 0.70432 0.12595 0.0
C1362 C 0.77747 0.67994 0.11049 0.0
C1363 C 0.76518 0.67939 0.09367 0.0
C1364 C 0.74878 0.69144 0.09317 0.0
C1365 C 0.74478 0.70378 0.10909 0.0
C1366 C 0.75827 0.6442 0.05016 0.0
C1367 C 0.77745 0.6429 0.04329 0.0
C1368 C 0.75435 0.65588 0.0666 0.0
C1369 C 0.7695 0.66647 0.07659 0.0
C1370 C 0.78872 0.6649 0.06992 0.0
C1371 C 0.79264 0.65328 0.05343 0.0
H1372 H 0.94665 0.00182 0.09691 0.0
H1373 H 0.97891 0.04647 0.13065 0.0
H1374 H 0.92277 0.99951 0.12277 0.0
H1375 H 0.95455 0.04476 0.15614 0.0
H1376 H 0.91861 0.02141 0.2071 0.0
H1377 H 0.94283 0.02366 0.1815 0.0
H1378 H 0.89676 0.0176 0.13727 0.0
H1379 H 0.87259 0.01491 0.16284 0.0
C1380 C 0.9487 0.01112 0.10986 0.0
C1381 C 0.96478 0.02431 0.11165 0.0
C1382 C 0.93483 0.00998 0.12461 0.0
C1383 C 0.93664 0.02199 0.14157 0.0
C1384 C 0.95275 0.03514 0.14339 0.0
C1385 C 0.96662 0.03629 0.12864 0.0
C1386 C 0.91362 0.02059 0.19191 0.0
C1387 C 0.89362 0.01794 0.18706 0.0
C1388 C 0.92753 0.02199 0.17721 0.0
C1389 C 0.9218 0.02078 0.15727 0.0
C1390 C 0.90176 0.01829 0.15244 0.0
C1391 C 0.88786 0.01687 0.16714 0.0
H1392 H 0.26471 0.75232 0.12445 0.0
H1393 H 0.24363 0.80215 0.15702 0.0
H1394 H 0.26378 0.77108 0.09458 0.0
H1395 H 0.24325 0.82124 0.1269 0.0
H1396 H 0.22909 0.84024 0.06131 0.0
H1397 H 0.22683 0.82298 0.09254 0.0
H1398 H 0.28394 0.79907 0.08358 0.0
H1399 H 0.2862 0.81589 0.05282 0.0
C1400 C 0.25965 0.76723 0.12522 0.0
C1401 C 0.25425 0.77571 0.14318 0.0
C1402 C 0.25932 0.77806 0.1081 0.0
C1403 C 0.25362 0.79771 0.10842 0.0
C1404 C 0.24765 0.80612 0.12621 0.0
C1405 C 0.24806 0.79524 0.14346 0.0
C1406 C 0.24117 0.83139 0.06613 0.0
C1407 C 0.25771 0.82929 0.05441 0.0
C1408 C 0.2399 0.82156 0.084 0.0
C1409 C 0.25508 0.80942 0.09033 0.0
C1410 C 0.2718 0.80794 0.07891 0.0
C1411 C 0.27311 0.8177 0.06125 0.0
H1412 H 0.06509 0.44674 0.1268 0.0
H1413 H 0.035 0.49981 0.14152 0.0
H1414 H 0.08363 0.4494 0.15776 0.0
H1415 H 0.05328 0.50223 0.17271 0.0
H1416 H 0.08555 0.44499 0.2256 0.0
H1417 H 0.07296 0.44502 0.192 0.0
H1418 H 0.08676 0.50685 0.18863 0.0
H1419 H 0.09942 0.5069 0.22252 0.0
C1420 C 0.06269 0.45917 0.13648 0.0
C1421 C 0.04848 0.47299 0.13179 0.0
C1422 C 0.07319 0.46059 0.15428 0.0
C1423 C 0.06978 0.47592 0.16772 0.0
C1424 C 0.0563 0.49031 0.1626 0.0
C1425 C 0.04571 0.48882 0.14484 0.0
C1426 C 0.08607 0.45859 0.21769 0.0
C1427 C 0.0934 0.47597 0.22678 0.0
C1428 C 0.07899 0.45856 0.19836 0.0
C1429 C 0.07891 0.47593 0.18766 0.0
C1430 C 0.08656 0.49328 0.19658 0.0
C1431 C 0.09387 0.49327 0.21593 0.0
H1432 H 0.36558 0.69946 0.29173 0.0
H1433 H 0.3718 0.75626 0.26538 0.0
H1434 H 0.39848 0.70322 0.30606 0.0
H1435 H 0.40382 0.76062 0.28084 0.0
H1436 H 0.46731 0.75815 0.29389 0.0
H1437 H 0.43581 0.75005 0.27835 0.0
H1438 H 0.41811 0.72004 0.33054 0.0
H1439 H 0.45035 0.72739 0.34571 0.0
C1440 C 0.3739 0.71276 0.28899 0.0
C1441 C 0.36592 0.72753 0.27729 0.0
C1442 C 0.39271 0.71502 0.29745 0.0
C1443 C 0.40399 0.73216 0.29454 0.0
C1444 C 0.39585 0.747 0.2831 0.0
C1445 C 0.37721 0.74466 0.27449 0.0
C1446 C 0.45678 0.74959 0.30195 0.0
C1447 C 0.4612 0.74354 0.32106 0.0
C1448 C 0.4386 0.7451 0.29312 0.0
C1449 C 0.42412 0.7348 0.30332 0.0
C1450 C 0.42888 0.72794 0.32218 0.0
C1451 C 0.44733 0.73216 0.33091 0.0
H1452 H 0.03257 0.36562 0.9904 0.0
H1453 H 0.96996 0.3608 0.97969 0.0
H1454 H 0.03742 0.34072 0.96495 0.0
H1455 H 0.975 0.33508 0.95525 0.0
H1456 H 0.99426 0.27698 0.92464 0.0
H1457 H 0.99151 0.29878 0.95344 0.0
H1458 H 0.02794 0.34216 0.92588 0.0
H1459 H 0.03025 0.32074 0.89693 0.0
C1460 C 0.01982 0.35928 0.98278 0.0
C1461 C 0.00085 0.3655 0.98712 0.0
C1462 C 0.02265 0.34487 0.96835 0.0
C1463 C 0.00658 0.336 0.95827 0.0
C1464 C 0.98762 0.34155 0.96304 0.0
C1465 C 0.98477 0.35626 0.97715 0.0
C1466 C 0.00188 0.29107 0.92487 0.0
C1467 C 0.01241 0.29722 0.90855 0.0
C1468 C 1.00023 0.30352 0.94127 0.0
C1469 C 0.00954 0.32208 0.94179 0.0
C1470 C 0.02075 0.32786 0.92584 0.0
C1471 C 0.02199 0.31565 0.90929 0.0
H1472 H 0.63284 0.76475 0.24314 0.0
H1473 H 0.6664 0.74585 0.29349 0.0
H1474 H 0.60335 0.7643 0.26235 0.0
H1475 H 0.63671 0.74597 0.313 0.0
H1476 H 0.57249 0.73228 0.33433 0.0
H1477 H 0.60293 0.72943 0.31608 0.0
H1478 H 0.59236 0.78522 0.28956 0.0
H1479 H 0.56233 0.78805 0.30738 0.0
C1480 C 0.63391 0.76027 0.25826 0.0
C1481 C 0.65203 0.75534 0.26675 0.0
C1482 C 0.61701 0.76022 0.26935 0.0
C1483 C 0.61773 0.75527 0.28925 0.0
C1484 C 0.63569 0.74978 0.29768 0.0
C1485 C 0.65271 0.74991 0.28656 0.0
C1486 C 0.57674 0.74393 0.32464 0.0
C1487 C 0.56484 0.7603 0.32223 0.0
C1488 C 0.59418 0.74232 0.31426 0.0
C1489 C 0.59989 0.75699 0.30119 0.0
C1490 C 0.58819 0.77348 0.29919 0.0
C1491 C 0.57096 0.77512 0.30954 0.0
H1492 H 0.04074 0.13107 0.98204 0.0
H1493 H 0.00993 0.09153 0.94127 0.0
H1494 H 0.03777 0.15743 0.95865 0.0
H1495 H 0.00699 0.11791 0.91785 0.0
H1496 H 0.02362 0.16464 0.87315 0.0
H1497 H 0.02651 0.13812 0.89644 0.0
H1498 H 0.01351 0.17824 0.94385 0.0
H1499 H 0.01097 0.20481 0.92065 0.0
C1500 C 0.03318 0.12803 0.96816 0.0
C1501 C 0.02556 0.10914 0.96359 0.0
C1502 C 0.03147 0.14316 0.95472 0.0
C1503 C 0.02212 0.13984 0.93634 0.0
C1504 C 0.01455 0.12094 0.93174 0.0
C1505 C 0.01624 0.1058 0.94519 0.0
C1506 C 0.02136 0.16781 0.88854 0.0
C1507 C 0.0171 0.18689 0.895 0.0
C1508 C 0.02291 0.15257 0.90189 0.0
C1509 C 0.02027 0.15602 0.92205 0.0
C1510 C 0.01592 0.17509 0.92848 0.0
C1511 C 0.01434 0.19032 0.91514 0.0
H1512 H 0.4055 0.324 0.26917 0.0
H1513 H 0.3556 0.2901 0.24654 0.0
H1514 H 0.42319 0.31652 0.23927 0.0
H1515 H 0.37323 0.28255 0.21684 0.0
H1516 H 0.39949 0.29459 0.15775 0.0
H1517 H 0.38376 0.30076 0.18869 0.0
H1518 H 0.43799 0.28991 0.21994 0.0
H1519 H 0.45402 0.28402 0.18871 0.0
C1520 C 0.39841 0.31477 0.25792 0.0
C1521 C 0.37907 0.30784 0.26009 0.0
C1522 C 0.40855 0.31046 0.24082 0.0
C1523 C 0.39953 0.29912 0.22559 0.0
C1524 C 0.38043 0.29169 0.2281 0.0
C1525 C 0.37032 0.29602 0.24511 0.0
C1526 C 0.40814 0.2935 0.17117 0.0
C1527 C 0.42803 0.28875 0.17072 0.0
C1528 C 0.39905 0.29692 0.18895 0.0
C1529 C 0.40956 0.29564 0.20679 0.0
C1530 C 0.42953 0.2911 0.20642 0.0
C1531 C 0.43867 0.28765 0.18854 0.0
H1532 H 0.49415 0.41367 0.03531 0.0
H1533 H 0.53395 0.37182 0.01109 0.0
H1534 H 0.48365 0.38976 0.05914 0.0
H1535 H 0.52352 0.34789 0.03519 0.0
H1536 H 0.50897 0.3154 0.09241 0.0
H1537 H 0.52277 0.34087 0.07158 0.0
H1538 H 0.46438 0.3587 0.05574 0.0
H1539 H 0.45067 0.33358 0.0764 0.0
C1540 C 0.50066 0.39936 0.03506 0.0
C1541 C 0.51467 0.39455 0.02109 0.0
C1542 C 0.49469 0.38569 0.04876 0.0
C1543 C 0.50263 0.3669 0.04891 0.0
C1544 C 0.51725 0.36232 0.03552 0.0
C1545 C 0.5232 0.37601 0.02171 0.0
C1546 C 0.49913 0.32488 0.08458 0.0
C1547 C 0.47873 0.32246 0.08605 0.0
C1548 C 0.50702 0.33936 0.07259 0.0
C1549 C 0.49465 0.35181 0.0621 0.0
C1550 C 0.4743 0.34952 0.06384 0.0
C1551 C 0.46645 0.33501 0.07561 0.0
H1552 H 0.62815 0.22787 0.1789 0.0
H1553 H 0.61102 0.27208 0.22086 0.0
H1554 H 0.59822 0.23298 0.15971 0.0
H1555 H 0.58151 0.27775 0.20128 0.0
H1556 H 0.52052 0.26631 0.174 0.0
H1557 H 0.55065 0.2613 0.19279 0.0
H1558 H 0.58252 0.25686 0.13898 0.0
H1559 H 0.55228 0.26147 0.12013 0.0
C1560 C 0.61802 0.2387 0.18401 0.0
C1561 C 0.62198 0.24952 0.20146 0.0
C1562 C 0.60096 0.24179 0.17289 0.0
C1563 C 0.58743 0.25576 0.17896 0.0
C1564 C 0.59149 0.26671 0.1963 0.0
C1565 C 0.60855 0.26363 0.2074 0.0
C1566 C 0.53395 0.26426 0.16615 0.0
C1567 C 0.53397 0.26428 0.14554 0.0
C1568 C 0.55126 0.26151 0.17694 0.0
C1569 C 0.56904 0.25873 0.1674 0.0
C1570 C 0.56905 0.25873 0.14679 0.0
C1571 C 0.55172 0.26148 0.13598 0.0
H1572 H 0.44418 0.15024 0.01536 0.0
H1573 H 0.46873 0.11928 0.06443 0.0
H1574 H 0.44419 0.18023 0.03512 0.0
H1575 H 0.46826 0.14942 0.08451 0.0
H1576 H 0.42529 0.22381 0.08056 0.0
H1577 H 0.42602 0.19244 0.06331 0.0
H1578 H 0.48425 0.18309 0.08665 0.0
H1579 H 0.4835 0.21464 0.10429 0.0
C1580 C 0.44968 0.14987 0.03036 0.0
C1581 C 0.45651 0.1324 0.03832 0.0
C1582 C 0.44948 0.16701 0.04176 0.0
C1583 C 0.45609 0.16714 0.06141 0.0
C1584 C 0.46315 0.14975 0.06938 0.0
C1585 C 0.46326 0.1325 0.05795 0.0
C1586 C 0.43825 0.21508 0.08216 0.0
C1587 C 0.45443 0.22185 0.09367 0.0
C1588 C 0.43868 0.19712 0.07218 0.0
C1589 C 0.45528 0.18543 0.07342 0.0
C1590 C 0.47122 0.19179 0.08548 0.0
C1591 C 0.47082 0.20987 0.09551 0.0
H1592 H 0.255 0.38378 0.7078 0.0
H1593 H 0.3075 0.35685 0.73001 0.0
H1594 H 0.27111 0.41591 0.71119 0.0
H1595 H 0.32373 0.38899 0.73259 0.0
H1596 H 0.35083 0.44983 0.71859 0.0
H1597 H 0.33497 0.4179 0.71102 0.0
H1598 H 0.28339 0.43627 0.74104 0.0
H1599 H 0.29918 0.4679 0.74879 0.0
C1600 C 0.26994 0.38464 0.71342 0.0
C1601 C 0.27982 0.36761 0.71881 0.0
C1602 C 0.2792 0.40307 0.71521 0.0
C1603 C 0.29866 0.40494 0.72214 0.0
C1604 C 0.30879 0.38796 0.72697 0.0
C1605 C 0.29945 0.36952 0.72545 0.0
C1606 C 0.33602 0.4471 0.72335 0.0
C1607 C 0.32628 0.46135 0.73434 0.0
C1608 C 0.32702 0.42881 0.71913 0.0
C1609 C 0.30797 0.42461 0.72548 0.0
C1610 C 0.29801 0.43913 0.73584 0.0
C1611 C 0.30711 0.45722 0.74035 0.0
H1612 H 0.25466 0.62969 0.7374 0.0
H1613 H 0.3052 0.66906 0.73958 0.0
H1614 H 0.27602 0.60205 0.73317 0.0
H1615 H 0.32653 0.64099 0.73655 0.0
H1616 H 0.34823 0.5807 0.76561 0.0
H1617 H 0.3313 0.61159 0.76139 0.0
H1618 H 0.30273 0.58812 0.70869 0.0
H1619 H 0.32025 0.5573 0.71267 0.0
C1620 C 0.27024 0.63261 0.73663 0.0
C1621 C 0.27807 0.65181 0.73892 0.0
C1622 C 0.28249 0.61667 0.73425 0.0
C1623 C 0.30289 0.61941 0.73447 0.0
C1624 C 0.31082 0.63851 0.73637 0.0
C1625 C 0.29855 0.65455 0.73834 0.0
C1626 C 0.33885 0.58245 0.75277 0.0
C1627 C 0.33563 0.56683 0.73934 0.0
C1628 C 0.32918 0.60007 0.75036 0.0
C1629 C 0.3157 0.60218 0.73475 0.0
C1630 C 0.31308 0.58682 0.72083 0.0
C1631 C 0.32316 0.56931 0.72301 0.0
H1632 H 0.88709 0.45568 0.47815 0.0
H1633 H 0.84678 0.49804 0.50005 0.0
H1634 H 0.8621 0.42997 0.48019 0.0
H1635 H 0.82106 0.47258 0.50099 0.0
H1636 H 0.78524 0.41753 0.5178 0.0
H1637 H 0.80904 0.44471 0.51637 0.0
H1638 H 0.83402 0.41772 0.46506 0.0
H1639 H 0.81119 0.3902 0.46746 0.0
C1640 C 0.87271 0.45945 0.48321 0.0
C1641 C 0.86877 0.47875 0.48888 0.0
C1642 C 0.85827 0.44478 0.48421 0.0
C1643 C 0.83931 0.44913 0.49045 0.0
C1644 C 0.83547 0.46855 0.4963 0.0
C1645 C 0.85013 0.48318 0.49568 0.0
C1646 C 0.79578 0.4176 0.50617 0.0
C1647 C 0.79656 0.40172 0.49287 0.0
C1648 C 0.80941 0.43319 0.50528 0.0
C1649 C 0.82381 0.43336 0.4908 0.0
C1650 C 0.82371 0.41788 0.47687 0.0
C1651 C 0.81046 0.40215 0.47808 0.0
H1652 H 0.74534 0.86814 0.79176 0.0
H1653 H 0.76609 0.91394 0.83206 0.0
H1654 H 0.71692 0.88742 0.78332 0.0
H1655 H 0.73746 0.93331 0.82363 0.0
H1656 H 0.68828 0.96756 0.79229 0.0
H1657 H 0.71943 0.95095 0.79686 0.0
H1658 H 0.68808 0.89579 0.8023 0.0
H1659 H 0.65724 0.91213 0.7976 0.0
C1660 C 0.74383 0.88239 0.79876 0.0
C1661 C 0.75773 0.8894 0.81282 0.0
C1662 C 0.72758 0.89342 0.79392 0.0
C1663 C 0.72481 0.91173 0.80304 0.0
C1664 C 0.73925 0.91928 0.81631 0.0
C1665 C 0.75561 0.9082 0.82115 0.0
C1666 C 0.68809 0.95188 0.79437 0.0
C1667 C 0.67027 0.94117 0.79457 0.0
C1668 C 0.7059 0.94241 0.79706 0.0
C1669 C 0.70619 0.92206 0.7998 0.0
C1670 C 0.68837 0.91143 0.79989 0.0
C1671 C 0.67066 0.92085 0.79733 0.0
H1672 H 0.63719 0.50542 0.98618 0.0
H1673 H 0.61577 0.55393 0.95288 0.0
H1674 H 0.66942 0.52178 0.98944 0.0
H1675 H 0.64794 0.57054 0.95661 0.0
H1676 H 0.70672 0.59692 0.98927 0.0
H1677 H 0.67344 0.58246 0.9896 0.0
H1678 H 0.69309 0.532 0.95726 0.0
H1679 H 0.72602 0.54653 0.95633 0.0
C1680 C 0.6393 0.51975 0.97992 0.0
C1681 C 0.6241 0.52846 0.96926 0.0
C1682 C 0.65768 0.52904 0.98174 0.0
C1683 C 0.66099 0.54737 0.97332 0.0
C1684 C 0.64559 0.55646 0.96334 0.0
C1685 C 0.62732 0.54696 0.96114 0.0
C1686 C 0.70389 0.58273 0.98227 0.0
C1687 C 0.7189 0.57286 0.97271 0.0
C1688 C 0.68492 0.57454 0.98243 0.0
C1689 C 0.6809 0.55615 0.97352 0.0
C1690 C 0.69595 0.54616 0.9643 0.0
C1691 C 0.71472 0.55452 0.96371 0.0
H1692 H 0.22191 0.6146 0.23313 0.0
H1693 H 0.18653 0.65277 0.26821 0.0
H1694 H 0.20024 0.58701 0.24033 0.0
H1695 H 0.16472 0.62512 0.27524 0.0
H1696 H 0.1194 0.57432 0.26557 0.0
H1697 H 0.14071 0.60241 0.25869 0.0
H1698 H 0.19145 0.56698 0.26843 0.0
H1699 H 0.17023 0.53888 0.27508 0.0
C1700 C 0.20961 0.61709 0.24251 0.0
C1701 C 0.20604 0.63591 0.25016 0.0
C1702 C 0.19717 0.60127 0.24662 0.0
C1703 C 0.1808 0.60386 0.25842 0.0
C1704 C 0.17709 0.62269 0.26592 0.0
C1705 C 0.18958 0.63853 0.26186 0.0
C1706 C 0.1351 0.57253 0.26629 0.0
C1707 C 0.14309 0.55433 0.27083 0.0
C1708 C 0.1473 0.58866 0.26243 0.0
C1709 C 0.16777 0.5869 0.26295 0.0
C1710 C 0.17574 0.56874 0.26765 0.0
C1711 C 0.16356 0.55266 0.27157 0.0
H1712 H 0.88566 0.48414 0.00762 0.0
H1713 H 0.90605 0.52995 0.04805 0.0
H1714 H 0.85811 0.50401 0.99785 0.0
H1715 H 0.87853 0.55011 0.03803 0.0
H1716 H 0.81661 0.57396 0.02481 0.0
H1717 H 0.84275 0.55354 0.03777 0.0
H1718 H 0.85448 0.53312 0.97896 0.0
H1719 H 0.82838 0.55294 0.96617 0.0
C1720 C 0.88425 0.4985 0.01438 0.0
C1721 C 0.89812 0.50559 0.02841 0.0
C1722 C 0.86849 0.50992 0.00878 0.0
C1723 C 0.86628 0.52878 0.01695 0.0
C1724 C 0.87975 0.5356 0.03154 0.0
C1725 C 0.89551 0.52409 0.03725 0.0
C1726 C 0.8248 0.5651 0.01469 0.0
C1727 C 0.82029 0.56498 0.99447 0.0
C1728 C 0.8398 0.55346 0.02211 0.0
C1729 C 0.85054 0.54151 0.00942 0.0
C1730 C 0.84621 0.54176 0.98921 0.0
C1731 C 0.83129 0.55327 0.98185 0.0
H1732 H 0.13085 0.97467 0.04347 0.0
H1733 H 0.09482 0.94202 0.00091 0.0
H1734 H 0.15675 0.95099 0.03965 0.0
H1735 H 0.12097 0.91874 0.99658 0.0
H1736 H 0.16381 0.86961 0.009 0.0
H1737 H 0.13775 0.89294 0.0137 0.0
H1738 H 0.1805 0.9405 0.01588 0.0
H1739 H 0.2066 0.91716 0.01152 0.0
C1740 C 0.12841 0.96242 0.03334 0.0
C1741 C 0.1107 0.96028 0.02251 0.0
C1742 C 0.14337 0.94895 0.03098 0.0
C1743 C 0.141 0.93294 0.01777 0.0
C1744 C 0.12325 0.93076 0.00702 0.0
C1745 C 0.10832 0.94426 0.00934 0.0
C1746 C 0.16768 0.88504 0.0105 0.0
C1747 C 0.18734 0.89148 0.00987 0.0
C1748 C 0.1527 0.89844 0.01309 0.0
C1749 C 0.15699 0.91864 0.01516 0.0
C1750 C 0.17666 0.92506 0.0146 0.0
C1751 C 0.19164 0.91166 0.01197 0.0
loop_
_geom_bond_atom_site_label_1
_geom_bond_atom_site_label_2
_geom_bond_distance
_geom_bond_site_symmetry_2
_ccdc_geom_bond_type
C0 C1 1.386 . S
C0 C2 1.397 . S
C0 H24 0.931 . S
C1 C0 1.386 . S
C1 C5 1.397 1_556 S
C2 C0 1.397 . S
C2 C3 1.384 1_556 S
C2 H25 0.930 . S
C3 C2 1.384 1_554 S
C3 C4 1.377 . S
C3 C6 1.481 . S
C4 C3 1.377 . S
C4 C5 1.389 . S
C4 H26 0.929 . S
C5 C1 1.397 1_554 S
C5 C4 1.389 . S
C5 H27 0.931 . S
C6 C3 1.481 . S
C6 C7 1.387 . S
C6 C11 1.390 . S
C7 C6 1.387 . S
C7 C8 1.401 . S
C7 H28 0.930 . S
C8 C7 1.401 . S
C8 C9 1.376 . S
C8 C17 1.511 . S
C9 C8 1.376 . S
C9 C10 1.392 . S
C9 H30 0.931 . S
C10 C9 1.392 . S
C10 C11 1.361 . S
C10 C12 1.500 . S
C11 C6 1.390 . S
C11 C10 1.361 . S
C11 H29 0.931 . S
C12 C10 1.500 . S
C12 C13 1.371 . S
C12 C14 1.365 . S
C13 C12 1.371 . S
C13 C23 1.398 . S
C13 H31 0.931 . S
C14 C12 1.365 . S
C14 C15 1.409 1_455 S
C14 H32 0.929 . S
C15 C14 1.409 1_655 S
C15 C16 1.380 . S
C15 H33 0.930 . S
C16 C15 1.380 . S
C16 C23 1.349 1_655 S
C17 C8 1.511 . S
C17 C18 1.341 . S
C17 C19 1.371 . S
C18 C17 1.341 . S
C18 C22 1.394 . S
C18 H34 0.930 . S
C19 C17 1.371 . S
C19 C20 1.392 1_545 S
C19 H35 0.931 . S
C20 C19 1.392 1_565 S
C20 C21 1.331 . S
C20 H38 0.932 . S
C21 C20 1.331 . S
C21 C22 1.336 1_565 S
C22 C18 1.394 . S
C22 C21 1.336 1_545 S
C22 H37 0.929 . S
C23 C13 1.398 . S
C23 C16 1.349 1_455 S
C23 H36 0.980 1_455 S
H24 C0 0.931 . S
H25 C2 0.930 . S
H26 C4 0.929 . S
H27 C5 0.931 . S
H28 C7 0.930 . S
H29 C11 0.931 . S
H30 C9 0.931 . S
H31 C13 0.931 . S
H32 C14 0.929 . S
H33 C15 0.930 . S
H34 C18 0.930 . S
H35 C19 0.931 . S
H36 C23 0.980 1_655 S
H37 C22 0.929 . S
H38 C20 0.932 . S
C39 C40 1.386 . S
C39 C41 1.397 . S
C39 H63 0.931 . S
C40 C39 1.386 . S
C40 C44 1.397 . S
C41 C39 1.397 . S
C41 C42 1.384 . S
C41 H64 0.930 . S
C42 C41 1.384 . S
C42 C43 1.377 . S
C42 C45 1.481 . S
C43 C42 1.377 . S
C43 C44 1.389 . S
C43 H65 0.929 . S
C44 C40 1.397 . S
C44 C43 1.389 . S
C44 H66 0.931 . S
C45 C42 1.481 . S
C45 C46 1.387 . S
C45 C50 1.390 . S
C46 C45 1.387 . S
C46 C47 1.401 . S
C46 H67 0.930 . S
C47 C46 1.401 . S
C47 C48 1.376 . S
C47 C56 1.511 . S
C48 C47 1.376 . S
C48 C49 1.392 . S
C48 H69 0.931 . S
C49 C48 1.392 . S
C49 C50 1.361 . S
C49 C51 1.500 . S
C50 C45 1.390 . S
C50 C49 1.361 . S
C50 H68 0.931 . S
C51 C49 1.500 . S
C51 C52 1.371 . S
C51 C53 1.365 . S
C52 C51 1.371 . S
C52 C62 1.386 . S
C52 H70 0.931 . S
C53 C51 1.365 . S
C53 C54 1.409 . S
C53 H71 0.929 . S
C54 C53 1.409 . S
C54 C55 1.380 . S
C54 H72 0.930 . S
C55 C54 1.380 . S
C55 C62 1.357 . S
C56 C47 1.511 . S
C56 C57 1.341 . S
C56 C58 1.371 . S
C57 C56 1.341 . S
C57 C61 1.394 . S
C57 H73 0.930 . S
C58 C56 1.371 . S
C58 C59 1.392 . S
C58 H74 0.931 . S
C59 C58 1.392 . S
C59 C60 1.331 . S
C59 H77 0.932 . S
C60 C59 1.331 . S
C60 C61 1.336 . S
C61 C57 1.394 . S
C61 C60 1.336 . S
C61 H76 0.929 . S
C62 C52 1.386 . S
C62 C55 1.357 . S
C62 H75 0.928 . S
H63 C39 0.931 . S
H64 C41 0.930 . S
H65 C43 0.929 . S
H66 C44 0.931 . S
H67 C46 0.930 . S
H68 C50 0.931 . S
H69 C48 0.931 . S
H70 C52 0.931 . S
H71 C53 0.929 . S
H72 C54 0.930 . S
H73 C57 0.930 . S
H74 C58 0.931 . S
H75 C62 0.928 . S
H76 C61 0.929 . S
H77 C59 0.932 . S
C78 C79 1.386 1_655 S
C78 C80 1.397 . S
C78 H102 0.931 . S
C79 C78 1.386 1_455 S
C79 C83 1.397 . S
C80 C78 1.397 . S
C80 C81 1.384 . S
C80 H103 0.930 . S
C81 C80 1.384 . S
C81 C82 1.377 . S
C81 C84 1.481 . S
C82 C81 1.377 . S
C82 C83 1.389 1_655 S
C82 H104 0.932 . S
C83 C79 1.397 . S
C83 C82 1.389 1_455 S
C83 H105 0.931 . S
C84 C81 1.481 . S
C84 C85 1.387 . S
C84 C89 1.390 . S
C85 C84 1.387 . S
C85 C86 1.401 . S
C85 H106 0.930 . S
C86 C85 1.401 . S
C86 C87 1.376 . S
C86 C95 1.511 . S
C87 C86 1.376 . S
C87 C88 1.392 . S
C87 H108 0.931 . S
C88 C87 1.392 . S
C88 C89 1.361 . S
C88 C90 1.500 . S
C89 C84 1.390 . S
C89 C88 1.361 . S
C89 H107 0.931 . S
C90 C88 1.500 . S
C90 C91 1.371 . S
C90 C92 1.365 . S
C91 C90 1.371 . S
C91 C101 1.386 . S
C91 H109 0.931 . S
C92 C90 1.365 . S
C92 C93 1.409 . S
C92 H110 0.929 . S
C93 C92 1.409 . S
C93 C94 1.380 . S
C93 H111 0.930 . S
C94 C93 1.380 . S
C94 C101 1.357 . S
C95 C86 1.511 . S
C95 C96 1.341 . S
C95 C97 1.371 . S
C96 C95 1.341 . S
C96 C100 1.394 . S
C96 H112 0.930 . S
C97 C95 1.371 . S
C97 C98 1.392 . S
C97 H113 0.931 . S
C98 C97 1.392 . S
C98 C99 1.331 . S
C98 H116 0.932 . S
C99 C98 1.331 . S
C99 C100 1.336 . S
C100 C96 1.394 . S
C100 C99 1.336 . S
C100 H115 0.929 . S
C101 C91 1.386 . S
C101 C94 1.357 . S
C101 H114 0.934 . S
H102 C78 0.931 . S
H103 C80 0.930 . S
H104 C82 0.932 . S
H105 C83 0.931 . S
H106 C85 0.930 . S
H107 C89 0.931 . S
H108 C87 0.931 . S
H109 C91 0.931 . S
H110 C92 0.929 . S
H111 C93 0.930 . S
H112 C96 0.930 . S
H113 C97 0.931 . S
H114 C101 0.934 . S
H115 C100 0.929 . S
H116 C98 0.932 . S
C117 C118 1.386 . S
C117 C119 1.397 . S
C117 H141 0.931 . S
C118 C117 1.386 . S
C118 C122 1.397 . S
C119 C117 1.397 . S
C119 C120 1.384 . S
C119 H142 0.930 . S
C120 C119 1.384 . S
C120 C121 1.377 . S
C120 C123 1.481 . S
C121 C120 1.377 . S
C121 C122 1.389 . S
C121 H143 0.929 . S
C122 C118 1.397 . S
C122 C121 1.389 . S
C122 H144 0.931 . S
C123 C120 1.481 . S
C123 C124 1.387 . S
C123 C128 1.390 . S
C124 C123 1.387 . S
C124 C125 1.401 . S
C124 H145 0.930 . S
C125 C124 1.401 . S
C125 C126 1.376 . S
C125 C134 1.511 . S
C126 C125 1.376 . S
C126 C127 1.392 . S
C126 H147 0.931 . S
C127 C126 1.392 . S
C127 C128 1.361 . S
C127 C129 1.500 . S
C128 C123 1.390 . S
C128 C127 1.361 . S
C128 H146 0.931 . S
C129 C127 1.500 . S
C129 C130 1.371 . S
C129 C131 1.365 . S
C130 C129 1.371 . S
C130 C140 1.386 . S
C130 H148 0.931 . S
C131 C129 1.365 . S
C131 C132 1.409 . S
C131 H149 0.929 . S
C132 C131 1.409 . S
C132 C133 1.380 . S
C132 H150 0.930 . S
C133 C132 1.380 . S
C133 C140 1.357 . S
C134 C125 1.511 . S
C134 C135 1.341 . S
C134 C136 1.371 . S
C135 C134 1.341 . S
C135 C139 1.394 . S
C135 H151 0.930 . S
C136 C134 1.371 . S
C136 C137 1.392 . S
C136 H152 0.931 . S
C137 C136 1.392 . S
C137 C138 1.331 . S
C137 H155 0.932 . S
C138 C137 1.331 . S
C138 C139 1.336 . S
C139 C135 1.394 . S
C139 C138 1.336 . S
C139 H154 0.929 . S
C140 C130 1.386 . S
C140 C133 1.357 . S
C140 H153 0.928 . S
H141 C117 0.931 . S
H142 C119 0.930 . S
H143 C121 0.929 . S
H144 C122 0.931 . S
H145 C124 0.930 . S
H146 C128 0.931 . S
H147 C126 0.931 . S
H148 C130 0.931 . S
H149 C131 0.929 . S
H150 C132 0.930 . S
H151 C135 0.930 . S
H152 C136 0.931 . S
H153 C140 0.928 . S
H154 C139 0.929 . S
H155 C137 0.932 . S
C156 C157 1.386 1_655 S
C156 C158 1.397 1_655 S
C156 H180 0.931 . S
C157 C156 1.386 1_455 S
C157 C161 1.397 . S
C158 C156 1.397 1_455 S
C158 C159 1.384 . S
C158 H181 0.930 . S
C159 C158 1.384 . S
C159 C160 1.377 . S
C159 C162 1.481 . S
C160 C159 1.377 . S
C160 C161 1.389 . S
C160 H182 0.929 . S
C161 C157 1.397 . S
C161 C160 1.389 . S
C161 H183 0.931 . S
C162 C159 1.481 . S
C162 C163 1.387 . S
C162 C167 1.390 . S
C163 C162 1.387 . S
C163 C164 1.401 . S
C163 H184 0.930 . S
C164 C163 1.401 . S
C164 C165 1.376 . S
C164 C173 1.511 . S
C165 C164 1.376 . S
C165 C166 1.392 . S
C165 H186 0.931 . S
C166 C165 1.392 . S
C166 C167 1.361 . S
C166 C168 1.500 . S
C167 C162 1.390 . S
C167 C166 1.361 . S
C167 H185 0.931 . S
C168 C166 1.500 . S
C168 C169 1.371 . S
C168 C170 1.365 . S
C169 C168 1.371 . S
C169 C179 1.386 . S
C169 H187 0.931 . S
C170 C168 1.365 . S
C170 C171 1.409 . S
C170 H188 0.929 . S
C171 C170 1.409 . S
C171 C172 1.380 1_565 S
C171 H189 0.930 1_565 S
C172 C171 1.380 1_545 S
C172 C179 1.357 1_545 S
C173 C164 1.511 . S
C173 C174 1.341 . S
C173 C175 1.371 . S
C174 C173 1.341 . S
C174 C178 1.394 . S
C174 H190 0.930 . S
C175 C173 1.371 . S
C175 C176 1.392 . S
C175 H191 0.931 . S
C176 C175 1.392 . S
C176 C177 1.331 . S
C176 H194 0.932 . S
C177 C176 1.331 . S
C177 C178 1.336 . S
C178 C174 1.394 . S
C178 C177 1.336 . S
C178 H193 0.929 . S
C179 C169 1.386 . S
C179 C172 1.357 1_565 S
C179 H192 0.928 . S
H180 C156 0.931 . S
H181 C158 0.930 . S
H182 C160 0.929 . S
H183 C161 0.931 . S
H184 C163 0.930 . S
H185 C167 0.931 . S
H186 C165 0.931 . S
H187 C169 0.931 . S
H188 C170 0.929 . S
H189 C171 0.930 1_545 S
H190 C174 0.930 . S
H191 C175 0.931 . S
H192 C179 0.928 . S
H193 C178 0.929 . S
H194 C176 0.932 . S
C195 C196 1.386 . S
C195 C197 1.397 . S
C195 H219 0.931 . S
C196 C195 1.386 . S
C196 C200 1.397 . S
C197 C195 1.397 . S
C197 C198 1.384 . S
C197 H220 0.930 . S
C198 C197 1.384 . S
C198 C199 1.377 . S
C198 C201 1.481 . S
C199 C198 1.377 . S
C199 C200 1.389 . S
C199 H221 0.929 . S
C200 C196 1.397 . S
C200 C199 1.389 . S
C200 H222 0.931 . S
C201 C198 1.481 . S
C201 C202 1.387 . S
C201 C206 1.390 . S
C202 C201 1.387 . S
C202 C203 1.401 . S
C202 H223 0.930 . S
C203 C202 1.401 . S
C203 C204 1.376 . S
C203 C212 1.511 . S
C204 C203 1.376 . S
C204 C205 1.392 . S
C204 H225 0.931 . S
C205 C204 1.392 . S
C205 C206 1.361 . S
C205 C207 1.500 . S
C206 C201 1.390 . S
C206 C205 1.361 . S
C206 H224 0.931 . S
C207 C205 1.500 . S
C207 C208 1.371 . S
C207 C209 1.365 . S
C208 C207 1.371 . S
C208 C218 1.386 . S
C208 H226 0.931 . S
C209 C207 1.365 . S
C209 C210 1.409 . S
C209 H227 0.929 . S
C210 C209 1.409 . S
C210 C211 1.380 . S
C210 H228 0.930 . S
C211 C210 1.380 . S
C211 C218 1.357 . S
C212 C203 1.511 . S
C212 C213 1.341 . S
C212 C214 1.371 . S
C213 C212 1.341 . S
C213 C217 1.394 . S
C213 H229 0.930 . S
C214 C212 1.371 . S
C214 C215 1.392 . S
C214 H230 0.931 . S
C215 C214 1.392 . S
C215 C216 1.331 . S
C215 H233 0.932 . S
C216 C215 1.331 . S
C216 C217 1.336 . S
C217 C213 1.394 . S
C217 C216 1.336 . S
C217 H232 0.929 . S
C218 C208 1.386 . S
C218 C211 1.357 . S
C218 H231 0.928 . S
H219 C195 0.931 . S
H220 C197 0.930 . S
H221 C199 0.929 . S
H222 C200 0.931 . S
H223 C202 0.930 . S
H224 C206 0.931 . S
H225 C204 0.931 . S
H226 C208 0.931 . S
H227 C209 0.929 . S
H228 C210 0.930 . S
H229 C213 0.930 . S
H230 C214 0.931 . S
H231 C218 0.928 . S
H232 C217 0.929 . S
H233 C215 0.932 . S
C234 C235 1.386 . S
C234 C236 1.397 . S
C234 H258 0.931 . S
C235 C234 1.386 . S
C235 C239 1.397 . S
C236 C234 1.397 . S
C236 C237 1.384 . S
C236 H259 0.930 . S
C237 C236 1.384 . S
C237 C238 1.377 . S
C237 C240 1.481 . S
C238 C237 1.377 . S
C238 C239 1.389 . S
C238 H260 0.929 . S
C239 C235 1.397 . S
C239 C238 1.389 . S
C239 H261 0.931 . S
C240 C237 1.481 . S
C240 C241 1.387 . S
C240 C245 1.390 . S
C241 C240 1.387 . S
C241 C242 1.401 . S
C241 H262 0.930 . S
C242 C241 1.401 . S
C242 C243 1.376 . S
C242 C251 1.511 . S
C243 C242 1.376 . S
C243 C244 1.392 . S
C243 H264 0.931 . S
C244 C243 1.392 . S
C244 C245 1.361 . S
C244 C246 1.500 . S
C245 C240 1.390 . S
C245 C244 1.361 . S
C245 H263 0.931 . S
C246 C244 1.500 . S
C246 C247 1.371 . S
C246 C248 1.365 . S
C247 C246 1.371 . S
C247 C257 1.386 . S
C247 H265 0.931 . S
C248 C246 1.365 . S
C248 C249 1.409 . S
C248 H266 0.929 . S
C249 C248 1.409 . S
C249 C250 1.380 . S
C249 H267 0.930 . S
C250 C249 1.380 . S
C250 C257 1.357 . S
C251 C242 1.511 . S
C251 C252 1.341 . S
C251 C253 1.371 . S
C252 C251 1.341 . S
C252 C256 1.394 1_655 S
C252 H268 0.930 . S
C253 C251 1.371 . S
C253 C254 1.392 . S
C253 H269 0.931 . S
C254 C253 1.392 . S
C254 C255 1.331 1_655 S
C254 H272 0.932 . S
C255 C254 1.331 1_455 S
C255 C256 1.336 . S
C256 C252 1.394 1_455 S
C256 C255 1.336 . S
C256 H271 0.929 . S
C257 C247 1.386 . S
C257 C250 1.357 . S
C257 H270 0.928 . S
H258 C234 0.931 . S
H259 C236 0.930 . S
H260 C238 0.929 . S
H261 C239 0.931 . S
H262 C241 0.930 . S
H263 C245 0.931 . S
H264 C243 0.931 . S
H265 C247 0.931 . S
H266 C248 0.929 . S
H267 C249 0.930 . S
H268 C252 0.930 . S
H269 C253 0.931 . S
H270 C257 0.928 . S
H271 C256 0.929 . S
H272 C254 0.932 . S
C273 C274 1.386 . S
C273 C275 1.397 . S
C273 H297 0.931 . S
C274 C273 1.386 . S
C274 C278 1.397 . S
C275 C273 1.397 . S
C275 C276 1.384 . S
C275 H298 0.930 . S
C276 C275 1.384 . S
C276 C277 1.377 . S
C276 C279 1.481 . S
C277 C276 1.377 . S
C277 C278 1.389 . S
C277 H299 0.929 . S
C278 C274 1.397 . S
C278 C277 1.389 . S
C278 H300 0.931 . S
C279 C276 1.481 . S
C279 C280 1.387 . S
C279 C284 1.390 . S
C280 C279 1.387 . S
C280 C281 1.401 . S
C280 H301 0.930 . S
C281 C280 1.401 . S
C281 C282 1.376 . S
C281 C290 1.511 . S
C282 C281 1.376 . S
C282 C283 1.392 . S
C282 H303 0.931 . S
C283 C282 1.392 . S
C283 C284 1.361 . S
C283 C285 1.500 . S
C284 C279 1.390 . S
C284 C283 1.361 . S
C284 H302 0.931 . S
C285 C283 1.500 . S
C285 C286 1.371 . S
C285 C287 1.365 . S
C286 C285 1.371 . S
C286 C296 1.386 . S
C286 H304 0.931 . S
C287 C285 1.365 . S
C287 C288 1.409 . S
C287 H305 0.929 . S
C288 C287 1.409 . S
C288 C289 1.380 . S
C288 H306 0.930 . S
C289 C288 1.380 . S
C289 C296 1.357 . S
C290 C281 1.511 . S
C290 C291 1.341 . S
C290 C292 1.371 . S
C291 C290 1.341 . S
C291 C295 1.394 . S
C291 H307 0.930 . S
C292 C290 1.371 . S
C292 C293 1.392 . S
C292 H308 0.931 . S
C293 C292 1.392 . S
C293 C294 1.331 . S
C293 H311 0.932 . S
C294 C293 1.331 . S
C294 C295 1.336 . S
C295 C291 1.394 . S
C295 C294 1.336 . S
C295 H310 0.929 . S
C296 C286 1.386 . S
C296 C289 1.357 . S
C296 H309 0.928 . S
H297 C273 0.931 . S
H298 C275 0.930 . S
H299 C277 0.929 . S
H300 C278 0.931 . S
H301 C280 0.930 . S
H302 C284 0.931 . S
H303 C282 0.931 . S
H304 C286 0.931 . S
H305 C287 0.929 . S
H306 C288 0.930 . S
H307 C291 0.930 . S
H308 C292 0.931 . S
H309 C296 0.928 . S
H310 C295 0.929 . S
H311 C293 0.932 . S
C312 C313 1.386 . S
C312 C314 1.397 . S
C312 H336 0.931 . S
C313 C312 1.386 . S
C313 C317 1.397 . S
C314 C312 1.397 . S
C314 C315 1.384 . S
C314 H337 0.930 . S
C315 C314 1.384 . S
C315 C316 1.377 . S
C315 C318 1.481 . S
C316 C315 1.377 . S
C316 C317 1.389 . S
C316 H338 0.929 . S
C317 C313 1.397 . S
C317 C316 1.389 . S
C317 H339 0.931 . S
C318 C315 1.481 . S
C318 C319 1.387 . S
C318 C323 1.390 . S
C319 C318 1.387 . S
C319 C320 1.401 . S
C319 H340 0.930 . S
C320 C319 1.401 . S
C320 C321 1.376 . S
C320 C329 1.511 . S
C321 C320 1.376 . S
C321 C322 1.392 . S
C321 H342 0.931 . S
C322 C321 1.392 . S
C322 C323 1.361 . S
C322 C324 1.500 . S
C323 C318 1.390 . S
C323 C322 1.361 . S
C323 H341 0.931 . S
C324 C322 1.500 . S
C324 C325 1.371 . S
C324 C326 1.365 . S
C325 C324 1.371 . S
C325 C335 1.386 . S
C325 H343 0.931 . S
C326 C324 1.365 . S
C326 C327 1.409 . S
C326 H344 0.929 . S
C327 C326 1.409 . S
C327 C328 1.380 . S
C327 H345 0.930 . S
C328 C327 1.380 . S
C328 C335 1.357 . S
C329 C320 1.511 . S
C329 C330 1.341 . S
C329 C331 1.371 . S
C330 C329 1.341 . S
C330 C334 1.394 . S
C330 H346 0.930 . S
C331 C329 1.371 . S
C331 C332 1.392 . S
C331 H347 0.931 . S
C332 C331 1.392 . S
C332 C333 1.331 . S
C332 H350 0.932 . S
C333 C332 1.331 . S
C333 C334 1.336 . S
C334 C330 1.394 . S
C334 C333 1.336 . S
C334 H349 0.929 . S
C335 C325 1.386 . S
C335 C328 1.357 . S
C335 H348 0.928 . S
H336 C312 0.931 . S
H337 C314 0.930 . S
H338 C316 0.929 . S
H339 C317 0.931 . S
H340 C319 0.930 . S
H341 C323 0.931 . S
H342 C321 0.931 . S
H343 C325 0.931 . S
H344 C326 0.929 . S
H345 C327 0.930 . S
H346 C330 0.930 . S
H347 C331 0.931 . S
H348 C335 0.928 . S
H349 C334 0.929 . S
H350 C332 0.932 . S
C351 C352 1.386 . S
C351 C353 1.397 . S
C351 H375 0.931 . S
C352 C351 1.386 . S
C352 C356 1.397 . S
C353 C351 1.397 . S
C353 C354 1.384 . S
C353 H376 0.930 . S
C354 C353 1.384 . S
C354 C355 1.377 . S
C354 C357 1.481 . S
C355 C354 1.377 . S
C355 C356 1.389 . S
C355 H377 0.929 . S
C356 C352 1.397 . S
C356 C355 1.389 . S
C356 H378 0.931 . S
C357 C354 1.481 . S
C357 C358 1.387 . S
C357 C362 1.390 . S
C358 C357 1.387 . S
C358 C359 1.401 . S
C358 H379 0.930 . S
C359 C358 1.401 . S
C359 C360 1.376 . S
C359 C368 1.511 . S
C360 C359 1.376 . S
C360 C361 1.392 . S
C360 H381 0.931 . S
C361 C360 1.392 . S
C361 C362 1.361 . S
C361 C363 1.500 . S
C362 C357 1.390 . S
C362 C361 1.361 . S
C362 H380 0.931 . S
C363 C361 1.500 . S
C363 C364 1.371 . S
C363 C365 1.365 . S
C364 C363 1.371 . S
C364 C374 1.386 . S
C364 H382 0.931 . S
C365 C363 1.365 . S
C365 C366 1.409 . S
C365 H383 0.929 . S
C366 C365 1.409 . S
C366 C367 1.380 . S
C366 H384 0.930 . S
C367 C366 1.380 . S
C367 C374 1.357 . S
C368 C359 1.511 . S
C368 C369 1.341 . S
C368 C370 1.371 . S
C369 C368 1.341 . S
C369 C373 1.394 1_565 S
C369 H385 0.930 . S
C370 C368 1.371 . S
C370 C371 1.392 . S
C370 H386 0.931 . S
C371 C370 1.392 . S
C371 C372 1.331 1_565 S
C371 H389 0.932 . S
C372 C371 1.331 1_545 S
C372 C373 1.336 . S
C373 C369 1.394 1_545 S
C373 C372 1.336 . S
C373 H388 0.929 . S
C374 C364 1.386 . S
C374 C367 1.357 . S
C374 H387 0.928 . S
H375 C351 0.931 . S
H376 C353 0.930 . S
H377 C355 0.929 . S
H378 C356 0.931 . S
H379 C358 0.930 . S
H380 C362 0.931 . S
H381 C360 0.931 . S
H382 C364 0.931 . S
H383 C365 0.929 . S
H384 C366 0.930 . S
H385 C369 0.930 . S
H386 C370 0.931 . S
H387 C374 0.928 . S
H388 C373 0.929 . S
H389 C371 0.932 . S
C390 C391 1.386 . S
C390 C392 1.397 . S
C390 H414 0.931 . S
C391 C390 1.386 . S
C391 C395 1.397 . S
C392 C390 1.397 . S
C392 C393 1.384 . S
C392 H415 0.930 . S
C393 C392 1.384 . S
C393 C394 1.377 . S
C393 C396 1.481 . S
C394 C393 1.377 . S
C394 C395 1.389 . S
C394 H416 0.929 . S
C395 C391 1.397 . S
C395 C394 1.389 . S
C395 H417 0.931 . S
C396 C393 1.481 . S
C396 C397 1.387 . S
C396 C401 1.390 . S
C397 C396 1.387 . S
C397 C398 1.401 . S
C397 H418 0.930 . S
C398 C397 1.401 . S
C398 C399 1.376 . S
C398 C407 1.511 . S
C399 C398 1.376 . S
C399 C400 1.392 . S
C399 H420 0.931 . S
C400 C399 1.392 . S
C400 C401 1.361 . S
C400 C402 1.500 . S
C401 C396 1.390 . S
C401 C400 1.361 . S
C401 H419 0.931 . S
C402 C400 1.500 . S
C402 C403 1.371 . S
C402 C404 1.365 . S
C403 C402 1.371 . S
C403 C413 1.386 . S
C403 H421 0.931 . S
C404 C402 1.365 . S
C404 C405 1.409 . S
C404 H422 0.929 . S
C405 C404 1.409 . S
C405 C406 1.380 . S
C405 H423 0.930 . S
C406 C405 1.380 . S
C406 C413 1.357 . S
C407 C398 1.511 . S
C407 C408 1.341 . S
C407 C409 1.371 . S
C408 C407 1.341 . S
C408 C412 1.394 . S
C408 H424 0.930 . S
C409 C407 1.371 . S
C409 C410 1.392 . S
C409 H425 0.931 . S
C410 C409 1.392 . S
C410 C411 1.331 . S
C410 H428 0.932 . S
C411 C410 1.331 . S
C411 C412 1.336 . S
C412 C408 1.394 . S
C412 C411 1.336 . S
C412 H427 0.929 . S
C413 C403 1.386 . S
C413 C406 1.357 . S
C413 H426 0.928 . S
H414 C390 0.931 . S
H415 C392 0.930 . S
H416 C394 0.929 . S
H417 C395 0.931 . S
H418 C397 0.930 . S
H419 C401 0.931 . S
H420 C399 0.931 . S
H421 C403 0.931 . S
H422 C404 0.929 . S
H423 C405 0.930 . S
H424 C408 0.930 . S
H425 C409 0.931 . S
H426 C413 0.928 . S
H427 C412 0.929 . S
H428 C410 0.932 . S
C429 C430 1.386 . S
C429 C431 1.397 . S
C429 H453 0.931 . S
C430 C429 1.386 . S
C430 C434 1.397 . S
C431 C429 1.397 . S
C431 C432 1.384 . S
C431 H454 0.930 . S
C432 C431 1.384 . S
C432 C433 1.377 . S
C432 C435 1.481 . S
C433 C432 1.377 . S
C433 C434 1.389 . S
C433 H455 0.929 . S
C434 C430 1.397 . S
C434 C433 1.389 . S
C434 H456 0.931 . S
C435 C432 1.481 . S
C435 C436 1.387 . S
C435 C440 1.390 . S
C436 C435 1.387 . S
C436 C437 1.401 . S
C436 H457 0.930 . S
C437 C436 1.401 . S
C437 C438 1.376 . S
C437 C446 1.511 . S
C438 C437 1.376 . S
C438 C439 1.392 . S
C438 H459 0.931 . S
C439 C438 1.392 . S
C439 C440 1.361 . S
C439 C441 1.500 . S
C440 C435 1.390 . S
C440 C439 1.361 . S
C440 H458 0.931 . S
C441 C439 1.500 . S
C441 C442 1.371 . S
C441 C443 1.365 . S
C442 C441 1.371 . S
C442 C452 1.386 . S
C442 H460 0.931 . S
C443 C441 1.365 . S
C443 C444 1.409 . S
C443 H461 0.929 . S
C444 C443 1.409 . S
C444 C445 1.380 . S
C444 H462 0.930 . S
C445 C444 1.380 . S
C445 C452 1.357 . S
C446 C437 1.511 . S
C446 C447 1.341 . S
C446 C448 1.371 . S
C447 C446 1.341 . S
C447 C451 1.394 . S
C447 H463 0.930 . S
C448 C446 1.371 . S
C448 C449 1.392 . S
C448 H464 0.931 . S
C449 C448 1.392 . S
C449 C450 1.331 . S
C449 H467 0.932 . S
C450 C449 1.331 . S
C450 C451 1.336 . S
C451 C447 1.394 . S
C451 C450 1.336 . S
C451 H466 0.929 . S
C452 C442 1.386 . S
C452 C445 1.357 . S
C452 H465 0.928 . S
H453 C429 0.931 . S
H454 C431 0.930 . S
H455 C433 0.929 . S
H456 C434 0.931 . S
H457 C436 0.930 . S
H458 C440 0.931 . S
H459 C438 0.931 . S
H460 C442 0.931 . S
H461 C443 0.929 . S
H462 C444 0.930 . S
H463 C447 0.930 . S
H464 C448 0.931 . S
H465 C452 0.928 . S
H466 C451 0.929 . S
H467 C449 0.932 . S
C468 C469 1.386 . S
C468 C470 1.397 . S
C468 H492 0.931 . S
C469 C468 1.386 . S
C469 C473 1.397 . S
C470 C468 1.397 . S
C470 C471 1.384 . S
C470 H493 0.930 . S
C471 C470 1.384 . S
C471 C472 1.377 . S
C471 C474 1.481 . S
C472 C471 1.377 . S
C472 C473 1.389 . S
C472 H494 0.929 . S
C473 C469 1.397 . S
C473 C472 1.389 . S
C473 H495 0.931 . S
C474 C471 1.481 . S
C474 C475 1.387 . S
C474 C479 1.390 . S
C475 C474 1.387 . S
C475 C476 1.401 . S
C475 H496 0.930 . S
C476 C475 1.401 . S
C476 C477 1.376 . S
C476 C485 1.511 . S
C477 C476 1.376 . S
C477 C478 1.392 . S
C477 H498 0.931 . S
C478 C477 1.392 . S
C478 C479 1.361 . S
C478 C480 1.500 . S
C479 C474 1.390 . S
C479 C478 1.361 . S
C479 H497 0.931 . S
C480 C478 1.500 . S
C480 C481 1.371 . S
C480 C482 1.365 . S
C481 C480 1.371 . S
C481 C491 1.386 . S
C481 H499 0.931 . S
C482 C480 1.365 . S
C482 C483 1.409 . S
C482 H500 0.929 . S
C483 C482 1.409 . S
C483 C484 1.380 . S
C483 H501 0.930 . S
C484 C483 1.380 . S
C484 C491 1.357 . S
C485 C476 1.511 . S
C485 C486 1.341 . S
C485 C487 1.371 . S
C486 C485 1.341 . S
C486 C490 1.394 . S
C486 H502 0.930 . S
C487 C485 1.371 . S
C487 C488 1.392 . S
C487 H503 0.931 . S
C488 C487 1.392 . S
C488 C489 1.331 . S
C488 H506 0.932 . S
C489 C488 1.331 . S
C489 C490 1.336 . S
C490 C486 1.394 . S
C490 C489 1.336 . S
C490 H505 0.929 . S
C491 C481 1.386 . S
C491 C484 1.357 . S
C491 H504 0.928 . S
H492 C468 0.931 . S
H493 C470 0.930 . S
H494 C472 0.929 . S
H495 C473 0.931 . S
H496 C475 0.930 . S
H497 C479 0.931 . S
H498 C477 0.931 . S
H499 C481 0.931 . S
H500 C482 0.929 . S
H501 C483 0.930 . S
H502 C486 0.930 . S
H503 C487 0.931 . S
H504 C491 0.928 . S
H505 C490 0.929 . S
H506 C488 0.932 . S
C507 C508 1.386 . S
C507 C509 1.397 . S
C507 H531 0.931 . S
C508 C507 1.386 . S
C508 C512 1.397 . S
C509 C507 1.397 . S
C509 C510 1.384 . S
C509 H532 0.930 . S
C510 C509 1.384 . S
C510 C511 1.377 . S
C510 C513 1.481 . S
C511 C510 1.377 . S
C511 C512 1.389 . S
C511 H533 0.929 . S
C512 C508 1.397 . S
C512 C511 1.389 . S
C512 H534 0.931 . S
C513 C510 1.481 . S
C513 C514 1.387 . S
C513 C518 1.390 . S
C514 C513 1.387 . S
C514 C515 1.401 . S
C514 H535 0.930 . S
C515 C514 1.401 . S
C515 C516 1.376 . S
C515 C524 1.511 . S
C516 C515 1.376 . S
C516 C517 1.392 . S
C516 H537 0.931 . S
C517 C516 1.392 . S
C517 C518 1.361 . S
C517 C519 1.500 . S
C518 C513 1.390 . S
C518 C517 1.361 . S
C518 H536 0.931 . S
C519 C517 1.500 . S
C519 C520 1.371 . S
C519 C521 1.365 . S
C520 C519 1.371 . S
C520 C530 1.386 . S
C520 H538 0.931 . S
C521 C519 1.365 . S
C521 C522 1.409 . S
C521 H539 0.929 . S
C522 C521 1.409 . S
C522 C523 1.380 . S
C522 H540 0.930 . S
C523 C522 1.380 . S
C523 C530 1.357 . S
C524 C515 1.511 . S
C524 C525 1.341 . S
C524 C526 1.371 . S
C525 C524 1.341 . S
C525 C529 1.394 . S
C525 H541 0.930 . S
C526 C524 1.371 . S
C526 C527 1.392 1_556 S
C526 H542 0.931 . S
C527 C526 1.392 1_554 S
C527 C528 1.331 . S
C527 H545 0.932 . S
C528 C527 1.331 . S
C528 C529 1.336 1_554 S
C529 C525 1.394 . S
C529 C528 1.336 1_556 S
C529 H544 0.929 . S
C530 C520 1.386 . S
C530 C523 1.357 . S
C530 H543 0.957 . S
H531 C507 0.931 . S
H532 C509 0.930 . S
H533 C511 0.929 . S
H534 C512 0.931 . S
H535 C514 0.930 . S
H536 C518 0.931 . S
H537 C516 0.931 . S
H538 C520 0.931 . S
H539 C521 0.929 . S
H540 C522 0.930 . S
H541 C525 0.930 . S
H542 C526 0.931 . S
H543 C530 0.957 . S
H544 C529 0.929 . S
H545 C527 0.932 . S
C546 C547 1.386 . S
C546 C548 1.397 . S
C546 H570 0.931 . S
C547 C546 1.386 . S
C547 C551 1.397 . S
C548 C546 1.397 . S
C548 C549 1.384 . S
C548 H571 0.930 . S
C549 C548 1.384 . S
C549 C550 1.377 . S
C549 C552 1.481 . S
C550 C549 1.377 . S
C550 C551 1.389 . S
C550 H572 0.929 . S
C551 C547 1.397 . S
C551 C550 1.389 . S
C551 H573 0.931 . S
C552 C549 1.481 . S
C552 C553 1.387 . S
C552 C557 1.390 . S
C553 C552 1.387 . S
C553 C554 1.401 . S
C553 H574 0.930 . S
C554 C553 1.401 . S
C554 C555 1.376 . S
C554 C563 1.511 . S
C555 C554 1.376 . S
C555 C556 1.392 . S
C555 H576 0.931 . S
C556 C555 1.392 . S
C556 C557 1.361 . S
C556 C558 1.500 . S
C557 C552 1.390 . S
C557 C556 1.361 . S
C557 H575 0.931 . S
C558 C556 1.500 . S
C558 C559 1.371 . S
C558 C560 1.365 . S
C559 C558 1.371 . S
C559 C569 1.386 . S
C559 H577 0.931 . S
C560 C558 1.365 . S
C560 C561 1.409 . S
C560 H578 0.929 . S
C561 C560 1.409 . S
C561 C562 1.380 . S
C561 H579 0.930 . S
C562 C561 1.380 . S
C562 C569 1.357 . S
C563 C554 1.511 . S
C563 C564 1.341 . S
C563 C565 1.371 . S
C564 C563 1.341 . S
C564 C568 1.394 . S
C564 H580 0.930 . S
C565 C563 1.371 . S
C565 C566 1.392 . S
C565 H581 0.931 . S
C566 C565 1.392 . S
C566 C567 1.331 . S
C566 H584 0.932 . S
C567 C566 1.331 . S
C567 C568 1.336 . S
C568 C564 1.394 . S
C568 C567 1.336 . S
C568 H583 0.929 . S
C569 C559 1.386 . S
C569 C562 1.357 . S
C569 H582 0.928 . S
H570 C546 0.931 . S
H571 C548 0.930 . S
H572 C550 0.929 . S
H573 C551 0.931 . S
H574 C553 0.930 . S
H575 C557 0.931 . S
H576 C555 0.931 . S
H577 C559 0.931 . S
H578 C560 0.929 . S
H579 C561 0.930 . S
H580 C564 0.930 . S
H581 C565 0.931 . S
H582 C569 0.928 . S
H583 C568 0.929 . S
H584 C566 0.932 . S
C585 C586 1.386 1_556 S
C585 C587 1.397 . S
C585 H609 0.931 . S
C586 C585 1.386 1_554 S
C586 C590 1.397 . S
C587 C585 1.397 . S
C587 C588 1.384 . S
C587 H610 0.930 . S
C588 C587 1.384 . S
C588 C589 1.377 . S
C588 C591 1.481 . S
C589 C588 1.377 . S
C589 C590 1.389 1_556 S
C589 H611 0.912 1_556 S
C590 C586 1.397 . S
C590 C589 1.389 1_554 S
C590 H612 0.931 . S
C591 C588 1.481 . S
C591 C592 1.387 . S
C591 C596 1.390 . S
C592 C591 1.387 . S
C592 C593 1.401 . S
C592 H613 0.930 . S
C593 C592 1.401 . S
C593 C594 1.376 . S
C593 C602 1.511 . S
C594 C593 1.376 . S
C594 C595 1.392 . S
C594 H615 0.931 . S
C595 C594 1.392 . S
C595 C596 1.361 . S
C595 C597 1.500 . S
C596 C591 1.390 . S
C596 C595 1.361 . S
C596 H614 0.931 . S
C597 C595 1.500 . S
C597 C598 1.371 . S
C597 C599 1.365 . S
C598 C597 1.371 . S
C598 C608 1.386 . S
C598 H616 0.931 . S
C599 C597 1.365 . S
C599 C600 1.409 . S
C599 H617 0.929 . S
C600 C599 1.409 . S
C600 C601 1.380 . S
C600 H618 0.930 . S
C601 C600 1.380 . S
C601 C608 1.357 . S
C602 C593 1.511 . S
C602 C603 1.341 . S
C602 C604 1.371 . S
C603 C602 1.341 . S
C603 C607 1.394 . S
C603 H619 0.930 . S
C604 C602 1.371 . S
C604 C605 1.392 . S
C604 H620 0.931 . S
C605 C604 1.392 . S
C605 C606 1.331 . S
C605 H623 0.932 . S
C606 C605 1.331 . S
C606 C607 1.336 . S
C607 C603 1.394 . S
C607 C606 1.336 . S
C607 H622 0.929 . S
C608 C598 1.386 . S
C608 C601 1.357 . S
C608 H621 0.928 1_545 S
H609 C585 0.931 . S
H610 C587 0.930 . S
H611 C589 0.912 1_554 S
H612 C590 0.931 . S
H613 C592 0.930 . S
H614 C596 0.931 . S
H615 C594 0.931 . S
H616 C598 0.931 . S
H617 C599 0.929 . S
H618 C600 0.930 . S
H619 C603 0.930 . S
H620 C604 0.931 . S
H621 C608 0.928 1_565 S
H622 C607 0.929 . S
H623 C605 0.932 . S
Zn624 O627 2.061 . S
Zn624 O629 2.028 1_554 S
Zn624 O634 2.026 1_554 S
Zn625 O626 1.962 . S
Zn625 O628 1.986 . S
Zn625 O630 1.996 . S
Zn625 O633 1.943 1_554 S
O626 Zn625 1.962 . S
O626 C631 1.254 . S
O627 Zn624 2.061 . S
O627 C631 1.269 . S
O628 Zn625 1.986 . S
O628 C635 1.262 . S
O629 Zn624 2.028 1_556 S
O629 C637 1.260 . S
O630 Zn625 1.996 . S
O630 C637 1.257 1_554 S
C631 O626 1.254 . S
C631 O627 1.269 . S
C632 O633 1.249 . S
C632 O634 1.270 . S
O633 Zn625 1.943 1_556 S
O633 C632 1.249 . S
O634 Zn624 2.026 1_556 S
O634 C632 1.270 . S
C635 O628 1.262 . S
C635 O636 1.232 . S
O636 C635 1.232 . S
C637 O629 1.260 . S
C637 O630 1.257 1_556 S
Zn638 O641 2.031 . S
Zn638 O643 2.049 . S
Zn638 O648 2.067 . S
Zn639 O640 1.962 . S
Zn639 O642 1.986 . S
Zn639 O644 1.996 . S
Zn639 O647 1.943 . S
O640 Zn639 1.962 . S
O640 C645 1.254 . S
O641 Zn638 2.031 . S
O641 C645 1.269 . S
O642 Zn639 1.986 . S
O642 C649 1.262 . S
O643 Zn638 2.049 . S
O643 C651 1.260 . S
O644 Zn639 1.996 . S
O644 C651 1.257 . S
C645 O640 1.254 . S
C645 O641 1.269 . S
C646 O647 1.249 . S
C646 O648 1.270 . S
O647 Zn639 1.943 . S
O647 C646 1.249 . S
O648 Zn638 2.067 . S
O648 C646 1.270 . S
C649 O642 1.262 . S
C649 O650 1.232 . S
O650 C649 1.232 . S
C651 O643 1.260 . S
C651 O644 1.257 . S
Zn652 O655 2.031 . S
Zn652 O657 2.049 . S
Zn652 O662 2.067 . S
Zn653 O654 1.962 . S
Zn653 O656 1.986 . S
Zn653 O658 1.996 1_554 S
Zn653 O661 1.943 . S
O654 Zn653 1.962 . S
O654 C659 1.254 . S
O655 Zn652 2.031 . S
O655 C659 1.269 1_556 S
O656 Zn653 1.986 . S
O656 C663 1.262 . S
O657 Zn652 2.049 . S
O657 C665 1.260 . S
O658 Zn653 1.996 1_556 S
O658 C665 1.257 . S
C659 O654 1.254 . S
C659 O655 1.269 1_554 S
C660 O661 1.249 1_556 S
C660 O662 1.270 . S
O661 Zn653 1.943 . S
O661 C660 1.249 1_554 S
O662 Zn652 2.067 . S
O662 C660 1.270 . S
C663 O656 1.262 . S
C663 O664 1.232 . S
O664 C663 1.232 . S
C665 O657 1.260 . S
C665 O658 1.257 . S
Zn666 O669 2.052 . S
Zn666 O671 2.035 1_545 S
Zn666 O676 2.039 1_545 S
Zn667 O668 1.962 . S
Zn667 O670 1.986 . S
Zn667 O672 1.996 . S
Zn667 O675 1.943 1_545 S
O668 Zn667 1.962 . S
O668 C673 1.254 . S
O669 Zn666 2.052 . S
O669 C673 1.269 . S
O670 Zn667 1.986 . S
O670 C677 1.262 . S
O671 Zn666 2.035 1_565 S
O671 C679 1.260 . S
O672 Zn667 1.996 . S
O672 C679 1.257 1_545 S
C673 O668 1.254 . S
C673 O669 1.269 . S
C674 O675 1.249 . S
C674 O676 1.270 . S
O675 Zn667 1.943 1_565 S
O675 C674 1.249 . S
O676 Zn666 2.039 1_565 S
O676 C674 1.270 . S
C677 O670 1.262 . S
C677 O678 1.232 . S
O678 C677 1.232 . S
C679 O671 1.260 . S
C679 O672 1.257 1_565 S
Zn680 O683 2.031 . S
Zn680 O685 2.049 . S
Zn680 O690 2.067 . S
Zn681 O682 1.962 . S
Zn681 O684 1.986 . S
Zn681 O686 1.996 . S
Zn681 O689 1.943 . S
O682 Zn681 1.962 . S
O682 C687 1.254 . S
O683 Zn680 2.031 . S
O683 C687 1.269 . S
O684 Zn681 1.986 . S
O684 C691 1.262 . S
O685 Zn680 2.049 . S
O685 C693 1.260 . S
O686 Zn681 1.996 . S
O686 C693 1.257 . S
C687 O682 1.254 . S
C687 O683 1.269 . S
C688 O689 1.249 . S
C688 O690 1.270 . S
O689 Zn681 1.943 . S
O689 C688 1.249 . S
O690 Zn680 2.067 . S
O690 C688 1.270 . S
C691 O684 1.262 . S
C691 O692 1.232 . S
O692 C691 1.232 . S
C693 O685 1.260 . S
C693 O686 1.257 . S
Zn694 O697 2.031 . S
Zn694 O699 2.049 . S
Zn694 O704 2.067 . S
Zn695 O696 1.962 . S
Zn695 O698 1.986 . S
Zn695 O700 1.996 . S
Zn695 O703 1.943 . S
O696 Zn695 1.962 . S
O696 C701 1.254 . S
O697 Zn694 2.031 . S
O697 C701 1.269 . S
O698 Zn695 1.986 . S
O698 C705 1.262 . S
O699 Zn694 2.049 . S
O699 C707 1.260 . S
O700 Zn695 1.996 . S
O700 C707 1.257 . S
C701 O696 1.254 . S
C701 O697 1.269 . S
C702 O703 1.249 . S
C702 O704 1.270 . S
O703 Zn695 1.943 . S
O703 C702 1.249 . S
O704 Zn694 2.067 . S
O704 C702 1.270 . S
C705 O698 1.262 . S
C705 O706 1.232 . S
O706 C705 1.232 . S
C707 O699 1.260 . S
C707 O700 1.257 . S
Zn708 O711 2.031 . S
Zn708 O713 2.049 . S
Zn708 O718 2.067 . S
Zn709 O710 1.962 . S
Zn709 O712 1.986 . S
Zn709 O714 1.996 . S
Zn709 O717 1.943 . S
O710 Zn709 1.962 . S
O710 C715 1.254 . S
O711 Zn708 2.031 . S
O711 C715 1.269 . S
O712 Zn709 1.986 . S
O712 C719 1.262 . S
O713 Zn708 2.049 . S
O713 C721 1.260 . S
O714 Zn709 1.996 . S
O714 C721 1.257 . S
C715 O710 1.254 . S
C715 O711 1.269 . S
C716 O717 1.249 . S
C716 O718 1.270 . S
O717 Zn709 1.943 . S
O717 C716 1.249 . S
O718 Zn708 2.067 . S
O718 C716 1.270 . S
C719 O712 1.262 . S
C719 O720 1.232 . S
O720 C719 1.232 . S
C721 O713 1.260 . S
C721 O714 1.257 . S
Zn722 O725 2.031 . S
Zn722 O727 2.049 . S
Zn722 O732 2.067 . S
Zn723 O724 1.962 . S
Zn723 O726 1.986 . S
Zn723 O728 1.996 1_545 S
Zn723 O731 1.943 . S
O724 Zn723 1.962 . S
O724 C729 1.254 . S
O725 Zn722 2.031 . S
O725 C729 1.269 1_565 S
O726 Zn723 1.986 . S
O726 C733 1.262 . S
O727 Zn722 2.049 . S
O727 C735 1.260 . S
O728 Zn723 1.996 1_565 S
O728 C735 1.257 . S
C729 O724 1.254 . S
C729 O725 1.269 1_545 S
C730 O731 1.249 1_565 S
C730 O732 1.270 . S
O731 Zn723 1.943 . S
O731 C730 1.249 1_545 S
O732 Zn722 2.067 . S
O732 C730 1.270 . S
C733 O726 1.262 . S
C733 O734 1.232 . S
O734 C733 1.232 . S
C735 O727 1.260 . S
C735 O728 1.257 . S
Zn736 O739 2.028 . S
Zn736 O741 2.052 1_455 S
Zn736 O746 2.072 1_455 S
Zn737 O738 1.962 . S
Zn737 O740 1.986 . S
Zn737 O742 1.996 . S
Zn737 O745 1.943 1_455 S
O738 Zn737 1.962 . S
O738 C743 1.254 . S
O739 Zn736 2.028 . S
O739 C743 1.269 . S
O740 Zn737 1.986 . S
O740 C747 1.262 . S
O741 Zn736 2.052 1_655 S
O741 C749 1.260 . S
O742 Zn737 1.996 . S
O742 C749 1.257 1_455 S
C743 O738 1.254 . S
C743 O739 1.269 . S
C744 O745 1.249 . S
C744 O746 1.270 . S
O745 Zn737 1.943 1_655 S
O745 C744 1.249 . S
O746 Zn736 2.072 1_655 S
O746 C744 1.270 . S
C747 O740 1.262 . S
C747 O748 1.232 . S
O748 C747 1.232 . S
C749 O741 1.260 . S
C749 O742 1.257 1_655 S
Zn750 O753 2.031 . S
Zn750 O755 2.049 . S
Zn750 O760 2.067 . S
Zn751 O752 1.962 . S
Zn751 O754 1.986 . S
Zn751 O756 1.996 . S
Zn751 O759 1.943 . S
O752 Zn751 1.962 . S
O752 C757 1.254 . S
O753 Zn750 2.031 . S
O753 C757 1.269 . S
O754 Zn751 1.986 . S
O754 C761 1.262 . S
O755 Zn750 2.049 . S
O755 C763 1.260 . S
O756 Zn751 1.996 . S
O756 C763 1.257 . S
C757 O752 1.254 . S
C757 O753 1.269 . S
C758 O759 1.249 . S
C758 O760 1.270 . S
O759 Zn751 1.943 . S
O759 C758 1.249 . S
O760 Zn750 2.067 . S
O760 C758 1.270 . S
C761 O754 1.262 . S
C761 O762 1.232 . S
O762 C761 1.232 . S
C763 O755 1.260 . S
C763 O756 1.257 . S
Zn764 O767 2.031 . S
Zn764 O769 2.049 . S
Zn764 O774 2.067 . S
Zn765 O766 1.962 . S
Zn765 O768 1.986 . S
Zn765 O770 1.996 1_455 S
Zn765 O773 1.943 . S
O766 Zn765 1.962 . S
O766 C771 1.254 . S
O767 Zn764 2.031 . S
O767 C771 1.269 1_655 S
O768 Zn765 1.986 . S
O768 C775 1.262 . S
O769 Zn764 2.049 . S
O769 C777 1.260 . S
O770 Zn765 1.996 1_655 S
O770 C777 1.257 . S
C771 O766 1.254 . S
C771 O767 1.269 1_455 S
C772 O773 1.249 1_655 S
C772 O774 1.270 . S
O773 Zn765 1.943 . S
O773 C772 1.249 1_455 S
O774 Zn764 2.067 . S
O774 C772 1.270 . S
C775 O768 1.262 . S
C775 O776 1.232 . S
O776 C775 1.232 . S
C777 O769 1.260 . S
C777 O770 1.257 . S
Zn778 O781 2.031 . S
Zn778 O783 2.049 . S
Zn778 O788 2.067 . S
Zn779 O780 1.962 . S
Zn779 O782 1.986 . S
Zn779 O784 1.996 . S
Zn779 O787 1.943 . S
O780 Zn779 1.962 . S
O780 C785 1.254 . S
O781 Zn778 2.031 . S
O781 C785 1.269 . S
O782 Zn779 1.986 . S
O782 C789 1.262 . S
O783 Zn778 2.049 . S
O783 C791 1.260 . S
O784 Zn779 1.996 . S
O784 C791 1.257 . S
C785 O780 1.254 . S
C785 O781 1.269 . S
C786 O787 1.249 . S
C786 O788 1.270 . S
O787 Zn779 1.943 . S
O787 C786 1.249 . S
O788 Zn778 2.067 . S
O788 C786 1.270 . S
C789 O782 1.262 . S
C789 O790 1.232 . S
O790 C789 1.232 . S
C791 O783 1.260 . S
C791 O784 1.257 . S
H792 C800 0.950 . S
H793 C805 0.950 . S
H794 C802 0.950 . S
H795 C804 0.950 . S
H796 C806 0.950 . S
H797 C808 0.950 . S
H798 C810 0.950 . S
H799 C811 0.950 . S
C800 H792 0.950 . S
C800 C801 1.386 . S
C800 C802 1.391 . S
C801 C800 1.386 . S
C801 C805 1.393 . S
C802 H794 0.950 . S
C802 C800 1.391 . S
C802 C803 1.400 . S
C803 C802 1.400 . S
C803 C804 1.398 . S
C803 C809 1.491 . S
C804 H795 0.950 . S
C804 C803 1.398 . S
C804 C805 1.391 . S
C805 H793 0.950 . S
C805 C801 1.393 . S
C805 C804 1.391 . S
C806 H796 0.950 . S
C806 C807 1.386 . S
C806 C808 1.391 . S
C807 C806 1.386 . S
C807 C811 1.393 . S
C808 H797 0.950 . S
C808 C806 1.391 . S
C808 C809 1.400 . S
C809 C803 1.491 . S
C809 C808 1.400 . S
C809 C810 1.398 . S
C810 H798 0.950 . S
C810 C809 1.398 . S
C810 C811 1.391 . S
C811 H799 0.950 . S
C811 C807 1.393 . S
C811 C810 1.391 . S
H812 C820 0.950 . S
H813 C825 0.950 . S
H814 C822 0.950 . S
H815 C824 0.950 . S
H816 C826 0.950 . S
H817 C828 0.950 . S
H818 C830 0.950 . S
H819 C831 0.950 . S
C820 H812 0.950 . S
C820 C821 1.386 . S
C820 C822 1.391 . S
C821 C820 1.386 . S
C821 C825 1.393 . S
C822 H814 0.950 . S
C822 C820 1.391 . S
C822 C823 1.400 . S
C823 C822 1.400 . S
C823 C824 1.398 . S
C823 C829 1.491 . S
C824 H815 0.950 . S
C824 C823 1.398 . S
C824 C825 1.391 . S
C825 H813 0.950 . S
C825 C821 1.393 . S
C825 C824 1.391 . S
C826 H816 0.950 . S
C826 C827 1.386 . S
C826 C828 1.391 . S
C827 C826 1.386 . S
C827 C831 1.393 . S
C828 H817 0.950 . S
C828 C826 1.391 . S
C828 C829 1.400 . S
C829 C823 1.491 . S
C829 C828 1.400 . S
C829 C830 1.398 . S
C830 H818 0.950 . S
C830 C829 1.398 . S
C830 C831 1.391 . S
C831 H819 0.950 . S
C831 C827 1.393 . S
C831 C830 1.391 . S
H832 C840 0.950 . S
H833 C845 0.950 . S
H834 C842 0.950 . S
H835 C844 0.950 . S
H836 C846 0.950 . S
H837 C848 0.950 . S
H838 C850 0.950 . S
H839 C851 0.950 . S
C840 H832 0.950 . S
C840 C841 1.386 . S
C840 C842 1.391 . S
C841 C840 1.386 . S
C841 C845 1.393 . S
C842 H834 0.950 . S
C842 C840 1.391 . S
C842 C843 1.400 . S
C843 C842 1.400 . S
C843 C844 1.398 . S
C843 C849 1.491 . S
C844 H835 0.950 . S
C844 C843 1.398 . S
C844 C845 1.391 . S
C845 H833 0.950 . S
C845 C841 1.393 . S
C845 C844 1.391 . S
C846 H836 0.950 . S
C846 C847 1.386 . S
C846 C848 1.391 . S
C847 C846 1.386 . S
C847 C851 1.393 . S
C848 H837 0.950 . S
C848 C846 1.391 . S
C848 C849 1.400 . S
C849 C843 1.491 . S
C849 C848 1.400 . S
C849 C850 1.398 . S
C850 H838 0.950 . S
C850 C849 1.398 . S
C850 C851 1.391 . S
C851 H839 0.950 . S
C851 C847 1.393 . S
C851 C850 1.391 . S
H852 C860 0.950 1_455 S
H853 C865 0.950 . S
H854 C862 0.950 . S
H855 C864 0.950 . S
H856 C866 0.950 . S
H857 C868 0.950 . S
H858 C870 0.950 . S
H859 C871 0.950 . S
C860 H852 0.950 1_655 S
C860 C861 1.386 . S
C860 C862 1.391 . S
C861 C860 1.386 . S
C861 C865 1.393 . S
C862 H854 0.950 . S
C862 C860 1.391 . S
C862 C863 1.400 . S
C863 C862 1.400 . S
C863 C864 1.398 . S
C863 C869 1.491 . S
C864 H855 0.950 . S
C864 C863 1.398 . S
C864 C865 1.391 . S
C865 H853 0.950 . S
C865 C861 1.393 . S
C865 C864 1.391 . S
C866 H856 0.950 . S
C866 C867 1.386 . S
C866 C868 1.391 . S
C867 C866 1.386 . S
C867 C871 1.393 . S
C868 H857 0.950 . S
C868 C866 1.391 . S
C868 C869 1.400 . S
C869 C863 1.491 . S
C869 C868 1.400 . S
C869 C870 1.398 . S
C870 H858 0.950 . S
C870 C869 1.398 . S
C870 C871 1.391 . S
C871 H859 0.950 . S
C871 C867 1.393 . S
C871 C870 1.391 . S
H872 C880 0.950 . S
H873 C885 0.950 . S
H874 C882 0.950 . S
H875 C884 0.950 . S
H876 C886 0.950 . S
H877 C888 0.950 . S
H878 C890 0.950 . S
H879 C891 0.950 . S
C880 H872 0.950 . S
C880 C881 1.386 . S
C880 C882 1.391 . S
C881 C880 1.386 . S
C881 C885 1.393 . S
C882 H874 0.950 . S
C882 C880 1.391 . S
C882 C883 1.400 . S
C883 C882 1.400 . S
C883 C884 1.398 . S
C883 C889 1.491 . S
C884 H875 0.950 . S
C884 C883 1.398 . S
C884 C885 1.391 . S
C885 H873 0.950 . S
C885 C881 1.393 . S
C885 C884 1.391 . S
C886 H876 0.950 . S
C886 C887 1.386 . S
C886 C888 1.391 . S
C887 C886 1.386 . S
C887 C891 1.393 . S
C888 H877 0.950 . S
C888 C886 1.391 . S
C888 C889 1.400 . S
C889 C883 1.491 . S
C889 C888 1.400 . S
C889 C890 1.398 . S
C890 H878 0.950 . S
C890 C889 1.398 . S
C890 C891 1.391 . S
C891 H879 0.950 . S
C891 C887 1.393 . S
C891 C890 1.391 . S
H892 C900 0.950 . S
H893 C905 0.950 . S
H894 C902 0.950 . S
H895 C904 0.950 . S
H896 C906 0.950 . S
H897 C908 0.950 . S
H898 C910 0.950 . S
H899 C911 0.950 . S
C900 H892 0.950 . S
C900 C901 1.386 . S
C900 C902 1.391 . S
C901 C900 1.386 . S
C901 C905 1.393 . S
C902 H894 0.950 . S
C902 C900 1.391 . S
C902 C903 1.400 . S
C903 C902 1.400 . S
C903 C904 1.398 . S
C903 C909 1.491 . S
C904 H895 0.950 . S
C904 C903 1.398 . S
C904 C905 1.391 . S
C905 H893 0.950 . S
C905 C901 1.393 . S
C905 C904 1.391 . S
C906 H896 0.950 . S
C906 C907 1.386 . S
C906 C908 1.391 . S
C907 C906 1.386 . S
C907 C911 1.393 . S
C908 H897 0.950 . S
C908 C906 1.391 . S
C908 C909 1.400 . S
C909 C903 1.491 . S
C909 C908 1.400 . S
C909 C910 1.398 . S
C910 H898 0.950 . S
C910 C909 1.398 . S
C910 C911 1.391 . S
C911 H899 0.950 . S
C911 C907 1.393 . S
C911 C910 1.391 . S
H912 C920 0.950 . S
H913 C925 0.950 . S
H914 C922 0.950 . S
H915 C924 0.950 . S
H916 C926 0.950 . S
H917 C928 0.950 . S
H918 C930 0.950 . S
H919 C931 0.950 . S
C920 H912 0.950 . S
C920 C921 1.386 . S
C920 C922 1.391 . S
C921 C920 1.386 . S
C921 C925 1.393 . S
C922 H914 0.950 . S
C922 C920 1.391 . S
C922 C923 1.400 . S
C923 C922 1.400 . S
C923 C924 1.398 . S
C923 C929 1.491 . S
C924 H915 0.950 . S
C924 C923 1.398 . S
C924 C925 1.391 . S
C925 H913 0.950 . S
C925 C921 1.393 . S
C925 C924 1.391 . S
C926 H916 0.950 . S
C926 C927 1.386 . S
C926 C928 1.391 . S
C927 C926 1.386 . S
C927 C931 1.393 . S
C928 H917 0.950 . S
C928 C926 1.391 . S
C928 C929 1.400 . S
C929 C923 1.491 . S
C929 C928 1.400 . S
C929 C930 1.398 . S
C930 H918 0.950 . S
C930 C929 1.398 . S
C930 C931 1.391 . S
C931 H919 0.950 . S
C931 C927 1.393 . S
C931 C930 1.391 . S
H932 C940 0.950 . S
H933 C945 0.950 . S
H934 C942 0.950 . S
H935 C944 0.950 . S
H936 C946 0.938 1_545 S
H937 C948 0.954 . S
H938 C950 0.950 . S
H939 C951 0.950 . S
C940 H932 0.950 . S
C940 C941 1.386 . S
C940 C942 1.391 . S
C941 C940 1.386 . S
C941 C945 1.393 . S
C942 H934 0.950 . S
C942 C940 1.391 . S
C942 C943 1.400 . S
C943 C942 1.400 . S
C943 C944 1.398 . S
C943 C949 1.491 . S
C944 H935 0.950 . S
C944 C943 1.398 . S
C944 C945 1.391 . S
C945 H933 0.950 . S
C945 C941 1.393 . S
C945 C944 1.391 . S
C946 H936 0.938 1_565 S
C946 C947 1.394 . S
C946 C948 1.396 . S
C947 C946 1.394 . S
C947 C951 1.393 . S
C948 H937 0.954 . S
C948 C946 1.396 . S
C948 C949 1.400 . S
C949 C943 1.491 . S
C949 C948 1.400 . S
C949 C950 1.398 . S
C950 H938 0.950 . S
C950 C949 1.398 . S
C950 C951 1.391 . S
C951 H939 0.950 . S
C951 C947 1.393 . S
C951 C950 1.391 . S
H952 C960 0.950 . S
H953 C965 0.950 . S
H954 C962 0.950 . S
H955 C964 0.950 . S
H956 C966 0.950 . S
H957 C968 0.950 . S
H958 C970 0.950 . S
H959 C971 0.950 . S
C960 H952 0.950 . S
C960 C961 1.386 . S
C960 C962 1.391 . S
C961 C960 1.386 . S
C961 C965 1.393 . S
C962 H954 0.950 . S
C962 C960 1.391 . S
C962 C963 1.400 . S
C963 C962 1.400 . S
C963 C964 1.398 . S
C963 C969 1.491 . S
C964 H955 0.950 . S
C964 C963 1.398 . S
C964 C965 1.391 . S
C965 H953 0.950 . S
C965 C961 1.393 . S
C965 C964 1.391 . S
C966 H956 0.950 . S
C966 C967 1.386 . S
C966 C968 1.391 . S
C967 C966 1.386 . S
C967 C971 1.393 . S
C968 H957 0.950 . S
C968 C966 1.391 . S
C968 C969 1.400 . S
C969 C963 1.491 . S
C969 C968 1.400 . S
C969 C970 1.398 . S
C970 H958 0.950 . S
C970 C969 1.398 . S
C970 C971 1.391 . S
C971 H959 0.950 . S
C971 C967 1.393 . S
C971 C970 1.391 . S
H972 C980 0.950 . S
H973 C985 0.950 . S
H974 C982 0.950 . S
H975 C984 0.950 . S
H976 C986 0.950 . S
H977 C988 0.950 . S
H978 C990 0.950 . S
H979 C991 0.950 . S
C980 H972 0.950 . S
C980 C981 1.386 . S
C980 C982 1.391 . S
C981 C980 1.386 . S
C981 C985 1.393 . S
C982 H974 0.950 . S
C982 C980 1.391 . S
C982 C983 1.400 . S
C983 C982 1.400 . S
C983 C984 1.398 . S
C983 C989 1.491 . S
C984 H975 0.950 . S
C984 C983 1.398 . S
C984 C985 1.391 . S
C985 H973 0.950 . S
C985 C981 1.393 . S
C985 C984 1.391 . S
C986 H976 0.950 . S
C986 C987 1.386 . S
C986 C988 1.391 . S
C987 C986 1.386 . S
C987 C991 1.393 . S
C988 H977 0.950 . S
C988 C986 1.391 . S
C988 C989 1.400 . S
C989 C983 1.491 . S
C989 C988 1.400 . S
C989 C990 1.398 . S
C990 H978 0.950 . S
C990 C989 1.398 . S
C990 C991 1.391 . S
C991 H979 0.950 . S
C991 C987 1.393 . S
C991 C990 1.391 . S
H992 C1000 0.950 . S
H993 C1005 0.950 . S
H994 C1002 0.950 . S
H995 C1004 0.950 . S
H996 C1006 0.950 . S
H997 C1008 0.950 . S
H998 C1010 0.950 . S
H999 C1011 0.950 . S
C1000 H992 0.950 . S
C1000 C1001 1.386 . S
C1000 C1002 1.391 . S
C1001 C1000 1.386 . S
C1001 C1005 1.393 . S
C1002 H994 0.950 . S
C1002 C1000 1.391 . S
C1002 C1003 1.400 . S
C1003 C1002 1.400 . S
C1003 C1004 1.398 . S
C1003 C1009 1.491 . S
C1004 H995 0.950 . S
C1004 C1003 1.398 . S
C1004 C1005 1.391 . S
C1005 H993 0.950 . S
C1005 C1001 1.393 . S
C1005 C1004 1.391 . S
C1006 H996 0.950 . S
C1006 C1007 1.386 . S
C1006 C1008 1.391 . S
C1007 C1006 1.386 . S
C1007 C1011 1.393 . S
C1008 H997 0.950 . S
C1008 C1006 1.391 . S
C1008 C1009 1.400 . S
C1009 C1003 1.491 . S
C1009 C1008 1.400 . S
C1009 C1010 1.398 . S
C1010 H998 0.950 . S
C1010 C1009 1.398 . S
C1010 C1011 1.391 . S
C1011 H999 0.950 . S
C1011 C1007 1.393 . S
C1011 C1010 1.391 . S
H1012 C1020 0.950 . S
H1013 C1025 0.950 . S
H1014 C1022 0.950 . S
H1015 C1024 0.950 . S
H1016 C1026 0.950 . S
H1017 C1028 0.950 . S
H1018 C1030 0.950 . S
H1019 C1031 0.950 . S
C1020 H1012 0.950 . S
C1020 C1021 1.386 . S
C1020 C1022 1.391 . S
C1021 C1020 1.386 . S
C1021 C1025 1.393 . S
C1022 H1014 0.950 . S
C1022 C1020 1.391 . S
C1022 C1023 1.400 . S
C1023 C1022 1.400 . S
C1023 C1024 1.398 . S
C1023 C1029 1.491 . S
C1024 H1015 0.950 . S
C1024 C1023 1.398 . S
C1024 C1025 1.391 . S
C1025 H1013 0.950 . S
C1025 C1021 1.393 . S
C1025 C1024 1.391 . S
C1026 H1016 0.950 . S
C1026 C1027 1.386 . S
C1026 C1028 1.391 . S
C1027 C1026 1.386 . S
C1027 C1031 1.393 . S
C1028 H1017 0.950 . S
C1028 C1026 1.391 . S
C1028 C1029 1.400 . S
C1029 C1023 1.491 . S
C1029 C1028 1.400 . S
C1029 C1030 1.398 . S
C1030 H1018 0.950 . S
C1030 C1029 1.398 . S
C1030 C1031 1.391 . S
C1031 H1019 0.950 . S
C1031 C1027 1.393 . S
C1031 C1030 1.391 . S
H1032 C1040 0.950 . S
H1033 C1045 0.950 . S
H1034 C1042 0.950 . S
H1035 C1044 0.950 . S
H1036 C1046 0.950 . S
H1037 C1048 0.950 . S
H1038 C1050 0.950 . S
H1039 C1051 0.950 . S
C1040 H1032 0.950 . S
C1040 C1041 1.386 . S
C1040 C1042 1.391 . S
C1041 C1040 1.386 . S
C1041 C1045 1.393 . S
C1042 H1034 0.950 . S
C1042 C1040 1.391 . S
C1042 C1043 1.400 . S
C1043 C1042 1.400 . S
C1043 C1044 1.398 . S
C1043 C1049 1.491 . S
C1044 H1035 0.950 . S
C1044 C1043 1.398 . S
C1044 C1045 1.391 . S
C1045 H1033 0.950 . S
C1045 C1041 1.393 . S
C1045 C1044 1.391 . S
C1046 H1036 0.950 . S
C1046 C1047 1.386 . S
C1046 C1048 1.391 . S
C1047 C1046 1.386 . S
C1047 C1051 1.393 . S
C1048 H1037 0.950 . S
C1048 C1046 1.391 . S
C1048 C1049 1.400 . S
C1049 C1043 1.491 . S
C1049 C1048 1.400 . S
C1049 C1050 1.398 . S
C1050 H1038 0.950 . S
C1050 C1049 1.398 . S
C1050 C1051 1.391 . S
C1051 H1039 0.950 . S
C1051 C1047 1.393 . S
C1051 C1050 1.391 . S
H1052 C1060 0.950 . S
H1053 C1065 0.950 . S
H1054 C1062 0.950 . S
H1055 C1064 0.950 . S
H1056 C1066 0.950 1_655 S
H1057 C1068 0.950 . S
H1058 C1070 0.950 . S
H1059 C1071 0.950 . S
C1060 H1052 0.950 . S
C1060 C1061 1.386 . S
C1060 C1062 1.391 . S
C1061 C1060 1.386 . S
C1061 C1065 1.393 . S
C1062 H1054 0.950 . S
C1062 C1060 1.391 . S
C1062 C1063 1.400 . S
C1063 C1062 1.400 . S
C1063 C1064 1.398 . S
C1063 C1069 1.491 . S
C1064 H1055 0.950 . S
C1064 C1063 1.398 . S
C1064 C1065 1.391 . S
C1065 H1053 0.950 . S
C1065 C1061 1.393 . S
C1065 C1064 1.391 . S
C1066 H1056 0.950 1_455 S
C1066 C1067 1.386 . S
C1066 C1068 1.391 . S
C1067 C1066 1.386 . S
C1067 C1071 1.393 . S
C1068 H1057 0.950 . S
C1068 C1066 1.391 . S
C1068 C1069 1.400 . S
C1069 C1063 1.491 . S
C1069 C1068 1.400 . S
C1069 C1070 1.398 . S
C1070 H1058 0.950 . S
C1070 C1069 1.398 . S
C1070 C1071 1.391 . S
C1071 H1059 0.950 . S
C1071 C1067 1.393 . S
C1071 C1070 1.391 . S
H1072 C1080 0.950 . S
H1073 C1085 0.950 . S
H1074 C1082 0.950 . S
H1075 C1084 0.950 . S
H1076 C1086 0.950 . S
H1077 C1088 0.950 . S
H1078 C1090 0.950 . S
H1079 C1091 0.950 . S
C1080 H1072 0.950 . S
C1080 C1081 1.386 . S
C1080 C1082 1.391 . S
C1081 C1080 1.386 . S
C1081 C1085 1.393 . S
C1082 H1074 0.950 . S
C1082 C1080 1.391 . S
C1082 C1083 1.400 . S
C1083 C1082 1.400 . S
C1083 C1084 1.398 . S
C1083 C1089 1.491 . S
C1084 H1075 0.950 . S
C1084 C1083 1.398 . S
C1084 C1085 1.391 . S
C1085 H1073 0.950 . S
C1085 C1081 1.393 . S
C1085 C1084 1.391 . S
C1086 H1076 0.950 . S
C1086 C1087 1.386 . S
C1086 C1088 1.391 . S
C1087 C1086 1.386 . S
C1087 C1091 1.393 . S
C1088 H1077 0.950 . S
C1088 C1086 1.391 . S
C1088 C1089 1.400 . S
C1089 C1083 1.491 . S
C1089 C1088 1.400 . S
C1089 C1090 1.398 . S
C1090 H1078 0.950 . S
C1090 C1089 1.398 . S
C1090 C1091 1.391 . S
C1091 H1079 0.950 . S
C1091 C1087 1.393 . S
C1091 C1090 1.391 . S
H1092 C1100 0.950 1_455 S
H1093 C1105 0.950 . S
H1094 C1102 0.950 1_455 S
H1095 C1104 0.950 . S
H1096 C1106 0.950 . S
H1097 C1108 0.950 . S
H1098 C1110 0.950 . S
H1099 C1111 0.950 . S
C1100 H1092 0.950 1_655 S
C1100 C1101 1.386 . S
C1100 C1102 1.391 . S
C1101 C1100 1.386 . S
C1101 C1105 1.393 . S
C1102 H1094 0.950 1_655 S
C1102 C1100 1.391 . S
C1102 C1103 1.400 . S
C1103 C1102 1.400 . S
C1103 C1104 1.398 . S
C1103 C1109 1.491 . S
C1104 H1095 0.950 . S
C1104 C1103 1.398 . S
C1104 C1105 1.391 . S
C1105 H1093 0.950 . S
C1105 C1101 1.393 . S
C1105 C1104 1.391 . S
C1106 H1096 0.950 . S
C1106 C1107 1.386 . S
C1106 C1108 1.391 . S
C1107 C1106 1.386 . S
C1107 C1111 1.393 1_655 S
C1108 H1097 0.950 . S
C1108 C1106 1.391 . S
C1108 C1109 1.400 . S
C1109 C1103 1.491 . S
C1109 C1108 1.400 . S
C1109 C1110 1.398 1_655 S
C1110 H1098 0.950 . S
C1110 C1109 1.398 1_455 S
C1110 C1111 1.391 . S
C1111 H1099 0.950 . S
C1111 C1107 1.393 1_455 S
C1111 C1110 1.391 . S
H1112 C1120 0.950 . S
H1113 C1125 0.950 . S
H1114 C1122 0.950 . S
H1115 C1124 0.950 . S
H1116 C1126 0.950 . S
H1117 C1128 0.950 . S
H1118 C1130 0.950 . S
H1119 C1131 0.950 . S
C1120 H1112 0.950 . S
C1120 C1121 1.386 . S
C1120 C1122 1.391 . S
C1121 C1120 1.386 . S
C1121 C1125 1.393 . S
C1122 H1114 0.950 . S
C1122 C1120 1.391 . S
C1122 C1123 1.400 . S
C1123 C1122 1.400 . S
C1123 C1124 1.398 . S
C1123 C1129 1.491 . S
C1124 H1115 0.950 . S
C1124 C1123 1.398 . S
C1124 C1125 1.391 . S
C1125 H1113 0.950 . S
C1125 C1121 1.393 . S
C1125 C1124 1.391 . S
C1126 H1116 0.950 . S
C1126 C1127 1.386 . S
C1126 C1128 1.391 . S
C1127 C1126 1.386 . S
C1127 C1131 1.393 . S
C1128 H1117 0.950 . S
C1128 C1126 1.391 . S
C1128 C1129 1.400 . S
C1129 C1123 1.491 . S
C1129 C1128 1.400 . S
C1129 C1130 1.398 . S
C1130 H1118 0.950 . S
C1130 C1129 1.398 . S
C1130 C1131 1.391 . S
C1131 H1119 0.950 . S
C1131 C1127 1.393 . S
C1131 C1130 1.391 . S
H1132 C1140 0.950 . S
H1133 C1145 0.950 . S
H1134 C1142 0.950 . S
H1135 C1144 0.950 . S
H1136 C1146 0.950 . S
H1137 C1148 0.950 . S
H1138 C1150 0.950 . S
H1139 C1151 0.950 . S
C1140 H1132 0.950 . S
C1140 C1141 1.386 . S
C1140 C1142 1.391 . S
C1141 C1140 1.386 . S
C1141 C1145 1.393 . S
C1142 H1134 0.950 . S
C1142 C1140 1.391 . S
C1142 C1143 1.400 . S
C1143 C1142 1.400 . S
C1143 C1144 1.398 . S
C1143 C1149 1.491 . S
C1144 H1135 0.950 . S
C1144 C1143 1.398 . S
C1144 C1145 1.391 . S
C1145 H1133 0.950 . S
C1145 C1141 1.393 . S
C1145 C1144 1.391 . S
C1146 H1136 0.950 . S
C1146 C1147 1.386 . S
C1146 C1148 1.391 . S
C1147 C1146 1.386 . S
C1147 C1151 1.393 . S
C1148 H1137 0.950 . S
C1148 C1146 1.391 . S
C1148 C1149 1.400 . S
C1149 C1143 1.491 . S
C1149 C1148 1.400 . S
C1149 C1150 1.398 . S
C1150 H1138 0.950 . S
C1150 C1149 1.398 . S
C1150 C1151 1.391 . S
C1151 H1139 0.950 . S
C1151 C1147 1.393 . S
C1151 C1150 1.391 . S
H1152 C1160 0.950 1_545 S
H1153 C1165 0.950 . S
H1154 C1162 0.950 . S
H1155 C1164 0.950 . S
H1156 C1166 0.950 1_554 S
H1157 C1168 0.950 . S
H1158 C1170 0.950 . S
H1159 C1171 0.950 . S
C1160 H1152 0.950 1_565 S
C1160 C1161 1.386 . S
C1160 C1162 1.391 . S
C1161 C1160 1.386 . S
C1161 C1165 1.393 . S
C1162 H1154 0.950 . S
C1162 C1160 1.391 . S
C1162 C1163 1.400 . S
C1163 C1162 1.400 . S
C1163 C1164 1.398 . S
C1163 C1169 1.491 . S
C1164 H1155 0.950 . S
C1164 C1163 1.398 . S
C1164 C1165 1.391 . S
C1165 H1153 0.950 . S
C1165 C1161 1.393 . S
C1165 C1164 1.391 . S
C1166 H1156 0.950 1_556 S
C1166 C1167 1.386 . S
C1166 C1168 1.391 . S
C1167 C1166 1.386 . S
C1167 C1171 1.393 . S
C1168 H1157 0.950 . S
C1168 C1166 1.391 . S
C1168 C1169 1.400 . S
C1169 C1163 1.491 . S
C1169 C1168 1.400 . S
C1169 C1170 1.398 . S
C1170 H1158 0.950 . S
C1170 C1169 1.398 . S
C1170 C1171 1.391 . S
C1171 H1159 0.950 . S
C1171 C1167 1.393 . S
C1171 C1170 1.391 . S
H1172 C1180 0.950 . S
H1173 C1185 0.950 . S
H1174 C1182 0.950 . S
H1175 C1184 0.950 . S
H1176 C1186 0.950 . S
H1177 C1188 0.950 . S
H1178 C1190 0.950 . S
H1179 C1191 0.950 . S
C1180 H1172 0.950 . S
C1180 C1181 1.386 . S
C1180 C1182 1.391 . S
C1181 C1180 1.386 . S
C1181 C1185 1.393 . S
C1182 H1174 0.950 . S
C1182 C1180 1.391 . S
C1182 C1183 1.400 . S
C1183 C1182 1.400 . S
C1183 C1184 1.398 . S
C1183 C1189 1.491 . S
C1184 H1175 0.950 . S
C1184 C1183 1.398 . S
C1184 C1185 1.391 . S
C1185 H1173 0.950 . S
C1185 C1181 1.393 . S
C1185 C1184 1.391 . S
C1186 H1176 0.950 . S
C1186 C1187 1.386 . S
C1186 C1188 1.391 . S
C1187 C1186 1.386 . S
C1187 C1191 1.393 . S
C1188 H1177 0.950 . S
C1188 C1186 1.391 . S
C1188 C1189 1.400 . S
C1189 C1183 1.491 . S
C1189 C1188 1.400 . S
C1189 C1190 1.398 . S
C1190 H1178 0.950 . S
C1190 C1189 1.398 . S
C1190 C1191 1.391 . S
C1191 H1179 0.950 . S
C1191 C1187 1.393 . S
C1191 C1190 1.391 . S
H1192 C1200 0.950 . S
H1193 C1205 0.950 . S
H1194 C1202 0.950 . S
H1195 C1204 0.950 . S
H1196 C1206 0.950 . S
H1197 C1208 0.950 . S
H1198 C1210 0.950 . S
H1199 C1211 0.950 . S
C1200 H1192 0.950 . S
C1200 C1201 1.386 . S
C1200 C1202 1.391 . S
C1201 C1200 1.386 . S
C1201 C1205 1.393 . S
C1202 H1194 0.950 . S
C1202 C1200 1.391 . S
C1202 C1203 1.400 . S
C1203 C1202 1.400 . S
C1203 C1204 1.398 . S
C1203 C1209 1.491 . S
C1204 H1195 0.950 . S
C1204 C1203 1.398 . S
C1204 C1205 1.391 . S
C1205 H1193 0.950 . S
C1205 C1201 1.393 . S
C1205 C1204 1.391 . S
C1206 H1196 0.950 . S
C1206 C1207 1.386 . S
C1206 C1208 1.391 . S
C1207 C1206 1.386 . S
C1207 C1211 1.393 . S
C1208 H1197 0.950 . S
C1208 C1206 1.391 . S
C1208 C1209 1.400 . S
C1209 C1203 1.491 . S
C1209 C1208 1.400 . S
C1209 C1210 1.398 . S
C1210 H1198 0.950 . S
C1210 C1209 1.398 . S
C1210 C1211 1.391 . S
C1211 H1199 0.950 . S
C1211 C1207 1.393 . S
C1211 C1210 1.391 . S
H1212 C1220 0.950 . S
H1213 C1225 0.950 . S
H1214 C1222 0.950 . S
H1215 C1224 0.950 . S
H1216 C1226 0.950 . S
H1217 C1228 0.950 . S
H1218 C1230 0.950 . S
H1219 C1231 0.950 . S
C1220 H1212 0.950 . S
C1220 C1221 1.386 . S
C1220 C1222 1.391 . S
C1221 C1220 1.386 . S
C1221 C1225 1.393 . S
C1222 H1214 0.950 . S
C1222 C1220 1.391 . S
C1222 C1223 1.400 . S
C1223 C1222 1.400 . S
C1223 C1224 1.398 . S
C1223 C1229 1.491 . S
C1224 H1215 0.950 . S
C1224 C1223 1.398 . S
C1224 C1225 1.391 . S
C1225 H1213 0.950 . S
C1225 C1221 1.393 . S
C1225 C1224 1.391 . S
C1226 H1216 0.950 . S
C1226 C1227 1.386 . S
C1226 C1228 1.391 . S
C1227 C1226 1.386 . S
C1227 C1231 1.393 . S
C1228 H1217 0.950 . S
C1228 C1226 1.391 . S
C1228 C1229 1.400 . S
C1229 C1223 1.491 . S
C1229 C1228 1.400 . S
C1229 C1230 1.398 . S
C1230 H1218 0.950 . S
C1230 C1229 1.398 . S
C1230 C1231 1.391 . S
C1231 H1219 0.950 . S
C1231 C1227 1.393 . S
C1231 C1230 1.391 . S
H1232 C1240 0.950 . S
H1233 C1245 0.950 . S
H1234 C1242 0.950 . S
H1235 C1244 0.950 . S
H1236 C1246 0.950 . S
H1237 C1248 0.950 . S
H1238 C1250 0.950 . S
H1239 C1251 0.950 . S
C1240 H1232 0.950 . S
C1240 C1241 1.386 . S
C1240 C1242 1.391 . S
C1241 C1240 1.386 . S
C1241 C1245 1.393 . S
C1242 H1234 0.950 . S
C1242 C1240 1.391 . S
C1242 C1243 1.400 . S
C1243 C1242 1.400 . S
C1243 C1244 1.398 . S
C1243 C1249 1.491 . S
C1244 H1235 0.950 . S
C1244 C1243 1.398 . S
C1244 C1245 1.391 . S
C1245 H1233 0.950 . S
C1245 C1241 1.393 . S
C1245 C1244 1.391 . S
C1246 H1236 0.950 . S
C1246 C1247 1.386 . S
C1246 C1248 1.391 . S
C1247 C1246 1.386 . S
C1247 C1251 1.393 . S
C1248 H1237 0.950 . S
C1248 C1246 1.391 . S
C1248 C1249 1.400 . S
C1249 C1243 1.491 . S
C1249 C1248 1.400 . S
C1249 C1250 1.398 . S
C1250 H1238 0.950 . S
C1250 C1249 1.398 . S
C1250 C1251 1.391 . S
C1251 H1239 0.950 . S
C1251 C1247 1.393 . S
C1251 C1250 1.391 . S
H1252 C1260 0.950 . S
H1253 C1265 0.950 . S
H1254 C1262 0.950 . S
H1255 C1264 0.950 . S
H1256 C1266 0.950 . S
H1257 C1268 0.950 . S
H1258 C1270 0.950 . S
H1259 C1271 0.950 . S
C1260 H1252 0.950 . S
C1260 C1261 1.386 . S
C1260 C1262 1.391 . S
C1261 C1260 1.386 . S
C1261 C1265 1.393 . S
C1262 H1254 0.950 . S
C1262 C1260 1.391 . S
C1262 C1263 1.400 . S
C1263 C1262 1.400 . S
C1263 C1264 1.398 . S
C1263 C1269 1.491 . S
C1264 H1255 0.950 . S
C1264 C1263 1.398 . S
C1264 C1265 1.391 . S
C1265 H1253 0.950 . S
C1265 C1261 1.393 . S
C1265 C1264 1.391 . S
C1266 H1256 0.950 . S
C1266 C1267 1.386 . S
C1266 C1268 1.391 . S
C1267 C1266 1.386 . S
C1267 C1271 1.393 . S
C1268 H1257 0.950 . S
C1268 C1266 1.391 . S
C1268 C1269 1.400 . S
C1269 C1263 1.491 . S
C1269 C1268 1.400 . S
C1269 C1270 1.398 . S
C1270 H1258 0.950 . S
C1270 C1269 1.398 . S
C1270 C1271 1.391 . S
C1271 H1259 0.950 . S
C1271 C1267 1.393 . S
C1271 C1270 1.391 . S
H1272 C1280 0.950 . S
H1273 C1285 0.950 . S
H1274 C1282 0.950 . S
H1275 C1284 0.950 . S
H1276 C1286 0.950 . S
H1277 C1288 0.950 . S
H1278 C1290 0.950 . S
H1279 C1291 0.950 . S
C1280 H1272 0.950 . S
C1280 C1281 1.386 . S
C1280 C1282 1.391 . S
C1281 C1280 1.386 . S
C1281 C1285 1.393 . S
C1282 H1274 0.950 . S
C1282 C1280 1.391 . S
C1282 C1283 1.400 . S
C1283 C1282 1.400 . S
C1283 C1284 1.398 . S
C1283 C1289 1.491 . S
C1284 H1275 0.950 . S
C1284 C1283 1.398 . S
C1284 C1285 1.391 . S
C1285 H1273 0.950 . S
C1285 C1281 1.393 . S
C1285 C1284 1.391 . S
C1286 H1276 0.950 . S
C1286 C1287 1.386 . S
C1286 C1288 1.391 . S
C1287 C1286 1.386 . S
C1287 C1291 1.393 . S
C1288 H1277 0.950 . S
C1288 C1286 1.391 . S
C1288 C1289 1.400 . S
C1289 C1283 1.491 . S
C1289 C1288 1.400 . S
C1289 C1290 1.398 . S
C1290 H1278 0.950 . S
C1290 C1289 1.398 . S
C1290 C1291 1.391 . S
C1291 H1279 0.950 . S
C1291 C1287 1.393 . S
C1291 C1290 1.391 . S
H1292 C1300 0.950 . S
H1293 C1305 0.950 . S
H1294 C1302 0.950 . S
H1295 C1304 0.950 . S
H1296 C1306 0.950 . S
H1297 C1308 0.950 . S
H1298 C1310 0.950 . S
H1299 C1311 0.950 . S
C1300 H1292 0.950 . S
C1300 C1301 1.386 . S
C1300 C1302 1.391 . S
C1301 C1300 1.386 . S
C1301 C1305 1.393 . S
C1302 H1294 0.950 . S
C1302 C1300 1.391 . S
C1302 C1303 1.400 . S
C1303 C1302 1.400 . S
C1303 C1304 1.398 . S
C1303 C1309 1.491 . S
C1304 H1295 0.950 . S
C1304 C1303 1.398 . S
C1304 C1305 1.391 . S
C1305 H1293 0.950 . S
C1305 C1301 1.393 . S
C1305 C1304 1.391 . S
C1306 H1296 0.950 . S
C1306 C1307 1.386 . S
C1306 C1308 1.391 . S
C1307 C1306 1.386 . S
C1307 C1311 1.393 . S
C1308 H1297 0.950 . S
C1308 C1306 1.391 . S
C1308 C1309 1.400 . S
C1309 C1303 1.491 . S
C1309 C1308 1.400 . S
C1309 C1310 1.398 . S
C1310 H1298 0.950 . S
C1310 C1309 1.398 . S
C1310 C1311 1.391 . S
C1311 H1299 0.950 . S
C1311 C1307 1.393 . S
C1311 C1310 1.391 . S
H1312 C1320 0.950 . S
H1313 C1325 0.950 . S
H1314 C1322 0.950 . S
H1315 C1324 0.950 . S
H1316 C1326 0.950 . S
H1317 C1328 0.950 . S
H1318 C1330 0.950 . S
H1319 C1331 0.950 . S
C1320 H1312 0.950 . S
C1320 C1321 1.386 . S
C1320 C1322 1.391 . S
C1321 C1320 1.386 . S
C1321 C1325 1.393 . S
C1322 H1314 0.950 . S
C1322 C1320 1.391 . S
C1322 C1323 1.400 . S
C1323 C1322 1.400 . S
C1323 C1324 1.398 . S
C1323 C1329 1.491 . S
C1324 H1315 0.950 . S
C1324 C1323 1.398 . S
C1324 C1325 1.391 . S
C1325 H1313 0.950 . S
C1325 C1321 1.393 . S
C1325 C1324 1.391 . S
C1326 H1316 0.950 . S
C1326 C1327 1.386 . S
C1326 C1328 1.391 . S
C1327 C1326 1.386 . S
C1327 C1331 1.393 . S
C1328 H1317 0.950 . S
C1328 C1326 1.391 . S
C1328 C1329 1.400 . S
C1329 C1323 1.491 . S
C1329 C1328 1.400 . S
C1329 C1330 1.398 . S
C1330 H1318 0.950 . S
C1330 C1329 1.398 . S
C1330 C1331 1.391 . S
C1331 H1319 0.950 . S
C1331 C1327 1.393 . S
C1331 C1330 1.391 . S
H1332 C1340 0.950 . S
H1333 C1345 0.950 . S
H1334 C1342 0.950 . S
H1335 C1344 0.950 . S
H1336 C1346 0.950 . S
H1337 C1348 0.950 . S
H1338 C1350 0.950 . S
H1339 C1351 0.950 . S
C1340 H1332 0.950 . S
C1340 C1341 1.386 . S
C1340 C1342 1.391 . S
C1341 C1340 1.386 . S
C1341 C1345 1.393 . S
C1342 H1334 0.950 . S
C1342 C1340 1.391 . S
C1342 C1343 1.400 . S
C1343 C1342 1.400 . S
C1343 C1344 1.398 . S
C1343 C1349 1.491 . S
C1344 H1335 0.950 . S
C1344 C1343 1.398 . S
C1344 C1345 1.391 . S
C1345 H1333 0.950 . S
C1345 C1341 1.393 . S
C1345 C1344 1.391 . S
C1346 H1336 0.950 . S
C1346 C1347 1.386 . S
C1346 C1348 1.391 . S
C1347 C1346 1.386 . S
C1347 C1351 1.393 . S
C1348 H1337 0.950 . S
C1348 C1346 1.391 . S
C1348 C1349 1.400 . S
C1349 C1343 1.491 . S
C1349 C1348 1.400 . S
C1349 C1350 1.398 . S
C1350 H1338 0.950 . S
C1350 C1349 1.398 . S
C1350 C1351 1.391 . S
C1351 H1339 0.950 . S
C1351 C1347 1.393 . S
C1351 C1350 1.391 . S
H1352 C1360 0.950 . S
H1353 C1365 0.950 . S
H1354 C1362 0.950 . S
H1355 C1364 0.950 . S
H1356 C1366 0.950 . S
H1357 C1368 0.950 . S
H1358 C1370 0.950 . S
H1359 C1371 0.950 . S
C1360 H1352 0.950 . S
C1360 C1361 1.386 . S
C1360 C1362 1.391 . S
C1361 C1360 1.386 . S
C1361 C1365 1.393 . S
C1362 H1354 0.950 . S
C1362 C1360 1.391 . S
C1362 C1363 1.400 . S
C1363 C1362 1.400 . S
C1363 C1364 1.398 . S
C1363 C1369 1.491 . S
C1364 H1355 0.950 . S
C1364 C1363 1.398 . S
C1364 C1365 1.391 . S
C1365 H1353 0.950 . S
C1365 C1361 1.393 . S
C1365 C1364 1.391 . S
C1366 H1356 0.950 . S
C1366 C1367 1.386 . S
C1366 C1368 1.391 . S
C1367 C1366 1.386 . S
C1367 C1371 1.393 . S
C1368 H1357 0.950 . S
C1368 C1366 1.391 . S
C1368 C1369 1.400 . S
C1369 C1363 1.491 . S
C1369 C1368 1.400 . S
C1369 C1370 1.398 . S
C1370 H1358 0.950 . S
C1370 C1369 1.398 . S
C1370 C1371 1.391 . S
C1371 H1359 0.950 . S
C1371 C1367 1.393 . S
C1371 C1370 1.391 . S
H1372 C1380 0.950 . S
H1373 C1385 0.950 . S
H1374 C1382 0.950 . S
H1375 C1384 0.950 . S
H1376 C1386 0.950 . S
H1377 C1388 0.950 . S
H1378 C1390 0.950 . S
H1379 C1391 0.950 1_565 S
C1380 H1372 0.950 . S
C1380 C1381 1.386 . S
C1380 C1382 1.391 . S
C1381 C1380 1.386 . S
C1381 C1385 1.393 . S
C1382 H1374 0.950 . S
C1382 C1380 1.391 . S
C1382 C1383 1.400 . S
C1383 C1382 1.400 . S
C1383 C1384 1.398 . S
C1383 C1389 1.491 . S
C1384 H1375 0.950 . S
C1384 C1383 1.398 . S
C1384 C1385 1.391 . S
C1385 H1373 0.950 . S
C1385 C1381 1.393 . S
C1385 C1384 1.391 . S
C1386 H1376 0.950 . S
C1386 C1387 1.386 . S
C1386 C1388 1.391 . S
C1387 C1386 1.386 . S
C1387 C1391 1.393 . S
C1388 H1377 0.950 . S
C1388 C1386 1.391 . S
C1388 C1389 1.400 . S
C1389 C1383 1.491 . S
C1389 C1388 1.400 . S
C1389 C1390 1.398 . S
C1390 H1378 0.950 . S
C1390 C1389 1.398 . S
C1390 C1391 1.391 . S
C1391 H1379 0.950 1_545 S
C1391 C1387 1.393 . S
C1391 C1390 1.391 . S
H1392 C1400 0.950 . S
H1393 C1405 0.950 . S
H1394 C1402 0.950 . S
H1395 C1404 0.950 . S
H1396 C1406 0.950 . S
H1397 C1408 0.950 . S
H1398 C1410 0.950 . S
H1399 C1411 0.950 . S
C1400 H1392 0.950 . S
C1400 C1401 1.386 . S
C1400 C1402 1.391 . S
C1401 C1400 1.386 . S
C1401 C1405 1.393 . S
C1402 H1394 0.950 . S
C1402 C1400 1.391 . S
C1402 C1403 1.400 . S
C1403 C1402 1.400 . S
C1403 C1404 1.398 . S
C1403 C1409 1.491 . S
C1404 H1395 0.950 . S
C1404 C1403 1.398 . S
C1404 C1405 1.391 . S
C1405 H1393 0.950 . S
C1405 C1401 1.393 . S
C1405 C1404 1.391 . S
C1406 H1396 0.950 . S
C1406 C1407 1.386 . S
C1406 C1408 1.391 . S
C1407 C1406 1.386 . S
C1407 C1411 1.393 . S
C1408 H1397 0.950 . S
C1408 C1406 1.391 . S
C1408 C1409 1.400 . S
C1409 C1403 1.491 . S
C1409 C1408 1.400 . S
C1409 C1410 1.398 . S
C1410 H1398 0.950 . S
C1410 C1409 1.398 . S
C1410 C1411 1.391 . S
C1411 H1399 0.950 . S
C1411 C1407 1.393 . S
C1411 C1410 1.391 . S
H1412 C1420 0.950 . S
H1413 C1425 0.924 1_655 S
H1414 C1422 0.950 . S
H1415 C1424 0.950 . S
H1416 C1426 0.950 . S
H1417 C1428 0.950 . S
H1418 C1430 0.950 . S
H1419 C1431 0.950 . S
C1420 H1412 0.950 . S
C1420 C1421 1.386 . S
C1420 C1422 1.391 . S
C1421 C1420 1.386 . S
C1421 C1425 1.393 . S
C1422 H1414 0.950 . S
C1422 C1420 1.391 . S
C1422 C1423 1.400 . S
C1423 C1422 1.400 . S
C1423 C1424 1.398 . S
C1423 C1429 1.491 . S
C1424 H1415 0.950 . S
C1424 C1423 1.398 . S
C1424 C1425 1.391 . S
C1425 H1413 0.924 1_455 S
C1425 C1421 1.393 . S
C1425 C1424 1.391 . S
C1426 H1416 0.950 . S
C1426 C1427 1.386 . S
C1426 C1428 1.391 . S
C1427 C1426 1.386 . S
C1427 C1431 1.393 . S
C1428 H1417 0.950 . S
C1428 C1426 1.391 . S
C1428 C1429 1.400 . S
C1429 C1423 1.491 . S
C1429 C1428 1.400 . S
C1429 C1430 1.398 . S
C1430 H1418 0.950 . S
C1430 C1429 1.398 . S
C1430 C1431 1.391 . S
C1431 H1419 0.950 . S
C1431 C1427 1.393 . S
C1431 C1430 1.391 . S
H1432 C1440 0.950 . S
H1433 C1445 0.950 . S
H1434 C1442 0.950 . S
H1435 C1444 0.950 . S
H1436 C1446 0.950 . S
H1437 C1448 0.950 . S
H1438 C1450 0.950 . S
H1439 C1451 0.950 . S
C1440 H1432 0.950 . S
C1440 C1441 1.386 . S
C1440 C1442 1.391 . S
C1441 C1440 1.386 . S
C1441 C1445 1.393 . S
C1442 H1434 0.950 . S
C1442 C1440 1.391 . S
C1442 C1443 1.400 . S
C1443 C1442 1.400 . S
C1443 C1444 1.398 . S
C1443 C1449 1.491 . S
C1444 H1435 0.950 . S
C1444 C1443 1.398 . S
C1444 C1445 1.391 . S
C1445 H1433 0.950 . S
C1445 C1441 1.393 . S
C1445 C1444 1.391 . S
C1446 H1436 0.950 . S
C1446 C1447 1.386 . S
C1446 C1448 1.391 . S
C1447 C1446 1.386 . S
C1447 C1451 1.393 . S
C1448 H1437 0.950 . S
C1448 C1446 1.391 . S
C1448 C1449 1.400 . S
C1449 C1443 1.491 . S
C1449 C1448 1.400 . S
C1449 C1450 1.398 . S
C1450 H1438 0.950 . S
C1450 C1449 1.398 . S
C1450 C1451 1.391 . S
C1451 H1439 0.950 . S
C1451 C1447 1.393 . S
C1451 C1450 1.391 . S
H1452 C1460 0.950 . S
H1453 C1465 0.950 . S
H1454 C1462 0.950 1_455 S
H1455 C1464 0.950 . S
H1456 C1466 0.950 . S
H1457 C1468 0.950 . S
H1458 C1470 0.914 1_455 S
H1459 C1471 0.950 . S
C1460 H1452 0.950 . S
C1460 C1461 1.386 . S
C1460 C1462 1.391 . S
C1461 C1460 1.386 . S
C1461 C1465 1.393 . S
C1462 H1454 0.950 1_655 S
C1462 C1460 1.391 . S
C1462 C1463 1.400 . S
C1463 C1462 1.400 . S
C1463 C1464 1.398 . S
C1463 C1469 1.491 . S
C1464 H1455 0.950 . S
C1464 C1463 1.398 . S
C1464 C1465 1.391 . S
C1465 H1453 0.950 . S
C1465 C1461 1.393 . S
C1465 C1464 1.391 . S
C1466 H1456 0.950 . S
C1466 C1467 1.386 . S
C1466 C1468 1.391 . S
C1467 C1466 1.386 . S
C1467 C1471 1.393 1_655 S
C1468 H1457 0.950 . S
C1468 C1466 1.391 . S
C1468 C1469 1.400 . S
C1469 C1463 1.491 . S
C1469 C1468 1.400 . S
C1469 C1470 1.447 . S
C1470 H1458 0.914 1_655 S
C1470 C1469 1.447 . S
C1470 C1471 1.378 1_655 S
C1471 H1459 0.950 . S
C1471 C1467 1.393 1_455 S
C1471 C1470 1.378 1_455 S
H1472 C1480 0.950 . S
H1473 C1485 0.950 . S
H1474 C1482 0.950 . S
H1475 C1484 0.950 . S
H1476 C1486 0.950 . S
H1477 C1488 0.950 . S
H1478 C1490 0.950 . S
H1479 C1491 0.950 . S
C1480 H1472 0.950 . S
C1480 C1481 1.386 . S
C1480 C1482 1.391 . S
C1481 C1480 1.386 . S
C1481 C1485 1.393 . S
C1482 H1474 0.950 . S
C1482 C1480 1.391 . S
C1482 C1483 1.400 . S
C1483 C1482 1.400 . S
C1483 C1484 1.398 . S
C1483 C1489 1.491 . S
C1484 H1475 0.950 . S
C1484 C1483 1.398 . S
C1484 C1485 1.391 . S
C1485 H1473 0.950 . S
C1485 C1481 1.393 . S
C1485 C1484 1.391 . S
C1486 H1476 0.950 . S
C1486 C1487 1.386 . S
C1486 C1488 1.391 . S
C1487 C1486 1.386 . S
C1487 C1491 1.393 . S
C1488 H1477 0.950 . S
C1488 C1486 1.391 . S
C1488 C1489 1.400 . S
C1489 C1483 1.491 . S
C1489 C1488 1.400 . S
C1489 C1490 1.398 . S
C1490 H1478 0.950 . S
C1490 C1489 1.398 . S
C1490 C1491 1.391 . S
C1491 H1479 0.950 . S
C1491 C1487 1.393 . S
C1491 C1490 1.391 . S
H1492 C1500 0.950 . S
H1493 C1505 0.950 1_655 S
H1494 C1502 0.950 . S
H1495 C1504 0.950 1_655 S
H1496 C1506 0.950 . S
H1497 C1508 0.938 1_655 S
H1498 C1510 0.950 . S
H1499 C1511 0.950 . S
C1500 H1492 0.950 . S
C1500 C1501 1.386 . S
C1500 C1502 1.391 . S
C1501 C1500 1.386 . S
C1501 C1505 1.393 . S
C1502 H1494 0.950 . S
C1502 C1500 1.391 . S
C1502 C1503 1.400 . S
C1503 C1502 1.400 . S
C1503 C1504 1.398 . S
C1503 C1509 1.491 . S
C1504 H1495 0.950 1_455 S
C1504 C1503 1.398 . S
C1504 C1505 1.391 . S
C1505 H1493 0.950 1_455 S
C1505 C1501 1.393 . S
C1505 C1504 1.391 . S
C1506 H1496 0.950 . S
C1506 C1507 1.386 1_655 S
C1506 C1508 1.389 1_655 S
C1507 C1506 1.386 1_455 S
C1507 C1511 1.393 . S
C1508 H1497 0.938 1_455 S
C1508 C1506 1.389 1_455 S
C1508 C1509 1.414 . S
C1509 C1503 1.491 . S
C1509 C1508 1.414 . S
C1509 C1510 1.398 . S
C1510 H1498 0.950 . S
C1510 C1509 1.398 . S
C1510 C1511 1.391 . S
C1511 H1499 0.950 . S
C1511 C1507 1.393 . S
C1511 C1510 1.391 . S
H1512 C1520 0.950 . S
H1513 C1525 0.950 . S
H1514 C1522 0.950 . S
H1515 C1524 0.950 . S
H1516 C1526 0.950 . S
H1517 C1528 0.950 . S
H1518 C1530 0.950 . S
H1519 C1531 0.950 . S
C1520 H1512 0.950 . S
C1520 C1521 1.386 . S
C1520 C1522 1.391 . S
C1521 C1520 1.386 . S
C1521 C1525 1.393 . S
C1522 H1514 0.950 . S
C1522 C1520 1.391 . S
C1522 C1523 1.400 . S
C1523 C1522 1.400 . S
C1523 C1524 1.398 . S
C1523 C1529 1.491 . S
C1524 H1515 0.950 . S
C1524 C1523 1.398 . S
C1524 C1525 1.391 . S
C1525 H1513 0.950 . S
C1525 C1521 1.393 . S
C1525 C1524 1.391 . S
C1526 H1516 0.950 . S
C1526 C1527 1.386 . S
C1526 C1528 1.391 . S
C1527 C1526 1.386 . S
C1527 C1531 1.393 . S
C1528 H1517 0.950 . S
C1528 C1526 1.391 . S
C1528 C1529 1.400 . S
C1529 C1523 1.491 . S
C1529 C1528 1.400 . S
C1529 C1530 1.398 . S
C1530 H1518 0.950 . S
C1530 C1529 1.398 . S
C1530 C1531 1.391 . S
C1531 H1519 0.950 . S
C1531 C1527 1.393 . S
C1531 C1530 1.391 . S
H1532 C1540 0.950 . S
H1533 C1545 0.950 . S
H1534 C1542 0.950 . S
H1535 C1544 0.950 . S
H1536 C1546 0.950 . S
H1537 C1548 0.950 . S
H1538 C1550 0.950 . S
H1539 C1551 0.950 . S
C1540 H1532 0.950 . S
C1540 C1541 1.386 . S
C1540 C1542 1.391 . S
C1541 C1540 1.386 . S
C1541 C1545 1.393 . S
C1542 H1534 0.950 . S
C1542 C1540 1.391 . S
C1542 C1543 1.400 . S
C1543 C1542 1.400 . S
C1543 C1544 1.398 . S
C1543 C1549 1.491 . S
C1544 H1535 0.950 . S
C1544 C1543 1.398 . S
C1544 C1545 1.391 . S
C1545 H1533 0.950 . S
C1545 C1541 1.393 . S
C1545 C1544 1.391 . S
C1546 H1536 0.950 . S
C1546 C1547 1.386 . S
C1546 C1548 1.391 . S
C1547 C1546 1.386 . S
C1547 C1551 1.393 . S
C1548 H1537 0.950 . S
C1548 C1546 1.391 . S
C1548 C1549 1.400 . S
C1549 C1543 1.491 . S
C1549 C1548 1.400 . S
C1549 C1550 1.398 . S
C1550 H1538 0.950 . S
C1550 C1549 1.398 . S
C1550 C1551 1.391 . S
C1551 H1539 0.950 . S
C1551 C1547 1.393 . S
C1551 C1550 1.391 . S
H1552 C1560 0.950 . S
H1553 C1565 0.950 . S
H1554 C1562 0.950 . S
H1555 C1564 0.950 . S
H1556 C1566 0.950 . S
H1557 C1568 0.950 . S
H1558 C1570 0.950 . S
H1559 C1571 0.950 . S
C1560 H1552 0.950 . S
C1560 C1561 1.386 . S
C1560 C1562 1.391 . S
C1561 C1560 1.386 . S
C1561 C1565 1.393 . S
C1562 H1554 0.950 . S
C1562 C1560 1.391 . S
C1562 C1563 1.400 . S
C1563 C1562 1.400 . S
C1563 C1564 1.398 . S
C1563 C1569 1.491 . S
C1564 H1555 0.950 . S
C1564 C1563 1.398 . S
C1564 C1565 1.391 . S
C1565 H1553 0.950 . S
C1565 C1561 1.393 . S
C1565 C1564 1.391 . S
C1566 H1556 0.950 . S
C1566 C1567 1.386 . S
C1566 C1568 1.391 . S
C1567 C1566 1.386 . S
C1567 C1571 1.393 . S
C1568 H1557 0.950 . S
C1568 C1566 1.391 . S
C1568 C1569 1.400 . S
C1569 C1563 1.491 . S
C1569 C1568 1.400 . S
C1569 C1570 1.398 . S
C1570 H1558 0.950 . S
C1570 C1569 1.398 . S
C1570 C1571 1.391 . S
C1571 H1559 0.950 . S
C1571 C1567 1.393 . S
C1571 C1570 1.391 . S
H1572 C1580 0.901 1_556 S
H1573 C1585 0.950 . S
H1574 C1582 0.950 . S
H1575 C1584 0.950 . S
H1576 C1586 0.950 . S
H1577 C1588 0.950 . S
H1578 C1590 0.950 . S
H1579 C1591 0.950 . S
C1580 H1572 0.901 1_554 S
C1580 C1581 1.386 . S
C1580 C1582 1.391 . S
C1581 C1580 1.386 . S
C1581 C1585 1.393 . S
C1582 H1574 0.950 . S
C1582 C1580 1.391 . S
C1582 C1583 1.400 . S
C1583 C1582 1.400 . S
C1583 C1584 1.398 . S
C1583 C1589 1.491 . S
C1584 H1575 0.950 . S
C1584 C1583 1.398 . S
C1584 C1585 1.391 . S
C1585 H1573 0.950 . S
C1585 C1581 1.393 . S
C1585 C1584 1.391 . S
C1586 H1576 0.950 . S
C1586 C1587 1.386 . S
C1586 C1588 1.391 . S
C1587 C1586 1.386 . S
C1587 C1591 1.393 . S
C1588 H1577 0.950 . S
C1588 C1586 1.391 . S
C1588 C1589 1.400 . S
C1589 C1583 1.491 . S
C1589 C1588 1.400 . S
C1589 C1590 1.398 . S
C1590 H1578 0.950 . S
C1590 C1589 1.398 . S
C1590 C1591 1.391 . S
C1591 H1579 0.950 . S
C1591 C1587 1.393 . S
C1591 C1590 1.391 . S
H1592 C1600 0.950 . S
H1593 C1605 0.950 . S
H1594 C1602 0.950 . S
H1595 C1604 0.950 . S
H1596 C1606 0.950 . S
H1597 C1608 0.950 . S
H1598 C1610 0.950 . S
H1599 C1611 0.950 . S
C1600 H1592 0.950 . S
C1600 C1601 1.386 . S
C1600 C1602 1.391 . S
C1601 C1600 1.386 . S
C1601 C1605 1.393 . S
C1602 H1594 0.950 . S
C1602 C1600 1.391 . S
C1602 C1603 1.400 . S
C1603 C1602 1.400 . S
C1603 C1604 1.398 . S
C1603 C1609 1.491 . S
C1604 H1595 0.950 . S
C1604 C1603 1.398 . S
C1604 C1605 1.391 . S
C1605 H1593 0.950 . S
C1605 C1601 1.393 . S
C1605 C1604 1.391 . S
C1606 H1596 0.950 . S
C1606 C1607 1.386 . S
C1606 C1608 1.391 . S
C1607 C1606 1.386 . S
C1607 C1611 1.393 . S
C1608 H1597 0.950 . S
C1608 C1606 1.391 . S
C1608 C1609 1.400 . S
C1609 C1603 1.491 . S
C1609 C1608 1.400 . S
C1609 C1610 1.398 . S
C1610 H1598 0.950 . S
C1610 C1609 1.398 . S
C1610 C1611 1.391 . S
C1611 H1599 0.950 . S
C1611 C1607 1.393 . S
C1611 C1610 1.391 . S
H1612 C1620 0.950 . S
H1613 C1625 0.950 . S
H1614 C1622 0.950 . S
H1615 C1624 0.950 . S
H1616 C1626 0.950 . S
H1617 C1628 0.950 . S
H1618 C1630 0.950 . S
H1619 C1631 0.950 . S
C1620 H1612 0.950 . S
C1620 C1621 1.386 . S
C1620 C1622 1.391 . S
C1621 C1620 1.386 . S
C1621 C1625 1.393 . S
C1622 H1614 0.950 . S
C1622 C1620 1.391 . S
C1622 C1623 1.400 . S
C1623 C1622 1.400 . S
C1623 C1624 1.398 . S
C1623 C1629 1.491 . S
C1624 H1615 0.950 . S
C1624 C1623 1.398 . S
C1624 C1625 1.391 . S
C1625 H1613 0.950 . S
C1625 C1621 1.393 . S
C1625 C1624 1.391 . S
C1626 H1616 0.950 . S
C1626 C1627 1.386 . S
C1626 C1628 1.391 . S
C1627 C1626 1.386 . S
C1627 C1631 1.393 . S
C1628 H1617 0.950 . S
C1628 C1626 1.391 . S
C1628 C1629 1.400 . S
C1629 C1623 1.491 . S
C1629 C1628 1.400 . S
C1629 C1630 1.398 . S
C1630 H1618 0.950 . S
C1630 C1629 1.398 . S
C1630 C1631 1.391 . S
C1631 H1619 0.950 . S
C1631 C1627 1.393 . S
C1631 C1630 1.391 . S
H1632 C1640 0.950 . S
H1633 C1645 0.950 . S
H1634 C1642 0.950 . S
H1635 C1644 0.950 . S
H1636 C1646 0.950 . S
H1637 C1648 0.950 . S
H1638 C1650 0.950 . S
H1639 C1651 0.950 . S
C1640 H1632 0.950 . S
C1640 C1641 1.386 . S
C1640 C1642 1.391 . S
C1641 C1640 1.386 . S
C1641 C1645 1.393 . S
C1642 H1634 0.950 . S
C1642 C1640 1.391 . S
C1642 C1643 1.400 . S
C1643 C1642 1.400 . S
C1643 C1644 1.398 . S
C1643 C1649 1.491 . S
C1644 H1635 0.950 . S
C1644 C1643 1.398 . S
C1644 C1645 1.391 . S
C1645 H1633 0.950 . S
C1645 C1641 1.393 . S
C1645 C1644 1.391 . S
C1646 H1636 0.950 . S
C1646 C1647 1.386 . S
C1646 C1648 1.391 . S
C1647 C1646 1.386 . S
C1647 C1651 1.393 . S
C1648 H1637 0.950 . S
C1648 C1646 1.391 . S
C1648 C1649 1.400 . S
C1649 C1643 1.491 . S
C1649 C1648 1.400 . S
C1649 C1650 1.398 . S
C1650 H1638 0.950 . S
C1650 C1649 1.398 . S
C1650 C1651 1.391 . S
C1651 H1639 0.950 . S
C1651 C1647 1.393 . S
C1651 C1650 1.391 . S
H1652 C1660 0.950 . S
H1653 C1665 0.950 . S
H1654 C1662 0.950 . S
H1655 C1664 0.950 . S
H1656 C1666 0.950 . S
H1657 C1668 0.950 . S
H1658 C1670 0.950 . S
H1659 C1671 0.950 . S
C1660 H1652 0.950 . S
C1660 C1661 1.386 . S
C1660 C1662 1.391 . S
C1661 C1660 1.386 . S
C1661 C1665 1.393 . S
C1662 H1654 0.950 . S
C1662 C1660 1.391 . S
C1662 C1663 1.400 . S
C1663 C1662 1.400 . S
C1663 C1664 1.398 . S
C1663 C1669 1.491 . S
C1664 H1655 0.950 . S
C1664 C1663 1.398 . S
C1664 C1665 1.391 . S
C1665 H1653 0.950 . S
C1665 C1661 1.393 . S
C1665 C1664 1.391 . S
C1666 H1656 0.950 . S
C1666 C1667 1.386 . S
C1666 C1668 1.391 . S
C1667 C1666 1.386 . S
C1667 C1671 1.393 . S
C1668 H1657 0.950 . S
C1668 C1666 1.391 . S
C1668 C1669 1.400 . S
C1669 C1663 1.491 . S
C1669 C1668 1.400 . S
C1669 C1670 1.398 . S
C1670 H1658 0.950 . S
C1670 C1669 1.398 . S
C1670 C1671 1.391 . S
C1671 H1659 0.950 . S
C1671 C1667 1.393 . S
C1671 C1670 1.391 . S
H1672 C1680 0.950 . S
H1673 C1685 0.950 . S
H1674 C1682 0.950 1_554 S
H1675 C1684 0.950 . S
H1676 C1686 0.950 . S
H1677 C1688 0.950 . S
H1678 C1690 0.950 . S
H1679 C1691 0.950 . S
C1680 H1672 0.950 . S
C1680 C1681 1.386 . S
C1680 C1682 1.391 . S
C1681 C1680 1.386 . S
C1681 C1685 1.393 . S
C1682 H1674 0.950 1_556 S
C1682 C1680 1.391 . S
C1682 C1683 1.400 . S
C1683 C1682 1.400 . S
C1683 C1684 1.398 . S
C1683 C1689 1.491 . S
C1684 H1675 0.950 . S
C1684 C1683 1.398 . S
C1684 C1685 1.391 . S
C1685 H1673 0.950 . S
C1685 C1681 1.393 . S
C1685 C1684 1.391 . S
C1686 H1676 0.950 . S
C1686 C1687 1.386 . S
C1686 C1688 1.391 . S
C1687 C1686 1.386 . S
C1687 C1691 1.393 1_556 S
C1688 H1677 0.950 . S
C1688 C1686 1.391 . S
C1688 C1689 1.400 . S
C1689 C1683 1.491 . S
C1689 C1688 1.400 . S
C1689 C1690 1.398 1_556 S
C1690 H1678 0.950 . S
C1690 C1689 1.398 1_554 S
C1690 C1691 1.391 . S
C1691 H1679 0.950 . S
C1691 C1687 1.393 1_554 S
C1691 C1690 1.391 . S
H1692 C1700 0.950 . S
H1693 C1705 0.950 . S
H1694 C1702 0.950 . S
H1695 C1704 0.950 . S
H1696 C1706 0.950 . S
H1697 C1708 0.950 . S
H1698 C1710 0.950 . S
H1699 C1711 0.950 . S
C1700 H1692 0.950 . S
C1700 C1701 1.386 . S
C1700 C1702 1.391 . S
C1701 C1700 1.386 . S
C1701 C1705 1.393 . S
C1702 H1694 0.950 . S
C1702 C1700 1.391 . S
C1702 C1703 1.400 . S
C1703 C1702 1.400 . S
C1703 C1704 1.398 . S
C1703 C1709 1.491 . S
C1704 H1695 0.950 . S
C1704 C1703 1.398 . S
C1704 C1705 1.391 . S
C1705 H1693 0.950 . S
C1705 C1701 1.393 . S
C1705 C1704 1.391 . S
C1706 H1696 0.950 . S
C1706 C1707 1.386 . S
C1706 C1708 1.391 . S
C1707 C1706 1.386 . S
C1707 C1711 1.393 . S
C1708 H1697 0.950 . S
C1708 C1706 1.391 . S
C1708 C1709 1.400 . S
C1709 C1703 1.491 . S
C1709 C1708 1.400 . S
C1709 C1710 1.398 . S
C1710 H1698 0.950 . S
C1710 C1709 1.398 . S
C1710 C1711 1.391 . S
C1711 H1699 0.950 . S
C1711 C1707 1.393 . S
C1711 C1710 1.391 . S
H1712 C1720 0.950 . S
H1713 C1725 0.950 . S
H1714 C1722 0.950 . S
H1715 C1724 0.950 . S
H1716 C1726 0.950 . S
H1717 C1728 0.950 . S
H1718 C1730 0.950 1_556 S
H1719 C1731 0.950 1_556 S
C1720 H1712 0.950 . S
C1720 C1721 1.386 . S
C1720 C1722 1.391 . S
C1721 C1720 1.386 . S
C1721 C1725 1.393 . S
C1722 H1714 0.950 . S
C1722 C1720 1.391 . S
C1722 C1723 1.400 . S
C1723 C1722 1.400 . S
C1723 C1724 1.398 . S
C1723 C1729 1.491 . S
C1724 H1715 0.950 . S
C1724 C1723 1.398 . S
C1724 C1725 1.391 . S
C1725 H1713 0.950 . S
C1725 C1721 1.393 . S
C1725 C1724 1.391 . S
C1726 H1716 0.950 . S
C1726 C1727 1.386 . S
C1726 C1728 1.391 . S
C1727 C1726 1.386 . S
C1727 C1731 1.393 . S
C1728 H1717 0.950 . S
C1728 C1726 1.391 . S
C1728 C1729 1.400 . S
C1729 C1723 1.491 . S
C1729 C1728 1.400 . S
C1729 C1730 1.398 . S
C1730 H1718 0.950 1_554 S
C1730 C1729 1.398 . S
C1730 C1731 1.391 . S
C1731 H1719 0.950 1_554 S
C1731 C1727 1.393 . S
C1731 C1730 1.391 . S
H1732 C1740 0.950 . S
H1733 C1745 0.950 . S
H1734 C1742 0.950 . S
H1735 C1744 0.950 1_556 S
H1736 C1746 0.950 1_556 S
H1737 C1748 0.950 1_556 S
H1738 C1750 0.950 . S
H1739 C1751 0.950 . S
C1740 H1732 0.950 . S
C1740 C1741 1.386 . S
C1740 C1742 1.391 . S
C1741 C1740 1.386 . S
C1741 C1745 1.393 . S
C1742 H1734 0.950 . S
C1742 C1740 1.391 . S
C1742 C1743 1.400 . S
C1743 C1742 1.400 . S
C1743 C1744 1.398 . S
C1743 C1749 1.491 . S
C1744 H1735 0.950 1_554 S
C1744 C1743 1.398 . S
C1744 C1745 1.391 . S
C1745 H1733 0.950 . S
C1745 C1741 1.393 . S
C1745 C1744 1.391 . S
C1746 H1736 0.950 1_554 S
C1746 C1747 1.386 . S
C1746 C1748 1.391 . S
C1747 C1746 1.386 . S
C1747 C1751 1.393 . S
C1748 H1737 0.950 1_554 S
C1748 C1746 1.391 . S
C1748 C1749 1.400 . S
C1749 C1743 1.491 . S
C1749 C1748 1.400 . S
C1749 C1750 1.398 . S
C1750 H1738 0.950 . S
C1750 C1749 1.398 . S
C1750 C1751 1.391 . S
C1751 H1739 0.950 . S
C1751 C1747 1.393 . S
C1751 C1750 1.391 . S
C807 C632 1.490 . S
C801 C211 1.510 . S
C827 C645 1.470 . S
C821 C255 1.482 . S
C841 C274 1.659 . S
C847 C665 1.561 . S
C867 C679 1.373 . S
C861 C157 1.446 1_655 S
C887 C691 1.525 . S
C881 C391 1.528 . S
C907 C705 1.419 . S
C901 C484 1.424 . S
C921 C450 1.484 . S
C927 C715 1.471 . S
C947 C730 1.523 . S
C941 C352 1.548 . S
C961 C430 1.515 . S
C967 C744 1.480 . S
C987 C763 1.391 . S
C981 C367 1.449 . S
C1001 C411 1.510 . S
C1007 C743 1.494 . S
C1027 C761 1.419 . S
C1021 C469 1.424 . S
C1041 C294 1.652 . S
C1047 C777 1.530 . S
C1061 C177 1.484 . S
C1067 C771 1.486 . S
C1081 C196 1.518 . S
C1087 C775 1.516 . S
C1101 C235 1.541 . S
C1107 C772 1.510 . S
C1121 C133 1.520 . S
C1127 C674 1.482 . S
C1141 C567 1.486 . S
C1147 C673 1.481 . S
C1167 C637 1.374 . S
C1161 C601 1.436 1_565 S
C1187 C651 1.538 . S
C1181 C328 1.655 . S
C1201 C172 1.543 . S
C1207 C688 1.500 . S
C1227 C733 1.512 . S
C1221 C445 1.520 . S
C1247 C687 1.500 . S
C1241 C372 1.503 . S
C1267 C719 1.411 . S
C1261 C489 1.417 . S
C1287 C716 1.492 . S
C1281 C562 1.510 . S
C1301 C606 1.480 . S
C1307 C729 1.479 . S
C1321 C313 1.653 . S
C1327 C693 1.535 . S
C1347 C707 1.361 . S
C1341 C508 1.446 . S
C1361 C118 1.528 . S
C1367 C663 1.524 . S
C1387 C677 1.419 . S
C1381 C16 1.424 . S
C1407 C631 1.473 . S
C1401 C60 1.484 . S
C1427 C646 1.505 . S
C1421 C79 1.548 . S
C1441 C40 1.515 . S
C1447 C758 1.478 . S
C1461 C94 1.454 1_556 S
C1467 C749 1.364 . S
C1481 C138 1.509 . S
C1487 C757 1.498 . S
C1501 C1 1.424 . S
C1507 C747 1.424 . S
C1527 C791 1.543 . S
C1521 C333 1.655 . S
C1547 C785 1.483 . S
C1541 C528 1.490 . S
C1567 C789 1.509 . S
C1561 C547 1.518 . S
C1581 C586 1.540 . S
C1587 C786 1.516 . S
C1601 C406 1.519 . S
C1607 C702 1.500 . S
C1627 C701 1.470 . S
C1621 C216 1.487 . S
C1647 C721 1.376 . S
C1641 C250 1.433 . S
C1667 C735 1.547 . S
C1661 C289 1.656 . S
C1681 C523 1.544 . S
C1687 C660 1.516 . S
C1707 C649 1.517 . S
C1701 C55 1.520 . S
C1721 C99 1.506 . S
C1727 C659 1.495 . S
C1747 C635 1.417 . S
C1741 C21 1.415 . S
